# Generated by pormake.
# Topology vby, (6)-cn, num edge types: 1
# Building blocks:
#     Node 0, Type 0, BuildingBlock: BETDAH_clean_sbu_0, # of connection points: 6
#     Node 1, Type 0, BuildingBlock: BETDAH_clean_sbu_0, # of connection points: 6
#     Node 2, Type 0, BuildingBlock: BETDAH_clean_sbu_0, # of connection points: 6
#     Node 3, Type 0, BuildingBlock: BETDAH_clean_sbu_0, # of connection points: 6
#     Node 4, Type 0, BuildingBlock: BETDAH_clean_sbu_0, # of connection points: 6
#     Node 5, Type 0, BuildingBlock: BETDAH_clean_sbu_0, # of connection points: 6
#     Node 6, Type 0, BuildingBlock: BETDAH_clean_sbu_0, # of connection points: 6
#     Node 7, Type 0, BuildingBlock: BETDAH_clean_sbu_0, # of connection points: 6
#     Edge 8, Type (0, 0), BuildingBlock: TEMPAE_clean_linker_10, # of connection points: 2
#     Edge 9, Type (0, 0), BuildingBlock: TEMPAE_clean_linker_10, # of connection points: 2
#     Edge 10, Type (0, 0), BuildingBlock: TEMPAE_clean_linker_10, # of connection points: 2
#     Edge 11, Type (0, 0), BuildingBlock: TEMPAE_clean_linker_10, # of connection points: 2
#     Edge 12, Type (0, 0), BuildingBlock: TEMPAE_clean_linker_10, # of connection points: 2
#     Edge 13, Type (0, 0), BuildingBlock: TEMPAE_clean_linker_10, # of connection points: 2
#     Edge 14, Type (0, 0), BuildingBlock: TEMPAE_clean_linker_10, # of connection points: 2
#     Edge 15, Type (0, 0), BuildingBlock: TEMPAE_clean_linker_10, # of connection points: 2
#     Edge 16, Type (0, 0), BuildingBlock: TEMPAE_clean_linker_10, # of connection points: 2
#     Edge 17, Type (0, 0), BuildingBlock: TEMPAE_clean_linker_10, # of connection points: 2
#     Edge 18, Type (0, 0), BuildingBlock: TEMPAE_clean_linker_10, # of connection points: 2
#     Edge 19, Type (0, 0), BuildingBlock: TEMPAE_clean_linker_10, # of connection points: 2
#     Edge 20, Type (0, 0), BuildingBlock: TEMPAE_clean_linker_10, # of connection points: 2
#     Edge 21, Type (0, 0), BuildingBlock: TEMPAE_clean_linker_10, # of connection points: 2
#     Edge 22, Type (0, 0), BuildingBlock: TEMPAE_clean_linker_10, # of connection points: 2
#     Edge 23, Type (0, 0), BuildingBlock: TEMPAE_clean_linker_10, # of connection points: 2
#     Edge 24, Type (0, 0), BuildingBlock: TEMPAE_clean_linker_10, # of connection points: 2
#     Edge 25, Type (0, 0), BuildingBlock: TEMPAE_clean_linker_10, # of connection points: 2
#     Edge 26, Type (0, 0), BuildingBlock: TEMPAE_clean_linker_10, # of connection points: 2
#     Edge 27, Type (0, 0), BuildingBlock: TEMPAE_clean_linker_10, # of connection points: 2
#     Edge 28, Type (0, 0), BuildingBlock: TEMPAE_clean_linker_10, # of connection points: 2
#     Edge 29, Type (0, 0), BuildingBlock: TEMPAE_clean_linker_10, # of connection points: 2
#     Edge 30, Type (0, 0), BuildingBlock: TEMPAE_clean_linker_10, # of connection points: 2
#     Edge 31, Type (0, 0), BuildingBlock: TEMPAE_clean_linker_10, # of connection points: 2
# Relax obj value: 0.203
# Max RMSD: 0.219
# Mean RMSD: 0.219
data_MOF--net-vby--node1-BETDAH_clean_sbu_0--edge1-TEMPAE_clean_linker_10
_symmetry_space_group_name_H-M    P1
_symmetry_Int_Tables_number       1
_symmetry_cell_setting            triclinic
loop_
_symmetry_equiv_pos_as_xyz
'x, y, z'
_cell_length_a     15.754854
_cell_length_b     103.75213
_cell_length_c     29.632163
_cell_angle_alpha  90.000718
_cell_angle_beta   84.92091
_cell_angle_gamma 89.843213
loop_
_atom_site_label
_atom_site_type_symbol
_atom_site_fract_x
_atom_site_fract_y
_atom_site_fract_z
_atom_type_partial_charge
Ho0 Ho 0.05612 0.40446 0.00482 0.0
Ho1 Ho 0.05257 0.37548 0.01976 0.0
C2 C 0.87809 0.38943 0.01568 0.0
C3 C 1.03158 0.42824 0.98094 0.0
C4 C 0.05453 0.44198 0.9874 0.0
C5 C 0.06151 0.4502 0.94964 0.0
C6 C 0.07073 0.46355 0.95489 0.0
C7 C 0.07312 0.46908 0.9982 0.0
C8 C 0.06896 0.46074 0.03595 0.0
C9 C 0.05966 0.44736 0.03064 0.0
C10 C 0.06645 0.397 0.09211 0.0
C11 C 0.23625 0.39057 0.00615 0.0
C12 C 0.06692 0.35186 0.04805 0.0
C13 C 0.11338 0.33945 0.03885 0.0
C14 C 0.15549 0.3336 0.07342 0.0
C15 C 0.18997 0.32114 0.06791 0.0
C16 C 0.18277 0.31413 0.02772 0.0
C17 C 0.14264 0.32015 0.99262 0.0
C18 C 0.10843 0.33263 0.99808 0.0
C19 C 0.03871 0.38251 0.93248 0.0
O20 O 0.9236 0.39803 0.99128 0.0
O21 O 0.91625 0.38086 0.04 0.0
O22 O 0.08727 0.42059 0.95909 0.0
O23 O 0.98774 0.42245 0.01452 0.0
O24 O 0.10482 0.40693 0.07346 0.0
O25 O 1.01974 0.39198 0.06448 0.0
O26 O 0.19398 0.37976 0.0161 0.0
O27 O 0.19739 0.40149 0.9973 0.0
O28 O 1.01359 0.35554 0.01922 0.0
O29 O 0.10814 0.36156 0.06394 0.0
O30 O 1.00481 0.37232 0.9516 0.0
O31 O 0.08608 0.38787 0.95923 0.0
H32 H 0.05667 0.44635 0.91598 0.0
H33 H 0.07256 0.46958 0.925 0.0
H34 H 0.07193 0.46456 0.06978 0.0
H35 H 0.05427 0.44128 0.06047 0.0
H36 H 0.15938 0.33851 0.10542 0.0
H37 H 0.21954 0.31683 0.0959 0.0
H38 H 0.13695 0.31517 0.96091 0.0
H39 H 0.07628 0.33679 0.97069 0.0
Ho40 Ho 1.00683 0.65962 0.01034 0.0
Ho41 Ho 0.99509 0.6311 0.02854 0.0
C42 C 0.82187 0.64635 0.02923 0.0
C43 C 0.99636 0.68327 0.98128 0.0
C44 C 0.94829 0.6956 0.98804 0.0
C45 C 0.93008 0.70281 0.94996 0.0
C46 C 0.89517 0.71525 0.95478 0.0
C47 C 0.87764 0.72086 0.99793 0.0
C48 C 0.89326 0.71342 0.03619 0.0
C49 C 0.92829 0.70096 0.03132 0.0
C50 C 1.01743 0.65324 0.09871 0.0
C51 C 0.18135 0.6446 0.01254 0.0
C52 C 0.99837 0.60732 0.05698 0.0
C53 C 1.02622 0.5939 0.04572 0.0
C54 C 0.05172 0.58593 0.08037 0.0
C55 C 0.06565 0.5727 0.07306 0.0
C56 C 0.05427 0.56704 0.03078 0.0
C57 C 1.03163 0.57517 0.99556 0.0
C58 C 1.01768 0.58842 0.00294 0.0
C59 C 0.99242 0.6377 0.93933 0.0
O60 O 0.8667 0.65541 0.00684 0.0
O61 O 0.86029 0.63711 0.05037 0.0
O62 O 0.04307 0.67966 0.01325 0.0
O63 O 0.95925 0.67353 0.96322 0.0
O64 O 0.0551 0.6629 0.07817 0.0
O65 O 0.96795 0.64802 0.07273 0.0
O66 O 0.13626 0.63497 0.03167 0.0
O67 O 0.14421 0.65441 0.99357 0.0
O68 O 0.93855 0.61218 0.03437 0.0
O69 O 0.05543 0.61589 0.06568 0.0
O70 O 0.95165 0.62813 0.95875 0.0
O71 O 0.03855 0.64269 0.9672 0.0
H72 H 0.94513 0.69896 0.91621 0.0
H73 H 0.8827 0.72052 0.92453 0.0
H74 H 0.88132 0.71739 0.06995 0.0
H75 H 0.94196 0.69568 0.06138 0.0
H76 H 0.05768 0.58985 0.11383 0.0
H77 H 0.08193 0.56682 0.10124 0.0
H78 H 1.02357 0.57126 0.96233 0.0
H79 H 0.99782 0.5943 0.97554 0.0
Ho80 Ho 0.05345 0.6602 0.5255 0.0
Ho81 Ho 0.06793 0.63182 0.50765 0.0
C82 C 0.23981 0.64727 0.50622 0.0
C83 C 0.06054 0.68389 0.55429 0.0
C84 C 0.10858 0.69617 0.54876 0.0
C85 C 0.11468 0.70406 0.5868 0.0
C86 C 0.14899 0.71649 0.58217 0.0
C87 C 0.17808 0.72139 0.53925 0.0
C88 C 0.17487 0.71327 0.50129 0.0
C89 C 0.14034 0.70081 0.50596 0.0
C90 C 0.04246 0.65363 0.43732 0.0
C91 C 0.88032 0.64505 0.52331 0.0
C92 C 0.06748 0.60806 0.47917 0.0
C93 C 0.04202 0.59466 0.49106 0.0
C94 C 1.03245 0.58587 0.45593 0.0
C95 C 1.02082 0.57272 0.46504 0.0
C96 C 1.01822 0.56797 0.50969 0.0
C97 C 1.02499 0.57691 0.54511 0.0
C98 C 0.03695 0.5901 0.53589 0.0
C99 C 0.07039 0.63842 0.59683 0.0
O100 O 0.19431 0.6563 0.5286 0.0
O101 O 0.2019 0.63797 0.48531 0.0
O102 O 1.01814 0.68025 0.52067 0.0
O103 O 0.09565 0.67418 0.5738 0.0
O104 O 1.00269 0.66313 0.45795 0.0
O105 O 0.09326 0.64864 0.46314 0.0
O106 O 0.9263 0.63546 0.50427 0.0
O107 O 0.91657 0.6549 0.54227 0.0
O108 O 0.12732 0.61307 0.50126 0.0
O109 O 1.00847 0.61644 0.47131 0.0
O110 O 0.11246 0.62897 0.57722 0.0
O111 O 1.02336 0.64332 0.56912 0.0
H112 H 0.09043 0.70074 0.62014 0.0
H113 H 0.15177 0.72233 0.61229 0.0
H114 H 0.19609 0.7167 0.46767 0.0
H115 H 0.13611 0.69496 0.47596 0.0
H116 H 0.03727 0.58912 0.42104 0.0
H117 H 1.01732 0.56621 0.43671 0.0
H118 H 1.0221 0.57369 0.57997 0.0
H119 H 0.04456 0.59669 0.56362 0.0
Ho120 Ho 0.99728 0.40392 0.51843 0.0
Ho121 Ho 1.00576 0.37527 0.50966 0.0
C122 C 0.17887 0.38985 0.50957 0.0
C123 C 1.01007 0.42851 0.53019 0.0
C124 C 1.01817 0.44277 0.53332 0.0
C125 C 0.99957 0.44935 0.57448 0.0
C126 C 1.002 0.4629 0.57601 0.0
C127 C 1.02267 0.47018 0.53635 0.0
C128 C 0.04174 0.46349 0.49535 0.0
C129 C 0.03976 0.45001 0.4939 0.0
C130 C 0.98314 0.39478 0.43329 0.0
C131 C 0.81932 0.38955 0.52347 0.0
C132 C 0.99598 0.35122 0.48558 0.0
C133 C 0.94819 0.33895 0.49346 0.0
C134 C 0.92169 0.33221 0.45611 0.0
C135 C 0.88748 0.31978 0.46121 0.0
C136 C 0.87909 0.31371 0.50388 0.0
C137 C 0.90284 0.32067 0.54161 0.0
C138 C 0.93715 0.33313 0.53647 0.0
C139 C 1.0231 0.38364 0.59504 0.0
O140 O 0.13292 0.39896 0.53131 0.0
O141 O 0.1413 0.38062 0.48808 0.0
O142 O 0.04358 0.42237 0.49446 0.0
O143 O 0.97203 0.42108 0.5615 0.0
O144 O 0.93788 0.40403 0.45218 0.0
O145 O 0.03475 0.39079 0.4604 0.0
O146 O 0.86293 0.37878 0.51422 0.0
O147 O 0.8573 0.40059 0.53052 0.0
O148 O 0.04122 0.35531 0.51753 0.0
O149 O 0.95968 0.36065 0.46506 0.0
O150 O 0.06066 0.37363 0.5764 0.0
O151 O 0.9716 0.3883 0.56879 0.0
H152 H 0.98242 0.44405 0.60541 0.0
H153 H 0.98786 0.46765 0.60834 0.0
H154 H 0.05617 0.46866 0.46389 0.0
H155 H 0.05328 0.44528 0.46147 0.0
H156 H 0.92986 0.33642 0.42254 0.0
H157 H 0.86855 0.31486 0.43149 0.0
H158 H 0.89801 0.31632 0.57494 0.0
H159 H 0.95741 0.33801 0.56597 0.0
Ho160 Ho 0.53997 0.90372 0.00995 0.0
Ho161 Ho 0.53646 0.87504 0.02613 0.0
C162 C 0.36202 0.88879 0.02161 0.0
C163 C 0.51344 0.92742 0.98575 0.0
C164 C 0.5328 0.94125 0.99323 0.0
C165 C 0.54909 0.94937 0.95554 0.0
C166 C 0.5542 0.96277 0.96091 0.0
C167 C 0.54274 0.96845 0.00422 0.0
C168 C 0.52945 0.96024 0.04211 0.0
C169 C 0.52451 0.94682 0.0367 0.0
C170 C 0.55212 0.8968 0.09773 0.0
C171 C 0.7203 0.88999 0.01109 0.0
C172 C 0.55134 0.85147 0.05488 0.0
C173 C 0.59817 0.83912 0.04558 0.0
C174 C 0.62957 0.83236 0.08168 0.0
C175 C 0.66447 0.81996 0.07527 0.0
C176 C 0.66862 0.81393 0.03252 0.0
C177 C 0.63925 0.82089 0.99606 0.0
C178 C 0.60453 0.83332 0.00247 0.0
C179 C 0.52189 0.88163 0.93835 0.0
O180 O 0.40776 0.89718 0.99642 0.0
O181 O 0.40021 0.88041 0.04658 0.0
O182 O 0.57227 0.92003 0.96515 0.0
O183 O 0.4677 0.92139 0.01804 0.0
O184 O 0.59071 0.90653 0.07783 0.0
O185 O 0.50431 0.89162 0.07092 0.0
O186 O 0.67797 0.87925 0.022 0.0
O187 O 0.68129 0.90082 0.00156 0.0
O188 O 0.49783 0.85508 0.02606 0.0
O189 O 0.59258 0.86121 0.07044 0.0
O190 O 0.48709 0.87165 0.95842 0.0
O191 O 0.56991 0.88708 0.96456 0.0
H192 H 0.5546 0.94537 0.92162 0.0
H193 H 0.56364 0.96872 0.93087 0.0
H194 H 0.52173 0.96421 0.07603 0.0
H195 H 0.51169 0.94084 0.06649 0.0
H196 H 0.62469 0.83652 0.11535 0.0
H197 H 0.68542 0.81492 0.10432 0.0
H198 H 0.64252 0.81669 0.96249 0.0
H199 H 0.58092 0.83825 0.97387 0.0
Ho200 Ho 0.52457 0.15982 0.01014 0.0
Ho201 Ho 0.52096 0.13115 0.02661 0.0
C202 C 0.34065 0.14488 0.02558 0.0
C203 C 0.50973 0.18332 0.98075 0.0
C204 C 0.4622 0.19567 0.98869 0.0
C205 C 0.43168 0.20213 0.95171 0.0
C206 C 0.39681 0.21456 0.95666 0.0
C207 C 0.3917 0.22094 0.99881 0.0
C208 C 0.41973 0.21426 0.03623 0.0
C209 C 0.45465 0.2018 0.03124 0.0
C210 C 0.53932 0.15334 0.09794 0.0
C211 C 0.69905 0.14609 0.0148 0.0
C212 C 0.54806 0.10751 0.05117 0.0
C213 C 0.52853 0.09362 0.04537 0.0
C214 C 0.52306 0.08559 0.08364 0.0
C215 C 0.5187 0.07217 0.07912 0.0
C216 C 0.51978 0.06637 0.03609 0.0
C217 C 0.52162 0.07448 0.9978 0.0
C218 C 0.52627 0.08795 0.00237 0.0
C219 C 0.50852 0.13808 0.93881 0.0
O220 O 0.383 0.15562 0.01467 0.0
O221 O 0.37965 0.13403 0.03501 0.0
O222 O 0.56153 0.17986 0.01064 0.0
O223 O 0.47001 0.17349 0.96471 0.0
O224 O 0.57431 0.16327 0.07768 0.0
O225 O 0.49126 0.14782 0.07187 0.0
O226 O 0.65332 0.13768 0.03992 0.0
O227 O 0.66092 0.15449 0.98988 0.0
O228 O 0.49064 0.115 0.07243 0.0
O229 O 0.59148 0.11334 0.01757 0.0
O230 O 0.46948 0.1284 0.95883 0.0
O231 O 0.55672 0.14318 0.96558 0.0
H232 H 0.43698 0.19768 0.91849 0.0
H233 H 0.37458 0.21923 0.92721 0.0
H234 H 0.4176 0.21884 0.06915 0.0
H235 H 0.47797 0.19714 0.06044 0.0
H236 H 0.52523 0.08969 0.11716 0.0
H237 H 0.51579 0.0663 0.10943 0.0
H238 H 0.52301 0.0704 0.96411 0.0
H239 H 0.53103 0.09387 0.97216 0.0
Ho240 Ho 0.56323 0.15895 0.52633 0.0
Ho241 Ho 0.57705 0.1306 0.50637 0.0
C242 C 0.74895 0.14585 0.50756 0.0
C243 C 0.5725 0.18242 0.55691 0.0
C244 C 0.61627 0.19497 0.5478 0.0
C245 C 0.65226 0.20135 0.58327 0.0
C246 C 0.68497 0.21386 0.57736 0.0
C247 C 0.68208 0.22036 0.53579 0.0
C248 C 0.648 0.21381 0.49988 0.0
C249 C 0.61558 0.20127 0.50577 0.0
C250 C 0.55575 0.15307 0.43722 0.0
C251 C 0.39008 0.14391 0.52257 0.0
C252 C 0.57629 0.10703 0.47598 0.0
C253 C 0.55274 0.09345 0.48678 0.0
C254 C 0.52134 0.08576 0.45304 0.0
C255 C 0.5117 0.07243 0.45906 0.0
C256 C 0.53351 0.06639 0.49904 0.0
C257 C 0.56158 0.07421 0.53367 0.0
C258 C 0.57127 0.08757 0.52759 0.0
C259 C 0.57826 0.13671 0.5961 0.0
O260 O 0.70322 0.15464 0.53105 0.0
O261 O 0.71128 0.13685 0.4851 0.0
O262 O 0.51878 0.17869 0.52853 0.0
O263 O 0.61681 0.17282 0.57122 0.0
O264 O 0.5177 0.1627 0.45791 0.0
O265 O 0.60423 0.14772 0.46342 0.0
O266 O 0.43605 0.13454 0.50208 0.0
O267 O 0.42658 0.15346 0.5431 0.0
O268 O 0.63767 0.11201 0.49702 0.0
O269 O 0.51607 0.11538 0.46986 0.0
O270 O 0.61946 0.12721 0.57626 0.0
O271 O 0.53229 0.14183 0.56839 0.0
H272 H 0.65283 0.1968 0.61615 0.0
H273 H 0.70982 0.21861 0.60593 0.0
H274 H 0.64583 0.21841 0.4672 0.0
H275 H 0.5883 0.19664 0.47768 0.0
H276 H 0.50706 0.09002 0.42117 0.0
H277 H 0.4884 0.06681 0.43197 0.0
H278 H 0.57952 0.06994 0.56479 0.0
H279 H 0.59618 0.09322 0.55416 0.0
Ho280 Ho 0.48336 0.90431 0.52971 0.0
Ho281 Ho 0.49725 0.8759 0.51075 0.0
C282 C 0.67009 0.89092 0.5144 0.0
C283 C 0.48549 0.92799 0.55909 0.0
C284 C 0.50557 0.94156 0.54616 0.0
C285 C 0.54651 0.94941 0.57613 0.0
C286 C 0.55489 0.96271 0.56855 0.0
C287 C 0.52206 0.96854 0.53083 0.0
C288 C 0.48367 0.96057 0.49994 0.0
C289 C 0.47553 0.94725 0.50748 0.0
C290 C 0.48165 0.89805 0.44025 0.0
C291 C 0.31122 0.88897 0.52965 0.0
C292 C 0.48928 0.85231 0.48111 0.0
C293 C 0.44399 0.83987 0.48924 0.0
C294 C 0.42682 0.83225 0.452 0.0
C295 C 0.39345 0.81979 0.45824 0.0
C296 C 0.37655 0.8146 0.50203 0.0
C297 C 0.39168 0.82241 0.53942 0.0
C298 C 0.42496 0.83489 0.53312 0.0
C299 C 0.5063 0.88217 0.59944 0.0
O300 O 0.62393 0.90025 0.53501 0.0
O301 O 0.63381 0.88137 0.49376 0.0
O302 O 0.42082 0.92268 0.5418 0.0
O303 O 0.54818 0.91988 0.56248 0.0
O304 O 0.44087 0.90761 0.45989 0.0
O305 O 0.52764 0.89292 0.46796 0.0
O306 O 0.35679 0.88002 0.50688 0.0
O307 O 0.349 0.89815 0.5512 0.0
O308 O 0.53887 0.85605 0.51155 0.0
O309 O 0.44787 0.86192 0.46473 0.0
O310 O 0.54503 0.87257 0.57893 0.0
O311 O 0.45683 0.8873 0.57329 0.0
H312 H 0.56931 0.94532 0.60647 0.0
H313 H 0.58406 0.9685 0.59334 0.0
H314 H 0.45886 0.96466 0.47014 0.0
H315 H 0.44351 0.94148 0.48372 0.0
H316 H 0.44169 0.83579 0.41782 0.0
H317 H 0.38371 0.81408 0.42858 0.0
H318 H 0.37831 0.81884 0.57364 0.0
H319 H 0.43751 0.84054 0.56254 0.0
C320 C 0.37432 0.40141 0.01875 0.0
C321 C 0.33059 0.39041 0.00603 0.0
C322 C 0.46313 0.40117 0.02131 0.0
C323 C 0.50993 0.38978 0.00954 0.0
C324 C 0.46616 0.37873 0.99577 0.0
C325 C 0.37699 0.37912 0.9949 0.0
C326 C 0.50672 0.41305 0.03731 0.0
C327 C 0.51361 0.36652 0.98161 0.0
C328 C 0.74769 0.3937 0.97559 0.0
C329 C 0.78411 0.38926 0.01425 0.0
C330 C 0.6589 0.39369 0.97331 0.0
C331 C 0.60469 0.38948 0.01112 0.0
C332 C 0.64119 0.38508 0.05043 0.0
C333 C 0.73049 0.38483 0.05125 0.0
C334 C 0.62316 0.39811 0.93026 0.0
C335 C 0.58584 0.38081 0.0919 0.0
H336 H 0.33869 0.41011 0.02796 0.0
H337 H 0.3436 0.37061 0.98487 0.0
H338 H 0.54167 0.41066 0.06714 0.0
H339 H 0.55429 0.41658 0.01033 0.0
H340 H 0.46098 0.42098 0.04674 0.0
H341 H 0.47065 0.35892 0.9704 0.0
H342 H 0.56293 0.36861 0.95348 0.0
H343 H 0.54701 0.36271 0.01022 0.0
H344 H 0.78886 0.39701 0.94668 0.0
H345 H 0.7583 0.38147 0.0813 0.0
H346 H 0.58242 0.40674 0.93717 0.0
H347 H 0.58232 0.39046 0.91753 0.0
H348 H 0.67397 0.40052 0.9032 0.0
H349 H 0.54204 0.38875 0.1038 0.0
H350 H 0.62389 0.37794 0.12009 0.0
H351 H 0.54582 0.37254 0.08339 0.0
C352 C 0.32379 0.63349 0.00601 0.0
C353 C 0.27518 0.64471 0.01431 0.0
C354 C 0.41286 0.63358 0.00816 0.0
C355 C 0.45379 0.64502 0.02094 0.0
C356 C 0.40424 0.65629 0.03043 0.0
C357 C 0.31599 0.65606 0.02608 0.0
C358 C 0.46331 0.62149 0.99604 0.0
C359 C 0.44424 0.66855 0.04581 0.0
C360 C 0.67413 0.64169 0.06498 0.0
C361 C 0.72772 0.6462 0.02809 0.0
C362 C 0.58488 0.64145 0.06348 0.0
C363 C 0.54851 0.64532 0.02345 0.0
C364 C 0.60281 0.64964 0.98582 0.0
C365 C 0.69133 0.65025 0.98892 0.0
C366 C 0.52943 0.63721 0.10494 0.0
C367 C 0.56754 0.65343 0.94196 0.0
H368 H 0.29232 0.62471 0.99687 0.0
H369 H 0.27828 0.6647 0.03323 0.0
H370 H 0.51332 0.62356 0.96822 0.0
H371 H 0.4961 0.61816 0.02552 0.0
H372 H 0.42253 0.61356 0.98518 0.0
H373 H 0.39623 0.67622 0.05452 0.0
H374 H 0.47938 0.6666 0.07595 0.0
H375 H 0.4911 0.67222 0.01875 0.0
H376 H 0.70193 0.63858 0.09536 0.0
H377 H 0.73254 0.65358 0.96003 0.0
H378 H 0.4929 0.6285 0.09711 0.0
H379 H 0.48243 0.64488 0.11529 0.0
H380 H 0.56713 0.63502 0.13397 0.0
H381 H 0.52922 0.64542 0.92962 0.0
H382 H 0.61855 0.65592 0.91509 0.0
H383 H 0.52448 0.66186 0.94757 0.0
C384 C 0.73754 0.63413 0.53082 0.0
C385 C 0.78664 0.64519 0.52099 0.0
C386 C 0.64847 0.63432 0.52857 0.0
C387 C 0.60809 0.64567 0.51414 0.0
C388 C 0.65823 0.65673 0.50298 0.0
C389 C 0.74642 0.65643 0.50746 0.0
C390 C 0.59739 0.62246 0.54242 0.0
C391 C 0.6189 0.66886 0.48579 0.0
C392 C 0.38737 0.6422 0.47081 0.0
C393 C 0.33408 0.64718 0.50712 0.0
C394 C 0.47662 0.64184 0.47225 0.0
C395 C 0.51336 0.64609 0.51167 0.0
C396 C 0.45941 0.65093 0.54868 0.0
C397 C 0.37086 0.65163 0.54562 0.0
C398 C 0.53168 0.63704 0.4314 0.0
C399 C 0.49508 0.65518 0.59191 0.0
H400 H 0.76859 0.62543 0.54132 0.0
H401 H 0.78455 0.66493 0.49915 0.0
H402 H 0.54771 0.62492 0.57002 0.0
H403 H 0.56415 0.61886 0.51349 0.0
H404 H 0.6378 0.61458 0.55428 0.0
H405 H 0.66735 0.67634 0.47583 0.0
H406 H 0.58344 0.6666 0.45604 0.0
H407 H 0.57244 0.67294 0.51233 0.0
H408 H 0.35933 0.63877 0.44094 0.0
H409 H 0.32994 0.65531 0.57409 0.0
H410 H 0.56756 0.62834 0.44042 0.0
H411 H 0.57925 0.64449 0.41997 0.0
H412 H 0.49377 0.6346 0.40271 0.0
H413 H 0.53281 0.64724 0.60543 0.0
H414 H 0.44434 0.6581 0.6184 0.0
H415 H 0.53881 0.66344 0.585 0.0
C416 C 0.68217 0.40032 0.50903 0.0
C417 C 0.72506 0.3894 0.52344 0.0
C418 C 0.59356 0.40023 0.50617 0.0
C419 C 0.54589 0.38908 0.51941 0.0
C420 C 0.5887 0.37811 0.5349 0.0
C421 C 0.67794 0.37832 0.53597 0.0
C422 C 0.55115 0.412 0.48824 0.0
C423 C 0.54015 0.36617 0.55064 0.0
C424 C 0.30809 0.39432 0.55025 0.0
C425 C 0.27258 0.3896 0.51178 0.0
C426 C 0.39654 0.39388 0.55368 0.0
C427 C 0.45132 0.38898 0.51713 0.0
C428 C 0.4157 0.3843 0.47799 0.0
C429 C 0.32667 0.38446 0.47611 0.0
C430 C 0.43129 0.39862 0.59655 0.0
C431 C 0.47174 0.37932 0.43775 0.0
H432 H 0.71838 0.40885 0.49867 0.0
H433 H 0.71075 0.36987 0.54723 0.0
H434 H 0.51652 0.40934 0.45859 0.0
H435 H 0.50348 0.41594 0.51447 0.0
H436 H 0.59758 0.41972 0.47786 0.0
H437 H 0.5823 0.35864 0.56336 0.0
H438 H 0.49034 0.3687 0.57809 0.0
H439 H 0.50724 0.36206 0.52239 0.0
H440 H 0.26641 0.39813 0.57821 0.0
H441 H 0.29945 0.38083 0.44627 0.0
H442 H 0.47296 0.40708 0.58896 0.0
H443 H 0.47097 0.391 0.61059 0.0
H444 H 0.37994 0.40142 0.62287 0.0
H445 H 0.51693 0.38695 0.42499 0.0
H446 H 0.43432 0.37621 0.40963 0.0
H447 H 0.51027 0.37104 0.44799 0.0
C448 C 0.85858 0.90088 0.02288 0.0
C449 C 0.81468 0.88983 0.01084 0.0
C450 C 0.94737 0.90063 0.02559 0.0
C451 C 0.99398 0.88917 0.01465 0.0
C452 C 0.95005 0.87807 1.0015 0.0
C453 C 0.8609 0.87848 1.00048 0.0
C454 C 0.99113 0.91259 0.04089 0.0
C455 C 0.99729 0.86578 0.98821 0.0
C456 C 0.23202 0.89283 0.98094 0.0
C457 C 0.26807 0.8886 0.01999 0.0
C458 C 0.14329 0.89283 0.97847 0.0
C459 C 0.08871 0.88885 0.01646 0.0
C460 C 0.12482 0.88464 0.05614 0.0
C461 C 0.21409 0.88438 0.05718 0.0
C462 C 0.108 0.89704 0.93505 0.0
C463 C 0.06908 0.88061 0.09777 0.0
H464 H 0.8231 0.90964 0.0315 0.0
H465 H 0.82738 0.86992 0.99099 0.0
H466 H 1.02572 0.91034 0.07098 0.0
H467 H 0.03904 0.91594 0.01379 0.0
H468 H 0.94555 0.92058 0.04966 0.0
H469 H 0.95424 0.85813 0.97734 0.0
H470 H 0.04689 0.86771 0.96007 0.0
H471 H 1.0303 0.86209 0.01714 0.0
H472 H 0.27345 0.89598 0.95189 0.0
H473 H 0.2416 0.88117 0.08752 0.0
H474 H 0.06751 0.90573 0.94131 0.0
H475 H 0.06701 0.88934 0.92275 0.0
H476 H 0.15906 0.89928 0.90792 0.0
H477 H 1.02544 0.88862 0.10908 0.0
H478 H 0.10684 0.87786 0.12623 0.0
H479 H 1.02888 0.87231 0.0897 0.0
C480 C 0.20229 0.13399 0.01397 0.0
C481 C 0.24627 0.14504 0.02588 0.0
C482 C 0.1135 0.13424 0.01127 0.0
C483 C 0.06698 0.14572 0.02205 0.0
C484 C 0.11098 0.15683 0.03508 0.0
C485 C 0.20011 0.15641 0.03611 0.0
C486 C 0.06966 0.12228 0.99612 0.0
C487 C 0.06382 0.16914 0.0482 0.0
C488 C 0.84704 0.15048 0.9793 0.0
C489 C 0.79296 0.14629 0.0165 0.0
C490 C 0.93629 0.15022 0.98042 0.0
C491 C 0.97227 0.14605 0.02019 0.0
C492 C 0.91759 0.14211 0.05819 0.0
C493 C 0.82888 0.1421 0.05564 0.0
C494 C 0.99215 0.15421 0.93877 0.0
C495 C 0.95275 0.13796 0.1017 0.0
H496 H 0.23771 0.12522 0.00545 0.0
H497 H 0.23369 0.16498 0.0455 0.0
H498 H 1.02166 0.11896 0.02323 0.0
H499 H 0.03517 0.12449 0.96596 0.0
H500 H 0.11518 0.11427 0.98749 0.0
H501 H 0.1069 0.17679 0.05901 0.0
H502 H 1.03091 0.1728 0.0192 0.0
H503 H 1.01413 0.16724 0.07634 0.0
H504 H 0.81961 0.15365 0.94889 0.0
H505 H 0.78736 0.13899 0.08471 0.0
H506 H 0.03574 0.14618 0.92757 0.0
H507 H 1.03239 0.16251 0.94677 0.0
H508 H 0.95447 0.15694 0.91026 0.0
H509 H 0.99315 0.12925 0.09561 0.0
H510 H 0.90161 0.13575 0.12884 0.0
H511 H 0.99379 0.14566 0.11391 0.0
C512 C 0.24861 0.13264 0.52601 0.0
C513 C 0.29616 0.14403 0.52088 0.0
C514 C 0.15944 0.13276 0.5242 0.0
C515 C 0.11724 0.14446 0.51503 0.0
C516 C 0.16567 0.15592 0.50875 0.0
C517 C 0.25407 0.15561 0.51268 0.0
C518 C 0.11023 0.12042 0.53284 0.0
C519 C 0.12431 0.1685 0.49724 0.0
C520 C 0.89689 0.14209 0.47054 0.0
C521 C 0.84308 0.14572 0.50866 0.0
C522 C 0.98618 0.14185 0.47183 0.0
C523 C 1.02243 0.14478 0.51279 0.0
C524 C 0.96788 0.14819 0.55161 0.0
C525 C 0.87924 0.14886 0.54881 0.0
C526 C 0.04179 0.13864 0.42918 0.0
C527 C 1.00303 0.15094 0.59639 0.0
H528 H 0.28098 0.12368 0.53244 0.0
H529 H 0.29087 0.1644 0.50803 0.0
H530 H 0.06025 0.12181 0.56126 0.0
H531 H 0.07749 0.11778 0.50255 0.0
H532 H 0.15188 0.11226 0.54124 0.0
H533 H 0.17151 0.17637 0.49075 0.0
H534 H 0.08904 0.16727 0.46673 0.0
H535 H 0.07736 0.17149 0.52541 0.0
H536 H 0.86919 0.13968 0.43941 0.0
H537 H 0.83779 0.1515 0.57857 0.0
H538 H 0.07919 0.12978 0.43432 0.0
H539 H 0.08802 0.14655 0.4211 0.0
H540 H 1.00411 0.13715 0.39966 0.0
H541 H 0.04227 0.14268 0.60624 0.0
H542 H 0.95191 0.15276 0.62397 0.0
H543 H 0.0452 0.1595 0.59325 0.0
C544 C 0.80504 0.87937 0.52753 0.0
C545 C 0.76388 0.89079 0.51643 0.0
C546 C 0.89339 0.87908 0.53165 0.0
C547 C 0.94269 0.89035 0.52254 0.0
C548 C 0.90136 0.90186 0.51049 0.0
C549 C 0.8122 0.90201 0.50861 0.0
C550 C 0.93378 0.86673 0.54631 0.0
C551 C 0.95149 0.91396 0.49879 0.0
C552 C 0.16355 0.89344 0.56603 0.0
C553 C 0.21697 0.88905 0.52878 0.0
C554 C 0.07423 0.8937 0.56482 0.0
C555 C 0.03753 0.88999 0.52475 0.0
C556 C 0.09163 0.88578 0.4868 0.0
C557 C 0.18029 0.88513 0.48958 0.0
C558 C 1.01908 0.8978 0.60663 0.0
C559 C 0.056 0.88215 0.44289 0.0
H560 H 0.76755 0.87072 0.53427 0.0
H561 H 0.78045 0.91084 0.49994 0.0
H562 H 0.98032 0.86313 0.51892 0.0
H563 H 0.96935 0.86855 0.57637 0.0
H564 H 0.88595 0.85906 0.55487 0.0
H565 H 0.91041 0.92197 0.48847 0.0
H566 H 0.98463 0.91717 0.5283 0.0
H567 H 1.0012 0.91197 0.47071 0.0
H568 H 0.19157 0.89644 0.59643 0.0
H569 H 0.22135 0.88191 0.46044 0.0
H570 H 0.97218 0.89013 0.61667 0.0
H571 H 0.98245 0.90658 0.59936 0.0
H572 H 0.05703 0.89983 0.63567 0.0
H573 H 1.01307 0.87374 0.44826 0.0
H574 H 0.10683 0.87972 0.4158 0.0
H575 H 1.01745 0.89024 0.431 0.0
C576 C 0.12482 0.54559 0.04461 0.0
C577 C 0.06224 0.55269 0.02429 0.0
C578 C 0.13015 0.53206 0.04061 0.0
C579 C 0.07166 0.52533 0.01559 0.0
C580 C 1.00913 0.53244 0.99447 0.0
C581 C 1.00514 0.54596 0.99909 0.0
C582 C 0.19802 0.52493 0.06359 0.0
C583 C 0.9454 0.52573 0.96748 0.0
C584 C 0.12473 0.49121 0.97231 0.0
C585 C 0.0762 0.48348 0.00385 0.0
C586 C 0.12455 0.50477 0.97594 0.0
C587 C 0.07483 0.51087 0.01207 0.0
C588 C 1.0268 0.50314 0.04443 0.0
C589 C 1.02797 0.48961 0.03993 0.0
C590 C 0.17695 0.51258 0.94072 0.0
C591 C 0.97287 0.50918 0.08352 0.0
H592 H 0.17013 0.55063 0.06364 0.0
H593 H 0.95561 0.55123 0.98378 0.0
H594 H 0.16783 0.51805 0.08876 0.0
H595 H 0.23839 0.51922 0.03832 0.0
H596 H 0.23959 0.53155 0.08118 0.0
H597 H 0.90222 0.53262 0.95209 0.0
H598 H 0.9791 0.51989 0.94006 0.0
H599 H 0.90621 0.51901 0.9897 0.0
H600 H 0.16327 0.48666 0.94465 0.0
H601 H 0.98912 0.48383 0.06418 0.0
H602 H 0.22229 0.51879 0.95727 0.0
H603 H 0.1347 0.51904 0.9229 0.0
H604 H 0.21353 0.50641 0.91521 0.0
H605 H 1.01275 0.51545 0.10334 0.0
H606 H 0.94133 0.50186 0.10662 0.0
H607 H 0.92305 0.51537 0.07043 0.0
C608 C 0.08279 0.49162 0.50888 0.0
C609 C 1.02274 0.48466 0.53706 0.0
C610 C 0.08057 0.50517 0.50678 0.0
C611 C 1.01741 0.51209 0.53395 0.0
C612 C 0.95802 0.50519 0.56342 0.0
C613 C 0.96113 0.4916 0.56449 0.0
C614 C 0.14515 0.51208 0.4748 0.0
C615 C 0.89008 0.51215 0.59326 0.0
C616 C 0.06008 0.54794 0.55119 0.0
C617 C 1.0126 0.55373 0.51862 0.0
C618 C 0.06028 0.53447 0.55749 0.0
C619 C 1.01244 0.5265 0.53038 0.0
C620 C 0.96278 0.53228 0.49825 0.0
C621 C 0.96312 0.54577 0.49295 0.0
C622 C 0.11363 0.52875 0.59237 0.0
C623 C 0.91085 0.52419 0.46856 0.0
H624 H 0.13187 0.48647 0.48819 0.0
H625 H 0.91371 0.48641 0.58605 0.0
H626 H 0.11199 0.51764 0.44959 0.0
H627 H 0.18149 0.51907 0.49381 0.0
H628 H 0.19089 0.50534 0.45638 0.0
H629 H 0.85161 0.50548 0.6161 0.0
H630 H 0.91962 0.51947 0.6142 0.0
H631 H 0.84671 0.51735 0.57195 0.0
H632 H 0.09946 0.55389 0.5709 0.0
H633 H 0.92485 0.55008 0.46829 0.0
H634 H 0.16574 0.52284 0.57525 0.0
H635 H 0.0743 0.52226 0.61541 0.0
H636 H 0.14225 0.53626 0.61298 0.0
H637 H 0.9537 0.51777 0.44693 0.0
H638 H 0.87333 0.53016 0.44631 0.0
H639 H 0.86642 0.51794 0.48976 0.0
C640 C 0.59751 0.99072 0.98252 0.0
C641 C 0.54107 0.98285 0.00955 0.0
C642 C 0.59462 1.00427 0.98625 0.0
C643 C 0.53368 1.01021 0.01774 0.0
C644 C 0.47675 1.00234 0.04523 0.0
C645 C 0.48115 0.98882 0.04086 0.0
C646 C 0.65698 1.01223 0.95646 0.0
C647 C 0.41057 1.00821 0.07914 0.0
C648 C 0.57401 0.04452 0.05775 0.0
C649 C 0.52263 0.05197 0.03128 0.0
C650 C 0.57833 0.031 0.0536 0.0
C651 C 0.52997 0.02464 0.02224 0.0
C652 C 0.47798 0.03208 0.99537 0.0
C653 C 0.47515 0.04561 1.00008 0.0
C654 C 0.63511 0.02352 0.08272 0.0
C655 C 0.42495 0.02572 0.9617 0.0
H656 H 0.64473 0.98627 0.95858 0.0
H657 H 0.43622 0.98291 0.06144 0.0
H658 H 0.622 0.01891 0.93545 0.0
H659 H 0.69595 0.01822 0.97774 0.0
H660 H 0.7004 1.00618 0.93366 0.0
H661 H 0.37102 1.0008 0.09804 0.0
H662 H 0.44203 1.01419 0.10382 0.0
H663 H 0.36801 1.01468 0.06153 0.0
H664 H 0.61222 0.04929 0.08139 0.0
H665 H 0.43469 0.05121 0.97971 0.0
H666 H 0.68326 0.018 0.06095 0.0
H667 H 0.59676 1.01645 0.10381 0.0
H668 H 0.66881 0.02988 0.10542 0.0
H669 H 0.46669 0.02017 0.93657 0.0
H670 H 0.38786 0.03282 0.94333 0.0
H671 H 0.38 0.01879 0.97941 0.0
C672 C 0.50192 0.04612 0.5449 0.0
C673 C 0.53052 0.05199 0.50363 0.0
C674 C 0.50025 0.03259 0.54956 0.0
C675 C 0.52809 0.02466 0.51214 0.0
C676 C 0.55705 0.03052 0.47043 0.0
C677 C 0.55791 0.04405 0.4667 0.0
C678 C 0.4685 0.02678 0.5946 0.0
C679 C 0.58772 0.02249 0.42969 0.0
C680 C 0.59673 0.99001 0.53451 0.0
C681 C 0.5247 0.9829 0.52488 0.0
C682 C 0.59875 1.00355 0.53046 0.0
C683 C 0.52696 1.01024 0.51654 0.0
C684 C 0.45422 1.00313 0.50658 0.0
C685 C 0.454 0.9896 0.5108 0.0
C686 C 0.67787 1.01069 0.54113 0.0
C687 C 0.37616 1.00983 0.49178 0.0
H688 H 0.47983 0.0521 0.57356 0.0
H689 H 0.58163 0.04843 0.43486 0.0
H690 H 0.4132 0.02043 0.59035 0.0
H691 H 0.51905 0.02069 0.60753 0.0
H692 H 0.44901 0.03423 0.62041 0.0
H693 H 0.60791 0.02849 0.39962 0.0
H694 H 0.64234 1.01639 0.43777 0.0
H695 H 0.53637 1.01591 0.42081 0.0
H696 H 0.65209 0.98497 0.54491 0.0
H697 H 0.39745 0.98428 0.50396 0.0
H698 H 0.66185 0.01771 0.56886 0.0
H699 H 0.70373 1.01626 0.51105 0.0
H700 H 0.7284 1.00411 0.55145 0.0
H701 H 0.35086 1.01672 0.51832 0.0
H702 H 0.32486 1.00295 0.4851 0.0
H703 H 0.39324 1.01549 0.46053 0.0
C704 C 0.29141 0.2967 0.03973 0.0
C705 C 0.21427 0.30046 0.02307 0.0
C706 C 0.32071 0.28385 0.03624 0.0
C707 C 0.27179 0.27439 0.01574 0.0
C708 C 0.19389 0.27811 0.99889 0.0
C709 C 0.16627 0.29104 0.00268 0.0
C710 C 0.40433 0.28039 0.05443 0.0
C711 C 0.13933 0.2684 0.977 0.0
C712 C 0.38214 0.24367 0.96888 0.0
C713 C 0.36011 0.23462 0.00322 0.0
C714 C 0.35402 0.25657 0.97253 0.0
C715 C 0.30238 0.26066 0.01153 0.0
C716 C 0.27987 0.25159 0.04636 0.0
C717 C 0.30893 0.23874 0.04183 0.0
C718 C 0.38002 0.26586 0.93462 0.0
C719 C 0.22473 0.25547 0.08845 0.0
H720 H 0.32964 0.30387 0.0551 0.0
H721 H 0.10596 0.29372 0.99033 0.0
H722 H 0.39415 0.27277 0.08062 0.0
H723 H 0.44899 0.27642 0.0268 0.0
H724 H 0.43479 0.28881 0.06953 0.0
H725 H 0.08042 0.27279 0.96565 0.0
H726 H 0.17607 0.26396 0.94728 0.0
H727 H 0.12101 0.26053 1.00123 0.0
H728 H 0.4228 0.24074 0.93924 0.0
H729 H 0.29055 0.23186 0.0684 0.0
H730 H 0.41607 0.27401 0.94777 0.0
H731 H 0.32255 0.26998 0.92089 0.0
H732 H 0.42015 0.2612 0.90647 0.0
H733 H 0.25549 0.26341 0.10599 0.0
H734 H 0.21299 0.24733 0.11252 0.0
H735 H 0.16247 0.25914 0.07906 0.0
C736 C 0.77073 0.79595 0.04856 0.0
C737 C 0.70069 0.80032 0.02647 0.0
C738 C 0.79985 0.7831 0.04415 0.0
C739 C 0.7581 0.77429 0.01705 0.0
C740 C 0.68765 0.77864 0.99451 0.0
C741 C 0.65997 0.79154 0.99943 0.0
C742 C 0.87548 0.77896 0.06858 0.0
C743 C 0.64093 0.76962 0.96538 0.0
C744 C 0.87843 0.74413 0.97249 0.0
C745 C 0.84605 0.73452 0.00276 0.0
C746 C 0.85044 0.75702 0.97671 0.0
C747 C 0.78831 0.76055 0.01211 0.0
C748 C 0.75524 0.75093 0.04278 0.0
C749 C 0.78445 0.73809 0.03779 0.0
C750 C 0.88789 0.76691 0.94332 0.0
C751 C 0.68874 0.7542 0.08091 0.0
H752 H 0.80352 0.80263 0.06908 0.0
H753 H 0.60507 0.79469 0.98273 0.0
H754 H 0.8571 0.77091 0.09206 0.0
H755 H 0.92701 0.77534 0.04383 0.0
H756 H 0.90112 0.78694 0.08829 0.0
H757 H 0.58769 0.77447 0.94988 0.0
H758 H 0.6857 0.7656 0.9379 0.0
H759 H 0.61486 0.76138 0.98602 0.0
H760 H 0.92705 0.74161 0.94575 0.0
H761 H 0.7581 0.73079 0.06112 0.0
H762 H 0.91949 0.77463 0.96153 0.0
H763 H 0.83647 0.77152 0.92569 0.0
H764 H 0.9352 0.76264 0.91751 0.0
H765 H 0.71366 0.76164 0.1031 0.0
H766 H 0.66927 0.74565 0.1019 0.0
H767 H 0.63145 0.75831 0.06698 0.0
C768 C 0.1657 0.74502 0.55918 0.0
C769 C 0.20837 0.73507 0.53412 0.0
C770 C 0.19231 0.75794 0.55454 0.0
C771 C 0.2636 0.76111 0.52406 0.0
C772 C 0.30713 0.75113 0.49869 0.0
C773 C 0.27899 0.73827 0.50393 0.0
C774 C 0.14361 0.76822 0.58211 0.0
C775 C 0.38362 0.75403 0.46598 0.0
C776 C 0.28613 0.7958 0.48098 0.0
C777 C 0.34599 0.80097 0.5084 0.0
C778 C 0.25893 0.7829 0.48568 0.0
C779 C 0.29219 0.77486 0.51861 0.0
C780 C 0.35227 0.78002 0.54655 0.0
C781 C 0.3783 0.79296 0.54115 0.0
C782 C 0.19441 0.77786 0.45534 0.0
C783 C 0.38963 0.77184 0.58201 0.0
H784 H 0.11022 0.74274 0.58202 0.0
H785 H 0.31306 0.7307 0.48471 0.0
H786 H 0.187 0.77343 0.60329 0.0
H787 H 0.11769 0.77541 0.55922 0.0
H788 H 0.09001 0.76419 0.60459 0.0
H789 H 0.41081 0.74522 0.44892 0.0
H790 H 0.36559 0.76089 0.43971 0.0
H791 H 0.43386 0.75872 0.48416 0.0
H792 H 0.25979 0.80189 0.45596 0.0
H793 H 0.42548 0.79674 0.5621 0.0
H794 H 0.13695 0.77443 0.47617 0.0
H795 H 0.22133 0.7695 0.43554 0.0
H796 H 0.1747 0.7853 0.43138 0.0
H797 H 0.33797 0.76808 0.60631 0.0
H798 H 0.43536 0.77727 0.60118 0.0
H799 H 0.42305 0.76339 0.56573 0.0
C800 C 0.79412 0.29609 0.54598 0.0
C801 C 0.84894 0.30002 0.50855 0.0
C802 C 0.7665 0.28321 0.5508 0.0
C803 C 0.79432 0.27394 0.5175 0.0
C804 C 0.84962 0.27784 0.47969 0.0
C805 C 0.87615 0.29077 0.47569 0.0
C806 C 0.7073 0.27951 0.59156 0.0
C807 C 0.88129 0.26832 0.44347 0.0
C808 C 0.78587 0.2382 0.54929 0.0
C809 C 0.71185 0.23405 0.53047 0.0
C810 C 0.81335 0.2511 0.54534 0.0
C811 C 0.76569 0.26017 0.52214 0.0
C812 C 0.691 0.25605 0.50303 0.0
C813 C 0.66515 0.24308 0.50735 0.0
C814 C 0.89364 0.25502 0.56597 0.0
C815 C 0.63796 0.26537 0.47819 0.0
H816 H 0.77188 0.30313 0.57135 0.0
H817 H 0.91964 0.29359 0.44703 0.0
H818 H 0.64729 0.27553 0.58042 0.0
H819 H 0.73698 0.27185 0.61106 0.0
H820 H 0.69139 0.28782 0.61444 0.0
H821 H 0.92368 0.27286 0.41605 0.0
H822 H 0.91681 0.26041 0.45868 0.0
H823 H 0.82651 0.26388 0.42824 0.0
H824 H 0.82305 0.23131 0.56678 0.0
H825 H 0.60719 0.24008 0.49327 0.0
H826 H 0.87922 0.26281 0.59115 0.0
H827 H 0.94054 0.25891 0.53932 0.0
H828 H 0.92349 0.24684 0.58298 0.0
H829 H 0.61559 0.27338 0.50106 0.0
H830 H 0.58161 0.26068 0.46528 0.0
H831 H 0.67729 0.26967 0.44916 0.0
C832 C 0.10309 0.40245 0.17021 0.0
C833 C 0.0593 0.39454 0.14172 0.0
C834 C 0.09218 0.40109 0.21757 0.0
C835 C 0.03647 0.39152 0.2372 0.0
C836 C 0.99467 0.38316 0.20849 0.0
C837 C 1.00636 0.38479 0.16109 0.0
C838 C 0.1379 0.41026 0.24667 0.0
C839 C 0.93549 0.37275 0.22789 0.0
C840 C 0.05593 0.38467 0.36274 0.0
C841 C 0.99185 0.39265 0.38348 0.0
C842 C 0.06916 0.38376 0.31512 0.0
C843 C 1.01736 0.39104 0.28764 0.0
C844 C 0.95053 0.39871 0.30863 0.0
C845 C 0.93849 0.39938 0.35613 0.0
C846 C 0.14047 0.37536 0.29422 0.0
C847 C 0.89376 0.40666 0.28089 0.0
H848 H 0.14449 0.40996 0.15549 0.0
H849 H 0.97273 0.3786 0.13925 0.0
H850 H 0.09065 0.41633 0.26701 0.0
H851 H 0.17425 0.4048 0.27079 0.0
H852 H 0.18258 0.41669 0.22624 0.0
H853 H 0.91453 0.36626 0.20123 0.0
H854 H 0.96717 0.3669 0.25289 0.0
H855 H 0.87823 0.37722 0.24608 0.0
H856 H 0.09718 0.37941 0.38368 0.0
H857 H 0.88847 0.40551 0.37189 0.0
H858 H 0.19105 0.38151 0.27706 0.0
H859 H 0.11683 0.36897 0.26809 0.0
H860 H 0.16924 0.36933 0.31987 0.0
H861 H 0.93225 0.41413 0.26176 0.0
H862 H 0.84163 0.41152 0.30223 0.0
H863 H 0.8651 0.40048 0.25575 0.0
C864 C 0.97407 0.64117 0.17165 0.0
C865 C 1.02243 0.65073 0.14793 0.0
C866 C 0.97779 0.63952 0.21886 0.0
C867 C 1.03055 0.64768 0.24285 0.0
C868 C 0.08132 0.65704 0.21852 0.0
C869 C 0.07687 0.65839 0.17165 0.0
C870 C 0.92347 0.62931 0.24328 0.0
C871 C 0.13807 0.66604 0.24228 0.0
C872 C 0.97411 0.65726 0.36576 0.0
C873 C 0.03617 0.6508 0.38844 0.0
C874 C 0.96885 0.65576 0.31898 0.0
C875 C 1.02706 0.64753 0.2937 0.0
C876 C 0.08752 0.64047 0.31675 0.0
C877 C 0.09145 0.64219 0.3639 0.0
C878 C 0.90341 0.66352 0.29627 0.0
C879 C 0.1502 0.6315 0.29131 0.0
H880 H 0.93249 0.63513 0.15351 0.0
H881 H 0.11524 0.66573 0.15364 0.0
H882 H 0.96195 0.62353 0.26554 0.0
H883 H 0.87153 0.63397 0.26527 0.0
H884 H 0.89449 0.62273 0.2194 0.0
H885 H 0.17731 0.67227 0.21819 0.0
H886 H 0.09842 0.67232 0.26608 0.0
H887 H 0.18129 0.66046 0.26255 0.0
H888 H 0.93031 0.66381 0.38451 0.0
H889 H 0.13907 0.63707 0.38123 0.0
H890 H 0.86628 0.65717 0.27528 0.0
H891 H 0.93613 0.67075 0.27332 0.0
H892 H 0.8584 0.66866 0.3211 0.0
H893 H 0.117 0.62512 0.26854 0.0
H894 H 0.18501 0.62544 0.31454 0.0
H895 H 0.1974 0.63721 0.26975 0.0
C896 C 0.95282 0.6322 0.86181 0.0
C897 C 1.00077 0.63977 0.88941 0.0
C898 C 0.96289 0.63324 0.81432 0.0
C899 C 1.02223 0.64213 0.79351 0.0
C900 C 0.06881 0.65014 0.82128 0.0
C901 C 0.05764 0.64885 0.86889 0.0
C902 C 0.91185 0.62448 0.78634 0.0
C903 C 0.13224 0.6598 0.80065 0.0
C904 C 0.11197 0.63299 0.67403 0.0
C905 C 0.0616 0.64033 0.64683 0.0
C906 C 0.10166 0.63383 0.72157 0.0
C907 C 0.0395 0.64226 0.74284 0.0
C908 C 0.99036 0.65005 0.71548 0.0
C909 C 1.00193 0.64898 0.6678 0.0
C910 C 0.15555 0.62534 0.74909 0.0
C911 C 0.92384 0.65923 0.73661 0.0
H912 H 0.90829 0.62521 0.87737 0.0
H913 H 0.09454 0.65479 0.89 0.0
H914 H 0.87713 0.63023 0.7623 0.0
H915 H 0.95547 0.61787 0.76595 0.0
H916 H 0.86501 0.6186 0.80761 0.0
H917 H 0.15772 0.66608 0.82664 0.0
H918 H 0.18632 0.65467 0.78195 0.0
H919 H 0.10229 0.66597 0.77585 0.0
H920 H 0.15868 0.62635 0.65812 0.0
H921 H 0.9631 0.65474 0.647 0.0
H922 H 0.11419 0.61838 0.7691 0.0
H923 H 0.18832 0.63124 0.77345 0.0
H924 H 0.2043 0.61984 0.72752 0.0
H925 H 0.87148 0.65369 0.75499 0.0
H926 H 0.89637 0.66542 0.71095 0.0
H927 H 0.95172 0.66549 0.76177 0.0
C928 C 0.09164 0.38078 0.66672 0.0
C929 C 1.02848 0.38683 0.64363 0.0
C930 C 0.09454 0.38221 0.71364 0.0
C931 C 0.03288 0.38996 0.73855 0.0
C932 C 0.97182 0.39674 0.71505 0.0
C933 C 0.97019 0.39508 0.66776 0.0
C934 C 0.1608 0.37477 0.73687 0.0
C935 C 0.90581 0.40526 0.74013 0.0
C936 C 0.98089 0.37788 0.85878 0.0
C937 C 0.03293 0.38556 0.88381 0.0
C938 C 0.97735 0.37966 0.81205 0.0
C939 C 1.02656 0.38948 0.78933 0.0
C940 C 0.07621 0.39772 0.81478 0.0
C941 C 0.07915 0.39563 0.86177 0.0
C942 C 0.9239 0.37057 0.78662 0.0
C943 C 0.12854 0.40843 0.79212 0.0
H944 H 0.13781 0.37454 0.64822 0.0
H945 H 0.92168 0.39986 0.65007 0.0
H946 H 0.1948 0.38124 0.75895 0.0
H947 H 0.12909 0.36721 0.75883 0.0
H948 H 0.20847 0.37005 0.71233 0.0
H949 H 0.87185 0.41137 0.71669 0.0
H950 H 0.85822 0.39919 0.76003 0.0
H951 H 0.93579 0.41157 0.7644 0.0
H952 H 0.94412 0.37017 0.8756 0.0
H953 H 0.11886 0.40168 0.88098 0.0
H954 H 0.96599 0.36464 0.76279 0.0
H955 H 0.88055 0.37608 0.76622 0.0
H956 H 0.88503 0.36399 0.80964 0.0
H957 H 0.1836 0.40427 0.77106 0.0
H958 H 0.15312 0.41513 0.81714 0.0
H959 H 0.09015 0.41401 0.76922 0.0
C960 C 0.59652 0.9024 0.17422 0.0
C961 C 0.54595 0.89492 0.14771 0.0
C962 C 0.58759 0.90169 0.2218 0.0
C963 C 0.52658 0.89326 0.24379 0.0
C964 C 0.47739 0.88532 0.21713 0.0
C965 C 0.48765 0.88624 0.16942 0.0
C966 C 0.64155 0.91034 0.24859 0.0
C967 C 0.41198 0.87615 0.23905 0.0
C968 C 0.54711 0.88694 0.36976 0.0
C969 C 0.4898 0.896 0.39034 0.0
C970 C 0.55794 0.88561 0.32217 0.0
C971 C 0.51042 0.89354 0.29449 0.0
C972 C 0.45074 0.90243 0.31536 0.0
C973 C 0.44116 0.90353 0.36284 0.0
C974 C 0.62189 0.87598 0.30146 0.0
C975 C 0.39862 0.91108 0.28745 0.0
H976 H 0.64215 0.90908 0.15774 0.0
H977 H 0.44858 0.88039 0.14916 0.0
H978 H 0.60012 0.91735 0.26845 0.0
H979 H 0.67512 0.90457 0.27306 0.0
H980 H 0.68963 0.91577 0.22651 0.0
H981 H 0.38425 0.86985 0.21385 0.0
H982 H 0.44097 0.86999 0.26419 0.0
H983 H 0.35965 0.8817 0.25758 0.0
H984 H 0.58458 0.88104 0.3908 0.0
H985 H 0.39632 0.91049 0.37847 0.0
H986 H 0.67496 0.88113 0.28213 0.0
H987 H 0.59184 0.86968 0.2772 0.0
H988 H 0.64878 0.86984 0.32746 0.0
H989 H 0.44149 0.91766 0.26661 0.0
H990 H 0.35185 0.917 0.30878 0.0
H991 H 0.36369 0.90524 0.26381 0.0
C992 C 0.49291 0.14164 0.17102 0.0
C993 C 0.54553 0.15063 0.14689 0.0
C994 C 0.4958 0.14005 0.21828 0.0
C995 C 0.5526 0.14762 0.24184 0.0
C996 C 0.60832 0.15626 0.21702 0.0
C997 C 0.6041 0.15764 0.17011 0.0
C998 C 0.43577 0.13065 0.24324 0.0
C999 C 0.66994 0.16455 0.24032 0.0
C1000 C 0.49634 0.15801 0.36401 0.0
C1001 C 0.55241 0.15065 0.38787 0.0
C1002 C 0.49348 0.1567 0.31701 0.0
C1003 C 0.5479 0.14773 0.2927 0.0
C1004 C 0.6026 0.13989 0.31681 0.0
C1005 C 0.60432 0.14145 0.36416 0.0
C1006 C 0.43427 0.16531 0.2931 0.0
C1007 C 0.66112 0.13014 0.29239 0.0
H1008 H 0.44795 0.13612 0.15327 0.0
H1009 H 0.64582 0.16449 0.15167 0.0
H1010 H 0.47055 0.12452 0.26619 0.0
H1011 H 0.38622 0.13603 0.26457 0.0
H1012 H 0.40368 0.12434 0.21971 0.0
H1013 H 0.7136 0.17002 0.21584 0.0
H1014 H 0.63391 0.17154 0.26305 0.0
H1015 H 0.70873 0.15853 0.26164 0.0
H1016 H 0.45529 0.16506 0.38207 0.0
H1017 H 0.64729 0.13565 0.3824 0.0
H1018 H 0.39377 0.15945 0.27225 0.0
H1019 H 0.47216 0.17192 0.26984 0.0
H1020 H 0.3922 0.17119 0.31715 0.0
H1021 H 0.62517 0.12403 0.27 0.0
H1022 H 0.69257 0.12383 0.31625 0.0
H1023 H 0.71117 0.13521 0.2705 0.0
C1024 C 0.57346 0.14852 0.86696 0.0
C1025 C 0.51471 0.13993 0.88879 0.0
C1026 C 0.58362 0.14941 0.81922 0.0
C1027 C 0.53391 0.14152 0.79266 0.0
C1028 C 0.47249 0.13317 0.81478 0.0
C1029 C 0.46366 0.13249 0.86238 0.0
C1030 C 0.64946 0.15849 0.79718 0.0
C1031 C 0.41795 0.12458 0.78812 0.0
C1032 C 0.51323 0.14784 0.66667 0.0
C1033 C 0.5701 0.13873 0.64605 0.0
C1034 C 0.50259 0.14918 0.71427 0.0
C1035 C 0.54983 0.1412 0.74194 0.0
C1036 C 0.609 0.13225 0.72102 0.0
C1037 C 0.61843 0.13114 0.67353 0.0
C1038 C 0.43921 0.15889 0.735 0.0
C1039 C 0.66076 0.12353 0.74891 0.0
H1040 H 0.61291 0.15434 0.88713 0.0
H1041 H 0.41768 0.12589 0.87895 0.0
H1042 H 0.70139 0.15286 0.77859 0.0
H1043 H 0.62069 0.16468 0.77205 0.0
H1044 H 0.67769 0.16475 0.8223 0.0
H1045 H 0.36971 0.1192 0.81029 0.0
H1046 H 0.38455 0.13039 0.76368 0.0
H1047 H 0.45895 0.11751 0.76824 0.0
H1048 H 0.47601 0.15379 0.64564 0.0
H1049 H 0.66294 0.12413 0.65788 0.0
H1050 H 0.46974 0.16517 0.75914 0.0
H1051 H 0.38601 0.1538 0.75447 0.0
H1052 H 0.41243 0.16504 0.70901 0.0
H1053 H 0.69617 0.12933 0.77244 0.0
H1054 H 0.70708 0.11755 0.72755 0.0
H1055 H 0.61762 0.11702 0.76985 0.0
C1056 C 0.56948 0.87793 0.67206 0.0
C1057 C 0.51017 0.88476 0.64861 0.0
C1058 C 0.57243 0.87927 0.71905 0.0
C1059 C 0.51469 0.8877 0.74371 0.0
C1060 C 0.45689 0.89508 0.71997 0.0
C1061 C 0.45523 0.89352 0.67263 0.0
C1062 C 0.63511 0.87118 0.74256 0.0
C1063 C 0.39479 0.90426 0.74479 0.0
C1064 C 0.46065 0.87695 0.86551 0.0
C1065 C 0.51614 0.88436 0.8894 0.0
C1066 C 0.4568 0.87841 0.81863 0.0
C1067 C 0.50952 0.88759 0.79455 0.0
C1068 C 0.56306 0.89554 0.81879 0.0
C1069 C 0.56589 0.89382 0.86599 0.0
C1070 C 0.39891 0.86967 0.79456 0.0
C1071 C 0.6196 0.90554 0.79463 0.0
H1072 H 0.61293 0.87125 0.65372 0.0
H1073 H 0.40972 0.89891 0.65468 0.0
H1074 H 0.67286 0.87734 0.76385 0.0
H1075 H 0.60002 0.86413 0.76534 0.0
H1076 H 0.67973 0.86579 0.71823 0.0
H1077 H 0.36159 0.91042 0.72118 0.0
H1078 H 0.34624 0.89872 0.76608 0.0
H1079 H 0.42818 0.91055 0.76778 0.0
H1080 H 0.42116 0.86971 0.88339 0.0
H1081 H 0.60837 0.89966 0.88428 0.0
H1082 H 0.43787 0.86314 0.77136 0.0
H1083 H 0.35781 0.87543 0.77363 0.0
H1084 H 0.35749 0.8637 0.81852 0.0
H1085 H 0.67149 0.90068 0.77323 0.0
H1086 H 0.64871 0.91205 0.81868 0.0
H1087 H 0.58284 0.91142 0.77183 0.0
loop_
_geom_bond_atom_site_label_1
_geom_bond_atom_site_label_2
_geom_bond_distance
_geom_bond_site_symmetry_2
_ccdc_geom_bond_type
Ho0 C3 2.811 1_455 S
Ho0 O20 2.322 1_455 S
Ho0 O22 2.378 . S
Ho0 O23 2.524 1_554 S
Ho0 O24 2.381 . S
Ho0 O25 2.669 . S
Ho0 O27 2.346 . S
Ho0 O31 2.305 1_554 S
Ho1 C12 2.811 . S
Ho1 O21 2.346 1_455 S
Ho1 O25 2.305 . S
Ho1 O26 2.322 1_554 S
Ho1 O28 2.378 1_554 S
Ho1 O29 2.524 . S
Ho1 O30 2.381 1_554 S
Ho1 O31 2.669 1_554 S
C2 O20 1.259 . S
C2 O21 1.268 . S
C3 Ho0 2.811 1_655 S
C3 C4 1.488 . S
C3 O22 1.215 1_655 S
C3 O23 1.289 1_654 S
C4 C3 1.488 . S
C4 C5 1.348 1_554 S
C4 C9 1.413 . S
C5 C4 1.348 1_556 S
C5 C6 1.442 . S
C5 H32 0.930 . S
C6 C5 1.442 . S
C6 C7 1.381 1_556 S
C6 H33 0.931 . S
C7 C6 1.381 1_554 S
C7 C8 1.321 . S
C8 C7 1.321 . S
C8 C9 1.403 . S
C8 H34 0.934 . S
C9 C4 1.413 . S
C9 C8 1.403 . S
C9 H35 0.930 . S
C10 O24 1.275 . S
C10 O25 1.256 . S
C11 O26 1.259 1_554 S
C11 O27 1.268 . S
C12 Ho1 2.811 . S
C12 C13 1.488 . S
C12 O28 1.215 1_554 S
C12 O29 1.289 . S
C13 C12 1.488 . S
C13 C14 1.348 . S
C13 C18 1.413 1_554 S
C14 C13 1.348 . S
C14 C15 1.442 . S
C14 H36 0.930 . S
C15 C14 1.442 . S
C15 C16 1.381 . S
C15 H37 0.931 . S
C16 C15 1.381 . S
C16 C17 1.321 1_554 S
C17 C16 1.321 1_556 S
C17 C18 1.403 . S
C17 H38 0.934 . S
C18 C13 1.413 1_556 S
C18 C17 1.403 . S
C18 H39 0.930 . S
C19 O30 1.275 . S
C19 O31 1.256 . S
O20 Ho0 2.322 1_655 S
O20 C2 1.259 . S
O21 Ho1 2.346 1_655 S
O21 C2 1.268 . S
O22 Ho0 2.378 . S
O22 C3 1.215 1_455 S
O23 Ho0 2.524 1_556 S
O23 C3 1.289 1_456 S
O24 Ho0 2.381 . S
O24 C10 1.275 . S
O25 Ho0 2.669 . S
O25 Ho1 2.305 . S
O25 C10 1.256 . S
O26 Ho1 2.322 1_556 S
O26 C11 1.259 1_556 S
O27 Ho0 2.346 . S
O27 C11 1.268 . S
O28 Ho1 2.378 1_556 S
O28 C12 1.215 1_556 S
O29 Ho1 2.524 . S
O29 C12 1.289 . S
O30 Ho1 2.381 1_556 S
O30 C19 1.275 . S
O31 Ho0 2.305 1_556 S
O31 Ho1 2.669 1_556 S
O31 C19 1.256 . S
H32 C5 0.930 . S
H33 C6 0.931 . S
H34 C8 0.934 . S
H35 C9 0.930 . S
H36 C14 0.930 . S
H37 C15 0.931 . S
H38 C17 0.934 . S
H39 C18 0.930 . S
Ho40 C43 2.811 . S
Ho40 O60 2.322 . S
Ho40 O62 2.378 . S
Ho40 O63 2.524 1_554 S
Ho40 O64 2.381 . S
Ho40 O65 2.669 . S
Ho40 O67 2.346 1_655 S
Ho40 O71 2.305 1_554 S
Ho41 C52 2.811 1_655 S
Ho41 O61 2.346 . S
Ho41 O65 2.305 . S
Ho41 O66 2.322 1_654 S
Ho41 O68 2.378 1_554 S
Ho41 O69 2.524 . S
Ho41 O70 2.381 1_554 S
Ho41 O71 2.669 1_554 S
C42 O60 1.259 . S
C42 O61 1.268 . S
C43 Ho40 2.811 . S
C43 C44 1.488 . S
C43 O62 1.215 . S
C43 O63 1.289 1_554 S
C44 C43 1.488 . S
C44 C45 1.348 1_554 S
C44 C49 1.413 . S
C45 C44 1.348 1_556 S
C45 C46 1.442 . S
C45 H72 0.930 . S
C46 C45 1.442 . S
C46 C47 1.381 1_556 S
C46 H73 0.931 . S
C47 C46 1.381 1_554 S
C47 C48 1.321 . S
C48 C47 1.321 . S
C48 C49 1.403 . S
C48 H74 0.934 . S
C49 C44 1.413 . S
C49 C48 1.403 . S
C49 H75 0.930 . S
C50 O64 1.275 . S
C50 O65 1.256 . S
C51 O66 1.259 1_554 S
C51 O67 1.268 . S
C52 Ho41 2.811 1_455 S
C52 C53 1.488 . S
C52 O68 1.215 1_454 S
C52 O69 1.289 1_455 S
C53 C52 1.488 . S
C53 C54 1.348 . S
C53 C58 1.413 1_554 S
C54 C53 1.348 . S
C54 C55 1.442 . S
C54 H76 0.930 . S
C55 C54 1.442 . S
C55 C56 1.381 . S
C55 H77 0.931 . S
C56 C55 1.381 . S
C56 C57 1.321 1_554 S
C57 C56 1.321 1_556 S
C57 C58 1.403 . S
C57 H78 0.934 . S
C58 C53 1.413 1_556 S
C58 C57 1.403 . S
C58 H79 0.930 . S
C59 O70 1.275 . S
C59 O71 1.256 . S
O60 Ho40 2.322 . S
O60 C42 1.259 . S
O61 Ho41 2.346 . S
O61 C42 1.268 . S
O62 Ho40 2.378 . S
O62 C43 1.215 . S
O63 Ho40 2.524 1_556 S
O63 C43 1.289 1_556 S
O64 Ho40 2.381 . S
O64 C50 1.275 . S
O65 Ho40 2.669 . S
O65 Ho41 2.305 . S
O65 C50 1.256 . S
O66 Ho41 2.322 1_456 S
O66 C51 1.259 1_556 S
O67 Ho40 2.346 1_455 S
O67 C51 1.268 . S
O68 Ho41 2.378 1_556 S
O68 C52 1.215 1_656 S
O69 Ho41 2.524 . S
O69 C52 1.289 1_655 S
O70 Ho41 2.381 1_556 S
O70 C59 1.275 . S
O71 Ho40 2.305 1_556 S
O71 Ho41 2.669 1_556 S
O71 C59 1.256 . S
H72 C45 0.930 . S
H73 C46 0.931 . S
H74 C48 0.934 . S
H75 C49 0.930 . S
H76 C54 0.930 . S
H77 C55 0.931 . S
H78 C57 0.934 . S
H79 C58 0.930 . S
Ho80 C83 2.811 . S
Ho80 O100 2.322 . S
Ho80 O102 2.378 . S
Ho80 O103 2.524 . S
Ho80 O104 2.381 . S
Ho80 O105 2.669 . S
Ho80 O107 2.346 1_455 S
Ho80 O111 2.305 . S
Ho81 C92 2.803 1_455 S
Ho81 O101 2.346 . S
Ho81 O105 2.305 . S
Ho81 O106 2.322 1_455 S
Ho81 O108 2.378 . S
Ho81 O109 2.524 . S
Ho81 O110 2.381 . S
Ho81 O111 2.669 . S
C82 O100 1.259 . S
C82 O101 1.268 . S
C83 Ho80 2.811 . S
C83 C84 1.488 . S
C83 O102 1.215 . S
C83 O103 1.289 . S
C84 C83 1.488 . S
C84 C85 1.348 . S
C84 C89 1.413 . S
C85 C84 1.348 . S
C85 C86 1.442 . S
C85 H112 0.930 . S
C86 C85 1.442 . S
C86 C87 1.381 . S
C86 H113 0.931 . S
C87 C86 1.381 . S
C87 C88 1.321 . S
C88 C87 1.321 . S
C88 C89 1.403 . S
C88 H114 0.934 . S
C89 C84 1.413 . S
C89 C88 1.403 . S
C89 H115 0.930 . S
C90 O104 1.275 . S
C90 O105 1.256 . S
C91 O106 1.259 . S
C91 O107 1.268 . S
C92 Ho81 2.803 1_655 S
C92 C93 1.496 . S
C92 O108 1.208 1_655 S
C92 O109 1.290 1_655 S
C93 C92 1.496 . S
C93 C94 1.348 . S
C93 C98 1.413 . S
C94 C93 1.348 . S
C94 C95 1.442 . S
C94 H116 0.930 . S
C95 C94 1.442 . S
C95 C96 1.381 . S
C95 H117 0.931 . S
C96 C95 1.381 . S
C96 C97 1.321 . S
C97 C96 1.321 . S
C97 C98 1.403 . S
C97 H118 0.934 . S
C98 C93 1.413 . S
C98 C97 1.403 . S
C98 H119 0.930 . S
C99 O110 1.275 . S
C99 O111 1.256 . S
O100 Ho80 2.322 . S
O100 C82 1.259 . S
O101 Ho81 2.346 . S
O101 C82 1.268 . S
O102 Ho80 2.378 . S
O102 C83 1.215 . S
O103 Ho80 2.524 . S
O103 C83 1.289 . S
O104 Ho80 2.381 . S
O104 C90 1.275 . S
O105 Ho80 2.669 . S
O105 Ho81 2.305 . S
O105 C90 1.256 . S
O106 Ho81 2.322 1_655 S
O106 C91 1.259 . S
O107 Ho80 2.346 1_655 S
O107 C91 1.268 . S
O108 Ho81 2.378 . S
O108 C92 1.208 1_455 S
O109 Ho81 2.524 . S
O109 C92 1.290 1_455 S
O110 Ho81 2.381 . S
O110 C99 1.275 . S
O111 Ho80 2.305 . S
O111 Ho81 2.669 . S
O111 C99 1.256 . S
H112 C85 0.930 . S
H113 C86 0.931 . S
H114 C88 0.934 . S
H115 C89 0.930 . S
H116 C94 0.930 . S
H117 C95 0.931 . S
H118 C97 0.934 . S
H119 C98 0.930 . S
Ho120 C123 2.805 1_655 S
Ho120 O140 2.322 1_655 S
Ho120 O142 2.378 . S
Ho120 O143 2.524 . S
Ho120 O144 2.381 . S
Ho120 O145 2.669 . S
Ho120 O147 2.346 . S
Ho120 O151 2.305 . S
Ho121 C132 2.811 . S
Ho121 O141 2.346 1_655 S
Ho121 O145 2.305 . S
Ho121 O146 2.322 . S
Ho121 O148 2.378 . S
Ho121 O149 2.524 . S
Ho121 O150 2.381 . S
Ho121 O151 2.669 . S
C122 O140 1.259 . S
C122 O141 1.268 . S
C123 Ho120 2.805 1_455 S
C123 C124 1.494 . S
C123 O142 1.210 1_455 S
C123 O143 1.289 1_455 S
C124 C123 1.494 . S
C124 C125 1.348 . S
C124 C129 1.413 . S
C125 C124 1.348 . S
C125 C126 1.442 . S
C125 H152 0.930 . S
C126 C125 1.442 . S
C126 C127 1.381 . S
C126 H153 0.931 . S
C127 C126 1.381 . S
C127 C128 1.321 . S
C128 C127 1.321 . S
C128 C129 1.403 . S
C128 H154 0.934 . S
C129 C124 1.413 . S
C129 C128 1.403 . S
C129 H155 0.930 . S
C130 O144 1.275 . S
C130 O145 1.256 . S
C131 O146 1.259 . S
C131 O147 1.268 . S
C132 Ho121 2.811 . S
C132 C133 1.488 . S
C132 O148 1.215 . S
C132 O149 1.289 . S
C133 C132 1.488 . S
C133 C134 1.348 . S
C133 C138 1.413 . S
C134 C133 1.348 . S
C134 C135 1.442 . S
C134 H156 0.930 . S
C135 C134 1.442 . S
C135 C136 1.381 . S
C135 H157 0.931 . S
C136 C135 1.381 . S
C136 C137 1.321 . S
C137 C136 1.321 . S
C137 C138 1.403 . S
C137 H158 0.934 . S
C138 C133 1.413 . S
C138 C137 1.403 . S
C138 H159 0.930 . S
C139 O150 1.275 . S
C139 O151 1.256 . S
O140 Ho120 2.322 1_455 S
O140 C122 1.259 . S
O141 Ho121 2.346 1_455 S
O141 C122 1.268 . S
O142 Ho120 2.378 . S
O142 C123 1.210 1_655 S
O143 Ho120 2.524 . S
O143 C123 1.289 1_655 S
O144 Ho120 2.381 . S
O144 C130 1.275 . S
O145 Ho120 2.669 . S
O145 Ho121 2.305 . S
O145 C130 1.256 . S
O146 Ho121 2.322 . S
O146 C131 1.259 . S
O147 Ho120 2.346 . S
O147 C131 1.268 . S
O148 Ho121 2.378 . S
O148 C132 1.215 . S
O149 Ho121 2.524 . S
O149 C132 1.289 . S
O150 Ho121 2.381 . S
O150 C139 1.275 . S
O151 Ho120 2.305 . S
O151 Ho121 2.669 . S
O151 C139 1.256 . S
H152 C125 0.930 . S
H153 C126 0.931 . S
H154 C128 0.934 . S
H155 C129 0.930 . S
H156 C134 0.930 . S
H157 C135 0.931 . S
H158 C137 0.934 . S
H159 C138 0.930 . S
Ho160 C163 2.811 . S
Ho160 O180 2.322 . S
Ho160 O182 2.378 . S
Ho160 O183 2.524 1_554 S
Ho160 O184 2.381 . S
Ho160 O185 2.669 . S
Ho160 O187 2.346 . S
Ho160 O191 2.305 1_554 S
Ho161 C172 2.811 . S
Ho161 O181 2.346 . S
Ho161 O185 2.305 . S
Ho161 O186 2.322 1_554 S
Ho161 O188 2.378 1_554 S
Ho161 O189 2.524 . S
Ho161 O190 2.381 1_554 S
Ho161 O191 2.669 1_554 S
C162 O180 1.259 . S
C162 O181 1.268 . S
C163 Ho160 2.811 . S
C163 C164 1.488 . S
C163 O182 1.215 . S
C163 O183 1.289 1_554 S
C164 C163 1.488 . S
C164 C165 1.348 1_554 S
C164 C169 1.413 . S
C165 C164 1.348 1_556 S
C165 C166 1.442 . S
C165 H192 0.930 . S
C166 C165 1.442 . S
C166 C167 1.381 1_556 S
C166 H193 0.931 . S
C167 C166 1.381 1_554 S
C167 C168 1.321 . S
C168 C167 1.321 . S
C168 C169 1.403 . S
C168 H194 0.934 . S
C169 C164 1.413 . S
C169 C168 1.403 . S
C169 H195 0.930 . S
C170 O184 1.275 . S
C170 O185 1.256 . S
C171 O186 1.259 1_554 S
C171 O187 1.268 . S
C172 Ho161 2.811 . S
C172 C173 1.488 . S
C172 O188 1.215 1_554 S
C172 O189 1.289 . S
C173 C172 1.488 . S
C173 C174 1.348 . S
C173 C178 1.413 1_554 S
C174 C173 1.348 . S
C174 C175 1.442 . S
C174 H196 0.930 . S
C175 C174 1.442 . S
C175 C176 1.381 . S
C175 H197 0.931 . S
C176 C175 1.381 . S
C176 C177 1.321 1_554 S
C177 C176 1.321 1_556 S
C177 C178 1.403 . S
C177 H198 0.934 . S
C178 C173 1.413 1_556 S
C178 C177 1.403 . S
C178 H199 0.930 . S
C179 O190 1.275 . S
C179 O191 1.256 . S
O180 Ho160 2.322 . S
O180 C162 1.259 . S
O181 Ho161 2.346 . S
O181 C162 1.268 . S
O182 Ho160 2.378 . S
O182 C163 1.215 . S
O183 Ho160 2.524 1_556 S
O183 C163 1.289 1_556 S
O184 Ho160 2.381 . S
O184 C170 1.275 . S
O185 Ho160 2.669 . S
O185 Ho161 2.305 . S
O185 C170 1.256 . S
O186 Ho161 2.322 1_556 S
O186 C171 1.259 1_556 S
O187 Ho160 2.346 . S
O187 C171 1.268 . S
O188 Ho161 2.378 1_556 S
O188 C172 1.215 1_556 S
O189 Ho161 2.524 . S
O189 C172 1.289 . S
O190 Ho161 2.381 1_556 S
O190 C179 1.275 . S
O191 Ho160 2.305 1_556 S
O191 Ho161 2.669 1_556 S
O191 C179 1.256 . S
H192 C165 0.930 . S
H193 C166 0.931 . S
H194 C168 0.934 . S
H195 C169 0.930 . S
H196 C174 0.930 . S
H197 C175 0.931 . S
H198 C177 0.934 . S
H199 C178 0.930 . S
Ho200 C203 2.811 . S
Ho200 O220 2.322 . S
Ho200 O222 2.378 . S
Ho200 O223 2.524 1_554 S
Ho200 O224 2.381 . S
Ho200 O225 2.669 . S
Ho200 O227 2.346 . S
Ho200 O231 2.305 1_554 S
Ho201 C212 2.811 . S
Ho201 O221 2.346 . S
Ho201 O225 2.305 . S
Ho201 O226 2.322 1_554 S
Ho201 O228 2.378 1_554 S
Ho201 O229 2.524 . S
Ho201 O230 2.381 1_554 S
Ho201 O231 2.669 1_554 S
C202 O220 1.259 . S
C202 O221 1.268 . S
C203 Ho200 2.811 . S
C203 C204 1.488 . S
C203 O222 1.215 . S
C203 O223 1.289 1_554 S
C204 C203 1.488 . S
C204 C205 1.348 1_554 S
C204 C209 1.413 . S
C205 C204 1.348 1_556 S
C205 C206 1.442 . S
C205 H232 0.930 . S
C206 C205 1.442 . S
C206 C207 1.381 1_556 S
C206 H233 0.931 . S
C207 C206 1.381 1_554 S
C207 C208 1.321 . S
C208 C207 1.321 . S
C208 C209 1.403 . S
C208 H234 0.934 . S
C209 C204 1.413 . S
C209 C208 1.403 . S
C209 H235 0.930 . S
C210 O224 1.275 . S
C210 O225 1.256 . S
C211 O226 1.259 1_554 S
C211 O227 1.268 . S
C212 Ho201 2.811 . S
C212 C213 1.488 . S
C212 O228 1.215 1_554 S
C212 O229 1.289 . S
C213 C212 1.488 . S
C213 C214 1.348 . S
C213 C218 1.413 1_554 S
C214 C213 1.348 . S
C214 C215 1.442 . S
C214 H236 0.930 . S
C215 C214 1.442 . S
C215 C216 1.381 . S
C215 H237 0.931 . S
C216 C215 1.381 . S
C216 C217 1.321 1_554 S
C217 C216 1.321 1_556 S
C217 C218 1.403 . S
C217 H238 0.934 . S
C218 C213 1.413 1_556 S
C218 C217 1.403 . S
C218 H239 0.930 . S
C219 O230 1.275 . S
C219 O231 1.256 . S
O220 Ho200 2.322 . S
O220 C202 1.259 . S
O221 Ho201 2.346 . S
O221 C202 1.268 . S
O222 Ho200 2.378 . S
O222 C203 1.215 . S
O223 Ho200 2.524 1_556 S
O223 C203 1.289 1_556 S
O224 Ho200 2.381 . S
O224 C210 1.275 . S
O225 Ho200 2.669 . S
O225 Ho201 2.305 . S
O225 C210 1.256 . S
O226 Ho201 2.322 1_556 S
O226 C211 1.259 1_556 S
O227 Ho200 2.346 . S
O227 C211 1.268 . S
O228 Ho201 2.378 1_556 S
O228 C212 1.215 1_556 S
O229 Ho201 2.524 . S
O229 C212 1.289 . S
O230 Ho201 2.381 1_556 S
O230 C219 1.275 . S
O231 Ho200 2.305 1_556 S
O231 Ho201 2.669 1_556 S
O231 C219 1.256 . S
H232 C205 0.930 . S
H233 C206 0.931 . S
H234 C208 0.934 . S
H235 C209 0.930 . S
H236 C214 0.930 . S
H237 C215 0.931 . S
H238 C217 0.934 . S
H239 C218 0.930 . S
Ho240 C243 2.811 . S
Ho240 O260 2.322 . S
Ho240 O262 2.378 . S
Ho240 O263 2.524 . S
Ho240 O264 2.381 . S
Ho240 O265 2.669 . S
Ho240 O267 2.346 . S
Ho240 O271 2.305 . S
Ho241 C252 2.811 . S
Ho241 O261 2.346 . S
Ho241 O265 2.305 . S
Ho241 O266 2.322 . S
Ho241 O268 2.378 . S
Ho241 O269 2.524 . S
Ho241 O270 2.381 . S
Ho241 O271 2.669 . S
C242 O260 1.259 . S
C242 O261 1.268 . S
C243 Ho240 2.811 . S
C243 C244 1.488 . S
C243 O262 1.215 . S
C243 O263 1.289 . S
C244 C243 1.488 . S
C244 C245 1.348 . S
C244 C249 1.413 . S
C245 C244 1.348 . S
C245 C246 1.442 . S
C245 H272 0.930 . S
C246 C245 1.442 . S
C246 C247 1.381 . S
C246 H273 0.931 . S
C247 C246 1.381 . S
C247 C248 1.321 . S
C248 C247 1.321 . S
C248 C249 1.403 . S
C248 H274 0.934 . S
C249 C244 1.413 . S
C249 C248 1.403 . S
C249 H275 0.930 . S
C250 O264 1.275 . S
C250 O265 1.256 . S
C251 O266 1.259 . S
C251 O267 1.268 . S
C252 Ho241 2.811 . S
C252 C253 1.488 . S
C252 O268 1.215 . S
C252 O269 1.289 . S
C253 C252 1.488 . S
C253 C254 1.348 . S
C253 C258 1.413 . S
C254 C253 1.348 . S
C254 C255 1.442 . S
C254 H276 0.930 . S
C255 C254 1.442 . S
C255 C256 1.381 . S
C255 H277 0.931 . S
C256 C255 1.381 . S
C256 C257 1.321 . S
C257 C256 1.321 . S
C257 C258 1.403 . S
C257 H278 0.934 . S
C258 C253 1.413 . S
C258 C257 1.403 . S
C258 H279 0.930 . S
C259 O270 1.275 . S
C259 O271 1.256 . S
O260 Ho240 2.322 . S
O260 C242 1.259 . S
O261 Ho241 2.346 . S
O261 C242 1.268 . S
O262 Ho240 2.378 . S
O262 C243 1.215 . S
O263 Ho240 2.524 . S
O263 C243 1.289 . S
O264 Ho240 2.381 . S
O264 C250 1.275 . S
O265 Ho240 2.669 . S
O265 Ho241 2.305 . S
O265 C250 1.256 . S
O266 Ho241 2.322 . S
O266 C251 1.259 . S
O267 Ho240 2.346 . S
O267 C251 1.268 . S
O268 Ho241 2.378 . S
O268 C252 1.215 . S
O269 Ho241 2.524 . S
O269 C252 1.289 . S
O270 Ho241 2.381 . S
O270 C259 1.275 . S
O271 Ho240 2.305 . S
O271 Ho241 2.669 . S
O271 C259 1.256 . S
H272 C245 0.930 . S
H273 C246 0.931 . S
H274 C248 0.934 . S
H275 C249 0.930 . S
H276 C254 0.930 . S
H277 C255 0.931 . S
H278 C257 0.934 . S
H279 C258 0.930 . S
Ho280 C283 2.811 . S
Ho280 O300 2.322 . S
Ho280 O302 2.378 . S
Ho280 O303 2.524 . S
Ho280 O304 2.381 . S
Ho280 O305 2.669 . S
Ho280 O307 2.346 . S
Ho280 O311 2.305 . S
Ho281 C292 2.811 . S
Ho281 O301 2.346 . S
Ho281 O305 2.305 . S
Ho281 O306 2.322 . S
Ho281 O308 2.378 . S
Ho281 O309 2.524 . S
Ho281 O310 2.381 . S
Ho281 O311 2.669 . S
C282 O300 1.259 . S
C282 O301 1.268 . S
C283 Ho280 2.811 . S
C283 C284 1.488 . S
C283 O302 1.215 . S
C283 O303 1.289 . S
C284 C283 1.488 . S
C284 C285 1.348 . S
C284 C289 1.413 . S
C285 C284 1.348 . S
C285 C286 1.442 . S
C285 H312 0.930 . S
C286 C285 1.442 . S
C286 C287 1.381 . S
C286 H313 0.931 . S
C287 C286 1.381 . S
C287 C288 1.321 . S
C288 C287 1.321 . S
C288 C289 1.403 . S
C288 H314 0.934 . S
C289 C284 1.413 . S
C289 C288 1.403 . S
C289 H315 0.930 . S
C290 O304 1.275 . S
C290 O305 1.256 . S
C291 O306 1.259 . S
C291 O307 1.268 . S
C292 Ho281 2.811 . S
C292 C293 1.488 . S
C292 O308 1.215 . S
C292 O309 1.289 . S
C293 C292 1.488 . S
C293 C294 1.348 . S
C293 C298 1.413 . S
C294 C293 1.348 . S
C294 C295 1.442 . S
C294 H316 0.930 . S
C295 C294 1.442 . S
C295 C296 1.381 . S
C295 H317 0.931 . S
C296 C295 1.381 . S
C296 C297 1.321 . S
C297 C296 1.321 . S
C297 C298 1.403 . S
C297 H318 0.934 . S
C298 C293 1.413 . S
C298 C297 1.403 . S
C298 H319 0.930 . S
C299 O310 1.275 . S
C299 O311 1.256 . S
O300 Ho280 2.322 . S
O300 C282 1.259 . S
O301 Ho281 2.346 . S
O301 C282 1.268 . S
O302 Ho280 2.378 . S
O302 C283 1.215 . S
O303 Ho280 2.524 . S
O303 C283 1.289 . S
O304 Ho280 2.381 . S
O304 C290 1.275 . S
O305 Ho280 2.669 . S
O305 Ho281 2.305 . S
O305 C290 1.256 . S
O306 Ho281 2.322 . S
O306 C291 1.259 . S
O307 Ho280 2.346 . S
O307 C291 1.268 . S
O308 Ho281 2.378 . S
O308 C292 1.215 . S
O309 Ho281 2.524 . S
O309 C292 1.289 . S
O310 Ho281 2.381 . S
O310 C299 1.275 . S
O311 Ho280 2.305 . S
O311 Ho281 2.669 . S
O311 C299 1.256 . S
H312 C285 0.930 . S
H313 C286 0.931 . S
H314 C288 0.934 . S
H315 C289 0.930 . S
H316 C294 0.930 . S
H317 C295 0.931 . S
H318 C297 0.934 . S
H319 C298 0.930 . S
C320 C321 1.391 . S
C320 C322 1.394 . S
C320 H336 0.931 . S
C321 C320 1.391 . S
C321 C325 1.376 1_554 S
C322 C320 1.394 . S
C322 C323 1.369 . S
C322 C326 1.531 . S
C323 C322 1.369 . S
C323 C324 1.410 1_554 S
C323 C331 1.503 . S
C324 C323 1.410 1_556 S
C324 C325 1.392 . S
C324 C327 1.511 . S
C325 C321 1.376 1_556 S
C325 C324 1.392 . S
C325 H337 0.929 . S
C326 C322 1.531 . S
C326 H338 0.960 . S
C326 H339 0.962 . S
C326 H340 0.960 . S
C327 C324 1.511 . S
C327 H341 0.961 . S
C327 H342 0.961 . S
C327 H343 0.961 . S
C328 C329 1.370 1_556 S
C328 C330 1.363 . S
C328 H344 0.931 . S
C329 C328 1.370 1_554 S
C329 C333 1.408 . S
C330 C328 1.363 . S
C330 C331 1.370 1_556 S
C330 C334 1.524 . S
C331 C323 1.503 . S
C331 C330 1.370 1_554 S
C331 C332 1.403 . S
C332 C331 1.403 . S
C332 C333 1.404 . S
C332 C335 1.539 . S
C333 C329 1.408 . S
C333 C332 1.404 . S
C333 H345 0.930 . S
C334 C330 1.524 . S
C334 H346 0.956 . S
C334 H347 0.961 . S
C334 H348 0.961 . S
C335 C332 1.539 . S
C335 H349 0.958 . S
C335 H350 0.961 . S
C335 H351 0.960 . S
H336 C320 0.931 . S
H337 C325 0.929 . S
H338 C326 0.960 . S
H339 C326 0.962 . S
H340 C326 0.960 . S
H341 C327 0.961 . S
H342 C327 0.961 . S
H343 C327 0.961 . S
H344 C328 0.931 . S
H345 C333 0.930 . S
H346 C334 0.956 . S
H347 C334 0.961 . S
H348 C334 0.961 . S
H349 C335 0.958 . S
H350 C335 0.961 . S
H351 C335 0.960 . S
C352 C353 1.391 1_556 S
C352 C354 1.394 . S
C352 H368 0.931 . S
C353 C352 1.391 1_554 S
C353 C357 1.376 . S
C354 C352 1.394 . S
C354 C355 1.369 1_556 S
C354 C358 1.531 . S
C355 C354 1.369 1_554 S
C355 C356 1.410 . S
C355 C363 1.503 . S
C356 C355 1.410 . S
C356 C357 1.392 . S
C356 C359 1.511 . S
C357 C353 1.376 . S
C357 C356 1.392 . S
C357 H369 0.929 . S
C358 C354 1.531 . S
C358 H370 0.960 . S
C358 H371 0.962 1_556 S
C358 H372 0.960 . S
C359 C356 1.511 . S
C359 H373 0.961 . S
C359 H374 0.961 . S
C359 H375 0.961 . S
C360 C361 1.370 . S
C360 C362 1.363 . S
C360 H376 0.931 . S
C361 C360 1.370 . S
C361 C365 1.408 1_554 S
C362 C360 1.363 . S
C362 C363 1.370 . S
C362 C366 1.524 . S
C363 C355 1.503 . S
C363 C362 1.370 . S
C363 C364 1.403 1_554 S
C364 C363 1.403 1_556 S
C364 C365 1.404 . S
C364 C367 1.539 . S
C365 C361 1.408 1_556 S
C365 C364 1.404 . S
C365 H377 0.930 . S
C366 C362 1.524 . S
C366 H378 0.956 . S
C366 H379 0.961 . S
C366 H380 0.961 . S
C367 C364 1.539 . S
C367 H381 0.958 . S
C367 H382 0.961 . S
C367 H383 0.960 . S
H368 C352 0.931 . S
H369 C357 0.929 . S
H370 C358 0.960 . S
H371 C358 0.962 1_554 S
H372 C358 0.960 . S
H373 C359 0.961 . S
H374 C359 0.961 . S
H375 C359 0.961 . S
H376 C360 0.931 . S
H377 C365 0.930 . S
H378 C366 0.956 . S
H379 C366 0.961 . S
H380 C366 0.961 . S
H381 C367 0.958 . S
H382 C367 0.961 . S
H383 C367 0.960 . S
C384 C385 1.391 . S
C384 C386 1.394 . S
C384 H400 0.931 . S
C385 C384 1.391 . S
C385 C389 1.376 . S
C386 C384 1.394 . S
C386 C387 1.369 . S
C386 C390 1.531 . S
C387 C386 1.369 . S
C387 C388 1.410 . S
C387 C395 1.503 . S
C388 C387 1.410 . S
C388 C389 1.392 . S
C388 C391 1.511 . S
C389 C385 1.376 . S
C389 C388 1.392 . S
C389 H401 0.929 . S
C390 C386 1.531 . S
C390 H402 0.960 . S
C390 H403 0.962 . S
C390 H404 0.960 . S
C391 C388 1.511 . S
C391 H405 0.961 . S
C391 H406 0.961 . S
C391 H407 0.961 . S
C392 C393 1.370 . S
C392 C394 1.363 . S
C392 H408 0.931 . S
C393 C392 1.370 . S
C393 C397 1.408 . S
C394 C392 1.363 . S
C394 C395 1.370 . S
C394 C398 1.524 . S
C395 C387 1.503 . S
C395 C394 1.370 . S
C395 C396 1.403 . S
C396 C395 1.403 . S
C396 C397 1.404 . S
C396 C399 1.539 . S
C397 C393 1.408 . S
C397 C396 1.404 . S
C397 H409 0.930 . S
C398 C394 1.524 . S
C398 H410 0.956 . S
C398 H411 0.961 . S
C398 H412 0.961 . S
C399 C396 1.539 . S
C399 H413 0.958 . S
C399 H414 0.961 . S
C399 H415 0.960 . S
H400 C384 0.931 . S
H401 C389 0.929 . S
H402 C390 0.960 . S
H403 C390 0.962 . S
H404 C390 0.960 . S
H405 C391 0.961 . S
H406 C391 0.961 . S
H407 C391 0.961 . S
H408 C392 0.931 . S
H409 C397 0.930 . S
H410 C398 0.956 . S
H411 C398 0.961 . S
H412 C398 0.961 . S
H413 C399 0.958 . S
H414 C399 0.961 . S
H415 C399 0.960 . S
C416 C417 1.391 . S
C416 C418 1.394 . S
C416 H432 0.931 . S
C417 C416 1.391 . S
C417 C421 1.376 . S
C418 C416 1.394 . S
C418 C419 1.369 . S
C418 C422 1.531 . S
C419 C418 1.369 . S
C419 C420 1.410 . S
C419 C427 1.503 . S
C420 C419 1.410 . S
C420 C421 1.392 . S
C420 C423 1.511 . S
C421 C417 1.376 . S
C421 C420 1.392 . S
C421 H433 0.929 . S
C422 C418 1.531 . S
C422 H434 0.960 . S
C422 H435 0.962 . S
C422 H436 0.960 . S
C423 C420 1.511 . S
C423 H437 0.961 . S
C423 H438 0.961 . S
C423 H439 0.961 . S
C424 C425 1.370 . S
C424 C426 1.363 . S
C424 H440 0.931 . S
C425 C424 1.370 . S
C425 C429 1.408 . S
C426 C424 1.363 . S
C426 C427 1.370 . S
C426 C430 1.524 . S
C427 C419 1.503 . S
C427 C426 1.370 . S
C427 C428 1.403 . S
C428 C427 1.403 . S
C428 C429 1.404 . S
C428 C431 1.539 . S
C429 C425 1.408 . S
C429 C428 1.404 . S
C429 H441 0.930 . S
C430 C426 1.524 . S
C430 H442 0.956 . S
C430 H443 0.961 . S
C430 H444 0.961 . S
C431 C428 1.539 . S
C431 H445 0.958 . S
C431 H446 0.961 . S
C431 H447 0.960 . S
H432 C416 0.931 . S
H433 C421 0.929 . S
H434 C422 0.960 . S
H435 C422 0.962 . S
H436 C422 0.960 . S
H437 C423 0.961 . S
H438 C423 0.961 . S
H439 C423 0.961 . S
H440 C424 0.931 . S
H441 C429 0.930 . S
H442 C430 0.956 . S
H443 C430 0.961 . S
H444 C430 0.961 . S
H445 C431 0.958 . S
H446 C431 0.961 . S
H447 C431 0.960 . S
C448 C449 1.391 . S
C448 C450 1.394 . S
C448 H464 0.931 . S
C449 C448 1.391 . S
C449 C453 1.376 1_554 S
C450 C448 1.394 . S
C450 C451 1.369 1_655 S
C450 C454 1.531 . S
C451 C450 1.369 1_455 S
C451 C452 1.410 1_454 S
C451 C459 1.503 . S
C452 C451 1.410 1_656 S
C452 C453 1.392 . S
C452 C455 1.511 1_655 S
C453 C449 1.376 1_556 S
C453 C452 1.392 . S
C453 H465 0.929 . S
C454 C450 1.531 . S
C454 H466 0.960 1_655 S
C454 H467 0.962 1_655 S
C454 H468 0.960 . S
C455 C452 1.511 1_455 S
C455 H469 0.961 . S
C455 H470 0.961 . S
C455 H471 0.961 . S
C456 C457 1.372 . S
C456 C458 1.364 . S
C456 H472 0.929 1_554 S
C457 C456 1.372 . S
C457 C461 1.408 . S
C458 C456 1.364 . S
C458 C459 1.374 . S
C458 C462 1.520 1_554 S
C459 C451 1.503 . S
C459 C458 1.374 . S
C459 C460 1.403 . S
C460 C459 1.403 . S
C460 C461 1.404 . S
C460 C463 1.539 . S
C461 C457 1.408 . S
C461 C460 1.404 . S
C461 H473 0.930 . S
C462 C458 1.520 1_556 S
C462 H474 0.956 1_556 S
C462 H475 0.961 . S
C462 H476 0.961 . S
C463 C460 1.539 . S
C463 H477 0.958 . S
C463 H478 0.961 . S
C463 H479 0.960 . S
H464 C448 0.931 . S
H465 C453 0.929 . S
H466 C454 0.960 1_455 S
H467 C454 0.962 1_455 S
H468 C454 0.960 . S
H469 C455 0.961 . S
H470 C455 0.961 . S
H471 C455 0.961 . S
H472 C456 0.929 1_556 S
H473 C461 0.930 . S
H474 C462 0.956 1_554 S
H475 C462 0.961 . S
H476 C462 0.961 . S
H477 C463 0.958 . S
H478 C463 0.961 . S
H479 C463 0.960 . S
C480 C481 1.391 . S
C480 C482 1.394 . S
C480 H496 0.931 . S
C481 C480 1.391 . S
C481 C485 1.376 . S
C482 C480 1.394 . S
C482 C483 1.369 1_455 S
C482 C486 1.531 1_455 S
C483 C482 1.369 1_655 S
C483 C484 1.410 1_655 S
C483 C491 1.503 . S
C484 C483 1.410 1_455 S
C484 C485 1.392 . S
C484 C487 1.511 1_455 S
C485 C481 1.376 . S
C485 C484 1.392 . S
C485 H497 0.929 . S
C486 C482 1.531 1_655 S
C486 H498 0.960 . S
C486 H499 0.962 . S
C486 H500 0.960 1_655 S
C487 C484 1.511 1_655 S
C487 H501 0.961 1_554 S
C487 H502 0.961 1_554 S
C487 H503 0.961 . S
C488 C489 1.370 1_556 S
C488 C490 1.363 . S
C488 H504 0.931 . S
C489 C488 1.370 1_554 S
C489 C493 1.408 . S
C490 C488 1.363 . S
C490 C491 1.370 1_556 S
C490 C494 1.524 . S
C491 C483 1.503 . S
C491 C490 1.370 1_554 S
C491 C492 1.403 . S
C492 C491 1.403 . S
C492 C493 1.404 . S
C492 C495 1.539 . S
C493 C489 1.408 . S
C493 C492 1.404 . S
C493 H505 0.930 . S
C494 C490 1.524 . S
C494 H506 0.956 . S
C494 H507 0.961 . S
C494 H508 0.961 . S
C495 C492 1.539 . S
C495 H509 0.958 . S
C495 H510 0.961 . S
C495 H511 0.960 . S
H496 C480 0.931 . S
H497 C485 0.929 . S
H498 C486 0.960 . S
H499 C486 0.962 . S
H500 C486 0.960 1_455 S
H501 C487 0.961 1_556 S
H502 C487 0.961 1_556 S
H503 C487 0.961 . S
H504 C488 0.931 . S
H505 C493 0.930 . S
H506 C494 0.956 . S
H507 C494 0.961 . S
H508 C494 0.961 . S
H509 C495 0.958 . S
H510 C495 0.961 . S
H511 C495 0.960 . S
C512 C513 1.391 . S
C512 C514 1.394 . S
C512 H528 0.931 . S
C513 C512 1.391 . S
C513 C517 1.376 . S
C514 C512 1.394 . S
C514 C515 1.369 . S
C514 C518 1.531 . S
C515 C514 1.369 . S
C515 C516 1.410 . S
C515 C523 1.503 . S
C516 C515 1.410 . S
C516 C517 1.392 . S
C516 C519 1.511 . S
C517 C513 1.376 . S
C517 C516 1.392 . S
C517 H529 0.929 . S
C518 C514 1.531 . S
C518 H530 0.960 . S
C518 H531 0.962 . S
C518 H532 0.960 . S
C519 C516 1.511 . S
C519 H533 0.961 . S
C519 H534 0.961 . S
C519 H535 0.961 . S
C520 C521 1.370 . S
C520 C522 1.363 . S
C520 H536 0.931 . S
C521 C520 1.370 . S
C521 C525 1.408 . S
C522 C520 1.363 . S
C522 C523 1.370 1_655 S
C522 C526 1.524 1_655 S
C523 C515 1.503 . S
C523 C522 1.370 1_455 S
C523 C524 1.403 1_455 S
C524 C523 1.403 1_655 S
C524 C525 1.404 . S
C524 C527 1.539 . S
C525 C521 1.408 . S
C525 C524 1.404 . S
C525 H537 0.930 . S
C526 C522 1.524 1_455 S
C526 H538 0.956 . S
C526 H539 0.961 . S
C526 H540 0.961 . S
C527 C524 1.539 . S
C527 H541 0.958 . S
C527 H542 0.961 . S
C527 H543 0.960 1_655 S
H528 C512 0.931 . S
H529 C517 0.929 . S
H530 C518 0.960 . S
H531 C518 0.962 . S
H532 C518 0.960 . S
H533 C519 0.961 . S
H534 C519 0.961 . S
H535 C519 0.961 . S
H536 C520 0.931 . S
H537 C525 0.930 . S
H538 C526 0.956 . S
H539 C526 0.961 . S
H540 C526 0.961 . S
H541 C527 0.958 . S
H542 C527 0.961 . S
H543 C527 0.960 1_455 S
C544 C545 1.391 . S
C544 C546 1.394 . S
C544 H560 0.931 . S
C545 C544 1.391 . S
C545 C549 1.376 . S
C546 C544 1.394 . S
C546 C547 1.369 . S
C546 C550 1.531 . S
C547 C546 1.369 . S
C547 C548 1.410 . S
C547 C555 1.503 . S
C548 C547 1.410 . S
C548 C549 1.392 . S
C548 C551 1.511 . S
C549 C545 1.376 . S
C549 C548 1.392 . S
C549 H561 0.929 . S
C550 C546 1.531 . S
C550 H562 0.960 . S
C550 H563 0.962 . S
C550 H564 0.960 . S
C551 C548 1.511 . S
C551 H565 0.961 . S
C551 H566 0.961 . S
C551 H567 0.961 . S
C552 C553 1.370 . S
C552 C554 1.363 . S
C552 H568 0.931 . S
C553 C552 1.370 . S
C553 C557 1.408 . S
C554 C552 1.363 . S
C554 C555 1.370 1_455 S
C554 C558 1.524 1_455 S
C555 C547 1.503 . S
C555 C554 1.370 1_655 S
C555 C556 1.403 1_655 S
C556 C555 1.403 1_455 S
C556 C557 1.404 . S
C556 C559 1.539 1_455 S
C557 C553 1.408 . S
C557 C556 1.404 . S
C557 H569 0.930 . S
C558 C554 1.524 1_655 S
C558 H570 0.956 . S
C558 H571 0.961 . S
C558 H572 0.961 1_655 S
C559 C556 1.539 1_655 S
C559 H573 0.958 . S
C559 H574 0.961 1_655 S
C559 H575 0.960 . S
H560 C544 0.931 . S
H561 C549 0.929 . S
H562 C550 0.960 . S
H563 C550 0.962 . S
H564 C550 0.960 . S
H565 C551 0.961 . S
H566 C551 0.961 . S
H567 C551 0.961 . S
H568 C552 0.931 . S
H569 C557 0.930 . S
H570 C558 0.956 . S
H571 C558 0.961 . S
H572 C558 0.961 1_455 S
H573 C559 0.958 . S
H574 C559 0.961 1_455 S
H575 C559 0.960 . S
C576 C577 1.391 . S
C576 C578 1.394 . S
C576 H592 0.931 . S
C577 C576 1.391 . S
C577 C581 1.376 . S
C578 C576 1.394 . S
C578 C579 1.369 . S
C578 C582 1.531 . S
C579 C578 1.369 . S
C579 C580 1.410 1_455 S
C579 C587 1.503 1_455 S
C580 C579 1.410 1_655 S
C580 C581 1.392 1_655 S
C580 C583 1.511 . S
C581 C577 1.376 . S
C581 C580 1.392 1_455 S
C581 H593 0.929 1_455 S
C582 C578 1.531 . S
C582 H594 0.960 . S
C582 H595 0.962 1_554 S
C582 H596 0.960 . S
C583 C580 1.511 . S
C583 H597 0.961 . S
C583 H598 0.961 . S
C583 H599 0.961 . S
C584 C585 1.370 1_556 S
C584 C586 1.363 . S
C584 H600 0.931 . S
C585 C584 1.370 1_554 S
C585 C589 1.408 . S
C586 C584 1.363 . S
C586 C587 1.370 1_556 S
C586 C590 1.524 . S
C587 C579 1.503 1_655 S
C587 C586 1.370 1_554 S
C587 C588 1.403 . S
C588 C587 1.403 . S
C588 C589 1.404 . S
C588 C591 1.539 . S
C589 C585 1.408 . S
C589 C588 1.404 . S
C589 H601 0.930 . S
C590 C586 1.524 . S
C590 H602 0.956 1_655 S
C590 H603 0.961 . S
C590 H604 0.961 . S
C591 C588 1.539 . S
C591 H605 0.958 1_655 S
C591 H606 0.961 . S
C591 H607 0.960 . S
H592 C576 0.931 . S
H593 C581 0.929 1_655 S
H594 C582 0.960 . S
H595 C582 0.962 1_556 S
H596 C582 0.960 . S
H597 C583 0.961 . S
H598 C583 0.961 . S
H599 C583 0.961 . S
H600 C584 0.931 . S
H601 C589 0.930 . S
H602 C590 0.956 1_455 S
H603 C590 0.961 . S
H604 C590 0.961 . S
H605 C591 0.958 1_455 S
H606 C591 0.961 . S
H607 C591 0.960 . S
C608 C609 1.391 . S
C608 C610 1.394 . S
C608 H624 0.931 . S
C609 C608 1.391 . S
C609 C613 1.376 . S
C610 C608 1.394 . S
C610 C611 1.369 . S
C610 C614 1.531 . S
C611 C610 1.369 . S
C611 C612 1.410 1_455 S
C611 C619 1.503 1_455 S
C612 C611 1.410 1_655 S
C612 C613 1.392 1_655 S
C612 C615 1.511 . S
C613 C609 1.376 . S
C613 C612 1.392 1_455 S
C613 H625 0.929 . S
C614 C610 1.531 . S
C614 H626 0.960 . S
C614 H627 0.962 . S
C614 H628 0.960 . S
C615 C612 1.511 . S
C615 H629 0.961 . S
C615 H630 0.961 . S
C615 H631 0.961 . S
C616 C617 1.370 . S
C616 C618 1.363 . S
C616 H632 0.931 . S
C617 C616 1.370 . S
C617 C621 1.408 . S
C618 C616 1.363 . S
C618 C619 1.370 . S
C618 C622 1.524 1_655 S
C619 C611 1.503 1_655 S
C619 C618 1.370 . S
C619 C620 1.403 . S
C620 C619 1.403 . S
C620 C621 1.404 . S
C620 C623 1.539 . S
C621 C617 1.408 . S
C621 C620 1.404 . S
C621 H633 0.930 . S
C622 C618 1.524 1_455 S
C622 H634 0.956 . S
C622 H635 0.961 . S
C622 H636 0.961 . S
C623 C620 1.539 . S
C623 H637 0.958 . S
C623 H638 0.961 . S
C623 H639 0.960 . S
H624 C608 0.931 . S
H625 C613 0.929 . S
H626 C614 0.960 . S
H627 C614 0.962 . S
H628 C614 0.960 . S
H629 C615 0.961 . S
H630 C615 0.961 . S
H631 C615 0.961 . S
H632 C616 0.931 . S
H633 C621 0.930 . S
H634 C622 0.956 . S
H635 C622 0.961 . S
H636 C622 0.961 . S
H637 C623 0.958 . S
H638 C623 0.961 . S
H639 C623 0.960 . S
C640 C641 1.391 1_556 S
C640 C642 1.394 . S
C640 H656 0.931 . S
C641 C640 1.391 1_554 S
C641 C645 1.376 . S
C642 C640 1.394 . S
C642 C643 1.369 1_556 S
C642 C646 1.531 . S
C643 C642 1.369 1_554 S
C643 C644 1.410 . S
C643 C651 1.503 1_565 S
C644 C643 1.410 . S
C644 C645 1.392 . S
C644 C647 1.511 . S
C645 C641 1.376 . S
C645 C644 1.392 . S
C645 H657 0.929 . S
C646 C642 1.531 . S
C646 H658 0.960 1_565 S
C646 H659 0.962 . S
C646 H660 0.960 . S
C647 C644 1.511 . S
C647 H661 0.961 . S
C647 H662 0.961 . S
C647 H663 0.961 . S
C648 C649 1.370 . S
C648 C650 1.363 . S
C648 H664 0.931 . S
C649 C648 1.370 . S
C649 C653 1.408 . S
C650 C648 1.363 . S
C650 C651 1.370 . S
C650 C654 1.524 1_545 S
C651 C643 1.503 1_545 S
C651 C650 1.370 . S
C651 C652 1.403 . S
C652 C651 1.403 . S
C652 C653 1.404 . S
C652 C655 1.539 . S
C653 C649 1.408 . S
C653 C652 1.404 . S
C653 H665 0.930 . S
C654 C650 1.524 1_565 S
C654 H666 0.956 1_554 S
C654 H667 0.961 . S
C654 H668 0.961 . S
C655 C652 1.539 . S
C655 H669 0.958 . S
C655 H670 0.961 . S
C655 H671 0.960 . S
H656 C640 0.931 . S
H657 C645 0.929 . S
H658 C646 0.960 1_545 S
H659 C646 0.962 . S
H660 C646 0.960 . S
H661 C647 0.961 . S
H662 C647 0.961 . S
H663 C647 0.961 . S
H664 C648 0.931 . S
H665 C653 0.930 . S
H666 C654 0.956 1_556 S
H667 C654 0.961 . S
H668 C654 0.961 . S
H669 C655 0.958 . S
H670 C655 0.961 . S
H671 C655 0.960 . S
C672 C673 1.391 . S
C672 C674 1.394 . S
C672 H688 0.931 . S
C673 C672 1.391 . S
C673 C677 1.376 . S
C674 C672 1.394 . S
C674 C675 1.369 . S
C674 C678 1.559 . S
C675 C674 1.369 . S
C675 C676 1.410 . S
C675 C683 1.503 1_545 S
C676 C675 1.410 . S
C676 C677 1.392 . S
C676 C679 1.511 . S
C677 C673 1.376 . S
C677 C676 1.392 . S
C677 H689 0.929 . S
C678 C674 1.559 . S
C678 H690 0.916 1_545 S
C678 H691 0.970 . S
C678 H692 0.971 . S
C679 C676 1.511 . S
C679 H693 0.961 . S
C679 H694 0.961 . S
C679 H695 0.961 . S
C680 C681 1.370 . S
C680 C682 1.363 . S
C680 H696 0.931 . S
C681 C680 1.370 . S
C681 C685 1.408 . S
C682 C680 1.363 . S
C682 C683 1.370 . S
C682 C686 1.524 1_565 S
C683 C675 1.503 1_565 S
C683 C682 1.370 . S
C683 C684 1.403 . S
C684 C683 1.403 . S
C684 C685 1.404 . S
C684 C687 1.539 . S
C685 C681 1.408 . S
C685 C684 1.404 . S
C685 H697 0.930 . S
C686 C682 1.524 1_545 S
C686 H698 0.956 . S
C686 H699 0.961 . S
C686 H700 0.961 . S
C687 C684 1.539 . S
C687 H701 0.958 . S
C687 H702 0.961 . S
C687 H703 0.960 . S
H688 C672 0.931 . S
H689 C677 0.929 . S
H690 C678 0.916 1_565 S
H691 C678 0.970 . S
H692 C678 0.971 . S
H693 C679 0.961 . S
H694 C679 0.961 . S
H695 C679 0.961 . S
H696 C680 0.931 . S
H697 C685 0.930 . S
H698 C686 0.956 . S
H699 C686 0.961 . S
H700 C686 0.961 . S
H701 C687 0.958 . S
H702 C687 0.961 . S
H703 C687 0.960 . S
C704 C705 1.391 . S
C704 C706 1.394 . S
C704 H720 0.931 . S
C705 C704 1.391 . S
C705 C709 1.376 . S
C706 C704 1.394 . S
C706 C707 1.369 . S
C706 C710 1.531 . S
C707 C706 1.369 . S
C707 C708 1.410 . S
C707 C715 1.503 . S
C708 C707 1.410 . S
C708 C709 1.392 . S
C708 C711 1.513 . S
C709 C705 1.376 . S
C709 C708 1.392 . S
C709 H721 0.929 . S
C710 C706 1.531 . S
C710 H722 0.960 . S
C710 H723 0.962 . S
C710 H724 0.960 . S
C711 C708 1.513 . S
C711 H725 0.957 1_554 S
C711 H726 0.959 1_554 S
C711 H727 0.964 . S
C712 C713 1.370 1_556 S
C712 C714 1.363 . S
C712 H728 0.931 . S
C713 C712 1.370 1_554 S
C713 C717 1.408 . S
C714 C712 1.363 . S
C714 C715 1.370 1_556 S
C714 C718 1.524 . S
C715 C707 1.503 . S
C715 C714 1.370 1_554 S
C715 C716 1.403 . S
C716 C715 1.403 . S
C716 C717 1.404 . S
C716 C719 1.539 . S
C717 C713 1.408 . S
C717 C716 1.404 . S
C717 H729 0.930 . S
C718 C714 1.524 . S
C718 H730 0.956 . S
C718 H731 0.961 . S
C718 H732 0.961 . S
C719 C716 1.539 . S
C719 H733 0.958 . S
C719 H734 0.961 . S
C719 H735 0.960 . S
H720 C704 0.931 . S
H721 C709 0.929 . S
H722 C710 0.960 . S
H723 C710 0.962 . S
H724 C710 0.960 . S
H725 C711 0.957 1_556 S
H726 C711 0.959 1_556 S
H727 C711 0.964 . S
H728 C712 0.931 . S
H729 C717 0.930 . S
H730 C718 0.956 . S
H731 C718 0.961 . S
H732 C718 0.961 . S
H733 C719 0.958 . S
H734 C719 0.961 . S
H735 C719 0.960 . S
C736 C737 1.391 . S
C736 C738 1.394 . S
C736 H752 0.931 . S
C737 C736 1.391 . S
C737 C741 1.376 . S
C738 C736 1.394 . S
C738 C739 1.369 . S
C738 C742 1.531 . S
C739 C738 1.369 . S
C739 C740 1.416 . S
C739 C747 1.503 . S
C740 C739 1.416 . S
C740 C741 1.393 . S
C740 C743 1.504 1_554 S
C741 C737 1.376 . S
C741 C740 1.393 . S
C741 H753 0.929 1_554 S
C742 C738 1.531 . S
C742 H754 0.960 . S
C742 H755 0.962 . S
C742 H756 0.960 . S
C743 C740 1.504 1_556 S
C743 H757 0.961 . S
C743 H758 0.961 . S
C743 H759 0.961 . S
C744 C745 1.370 1_556 S
C744 C746 1.363 . S
C744 H760 0.931 . S
C745 C744 1.370 1_554 S
C745 C749 1.408 . S
C746 C744 1.363 . S
C746 C747 1.370 1_556 S
C746 C750 1.524 . S
C747 C739 1.503 . S
C747 C746 1.370 1_554 S
C747 C748 1.403 . S
C748 C747 1.403 . S
C748 C749 1.404 . S
C748 C751 1.539 . S
C749 C745 1.408 . S
C749 C748 1.404 . S
C749 H761 0.930 . S
C750 C746 1.524 . S
C750 H762 0.956 . S
C750 H763 0.961 . S
C750 H764 0.961 . S
C751 C748 1.539 . S
C751 H765 0.958 . S
C751 H766 0.961 . S
C751 H767 0.960 . S
H752 C736 0.931 . S
H753 C741 0.929 1_556 S
H754 C742 0.960 . S
H755 C742 0.962 . S
H756 C742 0.960 . S
H757 C743 0.961 . S
H758 C743 0.961 . S
H759 C743 0.961 . S
H760 C744 0.931 . S
H761 C749 0.930 . S
H762 C750 0.956 . S
H763 C750 0.961 . S
H764 C750 0.961 . S
H765 C751 0.958 . S
H766 C751 0.961 . S
H767 C751 0.960 . S
C768 C769 1.391 . S
C768 C770 1.394 . S
C768 H784 0.931 . S
C769 C768 1.391 . S
C769 C773 1.376 . S
C770 C768 1.394 . S
C770 C771 1.369 . S
C770 C774 1.531 . S
C771 C770 1.369 . S
C771 C772 1.410 . S
C771 C779 1.503 . S
C772 C771 1.410 . S
C772 C773 1.392 . S
C772 C775 1.511 . S
C773 C769 1.376 . S
C773 C772 1.392 . S
C773 H785 0.929 . S
C774 C770 1.531 . S
C774 H786 0.960 . S
C774 H787 0.962 . S
C774 H788 0.960 . S
C775 C772 1.511 . S
C775 H789 0.961 . S
C775 H790 0.961 . S
C775 H791 0.961 . S
C776 C777 1.370 . S
C776 C778 1.363 . S
C776 H792 0.931 . S
C777 C776 1.370 . S
C777 C781 1.408 . S
C778 C776 1.363 . S
C778 C779 1.370 . S
C778 C782 1.524 . S
C779 C771 1.503 . S
C779 C778 1.370 . S
C779 C780 1.403 . S
C780 C779 1.403 . S
C780 C781 1.404 . S
C780 C783 1.539 . S
C781 C777 1.408 . S
C781 C780 1.404 . S
C781 H793 0.930 . S
C782 C778 1.524 . S
C782 H794 0.956 . S
C782 H795 0.961 . S
C782 H796 0.961 . S
C783 C780 1.539 . S
C783 H797 0.958 . S
C783 H798 0.961 . S
C783 H799 0.960 . S
H784 C768 0.931 . S
H785 C773 0.929 . S
H786 C774 0.960 . S
H787 C774 0.962 . S
H788 C774 0.960 . S
H789 C775 0.961 . S
H790 C775 0.961 . S
H791 C775 0.961 . S
H792 C776 0.931 . S
H793 C781 0.930 . S
H794 C782 0.956 . S
H795 C782 0.961 . S
H796 C782 0.961 . S
H797 C783 0.958 . S
H798 C783 0.961 . S
H799 C783 0.960 . S
C800 C801 1.391 . S
C800 C802 1.394 . S
C800 H816 0.931 . S
C801 C800 1.391 . S
C801 C805 1.376 . S
C802 C800 1.394 . S
C802 C803 1.369 . S
C802 C806 1.531 . S
C803 C802 1.369 . S
C803 C804 1.410 . S
C803 C811 1.503 . S
C804 C803 1.410 . S
C804 C805 1.392 . S
C804 C807 1.511 . S
C805 C801 1.376 . S
C805 C804 1.392 . S
C805 H817 0.929 . S
C806 C802 1.531 . S
C806 H818 0.960 . S
C806 H819 0.962 . S
C806 H820 0.960 . S
C807 C804 1.511 . S
C807 H821 0.961 . S
C807 H822 0.961 . S
C807 H823 0.961 . S
C808 C809 1.370 . S
C808 C810 1.363 . S
C808 H824 0.931 . S
C809 C808 1.370 . S
C809 C813 1.408 . S
C810 C808 1.363 . S
C810 C811 1.370 . S
C810 C814 1.524 . S
C811 C803 1.503 . S
C811 C810 1.370 . S
C811 C812 1.403 . S
C812 C811 1.403 . S
C812 C813 1.404 . S
C812 C815 1.539 . S
C813 C809 1.408 . S
C813 C812 1.404 . S
C813 H825 0.930 . S
C814 C810 1.524 . S
C814 H826 0.956 . S
C814 H827 0.961 . S
C814 H828 0.961 . S
C815 C812 1.539 . S
C815 H829 0.958 . S
C815 H830 0.961 . S
C815 H831 0.960 . S
H816 C800 0.931 . S
H817 C805 0.929 . S
H818 C806 0.960 . S
H819 C806 0.962 . S
H820 C806 0.960 . S
H821 C807 0.961 . S
H822 C807 0.961 . S
H823 C807 0.961 . S
H824 C808 0.931 . S
H825 C813 0.930 . S
H826 C814 0.956 . S
H827 C814 0.961 . S
H828 C814 0.961 . S
H829 C815 0.958 . S
H830 C815 0.961 . S
H831 C815 0.960 . S
C832 C833 1.391 . S
C832 C834 1.394 . S
C832 H848 0.931 . S
C833 C832 1.391 . S
C833 C837 1.376 . S
C834 C832 1.394 . S
C834 C835 1.369 1_455 S
C834 C838 1.531 . S
C835 C834 1.369 1_655 S
C835 C836 1.410 . S
C835 C843 1.503 . S
C836 C835 1.410 . S
C836 C837 1.392 1_655 S
C836 C839 1.511 . S
C837 C833 1.376 . S
C837 C836 1.392 1_455 S
C837 H849 0.929 . S
C838 C834 1.531 . S
C838 H850 0.960 1_455 S
C838 H851 0.962 . S
C838 H852 0.960 1_455 S
C839 C836 1.511 . S
C839 H853 0.961 . S
C839 H854 0.961 . S
C839 H855 0.961 . S
C840 C841 1.370 1_455 S
C840 C842 1.363 . S
C840 H856 0.931 . S
C841 C840 1.370 1_655 S
C841 C845 1.408 . S
C842 C840 1.363 . S
C842 C843 1.370 1_455 S
C842 C846 1.524 . S
C843 C835 1.503 . S
C843 C842 1.370 1_655 S
C843 C844 1.403 . S
C844 C843 1.403 . S
C844 C845 1.404 . S
C844 C847 1.539 . S
C845 C841 1.408 . S
C845 C844 1.404 . S
C845 H857 0.930 . S
C846 C842 1.524 . S
C846 H858 0.956 . S
C846 H859 0.961 . S
C846 H860 0.961 . S
C847 C844 1.539 . S
C847 H861 0.958 . S
C847 H862 0.961 . S
C847 H863 0.960 . S
H848 C832 0.931 . S
H849 C837 0.929 . S
H850 C838 0.960 1_655 S
H851 C838 0.962 . S
H852 C838 0.960 1_655 S
H853 C839 0.961 . S
H854 C839 0.961 . S
H855 C839 0.961 . S
H856 C840 0.931 . S
H857 C845 0.930 . S
H858 C846 0.956 . S
H859 C846 0.961 . S
H860 C846 0.961 . S
H861 C847 0.958 . S
H862 C847 0.961 . S
H863 C847 0.960 . S
C864 C865 1.391 . S
C864 C866 1.394 1_655 S
C864 H880 0.931 . S
C865 C864 1.391 . S
C865 C869 1.376 . S
C866 C864 1.394 1_455 S
C866 C867 1.369 . S
C866 C870 1.531 . S
C867 C866 1.369 . S
C867 C868 1.410 1_455 S
C867 C875 1.503 . S
C868 C867 1.410 1_655 S
C868 C869 1.392 . S
C868 C871 1.511 . S
C869 C865 1.376 . S
C869 C868 1.392 . S
C869 H881 0.929 . S
C870 C866 1.531 . S
C870 H882 0.960 . S
C870 H883 0.962 . S
C870 H884 0.960 . S
C871 C868 1.511 . S
C871 H885 0.961 . S
C871 H886 0.961 . S
C871 H887 0.961 1_655 S
C872 C873 1.370 1_655 S
C872 C874 1.363 . S
C872 H888 0.931 . S
C873 C872 1.370 1_455 S
C873 C877 1.408 . S
C874 C872 1.363 . S
C874 C875 1.370 1_655 S
C874 C878 1.524 . S
C875 C867 1.503 . S
C875 C874 1.370 1_455 S
C875 C876 1.403 . S
C876 C875 1.403 . S
C876 C877 1.404 . S
C876 C879 1.539 . S
C877 C873 1.408 . S
C877 C876 1.404 . S
C877 H889 0.930 . S
C878 C874 1.524 . S
C878 H890 0.956 . S
C878 H891 0.961 . S
C878 H892 0.961 . S
C879 C876 1.539 . S
C879 H893 0.958 . S
C879 H894 0.961 . S
C879 H895 0.960 . S
H880 C864 0.931 . S
H881 C869 0.929 . S
H882 C870 0.960 . S
H883 C870 0.962 . S
H884 C870 0.960 . S
H885 C871 0.961 . S
H886 C871 0.961 . S
H887 C871 0.961 1_455 S
H888 C872 0.931 . S
H889 C877 0.930 . S
H890 C878 0.956 . S
H891 C878 0.961 . S
H892 C878 0.961 . S
H893 C879 0.958 . S
H894 C879 0.961 . S
H895 C879 0.960 . S
C896 C897 1.391 . S
C896 C898 1.394 . S
C896 H912 0.931 . S
C897 C896 1.391 . S
C897 C901 1.376 1_655 S
C898 C896 1.394 . S
C898 C899 1.369 . S
C898 C902 1.531 . S
C899 C898 1.369 . S
C899 C900 1.410 1_655 S
C899 C907 1.503 1_655 S
C900 C899 1.410 1_455 S
C900 C901 1.392 . S
C900 C903 1.511 . S
C901 C897 1.376 1_455 S
C901 C900 1.392 . S
C901 H913 0.929 . S
C902 C898 1.531 . S
C902 H914 0.960 . S
C902 H915 0.962 . S
C902 H916 0.960 . S
C903 C900 1.511 . S
C903 H917 0.961 . S
C903 H918 0.961 . S
C903 H919 0.961 . S
C904 C905 1.370 . S
C904 C906 1.363 1_455 S
C904 H920 0.931 1_455 S
C905 C904 1.370 . S
C905 C909 1.408 . S
C906 C904 1.363 1_655 S
C906 C907 1.370 1_655 S
C906 C910 1.524 . S
C907 C899 1.503 1_455 S
C907 C906 1.370 1_455 S
C907 C908 1.403 . S
C908 C907 1.403 . S
C908 C909 1.404 . S
C908 C911 1.539 . S
C909 C905 1.408 . S
C909 C908 1.404 . S
C909 H921 0.930 . S
C910 C906 1.524 . S
C910 H922 0.956 . S
C910 H923 0.961 . S
C910 H924 0.961 . S
C911 C908 1.539 . S
C911 H925 0.958 . S
C911 H926 0.961 . S
C911 H927 0.960 . S
H912 C896 0.931 . S
H913 C901 0.929 . S
H914 C902 0.960 . S
H915 C902 0.962 . S
H916 C902 0.960 . S
H917 C903 0.961 . S
H918 C903 0.961 . S
H919 C903 0.961 . S
H920 C904 0.931 1_655 S
H921 C909 0.930 . S
H922 C910 0.956 . S
H923 C910 0.961 . S
H924 C910 0.961 . S
H925 C911 0.958 . S
H926 C911 0.961 . S
H927 C911 0.960 . S
C928 C929 1.391 1_455 S
C928 C930 1.394 . S
C928 H944 0.931 . S
C929 C928 1.391 1_655 S
C929 C933 1.376 . S
C930 C928 1.394 . S
C930 C931 1.369 1_455 S
C930 C934 1.531 . S
C931 C930 1.369 1_655 S
C931 C932 1.410 . S
C931 C939 1.503 1_655 S
C932 C931 1.410 . S
C932 C933 1.392 . S
C932 C935 1.511 . S
C933 C929 1.376 . S
C933 C932 1.392 . S
C933 H945 0.929 . S
C934 C930 1.531 . S
C934 H946 0.960 . S
C934 H947 0.962 . S
C934 H948 0.960 . S
C935 C932 1.511 . S
C935 H949 0.961 . S
C935 H950 0.961 . S
C935 H951 0.961 . S
C936 C937 1.370 . S
C936 C938 1.363 . S
C936 H952 0.931 . S
C937 C936 1.370 . S
C937 C941 1.408 . S
C938 C936 1.363 . S
C938 C939 1.370 . S
C938 C942 1.524 . S
C939 C931 1.503 1_455 S
C939 C938 1.370 . S
C939 C940 1.403 1_455 S
C940 C939 1.403 1_655 S
C940 C941 1.404 1_655 S
C940 C943 1.539 . S
C941 C937 1.408 . S
C941 C940 1.404 1_455 S
C941 H953 0.930 . S
C942 C938 1.524 . S
C942 H954 0.956 . S
C942 H955 0.961 . S
C942 H956 0.961 . S
C943 C940 1.539 . S
C943 H957 0.958 . S
C943 H958 0.961 . S
C943 H959 0.960 . S
H944 C928 0.931 . S
H945 C933 0.929 . S
H946 C934 0.960 . S
H947 C934 0.962 . S
H948 C934 0.960 . S
H949 C935 0.961 . S
H950 C935 0.961 . S
H951 C935 0.961 . S
H952 C936 0.931 . S
H953 C941 0.930 . S
H954 C942 0.956 . S
H955 C942 0.961 . S
H956 C942 0.961 . S
H957 C943 0.958 . S
H958 C943 0.961 . S
H959 C943 0.960 . S
C960 C961 1.391 . S
C960 C962 1.394 . S
C960 H976 0.931 . S
C961 C960 1.391 . S
C961 C965 1.376 . S
C962 C960 1.394 . S
C962 C963 1.369 . S
C962 C966 1.531 . S
C963 C962 1.369 . S
C963 C964 1.410 . S
C963 C971 1.503 . S
C964 C963 1.410 . S
C964 C965 1.392 . S
C964 C967 1.511 . S
C965 C961 1.376 . S
C965 C964 1.392 . S
C965 H977 0.929 . S
C966 C962 1.531 . S
C966 H978 0.960 . S
C966 H979 0.962 . S
C966 H980 0.960 . S
C967 C964 1.511 . S
C967 H981 0.961 . S
C967 H982 0.961 . S
C967 H983 0.961 . S
C968 C969 1.370 . S
C968 C970 1.363 . S
C968 H984 0.931 . S
C969 C968 1.370 . S
C969 C973 1.408 . S
C970 C968 1.363 . S
C970 C971 1.370 . S
C970 C974 1.524 . S
C971 C963 1.503 . S
C971 C970 1.370 . S
C971 C972 1.403 . S
C972 C971 1.403 . S
C972 C973 1.404 . S
C972 C975 1.539 . S
C973 C969 1.408 . S
C973 C972 1.404 . S
C973 H985 0.930 . S
C974 C970 1.524 . S
C974 H986 0.956 . S
C974 H987 0.961 . S
C974 H988 0.961 . S
C975 C972 1.539 . S
C975 H989 0.958 . S
C975 H990 0.961 . S
C975 H991 0.960 . S
H976 C960 0.931 . S
H977 C965 0.929 . S
H978 C966 0.960 . S
H979 C966 0.962 . S
H980 C966 0.960 . S
H981 C967 0.961 . S
H982 C967 0.961 . S
H983 C967 0.961 . S
H984 C968 0.931 . S
H985 C973 0.930 . S
H986 C974 0.956 . S
H987 C974 0.961 . S
H988 C974 0.961 . S
H989 C975 0.958 . S
H990 C975 0.961 . S
H991 C975 0.960 . S
C992 C993 1.391 . S
C992 C994 1.394 . S
C992 H1008 0.931 . S
C993 C992 1.391 . S
C993 C997 1.376 . S
C994 C992 1.394 . S
C994 C995 1.369 . S
C994 C998 1.531 . S
C995 C994 1.369 . S
C995 C996 1.410 . S
C995 C1003 1.503 . S
C996 C995 1.410 . S
C996 C997 1.392 . S
C996 C999 1.511 . S
C997 C993 1.376 . S
C997 C996 1.392 . S
C997 H1009 0.929 . S
C998 C994 1.531 . S
C998 H1010 0.960 . S
C998 H1011 0.962 . S
C998 H1012 0.960 . S
C999 C996 1.511 . S
C999 H1013 0.961 . S
C999 H1014 0.961 . S
C999 H1015 0.961 . S
C1000 C1001 1.370 . S
C1000 C1002 1.363 . S
C1000 H1016 0.931 . S
C1001 C1000 1.370 . S
C1001 C1005 1.408 . S
C1002 C1000 1.363 . S
C1002 C1003 1.370 . S
C1002 C1006 1.524 . S
C1003 C995 1.503 . S
C1003 C1002 1.370 . S
C1003 C1004 1.403 . S
C1004 C1003 1.403 . S
C1004 C1005 1.404 . S
C1004 C1007 1.539 . S
C1005 C1001 1.408 . S
C1005 C1004 1.404 . S
C1005 H1017 0.930 . S
C1006 C1002 1.524 . S
C1006 H1018 0.956 . S
C1006 H1019 0.961 . S
C1006 H1020 0.961 . S
C1007 C1004 1.539 . S
C1007 H1021 0.958 . S
C1007 H1022 0.961 . S
C1007 H1023 0.960 . S
H1008 C992 0.931 . S
H1009 C997 0.929 . S
H1010 C998 0.960 . S
H1011 C998 0.962 . S
H1012 C998 0.960 . S
H1013 C999 0.961 . S
H1014 C999 0.961 . S
H1015 C999 0.961 . S
H1016 C1000 0.931 . S
H1017 C1005 0.930 . S
H1018 C1006 0.956 . S
H1019 C1006 0.961 . S
H1020 C1006 0.961 . S
H1021 C1007 0.958 . S
H1022 C1007 0.961 . S
H1023 C1007 0.960 . S
C1024 C1025 1.391 . S
C1024 C1026 1.394 . S
C1024 H1040 0.931 . S
C1025 C1024 1.391 . S
C1025 C1029 1.376 . S
C1026 C1024 1.394 . S
C1026 C1027 1.369 . S
C1026 C1030 1.531 . S
C1027 C1026 1.369 . S
C1027 C1028 1.410 . S
C1027 C1035 1.503 . S
C1028 C1027 1.410 . S
C1028 C1029 1.392 . S
C1028 C1031 1.511 . S
C1029 C1025 1.376 . S
C1029 C1028 1.392 . S
C1029 H1041 0.929 . S
C1030 C1026 1.531 . S
C1030 H1042 0.960 . S
C1030 H1043 0.962 . S
C1030 H1044 0.960 . S
C1031 C1028 1.511 . S
C1031 H1045 0.961 . S
C1031 H1046 0.961 . S
C1031 H1047 0.961 . S
C1032 C1033 1.370 . S
C1032 C1034 1.363 . S
C1032 H1048 0.931 . S
C1033 C1032 1.370 . S
C1033 C1037 1.408 . S
C1034 C1032 1.363 . S
C1034 C1035 1.370 . S
C1034 C1038 1.524 . S
C1035 C1027 1.503 . S
C1035 C1034 1.370 . S
C1035 C1036 1.403 . S
C1036 C1035 1.403 . S
C1036 C1037 1.404 . S
C1036 C1039 1.539 . S
C1037 C1033 1.408 . S
C1037 C1036 1.404 . S
C1037 H1049 0.930 . S
C1038 C1034 1.524 . S
C1038 H1050 0.956 . S
C1038 H1051 0.961 . S
C1038 H1052 0.961 . S
C1039 C1036 1.539 . S
C1039 H1053 0.958 . S
C1039 H1054 0.961 . S
C1039 H1055 0.960 . S
H1040 C1024 0.931 . S
H1041 C1029 0.929 . S
H1042 C1030 0.960 . S
H1043 C1030 0.962 . S
H1044 C1030 0.960 . S
H1045 C1031 0.961 . S
H1046 C1031 0.961 . S
H1047 C1031 0.961 . S
H1048 C1032 0.931 . S
H1049 C1037 0.930 . S
H1050 C1038 0.956 . S
H1051 C1038 0.961 . S
H1052 C1038 0.961 . S
H1053 C1039 0.958 . S
H1054 C1039 0.961 . S
H1055 C1039 0.960 . S
C1056 C1057 1.391 . S
C1056 C1058 1.394 . S
C1056 H1072 0.931 . S
C1057 C1056 1.391 . S
C1057 C1061 1.376 . S
C1058 C1056 1.394 . S
C1058 C1059 1.369 . S
C1058 C1062 1.531 . S
C1059 C1058 1.369 . S
C1059 C1060 1.410 . S
C1059 C1067 1.503 . S
C1060 C1059 1.410 . S
C1060 C1061 1.392 . S
C1060 C1063 1.511 . S
C1061 C1057 1.376 . S
C1061 C1060 1.392 . S
C1061 H1073 0.929 . S
C1062 C1058 1.531 . S
C1062 H1074 0.960 . S
C1062 H1075 0.962 . S
C1062 H1076 0.960 . S
C1063 C1060 1.511 . S
C1063 H1077 0.961 . S
C1063 H1078 0.961 . S
C1063 H1079 0.961 . S
C1064 C1065 1.370 . S
C1064 C1066 1.363 . S
C1064 H1080 0.931 . S
C1065 C1064 1.370 . S
C1065 C1069 1.408 . S
C1066 C1064 1.363 . S
C1066 C1067 1.370 . S
C1066 C1070 1.524 . S
C1067 C1059 1.503 . S
C1067 C1066 1.370 . S
C1067 C1068 1.403 . S
C1068 C1067 1.403 . S
C1068 C1069 1.404 . S
C1068 C1071 1.539 . S
C1069 C1065 1.408 . S
C1069 C1068 1.404 . S
C1069 H1081 0.930 . S
C1070 C1066 1.524 . S
C1070 H1082 0.956 . S
C1070 H1083 0.961 . S
C1070 H1084 0.961 . S
C1071 C1068 1.539 . S
C1071 H1085 0.958 . S
C1071 H1086 0.961 . S
C1071 H1087 0.960 . S
H1072 C1056 0.931 . S
H1073 C1061 0.929 . S
H1074 C1062 0.960 . S
H1075 C1062 0.962 . S
H1076 C1062 0.960 . S
H1077 C1063 0.961 . S
H1078 C1063 0.961 . S
H1079 C1063 0.961 . S
H1080 C1064 0.931 . S
H1081 C1069 0.930 . S
H1082 C1070 0.956 . S
H1083 C1070 0.961 . S
H1084 C1070 0.961 . S
H1085 C1071 0.958 . S
H1086 C1071 0.961 . S
H1087 C1071 0.960 . S
C321 C11 2.332 . S
C329 C2 2.313 . S
C353 C51 2.304 . S
C361 C42 2.327 . S
C385 C91 2.297 . S
C393 C82 2.328 . S
C417 C131 2.316 . S
C425 C122 2.319 . S
C449 C171 2.334 . S
C457 C162 2.313 . S
C481 C202 2.314 . S
C489 C211 2.320 . S
C513 C251 2.316 . S
C521 C242 2.322 . S
C545 C282 2.299 . S
C553 C291 2.327 . S
C577 C56 2.638 . S
C585 C7 2.636 . S
C609 C127 2.607 . S
C617 C96 2.646 . S
C641 C167 2.657 . S
C649 C216 2.625 . S
C673 C256 2.658 . S
C681 C287 2.628 . S
C705 C16 1.841 . S
C713 C207 1.852 . S
C737 C176 1.833 . S
C745 C47 1.855 . S
C769 C87 1.870 . S
C777 C296 1.838 . S
C801 C136 1.870 . S
C809 C247 1.838 . S
C833 C10 1.460 . S
C841 C130 1.477 . S
C865 C50 1.580 . S
C873 C90 1.609 . S
C897 C59 1.492 . S
C905 C99 1.484 . S
C929 C139 1.633 . S
C937 C19 1.613 . S
C961 C170 1.443 . S
C969 C290 1.468 . S
C993 C210 1.606 . S
C1001 C250 1.618 . S
C1025 C219 1.451 . S
C1033 C259 1.462 . S
C1057 C299 1.632 . S
C1065 C179 1.614 . S
