# Generated by pormake.
# Topology uou, (4)-cn, num edge types: 1
# Building blocks:
#     Node 0, Type 0, BuildingBlock: KUFVIS_clean_sbu_0, # of connection points: 4
#     Node 1, Type 0, BuildingBlock: KUFVIS_clean_sbu_0, # of connection points: 4
#     Node 2, Type 0, BuildingBlock: KUFVIS_clean_sbu_0, # of connection points: 4
#     Node 3, Type 0, BuildingBlock: KUFVIS_clean_sbu_0, # of connection points: 4
#     Node 4, Type 0, BuildingBlock: KUFVIS_clean_sbu_0, # of connection points: 4
#     Node 5, Type 0, BuildingBlock: KUFVIS_clean_sbu_0, # of connection points: 4
#     Node 6, Type 0, BuildingBlock: KUFVIS_clean_sbu_0, # of connection points: 4
#     Node 7, Type 0, BuildingBlock: KUFVIS_clean_sbu_0, # of connection points: 4
#     Node 8, Type 0, BuildingBlock: KUFVIS_clean_sbu_0, # of connection points: 4
#     Node 9, Type 0, BuildingBlock: KUFVIS_clean_sbu_0, # of connection points: 4
#     Node 10, Type 0, BuildingBlock: KUFVIS_clean_sbu_0, # of connection points: 4
#     Node 11, Type 0, BuildingBlock: KUFVIS_clean_sbu_0, # of connection points: 4
#     Node 12, Type 0, BuildingBlock: KUFVIS_clean_sbu_0, # of connection points: 4
#     Node 13, Type 0, BuildingBlock: KUFVIS_clean_sbu_0, # of connection points: 4
#     Node 14, Type 0, BuildingBlock: KUFVIS_clean_sbu_0, # of connection points: 4
#     Node 15, Type 0, BuildingBlock: KUFVIS_clean_sbu_0, # of connection points: 4
#     Edge 16, Type (0, 0), None
#     Edge 17, Type (0, 0), None
#     Edge 18, Type (0, 0), None
#     Edge 19, Type (0, 0), None
#     Edge 20, Type (0, 0), None
#     Edge 21, Type (0, 0), None
#     Edge 22, Type (0, 0), None
#     Edge 23, Type (0, 0), None
#     Edge 24, Type (0, 0), None
#     Edge 25, Type (0, 0), None
#     Edge 26, Type (0, 0), None
#     Edge 27, Type (0, 0), None
#     Edge 28, Type (0, 0), None
#     Edge 29, Type (0, 0), None
#     Edge 30, Type (0, 0), None
#     Edge 31, Type (0, 0), None
#     Edge 32, Type (0, 0), None
#     Edge 33, Type (0, 0), None
#     Edge 34, Type (0, 0), None
#     Edge 35, Type (0, 0), None
#     Edge 36, Type (0, 0), None
#     Edge 37, Type (0, 0), None
#     Edge 38, Type (0, 0), None
#     Edge 39, Type (0, 0), None
#     Edge 40, Type (0, 0), None
#     Edge 41, Type (0, 0), None
#     Edge 42, Type (0, 0), None
#     Edge 43, Type (0, 0), None
#     Edge 44, Type (0, 0), None
#     Edge 45, Type (0, 0), None
#     Edge 46, Type (0, 0), None
#     Edge 47, Type (0, 0), None
# Relax obj value: 0.045
# Max RMSD: 0.079
# Mean RMSD: 0.079
data_MOF--net-uou--node1-KUFVIS_clean_sbu_0--edge1-none
_symmetry_space_group_name_H-M    P1
_symmetry_Int_Tables_number       1
_symmetry_cell_setting            triclinic
loop_
_symmetry_equiv_pos_as_xyz
'x, y, z'
_cell_length_a     17.499345
_cell_length_b     20.519256
_cell_length_c     18.313299
_cell_angle_alpha  90.000677
_cell_angle_beta   89.999982
_cell_angle_gamma 88.846156
loop_
_atom_site_label
_atom_site_type_symbol
_atom_site_fract_x
_atom_site_fract_y
_atom_site_fract_z
_atom_type_partial_charge
Mn0 Mn 0.04829 0.11566 0.22905 0.0
Mn1 Mn 0.04636 0.95506 0.24898 0.0
C2 C 1.0036 0.07537 0.33784 0.0
C3 C 0.98649 0.21959 0.20389 0.0
C4 C 0.18707 0.02078 0.23578 0.0
O5 O 0.0366 0.07795 0.12311 0.0
O6 O 0.99456 -0.02059 0.15969 0.0
C7 C 0.07385 0.85421 0.14064 0.0
N8 N 0.07961 0.87301 0.2114 0.0
C9 C 0.18339 0.79708 0.23041 0.0
C10 C 0.18141 0.77967 0.15682 0.0
C11 C 0.12819 0.81058 1.11127 0.0
C12 C 0.13331 0.84626 0.25504 0.0
H13 H 0.0345 0.87879 1.10466 0.0
C14 C 1.00022 0.02463 1.11181 0.0
O15 O 0.05966 0.20945 0.20053 0.0
O16 O 0.94772 0.1676 0.21502 0.0
N17 N 0.1025 0.9302 0.33617 0.0
C18 C 0.11013 0.95984 0.4023 0.0
C19 C 0.15415 0.92979 0.45702 0.0
C20 C 0.19943 0.87498 0.44143 0.0
C21 C 0.19509 0.84751 0.37216 0.0
C22 C 0.14304 0.87465 0.32213 0.0
H23 H 0.08209 0.00473 0.41567 0.0
O24 O 0.03398 0.13242 0.33556 0.0
O25 O 0.01002 0.04131 0.27957 0.0
O26 O 0.16283 0.0795 0.24805 0.0
O27 O 0.14231 -0.01756 0.20517 0.0
C28 C 0.23863 0.79265 0.35157 0.0
C29 C 0.23755 0.77141 0.27869 0.0
H30 H 0.22269 0.74517 0.13417 0.0
H31 H 0.1319 0.804 1.05285 0.0
H32 H 0.15011 0.94708 0.51217 0.0
H33 H 0.23504 0.85315 0.48359 0.0
H34 H 0.27695 0.76972 0.39054 0.0
H35 H 0.27949 0.7365 0.25908 0.0
Mn36 Mn 0.39185 0.88634 0.26248 0.0
Mn37 Mn 0.40337 0.02777 0.35126 0.0
C38 C 0.41942 0.8876 0.3827 0.0
C39 C 0.45235 0.78702 0.21499 0.0
C40 C 0.2649 -0.00592 0.2603 0.0
O41 O 0.42827 0.95137 0.1898 0.0
O42 O 0.46276 0.04175 0.25647 0.0
C43 C 0.4317 0.1517 0.40744 0.0
N44 N 0.37972 0.11622 0.3711 0.0
C45 C 0.27744 0.18073 0.42298 0.0
C46 C 0.33067 0.22739 0.44278 0.0
C47 C 0.40699 0.20689 0.44697 0.0
C48 C 0.30772 0.12027 0.39901 0.0
H49 H 0.48883 0.13208 0.41398 0.0
C50 C 0.46105 0.00706 0.19645 0.0
O51 O 0.38271 0.80424 0.19886 0.0
O52 O 0.48809 0.82945 0.25272 0.0
N53 N 0.3398 0.01512 0.4355 0.0
C54 C 0.3507 -0.02427 0.49476 0.0
C55 C 0.30047 -0.02082 0.55376 0.0
C56 C 0.24262 0.02688 0.55483 0.0
C57 C 0.23623 0.07086 0.49676 0.0
C58 C 0.28837 0.06522 0.4388 0.0
H59 H 0.39989 0.94487 0.50051 0.0
O60 O 0.37773 0.8419 0.35696 0.0
O61 O 0.42894 0.9364 0.34014 0.0
O62 O 0.28226 0.93268 0.25752 0.0
O63 O 0.31077 0.0338 0.28803 0.0
C64 C 0.18898 0.12635 0.50065 0.0
C65 C 0.20775 0.18171 0.46003 0.0
H66 H 0.31292 0.27064 0.47267 0.0
H67 H 0.44324 0.22902 0.48668 0.0
H68 H 0.30779 0.94589 0.59886 0.0
H69 H 0.20493 0.03021 0.60148 0.0
H70 H 0.14668 0.12981 0.54282 0.0
H71 H 0.18006 0.22793 0.47171 0.0
Mn72 Mn 0.58841 0.82036 0.50086 0.0
Mn73 Mn 0.57533 -0.01943 0.44334 0.0
C74 C 0.48187 0.86621 0.43056 0.0
C75 C 0.51861 0.72365 0.55377 0.0
C76 C 0.72457 0.91692 0.49557 0.0
O77 O 0.55481 0.87409 0.5879 0.0
O78 O 0.53785 -0.0244 0.5424 0.0
C79 C 0.62389 0.09445 0.52556 0.0
N80 N 0.61167 0.06684 0.45879 0.0
C81 C 0.71729 0.12512 0.4078 0.0
C82 C 0.73383 0.15035 0.47684 0.0
C83 C 0.68552 0.13648 0.53545 0.0
C84 C 0.65601 0.08267 0.40119 0.0
H85 H 0.59056 0.08064 0.57247 0.0
C86 C 0.53335 0.93336 0.59284 0.0
O87 O 0.58904 0.73669 0.56782 0.0
O88 O 0.48825 0.76627 0.51049 0.0
N89 N 0.6109 -0.01049 0.34569 0.0
C90 C 0.61064 0.9455 0.29033 0.0
C91 C 0.64374 0.96212 0.22326 0.0
C92 C 0.6791 0.02186 0.2147 0.0
C93 C 0.68946 0.06069 0.27579 0.0
C94 C 0.64917 0.04557 0.33922 0.0
H95 H 0.58729 0.89804 0.29822 0.0
O96 O 0.47611 0.81361 0.46839 0.0
O97 O 0.54917 0.88972 0.43057 0.0
O98 O 0.7031 0.85776 0.50952 0.0
O99 O 0.67837 0.95978 0.47297 0.0
C100 C 0.74531 0.10835 0.27874 0.0
C101 C 0.76238 0.13715 0.34608 0.0
H102 H 0.78182 0.18205 0.48502 0.0
H103 H 0.69708 0.15756 0.58811 0.0
H104 H 0.6468 0.92851 0.17914 0.0
H105 H 0.7054 0.03396 0.16307 0.0
H106 H 0.78022 0.11866 0.23141 0.0
H107 H 0.81071 0.1687 0.34947 0.0
Mn108 Mn 0.9155 0.06215 0.5113 0.0
Mn109 Mn 0.9605 0.92261 0.42389 0.0
C110 C 0.94339 0.06366 0.39066 0.0
C111 C 0.98432 0.15703 0.55859 0.0
C112 C 0.80558 0.94185 0.49494 0.0
O113 O 0.94902 0.00314 0.59016 0.0
O114 O 1.00702 0.9244 0.5224 0.0
C115 C 0.04464 0.80229 0.44929 0.0
N116 N 0.98895 0.83404 0.41096 0.0
C117 C 1.00024 0.75658 0.31255 0.0
C118 C 0.06009 0.72519 0.34955 0.0
C119 C 0.08039 0.74735 0.41915 0.0
C120 C 0.96907 0.81351 0.34362 0.0
H121 H 0.06348 0.81964 0.50174 0.0
C122 C 0.99397 0.95435 0.58244 0.0
O123 O 0.91365 0.14609 0.57559 0.0
O124 O 0.01441 0.11151 0.52048 0.0
N125 N 0.9114 0.91522 0.32978 0.0
C126 C 0.86646 0.95863 0.29216 0.0
C127 C 0.83996 0.94235 0.22243 0.0
C128 C 0.85139 0.87945 0.19509 0.0
C129 C 0.89541 0.83467 0.23509 0.0
C130 C 0.92401 0.85464 0.30281 0.0
H131 H 0.85083 0.00541 0.31419 0.0
O132 O 0.90532 0.11219 0.41778 0.0
O133 O 0.94315 0.01288 0.4303 0.0
O134 O 0.8148 0.00491 0.50475 0.0
O135 O 0.85911 0.90345 0.47048 0.0
C136 C 0.91524 0.77198 0.20914 0.0
C137 C 0.9712 0.73439 0.24574 0.0
H138 H 0.08876 0.68321 0.32576 0.0
H139 H 0.1251 0.72471 0.44925 0.0
H140 H 0.81316 -0.02137 0.18837 0.0
H141 H 0.82803 0.86727 0.14239 0.0
H142 H 0.89003 0.75293 0.16013 0.0
H143 H 0.99107 0.68856 0.22247 0.0
Mn144 Mn 0.89185 0.88634 0.97717 0.0
Mn145 Mn 0.90337 0.02777 0.88839 0.0
C146 C 0.91941 0.8876 0.85694 0.0
C147 C 0.95235 0.78702 1.02466 0.0
C148 C 0.7649 -0.00592 0.97935 0.0
O149 O 0.92826 0.95137 1.04985 0.0
O150 O 0.96276 0.04175 0.98319 0.0
C151 C 0.93169 0.1517 0.83222 0.0
N152 N 0.87971 0.11622 0.86856 0.0
C153 C 0.77743 0.18073 0.81669 0.0
C154 C 0.83066 0.22739 0.7969 0.0
C155 C 0.90698 0.20689 0.7927 0.0
C156 C 0.80771 0.12027 0.84066 0.0
H157 H 0.98883 0.13209 0.82568 0.0
C158 C 0.96104 0.00706 1.04321 0.0
O159 O 0.88271 0.80424 1.04079 0.0
O160 O 0.98809 0.82945 0.98692 0.0
N161 N 0.8398 0.01512 0.80415 0.0
C162 C 0.8507 -0.02426 0.74489 0.0
C163 C 0.80046 -0.02081 0.6859 0.0
C164 C 0.74262 0.02688 0.68483 0.0
C165 C 0.73622 0.07086 0.7429 0.0
C166 C 0.78836 0.06522 0.80086 0.0
H167 H 0.89989 0.94488 0.73914 0.0
O168 O 0.87773 0.8419 0.88268 0.0
O169 O 0.92894 0.9364 0.89951 0.0
O170 O 0.78226 0.93268 0.98213 0.0
O171 O 0.81077 0.0338 0.95163 0.0
C172 C 0.68897 0.12635 0.73902 0.0
C173 C 0.70774 0.18171 0.77964 0.0
H174 H 0.81291 0.27065 0.76701 0.0
H175 H 0.94322 0.22903 0.75299 0.0
H176 H 0.80779 0.94589 0.6408 0.0
H177 H 0.70492 0.03021 0.63819 0.0
H178 H 0.64668 0.12981 0.69685 0.0
H179 H 0.68005 0.22792 0.76796 0.0
Mn180 Mn 0.54829 0.11566 1.0106 0.0
Mn181 Mn 0.54637 0.95506 0.99067 0.0
C182 C 0.50362 0.07537 0.90181 0.0
C183 C 0.48649 0.2196 1.03576 0.0
C184 C 0.68706 0.02078 1.00387 0.0
O185 O 0.5366 0.07795 1.11654 0.0
O186 O 0.49456 -0.02059 1.07996 0.0
C187 C 0.57385 0.85421 1.09902 0.0
N188 N 0.57961 0.87301 1.02826 0.0
C189 C 0.68339 0.79708 1.00925 0.0
C190 C 0.68141 0.77967 1.08284 0.0
C191 C 0.62818 0.81058 0.12839 0.0
C192 C 0.63331 0.84626 0.98462 0.0
H193 H 0.5345 0.8788 0.135 0.0
C194 C 0.50022 0.02464 0.12784 0.0
O195 O 0.55966 0.20945 1.03912 0.0
O196 O 0.44772 0.1676 1.02463 0.0
N197 N 0.6025 0.9302 0.90349 0.0
C198 C 0.61014 0.95983 0.83736 0.0
C199 C 0.65416 0.92977 0.78264 0.0
C200 C 0.69944 0.87497 0.79823 0.0
C201 C 0.69509 0.8475 0.8675 0.0
C202 C 0.64304 0.87465 0.91753 0.0
H203 H 0.5821 0.00472 0.82398 0.0
O204 O 0.53399 0.13242 0.9041 0.0
O205 O 0.51002 0.04131 0.96008 0.0
O206 O 0.66284 0.0795 0.99161 0.0
O207 O 0.64231 -0.01756 1.03448 0.0
C208 C 0.73863 0.79264 0.88809 0.0
C209 C 0.73755 0.7714 0.96098 0.0
H210 H 0.72269 0.74517 1.1055 0.0
H211 H 0.63189 0.80401 0.18681 0.0
H212 H 0.65011 0.94706 0.72749 0.0
H213 H 0.73505 0.85314 0.75607 0.0
H214 H 0.77695 0.76971 0.84912 0.0
H215 H 0.77949 0.73649 0.98058 0.0
Mn216 Mn 0.41551 0.06216 0.72835 0.0
Mn217 Mn 0.46051 0.92261 0.81575 0.0
C218 C 0.4434 0.06366 0.84899 0.0
C219 C 0.48432 0.15704 0.68106 0.0
C220 C 0.30557 0.94186 0.74474 0.0
O221 O 0.44901 0.00314 0.64948 0.0
O222 O 0.50703 0.9244 0.71724 0.0
C223 C 0.54464 0.8023 0.79034 0.0
N224 N 0.48895 0.83404 0.82867 0.0
C225 C 0.50025 0.75659 0.92709 0.0
C226 C 0.5601 0.7252 0.89009 0.0
C227 C 0.58039 0.74736 0.82048 0.0
C228 C 0.46908 0.81351 0.89602 0.0
H229 H 0.56348 0.81964 0.7379 0.0
C230 C 0.49396 0.95435 0.6572 0.0
O231 O 0.41365 0.14609 0.66406 0.0
O232 O 0.51441 0.11151 0.71916 0.0
N233 N 0.41141 0.91522 0.90986 0.0
C234 C 0.36647 0.95863 0.94748 0.0
C235 C 0.33997 0.94236 1.01721 0.0
C236 C 0.3514 0.87946 1.04455 0.0
C237 C 0.39543 0.83468 1.00455 0.0
C238 C 0.42402 0.85465 0.93683 0.0
H239 H 0.35083 0.00542 0.92544 0.0
O240 O 0.40533 0.1122 0.82187 0.0
O241 O 0.44316 0.01289 0.80934 0.0
O242 O 0.31481 0.00491 0.73491 0.0
O243 O 0.35912 0.90346 0.76916 0.0
C244 C 0.41525 0.77199 1.03051 0.0
C245 C 0.47122 0.7344 0.9939 0.0
H246 H 0.58878 0.68322 0.91387 0.0
H247 H 0.62511 0.72471 0.79038 0.0
H248 H 0.31316 -0.02136 1.05126 0.0
H249 H 0.32805 0.86728 1.09725 0.0
H250 H 0.39005 0.75294 1.07951 0.0
H251 H 0.49108 0.68857 1.01717 0.0
Mn252 Mn 0.08841 0.82037 0.73878 0.0
Mn253 Mn 0.07532 -0.01942 0.79631 0.0
C254 C 0.98186 0.86622 0.80908 0.0
C255 C 0.01861 0.72366 0.68588 0.0
C256 C 0.22457 0.91693 0.74408 0.0
O257 O 0.05482 0.87409 0.65174 0.0
O258 O 0.03785 -0.02439 0.69724 0.0
C259 C 0.12389 0.09445 0.71409 0.0
N260 N 0.11166 0.06685 0.78086 0.0
C261 C 0.21729 0.12512 0.83186 0.0
C262 C 0.23384 0.15034 0.76282 0.0
C263 C 0.18553 0.13648 0.7042 0.0
C264 C 0.156 0.08267 0.83847 0.0
H265 H 0.09056 0.08065 0.66718 0.0
C266 C 0.03339 0.93337 0.64679 0.0
O267 O 0.08904 0.73669 0.67183 0.0
O268 O 0.98824 0.76628 0.72915 0.0
N269 N 0.11088 -0.01048 0.89395 0.0
C270 C 0.11063 0.9455 0.94931 0.0
C271 C 0.14373 0.96211 1.01638 0.0
C272 C 0.1791 0.02186 1.02495 0.0
C273 C 0.18945 0.06069 0.96386 0.0
C274 C 0.14916 0.04557 0.90044 0.0
H275 H 0.08727 0.89804 0.94141 0.0
O276 O 0.97611 0.81362 0.77125 0.0
O277 O 0.04916 0.88973 0.80907 0.0
O278 O 0.2031 0.85776 0.73013 0.0
O279 O 0.17836 0.95978 0.76668 0.0
C280 C 0.24531 0.10834 0.96091 0.0
C281 C 0.26238 0.13714 0.89358 0.0
H282 H 0.28183 0.18204 0.75464 0.0
H283 H 0.19709 0.15756 0.65154 0.0
H284 H 0.14679 0.9285 1.0605 0.0
H285 H 0.20539 0.03394 1.07658 0.0
H286 H 0.28022 0.11865 1.00824 0.0
H287 H 0.31072 0.16869 0.89019 0.0
Mn288 Mn 0.54829 0.61566 0.22904 0.0
Mn289 Mn 0.54637 0.45506 0.24896 0.0
C290 C 0.50361 0.57537 0.33782 0.0
C291 C 0.48652 0.71959 0.20393 0.0
C292 C 0.68707 0.52078 0.23577 0.0
O293 O 0.5366 0.57795 0.1231 0.0
O294 O 0.49457 0.47941 0.15967 0.0
C295 C 0.57385 0.3542 0.14061 0.0
N296 N 0.57961 0.37301 0.21138 0.0
C297 C 0.68339 0.29707 0.23038 0.0
C298 C 0.68141 0.27967 0.1568 0.0
C299 C 0.62819 0.31057 1.11124 0.0
C300 C 0.63331 0.34626 0.25502 0.0
H301 H 0.5345 0.37879 1.10464 0.0
C302 C 0.50022 0.52464 1.11179 0.0
O303 O 0.55968 0.70944 0.20053 0.0
O304 O 0.44772 0.66761 0.21501 0.0
N305 N 0.6025 0.4302 0.33615 0.0
C306 C 0.61014 0.45984 0.40228 0.0
C307 C 0.65415 0.42978 0.457 0.0
C308 C 0.69943 0.37498 0.44141 0.0
C309 C 0.69509 0.3475 0.37214 0.0
C310 C 0.64304 0.37465 0.32211 0.0
H311 H 0.5821 0.50472 0.41565 0.0
O312 O 0.53398 0.63241 0.33555 0.0
O313 O 0.51002 0.54131 0.27955 0.0
O314 O 0.66283 0.5795 0.24804 0.0
O315 O 0.64232 0.48244 0.20516 0.0
C316 C 0.73863 0.29264 0.35155 0.0
C317 C 0.73755 0.2714 0.27866 0.0
H318 H 0.72269 0.24517 0.13414 0.0
H319 H 0.6319 0.304 1.05283 0.0
H320 H 0.65011 0.44707 0.51215 0.0
H321 H 0.73505 0.35314 0.48357 0.0
H322 H 0.77695 0.26971 0.39052 0.0
H323 H 0.77948 0.23649 0.25906 0.0
Mn324 Mn 0.89185 0.38634 0.26249 0.0
Mn325 Mn 0.90336 0.52777 0.35127 0.0
C326 C 0.91942 0.3876 0.38272 0.0
C327 C 0.95233 0.28701 0.21503 0.0
C328 C 0.7649 0.49409 0.26031 0.0
O329 O 0.92827 0.45137 0.18981 0.0
O330 O 0.96276 0.54176 0.25648 0.0
C331 C 0.9317 0.65171 0.40745 0.0
N332 N 0.87971 0.61622 0.37111 0.0
C333 C 0.77743 0.68073 0.423 0.0
C334 C 0.83066 0.72739 0.44279 0.0
C335 C 0.90699 0.70689 0.44698 0.0
C336 C 0.80771 0.62027 0.39903 0.0
H337 H 0.98883 0.63209 0.41398 0.0
C338 C 0.96105 0.50706 0.19646 0.0
O339 O 0.88269 0.30425 0.19886 0.0
O340 O 0.98809 0.32944 0.25274 0.0
N341 N 0.8398 0.51512 0.43552 0.0
C342 C 0.8507 0.47573 0.49477 0.0
C343 C 0.80046 0.47918 0.55377 0.0
C344 C 0.74262 0.52687 0.55484 0.0
C345 C 0.73622 0.57085 0.49678 0.0
C346 C 0.78836 0.56522 0.43882 0.0
H347 H 0.89989 0.44487 0.50052 0.0
O348 O 0.87772 0.34191 0.35698 0.0
O349 O 0.92894 0.43641 0.34015 0.0
O350 O 0.78226 0.43268 0.25752 0.0
O351 O 0.81077 0.5338 0.28804 0.0
C352 C 0.68897 0.62634 0.50067 0.0
C353 C 0.70775 0.6817 0.46005 0.0
H354 H 0.81291 0.77064 0.47269 0.0
H355 H 0.94323 0.72903 0.48668 0.0
H356 H 0.80779 0.44588 0.59887 0.0
H357 H 0.70493 0.5302 0.60149 0.0
H358 H 0.64667 0.6298 0.54283 0.0
H359 H 0.68006 0.72792 0.47174 0.0
Mn360 Mn 0.08843 0.32036 0.50086 0.0
Mn361 Mn 0.07533 0.48058 0.44334 0.0
C362 C 0.98187 0.36622 0.43056 0.0
C363 C 0.01871 0.22363 0.55368 0.0
C364 C 0.22458 0.41693 0.49557 0.0
O365 O 0.05481 0.37408 0.5879 0.0
O366 O 0.03786 0.4756 0.54241 0.0
C367 C 0.12388 0.59446 0.52557 0.0
N368 N 0.11167 0.56685 0.45879 0.0
C369 C 0.21728 0.62513 0.4078 0.0
C370 C 0.23383 0.65035 0.47684 0.0
C371 C 0.18552 0.63649 0.53545 0.0
C372 C 0.15601 0.58267 0.40119 0.0
H373 H 0.09055 0.58065 0.57247 0.0
C374 C 0.03336 0.43336 0.59284 0.0
O375 O 0.0891 0.2367 0.56783 0.0
O376 O 0.98827 0.26624 0.51045 0.0
N377 N 0.11089 0.48952 0.3457 0.0
C378 C 0.11064 0.4455 0.29033 0.0
C379 C 0.14375 0.46213 0.22326 0.0
C380 C 0.1791 0.52187 0.2147 0.0
C381 C 0.18946 0.5607 0.27579 0.0
C382 C 0.14917 0.54558 0.33922 0.0
H383 H 0.08728 0.39804 0.29822 0.0
O384 O 0.97613 0.31361 0.46839 0.0
O385 O 0.04917 0.38972 0.43058 0.0
O386 O 0.20311 0.35777 0.50954 0.0
O387 O 0.17838 0.45979 0.47296 0.0
C388 C 0.24531 0.60835 0.27875 0.0
C389 C 0.26237 0.63716 0.34608 0.0
H390 H 0.28182 0.68205 0.48503 0.0
H391 H 0.19707 0.65757 0.58812 0.0
H392 H 0.1468 0.42852 0.17914 0.0
H393 H 0.2054 0.53396 0.16308 0.0
H394 H 0.28022 0.61867 0.23142 0.0
H395 H 0.31071 0.66871 0.34948 0.0
Mn396 Mn 0.41552 0.56216 0.51129 0.0
Mn397 Mn 0.46051 0.42261 0.42389 0.0
C398 C 0.44339 0.56365 0.39064 0.0
C399 C 0.48423 0.65705 0.55852 0.0
C400 C 0.30559 0.44186 0.49494 0.0
O401 O 0.44905 0.50315 0.59015 0.0
O402 O 0.50703 0.42439 0.52239 0.0
C403 C 0.54464 0.30229 0.44928 0.0
N404 N 0.48895 0.33403 0.41096 0.0
C405 C 0.50024 0.25658 0.31254 0.0
C406 C 0.56009 0.22519 0.34954 0.0
C407 C 0.58039 0.24735 0.41914 0.0
C408 C 0.46908 0.3135 0.34361 0.0
H409 H 0.56349 0.31964 0.50173 0.0
C410 C 0.49399 0.45435 0.58243 0.0
O411 O 0.41358 0.64607 0.57559 0.0
O412 O 0.51441 0.61154 0.52044 0.0
N413 N 0.4114 0.41521 0.32977 0.0
C414 C 0.36646 0.45862 0.29216 0.0
C415 C 0.33996 0.44235 0.22243 0.0
C416 C 0.35139 0.37945 0.19509 0.0
C417 C 0.39542 0.33467 0.23509 0.0
C418 C 0.42402 0.35464 0.3028 0.0
H419 H 0.35082 0.50541 0.3142 0.0
O420 O 0.40532 0.61218 0.41776 0.0
O421 O 0.44317 0.51288 0.4303 0.0
O422 O 0.31482 0.50491 0.50476 0.0
O423 O 0.35911 0.40346 0.47047 0.0
C424 C 0.41524 0.27198 0.20913 0.0
C425 C 0.4712 0.23439 0.24573 0.0
H426 H 0.58877 0.18321 0.32575 0.0
H427 H 0.62511 0.2247 0.44924 0.0
H428 H 0.31315 0.47863 0.18838 0.0
H429 H 0.32803 0.36727 0.14239 0.0
H430 H 0.39003 0.25293 0.16012 0.0
H431 H 0.49107 0.18856 0.22246 0.0
Mn432 Mn 0.39185 0.38634 0.97715 0.0
Mn433 Mn 0.40336 0.52777 0.88838 0.0
C434 C 0.41941 0.38761 0.85693 0.0
C435 C 0.45233 0.28701 1.02462 0.0
C436 C 0.2649 0.49409 0.97935 0.0
O437 O 0.42827 0.45137 1.04984 0.0
O438 O 0.46276 0.54176 0.98317 0.0
C439 C 0.43169 0.65171 0.83221 0.0
N440 N 0.3797 0.61622 0.86855 0.0
C441 C 0.27742 0.68073 0.81667 0.0
C442 C 0.33065 0.72739 0.79688 0.0
C443 C 0.40697 0.7069 0.79269 0.0
C444 C 0.3077 0.62027 0.84064 0.0
H445 H 0.48882 0.6321 0.82568 0.0
C446 C 0.46105 0.50707 1.04319 0.0
O447 O 0.38269 0.30425 1.04078 0.0
O448 O 0.48809 0.32944 0.9869 0.0
N449 N 0.3398 0.51512 0.80414 0.0
C450 C 0.3507 0.47574 0.74488 0.0
C451 C 0.30046 0.47918 0.68589 0.0
C452 C 0.24261 0.52687 0.68482 0.0
C453 C 0.23621 0.57085 0.74288 0.0
C454 C 0.28836 0.56522 0.80085 0.0
H455 H 0.39989 0.44488 0.73913 0.0
O456 O 0.37772 0.34191 0.88267 0.0
O457 O 0.42894 0.43641 0.89949 0.0
O458 O 0.28226 0.43268 0.98213 0.0
O459 O 0.31077 0.5338 0.95162 0.0
C460 C 0.18896 0.62634 0.739 0.0
C461 C 0.20774 0.6817 0.77961 0.0
H462 H 0.3129 0.77065 0.76699 0.0
H463 H 0.44321 0.72904 0.75298 0.0
H464 H 0.30779 0.44588 0.64079 0.0
H465 H 0.20492 0.5302 0.63817 0.0
H466 H 0.14667 0.6298 0.69683 0.0
H467 H 0.18005 0.72792 0.76793 0.0
Mn468 Mn 0.04829 0.61566 1.01061 0.0
Mn469 Mn 0.04637 0.45506 0.99069 0.0
C470 C 1.00362 0.57537 0.90183 0.0
C471 C 0.98652 0.71959 1.03572 0.0
C472 C 0.18707 0.52078 1.00388 0.0
O473 O 0.0366 0.57795 1.11656 0.0
O474 O 0.99457 0.47941 1.07998 0.0
C475 C 0.07385 0.35421 1.09904 0.0
N476 N 0.07961 0.37301 1.02828 0.0
C477 C 0.18339 0.29707 1.00928 0.0
C478 C 0.1814 0.27967 1.08286 0.0
C479 C 0.12818 0.31058 0.12841 0.0
C480 C 0.13331 0.34625 0.98464 0.0
H481 H 0.0345 0.37879 0.13502 0.0
C482 C 1.00022 0.52464 0.12786 0.0
O483 O 0.05968 0.70944 1.03913 0.0
O484 O 0.94772 0.66761 1.02464 0.0
N485 N 0.1025 0.43019 0.9035 0.0
C486 C 0.11014 0.45983 0.83737 0.0
C487 C 0.15416 0.42977 0.78266 0.0
C488 C 0.19944 0.37496 0.79825 0.0
C489 C 0.19509 0.34749 0.86752 0.0
C490 C 0.14304 0.37464 0.91755 0.0
H491 H 0.08211 0.50471 0.824 0.0
O492 O 0.03399 0.63241 0.90411 0.0
O493 O 0.01002 0.54131 0.9601 0.0
O494 O 0.16284 0.5795 0.99162 0.0
O495 O 0.14232 0.48244 1.03449 0.0
C496 C 0.23863 0.29263 0.88811 0.0
C497 C 0.23755 0.27139 0.961 0.0
H498 H 0.22268 0.24517 1.10552 0.0
H499 H 0.13189 0.304 0.18683 0.0
H500 H 0.15012 0.44705 0.72751 0.0
H501 H 0.23505 0.35313 0.75609 0.0
H502 H 0.27695 0.2697 0.84915 0.0
H503 H 0.27948 0.23648 0.9806 0.0
Mn504 Mn 0.91553 0.56216 0.72836 0.0
Mn505 Mn 0.96052 0.42261 0.81575 0.0
C506 C 0.9434 0.56365 0.84901 0.0
C507 C 0.98423 0.65705 0.68113 0.0
C508 C 0.80558 0.44187 0.74474 0.0
O509 O 0.94905 0.50316 0.6495 0.0
O510 O 1.00703 0.4244 0.71725 0.0
C511 C 0.04465 0.30229 0.79035 0.0
N512 N 0.98896 0.33404 0.82868 0.0
C513 C 1.00025 0.25659 0.92709 0.0
C514 C 0.0601 0.22519 0.8901 0.0
C515 C 0.0804 0.24735 0.82049 0.0
C516 C 0.96909 0.31351 0.89603 0.0
H517 H 0.06349 0.31964 0.7379 0.0
C518 C 0.99398 0.45435 0.65721 0.0
O519 O 0.91358 0.64607 0.66406 0.0
O520 O 0.01441 0.61154 0.7192 0.0
N521 N 0.91141 0.41522 0.90987 0.0
C522 C 0.86647 0.45863 0.94748 0.0
C523 C 0.83997 0.44235 1.01721 0.0
C524 C 0.8514 0.37946 1.04455 0.0
C525 C 0.89543 0.33468 1.00455 0.0
C526 C 0.92403 0.35465 0.93684 0.0
H527 H 0.85082 0.50541 0.92544 0.0
O528 O 0.90533 0.61219 0.82189 0.0
O529 O 0.94318 0.51289 0.80935 0.0
O530 O 0.81482 0.50492 0.73491 0.0
O531 O 0.85912 0.40346 0.76917 0.0
C532 C 0.91526 0.27199 1.03051 0.0
C533 C 0.97122 0.2344 0.9939 0.0
H534 H 0.08878 0.18322 0.91388 0.0
H535 H 0.12511 0.22471 0.79039 0.0
H536 H 0.81315 0.47864 1.05126 0.0
H537 H 0.82805 0.36728 1.09725 0.0
H538 H 0.89005 0.25294 1.07952 0.0
H539 H 0.99108 0.18857 1.01718 0.0
Mn540 Mn 0.58842 0.32037 0.73878 0.0
Mn541 Mn 0.57532 0.48058 0.7963 0.0
C542 C 0.48187 0.36622 0.80908 0.0
C543 C 0.51871 0.22363 0.68596 0.0
C544 C 0.72458 0.41694 0.74408 0.0
O545 O 0.55481 0.37409 0.65174 0.0
O546 O 0.53787 0.4756 0.69723 0.0
C547 C 0.62389 0.59446 0.71408 0.0
N548 N 0.61166 0.56685 0.78086 0.0
C549 C 0.71728 0.62512 0.83185 0.0
C550 C 0.73383 0.65035 0.76281 0.0
C551 C 0.68553 0.63649 0.7042 0.0
C552 C 0.656 0.58268 0.83846 0.0
H553 H 0.59055 0.58066 0.66718 0.0
C554 C 0.5334 0.43337 0.64679 0.0
O555 O 0.58911 0.2367 0.67182 0.0
O556 O 0.48827 0.26625 0.72919 0.0
N557 N 0.61088 0.48952 0.89395 0.0
C558 C 0.61063 0.4455 0.94931 0.0
C559 C 0.64373 0.46212 1.01638 0.0
C560 C 0.6791 0.52187 1.02495 0.0
C561 C 0.68945 0.5607 0.96386 0.0
C562 C 0.64916 0.54558 0.90043 0.0
H563 H 0.58727 0.39804 0.94142 0.0
O564 O 0.47612 0.31362 0.77125 0.0
O565 O 0.54917 0.38973 0.80907 0.0
O566 O 0.70311 0.35778 0.73012 0.0
O567 O 0.67837 0.45979 0.76669 0.0
C568 C 0.74531 0.60835 0.96091 0.0
C569 C 0.76238 0.63715 0.89358 0.0
H570 H 0.78183 0.68205 0.75464 0.0
H571 H 0.69709 0.65757 0.65154 0.0
H572 H 0.64679 0.42851 1.0605 0.0
H573 H 0.70539 0.53395 1.07657 0.0
H574 H 0.78022 0.61866 1.00824 0.0
H575 H 0.81071 0.6687 0.89019 0.0
loop_
_geom_bond_atom_site_label_1
_geom_bond_atom_site_label_2
_geom_bond_distance
_geom_bond_site_symmetry_2
_ccdc_geom_bond_type
Mn0 O5 2.095 . S
Mn0 O15 2.162 . S
Mn0 O16 2.297 1_455 S
Mn0 O24 2.385 . S
Mn0 O25 2.209 . S
Mn0 O26 2.094 . S
Mn1 O6 2.121 1_455 S
Mn1 N8 2.257 1_455 S
Mn1 N17 2.282 . S
Mn1 O25 2.215 1_565 S
Mn1 O27 2.117 . S
C2 O24 1.234 . S
C2 O25 1.283 . S
C3 O15 1.281 . S
C3 O16 1.236 1_455 S
C4 O26 1.240 . S
C4 O27 1.264 1_545 S
O5 Mn0 2.095 . S
O5 C14 1.250 1_545 S
O6 Mn1 2.121 1_655 S
O6 C14 1.258 1_655 S
C7 N8 1.326 . S
C7 C11 1.460 . S
C7 H13 0.929 . S
N8 Mn1 2.257 1_655 S
N8 C7 1.326 . S
N8 C12 1.362 . S
C9 C10 1.258 . S
C9 C12 1.431 . S
C9 C29 1.449 . S
C10 C9 1.258 . S
C10 C11 1.477 . S
C10 H30 0.931 . S
C11 C7 1.460 . S
C11 C10 1.477 . S
C11 H31 0.930 . S
C12 N8 1.362 . S
C12 C9 1.431 . S
C12 C22 1.476 1_655 S
H13 C7 0.929 . S
C14 O5 1.250 1_565 S
C14 O6 1.258 1_455 S
O15 Mn0 2.162 . S
O15 C3 1.281 . S
O16 Mn0 2.297 1_655 S
O16 C3 1.236 1_655 S
N17 Mn1 2.282 . S
N17 C18 1.328 . S
N17 C22 1.318 . S
C18 N17 1.328 . S
C18 C19 1.457 . S
C18 H23 0.929 . S
C19 C18 1.457 . S
C19 C20 1.291 . S
C19 H32 0.931 . S
C20 C19 1.291 . S
C20 C21 1.373 . S
C20 H33 0.929 . S
C21 C20 1.373 . S
C21 C22 1.396 . S
C21 C28 1.403 1_455 S
C22 C12 1.476 1_455 S
C22 N17 1.318 . S
C22 C21 1.396 . S
H23 C18 0.929 . S
O24 Mn0 2.385 . S
O24 C2 1.234 . S
O25 Mn0 2.209 . S
O25 Mn1 2.215 1_545 S
O25 C2 1.283 . S
O26 Mn0 2.094 . S
O26 C4 1.240 . S
O27 Mn1 2.117 . S
O27 C4 1.264 1_565 S
C28 C21 1.403 1_655 S
C28 C29 1.399 . S
C28 H34 0.929 . S
C29 C9 1.449 . S
C29 C28 1.399 . S
C29 H35 0.930 . S
H30 C10 0.931 . S
H31 C11 0.930 . S
H32 C19 0.931 . S
H33 C20 0.929 . S
H34 C28 0.929 . S
H35 C29 0.930 . S
Mn36 O41 2.095 . S
Mn36 O51 2.162 . S
Mn36 O52 2.297 . S
Mn36 O60 2.385 . S
Mn36 O61 2.209 . S
Mn36 O62 2.094 . S
Mn37 O42 2.121 . S
Mn37 N44 2.257 . S
Mn37 N53 2.282 . S
Mn37 O61 2.215 1_545 S
Mn37 O63 2.117 . S
C38 O60 1.234 . S
C38 O61 1.283 . S
C39 O51 1.281 . S
C39 O52 1.236 . S
C40 O62 1.240 . S
C40 O63 1.264 1_565 S
O41 Mn36 2.095 . S
O41 C50 1.250 1_565 S
O42 Mn37 2.121 . S
O42 C50 1.258 . S
C43 N44 1.326 . S
C43 C47 1.460 . S
C43 H49 0.929 . S
N44 Mn37 2.257 . S
N44 C43 1.326 . S
N44 C48 1.362 . S
C45 C46 1.258 . S
C45 C48 1.431 . S
C45 C65 1.449 . S
C46 C45 1.258 . S
C46 C47 1.477 . S
C46 H66 0.931 . S
C47 C43 1.460 . S
C47 C46 1.477 . S
C47 H67 0.930 . S
C48 N44 1.362 . S
C48 C45 1.431 . S
C48 C58 1.476 . S
H49 C43 0.929 . S
C50 O41 1.250 1_545 S
C50 O42 1.258 . S
O51 Mn36 2.162 . S
O51 C39 1.281 . S
O52 Mn36 2.297 . S
O52 C39 1.236 . S
N53 Mn37 2.282 . S
N53 C54 1.328 . S
N53 C58 1.318 . S
C54 N53 1.328 . S
C54 C55 1.457 . S
C54 H59 0.929 . S
C55 C54 1.457 . S
C55 C56 1.291 . S
C55 H68 0.931 . S
C56 C55 1.291 . S
C56 C57 1.373 . S
C56 H69 0.929 . S
C57 C56 1.373 . S
C57 C58 1.396 . S
C57 C64 1.403 . S
C58 C48 1.476 . S
C58 N53 1.318 . S
C58 C57 1.396 . S
H59 C54 0.929 . S
O60 Mn36 2.385 . S
O60 C38 1.234 . S
O61 Mn36 2.209 . S
O61 Mn37 2.215 1_565 S
O61 C38 1.283 . S
O62 Mn36 2.094 . S
O62 C40 1.240 . S
O63 Mn37 2.117 . S
O63 C40 1.264 1_545 S
C64 C57 1.403 . S
C64 C65 1.399 . S
C64 H70 0.929 . S
C65 C45 1.449 . S
C65 C64 1.399 . S
C65 H71 0.930 . S
H66 C46 0.931 . S
H67 C47 0.930 . S
H68 C55 0.931 . S
H69 C56 0.929 . S
H70 C64 0.929 . S
H71 C65 0.930 . S
Mn72 O77 2.095 . S
Mn72 O87 2.162 . S
Mn72 O88 2.297 . S
Mn72 O96 2.385 . S
Mn72 O97 2.209 . S
Mn72 O98 2.094 . S
Mn73 O78 2.121 . S
Mn73 N80 2.257 . S
Mn73 N89 2.282 . S
Mn73 O97 2.215 1_545 S
Mn73 O99 2.117 . S
C74 O96 1.234 . S
C74 O97 1.283 . S
C75 O87 1.281 . S
C75 O88 1.236 . S
C76 O98 1.240 . S
C76 O99 1.264 1_565 S
O77 Mn72 2.095 . S
O77 C86 1.250 1_565 S
O78 Mn73 2.121 . S
O78 C86 1.258 . S
C79 N80 1.326 . S
C79 C83 1.460 . S
C79 H85 0.929 . S
N80 Mn73 2.257 . S
N80 C79 1.326 . S
N80 C84 1.362 . S
C81 C82 1.258 . S
C81 C84 1.431 . S
C81 C101 1.449 . S
C82 C81 1.258 . S
C82 C83 1.477 . S
C82 H102 0.931 . S
C83 C79 1.460 . S
C83 C82 1.477 . S
C83 H103 0.930 . S
C84 N80 1.362 . S
C84 C81 1.431 . S
C84 C94 1.476 . S
H85 C79 0.929 . S
C86 O77 1.250 1_545 S
C86 O78 1.258 . S
O87 Mn72 2.162 . S
O87 C75 1.281 . S
O88 Mn72 2.297 . S
O88 C75 1.236 . S
N89 Mn73 2.282 . S
N89 C90 1.328 . S
N89 C94 1.318 . S
C90 N89 1.328 . S
C90 C91 1.457 . S
C90 H95 0.929 . S
C91 C90 1.457 . S
C91 C92 1.291 . S
C91 H104 0.931 . S
C92 C91 1.291 . S
C92 C93 1.373 . S
C92 H105 0.929 . S
C93 C92 1.373 . S
C93 C94 1.396 . S
C93 C100 1.403 . S
C94 C84 1.476 . S
C94 N89 1.318 . S
C94 C93 1.396 . S
H95 C90 0.929 . S
O96 Mn72 2.385 . S
O96 C74 1.234 . S
O97 Mn72 2.209 . S
O97 Mn73 2.215 1_565 S
O97 C74 1.283 . S
O98 Mn72 2.094 . S
O98 C76 1.240 . S
O99 Mn73 2.117 . S
O99 C76 1.264 1_545 S
C100 C93 1.403 . S
C100 C101 1.399 . S
C100 H106 0.929 . S
C101 C81 1.449 . S
C101 C100 1.399 . S
C101 H107 0.930 . S
H102 C82 0.931 . S
H103 C83 0.930 . S
H104 C91 0.931 . S
H105 C92 0.929 . S
H106 C100 0.929 . S
H107 C101 0.930 . S
Mn108 O113 2.095 . S
Mn108 O123 2.162 . S
Mn108 O124 2.297 1_655 S
Mn108 O132 2.385 . S
Mn108 O133 2.209 . S
Mn108 O134 2.094 . S
Mn109 O114 2.121 1_655 S
Mn109 N116 2.257 1_655 S
Mn109 N125 2.282 . S
Mn109 O133 2.215 1_565 S
Mn109 O135 2.117 . S
C110 O132 1.234 . S
C110 O133 1.283 . S
C111 O123 1.281 . S
C111 O124 1.236 1_655 S
C112 O134 1.240 . S
C112 O135 1.264 1_545 S
O113 Mn108 2.095 . S
O113 C122 1.250 1_545 S
O114 Mn109 2.121 1_455 S
O114 C122 1.258 1_455 S
C115 N116 1.326 . S
C115 C119 1.460 . S
C115 H121 0.929 . S
N116 Mn109 2.257 1_455 S
N116 C115 1.326 . S
N116 C120 1.362 . S
C117 C118 1.258 . S
C117 C120 1.431 . S
C117 C137 1.449 . S
C118 C117 1.258 . S
C118 C119 1.477 . S
C118 H138 0.931 . S
C119 C115 1.460 . S
C119 C118 1.477 . S
C119 H139 0.930 . S
C120 N116 1.362 . S
C120 C117 1.431 . S
C120 C130 1.476 1_455 S
H121 C115 0.929 . S
C122 O113 1.250 1_565 S
C122 O114 1.258 1_655 S
O123 Mn108 2.162 . S
O123 C111 1.281 . S
O124 Mn108 2.297 1_455 S
O124 C111 1.236 1_455 S
N125 Mn109 2.282 . S
N125 C126 1.328 . S
N125 C130 1.318 . S
C126 N125 1.328 . S
C126 C127 1.457 . S
C126 H131 0.929 . S
C127 C126 1.457 . S
C127 C128 1.291 . S
C127 H140 0.931 . S
C128 C127 1.291 . S
C128 C129 1.373 . S
C128 H141 0.929 . S
C129 C128 1.373 . S
C129 C130 1.396 . S
C129 C136 1.403 1_655 S
C130 C120 1.476 1_655 S
C130 N125 1.318 . S
C130 C129 1.396 . S
H131 C126 0.929 . S
O132 Mn108 2.385 . S
O132 C110 1.234 . S
O133 Mn108 2.209 . S
O133 Mn109 2.215 1_545 S
O133 C110 1.283 . S
O134 Mn108 2.094 . S
O134 C112 1.240 . S
O135 Mn109 2.117 . S
O135 C112 1.264 1_565 S
C136 C129 1.403 1_455 S
C136 C137 1.399 . S
C136 H142 0.929 . S
C137 C117 1.449 . S
C137 C136 1.399 . S
C137 H143 0.930 . S
H138 C118 0.931 . S
H139 C119 0.930 . S
H140 C127 0.931 . S
H141 C128 0.929 . S
H142 C136 0.929 . S
H143 C137 0.930 . S
Mn144 O149 2.095 . S
Mn144 O159 2.162 . S
Mn144 O160 2.297 1_655 S
Mn144 O168 2.385 . S
Mn144 O169 2.209 . S
Mn144 O170 2.094 . S
Mn145 O150 2.121 1_655 S
Mn145 N152 2.257 1_655 S
Mn145 N161 2.282 . S
Mn145 O169 2.215 1_545 S
Mn145 O171 2.117 . S
C146 O168 1.234 . S
C146 O169 1.283 . S
C147 O159 1.281 . S
C147 O160 1.236 1_655 S
C148 O170 1.240 . S
C148 O171 1.264 1_565 S
O149 Mn144 2.095 . S
O149 C158 1.250 1_565 S
O150 Mn145 2.121 1_455 S
O150 C158 1.258 1_455 S
C151 N152 1.326 . S
C151 C155 1.460 . S
C151 H157 0.929 . S
N152 Mn145 2.257 1_455 S
N152 C151 1.326 . S
N152 C156 1.362 . S
C153 C154 1.258 . S
C153 C156 1.431 . S
C153 C173 1.449 . S
C154 C153 1.258 . S
C154 C155 1.477 . S
C154 H174 0.931 . S
C155 C151 1.460 . S
C155 C154 1.477 . S
C155 H175 0.930 . S
C156 N152 1.362 . S
C156 C153 1.431 . S
C156 C166 1.476 1_455 S
H157 C151 0.929 . S
C158 O149 1.250 1_545 S
C158 O150 1.258 1_655 S
O159 Mn144 2.162 . S
O159 C147 1.281 . S
O160 Mn144 2.297 1_455 S
O160 C147 1.236 1_455 S
N161 Mn145 2.282 . S
N161 C162 1.328 . S
N161 C166 1.318 . S
C162 N161 1.328 . S
C162 C163 1.457 . S
C162 H167 0.929 . S
C163 C162 1.457 . S
C163 C164 1.291 . S
C163 H176 0.931 . S
C164 C163 1.291 . S
C164 C165 1.373 . S
C164 H177 0.929 . S
C165 C164 1.373 . S
C165 C166 1.396 . S
C165 C172 1.403 1_655 S
C166 C156 1.476 1_655 S
C166 N161 1.318 . S
C166 C165 1.396 . S
H167 C162 0.929 . S
O168 Mn144 2.385 . S
O168 C146 1.234 . S
O169 Mn144 2.209 . S
O169 Mn145 2.215 1_565 S
O169 C146 1.283 . S
O170 Mn144 2.094 . S
O170 C148 1.240 . S
O171 Mn145 2.117 . S
O171 C148 1.264 1_545 S
C172 C165 1.403 1_455 S
C172 C173 1.399 . S
C172 H178 0.929 . S
C173 C153 1.449 . S
C173 C172 1.399 . S
C173 H179 0.930 . S
H174 C154 0.931 . S
H175 C155 0.930 . S
H176 C163 0.931 . S
H177 C164 0.929 . S
H178 C172 0.929 . S
H179 C173 0.930 . S
Mn180 O185 2.095 . S
Mn180 O195 2.162 . S
Mn180 O196 2.297 . S
Mn180 O204 2.385 . S
Mn180 O205 2.209 . S
Mn180 O206 2.094 . S
Mn181 O186 2.121 . S
Mn181 N188 2.257 . S
Mn181 N197 2.282 . S
Mn181 O205 2.215 1_565 S
Mn181 O207 2.117 . S
C182 O204 1.234 . S
C182 O205 1.283 . S
C183 O195 1.281 . S
C183 O196 1.236 . S
C184 O206 1.240 . S
C184 O207 1.264 1_545 S
O185 Mn180 2.095 . S
O185 C194 1.250 1_545 S
O186 Mn181 2.121 . S
O186 C194 1.258 . S
C187 N188 1.326 . S
C187 C191 1.460 . S
C187 H193 0.929 . S
N188 Mn181 2.257 . S
N188 C187 1.326 . S
N188 C192 1.362 . S
C189 C190 1.258 . S
C189 C192 1.431 . S
C189 C209 1.449 . S
C190 C189 1.258 . S
C190 C191 1.477 . S
C190 H210 0.931 . S
C191 C187 1.460 . S
C191 C190 1.477 . S
C191 H211 0.930 . S
C192 N188 1.362 . S
C192 C189 1.431 . S
C192 C202 1.476 . S
H193 C187 0.929 . S
C194 O185 1.250 1_565 S
C194 O186 1.258 . S
O195 Mn180 2.162 . S
O195 C183 1.281 . S
O196 Mn180 2.297 . S
O196 C183 1.236 . S
N197 Mn181 2.282 . S
N197 C198 1.328 . S
N197 C202 1.318 . S
C198 N197 1.328 . S
C198 C199 1.457 . S
C198 H203 0.929 . S
C199 C198 1.457 . S
C199 C200 1.291 . S
C199 H212 0.931 . S
C200 C199 1.291 . S
C200 C201 1.373 . S
C200 H213 0.929 . S
C201 C200 1.373 . S
C201 C202 1.396 . S
C201 C208 1.403 . S
C202 C192 1.476 . S
C202 N197 1.318 . S
C202 C201 1.396 . S
H203 C198 0.929 . S
O204 Mn180 2.385 . S
O204 C182 1.234 . S
O205 Mn180 2.209 . S
O205 Mn181 2.215 1_545 S
O205 C182 1.283 . S
O206 Mn180 2.094 . S
O206 C184 1.240 . S
O207 Mn181 2.117 . S
O207 C184 1.264 1_565 S
C208 C201 1.403 . S
C208 C209 1.399 . S
C208 H214 0.929 . S
C209 C189 1.449 . S
C209 C208 1.399 . S
C209 H215 0.930 . S
H210 C190 0.931 . S
H211 C191 0.930 . S
H212 C199 0.931 . S
H213 C200 0.929 . S
H214 C208 0.929 . S
H215 C209 0.930 . S
Mn216 O221 2.095 . S
Mn216 O231 2.162 . S
Mn216 O232 2.297 . S
Mn216 O240 2.385 . S
Mn216 O241 2.209 . S
Mn216 O242 2.094 . S
Mn217 O222 2.121 . S
Mn217 N224 2.257 . S
Mn217 N233 2.282 . S
Mn217 O241 2.215 1_565 S
Mn217 O243 2.117 . S
C218 O240 1.234 . S
C218 O241 1.283 . S
C219 O231 1.281 . S
C219 O232 1.236 . S
C220 O242 1.240 . S
C220 O243 1.264 1_545 S
O221 Mn216 2.095 . S
O221 C230 1.250 1_545 S
O222 Mn217 2.121 . S
O222 C230 1.258 . S
C223 N224 1.326 . S
C223 C227 1.460 . S
C223 H229 0.929 . S
N224 Mn217 2.257 . S
N224 C223 1.326 . S
N224 C228 1.362 . S
C225 C226 1.258 . S
C225 C228 1.431 . S
C225 C245 1.449 . S
C226 C225 1.258 . S
C226 C227 1.477 . S
C226 H246 0.931 . S
C227 C223 1.460 . S
C227 C226 1.477 . S
C227 H247 0.930 . S
C228 N224 1.362 . S
C228 C225 1.431 . S
C228 C238 1.476 . S
H229 C223 0.929 . S
C230 O221 1.250 1_565 S
C230 O222 1.258 . S
O231 Mn216 2.162 . S
O231 C219 1.281 . S
O232 Mn216 2.297 . S
O232 C219 1.236 . S
N233 Mn217 2.282 . S
N233 C234 1.328 . S
N233 C238 1.318 . S
C234 N233 1.328 . S
C234 C235 1.457 . S
C234 H239 0.929 . S
C235 C234 1.457 . S
C235 C236 1.291 . S
C235 H248 0.931 . S
C236 C235 1.291 . S
C236 C237 1.373 . S
C236 H249 0.929 . S
C237 C236 1.373 . S
C237 C238 1.396 . S
C237 C244 1.403 . S
C238 C228 1.476 . S
C238 N233 1.318 . S
C238 C237 1.396 . S
H239 C234 0.929 . S
O240 Mn216 2.385 . S
O240 C218 1.234 . S
O241 Mn216 2.209 . S
O241 Mn217 2.215 1_545 S
O241 C218 1.283 . S
O242 Mn216 2.094 . S
O242 C220 1.240 . S
O243 Mn217 2.117 . S
O243 C220 1.264 1_565 S
C244 C237 1.403 . S
C244 C245 1.399 . S
C244 H250 0.929 . S
C245 C225 1.449 . S
C245 C244 1.399 . S
C245 H251 0.930 . S
H246 C226 0.931 . S
H247 C227 0.930 . S
H248 C235 0.931 . S
H249 C236 0.929 . S
H250 C244 0.929 . S
H251 C245 0.930 . S
Mn252 O257 2.095 . S
Mn252 O267 2.162 . S
Mn252 O268 2.297 1_455 S
Mn252 O276 2.385 . S
Mn252 O277 2.209 . S
Mn252 O278 2.094 . S
Mn253 O258 2.121 1_455 S
Mn253 N260 2.257 1_455 S
Mn253 N269 2.282 . S
Mn253 O277 2.215 1_545 S
Mn253 O279 2.117 . S
C254 O276 1.234 . S
C254 O277 1.283 . S
C255 O267 1.281 . S
C255 O268 1.236 1_455 S
C256 O278 1.240 . S
C256 O279 1.264 1_565 S
O257 Mn252 2.095 . S
O257 C266 1.250 1_565 S
O258 Mn253 2.121 1_655 S
O258 C266 1.258 1_655 S
C259 N260 1.326 . S
C259 C263 1.460 . S
C259 H265 0.929 . S
N260 Mn253 2.257 1_655 S
N260 C259 1.326 . S
N260 C264 1.362 . S
C261 C262 1.258 . S
C261 C264 1.431 . S
C261 C281 1.449 . S
C262 C261 1.258 . S
C262 C263 1.477 . S
C262 H282 0.931 . S
C263 C259 1.460 . S
C263 C262 1.477 . S
C263 H283 0.930 . S
C264 N260 1.362 . S
C264 C261 1.431 . S
C264 C274 1.476 1_655 S
H265 C259 0.929 . S
C266 O257 1.250 1_545 S
C266 O258 1.258 1_455 S
O267 Mn252 2.162 . S
O267 C255 1.281 . S
O268 Mn252 2.297 1_655 S
O268 C255 1.236 1_655 S
N269 Mn253 2.282 . S
N269 C270 1.328 . S
N269 C274 1.318 . S
C270 N269 1.328 . S
C270 C271 1.457 . S
C270 H275 0.929 . S
C271 C270 1.457 . S
C271 C272 1.291 . S
C271 H284 0.931 . S
C272 C271 1.291 . S
C272 C273 1.373 . S
C272 H285 0.929 . S
C273 C272 1.373 . S
C273 C274 1.396 . S
C273 C280 1.403 1_455 S
C274 C264 1.476 1_455 S
C274 N269 1.318 . S
C274 C273 1.396 . S
H275 C270 0.929 . S
O276 Mn252 2.385 . S
O276 C254 1.234 . S
O277 Mn252 2.209 . S
O277 Mn253 2.215 1_565 S
O277 C254 1.283 . S
O278 Mn252 2.094 . S
O278 C256 1.240 . S
O279 Mn253 2.117 . S
O279 C256 1.264 1_545 S
C280 C273 1.403 1_655 S
C280 C281 1.399 . S
C280 H286 0.929 . S
C281 C261 1.449 . S
C281 C280 1.399 . S
C281 H287 0.930 . S
H282 C262 0.931 . S
H283 C263 0.930 . S
H284 C271 0.931 . S
H285 C272 0.929 . S
H286 C280 0.929 . S
H287 C281 0.930 . S
Mn288 O293 2.095 . S
Mn288 O303 2.162 . S
Mn288 O304 2.297 . S
Mn288 O312 2.385 . S
Mn288 O313 2.209 . S
Mn288 O314 2.094 . S
Mn289 O294 2.121 . S
Mn289 N296 2.257 . S
Mn289 N305 2.282 . S
Mn289 O313 2.215 . S
Mn289 O315 2.117 . S
C290 O312 1.234 . S
C290 O313 1.283 . S
C291 O303 1.281 . S
C291 O304 1.236 . S
C292 O314 1.240 . S
C292 O315 1.264 . S
O293 Mn288 2.095 . S
O293 C302 1.250 . S
O294 Mn289 2.121 . S
O294 C302 1.258 . S
C295 N296 1.326 . S
C295 C299 1.460 . S
C295 H301 0.929 . S
N296 Mn289 2.257 . S
N296 C295 1.326 . S
N296 C300 1.362 . S
C297 C298 1.258 . S
C297 C300 1.431 . S
C297 C317 1.449 . S
C298 C297 1.258 . S
C298 C299 1.477 . S
C298 H318 0.931 . S
C299 C295 1.460 . S
C299 C298 1.477 . S
C299 H319 0.930 . S
C300 N296 1.362 . S
C300 C297 1.431 . S
C300 C310 1.476 . S
H301 C295 0.929 . S
C302 O293 1.250 . S
C302 O294 1.258 . S
O303 Mn288 2.162 . S
O303 C291 1.281 . S
O304 Mn288 2.297 . S
O304 C291 1.236 . S
N305 Mn289 2.282 . S
N305 C306 1.328 . S
N305 C310 1.318 . S
C306 N305 1.328 . S
C306 C307 1.457 . S
C306 H311 0.929 . S
C307 C306 1.457 . S
C307 C308 1.291 . S
C307 H320 0.931 . S
C308 C307 1.291 . S
C308 C309 1.373 . S
C308 H321 0.929 . S
C309 C308 1.373 . S
C309 C310 1.396 . S
C309 C316 1.403 . S
C310 C300 1.476 . S
C310 N305 1.318 . S
C310 C309 1.396 . S
H311 C306 0.929 . S
O312 Mn288 2.385 . S
O312 C290 1.234 . S
O313 Mn288 2.209 . S
O313 Mn289 2.215 . S
O313 C290 1.283 . S
O314 Mn288 2.094 . S
O314 C292 1.240 . S
O315 Mn289 2.117 . S
O315 C292 1.264 . S
C316 C309 1.403 . S
C316 C317 1.399 . S
C316 H322 0.929 . S
C317 C297 1.449 . S
C317 C316 1.399 . S
C317 H323 0.930 . S
H318 C298 0.931 . S
H319 C299 0.930 . S
H320 C307 0.931 . S
H321 C308 0.929 . S
H322 C316 0.929 . S
H323 C317 0.930 . S
Mn324 O329 2.095 . S
Mn324 O339 2.162 . S
Mn324 O340 2.297 1_655 S
Mn324 O348 2.385 . S
Mn324 O349 2.209 . S
Mn324 O350 2.094 . S
Mn325 O330 2.121 1_655 S
Mn325 N332 2.257 1_655 S
Mn325 N341 2.282 . S
Mn325 O349 2.215 . S
Mn325 O351 2.117 . S
C326 O348 1.234 . S
C326 O349 1.283 . S
C327 O339 1.281 . S
C327 O340 1.236 1_655 S
C328 O350 1.240 . S
C328 O351 1.264 . S
O329 Mn324 2.095 . S
O329 C338 1.250 . S
O330 Mn325 2.121 1_455 S
O330 C338 1.258 1_455 S
C331 N332 1.326 . S
C331 C335 1.460 . S
C331 H337 0.929 . S
N332 Mn325 2.257 1_455 S
N332 C331 1.326 . S
N332 C336 1.362 . S
C333 C334 1.258 . S
C333 C336 1.431 . S
C333 C353 1.449 . S
C334 C333 1.258 . S
C334 C335 1.477 . S
C334 H354 0.931 . S
C335 C331 1.460 . S
C335 C334 1.477 . S
C335 H355 0.930 . S
C336 N332 1.362 . S
C336 C333 1.431 . S
C336 C346 1.476 1_455 S
H337 C331 0.929 . S
C338 O329 1.250 . S
C338 O330 1.258 1_655 S
O339 Mn324 2.162 . S
O339 C327 1.281 . S
O340 Mn324 2.297 1_455 S
O340 C327 1.236 1_455 S
N341 Mn325 2.282 . S
N341 C342 1.328 . S
N341 C346 1.318 . S
C342 N341 1.328 . S
C342 C343 1.457 . S
C342 H347 0.929 . S
C343 C342 1.457 . S
C343 C344 1.291 . S
C343 H356 0.931 . S
C344 C343 1.291 . S
C344 C345 1.373 . S
C344 H357 0.929 . S
C345 C344 1.373 . S
C345 C346 1.396 . S
C345 C352 1.403 1_655 S
C346 C336 1.476 1_655 S
C346 N341 1.318 . S
C346 C345 1.396 . S
H347 C342 0.929 . S
O348 Mn324 2.385 . S
O348 C326 1.234 . S
O349 Mn324 2.209 . S
O349 Mn325 2.215 . S
O349 C326 1.283 . S
O350 Mn324 2.094 . S
O350 C328 1.240 . S
O351 Mn325 2.117 . S
O351 C328 1.264 . S
C352 C345 1.403 1_455 S
C352 C353 1.399 . S
C352 H358 0.929 . S
C353 C333 1.449 . S
C353 C352 1.399 . S
C353 H359 0.930 . S
H354 C334 0.931 . S
H355 C335 0.930 . S
H356 C343 0.931 . S
H357 C344 0.929 . S
H358 C352 0.929 . S
H359 C353 0.930 . S
Mn360 O365 2.095 . S
Mn360 O375 2.162 . S
Mn360 O376 2.297 1_455 S
Mn360 O384 2.385 . S
Mn360 O385 2.209 . S
Mn360 O386 2.094 . S
Mn361 O366 2.121 1_455 S
Mn361 N368 2.257 1_455 S
Mn361 N377 2.282 . S
Mn361 O385 2.215 . S
Mn361 O387 2.117 . S
C362 O384 1.234 . S
C362 O385 1.283 . S
C363 O375 1.281 . S
C363 O376 1.236 1_455 S
C364 O386 1.240 . S
C364 O387 1.264 . S
O365 Mn360 2.095 . S
O365 C374 1.250 . S
O366 Mn361 2.121 1_655 S
O366 C374 1.258 1_655 S
C367 N368 1.326 . S
C367 C371 1.460 . S
C367 H373 0.929 . S
N368 Mn361 2.257 1_655 S
N368 C367 1.326 . S
N368 C372 1.362 . S
C369 C370 1.258 . S
C369 C372 1.431 . S
C369 C389 1.449 . S
C370 C369 1.258 . S
C370 C371 1.477 . S
C370 H390 0.931 . S
C371 C367 1.460 . S
C371 C370 1.477 . S
C371 H391 0.930 . S
C372 N368 1.362 . S
C372 C369 1.431 . S
C372 C382 1.476 1_655 S
H373 C367 0.929 . S
C374 O365 1.250 . S
C374 O366 1.258 1_455 S
O375 Mn360 2.162 . S
O375 C363 1.281 . S
O376 Mn360 2.297 1_655 S
O376 C363 1.236 1_655 S
N377 Mn361 2.282 . S
N377 C378 1.328 . S
N377 C382 1.318 . S
C378 N377 1.328 . S
C378 C379 1.457 . S
C378 H383 0.929 . S
C379 C378 1.457 . S
C379 C380 1.291 . S
C379 H392 0.931 . S
C380 C379 1.291 . S
C380 C381 1.373 . S
C380 H393 0.929 . S
C381 C380 1.373 . S
C381 C382 1.396 . S
C381 C388 1.403 1_455 S
C382 C372 1.476 1_455 S
C382 N377 1.318 . S
C382 C381 1.396 . S
H383 C378 0.929 . S
O384 Mn360 2.385 . S
O384 C362 1.234 . S
O385 Mn360 2.209 . S
O385 Mn361 2.215 . S
O385 C362 1.283 . S
O386 Mn360 2.094 . S
O386 C364 1.240 . S
O387 Mn361 2.117 . S
O387 C364 1.264 . S
C388 C381 1.403 1_655 S
C388 C389 1.399 . S
C388 H394 0.929 . S
C389 C369 1.449 . S
C389 C388 1.399 . S
C389 H395 0.930 . S
H390 C370 0.931 . S
H391 C371 0.930 . S
H392 C379 0.931 . S
H393 C380 0.929 . S
H394 C388 0.929 . S
H395 C389 0.930 . S
Mn396 O401 2.095 . S
Mn396 O411 2.162 . S
Mn396 O412 2.297 . S
Mn396 O420 2.385 . S
Mn396 O421 2.209 . S
Mn396 O422 2.094 . S
Mn397 O402 2.121 . S
Mn397 N404 2.257 . S
Mn397 N413 2.282 . S
Mn397 O421 2.215 . S
Mn397 O423 2.117 . S
C398 O420 1.234 . S
C398 O421 1.283 . S
C399 O411 1.281 . S
C399 O412 1.236 . S
C400 O422 1.240 . S
C400 O423 1.264 . S
O401 Mn396 2.095 . S
O401 C410 1.250 . S
O402 Mn397 2.121 . S
O402 C410 1.258 . S
C403 N404 1.326 . S
C403 C407 1.460 . S
C403 H409 0.929 . S
N404 Mn397 2.257 . S
N404 C403 1.326 . S
N404 C408 1.362 . S
C405 C406 1.258 . S
C405 C408 1.431 . S
C405 C425 1.449 . S
C406 C405 1.258 . S
C406 C407 1.477 . S
C406 H426 0.931 . S
C407 C403 1.460 . S
C407 C406 1.477 . S
C407 H427 0.930 . S
C408 N404 1.362 . S
C408 C405 1.431 . S
C408 C418 1.476 . S
H409 C403 0.929 . S
C410 O401 1.250 . S
C410 O402 1.258 . S
O411 Mn396 2.162 . S
O411 C399 1.281 . S
O412 Mn396 2.297 . S
O412 C399 1.236 . S
N413 Mn397 2.282 . S
N413 C414 1.328 . S
N413 C418 1.318 . S
C414 N413 1.328 . S
C414 C415 1.457 . S
C414 H419 0.929 . S
C415 C414 1.457 . S
C415 C416 1.291 . S
C415 H428 0.931 . S
C416 C415 1.291 . S
C416 C417 1.373 . S
C416 H429 0.929 . S
C417 C416 1.373 . S
C417 C418 1.396 . S
C417 C424 1.403 . S
C418 C408 1.476 . S
C418 N413 1.318 . S
C418 C417 1.396 . S
H419 C414 0.929 . S
O420 Mn396 2.385 . S
O420 C398 1.234 . S
O421 Mn396 2.209 . S
O421 Mn397 2.215 . S
O421 C398 1.283 . S
O422 Mn396 2.094 . S
O422 C400 1.240 . S
O423 Mn397 2.117 . S
O423 C400 1.264 . S
C424 C417 1.403 . S
C424 C425 1.399 . S
C424 H430 0.929 . S
C425 C405 1.449 . S
C425 C424 1.399 . S
C425 H431 0.930 . S
H426 C406 0.931 . S
H427 C407 0.930 . S
H428 C415 0.931 . S
H429 C416 0.929 . S
H430 C424 0.929 . S
H431 C425 0.930 . S
Mn432 O437 2.095 . S
Mn432 O447 2.162 . S
Mn432 O448 2.297 . S
Mn432 O456 2.385 . S
Mn432 O457 2.209 . S
Mn432 O458 2.094 . S
Mn433 O438 2.121 . S
Mn433 N440 2.257 . S
Mn433 N449 2.282 . S
Mn433 O457 2.215 . S
Mn433 O459 2.117 . S
C434 O456 1.234 . S
C434 O457 1.283 . S
C435 O447 1.281 . S
C435 O448 1.236 . S
C436 O458 1.240 . S
C436 O459 1.264 . S
O437 Mn432 2.095 . S
O437 C446 1.250 . S
O438 Mn433 2.121 . S
O438 C446 1.258 . S
C439 N440 1.326 . S
C439 C443 1.460 . S
C439 H445 0.929 . S
N440 Mn433 2.257 . S
N440 C439 1.326 . S
N440 C444 1.362 . S
C441 C442 1.258 . S
C441 C444 1.431 . S
C441 C461 1.449 . S
C442 C441 1.258 . S
C442 C443 1.477 . S
C442 H462 0.931 . S
C443 C439 1.460 . S
C443 C442 1.477 . S
C443 H463 0.930 . S
C444 N440 1.362 . S
C444 C441 1.431 . S
C444 C454 1.476 . S
H445 C439 0.929 . S
C446 O437 1.250 . S
C446 O438 1.258 . S
O447 Mn432 2.162 . S
O447 C435 1.281 . S
O448 Mn432 2.297 . S
O448 C435 1.236 . S
N449 Mn433 2.282 . S
N449 C450 1.328 . S
N449 C454 1.318 . S
C450 N449 1.328 . S
C450 C451 1.457 . S
C450 H455 0.929 . S
C451 C450 1.457 . S
C451 C452 1.291 . S
C451 H464 0.931 . S
C452 C451 1.291 . S
C452 C453 1.373 . S
C452 H465 0.929 . S
C453 C452 1.373 . S
C453 C454 1.396 . S
C453 C460 1.403 . S
C454 C444 1.476 . S
C454 N449 1.318 . S
C454 C453 1.396 . S
H455 C450 0.929 . S
O456 Mn432 2.385 . S
O456 C434 1.234 . S
O457 Mn432 2.209 . S
O457 Mn433 2.215 . S
O457 C434 1.283 . S
O458 Mn432 2.094 . S
O458 C436 1.240 . S
O459 Mn433 2.117 . S
O459 C436 1.264 . S
C460 C453 1.403 . S
C460 C461 1.399 . S
C460 H466 0.929 . S
C461 C441 1.449 . S
C461 C460 1.399 . S
C461 H467 0.930 . S
H462 C442 0.931 . S
H463 C443 0.930 . S
H464 C451 0.931 . S
H465 C452 0.929 . S
H466 C460 0.929 . S
H467 C461 0.930 . S
Mn468 O473 2.095 . S
Mn468 O483 2.162 . S
Mn468 O484 2.297 1_455 S
Mn468 O492 2.385 . S
Mn468 O493 2.209 . S
Mn468 O494 2.094 . S
Mn469 O474 2.121 1_455 S
Mn469 N476 2.257 1_455 S
Mn469 N485 2.282 . S
Mn469 O493 2.215 . S
Mn469 O495 2.117 . S
C470 O492 1.234 . S
C470 O493 1.283 . S
C471 O483 1.281 . S
C471 O484 1.236 1_455 S
C472 O494 1.240 . S
C472 O495 1.264 . S
O473 Mn468 2.095 . S
O473 C482 1.250 . S
O474 Mn469 2.121 1_655 S
O474 C482 1.258 1_655 S
C475 N476 1.326 . S
C475 C479 1.460 . S
C475 H481 0.929 . S
N476 Mn469 2.257 1_655 S
N476 C475 1.326 . S
N476 C480 1.362 . S
C477 C478 1.258 . S
C477 C480 1.431 . S
C477 C497 1.449 . S
C478 C477 1.258 . S
C478 C479 1.477 . S
C478 H498 0.931 . S
C479 C475 1.460 . S
C479 C478 1.477 . S
C479 H499 0.930 . S
C480 N476 1.362 . S
C480 C477 1.431 . S
C480 C490 1.476 1_655 S
H481 C475 0.929 . S
C482 O473 1.250 . S
C482 O474 1.258 1_455 S
O483 Mn468 2.162 . S
O483 C471 1.281 . S
O484 Mn468 2.297 1_655 S
O484 C471 1.236 1_655 S
N485 Mn469 2.282 . S
N485 C486 1.328 . S
N485 C490 1.318 . S
C486 N485 1.328 . S
C486 C487 1.457 . S
C486 H491 0.929 . S
C487 C486 1.457 . S
C487 C488 1.291 . S
C487 H500 0.931 . S
C488 C487 1.291 . S
C488 C489 1.373 . S
C488 H501 0.929 . S
C489 C488 1.373 . S
C489 C490 1.396 . S
C489 C496 1.403 1_455 S
C490 C480 1.476 1_455 S
C490 N485 1.318 . S
C490 C489 1.396 . S
H491 C486 0.929 . S
O492 Mn468 2.385 . S
O492 C470 1.234 . S
O493 Mn468 2.209 . S
O493 Mn469 2.215 . S
O493 C470 1.283 . S
O494 Mn468 2.094 . S
O494 C472 1.240 . S
O495 Mn469 2.117 . S
O495 C472 1.264 . S
C496 C489 1.403 1_655 S
C496 C497 1.399 . S
C496 H502 0.929 . S
C497 C477 1.449 . S
C497 C496 1.399 . S
C497 H503 0.930 . S
H498 C478 0.931 . S
H499 C479 0.930 . S
H500 C487 0.931 . S
H501 C488 0.929 . S
H502 C496 0.929 . S
H503 C497 0.930 . S
Mn504 O509 2.095 . S
Mn504 O519 2.162 . S
Mn504 O520 2.297 1_655 S
Mn504 O528 2.385 . S
Mn504 O529 2.209 . S
Mn504 O530 2.094 . S
Mn505 O510 2.121 1_655 S
Mn505 N512 2.257 1_655 S
Mn505 N521 2.282 . S
Mn505 O529 2.215 . S
Mn505 O531 2.117 . S
C506 O528 1.234 . S
C506 O529 1.283 . S
C507 O519 1.281 . S
C507 O520 1.236 1_655 S
C508 O530 1.240 . S
C508 O531 1.264 . S
O509 Mn504 2.095 . S
O509 C518 1.250 . S
O510 Mn505 2.121 1_455 S
O510 C518 1.258 1_455 S
C511 N512 1.326 . S
C511 C515 1.460 . S
C511 H517 0.929 . S
N512 Mn505 2.257 1_455 S
N512 C511 1.326 . S
N512 C516 1.362 . S
C513 C514 1.258 . S
C513 C516 1.431 . S
C513 C533 1.449 . S
C514 C513 1.258 . S
C514 C515 1.477 . S
C514 H534 0.931 . S
C515 C511 1.460 . S
C515 C514 1.477 . S
C515 H535 0.930 . S
C516 N512 1.362 . S
C516 C513 1.431 . S
C516 C526 1.476 1_455 S
H517 C511 0.929 . S
C518 O509 1.250 . S
C518 O510 1.258 1_655 S
O519 Mn504 2.162 . S
O519 C507 1.281 . S
O520 Mn504 2.297 1_455 S
O520 C507 1.236 1_455 S
N521 Mn505 2.282 . S
N521 C522 1.328 . S
N521 C526 1.318 . S
C522 N521 1.328 . S
C522 C523 1.457 . S
C522 H527 0.929 . S
C523 C522 1.457 . S
C523 C524 1.291 . S
C523 H536 0.931 . S
C524 C523 1.291 . S
C524 C525 1.373 . S
C524 H537 0.929 . S
C525 C524 1.373 . S
C525 C526 1.396 . S
C525 C532 1.403 1_655 S
C526 C516 1.476 1_655 S
C526 N521 1.318 . S
C526 C525 1.396 . S
H527 C522 0.929 . S
O528 Mn504 2.385 . S
O528 C506 1.234 . S
O529 Mn504 2.209 . S
O529 Mn505 2.215 . S
O529 C506 1.283 . S
O530 Mn504 2.094 . S
O530 C508 1.240 . S
O531 Mn505 2.117 . S
O531 C508 1.264 . S
C532 C525 1.403 1_455 S
C532 C533 1.399 . S
C532 H538 0.929 . S
C533 C513 1.449 . S
C533 C532 1.399 . S
C533 H539 0.930 . S
H534 C514 0.931 . S
H535 C515 0.930 . S
H536 C523 0.931 . S
H537 C524 0.929 . S
H538 C532 0.929 . S
H539 C533 0.930 . S
Mn540 O545 2.095 . S
Mn540 O555 2.162 . S
Mn540 O556 2.297 . S
Mn540 O564 2.385 . S
Mn540 O565 2.209 . S
Mn540 O566 2.094 . S
Mn541 O546 2.121 . S
Mn541 N548 2.257 . S
Mn541 N557 2.282 . S
Mn541 O565 2.215 . S
Mn541 O567 2.117 . S
C542 O564 1.234 . S
C542 O565 1.283 . S
C543 O555 1.281 . S
C543 O556 1.236 . S
C544 O566 1.240 . S
C544 O567 1.264 . S
O545 Mn540 2.095 . S
O545 C554 1.250 . S
O546 Mn541 2.121 . S
O546 C554 1.258 . S
C547 N548 1.326 . S
C547 C551 1.460 . S
C547 H553 0.929 . S
N548 Mn541 2.257 . S
N548 C547 1.326 . S
N548 C552 1.362 . S
C549 C550 1.258 . S
C549 C552 1.431 . S
C549 C569 1.449 . S
C550 C549 1.258 . S
C550 C551 1.477 . S
C550 H570 0.931 . S
C551 C547 1.460 . S
C551 C550 1.477 . S
C551 H571 0.930 . S
C552 N548 1.362 . S
C552 C549 1.431 . S
C552 C562 1.476 . S
H553 C547 0.929 . S
C554 O545 1.250 . S
C554 O546 1.258 . S
O555 Mn540 2.162 . S
O555 C543 1.281 . S
O556 Mn540 2.297 . S
O556 C543 1.236 . S
N557 Mn541 2.282 . S
N557 C558 1.328 . S
N557 C562 1.318 . S
C558 N557 1.328 . S
C558 C559 1.457 . S
C558 H563 0.929 . S
C559 C558 1.457 . S
C559 C560 1.291 . S
C559 H572 0.931 . S
C560 C559 1.291 . S
C560 C561 1.373 . S
C560 H573 0.929 . S
C561 C560 1.373 . S
C561 C562 1.396 . S
C561 C568 1.403 . S
C562 C552 1.476 . S
C562 N557 1.318 . S
C562 C561 1.396 . S
H563 C558 0.929 . S
O564 Mn540 2.385 . S
O564 C542 1.234 . S
O565 Mn540 2.209 . S
O565 Mn541 2.215 . S
O565 C542 1.283 . S
O566 Mn540 2.094 . S
O566 C544 1.240 . S
O567 Mn541 2.117 . S
O567 C544 1.264 . S
C568 C561 1.403 . S
C568 C569 1.399 . S
C568 H574 0.929 . S
C569 C549 1.449 . S
C569 C568 1.399 . S
C569 H575 0.930 . S
H570 C550 0.931 . S
H571 C551 0.930 . S
H572 C559 0.931 . S
H573 C560 0.929 . S
H574 C568 0.929 . S
H575 C569 0.930 . S
C40 C4 1.581 1_565 S
C76 C112 1.581 1_565 S
C148 C184 1.581 1_565 S
C256 C220 1.581 1_565 S
C328 C292 1.581 . S
C400 C364 1.581 . S
C472 C436 1.581 . S
C544 C508 1.581 . S
C110 C2 1.334 1_655 S
C38 C74 1.334 . S
C254 C146 1.334 1_455 S
C218 C182 1.334 . S
C290 C398 1.334 . S
C362 C326 1.334 1_455 S
C542 C434 1.334 . S
C470 C506 1.334 1_455 S
C3 C327 1.527 1_455 S
C39 C291 1.527 . S
C399 C75 1.527 . S
C363 C111 1.527 1_455 S
C471 C147 1.527 1_455 S
C435 C183 1.527 . S
C219 C543 1.527 . S
C255 C507 1.527 1_455 S
C158 C14 1.531 1_646 S
C194 C50 1.531 1_566 S
C230 C86 1.531 1_565 S
C266 C122 1.531 1_445 S
C302 C446 1.531 1_554 S
C338 C482 1.531 1_654 S
C518 C374 1.531 1_655 S
C554 C410 1.531 . S
