# Generated by pormake.
# Topology rkf, (6)-cn, num edge types: 1
# Building blocks:
#     Node 0, Type 0, BuildingBlock: CUKXOW_clean_sbu_0, # of connection points: 6
#     Node 1, Type 0, BuildingBlock: CUKXOW_clean_sbu_0, # of connection points: 6
#     Node 2, Type 0, BuildingBlock: CUKXOW_clean_sbu_0, # of connection points: 6
#     Node 3, Type 0, BuildingBlock: CUKXOW_clean_sbu_0, # of connection points: 6
#     Node 4, Type 0, BuildingBlock: CUKXOW_clean_sbu_0, # of connection points: 6
#     Node 5, Type 0, BuildingBlock: CUKXOW_clean_sbu_0, # of connection points: 6
#     Edge 6, Type (0, 0), BuildingBlock: ZUJKAS_clean_linker_0, # of connection points: 2
#     Edge 7, Type (0, 0), BuildingBlock: ZUJKAS_clean_linker_0, # of connection points: 2
#     Edge 8, Type (0, 0), BuildingBlock: ZUJKAS_clean_linker_0, # of connection points: 2
#     Edge 9, Type (0, 0), BuildingBlock: ZUJKAS_clean_linker_0, # of connection points: 2
#     Edge 10, Type (0, 0), BuildingBlock: ZUJKAS_clean_linker_0, # of connection points: 2
#     Edge 11, Type (0, 0), BuildingBlock: ZUJKAS_clean_linker_0, # of connection points: 2
#     Edge 12, Type (0, 0), BuildingBlock: ZUJKAS_clean_linker_0, # of connection points: 2
#     Edge 13, Type (0, 0), BuildingBlock: ZUJKAS_clean_linker_0, # of connection points: 2
#     Edge 14, Type (0, 0), BuildingBlock: ZUJKAS_clean_linker_0, # of connection points: 2
#     Edge 15, Type (0, 0), BuildingBlock: ZUJKAS_clean_linker_0, # of connection points: 2
#     Edge 16, Type (0, 0), BuildingBlock: ZUJKAS_clean_linker_0, # of connection points: 2
#     Edge 17, Type (0, 0), BuildingBlock: ZUJKAS_clean_linker_0, # of connection points: 2
#     Edge 18, Type (0, 0), BuildingBlock: ZUJKAS_clean_linker_0, # of connection points: 2
#     Edge 19, Type (0, 0), BuildingBlock: ZUJKAS_clean_linker_0, # of connection points: 2
#     Edge 20, Type (0, 0), BuildingBlock: ZUJKAS_clean_linker_0, # of connection points: 2
#     Edge 21, Type (0, 0), BuildingBlock: ZUJKAS_clean_linker_0, # of connection points: 2
#     Edge 22, Type (0, 0), BuildingBlock: ZUJKAS_clean_linker_0, # of connection points: 2
#     Edge 23, Type (0, 0), BuildingBlock: ZUJKAS_clean_linker_0, # of connection points: 2
# Relax obj value: 0.317
# Max RMSD: 0.271
# Mean RMSD: 0.269
data_MOF--net-rkf--node1-CUKXOW_clean_sbu_0--edge1-ZUJKAS_clean_linker_0
_symmetry_space_group_name_H-M    P1
_symmetry_Int_Tables_number       1
_symmetry_cell_setting            triclinic
loop_
_symmetry_equiv_pos_as_xyz
'x, y, z'
_cell_length_a     30.091229
_cell_length_b     30.384211
_cell_length_c     52.70617
_cell_angle_alpha  89.657236
_cell_angle_beta   89.983345
_cell_angle_gamma 120.25677
loop_
_atom_site_label
_atom_site_type_symbol
_atom_site_fract_x
_atom_site_fract_y
_atom_site_fract_z
_atom_type_partial_charge
Tb0 Tb 0.30259 0.10135 1.02728 0.0
C1 C 0.381 0.07676 0.05559 0.0
Tb2 Tb 0.26219 0.01698 0.07066 0.0
O3 O 0.34579 0.15999 0.05514 0.0
O4 O 0.27732 0.09275 0.06527 0.0
O5 O 0.37064 0.0941 0.03421 0.0
C6 C 0.20973 0.96982 0.11356 0.0
O7 O 0.34626 0.05262 0.07414 0.0
C8 C 0.28637 0.9917 1.02744 0.0
C9 C 0.1849 0.02026 1.03116 0.0
O10 O 0.24439 0.01778 0.11128 0.0
O11 O 0.20693 0.94805 0.09198 0.0
O12 O 0.28508 0.96924 0.04897 0.0
O13 O 0.27011 0.02193 1.03132 0.0
O14 O 0.18999 0.99663 0.05127 0.0
O15 O 0.21924 0.06848 1.02651 0.0
C16 C 0.30141 0.15015 0.98462 0.0
O17 O 0.29237 0.15922 1.0075 0.0
O18 O 0.31507 0.11573 0.98594 0.0
C19 C 0.31494 0.13344 0.07361 0.0
Tb20 Tb 0.14553 0.11896 0.40072 0.0
C21 C 0.15562 0.02225 0.39237 0.0
Tb22 Tb 0.23595 0.12759 0.37124 0.0
O23 O 0.09185 0.07674 0.36984 0.0
O24 O 0.1677 0.12916 0.36134 0.0
O25 O 0.1383 0.04454 0.40785 0.0
C26 C 0.29501 0.13241 0.33274 0.0
O27 O 0.18561 0.04642 0.37284 0.0
C28 C 0.24043 0.11582 0.42103 0.0
C29 C 0.23945 0.22914 0.38542 0.0
O30 O 0.24607 0.10066 0.3349 0.0
O31 O 0.3113 0.16204 0.35243 0.0
O32 O 0.2637 0.10305 0.40433 0.0
O33 O 0.22171 0.13903 0.40933 0.0
O34 O 0.25803 0.20708 0.37065 0.0
O35 O 0.19805 0.20253 0.40012 0.0
C36 C 0.08547 0.12203 0.4372 0.0
O37 O 0.09785 0.14852 0.41626 0.0
O38 O 0.10595 0.09338 0.43714 0.0
C39 C 0.12586 0.09493 0.35175 0.0
Tb40 Tb 0.88785 0.20359 0.7038 0.0
C41 C 0.96218 0.32354 0.71538 0.0
Tb42 Tb 0.99032 0.24203 0.73547 0.0
O43 O 0.84089 0.17771 0.7392 0.0
O44 O 0.91757 0.23505 0.739 0.0
O45 O 0.92255 0.28713 0.70232 0.0
C46 C 0.05413 0.24668 0.77266 0.0
O47 O 0.99146 0.31425 0.73116 0.0
C48 C 0.99896 0.24336 0.68588 0.0
C49 C 0.92073 0.1264 0.72226 0.0
O50 O 0.0553 0.23449 0.74918 0.0
O51 O 0.01831 0.25844 0.77492 0.0
O52 O 0.03706 0.27282 0.70071 0.0
O53 O 0.96179 0.21237 0.69937 0.0
O54 O 0.94263 0.15897 0.74119 0.0
O55 O 0.89432 0.13572 0.7051 0.0
C56 C 0.83209 0.18065 0.66129 0.0
O57 O 0.81557 0.15774 0.68313 0.0
O58 O 0.87853 0.21867 0.66416 0.0
C59 C 0.88046 0.20774 0.75316 0.0
Tb60 Tb 0.88256 0.96561 0.05604 0.0
C61 C 0.97898 0.98475 1.02535 0.0
Tb62 Tb 0.95771 0.0757 0.03568 0.0
O63 O 0.86098 0.93043 1.0183 0.0
O64 O 0.89222 0.00817 1.02236 0.0
O65 O 0.94669 0.95716 0.04381 0.0
C66 C 0.99676 0.1565 1.00461 0.0
O67 O 0.98827 0.031 1.01891 0.0
C68 C 0.97797 0.06753 0.08459 0.0
C69 C 0.8456 0.04628 0.05568 0.0
O70 O 0.01347 0.12465 1.00669 0.0
O71 O 0.96009 0.14392 1.02098 0.0
O72 O 1.00335 0.10829 0.07065 0.0
O73 O 0.94381 0.03482 0.07016 0.0
O74 O 0.88618 0.07738 0.0415 0.0
O75 O 0.84003 0.00379 0.06591 0.0
C76 C 0.83208 0.88892 0.0884 0.0
O77 O 0.81089 0.90325 0.07126 0.0
O78 O 0.88179 0.91738 0.08695 0.0
C79 C 0.88003 0.97342 1.00586 0.0
Tb80 Tb 0.77415 0.7955 0.35358 0.0
C81 C 0.6713 0.72845 0.38351 0.0
Tb82 Tb 0.73851 0.85226 0.39069 0.0
O83 O 0.79583 0.76574 0.38685 0.0
O84 O 0.79801 0.83502 0.38843 0.0
O85 O 0.70017 0.73024 0.36375 0.0
C86 C 0.72346 0.89229 0.43272 0.0
O87 O 0.68132 0.76981 0.39719 0.0
C88 C 0.70402 0.84076 0.34409 0.0
C89 C 0.83757 0.91156 0.35794 0.0
O90 O 0.72668 0.85123 0.43186 0.0
O91 O 0.72689 0.90967 0.40978 0.0
O92 O 0.7103 0.87827 0.35838 0.0
O93 O 0.71398 0.81204 0.35685 0.0
O94 O 0.81841 0.90947 0.38092 0.0
O95 O 0.80836 0.87528 0.34202 0.0
C96 C 0.82426 0.78368 0.31382 0.0
O97 O 0.84001 0.79313 0.33709 0.0
O98 O 0.77839 0.77801 0.31312 0.0
C99 C 0.803 0.80317 0.40143 0.0
Tb100 Tb 0.14227 0.94214 0.73434 0.0
C101 C 0.15577 0.03998 0.70867 0.0
Tb102 Tb 0.05391 0.93269 0.69823 0.0
O103 O 0.19607 0.96485 0.70175 0.0
O104 O 0.11742 0.92117 0.69637 0.0
O105 O 0.16804 0.02206 0.72876 0.0
C106 C 1.00118 0.92174 0.65559 0.0
O107 O 0.11652 0.01162 0.6933 0.0
C108 C 0.03663 0.9473 0.74644 0.0
C109 C 0.04913 0.83319 0.72095 0.0
O110 O 0.04618 0.96023 0.66089 0.0
O111 O 0.98523 0.89016 0.67469 0.0
O112 O 1.00737 0.94383 0.72746 0.0
O113 O 0.07288 0.94329 0.73692 0.0
O114 O 0.03495 0.85317 0.70226 0.0
O115 O 0.08524 0.86153 0.73763 0.0
C116 C 0.1919 0.94128 0.77595 0.0
O117 O 0.1879 0.91618 0.75534 0.0
O118 O 0.16906 0.96751 0.77278 0.0
C119 C 0.15979 0.94528 0.68473 0.0
H120 H 0.05531 0.02721 0.99014 0.0
H121 H 0.06736 0.98662 0.95397 0.0
H122 H 0.93886 0.84187 0.9784 0.0
H123 H 0.9282 0.88298 1.01514 0.0
H124 H 0.0426 0.9415 0.91346 0.0
H125 H 0.99593 0.76383 0.96034 0.0
H126 H 0.94958 0.7843 0.95616 0.0
H127 H 0.99 0.80246 0.98412 0.0
C128 C 0.03077 0.98635 0.98824 0.0
C129 C 0.99253 0.95807 1.00625 0.0
C130 C 0.03699 0.96269 0.9671 0.0
C131 C 1.00579 0.90959 0.96339 0.0
C132 C 0.96608 0.88177 0.98103 0.0
H133 H 0.15129 0.91854 1.02577 0.0
H134 H 0.13403 0.87159 0.98697 0.0
C135 C 0.96 0.90552 1.00235 0.0
C136 C 0.02042 0.88425 0.94329 0.0
H137 H 0.08741 0.82288 0.95332 0.0
C138 C 0.05167 0.91541 0.9231 0.0
C139 C 0.02848 0.84344 0.95023 0.0
C140 C 0.98856 0.79576 0.96338 0.0
C141 C 0.10084 0.92121 0.92003 0.0
C142 C 0.11691 0.89966 0.93921 0.0
C143 C 0.07773 0.85026 0.94581 0.0
C144 C 0.14273 0.93298 0.96203 0.0
C145 C 0.13773 0.95712 0.90043 0.0
C146 C 0.15733 0.98512 0.96201 0.0
C147 C 0.1664 0.01199 0.98463 0.0
C148 C 0.16338 0.98856 1.00812 0.0
C149 C 0.15176 0.93756 1.00824 0.0
C150 C 0.14283 0.91071 0.98564 0.0
H151 H 0.12463 0.94024 0.88135 0.0
H152 H 0.13772 0.99365 0.90047 0.0
H153 H 0.17736 0.96437 0.90362 0.0
H154 H 0.15956 0.00535 0.94473 0.0
H155 H 0.17711 0.05177 0.98359 0.0
H156 H 0.90651 0.93219 0.39659 0.0
H157 H 0.96733 0.90191 0.39447 0.0
H158 H 0.95486 0.8948 0.31293 0.0
H159 H 0.89379 0.92499 0.31489 0.0
H160 H 0.03624 0.89831 0.32186 0.0
H161 H 0.90316 0.7515 0.38696 0.0
H162 H 0.89192 0.80168 0.37649 0.0
H163 H 0.92817 0.80898 0.4049 0.0
C164 C 0.91816 0.92626 0.37808 0.0
C165 C 0.89269 0.92759 0.356 0.0
C166 C 0.95197 0.90754 0.37695 0.0
C167 C 0.96112 0.89088 0.35375 0.0
C168 C 0.94525 0.90368 0.33124 0.0
H169 H 0.20405 0.97326 0.37422 0.0
H170 H 0.16243 0.88216 0.36665 0.0
C171 C 0.91134 0.92236 0.33236 0.0
C172 C 0.98523 0.85866 0.35351 0.0
H173 H 0.99615 0.7728 0.39096 0.0
C174 C 0.02707 0.87136 0.33732 0.0
C175 C 0.96969 0.81668 0.3705 0.0
C176 C 0.92018 0.79343 0.38536 0.0
C177 C 0.05944 0.85168 0.34247 0.0
C178 C 0.05493 0.82893 0.36662 0.0
C179 C 1.0041 0.79901 0.37526 0.0
C180 C 0.09187 0.86465 0.38602 0.0
C181 C 0.10265 0.86289 0.32446 0.0
C182 C 0.07231 0.88304 0.40516 0.0
C183 C 0.0957 0.93527 0.40941 0.0
C184 C 0.1404 0.96846 0.39599 0.0
C185 C 0.16724 0.94839 0.38319 0.0
C186 C 0.14363 0.89606 0.37905 0.0
H187 H 0.0881 0.85554 0.30467 0.0
H188 H 0.13253 0.90384 0.32554 0.0
H189 H 0.12008 0.83906 0.32883 0.0
H190 H 0.03458 0.85923 0.41344 0.0
H191 H 0.07577 0.94958 0.42079 0.0
H192 H 0.22556 0.07768 0.67048 0.0
H193 H 0.24748 0.15528 0.64706 0.0
H194 H 0.18202 0.19983 0.70776 0.0
H195 H 0.16042 0.12258 0.73065 0.0
H196 H 0.16241 0.13229 0.62992 0.0
H197 H 0.19538 0.30922 0.66316 0.0
H198 H 0.24541 0.29304 0.6667 0.0
H199 H 0.2024 0.28443 0.69278 0.0
C200 C 0.21827 0.10549 0.6792 0.0
C201 C 0.18893 0.09346 0.70152 0.0
C202 C 0.2317 0.15053 0.66602 0.0
C203 C 0.21181 0.18119 0.67422 0.0
C204 C 0.19492 0.17547 0.69976 0.0
H205 H 1.0054 0.12671 0.74203 0.0
H206 H 0.07837 0.14718 0.71462 0.0
C207 C 0.18187 0.1307 0.71305 0.0
C208 C 0.18453 0.19567 0.65513 0.0
H209 H 0.10228 0.22927 0.67966 0.0
C210 C 0.14909 0.15374 0.64063 0.0
C211 C 0.16763 0.22895 0.66316 0.0
C212 C 0.20527 0.28191 0.67189 0.0
C213 C 0.09666 0.13003 0.64696 0.0
C214 C 0.0808 0.15568 0.66365 0.0
C215 C 0.11512 0.20754 0.66876 0.0
C216 C 0.0345 0.12829 0.67976 0.0
C217 C 0.06054 0.07658 0.63808 0.0
C218 C 0.98495 0.10405 0.66952 0.0
C219 C 0.94273 0.09032 0.68541 0.0
C220 C 0.95056 0.1044 0.71123 0.0
C221 C 0.99844 0.11808 0.72201 0.0
C222 C 0.04045 0.13082 0.70625 0.0
H223 H 0.0812 0.06063 0.62762 0.0
H224 H 0.04003 0.05123 0.65447 0.0
H225 H 0.03139 0.07672 0.62525 0.0
H226 H 0.97922 0.10033 0.6492 0.0
H227 H 0.9056 0.07709 0.67662 0.0
H228 H 0.25722 0.20909 0.98199 0.0
H229 H 0.21801 0.2255 0.94534 0.0
H230 H 0.26764 0.14329 0.89769 0.0
H231 H 0.30504 0.12476 0.93481 0.0
H232 H 0.2509 0.27487 0.90327 0.0
H233 H 0.12071 0.07306 0.8779 0.0
H234 H 0.15775 0.09111 0.90673 0.0
H235 H 0.18694 0.08972 0.87711 0.0
C236 C 0.2602 0.19479 0.96367 0.0
C237 C 0.28447 0.16572 0.96136 0.0
C238 C 0.23754 0.20412 0.94264 0.0
C239 C 0.23857 0.18483 0.91859 0.0
C240 C 0.26468 0.15741 0.91604 0.0
H241 H 0.12311 0.2134 0.7701 0.0
H242 H 0.1684 0.19946 0.80514 0.0
C243 C 0.28689 0.1475 0.93723 0.0
C244 C 0.21264 0.19407 0.89647 0.0
H245 H 0.12673 0.13533 0.84826 0.0
C246 C 0.22332 0.24409 0.89147 0.0
C247 C 0.17631 0.15419 0.88086 0.0
C248 C 0.1593 0.09899 0.88605 0.0
C249 C 0.19935 0.25527 0.87146 0.0
C250 C 0.16361 0.21552 0.85576 0.0
C251 C 0.15355 0.16573 0.86041 0.0
C252 C 0.13627 0.2248 0.83445 0.0
C253 C 0.21326 0.30983 0.86698 0.0
C254 C 0.10255 0.24331 0.83913 0.0
C255 C 0.07665 0.25143 0.81906 0.0
C256 C 0.08377 0.24111 0.79386 0.0
C257 C 0.11726 0.22235 0.78924 0.0
C258 C 0.14301 0.21411 0.80929 0.0
H259 H 0.24972 0.33706 0.87658 0.0
H260 H 0.2172 0.31896 0.84638 0.0
H261 H 0.18219 0.31554 0.87465 0.0
H262 H 0.09562 0.25077 0.85836 0.0
H263 H 0.05046 0.26507 0.82333 0.0
H264 H 0.18217 0.15274 0.31016 0.0
H265 H 0.15511 0.14273 0.2655 0.0
H266 H 0.01194 0.00811 0.28548 0.0
H267 H 0.03799 0.01934 0.33004 0.0
H268 H 0.13214 0.07474 0.22983 0.0
H269 H 0.95282 0.07856 0.2474 0.0
H270 H 0.99967 0.0927 0.27198 0.0
H271 H 0.95399 0.02755 0.26401 0.0
C272 C 0.14486 0.1211 0.30504 0.0
C273 C 0.11208 0.08737 0.32396 0.0
C274 C 0.12925 0.11529 0.27936 0.0
C275 C 0.08044 0.07548 0.27169 0.0
C276 C 0.04879 0.04046 0.29053 0.0
H277 H 0.92406 0.99036 0.1209 0.0
H278 H 0.94822 0.98876 0.16558 0.0
C279 C 0.06408 0.04663 0.31618 0.0
C280 C 0.0631 0.07045 0.24419 0.0
H281 H 0.9649 0.05758 0.20564 0.0
C282 C 0.09562 0.07126 0.22469 0.0
C283 C 0.01519 0.06548 0.23688 0.0
C284 C 0.97862 0.06649 0.25614 0.0
C285 C 0.08185 0.06705 0.19871 0.0
C286 C 0.03412 0.06228 0.19145 0.0
C287 C 1.00132 0.06094 0.21088 0.0
C288 C 0.01908 0.0616 0.1639 0.0
C289 C 0.11844 0.06692 0.17917 0.0
C290 C 0.04992 0.10299 0.14777 0.0
C291 C 0.03622 0.10376 0.12233 0.0
C292 C 0.99096 0.0633 0.11186 0.0
C293 C 0.95956 0.0218 0.12797 0.0
C294 C 0.97333 0.02109 0.15368 0.0
H295 H 0.14731 0.05898 0.18786 0.0
H296 H 0.09716 0.03813 0.1643 0.0
H297 H 0.13968 0.10492 0.1699 0.0
H298 H 0.08451 0.13551 0.15496 0.0
H299 H 0.06132 0.13671 0.11079 0.0
H300 H 0.87523 0.21509 0.61469 0.0
H301 H 0.85026 0.16796 0.57482 0.0
H302 H 0.71827 0.04412 0.61186 0.0
H303 H 0.743 0.09128 0.65185 0.0
H304 H 0.84386 0.07433 0.56831 0.0
H305 H 0.65748 0.06087 0.54532 0.0
H306 H 0.70239 0.10639 0.56766 0.0
H307 H 0.66124 0.04104 0.57704 0.0
C308 C 0.84001 0.17848 0.61418 0.0
C309 C 0.81078 0.15708 0.63638 0.0
C310 C 0.82602 0.1514 0.5914 0.0
C311 C 0.78223 0.10258 0.59025 0.0
C312 C 0.75172 0.08205 0.61214 0.0
H313 H 0.72659 0.8645 0.48174 0.0
H314 H 0.7394 0.91491 0.52013 0.0
C315 C 0.76583 0.10907 0.635 0.0
C316 C 0.771 0.07164 0.5668 0.0
H317 H 0.67971 0.00846 0.52142 0.0
C318 C 0.80799 0.06 0.55804 0.0
C319 C 0.72444 0.05335 0.55325 0.0
C320 C 0.68423 0.06635 0.5611 0.0
C321 C 0.79927 0.02981 0.53643 0.0
C322 C 0.75213 0.01041 0.52326 0.0
C323 C 0.71556 0.02286 0.5317 0.0
C324 C 0.74077 0.97817 0.50032 0.0
C325 C 0.84086 0.01946 0.52764 0.0
C326 C 0.73531 0.99608 0.47658 0.0
C327 C 0.72777 0.96726 0.45467 0.0
C328 C 0.72516 0.9198 0.45615 0.0
C329 C 0.7286 0.901 0.48005 0.0
C330 C 0.73627 0.92991 0.50194 0.0
H331 H 0.87842 0.0452 0.53677 0.0
H332 H 0.82971 0.97961 0.53253 0.0
H333 H 0.8458 0.02401 0.50672 0.0
H334 H 0.73836 0.03306 0.47489 0.0
H335 H 0.72534 0.98275 0.43651 0.0
H336 H 0.95979 0.05348 0.97842 0.0
H337 H 0.9907 0.04917 0.93622 0.0
H338 H 0.85555 0.90145 0.92583 0.0
H339 H 0.83002 0.90257 0.96954 0.0
H340 H 0.97313 0.04877 0.89227 0.0
H341 H 0.9415 0.85376 0.90171 0.0
H342 H 0.88138 0.85207 0.90301 0.0
H343 H 0.92811 0.88321 0.92776 0.0
C344 C 0.93745 0.01961 0.96746 0.0
C345 C 0.89361 0.97763 0.97809 0.0
C346 C 0.95486 0.01714 0.9429 0.0
C347 C 0.92738 0.97353 0.92755 0.0
C348 C 0.8803 0.93408 0.93732 0.0
H349 H 0.07647 0.93083 0.79086 0.0
H350 H 0.05444 0.9395 0.83493 0.0
C351 C 0.86478 0.93531 0.96236 0.0
C352 C 0.94732 0.97012 0.90145 0.0
H353 H 0.95972 0.88965 0.86001 0.0
C354 C 0.97052 0.01382 0.88567 0.0
C355 C 0.94467 0.9249 0.8919 0.0
C356 C 0.92304 0.87613 0.90712 0.0
C357 C 0.98987 0.01349 0.86124 0.0
C358 C 0.98522 0.96799 0.8515 0.0
C359 C 0.9632 0.9246 0.86723 0.0
C360 C 1.00063 0.96416 0.82469 0.0
C361 C 0.01567 0.06237 0.8461 0.0
C362 C 0.97795 0.97477 0.804 0.0
C363 C 0.99076 0.9701 0.77892 0.0
C364 C 0.02676 0.9547 0.77357 0.0
C365 C 0.04964 0.94399 0.7942 0.0
C366 C 0.03655 0.94844 0.81946 0.0
H367 H 0.03257 0.09602 0.85876 0.0
H368 H 0.04656 0.06459 0.8337 0.0
H369 H 0.98663 0.06417 0.83385 0.0
H370 H 0.94945 0.98593 0.80721 0.0
H371 H 0.97193 0.97823 0.7636 0.0
H372 H 0.91706 0.78824 0.31418 0.0
H373 H 0.98081 0.81631 0.27999 0.0
H374 H 0.87302 0.82397 0.2288 0.0
H375 H 0.80968 0.79736 0.26341 0.0
H376 H 0.988 0.78218 0.23511 0.0
H377 H 0.99305 0.96472 0.21983 0.0
H378 H 0.95813 0.92282 0.24585 0.0
H379 H 0.93056 0.91076 0.2145 0.0
C380 C 0.90675 0.79546 0.29558 0.0
C381 C 0.85851 0.79127 0.29168 0.0
C382 C 0.94337 0.8116 0.27595 0.0
C383 C 0.93274 0.82378 0.25173 0.0
C384 C 0.8832 0.8165 0.24738 0.0
H385 H 0.12586 0.87363 0.11672 0.0
H386 H 0.05975 0.83779 0.14995 0.0
C387 C 0.84659 0.80058 0.26713 0.0
C388 C 0.97384 0.84466 0.23144 0.0
H389 H 0.04069 0.94562 0.19067 0.0
C390 C 0.99937 0.81792 0.22542 0.0
C391 C 0.98988 0.89184 0.21891 0.0
C392 C 0.9668 0.92444 0.22527 0.0
C393 C 0.03948 0.83645 0.20725 0.0
C394 C 0.0544 0.88284 0.19416 0.0
C395 C 0.02933 0.9099 0.2004 0.0
C396 C 0.09593 0.90409 0.17412 0.0
C397 C 0.06638 0.80661 0.20275 0.0
C398 C 0.1385 0.95378 0.17611 0.0
C399 C 0.17626 0.97464 0.15689 0.0
C400 C 0.17259 0.94625 0.13517 0.0
C401 C 0.13039 0.89635 0.13332 0.0
C402 C 0.09248 0.87568 0.15244 0.0
H403 H 0.0614 0.78121 0.21909 0.0
H404 H 0.04964 0.78233 0.18579 0.0
H405 H 0.10818 0.83236 0.19934 0.0
H406 H 0.14244 0.97658 0.19258 0.0
H407 H 0.20792 0.01334 0.15887 0.0
H408 H 0.24866 0.01049 0.65925 0.0
H409 H 0.25886 0.03712 0.61468 0.0
H410 H 0.09707 0.93423 0.6024 0.0
H411 H 0.08745 0.90597 0.64684 0.0
H412 H 0.14583 0.93296 0.56259 0.0
H413 H 0.22319 0.13555 0.58493 0.0
H414 H 0.26433 0.11414 0.59765 0.0
H415 H 0.19926 0.08681 0.60918 0.0
C416 C 0.2152 0.99353 0.64707 0.0
C417 C 0.1667 0.95773 0.65696 0.0
C418 C 0.22096 0.00923 0.62153 0.0
C419 C 0.17834 0.98965 0.60511 0.0
C420 C 0.13046 0.9513 0.61462 0.0
H421 H 0.19691 0.14375 0.45907 0.0
H422 H 0.17717 0.11115 0.50285 0.0
C423 C 0.12482 0.93539 0.64015 0.0
C424 C 0.18393 0.00864 0.57811 0.0
H425 H 0.23424 0.11738 0.54173 0.0
C426 C 0.165 0.97333 0.55813 0.0
C427 C 0.20743 0.06128 0.57189 0.0
C428 C 0.22413 0.10155 0.59207 0.0
C429 C 0.17064 0.98902 0.53245 0.0
C430 C 0.19751 0.04176 0.52619 0.0
C431 C 0.21464 0.077 0.54619 0.0
C432 C 0.20861 0.06113 0.49918 0.0
C433 C 0.1466 0.94861 0.51233 0.0
C434 C 0.23364 0.04491 0.48226 0.0
C435 C 0.24417 0.06298 0.45709 0.0
C436 C 0.23062 0.09834 0.44812 0.0
C437 C 0.20693 0.11577 0.46517 0.0
C438 C 0.19595 0.09733 0.49033 0.0
H439 H 0.11389 0.91283 0.5201 0.0
H440 H 0.13249 0.96167 0.49612 0.0
H441 H 0.17572 0.93954 0.50516 0.0
H442 H 0.24553 0.01844 0.48854 0.0
H443 H 0.26282 0.04901 0.44459 0.0
H444 H 0.46522 0.12708 1.02405 0.0
H445 H 0.54647 0.12688 1.02596 0.0
H446 H 0.49494 0.03488 0.09392 0.0
H447 H 0.41369 0.03485 0.09228 0.0
H448 H 0.62309 0.15743 0.0672 0.0
H449 H 0.53085 0.95226 0.04279 0.0
H450 H 0.50005 0.98928 0.0371 0.0
H451 H 0.5019 0.96744 0.06859 0.0
C452 C 0.47117 0.1071 0.03956 0.0
C453 C 0.43244 0.08076 0.05794 0.0
C454 C 0.5178 0.10708 0.04061 0.0
C455 C 0.52664 0.08031 0.05988 0.0
C456 C 0.48879 0.05526 0.07867 0.0
H457 H 0.76161 0.9986 0.08725 0.0
H458 H 0.68714 0.01035 0.08918 0.0
C459 C 0.44233 0.05553 0.07775 0.0
C460 C 0.57473 0.07736 0.05998 0.0
H461 H 0.61893 0.9941 0.05329 0.0
C462 C 0.62228 0.12178 0.06411 0.0
C463 C 0.57371 0.03085 0.05599 0.0
C464 C 0.52404 0.9822 0.05066 0.0
C465 C 0.66861 0.12072 0.0649 0.0
C466 C 0.66768 0.07415 0.06076 0.0
C467 C 0.61998 0.02983 0.05654 0.0
C468 C 0.71535 0.07015 0.06073 0.0
C469 C 0.71786 0.16929 0.07088 0.0
C470 C 0.7567 0.10001 0.04421 0.0
C471 C 0.79984 0.09372 0.04325 0.0
C472 C 0.80241 0.05684 0.0585 0.0
C473 C 0.76122 0.02743 0.07521 0.0
C474 C 0.71837 0.03402 0.0763 0.0
H475 H 0.71026 0.19676 0.08106 0.0
H476 H 0.74384 0.16161 0.08265 0.0
H477 H 0.73805 0.18768 0.05289 0.0
H478 H 0.75505 0.12724 1.03149 0.0
H479 H 0.8304 0.11668 1.02992 0.0
H480 H 0.3084 0.29435 0.35078 0.0
H481 H 0.37105 0.3842 0.35604 0.0
H482 H 0.30457 0.38307 0.42871 0.0
H483 H 0.24172 0.2918 0.42379 0.0
H484 H 0.36496 0.47016 0.36319 0.0
H485 H 0.45444 0.43275 0.44689 0.0
H486 H 0.40802 0.38209 0.42717 0.0
H487 H 0.38725 0.41252 0.44948 0.0
C488 C 0.30651 0.31313 0.36782 0.0
C489 C 0.27031 0.2856 0.38701 0.0
C490 C 0.34245 0.36471 0.37077 0.0
C491 C 0.34337 0.3903 0.39299 0.0
C492 C 0.30536 0.36387 0.41162 0.0
H493 H 0.59934 0.70524 0.42147 0.0
H494 H 0.51629 0.62601 0.42676 0.0
C495 C 0.26905 0.31186 0.40866 0.0
C496 C 0.38598 0.44373 0.39658 0.0
H497 H 0.49681 0.51578 0.43008 0.0
C498 C 0.39328 0.48032 0.37809 0.0
C499 C 0.42316 0.45712 0.41599 0.0
C500 C 0.41832 0.41914 0.43596 0.0
C501 C 0.43755 0.52894 0.37785 0.0
C502 C 0.47577 0.54138 0.3965 0.0
C503 C 0.46736 0.50602 0.41582 0.0
C504 C 0.5268 0.58861 0.39446 0.0
C505 C 0.44407 0.56621 0.35713 0.0
C506 C 0.56062 0.59325 0.37497 0.0
C507 C 0.60801 0.63801 0.37201 0.0
C508 C 0.62277 0.67948 0.38844 0.0
C509 C 0.58929 0.67423 0.40843 0.0
C510 C 0.54179 0.62902 0.41149 0.0
H511 H 0.40685 0.55586 0.34796 0.0
H512 H 0.46135 0.60544 0.36475 0.0
H513 H 0.47043 0.56628 0.34237 0.0
H514 H 0.55003 0.56228 0.36181 0.0
H515 H 0.63255 0.6403 0.35642 0.0
H516 H 0.02537 0.40524 0.74507 0.0
H517 H 0.03432 0.48975 0.74478 0.0
H518 H 0.92796 0.44583 0.68239 0.0
H519 H 0.91798 0.36091 0.68277 0.0
H520 H 0.06754 0.56277 0.70745 0.0
H521 H 0.86483 0.49897 0.73313 0.0
H522 H 0.89167 0.45774 0.73573 0.0
H523 H 0.87198 0.46912 0.70536 0.0
C524 C 1.00396 0.41348 0.7312 0.0
C525 C 0.97064 0.37602 0.71407 0.0
C526 C 1.00906 0.46185 0.73111 0.0
C527 C 0.98097 0.47377 0.71392 0.0
C528 C 0.94894 0.43706 0.69627 0.0
H529 H 0.98759 0.76138 0.68594 0.0
H530 H 0.96747 0.67255 0.68385 0.0
C531 C 0.9436 0.38859 0.69642 0.0
C532 C 0.98592 0.52492 0.71433 0.0
H533 H 0.91825 0.58653 0.72287 0.0
C534 C 0.03489 0.56792 0.71084 0.0
C535 C 0.94321 0.53159 0.71871 0.0
C536 C 0.89001 0.48698 0.72368 0.0
C537 C 0.04235 0.61734 0.71159 0.0
C538 C 0.99981 0.62398 0.71619 0.0
C539 C 0.95068 0.58114 0.71929 0.0
C540 C 1.00647 0.67545 0.71879 0.0
C541 C 0.09573 0.66224 0.70739 0.0
C542 C 0.03328 0.70563 0.73961 0.0
C543 C 0.04461 0.7561 0.74095 0.0
C544 C 0.0294 0.77751 0.72144 0.0
C545 C 0.99997 0.74621 0.70127 0.0
C546 C 0.98852 0.6955 0.7 0.0
H547 H 0.12197 0.65065 0.69881 0.0
H548 H 0.09451 0.69117 0.69489 0.0
H549 H 0.11207 0.68046 0.7259 0.0
H550 H 0.0468 0.69053 0.75448 0.0
H551 H 0.06694 0.77878 0.75689 0.0
H552 H 0.24836 0.10918 0.11307 0.0
H553 H 0.26994 0.1243 0.15826 0.0
H554 H 0.43156 0.19894 0.13959 0.0
H555 H 0.41006 0.18359 0.09437 0.0
H556 H 0.3941 0.11797 0.17846 0.0
H557 H 0.33935 0.26414 0.19666 0.0
H558 H 0.292 0.20966 0.17949 0.0
H559 H 0.35378 0.25099 0.16526 0.0
C560 C 0.28841 0.12889 0.11869 0.0
C561 C 0.32759 0.14486 0.1005 0.0
C562 C 0.3007 0.13785 0.14437 0.0
C563 C 0.35234 0.16309 0.15208 0.0
C564 C 0.39157 0.17967 0.13388 0.0
H565 H 0.38111 0.21778 0.31555 0.0
H566 H 0.41453 0.23265 0.27186 0.0
C567 C 0.37926 0.17104 0.10818 0.0
C568 C 0.36474 0.16962 0.17932 0.0
H569 H 0.3447 0.2191 0.23298 0.0
C570 C 0.38448 0.14097 0.1904 0.0
C571 C 0.35293 0.2003 0.19466 0.0
C572 C 0.33378 0.23344 0.18343 0.0
C573 C 0.38876 0.13904 0.21682 0.0
C574 C 0.37271 0.1663 0.23229 0.0
C575 C 0.35702 0.19821 0.22104 0.0
C576 C 0.36273 0.15539 0.25966 0.0
C577 C 0.40809 0.10602 0.22801 0.0
C578 C 0.32366 0.10682 0.26726 0.0
C579 C 0.30431 0.09854 0.29189 0.0
C580 C 0.32393 0.13863 0.30932 0.0
C581 C 0.36577 0.18625 0.3024 0.0
C582 C 0.38476 0.19477 0.27753 0.0
H583 H 0.43458 0.10225 0.21468 0.0
H584 H 0.42834 0.12169 0.24622 0.0
H585 H 0.37492 0.0673 0.23168 0.0
H586 H 0.30538 0.07625 0.25364 0.0
H587 H 0.27192 0.06153 0.29684 0.0
H588 H 0.05914 0.06768 0.48104 0.0
H589 H 0.03456 0.08952 0.52114 0.0
H590 H 0.03622 0.21818 0.48509 0.0
H591 H 0.06023 0.19594 0.44463 0.0
H592 H 0.09911 0.18094 0.54422 0.0
H593 H 0.90523 0.15639 0.52979 0.0
H594 H 0.93236 0.12933 0.50872 0.0
H595 H 0.95213 0.19569 0.50629 0.0
C596 C 0.05294 0.09985 0.48148 0.0
C597 C 0.06163 0.13021 0.45978 0.0
C598 C 0.039 0.11234 0.50441 0.0
C599 C 0.03346 0.1554 0.5061 0.0
C600 C 0.03954 0.18436 0.48413 0.0
H601 H 0.0777 0.30467 0.65361 0.0
H602 H 0.086 0.28937 0.60864 0.0
C603 C 0.05337 0.17172 0.46106 0.0
C604 C 0.02753 0.17299 0.5314 0.0
H605 H 0.94857 0.19729 0.5678 0.0
C606 C 0.06617 0.18451 0.5494 0.0
C607 C 0.98445 0.17737 0.5381 0.0
C608 C 0.94088 0.16364 0.51982 0.0
C609 C 0.06279 0.19974 0.57402 0.0
C610 C 0.02016 0.20508 0.58071 0.0
C611 C 0.98155 0.19382 0.56262 0.0
C612 C 0.01312 0.21849 0.60692 0.0
C613 C 0.10417 0.20807 0.59277 0.0
C614 C 0.96831 0.1854 0.62051 0.0
C615 C 0.96316 0.19471 0.64592 0.0
C616 C 1.0028 0.23713 0.65835 0.0
C617 C 0.04675 0.27148 0.64452 0.0
C618 C 0.05162 0.26254 0.61891 0.0
H619 H 0.12415 0.18716 0.58731 0.0
H620 H 0.13335 0.24925 0.59339 0.0
H621 H 0.08795 0.19556 0.61207 0.0
H622 H 0.93796 0.15128 0.61174 0.0
H623 H 0.92879 0.16752 0.65604 0.0
H624 H 0.94134 0.29136 0.77996 0.0
H625 H 0.9673 0.29518 0.82394 0.0
H626 H 0.8552 0.13552 0.83344 0.0
H627 H 0.83053 0.13119 0.78856 0.0
H628 H 0.92995 0.28131 0.86904 0.0
H629 H 0.98891 0.14102 0.8494 0.0
H630 H 0.96212 0.16224 0.82516 0.0
H631 H 0.92033 0.11046 0.84613 0.0
C632 C 0.92155 0.25721 0.79156 0.0
C633 C 0.88466 0.21073 0.78091 0.0
C634 C 0.93636 0.25951 0.81673 0.0
C635 C 0.91421 0.2154 0.83181 0.0
C636 C 0.87373 0.16977 0.82188 0.0
H637 H 0.93796 0.19671 0.99136 0.0
H638 H 0.92701 0.22063 0.94896 0.0
C639 C 0.85913 0.16736 0.79643 0.0
C640 C 0.93628 0.21693 0.85716 0.0
H641 H 0.98501 0.15828 0.89357 0.0
C642 C 0.94223 0.25456 0.8744 0.0
C643 C 0.95502 0.18403 0.86368 0.0
C644 C 0.95675 0.14761 0.84493 0.0
C645 C 0.96413 0.25855 0.89839 0.0
C646 C 0.97779 0.22208 0.90592 0.0
C647 C 0.97395 0.18594 0.88819 0.0
C648 C 0.9913 0.21723 0.93254 0.0
C649 C 0.97315 0.30249 0.91506 0.0
C650 C 0.03127 0.20724 0.93784 0.0
C651 C 0.03633 0.19145 0.96214 0.0
C652 C 1.00212 0.1864 0.98157 0.0
C653 C 0.96528 0.20078 0.97682 0.0
C654 C 0.95923 0.21499 0.95247 0.0
H655 H 0.98323 0.3369 0.90341 0.0
H656 H 0.93717 0.29243 0.92549 0.0
H657 H 1.00449 0.31227 0.92893 0.0
H658 H 0.05666 0.20875 0.92285 0.0
H659 H 0.06484 0.18023 0.9653 0.0
H660 H 0.86993 0.85239 0.12437 0.0
H661 H 0.83462 0.82419 0.16705 0.0
H662 H 0.70118 0.83423 0.14621 0.0
H663 H 0.7349 0.85937 0.10336 0.0
H664 H 0.8267 0.88644 0.19641 0.0
H665 H 0.63412 0.71499 0.19194 0.0
H666 H 0.67812 0.73561 0.16539 0.0
H667 H 0.63729 0.76242 0.1705 0.0
C668 C 0.83197 0.84618 0.12866 0.0
C669 C 0.80513 0.85819 0.11078 0.0
C670 C 0.81194 0.83036 0.15303 0.0
C671 C 0.76524 0.82711 0.15987 0.0
C672 C 0.73661 0.8352 0.14131 0.0
H673 H 0.72347 0.91698 0.31004 0.0
H674 H 0.73232 0.91278 0.26387 0.0
C675 C 0.75609 0.8499 0.1168 0.0
C676 C 0.75114 0.82448 0.18694 0.0
H677 H 0.64999 0.76977 0.22822 0.0
C678 C 0.78824 0.86031 0.20343 0.0
C679 C 0.7011 0.79038 0.19616 0.0
C680 C 0.66068 0.74839 0.18006 0.0
C681 C 0.7764 0.86376 0.22873 0.0
C682 C 0.72542 0.83189 0.23748 0.0
C683 C 0.68865 0.79516 0.22122 0.0
C684 C 0.71082 0.83311 0.26408 0.0
C685 C 0.81896 0.90099 0.24584 0.0
C686 C 0.69183 0.78887 0.27893 0.0
C687 C 0.68557 0.79099 0.30492 0.0
C688 C 0.69883 0.83747 0.31647 0.0
C689 C 0.71347 0.88087 0.30144 0.0
C690 C 0.71912 0.87858 0.27523 0.0
H691 H 0.85755 0.91137 0.23832 0.0
H692 H 0.81718 0.93651 0.2471 0.0
H693 H 0.81516 0.88518 0.26528 0.0
H694 H 0.68469 0.7533 0.27069 0.0
H695 H 0.67336 0.75682 0.3162 0.0
H696 H 0.82003 0.74036 0.43261 0.0
H697 H 0.85124 0.75706 0.47669 0.0
H698 H 0.86063 0.90337 0.47335 0.0
H699 H 0.82988 0.88709 0.42977 0.0
H700 H 0.94466 0.83979 0.49629 0.0
H701 H 0.77324 0.83695 0.53704 0.0
H702 H 0.77313 0.81284 0.50578 0.0
H703 H 0.80192 0.88027 0.51082 0.0
C704 C 0.82853 0.77588 0.44141 0.0
C705 C 0.8217 0.81202 0.4279 0.0
C706 C 0.84643 0.78545 0.46651 0.0
C707 C 0.85734 0.83108 0.47845 0.0
C708 C 0.8514 0.86745 0.46475 0.0
H709 H 0.04017 0.97683 0.61202 0.0
H710 H 1.00459 0.95425 0.56923 0.0
C711 C 0.83382 0.85804 0.43978 0.0
C712 C 0.87572 0.84153 0.5051 0.0
H713 H 0.84743 0.86976 0.56344 0.0
C714 C 0.92323 0.84589 0.51105 0.0
C715 C 0.84766 0.8494 0.52434 0.0
C716 C 0.79589 0.84415 0.51929 0.0
C717 C 0.94402 0.85912 0.53558 0.0
C718 C 0.9166 0.86848 0.55462 0.0
C719 C 0.86853 0.86288 0.54881 0.0
C720 C 0.93696 0.88378 0.58073 0.0
C721 C 0.99504 0.86276 0.54095 0.0
C722 C 0.90976 0.85284 0.60158 0.0
C723 C 0.92975 0.86612 0.62613 0.0
C724 C 0.97707 0.91079 0.63024 0.0
C725 C 1.00336 0.94256 0.60947 0.0
C726 C 0.98342 0.92928 0.58495 0.0
H727 H 1.00453 0.84216 0.52655 0.0
H728 H 0.02592 0.90339 0.54048 0.0
H729 H 0.99506 0.84706 0.56003 0.0
H730 H 0.87364 0.81776 0.59879 0.0
H731 H 0.90876 0.84082 0.64178 0.0
H732 H 0.23123 0.87947 0.78746 0.0
H733 H 0.25854 0.86636 0.82957 0.0
H734 H 0.22562 0.97744 0.86118 0.0
H735 H 0.19826 0.99051 0.81958 0.0
H736 H 0.33764 0.96707 0.86849 0.0
H737 H 0.13988 0.82056 0.89906 0.0
H738 H 0.16281 0.82387 0.86695 0.0
H739 H 0.14687 0.87008 0.87761 0.0
C740 C 0.2304 0.90139 0.8034 0.0
C741 C 0.21277 0.93606 0.80034 0.0
C742 C 0.24581 0.89375 0.82734 0.0
C743 C 0.2436 0.92069 0.84835 0.0
C744 C 0.2272 0.95612 0.84514 0.0
H745 H 0.26695 0.02417 0.98379 0.0
H746 H 0.26585 0.9951 0.94113 0.0
C747 C 0.21182 0.96368 0.82137 0.0
C748 C 0.25739 0.91228 0.87404 0.0
H749 H 0.20054 0.86557 0.93151 0.0
C750 C 0.30822 0.94325 0.88219 0.0
C751 C 0.21879 0.88125 0.89175 0.0
C752 C 0.16392 0.84671 0.88356 0.0
C753 C 0.32041 0.94762 0.9081 0.0
C754 C 0.28076 0.92053 0.92601 0.0
C755 C 0.23097 0.88577 0.91764 0.0
C756 C 0.28634 0.93905 0.95224 0.0
C757 C 0.37437 0.9852 0.91643 0.0
C758 C 0.29873 0.91734 0.97268 0.0
C759 C 0.30057 0.93517 0.99747 0.0
C760 C 0.28965 0.9744 1.00178 0.0
C761 C 0.27763 0.99563 0.98107 0.0
C762 C 0.27627 0.97847 0.95664 0.0
H763 H 0.40259 0.99508 0.90075 0.0
H764 H 0.37584 0.02067 0.92281 0.0
H765 H 0.38571 0.9696 0.93269 0.0
H766 H 0.30625 0.88651 0.96951 0.0
H767 H 0.30938 0.91774 1.01318 0.0
loop_
_geom_bond_atom_site_label_1
_geom_bond_atom_site_label_2
_geom_bond_distance
_geom_bond_site_symmetry_2
_ccdc_geom_bond_type
Tb0 O3 2.453 1_556 S
Tb0 O4 2.596 1_556 S
Tb0 O5 2.374 1_556 S
Tb0 O13 2.343 . S
Tb0 O15 2.353 1_556 S
Tb0 O17 2.427 . S
Tb0 O18 2.513 . S
C1 O5 1.251 . S
C1 O7 1.263 1_545 S
Tb2 O4 2.343 1_565 S
Tb2 O7 2.353 . S
Tb2 O10 2.427 . S
Tb2 O11 2.513 . S
Tb2 O12 2.453 1_554 S
Tb2 O13 2.596 1_564 S
Tb2 O14 2.374 . S
O3 Tb0 2.453 1_554 S
O3 C19 1.245 . S
O4 Tb0 2.596 1_554 S
O4 Tb2 2.343 1_545 S
O4 C19 1.259 . S
O5 Tb0 2.374 1_554 S
O5 C1 1.251 . S
C6 O10 1.275 . S
C6 O11 1.246 . S
O7 C1 1.263 1_565 S
O7 Tb2 2.353 . S
C8 O12 1.245 . S
C8 O13 1.259 1_565 S
C9 O14 1.250 1_545 S
C9 O15 1.263 . S
O10 Tb2 2.427 . S
O10 C6 1.275 . S
O11 Tb2 2.513 . S
O11 C6 1.246 . S
O12 Tb2 2.453 1_556 S
O12 C8 1.245 . S
O13 Tb0 2.343 . S
O13 Tb2 2.596 1_546 S
O13 C8 1.259 1_545 S
O14 Tb2 2.374 . S
O14 C9 1.250 1_565 S
O15 Tb0 2.353 1_554 S
O15 C9 1.263 . S
C16 O17 1.275 . S
C16 O18 1.246 . S
O17 Tb0 2.427 . S
O17 C16 1.275 . S
O18 Tb0 2.513 . S
O18 C16 1.246 . S
C19 O3 1.245 . S
C19 O4 1.259 . S
Tb20 O23 2.453 . S
Tb20 O24 2.596 . S
Tb20 O25 2.374 . S
Tb20 O33 2.343 . S
Tb20 O35 2.353 . S
Tb20 O37 2.427 . S
Tb20 O38 2.513 . S
C21 O25 1.251 . S
C21 O27 1.263 . S
Tb22 O24 2.343 . S
Tb22 O27 2.353 . S
Tb22 O30 2.427 . S
Tb22 O31 2.513 . S
Tb22 O32 2.453 . S
Tb22 O33 2.596 . S
Tb22 O34 2.374 . S
O23 Tb20 2.453 . S
O23 C39 1.245 . S
O24 Tb20 2.596 . S
O24 Tb22 2.343 . S
O24 C39 1.259 . S
O25 Tb20 2.374 . S
O25 C21 1.251 . S
C26 O30 1.275 . S
C26 O31 1.246 . S
O27 C21 1.263 . S
O27 Tb22 2.353 . S
C28 O32 1.245 . S
C28 O33 1.259 . S
C29 O34 1.250 . S
C29 O35 1.263 . S
O30 Tb22 2.427 . S
O30 C26 1.275 . S
O31 Tb22 2.513 . S
O31 C26 1.246 . S
O32 Tb22 2.453 . S
O32 C28 1.245 . S
O33 Tb20 2.343 . S
O33 Tb22 2.596 . S
O33 C28 1.259 . S
O34 Tb22 2.374 . S
O34 C29 1.250 . S
O35 Tb20 2.353 . S
O35 C29 1.263 . S
C36 O37 1.275 . S
C36 O38 1.246 . S
O37 Tb20 2.427 . S
O37 C36 1.275 . S
O38 Tb20 2.513 . S
O38 C36 1.246 . S
C39 O23 1.245 . S
C39 O24 1.259 . S
Tb40 O43 2.453 . S
Tb40 O44 2.596 1_655 S
Tb40 O45 2.374 . S
Tb40 O53 2.343 1_655 S
Tb40 O55 2.353 . S
Tb40 O57 2.427 . S
Tb40 O58 2.513 . S
C41 O45 1.251 1_455 S
C41 O47 1.263 . S
Tb42 O44 2.343 . S
Tb42 O47 2.353 . S
Tb42 O50 2.427 . S
Tb42 O51 2.513 . S
Tb42 O52 2.453 . S
Tb42 O53 2.596 . S
Tb42 O54 2.374 . S
O43 Tb40 2.453 . S
O43 C59 1.245 . S
O44 Tb40 2.596 1_455 S
O44 Tb42 2.343 . S
O44 C59 1.259 1_455 S
O45 Tb40 2.374 . S
O45 C41 1.251 1_655 S
C46 O50 1.275 . S
C46 O51 1.246 . S
O47 C41 1.263 . S
O47 Tb42 2.353 . S
C48 O52 1.245 . S
C48 O53 1.259 . S
C49 O54 1.250 . S
C49 O55 1.263 1_455 S
O50 Tb42 2.427 . S
O50 C46 1.275 . S
O51 Tb42 2.513 . S
O51 C46 1.246 . S
O52 Tb42 2.453 . S
O52 C48 1.245 . S
O53 Tb40 2.343 1_455 S
O53 Tb42 2.596 . S
O53 C48 1.259 . S
O54 Tb42 2.374 . S
O54 C49 1.250 . S
O55 Tb40 2.353 . S
O55 C49 1.263 1_655 S
C56 O57 1.275 . S
C56 O58 1.246 . S
O57 Tb40 2.427 . S
O57 C56 1.275 . S
O58 Tb40 2.513 . S
O58 C56 1.246 . S
C59 O43 1.245 . S
C59 O44 1.259 1_655 S
Tb60 O63 2.453 1_554 S
Tb60 O64 2.596 1_564 S
Tb60 O65 2.374 . S
Tb60 O73 2.343 1_565 S
Tb60 O75 2.353 . S
Tb60 O77 2.427 . S
Tb60 O78 2.513 . S
C61 O65 1.251 1_545 S
C61 O67 1.263 . S
Tb62 O64 2.343 . S
Tb62 O67 2.353 1_556 S
Tb62 O70 2.427 . S
Tb62 O71 2.513 . S
Tb62 O72 2.453 1_556 S
Tb62 O73 2.596 1_556 S
Tb62 O74 2.374 1_556 S
O63 Tb60 2.453 1_556 S
O63 C79 1.245 . S
O64 Tb60 2.596 1_546 S
O64 Tb62 2.343 . S
O64 C79 1.259 1_545 S
O65 Tb60 2.374 . S
O65 C61 1.251 1_565 S
C66 O70 1.275 . S
C66 O71 1.246 . S
O67 C61 1.263 . S
O67 Tb62 2.353 1_554 S
C68 O72 1.245 . S
C68 O73 1.259 . S
C69 O74 1.250 . S
C69 O75 1.263 1_545 S
O70 Tb62 2.427 . S
O70 C66 1.275 . S
O71 Tb62 2.513 . S
O71 C66 1.246 . S
O72 Tb62 2.453 1_554 S
O72 C68 1.245 . S
O73 Tb60 2.343 1_545 S
O73 Tb62 2.596 1_554 S
O73 C68 1.259 . S
O74 Tb62 2.374 1_554 S
O74 C69 1.250 . S
O75 Tb60 2.353 . S
O75 C69 1.263 1_565 S
C76 O77 1.275 . S
C76 O78 1.246 . S
O77 Tb60 2.427 . S
O77 C76 1.275 . S
O78 Tb60 2.513 . S
O78 C76 1.246 . S
C79 O63 1.245 . S
C79 O64 1.259 1_565 S
Tb80 O83 2.453 . S
Tb80 O84 2.596 . S
Tb80 O85 2.374 . S
Tb80 O93 2.343 . S
Tb80 O95 2.353 . S
Tb80 O97 2.427 . S
Tb80 O98 2.513 . S
C81 O85 1.251 . S
C81 O87 1.263 . S
Tb82 O84 2.343 . S
Tb82 O87 2.353 . S
Tb82 O90 2.427 . S
Tb82 O91 2.513 . S
Tb82 O92 2.453 . S
Tb82 O93 2.596 . S
Tb82 O94 2.374 . S
O83 Tb80 2.453 . S
O83 C99 1.245 . S
O84 Tb80 2.596 . S
O84 Tb82 2.343 . S
O84 C99 1.259 . S
O85 Tb80 2.374 . S
O85 C81 1.251 . S
C86 O90 1.275 . S
C86 O91 1.246 . S
O87 C81 1.263 . S
O87 Tb82 2.353 . S
C88 O92 1.245 . S
C88 O93 1.259 . S
C89 O94 1.250 . S
C89 O95 1.263 . S
O90 Tb82 2.427 . S
O90 C86 1.275 . S
O91 Tb82 2.513 . S
O91 C86 1.246 . S
O92 Tb82 2.453 . S
O92 C88 1.245 . S
O93 Tb80 2.343 . S
O93 Tb82 2.596 . S
O93 C88 1.259 . S
O94 Tb82 2.374 . S
O94 C89 1.250 . S
O95 Tb80 2.353 . S
O95 C89 1.263 . S
C96 O97 1.275 . S
C96 O98 1.246 . S
O97 Tb80 2.427 . S
O97 C96 1.275 . S
O98 Tb80 2.513 . S
O98 C96 1.246 . S
C99 O83 1.245 . S
C99 O84 1.259 . S
Tb100 O103 2.453 . S
Tb100 O104 2.596 . S
Tb100 O105 2.374 . S
Tb100 O113 2.343 . S
Tb100 O115 2.353 . S
Tb100 O117 2.427 . S
Tb100 O118 2.513 . S
C101 O105 1.251 . S
C101 O107 1.263 1_455 S
Tb102 O104 2.343 1_655 S
Tb102 O107 2.353 . S
Tb102 O110 2.427 . S
Tb102 O111 2.513 . S
Tb102 O112 2.453 . S
Tb102 O113 2.596 1_655 S
Tb102 O114 2.374 . S
O103 Tb100 2.453 . S
O103 C119 1.245 . S
O104 Tb100 2.596 . S
O104 Tb102 2.343 1_455 S
O104 C119 1.259 . S
O105 Tb100 2.374 . S
O105 C101 1.251 . S
C106 O110 1.275 . S
C106 O111 1.246 . S
O107 C101 1.263 1_655 S
O107 Tb102 2.353 . S
C108 O112 1.245 . S
C108 O113 1.259 1_655 S
C109 O114 1.250 1_455 S
C109 O115 1.263 . S
O110 Tb102 2.427 . S
O110 C106 1.275 . S
O111 Tb102 2.513 . S
O111 C106 1.246 . S
O112 Tb102 2.453 . S
O112 C108 1.245 . S
O113 Tb100 2.343 . S
O113 Tb102 2.596 1_455 S
O113 C108 1.259 1_455 S
O114 Tb102 2.374 . S
O114 C109 1.250 1_655 S
O115 Tb100 2.353 . S
O115 C109 1.263 . S
C116 O117 1.275 . S
C116 O118 1.246 . S
O117 Tb100 2.427 . S
O117 C116 1.275 . S
O118 Tb100 2.513 . S
O118 C116 1.246 . S
C119 O103 1.245 . S
C119 O104 1.259 . S
H120 C128 0.929 . S
H121 C130 0.930 . S
H122 C132 0.932 . S
H123 C135 0.929 1_565 S
H124 C138 0.930 . S
H125 C140 0.960 . S
H126 C140 0.960 . S
H127 C140 0.960 1_554 S
C128 H120 0.929 . S
C128 C129 1.377 1_556 S
C128 C130 1.384 . S
C129 C128 1.377 1_554 S
C129 C135 1.390 . S
C130 H121 0.930 . S
C130 C128 1.384 . S
C130 C131 1.372 1_556 S
C131 C130 1.372 1_554 S
C131 C132 1.399 1_545 S
C131 C136 1.490 . S
C132 H122 0.932 . S
C132 C131 1.399 1_565 S
C132 C135 1.384 1_565 S
H133 C149 0.930 . S
H134 C150 0.931 1_565 S
C135 H123 0.929 1_545 S
C135 C129 1.390 . S
C135 C132 1.384 1_545 S
C136 C131 1.490 . S
C136 C138 1.395 1_655 S
C136 C139 1.400 1_544 S
H137 C143 0.929 1_556 S
C138 H124 0.930 . S
C138 C136 1.395 1_455 S
C138 C141 1.403 . S
C139 C136 1.400 1_566 S
C139 C140 1.528 . S
C139 C143 1.399 1_656 S
C140 H125 0.960 . S
C140 H126 0.960 . S
C140 H127 0.960 1_556 S
C140 C139 1.528 . S
C141 C138 1.403 . S
C141 C142 1.392 . S
C141 C145 1.495 . S
C142 C141 1.392 . S
C142 C143 1.385 1_545 S
C142 C144 1.478 . S
C143 H137 0.929 1_554 S
C143 C139 1.399 1_454 S
C143 C142 1.385 1_565 S
C144 C142 1.478 . S
C144 C146 1.381 1_554 S
C144 C150 1.383 . S
C145 C141 1.495 . S
C145 H151 0.959 . S
C145 H152 0.961 . S
C145 H153 0.960 1_554 S
C146 C144 1.381 1_556 S
C146 C147 1.394 . S
C146 H154 0.930 . S
C147 C146 1.394 . S
C147 C148 1.383 1_556 S
C147 H155 0.929 . S
C148 C147 1.383 1_554 S
C148 C149 1.377 1_545 S
C149 H133 0.930 . S
C149 C148 1.377 1_565 S
C149 C150 1.379 1_565 S
C150 H134 0.931 1_545 S
C150 C144 1.383 . S
C150 C149 1.379 1_545 S
H151 C145 0.959 . S
H152 C145 0.961 . S
H153 C145 0.960 1_556 S
H154 C146 0.930 . S
H155 C147 0.929 . S
H156 C164 0.929 . S
H157 C166 0.930 . S
H158 C168 0.930 . S
H159 C171 0.929 . S
H160 C174 0.930 1_655 S
H161 C176 0.960 . S
H162 C176 0.960 1_565 S
H163 C176 0.960 1_565 S
C164 H156 0.929 . S
C164 C165 1.377 . S
C164 C166 1.384 . S
C165 C164 1.377 . S
C165 C171 1.390 . S
C166 H157 0.930 . S
C166 C164 1.384 . S
C166 C167 1.372 . S
C167 C166 1.372 . S
C167 C168 1.400 . S
C167 C172 1.490 . S
C168 H158 0.930 . S
C168 C167 1.400 . S
C168 C171 1.386 . S
H169 C185 0.930 . S
H170 C186 0.931 . S
C171 H159 0.929 . S
C171 C165 1.390 . S
C171 C168 1.386 . S
C172 C167 1.490 . S
C172 C174 1.395 1_655 S
C172 C175 1.403 1_565 S
H173 C179 0.930 . S
C174 H160 0.930 1_455 S
C174 C172 1.395 1_455 S
C174 C177 1.403 1_565 S
C175 C172 1.403 1_545 S
C175 C176 1.524 . S
C175 C179 1.400 1_655 S
C176 H161 0.960 . S
C176 H162 0.960 1_545 S
C176 H163 0.960 1_545 S
C176 C175 1.524 . S
C177 C174 1.403 1_545 S
C177 C178 1.392 . S
C177 C181 1.495 . S
C178 C177 1.392 . S
C178 C179 1.385 . S
C178 C180 1.478 . S
C179 H173 0.930 . S
C179 C175 1.400 1_455 S
C179 C178 1.385 . S
C180 C178 1.478 . S
C180 C182 1.381 . S
C180 C186 1.383 . S
C181 C177 1.495 . S
C181 H187 0.959 1_545 S
C181 H188 0.961 . S
C181 H189 0.960 . S
C182 C180 1.381 . S
C182 C183 1.394 . S
C182 H190 0.930 . S
C183 C182 1.394 . S
C183 C184 1.383 . S
C183 H191 0.929 . S
C184 C183 1.383 . S
C184 C185 1.377 . S
C185 H169 0.930 . S
C185 C184 1.377 . S
C185 C186 1.379 . S
C186 H170 0.931 . S
C186 C180 1.383 . S
C186 C185 1.379 . S
H187 C181 0.959 1_565 S
H188 C181 0.961 . S
H189 C181 0.960 . S
H190 C182 0.930 . S
H191 C183 0.929 . S
H192 C200 0.929 . S
H193 C202 0.930 . S
H194 C204 0.930 . S
H195 C207 0.929 . S
H196 C210 0.930 . S
H197 C212 0.960 . S
H198 C212 0.960 . S
H199 C212 0.960 . S
C200 H192 0.929 . S
C200 C201 1.377 1_655 S
C200 C202 1.384 . S
C201 C200 1.377 1_455 S
C201 C207 1.390 . S
C202 H193 0.930 . S
C202 C200 1.384 . S
C202 C203 1.372 1_655 S
C203 C202 1.372 1_455 S
C203 C204 1.400 . S
C203 C208 1.490 . S
C204 H194 0.930 . S
C204 C203 1.400 . S
C204 C207 1.386 . S
H205 C221 0.930 . S
H206 C222 0.931 . S
C207 H195 0.929 . S
C207 C201 1.390 . S
C207 C204 1.386 . S
C208 C203 1.490 . S
C208 C210 1.395 1_455 S
C208 C211 1.403 1_565 S
H209 C215 0.930 . S
C210 H196 0.930 . S
C210 C208 1.395 1_655 S
C210 C213 1.403 1_565 S
C211 C208 1.403 1_545 S
C211 C212 1.524 . S
C211 C215 1.400 . S
C212 H197 0.960 . S
C212 H198 0.960 . S
C212 H199 0.960 . S
C212 C211 1.524 . S
C213 C210 1.403 1_545 S
C213 C214 1.392 1_655 S
C213 C217 1.495 . S
C214 C213 1.392 1_455 S
C214 C215 1.385 . S
C214 C216 1.478 . S
C215 H209 0.930 . S
C215 C211 1.400 . S
C215 C214 1.385 . S
C216 C214 1.478 . S
C216 C218 1.385 . S
C216 C222 1.383 . S
C217 C213 1.495 . S
C217 H223 0.959 1_545 S
C217 H224 0.961 . S
C217 H225 0.960 . S
C218 C216 1.385 . S
C218 C219 1.392 . S
C218 H226 0.929 1_455 S
C219 C218 1.392 . S
C219 C220 1.383 . S
C219 H227 0.929 1_455 S
C220 C219 1.383 . S
C220 C221 1.377 . S
C221 H205 0.930 . S
C221 C220 1.377 . S
C221 C222 1.379 . S
C222 H206 0.931 . S
C222 C216 1.383 . S
C222 C221 1.379 . S
H223 C217 0.959 1_565 S
H224 C217 0.961 . S
H225 C217 0.960 . S
H226 C218 0.929 1_655 S
H227 C219 0.929 1_655 S
H228 C236 0.929 . S
H229 C238 0.930 . S
H230 C240 0.930 . S
H231 C243 0.929 . S
H232 C246 0.930 . S
H233 C248 0.960 . S
H234 C248 0.960 . S
H235 C248 0.960 . S
C236 H228 0.929 . S
C236 C237 1.377 . S
C236 C238 1.384 . S
C237 C236 1.377 . S
C237 C243 1.390 . S
C238 H229 0.930 . S
C238 C236 1.384 . S
C238 C239 1.372 . S
C239 C238 1.372 . S
C239 C240 1.400 . S
C239 C244 1.490 . S
C240 H230 0.930 . S
C240 C239 1.400 . S
C240 C243 1.386 . S
H241 C257 0.930 . S
H242 C258 0.931 . S
C243 H231 0.929 . S
C243 C237 1.390 . S
C243 C240 1.386 . S
C244 C239 1.490 . S
C244 C246 1.395 . S
C244 C247 1.403 . S
H245 C251 0.930 . S
C246 H232 0.930 . S
C246 C244 1.395 . S
C246 C249 1.403 . S
C247 C244 1.403 . S
C247 C248 1.524 . S
C247 C251 1.400 . S
C248 H233 0.960 . S
C248 H234 0.960 . S
C248 H235 0.960 . S
C248 C247 1.524 . S
C249 C246 1.403 . S
C249 C250 1.392 . S
C249 C253 1.495 . S
C250 C249 1.392 . S
C250 C251 1.385 . S
C250 C252 1.478 . S
C251 H245 0.930 . S
C251 C247 1.400 . S
C251 C250 1.385 . S
C252 C250 1.478 . S
C252 C254 1.381 . S
C252 C258 1.383 . S
C253 C249 1.495 . S
C253 H259 0.959 . S
C253 H260 0.961 . S
C253 H261 0.960 . S
C254 C252 1.381 . S
C254 C255 1.394 . S
C254 H262 0.930 . S
C255 C254 1.394 . S
C255 C256 1.383 . S
C255 H263 0.929 . S
C256 C255 1.383 . S
C256 C257 1.377 . S
C257 H241 0.930 . S
C257 C256 1.377 . S
C257 C258 1.379 . S
C258 H242 0.931 . S
C258 C252 1.383 . S
C258 C257 1.379 . S
H259 C253 0.959 . S
H260 C253 0.961 . S
H261 C253 0.960 . S
H262 C254 0.930 . S
H263 C255 0.929 . S
H264 C272 0.929 . S
H265 C274 0.930 . S
H266 C276 0.930 . S
H267 C279 0.929 . S
H268 C282 0.930 . S
H269 C284 0.960 . S
H270 C284 0.960 1_455 S
H271 C284 0.960 . S
C272 H264 0.929 . S
C272 C273 1.377 . S
C272 C274 1.384 . S
C273 C272 1.377 . S
C273 C279 1.390 . S
C274 H265 0.930 . S
C274 C272 1.384 . S
C274 C275 1.372 . S
C275 C274 1.372 . S
C275 C276 1.400 . S
C275 C280 1.490 . S
C276 H266 0.930 . S
C276 C275 1.400 . S
C276 C279 1.386 . S
H277 C293 0.930 . S
H278 C294 0.931 . S
C279 H267 0.929 . S
C279 C273 1.390 . S
C279 C276 1.386 . S
C280 C275 1.490 . S
C280 C282 1.395 . S
C280 C283 1.403 . S
H281 C287 0.930 . S
C282 H268 0.930 . S
C282 C280 1.395 . S
C282 C285 1.403 . S
C283 C280 1.403 . S
C283 C284 1.524 1_455 S
C283 C287 1.400 1_455 S
C284 H269 0.960 . S
C284 H270 0.960 1_655 S
C284 H271 0.960 . S
C284 C283 1.524 1_655 S
C285 C282 1.403 . S
C285 C286 1.392 1_455 S
C285 C289 1.495 . S
C286 C285 1.392 1_655 S
C286 C287 1.385 . S
C286 C288 1.478 . S
C287 H281 0.930 . S
C287 C283 1.400 1_655 S
C287 C286 1.385 . S
C288 C286 1.478 . S
C288 C290 1.381 . S
C288 C294 1.383 . S
C289 C285 1.495 . S
C289 H295 0.959 . S
C289 H296 0.961 . S
C289 H297 0.960 . S
C290 C288 1.381 . S
C290 C291 1.394 . S
C290 H298 0.930 1_655 S
C291 C290 1.394 . S
C291 C292 1.383 . S
C291 H299 0.929 . S
C292 C291 1.383 . S
C292 C293 1.377 . S
C293 H277 0.930 . S
C293 C292 1.377 . S
C293 C294 1.379 . S
C294 H278 0.931 . S
C294 C288 1.383 . S
C294 C293 1.379 . S
H295 C289 0.959 . S
H296 C289 0.961 . S
H297 C289 0.960 . S
H298 C290 0.930 1_455 S
H299 C291 0.929 . S
H300 C308 0.929 . S
H301 C310 0.930 . S
H302 C312 0.930 . S
H303 C315 0.929 . S
H304 C318 0.930 . S
H305 C320 0.960 . S
H306 C320 0.960 1_545 S
H307 C320 0.960 . S
C308 H300 0.929 . S
C308 C309 1.377 . S
C308 C310 1.384 . S
C309 C308 1.377 . S
C309 C315 1.390 . S
C310 H301 0.930 . S
C310 C308 1.384 . S
C310 C311 1.372 . S
C311 C310 1.372 . S
C311 C312 1.400 . S
C311 C316 1.490 . S
C312 H302 0.930 . S
C312 C311 1.400 . S
C312 C315 1.386 . S
H313 C329 0.930 . S
H314 C330 0.931 . S
C315 H303 0.929 . S
C315 C309 1.390 . S
C315 C312 1.386 . S
C316 C311 1.490 . S
C316 C318 1.395 . S
C316 C319 1.403 . S
H317 C323 0.930 . S
C318 H304 0.930 . S
C318 C316 1.395 . S
C318 C321 1.403 . S
C319 C316 1.403 . S
C319 C320 1.524 1_545 S
C319 C323 1.400 1_545 S
C320 H305 0.960 . S
C320 H306 0.960 1_565 S
C320 H307 0.960 . S
C320 C319 1.524 1_565 S
C321 C318 1.403 . S
C321 C322 1.392 1_545 S
C321 C325 1.495 . S
C322 C321 1.392 1_565 S
C322 C323 1.385 . S
C322 C324 1.478 . S
C323 H317 0.930 . S
C323 C319 1.400 1_565 S
C323 C322 1.385 . S
C324 C322 1.478 . S
C324 C326 1.381 . S
C324 C330 1.383 . S
C325 C321 1.495 . S
C325 H331 0.959 . S
C325 H332 0.961 . S
C325 H333 0.960 . S
C326 C324 1.381 . S
C326 C327 1.394 . S
C326 H334 0.930 1_565 S
C327 C326 1.394 . S
C327 C328 1.383 . S
C327 H335 0.929 . S
C328 C327 1.383 . S
C328 C329 1.377 . S
C329 H313 0.930 . S
C329 C328 1.377 . S
C329 C330 1.379 . S
C330 H314 0.931 . S
C330 C324 1.383 . S
C330 C329 1.379 . S
H331 C325 0.959 . S
H332 C325 0.961 . S
H333 C325 0.960 . S
H334 C326 0.930 1_545 S
H335 C327 0.929 . S
H336 C344 0.929 . S
H337 C346 0.930 . S
H338 C348 0.930 . S
H339 C351 0.929 . S
H340 C354 0.930 . S
H341 C356 0.960 . S
H342 C356 0.960 . S
H343 C356 0.960 . S
C344 H336 0.929 . S
C344 C345 1.377 . S
C344 C346 1.384 . S
C345 C344 1.377 . S
C345 C351 1.390 . S
C346 H337 0.930 . S
C346 C344 1.384 . S
C346 C347 1.372 . S
C347 C346 1.372 . S
C347 C348 1.400 . S
C347 C352 1.490 . S
C348 H338 0.930 . S
C348 C347 1.400 . S
C348 C351 1.386 . S
H349 C365 0.930 1_455 S
H350 C366 0.931 . S
C351 H339 0.929 . S
C351 C345 1.390 . S
C351 C348 1.386 . S
C352 C347 1.490 . S
C352 C354 1.395 . S
C352 C355 1.403 . S
H353 C359 0.930 . S
C354 H340 0.930 . S
C354 C352 1.395 . S
C354 C357 1.403 . S
C355 C352 1.403 . S
C355 C356 1.524 . S
C355 C359 1.400 . S
C356 H341 0.960 . S
C356 H342 0.960 . S
C356 H343 0.960 . S
C356 C355 1.524 . S
C357 C354 1.403 . S
C357 C358 1.392 . S
C357 C361 1.495 . S
C358 C357 1.392 . S
C358 C359 1.385 . S
C358 C360 1.478 . S
C359 H353 0.930 . S
C359 C355 1.400 . S
C359 C358 1.385 . S
C360 C358 1.478 . S
C360 C362 1.381 . S
C360 C366 1.383 . S
C361 C357 1.495 . S
C361 H367 0.959 . S
C361 H368 0.961 . S
C361 H369 0.960 . S
C362 C360 1.381 . S
C362 C363 1.394 . S
C362 H370 0.930 . S
C363 C362 1.394 . S
C363 C364 1.383 . S
C363 H371 0.929 . S
C364 C363 1.383 . S
C364 C365 1.377 . S
C365 H349 0.930 1_655 S
C365 C364 1.377 . S
C365 C366 1.379 . S
C366 H350 0.931 . S
C366 C360 1.383 . S
C366 C365 1.379 . S
H367 C361 0.959 . S
H368 C361 0.961 . S
H369 C361 0.960 . S
H370 C362 0.930 . S
H371 C363 0.929 . S
H372 C380 0.929 . S
H373 C382 0.930 1_455 S
H374 C384 0.930 . S
H375 C387 0.929 . S
H376 C390 0.934 1_655 S
H377 C392 0.960 1_455 S
H378 C392 0.960 1_455 S
H379 C392 0.960 . S
C380 H372 0.929 . S
C380 C381 1.377 . S
C380 C382 1.384 . S
C381 C380 1.377 . S
C381 C387 1.390 . S
C382 H373 0.930 1_655 S
C382 C380 1.384 . S
C382 C383 1.372 . S
C383 C382 1.372 . S
C383 C384 1.400 . S
C383 C388 1.490 . S
C384 H374 0.930 . S
C384 C383 1.400 . S
C384 C387 1.386 . S
H385 C401 0.930 . S
H386 C402 0.931 . S
C387 H375 0.929 . S
C387 C381 1.390 . S
C387 C384 1.386 . S
C388 C383 1.490 . S
C388 C390 1.395 1_655 S
C388 C391 1.403 1_655 S
H389 C395 0.930 . S
C390 H376 0.934 1_455 S
C390 C388 1.395 1_455 S
C390 C393 1.403 . S
C391 C388 1.403 1_455 S
C391 C392 1.524 1_455 S
C391 C395 1.400 . S
C392 H377 0.960 1_655 S
C392 H378 0.960 1_655 S
C392 H379 0.960 . S
C392 C391 1.524 1_655 S
C393 C390 1.403 . S
C393 C394 1.392 . S
C393 C397 1.495 . S
C394 C393 1.392 . S
C394 C395 1.385 . S
C394 C396 1.478 . S
C395 H389 0.930 . S
C395 C391 1.400 . S
C395 C394 1.385 . S
C396 C394 1.478 . S
C396 C398 1.381 . S
C396 C402 1.383 . S
C397 C393 1.495 . S
C397 H403 0.959 . S
C397 H404 0.961 . S
C397 H405 0.960 . S
C398 C396 1.381 . S
C398 C399 1.394 . S
C398 H406 0.930 . S
C399 C398 1.394 . S
C399 C400 1.383 . S
C399 H407 0.929 . S
C400 C399 1.383 . S
C400 C401 1.377 . S
C401 H385 0.930 . S
C401 C400 1.377 . S
C401 C402 1.379 . S
C402 H386 0.931 . S
C402 C396 1.383 . S
C402 C401 1.379 . S
H403 C397 0.959 . S
H404 C397 0.961 . S
H405 C397 0.960 . S
H406 C398 0.930 . S
H407 C399 0.929 . S
H408 C416 0.929 . S
H409 C418 0.930 . S
H410 C420 0.930 . S
H411 C423 0.929 . S
H412 C426 0.930 . S
H413 C428 0.960 . S
H414 C428 0.960 . S
H415 C428 0.960 . S
C416 H408 0.929 . S
C416 C417 1.377 . S
C416 C418 1.384 . S
C417 C416 1.377 . S
C417 C423 1.390 . S
C418 H409 0.930 . S
C418 C416 1.384 . S
C418 C419 1.372 . S
C419 C418 1.372 . S
C419 C420 1.400 . S
C419 C424 1.490 1_565 S
C420 H410 0.930 . S
C420 C419 1.400 . S
C420 C423 1.386 . S
H421 C437 0.930 . S
H422 C438 0.931 . S
C423 H411 0.929 . S
C423 C417 1.390 . S
C423 C420 1.386 . S
C424 C419 1.490 1_545 S
C424 C426 1.395 1_545 S
C424 C427 1.403 . S
H425 C431 0.930 . S
C426 H412 0.930 . S
C426 C424 1.395 1_565 S
C426 C429 1.403 1_565 S
C427 C424 1.403 . S
C427 C428 1.524 . S
C427 C431 1.400 . S
C428 H413 0.960 . S
C428 H414 0.960 . S
C428 H415 0.960 . S
C428 C427 1.524 . S
C429 C426 1.403 1_545 S
C429 C430 1.392 . S
C429 C433 1.495 1_545 S
C430 C429 1.392 . S
C430 C431 1.385 . S
C430 C432 1.478 . S
C431 H425 0.930 . S
C431 C427 1.400 . S
C431 C430 1.385 . S
C432 C430 1.478 . S
C432 C434 1.381 . S
C432 C438 1.383 . S
C433 C429 1.495 1_565 S
C433 H439 0.959 . S
C433 H440 0.961 . S
C433 H441 0.960 1_565 S
C434 C432 1.381 . S
C434 C435 1.394 . S
C434 H442 0.930 . S
C435 C434 1.394 . S
C435 C436 1.383 . S
C435 H443 0.929 . S
C436 C435 1.383 . S
C436 C437 1.377 . S
C437 H421 0.930 . S
C437 C436 1.377 . S
C437 C438 1.379 . S
C438 H422 0.931 . S
C438 C432 1.383 . S
C438 C437 1.379 . S
H439 C433 0.959 . S
H440 C433 0.961 . S
H441 C433 0.960 1_545 S
H442 C434 0.930 . S
H443 C435 0.929 . S
H444 C452 0.929 . S
H445 C454 0.930 . S
H446 C456 0.930 1_565 S
H447 C459 0.929 1_565 S
H448 C462 0.930 . S
H449 C464 0.960 . S
H450 C464 0.960 . S
H451 C464 0.960 . S
C452 H444 0.929 . S
C452 C453 1.377 1_556 S
C452 C454 1.384 . S
C453 C452 1.377 1_554 S
C453 C459 1.390 . S
C454 H445 0.930 . S
C454 C452 1.384 . S
C454 C455 1.372 1_556 S
C455 C454 1.372 1_554 S
C455 C456 1.400 . S
C455 C460 1.490 . S
C456 H446 0.930 1_545 S
C456 C455 1.400 . S
C456 C459 1.386 . S
H457 C473 0.930 . S
H458 C474 0.931 . S
C459 H447 0.929 1_545 S
C459 C453 1.390 . S
C459 C456 1.386 . S
C460 C455 1.490 . S
C460 C462 1.395 . S
C460 C463 1.403 1_545 S
H461 C467 0.930 . S
C462 H448 0.930 . S
C462 C460 1.395 . S
C462 C465 1.403 . S
C463 C460 1.403 1_565 S
C463 C464 1.524 . S
C463 C467 1.400 . S
C464 H449 0.960 . S
C464 H450 0.960 . S
C464 H451 0.960 . S
C464 C463 1.524 . S
C465 C462 1.403 . S
C465 C466 1.392 . S
C465 C469 1.495 . S
C466 C465 1.392 . S
C466 C467 1.385 1_545 S
C466 C468 1.478 . S
C467 H461 0.930 . S
C467 C463 1.400 . S
C467 C466 1.385 1_565 S
C468 C466 1.478 . S
C468 C470 1.381 1_554 S
C468 C474 1.383 . S
C469 C465 1.495 . S
C469 H475 0.959 . S
C469 H476 0.961 . S
C469 H477 0.960 . S
C470 C468 1.381 1_556 S
C470 C471 1.394 . S
C470 H478 0.930 . S
C471 C470 1.394 . S
C471 C472 1.383 1_556 S
C471 H479 0.929 . S
C472 C471 1.383 1_554 S
C472 C473 1.377 . S
C473 H457 0.930 . S
C473 C472 1.377 . S
C473 C474 1.379 . S
C474 H458 0.931 . S
C474 C468 1.383 . S
C474 C473 1.379 . S
H475 C469 0.959 . S
H476 C469 0.961 . S
H477 C469 0.960 . S
H478 C470 0.930 . S
H479 C471 0.929 . S
H480 C488 0.929 . S
H481 C490 0.930 . S
H482 C492 0.930 . S
H483 C495 0.929 . S
H484 C498 0.930 . S
H485 C500 0.960 . S
H486 C500 0.960 . S
H487 C500 0.960 . S
C488 H480 0.929 . S
C488 C489 1.377 . S
C488 C490 1.384 . S
C489 C488 1.377 . S
C489 C495 1.390 . S
C490 H481 0.930 . S
C490 C488 1.384 . S
C490 C491 1.372 . S
C491 C490 1.372 . S
C491 C492 1.400 . S
C491 C496 1.490 . S
C492 H482 0.930 . S
C492 C491 1.400 . S
C492 C495 1.386 . S
H493 C509 0.930 . S
H494 C510 0.931 . S
C495 H483 0.929 . S
C495 C489 1.390 . S
C495 C492 1.386 . S
C496 C491 1.490 . S
C496 C498 1.395 . S
C496 C499 1.403 . S
H497 C503 0.930 . S
C498 H484 0.930 . S
C498 C496 1.395 . S
C498 C501 1.403 . S
C499 C496 1.403 . S
C499 C500 1.524 . S
C499 C503 1.400 . S
C500 H485 0.960 . S
C500 H486 0.960 . S
C500 H487 0.960 . S
C500 C499 1.524 . S
C501 C498 1.403 . S
C501 C502 1.392 . S
C501 C505 1.495 . S
C502 C501 1.392 . S
C502 C503 1.385 . S
C502 C504 1.478 . S
C503 H497 0.930 . S
C503 C499 1.400 . S
C503 C502 1.385 . S
C504 C502 1.478 . S
C504 C506 1.381 . S
C504 C510 1.383 . S
C505 C501 1.495 . S
C505 H511 0.959 . S
C505 H512 0.961 . S
C505 H513 0.960 . S
C506 C504 1.381 . S
C506 C507 1.394 . S
C506 H514 0.930 . S
C507 C506 1.394 . S
C507 C508 1.383 . S
C507 H515 0.929 . S
C508 C507 1.383 . S
C508 C509 1.377 . S
C509 H493 0.930 . S
C509 C508 1.377 . S
C509 C510 1.379 . S
C510 H494 0.931 . S
C510 C504 1.383 . S
C510 C509 1.379 . S
H511 C505 0.959 . S
H512 C505 0.961 . S
H513 C505 0.960 . S
H514 C506 0.930 . S
H515 C507 0.929 . S
H516 C524 0.929 . S
H517 C526 0.930 . S
H518 C528 0.930 . S
H519 C531 0.929 . S
H520 C534 0.930 . S
H521 C536 0.960 . S
H522 C536 0.960 . S
H523 C536 0.960 . S
C524 H516 0.929 . S
C524 C525 1.377 . S
C524 C526 1.384 . S
C525 C524 1.377 . S
C525 C531 1.390 . S
C526 H517 0.930 . S
C526 C524 1.384 . S
C526 C527 1.372 . S
C527 C526 1.372 . S
C527 C528 1.400 . S
C527 C532 1.490 . S
C528 H518 0.930 . S
C528 C527 1.400 . S
C528 C531 1.386 . S
H529 C545 0.930 . S
H530 C546 0.931 . S
C531 H519 0.929 . S
C531 C525 1.390 . S
C531 C528 1.386 . S
C532 C527 1.490 . S
C532 C534 1.395 . S
C532 C535 1.403 1_455 S
H533 C539 0.930 . S
C534 H520 0.930 . S
C534 C532 1.395 . S
C534 C537 1.403 . S
C535 C532 1.403 1_655 S
C535 C536 1.524 . S
C535 C539 1.400 . S
C536 H521 0.960 . S
C536 H522 0.960 . S
C536 H523 0.960 . S
C536 C535 1.524 . S
C537 C534 1.403 . S
C537 C538 1.392 . S
C537 C541 1.495 . S
C538 C537 1.392 . S
C538 C539 1.385 1_455 S
C538 C540 1.478 . S
C539 H533 0.930 . S
C539 C535 1.400 . S
C539 C538 1.385 1_655 S
C540 C538 1.478 . S
C540 C542 1.381 . S
C540 C546 1.383 . S
C541 C537 1.495 . S
C541 H547 0.959 . S
C541 H548 0.961 . S
C541 H549 0.960 . S
C542 C540 1.381 . S
C542 C543 1.394 . S
C542 H550 0.930 . S
C543 C542 1.394 . S
C543 C544 1.383 . S
C543 H551 0.929 1_455 S
C544 C543 1.383 . S
C544 C545 1.377 . S
C545 H529 0.930 . S
C545 C544 1.377 . S
C545 C546 1.379 . S
C546 H530 0.931 . S
C546 C540 1.383 . S
C546 C545 1.379 . S
H547 C541 0.959 . S
H548 C541 0.961 . S
H549 C541 0.960 . S
H550 C542 0.930 . S
H551 C543 0.929 1_655 S
H552 C560 0.929 . S
H553 C562 0.930 . S
H554 C564 0.930 . S
H555 C567 0.929 . S
H556 C570 0.930 . S
H557 C572 0.960 . S
H558 C572 0.960 . S
H559 C572 0.960 . S
C560 H552 0.929 . S
C560 C561 1.377 . S
C560 C562 1.384 . S
C561 C560 1.377 . S
C561 C567 1.390 . S
C562 H553 0.930 . S
C562 C560 1.384 . S
C562 C563 1.372 . S
C563 C562 1.372 . S
C563 C564 1.400 . S
C563 C568 1.490 . S
C564 H554 0.930 . S
C564 C563 1.400 . S
C564 C567 1.386 . S
H565 C581 0.930 . S
H566 C582 0.931 . S
C567 H555 0.929 . S
C567 C561 1.390 . S
C567 C564 1.386 . S
C568 C563 1.490 . S
C568 C570 1.395 . S
C568 C571 1.403 . S
H569 C575 0.930 . S
C570 H556 0.930 . S
C570 C568 1.395 . S
C570 C573 1.403 . S
C571 C568 1.403 . S
C571 C572 1.524 . S
C571 C575 1.400 . S
C572 H557 0.960 . S
C572 H558 0.960 . S
C572 H559 0.960 . S
C572 C571 1.524 . S
C573 C570 1.403 . S
C573 C574 1.392 . S
C573 C577 1.495 . S
C574 C573 1.392 . S
C574 C575 1.385 . S
C574 C576 1.478 . S
C575 H569 0.930 . S
C575 C571 1.400 . S
C575 C574 1.385 . S
C576 C574 1.478 . S
C576 C578 1.381 . S
C576 C582 1.383 . S
C577 C573 1.495 . S
C577 H583 0.959 1_545 S
C577 H584 0.961 . S
C577 H585 0.960 . S
C578 C576 1.381 . S
C578 C579 1.394 . S
C578 H586 0.930 . S
C579 C578 1.394 . S
C579 C580 1.383 . S
C579 H587 0.929 . S
C580 C579 1.383 . S
C580 C581 1.377 . S
C581 H565 0.930 . S
C581 C580 1.377 . S
C581 C582 1.379 . S
C582 H566 0.931 . S
C582 C576 1.383 . S
C582 C581 1.379 . S
H583 C577 0.959 1_565 S
H584 C577 0.961 . S
H585 C577 0.960 . S
H586 C578 0.930 . S
H587 C579 0.929 . S
H588 C596 0.929 . S
H589 C598 0.930 . S
H590 C600 0.930 . S
H591 C603 0.929 . S
H592 C606 0.930 . S
H593 C608 0.960 . S
H594 C608 0.960 . S
H595 C608 0.960 . S
C596 H588 0.929 . S
C596 C597 1.377 . S
C596 C598 1.384 . S
C597 C596 1.377 . S
C597 C603 1.390 . S
C598 H589 0.930 . S
C598 C596 1.384 . S
C598 C599 1.372 . S
C599 C598 1.372 . S
C599 C600 1.400 . S
C599 C604 1.490 . S
C600 H590 0.930 . S
C600 C599 1.400 . S
C600 C603 1.386 . S
H601 C617 0.930 . S
H602 C618 0.931 . S
C603 H591 0.929 . S
C603 C597 1.390 . S
C603 C600 1.386 . S
C604 C599 1.490 . S
C604 C606 1.395 . S
C604 C607 1.403 . S
H605 C611 0.930 . S
C606 H592 0.930 . S
C606 C604 1.395 . S
C606 C609 1.403 . S
C607 C604 1.403 . S
C607 C608 1.524 . S
C607 C611 1.400 . S
C608 H593 0.960 . S
C608 H594 0.960 . S
C608 H595 0.960 . S
C608 C607 1.524 . S
C609 C606 1.403 . S
C609 C610 1.392 . S
C609 C613 1.495 . S
C610 C609 1.392 . S
C610 C611 1.385 . S
C610 C612 1.478 . S
C611 H605 0.930 . S
C611 C607 1.400 . S
C611 C610 1.385 . S
C612 C610 1.478 . S
C612 C614 1.381 . S
C612 C618 1.383 . S
C613 C609 1.495 . S
C613 H619 0.959 . S
C613 H620 0.961 . S
C613 H621 0.960 . S
C614 C612 1.381 . S
C614 C615 1.394 . S
C614 H622 0.930 . S
C615 C614 1.394 . S
C615 C616 1.383 . S
C615 H623 0.929 . S
C616 C615 1.383 . S
C616 C617 1.377 . S
C617 H601 0.930 . S
C617 C616 1.377 . S
C617 C618 1.379 . S
C618 H602 0.931 . S
C618 C612 1.383 . S
C618 C617 1.379 . S
H619 C613 0.959 . S
H620 C613 0.961 . S
H621 C613 0.960 . S
H622 C614 0.930 . S
H623 C615 0.929 . S
H624 C632 0.929 1_455 S
H625 C634 0.930 . S
H626 C636 0.930 . S
H627 C639 0.929 . S
H628 C642 0.930 . S
H629 C644 0.966 . S
H630 C644 0.965 . S
H631 C644 0.959 1_655 S
C632 H624 0.929 1_655 S
C632 C633 1.377 . S
C632 C634 1.384 . S
C633 C632 1.377 . S
C633 C639 1.390 . S
C634 H625 0.930 . S
C634 C632 1.384 . S
C634 C635 1.372 . S
C635 C634 1.372 . S
C635 C636 1.400 . S
C635 C640 1.490 . S
C636 H626 0.930 . S
C636 C635 1.400 . S
C636 C639 1.386 . S
H637 C653 0.930 . S
H638 C654 0.931 . S
C639 H627 0.929 . S
C639 C633 1.390 . S
C639 C636 1.386 . S
C640 C635 1.490 . S
C640 C642 1.395 . S
C640 C643 1.403 . S
H641 C647 0.930 . S
C642 H628 0.930 . S
C642 C640 1.395 . S
C642 C645 1.403 . S
C643 C640 1.403 . S
C643 C644 1.515 1_655 S
C643 C647 1.400 . S
C644 H629 0.966 . S
C644 H630 0.965 . S
C644 H631 0.959 1_455 S
C644 C643 1.515 1_455 S
C645 C642 1.403 . S
C645 C646 1.392 . S
C645 C649 1.495 . S
C646 C645 1.392 . S
C646 C647 1.385 . S
C646 C648 1.478 . S
C647 H641 0.930 . S
C647 C643 1.400 . S
C647 C646 1.385 . S
C648 C646 1.478 . S
C648 C650 1.381 . S
C648 C654 1.383 . S
C649 C645 1.495 . S
C649 H655 0.959 . S
C649 H656 0.961 . S
C649 H657 0.960 . S
C650 C648 1.381 . S
C650 C651 1.394 . S
C650 H658 0.930 . S
C651 C650 1.394 . S
C651 C652 1.383 . S
C651 H659 0.929 . S
C652 C651 1.383 . S
C652 C653 1.377 . S
C653 H637 0.930 . S
C653 C652 1.377 . S
C653 C654 1.379 . S
C654 H638 0.931 . S
C654 C648 1.383 . S
C654 C653 1.379 . S
H655 C649 0.959 . S
H656 C649 0.961 . S
H657 C649 0.960 . S
H658 C650 0.930 . S
H659 C651 0.929 . S
H660 C668 0.929 . S
H661 C670 0.930 . S
H662 C672 0.930 . S
H663 C675 0.929 . S
H664 C678 0.930 . S
H665 C680 0.960 . S
H666 C680 0.960 . S
H667 C680 0.960 . S
C668 H660 0.929 . S
C668 C669 1.377 . S
C668 C670 1.384 . S
C669 C668 1.377 . S
C669 C675 1.390 . S
C670 H661 0.930 . S
C670 C668 1.384 . S
C670 C671 1.372 . S
C671 C670 1.372 . S
C671 C672 1.400 . S
C671 C676 1.490 . S
C672 H662 0.930 . S
C672 C671 1.400 . S
C672 C675 1.386 . S
H673 C689 0.930 . S
H674 C690 0.931 . S
C675 H663 0.929 . S
C675 C669 1.390 . S
C675 C672 1.386 . S
C676 C671 1.490 . S
C676 C678 1.395 . S
C676 C679 1.403 . S
H677 C683 0.930 . S
C678 H664 0.930 . S
C678 C676 1.395 . S
C678 C681 1.403 . S
C679 C676 1.403 . S
C679 C680 1.524 . S
C679 C683 1.400 . S
C680 H665 0.960 . S
C680 H666 0.960 . S
C680 H667 0.960 . S
C680 C679 1.524 . S
C681 C678 1.403 . S
C681 C682 1.392 . S
C681 C685 1.495 . S
C682 C681 1.392 . S
C682 C683 1.385 . S
C682 C684 1.478 . S
C683 H677 0.930 . S
C683 C679 1.400 . S
C683 C682 1.385 . S
C684 C682 1.478 . S
C684 C686 1.381 . S
C684 C690 1.383 . S
C685 C681 1.495 . S
C685 H691 0.959 . S
C685 H692 0.961 . S
C685 H693 0.960 . S
C686 C684 1.381 . S
C686 C687 1.394 . S
C686 H694 0.930 . S
C687 C686 1.394 . S
C687 C688 1.383 . S
C687 H695 0.929 . S
C688 C687 1.383 . S
C688 C689 1.377 . S
C689 H673 0.930 . S
C689 C688 1.377 . S
C689 C690 1.379 . S
C690 H674 0.931 . S
C690 C684 1.383 . S
C690 C689 1.379 . S
H691 C685 0.959 . S
H692 C685 0.961 . S
H693 C685 0.960 . S
H694 C686 0.930 . S
H695 C687 0.929 . S
H696 C704 0.929 . S
H697 C706 0.930 . S
H698 C708 0.930 . S
H699 C711 0.929 . S
H700 C714 0.930 . S
H701 C716 0.960 . S
H702 C716 0.960 . S
H703 C716 0.960 . S
C704 H696 0.929 . S
C704 C705 1.377 . S
C704 C706 1.384 . S
C705 C704 1.377 . S
C705 C711 1.390 . S
C706 H697 0.930 . S
C706 C704 1.384 . S
C706 C707 1.372 . S
C707 C706 1.372 . S
C707 C708 1.400 . S
C707 C712 1.490 . S
C708 H698 0.930 . S
C708 C707 1.400 . S
C708 C711 1.386 . S
H709 C725 0.930 . S
H710 C726 0.931 . S
C711 H699 0.929 . S
C711 C705 1.390 . S
C711 C708 1.386 . S
C712 C707 1.490 . S
C712 C714 1.395 . S
C712 C715 1.403 . S
H713 C719 0.930 . S
C714 H700 0.930 . S
C714 C712 1.395 . S
C714 C717 1.403 . S
C715 C712 1.403 . S
C715 C716 1.524 . S
C715 C719 1.400 . S
C716 H701 0.960 . S
C716 H702 0.960 . S
C716 H703 0.960 . S
C716 C715 1.524 . S
C717 C714 1.403 . S
C717 C718 1.392 . S
C717 C721 1.495 . S
C718 C717 1.392 . S
C718 C719 1.385 . S
C718 C720 1.478 . S
C719 H713 0.930 . S
C719 C715 1.400 . S
C719 C718 1.385 . S
C720 C718 1.478 . S
C720 C722 1.381 . S
C720 C726 1.383 . S
C721 C717 1.495 . S
C721 H727 0.959 . S
C721 H728 0.961 1_655 S
C721 H729 0.960 . S
C722 C720 1.381 . S
C722 C723 1.394 . S
C722 H730 0.930 . S
C723 C722 1.394 . S
C723 C724 1.383 . S
C723 H731 0.929 . S
C724 C723 1.383 . S
C724 C725 1.377 . S
C725 H709 0.930 . S
C725 C724 1.377 . S
C725 C726 1.379 . S
C726 H710 0.931 . S
C726 C720 1.383 . S
C726 C725 1.379 . S
H727 C721 0.959 . S
H728 C721 0.961 1_455 S
H729 C721 0.960 . S
H730 C722 0.930 . S
H731 C723 0.929 . S
H732 C740 0.929 . S
H733 C742 0.930 . S
H734 C744 0.930 . S
H735 C747 0.929 . S
H736 C750 0.930 . S
H737 C752 0.960 . S
H738 C752 0.960 . S
H739 C752 0.960 . S
C740 H732 0.929 . S
C740 C741 1.377 . S
C740 C742 1.384 . S
C741 C740 1.377 . S
C741 C747 1.390 . S
C742 H733 0.930 . S
C742 C740 1.384 . S
C742 C743 1.372 . S
C743 C742 1.372 . S
C743 C744 1.400 . S
C743 C748 1.490 . S
C744 H734 0.930 . S
C744 C743 1.400 . S
C744 C747 1.386 . S
H745 C761 0.930 1_545 S
H746 C762 0.931 1_545 S
C747 H735 0.929 . S
C747 C741 1.390 . S
C747 C744 1.386 . S
C748 C743 1.490 . S
C748 C750 1.395 . S
C748 C751 1.403 . S
H749 C755 0.930 . S
C750 H736 0.930 . S
C750 C748 1.395 . S
C750 C753 1.403 . S
C751 C748 1.403 . S
C751 C752 1.524 . S
C751 C755 1.400 . S
C752 H737 0.960 . S
C752 H738 0.960 . S
C752 H739 0.960 . S
C752 C751 1.524 . S
C753 C750 1.403 . S
C753 C754 1.392 . S
C753 C757 1.495 . S
C754 C753 1.392 . S
C754 C755 1.385 . S
C754 C756 1.478 . S
C755 H749 0.930 . S
C755 C751 1.400 . S
C755 C754 1.385 . S
C756 C754 1.478 . S
C756 C758 1.381 . S
C756 C762 1.383 . S
C757 C753 1.495 . S
C757 H763 0.959 . S
C757 H764 0.961 . S
C757 H765 0.960 . S
C758 C756 1.381 . S
C758 C759 1.394 . S
C758 H766 0.930 . S
C759 C758 1.394 . S
C759 C760 1.383 . S
C759 H767 0.929 . S
C760 C759 1.383 . S
C760 C761 1.377 . S
C761 H745 0.930 1_565 S
C761 C760 1.377 . S
C761 C762 1.379 . S
C762 H746 0.931 1_565 S
C762 C756 1.383 . S
C762 C761 1.379 . S
H763 C757 0.959 . S
H764 C757 0.961 . S
H765 C757 0.960 . S
H766 C758 0.930 . S
H767 C759 0.929 . S
C129 C61 2.579 . S
C148 C9 2.586 . S
C165 C89 2.581 . S
C184 C21 2.592 . S
C201 C101 2.579 . S
C220 C49 2.586 . S
C237 C16 1.596 . S
C256 C46 1.588 . S
C273 C39 2.705 . S
C292 C68 2.536 . S
C309 C56 1.602 . S
C328 C86 1.539 . S
C345 C79 2.704 . S
C364 C108 2.531 . S
C381 C96 1.595 . S
C400 C6 1.574 . S
C417 C119 2.704 . S
C436 C28 2.537 . S
C453 C1 1.079 . S
C472 C69 1.091 . S
C489 C29 1.083 . S
C508 C81 1.060 . S
C525 C41 1.087 . S
C544 C109 1.088 . S
C561 C19 0.995 . S
C580 C26 1.024 . S
C597 C36 0.983 . S
C616 C48 0.970 . S
C633 C59 1.008 . S
C652 C66 1.027 . S
C669 C76 0.985 . S
C688 C88 1.001 . S
C705 C99 1.009 . S
C724 C106 1.033 . S
C741 C116 0.989 . S
C760 C8 0.972 . S
