# Generated by pormake.
# Topology wgd, (5)-cn, num edge types: 1
# Building blocks:
#     Node 0, Type 0, BuildingBlock: BEQFEK_clean_sbu_0, # of connection points: 5
#     Node 1, Type 0, BuildingBlock: BEQFEK_clean_sbu_0, # of connection points: 5
#     Node 2, Type 0, BuildingBlock: BEQFEK_clean_sbu_0, # of connection points: 5
#     Node 3, Type 0, BuildingBlock: BEQFEK_clean_sbu_0, # of connection points: 5
#     Node 4, Type 0, BuildingBlock: BEQFEK_clean_sbu_0, # of connection points: 5
#     Node 5, Type 0, BuildingBlock: BEQFEK_clean_sbu_0, # of connection points: 5
#     Node 6, Type 0, BuildingBlock: BEQFEK_clean_sbu_0, # of connection points: 5
#     Node 7, Type 0, BuildingBlock: BEQFEK_clean_sbu_0, # of connection points: 5
#     Node 8, Type 0, BuildingBlock: BEQFEK_clean_sbu_0, # of connection points: 5
#     Node 9, Type 0, BuildingBlock: BEQFEK_clean_sbu_0, # of connection points: 5
#     Node 10, Type 0, BuildingBlock: BEQFEK_clean_sbu_0, # of connection points: 5
#     Node 11, Type 0, BuildingBlock: BEQFEK_clean_sbu_0, # of connection points: 5
#     Node 12, Type 0, BuildingBlock: BEQFEK_clean_sbu_0, # of connection points: 5
#     Node 13, Type 0, BuildingBlock: BEQFEK_clean_sbu_0, # of connection points: 5
#     Node 14, Type 0, BuildingBlock: BEQFEK_clean_sbu_0, # of connection points: 5
#     Node 15, Type 0, BuildingBlock: BEQFEK_clean_sbu_0, # of connection points: 5
#     Node 16, Type 0, BuildingBlock: BEQFEK_clean_sbu_0, # of connection points: 5
#     Node 17, Type 0, BuildingBlock: BEQFEK_clean_sbu_0, # of connection points: 5
#     Node 18, Type 0, BuildingBlock: BEQFEK_clean_sbu_0, # of connection points: 5
#     Node 19, Type 0, BuildingBlock: BEQFEK_clean_sbu_0, # of connection points: 5
#     Node 20, Type 0, BuildingBlock: BEQFEK_clean_sbu_0, # of connection points: 5
#     Node 21, Type 0, BuildingBlock: BEQFEK_clean_sbu_0, # of connection points: 5
#     Node 22, Type 0, BuildingBlock: BEQFEK_clean_sbu_0, # of connection points: 5
#     Node 23, Type 0, BuildingBlock: BEQFEK_clean_sbu_0, # of connection points: 5
#     Node 24, Type 0, BuildingBlock: BEQFEK_clean_sbu_0, # of connection points: 5
#     Node 25, Type 0, BuildingBlock: BEQFEK_clean_sbu_0, # of connection points: 5
#     Node 26, Type 0, BuildingBlock: BEQFEK_clean_sbu_0, # of connection points: 5
#     Node 27, Type 0, BuildingBlock: BEQFEK_clean_sbu_0, # of connection points: 5
#     Node 28, Type 0, BuildingBlock: BEQFEK_clean_sbu_0, # of connection points: 5
#     Node 29, Type 0, BuildingBlock: BEQFEK_clean_sbu_0, # of connection points: 5
#     Node 30, Type 0, BuildingBlock: BEQFEK_clean_sbu_0, # of connection points: 5
#     Node 31, Type 0, BuildingBlock: BEQFEK_clean_sbu_0, # of connection points: 5
#     Edge 32, Type (0, 0), BuildingBlock: UVAHIK_clean_linker_0, # of connection points: 2
#     Edge 33, Type (0, 0), BuildingBlock: UVAHIK_clean_linker_0, # of connection points: 2
#     Edge 34, Type (0, 0), BuildingBlock: UVAHIK_clean_linker_0, # of connection points: 2
#     Edge 35, Type (0, 0), BuildingBlock: UVAHIK_clean_linker_0, # of connection points: 2
#     Edge 36, Type (0, 0), BuildingBlock: UVAHIK_clean_linker_0, # of connection points: 2
#     Edge 37, Type (0, 0), BuildingBlock: UVAHIK_clean_linker_0, # of connection points: 2
#     Edge 38, Type (0, 0), BuildingBlock: UVAHIK_clean_linker_0, # of connection points: 2
#     Edge 39, Type (0, 0), BuildingBlock: UVAHIK_clean_linker_0, # of connection points: 2
#     Edge 40, Type (0, 0), BuildingBlock: UVAHIK_clean_linker_0, # of connection points: 2
#     Edge 41, Type (0, 0), BuildingBlock: UVAHIK_clean_linker_0, # of connection points: 2
#     Edge 42, Type (0, 0), BuildingBlock: UVAHIK_clean_linker_0, # of connection points: 2
#     Edge 43, Type (0, 0), BuildingBlock: UVAHIK_clean_linker_0, # of connection points: 2
#     Edge 44, Type (0, 0), BuildingBlock: UVAHIK_clean_linker_0, # of connection points: 2
#     Edge 45, Type (0, 0), BuildingBlock: UVAHIK_clean_linker_0, # of connection points: 2
#     Edge 46, Type (0, 0), BuildingBlock: UVAHIK_clean_linker_0, # of connection points: 2
#     Edge 47, Type (0, 0), BuildingBlock: UVAHIK_clean_linker_0, # of connection points: 2
#     Edge 48, Type (0, 0), BuildingBlock: UVAHIK_clean_linker_0, # of connection points: 2
#     Edge 49, Type (0, 0), BuildingBlock: UVAHIK_clean_linker_0, # of connection points: 2
#     Edge 50, Type (0, 0), BuildingBlock: UVAHIK_clean_linker_0, # of connection points: 2
#     Edge 51, Type (0, 0), BuildingBlock: UVAHIK_clean_linker_0, # of connection points: 2
#     Edge 52, Type (0, 0), BuildingBlock: UVAHIK_clean_linker_0, # of connection points: 2
#     Edge 53, Type (0, 0), BuildingBlock: UVAHIK_clean_linker_0, # of connection points: 2
#     Edge 54, Type (0, 0), BuildingBlock: UVAHIK_clean_linker_0, # of connection points: 2
#     Edge 55, Type (0, 0), BuildingBlock: UVAHIK_clean_linker_0, # of connection points: 2
#     Edge 56, Type (0, 0), BuildingBlock: UVAHIK_clean_linker_0, # of connection points: 2
#     Edge 57, Type (0, 0), BuildingBlock: UVAHIK_clean_linker_0, # of connection points: 2
#     Edge 58, Type (0, 0), BuildingBlock: UVAHIK_clean_linker_0, # of connection points: 2
#     Edge 59, Type (0, 0), BuildingBlock: UVAHIK_clean_linker_0, # of connection points: 2
#     Edge 60, Type (0, 0), BuildingBlock: UVAHIK_clean_linker_0, # of connection points: 2
#     Edge 61, Type (0, 0), BuildingBlock: UVAHIK_clean_linker_0, # of connection points: 2
#     Edge 62, Type (0, 0), BuildingBlock: UVAHIK_clean_linker_0, # of connection points: 2
#     Edge 63, Type (0, 0), BuildingBlock: UVAHIK_clean_linker_0, # of connection points: 2
#     Edge 64, Type (0, 0), BuildingBlock: UVAHIK_clean_linker_0, # of connection points: 2
#     Edge 65, Type (0, 0), BuildingBlock: UVAHIK_clean_linker_0, # of connection points: 2
#     Edge 66, Type (0, 0), BuildingBlock: UVAHIK_clean_linker_0, # of connection points: 2
#     Edge 67, Type (0, 0), BuildingBlock: UVAHIK_clean_linker_0, # of connection points: 2
#     Edge 68, Type (0, 0), BuildingBlock: UVAHIK_clean_linker_0, # of connection points: 2
#     Edge 69, Type (0, 0), BuildingBlock: UVAHIK_clean_linker_0, # of connection points: 2
#     Edge 70, Type (0, 0), BuildingBlock: UVAHIK_clean_linker_0, # of connection points: 2
#     Edge 71, Type (0, 0), BuildingBlock: UVAHIK_clean_linker_0, # of connection points: 2
#     Edge 72, Type (0, 0), BuildingBlock: UVAHIK_clean_linker_0, # of connection points: 2
#     Edge 73, Type (0, 0), BuildingBlock: UVAHIK_clean_linker_0, # of connection points: 2
#     Edge 74, Type (0, 0), BuildingBlock: UVAHIK_clean_linker_0, # of connection points: 2
#     Edge 75, Type (0, 0), BuildingBlock: UVAHIK_clean_linker_0, # of connection points: 2
#     Edge 76, Type (0, 0), BuildingBlock: UVAHIK_clean_linker_0, # of connection points: 2
#     Edge 77, Type (0, 0), BuildingBlock: UVAHIK_clean_linker_0, # of connection points: 2
#     Edge 78, Type (0, 0), BuildingBlock: UVAHIK_clean_linker_0, # of connection points: 2
#     Edge 79, Type (0, 0), BuildingBlock: UVAHIK_clean_linker_0, # of connection points: 2
#     Edge 80, Type (0, 0), BuildingBlock: UVAHIK_clean_linker_0, # of connection points: 2
#     Edge 81, Type (0, 0), BuildingBlock: UVAHIK_clean_linker_0, # of connection points: 2
#     Edge 82, Type (0, 0), BuildingBlock: UVAHIK_clean_linker_0, # of connection points: 2
#     Edge 83, Type (0, 0), BuildingBlock: UVAHIK_clean_linker_0, # of connection points: 2
#     Edge 84, Type (0, 0), BuildingBlock: UVAHIK_clean_linker_0, # of connection points: 2
#     Edge 85, Type (0, 0), BuildingBlock: UVAHIK_clean_linker_0, # of connection points: 2
#     Edge 86, Type (0, 0), BuildingBlock: UVAHIK_clean_linker_0, # of connection points: 2
#     Edge 87, Type (0, 0), BuildingBlock: UVAHIK_clean_linker_0, # of connection points: 2
#     Edge 88, Type (0, 0), BuildingBlock: UVAHIK_clean_linker_0, # of connection points: 2
#     Edge 89, Type (0, 0), BuildingBlock: UVAHIK_clean_linker_0, # of connection points: 2
#     Edge 90, Type (0, 0), BuildingBlock: UVAHIK_clean_linker_0, # of connection points: 2
#     Edge 91, Type (0, 0), BuildingBlock: UVAHIK_clean_linker_0, # of connection points: 2
#     Edge 92, Type (0, 0), BuildingBlock: UVAHIK_clean_linker_0, # of connection points: 2
#     Edge 93, Type (0, 0), BuildingBlock: UVAHIK_clean_linker_0, # of connection points: 2
#     Edge 94, Type (0, 0), BuildingBlock: UVAHIK_clean_linker_0, # of connection points: 2
#     Edge 95, Type (0, 0), BuildingBlock: UVAHIK_clean_linker_0, # of connection points: 2
#     Edge 96, Type (0, 0), BuildingBlock: UVAHIK_clean_linker_0, # of connection points: 2
#     Edge 97, Type (0, 0), BuildingBlock: UVAHIK_clean_linker_0, # of connection points: 2
#     Edge 98, Type (0, 0), BuildingBlock: UVAHIK_clean_linker_0, # of connection points: 2
#     Edge 99, Type (0, 0), BuildingBlock: UVAHIK_clean_linker_0, # of connection points: 2
#     Edge 100, Type (0, 0), BuildingBlock: UVAHIK_clean_linker_0, # of connection points: 2
#     Edge 101, Type (0, 0), BuildingBlock: UVAHIK_clean_linker_0, # of connection points: 2
#     Edge 102, Type (0, 0), BuildingBlock: UVAHIK_clean_linker_0, # of connection points: 2
#     Edge 103, Type (0, 0), BuildingBlock: UVAHIK_clean_linker_0, # of connection points: 2
#     Edge 104, Type (0, 0), BuildingBlock: UVAHIK_clean_linker_0, # of connection points: 2
#     Edge 105, Type (0, 0), BuildingBlock: UVAHIK_clean_linker_0, # of connection points: 2
#     Edge 106, Type (0, 0), BuildingBlock: UVAHIK_clean_linker_0, # of connection points: 2
#     Edge 107, Type (0, 0), BuildingBlock: UVAHIK_clean_linker_0, # of connection points: 2
#     Edge 108, Type (0, 0), BuildingBlock: UVAHIK_clean_linker_0, # of connection points: 2
#     Edge 109, Type (0, 0), BuildingBlock: UVAHIK_clean_linker_0, # of connection points: 2
#     Edge 110, Type (0, 0), BuildingBlock: UVAHIK_clean_linker_0, # of connection points: 2
#     Edge 111, Type (0, 0), BuildingBlock: UVAHIK_clean_linker_0, # of connection points: 2
# Relax obj value: 0.262
# Max RMSD: 0.221
# Mean RMSD: 0.221
data_MOF--net-wgd--node1-BEQFEK_clean_sbu_0--edge1-UVAHIK_clean_linker_0
_symmetry_space_group_name_H-M    P1
_symmetry_Int_Tables_number       1
_symmetry_cell_setting            triclinic
loop_
_symmetry_equiv_pos_as_xyz
'x, y, z'
_cell_length_a     129.67763
_cell_length_b     129.67386
_cell_length_c     22.365009
_cell_angle_alpha  89.988835
_cell_angle_beta   90.026987
_cell_angle_gamma 89.99479
loop_
_atom_site_label
_atom_site_type_symbol
_atom_site_fract_x
_atom_site_fract_y
_atom_site_fract_z
_atom_type_partial_charge
Co0 Co 0.17984 0.17307 0.07633 0.0
Co1 Co 0.19222 0.17165 0.95728 0.0
C2 C 0.1853 0.19197 0.01179 0.0
O3 O 0.18066 0.18767 0.05512 0.0
O4 O 0.19009 0.18667 0.97278 0.0
C5 C 0.16697 0.1785 0.17663 0.0
O6 O 0.1666 0.18775 0.15283 0.0
C7 C 0.19122 0.17409 0.83001 0.0
C8 C 0.20381 0.16421 0.79627 0.0
C9 C 0.19542 0.17006 0.77815 0.0
N10 N 0.19662 0.1705 0.87673 0.0
N11 N 0.20428 0.16477 0.85643 0.0
C12 C 0.18204 0.18105 0.83581 0.0
H13 H 0.18368 0.18724 0.86847 0.0
H14 H 0.17536 0.17657 0.8527 0.0
H15 H 0.18001 0.1847 0.79252 0.0
C16 C 0.16571 0.15943 0.01162 0.0
N17 N 0.17421 0.16532 0.01419 0.0
N18 N 0.17976 0.16394 0.96565 0.0
C19 C 0.1751 0.15673 0.93152 0.0
C20 C 0.16601 0.15381 0.95919 0.0
C21 C 0.15795 0.15858 0.06088 0.0
H22 H 0.16157 0.15469 0.09979 0.0
H23 H 0.15557 0.16641 0.07528 0.0
H24 H 0.15107 0.15411 0.04675 0.0
O25 O 0.1937 0.16772 0.09646 0.0
O26 O 0.2028 0.16627 0.01276 0.0
H27 H 0.18801 0.15164 0.87918 0.0
H28 H 0.17628 0.14446 0.86634 0.0
C29 C 0.17952 0.15222 0.87551 0.0
H30 H 0.17754 0.15725 0.83722 0.0
H31 H 0.20949 0.1608 0.88368 0.0
O32 O 0.17171 0.17133 0.14953 0.0
C33 C 0.20196 0.16526 0.06922 0.0
Co34 Co 0.07209 0.92983 0.33508 0.0
Co35 Co 0.07326 0.94127 0.21288 0.0
C36 C 0.05309 0.93428 0.26771 0.0
O37 O 0.0575 0.93016 0.31248 0.0
O38 O 0.05829 0.93886 0.22739 0.0
C39 C 0.06665 0.91655 0.43326 0.0
O40 O 0.05811 0.91486 0.40324 0.0
C41 C 0.07007 0.94016 0.08661 0.0
C42 C 0.07958 0.95279 0.04988 0.0
C43 C 0.07328 0.9446 0.03357 0.0
N44 N 0.07424 0.94544 0.13206 0.0
N45 N 0.0798 0.95309 0.11013 0.0
C46 C 0.06421 0.93029 0.09449 0.0
H47 H 0.06567 0.92693 0.13929 0.0
H48 H 0.0664 0.92462 0.05958 0.0
H49 H 0.05583 0.93189 0.09041 0.0
C50 C 0.08623 0.91559 0.27374 0.0
N51 N 0.08016 0.92399 0.27454 0.0
N52 N 0.08119 0.92906 0.22401 0.0
C53 C 0.08822 0.92417 0.18982 0.0
C54 C 0.09158 0.91543 0.22007 0.0
C55 C 0.08664 0.90782 0.32315 0.0
H56 H 0.07875 0.90639 0.3404 0.0
H57 H 0.08999 0.90041 0.30776 0.0
H58 H 0.09138 0.91092 0.36033 0.0
O59 O 0.07695 0.94398 0.35269 0.0
O60 O 0.07827 0.9523 0.26626 0.0
H61 H 0.10027 0.92527 0.12326 0.0
H62 H 0.08729 0.92602 0.095 0.0
C63 C 0.09243 0.92833 0.13233 0.0
H64 H 0.09282 0.93685 0.13415 0.0
H65 H 0.08407 0.95823 0.13613 0.0
O66 O 0.07362 0.92222 0.41056 0.0
C67 C 0.0792 0.95205 0.32294 0.0
Co68 Co 0.31411 0.8226 0.57646 0.0
Co69 Co 0.30214 0.82345 0.45615 0.0
C70 C 0.31 0.80347 0.51116 0.0
O71 O 0.31428 0.808 0.555 0.0
O72 O 0.30502 0.80854 0.47179 0.0
C73 C 0.32731 0.81809 0.67717 0.0
O74 O 0.32838 0.80888 0.65357 0.0
C75 C 0.30397 0.82164 0.32904 0.0
C76 C 0.29041 0.83003 0.29426 0.0
C77 C 0.29951 0.82528 0.27692 0.0
N78 N 0.29799 0.82442 0.3752 0.0
N79 N 0.28978 0.82926 0.35428 0.0
C80 C 0.31388 0.81579 0.33556 0.0
H81 H 0.31325 0.81004 0.37192 0.0
H82 H 0.32018 0.82119 0.3475 0.0
H83 H 0.31591 0.81174 0.29348 0.0
C84 C 0.32775 0.83701 0.51333 0.0
N85 N 0.31951 0.83073 0.51513 0.0
N86 N 0.31404 0.83187 0.46614 0.0
C87 C 0.31841 0.83932 0.43251 0.0
C88 C 0.32731 0.84271 0.46091 0.0
C89 C 0.33592 0.8373 0.56057 0.0
H90 H 0.33323 0.84217 0.59826 0.0
H91 H 0.33733 0.82941 0.57783 0.0
H92 H 0.34325 0.84048 0.54293 0.0
O93 O 0.29982 0.82703 0.59523 0.0
O94 O 0.29111 0.82821 0.50996 0.0
H95 H 0.30496 0.8436 0.38186 0.0
H96 H 0.3157 0.85235 0.3745 0.0
C97 C 0.31347 0.84412 0.3787 0.0
H98 H 0.31609 0.84005 0.3379 0.0
H99 H 0.28403 0.83248 0.38108 0.0
O100 O 0.32193 0.82483 0.65029 0.0
C101 C 0.29157 0.8291 0.56662 0.0
Co102 Co 0.42343 0.0652 0.83857 0.0
Co103 Co 0.42225 0.0542 0.71503 0.0
C104 C 0.44244 0.06068 0.77084 0.0
O105 O 0.43806 0.06464 0.81613 0.0
O106 O 0.43722 0.05635 0.72974 0.0
C107 C 0.4291 0.07861 0.93568 0.0
O108 O 0.43749 0.08041 0.90447 0.0
C109 C 0.42575 0.05503 0.58872 0.0
C110 C 0.4154 0.04308 0.55196 0.0
C111 C 0.42227 0.05079 0.53564 0.0
N112 N 0.42117 0.0501 0.63415 0.0
N113 N 0.41512 0.04282 0.61219 0.0
C114 C 0.43221 0.06452 0.59663 0.0
H115 H 0.43075 0.0681 0.64086 0.0
H116 H 0.43056 0.07024 0.56095 0.0
H117 H 0.44048 0.06236 0.59411 0.0
C118 C 0.40944 0.07977 0.77847 0.0
N119 N 0.41547 0.07134 0.77836 0.0
N120 N 0.41453 0.06653 0.72689 0.0
C121 C 0.40763 0.07166 0.6929 0.0
C122 C 0.40427 0.08024 0.72437 0.0
C123 C 0.4081 0.08674 0.83126 0.0
H124 H 0.40522 0.08217 0.86975 0.0
H125 H 0.4157 0.09 0.844 0.0
H126 H 0.40262 0.0931 0.82188 0.0
O127 O 0.41827 0.05114 0.85528 0.0
O128 O 0.41702 0.04316 0.76775 0.0
H129 H 0.4027 0.05995 0.63148 0.0
H130 H 0.39722 0.07252 0.61698 0.0
C131 C 0.40423 0.06836 0.63181 0.0
H132 H 0.41044 0.07005 0.59932 0.0
H133 H 0.41047 0.03802 0.63815 0.0
O134 O 0.42215 0.0728 0.9142 0.0
C135 C 0.41597 0.04322 0.82437 0.0
Co136 Co 0.17998 0.82103 0.91916 0.0
Co137 Co 0.19235 0.82271 0.03815 0.0
C138 C 0.18544 0.80227 0.98506 0.0
O139 O 0.18078 0.80647 0.94143 0.0
O140 O 0.19024 0.80767 0.02364 0.0
C141 C 0.1673 0.81545 0.81815 0.0
O142 O 0.16716 0.80614 0.84134 0.0
C143 C 0.19132 0.82054 0.16553 0.0
C144 C 0.20391 0.83047 0.19885 0.0
C145 C 0.19551 0.82465 0.2172 0.0
N146 N 0.19673 0.82403 0.11868 0.0
N147 N 0.2044 0.8298 0.13873 0.0
C148 C 0.18214 0.81357 0.16004 0.0
H149 H 0.18377 0.80733 0.1277 0.0
H150 H 0.17545 0.81802 0.14292 0.0
H151 H 0.18011 0.80998 0.2035 0.0
C152 C 0.16581 0.83477 0.98291 0.0
N153 N 0.17435 0.82891 0.98068 0.0
N154 N 0.17989 0.8304 0.02914 0.0
C155 C 0.17521 0.83765 0.06283 0.0
C156 C 0.16609 0.84048 0.035 0.0
C157 C 0.15801 0.83545 0.93379 0.0
H158 H 0.16154 0.83935 0.89466 0.0
H159 H 0.15572 0.82757 0.91973 0.0
H160 H 0.15108 0.83984 0.94795 0.0
O161 O 0.19385 0.82632 0.89881 0.0
O162 O 0.20295 0.82796 0.98245 0.0
H163 H 0.1881 0.84284 0.11503 0.0
H164 H 0.17638 0.85009 0.12687 0.0
C165 C 0.1796 0.8423 0.11854 0.0
H166 H 0.17758 0.83738 0.15724 0.0
H167 H 0.20961 0.8337 0.11132 0.0
O168 O 0.17186 0.82267 0.84582 0.0
C169 C 0.20211 0.82884 0.92591 0.0
Co170 Co 0.42295 0.92936 0.15234 0.0
Co171 Co 0.42157 0.94124 0.27327 0.0
C172 C 0.44185 0.9342 0.22018 0.0
O173 O 0.43754 0.92994 0.1755 0.0
O174 O 0.43656 0.93886 0.25977 0.0
C175 C 0.42871 0.91627 0.05372 0.0
O176 O 0.43742 0.91498 0.08279 0.0
C177 C 0.42479 0.9407 0.39982 0.0
C178 C 0.41472 0.95303 0.43494 0.0
C179 C 0.42135 0.94517 0.45232 0.0
N180 N 0.42042 0.94565 0.35368 0.0
N181 N 0.41454 0.95313 0.37466 0.0
C182 C 0.431 0.93102 0.39317 0.0
H183 H 0.42955 0.92738 0.34911 0.0
H184 H 0.42912 0.92544 0.42918 0.0
H185 H 0.43932 0.93295 0.39619 0.0
C186 C 0.40879 0.91529 0.21448 0.0
N187 N 0.41489 0.92367 0.21322 0.0
N188 N 0.41375 0.92892 0.2631 0.0
C189 C 0.40662 0.92416 0.29721 0.0
C190 C 0.40336 0.91535 0.26767 0.0
C191 C 0.40764 0.90789 0.16362 0.0
H192 H 0.40421 0.91199 0.12481 0.0
H193 H 0.41536 0.90506 0.14995 0.0
H194 H 0.40265 0.90126 0.1757 0.0
O195 O 0.41785 0.94334 0.13322 0.0
O196 O 0.41653 0.95207 0.21827 0.0
H197 H 0.40156 0.93655 0.35347 0.0
H198 H 0.3954 0.92433 0.36895 0.0
C199 C 0.40274 0.9281 0.35593 0.0
H200 H 0.40853 0.92644 0.39111 0.0
H201 H 0.41005 0.958 0.34801 0.0
O202 O 0.42154 0.92154 0.07742 0.0
C203 C 0.41553 0.95152 0.16169 0.0
Co204 Co 0.31421 0.17232 0.40727 0.0
Co205 Co 0.30289 0.17143 0.52998 0.0
C206 C 0.30979 0.19147 0.47389 0.0
O207 O 0.31381 0.18697 0.42915 0.0
O208 O 0.30528 0.18637 0.51482 0.0
C209 C 0.32765 0.17773 0.30979 0.0
O210 O 0.32947 0.18618 0.3404 0.0
C211 C 0.30356 0.17501 0.65635 0.0
C212 C 0.2914 0.16483 0.69252 0.0
C213 C 0.2992 0.17158 0.70924 0.0
N214 N 0.29862 0.17049 0.61068 0.0
N215 N 0.29122 0.16456 0.63229 0.0
C216 C 0.31315 0.18133 0.64888 0.0
H217 H 0.31674 0.17984 0.60475 0.0
H218 H 0.31881 0.17958 0.68471 0.0
H219 H 0.31111 0.18963 0.65152 0.0
C220 C 0.32859 0.15842 0.46938 0.0
N221 N 0.32012 0.1644 0.46828 0.0
N222 N 0.31517 0.16353 0.51935 0.0
C223 C 0.32024 0.15672 0.55425 0.0
C224 C 0.32893 0.15337 0.52385 0.0
C225 C 0.33578 0.15713 0.4176 0.0
H226 H 0.3314 0.15415 0.3786 0.0
H227 H 0.33898 0.16476 0.40503 0.0
H228 H 0.34217 0.15174 0.42801 0.0
O229 O 0.30012 0.16734 0.3899 0.0
O230 O 0.29188 0.16626 0.47666 0.0
H231 H 0.30839 0.15214 0.61566 0.0
H232 H 0.32081 0.14635 0.63033 0.0
C233 C 0.31683 0.15346 0.61536 0.0
H234 H 0.31868 0.15964 0.64777 0.0
H235 H 0.28639 0.15997 0.6061 0.0
O236 O 0.32186 0.17082 0.33193 0.0
C237 C 0.29209 0.16516 0.42008 0.0
Co238 Co 0.07114 0.06484 0.66646 0.0
Co239 Co 0.07304 0.05275 0.78636 0.0
C240 C 0.05258 0.06025 0.73717 0.0
O241 O 0.0567 0.06455 0.69206 0.0
O242 O 0.05801 0.05539 0.77534 0.0
C243 C 0.06516 0.07757 0.5666 0.0
O244 O 0.05632 0.07856 0.59462 0.0
C245 C 0.07035 0.05338 0.91301 0.0
C246 C 0.08005 0.04068 0.94736 0.0
C247 C 0.07372 0.04874 0.96518 0.0
N248 N 0.07444 0.04831 0.86654 0.0
N249 N 0.08013 0.04063 0.88705 0.0
C250 C 0.06439 0.06322 0.90697 0.0
H251 H 0.06589 0.06689 0.86305 0.0
H252 H 0.06645 0.06869 0.94322 0.0
H253 H 0.05603 0.0615 0.91011 0.0
C254 C 0.08568 0.07871 0.72698 0.0
N255 N 0.0796 0.07033 0.7261 0.0
N256 N 0.08096 0.06499 0.77544 0.0
C257 C 0.08821 0.06971 0.80892 0.0
C258 C 0.09139 0.07859 0.77943 0.0
C259 C 0.08578 0.08673 0.67882 0.0
H260 H 0.07782 0.08803 0.66224 0.0
H261 H 0.08899 0.09413 0.69525 0.0
H262 H 0.09053 0.08392 0.6409 0.0
O263 O 0.07591 0.0508 0.64627 0.0
O264 O 0.07769 0.04189 0.73042 0.0
H265 H 0.1006 0.06833 0.87328 0.0
H266 H 0.08776 0.06736 0.90346 0.0
C267 C 0.09273 0.06529 0.86495 0.0
H268 H 0.09315 0.05678 0.86156 0.0
H269 H 0.08437 0.03561 0.86003 0.0
O270 O 0.07245 0.07261 0.59135 0.0
C271 C 0.07833 0.04255 0.67371 0.0
Co272 Co 0.81381 0.82245 0.90517 0.0
Co273 Co 0.80293 0.82337 0.02931 0.0
C274 C 0.80876 0.80328 0.97237 0.0
O275 O 0.81279 0.80779 0.92764 0.0
O276 O 0.80456 0.8084 0.01426 0.0
C277 C 0.82699 0.81608 0.80846 0.0
O278 O 0.8285 0.80772 0.8404 0.0
C279 C 0.80247 0.81942 0.15612 0.0
C280 C 0.79185 0.83135 0.19047 0.0
C281 C 0.79844 0.8235 0.20839 0.0
N282 N 0.79852 0.82466 0.10972 0.0
N283 N 0.792 0.83163 0.13027 0.0
C284 C 0.8111 0.81179 0.15019 0.0
H285 H 0.81524 0.8129 0.10729 0.0
H286 H 0.81668 0.81258 0.18752 0.0
H287 H 0.80787 0.80387 0.15114 0.0
C288 C 0.82826 0.83658 0.96442 0.0
N289 N 0.82001 0.83031 0.96545 0.0
N290 N 0.81564 0.83066 0.01847 0.0
C291 C 0.82116 0.83709 0.05363 0.0
C292 C 0.82932 0.84107 0.02041 0.0
C293 C 0.83424 0.83897 0.90884 0.0
H294 H 0.82884 0.84019 0.87103 0.0
H295 H 0.83924 0.8323 0.8977 0.0
H296 H 0.83905 0.84598 0.91395 0.0
O297 O 0.80008 0.82805 0.88817 0.0
O298 O 0.79203 0.829 0.97561 0.0
H299 H 0.81097 0.84241 0.12242 0.0
H300 H 0.82449 0.8443 0.13955 0.0
C301 C 0.81882 0.8391 0.11819 0.0
H302 H 0.81906 0.83174 0.143 0.0
H303 H 0.78806 0.83692 0.10344 0.0
O304 O 0.82148 0.82332 0.82951 0.0
C305 C 0.7922 0.83037 0.91918 0.0
Co306 Co 0.92381 0.0655 0.66074 0.0
Co307 Co 0.92159 0.05367 0.78128 0.0
C308 C 0.94221 0.06085 0.73288 0.0
O309 O 0.93822 0.06516 0.68739 0.0
O310 O 0.93667 0.05609 0.77083 0.0
C311 C 0.93008 0.07823 0.56141 0.0
O312 O 0.93888 0.07915 0.59 0.0
C313 C 0.9244 0.05409 0.90803 0.0
C314 C 0.91405 0.04191 0.94215 0.0
C315 C 0.92081 0.0496 0.96014 0.0
N316 N 0.92002 0.04929 0.86147 0.0
N317 N 0.91394 0.0419 0.88185 0.0
C318 C 0.93082 0.06365 0.90214 0.0
H319 H 0.92933 0.0675 0.85872 0.0
H320 H 0.92916 0.06913 0.93903 0.0
H321 H 0.93909 0.06151 0.90412 0.0
C322 C 0.90936 0.07969 0.72003 0.0
N323 N 0.91529 0.07118 0.71965 0.0
N324 N 0.91385 0.06598 0.76947 0.0
C325 C 0.90671 0.07092 0.80262 0.0
C326 C 0.90373 0.07977 0.77253 0.0
C327 C 0.90873 0.08721 0.66944 0.0
H328 H 0.9055 0.08327 0.6296 0.0
H329 H 0.9166 0.08989 0.65778 0.0
H330 H 0.90381 0.09393 0.68076 0.0
O331 O 0.91908 0.05142 0.64055 0.0
O332 O 0.91688 0.04284 0.72546 0.0
H333 H 0.90134 0.05876 0.85968 0.0
H334 H 0.89541 0.07115 0.87399 0.0
C335 C 0.90269 0.0672 0.86152 0.0
H336 H 0.90848 0.06881 0.89674 0.0
H337 H 0.90943 0.03714 0.85476 0.0
O338 O 0.92273 0.07329 0.58557 0.0
C339 C 0.91648 0.04329 0.6686 0.0
Co340 Co 0.68016 0.17225 0.41274 0.0
Co341 Co 0.69154 0.17138 0.53545 0.0
C342 C 0.68447 0.19139 0.48048 0.0
O343 O 0.6805 0.18687 0.43567 0.0
O344 O 0.68904 0.18632 0.52133 0.0
C345 C 0.66684 0.17795 0.31511 0.0
O346 O 0.66514 0.18642 0.34583 0.0
C347 C 0.69125 0.17495 0.66204 0.0
C348 C 0.70318 0.1644 0.6972 0.0
C349 C 0.69564 0.17138 0.71457 0.0
N350 N 0.69594 0.1703 0.61594 0.0
N351 N 0.7032 0.16414 0.63696 0.0
C352 C 0.68181 0.18152 0.65542 0.0
H353 H 0.67797 0.18001 0.61195 0.0
H354 H 0.67626 0.18001 0.69215 0.0
H355 H 0.68408 0.18976 0.65703 0.0
C356 C 0.66626 0.15773 0.47284 0.0
N357 N 0.67444 0.16409 0.47308 0.0
N358 N 0.67927 0.16339 0.52464 0.0
C359 C 0.67431 0.15643 0.55906 0.0
C360 C 0.66589 0.15267 0.52737 0.0
C361 C 0.6596 0.15592 0.41917 0.0
H362 H 0.66454 0.15382 0.38053 0.0
H363 H 0.6555 0.16316 0.40769 0.0
H364 H 0.65391 0.14967 0.42662 0.0
O365 O 0.69418 0.16736 0.39492 0.0
O366 O 0.70262 0.16646 0.48117 0.0
H367 H 0.68586 0.15167 0.6218 0.0
H368 H 0.6731 0.14686 0.63864 0.0
C369 C 0.67751 0.15351 0.62114 0.0
H370 H 0.67613 0.16011 0.65148 0.0
H371 H 0.70783 0.15941 0.61037 0.0
O372 O 0.67248 0.17093 0.3373 0.0
C373 C 0.70229 0.1653 0.42462 0.0
Co374 Co 0.57216 0.9308 0.17425 0.0
Co375 Co 0.57241 0.94299 0.29411 0.0
C376 C 0.5527 0.93522 0.23645 0.0
O377 O 0.55742 0.93099 0.19318 0.0
O378 O 0.55758 0.94009 0.27696 0.0
C379 C 0.56782 0.91743 0.0743 0.0
O380 O 0.55865 0.91628 0.09826 0.0
C381 C 0.57027 0.94128 0.42108 0.0
C382 C 0.57845 0.95493 0.4562 0.0
C383 C 0.57373 0.9458 0.4734 0.0
N384 N 0.57311 0.94724 0.37499 0.0
N385 N 0.57783 0.95551 0.3961 0.0
C386 C 0.56452 0.93131 0.4143 0.0
H387 H 0.5589 0.93185 0.37723 0.0
H388 H 0.57002 0.92504 0.40328 0.0
H389 H 0.56035 0.92929 0.456 0.0
C390 C 0.58627 0.91729 0.23992 0.0
N391 N 0.5799 0.92545 0.2372 0.0
N392 N 0.58089 0.93103 0.28583 0.0
C393 C 0.58833 0.92681 0.32025 0.0
C394 C 0.59188 0.9179 0.29259 0.0
C395 C 0.58683 0.90911 0.19287 0.0
H396 H 0.59177 0.91185 0.15563 0.0
H397 H 0.57901 0.90757 0.17483 0.0
H398 H 0.59007 0.90183 0.211 0.0
O399 O 0.57709 0.94489 0.15557 0.0
O400 O 0.57726 0.95398 0.23994 0.0
H401 H 0.59237 0.9404 0.37015 0.0
H402 H 0.60124 0.92979 0.37866 0.0
C403 C 0.59299 0.93191 0.37391 0.0
H404 H 0.5889 0.92932 0.41469 0.0
H405 H 0.58107 0.96127 0.36942 0.0
O406 O 0.57455 0.92285 0.101 0.0
C407 C 0.57881 0.95324 0.18387 0.0
Co408 Co 0.81525 0.17425 0.07991 0.0
Co409 Co 0.80332 0.17232 0.95964 0.0
C410 C 0.81104 0.19277 0.00816 0.0
O411 O 0.81527 0.18867 0.05362 0.0
O412 O 0.80613 0.18733 0.97029 0.0
C413 C 0.82807 0.1801 0.17968 0.0
O414 O 0.82921 0.1889 0.15137 0.0
C415 C 0.80404 0.175 0.83301 0.0
C416 C 0.79129 0.1654 0.79845 0.0
C417 C 0.7994 0.17168 0.78077 0.0
N418 N 0.79893 0.17093 0.87939 0.0
N419 N 0.79121 0.1653 0.85876 0.0
C420 C 0.81392 0.1809 0.83921 0.0
H421 H 0.81758 0.17933 0.8831 0.0
H422 H 0.81938 0.17884 0.80292 0.0
H423 H 0.81225 0.18927 0.83629 0.0
C424 C 0.8292 0.15965 0.0196 0.0
N425 N 0.82074 0.16563 0.02074 0.0
N426 N 0.81544 0.16429 0.97124 0.0
C427 C 0.82023 0.15713 0.93752 0.0
C428 C 0.82916 0.15402 0.96682 0.0
C429 C 0.8373 0.15971 0.0673 0.0
H430 H 0.83842 0.16767 0.08414 0.0
H431 H 0.84476 0.15672 0.05034 0.0
H432 H 0.83469 0.15483 0.10518 0.0
O433 O 0.80104 0.16985 0.10003 0.0
O434 O 0.79239 0.16785 0.01519 0.0
H435 H 0.81893 0.1448 0.87281 0.0
H436 H 0.81802 0.15766 0.84284 0.0
C437 C 0.81588 0.15267 0.88113 0.0
H438 H 0.80737 0.15227 0.88406 0.0
H439 H 0.78616 0.1611 0.88569 0.0
O440 O 0.82296 0.17289 0.15523 0.0
C441 C 0.79284 0.16744 0.07202 0.0
Co442 Co 0.57298 0.06233 0.82062 0.0
Co443 Co 0.57279 0.05117 0.69711 0.0
C444 C 0.5533 0.05832 0.75714 0.0
O445 O 0.55817 0.06198 0.80165 0.0
O446 O 0.55803 0.05395 0.71428 0.0
C447 C 0.5682 0.07611 0.91728 0.0
O448 O 0.55989 0.07829 0.88611 0.0
C449 C 0.56905 0.05225 0.57094 0.0
C450 C 0.57856 0.03967 0.53365 0.0
C451 C 0.57223 0.04785 0.51764 0.0
N452 N 0.57333 0.04698 0.61615 0.0
N453 N 0.57886 0.03933 0.59385 0.0
C454 C 0.56322 0.06213 0.57926 0.0
H455 H 0.56476 0.06545 0.62405 0.0
H456 H 0.56537 0.06783 0.5444 0.0
H457 H 0.55484 0.06054 0.57553 0.0
C458 C 0.58679 0.07646 0.75666 0.0
N459 N 0.58056 0.06819 0.75831 0.0
N460 N 0.58104 0.06326 0.70695 0.0
C461 C 0.58783 0.06819 0.67125 0.0
C462 C 0.59155 0.07673 0.70147 0.0
C463 C 0.58854 0.0836 0.8082 0.0
H464 H 0.59195 0.0792 0.84595 0.0
H465 H 0.58103 0.08674 0.8234 0.0
H466 H 0.59377 0.09004 0.79601 0.0
O467 O 0.57816 0.04829 0.83642 0.0
O468 O 0.57777 0.03991 0.74965 0.0
H469 H 0.59191 0.05607 0.61039 0.0
H470 H 0.59865 0.06807 0.59774 0.0
C471 C 0.59117 0.06458 0.61074 0.0
H472 H 0.58533 0.06689 0.57716 0.0
H473 H 0.58323 0.03422 0.61956 0.0
O474 O 0.57487 0.06998 0.89573 0.0
C475 C 0.57966 0.04019 0.80551 0.0
Co476 Co 0.67874 0.8214 0.59017 0.0
Co477 Co 0.69022 0.82287 0.4682 0.0
C478 C 0.68319 0.80257 0.52106 0.0
O479 O 0.67907 0.80686 0.5662 0.0
O480 O 0.6878 0.80786 0.4813 0.0
C481 C 0.66549 0.81569 0.68821 0.0
O482 O 0.66394 0.80711 0.65835 0.0
C483 C 0.68941 0.81976 0.34169 0.0
C484 C 0.70173 0.82979 0.30595 0.0
C485 C 0.69382 0.82319 0.28898 0.0
N486 N 0.69445 0.8241 0.38757 0.0
N487 N 0.70192 0.82997 0.36622 0.0
C488 C 0.67973 0.81357 0.34885 0.0
H489 H 0.67614 0.81507 0.39298 0.0
H490 H 0.67412 0.81544 0.31297 0.0
H491 H 0.68165 0.80525 0.34604 0.0
C492 C 0.66466 0.83587 0.53032 0.0
N493 N 0.67294 0.82964 0.53029 0.0
N494 N 0.67801 0.83076 0.47977 0.0
C495 C 0.67322 0.83799 0.44651 0.0
C496 C 0.66459 0.84136 0.4773 0.0
C497 C 0.65747 0.83708 0.58212 0.0
H498 H 0.66178 0.84027 0.62079 0.0
H499 H 0.65446 0.8294 0.59532 0.0
H500 H 0.65094 0.84229 0.57128 0.0
O501 O 0.69284 0.82624 0.6086 0.0
O502 O 0.70119 0.82782 0.5224 0.0
H503 H 0.68546 0.84307 0.38923 0.0
H504 H 0.6732 0.84925 0.37486 0.0
C505 C 0.677 0.8419 0.38748 0.0
H506 H 0.67526 0.83612 0.35241 0.0
H507 H 0.70685 0.83442 0.39263 0.0
O508 O 0.67104 0.82273 0.66544 0.0
C509 C 0.70091 0.82861 0.57916 0.0
Co510 Co 0.9227 0.93141 0.32797 0.0
Co511 Co 0.92242 0.94276 0.20504 0.0
C512 C 0.9422 0.93636 0.26388 0.0
O513 O 0.93746 0.93221 0.30741 0.0
O514 O 0.9373 0.94082 0.22194 0.0
C515 C 0.92838 0.91787 0.42457 0.0
O516 O 0.93712 0.91667 0.39577 0.0
C517 C 0.92674 0.94396 0.07846 0.0
C518 C 0.91369 0.95313 0.04386 0.0
C519 C 0.92203 0.94719 0.02611 0.0
N520 N 0.92121 0.94747 0.12489 0.0
N521 N 0.9136 0.95322 0.10411 0.0
C522 C 0.93605 0.9372 0.08484 0.0
H523 H 0.94199 0.94141 0.11067 0.0
H524 H 0.93401 0.93015 0.11032 0.0
H525 H 0.93945 0.93511 0.04103 0.0
C526 C 0.90857 0.91741 0.26561 0.0
N527 N 0.91493 0.92559 0.26629 0.0
N528 N 0.91496 0.93004 0.21347 0.0
C529 C 0.9088 0.92457 0.17659 0.0
C530 C 0.9045 0.91641 0.20852 0.0
C531 C 0.90573 0.9114 0.32039 0.0
H532 H 0.90445 0.91676 0.35829 0.0
H533 H 0.9122 0.90619 0.33239 0.0
H534 H 0.89863 0.90679 0.31373 0.0
O535 O 0.91732 0.94517 0.34624 0.0
O536 O 0.91677 0.95353 0.25966 0.0
H537 H 0.90347 0.93424 0.10546 0.0
H538 H 0.90318 0.92061 0.08778 0.0
C539 C 0.90749 0.92676 0.11135 0.0
H540 H 0.91517 0.92727 0.09043 0.0
H541 H 0.90794 0.95661 0.13085 0.0
O542 O 0.92131 0.9234 0.40191 0.0
C543 C 0.91522 0.95319 0.31592 0.0
Co544 Co 0.68036 0.67242 0.57772 0.0
Co545 Co 0.69216 0.6719 0.45623 0.0
C546 C 0.68462 0.69173 0.51174 0.0
O547 O 0.68053 0.68709 0.55581 0.0
O548 O 0.68941 0.68677 0.47129 0.0
C549 C 0.66697 0.67758 0.67589 0.0
O550 O 0.66524 0.68617 0.6464 0.0
C551 C 0.69156 0.67531 0.32976 0.0
C552 C 0.70422 0.66568 0.2945 0.0
C553 C 0.69614 0.67205 0.27719 0.0
N554 N 0.69664 0.67108 0.37583 0.0
N555 N 0.70432 0.66547 0.35477 0.0
C556 C 0.68169 0.68121 0.3365 0.0
H557 H 0.67815 0.67972 0.38078 0.0
H558 H 0.67613 0.67909 0.3008 0.0
H559 H 0.68334 0.68958 0.33294 0.0
C560 C 0.66692 0.65777 0.51529 0.0
N561 N 0.67495 0.66431 0.51633 0.0
N562 N 0.67997 0.66377 0.46532 0.0
C563 C 0.67525 0.65677 0.43004 0.0
C564 C 0.66684 0.65282 0.46056 0.0
C565 C 0.65967 0.65616 0.56645 0.0
H566 H 0.66389 0.65244 0.60387 0.0
H567 H 0.65682 0.66374 0.58246 0.0
H568 H 0.65302 0.65126 0.55351 0.0
O569 O 0.6944 0.66767 0.59622 0.0
O570 O 0.70314 0.6669 0.51097 0.0
H571 H 0.67583 0.64561 0.35822 0.0
H572 H 0.67708 0.65886 0.3359 0.0
C573 C 0.67921 0.65317 0.37075 0.0
H574 H 0.68772 0.65246 0.37214 0.0
H575 H 0.70932 0.66112 0.38134 0.0
O576 O 0.67261 0.67066 0.65259 0.0
C577 C 0.70262 0.66567 0.56743 0.0
Co578 Co 0.57353 0.43154 0.82059 0.0
Co579 Co 0.57304 0.44294 0.69773 0.0
C580 C 0.5538 0.43478 0.75598 0.0
O581 O 0.55874 0.43118 0.80042 0.0
O582 O 0.55841 0.43953 0.71403 0.0
C583 C 0.56913 0.41773 0.91785 0.0
O584 O 0.56078 0.41542 0.88733 0.0
C585 C 0.56937 0.44209 0.5714 0.0
C586 C 0.57851 0.45505 0.53533 0.0
C587 C 0.57242 0.44673 0.51854 0.0
N588 N 0.57348 0.44736 0.61712 0.0
N589 N 0.57878 0.45523 0.59556 0.0
C590 C 0.56383 0.43202 0.57877 0.0
H591 H 0.56552 0.42858 0.6231 0.0
H592 H 0.5661 0.42651 0.54318 0.0
H593 H 0.5554 0.43338 0.57552 0.0
C594 C 0.58822 0.4183 0.75689 0.0
N595 N 0.58157 0.42624 0.75854 0.0
N596 N 0.58172 0.43113 0.70697 0.0
C597 C 0.58858 0.42642 0.67075 0.0
C598 C 0.59283 0.41814 0.70119 0.0
C599 C 0.5901 0.41109 0.80796 0.0
H600 H 0.59367 0.41542 0.84544 0.0
H601 H 0.58262 0.40798 0.82396 0.0
H602 H 0.59521 0.40461 0.79497 0.0
O603 O 0.57795 0.44576 0.83771 0.0
O604 O 0.5775 0.45428 0.75143 0.0
H605 H 0.59929 0.42698 0.59676 0.0
H606 H 0.58589 0.42757 0.57674 0.0
C607 C 0.59168 0.43015 0.61002 0.0
H608 H 0.59206 0.43868 0.60952 0.0
H609 H 0.58299 0.4604 0.62177 0.0
O610 O 0.57569 0.4239 0.89555 0.0
C611 C 0.57922 0.45397 0.8075 0.0
Co612 Co 0.8157 0.32159 0.07792 0.0
Co613 Co 0.80326 0.32345 0.95915 0.0
C614 C 0.81148 0.30308 0.00615 0.0
O615 O 0.81584 0.30719 0.05113 0.0
O616 O 0.80635 0.30848 0.96909 0.0
C617 C 0.82829 0.31574 0.17863 0.0
O618 O 0.82914 0.30679 0.15154 0.0
C619 C 0.80374 0.32093 0.83237 0.0
C620 C 0.79074 0.3303 0.79899 0.0
C621 C 0.79892 0.32419 0.78055 0.0
N622 N 0.79865 0.32485 0.87924 0.0
N623 N 0.79079 0.33035 0.85931 0.0
C624 C 0.81374 0.31521 0.83767 0.0
H625 H 0.81748 0.31682 0.88129 0.0
H626 H 0.81907 0.31739 0.80097 0.0
H627 H 0.81222 0.30681 0.83476 0.0
C628 C 0.82896 0.33673 0.01763 0.0
N629 N 0.82078 0.33039 0.01866 0.0
N630 N 0.81528 0.33171 0.96985 0.0
C631 C 0.8197 0.33917 0.93659 0.0
C632 C 0.82854 0.34256 0.96565 0.0
C633 C 0.83709 0.33696 0.06515 0.0
H634 H 0.8343 0.34165 0.10333 0.0
H635 H 0.83858 0.32903 0.08157 0.0
H636 H 0.84439 0.34032 0.04814 0.0
O637 O 0.80155 0.3258 0.09936 0.0
O638 O 0.79239 0.32766 0.01617 0.0
H639 H 0.81784 0.35161 0.87298 0.0
H640 H 0.81712 0.33879 0.84224 0.0
C641 C 0.81502 0.34365 0.88116 0.0
H642 H 0.80651 0.34384 0.88526 0.0
H643 H 0.78571 0.33444 0.88672 0.0
O644 O 0.82352 0.32304 0.15286 0.0
C645 C 0.79316 0.32809 0.0729 0.0
Co646 Co 0.92271 0.56401 0.32307 0.0
Co647 Co 0.9217 0.55239 0.20149 0.0
C648 C 0.94179 0.55954 0.25719 0.0
O649 O 0.93732 0.56375 0.30141 0.0
O650 O 0.93665 0.55485 0.21702 0.0
C651 C 0.92778 0.57738 0.42193 0.0
O652 O 0.93682 0.57848 0.39619 0.0
C653 C 0.92456 0.55335 0.07444 0.0
C654 C 0.91412 0.54131 0.03969 0.0
C655 C 0.92043 0.54939 0.02219 0.0
N656 N 0.9206 0.54812 0.12073 0.0
N657 N 0.91454 0.54076 0.09984 0.0
C658 C 0.93201 0.56213 0.08115 0.0
H659 H 0.93858 0.55966 0.10929 0.0
H660 H 0.92815 0.56865 0.10417 0.0
H661 H 0.93513 0.56471 0.03753 0.0
C662 C 0.90867 0.57816 0.26104 0.0
N663 N 0.9147 0.56973 0.26212 0.0
N664 N 0.91367 0.56461 0.21175 0.0
C665 C 0.90662 0.5695 0.17753 0.0
C666 C 0.90335 0.57828 0.20743 0.0
C667 C 0.90752 0.58548 0.31232 0.0
H668 H 0.90434 0.58127 0.35136 0.0
H669 H 0.91521 0.5885 0.32511 0.0
H670 H 0.90231 0.592 0.30132 0.0
O671 O 0.91791 0.54987 0.34151 0.0
O672 O 0.91667 0.54142 0.25547 0.0
H673 H 0.90185 0.55732 0.11883 0.0
H674 H 0.89559 0.56951 0.10456 0.0
C675 C 0.90293 0.56579 0.11787 0.0
H676 H 0.90877 0.56772 0.08364 0.0
H677 H 0.91026 0.53575 0.12667 0.0
O678 O 0.92091 0.57189 0.39703 0.0
C679 C 0.91573 0.54175 0.31214 0.0
Co680 Co 0.68016 0.32128 0.40815 0.0
Co681 Co 0.69095 0.32228 0.53239 0.0
C682 C 0.68397 0.30224 0.47799 0.0
O683 O 0.68017 0.3067 0.43245 0.0
O684 O 0.68845 0.30736 0.51892 0.0
C685 C 0.66666 0.31561 0.31125 0.0
O686 O 0.66464 0.30734 0.34311 0.0
C687 C 0.69048 0.31876 0.65901 0.0
C688 C 0.70216 0.32953 0.69467 0.0
C689 C 0.69473 0.32242 0.71171 0.0
N690 N 0.69514 0.3235 0.61312 0.0
N691 N 0.70226 0.32979 0.63443 0.0
C692 C 0.68114 0.31205 0.65199 0.0
H693 H 0.6773 0.31356 0.60855 0.0
H694 H 0.67555 0.31342 0.68867 0.0
H695 H 0.68355 0.30384 0.65327 0.0
C696 C 0.66644 0.33647 0.46446 0.0
N697 N 0.67434 0.32977 0.46685 0.0
N698 N 0.67881 0.33033 0.51952 0.0
C699 C 0.67383 0.33744 0.55276 0.0
C700 C 0.66583 0.34155 0.51889 0.0
C701 C 0.66037 0.33862 0.40887 0.0
H702 H 0.66573 0.34002 0.37114 0.0
H703 H 0.65564 0.33175 0.39765 0.0
H704 H 0.65527 0.34543 0.41383 0.0
O705 O 0.69433 0.32585 0.39131 0.0
O706 O 0.70222 0.32706 0.47917 0.0
H707 H 0.68485 0.34241 0.61807 0.0
H708 H 0.67177 0.34639 0.63431 0.0
C709 C 0.67662 0.34013 0.61588 0.0
H710 H 0.6755 0.33328 0.64458 0.0
H711 H 0.70685 0.33459 0.60803 0.0
O712 O 0.67265 0.32247 0.33217 0.0
C713 C 0.70228 0.32797 0.42243 0.0
Co714 Co 0.9237 0.42938 0.66206 0.0
Co715 Co 0.92272 0.44195 0.7806 0.0
C716 C 0.94281 0.43441 0.7256 0.0
O717 O 0.93835 0.42979 0.68273 0.0
O718 O 0.93766 0.4394 0.76446 0.0
C719 C 0.92862 0.41636 0.56156 0.0
O720 O 0.93788 0.41571 0.58511 0.0
C721 C 0.92517 0.44085 0.90781 0.0
C722 C 0.91591 0.45388 0.94177 0.0
C723 C 0.92137 0.44522 0.95977 0.0
N724 N 0.92181 0.44641 0.86118 0.0
N725 N 0.91646 0.45434 0.88161 0.0
C726 C 0.93169 0.43135 0.90187 0.0
H727 H 0.93777 0.43258 0.868 0.0
H728 H 0.92683 0.42482 0.88657 0.0
H729 H 0.93544 0.4293 0.94484 0.0
C730 C 0.90963 0.41578 0.72755 0.0
N731 N 0.91581 0.42408 0.72455 0.0
N732 N 0.91461 0.42975 0.77277 0.0
C733 C 0.90723 0.42541 0.80707 0.0
C734 C 0.904 0.41637 0.77989 0.0
C735 C 0.90852 0.40797 0.67875 0.0
H736 H 0.90468 0.41163 0.63979 0.0
H737 H 0.91628 0.40537 0.66417 0.0
H738 H 0.90389 0.40124 0.69342 0.0
O739 O 0.9188 0.44341 0.64171 0.0
O740 O 0.91762 0.45265 0.72503 0.0
H741 H 0.90268 0.4386 0.85877 0.0
H742 H 0.89492 0.42723 0.87145 0.0
C743 C 0.90284 0.43008 0.86269 0.0
H744 H 0.9077 0.4279 0.90136 0.0
H745 H 0.91273 0.45972 0.85445 0.0
O746 O 0.92162 0.42129 0.58899 0.0
C747 C 0.91659 0.45178 0.66859 0.0
Co748 Co 0.81507 0.67344 0.90632 0.0
Co749 Co 0.80355 0.67217 0.02836 0.0
C750 C 0.81014 0.69241 0.97337 0.0
O751 O 0.81435 0.68804 0.92882 0.0
O752 O 0.80565 0.68718 0.01386 0.0
C753 C 0.82824 0.67929 0.80837 0.0
O754 O 0.82967 0.68788 0.83839 0.0
C755 C 0.80392 0.67565 0.15486 0.0
C756 C 0.79193 0.66518 0.19009 0.0
C757 C 0.79953 0.6721 0.20741 0.0
N758 N 0.79917 0.67105 0.10879 0.0
N759 N 0.79187 0.66493 0.12984 0.0
C760 C 0.81338 0.68217 0.14813 0.0
H761 H 0.81711 0.68077 0.10425 0.0
H762 H 0.819 0.68053 0.18436 0.0
H763 H 0.81117 0.69042 0.15067 0.0
C764 C 0.82942 0.65948 0.96793 0.0
N765 N 0.82098 0.6655 0.96719 0.0
N766 N 0.81598 0.66451 0.01801 0.0
C767 C 0.821 0.6576 0.05248 0.0
C768 C 0.8297 0.65428 0.02197 0.0
C769 C 0.83652 0.65816 0.91577 0.0
H770 H 0.83207 0.65521 0.87699 0.0
H771 H 0.83975 0.66578 0.90307 0.0
H772 H 0.8429 0.65273 0.92573 0.0
O773 O 0.80111 0.66829 0.88798 0.0
O774 O 0.79272 0.66689 0.97408 0.0
H775 H 0.8091 0.65256 0.11225 0.0
H776 H 0.82166 0.6472 0.12848 0.0
C777 C 0.81749 0.65417 0.11308 0.0
H778 H 0.81898 0.6604 0.14582 0.0
H779 H 0.78719 0.66025 0.10327 0.0
O780 O 0.82282 0.67215 0.83117 0.0
C781 C 0.79305 0.66592 0.91743 0.0
Co782 Co 0.57202 0.56427 0.16959 0.0
Co783 Co 0.57204 0.55288 0.2923 0.0
C784 C 0.55253 0.56082 0.2358 0.0
O785 O 0.55731 0.56458 0.19127 0.0
O786 O 0.55731 0.55604 0.27695 0.0
C787 C 0.5673 0.57807 0.07214 0.0
O788 O 0.55851 0.57975 0.09964 0.0
C789 C 0.56843 0.55305 0.41919 0.0
C790 C 0.57966 0.54171 0.45379 0.0
C791 C 0.57266 0.5492 0.47147 0.0
N792 N 0.57298 0.54835 0.37277 0.0
N793 N 0.57949 0.54137 0.39355 0.0
C794 C 0.56044 0.56133 0.41261 0.0
H795 H 0.55377 0.55818 0.38768 0.0
H796 H 0.56364 0.56782 0.38616 0.0
H797 H 0.55757 0.56414 0.45633 0.0
C798 C 0.58709 0.5774 0.2302 0.0
N799 N 0.5803 0.56959 0.23039 0.0
N800 N 0.58057 0.56484 0.28231 0.0
C801 C 0.58762 0.56958 0.31727 0.0
C802 C 0.59194 0.57771 0.28537 0.0
C803 C 0.58954 0.58372 0.17595 0.0
H804 H 0.59126 0.57851 0.13791 0.0
H805 H 0.58271 0.58842 0.16378 0.0
H806 H 0.59627 0.58885 0.18302 0.0
O807 O 0.57652 0.55013 0.15143 0.0
O808 O 0.57654 0.54164 0.23785 0.0
H809 H 0.5922 0.55828 0.38185 0.0
H810 H 0.59624 0.57125 0.40027 0.0
C811 C 0.59 0.56654 0.38033 0.0
H812 H 0.58303 0.56766 0.4079 0.0
H813 H 0.58427 0.53684 0.3667 0.0
O814 O 0.57393 0.57211 0.09558 0.0
C815 C 0.57805 0.54195 0.18158 0.0
Co816 Co 0.31604 0.32169 0.41727 0.0
Co817 Co 0.3036 0.32225 0.53639 0.0
C818 C 0.311 0.30237 0.47925 0.0
O819 O 0.31561 0.30697 0.43683 0.0
O820 O 0.30603 0.30739 0.51872 0.0
C821 C 0.32931 0.31693 0.31772 0.0
O822 O 0.33024 0.30777 0.34229 0.0
C823 C 0.3047 0.31941 0.66332 0.0
C824 C 0.29168 0.3286 0.69815 0.0
C825 C 0.30033 0.32307 0.71564 0.0
N826 N 0.29913 0.32291 0.61701 0.0
N827 N 0.29122 0.32821 0.63794 0.0
C828 C 0.31418 0.31289 0.65677 0.0
H829 H 0.31296 0.30694 0.62207 0.0
H830 H 0.32074 0.31779 0.64227 0.0
H831 H 0.31619 0.30898 0.69931 0.0
C832 C 0.32945 0.33593 0.48285 0.0
N833 N 0.32135 0.32949 0.48018 0.0
N834 N 0.3159 0.33026 0.52956 0.0
C835 C 0.32032 0.33743 0.56499 0.0
C836 C 0.32908 0.34113 0.53676 0.0
C837 C 0.33715 0.33729 0.43367 0.0
H838 H 0.33346 0.34152 0.39616 0.0
H839 H 0.3396 0.32963 0.41681 0.0
H840 H 0.34401 0.34166 0.44909 0.0
O841 O 0.30209 0.3267 0.39754 0.0
O842 O 0.29293 0.32767 0.48128 0.0
H843 H 0.31835 0.34971 0.62932 0.0
H844 H 0.31789 0.33691 0.65936 0.0
C845 C 0.31561 0.34174 0.62074 0.0
H846 H 0.30709 0.3418 0.61697 0.0
H847 H 0.28584 0.33203 0.61114 0.0
O848 O 0.32412 0.32385 0.34422 0.0
C849 C 0.29376 0.32889 0.42493 0.0
Co850 Co 0.42308 0.56677 0.1604 0.0
Co851 Co 0.42205 0.55368 0.27721 0.0
C852 C 0.44189 0.56316 0.23086 0.0
O853 O 0.43746 0.56752 0.18687 0.0
O854 O 0.43685 0.55758 0.26747 0.0
C855 C 0.42833 0.57845 0.05575 0.0
O856 O 0.43779 0.57797 0.07665 0.0
C857 C 0.42407 0.55333 0.4047 0.0
C858 C 0.41496 0.53976 0.43256 0.0
C859 C 0.42053 0.54808 0.45445 0.0
N860 N 0.42077 0.54839 0.35572 0.0
N861 N 0.41548 0.54016 0.37239 0.0
C862 C 0.42929 0.56364 0.40321 0.0
H863 H 0.42813 0.56744 0.3593 0.0
H864 H 0.42629 0.5687 0.43923 0.0
H865 H 0.43769 0.56255 0.41035 0.0
C866 C 0.40735 0.57889 0.22327 0.0
N867 N 0.4141 0.57105 0.22083 0.0
N868 N 0.41315 0.56529 0.26887 0.0
C869 C 0.4055 0.56916 0.30297 0.0
C870 C 0.40162 0.57793 0.27532 0.0
C871 C 0.40667 0.58722 0.17711 0.0
H872 H 0.402 0.58441 0.13884 0.0
H873 H 0.41449 0.58913 0.16037 0.0
H874 H 0.40304 0.59429 0.19554 0.0
O875 O 0.41965 0.55253 0.13631 0.0
O876 O 0.41837 0.54297 0.21825 0.0
H877 H 0.3932 0.56642 0.36635 0.0
H878 H 0.40604 0.56621 0.39695 0.0
C879 C 0.40128 0.56403 0.35774 0.0
H880 H 0.40151 0.55554 0.35241 0.0
H881 H 0.4118 0.53514 0.34281 0.0
O882 O 0.42098 0.57485 0.08688 0.0
C883 C 0.41785 0.54393 0.16167 0.0
Co884 Co 0.1807 0.67294 0.91192 0.0
Co885 Co 0.19247 0.67114 0.03307 0.0
C886 C 0.18598 0.69163 0.98074 0.0
O887 O 0.18164 0.68747 0.93588 0.0
O888 O 0.1905 0.6862 0.02021 0.0
C889 C 0.16789 0.67927 0.81316 0.0
O890 O 0.16692 0.688 0.8424 0.0
C891 C 0.19231 0.67443 0.15968 0.0
C892 C 0.2041 0.66367 0.19427 0.0
C893 C 0.19667 0.67074 0.21198 0.0
N894 N 0.19691 0.66978 0.11333 0.0
N895 N 0.20409 0.66348 0.13399 0.0
C896 C 0.18297 0.68117 0.15347 0.0
H897 H 0.1791 0.67979 0.10997 0.0
H898 H 0.17741 0.6797 0.19021 0.0
H899 H 0.18538 0.68937 0.15544 0.0
C900 C 0.16613 0.65923 0.97351 0.0
N901 N 0.17476 0.66496 0.97239 0.0
N902 N 0.17988 0.66371 0.02267 0.0
C903 C 0.17473 0.6569 0.05713 0.0
C904 C 0.16583 0.65393 0.02722 0.0
C905 C 0.1588 0.65833 0.92211 0.0
H906 H 0.16297 0.65524 0.88269 0.0
H907 H 0.15589 0.66611 0.91016 0.0
H908 H 0.15221 0.65318 0.93254 0.0
O909 O 0.19451 0.66752 0.89273 0.0
O910 O 0.20319 0.6659 0.97782 0.0
H911 H 0.1866 0.65155 0.11628 0.0
H912 H 0.17397 0.64638 0.13256 0.0
C913 C 0.17824 0.6533 0.11744 0.0
H914 H 0.17688 0.6595 0.15056 0.0
H915 H 0.20864 0.65872 0.10715 0.0
O916 O 0.17287 0.67189 0.83681 0.0
C917 C 0.20263 0.66498 0.92121 0.0
Co918 Co 0.07307 0.43095 0.66086 0.0
Co919 Co 0.0736 0.44231 0.78379 0.0
C920 C 0.05372 0.43575 0.72681 0.0
O921 O 0.05835 0.43164 0.6828 0.0
O922 O 0.0587 0.44027 0.76817 0.0
C923 C 0.06706 0.41776 0.56331 0.0
O924 O 0.05859 0.41625 0.59426 0.0
C925 C 0.06952 0.44307 0.91056 0.0
C926 C 0.08123 0.45401 0.94408 0.0
C927 C 0.07353 0.4473 0.96255 0.0
N928 N 0.07468 0.44701 0.86385 0.0
N929 N 0.08151 0.45373 0.8839 0.0
C930 C 0.06207 0.43427 0.9053 0.0
H931 H 0.06325 0.43007 0.86268 0.0
H932 H 0.06299 0.42878 0.94298 0.0
H933 H 0.05409 0.43734 0.9061 0.0
C934 C 0.08748 0.41705 0.7225 0.0
N935 N 0.08104 0.42516 0.72214 0.0
N936 N 0.08122 0.42973 0.77464 0.0
C937 C 0.08769 0.42448 0.81084 0.0
C938 C 0.09191 0.41628 0.77887 0.0
C939 C 0.09004 0.41086 0.66792 0.0
H940 H 0.09113 0.41611 0.62927 0.0
H941 H 0.08349 0.40565 0.65751 0.0
H942 H 0.09715 0.40624 0.67394 0.0
O943 O 0.0783 0.44478 0.64273 0.0
O944 O 0.07905 0.45317 0.72914 0.0
H945 H 0.09258 0.43498 0.87917 0.0
H946 H 0.09475 0.42157 0.89779 0.0
C947 C 0.08947 0.42704 0.87536 0.0
H948 H 0.08206 0.42667 0.89951 0.0
H949 H 0.08672 0.4577 0.85678 0.0
O950 O 0.07427 0.42318 0.58554 0.0
C951 C 0.08044 0.45283 0.67275 0.0
Co952 Co 0.31512 0.67356 0.57938 0.0
Co953 Co 0.30325 0.67258 0.45862 0.0
C954 C 0.31079 0.69263 0.51364 0.0
O955 O 0.3151 0.68818 0.55766 0.0
O956 O 0.30592 0.68749 0.47423 0.0
C957 C 0.32843 0.6783 0.67932 0.0
O958 O 0.32951 0.68745 0.65498 0.0
C959 C 0.30482 0.67477 0.33144 0.0
C960 C 0.29177 0.6656 0.2967 0.0
C961 C 0.30054 0.67093 0.27929 0.0
N962 N 0.29908 0.67155 0.37767 0.0
N963 N 0.29115 0.66626 0.35677 0.0
C964 C 0.31436 0.6812 0.33797 0.0
H965 H 0.3131 0.68734 0.37148 0.0
H966 H 0.3208 0.6763 0.35407 0.0
H967 H 0.31656 0.68488 0.29504 0.0
C968 C 0.32879 0.65905 0.51732 0.0
N969 N 0.32063 0.66544 0.51831 0.0
N970 N 0.31526 0.66432 0.46887 0.0
C971 C 0.31964 0.65681 0.43575 0.0
C972 C 0.3284 0.65339 0.46504 0.0
C973 C 0.33628 0.65782 0.56768 0.0
H974 H 0.33228 0.65428 0.60641 0.0
H975 H 0.33914 0.66551 0.58173 0.0
H976 H 0.3429 0.65287 0.55481 0.0
O977 O 0.30091 0.66893 0.5981 0.0
O978 O 0.2923 0.66764 0.51252 0.0
H979 H 0.30669 0.65236 0.38177 0.0
H980 H 0.31803 0.6445 0.37117 0.0
C981 C 0.31522 0.65245 0.37935 0.0
H982 H 0.31764 0.65728 0.34103 0.0
H983 H 0.28564 0.66265 0.3836 0.0
O984 O 0.323 0.67152 0.65317 0.0
C985 C 0.29272 0.66674 0.56919 0.0
Co986 Co 0.07138 0.56535 0.33522 0.0
Co987 Co 0.07304 0.55377 0.21355 0.0
C988 C 0.05262 0.5603 0.2666 0.0
O989 O 0.05684 0.56458 0.31144 0.0
O990 O 0.05799 0.55578 0.22686 0.0
C991 C 0.06527 0.57835 0.43351 0.0
O992 O 0.05661 0.57956 0.40381 0.0
C993 C 0.06971 0.55404 0.08694 0.0
C994 C 0.08038 0.54219 0.05215 0.0
C995 C 0.07336 0.54968 0.03455 0.0
N996 N 0.07434 0.54938 0.1332 0.0
N997 N 0.08059 0.54217 0.11242 0.0
C998 C 0.06304 0.56341 0.09333 0.0
H999 H 0.06441 0.56723 0.13699 0.0
H1000 H 0.06456 0.569 0.0568 0.0
H1001 H 0.05482 0.56106 0.09111 0.0
C1002 C 0.08527 0.57985 0.27419 0.0
N1003 N 0.07942 0.5713 0.27489 0.0
N1004 N 0.08056 0.56628 0.22423 0.0
C1005 C 0.08741 0.5714 0.18994 0.0
C1006 C 0.09053 0.58019 0.22036 0.0
C1007 C 0.08633 0.58705 0.32608 0.0
H1008 H 0.08933 0.58273 0.36522 0.0
H1009 H 0.07862 0.59011 0.33823 0.0
H1010 H 0.09162 0.59355 0.31607 0.0
O1011 O 0.07658 0.55141 0.35416 0.0
O1012 O 0.07831 0.543 0.26832 0.0
H1013 H 0.09267 0.55958 0.13031 0.0
H1014 H 0.09787 0.57221 0.11428 0.0
C1015 C 0.09094 0.56794 0.12944 0.0
H1016 H 0.08472 0.56935 0.09651 0.0
H1017 H 0.08532 0.53757 0.13918 0.0
O1018 O 0.07252 0.57312 0.41041 0.0
C1019 C 0.07912 0.54336 0.32506 0.0
Co1020 Co 0.18183 0.32157 0.08806 0.0
Co1021 Co 0.19266 0.32293 0.96401 0.0
C1022 C 0.18638 0.30268 0.0177 0.0
O1023 O 0.18234 0.307 0.063 0.0
O1024 O 0.19078 0.30795 0.97719 0.0
C1025 C 0.16873 0.31515 0.1852 0.0
O1026 O 0.16722 0.30675 0.15353 0.0
C1027 C 0.19309 0.31926 0.83705 0.0
C1028 C 0.20376 0.3312 0.80325 0.0
C1029 C 0.19717 0.32338 0.78501 0.0
N1030 N 0.19704 0.32443 0.88368 0.0
N1031 N 0.20358 0.33142 0.86346 0.0
C1032 C 0.18442 0.31166 0.84251 0.0
H1033 H 0.18019 0.31283 0.88504 0.0
H1034 H 0.17893 0.31245 0.80476 0.0
H1035 H 0.18763 0.30373 0.84207 0.0
C1036 C 0.16773 0.33643 0.03142 0.0
N1037 N 0.17581 0.32996 0.02932 0.0
N1038 N 0.18011 0.3304 0.97615 0.0
C1039 C 0.1747 0.33705 0.94191 0.0
C1040 C 0.16669 0.34114 0.97596 0.0
C1041 C 0.16185 0.33876 0.08746 0.0
H1042 H 0.16729 0.33962 0.12537 0.0
H1043 H 0.15663 0.3322 0.09763 0.0
H1044 H 0.15726 0.34594 0.08347 0.0
O1045 O 0.1958 0.32659 0.10576 0.0
O1046 O 0.20365 0.32819 0.01808 0.0
H1047 H 0.18474 0.34256 0.87293 0.0
H1048 H 0.17118 0.34424 0.85619 0.0
C1049 C 0.17695 0.33912 0.87731 0.0
H1050 H 0.17681 0.33177 0.85238 0.0
H1051 H 0.20752 0.33666 0.89055 0.0
O1052 O 0.17423 0.32237 0.16394 0.0
C1053 C 0.20365 0.32905 0.07485 0.0
Co1054 Co 0.42388 0.43007 0.83146 0.0
Co1055 Co 0.42335 0.44063 0.7065 0.0
C1056 C 0.44309 0.433 0.7618 0.0
O1057 O 0.43847 0.42949 0.80756 0.0
O1058 O 0.43815 0.43758 0.72042 0.0
C1059 C 0.42892 0.41626 0.9279 0.0
O1060 O 0.43698 0.41375 0.89543 0.0
C1061 C 0.42688 0.43982 0.57996 0.0
C1062 C 0.41658 0.45187 0.54366 0.0
C1063 C 0.4234 0.44414 0.52704 0.0
N1064 N 0.42232 0.44473 0.62557 0.0
N1065 N 0.41631 0.45206 0.60388 0.0
C1066 C 0.43324 0.43025 0.5875 0.0
H1067 H 0.43159 0.42654 0.63112 0.0
H1068 H 0.43167 0.42466 0.55109 0.0
H1069 H 0.44153 0.43235 0.58617 0.0
C1070 C 0.4083 0.41675 0.77551 0.0
N1071 N 0.41522 0.42445 0.77292 0.0
N1072 N 0.41484 0.42884 0.71995 0.0
C1073 C 0.40762 0.42401 0.68674 0.0
C1074 C 0.40325 0.41618 0.72093 0.0
C1075 C 0.40597 0.41078 0.83121 0.0
H1076 H 0.40474 0.41621 0.86886 0.0
H1077 H 0.41268 0.40585 0.84247 0.0
H1078 H 0.399 0.4059 0.82629 0.0
O1079 O 0.41982 0.44444 0.84737 0.0
O1080 O 0.41898 0.45216 0.75886 0.0
H1081 H 0.40321 0.43504 0.62014 0.0
H1082 H 0.39864 0.42211 0.6051 0.0
C1083 C 0.40511 0.42672 0.62326 0.0
H1084 H 0.41193 0.42519 0.59491 0.0
H1085 H 0.41169 0.45687 0.63002 0.0
O1086 O 0.42242 0.4227 0.90764 0.0
C1087 C 0.41802 0.45238 0.81554 0.0
C1088 C 0.19058 0.28632 0.96309 0.0
C1089 C 0.18596 0.29132 0.01206 0.0
C1090 C 0.19025 0.27559 0.95818 0.0
C1091 C 0.17594 0.25281 0.01122 0.0
H1092 H 0.20084 0.23786 0.96986 0.0
C1093 C 0.18008 0.20928 0.05065 0.0
C1094 C 0.18512 0.20335 0.00693 0.0
C1095 C 0.17994 0.22001 0.0467 0.0
C1096 C 0.19379 0.24193 0.98059 0.0
H1097 H 0.17735 0.28894 0.09414 0.0
H1098 H 0.17683 0.27024 0.08564 0.0
H1099 H 0.20102 0.25668 0.97121 0.0
H1100 H 0.19391 0.20406 0.92444 0.0
H1101 H 0.1936 0.22284 0.91746 0.0
H1102 H 0.16872 0.23808 0.02118 0.0
C1103 C 0.18061 0.27463 0.05074 0.0
C1104 C 0.19389 0.2527 0.9814 0.0
C1105 C 0.18096 0.28535 0.05577 0.0
C1106 C 0.18999 0.2084 0.95899 0.0
C1107 C 0.18985 0.21916 0.95508 0.0
C1108 C 0.17583 0.24205 0.01033 0.0
C1109 C 0.18526 0.26964 0.00196 0.0
C1110 C 0.185 0.25824 -0.00248 0.0
C1111 C 0.18483 0.22507 -0.00106 0.0
C1112 C 0.18479 0.23649 -0.00417 0.0
H1113 H 0.19447 0.29069 0.92854 0.0
H1114 H 0.19382 0.27195 0.91982 0.0
H1115 H 0.16892 0.25687 0.02273 0.0
H1116 H 0.17628 0.20566 0.08831 0.0
H1117 H 0.17615 0.22435 0.08173 0.0
C1118 C 0.03652 0.93907 0.21688 0.0
C1119 C 0.04171 0.93399 0.26355 0.0
C1120 C 0.02575 0.93918 0.2149 0.0
C1121 C 0.00308 0.93612 0.31272 0.0
H1122 H 0.98813 0.93289 0.16369 0.0
C1123 C 0.95911 0.93046 0.30574 0.0
C1124 C 0.9536 0.93602 0.26222 0.0
C1125 C 0.96986 0.93019 0.30458 0.0
C1126 C 0.99221 0.9339 0.20554 0.0
H1127 H 0.03965 0.92477 0.34374 0.0
H1128 H 0.02093 0.92484 0.3397 0.0
H1129 H 0.00695 0.93232 0.16347 0.0
H1130 H 0.95512 0.94574 0.18367 0.0
H1131 H 0.97389 0.94523 0.18168 0.0
H1132 H 0.98836 0.93766 0.35484 0.0
C1133 C 0.02516 0.92892 0.30532 0.0
C1134 C 0.00298 0.93358 0.20542 0.0
C1135 C 0.03591 0.92883 0.30739 0.0
C1136 C 0.9591 0.94129 0.21746 0.0
C1137 C 0.96986 0.94098 0.21622 0.0
C1138 C 0.99233 0.93641 0.31285 0.0
C1139 C 0.01996 0.93419 0.25947 0.0
C1140 C 0.00853 0.93464 0.25908 0.0
C1141 C 0.97535 0.93546 0.25988 0.0
C1142 C 0.98678 0.93527 0.25933 0.0
H1143 H 0.04076 0.94311 0.18236 0.0
H1144 H 0.02196 0.94338 0.17925 0.0
H1145 H 0.00713 0.93717 0.35464 0.0
H1146 H 0.95513 0.9263 0.34078 0.0
H1147 H 0.97388 0.92576 0.33842 0.0
C1148 C 0.30578 0.78678 0.45987 0.0
C1149 C 0.31065 0.79211 0.5068 0.0
C1150 C 0.30609 0.77601 0.45752 0.0
C1151 C 0.30968 0.75346 0.55513 0.0
H1152 H 0.3141 0.73858 0.40693 0.0
C1153 C 0.31653 0.70978 0.55261 0.0
C1154 C 0.31129 0.704 0.50896 0.0
C1155 C 0.31668 0.72052 0.54978 0.0
C1156 C 0.31276 0.74263 0.44853 0.0
H1157 H 0.3199 0.7903 0.5871 0.0
H1158 H 0.3205 0.77159 0.58259 0.0
H1159 H 0.31394 0.75743 0.40641 0.0
H1160 H 0.3023 0.70499 0.42725 0.0
H1161 H 0.30249 0.72379 0.42275 0.0
H1162 H 0.30847 0.73873 0.59733 0.0
C1163 C 0.3163 0.77572 0.54819 0.0
C1164 C 0.31266 0.75342 0.44823 0.0
C1165 C 0.316 0.78645 0.55055 0.0
C1166 C 0.30639 0.70921 0.46169 0.0
C1167 C 0.30654 0.71998 0.45888 0.0
C1168 C 0.30977 0.74271 0.55543 0.0
C1169 C 0.31125 0.77037 0.50208 0.0
C1170 C 0.31119 0.75893 0.50164 0.0
C1171 C 0.31159 0.72574 0.50329 0.0
C1172 C 0.31137 0.73717 0.50225 0.0
H1173 H 0.30161 0.7909 0.42536 0.0
H1174 H 0.30206 0.77209 0.42166 0.0
H1175 H 0.30831 0.75748 0.59681 0.0
H1176 H 0.32045 0.70602 0.58942 0.0
H1177 H 0.32079 0.72474 0.5841 0.0
C1178 C 0.45972 0.06534 0.8127 0.0
C1179 C 0.45382 0.06095 0.76652 0.0
C1180 C 0.47047 0.06531 0.80973 0.0
C1181 C 0.49233 0.06278 0.70549 0.0
H1182 H 0.50748 0.05571 0.84933 0.0
C1183 C 0.53628 0.05504 0.70725 0.0
C1184 C 0.54191 0.05903 0.75575 0.0
C1185 C 0.52552 0.05548 0.70696 0.0
C1186 C 0.50337 0.05782 0.80896 0.0
H1187 H 0.45459 0.05326 0.6804 0.0
H1188 H 0.47338 0.05315 0.67558 0.0
H1189 H 0.48872 0.05614 0.8516 0.0
H1190 H 0.54064 0.06681 0.84143 0.0
H1191 H 0.5219 0.06765 0.84051 0.0
H1192 H 0.50702 0.06444 0.66289 0.0
C1193 C 0.46967 0.05667 0.71384 0.0
C1194 C 0.49262 0.05806 0.81026 0.0
C1195 C 0.45891 0.05669 0.71681 0.0
C1196 C 0.53655 0.0636 0.80349 0.0
C1197 C 0.5258 0.06404 0.80317 0.0
C1198 C 0.5031 0.06254 0.70419 0.0
C1199 C 0.47556 0.06091 0.76053 0.0
C1200 C 0.48698 0.06059 0.75863 0.0
C1201 C 0.52016 0.05991 0.75515 0.0
C1202 C 0.50873 0.0601 0.75601 0.0
H1203 H 0.45606 0.06874 0.85151 0.0
H1204 H 0.47479 0.06878 0.84596 0.0
H1205 H 0.4882 0.06486 0.66516 0.0
H1206 H 0.54017 0.05148 0.6697 0.0
H1207 H 0.52138 0.05215 0.66956 0.0
C1208 C 0.19055 0.70786 0.03585 0.0
C1209 C 0.18574 0.70298 0.98708 0.0
C1210 C 0.19032 0.71859 0.04139 0.0
C1211 C 0.17591 0.7415 0.9909 0.0
H1212 H 0.20101 0.75639 0.02896 0.0
C1213 C 0.18012 0.78488 0.94797 0.0
C1214 C 0.18527 0.7909 0.99081 0.0
C1215 C 0.17997 0.77416 0.95281 0.0
C1216 C 0.1939 0.75234 0.01918 0.0
H1217 H 0.1769 0.70558 0.90595 0.0
H1218 H 0.17656 0.72425 0.91554 0.0
H1219 H 0.20112 0.73755 0.02808 0.0
H1220 H 0.19428 0.79037 0.07262 0.0
H1221 H 0.19396 0.7716 0.08111 0.0
H1222 H 0.16872 0.75625 0.98128 0.0
C1223 C 0.18041 0.71977 0.94984 0.0
C1224 C 0.19397 0.74156 0.01866 0.0
C1225 C 0.18066 0.70907 0.94417 0.0
C1226 C 0.19026 0.78596 0.03875 0.0
C1227 C 0.19012 0.77521 0.04353 0.0
C1228 C 0.17584 0.75226 0.99149 0.0
C1229 C 0.18522 0.72465 -0.00153 0.0
C1230 C 0.18501 0.73604 0.00353 0.0
C1231 C 0.18496 0.7692 0.0006 0.0
C1232 C 0.18488 0.75779 0.00465 0.0
H1233 H 0.1945 0.7034 0.0698 0.0
H1234 H 0.19403 0.72215 0.07958 0.0
H1235 H 0.16884 0.73746 0.98023 0.0
H1236 H 0.17622 0.78842 0.91035 0.0
H1237 H 0.17607 0.76974 0.91846 0.0
C1238 C 0.53582 0.92957 0.1933 0.0
C1239 C 0.54131 0.93465 0.23881 0.0
C1240 C 0.52507 0.92934 0.19397 0.0
C1241 C 0.50241 0.93249 0.2915 0.0
H1242 H 0.48827 0.9375 0.14142 0.0
C1243 C 0.45823 0.93859 0.27418 0.0
C1244 C 0.45321 0.93389 0.22554 0.0
C1245 C 0.46899 0.93855 0.27797 0.0
C1246 C 0.4921 0.93598 0.18355 0.0
H1247 H 0.53979 0.94328 0.3215 0.0
H1248 H 0.52097 0.94294 0.32229 0.0
H1249 H 0.50703 0.93765 0.14434 0.0
H1250 H 0.45557 0.92525 0.14349 0.0
H1251 H 0.47428 0.9251 0.15053 0.0
H1252 H 0.48742 0.93082 0.33063 0.0
C1253 C 0.52502 0.93908 0.28634 0.0
C1254 C 0.50284 0.93606 0.18523 0.0
C1255 C 0.5358 0.93932 0.28567 0.0
C1256 C 0.45918 0.929 0.18138 0.0
C1257 C 0.46991 0.92896 0.1852 0.0
C1258 C 0.49163 0.9324 0.28982 0.0
C1259 C 0.51955 0.93418 0.24013 0.0
C1260 C 0.50812 0.93426 0.2391 0.0
C1261 C 0.47494 0.93381 0.23321 0.0
C1262 C 0.48637 0.93408 0.2357 0.0
H1263 H 0.53981 0.92583 0.1567 0.0
H1264 H 0.52108 0.92535 0.15827 0.0
H1265 H 0.50626 0.93099 0.33356 0.0
H1266 H 0.45387 0.9424 0.30904 0.0
H1267 H 0.47265 0.94242 0.31527 0.0
C1268 C 0.30571 0.20812 0.52595 0.0
C1269 C 0.31027 0.20285 0.47779 0.0
C1270 C 0.30593 0.21889 0.5284 0.0
C1271 C 0.30891 0.24164 0.43124 0.0
H1272 H 0.31422 0.25615 0.57971 0.0
C1273 C 0.31626 0.28529 0.43708 0.0
C1274 C 0.31128 0.29098 0.4821 0.0
C1275 C 0.31624 0.27453 0.43851 0.0
C1276 C 0.31263 0.2522 0.53806 0.0
H1277 H 0.31884 0.20477 0.39513 0.0
H1278 H 0.31932 0.22349 0.39988 0.0
H1279 H 0.314 0.23731 0.57878 0.0
H1280 H 0.30254 0.2898 0.56463 0.0
H1281 H 0.30247 0.27099 0.56678 0.0
H1282 H 0.30755 0.25649 0.39045 0.0
C1283 C 0.31542 0.21931 0.43519 0.0
C1284 C 0.3125 0.24142 0.53753 0.0
C1285 C 0.31519 0.20857 0.43269 0.0
C1286 C 0.30643 0.28566 0.52916 0.0
C1287 C 0.30644 0.27488 0.53062 0.0
C1288 C 0.30906 0.25239 0.43176 0.0
C1289 C 0.31071 0.2246 0.48277 0.0
C1290 C 0.31069 0.23603 0.484 0.0
C1291 C 0.31127 0.26922 0.485 0.0
C1292 C 0.31097 0.25779 0.48508 0.0
H1293 H 0.30187 0.20394 0.56148 0.0
H1294 H 0.30217 0.22274 0.56539 0.0
H1295 H 0.30729 0.23772 0.38952 0.0
H1296 H 0.32011 0.28912 0.40032 0.0
H1297 H 0.32017 0.27037 0.40322 0.0
C1298 C 0.95822 0.05652 0.7908 0.0
C1299 C 0.95351 0.06137 0.74158 0.0
C1300 C 0.96893 0.05688 0.79807 0.0
C1301 C 0.99206 0.07134 0.75058 0.0
H1302 H 0.00667 0.04602 0.78711 0.0
C1303 C 0.0352 0.06626 0.70333 0.0
C1304 C 0.04127 0.06088 0.74509 0.0
C1305 C 0.02453 0.06676 0.7099 0.0
C1306 C 0.0027 0.05319 0.77786 0.0
H1307 H 0.95636 0.07048 0.66179 0.0
H1308 H 0.97496 0.07102 0.67431 0.0
H1309 H 0.98785 0.04612 0.78629 0.0
H1310 H 0.04085 0.05192 0.82706 0.0
H1311 H 0.02214 0.05281 0.83845 0.0
H1312 H 0.00689 0.07837 0.741 0.0
C1313 C 0.97039 0.06705 0.70764 0.0
C1314 C 0.99192 0.05325 0.77738 0.0
C1315 C 0.95972 0.06667 0.70026 0.0
C1316 C 0.0364 0.05608 0.79393 0.0
C1317 C 0.02569 0.05656 0.8004 0.0
C1318 C 0.00282 0.07129 0.75106 0.0
C1319 C 0.97512 0.06213 0.75647 0.0
C1320 C 0.9865 0.06228 0.76259 0.0
C1321 C 0.01964 0.06189 0.75835 0.0
C1322 C 0.00825 0.06216 0.76355 0.0
H1323 H 0.95366 0.05241 0.8236 0.0
H1324 H 0.97235 0.05309 0.83641 0.0
H1325 H 0.98809 0.07847 0.74017 0.0
H1326 H 0.03868 0.07003 0.66513 0.0
H1327 H 0.02007 0.07078 0.67624 0.0
C1328 C 0.81467 0.70967 0.93097 0.0
C1329 C 0.81023 0.7038 0.97712 0.0
C1330 C 0.81441 0.72041 0.93295 0.0
C1331 C 0.81127 0.74253 0.03423 0.0
H1332 H 0.80452 0.75705 0.88768 0.0
C1333 C 0.80458 0.78667 0.02442 0.0
C1334 C 0.80891 0.79189 0.97536 0.0
C1335 C 0.80459 0.7759 0.02654 0.0
C1336 C 0.80652 0.75311 0.92881 0.0
H1337 H 0.80223 0.70464 0.06225 0.0
H1338 H 0.80175 0.72345 0.0654 0.0
H1339 H 0.80488 0.73828 0.88831 0.0
H1340 H 0.81677 0.78988 0.89045 0.0
H1341 H 0.81687 0.77115 0.89453 0.0
H1342 H 0.81296 0.75741 0.0746 0.0
C1343 C 0.80547 0.7197 0.02789 0.0
C1344 C 0.80672 0.74236 0.92918 0.0
C1345 C 0.8057 0.70893 0.0259 0.0
C1346 C 0.81332 0.78611 0.92879 0.0
C1347 C 0.81333 0.77537 0.93092 0.0
C1348 C 0.81108 0.75331 0.03385 0.0
C1349 C 0.80973 0.72554 0.9811 0.0
C1350 C 0.80919 0.73696 0.98171 0.0
C1351 C 0.80892 0.77014 0.97963 0.0
C1352 C 0.80879 0.75871 0.98096 0.0
H1353 H 0.81827 0.70598 0.89287 0.0
H1354 H 0.81792 0.7247 0.89673 0.0
H1355 H 0.81329 0.73857 0.07524 0.0
H1356 H 0.80111 0.79088 0.06107 0.0
H1357 H 0.80105 0.77208 0.06442 0.0
C1358 C 0.68776 0.28567 0.5316 0.0
C1359 C 0.68341 0.29087 0.48249 0.0
C1360 C 0.68762 0.2749 0.53423 0.0
C1361 C 0.68569 0.25219 0.43642 0.0
H1362 H 0.6797 0.23741 0.58314 0.0
C1363 C 0.6792 0.20846 0.43839 0.0
C1364 C 0.68393 0.20276 0.4843 0.0
C1365 C 0.679 0.21921 0.44056 0.0
C1366 C 0.68149 0.24144 0.54201 0.0
H1367 H 0.67526 0.28884 0.39848 0.0
H1368 H 0.67494 0.27011 0.40348 0.0
H1369 H 0.67952 0.25626 0.58277 0.0
H1370 H 0.69198 0.2039 0.56921 0.0
H1371 H 0.69168 0.22272 0.57262 0.0
H1372 H 0.68767 0.23743 0.39559 0.0
C1373 C 0.67861 0.27434 0.43943 0.0
C1374 C 0.68139 0.25222 0.54179 0.0
C1375 C 0.67874 0.28509 0.43678 0.0
C1376 C 0.68829 0.20806 0.53303 0.0
C1377 C 0.68807 0.21883 0.53519 0.0
C1378 C 0.68579 0.24144 0.43663 0.0
C1379 C 0.68315 0.26913 0.48781 0.0
C1380 C 0.68341 0.2577 0.48884 0.0
C1381 C 0.68352 0.22451 0.48864 0.0
C1382 C 0.68362 0.23594 0.48928 0.0
H1383 H 0.6914 0.28989 0.56764 0.0
H1384 H 0.69125 0.2711 0.57188 0.0
H1385 H 0.6875 0.25619 0.39522 0.0
H1386 H 0.67572 0.20465 0.40035 0.0
H1387 H 0.67527 0.22336 0.40451 0.0
C1388 C 0.81725 0.21015 0.04076 0.0
C1389 C 0.81181 0.20405 -0.00055 0.0
C1390 C 0.81783 0.22081 0.03345 0.0
C1391 C 0.80432 0.24257 0.96417 0.0
H1392 H 0.82963 0.25721 0.00063 0.0
C1393 C 0.80744 0.28697 0.94852 0.0
C1394 C 0.81227 0.2918 -0.00263 0.0
C1395 C 0.80792 0.27627 0.94164 0.0
C1396 C 0.8225 0.25323 0.99056 0.0
H1397 H 0.80286 0.20439 0.91741 0.0
H1398 H 0.8039 0.22306 0.90474 0.0
H1399 H 0.8295 0.23841 0.00131 0.0
H1400 H 0.82156 0.28916 0.07672 0.0
H1401 H 0.82232 0.27055 0.06497 0.0
H1402 H 0.79727 0.2574 0.95466 0.0
C1403 C 0.80763 0.21956 0.94304 0.0
C1404 C 0.82242 0.24247 0.99094 0.0
C1405 C 0.80706 0.20886 0.95024 0.0
C1406 C 0.81775 0.28571 0.03854 0.0
C1407 C 0.81825 0.27503 0.03159 0.0
C1408 C 0.8044 0.25334 0.96382 0.0
C1409 C 0.81299 0.22564 0.98471 0.0
C1410 C 0.81329 0.23703 0.97884 0.0
C1411 C 0.81329 0.27018 0.98332 0.0
C1412 C 0.81344 0.25878 0.9781 0.0
H1413 H 0.82099 0.20671 0.0792 0.0
H1414 H 0.82189 0.22531 0.06682 0.0
H1415 H 0.79714 0.23859 0.95524 0.0
H1416 H 0.8032 0.29144 0.91579 0.0
H1417 H 0.80411 0.27276 0.90366 0.0
C1418 C 0.67896 0.70868 0.55366 0.0
C1419 C 0.68396 0.7031 0.50831 0.0
C1420 C 0.67866 0.71943 0.55197 0.0
C1421 C 0.68152 0.74188 0.45225 0.0
H1422 H 0.68673 0.75636 0.60095 0.0
C1423 C 0.68744 0.78616 0.46689 0.0
C1424 C 0.6828 0.7912 0.5156 0.0
C1425 C 0.68741 0.77539 0.4634 0.0
C1426 C 0.68515 0.75244 0.55919 0.0
H1427 H 0.69238 0.70444 0.42477 0.0
H1428 H 0.69193 0.72326 0.42222 0.0
H1429 H 0.68698 0.7376 0.59943 0.0
H1430 H 0.67423 0.78889 0.59794 0.0
H1431 H 0.67411 0.77018 0.59143 0.0
H1432 H 0.6797 0.75678 0.41211 0.0
C1433 C 0.68818 0.71929 0.45885 0.0
C1434 C 0.68529 0.74169 0.55832 0.0
C1435 C 0.68849 0.70851 0.46053 0.0
C1436 C 0.67795 0.78526 0.56 0.0
C1437 C 0.67792 0.77453 0.55649 0.0
C1438 C 0.68137 0.75266 0.45312 0.0
C1439 C 0.68336 0.72485 0.50493 0.0
C1440 C 0.6834 0.73629 0.50499 0.0
C1441 C 0.68275 0.76947 0.50856 0.0
C1442 C 0.68311 0.75804 0.50675 0.0
H1443 H 0.67533 0.70477 0.59093 0.0
H1444 H 0.67473 0.7235 0.58759 0.0
H1445 H 0.67995 0.73792 0.41058 0.0
H1446 H 0.69122 0.7905 0.43183 0.0
H1447 H 0.69126 0.7717 0.42611 0.0
C1448 C 0.46003 0.4272 0.80359 0.0
C1449 C 0.45442 0.43201 0.75756 0.0
C1450 C 0.47077 0.42672 0.80123 0.0
C1451 C 0.49305 0.42899 0.69935 0.0
H1452 H 0.50787 0.43554 0.84518 0.0
C1453 C 0.5368 0.43754 0.70505 0.0
C1454 C 0.54246 0.43359 0.75356 0.0
C1455 C 0.52606 0.43672 0.70388 0.0
C1456 C 0.50385 0.43356 0.80428 0.0
H1457 H 0.45571 0.43986 0.67211 0.0
H1458 H 0.47448 0.43911 0.66843 0.0
H1459 H 0.48911 0.43516 0.84587 0.0
H1460 H 0.54129 0.42546 0.83819 0.0
H1461 H 0.52259 0.42397 0.83577 0.0
H1462 H 0.50785 0.42748 0.65772 0.0
C1463 C 0.47055 0.43563 0.70607 0.0
C1464 C 0.4931 0.43334 0.80468 0.0
C1465 C 0.45979 0.43611 0.70839 0.0
C1466 C 0.53717 0.42864 0.8003 0.0
C1467 C 0.52644 0.42783 0.7991 0.0
C1468 C 0.50383 0.42921 0.69896 0.0
C1469 C 0.47615 0.43104 0.75283 0.0
C1470 C 0.48758 0.43106 0.75224 0.0
C1471 C 0.52076 0.43195 0.75117 0.0
C1472 C 0.50934 0.43151 0.75144 0.0
H1473 H 0.45614 0.4239 0.84194 0.0
H1474 H 0.47486 0.42299 0.83748 0.0
H1475 H 0.48901 0.4271 0.65841 0.0
H1476 H 0.54063 0.44138 0.66824 0.0
H1477 H 0.52189 0.44005 0.66661 0.0
C1478 C 0.03524 0.56525 0.30552 0.0
C1479 C 0.04125 0.56044 0.26131 0.0
C1480 C 0.02451 0.56512 0.30192 0.0
C1481 C 0.00275 0.56144 0.19813 0.0
H1482 H 0.9876 0.5562 0.3445 0.0
C1483 C 0.95845 0.55508 0.20617 0.0
C1484 C 0.95317 0.55991 0.25343 0.0
C1485 C 0.96923 0.55511 0.20437 0.0
C1486 C 0.99171 0.55777 0.30336 0.0
H1487 H 0.04068 0.55189 0.17789 0.0
H1488 H 0.02188 0.5516 0.17203 0.0
H1489 H 0.00636 0.55628 0.34628 0.0
H1490 H 0.9551 0.56879 0.33501 0.0
H1491 H 0.97382 0.5689 0.33151 0.0
H1492 H 0.98803 0.56293 0.15533 0.0
C1493 C 0.02551 0.55553 0.20922 0.0
C1494 C 0.00246 0.55782 0.30438 0.0
C1495 C 0.03627 0.55565 0.2128 0.0
C1496 C 0.95889 0.56493 0.29815 0.0
C1497 C 0.96964 0.56495 0.29637 0.0
C1498 C 0.99197 0.56138 0.1971 0.0
C1499 C 0.01952 0.56018 0.2541 0.0
C1500 C 0.0081 0.55976 0.25196 0.0
C1501 C 0.97492 0.55995 0.24987 0.0
C1502 C 0.98635 0.55966 0.24989 0.0
H1503 H 0.0388 0.56907 0.3433 0.0
H1504 H 0.02011 0.56894 0.33664 0.0
H1505 H 0.00689 0.56304 0.15712 0.0
H1506 H 0.95427 0.55114 0.17097 0.0
H1507 H 0.9731 0.55115 0.16817 0.0
C1508 C 0.03697 0.43997 0.77726 0.0
C1509 C 0.04233 0.43536 0.72956 0.0
C1510 C 0.0262 0.43978 0.779 0.0
C1511 C 0.00358 0.43672 0.68084 0.0
H1512 H 0.98891 0.43147 0.82886 0.0
C1513 C 0.95999 0.42915 0.68493 0.0
C1514 C 0.95419 0.43416 0.72941 0.0
C1515 C 0.97073 0.42922 0.68697 0.0
C1516 C 0.9929 0.43305 0.78734 0.0
H1517 H 0.04055 0.42679 0.64681 0.0
H1518 H 0.02181 0.42636 0.6503 0.0
H1519 H 0.00775 0.43173 0.82865 0.0
H1520 H 0.95518 0.443 0.81166 0.0
H1521 H 0.97399 0.44316 0.81491 0.0
H1522 H 0.98877 0.438 0.63944 0.0
C1523 C 0.02593 0.43026 0.68585 0.0
C1524 C 0.00368 0.4332 0.78721 0.0
C1525 C 0.03668 0.43046 0.68406 0.0
C1526 C 0.95941 0.43908 0.77661 0.0
C1527 C 0.97018 0.43913 0.77869 0.0
C1528 C 0.99282 0.43654 0.68096 0.0
C1529 C 0.02057 0.43498 0.7331 0.0
C1530 C 0.00913 0.43498 0.73385 0.0
C1531 C 0.97595 0.43429 0.73353 0.0
C1532 C 0.98737 0.43465 0.7341 0.0
H1533 H 0.04108 0.44381 0.81307 0.0
H1534 H 0.02229 0.44356 0.81571 0.0
H1535 H 0.00754 0.43831 0.63924 0.0
H1536 H 0.95624 0.42524 0.64808 0.0
H1537 H 0.97497 0.42528 0.65205 0.0
C1538 C 0.45847 0.55898 0.28346 0.0
C1539 C 0.45319 0.56424 0.23778 0.0
C1540 C 0.46923 0.5594 0.28687 0.0
C1541 C 0.49177 0.56382 0.19113 0.0
H1542 H 0.50672 0.56592 0.34084 0.0
C1543 C 0.53586 0.56791 0.197 0.0
C1544 C 0.54119 0.56194 0.23942 0.0
C1545 C 0.52514 0.56876 0.19938 0.0
C1546 C 0.50265 0.56524 0.29875 0.0
H1547 H 0.45504 0.57445 0.16154 0.0
H1548 H 0.47374 0.57524 0.16794 0.0
H1549 H 0.48788 0.56652 0.34113 0.0
H1550 H 0.53942 0.55226 0.31796 0.0
H1551 H 0.5207 0.55367 0.32163 0.0
H1552 H 0.50646 0.56243 0.1487 0.0
C1553 C 0.46959 0.57064 0.2004 0.0
C1554 C 0.49187 0.56559 0.29894 0.0
C1555 C 0.45886 0.57022 0.19696 0.0
C1556 C 0.53557 0.55696 0.28474 0.0
C1557 C 0.52484 0.5578 0.28705 0.0
C1558 C 0.50252 0.56346 0.19095 0.0
C1559 C 0.4749 0.56509 0.2447 0.0
C1560 C 0.48633 0.56489 0.24507 0.0
C1561 C 0.5195 0.56365 0.24409 0.0
C1562 C 0.50808 0.56417 0.24471 0.0
H1563 H 0.45433 0.55433 0.31576 0.0
H1564 H 0.47311 0.555 0.32132 0.0
H1565 H 0.48772 0.56306 0.14901 0.0
H1566 H 0.53995 0.57191 0.16173 0.0
H1567 H 0.52127 0.57345 0.16617 0.0
C1568 C 0.16436 0.16689 0.2638 0.0
C1569 C 0.16439 0.17692 0.24011 0.0
C1570 C 0.16501 0.16536 0.32532 0.0
C1571 C 0.1648 0.178 0.47353 0.0
H1572 H 0.18841 0.16028 0.50293 0.0
C1573 C 0.18023 0.16917 0.70978 0.0
C1574 C 0.19093 0.17025 0.71761 0.0
C1575 C 0.17591 0.16945 0.65283 0.0
C1576 C 0.18182 0.16525 0.49535 0.0
H1577 H 0.1638 0.1932 0.26225 0.0
H1578 H 0.16499 0.19052 0.36988 0.0
H1579 H 0.1813 0.16157 0.4024 0.0
H1580 H 0.20557 0.17184 0.67217 0.0
H1581 H 0.198 0.17227 0.57172 0.0
H1582 H 0.16555 0.18188 0.5665 0.0
C1583 C 0.16451 0.18384 0.34092 0.0
C1584 C 0.17765 0.16588 0.43807 0.0
C1585 C 0.16384 0.18538 0.27923 0.0
C1586 C 0.19729 0.17114 0.66722 0.0
C1587 C 0.19296 0.17136 0.60999 0.0
C1588 C 0.16894 0.17731 0.53106 0.0
C1589 C 0.16568 0.17383 0.36412 0.0
C1590 C 0.16918 0.17235 0.42643 0.0
C1591 C 0.18222 0.17062 0.60244 0.0
C1592 C 0.17757 0.17104 0.5422 0.0
H1593 H 0.1646 0.16022 0.23465 0.0
H1594 H 0.16566 0.15756 0.34229 0.0
H1595 H 0.15829 0.18305 0.46567 0.0
H1596 H 0.17516 0.16798 0.74757 0.0
H1597 H 0.16763 0.16862 0.64813 0.0
C1598 C 0.07665 0.91552 0.52809 0.0
C1599 C 0.06734 0.91393 0.49728 0.0
C1600 C 0.07682 0.91563 0.59036 0.0
C1601 C 0.05941 0.92314 0.70921 0.0
H1602 H 0.08289 0.91683 0.81018 0.0
C1603 C 0.06223 0.93648 0.95516 0.0
C1604 C 0.07183 0.94045 0.97287 0.0
C1605 C 0.06115 0.93159 0.89996 0.0
C1606 C 0.0763 0.91866 0.78241 0.0
H1607 H 0.05116 0.91003 0.50724 0.0
H1608 H 0.05149 0.91015 0.61638 0.0
H1609 H 0.08193 0.90954 0.70965 0.0
H1610 H 0.0877 0.94286 0.94628 0.0
H1611 H 0.08578 0.93449 0.84903 0.0
H1612 H 0.05393 0.93252 0.78106 0.0
C1613 C 0.0586 0.91152 0.59225 0.0
C1614 C 0.07572 0.91444 0.72508 0.0
C1615 C 0.05843 0.91139 0.52979 0.0
C1616 C 0.08023 0.93983 0.93359 0.0
C1617 C 0.07916 0.93492 0.87842 0.0
C1618 C 0.05998 0.92733 0.76652 0.0
C1619 C 0.06769 0.91414 0.62302 0.0
C1620 C 0.06741 0.91687 0.68731 0.0
C1621 C 0.06964 0.93063 0.86142 0.0
C1622 C 0.06856 0.92536 0.80306 0.0
H1623 H 0.08367 0.91737 0.50418 0.0
H1624 H 0.08394 0.91769 0.6126 0.0
H1625 H 0.05299 0.92531 0.68091 0.0
H1626 H 0.05558 0.93706 0.9842 0.0
H1627 H 0.05371 0.9284 0.88796 0.0
C1628 C 0.32977 0.83013 0.7624 0.0
C1629 C 0.33012 0.82002 0.73994 0.0
C1630 C 0.32941 0.83185 0.82381 0.0
C1631 C 0.33082 0.81974 0.97339 0.0
H1632 H 0.30614 0.83593 0.00267 0.0
C1633 C 0.31468 0.82757 0.20947 0.0
C1634 C 0.3041 0.82556 0.2167 0.0
C1635 C 0.31909 0.82767 0.15274 0.0
C1636 C 0.31305 0.8314 0.99513 0.0
H1637 H 0.3317 0.80388 0.76373 0.0
H1638 H 0.33098 0.80689 0.87123 0.0
H1639 H 0.31321 0.83495 0.902 0.0
H1640 H 0.28972 0.82271 0.17044 0.0
H1641 H 0.29743 0.82298 0.07046 0.0
H1642 H 0.33042 0.81596 0.0666 0.0
C1643 C 0.33096 0.81348 0.84144 0.0
C1644 C 0.31718 0.83096 0.93777 0.0
C1645 C 0.33136 0.81175 0.77985 0.0
C1646 C 0.29791 0.82414 0.16597 0.0
C1647 C 0.30232 0.82432 0.109 0.0
C1648 C 0.32672 0.82026 0.03104 0.0
C1649 C 0.32939 0.82349 0.86367 0.0
C1650 C 0.32602 0.825 0.92613 0.0
C1651 C 0.31297 0.82599 0.10205 0.0
C1652 C 0.31769 0.82595 0.04206 0.0
H1653 H 0.32902 0.83666 0.73253 0.0
H1654 H 0.32843 0.83966 0.83998 0.0
H1655 H 0.33762 0.81508 0.96551 0.0
H1656 H 0.31957 0.8292 0.24748 0.0
H1657 H 0.32727 0.82921 0.14842 0.0
C1658 C 0.41935 0.07996 0.03113 0.0
C1659 C 0.42862 0.08129 -0.00034 0.0
C1660 C 0.41932 0.0799 0.09342 0.0
C1661 C 0.43669 0.07192 0.21119 0.0
H1662 H 0.41367 0.07913 0.31351 0.0
C1663 C 0.43364 0.05841 0.45697 0.0
C1664 C 0.42388 0.0549 0.47495 0.0
C1665 C 0.43488 0.06331 0.40189 0.0
C1666 C 0.42014 0.07705 0.28537 0.0
H1667 H 0.44492 0.08476 0.00838 0.0
H1668 H 0.44484 0.08471 0.11758 0.0
H1669 H 0.41471 0.08638 0.2129 0.0
H1670 H 0.40787 0.0533 0.44883 0.0
H1671 H 0.41007 0.06165 0.35183 0.0
H1672 H 0.44192 0.0623 0.28267 0.0
C1673 C 0.43764 0.08352 0.09396 0.0
C1674 C 0.42076 0.08124 0.22801 0.0
C1675 C 0.43767 0.08362 0.03148 0.0
C1676 C 0.41547 0.05597 0.43598 0.0
C1677 C 0.41671 0.06088 0.38094 0.0
C1678 C 0.43607 0.06774 0.26852 0.0
C1679 C 0.42855 0.08118 0.1254 0.0
C1680 C 0.42889 0.07849 0.18973 0.0
C1681 C 0.42639 0.06473 0.36372 0.0
C1682 C 0.42763 0.07003 0.30553 0.0
H1683 H 0.41223 0.07827 0.00772 0.0
H1684 H 0.41219 0.07805 0.11622 0.0
H1685 H 0.44296 0.06951 0.18247 0.0
H1686 H 0.44028 0.05748 0.48578 0.0
H1687 H 0.44245 0.06616 0.38971 0.0
C1688 C 0.16425 0.80869 0.71516 0.0
C1689 C 0.16469 0.81708 0.75476 0.0
C1690 C 0.16486 0.81034 0.65356 0.0
C1691 C 0.17769 0.82863 0.55732 0.0
H1692 H 0.16573 0.81269 0.42812 0.0
C1693 C 0.19737 0.82366 0.32815 0.0
C1694 C 0.19102 0.82454 0.27771 0.0
C1695 C 0.19304 0.82344 0.38535 0.0
C1696 C 0.16907 0.81725 0.46377 0.0
H1697 H 0.16463 0.83378 0.76117 0.0
H1698 H 0.16559 0.83664 0.65367 0.0
H1699 H 0.15851 0.81129 0.52893 0.0
H1700 H 0.17525 0.82679 0.2476 0.0
H1701 H 0.16771 0.82612 0.34699 0.0
H1702 H 0.18837 0.83443 0.4927 0.0
C1703 C 0.16508 0.8288 0.6702 0.0
C1704 C 0.16496 0.81643 0.52129 0.0
C1705 C 0.16449 0.82716 0.73165 0.0
C1706 C 0.18031 0.82562 0.28544 0.0
C1707 C 0.17599 0.82531 0.34235 0.0
C1708 C 0.18184 0.82939 0.50006 0.0
C1709 C 0.16586 0.8204 0.63092 0.0
C1710 C 0.1693 0.82205 0.56866 0.0
C1711 C 0.18229 0.82414 0.39278 0.0
C1712 C 0.17764 0.82363 0.45294 0.0
H1713 H 0.16434 0.80084 0.7317 0.0
H1714 H 0.16542 0.80373 0.6242 0.0
H1715 H 0.1813 0.83292 0.5932 0.0
H1716 H 0.20566 0.82297 0.32328 0.0
H1717 H 0.19807 0.82252 0.42366 0.0
C1718 C 0.41866 0.91533 0.95895 0.0
C1719 C 0.42804 0.91391 0.9893 0.0
C1720 C 0.41843 0.91578 0.89671 0.0
C1721 C 0.4355 0.92437 0.77823 0.0
H1722 H 0.41226 0.91753 0.67657 0.0
C1723 C 0.43255 0.93763 0.53203 0.0
C1724 C 0.42286 0.94123 0.51351 0.0
C1725 C 0.43371 0.93288 0.58761 0.0
C1726 C 0.41878 0.91952 0.70456 0.0
H1727 H 0.44434 0.91065 0.97822 0.0
H1728 H 0.44391 0.91133 0.86919 0.0
H1729 H 0.41341 0.91009 0.7767 0.0
H1730 H 0.40687 0.94314 0.53913 0.0
H1731 H 0.40891 0.93501 0.637 0.0
H1732 H 0.44072 0.93403 0.70693 0.0
C1733 C 0.43678 0.91233 0.8937 0.0
C1734 C 0.41947 0.91522 0.76168 0.0
C1735 C 0.437 0.91187 0.95611 0.0
C1736 C 0.41442 0.9404 0.55242 0.0
C1737 C 0.41556 0.93563 0.60797 0.0
C1738 C 0.43483 0.92865 0.72114 0.0
C1739 C 0.42758 0.91479 0.86359 0.0
C1740 C 0.42771 0.9178 0.79965 0.0
C1741 C 0.42519 0.93168 0.62576 0.0
C1742 C 0.42634 0.92646 0.68428 0.0
H1743 H 0.41159 0.9168 0.98333 0.0
H1744 H 0.41122 0.9177 0.875 0.0
H1745 H 0.44185 0.92667 0.80671 0.0
H1746 H 0.43922 0.93838 0.50326 0.0
H1747 H 0.44123 0.92995 0.60016 0.0
C1748 C 0.30698 0.18274 0.78848 0.0
C1749 C 0.30329 0.17307 0.77012 0.0
C1750 C 0.31186 0.18384 0.84373 0.0
C1751 C 0.32526 0.16872 0.95999 0.0
H1752 H 0.31829 0.19169 0.0632 0.0
C1753 C 0.32862 0.16792 0.21433 0.0
C1754 C 0.33019 0.17718 0.24561 0.0
C1755 C 0.32841 0.16786 0.15204 0.0
C1756 C 0.32054 0.18537 0.03441 0.0
H1757 H 0.30135 0.15708 0.79578 0.0
H1758 H 0.30967 0.15904 0.89304 0.0
H1759 H 0.311 0.19083 0.96314 0.0
H1760 H 0.33392 0.19341 0.23639 0.0
H1761 H 0.33361 0.19329 0.12723 0.0
H1762 H 0.33452 0.16308 0.03222 0.0
C1763 C 0.30905 0.16571 0.86411 0.0
C1764 C 0.31631 0.18485 0.97715 0.0
C1765 C 0.30416 0.16461 0.8089 0.0
C1766 C 0.3326 0.18617 0.21348 0.0
C1767 C 0.33235 0.18612 0.15102 0.0
C1768 C 0.3295 0.16924 0.01728 0.0
C1769 C 0.31309 0.1753 0.88169 0.0
C1770 C 0.3184 0.17638 0.93998 0.0
C1771 C 0.32977 0.17707 0.11985 0.0
C1772 C 0.32697 0.17743 0.05566 0.0
H1773 H 0.30621 0.18942 0.75983 0.0
H1774 H 0.31486 0.19134 0.85617 0.0
H1775 H 0.32719 0.16221 0.93176 0.0
H1776 H 0.32686 0.16084 0.23794 0.0
H1777 H 0.32637 0.16076 0.12947 0.0
C1778 C 0.05704 0.08175 0.46812 0.0
C1779 C 0.06595 0.07989 0.50218 0.0
C1780 C 0.05743 0.08123 0.40577 0.0
C1781 C 0.07512 0.07837 0.27543 0.0
H1782 H 0.05413 0.05936 0.21958 0.0
C1783 C 0.08057 0.05329 0.06586 0.0
C1784 C 0.07217 0.05255 0.02656 0.0
C1785 C 0.07937 0.05797 0.12164 0.0
C1786 C 0.05996 0.06479 0.23413 0.0
H1787 H 0.08247 0.07728 0.49778 0.0
H1788 H 0.08312 0.07625 0.38957 0.0
H1789 H 0.05274 0.06676 0.3191 0.0
H1790 H 0.05583 0.05545 0.0157 0.0
H1791 H 0.05372 0.0637 0.11297 0.0
H1792 H 0.08251 0.07607 0.1909 0.0
C1793 C 0.07583 0.07808 0.41055 0.0
C1794 C 0.05913 0.0691 0.29105 0.0
C1795 C 0.07544 0.07861 0.47273 0.0
C1796 C 0.06246 0.05613 0.04484 0.0
C1797 C 0.06125 0.06078 0.10061 0.0
C1798 C 0.07596 0.07404 0.2185 0.0
C1799 C 0.06674 0.07887 0.37659 0.0
C1800 C 0.06681 0.07577 0.31282 0.0
C1801 C 0.06972 0.06189 0.13918 0.0
C1802 C 0.06849 0.06704 0.1978 0.0
H1803 H 0.04964 0.08287 0.48953 0.0
H1804 H 0.05035 0.08209 0.38059 0.0
H1805 H 0.0811 0.08358 0.29074 0.0
H1806 H 0.08813 0.05056 0.05269 0.0
H1807 H 0.08599 0.05854 0.151 0.0
C1808 C 0.83095 0.80693 0.71295 0.0
C1809 C 0.82945 0.81621 0.74414 0.0
C1810 C 0.83053 0.80679 0.65052 0.0
C1811 C 0.82909 0.82332 0.51494 0.0
H1812 H 0.80813 0.80377 0.4652 0.0
C1813 C 0.80415 0.83011 0.30741 0.0
C1814 C 0.80219 0.82169 0.26973 0.0
C1815 C 0.8089 0.82862 0.36268 0.0
C1816 C 0.81412 0.80916 0.47795 0.0
H1817 H 0.82757 0.83275 0.73482 0.0
H1818 H 0.82684 0.83251 0.6263 0.0
H1819 H 0.81556 0.80246 0.56483 0.0
H1820 H 0.80296 0.80506 0.26167 0.0
H1821 H 0.8114 0.80243 0.35817 0.0
H1822 H 0.82738 0.83022 0.42861 0.0
C1823 C 0.82828 0.82533 0.64963 0.0
C1824 C 0.81842 0.80838 0.53496 0.0
C1825 C 0.82863 0.82546 0.71189 0.0
C1826 C 0.80459 0.8117 0.28946 0.0
C1827 C 0.80936 0.8102 0.34479 0.0
C1828 C 0.82479 0.82409 0.45788 0.0
C1829 C 0.82872 0.81594 0.61849 0.0
C1830 C 0.82574 0.81562 0.5546 0.0
C1831 C 0.81174 0.81867 0.38146 0.0
C1832 C 0.81705 0.81719 0.43946 0.0
H1833 H 0.83166 0.79968 0.73664 0.0
H1834 H 0.83105 0.79946 0.62748 0.0
H1835 H 0.8348 0.82893 0.52869 0.0
H1836 H 0.80235 0.8379 0.29329 0.0
H1837 H 0.8104 0.83528 0.39063 0.0
C1838 C 0.93234 0.0565 0.04007 0.0
C1839 C 0.92249 0.05333 0.02157 0.0
C1840 C 0.93372 0.06112 0.09581 0.0
C1841 C 0.91945 0.07504 0.21304 0.0
H1842 H 0.94232 0.06698 0.31443 0.0
C1843 C 0.91992 0.07957 0.46724 0.0
C1844 C 0.92941 0.08058 0.49699 0.0
C1845 C 0.91956 0.07906 0.40504 0.0
C1846 C 0.93603 0.06953 0.28615 0.0
H1847 H 0.90646 0.05202 0.04738 0.0
H1848 H 0.90888 0.05993 0.14562 0.0
H1849 H 0.94074 0.05958 0.21498 0.0
H1850 H 0.94582 0.08307 0.48487 0.0
H1851 H 0.94517 0.08229 0.3759 0.0
H1852 H 0.91459 0.08478 0.28502 0.0
C1853 C 0.91549 0.05908 0.11644 0.0
C1854 C 0.93509 0.06523 0.22927 0.0
C1855 C 0.91412 0.05443 0.06069 0.0
C1856 C 0.9384 0.08217 0.46322 0.0
C1857 C 0.93805 0.08165 0.40085 0.0
C1858 C 0.9204 0.07936 0.26995 0.0
C1859 C 0.92527 0.06261 0.13415 0.0
C1860 C 0.92667 0.06776 0.19267 0.0
C1861 C 0.92869 0.07958 0.37138 0.0
C1862 C 0.92858 0.07647 0.30762 0.0
H1863 H 0.93895 0.05554 0.01107 0.0
H1864 H 0.94135 0.06374 0.10829 0.0
H1865 H 0.91299 0.07729 0.18523 0.0
H1866 H 0.91283 0.07845 0.49208 0.0
H1867 H 0.91223 0.07744 0.38382 0.0
C1868 C 0.66236 0.18659 0.21863 0.0
C1869 C 0.66441 0.17751 0.25075 0.0
C1870 C 0.66277 0.18658 0.1562 0.0
C1871 C 0.66535 0.16972 0.02231 0.0
H1872 H 0.68463 0.19073 0.96986 0.0
C1873 C 0.69062 0.16449 0.81428 0.0
C1874 C 0.69172 0.17295 0.77574 0.0
C1875 C 0.68581 0.16569 0.86963 0.0
C1876 C 0.67911 0.18491 0.98341 0.0
H1877 H 0.66726 0.16108 0.24298 0.0
H1878 H 0.66801 0.16106 0.13454 0.0
H1879 H 0.67722 0.19174 0.06961 0.0
H1880 H 0.68934 0.18941 0.76605 0.0
H1881 H 0.68084 0.19151 0.86271 0.0
H1882 H 0.66754 0.16271 0.93664 0.0
C1883 C 0.66614 0.16821 0.15712 0.0
C1884 C 0.67481 0.18552 0.04047 0.0
C1885 C 0.66578 0.16823 0.21938 0.0
C1886 C 0.68838 0.18272 0.79455 0.0
C1887 C 0.68358 0.18393 0.84996 0.0
C1888 C 0.66965 0.16911 0.96522 0.0
C1889 C 0.66515 0.17747 0.12504 0.0
C1890 C 0.66809 0.17779 0.06108 0.0
C1891 C 0.68209 0.17539 0.88761 0.0
C1892 C 0.67678 0.17656 0.94582 0.0
H1893 H 0.66121 0.19386 0.2416 0.0
H1894 H 0.6618 0.1938 0.13247 0.0
H1895 H 0.6601 0.16372 0.03674 0.0
H1896 H 0.69316 0.15688 0.8008 0.0
H1897 H 0.68498 0.15901 0.89831 0.0
C1898 C 0.57967 0.91544 0.98777 0.0
C1899 C 0.56964 0.91477 0.01119 0.0
C1900 C 0.5812 0.91598 0.92622 0.0
C1901 C 0.56871 0.91447 0.77773 0.0
H1902 H 0.58431 0.9395 0.74772 0.0
C1903 C 0.57605 0.93067 0.54126 0.0
C1904 C 0.57396 0.94123 0.53373 0.0
C1905 C 0.57618 0.9263 0.5981 0.0
C1906 C 0.57994 0.9325 0.75547 0.0
H1907 H 0.55348 0.91282 0.98879 0.0
H1908 H 0.55616 0.91384 0.8811 0.0
H1909 H 0.58368 0.93237 0.84838 0.0
H1910 H 0.57095 0.95561 0.57964 0.0
H1911 H 0.57127 0.94796 0.67982 0.0
H1912 H 0.56475 0.91482 0.68475 0.0
C1913 C 0.56283 0.91398 0.91026 0.0
C1914 C 0.57969 0.92833 0.81282 0.0
C1915 C 0.56129 0.91341 0.97197 0.0
C1916 C 0.57244 0.94743 0.58431 0.0
C1917 C 0.57266 0.94306 0.6414 0.0
C1918 C 0.56903 0.9186 0.72009 0.0
C1919 C 0.57273 0.91586 0.88717 0.0
C1920 C 0.57397 0.91935 0.8247 0.0
C1921 C 0.57444 0.93244 0.64864 0.0
C1922 C 0.57451 0.92775 0.70879 0.0
H1923 H 0.58628 0.9163 0.01704 0.0
H1924 H 0.58894 0.91719 0.90936 0.0
H1925 H 0.56423 0.90755 0.78579 0.0
H1926 H 0.57775 0.92578 0.50342 0.0
H1927 H 0.57781 0.91814 0.60261 0.0
C1928 C 0.83244 0.18819 0.27791 0.0
C1929 C 0.83045 0.1793 0.24401 0.0
C1930 C 0.83199 0.18782 0.34028 0.0
C1931 C 0.82909 0.17017 0.47083 0.0
H1932 H 0.81024 0.1913 0.52679 0.0
C1933 C 0.80393 0.16484 0.68011 0.0
C1934 C 0.80323 0.17322 0.71946 0.0
C1935 C 0.80865 0.16603 0.62443 0.0
C1936 C 0.81563 0.18543 0.51222 0.0
H1937 H 0.82768 0.16281 0.24863 0.0
H1938 H 0.82677 0.16218 0.35687 0.0
H1939 H 0.81763 0.19265 0.42725 0.0
H1940 H 0.80624 0.18955 0.73052 0.0
H1941 H 0.81454 0.19164 0.63342 0.0
H1942 H 0.82674 0.16278 0.55536 0.0
C1943 C 0.82865 0.16946 0.33577 0.0
C1944 C 0.81993 0.18623 0.45529 0.0
C1945 C 0.8291 0.16983 0.27357 0.0
C1946 C 0.80688 0.18292 0.70133 0.0
C1947 C 0.81156 0.18413 0.64566 0.0
C1948 C 0.82476 0.16936 0.52779 0.0
C1949 C 0.82958 0.17853 0.36962 0.0
C1950 C 0.82653 0.1785 0.43346 0.0
C1951 C 0.81264 0.17566 0.60704 0.0
C1952 C 0.81782 0.17687 0.5485 0.0
H1953 H 0.83361 0.19559 0.2564 0.0
H1954 H 0.83295 0.19489 0.36537 0.0
H1955 H 0.83424 0.16415 0.45548 0.0
H1956 H 0.80114 0.15729 0.69317 0.0
H1957 H 0.80918 0.15942 0.59501 0.0
C1958 C 0.56154 0.05644 0.43894 0.0
C1959 C 0.57098 0.05217 0.45711 0.0
C1960 C 0.56071 0.06145 0.38388 0.0
C1961 C 0.57655 0.074 0.26767 0.0
H1962 H 0.55334 0.06813 0.16388 0.0
C1963 C 0.57789 0.07674 0.01333 0.0
C1964 C 0.56878 0.07874 0.98134 0.0
C1965 C 0.57783 0.07668 0.07562 0.0
C1966 C 0.55975 0.07008 0.19282 0.0
H1967 H 0.58683 0.04937 0.43138 0.0
H1968 H 0.58535 0.05791 0.33453 0.0
H1969 H 0.55371 0.06096 0.26434 0.0
H1970 H 0.55277 0.08338 0.98927 0.0
H1971 H 0.55269 0.08333 0.09845 0.0
H1972 H 0.58276 0.08283 0.19521 0.0
C1973 C 0.57866 0.05764 0.36344 0.0
C1974 C 0.55998 0.06592 0.25032 0.0
C1975 C 0.57947 0.05262 0.41841 0.0
C1976 C 0.55988 0.08171 0.01273 0.0
C1977 C 0.55982 0.08162 0.07521 0.0
C1978 C 0.57632 0.07818 0.21015 0.0
C1979 C 0.56931 0.06223 0.34596 0.0
C1980 C 0.56852 0.06759 0.28768 0.0
C1981 C 0.56867 0.07863 0.10714 0.0
C1982 C 0.56805 0.07601 0.17153 0.0
H1983 H 0.55481 0.056 0.46749 0.0
H1984 H 0.55339 0.06487 0.37149 0.0
H1985 H 0.58313 0.07561 0.29605 0.0
H1986 H 0.5849 0.07455 0.9903 0.0
H1987 H 0.58478 0.07432 0.0988 0.0
C1988 C 0.66079 0.80736 0.78523 0.0
C1989 C 0.66296 0.81633 0.75237 0.0
C1990 C 0.66108 0.80756 0.84768 0.0
C1991 C 0.66374 0.82482 0.98004 0.0
H1992 H 0.68256 0.80361 0.03537 0.0
C1993 C 0.68897 0.83003 0.18883 0.0
C1994 C 0.68983 0.82163 0.22798 0.0
C1995 C 0.68415 0.82884 0.13344 0.0
C1996 C 0.67717 0.80949 0.021 0.0
H1997 H 0.66589 0.83277 0.75872 0.0
H1998 H 0.66648 0.8331 0.86712 0.0
H1999 H 0.67526 0.80244 0.93546 0.0
H2000 H 0.68699 0.80527 0.23883 0.0
H2001 H 0.67849 0.80318 0.1422 0.0
H2002 H 0.66599 0.83205 0.06508 0.0
C2003 C 0.66459 0.8259 0.84517 0.0
C2004 C 0.67293 0.80879 0.96385 0.0
C2005 C 0.66432 0.8257 0.78291 0.0
C2006 C 0.68622 0.81191 0.20987 0.0
C2007 C 0.68143 0.81071 0.15445 0.0
C2008 C 0.66801 0.82552 0.03722 0.0
C2009 C 0.66348 0.81674 0.87809 0.0
C2010 C 0.66636 0.81658 0.94219 0.0
C2011 C 0.6802 0.81919 0.11607 0.0
C2012 C 0.67496 0.81799 0.05767 0.0
H2013 H 0.65961 0.80004 0.76292 0.0
H2014 H 0.66 0.80042 0.87204 0.0
H2015 H 0.65861 0.83087 0.96481 0.0
H2016 H 0.69171 0.8376 0.20181 0.0
H2017 H 0.68351 0.83547 0.10419 0.0
C2018 C 0.92435 0.93207 0.95874 0.0
C2019 C 0.92336 0.94279 0.96592 0.0
C2020 C 0.92494 0.92774 0.90192 0.0
C2021 C 0.91781 0.93277 0.74642 0.0
H2022 H 0.93727 0.91087 0.71093 0.0
C2023 C 0.93651 0.9151 0.52412 0.0
C2024 C 0.92761 0.91529 0.48842 0.0
C2025 C 0.93568 0.91594 0.58617 0.0
C2026 C 0.93177 0.91695 0.72031 0.0
H2027 H 0.92187 0.95737 0.91975 0.0
H2028 H 0.92301 0.94981 0.81953 0.0
H2029 H 0.93693 0.91851 0.81079 0.0
H2030 H 0.9109 0.91499 0.48924 0.0
H2031 H 0.90945 0.91614 0.59766 0.0
H2032 H 0.91289 0.93153 0.65576 0.0
C2033 C 0.92338 0.94477 0.8581 0.0
C2034 C 0.93155 0.92129 0.77743 0.0
C2035 C 0.92279 0.9491 0.91519 0.0
C2036 C 0.91788 0.91502 0.51587 0.0
C2037 C 0.91705 0.91575 0.57782 0.0
C2038 C 0.91803 0.92844 0.68948 0.0
C2039 C 0.92442 0.93403 0.85101 0.0
C2040 C 0.92463 0.92933 0.79079 0.0
C2041 C 0.92594 0.91686 0.61319 0.0
C2042 C 0.92506 0.92054 0.67563 0.0
H2043 H 0.92438 0.92696 -0.00305 0.0
H2044 H 0.9255 0.91944 0.89787 0.0
H2045 H 0.91229 0.93884 0.75566 0.0
H2046 H 0.94411 0.91529 0.50406 0.0
H2047 H 0.94268 0.91676 0.61223 0.0
C2048 C 0.6881 0.68289 0.19736 0.0
C2049 C 0.69211 0.67336 0.21605 0.0
C2050 C 0.68328 0.6838 0.14182 0.0
C2051 C 0.67051 0.66823 0.0254 0.0
H2052 H 0.67668 0.69147 0.92243 0.0
C2053 C 0.66645 0.66761 0.77103 0.0
C2054 C 0.66461 0.67688 0.74029 0.0
C2055 C 0.66688 0.66748 0.83328 0.0
C2056 C 0.67465 0.68505 0.95114 0.0
H2057 H 0.69467 0.65745 0.19072 0.0
H2058 H 0.68642 0.65908 0.09297 0.0
H2059 H 0.68407 0.69076 0.02227 0.0
H2060 H 0.6606 0.69302 0.75066 0.0
H2061 H 0.66126 0.69276 0.85972 0.0
H2062 H 0.66134 0.66237 0.95342 0.0
C2063 C 0.68677 0.66577 0.12183 0.0
C2064 C 0.67895 0.68463 0.00827 0.0
C2065 C 0.69161 0.66487 0.17733 0.0
C2066 C 0.66214 0.68578 0.77309 0.0
C2067 C 0.66259 0.68565 0.83551 0.0
C2068 C 0.6662 0.66866 0.96825 0.0
C2069 C 0.68242 0.67521 0.1039 0.0
C2070 C 0.67713 0.67609 0.04542 0.0
C2071 C 0.66546 0.67661 0.86602 0.0
C2072 C 0.66843 0.67696 0.92999 0.0
H2073 H 0.68858 0.6896 0.22596 0.0
H2074 H 0.68003 0.69118 0.12914 0.0
H2075 H 0.6688 0.66165 0.05361 0.0
H2076 H 0.66826 0.66059 0.74696 0.0
H2077 H 0.66912 0.66039 0.85532 0.0
C2078 C 0.5789 0.41757 0.01372 0.0
C2079 C 0.56982 0.41528 0.98213 0.0
C2080 C 0.57887 0.41783 0.076 0.0
C2081 C 0.56068 0.42438 0.19293 0.0
H2082 H 0.58418 0.41958 0.29654 0.0
C2083 C 0.56199 0.43806 0.43904 0.0
C2084 C 0.57131 0.44254 0.45764 0.0
C2085 C 0.56132 0.43311 0.38374 0.0
C2086 C 0.57757 0.42099 0.26803 0.0
H2087 H 0.55391 0.41034 0.99091 0.0
H2088 H 0.55389 0.41074 0.10004 0.0
H2089 H 0.584 0.4122 0.19611 0.0
H2090 H 0.5871 0.44578 0.43241 0.0
H2091 H 0.5859 0.43733 0.33514 0.0
H2092 H 0.55441 0.43345 0.26396 0.0
C2093 C 0.56096 0.41253 0.07648 0.0
C2094 C 0.57744 0.41672 0.21075 0.0
C2095 C 0.561 0.41223 0.01402 0.0
C2096 C 0.57983 0.44236 0.41909 0.0
C2097 C 0.57918 0.4374 0.36388 0.0
C2098 C 0.56081 0.42864 0.2502 0.0
C2099 C 0.56976 0.41581 0.10791 0.0
C2100 C 0.56912 0.4186 0.17204 0.0
C2101 C 0.56997 0.43259 0.34602 0.0
C2102 C 0.56937 0.42722 0.28771 0.0
H2103 H 0.58585 0.41983 0.99033 0.0
H2104 H 0.58578 0.42042 0.09878 0.0
H2105 H 0.55423 0.42612 0.16389 0.0
H2106 H 0.55524 0.43828 0.4675 0.0
H2107 H 0.55411 0.42951 0.37108 0.0
C2108 C 0.80635 0.31308 0.70039 0.0
C2109 C 0.80263 0.32273 0.71891 0.0
C2110 C 0.81093 0.31195 0.64437 0.0
C2111 C 0.82384 0.32689 0.5263 0.0
H2112 H 0.817 0.30349 0.42601 0.0
C2113 C 0.82898 0.32615 0.27217 0.0
C2114 C 0.83044 0.31664 0.24323 0.0
C2115 C 0.82827 0.32661 0.33428 0.0
C2116 C 0.81921 0.30995 0.45396 0.0
H2117 H 0.8003 0.33865 0.69297 0.0
H2118 H 0.80817 0.33666 0.59421 0.0
H2119 H 0.80951 0.30483 0.52532 0.0
H2120 H 0.83353 0.30037 0.2569 0.0
H2121 H 0.83244 0.30121 0.36568 0.0
H2122 H 0.83336 0.33213 0.45425 0.0
C2123 C 0.80776 0.33002 0.62357 0.0
C2124 C 0.81485 0.31074 0.51075 0.0
C2125 C 0.80314 0.33114 0.6796 0.0
C2126 C 0.83228 0.30779 0.27786 0.0
C2127 C 0.83157 0.30826 0.34013 0.0
C2128 C 0.82823 0.32609 0.46949 0.0
C2129 C 0.81183 0.32045 0.60578 0.0
C2130 C 0.81696 0.31932 0.54702 0.0
C2131 C 0.82905 0.31758 0.3687 0.0
C2132 C 0.8258 0.3177 0.43224 0.0
H2133 H 0.80585 0.30644 0.72955 0.0
H2134 H 0.81398 0.30448 0.63185 0.0
H2135 H 0.82576 0.33349 0.55385 0.0
H2136 H 0.82767 0.33314 0.24672 0.0
H2137 H 0.82631 0.33392 0.35477 0.0
C2138 C 0.91985 0.56475 0.95507 0.0
C2139 C 0.92074 0.55401 0.96207 0.0
C2140 C 0.92003 0.56917 0.89838 0.0
C2141 C 0.91507 0.56347 0.74129 0.0
H2142 H 0.93285 0.58694 0.70978 0.0
C2143 C 0.91627 0.58032 0.50889 0.0
C2144 C 0.92627 0.58026 0.48491 0.0
C2145 C 0.91481 0.57996 0.57054 0.0
C2146 C 0.9278 0.58045 0.71816 0.0
H2147 H 0.92195 0.53943 0.91558 0.0
H2148 H 0.92223 0.54718 0.81563 0.0
H2149 H 0.93204 0.57964 0.81061 0.0
H2150 H 0.94257 0.58108 0.50618 0.0
H2151 H 0.94003 0.58032 0.61405 0.0
H2152 H 0.91106 0.564 0.64886 0.0
C2153 C 0.92152 0.55217 0.85429 0.0
C2154 C 0.92731 0.57629 0.77571 0.0
C2155 C 0.92141 0.54774 0.91123 0.0
C2156 C 0.93477 0.58108 0.52353 0.0
C2157 C 0.93331 0.58065 0.58535 0.0
C2158 C 0.9155 0.56765 0.68402 0.0
C2159 C 0.9209 0.56293 0.84749 0.0
C2160 C 0.92106 0.56766 0.78744 0.0
C2161 C 0.92335 0.57949 0.60909 0.0
C2162 C 0.92197 0.57609 0.67166 0.0
H2163 H 0.91887 0.56976 0.9933 0.0
H2164 H 0.9193 0.57747 0.89429 0.0
H2165 H 0.9101 0.5569 0.74936 0.0
H2166 H 0.90957 0.57988 0.47998 0.0
H2167 H 0.90704 0.57933 0.58786 0.0
C2168 C 0.68948 0.3292 0.8112 0.0
C2169 C 0.69076 0.32077 0.77268 0.0
C2170 C 0.68461 0.32792 0.86629 0.0
C2171 C 0.67807 0.30855 0.97955 0.0
H2172 H 0.65892 0.3296 0.03322 0.0
C2173 C 0.6618 0.30691 0.21565 0.0
C2174 C 0.66401 0.31601 0.24724 0.0
C2175 C 0.66198 0.30689 0.15319 0.0
C2176 C 0.66419 0.32363 0.01864 0.0
H2177 H 0.68864 0.30429 0.76279 0.0
H2178 H 0.68002 0.30204 0.85895 0.0
H2179 H 0.66628 0.33066 0.93293 0.0
H2180 H 0.66689 0.33242 0.23879 0.0
H2181 H 0.66722 0.33238 0.13027 0.0
H2182 H 0.6763 0.30172 0.06582 0.0
C2183 C 0.68267 0.30965 0.8464 0.0
C2184 C 0.66846 0.32427 0.96147 0.0
C2185 C 0.68754 0.31095 0.79126 0.0
C2186 C 0.66529 0.32527 0.21553 0.0
C2187 C 0.66541 0.32525 0.15325 0.0
C2188 C 0.6738 0.30791 0.03667 0.0
C2189 C 0.681 0.31817 0.88401 0.0
C2190 C 0.67566 0.3169 0.94203 0.0
C2191 C 0.66426 0.31597 0.12155 0.0
C2192 C 0.66705 0.3156 0.0574 0.0
H2193 H 0.69193 0.33686 0.79789 0.0
H2194 H 0.68365 0.33458 0.89499 0.0
H2195 H 0.68364 0.30279 0.96598 0.0
H2196 H 0.66072 0.29967 0.23897 0.0
H2197 H 0.66091 0.29966 0.12974 0.0
C2198 C 0.91989 0.43008 0.02821 0.0
C2199 C 0.9214 0.44073 0.02033 0.0
C2200 C 0.92 0.42576 0.08518 0.0
C2201 C 0.91605 0.43188 0.24268 0.0
H2202 H 0.9328 0.40759 0.27243 0.0
C2203 C 0.91691 0.41433 0.47426 0.0
C2204 C 0.92693 0.41389 0.49799 0.0
C2205 C 0.91541 0.41508 0.41273 0.0
C2206 C 0.92804 0.41432 0.26456 0.0
H2207 H 0.92358 0.4553 0.06575 0.0
H2208 H 0.92371 0.44773 0.16621 0.0
H2209 H 0.93195 0.41489 0.1716 0.0
H2210 H 0.94317 0.41259 0.47586 0.0
H2211 H 0.94055 0.41395 0.36825 0.0
H2212 H 0.91234 0.43153 0.33563 0.0
C2213 C 0.92259 0.44273 0.12797 0.0
C2214 C 0.92753 0.41848 0.20702 0.0
C2215 C 0.92255 0.44706 0.07071 0.0
C2216 C 0.93535 0.41299 0.45886 0.0
C2217 C 0.93385 0.41376 0.39718 0.0
C2218 C 0.91649 0.42769 0.29998 0.0
C2219 C 0.92142 0.43203 0.13556 0.0
C2220 C 0.92164 0.42738 0.19583 0.0
C2221 C 0.92391 0.41539 0.37396 0.0
C2222 C 0.92258 0.41894 0.31165 0.0
H2223 H 0.9185 0.42506 0.99046 0.0
H2224 H 0.91883 0.41753 0.08991 0.0
H2225 H 0.91136 0.43867 0.23508 0.0
H2226 H 0.91025 0.41484 0.50338 0.0
H2227 H 0.90765 0.41608 0.39576 0.0
C2228 C 0.8045 0.66526 0.30736 0.0
C2229 C 0.80345 0.67369 0.26857 0.0
C2230 C 0.80929 0.66648 0.3628 0.0
C2231 C 0.81595 0.68579 0.47618 0.0
H2232 H 0.83493 0.66465 0.5307 0.0
C2233 C 0.83264 0.68782 0.71146 0.0
C2234 C 0.83067 0.67877 0.74403 0.0
C2235 C 0.83223 0.68771 0.64903 0.0
C2236 C 0.82969 0.67063 0.51595 0.0
H2237 H 0.80591 0.69013 0.25851 0.0
H2238 H 0.81437 0.69227 0.35528 0.0
H2239 H 0.82751 0.66351 0.43055 0.0
H2240 H 0.82795 0.66231 0.73703 0.0
H2241 H 0.82716 0.66213 0.62862 0.0
H2242 H 0.81781 0.69272 0.56209 0.0
C2243 C 0.8116 0.68469 0.34267 0.0
C2244 C 0.8254 0.66995 0.45883 0.0
C2245 C 0.80683 0.68346 0.28718 0.0
C2246 C 0.82937 0.66944 0.7131 0.0
C2247 C 0.82899 0.66932 0.65084 0.0
C2248 C 0.82023 0.68646 0.53328 0.0
C2249 C 0.81303 0.67618 0.38062 0.0
C2250 C 0.81829 0.67739 0.43897 0.0
C2251 C 0.8299 0.67855 0.61831 0.0
C2252 C 0.82694 0.67876 0.55432 0.0
H2253 H 0.80193 0.65765 0.29403 0.0
H2254 H 0.81007 0.65982 0.3917 0.0
H2255 H 0.81045 0.69159 0.46228 0.0
H2256 H 0.83375 0.69513 0.73406 0.0
H2257 H 0.83316 0.6949 0.62496 0.0
C2258 C 0.57159 0.54749 0.58239 0.0
C2259 C 0.57211 0.55379 0.53158 0.0
C2260 C 0.57147 0.55191 0.63937 0.0
C2261 C 0.56595 0.57613 0.71865 0.0
H2262 H 0.58261 0.56379 0.84351 0.0
C2263 C 0.55994 0.58183 0.97158 0.0
C2264 C 0.5686 0.58082 0.00882 0.0
C2265 C 0.56106 0.58119 0.9096 0.0
C2266 C 0.57805 0.56745 0.8089 0.0
H2267 H 0.57366 0.56957 0.50033 0.0
H2268 H 0.57328 0.57725 0.59935 0.0
H2269 H 0.58301 0.55654 0.74331 0.0
H2270 H 0.58529 0.57986 0.01103 0.0
H2271 H 0.58726 0.57898 0.90282 0.0
H2272 H 0.56092 0.58699 0.78475 0.0
C2273 C 0.57264 0.56894 0.5953 0.0
C2274 C 0.57816 0.56318 0.7518 0.0
C2275 C 0.57279 0.56454 0.53859 0.0
C2276 C 0.57847 0.58047 0.98318 0.0
C2277 C 0.57959 0.57991 0.92135 0.0
C2278 C 0.56581 0.58039 0.776 0.0
C2279 C 0.57198 0.56268 0.64623 0.0
C2280 C 0.57202 0.5674 0.70634 0.0
C2281 C 0.57086 0.57962 0.88429 0.0
C2282 C 0.5718 0.57603 0.82178 0.0
H2283 H 0.57122 0.53918 0.57797 0.0
H2284 H 0.57092 0.5469 0.67802 0.0
H2285 H 0.56112 0.57951 0.68433 0.0
H2286 H 0.55224 0.58214 0.99024 0.0
H2287 H 0.55419 0.58101 0.88211 0.0
C2288 C 0.29852 0.32179 0.82654 0.0
C2289 C 0.30485 0.32293 0.77614 0.0
C2290 C 0.30285 0.32176 0.88379 0.0
C2291 C 0.32715 0.31707 0.96329 0.0
H2292 H 0.31401 0.33248 0.0907 0.0
C2293 C 0.33283 0.30999 0.21571 0.0
C2294 C 0.33179 0.3185 0.25411 0.0
C2295 C 0.33205 0.31133 0.15391 0.0
C2296 C 0.31787 0.32827 0.05538 0.0
H2297 H 0.32053 0.32577 0.74628 0.0
H2298 H 0.32806 0.32547 0.84567 0.0
H2299 H 0.30683 0.33314 0.99017 0.0
H2300 H 0.3306 0.33517 0.25815 0.0
H2301 H 0.32936 0.33749 0.1503 0.0
H2302 H 0.33811 0.31208 0.02903 0.0
C2303 C 0.31982 0.3243 0.84097 0.0
C2304 C 0.31366 0.32853 -0.0019 0.0
C2305 C 0.3155 0.32439 0.784 0.0
C2306 C 0.33122 0.32845 0.22957 0.0
C2307 C 0.33047 0.32978 0.16792 0.0
C2308 C 0.33133 0.31675 0.02083 0.0
C2309 C 0.31356 0.32294 0.89137 0.0
C2310 C 0.3182 0.32286 0.95169 0.0
C2311 C 0.33028 0.32118 0.12986 0.0
C2312 C 0.32668 0.3223 0.06748 0.0
H2313 H 0.29027 0.3208 0.82161 0.0
H2314 H 0.29785 0.32069 0.92206 0.0
H2315 H 0.33076 0.31259 0.92821 0.0
H2316 H 0.33334 0.30223 0.23336 0.0
H2317 H 0.33196 0.30456 0.12555 0.0
C2318 C 0.43004 0.55568 0.54072 0.0
C2319 C 0.42088 0.55169 0.51679 0.0
C2320 C 0.4301 0.56016 0.59741 0.0
C2321 C 0.41535 0.5615 0.73819 0.0
H2322 H 0.43209 0.58587 0.76522 0.0
C2323 C 0.41646 0.57986 0.96836 0.0
C2324 C 0.42652 0.58043 0.99158 0.0
C2325 C 0.41487 0.5788 0.907 0.0
C2326 C 0.42736 0.57909 0.75816 0.0
H2327 H 0.40466 0.54895 0.53327 0.0
H2328 H 0.40469 0.55687 0.63232 0.0
H2329 H 0.43116 0.57834 0.66519 0.0
H2330 H 0.44271 0.58162 0.96825 0.0
H2331 H 0.43994 0.57975 0.86113 0.0
H2332 H 0.41166 0.56215 0.83113 0.0
C2333 C 0.41187 0.55647 0.6077 0.0
C2334 C 0.42687 0.57473 0.7011 0.0
C2335 C 0.41184 0.55192 0.55112 0.0
C2336 C 0.43487 0.5811 0.95181 0.0
C2337 C 0.43328 0.58005 0.89034 0.0
C2338 C 0.41578 0.56589 0.79501 0.0
C2339 C 0.42098 0.56076 0.63115 0.0
C2340 C 0.421 0.56578 0.69075 0.0
C2341 C 0.42331 0.57835 0.8678 0.0
C2342 C 0.4219 0.57464 0.80578 0.0
H2343 H 0.43715 0.55541 0.51536 0.0
H2344 H 0.43731 0.56313 0.6148 0.0
H2345 H 0.41088 0.55452 0.73203 0.0
H2346 H 0.40983 0.5795 -0.0022 0.0
H2347 H 0.40709 0.57773 0.89056 0.0
C2348 C 0.16656 0.66933 0.71819 0.0
C2349 C 0.16556 0.67875 0.74865 0.0
C2350 C 0.16707 0.66912 0.65596 0.0
C2351 C 0.17663 0.68579 0.53812 0.0
H2352 H 0.16863 0.66304 0.43571 0.0
C2353 C 0.18984 0.68231 0.29206 0.0
C2354 C 0.19288 0.67244 0.27331 0.0
C2355 C 0.18517 0.68369 0.34767 0.0
C2356 C 0.17095 0.66942 0.46392 0.0
H2357 H 0.16312 0.6952 0.73774 0.0
H2358 H 0.16391 0.69481 0.62873 0.0
H2359 H 0.16119 0.6645 0.53565 0.0
H2360 H 0.1939 0.65635 0.29861 0.0
H2361 H 0.18591 0.65877 0.39652 0.0
H2362 H 0.18661 0.69055 0.46723 0.0
C2363 C 0.16453 0.68762 0.65315 0.0
C2364 C 0.16665 0.67028 0.52092 0.0
C2365 C 0.164 0.68783 0.71554 0.0
C2366 C 0.1916 0.66404 0.31207 0.0
C2367 C 0.1869 0.66541 0.36765 0.0
C2368 C 0.18091 0.68493 0.48114 0.0
C2369 C 0.16656 0.67833 0.62297 0.0
C2370 C 0.16963 0.67835 0.55915 0.0
C2371 C 0.18349 0.67522 0.38561 0.0
C2372 C 0.1783 0.6766 0.44402 0.0
H2373 H 0.16766 0.66219 0.7425 0.0
H2374 H 0.16866 0.66184 0.63417 0.0
H2375 H 0.17923 0.69199 0.56683 0.0
H2376 H 0.19094 0.68895 0.26338 0.0
H2377 H 0.18265 0.69135 0.36036 0.0
C2378 C 0.062 0.44093 0.04441 0.0
C2379 C 0.07189 0.44358 0.02415 0.0
C2380 C 0.0607 0.43619 0.09996 0.0
C2381 C 0.07518 0.42119 0.21268 0.0
H2382 H 0.05331 0.42967 0.32004 0.0
C2383 C 0.07656 0.4167 0.46678 0.0
C2384 C 0.06731 0.41554 0.49866 0.0
C2385 C 0.07647 0.41729 0.40455 0.0
C2386 C 0.05931 0.42703 0.29006 0.0
H2387 H 0.08813 0.44389 0.04708 0.0
H2388 H 0.08586 0.43587 0.14476 0.0
H2389 H 0.05437 0.43724 0.22063 0.0
H2390 H 0.05084 0.41297 0.49028 0.0
H2391 H 0.05069 0.41397 0.38126 0.0
H2392 H 0.08033 0.41126 0.28311 0.0
C2393 C 0.07913 0.43716 0.11707 0.0
C2394 C 0.05994 0.4314 0.23318 0.0
C2395 C 0.08041 0.4419 0.06158 0.0
C2396 C 0.05809 0.41394 0.46694 0.0
C2397 C 0.05798 0.4146 0.40458 0.0
C2398 C 0.07455 0.41682 0.26961 0.0
C2399 C 0.06928 0.43407 0.13636 0.0
C2400 C 0.06803 0.42873 0.19448 0.0
C2401 C 0.06711 0.41675 0.37305 0.0
C2402 C 0.06676 0.41988 0.3094 0.0
H2403 H 0.05528 0.44235 0.01683 0.0
H2404 H 0.05302 0.43394 0.1137 0.0
H2405 H 0.08136 0.4188 0.18327 0.0
H2406 H 0.08381 0.41785 0.49004 0.0
H2407 H 0.08363 0.41898 0.38161 0.0
C2408 C 0.29893 0.67198 0.1683 0.0
C2409 C 0.30516 0.67085 0.21912 0.0
C2410 C 0.30336 0.67191 0.11136 0.0
C2411 C 0.32767 0.67665 0.03327 0.0
H2412 H 0.31461 0.66139 0.90491 0.0
C2413 C 0.33235 0.68485 0.78169 0.0
C2414 C 0.33127 0.67651 0.74219 0.0
C2415 C 0.33194 0.68321 0.84336 0.0
C2416 C 0.31847 0.66555 0.94048 0.0
H2417 H 0.32075 0.66788 0.25019 0.0
H2418 H 0.32847 0.66803 0.15115 0.0
H2419 H 0.30755 0.66039 0.00552 0.0
H2420 H 0.33044 0.65984 0.73559 0.0
H2421 H 0.32987 0.65698 0.84319 0.0
H2422 H 0.33847 0.682 0.96761 0.0
C2423 C 0.32024 0.66926 0.15533 0.0
C2424 C 0.31432 0.66509 -0.00218 0.0
C2425 C 0.31581 0.66926 0.21204 0.0
C2426 C 0.33107 0.66643 0.76515 0.0
C2427 C 0.33071 0.66479 0.82665 0.0
C2428 C 0.33179 0.67719 0.97564 0.0
C2429 C 0.31406 0.67064 0.10452 0.0
C2430 C 0.31879 0.67074 0.04451 0.0
C2431 C 0.33052 0.6732 0.86609 0.0
C2432 C 0.32715 0.67172 0.92861 0.0
H2433 H 0.29069 0.67307 0.17266 0.0
H2434 H 0.29843 0.67301 0.07274 0.0
H2435 H 0.33124 0.68111 0.06862 0.0
H2436 H 0.33257 0.6927 0.76518 0.0
H2437 H 0.33183 0.68984 0.87281 0.0
C2438 C 0.08011 0.55472 0.93453 0.0
C2439 C 0.07169 0.55352 0.97328 0.0
C2440 C 0.07879 0.55946 0.879 0.0
C2441 C 0.05932 0.5657 0.76554 0.0
H2442 H 0.08002 0.58515 0.71101 0.0
C2443 C 0.05673 0.58249 0.53076 0.0
C2444 C 0.06579 0.58075 0.4979 0.0
C2445 C 0.05691 0.58204 0.59317 0.0
C2446 C 0.07416 0.57977 0.72576 0.0
H2447 H 0.05521 0.55564 0.98321 0.0
H2448 H 0.05289 0.564 0.88632 0.0
H2449 H 0.08137 0.57771 0.81104 0.0
H2450 H 0.08232 0.5784 0.50439 0.0
H2451 H 0.08262 0.57753 0.61276 0.0
H2452 H 0.0523 0.56745 0.67978 0.0
C2453 C 0.06052 0.56139 0.899 0.0
C2454 C 0.07496 0.57547 0.78281 0.0
C2455 C 0.06186 0.55668 0.95456 0.0
C2456 C 0.07518 0.57964 0.52855 0.0
C2457 C 0.07536 0.57921 0.59079 0.0
C2458 C 0.05853 0.56998 0.70852 0.0
C2459 C 0.06901 0.56299 0.86108 0.0
C2460 C 0.06768 0.56821 0.80269 0.0
C2461 C 0.06615 0.57989 0.62359 0.0
C2462 C 0.06607 0.57688 0.68749 0.0
H2463 H 0.08777 0.55233 0.94796 0.0
H2464 H 0.08543 0.56037 0.85013 0.0
H2465 H 0.05364 0.56007 0.77945 0.0
H2466 H 0.04938 0.58345 0.50839 0.0
H2467 H 0.04972 0.58279 0.61746 0.0
C2468 C 0.16481 0.30609 0.28111 0.0
C2469 C 0.16625 0.31534 0.24947 0.0
C2470 C 0.16523 0.30605 0.34354 0.0
C2471 C 0.16661 0.32277 0.47831 0.0
H2472 H 0.18778 0.30346 0.52839 0.0
C2473 C 0.1915 0.32993 0.68575 0.0
C2474 C 0.19351 0.32153 0.72354 0.0
C2475 C 0.18678 0.32837 0.63042 0.0
C2476 C 0.18173 0.30878 0.51555 0.0
H2477 H 0.168 0.33191 0.25795 0.0
H2478 H 0.16872 0.33183 0.36648 0.0
H2479 H 0.1803 0.30197 0.42901 0.0
H2480 H 0.1929 0.3049 0.73179 0.0
H2481 H 0.18453 0.30216 0.63524 0.0
H2482 H 0.16831 0.32978 0.56433 0.0
C2483 C 0.16734 0.32461 0.3435 0.0
C2484 C 0.1774 0.3079 0.45869 0.0
C2485 C 0.16699 0.32465 0.28124 0.0
C2486 C 0.19122 0.31151 0.70387 0.0
C2487 C 0.1865 0.30995 0.64852 0.0
C2488 C 0.17093 0.32364 0.53524 0.0
C2489 C 0.16698 0.31525 0.3751 0.0
C2490 C 0.16999 0.31505 0.43892 0.0
C2491 C 0.18405 0.31839 0.61174 0.0
C2492 C 0.17874 0.31683 0.55378 0.0
H2493 H 0.16416 0.2988 0.25777 0.0
H2494 H 0.16477 0.29875 0.36694 0.0
H2495 H 0.16084 0.32831 0.46444 0.0
H2496 H 0.19322 0.33773 0.69986 0.0
H2497 H 0.18522 0.33501 0.60238 0.0
C2498 C 0.41928 0.41518 0.02371 0.0
C2499 C 0.42845 0.41352 0.99173 0.0
C2500 C 0.41934 0.41514 0.08598 0.0
C2501 C 0.43709 0.42251 0.20259 0.0
H2502 H 0.41407 0.41588 0.3062 0.0
C2503 C 0.43459 0.43639 0.44793 0.0
C2504 C 0.4249 0.44004 0.46626 0.0
C2505 C 0.4357 0.43143 0.39295 0.0
C2506 C 0.42054 0.4178 0.27771 0.0
H2507 H 0.44461 0.40942 -0.00063 0.0
H2508 H 0.44471 0.40936 0.10863 0.0
H2509 H 0.4148 0.40856 0.20568 0.0
H2510 H 0.40889 0.44184 0.44077 0.0
H2511 H 0.41085 0.4334 0.34393 0.0
H2512 H 0.44263 0.43207 0.27352 0.0
C2513 C 0.43752 0.41083 0.08541 0.0
C2514 C 0.42099 0.41356 0.22042 0.0
C2515 C 0.43745 0.4108 0.02293 0.0
C2516 C 0.41644 0.43906 0.42766 0.0
C2517 C 0.41753 0.4341 0.37272 0.0
C2518 C 0.43665 0.42675 0.25983 0.0
C2519 C 0.42858 0.41348 0.11739 0.0
C2520 C 0.42912 0.41612 0.18169 0.0
C2521 C 0.42714 0.43008 0.35524 0.0
C2522 C 0.42821 0.42468 0.29728 0.0
H2523 H 0.4122 0.41717 0.0007 0.0
H2524 H 0.41233 0.41725 0.10925 0.0
H2525 H 0.44337 0.42477 0.17348 0.0
H2526 H 0.44129 0.43725 0.47646 0.0
H2527 H 0.44321 0.42845 0.38056 0.0
C2528 C 0.28284 0.1609 0.32516 0.0
C2529 C 0.28274 0.16171 0.38786 0.0
C2530 C 0.27386 0.15853 0.29383 0.0
C2531 C 0.24593 0.16108 0.30863 0.0
H2532 H 0.24567 0.14581 0.15949 0.0
C2533 C 0.20943 0.15916 0.16582 0.0
C2534 C 0.21081 0.16159 0.10507 0.0
C2535 C 0.21787 0.15677 0.20188 0.0
C2536 C 0.24564 0.1501 0.20104 0.0
H2537 H 0.2732 0.1601 0.46703 0.0
H2538 H 0.25749 0.15586 0.41213 0.0
H2539 H 0.26115 0.14571 0.22193 0.0
H2540 H 0.22208 0.16286 0.03377 0.0
H2541 H 0.23687 0.15886 0.09722 0.0
H2542 H 0.23057 0.16571 0.28723 0.0
C2543 C 0.26452 0.15724 0.38727 0.0
C2544 C 0.25449 0.15004 0.23679 0.0
C2545 C 0.27353 0.15963 0.41871 0.0
C2546 C 0.22077 0.16106 0.08044 0.0
C2547 C 0.22923 0.1587 0.11672 0.0
C2548 C 0.2371 0.16111 0.27306 0.0
C2549 C 0.26455 0.15688 0.3244 0.0
C2550 C 0.25479 0.15572 0.29036 0.0
C2551 C 0.22789 0.15681 0.17816 0.0
C2552 C 0.23692 0.15579 0.21834 0.0
H2553 H 0.28981 0.1624 0.2999 0.0
H2554 H 0.27413 0.15845 0.24543 0.0
H2555 H 0.24595 0.16569 0.34904 0.0
H2556 H 0.20185 0.15934 0.18606 0.0
H2557 H 0.21657 0.15515 0.24879 0.0
C2558 C 0.08391 0.03481 0.57689 0.0
C2559 C 0.08167 0.03357 0.63797 0.0
C2560 C 0.08618 0.0263 0.54125 0.0
C2561 C 0.09306 -0.0014 0.54382 0.0
H2562 H 0.07761 -0.00201 0.39531 0.0
C2563 C 0.08313 0.96124 0.41848 0.0
C2564 C 0.08247 0.9614 0.35572 0.0
C2565 C 0.08526 0.97023 0.45026 0.0
C2566 C 0.08217 -0.0019 0.43591 0.0
H2567 H 0.08054 0.02246 0.71018 0.0
H2568 H 0.08432 0.00751 0.64743 0.0
H2569 H 0.07727 0.01339 0.45692 0.0
H2570 H 0.08411 0.97103 0.27696 0.0
H2571 H 0.08793 0.98676 0.33264 0.0
H2572 H 0.09772 0.98316 0.52325 0.0
C2573 C 0.08443 0.01511 0.62737 0.0
C2574 C 0.08196 0.00693 0.47136 0.0
C2575 C 0.0822 0.02366 0.66324 0.0
C2576 C 0.08447 0.97067 0.3253 0.0
C2577 C 0.08662 0.97968 0.35719 0.0
C2578 C 0.09329 0.98975 0.50821 0.0
C2579 C 0.08621 0.01633 0.56572 0.0
C2580 C 0.08726 0.00723 0.52614 0.0
C2581 C 0.08681 0.9796 0.42007 0.0
C2582 C 0.08769 0.98935 0.45438 0.0
H2583 H 0.08373 0.04236 0.55614 0.0
H2584 H 0.08772 0.02751 0.49416 0.0
H2585 H 0.09734 -0.00134 0.58543 0.0
H2586 H 0.08168 0.95422 0.44341 0.0
H2587 H 0.08523 0.96992 0.49865 0.0
C2588 C 0.27297 0.83437 0.57125 0.0
C2589 C 0.28231 0.83223 0.60063 0.0
C2590 C 0.26408 0.83658 0.60412 0.0
C2591 C 0.25462 0.84335 0.75625 0.0
H2592 H 0.2304 0.82805 0.70672 0.0
C2593 C 0.22096 0.83278 0.9141 0.0
C2594 C 0.21097 0.8324 0.88981 0.0
C2595 C 0.22942 0.835 0.87752 0.0
C2596 C 0.23702 0.83254 0.72067 0.0
H2597 H 0.28972 0.83116 0.68756 0.0
H2598 H 0.27422 0.8348 0.74454 0.0
H2599 H 0.24564 0.828 0.64376 0.0
H2600 H 0.20194 0.8348 0.80917 0.0
H2601 H 0.21664 0.83877 0.74593 0.0
H2602 H 0.24603 0.84758 0.83435 0.0
C2603 C 0.27377 0.83492 0.69618 0.0
C2604 C 0.24576 0.83252 0.68446 0.0
C2605 C 0.28265 0.83273 0.66341 0.0
C2606 C 0.20955 0.83486 0.82913 0.0
C2607 C 0.21798 0.83711 0.79277 0.0
C2608 C 0.24586 0.84335 0.79263 0.0
C2609 C 0.26434 0.83668 0.66699 0.0
C2610 C 0.25473 0.83777 0.70229 0.0
C2611 C 0.22802 0.83692 0.81613 0.0
C2612 C 0.23702 0.83781 0.7756 0.0
H2613 H 0.27246 0.83414 0.52292 0.0
H2614 H 0.25695 0.83805 0.58033 0.0
H2615 H 0.26137 0.84758 0.7708 0.0
H2616 H 0.22229 0.83095 0.96072 0.0
H2617 H 0.23708 0.83472 0.89675 0.0
C2618 C 0.41162 0.97042 0.15356 0.0
C2619 C 0.41201 0.96059 0.12727 0.0
C2620 C 0.40934 0.97909 0.11878 0.0
C2621 C 0.41162 0.98771 0.96363 0.0
H2622 H 0.39658 0.01166 0.01961 0.0
C2623 C 0.41017 0.02475 0.82368 0.0
C2624 C 0.41245 0.0338 0.85563 0.0
C2625 C 0.40774 0.01565 0.85402 0.0
C2626 C 0.40081 0.00503 0.00341 0.0
H2627 H 0.40961 0.95206 0.04486 0.0
H2628 H 0.40554 0.96713 0.98472 0.0
H2629 H 0.39661 0.99589 0.07948 0.0
H2630 H 0.41346 0.0405 0.94448 0.0
H2631 H 0.40944 0.02464 -0.00293 0.0
H2632 H 0.41614 0.99687 0.88882 0.0
C2633 C 0.40722 0.96818 0.03178 0.0
C2634 C 0.40083 0.99601 0.03769 0.0
C2635 C 0.40954 0.95954 0.06635 0.0
C2636 C 0.4118 0.03366 0.91839 0.0
C2637 C 0.40939 0.02457 0.94864 0.0
C2638 C 0.41162 0.9967 0.92951 0.0
C2639 C 0.40737 0.97807 0.0572 0.0
C2640 C 0.40639 0.98732 0.01861 0.0
C2641 C 0.40755 0.01541 0.91689 0.0
C2642 C 0.40638 0.00553 0.94954 0.0
H2643 H 0.41346 0.97148 0.2004 0.0
H2644 H 0.40959 0.98663 0.13957 0.0
H2645 H 0.41613 0.9812 0.94812 0.0
H2646 H 0.4105 0.02462 0.77529 0.0
H2647 H 0.4062 0.00874 0.82828 0.0
C2648 C 0.78383 0.83765 0.82814 0.0
C2649 C 0.78296 0.8342 0.88752 0.0
C2650 C 0.77506 0.83991 0.79466 0.0
C2651 C 0.74683 0.84406 0.80135 0.0
H2652 H 0.74731 0.83023 0.64757 0.0
C2653 C 0.71015 0.83205 0.67519 0.0
C2654 C 0.71016 0.83204 0.61231 0.0
C2655 C 0.71904 0.83459 0.70701 0.0
C2656 C 0.74709 0.83434 0.6897 0.0
H2657 H 0.77223 0.83109 0.95966 0.0
H2658 H 0.75683 0.83488 0.90059 0.0
H2659 H 0.76285 0.83083 0.70782 0.0
H2660 H 0.71941 0.83518 0.53357 0.0
H2661 H 0.73494 0.83974 0.5893 0.0
H2662 H 0.73094 0.84733 0.78355 0.0
C2663 C 0.76433 0.83591 0.88019 0.0
C2664 C 0.75601 0.83468 0.72437 0.0
C2665 C 0.77315 0.8337 0.91395 0.0
C2666 C 0.71917 0.83501 0.58197 0.0
C2667 C 0.72807 0.8376 0.61389 0.0
C2668 C 0.73788 0.84376 0.76647 0.0
C2669 C 0.76521 0.83872 0.81963 0.0
C2670 C 0.75594 0.83938 0.78099 0.0
C2671 C 0.72815 0.83722 0.67677 0.0
C2672 C 0.73787 0.83872 0.71074 0.0
H2673 H 0.7913 0.8383 0.80676 0.0
H2674 H 0.77598 0.84227 0.74851 0.0
H2675 H 0.74659 0.84784 0.84452 0.0
H2676 H 0.70334 0.82983 0.7001 0.0
H2677 H 0.71886 0.83408 0.75533 0.0
C2678 C 0.91013 0.02502 0.66229 0.0
C2679 C 0.91325 0.03415 0.63369 0.0
C2680 C 0.9077 0.01626 0.62873 0.0
C2681 C 0.90216 0.00714 0.47393 0.0
H2682 H 0.9146 0.98181 0.53096 0.0
C2683 C 0.91224 0.97229 0.32316 0.0
C2684 C 0.91147 0.96239 0.34831 0.0
C2685 C 0.91008 0.98102 0.35778 0.0
C2686 C 0.91089 0.98876 0.51481 0.0
H2687 H 0.9159 0.04132 0.54724 0.0
H2688 H 0.91191 0.02604 0.48923 0.0
H2689 H 0.9151 0.99709 0.59337 0.0
H2690 H 0.90699 0.95383 0.42762 0.0
H2691 H 0.90312 0.96899 0.48733 0.0
H2692 H 0.8983 -0.0012 0.39421 0.0
C2693 C 0.91117 0.02567 0.53741 0.0
C2694 C 0.91117 -0.00247 0.55071 0.0
C2695 C 0.91355 0.03442 0.57084 0.0
C2696 C 0.90784 0.96136 0.40723 0.0
C2697 C 0.90564 0.97004 0.44155 0.0
C2698 C 0.90191 -0.00166 0.43781 0.0
C2699 C 0.90837 0.01643 0.56594 0.0
C2700 C 0.90697 0.00688 0.53035 0.0
C2701 C 0.90707 0.97997 0.41793 0.0
C2702 C 0.90641 0.9891 0.4576 0.0
H2703 H 0.90972 0.02458 0.71059 0.0
H2704 H 0.90542 0.00929 0.65201 0.0
H2705 H 0.89871 0.01419 0.45731 0.0
H2706 H 0.91499 0.97332 0.27784 0.0
H2707 H 0.91129 0.98857 0.33841 0.0
C2708 C 0.71062 0.15883 0.33148 0.0
C2709 C 0.71156 0.16199 0.39136 0.0
C2710 C 0.71936 0.15693 0.297 0.0
C2711 C 0.74763 0.15307 0.3015 0.0
H2712 H 0.74663 0.16697 0.14799 0.0
C2713 C 0.78392 0.1646 0.16975 0.0
C2714 C 0.78364 0.16439 0.10689 0.0
C2715 C 0.77513 0.16234 0.20309 0.0
C2716 C 0.747 0.16286 0.19008 0.0
H2717 H 0.7224 0.16503 0.4631 0.0
H2718 H 0.73774 0.16187 0.40229 0.0
H2719 H 0.73129 0.16636 0.20997 0.0
H2720 H 0.77398 0.16119 0.02985 0.0
H2721 H 0.75862 0.15713 0.08826 0.0
H2722 H 0.76345 0.14979 0.28187 0.0
C2723 C 0.73021 0.16078 0.38228 0.0
C2724 C 0.7382 0.16252 0.22573 0.0
C2725 C 0.72143 0.16263 0.41704 0.0
C2726 C 0.77444 0.16152 0.07817 0.0
C2727 C 0.76563 0.15922 0.11163 0.0
C2728 C 0.75645 0.15339 0.26567 0.0
C2729 C 0.72925 0.1582 0.32142 0.0
C2730 C 0.73844 0.15774 0.28215 0.0
C2731 C 0.76584 0.15977 0.17444 0.0
C2732 C 0.75627 0.15843 0.20995 0.0
H2733 H 0.70312 0.15808 0.31059 0.0
H2734 H 0.71837 0.15473 0.25062 0.0
H2735 H 0.74801 0.14924 0.34448 0.0
H2736 H 0.79088 0.16676 0.19342 0.0
H2737 H 0.77553 0.16298 0.25132 0.0
C2738 C 0.58974 0.03166 0.88621 0.0
C2739 C 0.58314 0.03083 0.8367 0.0
C2740 C 0.59199 0.02303 0.92104 0.0
C2741 C 0.58902 0.00639 0.01259 0.0
H2742 H 0.58733 0.97844 0.95239 0.0
C2743 C 0.57899 0.97223 0.16551 0.0
C2744 C 0.58226 0.9623 0.14961 0.0
C2745 C 0.58115 0.98061 0.12831 0.0
C2746 C 0.58805 0.98617 0.97024 0.0
H2747 H 0.57402 0.02034 0.78318 0.0
H2748 H 0.57744 0.00536 0.84559 0.0
H2749 H 0.58816 0.99268 0.88255 0.0
H2750 H 0.59096 0.95337 0.08515 0.0
H2751 H 0.59527 0.96804 0.02206 0.0
H2752 H 0.58934 -0.00013 0.1002 0.0
C2753 C 0.58121 0.01255 0.85676 0.0
C2754 C 0.58833 0.99438 0.92992 0.0
C2755 C 0.57918 0.02115 0.821 0.0
C2756 C 0.58823 0.96096 0.09791 0.0
C2757 C 0.59062 0.96936 0.06152 0.0
C2758 C 0.58898 -0.00184 0.05286 0.0
C2759 C 0.58745 0.01342 0.90815 0.0
C2760 C 0.58852 0.00462 0.95053 0.0
C2761 C 0.58684 0.97926 0.07517 0.0
C2762 C 0.58819 0.98795 0.03234 0.0
H2763 H 0.593 0.03905 0.89869 0.0
H2764 H 0.59709 0.02397 0.95898 0.0
H2765 H 0.58905 0.01413 0.03058 0.0
H2766 H 0.57431 0.97343 0.20501 0.0
H2767 H 0.57796 0.98804 0.1401 0.0
C2768 C 0.77461 0.66002 0.91416 0.0
C2769 C 0.78382 0.66244 0.88419 0.0
C2770 C 0.7657 0.65766 0.88181 0.0
C2771 C 0.75597 0.65132 0.7292 0.0
H2772 H 0.73165 0.66599 0.78305 0.0
C2773 C 0.72165 0.66231 0.5763 0.0
C2774 C 0.71174 0.66218 0.60161 0.0
C2775 C 0.73029 0.66008 0.61149 0.0
C2776 C 0.73831 0.66168 0.76785 0.0
H2777 H 0.791 0.66378 0.79673 0.0
H2778 H 0.77547 0.65991 0.74077 0.0
H2779 H 0.74701 0.66594 0.84497 0.0
H2780 H 0.70305 0.65887 0.68244 0.0
H2781 H 0.71806 0.65492 0.74318 0.0
H2782 H 0.74728 0.64743 0.6508 0.0
C2783 C 0.77513 0.65968 0.78914 0.0
C2784 C 0.74712 0.66163 0.8035 0.0
C2785 C 0.78403 0.662 0.82137 0.0
C2786 C 0.7106 0.65922 0.66174 0.0
C2787 C 0.71919 0.65697 0.69668 0.0
C2788 C 0.74714 0.65142 0.69333 0.0
C2789 C 0.76581 0.65769 0.8189 0.0
C2790 C 0.75612 0.6566 0.78418 0.0
C2791 C 0.72915 0.65765 0.67245 0.0
C2792 C 0.73827 0.65673 0.71197 0.0
H2793 H 0.77422 0.6602 0.96253 0.0
H2794 H 0.75866 0.656 0.90606 0.0
H2795 H 0.76274 0.64726 0.71345 0.0
H2796 H 0.72277 0.66453 0.53006 0.0
H2797 H 0.73789 0.66073 0.59169 0.0
C2798 C 0.58857 0.4626 0.89069 0.0
C2799 C 0.58232 0.46337 0.83969 0.0
C2800 C 0.59051 0.47124 0.92602 0.0
C2801 C 0.58699 0.48799 0.01636 0.0
H2802 H 0.58633 0.51585 0.95431 0.0
C2803 C 0.57757 0.5229 0.16563 0.0
C2804 C 0.58131 0.53263 0.14923 0.0
C2805 C 0.57952 0.51433 0.12948 0.0
C2806 C 0.58674 0.50814 0.97269 0.0
H2807 H 0.57345 0.47378 0.7842 0.0
H2808 H 0.57635 0.48881 0.84731 0.0
H2809 H 0.58709 0.50148 0.88543 0.0
H2810 H 0.59067 0.54099 0.08528 0.0
H2811 H 0.5946 0.52599 0.02418 0.0
H2812 H 0.58705 0.49466 0.10363 0.0
C2813 C 0.58008 0.48163 0.85935 0.0
C2814 C 0.58699 0.49986 0.93291 0.0
C2815 C 0.57835 0.47302 0.82318 0.0
C2816 C 0.58757 0.53356 0.09835 0.0
C2817 C 0.58974 0.52497 0.06307 0.0
C2818 C 0.58696 0.49628 0.05615 0.0
C2819 C 0.586 0.48081 0.91202 0.0
C2820 C 0.58687 0.48966 0.95414 0.0
C2821 C 0.58546 0.5153 0.07697 0.0
C2822 C 0.58659 0.50647 0.0349 0.0
H2823 H 0.59183 0.45524 0.90388 0.0
H2824 H 0.59537 0.47034 0.96507 0.0
H2825 H 0.58675 0.48027 0.03471 0.0
H2826 H 0.57267 0.52202 0.20454 0.0
H2827 H 0.57597 0.50706 0.14143 0.0
C2828 C 0.72108 0.33263 0.42242 0.0
C2829 C 0.7118 0.33114 0.39109 0.0
C2830 C 0.73021 0.33475 0.3915 0.0
C2831 C 0.74059 0.34237 0.24273 0.0
H2832 H 0.7638 0.32536 0.28974 0.0
C2833 C 0.77427 0.33186 0.08483 0.0
C2834 C 0.78418 0.33105 0.10981 0.0
C2835 C 0.76575 0.33385 0.12136 0.0
C2836 C 0.75747 0.33031 0.27656 0.0
H2837 H 0.70476 0.33121 0.30289 0.0
H2838 H 0.72062 0.33469 0.24937 0.0
H2839 H 0.74839 0.3256 0.35135 0.0
H2840 H 0.79299 0.33229 0.19219 0.0
H2841 H 0.77818 0.33584 0.25533 0.0
H2842 H 0.74962 0.34679 0.16671 0.0
C2843 C 0.72087 0.33435 0.29774 0.0
C2844 C 0.74863 0.33047 0.31201 0.0
C2845 C 0.71177 0.33225 0.32853 0.0
C2846 C 0.78544 0.33271 0.17152 0.0
C2847 C 0.77696 0.33472 0.20785 0.0
C2848 C 0.74944 0.34219 0.20713 0.0
C2849 C 0.73023 0.33542 0.32871 0.0
C2850 C 0.74002 0.33634 0.29496 0.0
C2851 C 0.76699 0.33509 0.18343 0.0
C2852 C 0.75791 0.33603 0.22322 0.0
H2853 H 0.72135 0.33191 0.47065 0.0
H2854 H 0.73729 0.33567 0.41665 0.0
H2855 H 0.73413 0.34708 0.22886 0.0
H2856 H 0.77305 0.33064 0.03744 0.0
H2857 H 0.75814 0.33401 0.10132 0.0
C2858 C 0.91274 0.47066 0.65687 0.0
C2859 C 0.91319 0.46069 0.63234 0.0
C2860 C 0.91054 0.47915 0.62043 0.0
C2861 C 0.91304 0.48702 0.46397 0.0
H2862 H 0.89734 0.51095 0.51416 0.0
C2863 C 0.91061 0.52308 0.31555 0.0
C2864 C 0.91252 0.53242 0.34542 0.0
C2865 C 0.9085 0.51411 0.34797 0.0
C2866 C 0.90176 0.50432 0.49959 0.0
H2867 H 0.91101 0.45175 0.55115 0.0
H2868 H 0.9071 0.4665 0.48816 0.0
H2869 H 0.89767 0.49556 0.57733 0.0
H2870 H 0.91323 0.53975 0.43269 0.0
H2871 H 0.90977 0.52413 0.48883 0.0
H2872 H 0.91744 0.49582 0.38743 0.0
C2873 C 0.90866 0.46779 0.53515 0.0
C2874 C 0.90195 0.49553 0.53576 0.0
C2875 C 0.91088 0.45934 0.57139 0.0
C2876 C 0.91184 0.53268 0.40816 0.0
C2877 C 0.90976 0.52373 0.44046 0.0
C2878 C 0.91287 0.4958 0.42797 0.0
C2879 C 0.90872 0.47781 0.55889 0.0
C2880 C 0.90772 0.48685 0.5187 0.0
C2881 C 0.90828 0.51429 0.41085 0.0
C2882 C 0.90738 0.50461 0.44581 0.0
H2883 H 0.91445 0.47195 0.70368 0.0
H2884 H 0.91071 0.48679 0.63994 0.0
H2885 H 0.91769 0.48052 0.45 0.0
H2886 H 0.91098 0.52263 0.26724 0.0
H2887 H 0.90724 0.50698 0.32384 0.0
C2888 C 0.28629 0.33517 0.32876 0.0
C2889 C 0.28488 0.33254 0.38925 0.0
C2890 C 0.27786 0.33758 0.2927 0.0
C2891 C 0.25011 0.34417 0.29319 0.0
H2892 H 0.24989 0.32882 0.14435 0.0
C2893 C 0.21298 0.33341 0.16923 0.0
C2894 C 0.21303 0.33258 0.10653 0.0
C2895 C 0.22197 0.33582 0.20027 0.0
C2896 C 0.24989 0.33336 0.18497 0.0
H2897 H 0.27358 0.33096 0.46009 0.0
H2898 H 0.25879 0.33504 0.39659 0.0
H2899 H 0.26524 0.3287 0.20648 0.0
H2900 H 0.22248 0.3342 0.02705 0.0
H2901 H 0.23823 0.33853 0.08151 0.0
H2902 H 0.23463 0.34861 0.27218 0.0
C2903 C 0.26645 0.3353 0.37734 0.0
C2904 C 0.2587 0.33327 0.22074 0.0
C2905 C 0.27491 0.33291 0.41364 0.0
C2906 C 0.2222 0.33469 0.07537 0.0
C2907 C 0.23122 0.33713 0.10657 0.0
C2908 C 0.2413 0.3443 0.25721 0.0
C2909 C 0.26783 0.3374 0.31614 0.0
C2910 C 0.25883 0.33849 0.2758 0.0
C2911 C 0.23125 0.33751 0.16945 0.0
C2912 C 0.24101 0.33869 0.20337 0.0
H2913 H 0.29389 0.33512 0.30869 0.0
H2914 H 0.27919 0.33935 0.24598 0.0
H2915 H 0.25006 0.34838 0.335 0.0
H2916 H 0.20604 0.33189 0.19476 0.0
H2917 H 0.22173 0.3359 0.24868 0.0
C2918 C 0.41402 0.47133 0.81374 0.0
C2919 C 0.41512 0.46208 0.84591 0.0
C2920 C 0.41208 0.48059 0.84374 0.0
C2921 C 0.40402 0.49145 0.99027 0.0
H2922 H 0.42183 0.51417 0.94522 0.0
C2923 C 0.41428 0.52503 0.14871 0.0
C2924 C 0.4153 0.53493 0.12385 0.0
C2925 C 0.41247 0.51651 0.11191 0.0
C2926 C 0.41666 0.50797 0.95779 0.0
H2927 H 0.41457 0.45524 0.93457 0.0
H2928 H 0.41137 0.47133 0.98651 0.0
H2929 H 0.42155 0.49864 0.88441 0.0
H2930 H 0.41473 0.54371 0.04109 0.0
H2931 H 0.41151 0.52888 0.97737 0.0
H2932 H 0.39939 0.50072 0.06484 0.0
C2933 C 0.41189 0.47145 0.93818 0.0
C2934 C 0.41649 0.49908 0.92282 0.0
C2935 C 0.41383 0.46223 0.90833 0.0
C2936 C 0.41411 0.53618 0.06174 0.0
C2937 C 0.41229 0.52768 0.02509 0.0
C2938 C 0.40421 0.50036 0.02535 0.0
C2939 C 0.41118 0.48076 0.90639 0.0
C2940 C 0.41032 0.49064 0.93929 0.0
C2941 C 0.41161 0.51774 0.04962 0.0
C2942 C 0.41067 0.50864 0.01001 0.0
H2943 H 0.4149 0.47147 0.76559 0.0
H2944 H 0.41145 0.48763 0.81799 0.0
H2945 H 0.39907 0.48513 0.00359 0.0
H2946 H 0.41513 0.52382 0.19638 0.0
H2947 H 0.41208 0.50893 0.13204 0.0
C2948 C 0.22157 0.66135 0.91176 0.0
C2949 C 0.21164 0.66139 0.8866 0.0
C2950 C 0.23017 0.65923 0.87614 0.0
C2951 C 0.238 0.66153 0.71969 0.0
H2952 H 0.26281 0.64759 0.77278 0.0
C2953 C 0.2743 0.66084 0.57298 0.0
C2954 C 0.2835 0.66338 0.60283 0.0
C2955 C 0.26544 0.65835 0.60541 0.0
C2956 C 0.25594 0.65152 0.75741 0.0
H2957 H 0.20287 0.65842 0.80566 0.0
H2958 H 0.21783 0.6546 0.74411 0.0
H2959 H 0.24735 0.64713 0.83525 0.0
H2960 H 0.29068 0.66489 0.69016 0.0
H2961 H 0.27522 0.66077 0.74636 0.0
H2962 H 0.2466 0.66624 0.64307 0.0
C2963 C 0.219 0.65646 0.79083 0.0
C2964 C 0.2471 0.65125 0.79316 0.0
C2965 C 0.21043 0.65863 0.8262 0.0
C2966 C 0.28373 0.66301 0.66566 0.0
C2967 C 0.27487 0.66055 0.69799 0.0
C2968 C 0.24682 0.66182 0.68412 0.0
C2969 C 0.22898 0.65706 0.81489 0.0
C2970 C 0.23809 0.6564 0.77505 0.0
C2971 C 0.26558 0.65837 0.6683 0.0
C2972 C 0.25594 0.65697 0.70302 0.0
H2973 H 0.22274 0.66341 0.9582 0.0
H2974 H 0.23778 0.65981 0.8959 0.0
H2975 H 0.23125 0.66574 0.70491 0.0
H2976 H 0.27389 0.66095 0.52461 0.0
H2977 H 0.25842 0.65656 0.58124 0.0
C2978 C 0.0855 0.52508 0.32902 0.0
C2979 C 0.08265 0.53419 0.35873 0.0
C2980 C 0.08803 0.51623 0.36159 0.0
C2981 C 0.09411 0.50668 0.515 0.0
H2982 H 0.08075 0.48179 0.4585 0.0
C2983 C 0.08367 0.47189 0.66555 0.0
C2984 C 0.08414 0.46201 0.63997 0.0
C2985 C 0.08589 0.48061 0.63098 0.0
C2986 C 0.08471 0.48861 0.47447 0.0
H2987 H 0.08066 0.54126 0.44606 0.0
H2988 H 0.08481 0.52584 0.50238 0.0
H2989 H 0.08041 0.49718 0.3969 0.0
H2990 H 0.08812 0.45346 0.55971 0.0
H2991 H 0.09207 0.46861 0.50008 0.0
H2992 H 0.09804 0.49811 0.59382 0.0
C2993 C 0.08526 0.52553 0.45406 0.0
C2994 C 0.08453 0.49745 0.43901 0.0
C2995 C 0.08278 0.53437 0.42161 0.0
C2996 C 0.0875 0.46098 0.5805 0.0
C2997 C 0.08975 0.46966 0.54621 0.0
C2998 C 0.09425 0.49783 0.55068 0.0
C2999 C 0.08772 0.5163 0.42449 0.0
C3000 C 0.08907 0.50664 0.45924 0.0
C3001 C 0.08865 0.47958 0.57043 0.0
C3002 C 0.08941 0.48875 0.5311 0.0
H3003 H 0.08557 0.52471 0.28063 0.0
H3004 H 0.09004 0.50927 0.33748 0.0
H3005 H 0.09781 0.51361 0.53149 0.0
H3006 H 0.08114 0.47292 0.71129 0.0
H3007 H 0.08493 0.48817 0.6508 0.0
C3008 C 0.14893 0.14881 0.91863 0.0
C3009 C 0.15867 0.1459 0.9397 0.0
C3010 C 0.14188 0.14131 0.90053 0.0
C3011 C 0.1316 0.12387 0.83121 0.0
H3012 H 0.12633 0.1004 0.93439 0.0
C3013 C 0.10704 0.08912 0.75756 0.0
C3014 C 0.09943 0.08595 0.79816 0.0
C3015 C 0.11452 0.09625 0.77483 0.0
C3016 C 0.12772 0.10693 0.90529 0.0
H3017 H 0.16882 0.13312 0.95955 0.0
H3018 H 0.15642 0.11987 0.92822 0.0
H3019 H 0.13898 0.11339 0.96448 0.0
H3020 H 0.09367 0.08756 0.88854 0.0
H3021 H 0.1069 0.09994 0.91927 0.0
H3022 H 0.12031 0.11745 0.77213 0.0
C3023 C 0.15423 0.12792 0.92553 0.0
C3024 C 0.135 0.1143 0.92222 0.0
C3025 C 0.16131 0.13544 0.94306 0.0
C3026 C 0.09952 0.08985 0.85665 0.0
C3027 C 0.10707 0.09691 0.87415 0.0
C3028 C 0.1244 0.11645 0.81399 0.0
C3029 C 0.14446 0.1308 0.90399 0.0
C3030 C 0.13695 0.12286 0.88547 0.0
C3031 C 0.11458 0.10022 0.83321 0.0
C3032 C 0.12237 0.10795 0.85102 0.0
H3033 H 0.1468 0.15688 0.91616 0.0
H3034 H 0.13436 0.14371 0.88466 0.0
H3035 H 0.13303 0.13037 0.80192 0.0
H3036 H 0.10724 0.08605 0.71254 0.0
H3037 H 0.12032 0.09858 0.7427 0.0
C3038 C 0.16109 0.85881 0.04894 0.0
C3039 C 0.15868 0.84832 0.05433 0.0
C3040 C 0.15396 0.86627 0.06673 0.0
C3041 C 0.1345 0.87955 0.07233 0.0
H3042 H 0.12091 0.87676 0.22601 0.0
C3043 C 0.0992 0.90382 0.14289 0.0
C3044 C 0.0995 0.90798 0.20075 0.0
C3045 C 0.10667 0.89675 0.12464 0.0
C3046 C 0.12468 0.87765 0.18313 0.0
H3047 H 0.14719 0.83722 0.08173 0.0
H3048 H 0.13467 0.85028 0.1137 0.0
H3049 H 0.13362 0.86391 0.19497 0.0
H3050 H 0.1079 0.90831 0.28445 0.0
H3051 H 0.12087 0.89574 0.25304 0.0
H3052 H 0.12552 0.89327 0.06041 0.0
C3053 C 0.14204 0.85276 0.09601 0.0
C3054 C 0.13188 0.87027 0.16522 0.0
C3055 C 0.14913 0.84532 0.07764 0.0
C3056 C 0.10741 0.90503 0.23999 0.0
C3057 C 0.11482 0.89789 0.222 0.0
C3058 C 0.12722 0.88687 0.08997 0.0
C3059 C 0.14439 0.8633 0.09058 0.0
C3060 C 0.13684 0.87116 0.10968 0.0
C3061 C 0.1145 0.89367 0.16421 0.0
C3062 C 0.12226 0.88598 0.14554 0.0
H3063 H 0.16845 0.86121 0.03079 0.0
H3064 H 0.15597 0.87434 0.06251 0.0
H3065 H 0.13818 0.88036 0.02912 0.0
H3066 H 0.09311 0.90594 0.11206 0.0
H3067 H 0.10621 0.89353 0.08003 0.0
C3068 C 0.33794 0.85086 0.38091 0.0
C3069 C 0.33452 0.85077 0.44043 0.0
C3070 C 0.34496 0.8583 0.36172 0.0
C3071 C 0.3655 0.87481 0.41684 0.0
H3072 H 0.36171 0.88986 0.26847 0.0
C3073 C 0.38496 0.91126 0.28706 0.0
C3074 C 0.39529 0.90813 0.28643 0.0
C3075 C 0.37728 0.9044 0.30531 0.0
C3076 C 0.36283 0.88573 0.31009 0.0
H3077 H 0.33539 0.85854 0.52601 0.0
H3078 H 0.34792 0.87142 0.49285 0.0
H3079 H 0.34845 0.87771 0.30182 0.0
H3080 H 0.4059 0.8956 0.30341 0.0
H3081 H 0.39246 0.88356 0.33632 0.0
H3082 H 0.37992 0.88273 0.42485 0.0
C3083 C 0.34521 0.8657 0.46126 0.0
C3084 C 0.3553 0.87876 0.32891 0.0
C3085 C 0.3381 0.85832 0.48024 0.0
C3086 C 0.39793 0.8981 0.30393 0.0
C3087 C 0.39028 0.89128 0.32286 0.0
C3088 C 0.37309 0.88167 0.39765 0.0
C3089 C 0.34874 0.86571 0.40193 0.0
C3090 C 0.35658 0.87324 0.38244 0.0
C3091 C 0.3799 0.89438 0.32371 0.0
C3092 C 0.37182 0.88718 0.34411 0.0
H3093 H 0.33535 0.84505 0.34955 0.0
H3094 H 0.34765 0.8581 0.31587 0.0
H3095 H 0.3667 0.87058 0.45805 0.0
H3096 H 0.38284 0.91899 0.27346 0.0
H3097 H 0.36934 0.90698 0.30595 0.0
C3098 C 0.38634 0.0847 0.6947 0.0
C3099 C 0.39649 0.08783 0.70584 0.0
C3100 C 0.37899 0.09186 0.67589 0.0
C3101 C 0.37357 0.1198 0.67076 0.0
H3102 H 0.35439 0.1119 0.5457 0.0
C3103 C 0.34695 0.14896 0.55186 0.0
C3104 C 0.33668 0.14589 0.54419 0.0
C3105 C 0.3543 0.1419 0.57188 0.0
C3106 C 0.35964 0.11418 0.58102 0.0
H3107 H 0.40706 0.10072 0.70744 0.0
H3108 H 0.39426 0.11331 0.67358 0.0
H3109 H 0.36718 0.09952 0.58084 0.0
H3110 H 0.32592 0.13317 0.54975 0.0
H3111 H 0.33878 0.12075 0.58508 0.0
H3112 H 0.36606 0.1345 0.67039 0.0
C3113 C 0.3919 0.10538 0.67993 0.0
C3114 C 0.36695 0.10709 0.60124 0.0
C3115 C 0.39922 0.09821 0.69896 0.0
C3116 C 0.33383 0.13566 0.55591 0.0
C3117 C 0.34118 0.12858 0.57563 0.0
C3118 C 0.36629 0.12691 0.65032 0.0
C3119 C 0.38171 0.10227 0.66788 0.0
C3120 C 0.37397 0.10982 0.64643 0.0
C3121 C 0.35148 0.13164 0.584 0.0
C3122 C 0.35925 0.12415 0.60535 0.0
H3123 H 0.38409 0.07671 0.70061 0.0
H3124 H 0.37117 0.08926 0.66804 0.0
H3125 H 0.37877 0.12209 0.70623 0.0
H3126 H 0.34925 0.15684 0.54273 0.0
H3127 H 0.3622 0.14442 0.57728 0.0
C3128 C 0.84753 0.84728 0.02536 0.0
C3129 C 0.83708 0.84877 0.039 0.0
C3130 C 0.85485 0.85465 0.04157 0.0
C3131 C 0.85707 0.88177 0.0993 0.0
H3132 H 0.88526 0.87316 0.12679 0.0
C3133 C 0.88844 0.91168 0.15306 0.0
C3134 C 0.89696 0.90867 0.1875 0.0
C3135 C 0.88137 0.90437 0.13284 0.0
C3136 C 0.87739 0.87573 0.12061 0.0
H3137 H 0.82604 0.85918 0.07919 0.0
H3138 H 0.83881 0.87147 0.11344 0.0
H3139 H 0.8725 0.86047 0.10018 0.0
H3140 H 0.9047 0.89572 0.2289 0.0
H3141 H 0.89188 0.8831 0.19924 0.0
H3142 H 0.86171 0.89683 0.12544 0.0
C3143 C 0.84143 0.8649 0.0878 0.0
C3144 C 0.87005 0.86842 0.1037 0.0
C3145 C 0.83409 0.85772 0.06946 0.0
C3146 C 0.89815 0.89825 0.20262 0.0
C3147 C 0.89087 0.89098 0.18447 0.0
C3148 C 0.86431 0.889 0.11845 0.0
C3149 C 0.85194 0.86354 0.0737 0.0
C3150 C 0.85978 0.87133 0.09234 0.0
C3151 C 0.88239 0.8939 0.14882 0.0
C3152 C 0.87462 0.88613 0.12897 0.0
H3153 H 0.85003 0.84042 0.00183 0.0
H3154 H 0.86276 0.85337 0.02822 0.0
H3155 H 0.84935 0.88447 0.08978 0.0
H3156 H 0.88722 0.91971 0.14176 0.0
H3157 H 0.87515 0.90699 0.10444 0.0
C3158 C 0.84042 0.13874 0.98617 0.0
C3159 C 0.83678 0.14632 0.94664 0.0
C3160 C 0.84766 0.1315 0.96708 0.0
C3161 C 0.85743 0.11855 0.83413 0.0
H3162 H 0.88197 0.11366 0.92934 0.0
C3163 C 0.89915 0.09731 0.80817 0.0
C3164 C 0.89603 0.08739 0.79126 0.0
C3165 C 0.89185 0.10451 0.82714 0.0
C3166 C 0.87516 0.11498 0.90231 0.0
H3167 H 0.83781 0.15234 0.85648 0.0
H3168 H 0.85031 0.13949 0.82253 0.0
H3169 H 0.86921 0.12628 0.96303 0.0
H3170 H 0.88307 0.0771 0.77952 0.0
H3171 H 0.87019 0.08978 0.81198 0.0
H3172 H 0.86336 0.10721 0.77358 0.0
C3173 C 0.84756 0.13917 0.86822 0.0
C3174 C 0.86785 0.12212 0.92175 0.0
C3175 C 0.84041 0.14649 0.88755 0.0
C3176 C 0.88556 0.08475 0.7926 0.0
C3177 C 0.87824 0.09198 0.81084 0.0
C3178 C 0.86468 0.11131 0.81509 0.0
C3179 C 0.85127 0.13165 0.90791 0.0
C3180 C 0.85894 0.12399 0.88769 0.0
C3181 C 0.88134 0.1019 0.82859 0.0
C3182 C 0.87362 0.1095 0.84891 0.0
H3183 H 0.83759 0.13835 0.03166 0.0
H3184 H 0.85034 0.1257 -0.0017 0.0
H3185 H 0.85058 0.11982 0.80732 0.0
H3186 H 0.90723 0.09944 0.80717 0.0
H3187 H 0.89441 0.11214 0.84013 0.0
C3188 C 0.66188 0.13494 0.56393 0.0
C3189 C 0.65845 0.14471 0.54582 0.0
C3190 C 0.65479 0.12735 0.58026 0.0
C3191 C 0.62805 0.1194 0.55765 0.0
H3192 H 0.63174 0.104 0.70478 0.0
C3193 C 0.59626 0.09345 0.65539 0.0
C3194 C 0.59933 0.0841 0.681 0.0
C3195 C 0.60364 0.10061 0.63726 0.0
C3196 C 0.63068 0.10813 0.66313 0.0
H3197 H 0.64507 0.15429 0.52982 0.0
H3198 H 0.63259 0.14095 0.5576 0.0
H3199 H 0.64442 0.117 0.67623 0.0
H3200 H 0.61227 0.07468 0.70801 0.0
H3201 H 0.62531 0.08717 0.67576 0.0
H3202 H 0.61436 0.11051 0.54413 0.0
C3203 C 0.64075 0.13916 0.55932 0.0
C3204 C 0.63792 0.11558 0.64693 0.0
C3205 C 0.64785 0.14678 0.54366 0.0
C3206 C 0.60982 0.0819 0.6882 0.0
C3207 C 0.61723 0.08906 0.67014 0.0
C3208 C 0.62084 0.11191 0.57361 0.0
C3209 C 0.64416 0.12939 0.5778 0.0
C3210 C 0.63663 0.12133 0.59427 0.0
C3211 C 0.61421 0.09852 0.64466 0.0
C3212 C 0.62204 0.10624 0.62673 0.0
H3213 H 0.67004 0.13314 0.56474 0.0
H3214 H 0.6576 0.11983 0.59369 0.0
H3215 H 0.62696 0.12364 0.51636 0.0
H3216 H 0.58815 0.09523 0.64989 0.0
H3217 H 0.60107 0.10788 0.61856 0.0
C3218 C 0.60777 0.90755 0.27334 0.0
C3219 C 0.60014 0.91094 0.31322 0.0
C3220 C 0.61524 0.90051 0.29198 0.0
C3221 C 0.62836 0.89001 0.42313 0.0
H3222 H 0.63202 0.86563 0.32474 0.0
C3223 C 0.64732 0.84712 0.44308 0.0
C3224 C 0.65743 0.84957 0.45987 0.0
C3225 C 0.64055 0.8549 0.4255 0.0
C3226 C 0.63105 0.87239 0.35261 0.0
H3227 H 0.59447 0.90995 0.40412 0.0
H3228 H 0.60769 0.89775 0.43725 0.0
H3229 H 0.61995 0.87904 0.29325 0.0
H3230 H 0.66848 0.86185 0.47303 0.0
H3231 H 0.65654 0.8756 0.44295 0.0
H3232 H 0.63949 0.88332 0.4825 0.0
C3233 C 0.60786 0.90052 0.39155 0.0
C3234 C 0.62423 0.88009 0.33441 0.0
C3235 C 0.60032 0.90748 0.37267 0.0
C3236 C 0.66068 0.85987 0.45994 0.0
C3237 C 0.65387 0.86769 0.44309 0.0
C3238 C 0.63529 0.88236 0.44096 0.0
C3239 C 0.61528 0.89686 0.35106 0.0
C3240 C 0.62278 0.88892 0.36968 0.0
C3241 C 0.64377 0.86525 0.42534 0.0
C3242 C 0.63663 0.87346 0.40604 0.0
H3243 H 0.60795 0.91032 0.22766 0.0
H3244 H 0.62098 0.89791 0.26021 0.0
H3245 H 0.62739 0.89678 0.45089 0.0
H3246 H 0.64472 0.83918 0.44309 0.0
H3247 H 0.63276 0.85286 0.4125 0.0
C3248 C 0.59861 0.59558 0.29757 0.0
C3249 C 0.60007 0.58493 0.30453 0.0
C3250 C 0.60641 0.60246 0.31328 0.0
C3251 C 0.62698 0.60693 0.41374 0.0
H3252 H 0.63921 0.62435 0.29189 0.0
C3253 C 0.65983 0.63509 0.4707 0.0
C3254 C 0.65987 0.64459 0.44096 0.0
C3255 C 0.65313 0.62728 0.45238 0.0
C3256 C 0.63578 0.61967 0.32669 0.0
H3257 H 0.61076 0.57304 0.33264 0.0
H3258 H 0.62429 0.58519 0.36326 0.0
H3259 H 0.62603 0.6118 0.26409 0.0
H3260 H 0.65319 0.65357 0.36938 0.0
H3261 H 0.64107 0.64017 0.33893 0.0
H3262 H 0.6362 0.61507 0.47709 0.0
C3263 C 0.61713 0.58814 0.34509 0.0
C3264 C 0.62831 0.61244 0.31055 0.0
C3265 C 0.6094 0.58124 0.32807 0.0
C3266 C 0.65323 0.64623 0.39263 0.0
C3267 C 0.64638 0.63852 0.37501 0.0
C3268 C 0.63428 0.61431 0.43019 0.0
C3269 C 0.6157 0.59877 0.33726 0.0
C3270 C 0.62386 0.60607 0.35401 0.0
C3271 C 0.64623 0.62893 0.4047 0.0
C3272 C 0.63875 0.62081 0.3869 0.0
H3273 H 0.59144 0.59857 0.27972 0.0
H3274 H 0.60517 0.61066 0.30729 0.0
H3275 H 0.62354 0.6021 0.44788 0.0
H3276 H 0.66502 0.6337 0.50781 0.0
H3277 H 0.65342 0.61995 0.47549 0.0
C3278 C 0.64798 0.34855 0.52744 0.0
C3279 C 0.65863 0.34988 0.53539 0.0
C3280 C 0.64115 0.35644 0.54257 0.0
C3281 C 0.6374 0.37721 0.64437 0.0
H3282 H 0.61889 0.38911 0.5269 0.0
C3283 C 0.6105 0.41081 0.70591 0.0
C3284 C 0.60071 0.41095 0.67957 0.0
C3285 C 0.61795 0.40386 0.68586 0.0
C3286 C 0.62388 0.38577 0.56055 0.0
H3287 H 0.67058 0.36051 0.56353 0.0
H3288 H 0.65854 0.37417 0.59304 0.0
H3289 H 0.63103 0.37569 0.49679 0.0
H3290 H 0.59085 0.40419 0.61229 0.0
H3291 H 0.60363 0.39163 0.57897 0.0
H3292 H 0.63002 0.38679 0.70898 0.0
C3293 C 0.65553 0.36704 0.57479 0.0
C3294 C 0.63086 0.37816 0.54307 0.0
C3295 C 0.66237 0.35923 0.55838 0.0
C3296 C 0.59842 0.40415 0.63288 0.0
C3297 C 0.60578 0.39705 0.6136 0.0
C3298 C 0.63027 0.38466 0.66221 0.0
C3299 C 0.64489 0.36569 0.56685 0.0
C3300 C 0.63766 0.37385 0.58488 0.0
C3301 C 0.61565 0.39679 0.63992 0.0
C3302 C 0.62341 0.38904 0.62054 0.0
H3303 H 0.64495 0.34138 0.50985 0.0
H3304 H 0.63295 0.35526 0.53644 0.0
H3305 H 0.64255 0.37389 0.67734 0.0
H3306 H 0.61239 0.41611 0.74172 0.0
H3307 H 0.62552 0.40407 0.70631 0.0
C3308 C 0.89858 0.39955 0.82213 0.0
C3309 C 0.89591 0.4093 0.80009 0.0
C3310 C 0.89091 0.39278 0.84131 0.0
C3311 C 0.87335 0.38312 0.91221 0.0
H3312 H 0.84971 0.37798 0.81005 0.0
C3313 C 0.8388 0.3584 0.98732 0.0
C3314 C 0.83567 0.35079 0.94665 0.0
C3315 C 0.84577 0.36602 0.96984 0.0
C3316 C 0.85628 0.37935 0.83892 0.0
H3317 H 0.88338 0.41972 0.77963 0.0
H3318 H 0.86984 0.40779 0.81282 0.0
H3319 H 0.86283 0.39043 0.77891 0.0
H3320 H 0.83717 0.34516 0.85591 0.0
H3321 H 0.84927 0.35861 0.82486 0.0
H3322 H 0.86687 0.37198 0.97195 0.0
C3323 C 0.87783 0.4054 0.81545 0.0
C3324 C 0.86372 0.38651 0.82138 0.0
C3325 C 0.88552 0.41221 0.79682 0.0
C3326 C 0.83942 0.35102 0.88786 0.0
C3327 C 0.84632 0.3587 0.87017 0.0
C3328 C 0.86586 0.37604 0.93002 0.0
C3329 C 0.88047 0.39563 0.83802 0.0
C3330 C 0.87237 0.38838 0.85763 0.0
C3331 C 0.84963 0.3662 0.91119 0.0
C3332 C 0.85731 0.37403 0.8933 0.0
H3333 H 0.90659 0.39721 0.82458 0.0
H3334 H 0.89313 0.38525 0.8579 0.0
H3335 H 0.87991 0.38449 0.94115 0.0
H3336 H 0.83585 0.35848 0.0326 0.0
H3337 H 0.8481 0.37181 0.00207 0.0
C3338 C 0.88549 0.58316 0.1781 0.0
C3339 C 0.89579 0.58597 0.18746 0.0
C3340 C 0.87829 0.59053 0.15994 0.0
C3341 C 0.87381 0.6186 0.15729 0.0
H3342 H 0.85351 0.61174 0.03627 0.0
C3343 C 0.84763 0.64912 0.04756 0.0
C3344 C 0.83722 0.64646 0.04094 0.0
C3345 C 0.85479 0.6417 0.06549 0.0
C3346 C 0.85907 0.61373 0.07052 0.0
H3347 H 0.90679 0.59849 0.18579 0.0
H3348 H 0.89426 0.61143 0.1532 0.0
H3349 H 0.86605 0.59879 0.06748 0.0
H3350 H 0.82603 0.63413 0.0463 0.0
H3351 H 0.83854 0.6211 0.07827 0.0
H3352 H 0.86686 0.63355 0.16006 0.0
C3353 C 0.89167 0.60359 0.16048 0.0
C3354 C 0.86624 0.60632 0.08843 0.0
C3355 C 0.89884 0.59622 0.17874 0.0
C3356 C 0.83404 0.63631 0.05176 0.0
C3357 C 0.8412 0.62888 0.0695 0.0
C3358 C 0.86666 0.62601 0.13926 0.0
C3359 C 0.88132 0.60083 0.15097 0.0
C3360 C 0.87369 0.60868 0.13199 0.0
C3361 C 0.85164 0.63151 0.07665 0.0
C3362 C 0.85922 0.62365 0.09571 0.0
H3363 H 0.88299 0.57528 0.18546 0.0
H3364 H 0.87034 0.5882 0.15386 0.0
H3365 H 0.87935 0.6206 0.19167 0.0
H3366 H 0.85019 0.65693 0.03905 0.0
H3367 H 0.86281 0.64391 0.06993 0.0
C3368 C 0.33685 0.35852 0.5243 0.0
C3369 C 0.33591 0.34941 0.55745 0.0
C3370 C 0.34336 0.36638 0.54405 0.0
C3371 C 0.3583 0.37515 0.67746 0.0
H3372 H 0.37351 0.39075 0.55854 0.0
C3373 C 0.39622 0.39837 0.71254 0.0
C3374 C 0.39493 0.40902 0.70408 0.0
C3375 C 0.38836 0.39155 0.6969 0.0
C3376 C 0.36923 0.38647 0.59198 0.0
H3377 H 0.34078 0.34121 0.63669 0.0
H3378 H 0.35261 0.35467 0.67001 0.0
H3379 H 0.36107 0.37778 0.5263 0.0
H3380 H 0.38441 0.42096 0.67455 0.0
H3381 H 0.37079 0.40889 0.64411 0.0
H3382 H 0.36702 0.38356 0.74286 0.0
C3383 C 0.34813 0.35599 0.62988 0.0
C3384 C 0.36206 0.3791 0.57374 0.0
C3385 C 0.34146 0.34823 0.61067 0.0
C3386 C 0.38564 0.41275 0.68015 0.0
C3387 C 0.37786 0.40591 0.66328 0.0
C3388 C 0.36564 0.38237 0.69557 0.0
C3389 C 0.34918 0.36517 0.59675 0.0
C3390 C 0.35652 0.3733 0.61625 0.0
C3391 C 0.37919 0.39528 0.67171 0.0
C3392 C 0.37115 0.38803 0.65289 0.0
H3393 H 0.33248 0.35958 0.48345 0.0
H3394 H 0.34377 0.37341 0.51807 0.0
H3395 H 0.35405 0.37102 0.7115 0.0
H3396 H 0.40334 0.39534 0.73084 0.0
H3397 H 0.38949 0.38335 0.70339 0.0
C3398 C 0.39293 0.58819 0.35502 0.0
C3399 C 0.39314 0.58461 0.29586 0.0
C3400 C 0.38514 0.59488 0.37377 0.0
C3401 C 0.36773 0.61441 0.31532 0.0
H3402 H 0.35381 0.61164 0.46802 0.0
C3403 C 0.33231 0.6348 0.45075 0.0
C3404 C 0.3354 0.64512 0.44649 0.0
C3405 C 0.33897 0.62695 0.43252 0.0
C3406 C 0.3576 0.61245 0.42512 0.0
H3407 H 0.38523 0.58477 0.21052 0.0
H3408 H 0.3717 0.59665 0.24294 0.0
H3409 H 0.36597 0.59832 0.43565 0.0
H3410 H 0.34764 0.65554 0.42096 0.0
H3411 H 0.35934 0.6418 0.38836 0.0
H3412 H 0.35946 0.62858 0.30499 0.0
C3413 C 0.37759 0.59435 0.27462 0.0
C3414 C 0.36459 0.60489 0.40685 0.0
C3415 C 0.38533 0.58761 0.25607 0.0
C3416 C 0.34517 0.64758 0.42421 0.0
C3417 C 0.35179 0.63975 0.40542 0.0
C3418 C 0.36083 0.622 0.33383 0.0
C3419 C 0.3775 0.59813 0.33346 0.0
C3420 C 0.36974 0.60584 0.35191 0.0
C3421 C 0.34874 0.62937 0.40933 0.0
C3422 C 0.35576 0.62113 0.38904 0.0
H3423 H 0.39893 0.58603 0.38632 0.0
H3424 H 0.3853 0.59776 0.41921 0.0
H3425 H 0.37167 0.61536 0.273 0.0
H3426 H 0.32476 0.63283 0.46807 0.0
H3427 H 0.33643 0.61901 0.43563 0.0
C3428 C 0.1084 0.58492 0.19082 0.0
C3429 C 0.09817 0.58788 0.20132 0.0
C3430 C 0.11566 0.5922 0.17263 0.0
C3431 C 0.11798 0.61751 0.10058 0.0
H3432 H 0.14528 0.61747 0.17158 0.0
C3433 C 0.14777 0.64959 0.05482 0.0
C3434 C 0.15802 0.64646 0.04688 0.0
C3435 C 0.14036 0.64253 0.074 0.0
C3436 C 0.13773 0.61751 0.15085 0.0
H3437 H 0.08739 0.6006 0.20218 0.0
H3438 H 0.10012 0.61346 0.17047 0.0
H3439 H 0.1325 0.60495 0.20495 0.0
H3440 H 0.16864 0.63362 0.05073 0.0
H3441 H 0.15568 0.62117 0.08384 0.0
H3442 H 0.12323 0.63002 0.04613 0.0
C3443 C 0.10252 0.6055 0.17557 0.0
C3444 C 0.13041 0.61035 0.17001 0.0
C3445 C 0.09527 0.59821 0.19397 0.0
C3446 C 0.16078 0.63618 0.0575 0.0
C3447 C 0.15338 0.6291 0.07656 0.0
C3448 C 0.12531 0.62466 0.08127 0.0
C3449 C 0.11279 0.60256 0.16469 0.0
C3450 C 0.12048 0.61026 0.14496 0.0
C3451 C 0.14309 0.63221 0.08526 0.0
C3452 C 0.13527 0.62471 0.1061 0.0
H3453 H 0.11076 0.57697 0.19679 0.0
H3454 H 0.12349 0.5897 0.16404 0.0
H3455 H 0.11043 0.61753 0.07995 0.0
H3456 H 0.14555 0.65753 0.04679 0.0
H3457 H 0.13253 0.64518 0.08089 0.0
C3458 C 0.14862 0.34778 0.9724 0.0
C3459 C 0.15906 0.34903 0.95819 0.0
C3460 C 0.1414 0.35523 0.95562 0.0
C3461 C 0.1395 0.38204 0.89193 0.0
H3462 H 0.1112 0.37358 0.86705 0.0
C3463 C 0.10841 0.41188 0.83075 0.0
C3464 C 0.09964 0.40868 0.79924 0.0
C3465 C 0.11552 0.40467 0.85176 0.0
C3466 C 0.1191 0.3761 0.87235 0.0
H3467 H 0.17025 0.35917 0.91694 0.0
H3468 H 0.15767 0.37153 0.88158 0.0
H3469 H 0.12379 0.36097 0.89694 0.0
H3470 H 0.0916 0.3955 0.76252 0.0
H3471 H 0.10448 0.38301 0.79318 0.0
H3472 H 0.13506 0.39692 0.86137 0.0
C3473 C 0.15494 0.36511 0.90807 0.0
C3474 C 0.12634 0.36885 0.89128 0.0
C3475 C 0.16219 0.35788 0.92709 0.0
C3476 C 0.09831 0.39817 0.78685 0.0
C3477 C 0.10564 0.39098 0.80562 0.0
C3478 C 0.13235 0.38919 0.87062 0.0
C3479 C 0.14442 0.36395 0.92223 0.0
C3480 C 0.13666 0.37171 0.90184 0.0
C3481 C 0.1143 0.39409 0.83922 0.0
C3482 C 0.122 0.38638 0.86094 0.0
H3483 H 0.146 0.34101 -0.00357 0.0
H3484 H 0.13348 0.3541 0.96924 0.0
H3485 H 0.14725 0.38472 0.9007 0.0
H3486 H 0.10977 0.41999 0.83949 0.0
H3487 H 0.1219 0.40748 0.87833 0.0
loop_
_geom_bond_atom_site_label_1
_geom_bond_atom_site_label_2
_geom_bond_distance
_geom_bond_site_symmetry_2
_ccdc_geom_bond_type
Co0 O3 1.970 . S
Co0 N17 1.989 . S
Co0 O25 1.967 . S
Co0 O32 1.920 . S
Co1 O4 1.966 . S
Co1 N10 2.022 . S
Co1 N18 1.993 . S
Co1 O26 1.941 . S
C2 O3 1.258 . S
C2 O4 1.263 1_554 S
O3 Co0 1.970 . S
O3 C2 1.258 . S
O4 Co1 1.966 . S
O4 C2 1.263 1_556 S
C5 O6 1.235 . S
C5 O32 1.289 . S
O6 C5 1.235 . S
C7 C9 1.400 . S
C7 N10 1.351 . S
C7 C12 1.501 . S
C8 C9 1.387 . S
C8 N11 1.341 . S
C9 C7 1.400 . S
C9 C8 1.387 . S
N10 Co1 2.022 . S
N10 C7 1.351 . S
N10 N11 1.365 . S
N11 C8 1.341 . S
N11 N10 1.365 . S
N11 H31 0.862 . S
C12 C7 1.501 . S
C12 H13 0.961 . S
C12 H14 0.961 . S
C12 H15 0.960 . S
H13 C12 0.961 . S
H14 C12 0.961 . S
H15 C12 0.960 . S
C16 N17 1.342 . S
C16 C20 1.401 1_554 S
C16 C21 1.499 . S
N17 Co0 1.989 . S
N17 C16 1.342 . S
N17 N18 1.388 1_554 S
N18 Co1 1.993 . S
N18 N17 1.388 1_556 S
N18 C19 1.346 . S
C19 N18 1.346 . S
C19 C20 1.396 . S
C19 C29 1.510 . S
C20 C16 1.401 1_556 S
C20 C19 1.396 . S
C21 C16 1.499 . S
C21 H22 0.959 . S
C21 H23 0.960 . S
C21 H24 0.961 . S
H22 C21 0.959 . S
H23 C21 0.960 . S
H24 C21 0.961 . S
O25 Co0 1.967 . S
O25 C33 1.258 . S
O26 Co1 1.941 . S
O26 C33 1.266 1_556 S
H27 C29 0.959 . S
H28 C29 0.961 . S
C29 C19 1.510 . S
C29 H27 0.959 . S
C29 H28 0.961 . S
C29 H30 0.960 . S
H30 C29 0.960 . S
H31 N11 0.862 . S
O32 Co0 1.920 . S
O32 C5 1.289 . S
C33 O25 1.258 . S
C33 O26 1.266 1_554 S
Co34 O37 1.970 . S
Co34 N51 1.989 . S
Co34 O59 1.967 . S
Co34 O66 1.920 . S
Co35 O38 1.966 . S
Co35 N44 2.022 . S
Co35 N52 1.993 . S
Co35 O60 1.941 . S
C36 O37 1.258 . S
C36 O38 1.263 . S
O37 Co34 1.970 . S
O37 C36 1.258 . S
O38 Co35 1.966 . S
O38 C36 1.263 . S
C39 O40 1.235 . S
C39 O66 1.289 . S
O40 C39 1.235 . S
C41 C43 1.400 . S
C41 N44 1.351 . S
C41 C46 1.501 . S
C42 C43 1.387 . S
C42 N45 1.341 . S
C43 C41 1.400 . S
C43 C42 1.387 . S
N44 Co35 2.022 . S
N44 C41 1.351 . S
N44 N45 1.365 . S
N45 C42 1.341 . S
N45 N44 1.365 . S
N45 H65 0.862 . S
C46 C41 1.501 . S
C46 H47 0.961 . S
C46 H48 0.961 . S
C46 H49 0.960 . S
H47 C46 0.961 . S
H48 C46 0.961 . S
H49 C46 0.960 . S
C50 N51 1.342 . S
C50 C54 1.401 . S
C50 C55 1.499 . S
N51 Co34 1.989 . S
N51 C50 1.342 . S
N51 N52 1.388 . S
N52 Co35 1.993 . S
N52 N51 1.388 . S
N52 C53 1.346 . S
C53 N52 1.346 . S
C53 C54 1.396 . S
C53 C63 1.510 . S
C54 C50 1.401 . S
C54 C53 1.396 . S
C55 C50 1.499 . S
C55 H56 0.959 . S
C55 H57 0.960 . S
C55 H58 0.961 . S
H56 C55 0.959 . S
H57 C55 0.960 . S
H58 C55 0.961 . S
O59 Co34 1.967 . S
O59 C67 1.258 . S
O60 Co35 1.941 . S
O60 C67 1.266 . S
H61 C63 0.959 . S
H62 C63 0.961 . S
C63 C53 1.510 . S
C63 H61 0.959 . S
C63 H62 0.961 . S
C63 H64 0.960 . S
H64 C63 0.960 . S
H65 N45 0.862 . S
O66 Co34 1.920 . S
O66 C39 1.289 . S
C67 O59 1.258 . S
C67 O60 1.266 . S
Co68 O71 1.970 . S
Co68 N85 1.989 . S
Co68 O93 1.967 . S
Co68 O100 1.920 . S
Co69 O72 1.966 . S
Co69 N78 2.022 . S
Co69 N86 1.993 . S
Co69 O94 1.941 . S
C70 O71 1.258 . S
C70 O72 1.263 . S
O71 Co68 1.970 . S
O71 C70 1.258 . S
O72 Co69 1.966 . S
O72 C70 1.263 . S
C73 O74 1.235 . S
C73 O100 1.289 . S
O74 C73 1.235 . S
C75 C77 1.400 . S
C75 N78 1.351 . S
C75 C80 1.501 . S
C76 C77 1.387 . S
C76 N79 1.341 . S
C77 C75 1.400 . S
C77 C76 1.387 . S
N78 Co69 2.022 . S
N78 C75 1.351 . S
N78 N79 1.365 . S
N79 C76 1.341 . S
N79 N78 1.365 . S
N79 H99 0.862 . S
C80 C75 1.501 . S
C80 H81 0.961 . S
C80 H82 0.961 . S
C80 H83 0.960 . S
H81 C80 0.961 . S
H82 C80 0.961 . S
H83 C80 0.960 . S
C84 N85 1.342 . S
C84 C88 1.401 . S
C84 C89 1.499 . S
N85 Co68 1.989 . S
N85 C84 1.342 . S
N85 N86 1.388 . S
N86 Co69 1.993 . S
N86 N85 1.388 . S
N86 C87 1.346 . S
C87 N86 1.346 . S
C87 C88 1.396 . S
C87 C97 1.510 . S
C88 C84 1.401 . S
C88 C87 1.396 . S
C89 C84 1.499 . S
C89 H90 0.959 . S
C89 H91 0.960 . S
C89 H92 0.961 . S
H90 C89 0.959 . S
H91 C89 0.960 . S
H92 C89 0.961 . S
O93 Co68 1.967 . S
O93 C101 1.258 . S
O94 Co69 1.941 . S
O94 C101 1.266 . S
H95 C97 0.959 . S
H96 C97 0.961 . S
C97 C87 1.510 . S
C97 H95 0.959 . S
C97 H96 0.961 . S
C97 H98 0.960 . S
H98 C97 0.960 . S
H99 N79 0.862 . S
O100 Co68 1.920 . S
O100 C73 1.289 . S
C101 O93 1.258 . S
C101 O94 1.266 . S
Co102 O105 1.970 . S
Co102 N119 1.989 . S
Co102 O127 1.967 . S
Co102 O134 1.920 . S
Co103 O106 1.966 . S
Co103 N112 2.022 . S
Co103 N120 1.993 . S
Co103 O128 1.941 . S
C104 O105 1.258 . S
C104 O106 1.263 . S
O105 Co102 1.970 . S
O105 C104 1.258 . S
O106 Co103 1.966 . S
O106 C104 1.263 . S
C107 O108 1.235 . S
C107 O134 1.289 . S
O108 C107 1.235 . S
C109 C111 1.400 . S
C109 N112 1.351 . S
C109 C114 1.501 . S
C110 C111 1.387 . S
C110 N113 1.341 . S
C111 C109 1.400 . S
C111 C110 1.387 . S
N112 Co103 2.022 . S
N112 C109 1.351 . S
N112 N113 1.365 . S
N113 C110 1.341 . S
N113 N112 1.365 . S
N113 H133 0.862 . S
C114 C109 1.501 . S
C114 H115 0.961 . S
C114 H116 0.961 . S
C114 H117 0.960 . S
H115 C114 0.961 . S
H116 C114 0.961 . S
H117 C114 0.960 . S
C118 N119 1.342 . S
C118 C122 1.401 . S
C118 C123 1.499 . S
N119 Co102 1.989 . S
N119 C118 1.342 . S
N119 N120 1.388 . S
N120 Co103 1.993 . S
N120 N119 1.388 . S
N120 C121 1.346 . S
C121 N120 1.346 . S
C121 C122 1.396 . S
C121 C131 1.510 . S
C122 C118 1.401 . S
C122 C121 1.396 . S
C123 C118 1.499 . S
C123 H124 0.959 . S
C123 H125 0.960 . S
C123 H126 0.961 . S
H124 C123 0.959 . S
H125 C123 0.960 . S
H126 C123 0.961 . S
O127 Co102 1.967 . S
O127 C135 1.258 . S
O128 Co103 1.941 . S
O128 C135 1.266 . S
H129 C131 0.959 . S
H130 C131 0.961 . S
C131 C121 1.510 . S
C131 H129 0.959 . S
C131 H130 0.961 . S
C131 H132 0.960 . S
H132 C131 0.960 . S
H133 N113 0.862 . S
O134 Co102 1.920 . S
O134 C107 1.289 . S
C135 O127 1.258 . S
C135 O128 1.266 . S
Co136 O139 1.970 . S
Co136 N153 1.989 . S
Co136 O161 1.967 . S
Co136 O168 1.920 . S
Co137 O140 1.966 . S
Co137 N146 2.022 . S
Co137 N154 1.993 . S
Co137 O162 1.941 . S
C138 O139 1.258 . S
C138 O140 1.263 1_556 S
O139 Co136 1.970 . S
O139 C138 1.258 . S
O140 Co137 1.966 . S
O140 C138 1.263 1_554 S
C141 O142 1.235 . S
C141 O168 1.289 . S
O142 C141 1.235 . S
C143 C145 1.400 . S
C143 N146 1.351 . S
C143 C148 1.501 . S
C144 C145 1.387 . S
C144 N147 1.341 . S
C145 C143 1.400 . S
C145 C144 1.387 . S
N146 Co137 2.022 . S
N146 C143 1.351 . S
N146 N147 1.365 . S
N147 C144 1.341 . S
N147 N146 1.365 . S
N147 H167 0.862 . S
C148 C143 1.501 . S
C148 H149 0.961 . S
C148 H150 0.961 . S
C148 H151 0.960 . S
H149 C148 0.961 . S
H150 C148 0.961 . S
H151 C148 0.960 . S
C152 N153 1.342 . S
C152 C156 1.401 1_556 S
C152 C157 1.499 . S
N153 Co136 1.989 . S
N153 C152 1.342 . S
N153 N154 1.388 1_556 S
N154 Co137 1.993 . S
N154 N153 1.388 1_554 S
N154 C155 1.346 . S
C155 N154 1.346 . S
C155 C156 1.396 . S
C155 C165 1.510 . S
C156 C152 1.401 1_554 S
C156 C155 1.396 . S
C157 C152 1.499 . S
C157 H158 0.959 . S
C157 H159 0.960 . S
C157 H160 0.961 . S
H158 C157 0.959 . S
H159 C157 0.960 . S
H160 C157 0.961 . S
O161 Co136 1.967 . S
O161 C169 1.258 . S
O162 Co137 1.941 . S
O162 C169 1.266 1_554 S
H163 C165 0.959 . S
H164 C165 0.961 . S
C165 C155 1.510 . S
C165 H163 0.959 . S
C165 H164 0.961 . S
C165 H166 0.960 . S
H166 C165 0.960 . S
H167 N147 0.862 . S
O168 Co136 1.920 . S
O168 C141 1.289 . S
C169 O161 1.258 . S
C169 O162 1.266 1_556 S
Co170 O173 1.970 . S
Co170 N187 1.989 . S
Co170 O195 1.967 . S
Co170 O202 1.920 . S
Co171 O174 1.966 . S
Co171 N180 2.022 . S
Co171 N188 1.993 . S
Co171 O196 1.941 . S
C172 O173 1.258 . S
C172 O174 1.263 . S
O173 Co170 1.970 . S
O173 C172 1.258 . S
O174 Co171 1.966 . S
O174 C172 1.263 . S
C175 O176 1.235 . S
C175 O202 1.289 . S
O176 C175 1.235 . S
C177 C179 1.400 . S
C177 N180 1.351 . S
C177 C182 1.501 . S
C178 C179 1.387 . S
C178 N181 1.341 . S
C179 C177 1.400 . S
C179 C178 1.387 . S
N180 Co171 2.022 . S
N180 C177 1.351 . S
N180 N181 1.365 . S
N181 C178 1.341 . S
N181 N180 1.365 . S
N181 H201 0.862 . S
C182 C177 1.501 . S
C182 H183 0.961 . S
C182 H184 0.961 . S
C182 H185 0.960 . S
H183 C182 0.961 . S
H184 C182 0.961 . S
H185 C182 0.960 . S
C186 N187 1.342 . S
C186 C190 1.401 . S
C186 C191 1.499 . S
N187 Co170 1.989 . S
N187 C186 1.342 . S
N187 N188 1.388 . S
N188 Co171 1.993 . S
N188 N187 1.388 . S
N188 C189 1.346 . S
C189 N188 1.346 . S
C189 C190 1.396 . S
C189 C199 1.510 . S
C190 C186 1.401 . S
C190 C189 1.396 . S
C191 C186 1.499 . S
C191 H192 0.959 . S
C191 H193 0.960 . S
C191 H194 0.961 . S
H192 C191 0.959 . S
H193 C191 0.960 . S
H194 C191 0.961 . S
O195 Co170 1.967 . S
O195 C203 1.258 . S
O196 Co171 1.941 . S
O196 C203 1.266 . S
H197 C199 0.959 . S
H198 C199 0.961 . S
C199 C189 1.510 . S
C199 H197 0.959 . S
C199 H198 0.961 . S
C199 H200 0.960 . S
H200 C199 0.960 . S
H201 N181 0.862 . S
O202 Co170 1.920 . S
O202 C175 1.289 . S
C203 O195 1.258 . S
C203 O196 1.266 . S
Co204 O207 1.970 . S
Co204 N221 1.989 . S
Co204 O229 1.967 . S
Co204 O236 1.920 . S
Co205 O208 1.966 . S
Co205 N214 2.022 . S
Co205 N222 1.993 . S
Co205 O230 1.941 . S
C206 O207 1.258 . S
C206 O208 1.263 . S
O207 Co204 1.970 . S
O207 C206 1.258 . S
O208 Co205 1.966 . S
O208 C206 1.263 . S
C209 O210 1.235 . S
C209 O236 1.289 . S
O210 C209 1.235 . S
C211 C213 1.400 . S
C211 N214 1.351 . S
C211 C216 1.501 . S
C212 C213 1.387 . S
C212 N215 1.341 . S
C213 C211 1.400 . S
C213 C212 1.387 . S
N214 Co205 2.022 . S
N214 C211 1.351 . S
N214 N215 1.365 . S
N215 C212 1.341 . S
N215 N214 1.365 . S
N215 H235 0.862 . S
C216 C211 1.501 . S
C216 H217 0.961 . S
C216 H218 0.961 . S
C216 H219 0.960 . S
H217 C216 0.961 . S
H218 C216 0.961 . S
H219 C216 0.960 . S
C220 N221 1.342 . S
C220 C224 1.401 . S
C220 C225 1.499 . S
N221 Co204 1.989 . S
N221 C220 1.342 . S
N221 N222 1.388 . S
N222 Co205 1.993 . S
N222 N221 1.388 . S
N222 C223 1.346 . S
C223 N222 1.346 . S
C223 C224 1.396 . S
C223 C233 1.510 . S
C224 C220 1.401 . S
C224 C223 1.396 . S
C225 C220 1.499 . S
C225 H226 0.959 . S
C225 H227 0.960 . S
C225 H228 0.961 . S
H226 C225 0.959 . S
H227 C225 0.960 . S
H228 C225 0.961 . S
O229 Co204 1.967 . S
O229 C237 1.258 . S
O230 Co205 1.941 . S
O230 C237 1.266 . S
H231 C233 0.959 . S
H232 C233 0.961 . S
C233 C223 1.510 . S
C233 H231 0.959 . S
C233 H232 0.961 . S
C233 H234 0.960 . S
H234 C233 0.960 . S
H235 N215 0.862 . S
O236 Co204 1.920 . S
O236 C209 1.289 . S
C237 O229 1.258 . S
C237 O230 1.266 . S
Co238 O241 1.970 . S
Co238 N255 1.989 . S
Co238 O263 1.967 . S
Co238 O270 1.920 . S
Co239 O242 1.966 . S
Co239 N248 2.022 . S
Co239 N256 1.993 . S
Co239 O264 1.941 . S
C240 O241 1.258 . S
C240 O242 1.263 . S
O241 Co238 1.970 . S
O241 C240 1.258 . S
O242 Co239 1.966 . S
O242 C240 1.263 . S
C243 O244 1.235 . S
C243 O270 1.289 . S
O244 C243 1.235 . S
C245 C247 1.400 . S
C245 N248 1.351 . S
C245 C250 1.501 . S
C246 C247 1.387 . S
C246 N249 1.341 . S
C247 C245 1.400 . S
C247 C246 1.387 . S
N248 Co239 2.022 . S
N248 C245 1.351 . S
N248 N249 1.365 . S
N249 C246 1.341 . S
N249 N248 1.365 . S
N249 H269 0.862 . S
C250 C245 1.501 . S
C250 H251 0.961 . S
C250 H252 0.961 . S
C250 H253 0.960 . S
H251 C250 0.961 . S
H252 C250 0.961 . S
H253 C250 0.960 . S
C254 N255 1.342 . S
C254 C258 1.401 . S
C254 C259 1.499 . S
N255 Co238 1.989 . S
N255 C254 1.342 . S
N255 N256 1.388 . S
N256 Co239 1.993 . S
N256 N255 1.388 . S
N256 C257 1.346 . S
C257 N256 1.346 . S
C257 C258 1.396 . S
C257 C267 1.510 . S
C258 C254 1.401 . S
C258 C257 1.396 . S
C259 C254 1.499 . S
C259 H260 0.959 . S
C259 H261 0.960 . S
C259 H262 0.961 . S
H260 C259 0.959 . S
H261 C259 0.960 . S
H262 C259 0.961 . S
O263 Co238 1.967 . S
O263 C271 1.258 . S
O264 Co239 1.941 . S
O264 C271 1.266 . S
H265 C267 0.959 . S
H266 C267 0.961 . S
C267 C257 1.510 . S
C267 H265 0.959 . S
C267 H266 0.961 . S
C267 H268 0.960 . S
H268 C267 0.960 . S
H269 N249 0.862 . S
O270 Co238 1.920 . S
O270 C243 1.289 . S
C271 O263 1.258 . S
C271 O264 1.266 . S
Co272 O275 1.970 . S
Co272 N289 1.989 . S
Co272 O297 1.967 . S
Co272 O304 1.920 . S
Co273 O276 1.966 . S
Co273 N282 2.022 . S
Co273 N290 1.993 . S
Co273 O298 1.941 . S
C274 O275 1.258 . S
C274 O276 1.263 1_556 S
O275 Co272 1.970 . S
O275 C274 1.258 . S
O276 Co273 1.966 . S
O276 C274 1.263 1_554 S
C277 O278 1.235 . S
C277 O304 1.289 . S
O278 C277 1.235 . S
C279 C281 1.400 . S
C279 N282 1.351 . S
C279 C284 1.501 . S
C280 C281 1.387 . S
C280 N283 1.341 . S
C281 C279 1.400 . S
C281 C280 1.387 . S
N282 Co273 2.022 . S
N282 C279 1.351 . S
N282 N283 1.365 . S
N283 C280 1.341 . S
N283 N282 1.365 . S
N283 H303 0.862 . S
C284 C279 1.501 . S
C284 H285 0.961 . S
C284 H286 0.961 . S
C284 H287 0.960 . S
H285 C284 0.961 . S
H286 C284 0.961 . S
H287 C284 0.960 . S
C288 N289 1.342 . S
C288 C292 1.401 1_556 S
C288 C293 1.499 . S
N289 Co272 1.989 . S
N289 C288 1.342 . S
N289 N290 1.388 1_556 S
N290 Co273 1.993 . S
N290 N289 1.388 1_554 S
N290 C291 1.346 . S
C291 N290 1.346 . S
C291 C292 1.396 . S
C291 C301 1.510 . S
C292 C288 1.401 1_554 S
C292 C291 1.396 . S
C293 C288 1.499 . S
C293 H294 0.959 . S
C293 H295 0.960 . S
C293 H296 0.961 . S
H294 C293 0.959 . S
H295 C293 0.960 . S
H296 C293 0.961 . S
O297 Co272 1.967 . S
O297 C305 1.258 . S
O298 Co273 1.941 . S
O298 C305 1.266 1_554 S
H299 C301 0.959 . S
H300 C301 0.961 . S
C301 C291 1.510 . S
C301 H299 0.959 . S
C301 H300 0.961 . S
C301 H302 0.960 . S
H302 C301 0.960 . S
H303 N283 0.862 . S
O304 Co272 1.920 . S
O304 C277 1.289 . S
C305 O297 1.258 . S
C305 O298 1.266 1_556 S
Co306 O309 1.970 . S
Co306 N323 1.989 . S
Co306 O331 1.967 . S
Co306 O338 1.920 . S
Co307 O310 1.966 . S
Co307 N316 2.022 . S
Co307 N324 1.993 . S
Co307 O332 1.941 . S
C308 O309 1.258 . S
C308 O310 1.263 . S
O309 Co306 1.970 . S
O309 C308 1.258 . S
O310 Co307 1.966 . S
O310 C308 1.263 . S
C311 O312 1.235 . S
C311 O338 1.289 . S
O312 C311 1.235 . S
C313 C315 1.400 . S
C313 N316 1.351 . S
C313 C318 1.501 . S
C314 C315 1.387 . S
C314 N317 1.341 . S
C315 C313 1.400 . S
C315 C314 1.387 . S
N316 Co307 2.022 . S
N316 C313 1.351 . S
N316 N317 1.365 . S
N317 C314 1.341 . S
N317 N316 1.365 . S
N317 H337 0.862 . S
C318 C313 1.501 . S
C318 H319 0.961 . S
C318 H320 0.961 . S
C318 H321 0.960 . S
H319 C318 0.961 . S
H320 C318 0.961 . S
H321 C318 0.960 . S
C322 N323 1.342 . S
C322 C326 1.401 . S
C322 C327 1.499 . S
N323 Co306 1.989 . S
N323 C322 1.342 . S
N323 N324 1.388 . S
N324 Co307 1.993 . S
N324 N323 1.388 . S
N324 C325 1.346 . S
C325 N324 1.346 . S
C325 C326 1.396 . S
C325 C335 1.510 . S
C326 C322 1.401 . S
C326 C325 1.396 . S
C327 C322 1.499 . S
C327 H328 0.959 . S
C327 H329 0.960 . S
C327 H330 0.961 . S
H328 C327 0.959 . S
H329 C327 0.960 . S
H330 C327 0.961 . S
O331 Co306 1.967 . S
O331 C339 1.258 . S
O332 Co307 1.941 . S
O332 C339 1.266 . S
H333 C335 0.959 . S
H334 C335 0.961 . S
C335 C325 1.510 . S
C335 H333 0.959 . S
C335 H334 0.961 . S
C335 H336 0.960 . S
H336 C335 0.960 . S
H337 N317 0.862 . S
O338 Co306 1.920 . S
O338 C311 1.289 . S
C339 O331 1.258 . S
C339 O332 1.266 . S
Co340 O343 1.970 . S
Co340 N357 1.989 . S
Co340 O365 1.967 . S
Co340 O372 1.920 . S
Co341 O344 1.966 . S
Co341 N350 2.022 . S
Co341 N358 1.993 . S
Co341 O366 1.941 . S
C342 O343 1.258 . S
C342 O344 1.263 . S
O343 Co340 1.970 . S
O343 C342 1.258 . S
O344 Co341 1.966 . S
O344 C342 1.263 . S
C345 O346 1.235 . S
C345 O372 1.289 . S
O346 C345 1.235 . S
C347 C349 1.400 . S
C347 N350 1.351 . S
C347 C352 1.501 . S
C348 C349 1.387 . S
C348 N351 1.341 . S
C349 C347 1.400 . S
C349 C348 1.387 . S
N350 Co341 2.022 . S
N350 C347 1.351 . S
N350 N351 1.365 . S
N351 C348 1.341 . S
N351 N350 1.365 . S
N351 H371 0.862 . S
C352 C347 1.501 . S
C352 H353 0.961 . S
C352 H354 0.961 . S
C352 H355 0.960 . S
H353 C352 0.961 . S
H354 C352 0.961 . S
H355 C352 0.960 . S
C356 N357 1.342 . S
C356 C360 1.401 . S
C356 C361 1.499 . S
N357 Co340 1.989 . S
N357 C356 1.342 . S
N357 N358 1.388 . S
N358 Co341 1.993 . S
N358 N357 1.388 . S
N358 C359 1.346 . S
C359 N358 1.346 . S
C359 C360 1.396 . S
C359 C369 1.510 . S
C360 C356 1.401 . S
C360 C359 1.396 . S
C361 C356 1.499 . S
C361 H362 0.959 . S
C361 H363 0.960 . S
C361 H364 0.961 . S
H362 C361 0.959 . S
H363 C361 0.960 . S
H364 C361 0.961 . S
O365 Co340 1.967 . S
O365 C373 1.258 . S
O366 Co341 1.941 . S
O366 C373 1.266 . S
H367 C369 0.959 . S
H368 C369 0.961 . S
C369 C359 1.510 . S
C369 H367 0.959 . S
C369 H368 0.961 . S
C369 H370 0.960 . S
H370 C369 0.960 . S
H371 N351 0.862 . S
O372 Co340 1.920 . S
O372 C345 1.289 . S
C373 O365 1.258 . S
C373 O366 1.266 . S
Co374 O377 1.970 . S
Co374 N391 1.989 . S
Co374 O399 1.967 . S
Co374 O406 1.920 . S
Co375 O378 1.966 . S
Co375 N384 2.022 . S
Co375 N392 1.993 . S
Co375 O400 1.941 . S
C376 O377 1.258 . S
C376 O378 1.263 . S
O377 Co374 1.970 . S
O377 C376 1.258 . S
O378 Co375 1.966 . S
O378 C376 1.263 . S
C379 O380 1.235 . S
C379 O406 1.289 . S
O380 C379 1.235 . S
C381 C383 1.400 . S
C381 N384 1.351 . S
C381 C386 1.501 . S
C382 C383 1.387 . S
C382 N385 1.341 . S
C383 C381 1.400 . S
C383 C382 1.387 . S
N384 Co375 2.022 . S
N384 C381 1.351 . S
N384 N385 1.365 . S
N385 C382 1.341 . S
N385 N384 1.365 . S
N385 H405 0.862 . S
C386 C381 1.501 . S
C386 H387 0.961 . S
C386 H388 0.961 . S
C386 H389 0.960 . S
H387 C386 0.961 . S
H388 C386 0.961 . S
H389 C386 0.960 . S
C390 N391 1.342 . S
C390 C394 1.401 . S
C390 C395 1.499 . S
N391 Co374 1.989 . S
N391 C390 1.342 . S
N391 N392 1.388 . S
N392 Co375 1.993 . S
N392 N391 1.388 . S
N392 C393 1.346 . S
C393 N392 1.346 . S
C393 C394 1.396 . S
C393 C403 1.510 . S
C394 C390 1.401 . S
C394 C393 1.396 . S
C395 C390 1.499 . S
C395 H396 0.959 . S
C395 H397 0.960 . S
C395 H398 0.961 . S
H396 C395 0.959 . S
H397 C395 0.960 . S
H398 C395 0.961 . S
O399 Co374 1.967 . S
O399 C407 1.258 . S
O400 Co375 1.941 . S
O400 C407 1.266 . S
H401 C403 0.959 . S
H402 C403 0.961 . S
C403 C393 1.510 . S
C403 H401 0.959 . S
C403 H402 0.961 . S
C403 H404 0.960 . S
H404 C403 0.960 . S
H405 N385 0.862 . S
O406 Co374 1.920 . S
O406 C379 1.289 . S
C407 O399 1.258 . S
C407 O400 1.266 . S
Co408 O411 1.970 . S
Co408 N425 1.989 . S
Co408 O433 1.967 . S
Co408 O440 1.920 . S
Co409 O412 1.966 . S
Co409 N418 2.022 . S
Co409 N426 1.993 . S
Co409 O434 1.941 . S
C410 O411 1.258 . S
C410 O412 1.263 1_554 S
O411 Co408 1.970 . S
O411 C410 1.258 . S
O412 Co409 1.966 . S
O412 C410 1.263 1_556 S
C413 O414 1.235 . S
C413 O440 1.289 . S
O414 C413 1.235 . S
C415 C417 1.400 . S
C415 N418 1.351 . S
C415 C420 1.501 . S
C416 C417 1.387 . S
C416 N419 1.341 . S
C417 C415 1.400 . S
C417 C416 1.387 . S
N418 Co409 2.022 . S
N418 C415 1.351 . S
N418 N419 1.365 . S
N419 C416 1.341 . S
N419 N418 1.365 . S
N419 H439 0.862 . S
C420 C415 1.501 . S
C420 H421 0.961 . S
C420 H422 0.961 . S
C420 H423 0.960 . S
H421 C420 0.961 . S
H422 C420 0.961 . S
H423 C420 0.960 . S
C424 N425 1.342 . S
C424 C428 1.401 1_554 S
C424 C429 1.499 . S
N425 Co408 1.989 . S
N425 C424 1.342 . S
N425 N426 1.388 1_554 S
N426 Co409 1.993 . S
N426 N425 1.388 1_556 S
N426 C427 1.346 . S
C427 N426 1.346 . S
C427 C428 1.396 . S
C427 C437 1.510 . S
C428 C424 1.401 1_556 S
C428 C427 1.396 . S
C429 C424 1.499 . S
C429 H430 0.959 . S
C429 H431 0.960 . S
C429 H432 0.961 . S
H430 C429 0.959 . S
H431 C429 0.960 . S
H432 C429 0.961 . S
O433 Co408 1.967 . S
O433 C441 1.258 . S
O434 Co409 1.941 . S
O434 C441 1.266 1_556 S
H435 C437 0.959 . S
H436 C437 0.961 . S
C437 C427 1.510 . S
C437 H435 0.959 . S
C437 H436 0.961 . S
C437 H438 0.960 . S
H438 C437 0.960 . S
H439 N419 0.862 . S
O440 Co408 1.920 . S
O440 C413 1.289 . S
C441 O433 1.258 . S
C441 O434 1.266 1_554 S
Co442 O445 1.970 . S
Co442 N459 1.989 . S
Co442 O467 1.967 . S
Co442 O474 1.920 . S
Co443 O446 1.966 . S
Co443 N452 2.022 . S
Co443 N460 1.993 . S
Co443 O468 1.941 . S
C444 O445 1.258 . S
C444 O446 1.263 . S
O445 Co442 1.970 . S
O445 C444 1.258 . S
O446 Co443 1.966 . S
O446 C444 1.263 . S
C447 O448 1.235 . S
C447 O474 1.289 . S
O448 C447 1.235 . S
C449 C451 1.400 . S
C449 N452 1.351 . S
C449 C454 1.501 . S
C450 C451 1.387 . S
C450 N453 1.341 . S
C451 C449 1.400 . S
C451 C450 1.387 . S
N452 Co443 2.022 . S
N452 C449 1.351 . S
N452 N453 1.365 . S
N453 C450 1.341 . S
N453 N452 1.365 . S
N453 H473 0.862 . S
C454 C449 1.501 . S
C454 H455 0.961 . S
C454 H456 0.961 . S
C454 H457 0.960 . S
H455 C454 0.961 . S
H456 C454 0.961 . S
H457 C454 0.960 . S
C458 N459 1.342 . S
C458 C462 1.401 . S
C458 C463 1.499 . S
N459 Co442 1.989 . S
N459 C458 1.342 . S
N459 N460 1.388 . S
N460 Co443 1.993 . S
N460 N459 1.388 . S
N460 C461 1.346 . S
C461 N460 1.346 . S
C461 C462 1.396 . S
C461 C471 1.510 . S
C462 C458 1.401 . S
C462 C461 1.396 . S
C463 C458 1.499 . S
C463 H464 0.959 . S
C463 H465 0.960 . S
C463 H466 0.961 . S
H464 C463 0.959 . S
H465 C463 0.960 . S
H466 C463 0.961 . S
O467 Co442 1.967 . S
O467 C475 1.258 . S
O468 Co443 1.941 . S
O468 C475 1.266 . S
H469 C471 0.959 . S
H470 C471 0.961 . S
C471 C461 1.510 . S
C471 H469 0.959 . S
C471 H470 0.961 . S
C471 H472 0.960 . S
H472 C471 0.960 . S
H473 N453 0.862 . S
O474 Co442 1.920 . S
O474 C447 1.289 . S
C475 O467 1.258 . S
C475 O468 1.266 . S
Co476 O479 1.970 . S
Co476 N493 1.989 . S
Co476 O501 1.967 . S
Co476 O508 1.920 . S
Co477 O480 1.966 . S
Co477 N486 2.022 . S
Co477 N494 1.993 . S
Co477 O502 1.941 . S
C478 O479 1.258 . S
C478 O480 1.263 . S
O479 Co476 1.970 . S
O479 C478 1.258 . S
O480 Co477 1.966 . S
O480 C478 1.263 . S
C481 O482 1.235 . S
C481 O508 1.289 . S
O482 C481 1.235 . S
C483 C485 1.400 . S
C483 N486 1.351 . S
C483 C488 1.501 . S
C484 C485 1.387 . S
C484 N487 1.341 . S
C485 C483 1.400 . S
C485 C484 1.387 . S
N486 Co477 2.022 . S
N486 C483 1.351 . S
N486 N487 1.365 . S
N487 C484 1.341 . S
N487 N486 1.365 . S
N487 H507 0.862 . S
C488 C483 1.501 . S
C488 H489 0.961 . S
C488 H490 0.961 . S
C488 H491 0.960 . S
H489 C488 0.961 . S
H490 C488 0.961 . S
H491 C488 0.960 . S
C492 N493 1.342 . S
C492 C496 1.401 . S
C492 C497 1.499 . S
N493 Co476 1.989 . S
N493 C492 1.342 . S
N493 N494 1.388 . S
N494 Co477 1.993 . S
N494 N493 1.388 . S
N494 C495 1.346 . S
C495 N494 1.346 . S
C495 C496 1.396 . S
C495 C505 1.510 . S
C496 C492 1.401 . S
C496 C495 1.396 . S
C497 C492 1.499 . S
C497 H498 0.959 . S
C497 H499 0.960 . S
C497 H500 0.961 . S
H498 C497 0.959 . S
H499 C497 0.960 . S
H500 C497 0.961 . S
O501 Co476 1.967 . S
O501 C509 1.258 . S
O502 Co477 1.941 . S
O502 C509 1.266 . S
H503 C505 0.959 . S
H504 C505 0.961 . S
C505 C495 1.510 . S
C505 H503 0.959 . S
C505 H504 0.961 . S
C505 H506 0.960 . S
H506 C505 0.960 . S
H507 N487 0.862 . S
O508 Co476 1.920 . S
O508 C481 1.289 . S
C509 O501 1.258 . S
C509 O502 1.266 . S
Co510 O513 1.970 . S
Co510 N527 1.989 . S
Co510 O535 1.967 . S
Co510 O542 1.920 . S
Co511 O514 1.966 . S
Co511 N520 2.022 . S
Co511 N528 1.993 . S
Co511 O536 1.941 . S
C512 O513 1.258 . S
C512 O514 1.263 . S
O513 Co510 1.970 . S
O513 C512 1.258 . S
O514 Co511 1.966 . S
O514 C512 1.263 . S
C515 O516 1.235 . S
C515 O542 1.289 . S
O516 C515 1.235 . S
C517 C519 1.400 . S
C517 N520 1.351 . S
C517 C522 1.501 . S
C518 C519 1.387 . S
C518 N521 1.341 . S
C519 C517 1.400 . S
C519 C518 1.387 . S
N520 Co511 2.022 . S
N520 C517 1.351 . S
N520 N521 1.365 . S
N521 C518 1.341 . S
N521 N520 1.365 . S
N521 H541 0.862 . S
C522 C517 1.501 . S
C522 H523 0.961 . S
C522 H524 0.961 . S
C522 H525 0.960 . S
H523 C522 0.961 . S
H524 C522 0.961 . S
H525 C522 0.960 . S
C526 N527 1.342 . S
C526 C530 1.401 . S
C526 C531 1.499 . S
N527 Co510 1.989 . S
N527 C526 1.342 . S
N527 N528 1.388 . S
N528 Co511 1.993 . S
N528 N527 1.388 . S
N528 C529 1.346 . S
C529 N528 1.346 . S
C529 C530 1.396 . S
C529 C539 1.510 . S
C530 C526 1.401 . S
C530 C529 1.396 . S
C531 C526 1.499 . S
C531 H532 0.959 . S
C531 H533 0.960 . S
C531 H534 0.961 . S
H532 C531 0.959 . S
H533 C531 0.960 . S
H534 C531 0.961 . S
O535 Co510 1.967 . S
O535 C543 1.258 . S
O536 Co511 1.941 . S
O536 C543 1.266 . S
H537 C539 0.959 . S
H538 C539 0.961 . S
C539 C529 1.510 . S
C539 H537 0.959 . S
C539 H538 0.961 . S
C539 H540 0.960 . S
H540 C539 0.960 . S
H541 N521 0.862 . S
O542 Co510 1.920 . S
O542 C515 1.289 . S
C543 O535 1.258 . S
C543 O536 1.266 . S
Co544 O547 1.970 . S
Co544 N561 1.989 . S
Co544 O569 1.967 . S
Co544 O576 1.920 . S
Co545 O548 1.966 . S
Co545 N554 2.022 . S
Co545 N562 1.993 . S
Co545 O570 1.941 . S
C546 O547 1.258 . S
C546 O548 1.263 . S
O547 Co544 1.970 . S
O547 C546 1.258 . S
O548 Co545 1.966 . S
O548 C546 1.263 . S
C549 O550 1.235 . S
C549 O576 1.289 . S
O550 C549 1.235 . S
C551 C553 1.400 . S
C551 N554 1.351 . S
C551 C556 1.501 . S
C552 C553 1.387 . S
C552 N555 1.341 . S
C553 C551 1.400 . S
C553 C552 1.387 . S
N554 Co545 2.022 . S
N554 C551 1.351 . S
N554 N555 1.365 . S
N555 C552 1.341 . S
N555 N554 1.365 . S
N555 H575 0.862 . S
C556 C551 1.501 . S
C556 H557 0.961 . S
C556 H558 0.961 . S
C556 H559 0.960 . S
H557 C556 0.961 . S
H558 C556 0.961 . S
H559 C556 0.960 . S
C560 N561 1.342 . S
C560 C564 1.401 . S
C560 C565 1.499 . S
N561 Co544 1.989 . S
N561 C560 1.342 . S
N561 N562 1.388 . S
N562 Co545 1.993 . S
N562 N561 1.388 . S
N562 C563 1.346 . S
C563 N562 1.346 . S
C563 C564 1.396 . S
C563 C573 1.510 . S
C564 C560 1.401 . S
C564 C563 1.396 . S
C565 C560 1.499 . S
C565 H566 0.959 . S
C565 H567 0.960 . S
C565 H568 0.961 . S
H566 C565 0.959 . S
H567 C565 0.960 . S
H568 C565 0.961 . S
O569 Co544 1.967 . S
O569 C577 1.258 . S
O570 Co545 1.941 . S
O570 C577 1.266 . S
H571 C573 0.959 . S
H572 C573 0.961 . S
C573 C563 1.510 . S
C573 H571 0.959 . S
C573 H572 0.961 . S
C573 H574 0.960 . S
H574 C573 0.960 . S
H575 N555 0.862 . S
O576 Co544 1.920 . S
O576 C549 1.289 . S
C577 O569 1.258 . S
C577 O570 1.266 . S
Co578 O581 1.970 . S
Co578 N595 1.989 . S
Co578 O603 1.967 . S
Co578 O610 1.920 . S
Co579 O582 1.966 . S
Co579 N588 2.022 . S
Co579 N596 1.993 . S
Co579 O604 1.941 . S
C580 O581 1.258 . S
C580 O582 1.263 . S
O581 Co578 1.970 . S
O581 C580 1.258 . S
O582 Co579 1.966 . S
O582 C580 1.263 . S
C583 O584 1.235 . S
C583 O610 1.289 . S
O584 C583 1.235 . S
C585 C587 1.400 . S
C585 N588 1.351 . S
C585 C590 1.501 . S
C586 C587 1.387 . S
C586 N589 1.341 . S
C587 C585 1.400 . S
C587 C586 1.387 . S
N588 Co579 2.022 . S
N588 C585 1.351 . S
N588 N589 1.365 . S
N589 C586 1.341 . S
N589 N588 1.365 . S
N589 H609 0.862 . S
C590 C585 1.501 . S
C590 H591 0.961 . S
C590 H592 0.961 . S
C590 H593 0.960 . S
H591 C590 0.961 . S
H592 C590 0.961 . S
H593 C590 0.960 . S
C594 N595 1.342 . S
C594 C598 1.401 . S
C594 C599 1.499 . S
N595 Co578 1.989 . S
N595 C594 1.342 . S
N595 N596 1.388 . S
N596 Co579 1.993 . S
N596 N595 1.388 . S
N596 C597 1.346 . S
C597 N596 1.346 . S
C597 C598 1.396 . S
C597 C607 1.510 . S
C598 C594 1.401 . S
C598 C597 1.396 . S
C599 C594 1.499 . S
C599 H600 0.959 . S
C599 H601 0.960 . S
C599 H602 0.961 . S
H600 C599 0.959 . S
H601 C599 0.960 . S
H602 C599 0.961 . S
O603 Co578 1.967 . S
O603 C611 1.258 . S
O604 Co579 1.941 . S
O604 C611 1.266 . S
H605 C607 0.959 . S
H606 C607 0.961 . S
C607 C597 1.510 . S
C607 H605 0.959 . S
C607 H606 0.961 . S
C607 H608 0.960 . S
H608 C607 0.960 . S
H609 N589 0.862 . S
O610 Co578 1.920 . S
O610 C583 1.289 . S
C611 O603 1.258 . S
C611 O604 1.266 . S
Co612 O615 1.970 . S
Co612 N629 1.989 . S
Co612 O637 1.967 . S
Co612 O644 1.920 . S
Co613 O616 1.966 . S
Co613 N622 2.022 . S
Co613 N630 1.993 . S
Co613 O638 1.941 . S
C614 O615 1.258 . S
C614 O616 1.263 1_554 S
O615 Co612 1.970 . S
O615 C614 1.258 . S
O616 Co613 1.966 . S
O616 C614 1.263 1_556 S
C617 O618 1.235 . S
C617 O644 1.289 . S
O618 C617 1.235 . S
C619 C621 1.400 . S
C619 N622 1.351 . S
C619 C624 1.501 . S
C620 C621 1.387 . S
C620 N623 1.341 . S
C621 C619 1.400 . S
C621 C620 1.387 . S
N622 Co613 2.022 . S
N622 C619 1.351 . S
N622 N623 1.365 . S
N623 C620 1.341 . S
N623 N622 1.365 . S
N623 H643 0.862 . S
C624 C619 1.501 . S
C624 H625 0.961 . S
C624 H626 0.961 . S
C624 H627 0.960 . S
H625 C624 0.961 . S
H626 C624 0.961 . S
H627 C624 0.960 . S
C628 N629 1.342 . S
C628 C632 1.401 1_554 S
C628 C633 1.499 . S
N629 Co612 1.989 . S
N629 C628 1.342 . S
N629 N630 1.388 1_554 S
N630 Co613 1.993 . S
N630 N629 1.388 1_556 S
N630 C631 1.346 . S
C631 N630 1.346 . S
C631 C632 1.396 . S
C631 C641 1.510 . S
C632 C628 1.401 1_556 S
C632 C631 1.396 . S
C633 C628 1.499 . S
C633 H634 0.959 . S
C633 H635 0.960 . S
C633 H636 0.961 . S
H634 C633 0.959 . S
H635 C633 0.960 . S
H636 C633 0.961 . S
O637 Co612 1.967 . S
O637 C645 1.258 . S
O638 Co613 1.941 . S
O638 C645 1.266 1_556 S
H639 C641 0.959 . S
H640 C641 0.961 . S
C641 C631 1.510 . S
C641 H639 0.959 . S
C641 H640 0.961 . S
C641 H642 0.960 . S
H642 C641 0.960 . S
H643 N623 0.862 . S
O644 Co612 1.920 . S
O644 C617 1.289 . S
C645 O637 1.258 . S
C645 O638 1.266 1_554 S
Co646 O649 1.970 . S
Co646 N663 1.989 . S
Co646 O671 1.967 . S
Co646 O678 1.920 . S
Co647 O650 1.966 . S
Co647 N656 2.022 . S
Co647 N664 1.993 . S
Co647 O672 1.941 . S
C648 O649 1.258 . S
C648 O650 1.263 . S
O649 Co646 1.970 . S
O649 C648 1.258 . S
O650 Co647 1.966 . S
O650 C648 1.263 . S
C651 O652 1.235 . S
C651 O678 1.289 . S
O652 C651 1.235 . S
C653 C655 1.400 . S
C653 N656 1.351 . S
C653 C658 1.501 . S
C654 C655 1.387 . S
C654 N657 1.341 . S
C655 C653 1.400 . S
C655 C654 1.387 . S
N656 Co647 2.022 . S
N656 C653 1.351 . S
N656 N657 1.365 . S
N657 C654 1.341 . S
N657 N656 1.365 . S
N657 H677 0.862 . S
C658 C653 1.501 . S
C658 H659 0.961 . S
C658 H660 0.961 . S
C658 H661 0.960 . S
H659 C658 0.961 . S
H660 C658 0.961 . S
H661 C658 0.960 . S
C662 N663 1.342 . S
C662 C666 1.401 . S
C662 C667 1.499 . S
N663 Co646 1.989 . S
N663 C662 1.342 . S
N663 N664 1.388 . S
N664 Co647 1.993 . S
N664 N663 1.388 . S
N664 C665 1.346 . S
C665 N664 1.346 . S
C665 C666 1.396 . S
C665 C675 1.510 . S
C666 C662 1.401 . S
C666 C665 1.396 . S
C667 C662 1.499 . S
C667 H668 0.959 . S
C667 H669 0.960 . S
C667 H670 0.961 . S
H668 C667 0.959 . S
H669 C667 0.960 . S
H670 C667 0.961 . S
O671 Co646 1.967 . S
O671 C679 1.258 . S
O672 Co647 1.941 . S
O672 C679 1.266 . S
H673 C675 0.959 . S
H674 C675 0.961 . S
C675 C665 1.510 . S
C675 H673 0.959 . S
C675 H674 0.961 . S
C675 H676 0.960 . S
H676 C675 0.960 . S
H677 N657 0.862 . S
O678 Co646 1.920 . S
O678 C651 1.289 . S
C679 O671 1.258 . S
C679 O672 1.266 . S
Co680 O683 1.970 . S
Co680 N697 1.989 . S
Co680 O705 1.967 . S
Co680 O712 1.920 . S
Co681 O684 1.966 . S
Co681 N690 2.022 . S
Co681 N698 1.993 . S
Co681 O706 1.941 . S
C682 O683 1.258 . S
C682 O684 1.263 . S
O683 Co680 1.970 . S
O683 C682 1.258 . S
O684 Co681 1.966 . S
O684 C682 1.263 . S
C685 O686 1.235 . S
C685 O712 1.289 . S
O686 C685 1.235 . S
C687 C689 1.400 . S
C687 N690 1.351 . S
C687 C692 1.501 . S
C688 C689 1.387 . S
C688 N691 1.341 . S
C689 C687 1.400 . S
C689 C688 1.387 . S
N690 Co681 2.022 . S
N690 C687 1.351 . S
N690 N691 1.365 . S
N691 C688 1.341 . S
N691 N690 1.365 . S
N691 H711 0.862 . S
C692 C687 1.501 . S
C692 H693 0.961 . S
C692 H694 0.961 . S
C692 H695 0.960 . S
H693 C692 0.961 . S
H694 C692 0.961 . S
H695 C692 0.960 . S
C696 N697 1.342 . S
C696 C700 1.401 . S
C696 C701 1.499 . S
N697 Co680 1.989 . S
N697 C696 1.342 . S
N697 N698 1.388 . S
N698 Co681 1.993 . S
N698 N697 1.388 . S
N698 C699 1.346 . S
C699 N698 1.346 . S
C699 C700 1.396 . S
C699 C709 1.510 . S
C700 C696 1.401 . S
C700 C699 1.396 . S
C701 C696 1.499 . S
C701 H702 0.959 . S
C701 H703 0.960 . S
C701 H704 0.961 . S
H702 C701 0.959 . S
H703 C701 0.960 . S
H704 C701 0.961 . S
O705 Co680 1.967 . S
O705 C713 1.258 . S
O706 Co681 1.941 . S
O706 C713 1.266 . S
H707 C709 0.959 . S
H708 C709 0.961 . S
C709 C699 1.510 . S
C709 H707 0.959 . S
C709 H708 0.961 . S
C709 H710 0.960 . S
H710 C709 0.960 . S
H711 N691 0.862 . S
O712 Co680 1.920 . S
O712 C685 1.289 . S
C713 O705 1.258 . S
C713 O706 1.266 . S
Co714 O717 1.970 . S
Co714 N731 1.989 . S
Co714 O739 1.967 . S
Co714 O746 1.920 . S
Co715 O718 1.966 . S
Co715 N724 2.022 . S
Co715 N732 1.993 . S
Co715 O740 1.941 . S
C716 O717 1.258 . S
C716 O718 1.263 . S
O717 Co714 1.970 . S
O717 C716 1.258 . S
O718 Co715 1.966 . S
O718 C716 1.263 . S
C719 O720 1.235 . S
C719 O746 1.289 . S
O720 C719 1.235 . S
C721 C723 1.400 . S
C721 N724 1.351 . S
C721 C726 1.501 . S
C722 C723 1.387 . S
C722 N725 1.341 . S
C723 C721 1.400 . S
C723 C722 1.387 . S
N724 Co715 2.022 . S
N724 C721 1.351 . S
N724 N725 1.365 . S
N725 C722 1.341 . S
N725 N724 1.365 . S
N725 H745 0.862 . S
C726 C721 1.501 . S
C726 H727 0.961 . S
C726 H728 0.961 . S
C726 H729 0.960 . S
H727 C726 0.961 . S
H728 C726 0.961 . S
H729 C726 0.960 . S
C730 N731 1.342 . S
C730 C734 1.401 . S
C730 C735 1.499 . S
N731 Co714 1.989 . S
N731 C730 1.342 . S
N731 N732 1.388 . S
N732 Co715 1.993 . S
N732 N731 1.388 . S
N732 C733 1.346 . S
C733 N732 1.346 . S
C733 C734 1.396 . S
C733 C743 1.510 . S
C734 C730 1.401 . S
C734 C733 1.396 . S
C735 C730 1.499 . S
C735 H736 0.959 . S
C735 H737 0.960 . S
C735 H738 0.961 . S
H736 C735 0.959 . S
H737 C735 0.960 . S
H738 C735 0.961 . S
O739 Co714 1.967 . S
O739 C747 1.258 . S
O740 Co715 1.941 . S
O740 C747 1.266 . S
H741 C743 0.959 . S
H742 C743 0.961 . S
C743 C733 1.510 . S
C743 H741 0.959 . S
C743 H742 0.961 . S
C743 H744 0.960 . S
H744 C743 0.960 . S
H745 N725 0.862 . S
O746 Co714 1.920 . S
O746 C719 1.289 . S
C747 O739 1.258 . S
C747 O740 1.266 . S
Co748 O751 1.970 . S
Co748 N765 1.989 . S
Co748 O773 1.967 . S
Co748 O780 1.920 . S
Co749 O752 1.966 . S
Co749 N758 2.022 . S
Co749 N766 1.993 . S
Co749 O774 1.941 . S
C750 O751 1.258 . S
C750 O752 1.263 1_556 S
O751 Co748 1.970 . S
O751 C750 1.258 . S
O752 Co749 1.966 . S
O752 C750 1.263 1_554 S
C753 O754 1.235 . S
C753 O780 1.289 . S
O754 C753 1.235 . S
C755 C757 1.400 . S
C755 N758 1.351 . S
C755 C760 1.501 . S
C756 C757 1.387 . S
C756 N759 1.341 . S
C757 C755 1.400 . S
C757 C756 1.387 . S
N758 Co749 2.022 . S
N758 C755 1.351 . S
N758 N759 1.365 . S
N759 C756 1.341 . S
N759 N758 1.365 . S
N759 H779 0.862 . S
C760 C755 1.501 . S
C760 H761 0.961 . S
C760 H762 0.961 . S
C760 H763 0.960 . S
H761 C760 0.961 . S
H762 C760 0.961 . S
H763 C760 0.960 . S
C764 N765 1.342 . S
C764 C768 1.401 1_556 S
C764 C769 1.499 . S
N765 Co748 1.989 . S
N765 C764 1.342 . S
N765 N766 1.388 1_556 S
N766 Co749 1.993 . S
N766 N765 1.388 1_554 S
N766 C767 1.346 . S
C767 N766 1.346 . S
C767 C768 1.396 . S
C767 C777 1.510 . S
C768 C764 1.401 1_554 S
C768 C767 1.396 . S
C769 C764 1.499 . S
C769 H770 0.959 . S
C769 H771 0.960 . S
C769 H772 0.961 . S
H770 C769 0.959 . S
H771 C769 0.960 . S
H772 C769 0.961 . S
O773 Co748 1.967 . S
O773 C781 1.258 . S
O774 Co749 1.941 . S
O774 C781 1.266 1_554 S
H775 C777 0.959 . S
H776 C777 0.961 . S
C777 C767 1.510 . S
C777 H775 0.959 . S
C777 H776 0.961 . S
C777 H778 0.960 . S
H778 C777 0.960 . S
H779 N759 0.862 . S
O780 Co748 1.920 . S
O780 C753 1.289 . S
C781 O773 1.258 . S
C781 O774 1.266 1_556 S
Co782 O785 1.970 . S
Co782 N799 1.989 . S
Co782 O807 1.967 . S
Co782 O814 1.920 . S
Co783 O786 1.966 . S
Co783 N792 2.022 . S
Co783 N800 1.993 . S
Co783 O808 1.941 . S
C784 O785 1.258 . S
C784 O786 1.263 . S
O785 Co782 1.970 . S
O785 C784 1.258 . S
O786 Co783 1.966 . S
O786 C784 1.263 . S
C787 O788 1.235 . S
C787 O814 1.289 . S
O788 C787 1.235 . S
C789 C791 1.400 . S
C789 N792 1.351 . S
C789 C794 1.501 . S
C790 C791 1.387 . S
C790 N793 1.341 . S
C791 C789 1.400 . S
C791 C790 1.387 . S
N792 Co783 2.022 . S
N792 C789 1.351 . S
N792 N793 1.365 . S
N793 C790 1.341 . S
N793 N792 1.365 . S
N793 H813 0.862 . S
C794 C789 1.501 . S
C794 H795 0.961 . S
C794 H796 0.961 . S
C794 H797 0.960 . S
H795 C794 0.961 . S
H796 C794 0.961 . S
H797 C794 0.960 . S
C798 N799 1.342 . S
C798 C802 1.401 . S
C798 C803 1.499 . S
N799 Co782 1.989 . S
N799 C798 1.342 . S
N799 N800 1.388 . S
N800 Co783 1.993 . S
N800 N799 1.388 . S
N800 C801 1.346 . S
C801 N800 1.346 . S
C801 C802 1.396 . S
C801 C811 1.510 . S
C802 C798 1.401 . S
C802 C801 1.396 . S
C803 C798 1.499 . S
C803 H804 0.959 . S
C803 H805 0.960 . S
C803 H806 0.961 . S
H804 C803 0.959 . S
H805 C803 0.960 . S
H806 C803 0.961 . S
O807 Co782 1.967 . S
O807 C815 1.258 . S
O808 Co783 1.941 . S
O808 C815 1.266 . S
H809 C811 0.959 . S
H810 C811 0.961 . S
C811 C801 1.510 . S
C811 H809 0.959 . S
C811 H810 0.961 . S
C811 H812 0.960 . S
H812 C811 0.960 . S
H813 N793 0.862 . S
O814 Co782 1.920 . S
O814 C787 1.289 . S
C815 O807 1.258 . S
C815 O808 1.266 . S
Co816 O819 1.970 . S
Co816 N833 1.989 . S
Co816 O841 1.967 . S
Co816 O848 1.920 . S
Co817 O820 1.966 . S
Co817 N826 2.022 . S
Co817 N834 1.993 . S
Co817 O842 1.941 . S
C818 O819 1.258 . S
C818 O820 1.263 . S
O819 Co816 1.970 . S
O819 C818 1.258 . S
O820 Co817 1.966 . S
O820 C818 1.263 . S
C821 O822 1.235 . S
C821 O848 1.289 . S
O822 C821 1.235 . S
C823 C825 1.400 . S
C823 N826 1.351 . S
C823 C828 1.501 . S
C824 C825 1.387 . S
C824 N827 1.341 . S
C825 C823 1.400 . S
C825 C824 1.387 . S
N826 Co817 2.022 . S
N826 C823 1.351 . S
N826 N827 1.365 . S
N827 C824 1.341 . S
N827 N826 1.365 . S
N827 H847 0.862 . S
C828 C823 1.501 . S
C828 H829 0.961 . S
C828 H830 0.961 . S
C828 H831 0.960 . S
H829 C828 0.961 . S
H830 C828 0.961 . S
H831 C828 0.960 . S
C832 N833 1.342 . S
C832 C836 1.401 . S
C832 C837 1.499 . S
N833 Co816 1.989 . S
N833 C832 1.342 . S
N833 N834 1.388 . S
N834 Co817 1.993 . S
N834 N833 1.388 . S
N834 C835 1.346 . S
C835 N834 1.346 . S
C835 C836 1.396 . S
C835 C845 1.510 . S
C836 C832 1.401 . S
C836 C835 1.396 . S
C837 C832 1.499 . S
C837 H838 0.959 . S
C837 H839 0.960 . S
C837 H840 0.961 . S
H838 C837 0.959 . S
H839 C837 0.960 . S
H840 C837 0.961 . S
O841 Co816 1.967 . S
O841 C849 1.258 . S
O842 Co817 1.941 . S
O842 C849 1.266 . S
H843 C845 0.959 . S
H844 C845 0.961 . S
C845 C835 1.510 . S
C845 H843 0.959 . S
C845 H844 0.961 . S
C845 H846 0.960 . S
H846 C845 0.960 . S
H847 N827 0.862 . S
O848 Co816 1.920 . S
O848 C821 1.289 . S
C849 O841 1.258 . S
C849 O842 1.266 . S
Co850 O853 1.970 . S
Co850 N867 1.989 . S
Co850 O875 1.967 . S
Co850 O882 1.920 . S
Co851 O854 1.966 . S
Co851 N860 2.022 . S
Co851 N868 1.993 . S
Co851 O876 1.941 . S
C852 O853 1.258 . S
C852 O854 1.263 . S
O853 Co850 1.970 . S
O853 C852 1.258 . S
O854 Co851 1.966 . S
O854 C852 1.263 . S
C855 O856 1.235 . S
C855 O882 1.289 . S
O856 C855 1.235 . S
C857 C859 1.400 . S
C857 N860 1.351 . S
C857 C862 1.501 . S
C858 C859 1.387 . S
C858 N861 1.341 . S
C859 C857 1.400 . S
C859 C858 1.387 . S
N860 Co851 2.022 . S
N860 C857 1.351 . S
N860 N861 1.365 . S
N861 C858 1.341 . S
N861 N860 1.365 . S
N861 H881 0.862 . S
C862 C857 1.501 . S
C862 H863 0.961 . S
C862 H864 0.961 . S
C862 H865 0.960 . S
H863 C862 0.961 . S
H864 C862 0.961 . S
H865 C862 0.960 . S
C866 N867 1.342 . S
C866 C870 1.401 . S
C866 C871 1.499 . S
N867 Co850 1.989 . S
N867 C866 1.342 . S
N867 N868 1.388 . S
N868 Co851 1.993 . S
N868 N867 1.388 . S
N868 C869 1.346 . S
C869 N868 1.346 . S
C869 C870 1.396 . S
C869 C879 1.510 . S
C870 C866 1.401 . S
C870 C869 1.396 . S
C871 C866 1.499 . S
C871 H872 0.959 . S
C871 H873 0.960 . S
C871 H874 0.961 . S
H872 C871 0.959 . S
H873 C871 0.960 . S
H874 C871 0.961 . S
O875 Co850 1.967 . S
O875 C883 1.258 . S
O876 Co851 1.941 . S
O876 C883 1.266 . S
H877 C879 0.959 . S
H878 C879 0.961 . S
C879 C869 1.510 . S
C879 H877 0.959 . S
C879 H878 0.961 . S
C879 H880 0.960 . S
H880 C879 0.960 . S
H881 N861 0.862 . S
O882 Co850 1.920 . S
O882 C855 1.289 . S
C883 O875 1.258 . S
C883 O876 1.266 . S
Co884 O887 1.970 . S
Co884 N901 1.989 . S
Co884 O909 1.967 . S
Co884 O916 1.920 . S
Co885 O888 1.966 . S
Co885 N894 2.022 . S
Co885 N902 1.993 . S
Co885 O910 1.941 . S
C886 O887 1.258 . S
C886 O888 1.263 1_556 S
O887 Co884 1.970 . S
O887 C886 1.258 . S
O888 Co885 1.966 . S
O888 C886 1.263 1_554 S
C889 O890 1.235 . S
C889 O916 1.289 . S
O890 C889 1.235 . S
C891 C893 1.400 . S
C891 N894 1.351 . S
C891 C896 1.501 . S
C892 C893 1.387 . S
C892 N895 1.341 . S
C893 C891 1.400 . S
C893 C892 1.387 . S
N894 Co885 2.022 . S
N894 C891 1.351 . S
N894 N895 1.365 . S
N895 C892 1.341 . S
N895 N894 1.365 . S
N895 H915 0.862 . S
C896 C891 1.501 . S
C896 H897 0.961 . S
C896 H898 0.961 . S
C896 H899 0.960 . S
H897 C896 0.961 . S
H898 C896 0.961 . S
H899 C896 0.960 . S
C900 N901 1.342 . S
C900 C904 1.401 1_556 S
C900 C905 1.499 . S
N901 Co884 1.989 . S
N901 C900 1.342 . S
N901 N902 1.388 1_556 S
N902 Co885 1.993 . S
N902 N901 1.388 1_554 S
N902 C903 1.346 . S
C903 N902 1.346 . S
C903 C904 1.396 . S
C903 C913 1.510 . S
C904 C900 1.401 1_554 S
C904 C903 1.396 . S
C905 C900 1.499 . S
C905 H906 0.959 . S
C905 H907 0.960 . S
C905 H908 0.961 . S
H906 C905 0.959 . S
H907 C905 0.960 . S
H908 C905 0.961 . S
O909 Co884 1.967 . S
O909 C917 1.258 . S
O910 Co885 1.941 . S
O910 C917 1.266 1_554 S
H911 C913 0.959 . S
H912 C913 0.961 . S
C913 C903 1.510 . S
C913 H911 0.959 . S
C913 H912 0.961 . S
C913 H914 0.960 . S
H914 C913 0.960 . S
H915 N895 0.862 . S
O916 Co884 1.920 . S
O916 C889 1.289 . S
C917 O909 1.258 . S
C917 O910 1.266 1_556 S
Co918 O921 1.970 . S
Co918 N935 1.989 . S
Co918 O943 1.967 . S
Co918 O950 1.920 . S
Co919 O922 1.966 . S
Co919 N928 2.022 . S
Co919 N936 1.993 . S
Co919 O944 1.941 . S
C920 O921 1.258 . S
C920 O922 1.263 . S
O921 Co918 1.970 . S
O921 C920 1.258 . S
O922 Co919 1.966 . S
O922 C920 1.263 . S
C923 O924 1.235 . S
C923 O950 1.289 . S
O924 C923 1.235 . S
C925 C927 1.400 . S
C925 N928 1.351 . S
C925 C930 1.501 . S
C926 C927 1.387 . S
C926 N929 1.341 . S
C927 C925 1.400 . S
C927 C926 1.387 . S
N928 Co919 2.022 . S
N928 C925 1.351 . S
N928 N929 1.365 . S
N929 C926 1.341 . S
N929 N928 1.365 . S
N929 H949 0.862 . S
C930 C925 1.501 . S
C930 H931 0.961 . S
C930 H932 0.961 . S
C930 H933 0.960 . S
H931 C930 0.961 . S
H932 C930 0.961 . S
H933 C930 0.960 . S
C934 N935 1.342 . S
C934 C938 1.401 . S
C934 C939 1.499 . S
N935 Co918 1.989 . S
N935 C934 1.342 . S
N935 N936 1.388 . S
N936 Co919 1.993 . S
N936 N935 1.388 . S
N936 C937 1.346 . S
C937 N936 1.346 . S
C937 C938 1.396 . S
C937 C947 1.510 . S
C938 C934 1.401 . S
C938 C937 1.396 . S
C939 C934 1.499 . S
C939 H940 0.959 . S
C939 H941 0.960 . S
C939 H942 0.961 . S
H940 C939 0.959 . S
H941 C939 0.960 . S
H942 C939 0.961 . S
O943 Co918 1.967 . S
O943 C951 1.258 . S
O944 Co919 1.941 . S
O944 C951 1.266 . S
H945 C947 0.959 . S
H946 C947 0.961 . S
C947 C937 1.510 . S
C947 H945 0.959 . S
C947 H946 0.961 . S
C947 H948 0.960 . S
H948 C947 0.960 . S
H949 N929 0.862 . S
O950 Co918 1.920 . S
O950 C923 1.289 . S
C951 O943 1.258 . S
C951 O944 1.266 . S
Co952 O955 1.970 . S
Co952 N969 1.989 . S
Co952 O977 1.967 . S
Co952 O984 1.920 . S
Co953 O956 1.966 . S
Co953 N962 2.022 . S
Co953 N970 1.993 . S
Co953 O978 1.941 . S
C954 O955 1.258 . S
C954 O956 1.263 . S
O955 Co952 1.970 . S
O955 C954 1.258 . S
O956 Co953 1.966 . S
O956 C954 1.263 . S
C957 O958 1.235 . S
C957 O984 1.289 . S
O958 C957 1.235 . S
C959 C961 1.400 . S
C959 N962 1.351 . S
C959 C964 1.501 . S
C960 C961 1.387 . S
C960 N963 1.341 . S
C961 C959 1.400 . S
C961 C960 1.387 . S
N962 Co953 2.022 . S
N962 C959 1.351 . S
N962 N963 1.365 . S
N963 C960 1.341 . S
N963 N962 1.365 . S
N963 H983 0.862 . S
C964 C959 1.501 . S
C964 H965 0.961 . S
C964 H966 0.961 . S
C964 H967 0.960 . S
H965 C964 0.961 . S
H966 C964 0.961 . S
H967 C964 0.960 . S
C968 N969 1.342 . S
C968 C972 1.401 . S
C968 C973 1.499 . S
N969 Co952 1.989 . S
N969 C968 1.342 . S
N969 N970 1.388 . S
N970 Co953 1.993 . S
N970 N969 1.388 . S
N970 C971 1.346 . S
C971 N970 1.346 . S
C971 C972 1.396 . S
C971 C981 1.510 . S
C972 C968 1.401 . S
C972 C971 1.396 . S
C973 C968 1.499 . S
C973 H974 0.959 . S
C973 H975 0.960 . S
C973 H976 0.961 . S
H974 C973 0.959 . S
H975 C973 0.960 . S
H976 C973 0.961 . S
O977 Co952 1.967 . S
O977 C985 1.258 . S
O978 Co953 1.941 . S
O978 C985 1.266 . S
H979 C981 0.959 . S
H980 C981 0.961 . S
C981 C971 1.510 . S
C981 H979 0.959 . S
C981 H980 0.961 . S
C981 H982 0.960 . S
H982 C981 0.960 . S
H983 N963 0.862 . S
O984 Co952 1.920 . S
O984 C957 1.289 . S
C985 O977 1.258 . S
C985 O978 1.266 . S
Co986 O989 1.970 . S
Co986 N1003 1.989 . S
Co986 O1011 1.967 . S
Co986 O1018 1.920 . S
Co987 O990 1.966 . S
Co987 N996 2.022 . S
Co987 N1004 1.993 . S
Co987 O1012 1.941 . S
C988 O989 1.258 . S
C988 O990 1.263 . S
O989 Co986 1.970 . S
O989 C988 1.258 . S
O990 Co987 1.966 . S
O990 C988 1.263 . S
C991 O992 1.235 . S
C991 O1018 1.289 . S
O992 C991 1.235 . S
C993 C995 1.400 . S
C993 N996 1.351 . S
C993 C998 1.501 . S
C994 C995 1.387 . S
C994 N997 1.341 . S
C995 C993 1.400 . S
C995 C994 1.387 . S
N996 Co987 2.022 . S
N996 C993 1.351 . S
N996 N997 1.365 . S
N997 C994 1.341 . S
N997 N996 1.365 . S
N997 H1017 0.862 . S
C998 C993 1.501 . S
C998 H999 0.961 . S
C998 H1000 0.961 . S
C998 H1001 0.960 . S
H999 C998 0.961 . S
H1000 C998 0.961 . S
H1001 C998 0.960 . S
C1002 N1003 1.342 . S
C1002 C1006 1.401 . S
C1002 C1007 1.499 . S
N1003 Co986 1.989 . S
N1003 C1002 1.342 . S
N1003 N1004 1.388 . S
N1004 Co987 1.993 . S
N1004 N1003 1.388 . S
N1004 C1005 1.346 . S
C1005 N1004 1.346 . S
C1005 C1006 1.396 . S
C1005 C1015 1.510 . S
C1006 C1002 1.401 . S
C1006 C1005 1.396 . S
C1007 C1002 1.499 . S
C1007 H1008 0.959 . S
C1007 H1009 0.960 . S
C1007 H1010 0.961 . S
H1008 C1007 0.959 . S
H1009 C1007 0.960 . S
H1010 C1007 0.961 . S
O1011 Co986 1.967 . S
O1011 C1019 1.258 . S
O1012 Co987 1.941 . S
O1012 C1019 1.266 . S
H1013 C1015 0.959 . S
H1014 C1015 0.961 . S
C1015 C1005 1.510 . S
C1015 H1013 0.959 . S
C1015 H1014 0.961 . S
C1015 H1016 0.960 . S
H1016 C1015 0.960 . S
H1017 N997 0.862 . S
O1018 Co986 1.920 . S
O1018 C991 1.289 . S
C1019 O1011 1.258 . S
C1019 O1012 1.266 . S
Co1020 O1023 1.970 . S
Co1020 N1037 1.989 . S
Co1020 O1045 1.967 . S
Co1020 O1052 1.920 . S
Co1021 O1024 1.966 . S
Co1021 N1030 2.022 . S
Co1021 N1038 1.993 . S
Co1021 O1046 1.941 . S
C1022 O1023 1.258 . S
C1022 O1024 1.263 1_554 S
O1023 Co1020 1.970 . S
O1023 C1022 1.258 . S
O1024 Co1021 1.966 . S
O1024 C1022 1.263 1_556 S
C1025 O1026 1.235 . S
C1025 O1052 1.289 . S
O1026 C1025 1.235 . S
C1027 C1029 1.400 . S
C1027 N1030 1.351 . S
C1027 C1032 1.501 . S
C1028 C1029 1.387 . S
C1028 N1031 1.341 . S
C1029 C1027 1.400 . S
C1029 C1028 1.387 . S
N1030 Co1021 2.022 . S
N1030 C1027 1.351 . S
N1030 N1031 1.365 . S
N1031 C1028 1.341 . S
N1031 N1030 1.365 . S
N1031 H1051 0.862 . S
C1032 C1027 1.501 . S
C1032 H1033 0.961 . S
C1032 H1034 0.961 . S
C1032 H1035 0.960 . S
H1033 C1032 0.961 . S
H1034 C1032 0.961 . S
H1035 C1032 0.960 . S
C1036 N1037 1.342 . S
C1036 C1040 1.401 1_554 S
C1036 C1041 1.499 . S
N1037 Co1020 1.989 . S
N1037 C1036 1.342 . S
N1037 N1038 1.388 1_554 S
N1038 Co1021 1.993 . S
N1038 N1037 1.388 1_556 S
N1038 C1039 1.346 . S
C1039 N1038 1.346 . S
C1039 C1040 1.396 . S
C1039 C1049 1.510 . S
C1040 C1036 1.401 1_556 S
C1040 C1039 1.396 . S
C1041 C1036 1.499 . S
C1041 H1042 0.959 . S
C1041 H1043 0.960 . S
C1041 H1044 0.961 . S
H1042 C1041 0.959 . S
H1043 C1041 0.960 . S
H1044 C1041 0.961 . S
O1045 Co1020 1.967 . S
O1045 C1053 1.258 . S
O1046 Co1021 1.941 . S
O1046 C1053 1.266 1_556 S
H1047 C1049 0.959 . S
H1048 C1049 0.961 . S
C1049 C1039 1.510 . S
C1049 H1047 0.959 . S
C1049 H1048 0.961 . S
C1049 H1050 0.960 . S
H1050 C1049 0.960 . S
H1051 N1031 0.862 . S
O1052 Co1020 1.920 . S
O1052 C1025 1.289 . S
C1053 O1045 1.258 . S
C1053 O1046 1.266 1_554 S
Co1054 O1057 1.970 . S
Co1054 N1071 1.989 . S
Co1054 O1079 1.967 . S
Co1054 O1086 1.920 . S
Co1055 O1058 1.966 . S
Co1055 N1064 2.022 . S
Co1055 N1072 1.993 . S
Co1055 O1080 1.941 . S
C1056 O1057 1.258 . S
C1056 O1058 1.263 . S
O1057 Co1054 1.970 . S
O1057 C1056 1.258 . S
O1058 Co1055 1.966 . S
O1058 C1056 1.263 . S
C1059 O1060 1.235 . S
C1059 O1086 1.289 . S
O1060 C1059 1.235 . S
C1061 C1063 1.400 . S
C1061 N1064 1.351 . S
C1061 C1066 1.501 . S
C1062 C1063 1.387 . S
C1062 N1065 1.341 . S
C1063 C1061 1.400 . S
C1063 C1062 1.387 . S
N1064 Co1055 2.022 . S
N1064 C1061 1.351 . S
N1064 N1065 1.365 . S
N1065 C1062 1.341 . S
N1065 N1064 1.365 . S
N1065 H1085 0.862 . S
C1066 C1061 1.501 . S
C1066 H1067 0.961 . S
C1066 H1068 0.961 . S
C1066 H1069 0.960 . S
H1067 C1066 0.961 . S
H1068 C1066 0.961 . S
H1069 C1066 0.960 . S
C1070 N1071 1.342 . S
C1070 C1074 1.401 . S
C1070 C1075 1.499 . S
N1071 Co1054 1.989 . S
N1071 C1070 1.342 . S
N1071 N1072 1.388 . S
N1072 Co1055 1.993 . S
N1072 N1071 1.388 . S
N1072 C1073 1.346 . S
C1073 N1072 1.346 . S
C1073 C1074 1.396 . S
C1073 C1083 1.510 . S
C1074 C1070 1.401 . S
C1074 C1073 1.396 . S
C1075 C1070 1.499 . S
C1075 H1076 0.959 . S
C1075 H1077 0.960 . S
C1075 H1078 0.961 . S
H1076 C1075 0.959 . S
H1077 C1075 0.960 . S
H1078 C1075 0.961 . S
O1079 Co1054 1.967 . S
O1079 C1087 1.258 . S
O1080 Co1055 1.941 . S
O1080 C1087 1.266 . S
H1081 C1083 0.959 . S
H1082 C1083 0.961 . S
C1083 C1073 1.510 . S
C1083 H1081 0.959 . S
C1083 H1082 0.961 . S
C1083 H1084 0.960 . S
H1084 C1083 0.960 . S
H1085 N1065 0.862 . S
O1086 Co1054 1.920 . S
O1086 C1059 1.289 . S
C1087 O1079 1.258 . S
C1087 O1080 1.266 . S
C1088 C1089 1.349 1_556 S
C1088 C1090 1.327 . S
C1088 H1113 0.950 . S
C1089 C1088 1.349 1_554 S
C1089 C1105 1.349 . S
C1090 C1088 1.327 . S
C1090 C1109 1.429 1_556 S
C1090 H1114 0.950 . S
C1091 C1108 1.574 . S
C1091 C1110 1.368 . S
C1091 H1115 0.949 . S
H1092 C1096 0.949 . S
C1093 C1094 1.349 . S
C1093 C1095 1.327 . S
C1093 H1116 0.950 . S
C1094 C1093 1.349 . S
C1094 C1106 1.349 1_554 S
C1095 C1093 1.327 . S
C1095 C1111 1.429 . S
C1095 H1117 0.950 . S
C1096 H1092 0.949 . S
C1096 C1104 1.574 . S
C1096 C1112 1.368 1_556 S
H1097 C1105 0.950 . S
H1098 C1103 0.950 . S
H1099 C1104 0.949 . S
H1100 C1106 0.950 . S
H1101 C1107 0.950 . S
H1102 C1108 0.949 . S
C1103 H1098 0.950 . S
C1103 C1105 1.327 . S
C1103 C1109 1.429 . S
C1104 C1096 1.574 . S
C1104 H1099 0.949 . S
C1104 C1110 1.368 1_556 S
C1105 C1089 1.349 . S
C1105 H1097 0.950 . S
C1105 C1103 1.327 . S
C1106 C1094 1.349 1_556 S
C1106 H1100 0.950 . S
C1106 C1107 1.327 . S
C1107 H1101 0.950 . S
C1107 C1106 1.327 . S
C1107 C1111 1.429 1_556 S
C1108 C1091 1.574 . S
C1108 H1102 0.949 . S
C1108 C1112 1.368 . S
C1109 C1090 1.429 1_554 S
C1109 C1103 1.429 . S
C1109 C1110 1.523 . S
C1110 C1091 1.368 . S
C1110 C1104 1.368 1_554 S
C1110 C1109 1.523 . S
C1111 C1095 1.429 . S
C1111 C1107 1.429 1_554 S
C1111 C1112 1.523 . S
C1112 C1096 1.368 1_554 S
C1112 C1108 1.368 . S
C1112 C1111 1.523 . S
H1113 C1088 0.950 . S
H1114 C1090 0.950 . S
H1115 C1091 0.949 . S
H1116 C1093 0.950 . S
H1117 C1095 0.950 . S
C1118 C1119 1.349 . S
C1118 C1120 1.327 . S
C1118 H1143 0.950 . S
C1119 C1118 1.349 . S
C1119 C1135 1.349 . S
C1120 C1118 1.327 . S
C1120 C1139 1.429 . S
C1120 H1144 0.950 . S
C1121 C1138 1.574 1_455 S
C1121 C1140 1.368 . S
C1121 H1145 0.949 . S
H1122 C1126 0.949 . S
C1123 C1124 1.349 . S
C1123 C1125 1.327 . S
C1123 H1146 0.950 . S
C1124 C1123 1.349 . S
C1124 C1136 1.349 . S
C1125 C1123 1.327 . S
C1125 C1141 1.429 . S
C1125 H1147 0.950 . S
C1126 H1122 0.949 . S
C1126 C1134 1.574 1_655 S
C1126 C1142 1.368 . S
H1127 C1135 0.950 . S
H1128 C1133 0.950 . S
H1129 C1134 0.949 . S
H1130 C1136 0.950 . S
H1131 C1137 0.950 . S
H1132 C1138 0.949 . S
C1133 H1128 0.950 . S
C1133 C1135 1.327 . S
C1133 C1139 1.429 . S
C1134 C1126 1.574 1_455 S
C1134 H1129 0.949 . S
C1134 C1140 1.368 . S
C1135 C1119 1.349 . S
C1135 H1127 0.950 . S
C1135 C1133 1.327 . S
C1136 C1124 1.349 . S
C1136 H1130 0.950 . S
C1136 C1137 1.327 . S
C1137 H1131 0.950 . S
C1137 C1136 1.327 . S
C1137 C1141 1.429 . S
C1138 C1121 1.574 1_655 S
C1138 H1132 0.949 . S
C1138 C1142 1.368 . S
C1139 C1120 1.429 . S
C1139 C1133 1.429 . S
C1139 C1140 1.523 . S
C1140 C1121 1.368 . S
C1140 C1134 1.368 . S
C1140 C1139 1.523 . S
C1141 C1125 1.429 . S
C1141 C1137 1.429 . S
C1141 C1142 1.523 . S
C1142 C1126 1.368 . S
C1142 C1138 1.368 . S
C1142 C1141 1.523 . S
H1143 C1118 0.950 . S
H1144 C1120 0.950 . S
H1145 C1121 0.949 . S
H1146 C1123 0.950 . S
H1147 C1125 0.950 . S
C1148 C1149 1.349 . S
C1148 C1150 1.327 . S
C1148 H1173 0.950 . S
C1149 C1148 1.349 . S
C1149 C1165 1.349 . S
C1150 C1148 1.327 . S
C1150 C1169 1.429 . S
C1150 H1174 0.950 . S
C1151 C1168 1.574 . S
C1151 C1170 1.368 . S
C1151 H1175 0.949 . S
H1152 C1156 0.949 . S
C1153 C1154 1.349 . S
C1153 C1155 1.327 . S
C1153 H1176 0.950 . S
C1154 C1153 1.349 . S
C1154 C1166 1.349 . S
C1155 C1153 1.327 . S
C1155 C1171 1.429 . S
C1155 H1177 0.950 . S
C1156 H1152 0.949 . S
C1156 C1164 1.574 . S
C1156 C1172 1.368 . S
H1157 C1165 0.950 . S
H1158 C1163 0.950 . S
H1159 C1164 0.949 . S
H1160 C1166 0.950 . S
H1161 C1167 0.950 . S
H1162 C1168 0.949 . S
C1163 H1158 0.950 . S
C1163 C1165 1.327 . S
C1163 C1169 1.429 . S
C1164 C1156 1.574 . S
C1164 H1159 0.949 . S
C1164 C1170 1.368 . S
C1165 C1149 1.349 . S
C1165 H1157 0.950 . S
C1165 C1163 1.327 . S
C1166 C1154 1.349 . S
C1166 H1160 0.950 . S
C1166 C1167 1.327 . S
C1167 H1161 0.950 . S
C1167 C1166 1.327 . S
C1167 C1171 1.429 . S
C1168 C1151 1.574 . S
C1168 H1162 0.949 . S
C1168 C1172 1.368 . S
C1169 C1150 1.429 . S
C1169 C1163 1.429 . S
C1169 C1170 1.523 . S
C1170 C1151 1.368 . S
C1170 C1164 1.368 . S
C1170 C1169 1.523 . S
C1171 C1155 1.429 . S
C1171 C1167 1.429 . S
C1171 C1172 1.523 . S
C1172 C1156 1.368 . S
C1172 C1168 1.368 . S
C1172 C1171 1.523 . S
H1173 C1148 0.950 . S
H1174 C1150 0.950 . S
H1175 C1151 0.949 . S
H1176 C1153 0.950 . S
H1177 C1155 0.950 . S
C1178 C1179 1.349 . S
C1178 C1180 1.327 . S
C1178 H1203 0.950 . S
C1179 C1178 1.349 . S
C1179 C1195 1.349 . S
C1180 C1178 1.327 . S
C1180 C1199 1.429 . S
C1180 H1204 0.950 . S
C1181 C1198 1.574 . S
C1181 C1200 1.368 . S
C1181 H1205 0.949 . S
H1182 C1186 0.949 . S
C1183 C1184 1.349 . S
C1183 C1185 1.327 . S
C1183 H1206 0.950 . S
C1184 C1183 1.349 . S
C1184 C1196 1.349 . S
C1185 C1183 1.327 . S
C1185 C1201 1.429 . S
C1185 H1207 0.950 . S
C1186 H1182 0.949 . S
C1186 C1194 1.574 . S
C1186 C1202 1.368 . S
H1187 C1195 0.950 . S
H1188 C1193 0.950 . S
H1189 C1194 0.949 . S
H1190 C1196 0.950 . S
H1191 C1197 0.950 . S
H1192 C1198 0.949 . S
C1193 H1188 0.950 . S
C1193 C1195 1.327 . S
C1193 C1199 1.429 . S
C1194 C1186 1.574 . S
C1194 H1189 0.949 . S
C1194 C1200 1.368 . S
C1195 C1179 1.349 . S
C1195 H1187 0.950 . S
C1195 C1193 1.327 . S
C1196 C1184 1.349 . S
C1196 H1190 0.950 . S
C1196 C1197 1.327 . S
C1197 H1191 0.950 . S
C1197 C1196 1.327 . S
C1197 C1201 1.429 . S
C1198 C1181 1.574 . S
C1198 H1192 0.949 . S
C1198 C1202 1.368 . S
C1199 C1180 1.429 . S
C1199 C1193 1.429 . S
C1199 C1200 1.523 . S
C1200 C1181 1.368 . S
C1200 C1194 1.368 . S
C1200 C1199 1.523 . S
C1201 C1185 1.429 . S
C1201 C1197 1.429 . S
C1201 C1202 1.523 . S
C1202 C1186 1.368 . S
C1202 C1198 1.368 . S
C1202 C1201 1.523 . S
H1203 C1178 0.950 . S
H1204 C1180 0.950 . S
H1205 C1181 0.949 . S
H1206 C1183 0.950 . S
H1207 C1185 0.950 . S
C1208 C1209 1.349 1_554 S
C1208 C1210 1.327 . S
C1208 H1233 0.950 . S
C1209 C1208 1.349 1_556 S
C1209 C1225 1.349 . S
C1210 C1208 1.327 . S
C1210 C1229 1.429 1_554 S
C1210 H1234 0.950 . S
C1211 C1228 1.574 . S
C1211 C1230 1.368 . S
C1211 H1235 0.949 . S
H1212 C1216 0.949 . S
C1213 C1214 1.349 . S
C1213 C1215 1.327 . S
C1213 H1236 0.950 . S
C1214 C1213 1.349 . S
C1214 C1226 1.349 1_556 S
C1215 C1213 1.327 . S
C1215 C1231 1.429 . S
C1215 H1237 0.950 . S
C1216 H1212 0.949 . S
C1216 C1224 1.574 . S
C1216 C1232 1.368 1_554 S
H1217 C1225 0.950 . S
H1218 C1223 0.950 . S
H1219 C1224 0.949 . S
H1220 C1226 0.950 . S
H1221 C1227 0.950 . S
H1222 C1228 0.949 . S
C1223 H1218 0.950 . S
C1223 C1225 1.327 . S
C1223 C1229 1.429 . S
C1224 C1216 1.574 . S
C1224 H1219 0.949 . S
C1224 C1230 1.368 1_554 S
C1225 C1209 1.349 . S
C1225 H1217 0.950 . S
C1225 C1223 1.327 . S
C1226 C1214 1.349 1_554 S
C1226 H1220 0.950 . S
C1226 C1227 1.327 . S
C1227 H1221 0.950 . S
C1227 C1226 1.327 . S
C1227 C1231 1.429 1_554 S
C1228 C1211 1.574 . S
C1228 H1222 0.949 . S
C1228 C1232 1.368 . S
C1229 C1210 1.429 1_556 S
C1229 C1223 1.429 . S
C1229 C1230 1.523 . S
C1230 C1211 1.368 . S
C1230 C1224 1.368 1_556 S
C1230 C1229 1.523 . S
C1231 C1215 1.429 . S
C1231 C1227 1.429 1_556 S
C1231 C1232 1.523 . S
C1232 C1216 1.368 1_556 S
C1232 C1228 1.368 . S
C1232 C1231 1.523 . S
H1233 C1208 0.950 . S
H1234 C1210 0.950 . S
H1235 C1211 0.949 . S
H1236 C1213 0.950 . S
H1237 C1215 0.950 . S
C1238 C1239 1.349 . S
C1238 C1240 1.327 . S
C1238 H1263 0.950 . S
C1239 C1238 1.349 . S
C1239 C1255 1.349 . S
C1240 C1238 1.327 . S
C1240 C1259 1.429 . S
C1240 H1264 0.950 . S
C1241 C1258 1.574 . S
C1241 C1260 1.368 . S
C1241 H1265 0.949 . S
H1242 C1246 0.949 . S
C1243 C1244 1.349 . S
C1243 C1245 1.327 . S
C1243 H1266 0.950 . S
C1244 C1243 1.349 . S
C1244 C1256 1.349 . S
C1245 C1243 1.327 . S
C1245 C1261 1.429 . S
C1245 H1267 0.950 . S
C1246 H1242 0.949 . S
C1246 C1254 1.574 . S
C1246 C1262 1.368 . S
H1247 C1255 0.950 . S
H1248 C1253 0.950 . S
H1249 C1254 0.949 . S
H1250 C1256 0.950 . S
H1251 C1257 0.950 . S
H1252 C1258 0.949 . S
C1253 H1248 0.950 . S
C1253 C1255 1.327 . S
C1253 C1259 1.429 . S
C1254 C1246 1.574 . S
C1254 H1249 0.949 . S
C1254 C1260 1.368 . S
C1255 C1239 1.349 . S
C1255 H1247 0.950 . S
C1255 C1253 1.327 . S
C1256 C1244 1.349 . S
C1256 H1250 0.950 . S
C1256 C1257 1.327 . S
C1257 H1251 0.950 . S
C1257 C1256 1.327 . S
C1257 C1261 1.429 . S
C1258 C1241 1.574 . S
C1258 H1252 0.949 . S
C1258 C1262 1.368 . S
C1259 C1240 1.429 . S
C1259 C1253 1.429 . S
C1259 C1260 1.523 . S
C1260 C1241 1.368 . S
C1260 C1254 1.368 . S
C1260 C1259 1.523 . S
C1261 C1245 1.429 . S
C1261 C1257 1.429 . S
C1261 C1262 1.523 . S
C1262 C1246 1.368 . S
C1262 C1258 1.368 . S
C1262 C1261 1.523 . S
H1263 C1238 0.950 . S
H1264 C1240 0.950 . S
H1265 C1241 0.949 . S
H1266 C1243 0.950 . S
H1267 C1245 0.950 . S
C1268 C1269 1.349 . S
C1268 C1270 1.327 . S
C1268 H1293 0.950 . S
C1269 C1268 1.349 . S
C1269 C1285 1.349 . S
C1270 C1268 1.327 . S
C1270 C1289 1.429 . S
C1270 H1294 0.950 . S
C1271 C1288 1.574 . S
C1271 C1290 1.368 . S
C1271 H1295 0.949 . S
H1272 C1276 0.949 . S
C1273 C1274 1.349 . S
C1273 C1275 1.327 . S
C1273 H1296 0.950 . S
C1274 C1273 1.349 . S
C1274 C1286 1.349 . S
C1275 C1273 1.327 . S
C1275 C1291 1.429 . S
C1275 H1297 0.950 . S
C1276 H1272 0.949 . S
C1276 C1284 1.574 . S
C1276 C1292 1.368 . S
H1277 C1285 0.950 . S
H1278 C1283 0.950 . S
H1279 C1284 0.949 . S
H1280 C1286 0.950 . S
H1281 C1287 0.950 . S
H1282 C1288 0.949 . S
C1283 H1278 0.950 . S
C1283 C1285 1.327 . S
C1283 C1289 1.429 . S
C1284 C1276 1.574 . S
C1284 H1279 0.949 . S
C1284 C1290 1.368 . S
C1285 C1269 1.349 . S
C1285 H1277 0.950 . S
C1285 C1283 1.327 . S
C1286 C1274 1.349 . S
C1286 H1280 0.950 . S
C1286 C1287 1.327 . S
C1287 H1281 0.950 . S
C1287 C1286 1.327 . S
C1287 C1291 1.429 . S
C1288 C1271 1.574 . S
C1288 H1282 0.949 . S
C1288 C1292 1.368 . S
C1289 C1270 1.429 . S
C1289 C1283 1.429 . S
C1289 C1290 1.523 . S
C1290 C1271 1.368 . S
C1290 C1284 1.368 . S
C1290 C1289 1.523 . S
C1291 C1275 1.429 . S
C1291 C1287 1.429 . S
C1291 C1292 1.523 . S
C1292 C1276 1.368 . S
C1292 C1288 1.368 . S
C1292 C1291 1.523 . S
H1293 C1268 0.950 . S
H1294 C1270 0.950 . S
H1295 C1271 0.949 . S
H1296 C1273 0.950 . S
H1297 C1275 0.950 . S
C1298 C1299 1.349 . S
C1298 C1300 1.327 . S
C1298 H1323 0.950 . S
C1299 C1298 1.349 . S
C1299 C1315 1.349 . S
C1300 C1298 1.327 . S
C1300 C1319 1.429 . S
C1300 H1324 0.950 . S
C1301 C1318 1.574 1_655 S
C1301 C1320 1.368 . S
C1301 H1325 0.949 . S
H1302 C1306 0.949 . S
C1303 C1304 1.349 . S
C1303 C1305 1.327 . S
C1303 H1326 0.950 . S
C1304 C1303 1.349 . S
C1304 C1316 1.349 . S
C1305 C1303 1.327 . S
C1305 C1321 1.429 . S
C1305 H1327 0.950 . S
C1306 H1302 0.949 . S
C1306 C1314 1.574 1_455 S
C1306 C1322 1.368 . S
H1307 C1315 0.950 . S
H1308 C1313 0.950 . S
H1309 C1314 0.949 . S
H1310 C1316 0.950 . S
H1311 C1317 0.950 . S
H1312 C1318 0.949 . S
C1313 H1308 0.950 . S
C1313 C1315 1.327 . S
C1313 C1319 1.429 . S
C1314 C1306 1.574 1_655 S
C1314 H1309 0.949 . S
C1314 C1320 1.368 . S
C1315 C1299 1.349 . S
C1315 H1307 0.950 . S
C1315 C1313 1.327 . S
C1316 C1304 1.349 . S
C1316 H1310 0.950 . S
C1316 C1317 1.327 . S
C1317 H1311 0.950 . S
C1317 C1316 1.327 . S
C1317 C1321 1.429 . S
C1318 C1301 1.574 1_455 S
C1318 H1312 0.949 . S
C1318 C1322 1.368 . S
C1319 C1300 1.429 . S
C1319 C1313 1.429 . S
C1319 C1320 1.523 . S
C1320 C1301 1.368 . S
C1320 C1314 1.368 . S
C1320 C1319 1.523 . S
C1321 C1305 1.429 . S
C1321 C1317 1.429 . S
C1321 C1322 1.523 . S
C1322 C1306 1.368 . S
C1322 C1318 1.368 . S
C1322 C1321 1.523 . S
H1323 C1298 0.950 . S
H1324 C1300 0.950 . S
H1325 C1301 0.949 . S
H1326 C1303 0.950 . S
H1327 C1305 0.950 . S
C1328 C1329 1.349 . S
C1328 C1330 1.327 . S
C1328 H1353 0.950 . S
C1329 C1328 1.349 . S
C1329 C1345 1.349 1_556 S
C1330 C1328 1.327 . S
C1330 C1349 1.429 . S
C1330 H1354 0.950 . S
C1331 C1348 1.574 . S
C1331 C1350 1.368 1_554 S
C1331 H1355 0.949 . S
H1332 C1336 0.949 . S
C1333 C1334 1.349 1_554 S
C1333 C1335 1.327 . S
C1333 H1356 0.950 . S
C1334 C1333 1.349 1_556 S
C1334 C1346 1.349 . S
C1335 C1333 1.327 . S
C1335 C1351 1.429 1_554 S
C1335 H1357 0.950 . S
C1336 H1332 0.949 . S
C1336 C1344 1.574 . S
C1336 C1352 1.368 . S
H1337 C1345 0.950 . S
H1338 C1343 0.950 . S
H1339 C1344 0.949 . S
H1340 C1346 0.950 . S
H1341 C1347 0.950 . S
H1342 C1348 0.949 . S
C1343 H1338 0.950 . S
C1343 C1345 1.327 . S
C1343 C1349 1.429 1_554 S
C1344 C1336 1.574 . S
C1344 H1339 0.949 . S
C1344 C1350 1.368 . S
C1345 C1329 1.349 1_554 S
C1345 H1337 0.950 . S
C1345 C1343 1.327 . S
C1346 C1334 1.349 . S
C1346 H1340 0.950 . S
C1346 C1347 1.327 . S
C1347 H1341 0.950 . S
C1347 C1346 1.327 . S
C1347 C1351 1.429 . S
C1348 C1331 1.574 . S
C1348 H1342 0.949 . S
C1348 C1352 1.368 1_554 S
C1349 C1330 1.429 . S
C1349 C1343 1.429 1_556 S
C1349 C1350 1.523 . S
C1350 C1331 1.368 1_556 S
C1350 C1344 1.368 . S
C1350 C1349 1.523 . S
C1351 C1335 1.429 1_556 S
C1351 C1347 1.429 . S
C1351 C1352 1.523 . S
C1352 C1336 1.368 . S
C1352 C1348 1.368 1_556 S
C1352 C1351 1.523 . S
H1353 C1328 0.950 . S
H1354 C1330 0.950 . S
H1355 C1331 0.949 . S
H1356 C1333 0.950 . S
H1357 C1335 0.950 . S
C1358 C1359 1.349 . S
C1358 C1360 1.327 . S
C1358 H1383 0.950 . S
C1359 C1358 1.349 . S
C1359 C1375 1.349 . S
C1360 C1358 1.327 . S
C1360 C1379 1.429 . S
C1360 H1384 0.950 . S
C1361 C1378 1.574 . S
C1361 C1380 1.368 . S
C1361 H1385 0.949 . S
H1362 C1366 0.949 . S
C1363 C1364 1.349 . S
C1363 C1365 1.327 . S
C1363 H1386 0.950 . S
C1364 C1363 1.349 . S
C1364 C1376 1.349 . S
C1365 C1363 1.327 . S
C1365 C1381 1.429 . S
C1365 H1387 0.950 . S
C1366 H1362 0.949 . S
C1366 C1374 1.574 . S
C1366 C1382 1.368 . S
H1367 C1375 0.950 . S
H1368 C1373 0.950 . S
H1369 C1374 0.949 . S
H1370 C1376 0.950 . S
H1371 C1377 0.950 . S
H1372 C1378 0.949 . S
C1373 H1368 0.950 . S
C1373 C1375 1.327 . S
C1373 C1379 1.429 . S
C1374 C1366 1.574 . S
C1374 H1369 0.949 . S
C1374 C1380 1.368 . S
C1375 C1359 1.349 . S
C1375 H1367 0.950 . S
C1375 C1373 1.327 . S
C1376 C1364 1.349 . S
C1376 H1370 0.950 . S
C1376 C1377 1.327 . S
C1377 H1371 0.950 . S
C1377 C1376 1.327 . S
C1377 C1381 1.429 . S
C1378 C1361 1.574 . S
C1378 H1372 0.949 . S
C1378 C1382 1.368 . S
C1379 C1360 1.429 . S
C1379 C1373 1.429 . S
C1379 C1380 1.523 . S
C1380 C1361 1.368 . S
C1380 C1374 1.368 . S
C1380 C1379 1.523 . S
C1381 C1365 1.429 . S
C1381 C1377 1.429 . S
C1381 C1382 1.523 . S
C1382 C1366 1.368 . S
C1382 C1378 1.368 . S
C1382 C1381 1.523 . S
H1383 C1358 0.950 . S
H1384 C1360 0.950 . S
H1385 C1361 0.949 . S
H1386 C1363 0.950 . S
H1387 C1365 0.950 . S
C1388 C1389 1.349 . S
C1388 C1390 1.327 . S
C1388 H1413 0.950 . S
C1389 C1388 1.349 . S
C1389 C1405 1.349 1_554 S
C1390 C1388 1.327 . S
C1390 C1409 1.429 . S
C1390 H1414 0.950 . S
C1391 C1408 1.574 . S
C1391 C1410 1.368 1_556 S
C1391 H1415 0.949 . S
H1392 C1396 0.949 . S
C1393 C1394 1.349 1_556 S
C1393 C1395 1.327 . S
C1393 H1416 0.950 . S
C1394 C1393 1.349 1_554 S
C1394 C1406 1.349 . S
C1395 C1393 1.327 . S
C1395 C1411 1.429 1_556 S
C1395 H1417 0.950 . S
C1396 H1392 0.949 . S
C1396 C1404 1.574 . S
C1396 C1412 1.368 . S
H1397 C1405 0.950 . S
H1398 C1403 0.950 . S
H1399 C1404 0.949 . S
H1400 C1406 0.950 . S
H1401 C1407 0.950 . S
H1402 C1408 0.949 . S
C1403 H1398 0.950 . S
C1403 C1405 1.327 . S
C1403 C1409 1.429 1_556 S
C1404 C1396 1.574 . S
C1404 H1399 0.949 . S
C1404 C1410 1.368 . S
C1405 C1389 1.349 1_556 S
C1405 H1397 0.950 . S
C1405 C1403 1.327 . S
C1406 C1394 1.349 . S
C1406 H1400 0.950 . S
C1406 C1407 1.327 . S
C1407 H1401 0.950 . S
C1407 C1406 1.327 . S
C1407 C1411 1.429 . S
C1408 C1391 1.574 . S
C1408 H1402 0.949 . S
C1408 C1412 1.368 1_556 S
C1409 C1390 1.429 . S
C1409 C1403 1.429 1_554 S
C1409 C1410 1.523 . S
C1410 C1391 1.368 1_554 S
C1410 C1404 1.368 . S
C1410 C1409 1.523 . S
C1411 C1395 1.429 1_554 S
C1411 C1407 1.429 . S
C1411 C1412 1.523 . S
C1412 C1396 1.368 . S
C1412 C1408 1.368 1_554 S
C1412 C1411 1.523 . S
H1413 C1388 0.950 . S
H1414 C1390 0.950 . S
H1415 C1391 0.949 . S
H1416 C1393 0.950 . S
H1417 C1395 0.950 . S
C1418 C1419 1.349 . S
C1418 C1420 1.327 . S
C1418 H1443 0.950 . S
C1419 C1418 1.349 . S
C1419 C1435 1.349 . S
C1420 C1418 1.327 . S
C1420 C1439 1.429 . S
C1420 H1444 0.950 . S
C1421 C1438 1.574 . S
C1421 C1440 1.368 . S
C1421 H1445 0.949 . S
H1422 C1426 0.949 . S
C1423 C1424 1.349 . S
C1423 C1425 1.327 . S
C1423 H1446 0.950 . S
C1424 C1423 1.349 . S
C1424 C1436 1.349 . S
C1425 C1423 1.327 . S
C1425 C1441 1.429 . S
C1425 H1447 0.950 . S
C1426 H1422 0.949 . S
C1426 C1434 1.574 . S
C1426 C1442 1.368 . S
H1427 C1435 0.950 . S
H1428 C1433 0.950 . S
H1429 C1434 0.949 . S
H1430 C1436 0.950 . S
H1431 C1437 0.950 . S
H1432 C1438 0.949 . S
C1433 H1428 0.950 . S
C1433 C1435 1.327 . S
C1433 C1439 1.429 . S
C1434 C1426 1.574 . S
C1434 H1429 0.949 . S
C1434 C1440 1.368 . S
C1435 C1419 1.349 . S
C1435 H1427 0.950 . S
C1435 C1433 1.327 . S
C1436 C1424 1.349 . S
C1436 H1430 0.950 . S
C1436 C1437 1.327 . S
C1437 H1431 0.950 . S
C1437 C1436 1.327 . S
C1437 C1441 1.429 . S
C1438 C1421 1.574 . S
C1438 H1432 0.949 . S
C1438 C1442 1.368 . S
C1439 C1420 1.429 . S
C1439 C1433 1.429 . S
C1439 C1440 1.523 . S
C1440 C1421 1.368 . S
C1440 C1434 1.368 . S
C1440 C1439 1.523 . S
C1441 C1425 1.429 . S
C1441 C1437 1.429 . S
C1441 C1442 1.523 . S
C1442 C1426 1.368 . S
C1442 C1438 1.368 . S
C1442 C1441 1.523 . S
H1443 C1418 0.950 . S
H1444 C1420 0.950 . S
H1445 C1421 0.949 . S
H1446 C1423 0.950 . S
H1447 C1425 0.950 . S
C1448 C1449 1.349 . S
C1448 C1450 1.327 . S
C1448 H1473 0.950 . S
C1449 C1448 1.349 . S
C1449 C1465 1.349 . S
C1450 C1448 1.327 . S
C1450 C1469 1.429 . S
C1450 H1474 0.950 . S
C1451 C1468 1.574 . S
C1451 C1470 1.368 . S
C1451 H1475 0.949 . S
H1452 C1456 0.949 . S
C1453 C1454 1.349 . S
C1453 C1455 1.327 . S
C1453 H1476 0.950 . S
C1454 C1453 1.349 . S
C1454 C1466 1.349 . S
C1455 C1453 1.327 . S
C1455 C1471 1.429 . S
C1455 H1477 0.950 . S
C1456 H1452 0.949 . S
C1456 C1464 1.574 . S
C1456 C1472 1.368 . S
H1457 C1465 0.950 . S
H1458 C1463 0.950 . S
H1459 C1464 0.949 . S
H1460 C1466 0.950 . S
H1461 C1467 0.950 . S
H1462 C1468 0.949 . S
C1463 H1458 0.950 . S
C1463 C1465 1.327 . S
C1463 C1469 1.429 . S
C1464 C1456 1.574 . S
C1464 H1459 0.949 . S
C1464 C1470 1.368 . S
C1465 C1449 1.349 . S
C1465 H1457 0.950 . S
C1465 C1463 1.327 . S
C1466 C1454 1.349 . S
C1466 H1460 0.950 . S
C1466 C1467 1.327 . S
C1467 H1461 0.950 . S
C1467 C1466 1.327 . S
C1467 C1471 1.429 . S
C1468 C1451 1.574 . S
C1468 H1462 0.949 . S
C1468 C1472 1.368 . S
C1469 C1450 1.429 . S
C1469 C1463 1.429 . S
C1469 C1470 1.523 . S
C1470 C1451 1.368 . S
C1470 C1464 1.368 . S
C1470 C1469 1.523 . S
C1471 C1455 1.429 . S
C1471 C1467 1.429 . S
C1471 C1472 1.523 . S
C1472 C1456 1.368 . S
C1472 C1468 1.368 . S
C1472 C1471 1.523 . S
H1473 C1448 0.950 . S
H1474 C1450 0.950 . S
H1475 C1451 0.949 . S
H1476 C1453 0.950 . S
H1477 C1455 0.950 . S
C1478 C1479 1.349 . S
C1478 C1480 1.327 . S
C1478 H1503 0.950 . S
C1479 C1478 1.349 . S
C1479 C1495 1.349 . S
C1480 C1478 1.327 . S
C1480 C1499 1.429 . S
C1480 H1504 0.950 . S
C1481 C1498 1.574 1_455 S
C1481 C1500 1.368 . S
C1481 H1505 0.949 . S
H1482 C1486 0.949 . S
C1483 C1484 1.349 . S
C1483 C1485 1.327 . S
C1483 H1506 0.950 . S
C1484 C1483 1.349 . S
C1484 C1496 1.349 . S
C1485 C1483 1.327 . S
C1485 C1501 1.429 . S
C1485 H1507 0.950 . S
C1486 H1482 0.949 . S
C1486 C1494 1.574 1_655 S
C1486 C1502 1.368 . S
H1487 C1495 0.950 . S
H1488 C1493 0.950 . S
H1489 C1494 0.949 . S
H1490 C1496 0.950 . S
H1491 C1497 0.950 . S
H1492 C1498 0.949 . S
C1493 H1488 0.950 . S
C1493 C1495 1.327 . S
C1493 C1499 1.429 . S
C1494 C1486 1.574 1_455 S
C1494 H1489 0.949 . S
C1494 C1500 1.368 . S
C1495 C1479 1.349 . S
C1495 H1487 0.950 . S
C1495 C1493 1.327 . S
C1496 C1484 1.349 . S
C1496 H1490 0.950 . S
C1496 C1497 1.327 . S
C1497 H1491 0.950 . S
C1497 C1496 1.327 . S
C1497 C1501 1.429 . S
C1498 C1481 1.574 1_655 S
C1498 H1492 0.949 . S
C1498 C1502 1.368 . S
C1499 C1480 1.429 . S
C1499 C1493 1.429 . S
C1499 C1500 1.523 . S
C1500 C1481 1.368 . S
C1500 C1494 1.368 . S
C1500 C1499 1.523 . S
C1501 C1485 1.429 . S
C1501 C1497 1.429 . S
C1501 C1502 1.523 . S
C1502 C1486 1.368 . S
C1502 C1498 1.368 . S
C1502 C1501 1.523 . S
H1503 C1478 0.950 . S
H1504 C1480 0.950 . S
H1505 C1481 0.949 . S
H1506 C1483 0.950 . S
H1507 C1485 0.950 . S
C1508 C1509 1.349 . S
C1508 C1510 1.327 . S
C1508 H1533 0.950 . S
C1509 C1508 1.349 . S
C1509 C1525 1.349 . S
C1510 C1508 1.327 . S
C1510 C1529 1.429 . S
C1510 H1534 0.950 . S
C1511 C1528 1.574 1_455 S
C1511 C1530 1.368 . S
C1511 H1535 0.949 . S
H1512 C1516 0.949 . S
C1513 C1514 1.349 . S
C1513 C1515 1.327 . S
C1513 H1536 0.950 . S
C1514 C1513 1.349 . S
C1514 C1526 1.349 . S
C1515 C1513 1.327 . S
C1515 C1531 1.429 . S
C1515 H1537 0.950 . S
C1516 H1512 0.949 . S
C1516 C1524 1.574 1_655 S
C1516 C1532 1.368 . S
H1517 C1525 0.950 . S
H1518 C1523 0.950 . S
H1519 C1524 0.949 . S
H1520 C1526 0.950 . S
H1521 C1527 0.950 . S
H1522 C1528 0.949 . S
C1523 H1518 0.950 . S
C1523 C1525 1.327 . S
C1523 C1529 1.429 . S
C1524 C1516 1.574 1_455 S
C1524 H1519 0.949 . S
C1524 C1530 1.368 . S
C1525 C1509 1.349 . S
C1525 H1517 0.950 . S
C1525 C1523 1.327 . S
C1526 C1514 1.349 . S
C1526 H1520 0.950 . S
C1526 C1527 1.327 . S
C1527 H1521 0.950 . S
C1527 C1526 1.327 . S
C1527 C1531 1.429 . S
C1528 C1511 1.574 1_655 S
C1528 H1522 0.949 . S
C1528 C1532 1.368 . S
C1529 C1510 1.429 . S
C1529 C1523 1.429 . S
C1529 C1530 1.523 . S
C1530 C1511 1.368 . S
C1530 C1524 1.368 . S
C1530 C1529 1.523 . S
C1531 C1515 1.429 . S
C1531 C1527 1.429 . S
C1531 C1532 1.523 . S
C1532 C1516 1.368 . S
C1532 C1528 1.368 . S
C1532 C1531 1.523 . S
H1533 C1508 0.950 . S
H1534 C1510 0.950 . S
H1535 C1511 0.949 . S
H1536 C1513 0.950 . S
H1537 C1515 0.950 . S
C1538 C1539 1.349 . S
C1538 C1540 1.327 . S
C1538 H1563 0.950 . S
C1539 C1538 1.349 . S
C1539 C1555 1.349 . S
C1540 C1538 1.327 . S
C1540 C1559 1.429 . S
C1540 H1564 0.950 . S
C1541 C1558 1.574 . S
C1541 C1560 1.368 . S
C1541 H1565 0.949 . S
H1542 C1546 0.949 . S
C1543 C1544 1.349 . S
C1543 C1545 1.327 . S
C1543 H1566 0.950 . S
C1544 C1543 1.349 . S
C1544 C1556 1.349 . S
C1545 C1543 1.327 . S
C1545 C1561 1.429 . S
C1545 H1567 0.950 . S
C1546 H1542 0.949 . S
C1546 C1554 1.574 . S
C1546 C1562 1.368 . S
H1547 C1555 0.950 . S
H1548 C1553 0.950 . S
H1549 C1554 0.949 . S
H1550 C1556 0.950 . S
H1551 C1557 0.950 . S
H1552 C1558 0.949 . S
C1553 H1548 0.950 . S
C1553 C1555 1.327 . S
C1553 C1559 1.429 . S
C1554 C1546 1.574 . S
C1554 H1549 0.949 . S
C1554 C1560 1.368 . S
C1555 C1539 1.349 . S
C1555 H1547 0.950 . S
C1555 C1553 1.327 . S
C1556 C1544 1.349 . S
C1556 H1550 0.950 . S
C1556 C1557 1.327 . S
C1557 H1551 0.950 . S
C1557 C1556 1.327 . S
C1557 C1561 1.429 . S
C1558 C1541 1.574 . S
C1558 H1552 0.949 . S
C1558 C1562 1.368 . S
C1559 C1540 1.429 . S
C1559 C1553 1.429 . S
C1559 C1560 1.523 . S
C1560 C1541 1.368 . S
C1560 C1554 1.368 . S
C1560 C1559 1.523 . S
C1561 C1545 1.429 . S
C1561 C1557 1.429 . S
C1561 C1562 1.523 . S
C1562 C1546 1.368 . S
C1562 C1558 1.368 . S
C1562 C1561 1.523 . S
H1563 C1538 0.950 . S
H1564 C1540 0.950 . S
H1565 C1541 0.949 . S
H1566 C1543 0.950 . S
H1567 C1545 0.950 . S
C1568 C1569 1.349 . S
C1568 C1570 1.327 . S
C1568 H1593 0.950 . S
C1569 C1568 1.349 . S
C1569 C1585 1.349 . S
C1570 C1568 1.327 . S
C1570 C1589 1.429 . S
C1570 H1594 0.950 . S
C1571 C1588 1.574 . S
C1571 C1590 1.368 . S
C1571 H1595 0.949 . S
H1572 C1576 0.949 . S
C1573 C1574 1.349 . S
C1573 C1575 1.327 . S
C1573 H1596 0.950 . S
C1574 C1573 1.349 . S
C1574 C1586 1.349 . S
C1575 C1573 1.327 . S
C1575 C1591 1.429 . S
C1575 H1597 0.950 . S
C1576 H1572 0.949 . S
C1576 C1584 1.574 . S
C1576 C1592 1.368 . S
H1577 C1585 0.950 . S
H1578 C1583 0.950 . S
H1579 C1584 0.949 . S
H1580 C1586 0.950 . S
H1581 C1587 0.950 . S
H1582 C1588 0.949 . S
C1583 H1578 0.950 . S
C1583 C1585 1.327 . S
C1583 C1589 1.429 . S
C1584 C1576 1.574 . S
C1584 H1579 0.949 . S
C1584 C1590 1.368 . S
C1585 C1569 1.349 . S
C1585 H1577 0.950 . S
C1585 C1583 1.327 . S
C1586 C1574 1.349 . S
C1586 H1580 0.950 . S
C1586 C1587 1.327 . S
C1587 H1581 0.950 . S
C1587 C1586 1.327 . S
C1587 C1591 1.429 . S
C1588 C1571 1.574 . S
C1588 H1582 0.949 . S
C1588 C1592 1.368 . S
C1589 C1570 1.429 . S
C1589 C1583 1.429 . S
C1589 C1590 1.523 . S
C1590 C1571 1.368 . S
C1590 C1584 1.368 . S
C1590 C1589 1.523 . S
C1591 C1575 1.429 . S
C1591 C1587 1.429 . S
C1591 C1592 1.523 . S
C1592 C1576 1.368 . S
C1592 C1588 1.368 . S
C1592 C1591 1.523 . S
H1593 C1568 0.950 . S
H1594 C1570 0.950 . S
H1595 C1571 0.949 . S
H1596 C1573 0.950 . S
H1597 C1575 0.950 . S
C1598 C1599 1.349 . S
C1598 C1600 1.327 . S
C1598 H1623 0.950 . S
C1599 C1598 1.349 . S
C1599 C1615 1.349 . S
C1600 C1598 1.327 . S
C1600 C1619 1.429 . S
C1600 H1624 0.950 . S
C1601 C1618 1.574 . S
C1601 C1620 1.368 . S
C1601 H1625 0.949 . S
H1602 C1606 0.949 . S
C1603 C1604 1.349 . S
C1603 C1605 1.327 . S
C1603 H1626 0.950 . S
C1604 C1603 1.349 . S
C1604 C1616 1.349 . S
C1605 C1603 1.327 . S
C1605 C1621 1.429 . S
C1605 H1627 0.950 . S
C1606 H1602 0.949 . S
C1606 C1614 1.574 . S
C1606 C1622 1.368 . S
H1607 C1615 0.950 . S
H1608 C1613 0.950 . S
H1609 C1614 0.949 . S
H1610 C1616 0.950 . S
H1611 C1617 0.950 . S
H1612 C1618 0.949 . S
C1613 H1608 0.950 . S
C1613 C1615 1.327 . S
C1613 C1619 1.429 . S
C1614 C1606 1.574 . S
C1614 H1609 0.949 . S
C1614 C1620 1.368 . S
C1615 C1599 1.349 . S
C1615 H1607 0.950 . S
C1615 C1613 1.327 . S
C1616 C1604 1.349 . S
C1616 H1610 0.950 . S
C1616 C1617 1.327 . S
C1617 H1611 0.950 . S
C1617 C1616 1.327 . S
C1617 C1621 1.429 . S
C1618 C1601 1.574 . S
C1618 H1612 0.949 . S
C1618 C1622 1.368 . S
C1619 C1600 1.429 . S
C1619 C1613 1.429 . S
C1619 C1620 1.523 . S
C1620 C1601 1.368 . S
C1620 C1614 1.368 . S
C1620 C1619 1.523 . S
C1621 C1605 1.429 . S
C1621 C1617 1.429 . S
C1621 C1622 1.523 . S
C1622 C1606 1.368 . S
C1622 C1618 1.368 . S
C1622 C1621 1.523 . S
H1623 C1598 0.950 . S
H1624 C1600 0.950 . S
H1625 C1601 0.949 . S
H1626 C1603 0.950 . S
H1627 C1605 0.950 . S
C1628 C1629 1.349 . S
C1628 C1630 1.327 . S
C1628 H1653 0.950 . S
C1629 C1628 1.349 . S
C1629 C1645 1.349 . S
C1630 C1628 1.327 . S
C1630 C1649 1.429 . S
C1630 H1654 0.950 . S
C1631 C1648 1.574 1_556 S
C1631 C1650 1.368 . S
C1631 H1655 0.949 . S
H1632 C1636 0.949 . S
C1633 C1634 1.349 . S
C1633 C1635 1.327 . S
C1633 H1656 0.950 . S
C1634 C1633 1.349 . S
C1634 C1646 1.349 . S
C1635 C1633 1.327 . S
C1635 C1651 1.429 . S
C1635 H1657 0.950 . S
C1636 H1632 0.949 . S
C1636 C1644 1.574 1_554 S
C1636 C1652 1.368 . S
H1637 C1645 0.950 . S
H1638 C1643 0.950 . S
H1639 C1644 0.949 . S
H1640 C1646 0.950 . S
H1641 C1647 0.950 . S
H1642 C1648 0.949 . S
C1643 H1638 0.950 . S
C1643 C1645 1.327 . S
C1643 C1649 1.429 . S
C1644 C1636 1.574 1_556 S
C1644 H1639 0.949 . S
C1644 C1650 1.368 . S
C1645 C1629 1.349 . S
C1645 H1637 0.950 . S
C1645 C1643 1.327 . S
C1646 C1634 1.349 . S
C1646 H1640 0.950 . S
C1646 C1647 1.327 . S
C1647 H1641 0.950 . S
C1647 C1646 1.327 . S
C1647 C1651 1.429 . S
C1648 C1631 1.574 1_554 S
C1648 H1642 0.949 . S
C1648 C1652 1.368 . S
C1649 C1630 1.429 . S
C1649 C1643 1.429 . S
C1649 C1650 1.523 . S
C1650 C1631 1.368 . S
C1650 C1644 1.368 . S
C1650 C1649 1.523 . S
C1651 C1635 1.429 . S
C1651 C1647 1.429 . S
C1651 C1652 1.523 . S
C1652 C1636 1.368 . S
C1652 C1648 1.368 . S
C1652 C1651 1.523 . S
H1653 C1628 0.950 . S
H1654 C1630 0.950 . S
H1655 C1631 0.949 . S
H1656 C1633 0.950 . S
H1657 C1635 0.950 . S
C1658 C1659 1.349 1_554 S
C1658 C1660 1.327 . S
C1658 H1683 0.950 . S
C1659 C1658 1.349 1_556 S
C1659 C1675 1.349 1_556 S
C1660 C1658 1.327 . S
C1660 C1679 1.429 . S
C1660 H1684 0.950 . S
C1661 C1678 1.574 . S
C1661 C1680 1.368 . S
C1661 H1685 0.949 . S
H1662 C1666 0.949 . S
C1663 C1664 1.349 . S
C1663 C1665 1.327 . S
C1663 H1686 0.950 . S
C1664 C1663 1.349 . S
C1664 C1676 1.349 . S
C1665 C1663 1.327 . S
C1665 C1681 1.429 . S
C1665 H1687 0.950 . S
C1666 H1662 0.949 . S
C1666 C1674 1.574 . S
C1666 C1682 1.368 . S
H1667 C1675 0.950 1_556 S
H1668 C1673 0.950 . S
H1669 C1674 0.949 . S
H1670 C1676 0.950 . S
H1671 C1677 0.950 . S
H1672 C1678 0.949 . S
C1673 H1668 0.950 . S
C1673 C1675 1.327 . S
C1673 C1679 1.429 . S
C1674 C1666 1.574 . S
C1674 H1669 0.949 . S
C1674 C1680 1.368 . S
C1675 C1659 1.349 1_554 S
C1675 H1667 0.950 1_554 S
C1675 C1673 1.327 . S
C1676 C1664 1.349 . S
C1676 H1670 0.950 . S
C1676 C1677 1.327 . S
C1677 H1671 0.950 . S
C1677 C1676 1.327 . S
C1677 C1681 1.429 . S
C1678 C1661 1.574 . S
C1678 H1672 0.949 . S
C1678 C1682 1.368 . S
C1679 C1660 1.429 . S
C1679 C1673 1.429 . S
C1679 C1680 1.523 . S
C1680 C1661 1.368 . S
C1680 C1674 1.368 . S
C1680 C1679 1.523 . S
C1681 C1665 1.429 . S
C1681 C1677 1.429 . S
C1681 C1682 1.523 . S
C1682 C1666 1.368 . S
C1682 C1678 1.368 . S
C1682 C1681 1.523 . S
H1683 C1658 0.950 . S
H1684 C1660 0.950 . S
H1685 C1661 0.949 . S
H1686 C1663 0.950 . S
H1687 C1665 0.950 . S
C1688 C1689 1.349 . S
C1688 C1690 1.327 . S
C1688 H1713 0.950 . S
C1689 C1688 1.349 . S
C1689 C1705 1.349 . S
C1690 C1688 1.327 . S
C1690 C1709 1.429 . S
C1690 H1714 0.950 . S
C1691 C1708 1.574 . S
C1691 C1710 1.368 . S
C1691 H1715 0.949 . S
H1692 C1696 0.949 . S
C1693 C1694 1.349 . S
C1693 C1695 1.327 . S
C1693 H1716 0.950 . S
C1694 C1693 1.349 . S
C1694 C1706 1.349 . S
C1695 C1693 1.327 . S
C1695 C1711 1.429 . S
C1695 H1717 0.950 . S
C1696 H1692 0.949 . S
C1696 C1704 1.574 . S
C1696 C1712 1.368 . S
H1697 C1705 0.950 . S
H1698 C1703 0.950 . S
H1699 C1704 0.949 . S
H1700 C1706 0.950 . S
H1701 C1707 0.950 . S
H1702 C1708 0.949 . S
C1703 H1698 0.950 . S
C1703 C1705 1.327 . S
C1703 C1709 1.429 . S
C1704 C1696 1.574 . S
C1704 H1699 0.949 . S
C1704 C1710 1.368 . S
C1705 C1689 1.349 . S
C1705 H1697 0.950 . S
C1705 C1703 1.327 . S
C1706 C1694 1.349 . S
C1706 H1700 0.950 . S
C1706 C1707 1.327 . S
C1707 H1701 0.950 . S
C1707 C1706 1.327 . S
C1707 C1711 1.429 . S
C1708 C1691 1.574 . S
C1708 H1702 0.949 . S
C1708 C1712 1.368 . S
C1709 C1690 1.429 . S
C1709 C1703 1.429 . S
C1709 C1710 1.523 . S
C1710 C1691 1.368 . S
C1710 C1704 1.368 . S
C1710 C1709 1.523 . S
C1711 C1695 1.429 . S
C1711 C1707 1.429 . S
C1711 C1712 1.523 . S
C1712 C1696 1.368 . S
C1712 C1708 1.368 . S
C1712 C1711 1.523 . S
H1713 C1688 0.950 . S
H1714 C1690 0.950 . S
H1715 C1691 0.949 . S
H1716 C1693 0.950 . S
H1717 C1695 0.950 . S
C1718 C1719 1.349 1_556 S
C1718 C1720 1.327 . S
C1718 H1743 0.950 . S
C1719 C1718 1.349 1_554 S
C1719 C1735 1.349 1_554 S
C1720 C1718 1.327 . S
C1720 C1739 1.429 . S
C1720 H1744 0.950 . S
C1721 C1738 1.574 . S
C1721 C1740 1.368 . S
C1721 H1745 0.949 . S
H1722 C1726 0.949 . S
C1723 C1724 1.349 . S
C1723 C1725 1.327 . S
C1723 H1746 0.950 . S
C1724 C1723 1.349 . S
C1724 C1736 1.349 . S
C1725 C1723 1.327 . S
C1725 C1741 1.429 . S
C1725 H1747 0.950 . S
C1726 H1722 0.949 . S
C1726 C1734 1.574 . S
C1726 C1742 1.368 . S
H1727 C1735 0.950 1_554 S
H1728 C1733 0.950 . S
H1729 C1734 0.949 . S
H1730 C1736 0.950 . S
H1731 C1737 0.950 . S
H1732 C1738 0.949 . S
C1733 H1728 0.950 . S
C1733 C1735 1.327 . S
C1733 C1739 1.429 . S
C1734 C1726 1.574 . S
C1734 H1729 0.949 . S
C1734 C1740 1.368 . S
C1735 C1719 1.349 1_556 S
C1735 H1727 0.950 1_556 S
C1735 C1733 1.327 . S
C1736 C1724 1.349 . S
C1736 H1730 0.950 . S
C1736 C1737 1.327 . S
C1737 H1731 0.950 . S
C1737 C1736 1.327 . S
C1737 C1741 1.429 . S
C1738 C1721 1.574 . S
C1738 H1732 0.949 . S
C1738 C1742 1.368 . S
C1739 C1720 1.429 . S
C1739 C1733 1.429 . S
C1739 C1740 1.523 . S
C1740 C1721 1.368 . S
C1740 C1734 1.368 . S
C1740 C1739 1.523 . S
C1741 C1725 1.429 . S
C1741 C1737 1.429 . S
C1741 C1742 1.523 . S
C1742 C1726 1.368 . S
C1742 C1738 1.368 . S
C1742 C1741 1.523 . S
H1743 C1718 0.950 . S
H1744 C1720 0.950 . S
H1745 C1721 0.949 . S
H1746 C1723 0.950 . S
H1747 C1725 0.950 . S
C1748 C1749 1.349 . S
C1748 C1750 1.327 . S
C1748 H1773 0.950 . S
C1749 C1748 1.349 . S
C1749 C1765 1.349 . S
C1750 C1748 1.327 . S
C1750 C1769 1.429 . S
C1750 H1774 0.950 . S
C1751 C1768 1.574 1_556 S
C1751 C1770 1.368 . S
C1751 H1775 0.949 . S
H1752 C1756 0.949 . S
C1753 C1754 1.349 . S
C1753 C1755 1.327 . S
C1753 H1776 0.950 . S
C1754 C1753 1.349 . S
C1754 C1766 1.349 . S
C1755 C1753 1.327 . S
C1755 C1771 1.429 . S
C1755 H1777 0.950 . S
C1756 H1752 0.949 . S
C1756 C1764 1.574 1_554 S
C1756 C1772 1.368 . S
H1757 C1765 0.950 . S
H1758 C1763 0.950 . S
H1759 C1764 0.949 . S
H1760 C1766 0.950 . S
H1761 C1767 0.950 . S
H1762 C1768 0.949 . S
C1763 H1758 0.950 . S
C1763 C1765 1.327 . S
C1763 C1769 1.429 . S
C1764 C1756 1.574 1_556 S
C1764 H1759 0.949 . S
C1764 C1770 1.368 . S
C1765 C1749 1.349 . S
C1765 H1757 0.950 . S
C1765 C1763 1.327 . S
C1766 C1754 1.349 . S
C1766 H1760 0.950 . S
C1766 C1767 1.327 . S
C1767 H1761 0.950 . S
C1767 C1766 1.327 . S
C1767 C1771 1.429 . S
C1768 C1751 1.574 1_554 S
C1768 H1762 0.949 . S
C1768 C1772 1.368 . S
C1769 C1750 1.429 . S
C1769 C1763 1.429 . S
C1769 C1770 1.523 . S
C1770 C1751 1.368 . S
C1770 C1764 1.368 . S
C1770 C1769 1.523 . S
C1771 C1755 1.429 . S
C1771 C1767 1.429 . S
C1771 C1772 1.523 . S
C1772 C1756 1.368 . S
C1772 C1768 1.368 . S
C1772 C1771 1.523 . S
H1773 C1748 0.950 . S
H1774 C1750 0.950 . S
H1775 C1751 0.949 . S
H1776 C1753 0.950 . S
H1777 C1755 0.950 . S
C1778 C1779 1.349 . S
C1778 C1780 1.327 . S
C1778 H1803 0.950 . S
C1779 C1778 1.349 . S
C1779 C1795 1.349 . S
C1780 C1778 1.327 . S
C1780 C1799 1.429 . S
C1780 H1804 0.950 . S
C1781 C1798 1.574 . S
C1781 C1800 1.368 . S
C1781 H1805 0.949 . S
H1782 C1786 0.949 . S
C1783 C1784 1.349 . S
C1783 C1785 1.327 . S
C1783 H1806 0.950 . S
C1784 C1783 1.349 . S
C1784 C1796 1.349 . S
C1785 C1783 1.327 . S
C1785 C1801 1.429 . S
C1785 H1807 0.950 . S
C1786 H1782 0.949 . S
C1786 C1794 1.574 . S
C1786 C1802 1.368 . S
H1787 C1795 0.950 . S
H1788 C1793 0.950 . S
H1789 C1794 0.949 . S
H1790 C1796 0.950 . S
H1791 C1797 0.950 . S
H1792 C1798 0.949 . S
C1793 H1788 0.950 . S
C1793 C1795 1.327 . S
C1793 C1799 1.429 . S
C1794 C1786 1.574 . S
C1794 H1789 0.949 . S
C1794 C1800 1.368 . S
C1795 C1779 1.349 . S
C1795 H1787 0.950 . S
C1795 C1793 1.327 . S
C1796 C1784 1.349 . S
C1796 H1790 0.950 . S
C1796 C1797 1.327 . S
C1797 H1791 0.950 . S
C1797 C1796 1.327 . S
C1797 C1801 1.429 . S
C1798 C1781 1.574 . S
C1798 H1792 0.949 . S
C1798 C1802 1.368 . S
C1799 C1780 1.429 . S
C1799 C1793 1.429 . S
C1799 C1800 1.523 . S
C1800 C1781 1.368 . S
C1800 C1794 1.368 . S
C1800 C1799 1.523 . S
C1801 C1785 1.429 . S
C1801 C1797 1.429 . S
C1801 C1802 1.523 . S
C1802 C1786 1.368 . S
C1802 C1798 1.368 . S
C1802 C1801 1.523 . S
H1803 C1778 0.950 . S
H1804 C1780 0.950 . S
H1805 C1781 0.949 . S
H1806 C1783 0.950 . S
H1807 C1785 0.950 . S
C1808 C1809 1.349 . S
C1808 C1810 1.327 . S
C1808 H1833 0.950 . S
C1809 C1808 1.349 . S
C1809 C1825 1.349 . S
C1810 C1808 1.327 . S
C1810 C1829 1.429 . S
C1810 H1834 0.950 . S
C1811 C1828 1.574 . S
C1811 C1830 1.368 . S
C1811 H1835 0.949 . S
H1812 C1816 0.949 . S
C1813 C1814 1.349 . S
C1813 C1815 1.327 . S
C1813 H1836 0.950 . S
C1814 C1813 1.349 . S
C1814 C1826 1.349 . S
C1815 C1813 1.327 . S
C1815 C1831 1.429 . S
C1815 H1837 0.950 . S
C1816 H1812 0.949 . S
C1816 C1824 1.574 . S
C1816 C1832 1.368 . S
H1817 C1825 0.950 . S
H1818 C1823 0.950 . S
H1819 C1824 0.949 . S
H1820 C1826 0.950 . S
H1821 C1827 0.950 . S
H1822 C1828 0.949 . S
C1823 H1818 0.950 . S
C1823 C1825 1.327 . S
C1823 C1829 1.429 . S
C1824 C1816 1.574 . S
C1824 H1819 0.949 . S
C1824 C1830 1.368 . S
C1825 C1809 1.349 . S
C1825 H1817 0.950 . S
C1825 C1823 1.327 . S
C1826 C1814 1.349 . S
C1826 H1820 0.950 . S
C1826 C1827 1.327 . S
C1827 H1821 0.950 . S
C1827 C1826 1.327 . S
C1827 C1831 1.429 . S
C1828 C1811 1.574 . S
C1828 H1822 0.949 . S
C1828 C1832 1.368 . S
C1829 C1810 1.429 . S
C1829 C1823 1.429 . S
C1829 C1830 1.523 . S
C1830 C1811 1.368 . S
C1830 C1824 1.368 . S
C1830 C1829 1.523 . S
C1831 C1815 1.429 . S
C1831 C1827 1.429 . S
C1831 C1832 1.523 . S
C1832 C1816 1.368 . S
C1832 C1828 1.368 . S
C1832 C1831 1.523 . S
H1833 C1808 0.950 . S
H1834 C1810 0.950 . S
H1835 C1811 0.949 . S
H1836 C1813 0.950 . S
H1837 C1815 0.950 . S
C1838 C1839 1.349 . S
C1838 C1840 1.327 . S
C1838 H1863 0.950 . S
C1839 C1838 1.349 . S
C1839 C1855 1.349 . S
C1840 C1838 1.327 . S
C1840 C1859 1.429 . S
C1840 H1864 0.950 . S
C1841 C1858 1.574 . S
C1841 C1860 1.368 . S
C1841 H1865 0.949 . S
H1842 C1846 0.949 . S
C1843 C1844 1.349 . S
C1843 C1845 1.327 . S
C1843 H1866 0.950 . S
C1844 C1843 1.349 . S
C1844 C1856 1.349 . S
C1845 C1843 1.327 . S
C1845 C1861 1.429 . S
C1845 H1867 0.950 . S
C1846 H1842 0.949 . S
C1846 C1854 1.574 . S
C1846 C1862 1.368 . S
H1847 C1855 0.950 . S
H1848 C1853 0.950 . S
H1849 C1854 0.949 . S
H1850 C1856 0.950 . S
H1851 C1857 0.950 . S
H1852 C1858 0.949 . S
C1853 H1848 0.950 . S
C1853 C1855 1.327 . S
C1853 C1859 1.429 . S
C1854 C1846 1.574 . S
C1854 H1849 0.949 . S
C1854 C1860 1.368 . S
C1855 C1839 1.349 . S
C1855 H1847 0.950 . S
C1855 C1853 1.327 . S
C1856 C1844 1.349 . S
C1856 H1850 0.950 . S
C1856 C1857 1.327 . S
C1857 H1851 0.950 . S
C1857 C1856 1.327 . S
C1857 C1861 1.429 . S
C1858 C1841 1.574 . S
C1858 H1852 0.949 . S
C1858 C1862 1.368 . S
C1859 C1840 1.429 . S
C1859 C1853 1.429 . S
C1859 C1860 1.523 . S
C1860 C1841 1.368 . S
C1860 C1854 1.368 . S
C1860 C1859 1.523 . S
C1861 C1845 1.429 . S
C1861 C1857 1.429 . S
C1861 C1862 1.523 . S
C1862 C1846 1.368 . S
C1862 C1858 1.368 . S
C1862 C1861 1.523 . S
H1863 C1838 0.950 . S
H1864 C1840 0.950 . S
H1865 C1841 0.949 . S
H1866 C1843 0.950 . S
H1867 C1845 0.950 . S
C1868 C1869 1.349 . S
C1868 C1870 1.327 . S
C1868 H1893 0.950 . S
C1869 C1868 1.349 . S
C1869 C1885 1.349 . S
C1870 C1868 1.327 . S
C1870 C1889 1.429 . S
C1870 H1894 0.950 . S
C1871 C1888 1.574 1_554 S
C1871 C1890 1.368 . S
C1871 H1895 0.949 . S
H1872 C1876 0.949 . S
C1873 C1874 1.349 . S
C1873 C1875 1.327 . S
C1873 H1896 0.950 . S
C1874 C1873 1.349 . S
C1874 C1886 1.349 . S
C1875 C1873 1.327 . S
C1875 C1891 1.429 . S
C1875 H1897 0.950 . S
C1876 H1872 0.949 . S
C1876 C1884 1.574 1_556 S
C1876 C1892 1.368 . S
H1877 C1885 0.950 . S
H1878 C1883 0.950 . S
H1879 C1884 0.949 . S
H1880 C1886 0.950 . S
H1881 C1887 0.950 . S
H1882 C1888 0.949 . S
C1883 H1878 0.950 . S
C1883 C1885 1.327 . S
C1883 C1889 1.429 . S
C1884 C1876 1.574 1_554 S
C1884 H1879 0.949 . S
C1884 C1890 1.368 . S
C1885 C1869 1.349 . S
C1885 H1877 0.950 . S
C1885 C1883 1.327 . S
C1886 C1874 1.349 . S
C1886 H1880 0.950 . S
C1886 C1887 1.327 . S
C1887 H1881 0.950 . S
C1887 C1886 1.327 . S
C1887 C1891 1.429 . S
C1888 C1871 1.574 1_556 S
C1888 H1882 0.949 . S
C1888 C1892 1.368 . S
C1889 C1870 1.429 . S
C1889 C1883 1.429 . S
C1889 C1890 1.523 . S
C1890 C1871 1.368 . S
C1890 C1884 1.368 . S
C1890 C1889 1.523 . S
C1891 C1875 1.429 . S
C1891 C1887 1.429 . S
C1891 C1892 1.523 . S
C1892 C1876 1.368 . S
C1892 C1888 1.368 . S
C1892 C1891 1.523 . S
H1893 C1868 0.950 . S
H1894 C1870 0.950 . S
H1895 C1871 0.949 . S
H1896 C1873 0.950 . S
H1897 C1875 0.950 . S
C1898 C1899 1.349 1_556 S
C1898 C1900 1.327 . S
C1898 H1923 0.950 1_556 S
C1899 C1898 1.349 1_554 S
C1899 C1915 1.349 1_554 S
C1900 C1898 1.327 . S
C1900 C1919 1.429 . S
C1900 H1924 0.950 . S
C1901 C1918 1.574 . S
C1901 C1920 1.368 . S
C1901 H1925 0.949 . S
H1902 C1906 0.949 . S
C1903 C1904 1.349 . S
C1903 C1905 1.327 . S
C1903 H1926 0.950 . S
C1904 C1903 1.349 . S
C1904 C1916 1.349 . S
C1905 C1903 1.327 . S
C1905 C1921 1.429 . S
C1905 H1927 0.950 . S
C1906 H1902 0.949 . S
C1906 C1914 1.574 . S
C1906 C1922 1.368 . S
H1907 C1915 0.950 . S
H1908 C1913 0.950 . S
H1909 C1914 0.949 . S
H1910 C1916 0.950 . S
H1911 C1917 0.950 . S
H1912 C1918 0.949 . S
C1913 H1908 0.950 . S
C1913 C1915 1.327 . S
C1913 C1919 1.429 . S
C1914 C1906 1.574 . S
C1914 H1909 0.949 . S
C1914 C1920 1.368 . S
C1915 C1899 1.349 1_556 S
C1915 H1907 0.950 . S
C1915 C1913 1.327 . S
C1916 C1904 1.349 . S
C1916 H1910 0.950 . S
C1916 C1917 1.327 . S
C1917 H1911 0.950 . S
C1917 C1916 1.327 . S
C1917 C1921 1.429 . S
C1918 C1901 1.574 . S
C1918 H1912 0.949 . S
C1918 C1922 1.368 . S
C1919 C1900 1.429 . S
C1919 C1913 1.429 . S
C1919 C1920 1.523 . S
C1920 C1901 1.368 . S
C1920 C1914 1.368 . S
C1920 C1919 1.523 . S
C1921 C1905 1.429 . S
C1921 C1917 1.429 . S
C1921 C1922 1.523 . S
C1922 C1906 1.368 . S
C1922 C1918 1.368 . S
C1922 C1921 1.523 . S
H1923 C1898 0.950 1_554 S
H1924 C1900 0.950 . S
H1925 C1901 0.949 . S
H1926 C1903 0.950 . S
H1927 C1905 0.950 . S
C1928 C1929 1.349 . S
C1928 C1930 1.327 . S
C1928 H1953 0.950 . S
C1929 C1928 1.349 . S
C1929 C1945 1.349 . S
C1930 C1928 1.327 . S
C1930 C1949 1.429 . S
C1930 H1954 0.950 . S
C1931 C1948 1.574 . S
C1931 C1950 1.368 . S
C1931 H1955 0.949 . S
H1932 C1936 0.949 . S
C1933 C1934 1.349 . S
C1933 C1935 1.327 . S
C1933 H1956 0.950 . S
C1934 C1933 1.349 . S
C1934 C1946 1.349 . S
C1935 C1933 1.327 . S
C1935 C1951 1.429 . S
C1935 H1957 0.950 . S
C1936 H1932 0.949 . S
C1936 C1944 1.574 . S
C1936 C1952 1.368 . S
H1937 C1945 0.950 . S
H1938 C1943 0.950 . S
H1939 C1944 0.949 . S
H1940 C1946 0.950 . S
H1941 C1947 0.950 . S
H1942 C1948 0.949 . S
C1943 H1938 0.950 . S
C1943 C1945 1.327 . S
C1943 C1949 1.429 . S
C1944 C1936 1.574 . S
C1944 H1939 0.949 . S
C1944 C1950 1.368 . S
C1945 C1929 1.349 . S
C1945 H1937 0.950 . S
C1945 C1943 1.327 . S
C1946 C1934 1.349 . S
C1946 H1940 0.950 . S
C1946 C1947 1.327 . S
C1947 H1941 0.950 . S
C1947 C1946 1.327 . S
C1947 C1951 1.429 . S
C1948 C1931 1.574 . S
C1948 H1942 0.949 . S
C1948 C1952 1.368 . S
C1949 C1930 1.429 . S
C1949 C1943 1.429 . S
C1949 C1950 1.523 . S
C1950 C1931 1.368 . S
C1950 C1944 1.368 . S
C1950 C1949 1.523 . S
C1951 C1935 1.429 . S
C1951 C1947 1.429 . S
C1951 C1952 1.523 . S
C1952 C1936 1.368 . S
C1952 C1948 1.368 . S
C1952 C1951 1.523 . S
H1953 C1928 0.950 . S
H1954 C1930 0.950 . S
H1955 C1931 0.949 . S
H1956 C1933 0.950 . S
H1957 C1935 0.950 . S
C1958 C1959 1.349 . S
C1958 C1960 1.327 . S
C1958 H1983 0.950 . S
C1959 C1958 1.349 . S
C1959 C1975 1.349 . S
C1960 C1958 1.327 . S
C1960 C1979 1.429 . S
C1960 H1984 0.950 . S
C1961 C1978 1.574 . S
C1961 C1980 1.368 . S
C1961 H1985 0.949 . S
H1962 C1966 0.949 . S
C1963 C1964 1.349 1_554 S
C1963 C1965 1.327 . S
C1963 H1986 0.950 . S
C1964 C1963 1.349 1_556 S
C1964 C1976 1.349 1_556 S
C1965 C1963 1.327 . S
C1965 C1981 1.429 . S
C1965 H1987 0.950 . S
C1966 H1962 0.949 . S
C1966 C1974 1.574 . S
C1966 C1982 1.368 . S
H1967 C1975 0.950 . S
H1968 C1973 0.950 . S
H1969 C1974 0.949 . S
H1970 C1976 0.950 1_556 S
H1971 C1977 0.950 . S
H1972 C1978 0.949 . S
C1973 H1968 0.950 . S
C1973 C1975 1.327 . S
C1973 C1979 1.429 . S
C1974 C1966 1.574 . S
C1974 H1969 0.949 . S
C1974 C1980 1.368 . S
C1975 C1959 1.349 . S
C1975 H1967 0.950 . S
C1975 C1973 1.327 . S
C1976 C1964 1.349 1_554 S
C1976 H1970 0.950 1_554 S
C1976 C1977 1.327 . S
C1977 H1971 0.950 . S
C1977 C1976 1.327 . S
C1977 C1981 1.429 . S
C1978 C1961 1.574 . S
C1978 H1972 0.949 . S
C1978 C1982 1.368 . S
C1979 C1960 1.429 . S
C1979 C1973 1.429 . S
C1979 C1980 1.523 . S
C1980 C1961 1.368 . S
C1980 C1974 1.368 . S
C1980 C1979 1.523 . S
C1981 C1965 1.429 . S
C1981 C1977 1.429 . S
C1981 C1982 1.523 . S
C1982 C1966 1.368 . S
C1982 C1978 1.368 . S
C1982 C1981 1.523 . S
H1983 C1958 0.950 . S
H1984 C1960 0.950 . S
H1985 C1961 0.949 . S
H1986 C1963 0.950 . S
H1987 C1965 0.950 . S
C1988 C1989 1.349 . S
C1988 C1990 1.327 . S
C1988 H2013 0.950 . S
C1989 C1988 1.349 . S
C1989 C2005 1.349 . S
C1990 C1988 1.327 . S
C1990 C2009 1.429 . S
C1990 H2014 0.950 . S
C1991 C2008 1.574 1_556 S
C1991 C2010 1.368 . S
C1991 H2015 0.949 . S
H1992 C1996 0.949 . S
C1993 C1994 1.349 . S
C1993 C1995 1.327 . S
C1993 H2016 0.950 . S
C1994 C1993 1.349 . S
C1994 C2006 1.349 . S
C1995 C1993 1.327 . S
C1995 C2011 1.429 . S
C1995 H2017 0.950 . S
C1996 H1992 0.949 . S
C1996 C2004 1.574 1_554 S
C1996 C2012 1.368 . S
H1997 C2005 0.950 . S
H1998 C2003 0.950 . S
H1999 C2004 0.949 . S
H2000 C2006 0.950 . S
H2001 C2007 0.950 . S
H2002 C2008 0.949 . S
C2003 H1998 0.950 . S
C2003 C2005 1.327 . S
C2003 C2009 1.429 . S
C2004 C1996 1.574 1_556 S
C2004 H1999 0.949 . S
C2004 C2010 1.368 . S
C2005 C1989 1.349 . S
C2005 H1997 0.950 . S
C2005 C2003 1.327 . S
C2006 C1994 1.349 . S
C2006 H2000 0.950 . S
C2006 C2007 1.327 . S
C2007 H2001 0.950 . S
C2007 C2006 1.327 . S
C2007 C2011 1.429 . S
C2008 C1991 1.574 1_554 S
C2008 H2002 0.949 . S
C2008 C2012 1.368 . S
C2009 C1990 1.429 . S
C2009 C2003 1.429 . S
C2009 C2010 1.523 . S
C2010 C1991 1.368 . S
C2010 C2004 1.368 . S
C2010 C2009 1.523 . S
C2011 C1995 1.429 . S
C2011 C2007 1.429 . S
C2011 C2012 1.523 . S
C2012 C1996 1.368 . S
C2012 C2008 1.368 . S
C2012 C2011 1.523 . S
H2013 C1988 0.950 . S
H2014 C1990 0.950 . S
H2015 C1991 0.949 . S
H2016 C1993 0.950 . S
H2017 C1995 0.950 . S
C2018 C2019 1.349 . S
C2018 C2020 1.327 . S
C2018 H2043 0.950 . S
C2019 C2018 1.349 . S
C2019 C2035 1.349 . S
C2020 C2018 1.327 . S
C2020 C2039 1.429 . S
C2020 H2044 0.950 . S
C2021 C2038 1.574 . S
C2021 C2040 1.368 . S
C2021 H2045 0.949 . S
H2022 C2026 0.949 . S
C2023 C2024 1.349 . S
C2023 C2025 1.327 . S
C2023 H2046 0.950 . S
C2024 C2023 1.349 . S
C2024 C2036 1.349 . S
C2025 C2023 1.327 . S
C2025 C2041 1.429 . S
C2025 H2047 0.950 . S
C2026 H2022 0.949 . S
C2026 C2034 1.574 . S
C2026 C2042 1.368 . S
H2027 C2035 0.950 . S
H2028 C2033 0.950 . S
H2029 C2034 0.949 . S
H2030 C2036 0.950 . S
H2031 C2037 0.950 . S
H2032 C2038 0.949 . S
C2033 H2028 0.950 . S
C2033 C2035 1.327 . S
C2033 C2039 1.429 . S
C2034 C2026 1.574 . S
C2034 H2029 0.949 . S
C2034 C2040 1.368 . S
C2035 C2019 1.349 . S
C2035 H2027 0.950 . S
C2035 C2033 1.327 . S
C2036 C2024 1.349 . S
C2036 H2030 0.950 . S
C2036 C2037 1.327 . S
C2037 H2031 0.950 . S
C2037 C2036 1.327 . S
C2037 C2041 1.429 . S
C2038 C2021 1.574 . S
C2038 H2032 0.949 . S
C2038 C2042 1.368 . S
C2039 C2020 1.429 . S
C2039 C2033 1.429 . S
C2039 C2040 1.523 . S
C2040 C2021 1.368 . S
C2040 C2034 1.368 . S
C2040 C2039 1.523 . S
C2041 C2025 1.429 . S
C2041 C2037 1.429 . S
C2041 C2042 1.523 . S
C2042 C2026 1.368 . S
C2042 C2038 1.368 . S
C2042 C2041 1.523 . S
H2043 C2018 0.950 . S
H2044 C2020 0.950 . S
H2045 C2021 0.949 . S
H2046 C2023 0.950 . S
H2047 C2025 0.950 . S
C2048 C2049 1.349 . S
C2048 C2050 1.327 . S
C2048 H2073 0.950 . S
C2049 C2048 1.349 . S
C2049 C2065 1.349 . S
C2050 C2048 1.327 . S
C2050 C2069 1.429 . S
C2050 H2074 0.950 . S
C2051 C2068 1.574 1_554 S
C2051 C2070 1.368 . S
C2051 H2075 0.949 . S
H2052 C2056 0.949 . S
C2053 C2054 1.349 . S
C2053 C2055 1.327 . S
C2053 H2076 0.950 . S
C2054 C2053 1.349 . S
C2054 C2066 1.349 . S
C2055 C2053 1.327 . S
C2055 C2071 1.429 . S
C2055 H2077 0.950 . S
C2056 H2052 0.949 . S
C2056 C2064 1.574 1_556 S
C2056 C2072 1.368 . S
H2057 C2065 0.950 . S
H2058 C2063 0.950 . S
H2059 C2064 0.949 . S
H2060 C2066 0.950 . S
H2061 C2067 0.950 . S
H2062 C2068 0.949 . S
C2063 H2058 0.950 . S
C2063 C2065 1.327 . S
C2063 C2069 1.429 . S
C2064 C2056 1.574 1_554 S
C2064 H2059 0.949 . S
C2064 C2070 1.368 . S
C2065 C2049 1.349 . S
C2065 H2057 0.950 . S
C2065 C2063 1.327 . S
C2066 C2054 1.349 . S
C2066 H2060 0.950 . S
C2066 C2067 1.327 . S
C2067 H2061 0.950 . S
C2067 C2066 1.327 . S
C2067 C2071 1.429 . S
C2068 C2051 1.574 1_556 S
C2068 H2062 0.949 . S
C2068 C2072 1.368 . S
C2069 C2050 1.429 . S
C2069 C2063 1.429 . S
C2069 C2070 1.523 . S
C2070 C2051 1.368 . S
C2070 C2064 1.368 . S
C2070 C2069 1.523 . S
C2071 C2055 1.429 . S
C2071 C2067 1.429 . S
C2071 C2072 1.523 . S
C2072 C2056 1.368 . S
C2072 C2068 1.368 . S
C2072 C2071 1.523 . S
H2073 C2048 0.950 . S
H2074 C2050 0.950 . S
H2075 C2051 0.949 . S
H2076 C2053 0.950 . S
H2077 C2055 0.950 . S
C2078 C2079 1.349 1_554 S
C2078 C2080 1.327 . S
C2078 H2103 0.950 . S
C2079 C2078 1.349 1_556 S
C2079 C2095 1.349 1_556 S
C2080 C2078 1.327 . S
C2080 C2099 1.429 . S
C2080 H2104 0.950 . S
C2081 C2098 1.574 . S
C2081 C2100 1.368 . S
C2081 H2105 0.949 . S
H2082 C2086 0.949 . S
C2083 C2084 1.349 . S
C2083 C2085 1.327 . S
C2083 H2106 0.950 . S
C2084 C2083 1.349 . S
C2084 C2096 1.349 . S
C2085 C2083 1.327 . S
C2085 C2101 1.429 . S
C2085 H2107 0.950 . S
C2086 H2082 0.949 . S
C2086 C2094 1.574 . S
C2086 C2102 1.368 . S
H2087 C2095 0.950 1_556 S
H2088 C2093 0.950 . S
H2089 C2094 0.949 . S
H2090 C2096 0.950 . S
H2091 C2097 0.950 . S
H2092 C2098 0.949 . S
C2093 H2088 0.950 . S
C2093 C2095 1.327 . S
C2093 C2099 1.429 . S
C2094 C2086 1.574 . S
C2094 H2089 0.949 . S
C2094 C2100 1.368 . S
C2095 C2079 1.349 1_554 S
C2095 H2087 0.950 1_554 S
C2095 C2093 1.327 . S
C2096 C2084 1.349 . S
C2096 H2090 0.950 . S
C2096 C2097 1.327 . S
C2097 H2091 0.950 . S
C2097 C2096 1.327 . S
C2097 C2101 1.429 . S
C2098 C2081 1.574 . S
C2098 H2092 0.949 . S
C2098 C2102 1.368 . S
C2099 C2080 1.429 . S
C2099 C2093 1.429 . S
C2099 C2100 1.523 . S
C2100 C2081 1.368 . S
C2100 C2094 1.368 . S
C2100 C2099 1.523 . S
C2101 C2085 1.429 . S
C2101 C2097 1.429 . S
C2101 C2102 1.523 . S
C2102 C2086 1.368 . S
C2102 C2098 1.368 . S
C2102 C2101 1.523 . S
H2103 C2078 0.950 . S
H2104 C2080 0.950 . S
H2105 C2081 0.949 . S
H2106 C2083 0.950 . S
H2107 C2085 0.950 . S
C2108 C2109 1.349 . S
C2108 C2110 1.327 . S
C2108 H2133 0.950 . S
C2109 C2108 1.349 . S
C2109 C2125 1.349 . S
C2110 C2108 1.327 . S
C2110 C2129 1.429 . S
C2110 H2134 0.950 . S
C2111 C2128 1.574 . S
C2111 C2130 1.368 . S
C2111 H2135 0.949 . S
H2112 C2116 0.949 . S
C2113 C2114 1.349 . S
C2113 C2115 1.327 . S
C2113 H2136 0.950 . S
C2114 C2113 1.349 . S
C2114 C2126 1.349 . S
C2115 C2113 1.327 . S
C2115 C2131 1.429 . S
C2115 H2137 0.950 . S
C2116 H2112 0.949 . S
C2116 C2124 1.574 . S
C2116 C2132 1.368 . S
H2117 C2125 0.950 . S
H2118 C2123 0.950 . S
H2119 C2124 0.949 . S
H2120 C2126 0.950 . S
H2121 C2127 0.950 . S
H2122 C2128 0.949 . S
C2123 H2118 0.950 . S
C2123 C2125 1.327 . S
C2123 C2129 1.429 . S
C2124 C2116 1.574 . S
C2124 H2119 0.949 . S
C2124 C2130 1.368 . S
C2125 C2109 1.349 . S
C2125 H2117 0.950 . S
C2125 C2123 1.327 . S
C2126 C2114 1.349 . S
C2126 H2120 0.950 . S
C2126 C2127 1.327 . S
C2127 H2121 0.950 . S
C2127 C2126 1.327 . S
C2127 C2131 1.429 . S
C2128 C2111 1.574 . S
C2128 H2122 0.949 . S
C2128 C2132 1.368 . S
C2129 C2110 1.429 . S
C2129 C2123 1.429 . S
C2129 C2130 1.523 . S
C2130 C2111 1.368 . S
C2130 C2124 1.368 . S
C2130 C2129 1.523 . S
C2131 C2115 1.429 . S
C2131 C2127 1.429 . S
C2131 C2132 1.523 . S
C2132 C2116 1.368 . S
C2132 C2128 1.368 . S
C2132 C2131 1.523 . S
H2133 C2108 0.950 . S
H2134 C2110 0.950 . S
H2135 C2111 0.949 . S
H2136 C2113 0.950 . S
H2137 C2115 0.950 . S
C2138 C2139 1.349 . S
C2138 C2140 1.327 . S
C2138 H2163 0.950 . S
C2139 C2138 1.349 . S
C2139 C2155 1.349 . S
C2140 C2138 1.327 . S
C2140 C2159 1.429 . S
C2140 H2164 0.950 . S
C2141 C2158 1.574 . S
C2141 C2160 1.368 . S
C2141 H2165 0.949 . S
H2142 C2146 0.949 . S
C2143 C2144 1.349 . S
C2143 C2145 1.327 . S
C2143 H2166 0.950 . S
C2144 C2143 1.349 . S
C2144 C2156 1.349 . S
C2145 C2143 1.327 . S
C2145 C2161 1.429 . S
C2145 H2167 0.950 . S
C2146 H2142 0.949 . S
C2146 C2154 1.574 . S
C2146 C2162 1.368 . S
H2147 C2155 0.950 . S
H2148 C2153 0.950 . S
H2149 C2154 0.949 . S
H2150 C2156 0.950 . S
H2151 C2157 0.950 . S
H2152 C2158 0.949 . S
C2153 H2148 0.950 . S
C2153 C2155 1.327 . S
C2153 C2159 1.429 . S
C2154 C2146 1.574 . S
C2154 H2149 0.949 . S
C2154 C2160 1.368 . S
C2155 C2139 1.349 . S
C2155 H2147 0.950 . S
C2155 C2153 1.327 . S
C2156 C2144 1.349 . S
C2156 H2150 0.950 . S
C2156 C2157 1.327 . S
C2157 H2151 0.950 . S
C2157 C2156 1.327 . S
C2157 C2161 1.429 . S
C2158 C2141 1.574 . S
C2158 H2152 0.949 . S
C2158 C2162 1.368 . S
C2159 C2140 1.429 . S
C2159 C2153 1.429 . S
C2159 C2160 1.523 . S
C2160 C2141 1.368 . S
C2160 C2154 1.368 . S
C2160 C2159 1.523 . S
C2161 C2145 1.429 . S
C2161 C2157 1.429 . S
C2161 C2162 1.523 . S
C2162 C2146 1.368 . S
C2162 C2158 1.368 . S
C2162 C2161 1.523 . S
H2163 C2138 0.950 . S
H2164 C2140 0.950 . S
H2165 C2141 0.949 . S
H2166 C2143 0.950 . S
H2167 C2145 0.950 . S
C2168 C2169 1.349 . S
C2168 C2170 1.327 . S
C2168 H2193 0.950 . S
C2169 C2168 1.349 . S
C2169 C2185 1.349 . S
C2170 C2168 1.327 . S
C2170 C2189 1.429 . S
C2170 H2194 0.950 . S
C2171 C2188 1.574 1_556 S
C2171 C2190 1.368 . S
C2171 H2195 0.949 . S
H2172 C2176 0.949 . S
C2173 C2174 1.349 . S
C2173 C2175 1.327 . S
C2173 H2196 0.950 . S
C2174 C2173 1.349 . S
C2174 C2186 1.349 . S
C2175 C2173 1.327 . S
C2175 C2191 1.429 . S
C2175 H2197 0.950 . S
C2176 H2172 0.949 . S
C2176 C2184 1.574 1_554 S
C2176 C2192 1.368 . S
H2177 C2185 0.950 . S
H2178 C2183 0.950 . S
H2179 C2184 0.949 . S
H2180 C2186 0.950 . S
H2181 C2187 0.950 . S
H2182 C2188 0.949 . S
C2183 H2178 0.950 . S
C2183 C2185 1.327 . S
C2183 C2189 1.429 . S
C2184 C2176 1.574 1_556 S
C2184 H2179 0.949 . S
C2184 C2190 1.368 . S
C2185 C2169 1.349 . S
C2185 H2177 0.950 . S
C2185 C2183 1.327 . S
C2186 C2174 1.349 . S
C2186 H2180 0.950 . S
C2186 C2187 1.327 . S
C2187 H2181 0.950 . S
C2187 C2186 1.327 . S
C2187 C2191 1.429 . S
C2188 C2171 1.574 1_554 S
C2188 H2182 0.949 . S
C2188 C2192 1.368 . S
C2189 C2170 1.429 . S
C2189 C2183 1.429 . S
C2189 C2190 1.523 . S
C2190 C2171 1.368 . S
C2190 C2184 1.368 . S
C2190 C2189 1.523 . S
C2191 C2175 1.429 . S
C2191 C2187 1.429 . S
C2191 C2192 1.523 . S
C2192 C2176 1.368 . S
C2192 C2188 1.368 . S
C2192 C2191 1.523 . S
H2193 C2168 0.950 . S
H2194 C2170 0.950 . S
H2195 C2171 0.949 . S
H2196 C2173 0.950 . S
H2197 C2175 0.950 . S
C2198 C2199 1.349 . S
C2198 C2200 1.327 . S
C2198 H2223 0.950 . S
C2199 C2198 1.349 . S
C2199 C2215 1.349 . S
C2200 C2198 1.327 . S
C2200 C2219 1.429 . S
C2200 H2224 0.950 . S
C2201 C2218 1.574 . S
C2201 C2220 1.368 . S
C2201 H2225 0.949 . S
H2202 C2206 0.949 . S
C2203 C2204 1.349 . S
C2203 C2205 1.327 . S
C2203 H2226 0.950 . S
C2204 C2203 1.349 . S
C2204 C2216 1.349 . S
C2205 C2203 1.327 . S
C2205 C2221 1.429 . S
C2205 H2227 0.950 . S
C2206 H2202 0.949 . S
C2206 C2214 1.574 . S
C2206 C2222 1.368 . S
H2207 C2215 0.950 . S
H2208 C2213 0.950 . S
H2209 C2214 0.949 . S
H2210 C2216 0.950 . S
H2211 C2217 0.950 . S
H2212 C2218 0.949 . S
C2213 H2208 0.950 . S
C2213 C2215 1.327 . S
C2213 C2219 1.429 . S
C2214 C2206 1.574 . S
C2214 H2209 0.949 . S
C2214 C2220 1.368 . S
C2215 C2199 1.349 . S
C2215 H2207 0.950 . S
C2215 C2213 1.327 . S
C2216 C2204 1.349 . S
C2216 H2210 0.950 . S
C2216 C2217 1.327 . S
C2217 H2211 0.950 . S
C2217 C2216 1.327 . S
C2217 C2221 1.429 . S
C2218 C2201 1.574 . S
C2218 H2212 0.949 . S
C2218 C2222 1.368 . S
C2219 C2200 1.429 . S
C2219 C2213 1.429 . S
C2219 C2220 1.523 . S
C2220 C2201 1.368 . S
C2220 C2214 1.368 . S
C2220 C2219 1.523 . S
C2221 C2205 1.429 . S
C2221 C2217 1.429 . S
C2221 C2222 1.523 . S
C2222 C2206 1.368 . S
C2222 C2218 1.368 . S
C2222 C2221 1.523 . S
H2223 C2198 0.950 . S
H2224 C2200 0.950 . S
H2225 C2201 0.949 . S
H2226 C2203 0.950 . S
H2227 C2205 0.950 . S
C2228 C2229 1.349 . S
C2228 C2230 1.327 . S
C2228 H2253 0.950 . S
C2229 C2228 1.349 . S
C2229 C2245 1.349 . S
C2230 C2228 1.327 . S
C2230 C2249 1.429 . S
C2230 H2254 0.950 . S
C2231 C2248 1.574 . S
C2231 C2250 1.368 . S
C2231 H2255 0.949 . S
H2232 C2236 0.949 . S
C2233 C2234 1.349 . S
C2233 C2235 1.327 . S
C2233 H2256 0.950 . S
C2234 C2233 1.349 . S
C2234 C2246 1.349 . S
C2235 C2233 1.327 . S
C2235 C2251 1.429 . S
C2235 H2257 0.950 . S
C2236 H2232 0.949 . S
C2236 C2244 1.574 . S
C2236 C2252 1.368 . S
H2237 C2245 0.950 . S
H2238 C2243 0.950 . S
H2239 C2244 0.949 . S
H2240 C2246 0.950 . S
H2241 C2247 0.950 . S
H2242 C2248 0.949 . S
C2243 H2238 0.950 . S
C2243 C2245 1.327 . S
C2243 C2249 1.429 . S
C2244 C2236 1.574 . S
C2244 H2239 0.949 . S
C2244 C2250 1.368 . S
C2245 C2229 1.349 . S
C2245 H2237 0.950 . S
C2245 C2243 1.327 . S
C2246 C2234 1.349 . S
C2246 H2240 0.950 . S
C2246 C2247 1.327 . S
C2247 H2241 0.950 . S
C2247 C2246 1.327 . S
C2247 C2251 1.429 . S
C2248 C2231 1.574 . S
C2248 H2242 0.949 . S
C2248 C2252 1.368 . S
C2249 C2230 1.429 . S
C2249 C2243 1.429 . S
C2249 C2250 1.523 . S
C2250 C2231 1.368 . S
C2250 C2244 1.368 . S
C2250 C2249 1.523 . S
C2251 C2235 1.429 . S
C2251 C2247 1.429 . S
C2251 C2252 1.523 . S
C2252 C2236 1.368 . S
C2252 C2248 1.368 . S
C2252 C2251 1.523 . S
H2253 C2228 0.950 . S
H2254 C2230 0.950 . S
H2255 C2231 0.949 . S
H2256 C2233 0.950 . S
H2257 C2235 0.950 . S
C2258 C2259 1.349 . S
C2258 C2260 1.327 . S
C2258 H2283 0.950 . S
C2259 C2258 1.349 . S
C2259 C2275 1.349 . S
C2260 C2258 1.327 . S
C2260 C2279 1.429 . S
C2260 H2284 0.950 . S
C2261 C2278 1.574 . S
C2261 C2280 1.368 . S
C2261 H2285 0.949 . S
H2262 C2266 0.949 . S
C2263 C2264 1.349 1_556 S
C2263 C2265 1.327 . S
C2263 H2286 0.950 . S
C2264 C2263 1.349 1_554 S
C2264 C2276 1.349 1_554 S
C2265 C2263 1.327 . S
C2265 C2281 1.429 . S
C2265 H2287 0.950 . S
C2266 H2262 0.949 . S
C2266 C2274 1.574 . S
C2266 C2282 1.368 . S
H2267 C2275 0.950 . S
H2268 C2273 0.950 . S
H2269 C2274 0.949 . S
H2270 C2276 0.950 1_554 S
H2271 C2277 0.950 . S
H2272 C2278 0.949 . S
C2273 H2268 0.950 . S
C2273 C2275 1.327 . S
C2273 C2279 1.429 . S
C2274 C2266 1.574 . S
C2274 H2269 0.949 . S
C2274 C2280 1.368 . S
C2275 C2259 1.349 . S
C2275 H2267 0.950 . S
C2275 C2273 1.327 . S
C2276 C2264 1.349 1_556 S
C2276 H2270 0.950 1_556 S
C2276 C2277 1.327 . S
C2277 H2271 0.950 . S
C2277 C2276 1.327 . S
C2277 C2281 1.429 . S
C2278 C2261 1.574 . S
C2278 H2272 0.949 . S
C2278 C2282 1.368 . S
C2279 C2260 1.429 . S
C2279 C2273 1.429 . S
C2279 C2280 1.523 . S
C2280 C2261 1.368 . S
C2280 C2274 1.368 . S
C2280 C2279 1.523 . S
C2281 C2265 1.429 . S
C2281 C2277 1.429 . S
C2281 C2282 1.523 . S
C2282 C2266 1.368 . S
C2282 C2278 1.368 . S
C2282 C2281 1.523 . S
H2283 C2258 0.950 . S
H2284 C2260 0.950 . S
H2285 C2261 0.949 . S
H2286 C2263 0.950 . S
H2287 C2265 0.950 . S
C2288 C2289 1.349 . S
C2288 C2290 1.327 . S
C2288 H2313 0.950 . S
C2289 C2288 1.349 . S
C2289 C2305 1.349 . S
C2290 C2288 1.327 . S
C2290 C2309 1.429 . S
C2290 H2314 0.950 . S
C2291 C2308 1.574 1_556 S
C2291 C2310 1.368 . S
C2291 H2315 0.949 . S
H2292 C2296 0.949 . S
C2293 C2294 1.349 . S
C2293 C2295 1.327 . S
C2293 H2316 0.950 . S
C2294 C2293 1.349 . S
C2294 C2306 1.349 . S
C2295 C2293 1.327 . S
C2295 C2311 1.429 . S
C2295 H2317 0.950 . S
C2296 H2292 0.949 . S
C2296 C2304 1.574 1_554 S
C2296 C2312 1.368 . S
H2297 C2305 0.950 . S
H2298 C2303 0.950 . S
H2299 C2304 0.949 . S
H2300 C2306 0.950 . S
H2301 C2307 0.950 . S
H2302 C2308 0.949 . S
C2303 H2298 0.950 . S
C2303 C2305 1.327 . S
C2303 C2309 1.429 . S
C2304 C2296 1.574 1_556 S
C2304 H2299 0.949 . S
C2304 C2310 1.368 . S
C2305 C2289 1.349 . S
C2305 H2297 0.950 . S
C2305 C2303 1.327 . S
C2306 C2294 1.349 . S
C2306 H2300 0.950 . S
C2306 C2307 1.327 . S
C2307 H2301 0.950 . S
C2307 C2306 1.327 . S
C2307 C2311 1.429 . S
C2308 C2291 1.574 1_554 S
C2308 H2302 0.949 . S
C2308 C2312 1.368 . S
C2309 C2290 1.429 . S
C2309 C2303 1.429 . S
C2309 C2310 1.523 . S
C2310 C2291 1.368 . S
C2310 C2304 1.368 . S
C2310 C2309 1.523 . S
C2311 C2295 1.429 . S
C2311 C2307 1.429 . S
C2311 C2312 1.523 . S
C2312 C2296 1.368 . S
C2312 C2308 1.368 . S
C2312 C2311 1.523 . S
H2313 C2288 0.950 . S
H2314 C2290 0.950 . S
H2315 C2291 0.949 . S
H2316 C2293 0.950 . S
H2317 C2295 0.950 . S
C2318 C2319 1.349 . S
C2318 C2320 1.327 . S
C2318 H2343 0.950 . S
C2319 C2318 1.349 . S
C2319 C2335 1.349 . S
C2320 C2318 1.327 . S
C2320 C2339 1.429 . S
C2320 H2344 0.950 . S
C2321 C2338 1.574 . S
C2321 C2340 1.368 . S
C2321 H2345 0.949 . S
H2322 C2326 0.949 . S
C2323 C2324 1.349 1_556 S
C2323 C2325 1.327 . S
C2323 H2346 0.950 1_556 S
C2324 C2323 1.349 1_554 S
C2324 C2336 1.349 1_554 S
C2325 C2323 1.327 . S
C2325 C2341 1.429 . S
C2325 H2347 0.950 . S
C2326 H2322 0.949 . S
C2326 C2334 1.574 . S
C2326 C2342 1.368 . S
H2327 C2335 0.950 . S
H2328 C2333 0.950 . S
H2329 C2334 0.949 . S
H2330 C2336 0.950 1_554 S
H2331 C2337 0.950 . S
H2332 C2338 0.949 . S
C2333 H2328 0.950 . S
C2333 C2335 1.327 . S
C2333 C2339 1.429 . S
C2334 C2326 1.574 . S
C2334 H2329 0.949 . S
C2334 C2340 1.368 . S
C2335 C2319 1.349 . S
C2335 H2327 0.950 . S
C2335 C2333 1.327 . S
C2336 C2324 1.349 1_556 S
C2336 H2330 0.950 1_556 S
C2336 C2337 1.327 . S
C2337 H2331 0.950 . S
C2337 C2336 1.327 . S
C2337 C2341 1.429 . S
C2338 C2321 1.574 . S
C2338 H2332 0.949 . S
C2338 C2342 1.368 . S
C2339 C2320 1.429 . S
C2339 C2333 1.429 . S
C2339 C2340 1.523 . S
C2340 C2321 1.368 . S
C2340 C2334 1.368 . S
C2340 C2339 1.523 . S
C2341 C2325 1.429 . S
C2341 C2337 1.429 . S
C2341 C2342 1.523 . S
C2342 C2326 1.368 . S
C2342 C2338 1.368 . S
C2342 C2341 1.523 . S
H2343 C2318 0.950 . S
H2344 C2320 0.950 . S
H2345 C2321 0.949 . S
H2346 C2323 0.950 1_554 S
H2347 C2325 0.950 . S
C2348 C2349 1.349 . S
C2348 C2350 1.327 . S
C2348 H2373 0.950 . S
C2349 C2348 1.349 . S
C2349 C2365 1.349 . S
C2350 C2348 1.327 . S
C2350 C2369 1.429 . S
C2350 H2374 0.950 . S
C2351 C2368 1.574 . S
C2351 C2370 1.368 . S
C2351 H2375 0.949 . S
H2352 C2356 0.949 . S
C2353 C2354 1.349 . S
C2353 C2355 1.327 . S
C2353 H2376 0.950 . S
C2354 C2353 1.349 . S
C2354 C2366 1.349 . S
C2355 C2353 1.327 . S
C2355 C2371 1.429 . S
C2355 H2377 0.950 . S
C2356 H2352 0.949 . S
C2356 C2364 1.574 . S
C2356 C2372 1.368 . S
H2357 C2365 0.950 . S
H2358 C2363 0.950 . S
H2359 C2364 0.949 . S
H2360 C2366 0.950 . S
H2361 C2367 0.950 . S
H2362 C2368 0.949 . S
C2363 H2358 0.950 . S
C2363 C2365 1.327 . S
C2363 C2369 1.429 . S
C2364 C2356 1.574 . S
C2364 H2359 0.949 . S
C2364 C2370 1.368 . S
C2365 C2349 1.349 . S
C2365 H2357 0.950 . S
C2365 C2363 1.327 . S
C2366 C2354 1.349 . S
C2366 H2360 0.950 . S
C2366 C2367 1.327 . S
C2367 H2361 0.950 . S
C2367 C2366 1.327 . S
C2367 C2371 1.429 . S
C2368 C2351 1.574 . S
C2368 H2362 0.949 . S
C2368 C2372 1.368 . S
C2369 C2350 1.429 . S
C2369 C2363 1.429 . S
C2369 C2370 1.523 . S
C2370 C2351 1.368 . S
C2370 C2364 1.368 . S
C2370 C2369 1.523 . S
C2371 C2355 1.429 . S
C2371 C2367 1.429 . S
C2371 C2372 1.523 . S
C2372 C2356 1.368 . S
C2372 C2368 1.368 . S
C2372 C2371 1.523 . S
H2373 C2348 0.950 . S
H2374 C2350 0.950 . S
H2375 C2351 0.949 . S
H2376 C2353 0.950 . S
H2377 C2355 0.950 . S
C2378 C2379 1.349 . S
C2378 C2380 1.327 . S
C2378 H2403 0.950 . S
C2379 C2378 1.349 . S
C2379 C2395 1.349 . S
C2380 C2378 1.327 . S
C2380 C2399 1.429 . S
C2380 H2404 0.950 . S
C2381 C2398 1.574 . S
C2381 C2400 1.368 . S
C2381 H2405 0.949 . S
H2382 C2386 0.949 . S
C2383 C2384 1.349 . S
C2383 C2385 1.327 . S
C2383 H2406 0.950 . S
C2384 C2383 1.349 . S
C2384 C2396 1.349 . S
C2385 C2383 1.327 . S
C2385 C2401 1.429 . S
C2385 H2407 0.950 . S
C2386 H2382 0.949 . S
C2386 C2394 1.574 . S
C2386 C2402 1.368 . S
H2387 C2395 0.950 . S
H2388 C2393 0.950 . S
H2389 C2394 0.949 . S
H2390 C2396 0.950 . S
H2391 C2397 0.950 . S
H2392 C2398 0.949 . S
C2393 H2388 0.950 . S
C2393 C2395 1.327 . S
C2393 C2399 1.429 . S
C2394 C2386 1.574 . S
C2394 H2389 0.949 . S
C2394 C2400 1.368 . S
C2395 C2379 1.349 . S
C2395 H2387 0.950 . S
C2395 C2393 1.327 . S
C2396 C2384 1.349 . S
C2396 H2390 0.950 . S
C2396 C2397 1.327 . S
C2397 H2391 0.950 . S
C2397 C2396 1.327 . S
C2397 C2401 1.429 . S
C2398 C2381 1.574 . S
C2398 H2392 0.949 . S
C2398 C2402 1.368 . S
C2399 C2380 1.429 . S
C2399 C2393 1.429 . S
C2399 C2400 1.523 . S
C2400 C2381 1.368 . S
C2400 C2394 1.368 . S
C2400 C2399 1.523 . S
C2401 C2385 1.429 . S
C2401 C2397 1.429 . S
C2401 C2402 1.523 . S
C2402 C2386 1.368 . S
C2402 C2398 1.368 . S
C2402 C2401 1.523 . S
H2403 C2378 0.950 . S
H2404 C2380 0.950 . S
H2405 C2381 0.949 . S
H2406 C2383 0.950 . S
H2407 C2385 0.950 . S
C2408 C2409 1.349 . S
C2408 C2410 1.327 . S
C2408 H2433 0.950 . S
C2409 C2408 1.349 . S
C2409 C2425 1.349 . S
C2410 C2408 1.327 . S
C2410 C2429 1.429 . S
C2410 H2434 0.950 . S
C2411 C2428 1.574 1_554 S
C2411 C2430 1.368 . S
C2411 H2435 0.949 . S
H2412 C2416 0.949 . S
C2413 C2414 1.349 . S
C2413 C2415 1.327 . S
C2413 H2436 0.950 . S
C2414 C2413 1.349 . S
C2414 C2426 1.349 . S
C2415 C2413 1.327 . S
C2415 C2431 1.429 . S
C2415 H2437 0.950 . S
C2416 H2412 0.949 . S
C2416 C2424 1.574 1_556 S
C2416 C2432 1.368 . S
H2417 C2425 0.950 . S
H2418 C2423 0.950 . S
H2419 C2424 0.949 . S
H2420 C2426 0.950 . S
H2421 C2427 0.950 . S
H2422 C2428 0.949 . S
C2423 H2418 0.950 . S
C2423 C2425 1.327 . S
C2423 C2429 1.429 . S
C2424 C2416 1.574 1_554 S
C2424 H2419 0.949 . S
C2424 C2430 1.368 . S
C2425 C2409 1.349 . S
C2425 H2417 0.950 . S
C2425 C2423 1.327 . S
C2426 C2414 1.349 . S
C2426 H2420 0.950 . S
C2426 C2427 1.327 . S
C2427 H2421 0.950 . S
C2427 C2426 1.327 . S
C2427 C2431 1.429 . S
C2428 C2411 1.574 1_556 S
C2428 H2422 0.949 . S
C2428 C2432 1.368 . S
C2429 C2410 1.429 . S
C2429 C2423 1.429 . S
C2429 C2430 1.523 . S
C2430 C2411 1.368 . S
C2430 C2424 1.368 . S
C2430 C2429 1.523 . S
C2431 C2415 1.429 . S
C2431 C2427 1.429 . S
C2431 C2432 1.523 . S
C2432 C2416 1.368 . S
C2432 C2428 1.368 . S
C2432 C2431 1.523 . S
H2433 C2408 0.950 . S
H2434 C2410 0.950 . S
H2435 C2411 0.949 . S
H2436 C2413 0.950 . S
H2437 C2415 0.950 . S
C2438 C2439 1.349 . S
C2438 C2440 1.327 . S
C2438 H2463 0.950 . S
C2439 C2438 1.349 . S
C2439 C2455 1.349 . S
C2440 C2438 1.327 . S
C2440 C2459 1.429 . S
C2440 H2464 0.950 . S
C2441 C2458 1.574 . S
C2441 C2460 1.368 . S
C2441 H2465 0.949 . S
H2442 C2446 0.949 . S
C2443 C2444 1.349 . S
C2443 C2445 1.327 . S
C2443 H2466 0.950 . S
C2444 C2443 1.349 . S
C2444 C2456 1.349 . S
C2445 C2443 1.327 . S
C2445 C2461 1.429 . S
C2445 H2467 0.950 . S
C2446 H2442 0.949 . S
C2446 C2454 1.574 . S
C2446 C2462 1.368 . S
H2447 C2455 0.950 . S
H2448 C2453 0.950 . S
H2449 C2454 0.949 . S
H2450 C2456 0.950 . S
H2451 C2457 0.950 . S
H2452 C2458 0.949 . S
C2453 H2448 0.950 . S
C2453 C2455 1.327 . S
C2453 C2459 1.429 . S
C2454 C2446 1.574 . S
C2454 H2449 0.949 . S
C2454 C2460 1.368 . S
C2455 C2439 1.349 . S
C2455 H2447 0.950 . S
C2455 C2453 1.327 . S
C2456 C2444 1.349 . S
C2456 H2450 0.950 . S
C2456 C2457 1.327 . S
C2457 H2451 0.950 . S
C2457 C2456 1.327 . S
C2457 C2461 1.429 . S
C2458 C2441 1.574 . S
C2458 H2452 0.949 . S
C2458 C2462 1.368 . S
C2459 C2440 1.429 . S
C2459 C2453 1.429 . S
C2459 C2460 1.523 . S
C2460 C2441 1.368 . S
C2460 C2454 1.368 . S
C2460 C2459 1.523 . S
C2461 C2445 1.429 . S
C2461 C2457 1.429 . S
C2461 C2462 1.523 . S
C2462 C2446 1.368 . S
C2462 C2458 1.368 . S
C2462 C2461 1.523 . S
H2463 C2438 0.950 . S
H2464 C2440 0.950 . S
H2465 C2441 0.949 . S
H2466 C2443 0.950 . S
H2467 C2445 0.950 . S
C2468 C2469 1.349 . S
C2468 C2470 1.327 . S
C2468 H2493 0.950 . S
C2469 C2468 1.349 . S
C2469 C2485 1.349 . S
C2470 C2468 1.327 . S
C2470 C2489 1.429 . S
C2470 H2494 0.950 . S
C2471 C2488 1.574 . S
C2471 C2490 1.368 . S
C2471 H2495 0.949 . S
H2472 C2476 0.949 . S
C2473 C2474 1.349 . S
C2473 C2475 1.327 . S
C2473 H2496 0.950 . S
C2474 C2473 1.349 . S
C2474 C2486 1.349 . S
C2475 C2473 1.327 . S
C2475 C2491 1.429 . S
C2475 H2497 0.950 . S
C2476 H2472 0.949 . S
C2476 C2484 1.574 . S
C2476 C2492 1.368 . S
H2477 C2485 0.950 . S
H2478 C2483 0.950 . S
H2479 C2484 0.949 . S
H2480 C2486 0.950 . S
H2481 C2487 0.950 . S
H2482 C2488 0.949 . S
C2483 H2478 0.950 . S
C2483 C2485 1.327 . S
C2483 C2489 1.429 . S
C2484 C2476 1.574 . S
C2484 H2479 0.949 . S
C2484 C2490 1.368 . S
C2485 C2469 1.349 . S
C2485 H2477 0.950 . S
C2485 C2483 1.327 . S
C2486 C2474 1.349 . S
C2486 H2480 0.950 . S
C2486 C2487 1.327 . S
C2487 H2481 0.950 . S
C2487 C2486 1.327 . S
C2487 C2491 1.429 . S
C2488 C2471 1.574 . S
C2488 H2482 0.949 . S
C2488 C2492 1.368 . S
C2489 C2470 1.429 . S
C2489 C2483 1.429 . S
C2489 C2490 1.523 . S
C2490 C2471 1.368 . S
C2490 C2484 1.368 . S
C2490 C2489 1.523 . S
C2491 C2475 1.429 . S
C2491 C2487 1.429 . S
C2491 C2492 1.523 . S
C2492 C2476 1.368 . S
C2492 C2488 1.368 . S
C2492 C2491 1.523 . S
H2493 C2468 0.950 . S
H2494 C2470 0.950 . S
H2495 C2471 0.949 . S
H2496 C2473 0.950 . S
H2497 C2475 0.950 . S
C2498 C2499 1.349 1_554 S
C2498 C2500 1.327 . S
C2498 H2523 0.950 . S
C2499 C2498 1.349 1_556 S
C2499 C2515 1.349 1_556 S
C2500 C2498 1.327 . S
C2500 C2519 1.429 . S
C2500 H2524 0.950 . S
C2501 C2518 1.574 . S
C2501 C2520 1.368 . S
C2501 H2525 0.949 . S
H2502 C2506 0.949 . S
C2503 C2504 1.349 . S
C2503 C2505 1.327 . S
C2503 H2526 0.950 . S
C2504 C2503 1.349 . S
C2504 C2516 1.349 . S
C2505 C2503 1.327 . S
C2505 C2521 1.429 . S
C2505 H2527 0.950 . S
C2506 H2502 0.949 . S
C2506 C2514 1.574 . S
C2506 C2522 1.368 . S
H2507 C2515 0.950 1_556 S
H2508 C2513 0.950 . S
H2509 C2514 0.949 . S
H2510 C2516 0.950 . S
H2511 C2517 0.950 . S
H2512 C2518 0.949 . S
C2513 H2508 0.950 . S
C2513 C2515 1.327 . S
C2513 C2519 1.429 . S
C2514 C2506 1.574 . S
C2514 H2509 0.949 . S
C2514 C2520 1.368 . S
C2515 C2499 1.349 1_554 S
C2515 H2507 0.950 1_554 S
C2515 C2513 1.327 . S
C2516 C2504 1.349 . S
C2516 H2510 0.950 . S
C2516 C2517 1.327 . S
C2517 H2511 0.950 . S
C2517 C2516 1.327 . S
C2517 C2521 1.429 . S
C2518 C2501 1.574 . S
C2518 H2512 0.949 . S
C2518 C2522 1.368 . S
C2519 C2500 1.429 . S
C2519 C2513 1.429 . S
C2519 C2520 1.523 . S
C2520 C2501 1.368 . S
C2520 C2514 1.368 . S
C2520 C2519 1.523 . S
C2521 C2505 1.429 . S
C2521 C2517 1.429 . S
C2521 C2522 1.523 . S
C2522 C2506 1.368 . S
C2522 C2518 1.368 . S
C2522 C2521 1.523 . S
H2523 C2498 0.950 . S
H2524 C2500 0.950 . S
H2525 C2501 0.949 . S
H2526 C2503 0.950 . S
H2527 C2505 0.950 . S
C2528 C2529 1.349 . S
C2528 C2530 1.327 . S
C2528 H2553 0.950 . S
C2529 C2528 1.349 . S
C2529 C2545 1.349 . S
C2530 C2528 1.327 . S
C2530 C2549 1.429 . S
C2530 H2554 0.950 . S
C2531 C2548 1.574 . S
C2531 C2550 1.368 . S
C2531 H2555 0.949 . S
H2532 C2536 0.949 . S
C2533 C2534 1.349 . S
C2533 C2535 1.327 . S
C2533 H2556 0.950 . S
C2534 C2533 1.349 . S
C2534 C2546 1.349 . S
C2535 C2533 1.327 . S
C2535 C2551 1.429 . S
C2535 H2557 0.950 . S
C2536 H2532 0.949 . S
C2536 C2544 1.574 . S
C2536 C2552 1.368 . S
H2537 C2545 0.950 . S
H2538 C2543 0.950 . S
H2539 C2544 0.949 . S
H2540 C2546 0.950 . S
H2541 C2547 0.950 . S
H2542 C2548 0.949 . S
C2543 H2538 0.950 . S
C2543 C2545 1.327 . S
C2543 C2549 1.429 . S
C2544 C2536 1.574 . S
C2544 H2539 0.949 . S
C2544 C2550 1.368 . S
C2545 C2529 1.349 . S
C2545 H2537 0.950 . S
C2545 C2543 1.327 . S
C2546 C2534 1.349 . S
C2546 H2540 0.950 . S
C2546 C2547 1.327 . S
C2547 H2541 0.950 . S
C2547 C2546 1.327 . S
C2547 C2551 1.429 . S
C2548 C2531 1.574 . S
C2548 H2542 0.949 . S
C2548 C2552 1.368 . S
C2549 C2530 1.429 . S
C2549 C2543 1.429 . S
C2549 C2550 1.523 . S
C2550 C2531 1.368 . S
C2550 C2544 1.368 . S
C2550 C2549 1.523 . S
C2551 C2535 1.429 . S
C2551 C2547 1.429 . S
C2551 C2552 1.523 . S
C2552 C2536 1.368 . S
C2552 C2548 1.368 . S
C2552 C2551 1.523 . S
H2553 C2528 0.950 . S
H2554 C2530 0.950 . S
H2555 C2531 0.949 . S
H2556 C2533 0.950 . S
H2557 C2535 0.950 . S
C2558 C2559 1.349 . S
C2558 C2560 1.327 . S
C2558 H2583 0.950 . S
C2559 C2558 1.349 . S
C2559 C2575 1.349 . S
C2560 C2558 1.327 . S
C2560 C2579 1.429 . S
C2560 H2584 0.950 . S
C2561 C2578 1.644 . S
C2561 C2580 1.296 1_565 S
C2561 H2585 0.958 . S
H2562 C2566 0.958 . S
C2563 C2564 1.349 . S
C2563 C2565 1.327 . S
C2563 H2586 0.950 . S
C2564 C2563 1.349 . S
C2564 C2576 1.349 . S
C2565 C2563 1.327 . S
C2565 C2581 1.429 . S
C2565 H2587 0.950 . S
C2566 H2562 0.958 . S
C2566 C2574 1.644 . S
C2566 C2582 1.296 1_545 S
H2567 C2575 0.950 . S
H2568 C2573 0.950 . S
H2569 C2574 0.949 . S
H2570 C2576 0.950 . S
H2571 C2577 0.950 . S
H2572 C2578 0.949 . S
C2573 H2568 0.950 . S
C2573 C2575 1.327 . S
C2573 C2579 1.429 . S
C2574 C2566 1.644 . S
C2574 H2569 0.949 . S
C2574 C2580 1.368 . S
C2575 C2559 1.349 . S
C2575 H2567 0.950 . S
C2575 C2573 1.327 . S
C2576 C2564 1.349 . S
C2576 H2570 0.950 . S
C2576 C2577 1.327 . S
C2577 H2571 0.950 . S
C2577 C2576 1.327 . S
C2577 C2581 1.429 . S
C2578 C2561 1.644 . S
C2578 H2572 0.949 . S
C2578 C2582 1.368 . S
C2579 C2560 1.429 . S
C2579 C2573 1.429 . S
C2579 C2580 1.523 . S
C2580 C2561 1.296 1_545 S
C2580 C2574 1.368 . S
C2580 C2579 1.523 . S
C2581 C2565 1.429 . S
C2581 C2577 1.429 . S
C2581 C2582 1.523 . S
C2582 C2566 1.296 1_565 S
C2582 C2578 1.368 . S
C2582 C2581 1.523 . S
H2583 C2558 0.950 . S
H2584 C2560 0.950 . S
H2585 C2561 0.958 . S
H2586 C2563 0.950 . S
H2587 C2565 0.950 . S
C2588 C2589 1.349 . S
C2588 C2590 1.327 . S
C2588 H2613 0.950 . S
C2589 C2588 1.349 . S
C2589 C2605 1.349 . S
C2590 C2588 1.327 . S
C2590 C2609 1.429 . S
C2590 H2614 0.950 . S
C2591 C2608 1.574 . S
C2591 C2610 1.368 . S
C2591 H2615 0.949 . S
H2592 C2596 0.949 . S
C2593 C2594 1.349 . S
C2593 C2595 1.327 . S
C2593 H2616 0.950 . S
C2594 C2593 1.349 . S
C2594 C2606 1.349 . S
C2595 C2593 1.327 . S
C2595 C2611 1.429 . S
C2595 H2617 0.950 . S
C2596 H2592 0.949 . S
C2596 C2604 1.574 . S
C2596 C2612 1.368 . S
H2597 C2605 0.950 . S
H2598 C2603 0.950 . S
H2599 C2604 0.949 . S
H2600 C2606 0.950 . S
H2601 C2607 0.950 . S
H2602 C2608 0.949 . S
C2603 H2598 0.950 . S
C2603 C2605 1.327 . S
C2603 C2609 1.429 . S
C2604 C2596 1.574 . S
C2604 H2599 0.949 . S
C2604 C2610 1.368 . S
C2605 C2589 1.349 . S
C2605 H2597 0.950 . S
C2605 C2603 1.327 . S
C2606 C2594 1.349 . S
C2606 H2600 0.950 . S
C2606 C2607 1.327 . S
C2607 H2601 0.950 . S
C2607 C2606 1.327 . S
C2607 C2611 1.429 . S
C2608 C2591 1.574 . S
C2608 H2602 0.949 . S
C2608 C2612 1.368 . S
C2609 C2590 1.429 . S
C2609 C2603 1.429 . S
C2609 C2610 1.523 . S
C2610 C2591 1.368 . S
C2610 C2604 1.368 . S
C2610 C2609 1.523 . S
C2611 C2595 1.429 . S
C2611 C2607 1.429 . S
C2611 C2612 1.523 . S
C2612 C2596 1.368 . S
C2612 C2608 1.368 . S
C2612 C2611 1.523 . S
H2613 C2588 0.950 . S
H2614 C2590 0.950 . S
H2615 C2591 0.949 . S
H2616 C2593 0.950 . S
H2617 C2595 0.950 . S
C2618 C2619 1.349 . S
C2618 C2620 1.327 . S
C2618 H2643 0.950 . S
C2619 C2618 1.349 . S
C2619 C2635 1.349 . S
C2620 C2618 1.327 . S
C2620 C2639 1.429 . S
C2620 H2644 0.950 . S
C2621 C2638 1.574 . S
C2621 C2640 1.368 1_556 S
C2621 H2645 0.949 . S
H2622 C2626 0.949 . S
C2623 C2624 1.349 . S
C2623 C2625 1.327 . S
C2623 H2646 0.950 . S
C2624 C2623 1.349 . S
C2624 C2636 1.349 . S
C2625 C2623 1.327 . S
C2625 C2641 1.429 . S
C2625 H2647 0.950 . S
C2626 H2622 0.949 . S
C2626 C2634 1.574 . S
C2626 C2642 1.368 1_554 S
H2627 C2635 0.950 . S
H2628 C2633 0.950 . S
H2629 C2634 0.949 . S
H2630 C2636 0.950 . S
H2631 C2637 0.950 . S
H2632 C2638 0.949 . S
C2633 H2628 0.950 . S
C2633 C2635 1.327 . S
C2633 C2639 1.429 . S
C2634 C2626 1.574 . S
C2634 H2629 0.949 . S
C2634 C2640 1.368 1_545 S
C2635 C2619 1.349 . S
C2635 H2627 0.950 . S
C2635 C2633 1.327 . S
C2636 C2624 1.349 . S
C2636 H2630 0.950 . S
C2636 C2637 1.327 . S
C2637 H2631 0.950 . S
C2637 C2636 1.327 . S
C2637 C2641 1.429 . S
C2638 C2621 1.574 . S
C2638 H2632 0.949 . S
C2638 C2642 1.368 1_565 S
C2639 C2620 1.429 . S
C2639 C2633 1.429 . S
C2639 C2640 1.523 . S
C2640 C2621 1.368 1_554 S
C2640 C2634 1.368 1_565 S
C2640 C2639 1.523 . S
C2641 C2625 1.429 . S
C2641 C2637 1.429 . S
C2641 C2642 1.523 . S
C2642 C2626 1.368 1_556 S
C2642 C2638 1.368 1_545 S
C2642 C2641 1.523 . S
H2643 C2618 0.950 . S
H2644 C2620 0.950 . S
H2645 C2621 0.949 . S
H2646 C2623 0.950 . S
H2647 C2625 0.950 . S
C2648 C2649 1.349 . S
C2648 C2650 1.327 . S
C2648 H2673 0.950 . S
C2649 C2648 1.349 . S
C2649 C2665 1.349 . S
C2650 C2648 1.327 . S
C2650 C2669 1.429 . S
C2650 H2674 0.950 . S
C2651 C2668 1.574 . S
C2651 C2670 1.368 . S
C2651 H2675 0.949 . S
H2652 C2656 0.949 . S
C2653 C2654 1.349 . S
C2653 C2655 1.327 . S
C2653 H2676 0.950 . S
C2654 C2653 1.349 . S
C2654 C2666 1.349 . S
C2655 C2653 1.327 . S
C2655 C2671 1.429 . S
C2655 H2677 0.950 . S
C2656 H2652 0.949 . S
C2656 C2664 1.574 . S
C2656 C2672 1.368 . S
H2657 C2665 0.950 . S
H2658 C2663 0.950 . S
H2659 C2664 0.949 . S
H2660 C2666 0.950 . S
H2661 C2667 0.950 . S
H2662 C2668 0.949 . S
C2663 H2658 0.950 . S
C2663 C2665 1.327 . S
C2663 C2669 1.429 . S
C2664 C2656 1.574 . S
C2664 H2659 0.949 . S
C2664 C2670 1.368 . S
C2665 C2649 1.349 . S
C2665 H2657 0.950 . S
C2665 C2663 1.327 . S
C2666 C2654 1.349 . S
C2666 H2660 0.950 . S
C2666 C2667 1.327 . S
C2667 H2661 0.950 . S
C2667 C2666 1.327 . S
C2667 C2671 1.429 . S
C2668 C2651 1.574 . S
C2668 H2662 0.949 . S
C2668 C2672 1.368 . S
C2669 C2650 1.429 . S
C2669 C2663 1.429 . S
C2669 C2670 1.523 . S
C2670 C2651 1.368 . S
C2670 C2664 1.368 . S
C2670 C2669 1.523 . S
C2671 C2655 1.429 . S
C2671 C2667 1.429 . S
C2671 C2672 1.523 . S
C2672 C2656 1.368 . S
C2672 C2668 1.368 . S
C2672 C2671 1.523 . S
H2673 C2648 0.950 . S
H2674 C2650 0.950 . S
H2675 C2651 0.949 . S
H2676 C2653 0.950 . S
H2677 C2655 0.950 . S
C2678 C2679 1.349 . S
C2678 C2680 1.327 . S
C2678 H2703 0.950 . S
C2679 C2678 1.349 . S
C2679 C2695 1.349 . S
C2680 C2678 1.327 . S
C2680 C2699 1.429 . S
C2680 H2704 0.950 . S
C2681 C2698 1.574 1_545 S
C2681 C2700 1.368 . S
C2681 H2705 0.949 . S
H2682 C2686 0.949 . S
C2683 C2684 1.349 . S
C2683 C2685 1.327 . S
C2683 H2706 0.950 . S
C2684 C2683 1.349 . S
C2684 C2696 1.349 . S
C2685 C2683 1.327 . S
C2685 C2701 1.429 . S
C2685 H2707 0.950 . S
C2686 H2682 0.949 . S
C2686 C2694 1.574 1_565 S
C2686 C2702 1.368 . S
H2687 C2695 0.950 . S
H2688 C2693 0.950 . S
H2689 C2694 0.949 . S
H2690 C2696 0.950 . S
H2691 C2697 0.950 . S
H2692 C2698 0.949 . S
C2693 H2688 0.950 . S
C2693 C2695 1.327 . S
C2693 C2699 1.429 . S
C2694 C2686 1.574 1_545 S
C2694 H2689 0.949 . S
C2694 C2700 1.368 . S
C2695 C2679 1.349 . S
C2695 H2687 0.950 . S
C2695 C2693 1.327 . S
C2696 C2684 1.349 . S
C2696 H2690 0.950 . S
C2696 C2697 1.327 . S
C2697 H2691 0.950 . S
C2697 C2696 1.327 . S
C2697 C2701 1.429 . S
C2698 C2681 1.574 1_565 S
C2698 H2692 0.949 . S
C2698 C2702 1.368 . S
C2699 C2680 1.429 . S
C2699 C2693 1.429 . S
C2699 C2700 1.523 . S
C2700 C2681 1.368 . S
C2700 C2694 1.368 . S
C2700 C2699 1.523 . S
C2701 C2685 1.429 . S
C2701 C2697 1.429 . S
C2701 C2702 1.523 . S
C2702 C2686 1.368 . S
C2702 C2698 1.368 . S
C2702 C2701 1.523 . S
H2703 C2678 0.950 . S
H2704 C2680 0.950 . S
H2705 C2681 0.949 . S
H2706 C2683 0.950 . S
H2707 C2685 0.950 . S
C2708 C2709 1.349 . S
C2708 C2710 1.327 . S
C2708 H2733 0.950 . S
C2709 C2708 1.349 . S
C2709 C2725 1.349 . S
C2710 C2708 1.327 . S
C2710 C2729 1.429 . S
C2710 H2734 0.950 . S
C2711 C2728 1.574 . S
C2711 C2730 1.368 . S
C2711 H2735 0.949 . S
H2712 C2716 0.949 . S
C2713 C2714 1.349 . S
C2713 C2715 1.327 . S
C2713 H2736 0.950 . S
C2714 C2713 1.349 . S
C2714 C2726 1.349 . S
C2715 C2713 1.327 . S
C2715 C2731 1.429 . S
C2715 H2737 0.950 . S
C2716 H2712 0.949 . S
C2716 C2724 1.574 . S
C2716 C2732 1.368 . S
H2717 C2725 0.950 . S
H2718 C2723 0.950 . S
H2719 C2724 0.949 . S
H2720 C2726 0.950 . S
H2721 C2727 0.950 . S
H2722 C2728 0.949 . S
C2723 H2718 0.950 . S
C2723 C2725 1.327 . S
C2723 C2729 1.429 . S
C2724 C2716 1.574 . S
C2724 H2719 0.949 . S
C2724 C2730 1.368 . S
C2725 C2709 1.349 . S
C2725 H2717 0.950 . S
C2725 C2723 1.327 . S
C2726 C2714 1.349 . S
C2726 H2720 0.950 . S
C2726 C2727 1.327 . S
C2727 H2721 0.950 . S
C2727 C2726 1.327 . S
C2727 C2731 1.429 . S
C2728 C2711 1.574 . S
C2728 H2722 0.949 . S
C2728 C2732 1.368 . S
C2729 C2710 1.429 . S
C2729 C2723 1.429 . S
C2729 C2730 1.523 . S
C2730 C2711 1.368 . S
C2730 C2724 1.368 . S
C2730 C2729 1.523 . S
C2731 C2715 1.429 . S
C2731 C2727 1.429 . S
C2731 C2732 1.523 . S
C2732 C2716 1.368 . S
C2732 C2728 1.368 . S
C2732 C2731 1.523 . S
H2733 C2708 0.950 . S
H2734 C2710 0.950 . S
H2735 C2711 0.949 . S
H2736 C2713 0.950 . S
H2737 C2715 0.950 . S
C2738 C2739 1.349 . S
C2738 C2740 1.327 . S
C2738 H2763 0.950 . S
C2739 C2738 1.349 . S
C2739 C2755 1.349 . S
C2740 C2738 1.327 . S
C2740 C2759 1.429 . S
C2740 H2764 0.950 . S
C2741 C2758 1.574 1_546 S
C2741 C2760 1.368 . S
C2741 H2765 0.949 . S
H2742 C2746 0.949 . S
C2743 C2744 1.349 . S
C2743 C2745 1.327 . S
C2743 H2766 0.950 . S
C2744 C2743 1.349 . S
C2744 C2756 1.349 . S
C2745 C2743 1.327 . S
C2745 C2761 1.429 . S
C2745 H2767 0.950 . S
C2746 H2742 0.949 . S
C2746 C2754 1.574 1_564 S
C2746 C2762 1.368 . S
H2747 C2755 0.950 . S
H2748 C2753 0.950 . S
H2749 C2754 0.949 . S
H2750 C2756 0.950 . S
H2751 C2757 0.950 . S
H2752 C2758 0.949 . S
C2753 H2748 0.950 . S
C2753 C2755 1.327 . S
C2753 C2759 1.429 . S
C2754 C2746 1.574 1_546 S
C2754 H2749 0.949 . S
C2754 C2760 1.368 . S
C2755 C2739 1.349 . S
C2755 H2747 0.950 . S
C2755 C2753 1.327 . S
C2756 C2744 1.349 . S
C2756 H2750 0.950 . S
C2756 C2757 1.327 . S
C2757 H2751 0.950 . S
C2757 C2756 1.327 . S
C2757 C2761 1.429 . S
C2758 C2741 1.574 1_564 S
C2758 H2752 0.949 . S
C2758 C2762 1.368 . S
C2759 C2740 1.429 . S
C2759 C2753 1.429 . S
C2759 C2760 1.523 . S
C2760 C2741 1.368 . S
C2760 C2754 1.368 . S
C2760 C2759 1.523 . S
C2761 C2745 1.429 . S
C2761 C2757 1.429 . S
C2761 C2762 1.523 . S
C2762 C2746 1.368 . S
C2762 C2758 1.368 . S
C2762 C2761 1.523 . S
H2763 C2738 0.950 . S
H2764 C2740 0.950 . S
H2765 C2741 0.949 . S
H2766 C2743 0.950 . S
H2767 C2745 0.950 . S
C2768 C2769 1.349 . S
C2768 C2770 1.327 . S
C2768 H2793 0.950 . S
C2769 C2768 1.349 . S
C2769 C2785 1.349 . S
C2770 C2768 1.327 . S
C2770 C2789 1.429 . S
C2770 H2794 0.950 . S
C2771 C2788 1.574 . S
C2771 C2790 1.368 . S
C2771 H2795 0.949 . S
H2772 C2776 0.949 . S
C2773 C2774 1.349 . S
C2773 C2775 1.327 . S
C2773 H2796 0.950 . S
C2774 C2773 1.349 . S
C2774 C2786 1.349 . S
C2775 C2773 1.327 . S
C2775 C2791 1.429 . S
C2775 H2797 0.950 . S
C2776 H2772 0.949 . S
C2776 C2784 1.574 . S
C2776 C2792 1.368 . S
H2777 C2785 0.950 . S
H2778 C2783 0.950 . S
H2779 C2784 0.949 . S
H2780 C2786 0.950 . S
H2781 C2787 0.950 . S
H2782 C2788 0.949 . S
C2783 H2778 0.950 . S
C2783 C2785 1.327 . S
C2783 C2789 1.429 . S
C2784 C2776 1.574 . S
C2784 H2779 0.949 . S
C2784 C2790 1.368 . S
C2785 C2769 1.349 . S
C2785 H2777 0.950 . S
C2785 C2783 1.327 . S
C2786 C2774 1.349 . S
C2786 H2780 0.950 . S
C2786 C2787 1.327 . S
C2787 H2781 0.950 . S
C2787 C2786 1.327 . S
C2787 C2791 1.429 . S
C2788 C2771 1.574 . S
C2788 H2782 0.949 . S
C2788 C2792 1.368 . S
C2789 C2770 1.429 . S
C2789 C2783 1.429 . S
C2789 C2790 1.523 . S
C2790 C2771 1.368 . S
C2790 C2784 1.368 . S
C2790 C2789 1.523 . S
C2791 C2775 1.429 . S
C2791 C2787 1.429 . S
C2791 C2792 1.523 . S
C2792 C2776 1.368 . S
C2792 C2788 1.368 . S
C2792 C2791 1.523 . S
H2793 C2768 0.950 . S
H2794 C2770 0.950 . S
H2795 C2771 0.949 . S
H2796 C2773 0.950 . S
H2797 C2775 0.950 . S
C2798 C2799 1.349 . S
C2798 C2800 1.327 . S
C2798 H2823 0.950 . S
C2799 C2798 1.349 . S
C2799 C2815 1.349 . S
C2800 C2798 1.327 . S
C2800 C2819 1.429 . S
C2800 H2824 0.950 . S
C2801 C2818 1.574 1_556 S
C2801 C2820 1.368 . S
C2801 H2825 0.949 . S
H2802 C2806 0.949 . S
C2803 C2804 1.349 . S
C2803 C2805 1.327 . S
C2803 H2826 0.950 . S
C2804 C2803 1.349 . S
C2804 C2816 1.349 . S
C2805 C2803 1.327 . S
C2805 C2821 1.429 . S
C2805 H2827 0.950 . S
C2806 H2802 0.949 . S
C2806 C2814 1.574 1_554 S
C2806 C2822 1.368 . S
H2807 C2815 0.950 . S
H2808 C2813 0.950 . S
H2809 C2814 0.949 . S
H2810 C2816 0.950 . S
H2811 C2817 0.950 . S
H2812 C2818 0.949 . S
C2813 H2808 0.950 . S
C2813 C2815 1.327 . S
C2813 C2819 1.429 . S
C2814 C2806 1.574 1_556 S
C2814 H2809 0.949 . S
C2814 C2820 1.368 . S
C2815 C2799 1.349 . S
C2815 H2807 0.950 . S
C2815 C2813 1.327 . S
C2816 C2804 1.349 . S
C2816 H2810 0.950 . S
C2816 C2817 1.327 . S
C2817 H2811 0.950 . S
C2817 C2816 1.327 . S
C2817 C2821 1.429 . S
C2818 C2801 1.574 1_554 S
C2818 H2812 0.949 . S
C2818 C2822 1.368 . S
C2819 C2800 1.429 . S
C2819 C2813 1.429 . S
C2819 C2820 1.523 . S
C2820 C2801 1.368 . S
C2820 C2814 1.368 . S
C2820 C2819 1.523 . S
C2821 C2805 1.429 . S
C2821 C2817 1.429 . S
C2821 C2822 1.523 . S
C2822 C2806 1.368 . S
C2822 C2818 1.368 . S
C2822 C2821 1.523 . S
H2823 C2798 0.950 . S
H2824 C2800 0.950 . S
H2825 C2801 0.949 . S
H2826 C2803 0.950 . S
H2827 C2805 0.950 . S
C2828 C2829 1.349 . S
C2828 C2830 1.327 . S
C2828 H2853 0.950 . S
C2829 C2828 1.349 . S
C2829 C2845 1.349 . S
C2830 C2828 1.327 . S
C2830 C2849 1.429 . S
C2830 H2854 0.950 . S
C2831 C2848 1.574 . S
C2831 C2850 1.368 . S
C2831 H2855 0.949 . S
H2832 C2836 0.949 . S
C2833 C2834 1.349 . S
C2833 C2835 1.327 . S
C2833 H2856 0.950 . S
C2834 C2833 1.349 . S
C2834 C2846 1.349 . S
C2835 C2833 1.327 . S
C2835 C2851 1.429 . S
C2835 H2857 0.950 . S
C2836 H2832 0.949 . S
C2836 C2844 1.574 . S
C2836 C2852 1.368 . S
H2837 C2845 0.950 . S
H2838 C2843 0.950 . S
H2839 C2844 0.949 . S
H2840 C2846 0.950 . S
H2841 C2847 0.950 . S
H2842 C2848 0.949 . S
C2843 H2838 0.950 . S
C2843 C2845 1.327 . S
C2843 C2849 1.429 . S
C2844 C2836 1.574 . S
C2844 H2839 0.949 . S
C2844 C2850 1.368 . S
C2845 C2829 1.349 . S
C2845 H2837 0.950 . S
C2845 C2843 1.327 . S
C2846 C2834 1.349 . S
C2846 H2840 0.950 . S
C2846 C2847 1.327 . S
C2847 H2841 0.950 . S
C2847 C2846 1.327 . S
C2847 C2851 1.429 . S
C2848 C2831 1.574 . S
C2848 H2842 0.949 . S
C2848 C2852 1.368 . S
C2849 C2830 1.429 . S
C2849 C2843 1.429 . S
C2849 C2850 1.523 . S
C2850 C2831 1.368 . S
C2850 C2844 1.368 . S
C2850 C2849 1.523 . S
C2851 C2835 1.429 . S
C2851 C2847 1.429 . S
C2851 C2852 1.523 . S
C2852 C2836 1.368 . S
C2852 C2848 1.368 . S
C2852 C2851 1.523 . S
H2853 C2828 0.950 . S
H2854 C2830 0.950 . S
H2855 C2831 0.949 . S
H2856 C2833 0.950 . S
H2857 C2835 0.950 . S
C2858 C2859 1.349 . S
C2858 C2860 1.327 . S
C2858 H2883 0.950 . S
C2859 C2858 1.349 . S
C2859 C2875 1.349 . S
C2860 C2858 1.327 . S
C2860 C2879 1.429 . S
C2860 H2884 0.950 . S
C2861 C2878 1.574 . S
C2861 C2880 1.368 . S
C2861 H2885 0.949 . S
H2862 C2866 0.949 . S
C2863 C2864 1.349 . S
C2863 C2865 1.327 . S
C2863 H2886 0.950 . S
C2864 C2863 1.349 . S
C2864 C2876 1.349 . S
C2865 C2863 1.327 . S
C2865 C2881 1.429 . S
C2865 H2887 0.950 . S
C2866 H2862 0.949 . S
C2866 C2874 1.574 . S
C2866 C2882 1.368 . S
H2867 C2875 0.950 . S
H2868 C2873 0.950 . S
H2869 C2874 0.949 . S
H2870 C2876 0.950 . S
H2871 C2877 0.950 . S
H2872 C2878 0.949 . S
C2873 H2868 0.950 . S
C2873 C2875 1.327 . S
C2873 C2879 1.429 . S
C2874 C2866 1.574 . S
C2874 H2869 0.949 . S
C2874 C2880 1.368 . S
C2875 C2859 1.349 . S
C2875 H2867 0.950 . S
C2875 C2873 1.327 . S
C2876 C2864 1.349 . S
C2876 H2870 0.950 . S
C2876 C2877 1.327 . S
C2877 H2871 0.950 . S
C2877 C2876 1.327 . S
C2877 C2881 1.429 . S
C2878 C2861 1.574 . S
C2878 H2872 0.949 . S
C2878 C2882 1.368 . S
C2879 C2860 1.429 . S
C2879 C2873 1.429 . S
C2879 C2880 1.523 . S
C2880 C2861 1.368 . S
C2880 C2874 1.368 . S
C2880 C2879 1.523 . S
C2881 C2865 1.429 . S
C2881 C2877 1.429 . S
C2881 C2882 1.523 . S
C2882 C2866 1.368 . S
C2882 C2878 1.368 . S
C2882 C2881 1.523 . S
H2883 C2858 0.950 . S
H2884 C2860 0.950 . S
H2885 C2861 0.949 . S
H2886 C2863 0.950 . S
H2887 C2865 0.950 . S
C2888 C2889 1.349 . S
C2888 C2890 1.327 . S
C2888 H2913 0.950 . S
C2889 C2888 1.349 . S
C2889 C2905 1.349 . S
C2890 C2888 1.327 . S
C2890 C2909 1.429 . S
C2890 H2914 0.950 . S
C2891 C2908 1.574 . S
C2891 C2910 1.368 . S
C2891 H2915 0.949 . S
H2892 C2896 0.949 . S
C2893 C2894 1.349 . S
C2893 C2895 1.327 . S
C2893 H2916 0.950 . S
C2894 C2893 1.349 . S
C2894 C2906 1.349 . S
C2895 C2893 1.327 . S
C2895 C2911 1.429 . S
C2895 H2917 0.950 . S
C2896 H2892 0.949 . S
C2896 C2904 1.574 . S
C2896 C2912 1.368 . S
H2897 C2905 0.950 . S
H2898 C2903 0.950 . S
H2899 C2904 0.949 . S
H2900 C2906 0.950 . S
H2901 C2907 0.950 . S
H2902 C2908 0.949 . S
C2903 H2898 0.950 . S
C2903 C2905 1.327 . S
C2903 C2909 1.429 . S
C2904 C2896 1.574 . S
C2904 H2899 0.949 . S
C2904 C2910 1.368 . S
C2905 C2889 1.349 . S
C2905 H2897 0.950 . S
C2905 C2903 1.327 . S
C2906 C2894 1.349 . S
C2906 H2900 0.950 . S
C2906 C2907 1.327 . S
C2907 H2901 0.950 . S
C2907 C2906 1.327 . S
C2907 C2911 1.429 . S
C2908 C2891 1.574 . S
C2908 H2902 0.949 . S
C2908 C2912 1.368 . S
C2909 C2890 1.429 . S
C2909 C2903 1.429 . S
C2909 C2910 1.523 . S
C2910 C2891 1.368 . S
C2910 C2904 1.368 . S
C2910 C2909 1.523 . S
C2911 C2895 1.429 . S
C2911 C2907 1.429 . S
C2911 C2912 1.523 . S
C2912 C2896 1.368 . S
C2912 C2908 1.368 . S
C2912 C2911 1.523 . S
H2913 C2888 0.950 . S
H2914 C2890 0.950 . S
H2915 C2891 0.949 . S
H2916 C2893 0.950 . S
H2917 C2895 0.950 . S
C2918 C2919 1.349 . S
C2918 C2920 1.327 . S
C2918 H2943 0.950 . S
C2919 C2918 1.349 . S
C2919 C2935 1.349 . S
C2920 C2918 1.327 . S
C2920 C2939 1.429 . S
C2920 H2944 0.950 . S
C2921 C2938 1.574 . S
C2921 C2940 1.368 1_554 S
C2921 H2945 0.949 . S
H2922 C2926 0.949 . S
C2923 C2924 1.349 . S
C2923 C2925 1.327 . S
C2923 H2946 0.950 . S
C2924 C2923 1.349 . S
C2924 C2936 1.349 . S
C2925 C2923 1.327 . S
C2925 C2941 1.429 . S
C2925 H2947 0.950 . S
C2926 H2922 0.949 . S
C2926 C2934 1.574 . S
C2926 C2942 1.368 1_556 S
H2927 C2935 0.950 . S
H2928 C2933 0.950 . S
H2929 C2934 0.949 . S
H2930 C2936 0.950 . S
H2931 C2937 0.950 . S
H2932 C2938 0.949 . S
C2933 H2928 0.950 . S
C2933 C2935 1.327 . S
C2933 C2939 1.429 . S
C2934 C2926 1.574 . S
C2934 H2929 0.949 . S
C2934 C2940 1.368 . S
C2935 C2919 1.349 . S
C2935 H2927 0.950 . S
C2935 C2933 1.327 . S
C2936 C2924 1.349 . S
C2936 H2930 0.950 . S
C2936 C2937 1.327 . S
C2937 H2931 0.950 . S
C2937 C2936 1.327 . S
C2937 C2941 1.429 . S
C2938 C2921 1.574 . S
C2938 H2932 0.949 . S
C2938 C2942 1.368 . S
C2939 C2920 1.429 . S
C2939 C2933 1.429 . S
C2939 C2940 1.523 . S
C2940 C2921 1.368 1_556 S
C2940 C2934 1.368 . S
C2940 C2939 1.523 . S
C2941 C2925 1.429 . S
C2941 C2937 1.429 . S
C2941 C2942 1.523 . S
C2942 C2926 1.368 1_554 S
C2942 C2938 1.368 . S
C2942 C2941 1.523 . S
H2943 C2918 0.950 . S
H2944 C2920 0.950 . S
H2945 C2921 0.949 . S
H2946 C2923 0.950 . S
H2947 C2925 0.950 . S
C2948 C2949 1.349 . S
C2948 C2950 1.327 . S
C2948 H2973 0.950 . S
C2949 C2948 1.349 . S
C2949 C2965 1.349 . S
C2950 C2948 1.327 . S
C2950 C2969 1.429 . S
C2950 H2974 0.950 . S
C2951 C2968 1.574 . S
C2951 C2970 1.368 . S
C2951 H2975 0.949 . S
H2952 C2956 0.949 . S
C2953 C2954 1.349 . S
C2953 C2955 1.327 . S
C2953 H2976 0.950 . S
C2954 C2953 1.349 . S
C2954 C2966 1.349 . S
C2955 C2953 1.327 . S
C2955 C2971 1.429 . S
C2955 H2977 0.950 . S
C2956 H2952 0.949 . S
C2956 C2964 1.574 . S
C2956 C2972 1.368 . S
H2957 C2965 0.950 . S
H2958 C2963 0.950 . S
H2959 C2964 0.949 . S
H2960 C2966 0.950 . S
H2961 C2967 0.950 . S
H2962 C2968 0.949 . S
C2963 H2958 0.950 . S
C2963 C2965 1.327 . S
C2963 C2969 1.429 . S
C2964 C2956 1.574 . S
C2964 H2959 0.949 . S
C2964 C2970 1.368 . S
C2965 C2949 1.349 . S
C2965 H2957 0.950 . S
C2965 C2963 1.327 . S
C2966 C2954 1.349 . S
C2966 H2960 0.950 . S
C2966 C2967 1.327 . S
C2967 H2961 0.950 . S
C2967 C2966 1.327 . S
C2967 C2971 1.429 . S
C2968 C2951 1.574 . S
C2968 H2962 0.949 . S
C2968 C2972 1.368 . S
C2969 C2950 1.429 . S
C2969 C2963 1.429 . S
C2969 C2970 1.523 . S
C2970 C2951 1.368 . S
C2970 C2964 1.368 . S
C2970 C2969 1.523 . S
C2971 C2955 1.429 . S
C2971 C2967 1.429 . S
C2971 C2972 1.523 . S
C2972 C2956 1.368 . S
C2972 C2968 1.368 . S
C2972 C2971 1.523 . S
H2973 C2948 0.950 . S
H2974 C2950 0.950 . S
H2975 C2951 0.949 . S
H2976 C2953 0.950 . S
H2977 C2955 0.950 . S
C2978 C2979 1.349 . S
C2978 C2980 1.327 . S
C2978 H3003 0.950 . S
C2979 C2978 1.349 . S
C2979 C2995 1.349 . S
C2980 C2978 1.327 . S
C2980 C2999 1.429 . S
C2980 H3004 0.950 . S
C2981 C2998 1.574 . S
C2981 C3000 1.368 . S
C2981 H3005 0.949 . S
H2982 C2986 0.949 . S
C2983 C2984 1.349 . S
C2983 C2985 1.327 . S
C2983 H3006 0.950 . S
C2984 C2983 1.349 . S
C2984 C2996 1.349 . S
C2985 C2983 1.327 . S
C2985 C3001 1.429 . S
C2985 H3007 0.950 . S
C2986 H2982 0.949 . S
C2986 C2994 1.574 . S
C2986 C3002 1.368 . S
H2987 C2995 0.950 . S
H2988 C2993 0.950 . S
H2989 C2994 0.949 . S
H2990 C2996 0.950 . S
H2991 C2997 0.950 . S
H2992 C2998 0.949 . S
C2993 H2988 0.950 . S
C2993 C2995 1.327 . S
C2993 C2999 1.429 . S
C2994 C2986 1.574 . S
C2994 H2989 0.949 . S
C2994 C3000 1.368 . S
C2995 C2979 1.349 . S
C2995 H2987 0.950 . S
C2995 C2993 1.327 . S
C2996 C2984 1.349 . S
C2996 H2990 0.950 . S
C2996 C2997 1.327 . S
C2997 H2991 0.950 . S
C2997 C2996 1.327 . S
C2997 C3001 1.429 . S
C2998 C2981 1.574 . S
C2998 H2992 0.949 . S
C2998 C3002 1.368 . S
C2999 C2980 1.429 . S
C2999 C2993 1.429 . S
C2999 C3000 1.523 . S
C3000 C2981 1.368 . S
C3000 C2994 1.368 . S
C3000 C2999 1.523 . S
C3001 C2985 1.429 . S
C3001 C2997 1.429 . S
C3001 C3002 1.523 . S
C3002 C2986 1.368 . S
C3002 C2998 1.368 . S
C3002 C3001 1.523 . S
H3003 C2978 0.950 . S
H3004 C2980 0.950 . S
H3005 C2981 0.949 . S
H3006 C2983 0.950 . S
H3007 C2985 0.950 . S
C3008 C3009 1.349 1_554 S
C3008 C3010 1.327 1_554 S
C3008 H3033 0.950 . S
C3009 C3008 1.349 1_556 S
C3009 C3025 1.349 . S
C3010 C3008 1.327 1_556 S
C3010 C3029 1.429 . S
C3010 H3034 0.950 1_556 S
C3011 C3028 1.574 . S
C3011 C3030 1.368 . S
C3011 H3035 0.949 . S
H3012 C3016 0.949 . S
C3013 C3014 1.349 . S
C3013 C3015 1.327 . S
C3013 H3036 0.950 . S
C3014 C3013 1.349 . S
C3014 C3026 1.349 . S
C3015 C3013 1.327 . S
C3015 C3031 1.429 . S
C3015 H3037 0.950 . S
C3016 H3012 0.949 . S
C3016 C3024 1.574 . S
C3016 C3032 1.368 . S
H3017 C3025 0.950 . S
H3018 C3023 0.950 . S
H3019 C3024 0.949 . S
H3020 C3026 0.950 . S
H3021 C3027 0.950 . S
H3022 C3028 0.949 . S
C3023 H3018 0.950 . S
C3023 C3025 1.327 . S
C3023 C3029 1.429 . S
C3024 C3016 1.574 . S
C3024 H3019 0.949 . S
C3024 C3030 1.368 . S
C3025 C3009 1.349 . S
C3025 H3017 0.950 . S
C3025 C3023 1.327 . S
C3026 C3014 1.349 . S
C3026 H3020 0.950 . S
C3026 C3027 1.327 . S
C3027 H3021 0.950 . S
C3027 C3026 1.327 . S
C3027 C3031 1.429 . S
C3028 C3011 1.574 . S
C3028 H3022 0.949 . S
C3028 C3032 1.368 . S
C3029 C3010 1.429 . S
C3029 C3023 1.429 . S
C3029 C3030 1.523 . S
C3030 C3011 1.368 . S
C3030 C3024 1.368 . S
C3030 C3029 1.523 . S
C3031 C3015 1.429 . S
C3031 C3027 1.429 . S
C3031 C3032 1.523 . S
C3032 C3016 1.368 . S
C3032 C3028 1.368 . S
C3032 C3031 1.523 . S
H3033 C3008 0.950 . S
H3034 C3010 0.950 1_554 S
H3035 C3011 0.949 . S
H3036 C3013 0.950 . S
H3037 C3015 0.950 . S
C3038 C3039 1.349 . S
C3038 C3040 1.327 . S
C3038 H3063 0.950 . S
C3039 C3038 1.349 . S
C3039 C3055 1.349 1_554 S
C3040 C3038 1.327 . S
C3040 C3059 1.429 . S
C3040 H3064 0.950 . S
C3041 C3058 1.574 . S
C3041 C3060 1.368 . S
C3041 H3065 0.949 . S
H3042 C3046 0.949 . S
C3043 C3044 1.349 . S
C3043 C3045 1.327 . S
C3043 H3066 0.950 . S
C3044 C3043 1.349 . S
C3044 C3056 1.349 . S
C3045 C3043 1.327 . S
C3045 C3061 1.429 . S
C3045 H3067 0.950 . S
C3046 H3042 0.949 . S
C3046 C3054 1.574 . S
C3046 C3062 1.368 . S
H3047 C3055 0.950 . S
H3048 C3053 0.950 1_556 S
H3049 C3054 0.949 . S
H3050 C3056 0.950 . S
H3051 C3057 0.950 . S
H3052 C3058 0.949 . S
C3053 H3048 0.950 1_554 S
C3053 C3055 1.327 1_554 S
C3053 C3059 1.429 . S
C3054 C3046 1.574 . S
C3054 H3049 0.949 . S
C3054 C3060 1.368 . S
C3055 C3039 1.349 1_556 S
C3055 H3047 0.950 . S
C3055 C3053 1.327 1_556 S
C3056 C3044 1.349 . S
C3056 H3050 0.950 . S
C3056 C3057 1.327 . S
C3057 H3051 0.950 . S
C3057 C3056 1.327 . S
C3057 C3061 1.429 . S
C3058 C3041 1.574 . S
C3058 H3052 0.949 . S
C3058 C3062 1.368 . S
C3059 C3040 1.429 . S
C3059 C3053 1.429 . S
C3059 C3060 1.523 . S
C3060 C3041 1.368 . S
C3060 C3054 1.368 . S
C3060 C3059 1.523 . S
C3061 C3045 1.429 . S
C3061 C3057 1.429 . S
C3061 C3062 1.523 . S
C3062 C3046 1.368 . S
C3062 C3058 1.368 . S
C3062 C3061 1.523 . S
H3063 C3038 0.950 . S
H3064 C3040 0.950 . S
H3065 C3041 0.949 . S
H3066 C3043 0.950 . S
H3067 C3045 0.950 . S
C3068 C3069 1.349 . S
C3068 C3070 1.327 . S
C3068 H3093 0.950 . S
C3069 C3068 1.349 . S
C3069 C3085 1.349 . S
C3070 C3068 1.327 . S
C3070 C3089 1.429 . S
C3070 H3094 0.950 . S
C3071 C3088 1.574 . S
C3071 C3090 1.368 . S
C3071 H3095 0.949 . S
H3072 C3076 0.949 . S
C3073 C3074 1.349 . S
C3073 C3075 1.327 . S
C3073 H3096 0.950 . S
C3074 C3073 1.349 . S
C3074 C3086 1.349 . S
C3075 C3073 1.327 . S
C3075 C3091 1.429 . S
C3075 H3097 0.950 . S
C3076 H3072 0.949 . S
C3076 C3084 1.574 . S
C3076 C3092 1.368 . S
H3077 C3085 0.950 . S
H3078 C3083 0.950 . S
H3079 C3084 0.949 . S
H3080 C3086 0.950 . S
H3081 C3087 0.950 . S
H3082 C3088 0.949 . S
C3083 H3078 0.950 . S
C3083 C3085 1.327 . S
C3083 C3089 1.429 . S
C3084 C3076 1.574 . S
C3084 H3079 0.949 . S
C3084 C3090 1.368 . S
C3085 C3069 1.349 . S
C3085 H3077 0.950 . S
C3085 C3083 1.327 . S
C3086 C3074 1.349 . S
C3086 H3080 0.950 . S
C3086 C3087 1.327 . S
C3087 H3081 0.950 . S
C3087 C3086 1.327 . S
C3087 C3091 1.429 . S
C3088 C3071 1.574 . S
C3088 H3082 0.949 . S
C3088 C3092 1.368 . S
C3089 C3070 1.429 . S
C3089 C3083 1.429 . S
C3089 C3090 1.523 . S
C3090 C3071 1.368 . S
C3090 C3084 1.368 . S
C3090 C3089 1.523 . S
C3091 C3075 1.429 . S
C3091 C3087 1.429 . S
C3091 C3092 1.523 . S
C3092 C3076 1.368 . S
C3092 C3088 1.368 . S
C3092 C3091 1.523 . S
H3093 C3068 0.950 . S
H3094 C3070 0.950 . S
H3095 C3071 0.949 . S
H3096 C3073 0.950 . S
H3097 C3075 0.950 . S
C3098 C3099 1.349 . S
C3098 C3100 1.327 . S
C3098 H3123 0.950 . S
C3099 C3098 1.349 . S
C3099 C3115 1.349 . S
C3100 C3098 1.327 . S
C3100 C3119 1.429 . S
C3100 H3124 0.950 . S
C3101 C3118 1.574 . S
C3101 C3120 1.368 . S
C3101 H3125 0.949 . S
H3102 C3106 0.949 . S
C3103 C3104 1.349 . S
C3103 C3105 1.327 . S
C3103 H3126 0.950 . S
C3104 C3103 1.349 . S
C3104 C3116 1.349 . S
C3105 C3103 1.327 . S
C3105 C3121 1.429 . S
C3105 H3127 0.950 . S
C3106 H3102 0.949 . S
C3106 C3114 1.574 . S
C3106 C3122 1.368 . S
H3107 C3115 0.950 . S
H3108 C3113 0.950 . S
H3109 C3114 0.949 . S
H3110 C3116 0.950 . S
H3111 C3117 0.950 . S
H3112 C3118 0.949 . S
C3113 H3108 0.950 . S
C3113 C3115 1.327 . S
C3113 C3119 1.429 . S
C3114 C3106 1.574 . S
C3114 H3109 0.949 . S
C3114 C3120 1.368 . S
C3115 C3099 1.349 . S
C3115 H3107 0.950 . S
C3115 C3113 1.327 . S
C3116 C3104 1.349 . S
C3116 H3110 0.950 . S
C3116 C3117 1.327 . S
C3117 H3111 0.950 . S
C3117 C3116 1.327 . S
C3117 C3121 1.429 . S
C3118 C3101 1.574 . S
C3118 H3112 0.949 . S
C3118 C3122 1.368 . S
C3119 C3100 1.429 . S
C3119 C3113 1.429 . S
C3119 C3120 1.523 . S
C3120 C3101 1.368 . S
C3120 C3114 1.368 . S
C3120 C3119 1.523 . S
C3121 C3105 1.429 . S
C3121 C3117 1.429 . S
C3121 C3122 1.523 . S
C3122 C3106 1.368 . S
C3122 C3118 1.368 . S
C3122 C3121 1.523 . S
H3123 C3098 0.950 . S
H3124 C3100 0.950 . S
H3125 C3101 0.949 . S
H3126 C3103 0.950 . S
H3127 C3105 0.950 . S
C3128 C3129 1.349 . S
C3128 C3130 1.327 . S
C3128 H3153 0.950 . S
C3129 C3128 1.349 . S
C3129 C3145 1.349 . S
C3130 C3128 1.327 . S
C3130 C3149 1.429 . S
C3130 H3154 0.950 . S
C3131 C3148 1.574 . S
C3131 C3150 1.368 . S
C3131 H3155 0.949 . S
H3132 C3136 0.949 . S
C3133 C3134 1.349 . S
C3133 C3135 1.327 . S
C3133 H3156 0.950 . S
C3134 C3133 1.349 . S
C3134 C3146 1.349 . S
C3135 C3133 1.327 . S
C3135 C3151 1.429 . S
C3135 H3157 0.950 . S
C3136 H3132 0.949 . S
C3136 C3144 1.574 . S
C3136 C3152 1.368 . S
H3137 C3145 0.950 . S
H3138 C3143 0.950 . S
H3139 C3144 0.949 . S
H3140 C3146 0.950 . S
H3141 C3147 0.950 . S
H3142 C3148 0.949 . S
C3143 H3138 0.950 . S
C3143 C3145 1.327 . S
C3143 C3149 1.429 . S
C3144 C3136 1.574 . S
C3144 H3139 0.949 . S
C3144 C3150 1.368 . S
C3145 C3129 1.349 . S
C3145 H3137 0.950 . S
C3145 C3143 1.327 . S
C3146 C3134 1.349 . S
C3146 H3140 0.950 . S
C3146 C3147 1.327 . S
C3147 H3141 0.950 . S
C3147 C3146 1.327 . S
C3147 C3151 1.429 . S
C3148 C3131 1.574 . S
C3148 H3142 0.949 . S
C3148 C3152 1.368 . S
C3149 C3130 1.429 . S
C3149 C3143 1.429 . S
C3149 C3150 1.523 . S
C3150 C3131 1.368 . S
C3150 C3144 1.368 . S
C3150 C3149 1.523 . S
C3151 C3135 1.429 . S
C3151 C3147 1.429 . S
C3151 C3152 1.523 . S
C3152 C3136 1.368 . S
C3152 C3148 1.368 . S
C3152 C3151 1.523 . S
H3153 C3128 0.950 . S
H3154 C3130 0.950 . S
H3155 C3131 0.949 . S
H3156 C3133 0.950 . S
H3157 C3135 0.950 . S
C3158 C3159 1.349 1_554 S
C3158 C3160 1.327 1_554 S
C3158 H3183 0.950 . S
C3159 C3158 1.349 1_556 S
C3159 C3175 1.349 . S
C3160 C3158 1.327 1_556 S
C3160 C3179 1.429 . S
C3160 H3184 0.950 1_556 S
C3161 C3178 1.574 . S
C3161 C3180 1.368 . S
C3161 H3185 0.949 . S
H3162 C3166 0.949 . S
C3163 C3164 1.349 . S
C3163 C3165 1.327 . S
C3163 H3186 0.950 . S
C3164 C3163 1.349 . S
C3164 C3176 1.349 . S
C3165 C3163 1.327 . S
C3165 C3181 1.429 . S
C3165 H3187 0.950 . S
C3166 H3162 0.949 . S
C3166 C3174 1.574 . S
C3166 C3182 1.368 . S
H3167 C3175 0.950 . S
H3168 C3173 0.950 . S
H3169 C3174 0.949 . S
H3170 C3176 0.950 . S
H3171 C3177 0.950 . S
H3172 C3178 0.949 . S
C3173 H3168 0.950 . S
C3173 C3175 1.327 . S
C3173 C3179 1.429 . S
C3174 C3166 1.574 . S
C3174 H3169 0.949 . S
C3174 C3180 1.368 . S
C3175 C3159 1.349 . S
C3175 H3167 0.950 . S
C3175 C3173 1.327 . S
C3176 C3164 1.349 . S
C3176 H3170 0.950 . S
C3176 C3177 1.327 . S
C3177 H3171 0.950 . S
C3177 C3176 1.327 . S
C3177 C3181 1.429 . S
C3178 C3161 1.574 . S
C3178 H3172 0.949 . S
C3178 C3182 1.368 . S
C3179 C3160 1.429 . S
C3179 C3173 1.429 . S
C3179 C3180 1.523 . S
C3180 C3161 1.368 . S
C3180 C3174 1.368 . S
C3180 C3179 1.523 . S
C3181 C3165 1.429 . S
C3181 C3177 1.429 . S
C3181 C3182 1.523 . S
C3182 C3166 1.368 . S
C3182 C3178 1.368 . S
C3182 C3181 1.523 . S
H3183 C3158 0.950 . S
H3184 C3160 0.950 1_554 S
H3185 C3161 0.949 . S
H3186 C3163 0.950 . S
H3187 C3165 0.950 . S
C3188 C3189 1.349 . S
C3188 C3190 1.327 . S
C3188 H3213 0.950 . S
C3189 C3188 1.349 . S
C3189 C3205 1.349 . S
C3190 C3188 1.327 . S
C3190 C3209 1.429 . S
C3190 H3214 0.950 . S
C3191 C3208 1.574 . S
C3191 C3210 1.368 . S
C3191 H3215 0.949 . S
H3192 C3196 0.949 . S
C3193 C3194 1.349 . S
C3193 C3195 1.327 . S
C3193 H3216 0.950 . S
C3194 C3193 1.349 . S
C3194 C3206 1.349 . S
C3195 C3193 1.327 . S
C3195 C3211 1.429 . S
C3195 H3217 0.950 . S
C3196 H3192 0.949 . S
C3196 C3204 1.574 . S
C3196 C3212 1.368 . S
H3197 C3205 0.950 . S
H3198 C3203 0.950 . S
H3199 C3204 0.949 . S
H3200 C3206 0.950 . S
H3201 C3207 0.950 . S
H3202 C3208 0.949 . S
C3203 H3198 0.950 . S
C3203 C3205 1.327 . S
C3203 C3209 1.429 . S
C3204 C3196 1.574 . S
C3204 H3199 0.949 . S
C3204 C3210 1.368 . S
C3205 C3189 1.349 . S
C3205 H3197 0.950 . S
C3205 C3203 1.327 . S
C3206 C3194 1.349 . S
C3206 H3200 0.950 . S
C3206 C3207 1.327 . S
C3207 H3201 0.950 . S
C3207 C3206 1.327 . S
C3207 C3211 1.429 . S
C3208 C3191 1.574 . S
C3208 H3202 0.949 . S
C3208 C3212 1.368 . S
C3209 C3190 1.429 . S
C3209 C3203 1.429 . S
C3209 C3210 1.523 . S
C3210 C3191 1.368 . S
C3210 C3204 1.368 . S
C3210 C3209 1.523 . S
C3211 C3195 1.429 . S
C3211 C3207 1.429 . S
C3211 C3212 1.523 . S
C3212 C3196 1.368 . S
C3212 C3208 1.368 . S
C3212 C3211 1.523 . S
H3213 C3188 0.950 . S
H3214 C3190 0.950 . S
H3215 C3191 0.949 . S
H3216 C3193 0.950 . S
H3217 C3195 0.950 . S
C3218 C3219 1.349 . S
C3218 C3220 1.327 . S
C3218 H3243 0.950 . S
C3219 C3218 1.349 . S
C3219 C3235 1.349 . S
C3220 C3218 1.327 . S
C3220 C3239 1.429 . S
C3220 H3244 0.950 . S
C3221 C3238 1.574 . S
C3221 C3240 1.368 . S
C3221 H3245 0.949 . S
H3222 C3226 0.949 . S
C3223 C3224 1.349 . S
C3223 C3225 1.327 . S
C3223 H3246 0.950 . S
C3224 C3223 1.349 . S
C3224 C3236 1.349 . S
C3225 C3223 1.327 . S
C3225 C3241 1.429 . S
C3225 H3247 0.950 . S
C3226 H3222 0.949 . S
C3226 C3234 1.574 . S
C3226 C3242 1.368 . S
H3227 C3235 0.950 . S
H3228 C3233 0.950 . S
H3229 C3234 0.949 . S
H3230 C3236 0.950 . S
H3231 C3237 0.950 . S
H3232 C3238 0.949 . S
C3233 H3228 0.950 . S
C3233 C3235 1.327 . S
C3233 C3239 1.429 . S
C3234 C3226 1.574 . S
C3234 H3229 0.949 . S
C3234 C3240 1.368 . S
C3235 C3219 1.349 . S
C3235 H3227 0.950 . S
C3235 C3233 1.327 . S
C3236 C3224 1.349 . S
C3236 H3230 0.950 . S
C3236 C3237 1.327 . S
C3237 H3231 0.950 . S
C3237 C3236 1.327 . S
C3237 C3241 1.429 . S
C3238 C3221 1.574 . S
C3238 H3232 0.949 . S
C3238 C3242 1.368 . S
C3239 C3220 1.429 . S
C3239 C3233 1.429 . S
C3239 C3240 1.523 . S
C3240 C3221 1.368 . S
C3240 C3234 1.368 . S
C3240 C3239 1.523 . S
C3241 C3225 1.429 . S
C3241 C3237 1.429 . S
C3241 C3242 1.523 . S
C3242 C3226 1.368 . S
C3242 C3238 1.368 . S
C3242 C3241 1.523 . S
H3243 C3218 0.950 . S
H3244 C3220 0.950 . S
H3245 C3221 0.949 . S
H3246 C3223 0.950 . S
H3247 C3225 0.950 . S
C3248 C3249 1.349 . S
C3248 C3250 1.327 . S
C3248 H3273 0.950 . S
C3249 C3248 1.349 . S
C3249 C3265 1.349 . S
C3250 C3248 1.327 . S
C3250 C3269 1.429 . S
C3250 H3274 0.950 . S
C3251 C3268 1.574 . S
C3251 C3270 1.368 . S
C3251 H3275 0.949 . S
H3252 C3256 0.949 . S
C3253 C3254 1.349 . S
C3253 C3255 1.327 . S
C3253 H3276 0.950 . S
C3254 C3253 1.349 . S
C3254 C3266 1.349 . S
C3255 C3253 1.327 . S
C3255 C3271 1.429 . S
C3255 H3277 0.950 . S
C3256 H3252 0.949 . S
C3256 C3264 1.574 . S
C3256 C3272 1.368 . S
H3257 C3265 0.950 . S
H3258 C3263 0.950 . S
H3259 C3264 0.949 . S
H3260 C3266 0.950 . S
H3261 C3267 0.950 . S
H3262 C3268 0.949 . S
C3263 H3258 0.950 . S
C3263 C3265 1.327 . S
C3263 C3269 1.429 . S
C3264 C3256 1.574 . S
C3264 H3259 0.949 . S
C3264 C3270 1.368 . S
C3265 C3249 1.349 . S
C3265 H3257 0.950 . S
C3265 C3263 1.327 . S
C3266 C3254 1.349 . S
C3266 H3260 0.950 . S
C3266 C3267 1.327 . S
C3267 H3261 0.950 . S
C3267 C3266 1.327 . S
C3267 C3271 1.429 . S
C3268 C3251 1.574 . S
C3268 H3262 0.949 . S
C3268 C3272 1.368 . S
C3269 C3250 1.429 . S
C3269 C3263 1.429 . S
C3269 C3270 1.523 . S
C3270 C3251 1.368 . S
C3270 C3264 1.368 . S
C3270 C3269 1.523 . S
C3271 C3255 1.429 . S
C3271 C3267 1.429 . S
C3271 C3272 1.523 . S
C3272 C3256 1.368 . S
C3272 C3268 1.368 . S
C3272 C3271 1.523 . S
H3273 C3248 0.950 . S
H3274 C3250 0.950 . S
H3275 C3251 0.949 . S
H3276 C3253 0.950 . S
H3277 C3255 0.950 . S
C3278 C3279 1.349 . S
C3278 C3280 1.327 . S
C3278 H3303 0.950 . S
C3279 C3278 1.349 . S
C3279 C3295 1.349 . S
C3280 C3278 1.327 . S
C3280 C3299 1.429 . S
C3280 H3304 0.950 . S
C3281 C3298 1.574 . S
C3281 C3300 1.368 . S
C3281 H3305 0.949 . S
H3282 C3286 0.949 . S
C3283 C3284 1.349 . S
C3283 C3285 1.327 . S
C3283 H3306 0.950 . S
C3284 C3283 1.349 . S
C3284 C3296 1.349 . S
C3285 C3283 1.327 . S
C3285 C3301 1.429 . S
C3285 H3307 0.950 . S
C3286 H3282 0.949 . S
C3286 C3294 1.574 . S
C3286 C3302 1.368 . S
H3287 C3295 0.950 . S
H3288 C3293 0.950 . S
H3289 C3294 0.949 . S
H3290 C3296 0.950 . S
H3291 C3297 0.950 . S
H3292 C3298 0.949 . S
C3293 H3288 0.950 . S
C3293 C3295 1.327 . S
C3293 C3299 1.429 . S
C3294 C3286 1.574 . S
C3294 H3289 0.949 . S
C3294 C3300 1.368 . S
C3295 C3279 1.349 . S
C3295 H3287 0.950 . S
C3295 C3293 1.327 . S
C3296 C3284 1.349 . S
C3296 H3290 0.950 . S
C3296 C3297 1.327 . S
C3297 H3291 0.950 . S
C3297 C3296 1.327 . S
C3297 C3301 1.429 . S
C3298 C3281 1.574 . S
C3298 H3292 0.949 . S
C3298 C3302 1.368 . S
C3299 C3280 1.429 . S
C3299 C3293 1.429 . S
C3299 C3300 1.523 . S
C3300 C3281 1.368 . S
C3300 C3294 1.368 . S
C3300 C3299 1.523 . S
C3301 C3285 1.429 . S
C3301 C3297 1.429 . S
C3301 C3302 1.523 . S
C3302 C3286 1.368 . S
C3302 C3298 1.368 . S
C3302 C3301 1.523 . S
H3303 C3278 0.950 . S
H3304 C3280 0.950 . S
H3305 C3281 0.949 . S
H3306 C3283 0.950 . S
H3307 C3285 0.950 . S
C3308 C3309 1.349 . S
C3308 C3310 1.327 . S
C3308 H3333 0.950 . S
C3309 C3308 1.349 . S
C3309 C3325 1.349 . S
C3310 C3308 1.327 . S
C3310 C3329 1.429 . S
C3310 H3334 0.950 . S
C3311 C3328 1.574 . S
C3311 C3330 1.368 . S
C3311 H3335 0.949 . S
H3312 C3316 0.949 . S
C3313 C3314 1.349 1_554 S
C3313 C3315 1.327 1_554 S
C3313 H3336 0.950 . S
C3314 C3313 1.349 1_556 S
C3314 C3326 1.349 . S
C3315 C3313 1.327 1_556 S
C3315 C3331 1.429 . S
C3315 H3337 0.950 1_556 S
C3316 H3312 0.949 . S
C3316 C3324 1.574 . S
C3316 C3332 1.368 . S
H3317 C3325 0.950 . S
H3318 C3323 0.950 . S
H3319 C3324 0.949 . S
H3320 C3326 0.950 . S
H3321 C3327 0.950 . S
H3322 C3328 0.949 . S
C3323 H3318 0.950 . S
C3323 C3325 1.327 . S
C3323 C3329 1.429 . S
C3324 C3316 1.574 . S
C3324 H3319 0.949 . S
C3324 C3330 1.368 . S
C3325 C3309 1.349 . S
C3325 H3317 0.950 . S
C3325 C3323 1.327 . S
C3326 C3314 1.349 . S
C3326 H3320 0.950 . S
C3326 C3327 1.327 . S
C3327 H3321 0.950 . S
C3327 C3326 1.327 . S
C3327 C3331 1.429 . S
C3328 C3311 1.574 . S
C3328 H3322 0.949 . S
C3328 C3332 1.368 . S
C3329 C3310 1.429 . S
C3329 C3323 1.429 . S
C3329 C3330 1.523 . S
C3330 C3311 1.368 . S
C3330 C3324 1.368 . S
C3330 C3329 1.523 . S
C3331 C3315 1.429 . S
C3331 C3327 1.429 . S
C3331 C3332 1.523 . S
C3332 C3316 1.368 . S
C3332 C3328 1.368 . S
C3332 C3331 1.523 . S
H3333 C3308 0.950 . S
H3334 C3310 0.950 . S
H3335 C3311 0.949 . S
H3336 C3313 0.950 . S
H3337 C3315 0.950 1_554 S
C3338 C3339 1.349 . S
C3338 C3340 1.327 . S
C3338 H3363 0.950 . S
C3339 C3338 1.349 . S
C3339 C3355 1.349 . S
C3340 C3338 1.327 . S
C3340 C3359 1.429 . S
C3340 H3364 0.950 . S
C3341 C3358 1.574 . S
C3341 C3360 1.368 . S
C3341 H3365 0.949 . S
H3342 C3346 0.949 . S
C3343 C3344 1.349 . S
C3343 C3345 1.327 . S
C3343 H3366 0.950 . S
C3344 C3343 1.349 . S
C3344 C3356 1.349 . S
C3345 C3343 1.327 . S
C3345 C3361 1.429 . S
C3345 H3367 0.950 . S
C3346 H3342 0.949 . S
C3346 C3354 1.574 . S
C3346 C3362 1.368 . S
H3347 C3355 0.950 . S
H3348 C3353 0.950 . S
H3349 C3354 0.949 . S
H3350 C3356 0.950 1_556 S
H3351 C3357 0.950 . S
H3352 C3358 0.949 . S
C3353 H3348 0.950 . S
C3353 C3355 1.327 . S
C3353 C3359 1.429 . S
C3354 C3346 1.574 . S
C3354 H3349 0.949 . S
C3354 C3360 1.368 . S
C3355 C3339 1.349 . S
C3355 H3347 0.950 . S
C3355 C3353 1.327 . S
C3356 C3344 1.349 . S
C3356 H3350 0.950 1_554 S
C3356 C3357 1.327 . S
C3357 H3351 0.950 . S
C3357 C3356 1.327 . S
C3357 C3361 1.429 . S
C3358 C3341 1.574 . S
C3358 H3352 0.949 . S
C3358 C3362 1.368 . S
C3359 C3340 1.429 . S
C3359 C3353 1.429 . S
C3359 C3360 1.523 . S
C3360 C3341 1.368 . S
C3360 C3354 1.368 . S
C3360 C3359 1.523 . S
C3361 C3345 1.429 . S
C3361 C3357 1.429 . S
C3361 C3362 1.523 . S
C3362 C3346 1.368 . S
C3362 C3358 1.368 . S
C3362 C3361 1.523 . S
H3363 C3338 0.950 . S
H3364 C3340 0.950 . S
H3365 C3341 0.949 . S
H3366 C3343 0.950 . S
H3367 C3345 0.950 . S
C3368 C3369 1.349 . S
C3368 C3370 1.327 . S
C3368 H3393 0.950 . S
C3369 C3368 1.349 . S
C3369 C3385 1.349 . S
C3370 C3368 1.327 . S
C3370 C3389 1.429 . S
C3370 H3394 0.950 . S
C3371 C3388 1.574 . S
C3371 C3390 1.368 . S
C3371 H3395 0.949 . S
H3372 C3376 0.949 . S
C3373 C3374 1.349 . S
C3373 C3375 1.327 . S
C3373 H3396 0.950 . S
C3374 C3373 1.349 . S
C3374 C3386 1.349 . S
C3375 C3373 1.327 . S
C3375 C3391 1.429 . S
C3375 H3397 0.950 . S
C3376 H3372 0.949 . S
C3376 C3384 1.574 . S
C3376 C3392 1.368 . S
H3377 C3385 0.950 . S
H3378 C3383 0.950 . S
H3379 C3384 0.949 . S
H3380 C3386 0.950 . S
H3381 C3387 0.950 . S
H3382 C3388 0.949 . S
C3383 H3378 0.950 . S
C3383 C3385 1.327 . S
C3383 C3389 1.429 . S
C3384 C3376 1.574 . S
C3384 H3379 0.949 . S
C3384 C3390 1.368 . S
C3385 C3369 1.349 . S
C3385 H3377 0.950 . S
C3385 C3383 1.327 . S
C3386 C3374 1.349 . S
C3386 H3380 0.950 . S
C3386 C3387 1.327 . S
C3387 H3381 0.950 . S
C3387 C3386 1.327 . S
C3387 C3391 1.429 . S
C3388 C3371 1.574 . S
C3388 H3382 0.949 . S
C3388 C3392 1.368 . S
C3389 C3370 1.429 . S
C3389 C3383 1.429 . S
C3389 C3390 1.523 . S
C3390 C3371 1.368 . S
C3390 C3384 1.368 . S
C3390 C3389 1.523 . S
C3391 C3375 1.429 . S
C3391 C3387 1.429 . S
C3391 C3392 1.523 . S
C3392 C3376 1.368 . S
C3392 C3388 1.368 . S
C3392 C3391 1.523 . S
H3393 C3368 0.950 . S
H3394 C3370 0.950 . S
H3395 C3371 0.949 . S
H3396 C3373 0.950 . S
H3397 C3375 0.950 . S
C3398 C3399 1.349 . S
C3398 C3400 1.327 . S
C3398 H3423 0.950 . S
C3399 C3398 1.349 . S
C3399 C3415 1.349 . S
C3400 C3398 1.327 . S
C3400 C3419 1.429 . S
C3400 H3424 0.950 . S
C3401 C3418 1.574 . S
C3401 C3420 1.368 . S
C3401 H3425 0.949 . S
H3402 C3406 0.949 . S
C3403 C3404 1.349 . S
C3403 C3405 1.327 . S
C3403 H3426 0.950 . S
C3404 C3403 1.349 . S
C3404 C3416 1.349 . S
C3405 C3403 1.327 . S
C3405 C3421 1.429 . S
C3405 H3427 0.950 . S
C3406 H3402 0.949 . S
C3406 C3414 1.574 . S
C3406 C3422 1.368 . S
H3407 C3415 0.950 . S
H3408 C3413 0.950 . S
H3409 C3414 0.949 . S
H3410 C3416 0.950 . S
H3411 C3417 0.950 . S
H3412 C3418 0.949 . S
C3413 H3408 0.950 . S
C3413 C3415 1.327 . S
C3413 C3419 1.429 . S
C3414 C3406 1.574 . S
C3414 H3409 0.949 . S
C3414 C3420 1.368 . S
C3415 C3399 1.349 . S
C3415 H3407 0.950 . S
C3415 C3413 1.327 . S
C3416 C3404 1.349 . S
C3416 H3410 0.950 . S
C3416 C3417 1.327 . S
C3417 H3411 0.950 . S
C3417 C3416 1.327 . S
C3417 C3421 1.429 . S
C3418 C3401 1.574 . S
C3418 H3412 0.949 . S
C3418 C3422 1.368 . S
C3419 C3400 1.429 . S
C3419 C3413 1.429 . S
C3419 C3420 1.523 . S
C3420 C3401 1.368 . S
C3420 C3414 1.368 . S
C3420 C3419 1.523 . S
C3421 C3405 1.429 . S
C3421 C3417 1.429 . S
C3421 C3422 1.523 . S
C3422 C3406 1.368 . S
C3422 C3418 1.368 . S
C3422 C3421 1.523 . S
H3423 C3398 0.950 . S
H3424 C3400 0.950 . S
H3425 C3401 0.949 . S
H3426 C3403 0.950 . S
H3427 C3405 0.950 . S
C3428 C3429 1.349 . S
C3428 C3430 1.327 . S
C3428 H3453 0.950 . S
C3429 C3428 1.349 . S
C3429 C3445 1.349 . S
C3430 C3428 1.327 . S
C3430 C3449 1.429 . S
C3430 H3454 0.950 . S
C3431 C3448 1.574 . S
C3431 C3450 1.368 . S
C3431 H3455 0.949 . S
H3432 C3436 0.949 . S
C3433 C3434 1.349 . S
C3433 C3435 1.327 . S
C3433 H3456 0.950 1_554 S
C3434 C3433 1.349 . S
C3434 C3446 1.349 . S
C3435 C3433 1.327 . S
C3435 C3451 1.429 . S
C3435 H3457 0.950 . S
C3436 H3432 0.949 . S
C3436 C3444 1.574 . S
C3436 C3452 1.368 . S
H3437 C3445 0.950 . S
H3438 C3443 0.950 . S
H3439 C3444 0.949 . S
H3440 C3446 0.950 . S
H3441 C3447 0.950 . S
H3442 C3448 0.949 . S
C3443 H3438 0.950 . S
C3443 C3445 1.327 . S
C3443 C3449 1.429 . S
C3444 C3436 1.574 . S
C3444 H3439 0.949 . S
C3444 C3450 1.368 . S
C3445 C3429 1.349 . S
C3445 H3437 0.950 . S
C3445 C3443 1.327 . S
C3446 C3434 1.349 . S
C3446 H3440 0.950 . S
C3446 C3447 1.327 . S
C3447 H3441 0.950 . S
C3447 C3446 1.327 . S
C3447 C3451 1.429 . S
C3448 C3431 1.574 . S
C3448 H3442 0.949 . S
C3448 C3452 1.368 . S
C3449 C3430 1.429 . S
C3449 C3443 1.429 . S
C3449 C3450 1.523 . S
C3450 C3431 1.368 . S
C3450 C3444 1.368 . S
C3450 C3449 1.523 . S
C3451 C3435 1.429 . S
C3451 C3447 1.429 . S
C3451 C3452 1.523 . S
C3452 C3436 1.368 . S
C3452 C3448 1.368 . S
C3452 C3451 1.523 . S
H3453 C3428 0.950 . S
H3454 C3430 0.950 . S
H3455 C3431 0.949 . S
H3456 C3433 0.950 1_556 S
H3457 C3435 0.950 . S
C3458 C3459 1.349 . S
C3458 C3460 1.327 . S
C3458 H3483 0.950 . S
C3459 C3458 1.349 . S
C3459 C3475 1.349 . S
C3460 C3458 1.327 . S
C3460 C3479 1.429 . S
C3460 H3484 0.950 . S
C3461 C3478 1.574 . S
C3461 C3480 1.368 . S
C3461 H3485 0.949 . S
H3462 C3466 0.949 . S
C3463 C3464 1.349 . S
C3463 C3465 1.327 . S
C3463 H3486 0.950 . S
C3464 C3463 1.349 . S
C3464 C3476 1.349 . S
C3465 C3463 1.327 . S
C3465 C3481 1.429 . S
C3465 H3487 0.950 . S
C3466 H3462 0.949 . S
C3466 C3474 1.574 . S
C3466 C3482 1.368 . S
H3467 C3475 0.950 1_554 S
H3468 C3473 0.950 . S
H3469 C3474 0.949 . S
H3470 C3476 0.950 . S
H3471 C3477 0.950 . S
H3472 C3478 0.949 . S
C3473 H3468 0.950 . S
C3473 C3475 1.327 . S
C3473 C3479 1.429 . S
C3474 C3466 1.574 . S
C3474 H3469 0.949 . S
C3474 C3480 1.368 . S
C3475 C3459 1.349 . S
C3475 H3467 0.950 1_556 S
C3475 C3473 1.327 . S
C3476 C3464 1.349 . S
C3476 H3470 0.950 . S
C3476 C3477 1.327 . S
C3477 H3471 0.950 . S
C3477 C3476 1.327 . S
C3477 C3481 1.429 . S
C3478 C3461 1.574 . S
C3478 H3472 0.949 . S
C3478 C3482 1.368 . S
C3479 C3460 1.429 . S
C3479 C3473 1.429 . S
C3479 C3480 1.523 . S
C3480 C3461 1.368 . S
C3480 C3474 1.368 . S
C3480 C3479 1.523 . S
C3481 C3465 1.429 . S
C3481 C3477 1.429 . S
C3481 C3482 1.523 . S
C3482 C3466 1.368 . S
C3482 C3478 1.368 . S
C3482 C3481 1.523 . S
H3483 C3458 0.950 . S
H3484 C3460 0.950 . S
H3485 C3461 0.949 . S
H3486 C3463 0.950 . S
H3487 C3465 0.950 . S
C1089 C1022 1.793 . S
C1094 C2 1.793 . S
C1119 C36 1.793 . S
C1124 C512 1.793 . S
C1149 C70 1.793 . S
C1154 C954 1.793 . S
C1179 C104 1.793 . S
C1184 C444 1.793 . S
C1209 C886 1.793 . S
C1214 C138 1.793 . S
C1239 C376 1.793 . S
C1244 C172 1.793 . S
C1269 C206 1.793 . S
C1274 C818 1.793 . S
C1299 C308 1.793 . S
C1304 C240 1.793 . S
C1329 C750 1.793 . S
C1334 C274 1.793 . S
C1359 C682 1.793 . S
C1364 C342 1.793 . S
C1389 C410 1.793 . S
C1394 C614 1.793 . S
C1419 C546 1.793 . S
C1424 C478 1.793 . S
C1449 C1056 1.793 . S
C1454 C580 1.793 . S
C1479 C988 1.793 . S
C1484 C648 1.793 . S
C1509 C920 1.793 . S
C1514 C716 1.793 . S
C1539 C852 1.793 . S
C1544 C784 1.793 . S
C1569 C5 0.780 . S
C1574 C9 0.778 . S
C1599 C39 0.780 . S
C1604 C43 0.778 1_556 S
C1629 C73 0.780 . S
C1634 C77 0.778 . S
C1659 C107 0.780 . S
C1664 C111 0.778 . S
C1689 C141 0.780 . S
C1694 C145 0.778 . S
C1719 C175 0.780 . S
C1724 C179 0.778 . S
C1749 C213 0.778 . S
C1754 C209 0.780 . S
C1779 C243 0.780 . S
C1784 C247 0.778 1_554 S
C1809 C277 0.780 . S
C1814 C281 0.778 . S
C1839 C315 0.778 1_554 S
C1844 C311 0.780 . S
C1869 C345 0.780 . S
C1874 C349 0.778 . S
C1899 C379 0.780 . S
C1904 C383 0.778 . S
C1929 C413 0.780 . S
C1934 C417 0.778 . S
C1959 C451 0.778 . S
C1964 C447 0.780 . S
C1989 C481 0.780 . S
C1994 C485 0.778 . S
C2019 C519 0.778 1_556 S
C2024 C515 0.780 . S
C2049 C553 0.778 . S
C2054 C549 0.780 . S
C2079 C583 0.780 . S
C2084 C587 0.778 . S
C2109 C621 0.778 . S
C2114 C617 0.780 . S
C2139 C655 0.778 1_556 S
C2144 C651 0.780 . S
C2169 C689 0.778 . S
C2174 C685 0.780 . S
C2199 C723 0.778 1_554 S
C2204 C719 0.780 . S
C2229 C757 0.778 . S
C2234 C753 0.780 . S
C2259 C791 0.778 . S
C2264 C787 0.780 . S
C2289 C825 0.778 . S
C2294 C821 0.780 . S
C2319 C859 0.778 . S
C2324 C855 0.780 . S
C2349 C889 0.780 . S
C2354 C893 0.778 . S
C2379 C927 0.778 1_554 S
C2384 C923 0.780 . S
C2409 C961 0.778 . S
C2414 C957 0.780 . S
C2439 C995 0.778 1_556 S
C2444 C991 0.780 . S
C2469 C1025 0.780 . S
C2474 C1029 0.778 . S
C2499 C1059 0.780 . S
C2504 C1063 0.778 . S
C2529 C237 1.212 . S
C2534 C33 1.212 . S
C2559 C271 1.212 . S
C2564 C67 1.212 . S
C2589 C101 1.212 . S
C2594 C169 1.212 . S
C2619 C203 1.211 . S
C2624 C135 1.211 . S
C2649 C305 1.212 . S
C2654 C509 1.212 . S
C2679 C339 1.212 . S
C2684 C543 1.212 . S
C2709 C373 1.212 . S
C2714 C441 1.212 . S
C2739 C475 1.211 . S
C2744 C407 1.211 . S
C2769 C781 1.212 . S
C2774 C577 1.212 . S
C2799 C611 1.211 . S
C2804 C815 1.211 . S
C2829 C713 1.212 . S
C2834 C645 1.212 . S
C2859 C747 1.212 . S
C2864 C679 1.212 . S
C2889 C849 1.212 . S
C2894 C1053 1.212 . S
C2919 C1087 1.211 . S
C2924 C883 1.211 . S
C2949 C917 1.212 . S
C2954 C985 1.212 . S
C2979 C1019 1.212 . S
C2984 C951 1.212 . S
C3009 C20 1.625 . S
C3014 C258 1.625 . S
C3039 C156 1.625 . S
C3044 C54 1.625 . S
C3069 C88 1.625 . S
C3074 C190 1.625 . S
C3099 C122 1.625 . S
C3104 C224 1.625 . S
C3129 C292 1.625 . S
C3134 C530 1.625 . S
C3159 C428 1.625 . S
C3164 C326 1.625 . S
C3189 C360 1.625 . S
C3194 C462 1.625 . S
C3219 C394 1.625 . S
C3224 C496 1.625 . S
C3249 C802 1.625 . S
C3254 C564 1.625 . S
C3279 C700 1.625 . S
C3284 C598 1.625 . S
C3309 C734 1.625 . S
C3314 C632 1.625 . S
C3339 C666 1.625 . S
C3344 C768 1.625 . S
C3369 C836 1.625 . S
C3374 C1074 1.625 . S
C3399 C870 1.625 . S
C3404 C972 1.625 . S
C3429 C1006 1.625 . S
C3434 C904 1.625 . S
C3459 C1040 1.625 . S
C3464 C938 1.625 . S
