# Generated by pormake.
# Topology xfu, (5)-cn, num edge types: 1
# Building blocks:
#     Node 0, Type 0, BuildingBlock: XOMCOT_clean_sbu_0, # of connection points: 5
#     Node 1, Type 0, BuildingBlock: XOMCOT_clean_sbu_0, # of connection points: 5
#     Node 2, Type 0, BuildingBlock: XOMCOT_clean_sbu_0, # of connection points: 5
#     Node 3, Type 0, BuildingBlock: XOMCOT_clean_sbu_0, # of connection points: 5
#     Node 4, Type 0, BuildingBlock: XOMCOT_clean_sbu_0, # of connection points: 5
#     Node 5, Type 0, BuildingBlock: XOMCOT_clean_sbu_0, # of connection points: 5
#     Node 6, Type 0, BuildingBlock: XOMCOT_clean_sbu_0, # of connection points: 5
#     Node 7, Type 0, BuildingBlock: XOMCOT_clean_sbu_0, # of connection points: 5
#     Edge 8, Type (0, 0), BuildingBlock: XUDNAN_clean_linker_2, # of connection points: 2
#     Edge 9, Type (0, 0), BuildingBlock: XUDNAN_clean_linker_2, # of connection points: 2
#     Edge 10, Type (0, 0), BuildingBlock: XUDNAN_clean_linker_2, # of connection points: 2
#     Edge 11, Type (0, 0), BuildingBlock: XUDNAN_clean_linker_2, # of connection points: 2
#     Edge 12, Type (0, 0), BuildingBlock: XUDNAN_clean_linker_2, # of connection points: 2
#     Edge 13, Type (0, 0), BuildingBlock: XUDNAN_clean_linker_2, # of connection points: 2
#     Edge 14, Type (0, 0), BuildingBlock: XUDNAN_clean_linker_2, # of connection points: 2
#     Edge 15, Type (0, 0), BuildingBlock: XUDNAN_clean_linker_2, # of connection points: 2
#     Edge 16, Type (0, 0), BuildingBlock: XUDNAN_clean_linker_2, # of connection points: 2
#     Edge 17, Type (0, 0), BuildingBlock: XUDNAN_clean_linker_2, # of connection points: 2
#     Edge 18, Type (0, 0), BuildingBlock: XUDNAN_clean_linker_2, # of connection points: 2
#     Edge 19, Type (0, 0), BuildingBlock: XUDNAN_clean_linker_2, # of connection points: 2
#     Edge 20, Type (0, 0), BuildingBlock: XUDNAN_clean_linker_2, # of connection points: 2
#     Edge 21, Type (0, 0), BuildingBlock: XUDNAN_clean_linker_2, # of connection points: 2
#     Edge 22, Type (0, 0), BuildingBlock: XUDNAN_clean_linker_2, # of connection points: 2
#     Edge 23, Type (0, 0), BuildingBlock: XUDNAN_clean_linker_2, # of connection points: 2
#     Edge 24, Type (0, 0), BuildingBlock: XUDNAN_clean_linker_2, # of connection points: 2
#     Edge 25, Type (0, 0), BuildingBlock: XUDNAN_clean_linker_2, # of connection points: 2
#     Edge 26, Type (0, 0), BuildingBlock: XUDNAN_clean_linker_2, # of connection points: 2
#     Edge 27, Type (0, 0), BuildingBlock: XUDNAN_clean_linker_2, # of connection points: 2
# Relax obj value: 0.384
# Max RMSD: 0.269
# Mean RMSD: 0.269
data_MOF--net-xfu--node1-XOMCOT_clean_sbu_0--edge1-XUDNAN_clean_linker_2
_symmetry_space_group_name_H-M    P1
_symmetry_Int_Tables_number       1
_symmetry_cell_setting            triclinic
loop_
_symmetry_equiv_pos_as_xyz
'x, y, z'
_cell_length_a     29.974674
_cell_length_b     30.043627
_cell_length_c     50.046277
_cell_angle_alpha  90.020969
_cell_angle_beta   90.103882
_cell_angle_gamma 89.903462
loop_
_atom_site_label
_atom_site_type_symbol
_atom_site_fract_x
_atom_site_fract_y
_atom_site_fract_z
_atom_type_partial_charge
Co0 Co 0.11986 0.23219 0.62422 0.0
C1 C 0.09502 0.15622 0.59049 0.0
C2 C 0.12005 0.13367 0.62809 0.0
C3 C 0.11608 0.09739 0.61125 0.0
N4 N 0.10588 0.17067 0.6152 0.0
N5 N 0.10085 0.11209 0.58756 0.0
H6 H 0.08796 0.17783 0.57382 0.0
H7 H 0.13642 0.13341 0.64735 0.0
C8 C 0.09129 0.19536 0.67751 0.0
O9 O 0.05781 0.17406 0.66642 0.0
N10 N 0.1349 0.29339 0.63235 0.0
C11 C 0.12946 0.32814 0.61566 0.0
C12 C 0.13883 0.36673 0.62926 0.0
C13 C 0.14765 0.31131 0.65588 0.0
N14 N 0.14978 0.35627 0.65468 0.0
C15 C 0.03309 0.24728 0.6011 0.0
C16 C -0.00219 0.29019 0.64517 0.0
C17 C 0.97224 0.28675 0.62192 0.0
C18 C 0.98996 0.26463 0.59977 0.0
C19 C 0.04035 0.27154 0.64584 0.0
N20 N 0.05742 0.24975 0.62412 0.0
H21 H 0.04747 0.2342 0.58313 0.0
H22 H 0.06025 0.27669 0.66354 0.0
H23 H 0.11782 0.32584 0.59525 0.0
H24 H 0.15309 0.29205 0.6738 0.0
O25 O 0.13476 0.24344 0.5872 0.0
O26 O 0.18165 0.21891 0.61832 0.0
O27 O 0.1182 0.21846 0.66352 0.0
C28 C 0.17493 0.23084 0.59365 0.0
H29 H 0.12778 0.06392 0.61519 0.0
H30 H 0.13664 0.39994 0.62104 0.0
H31 H 0.98528 0.30775 0.66253 0.0
H32 H 0.97142 0.26263 0.5812 0.0
Co33 Co 0.88012 0.60834 0.13111 0.0
C34 C 0.9562 0.59265 0.09518 0.0
C35 C 0.97683 0.62103 0.1326 0.0
C36 C 0.01346 0.61793 0.1162 0.0
N37 N 0.94109 0.60522 0.11936 0.0
N38 N 0.00036 0.60032 0.09265 0.0
H39 H 0.93489 0.5804 0.07932 0.0
H40 H 0.97604 0.63546 0.15239 0.0
C41 C 0.88085 0.58399 0.18816 0.0
O42 O 0.85029 0.5544 0.18204 0.0
N43 N 0.81906 0.61432 0.14387 0.0
C44 C 0.78231 0.58843 0.1428 0.0
C45 C 0.74966 0.60732 0.15874 0.0
C46 C 0.80781 0.64834 0.16002 0.0
N47 N 0.76606 0.64496 0.16976 0.0
C48 C 0.85055 0.52649 0.10914 0.0
C49 C 0.90933 0.4723 0.13678 0.0
C50 C 0.88114 0.45375 0.1175 0.0
C51 C 0.85168 0.48126 0.10349 0.0
C52 C 0.90768 0.51803 0.14147 0.0
N53 N 0.87717 0.54421 0.12852 0.0
H54 H 0.82855 0.54746 0.09757 0.0
H55 H 0.93167 0.53254 0.15503 0.0
H56 H 0.77933 0.55702 0.13258 0.0
H57 H 0.83113 0.67422 0.16529 0.0
O58 O 0.86055 0.62176 0.09538 0.0
O59 O 0.88137 0.67182 0.12558 0.0
O60 O 0.89951 0.60696 0.16977 0.0
C61 C 0.86576 0.6632 0.10183 0.0
H62 H 0.04693 0.62879 0.12103 0.0
H63 H 0.71728 0.59307 0.16283 0.0
H64 H 0.93317 0.45187 0.14752 0.0
H65 H 0.82959 0.46788 0.08833 0.0
Co66 Co 0.49905 0.36246 0.60183 0.0
C67 C 0.5244 0.43058 0.56301 0.0
C68 C 0.47407 0.45493 0.5898 0.0
C69 C 0.48495 0.48843 0.57215 0.0
N70 N 0.49905 0.41896 0.58398 0.0
N71 N 0.51674 0.47298 0.55545 0.0
H72 H 0.54767 0.40822 0.55337 0.0
H73 H 0.44989 0.45672 0.60578 0.0
C74 C 0.50558 0.38339 0.66028 0.0
O75 O 0.53432 0.35067 0.66324 0.0
N76 N 0.49766 0.30524 0.61983 0.0
C77 C 0.52402 0.26914 0.6167 0.0
C78 C 0.5108 0.23682 0.63447 0.0
C79 C 0.46763 0.29347 0.63858 0.0
N80 N 0.47555 0.25236 0.64831 0.0
C81 C 0.58805 0.33944 0.58664 0.0
C82 C 0.63151 0.39747 0.62061 0.0
C83 C 0.65689 0.36813 0.60498 0.0
C84 C 0.63446 0.34 0.58711 0.0
C85 C 0.58504 0.39641 0.61905 0.0
N86 N 0.56381 0.36537 0.60366 0.0
H87 H 0.57162 0.3179 0.57248 0.0
H88 H 0.56648 0.42097 0.63012 0.0
H89 H 0.55109 0.2658 0.60275 0.0
H90 H 0.4419 0.31561 0.64592 0.0
O91 O 0.49223 0.33216 0.56785 0.0
O92 O 0.43699 0.3558 0.59386 0.0
O93 O 0.491 0.3938 0.63709 0.0
C94 C 0.44963 0.33577 0.57216 0.0
H95 H 0.47114 0.52173 0.57197 0.0
H96 H 0.52627 0.20456 0.6372 0.0
H97 H 0.64713 0.42067 0.63426 0.0
H98 H 0.6525 0.31849 0.57352 0.0
Co99 Co 0.73569 -0.00027 0.12389 0.0
C100 C 0.6802 0.03756 0.08128 0.0
C101 C 0.64068 0.02025 0.11546 0.0
C102 C 0.61278 0.03622 0.09575 0.0
N103 N 0.68281 0.02123 0.10627 0.0
N104 N 0.63771 0.04695 0.07423 0.0
H105 H 0.70878 0.04093 0.06829 0.0
H106 H 0.63081 0.00798 0.13488 0.0
C107 C 0.72665 0.03116 0.1802 0.0
O108 O 0.76706 0.0478 0.17841 0.0
N109 N 0.78857 0.97639 0.14188 0.0
C110 C 0.83183 0.97638 0.13438 0.0
C111 C 0.85678 0.95471 0.15352 0.0
C112 C 0.78787 0.95258 0.16474 0.0
N113 N 0.82908 0.94016 0.1728 0.0
C114 C 0.7962 0.06437 0.10361 0.0
C115 C 0.75836 0.13769 0.12792 0.0
C116 C 0.79648 0.14315 0.11209 0.0
C117 C 0.81499 0.106 0.09953 0.0
C118 C 0.74045 0.09523 0.13133 0.0
N119 N 0.7611 0.05881 0.1206 0.0
H120 H 0.80921 0.03694 0.09223 0.0
H121 H 0.70963 0.09181 0.14226 0.0
H122 H 0.84511 0.99002 0.11621 0.0
H123 H 0.75748 0.94447 0.17525 0.0
O124 O 0.75698 0.97592 0.09076 0.0
O125 O 0.71468 0.93942 0.11986 0.0
O126 O 0.70828 0.01284 0.15989 0.0
C127 C 0.73682 0.93948 0.09747 0.0
H128 H 0.57689 0.03928 0.09717 0.0
H129 H 0.89268 0.95096 0.15342 0.0
H130 H 0.74192 0.16606 0.13697 0.0
H131 H 0.84366 0.10902 0.08651 0.0
Co132 Co 0.97446 0.83001 0.39716 0.0
C133 C 0.01681 0.90159 0.42815 0.0
C134 C 0.98393 0.92734 0.39321 0.0
C135 C 0.00299 0.96228 0.40686 0.0
N136 N 0.99295 0.88939 0.40652 0.0
N137 N 0.02341 0.94595 0.4288 0.0
H138 H 0.02916 0.87852 0.44305 0.0
H139 H 0.96439 0.92972 0.37509 0.0
C140 C 0.97519 0.83449 0.33588 0.0
O141 O 0.00152 0.79978 0.33317 0.0
N142 N 0.95503 0.77002 0.38806 0.0
C143 C 0.96318 0.73195 0.40155 0.0
C144 C 0.94648 0.69665 0.38722 0.0
C145 C 0.93055 0.7573 0.36674 0.0
N146 N 0.92659 0.71266 0.36505 0.0
C147 C 0.05642 0.784 0.40855 0.0
C148 C 0.10624 0.82411 0.36894 0.0
C149 C 0.12581 0.79027 0.38429 0.0
C150 C 0.1006 0.77083 0.40472 0.0
C151 C 0.06192 0.83617 0.37347 0.0
N152 N 0.03673 0.8142 0.39194 0.0
H153 H 0.0385 0.77063 0.42532 0.0
H154 H 0.04799 0.8634 0.36212 0.0
H155 H 0.98003 0.72938 0.42052 0.0
H156 H 0.91563 0.78002 0.35266 0.0
O157 O 0.96712 0.81571 0.43496 0.0
O158 O 0.91543 0.84418 0.40799 0.0
O159 O 0.96574 0.84985 0.35901 0.0
C160 C 0.92657 0.83057 0.43167 0.0
H161 H 0.00096 -0.00287 0.40149 0.0
H162 H 0.95051 0.66183 0.3922 0.0
H163 H 0.12481 0.84095 0.35341 0.0
H164 H 0.11514 0.74636 0.41804 0.0
Co165 Co 0.24962 0.48644 0.87656 0.0
C166 C 0.18822 0.51998 0.91732 0.0
C167 C 0.15282 0.48278 0.88743 0.0
C168 C 0.12288 0.4965 0.90669 0.0
N169 N 0.19359 0.49789 0.89417 0.0
N170 N 0.14533 0.52001 0.92536 0.0
H171 H 0.21552 0.53488 0.9283 0.0
H172 H 0.14553 0.46269 0.87004 0.0
C173 C 0.21805 0.51317 0.8208 0.0
O174 O 0.24294 0.54905 0.82079 0.0
N175 N 0.30664 0.47273 0.85911 0.0
C176 C 0.34494 0.45923 0.87109 0.0
C177 C 0.37691 0.45115 0.85193 0.0
C178 C 0.31627 0.47193 0.83274 0.0
N179 N 0.35868 0.45955 0.82791 0.0
C180 C 0.30371 0.56602 0.87955 0.0
C181 C 0.23532 0.62472 0.86788 0.0
C182 C 0.27901 0.64092 0.86942 0.0
C183 C 0.31333 0.61125 0.87627 0.0
C184 C 0.22729 0.57946 0.87094 0.0
N185 N 0.26156 0.55024 0.87535 0.0
H186 H 0.33045 0.54371 0.88491 0.0
H187 H 0.19365 0.56769 0.86787 0.0
H188 H 0.34996 0.4558 0.89236 0.0
H189 H 0.29313 0.47876 0.81693 0.0
O190 O 0.27545 0.47258 0.91116 0.0
O191 O 0.24167 0.42462 0.88397 0.0
O192 O 0.21809 0.48653 0.84075 0.0
C193 C 0.26136 0.43219 0.90669 0.0
H194 H 0.08744 0.4897 0.90692 0.0
H195 H 0.41104 0.44078 0.85538 0.0
H196 H 0.20752 0.64663 0.86349 0.0
H197 H 0.34749 0.6225 0.87818 0.0
Co198 Co 0.60549 0.78835 0.37786 0.0
C199 C 0.59678 0.70376 0.40735 0.0
C200 C 0.64181 0.6981 0.37418 0.0
C201 C 0.64213 0.65857 0.38796 0.0
N202 N 0.61332 0.72627 0.38632 0.0
N203 N 0.61404 0.66228 0.40888 0.0
H204 H 0.57443 0.71825 0.42193 0.0
H205 H 0.66232 0.70619 0.35712 0.0
C206 C 0.60025 0.77557 0.31708 0.0
O207 O 0.55927 0.79067 0.31501 0.0
N208 N 0.59989 0.85144 0.36899 0.0
C209 C 0.59032 0.88613 0.38528 0.0
C210 C 0.59604 0.92548 0.3714 0.0
C211 C 0.61275 0.87062 0.34591 0.0
N212 N 0.60976 0.91527 0.34655 0.0
C213 C 0.51316 0.80587 0.38625 0.0
C214 C 0.4803 0.73506 0.35697 0.0
C215 C 0.45022 0.76417 0.36946 0.0
C216 C 0.46729 0.79957 0.38452 0.0
C217 C 0.52619 0.74261 0.35927 0.0
N218 N 0.542 0.77868 0.37297 0.0
H219 H 0.52543 0.83196 0.39899 0.0
H220 H 0.54906 0.71955 0.34991 0.0
H221 H 0.58148 0.88348 0.40614 0.0
H222 H 0.62743 0.8531 0.32941 0.0
O223 O 0.60542 0.80193 0.41576 0.0
O224 O 0.66534 0.79913 0.38956 0.0
O225 O 0.62028 0.77386 0.33959 0.0
C226 C 0.64852 0.80487 0.41324 0.0
H227 H 0.66226 0.62969 0.38324 0.0
H228 H 0.59138 0.95882 0.37911 0.0
H229 H 0.46857 0.7069 0.34543 0.0
H230 H 0.44544 0.82169 0.39553 0.0
Co231 Co 0.35671 0.11417 0.87458 0.0
C232 C 0.44185 0.09985 0.90388 0.0
C233 C 0.44529 0.15423 0.87633 0.0
C234 C 0.48386 0.15368 0.89117 0.0
N235 N 0.4192 0.11998 0.88391 0.0
N236 N 0.48157 0.11963 0.90864 0.0
H237 H 0.42861 0.07315 0.91579 0.0
H238 H 0.43563 0.17975 0.86221 0.0
C239 C 0.40301 0.12201 0.8214 0.0
O240 O 0.43512 0.09562 0.8298 0.0
N241 N 0.29439 0.11021 0.86539 0.0
C242 C 0.26507 0.078 0.87187 0.0
C243 C 0.22544 0.08626 0.85867 0.0
C244 C 0.27218 0.13804 0.84902 0.0
N245 N 0.23013 0.1241 0.8445 0.0
C246 C 0.36511 0.02179 0.8885 0.0
C247 C 0.35161 0.98901 0.83758 0.0
C248 C 0.3525 0.95899 0.859 0.0
C249 C 0.3603 0.97593 0.88473 0.0
C250 C 0.35502 0.03448 0.84233 0.0
N251 N 0.36251 0.05064 0.86747 0.0
H252 H 0.36736 0.03413 0.90867 0.0
H253 H 0.34821 0.05635 0.82581 0.0
H254 H 0.27238 0.04974 0.88452 0.0
H255 H 0.28718 0.16677 0.8396 0.0
O256 O 0.34119 0.11264 0.91231 0.0
O257 O 0.34744 0.17338 0.88714 0.0
O258 O 0.36989 0.13095 0.83647 0.0
C259 C 0.33917 0.15579 0.91028 0.0
H260 H 0.50998 0.17847 0.89047 0.0
H261 H 0.19585 0.06566 0.859 0.0
H262 H 0.346 0.97787 0.81729 0.0
H263 H 0.35988 0.95447 0.90209 0.0
H264 H 0.02002 0.93193 0.48231 0.0
H265 H 0.0754 0.01793 0.42135 0.0
H266 H 0.1087 0.0655 0.45636 0.0
H267 H 0.98772 0.01704 0.5255 0.0
H268 H 0.00061 0.98793 0.55604 0.0
H269 H 0.9864 0.95707 0.52643 0.0
H270 H 0.06063 0.91316 0.52992 0.0
H271 H 0.07507 0.94387 0.55965 0.0
H272 H 0.11268 0.94302 0.53159 0.0
H273 H 0.13001 0.10685 0.49708 0.0
H274 H 0.13616 0.1418 0.54149 0.0
H275 H 0.066 0.03057 0.57694 0.0
C276 C 0.04019 0.96013 0.47645 0.0
C277 C 0.0456 0.97125 0.44921 0.0
C278 C 0.07097 0.00908 0.44215 0.0
C279 C 0.09019 0.03601 0.46186 0.0
C280 C 0.0836 0.02466 0.48855 0.0
C281 C 0.05921 0.98769 0.49595 0.0
C282 C 0.05377 0.98544 0.52606 0.0
C283 C 0.00419 0.98698 0.53396 0.0
C284 C 0.07693 0.9439 0.53748 0.0
C285 C 0.07787 0.02759 0.53434 0.0
C286 C 0.09534 0.04924 0.51233 0.0
C287 C 0.11685 0.09007 0.51448 0.0
C288 C 0.11989 0.10978 0.53972 0.0
C289 C 0.10128 0.08887 0.56246 0.0
C290 C 0.0809 0.0468 0.55984 0.0
H291 H 0.98901 0.53933 0.05309 0.0
H292 H 0.07144 0.65043 0.07816 0.0
H293 H 0.11626 0.64291 0.03716 0.0
H294 H 0.07716 0.47439 0.02445 0.0
H295 H 0.04377 0.45395 0.9971 0.0
H296 H 0.01767 0.46848 0.02829 0.0
H297 H 0.9647 0.52269 0.00337 0.0
H298 H 0.99077 0.50847 0.97209 0.0
H299 H 0.98796 0.5658 0.98259 0.0
H300 H 0.15195 0.62372 0.99373 0.0
H301 H 0.17828 0.59215 0.95113 0.0
H302 H 0.07332 0.49293 0.95419 0.0
C303 C 0.0163 0.56224 0.04984 0.0
C304 C 0.02682 0.59538 0.06887 0.0
C305 C 0.06317 0.62437 0.06408 0.0
C306 C 0.08859 0.62061 0.04075 0.0
C307 C 0.07728 0.58766 0.02241 0.0
C308 C 0.04215 0.55884 0.02668 0.0
C309 C 0.03773 0.52572 0.004 0.0
C310 C 0.0445 0.4778 0.01407 0.0
C311 C 0.99261 0.53101 0.98966 0.0
C312 C 0.07596 0.54042 0.98636 0.0
C313 C 0.09817 0.57632 0.99733 0.0
C314 C 0.13494 0.59552 0.98496 0.0
C315 C 0.1498 0.57717 0.96085 0.0
C316 C 0.12806 0.53989 0.94939 0.0
C317 C 0.09035 0.52168 0.96227 0.0
H318 H 0.4833 0.54181 0.52629 0.0
H319 H 0.60026 0.45813 0.53668 0.0
H320 H 0.63756 0.49742 0.49979 0.0
H321 H 0.4875 0.54798 0.4549 0.0
H322 H 0.47004 0.60537 0.45339 0.0
H323 H 0.45232 0.57071 0.48073 0.0
H324 H 0.4854 0.62721 0.51451 0.0
H325 H 0.50314 0.66208 0.48727 0.0
H326 H 0.54315 0.64321 0.51171 0.0
H327 H 0.66214 0.5453 0.46198 0.0
H328 H 0.67301 0.5997 0.4258 0.0
H329 H 0.54024 0.65261 0.43984 0.0
C330 C 0.51688 0.53203 0.52097 0.0
C331 C 0.53873 0.4967 0.53428 0.0
C332 C 0.58253 0.48455 0.52649 0.0
C333 C 0.60413 0.50685 0.50567 0.0
C334 C 0.58152 0.54128 0.49288 0.0
C335 C 0.53894 0.55394 0.50022 0.0
C336 C 0.52211 0.592 0.4831 0.0
C337 C 0.48054 0.57817 0.46708 0.0
C338 C 0.51293 0.63358 0.50017 0.0
C339 C 0.56196 0.59872 0.46502 0.0
C340 C 0.59579 0.56906 0.471 0.0
C341 C 0.63586 0.56864 0.45702 0.0
C342 C 0.64157 0.59947 0.43636 0.0
C343 C 0.60738 0.63029 0.42987 0.0
C344 C 0.5671 0.62976 0.44447 0.0
H345 H 0.46318 0.07932 0.95626 0.0
H346 H 0.56973 0.14008 0.91037 0.0
H347 H 0.62124 0.12927 0.94831 0.0
H348 H 0.49245 0.12466 0.01931 0.0
H349 H 0.47876 0.07514 0.03788 0.0
H350 H 0.45024 0.08717 0.00701 0.0
H351 H 0.47368 0.0103 0.98809 0.0
H352 H 0.50189 -0.00217 0.01901 0.0
H353 H 0.53185 0.99496 0.98786 0.0
H354 H 0.66051 0.11375 0.99173 0.0
H355 H 0.6858 0.09126 0.03659 0.0
H356 H 0.55428 0.03741 0.05308 0.0
C357 C 0.49744 0.08975 0.95389 0.0
C358 C 0.51226 0.11071 0.93022 0.0
C359 C 0.55736 0.12452 0.92837 0.0
C360 C 0.58694 0.11836 0.94979 0.0
C361 C 0.57101 0.09812 0.97289 0.0
C362 C 0.52744 0.08369 0.97499 0.0
C363 C 0.51871 0.06284 0.00201 0.0
C364 C 0.48293 0.08903 0.01746 0.0
C365 C 0.50578 0.01355 0.99905 0.0
C366 C 0.5642 0.06792 0.0148 0.0
C367 C 0.59384 0.08848 0.99772 0.0
C368 C 0.63771 0.09722 0.0052 0.0
C369 C 0.65182 0.08408 0.03073 0.0
C370 C 0.62225 0.06217 0.04847 0.0
C371 C 0.57776 0.05438 0.04027 0.0
H372 H 0.18013 0.07912 0.80854 0.0
H373 H 0.21341 0.21125 0.83666 0.0
H374 H 0.16891 0.2442 0.79996 0.0
H375 H 0.1947 0.10172 0.74234 0.0
H376 H 0.15009 0.06732 0.72983 0.0
H377 H 0.17622 0.05407 0.76118 0.0
H378 H 0.0994 0.05671 0.78479 0.0
H379 H 0.07289 0.06981 0.75338 0.0
H380 H 0.06507 0.1058 0.78182 0.0
H381 H 0.13073 0.26232 0.75753 0.0
H382 H 0.10549 0.26513 0.71057 0.0
H383 H 0.09644 0.12124 0.70902 0.0
C384 C 0.17645 0.11492 0.80748 0.0
C385 C 0.19944 0.14283 0.82552 0.0
C386 C 0.19566 0.18955 0.82303 0.0
C387 C 0.17026 0.20843 0.80241 0.0
C388 C 0.1489 0.18003 0.78446 0.0
C389 C 0.15165 0.13424 0.78676 0.0
C390 C 0.13071 0.11132 0.76282 0.0
C391 C 0.16498 0.0819 0.74819 0.0
C392 C 0.08956 0.08432 0.77121 0.0
C393 C 0.11748 0.15136 0.74618 0.0
C394 C 0.12748 0.19062 0.75933 0.0
C395 C 0.12233 0.23194 0.74712 0.0
C396 C 0.10805 0.2332 0.7205 0.0
C397 C 0.09872 0.19341 0.70649 0.0
C398 C 0.10226 0.15208 0.71967 0.0
H399 H 0.9246 0.74085 0.31336 0.0
H400 H 0.8982 0.62672 0.36413 0.0
H401 H 0.88429 0.58086 0.32402 0.0
H402 H 0.8396 0.71406 0.26332 0.0
H403 H 0.87274 0.73328 0.23571 0.0
H404 H 0.87879 0.75882 0.26812 0.0
H405 H 0.96308 0.7422 0.26846 0.0
H406 H 0.95891 0.71692 0.23592 0.0
H407 H 0.98247 0.68599 0.26339 0.0
H408 H 0.87663 0.54683 0.2784 0.0
H409 H 0.87203 0.52781 0.23042 0.0
H410 H 0.90464 0.66416 0.2098 0.0
C411 C 0.91481 0.70656 0.31624 0.0
C412 C 0.91257 0.68742 0.34203 0.0
C413 C 0.90054 0.64204 0.34462 0.0
C414 C 0.89247 0.61576 0.32196 0.0
C415 C 0.89634 0.63545 0.29688 0.0
C416 C 0.90667 0.67993 0.2939 0.0
C417 C 0.90964 0.69283 0.26472 0.0
C418 C 0.87304 0.72678 0.25755 0.0
C419 C 0.95631 0.71053 0.25773 0.0
C420 C 0.90088 0.64824 0.25171 0.0
C421 C 0.89272 0.6157 0.27061 0.0
C422 C 0.88295 0.57201 0.26343 0.0
C423 C 0.88062 0.56148 0.23618 0.0
C424 C 0.88866 0.59437 0.21653 0.0
C425 C 0.89937 0.63816 0.22444 0.0
H426 H 0.41906 0.39821 0.81084 0.0
H427 H 0.34542 0.51591 0.78677 0.0
H428 H 0.37946 0.51191 0.74197 0.0
H429 H 0.5209 0.42083 0.7735 0.0
H430 H 0.52935 0.36348 0.76416 0.0
H431 H 0.50125 0.37685 0.79495 0.0
H432 H 0.43334 0.32939 0.7802 0.0
H433 H 0.46133 0.31578 0.74946 0.0
H434 H 0.40671 0.34089 0.74861 0.0
H435 H 0.41893 0.49412 0.6997 0.0
H436 H 0.45888 0.46136 0.66141 0.0
H437 H 0.50684 0.35437 0.7123 0.0
C438 C 0.41074 0.42341 0.79619 0.0
C439 C 0.37986 0.45752 0.80219 0.0
C440 C 0.36885 0.48943 0.78243 0.0
C441 C 0.3882 0.48757 0.75704 0.0
C442 C 0.41833 0.45344 0.75167 0.0
C443 C 0.42939 0.4217 0.77056 0.0
C444 C 0.46074 0.38705 0.75899 0.0
C445 C 0.50573 0.38708 0.77378 0.0
C446 C 0.43924 0.34054 0.75933 0.0
C447 C 0.46556 0.40442 0.73072 0.0
C448 C 0.44095 0.44286 0.72701 0.0
C449 C 0.43859 0.4642 0.70236 0.0
C450 C 0.4614 0.44534 0.68074 0.0
C451 C 0.48622 0.40553 0.68392 0.0
C452 C 0.4888 0.38525 0.70936 0.0
H453 H 0.60109 0.89882 0.29385 0.0
H454 H 0.64785 -0.00275 0.35065 0.0
H455 H 0.67758 0.04252 0.31328 0.0
H456 H 0.69472 0.90175 0.25255 0.0
H457 H 0.66404 0.89367 0.22194 0.0
H458 H 0.6424 0.87225 0.25285 0.0
H459 H 0.56873 0.91603 0.24538 0.0
H460 H 0.59015 0.93761 0.21437 0.0
H461 H 0.5707 0.9753 0.23987 0.0
H462 H 0.71043 0.07156 0.2698 0.0
H463 H 0.7395 0.08407 0.2241 0.0
H464 H 0.66881 0.96695 0.19641 0.0
C465 C 0.6171 0.93019 0.29843 0.0
C466 C 0.62229 0.94458 0.32511 0.0
C467 C 0.64314 0.98593 0.33031 0.0
C468 C 0.66027 0.01166 0.30923 0.0
C469 C 0.6557 -0.00429 0.28315 0.0
C470 C 0.63416 0.95609 0.27775 0.0
C471 C 0.63569 0.94468 0.24834 0.0
C472 C 0.6607 0.9005 0.24366 0.0
C473 C 0.5885 0.94335 0.23628 0.0
C474 C 0.66191 0.98388 0.23793 0.0
C475 C 0.67336 0.01294 0.25825 0.0
C476 C 0.70084 0.04956 0.25367 0.0
C477 C 0.71723 0.05637 0.22771 0.0
C478 C 0.70564 0.02698 0.2067 0.0
C479 C 0.67713 0.99073 0.21191 0.0
H480 H 0.99417 0.83557 0.28158 0.0
H481 H 0.8909 0.86613 0.33959 0.0
H482 H 0.84074 0.8896 0.3035 0.0
H483 H 0.97218 0.93123 0.24111 0.0
H484 H 0.98333 0.90407 0.2097 0.0
H485 H 0.01053 0.88499 0.2397 0.0
H486 H 0.97977 0.80535 0.2317 0.0
H487 H 0.95322 0.82459 0.20149 0.0
H488 H 0.92063 0.79773 0.22694 0.0
H489 H 0.80231 0.91258 0.26241 0.0
H490 H 0.77959 0.93984 0.21833 0.0
H491 H 0.90692 0.89707 0.18553 0.0
C492 C 0.9609 0.84692 0.28654 0.0
C493 C 0.94658 0.84912 0.31342 0.0
C494 C 0.90291 0.86458 0.3192 0.0
C495 C 0.87388 0.87761 0.29882 0.0
C496 C 0.88896 0.87551 0.27263 0.0
C497 C 0.93149 0.86106 0.26631 0.0
C498 C 0.94012 0.86607 0.23657 0.0
C499 C 0.97883 0.89853 0.23148 0.0
C500 C 0.94897 0.82071 0.22342 0.0
C501 C 0.89587 0.88558 0.22742 0.0
C502 C 0.8668 0.89017 0.24858 0.0
C503 C 0.82457 0.90879 0.24555 0.0
C504 C 0.81183 0.92394 0.22025 0.0
C505 C 0.84123 0.92053 0.19815 0.0
C506 C 0.88362 0.90043 0.20188 0.0
H507 H 0.22186 0.42875 0.80136 0.0
H508 H 0.17757 0.5623 0.78185 0.0
H509 H 0.15441 0.53633 0.73688 0.0
H510 H 0.2697 0.40841 0.73712 0.0
H511 H 0.25593 0.35004 0.73683 0.0
H512 H 0.26542 0.37817 0.7681 0.0
H513 H 0.1873 0.35374 0.78509 0.0
H514 H 0.17897 0.32473 0.75403 0.0
H515 H 0.13872 0.36553 0.76496 0.0
H516 H 0.13649 0.4955 0.69435 0.0
H517 H 0.12654 0.44412 0.65671 0.0
H518 H 0.18887 0.3384 0.70295 0.0
C519 C 0.20629 0.45225 0.78782 0.0
C520 C 0.20034 0.49726 0.79511 0.0
C521 C 0.18164 0.52755 0.7766 0.0
C522 C 0.16856 0.51311 0.7511 0.0
C523 C 0.17544 0.46856 0.74437 0.0
C524 C 0.19421 0.43868 0.76212 0.0
C525 C 0.20102 0.3935 0.74935 0.0
C526 C 0.25098 0.38187 0.74775 0.0
C527 C 0.17488 0.35727 0.76427 0.0
C528 C 0.18167 0.40214 0.72188 0.0
C529 C 0.16728 0.44566 0.71941 0.0
C530 C 0.1479 0.46141 0.69598 0.0
C531 C 0.1427 0.43183 0.67456 0.0
C532 C 0.15704 0.38687 0.67656 0.0
C533 C 0.17709 0.37222 0.70063 0.0
H534 H 0.57909 0.7266 0.27225 0.0
H535 H 0.68363 0.80587 0.3087 0.0
H536 H 0.73421 0.78718 0.27178 0.0
H537 H 0.64803 0.63903 0.25376 0.0
H538 H 0.6214 0.62667 0.22231 0.0
H539 H 0.58989 0.65219 0.24879 0.0
H540 H 0.56814 0.71735 0.21746 0.0
H541 H 0.59926 0.69178 0.19073 0.0
H542 H 0.61127 0.74821 0.20062 0.0
H543 H 0.77614 0.75331 0.23555 0.0
H544 H 0.80845 0.7068 0.20094 0.0
H545 H 0.67838 0.64735 0.18587 0.0
C546 C 0.61219 0.74096 0.27186 0.0
C547 C 0.62742 0.76808 0.29304 0.0
C548 C 0.67132 0.78529 0.29252 0.0
C549 C 0.70026 0.77497 0.27161 0.0
C550 C 0.68494 0.74706 0.25144 0.0
C551 C 0.64201 0.73029 0.25119 0.0
C552 C 0.63602 0.69739 0.2284 0.0
C553 C 0.62308 0.65109 0.23896 0.0
C554 C 0.60163 0.71473 0.20809 0.0
C555 C 0.68271 0.69724 0.21664 0.0
C556 C 0.70994 0.7267 0.23012 0.0
C557 C 0.75502 0.73075 0.2244 0.0
C558 C 0.77305 0.70396 0.20436 0.0
C559 C 0.74612 0.67333 0.18989 0.0
C560 C 0.7001 0.67034 0.1962 0.0
H561 H 0.47312 0.1225 0.78614 0.0
H562 H 0.33553 0.16536 0.79528 0.0
H563 H 0.33793 0.20011 0.75071 0.0
H564 H 0.51074 0.22099 0.75393 0.0
H565 H 0.54876 0.19238 0.73194 0.0
H566 H 0.53539 0.16882 0.764 0.0
H567 H 0.51004 0.09582 0.74083 0.0
H568 H 0.52319 0.11931 0.70868 0.0
H569 H 0.46799 0.09816 0.71505 0.0
H570 H 0.35625 0.23321 0.70597 0.0
H571 H 0.38977 0.2624 0.66438 0.0
H572 H 0.51503 0.19826 0.68469 0.0
C573 C 0.44333 0.13871 0.77865 0.0
C574 C 0.40414 0.14106 0.79418 0.0
C575 C 0.36602 0.16314 0.78377 0.0
C576 C 0.36696 0.18291 0.75843 0.0
C577 C 0.40624 0.18032 0.74373 0.0
C578 C 0.44372 0.1588 0.75343 0.0
C579 C 0.48227 0.16238 0.73407 0.0
C580 C 0.5216 0.18765 0.74675 0.0
C581 C 0.49671 0.11616 0.72406 0.0
C582 C 0.46061 0.18928 0.71201 0.0
C583 C 0.41674 0.19929 0.71793 0.0
C584 C 0.39049 0.22533 0.70102 0.0
C585 C 0.40981 0.2419 0.67754 0.0
C586 C 0.45485 0.23233 0.67124 0.0
C587 C 0.48025 0.2053 0.68865 0.0
H588 H 0.89352 0.24711 0.60929 0.0
H589 H 0.95204 0.37378 0.63128 0.0
H590 H 0.8777 0.40967 0.62811 0.0
H591 H 0.81231 0.28849 0.56249 0.0
H592 H 0.76965 0.24985 0.57264 0.0
H593 H 0.82762 0.23479 0.57574 0.0
H594 H 0.81643 0.2188 0.62621 0.0
H595 H 0.75841 0.23357 0.62322 0.0
H596 H 0.79319 0.26148 0.64738 0.0
H597 H 0.79715 0.4315 0.62141 0.0
H598 H 0.71569 0.43689 0.61499 0.0
H599 H 0.71012 0.29418 0.60109 0.0
C600 C 0.89053 0.28244 0.61327 0.0
C601 C 0.92806 0.30795 0.62036 0.0
C602 C 0.92328 0.35391 0.62587 0.0
C603 C 0.88139 0.37449 0.62401 0.0
C604 C 0.84486 0.34839 0.61694 0.0
C605 C 0.84896 0.30328 0.61196 0.0
C606 C 0.80431 0.28232 0.6059 0.0
C607 C 0.80344 0.26272 0.5775 0.0
C608 C 0.79239 0.24697 0.62694 0.0
C609 C 0.77446 0.32272 0.60809 0.0
C610 C 0.79842 0.36058 0.61421 0.0
C611 C 0.77793 0.40199 0.61686 0.0
C612 C 0.73157 0.40463 0.61336 0.0
C613 C 0.70621 0.36596 0.60761 0.0
C614 C 0.72831 0.3246 0.60498 0.0
H615 H 0.86829 0.38758 0.15345 0.0
H616 H 0.89164 0.41294 0.0694 0.0
H617 H 0.87973 0.33321 0.05942 0.0
H618 H 0.91687 0.27226 0.15553 0.0
H619 H 0.87428 0.25345 0.17823 0.0
H620 H 0.89282 0.31047 0.17927 0.0
H621 H 0.81111 0.33689 0.17301 0.0
H622 H 0.79239 0.28013 0.17148 0.0
H623 H 0.77972 0.31778 0.14447 0.0
H624 H 0.85606 0.25419 0.05788 0.0
H625 H 0.8233 0.17979 0.06488 0.0
H626 H 0.81367 0.20625 0.14993 0.0
C627 C 0.87245 0.37584 0.13314 0.0
C628 C 0.8813 0.40574 0.11218 0.0
C629 C 0.8851 0.39003 0.08564 0.0
C630 C 0.87855 0.34497 0.07984 0.0
C631 C 0.86825 0.31643 0.10085 0.0
C632 C 0.86552 0.3311 0.12701 0.0
C633 C 0.84924 0.29473 0.14542 0.0
C634 C 0.88547 0.28197 0.16582 0.0
C635 C 0.80552 0.30821 0.1594 0.0
C636 C 0.84167 0.25788 0.12539 0.0
C637 C 0.85355 0.27083 0.09988 0.0
C638 C 0.8474 0.2433 0.07782 0.0
C639 C 0.82877 0.20123 0.08197 0.0
C640 C 0.81623 0.18745 0.10795 0.0
C641 C 0.8229 0.21613 0.12988 0.0
H642 H 0.38586 0.8279 0.36324 0.0
H643 H 0.40397 0.68538 0.37255 0.0
H644 H 0.3221 0.6757 0.37411 0.0
H645 H 0.29908 0.83841 0.40937 0.0
H646 H 0.2692 0.88052 0.39092 0.0
H647 H 0.32871 0.87548 0.38736 0.0
H648 H 0.31964 0.86662 0.3361 0.0
H649 H 0.26002 0.87181 0.33949 0.0
H650 H 0.28355 0.82381 0.32308 0.0
H651 H 0.23849 0.68271 0.3787 0.0
H652 H 0.15985 0.70551 0.38468 0.0
H653 H 0.19778 0.84369 0.37392 0.0
C654 C 0.37266 0.79456 0.36539 0.0
C655 C 0.40129 0.75738 0.36777 0.0
C656 C 0.38266 0.71429 0.37032 0.0
C657 C 0.33623 0.7085 0.37136 0.0
C658 C 0.30904 0.7461 0.36966 0.0
C659 C 0.32661 0.78826 0.36655 0.0
C660 C 0.29055 0.82351 0.36673 0.0
C661 C 0.2973 0.85639 0.38998 0.0
C662 C 0.28831 0.84786 0.33974 0.0
C663 C 0.2499 0.79473 0.37101 0.0
C664 C 0.26113 0.75016 0.37245 0.0
C665 C 0.22927 0.71748 0.37738 0.0
C666 C 0.1848 0.73078 0.38096 0.0
C667 C 0.17268 0.77636 0.3797 0.0
C668 C 0.2058 0.80855 0.3745 0.0
H669 H 0.38277 0.88462 0.88651 0.0
H670 H 0.29258 0.92531 0.82279 0.0
H671 H 0.26989 0.84785 0.81648 0.0
H672 H 0.41381 0.77603 0.8592 0.0
H673 H 0.41273 0.74886 0.8913 0.0
H674 H 0.42651 0.80711 0.88907 0.0
H675 H 0.36316 0.82592 0.9224 0.0
H676 H 0.34922 0.76779 0.92474 0.0
H677 H 0.3071 0.8077 0.91528 0.0
H678 H 0.25377 0.76767 0.81792 0.0
H679 H 0.24224 0.68872 0.82869 0.0
H680 H 0.33735 0.69933 0.894 0.0
C681 C 0.35843 0.87734 0.87112 0.0
C682 C 0.34045 0.91142 0.85476 0.0
C683 C 0.30842 0.90006 0.83497 0.0
C684 C 0.29485 0.85602 0.83133 0.0
C685 C 0.31304 0.82353 0.84783 0.0
C686 C 0.34386 0.83348 0.86747 0.0
C687 C 0.3555 0.79245 0.88373 0.0
C688 C 0.40509 0.78041 0.88063 0.0
C689 C 0.34298 0.79886 0.91328 0.0
C690 C 0.32583 0.75821 0.87034 0.0
C691 C 0.30213 0.77693 0.84948 0.0
C692 C 0.27199 0.75256 0.83426 0.0
C693 C 0.26539 0.70783 0.84072 0.0
C694 C 0.28838 0.68796 0.86245 0.0
C695 C 0.31946 0.71347 0.87721 0.0
H696 H 0.4263 0.25226 0.58107 0.0
H697 H 0.39637 0.36682 0.53226 0.0
H698 H 0.32355 0.33413 0.52016 0.0
H699 H 0.34801 0.16539 0.54422 0.0
H700 H 0.33315 0.14295 0.57639 0.0
H701 H 0.38902 0.16294 0.57057 0.0
H702 H 0.38175 0.21471 0.61167 0.0
H703 H 0.32611 0.19589 0.61735 0.0
H704 H 0.33666 0.25449 0.61291 0.0
H705 H 0.24855 0.30366 0.52531 0.0
H706 H 0.17962 0.28204 0.5487 0.0
H707 H 0.25509 0.18979 0.59756 0.0
C708 C 0.40545 0.26852 0.56628 0.0
C709 C 0.41688 0.31089 0.55672 0.0
C710 C 0.38839 0.33343 0.53885 0.0
C711 C 0.347 0.31501 0.53197 0.0
C712 C 0.33468 0.27449 0.54351 0.0
C713 C 0.3635 0.25117 0.56015 0.0
C714 C 0.33916 0.21548 0.5757 0.0
C715 C 0.35316 0.16893 0.56613 0.0
C716 C 0.34631 0.22055 0.60616 0.0
C717 C 0.29164 0.22566 0.56757 0.0
C718 C 0.28986 0.25803 0.5479 0.0
C719 C 0.24951 0.27736 0.54006 0.0
C720 C 0.21048 0.26499 0.5535 0.0
C721 C 0.21244 0.23444 0.57493 0.0
C722 C 0.25297 0.21299 0.58105 0.0
H723 H 0.89905 0.74555 0.09255 0.0
H724 H 0.78614 0.65984 0.07691 0.0
H725 H 0.74184 0.72457 0.06234 0.0
H726 H 0.8486 0.82576 0.12166 0.0
H727 H 0.87756 0.87275 0.1076 0.0
H728 H 0.90433 0.81951 0.10861 0.0
H729 H 0.91659 0.82188 0.05736 0.0
H730 H 0.89019 0.87585 0.0562 0.0
H731 H 0.86981 0.8313 0.03538 0.0
H732 H 0.70432 0.79701 0.06721 0.0
H733 H 0.68074 0.87237 0.08169 0.0
H734 H 0.81895 0.91274 0.08608 0.0
C735 C 0.86585 0.74046 0.08456 0.0
C736 C 0.8458 0.69832 0.08562 0.0
C737 C 0.80208 0.69213 0.07573 0.0
C738 C 0.77669 0.72868 0.06744 0.0
C739 C 0.79633 0.77064 0.0682 0.0
C740 C 0.84065 0.7765 0.07537 0.0
C741 C 0.85219 0.82525 0.07776 0.0
C742 C 0.87174 0.8364 0.10554 0.0
C743 C 0.88408 0.8394 0.05533 0.0
C744 C 0.80649 0.84551 0.07384 0.0
C745 C 0.77461 0.8136 0.06812 0.0
C746 C 0.72898 0.82285 0.07007 0.0
C747 C 0.71579 0.86543 0.07846 0.0
C748 C 0.74822 0.89806 0.08399 0.0
C749 C 0.79376 0.88854 0.08063 0.0
H750 H 0.69161 0.87922 0.42762 0.0
H751 H 0.67523 0.74048 0.44722 0.0
H752 H 0.74551 0.74168 0.47284 0.0
H753 H 0.78864 0.87776 0.40898 0.0
H754 H 0.81052 0.92883 0.4227 0.0
H755 H 0.75198 0.92321 0.41774 0.0
H756 H 0.73816 0.94098 0.46762 0.0
H757 H 0.79748 0.94662 0.47277 0.0
H758 H 0.76574 0.90877 0.49317 0.0
H759 H 0.82571 0.7485 0.47846 0.0
H760 H 0.90284 0.76044 0.46311 0.0
H761 H 0.87075 0.89652 0.44341 0.0
C762 C 0.70166 0.85029 0.43905 0.0
C763 C 0.67825 0.81018 0.43617 0.0
C764 C 0.69247 0.77183 0.45001 0.0
C765 C 0.73239 0.77234 0.46462 0.0
C766 C 0.75718 0.81168 0.46545 0.0
C767 C 0.74149 0.8506 0.45373 0.0
C768 C 0.77781 0.88544 0.45223 0.0
C769 C 0.78252 0.90476 0.42373 0.0
C770 C 0.76929 0.92264 0.47268 0.0
C771 C 0.81777 0.85766 0.46042 0.0
C772 C 0.80503 0.81599 0.46953 0.0
C773 C 0.83615 0.78152 0.47255 0.0
C774 C 0.88016 0.78852 0.46397 0.0
C775 C 0.89215 0.82953 0.4524 0.0
C776 C 0.8619 0.86535 0.45286 0.0
H777 H 0.25657 0.18344 0.9191 0.0
H778 H 0.39242 0.19738 0.94607 0.0
H779 H 0.37518 0.2717 0.9641 0.0
H780 H 0.25151 0.27104 0.88878 0.0
H781 H 0.19529 0.28965 0.89515 0.0
H782 H 0.20857 0.23202 0.89813 0.0
H783 H 0.18028 0.23086 0.94689 0.0
H784 H 0.16558 0.28892 0.94395 0.0
H785 H 0.20144 0.27057 0.97074 0.0
H786 H 0.35402 0.35006 0.96213 0.0
H787 H 0.33153 0.42109 0.94118 0.0
H788 H 0.20995 0.35975 0.9128 0.0
C789 C 0.28128 0.201 0.93088 0.0
C790 C 0.32518 0.18483 0.93205 0.0
C791 C 0.35815 0.20895 0.94595 0.0
C792 C 0.34854 0.25137 0.95609 0.0
C793 C 0.30591 0.26901 0.95196 0.0
C794 C 0.27225 0.24395 0.9402 0.0
C795 C 0.23366 0.27313 0.93142 0.0
C796 C 0.22171 0.26606 0.90164 0.0
C797 C 0.19283 0.26542 0.94933 0.0
C798 C 0.2535 0.3186 0.93646 0.0
C799 C 0.29396 0.31574 0.94974 0.0
C800 C 0.32168 0.35286 0.95263 0.0
C801 C 0.30881 0.3931 0.9406 0.0
C802 C 0.26919 0.39533 0.9254 0.0
C803 C 0.24029 0.3585 0.92456 0.0
loop_
_geom_bond_atom_site_label_1
_geom_bond_atom_site_label_2
_geom_bond_distance
_geom_bond_site_symmetry_2
_ccdc_geom_bond_type
Co0 N4 2.148 . S
Co0 N10 2.128 . S
Co0 N20 2.194 . S
Co0 O25 2.351 . S
Co0 O26 2.155 . S
Co0 O27 2.096 . S
C1 N4 1.301 . S
C1 N5 1.328 . S
C1 H6 0.930 . S
C2 C3 1.333 . S
C2 N4 1.317 . S
C2 H7 0.930 . S
C3 C2 1.333 . S
C3 N5 1.350 . S
C3 H29 0.931 . S
N4 Co0 2.148 . S
N4 C1 1.301 . S
N4 C2 1.317 . S
N5 C1 1.328 . S
N5 C3 1.350 . S
H6 C1 0.930 . S
H7 C2 0.930 . S
C8 O9 1.224 . S
C8 O27 1.247 . S
O9 C8 1.224 . S
N10 Co0 2.128 . S
N10 C11 1.355 . S
N10 C13 1.311 . S
C11 N10 1.355 . S
C11 C12 1.363 . S
C11 H23 0.929 . S
C12 C11 1.363 . S
C12 N14 1.375 . S
C12 H30 0.931 . S
C13 N10 1.311 . S
C13 N14 1.347 . S
C13 H24 0.929 . S
N14 C12 1.375 . S
N14 C13 1.347 . S
C15 C18 1.365 1_455 S
C15 N20 1.328 . S
C15 H21 0.929 . S
C16 C17 1.362 . S
C16 C19 1.378 1_655 S
C16 H31 0.929 . S
C17 C16 1.362 . S
C17 C18 1.366 . S
C18 C15 1.365 1_655 S
C18 C17 1.366 . S
C18 H32 0.930 . S
C19 C16 1.378 1_455 S
C19 N20 1.315 . S
C19 H22 0.930 . S
N20 Co0 2.194 . S
N20 C15 1.328 . S
N20 C19 1.315 . S
H21 C15 0.929 . S
H22 C19 0.930 . S
H23 C11 0.929 . S
H24 C13 0.929 . S
O25 Co0 2.351 . S
O25 C28 1.244 . S
O26 Co0 2.155 . S
O26 C28 1.240 . S
O27 Co0 2.096 . S
O27 C8 1.247 . S
C28 O25 1.244 . S
C28 O26 1.240 . S
H29 C3 0.931 . S
H30 C12 0.931 . S
H31 C16 0.929 . S
H32 C18 0.930 . S
Co33 N37 2.148 . S
Co33 N43 2.128 . S
Co33 N53 2.194 . S
Co33 O58 2.351 . S
Co33 O59 2.155 . S
Co33 O60 2.096 . S
C34 N37 1.301 . S
C34 N38 1.328 . S
C34 H39 0.930 . S
C35 C36 1.333 . S
C35 N37 1.317 . S
C35 H40 0.930 . S
C36 C35 1.333 . S
C36 N38 1.350 . S
C36 H62 0.931 . S
N37 Co33 2.148 . S
N37 C34 1.301 . S
N37 C35 1.317 . S
N38 C34 1.328 . S
N38 C36 1.350 . S
H39 C34 0.930 . S
H40 C35 0.930 . S
C41 O42 1.224 . S
C41 O60 1.247 . S
O42 C41 1.224 . S
N43 Co33 2.128 . S
N43 C44 1.355 . S
N43 C46 1.311 . S
C44 N43 1.355 . S
C44 C45 1.363 . S
C44 H56 0.929 . S
C45 C44 1.363 . S
C45 N47 1.375 . S
C45 H63 0.931 . S
C46 N43 1.311 . S
C46 N47 1.347 . S
C46 H57 0.929 . S
N47 C45 1.375 . S
N47 C46 1.347 . S
C48 C51 1.365 . S
C48 N53 1.328 . S
C48 H54 0.929 . S
C49 C50 1.362 . S
C49 C52 1.378 . S
C49 H64 0.929 . S
C50 C49 1.362 . S
C50 C51 1.366 . S
C51 C48 1.365 . S
C51 C50 1.366 . S
C51 H65 0.930 . S
C52 C49 1.378 . S
C52 N53 1.315 . S
C52 H55 0.930 . S
N53 Co33 2.194 . S
N53 C48 1.328 . S
N53 C52 1.315 . S
H54 C48 0.929 . S
H55 C52 0.930 . S
H56 C44 0.929 . S
H57 C46 0.929 . S
O58 Co33 2.351 . S
O58 C61 1.244 . S
O59 Co33 2.155 . S
O59 C61 1.240 . S
O60 Co33 2.096 . S
O60 C41 1.247 . S
C61 O58 1.244 . S
C61 O59 1.240 . S
H62 C36 0.931 . S
H63 C45 0.931 . S
H64 C49 0.929 . S
H65 C51 0.930 . S
Co66 N70 2.148 . S
Co66 N76 2.128 . S
Co66 N86 2.194 . S
Co66 O91 2.351 . S
Co66 O92 2.155 . S
Co66 O93 2.096 . S
C67 N70 1.301 . S
C67 N71 1.328 . S
C67 H72 0.930 . S
C68 C69 1.333 . S
C68 N70 1.317 . S
C68 H73 0.930 . S
C69 C68 1.333 . S
C69 N71 1.350 . S
C69 H95 0.931 . S
N70 Co66 2.148 . S
N70 C67 1.301 . S
N70 C68 1.317 . S
N71 C67 1.328 . S
N71 C69 1.350 . S
H72 C67 0.930 . S
H73 C68 0.930 . S
C74 O75 1.224 . S
C74 O93 1.247 . S
O75 C74 1.224 . S
N76 Co66 2.128 . S
N76 C77 1.355 . S
N76 C79 1.311 . S
C77 N76 1.355 . S
C77 C78 1.363 . S
C77 H89 0.929 . S
C78 C77 1.363 . S
C78 N80 1.375 . S
C78 H96 0.931 . S
C79 N76 1.311 . S
C79 N80 1.347 . S
C79 H90 0.929 . S
N80 C78 1.375 . S
N80 C79 1.347 . S
C81 C84 1.365 . S
C81 N86 1.328 . S
C81 H87 0.929 . S
C82 C83 1.362 . S
C82 C85 1.378 . S
C82 H97 0.929 . S
C83 C82 1.362 . S
C83 C84 1.366 . S
C84 C81 1.365 . S
C84 C83 1.366 . S
C84 H98 0.930 . S
C85 C82 1.378 . S
C85 N86 1.315 . S
C85 H88 0.930 . S
N86 Co66 2.194 . S
N86 C81 1.328 . S
N86 C85 1.315 . S
H87 C81 0.929 . S
H88 C85 0.930 . S
H89 C77 0.929 . S
H90 C79 0.929 . S
O91 Co66 2.351 . S
O91 C94 1.244 . S
O92 Co66 2.155 . S
O92 C94 1.240 . S
O93 Co66 2.096 . S
O93 C74 1.247 . S
C94 O91 1.244 . S
C94 O92 1.240 . S
H95 C69 0.931 . S
H96 C78 0.931 . S
H97 C82 0.929 . S
H98 C84 0.930 . S
Co99 N103 2.148 1_565 S
Co99 N109 2.128 . S
Co99 N119 2.194 1_565 S
Co99 O124 2.351 . S
Co99 O125 2.154 . S
Co99 O126 2.095 . S
C100 N103 1.301 . S
C100 N104 1.328 . S
C100 H105 0.930 . S
C101 C102 1.333 . S
C101 N103 1.317 . S
C101 H106 0.926 1_545 S
C102 C101 1.333 . S
C102 N104 1.350 . S
C102 H128 0.931 . S
N103 Co99 2.148 1_545 S
N103 C100 1.301 . S
N103 C101 1.317 . S
N104 C100 1.328 . S
N104 C102 1.350 . S
H105 C100 0.930 . S
H106 C101 0.926 1_565 S
C107 O108 1.224 1_565 S
C107 O126 1.247 . S
O108 C107 1.224 1_545 S
N109 Co99 2.128 . S
N109 C110 1.351 1_565 S
N109 C112 1.313 . S
C110 N109 1.351 1_545 S
C110 C111 1.363 . S
C110 H122 0.929 . S
C111 C110 1.363 . S
C111 N113 1.375 1_545 S
C111 H129 0.931 . S
C112 N109 1.313 . S
C112 N113 1.347 . S
C112 H123 0.929 . S
N113 C111 1.375 1_565 S
N113 C112 1.347 . S
C114 C117 1.365 . S
C114 N119 1.328 . S
C114 H120 0.929 . S
C115 C116 1.362 . S
C115 C118 1.378 . S
C115 H130 0.929 . S
C116 C115 1.362 . S
C116 C117 1.366 . S
C117 C114 1.365 . S
C117 C116 1.366 . S
C117 H131 0.930 . S
C118 C115 1.378 . S
C118 N119 1.315 . S
C118 H121 0.930 . S
N119 Co99 2.194 1_545 S
N119 C114 1.328 . S
N119 C118 1.315 . S
H120 C114 0.929 . S
H121 C118 0.930 . S
H122 C110 0.929 . S
H123 C112 0.929 . S
O124 Co99 2.351 . S
O124 C127 1.244 . S
O125 Co99 2.154 . S
O125 C127 1.240 . S
O126 Co99 2.095 . S
O126 C107 1.247 . S
C127 O124 1.244 . S
C127 O125 1.240 . S
H128 C102 0.931 . S
H129 C111 0.931 . S
H130 C115 0.929 . S
H131 C117 0.930 . S
Co132 N136 2.148 1_655 S
Co132 N142 2.128 . S
Co132 N152 2.194 1_655 S
Co132 O157 2.351 . S
Co132 O158 2.155 . S
Co132 O159 2.095 . S
C133 N136 1.301 . S
C133 N137 1.328 . S
C133 H138 0.930 . S
C134 C135 1.333 . S
C134 N136 1.317 . S
C134 H139 0.926 1_455 S
C135 C134 1.333 . S
C135 N137 1.350 . S
C135 H161 0.931 . S
N136 Co132 2.148 1_455 S
N136 C133 1.301 . S
N136 C134 1.317 . S
N137 C133 1.328 . S
N137 C135 1.350 . S
H138 C133 0.930 . S
H139 C134 0.926 1_655 S
C140 O141 1.224 1_655 S
C140 O159 1.247 . S
O141 C140 1.224 1_455 S
N142 Co132 2.128 . S
N142 C143 1.351 1_655 S
N142 C145 1.313 . S
C143 N142 1.351 1_455 S
C143 C144 1.363 . S
C143 H155 0.929 . S
C144 C143 1.363 . S
C144 N146 1.375 1_455 S
C144 H162 0.931 . S
C145 N142 1.313 . S
C145 N146 1.347 . S
C145 H156 0.929 . S
N146 C144 1.375 1_655 S
N146 C145 1.347 . S
C147 C150 1.365 . S
C147 N152 1.328 . S
C147 H153 0.929 . S
C148 C149 1.362 . S
C148 C151 1.378 . S
C148 H163 0.929 . S
C149 C148 1.362 . S
C149 C150 1.366 . S
C150 C147 1.365 . S
C150 C149 1.366 . S
C150 H164 0.930 . S
C151 C148 1.378 . S
C151 N152 1.315 . S
C151 H154 0.930 . S
N152 Co132 2.194 1_455 S
N152 C147 1.328 . S
N152 C151 1.315 . S
H153 C147 0.929 . S
H154 C151 0.930 . S
H155 C143 0.929 . S
H156 C145 0.929 . S
O157 Co132 2.351 . S
O157 C160 1.244 . S
O158 Co132 2.155 . S
O158 C160 1.240 . S
O159 Co132 2.095 . S
O159 C140 1.247 . S
C160 O157 1.244 . S
C160 O158 1.240 . S
H161 C135 0.931 . S
H162 C144 0.931 . S
H163 C148 0.929 . S
H164 C150 0.930 . S
Co165 N169 2.148 . S
Co165 N175 2.128 . S
Co165 N185 2.194 . S
Co165 O190 2.351 . S
Co165 O191 2.155 . S
Co165 O192 2.096 . S
C166 N169 1.301 . S
C166 N170 1.328 . S
C166 H171 0.930 . S
C167 C168 1.333 . S
C167 N169 1.317 . S
C167 H172 0.930 . S
C168 C167 1.333 . S
C168 N170 1.350 . S
C168 H194 0.931 . S
N169 Co165 2.148 . S
N169 C166 1.301 . S
N169 C167 1.317 . S
N170 C166 1.328 . S
N170 C168 1.350 . S
H171 C166 0.930 . S
H172 C167 0.930 . S
C173 O174 1.224 . S
C173 O192 1.247 . S
O174 C173 1.224 . S
N175 Co165 2.128 . S
N175 C176 1.355 . S
N175 C178 1.311 . S
C176 N175 1.355 . S
C176 C177 1.363 . S
C176 H188 0.929 . S
C177 C176 1.363 . S
C177 N179 1.375 . S
C177 H195 0.931 . S
C178 N175 1.311 . S
C178 N179 1.347 . S
C178 H189 0.929 . S
N179 C177 1.375 . S
N179 C178 1.347 . S
C180 C183 1.365 . S
C180 N185 1.328 . S
C180 H186 0.929 . S
C181 C182 1.362 . S
C181 C184 1.378 . S
C181 H196 0.929 . S
C182 C181 1.362 . S
C182 C183 1.366 . S
C183 C180 1.365 . S
C183 C182 1.366 . S
C183 H197 0.930 . S
C184 C181 1.378 . S
C184 N185 1.315 . S
C184 H187 0.930 . S
N185 Co165 2.194 . S
N185 C180 1.328 . S
N185 C184 1.315 . S
H186 C180 0.929 . S
H187 C184 0.930 . S
H188 C176 0.929 . S
H189 C178 0.929 . S
O190 Co165 2.351 . S
O190 C193 1.244 . S
O191 Co165 2.155 . S
O191 C193 1.240 . S
O192 Co165 2.096 . S
O192 C173 1.247 . S
C193 O190 1.244 . S
C193 O191 1.240 . S
H194 C168 0.931 . S
H195 C177 0.931 . S
H196 C181 0.929 . S
H197 C183 0.930 . S
Co198 N202 2.148 . S
Co198 N208 2.128 . S
Co198 N218 2.194 . S
Co198 O223 2.351 . S
Co198 O224 2.155 . S
Co198 O225 2.096 . S
C199 N202 1.301 . S
C199 N203 1.328 . S
C199 H204 0.930 . S
C200 C201 1.333 . S
C200 N202 1.317 . S
C200 H205 0.930 . S
C201 C200 1.333 . S
C201 N203 1.350 . S
C201 H227 0.931 . S
N202 Co198 2.148 . S
N202 C199 1.301 . S
N202 C200 1.317 . S
N203 C199 1.328 . S
N203 C201 1.350 . S
H204 C199 0.930 . S
H205 C200 0.930 . S
C206 O207 1.224 . S
C206 O225 1.247 . S
O207 C206 1.224 . S
N208 Co198 2.128 . S
N208 C209 1.355 . S
N208 C211 1.311 . S
C209 N208 1.355 . S
C209 C210 1.363 . S
C209 H221 0.929 . S
C210 C209 1.363 . S
C210 N212 1.375 . S
C210 H228 0.931 . S
C211 N208 1.311 . S
C211 N212 1.347 . S
C211 H222 0.929 . S
N212 C210 1.375 . S
N212 C211 1.347 . S
C213 C216 1.365 . S
C213 N218 1.328 . S
C213 H219 0.929 . S
C214 C215 1.362 . S
C214 C217 1.378 . S
C214 H229 0.929 . S
C215 C214 1.362 . S
C215 C216 1.366 . S
C216 C213 1.365 . S
C216 C215 1.366 . S
C216 H230 0.930 . S
C217 C214 1.378 . S
C217 N218 1.315 . S
C217 H220 0.930 . S
N218 Co198 2.194 . S
N218 C213 1.328 . S
N218 C217 1.315 . S
H219 C213 0.929 . S
H220 C217 0.930 . S
H221 C209 0.929 . S
H222 C211 0.929 . S
O223 Co198 2.351 . S
O223 C226 1.244 . S
O224 Co198 2.155 . S
O224 C226 1.240 . S
O225 Co198 2.096 . S
O225 C206 1.247 . S
C226 O223 1.244 . S
C226 O224 1.240 . S
H227 C201 0.931 . S
H228 C210 0.931 . S
H229 C214 0.929 . S
H230 C216 0.930 . S
Co231 N235 2.148 . S
Co231 N241 2.128 . S
Co231 N251 2.194 . S
Co231 O256 2.351 . S
Co231 O257 2.155 . S
Co231 O258 2.096 . S
C232 N235 1.301 . S
C232 N236 1.328 . S
C232 H237 0.930 . S
C233 C234 1.333 . S
C233 N235 1.317 . S
C233 H238 0.930 . S
C234 C233 1.333 . S
C234 N236 1.350 . S
C234 H260 0.931 . S
N235 Co231 2.148 . S
N235 C232 1.301 . S
N235 C233 1.317 . S
N236 C232 1.328 . S
N236 C234 1.350 . S
H237 C232 0.930 . S
H238 C233 0.930 . S
C239 O240 1.224 . S
C239 O258 1.247 . S
O240 C239 1.224 . S
N241 Co231 2.128 . S
N241 C242 1.355 . S
N241 C244 1.311 . S
C242 N241 1.355 . S
C242 C243 1.363 . S
C242 H254 0.929 . S
C243 C242 1.363 . S
C243 N245 1.375 . S
C243 H261 0.931 . S
C244 N241 1.311 . S
C244 N245 1.347 . S
C244 H255 0.929 . S
N245 C243 1.375 . S
N245 C244 1.347 . S
C246 C249 1.365 1_545 S
C246 N251 1.328 . S
C246 H252 0.929 . S
C247 C248 1.362 . S
C247 C250 1.378 1_565 S
C247 H262 0.929 . S
C248 C247 1.362 . S
C248 C249 1.366 . S
C249 C246 1.365 1_565 S
C249 C248 1.366 . S
C249 H263 0.930 . S
C250 C247 1.378 1_545 S
C250 N251 1.315 . S
C250 H253 0.930 . S
N251 Co231 2.194 . S
N251 C246 1.328 . S
N251 C250 1.315 . S
H252 C246 0.929 . S
H253 C250 0.930 . S
H254 C242 0.929 . S
H255 C244 0.929 . S
O256 Co231 2.351 . S
O256 C259 1.244 . S
O257 Co231 2.155 . S
O257 C259 1.240 . S
O258 Co231 2.096 . S
O258 C239 1.247 . S
C259 O256 1.244 . S
C259 O257 1.240 . S
H260 C234 0.931 . S
H261 C243 0.931 . S
H262 C247 0.929 . S
H263 C249 0.930 . S
H264 C276 0.930 . S
H265 C278 0.930 . S
H266 C279 0.930 . S
H267 C283 0.959 1_655 S
H268 C283 0.959 . S
H269 C283 0.961 1_665 S
H270 C284 0.960 . S
H271 C284 0.961 1_545 S
H272 C284 0.959 1_545 S
H273 C287 0.929 . S
H274 C288 0.931 . S
H275 C290 0.930 . S
C276 H264 0.930 . S
C276 C277 1.399 . S
C276 C281 1.399 1_565 S
C277 C276 1.399 . S
C277 C278 1.376 1_565 S
C278 H265 0.930 . S
C278 C277 1.376 1_545 S
C278 C279 1.388 . S
C279 H266 0.930 . S
C279 C278 1.388 . S
C279 C280 1.390 . S
C280 C279 1.390 . S
C280 C281 1.394 . S
C280 C286 1.465 . S
C281 C276 1.399 1_545 S
C281 C280 1.394 . S
C281 C282 1.516 . S
C282 C281 1.516 . S
C282 C283 1.502 . S
C282 C284 1.561 1_545 S
C282 C285 1.526 . S
C283 H267 0.959 1_455 S
C283 H268 0.959 . S
C283 H269 0.961 1_445 S
C283 C282 1.502 . S
C284 H270 0.960 . S
C284 H271 0.961 1_565 S
C284 H272 0.959 1_565 S
C284 C282 1.561 1_565 S
C285 C282 1.526 . S
C285 C286 1.396 . S
C285 C290 1.390 . S
C286 C280 1.465 . S
C286 C285 1.396 . S
C286 C287 1.399 . S
C287 H273 0.929 . S
C287 C286 1.399 . S
C287 C288 1.385 . S
C288 H274 0.931 . S
C288 C287 1.385 . S
C288 C289 1.389 . S
C289 C288 1.389 . S
C289 C290 1.387 . S
C290 H275 0.930 . S
C290 C285 1.390 . S
C290 C289 1.387 . S
H291 C303 0.930 . S
H292 C305 0.930 . S
H293 C306 0.930 . S
H294 C310 0.959 . S
H295 C310 0.959 . S
H296 C310 0.961 . S
H297 C311 0.960 1_655 S
H298 C311 0.961 . S
H299 C311 0.962 . S
H300 C314 0.929 . S
H301 C315 0.931 . S
H302 C317 0.930 . S
C303 H291 0.930 . S
C303 C304 1.399 . S
C303 C308 1.399 1_655 S
C304 C303 1.399 . S
C304 C305 1.376 . S
C305 H292 0.930 . S
C305 C304 1.376 . S
C305 C306 1.388 1_655 S
C306 H293 0.930 . S
C306 C305 1.388 1_455 S
C306 C307 1.390 . S
C307 C306 1.390 . S
C307 C308 1.394 . S
C307 C313 1.465 1_554 S
C308 C303 1.399 1_455 S
C308 C307 1.394 . S
C308 C309 1.508 1_554 S
C309 C308 1.508 1_556 S
C309 C310 1.490 1_556 S
C309 C311 1.574 . S
C309 C312 1.535 . S
C310 H294 0.959 . S
C310 H295 0.959 . S
C310 H296 0.961 . S
C310 C309 1.490 1_554 S
C311 H297 0.960 1_455 S
C311 H298 0.961 . S
C311 H299 0.962 . S
C311 C309 1.574 . S
C312 C309 1.535 . S
C312 C313 1.396 . S
C312 C317 1.390 . S
C313 C307 1.465 1_556 S
C313 C312 1.396 . S
C313 C314 1.399 . S
C314 H300 0.929 . S
C314 C313 1.399 . S
C314 C315 1.385 . S
C315 H301 0.931 . S
C315 C314 1.385 . S
C315 C316 1.389 . S
C316 C315 1.389 . S
C316 C317 1.387 . S
C317 H302 0.930 . S
C317 C312 1.390 . S
C317 C316 1.387 . S
H318 C330 0.930 . S
H319 C332 0.930 . S
H320 C333 0.930 . S
H321 C337 0.959 . S
H322 C337 0.959 . S
H323 C337 0.961 . S
H324 C338 0.960 . S
H325 C338 0.961 . S
H326 C338 0.959 . S
H327 C341 0.929 . S
H328 C342 0.931 . S
H329 C344 0.930 . S
C330 H318 0.930 . S
C330 C331 1.399 . S
C330 C335 1.399 . S
C331 C330 1.399 . S
C331 C332 1.376 . S
C332 H319 0.930 . S
C332 C331 1.376 . S
C332 C333 1.388 . S
C333 H320 0.930 . S
C333 C332 1.388 . S
C333 C334 1.390 . S
C334 C333 1.390 . S
C334 C335 1.394 . S
C334 C340 1.465 . S
C335 C330 1.399 . S
C335 C334 1.394 . S
C335 C336 1.516 . S
C336 C335 1.516 . S
C336 C337 1.502 . S
C336 C338 1.561 . S
C336 C339 1.526 . S
C337 H321 0.959 . S
C337 H322 0.959 . S
C337 H323 0.961 . S
C337 C336 1.502 . S
C338 H324 0.960 . S
C338 H325 0.961 . S
C338 H326 0.959 . S
C338 C336 1.561 . S
C339 C336 1.526 . S
C339 C340 1.396 . S
C339 C344 1.390 . S
C340 C334 1.465 . S
C340 C339 1.396 . S
C340 C341 1.399 . S
C341 H327 0.929 . S
C341 C340 1.399 . S
C341 C342 1.385 . S
C342 H328 0.931 . S
C342 C341 1.385 . S
C342 C343 1.389 . S
C343 C342 1.389 . S
C343 C344 1.387 . S
C344 H329 0.930 . S
C344 C339 1.390 . S
C344 C343 1.387 . S
H345 C357 0.930 . S
H346 C359 0.930 . S
H347 C360 0.930 . S
H348 C364 0.959 . S
H349 C364 0.959 . S
H350 C364 0.961 . S
H351 C365 0.960 . S
H352 C365 0.961 . S
H353 C365 0.959 . S
H354 C368 0.929 . S
H355 C369 0.931 . S
H356 C371 0.930 . S
C357 H345 0.930 . S
C357 C358 1.399 . S
C357 C362 1.399 . S
C358 C357 1.399 . S
C358 C359 1.376 . S
C359 H346 0.930 . S
C359 C358 1.376 . S
C359 C360 1.388 . S
C360 H347 0.930 . S
C360 C359 1.388 . S
C360 C361 1.390 . S
C361 C360 1.390 . S
C361 C362 1.394 . S
C361 C367 1.465 . S
C362 C357 1.399 . S
C362 C361 1.394 . S
C362 C363 1.516 1_556 S
C363 C362 1.516 1_554 S
C363 C364 1.502 . S
C363 C365 1.561 1_545 S
C363 C366 1.526 . S
C364 H348 0.959 . S
C364 H349 0.959 . S
C364 H350 0.961 . S
C364 C363 1.502 . S
C365 H351 0.960 . S
C365 H352 0.961 . S
C365 H353 0.959 . S
C365 C363 1.561 1_565 S
C366 C363 1.526 . S
C366 C367 1.396 1_554 S
C366 C371 1.390 . S
C367 C361 1.465 . S
C367 C366 1.396 1_556 S
C367 C368 1.399 . S
C368 H354 0.929 . S
C368 C367 1.399 . S
C368 C369 1.385 1_556 S
C369 H355 0.931 . S
C369 C368 1.385 1_554 S
C369 C370 1.389 . S
C370 C369 1.389 . S
C370 C371 1.387 . S
C371 H356 0.930 . S
C371 C366 1.390 . S
C371 C370 1.387 . S
H372 C384 0.930 . S
H373 C386 0.930 . S
H374 C387 0.930 . S
H375 C391 0.959 . S
H376 C391 0.959 . S
H377 C391 0.961 . S
H378 C392 0.960 . S
H379 C392 0.961 . S
H380 C392 0.959 . S
H381 C395 0.929 . S
H382 C396 0.931 . S
H383 C398 0.930 . S
C384 H372 0.930 . S
C384 C385 1.399 . S
C384 C389 1.399 . S
C385 C384 1.399 . S
C385 C386 1.376 . S
C386 H373 0.930 . S
C386 C385 1.376 . S
C386 C387 1.388 . S
C387 H374 0.930 . S
C387 C386 1.388 . S
C387 C388 1.390 . S
C388 C387 1.390 . S
C388 C389 1.394 . S
C388 C394 1.465 . S
C389 C384 1.399 . S
C389 C388 1.394 . S
C389 C390 1.516 . S
C390 C389 1.516 . S
C390 C391 1.502 . S
C390 C392 1.561 . S
C390 C393 1.526 . S
C391 H375 0.959 . S
C391 H376 0.959 . S
C391 H377 0.961 . S
C391 C390 1.502 . S
C392 H378 0.960 . S
C392 H379 0.961 . S
C392 H380 0.959 . S
C392 C390 1.561 . S
C393 C390 1.526 . S
C393 C394 1.396 . S
C393 C398 1.390 . S
C394 C388 1.465 . S
C394 C393 1.396 . S
C394 C395 1.399 . S
C395 H381 0.929 . S
C395 C394 1.399 . S
C395 C396 1.385 . S
C396 H382 0.931 . S
C396 C395 1.385 . S
C396 C397 1.389 . S
C397 C396 1.389 . S
C397 C398 1.387 . S
C398 H383 0.930 . S
C398 C393 1.390 . S
C398 C397 1.387 . S
H399 C411 0.930 . S
H400 C413 0.930 1_455 S
H401 C414 0.930 . S
H402 C418 0.959 . S
H403 C418 0.959 . S
H404 C418 0.961 . S
H405 C419 0.960 . S
H406 C419 0.961 . S
H407 C419 0.959 1_455 S
H408 C422 0.929 . S
H409 C423 0.931 . S
H410 C425 0.930 . S
C411 H399 0.930 . S
C411 C412 1.399 . S
C411 C416 1.399 . S
C412 C411 1.399 . S
C412 C413 1.376 . S
C413 H400 0.930 1_655 S
C413 C412 1.376 . S
C413 C414 1.388 . S
C414 H401 0.930 . S
C414 C413 1.388 . S
C414 C415 1.390 . S
C415 C414 1.390 . S
C415 C416 1.394 . S
C415 C421 1.465 . S
C416 C411 1.399 . S
C416 C415 1.394 . S
C416 C417 1.516 . S
C417 C416 1.516 . S
C417 C418 1.502 . S
C417 C419 1.561 . S
C417 C420 1.526 . S
C418 H402 0.959 . S
C418 H403 0.959 . S
C418 H404 0.961 . S
C418 C417 1.502 . S
C419 H405 0.960 . S
C419 H406 0.961 . S
C419 H407 0.959 1_655 S
C419 C417 1.561 . S
C420 C417 1.526 . S
C420 C421 1.396 . S
C420 C425 1.390 . S
C421 C415 1.465 . S
C421 C420 1.396 . S
C421 C422 1.399 . S
C422 H408 0.929 . S
C422 C421 1.399 . S
C422 C423 1.385 . S
C423 H409 0.931 . S
C423 C422 1.385 . S
C423 C424 1.389 . S
C424 C423 1.389 . S
C424 C425 1.387 . S
C425 H410 0.930 . S
C425 C420 1.390 . S
C425 C424 1.387 . S
H426 C438 0.930 . S
H427 C440 0.930 . S
H428 C441 0.930 . S
H429 C445 0.959 . S
H430 C445 0.959 . S
H431 C445 0.961 . S
H432 C446 0.960 . S
H433 C446 0.961 . S
H434 C446 0.959 . S
H435 C449 0.929 . S
H436 C450 0.931 . S
H437 C452 0.930 . S
C438 H426 0.930 . S
C438 C439 1.399 . S
C438 C443 1.399 . S
C439 C438 1.399 . S
C439 C440 1.376 . S
C440 H427 0.930 . S
C440 C439 1.376 . S
C440 C441 1.388 . S
C441 H428 0.930 . S
C441 C440 1.388 . S
C441 C442 1.390 . S
C442 C441 1.390 . S
C442 C443 1.394 . S
C442 C448 1.465 . S
C443 C438 1.399 . S
C443 C442 1.394 . S
C443 C444 1.516 . S
C444 C443 1.516 . S
C444 C445 1.502 . S
C444 C446 1.561 . S
C444 C447 1.526 . S
C445 H429 0.959 . S
C445 H430 0.959 . S
C445 H431 0.961 . S
C445 C444 1.502 . S
C446 H432 0.960 . S
C446 H433 0.961 . S
C446 H434 0.959 . S
C446 C444 1.561 . S
C447 C444 1.526 . S
C447 C448 1.396 . S
C447 C452 1.390 . S
C448 C442 1.465 . S
C448 C447 1.396 . S
C448 C449 1.399 . S
C449 H435 0.929 . S
C449 C448 1.399 . S
C449 C450 1.385 . S
C450 H436 0.931 . S
C450 C449 1.385 . S
C450 C451 1.389 . S
C451 C450 1.389 . S
C451 C452 1.387 . S
C452 H437 0.930 . S
C452 C447 1.390 . S
C452 C451 1.387 . S
H453 C465 0.930 . S
H454 C467 0.930 . S
H455 C468 0.930 1_545 S
H456 C472 0.959 . S
H457 C472 0.959 . S
H458 C472 0.961 . S
H459 C473 0.960 . S
H460 C473 0.961 . S
H461 C473 0.959 . S
H462 C476 0.929 . S
H463 C477 0.931 . S
H464 C479 0.930 . S
C465 H453 0.930 . S
C465 C466 1.399 . S
C465 C470 1.399 . S
C466 C465 1.399 . S
C466 C467 1.376 . S
C467 H454 0.930 . S
C467 C466 1.376 . S
C467 C468 1.388 . S
C468 H455 0.930 1_565 S
C468 C467 1.388 . S
C468 C469 1.390 . S
C469 C468 1.390 . S
C469 C470 1.394 . S
C469 C475 1.465 . S
C470 C465 1.399 . S
C470 C469 1.394 . S
C470 C471 1.516 . S
C471 C470 1.516 . S
C471 C472 1.502 . S
C471 C473 1.561 . S
C471 C474 1.526 . S
C472 H456 0.959 . S
C472 H457 0.959 . S
C472 H458 0.961 . S
C472 C471 1.502 . S
C473 H459 0.960 . S
C473 H460 0.961 . S
C473 H461 0.959 . S
C473 C471 1.561 . S
C474 C471 1.526 . S
C474 C475 1.396 . S
C474 C479 1.390 . S
C475 C469 1.465 . S
C475 C474 1.396 . S
C475 C476 1.399 1_565 S
C476 H462 0.929 . S
C476 C475 1.399 1_545 S
C476 C477 1.385 . S
C477 H463 0.931 . S
C477 C476 1.385 . S
C477 C478 1.389 1_545 S
C478 C477 1.389 1_565 S
C478 C479 1.387 . S
C479 H464 0.930 . S
C479 C474 1.390 . S
C479 C478 1.387 . S
H480 C492 0.930 1_455 S
H481 C494 0.930 . S
H482 C495 0.930 . S
H483 C499 0.959 . S
H484 C499 0.959 1_655 S
H485 C499 0.961 . S
H486 C500 0.960 . S
H487 C500 0.961 . S
H488 C500 0.959 . S
H489 C503 0.929 . S
H490 C504 0.931 . S
H491 C506 0.930 . S
C492 H480 0.930 1_655 S
C492 C493 1.399 . S
C492 C497 1.399 . S
C493 C492 1.399 . S
C493 C494 1.376 . S
C494 H481 0.930 . S
C494 C493 1.376 . S
C494 C495 1.388 . S
C495 H482 0.930 . S
C495 C494 1.388 . S
C495 C496 1.390 . S
C496 C495 1.390 . S
C496 C497 1.394 . S
C496 C502 1.465 . S
C497 C492 1.399 . S
C497 C496 1.394 . S
C497 C498 1.516 . S
C498 C497 1.516 . S
C498 C499 1.502 1_655 S
C498 C500 1.561 . S
C498 C501 1.526 . S
C499 H483 0.959 . S
C499 H484 0.959 1_455 S
C499 H485 0.961 . S
C499 C498 1.502 1_455 S
C500 H486 0.960 . S
C500 H487 0.961 . S
C500 H488 0.959 . S
C500 C498 1.561 . S
C501 C498 1.526 . S
C501 C502 1.396 . S
C501 C506 1.390 . S
C502 C496 1.465 . S
C502 C501 1.396 . S
C502 C503 1.399 1_565 S
C503 H489 0.929 . S
C503 C502 1.399 1_545 S
C503 C504 1.385 . S
C504 H490 0.931 . S
C504 C503 1.385 . S
C504 C505 1.389 1_545 S
C505 C504 1.389 1_565 S
C505 C506 1.387 . S
C506 H491 0.930 . S
C506 C501 1.390 . S
C506 C505 1.387 . S
H507 C519 0.930 . S
H508 C521 0.930 . S
H509 C522 0.930 . S
H510 C526 0.959 . S
H511 C526 0.959 . S
H512 C526 0.961 . S
H513 C527 0.960 . S
H514 C527 0.961 . S
H515 C527 0.959 . S
H516 C530 0.929 . S
H517 C531 0.931 . S
H518 C533 0.930 . S
C519 H507 0.930 . S
C519 C520 1.399 . S
C519 C524 1.399 . S
C520 C519 1.399 . S
C520 C521 1.376 . S
C521 H508 0.930 . S
C521 C520 1.376 . S
C521 C522 1.388 . S
C522 H509 0.930 . S
C522 C521 1.388 . S
C522 C523 1.390 . S
C523 C522 1.390 . S
C523 C524 1.394 . S
C523 C529 1.465 . S
C524 C519 1.399 . S
C524 C523 1.394 . S
C524 C525 1.516 . S
C525 C524 1.516 . S
C525 C526 1.502 . S
C525 C527 1.561 . S
C525 C528 1.526 . S
C526 H510 0.959 . S
C526 H511 0.959 . S
C526 H512 0.961 . S
C526 C525 1.502 . S
C527 H513 0.960 . S
C527 H514 0.961 . S
C527 H515 0.959 . S
C527 C525 1.561 . S
C528 C525 1.526 . S
C528 C529 1.396 . S
C528 C533 1.390 . S
C529 C523 1.465 . S
C529 C528 1.396 . S
C529 C530 1.399 . S
C530 H516 0.929 . S
C530 C529 1.399 . S
C530 C531 1.385 . S
C531 H517 0.931 . S
C531 C530 1.385 . S
C531 C532 1.389 . S
C532 C531 1.389 . S
C532 C533 1.387 . S
C533 H518 0.930 . S
C533 C528 1.390 . S
C533 C532 1.387 . S
H534 C546 0.930 . S
H535 C548 0.930 . S
H536 C549 0.930 . S
H537 C553 0.959 . S
H538 C553 0.959 . S
H539 C553 0.961 . S
H540 C554 0.960 . S
H541 C554 0.961 . S
H542 C554 0.959 . S
H543 C557 0.929 . S
H544 C558 0.931 . S
H545 C560 0.930 . S
C546 H534 0.930 . S
C546 C547 1.399 . S
C546 C551 1.399 . S
C547 C546 1.399 . S
C547 C548 1.376 . S
C548 H535 0.930 . S
C548 C547 1.376 . S
C548 C549 1.388 . S
C549 H536 0.930 . S
C549 C548 1.388 . S
C549 C550 1.390 . S
C550 C549 1.390 . S
C550 C551 1.394 . S
C550 C556 1.465 . S
C551 C546 1.399 . S
C551 C550 1.394 . S
C551 C552 1.516 . S
C552 C551 1.516 . S
C552 C553 1.502 . S
C552 C554 1.561 . S
C552 C555 1.526 . S
C553 H537 0.959 . S
C553 H538 0.959 . S
C553 H539 0.961 . S
C553 C552 1.502 . S
C554 H540 0.960 . S
C554 H541 0.961 . S
C554 H542 0.959 . S
C554 C552 1.561 . S
C555 C552 1.526 . S
C555 C556 1.396 . S
C555 C560 1.390 . S
C556 C550 1.465 . S
C556 C555 1.396 . S
C556 C557 1.399 . S
C557 H543 0.929 . S
C557 C556 1.399 . S
C557 C558 1.385 . S
C558 H544 0.931 . S
C558 C557 1.385 . S
C558 C559 1.389 . S
C559 C558 1.389 . S
C559 C560 1.387 . S
C560 H545 0.930 . S
C560 C555 1.390 . S
C560 C559 1.387 . S
H561 C573 0.930 . S
H562 C575 0.930 . S
H563 C576 0.930 . S
H564 C580 0.959 . S
H565 C580 0.959 . S
H566 C580 0.961 . S
H567 C581 0.960 . S
H568 C581 0.961 . S
H569 C581 0.959 . S
H570 C584 0.929 . S
H571 C585 0.931 . S
H572 C587 0.930 . S
C573 H561 0.930 . S
C573 C574 1.399 . S
C573 C578 1.399 . S
C574 C573 1.399 . S
C574 C575 1.376 . S
C575 H562 0.930 . S
C575 C574 1.376 . S
C575 C576 1.388 . S
C576 H563 0.930 . S
C576 C575 1.388 . S
C576 C577 1.390 . S
C577 C576 1.390 . S
C577 C578 1.394 . S
C577 C583 1.465 . S
C578 C573 1.399 . S
C578 C577 1.394 . S
C578 C579 1.516 . S
C579 C578 1.516 . S
C579 C580 1.502 . S
C579 C581 1.561 . S
C579 C582 1.526 . S
C580 H564 0.959 . S
C580 H565 0.959 . S
C580 H566 0.961 . S
C580 C579 1.502 . S
C581 H567 0.960 . S
C581 H568 0.961 . S
C581 H569 0.959 . S
C581 C579 1.561 . S
C582 C579 1.526 . S
C582 C583 1.396 . S
C582 C587 1.390 . S
C583 C577 1.465 . S
C583 C582 1.396 . S
C583 C584 1.399 . S
C584 H570 0.929 . S
C584 C583 1.399 . S
C584 C585 1.385 . S
C585 H571 0.931 . S
C585 C584 1.385 . S
C585 C586 1.389 . S
C586 C585 1.389 . S
C586 C587 1.387 . S
C587 H572 0.930 . S
C587 C582 1.390 . S
C587 C586 1.387 . S
H588 C600 0.930 . S
H589 C602 0.930 . S
H590 C603 0.930 . S
H591 C607 0.959 . S
H592 C607 0.959 . S
H593 C607 0.961 . S
H594 C608 0.960 . S
H595 C608 0.961 . S
H596 C608 0.959 . S
H597 C611 0.929 . S
H598 C612 0.931 . S
H599 C614 0.930 . S
C600 H588 0.930 . S
C600 C601 1.399 . S
C600 C605 1.399 . S
C601 C600 1.399 . S
C601 C602 1.376 . S
C602 H589 0.930 . S
C602 C601 1.376 . S
C602 C603 1.388 . S
C603 H590 0.930 . S
C603 C602 1.388 . S
C603 C604 1.390 . S
C604 C603 1.390 . S
C604 C605 1.394 . S
C604 C610 1.465 . S
C605 C600 1.399 . S
C605 C604 1.394 . S
C605 C606 1.516 . S
C606 C605 1.516 . S
C606 C607 1.502 . S
C606 C608 1.561 . S
C606 C609 1.526 . S
C607 H591 0.959 . S
C607 H592 0.959 . S
C607 H593 0.961 . S
C607 C606 1.502 . S
C608 H594 0.960 . S
C608 H595 0.961 . S
C608 H596 0.959 . S
C608 C606 1.561 . S
C609 C606 1.526 . S
C609 C610 1.396 . S
C609 C614 1.390 . S
C610 C604 1.465 . S
C610 C609 1.396 . S
C610 C611 1.399 . S
C611 H597 0.929 . S
C611 C610 1.399 . S
C611 C612 1.385 . S
C612 H598 0.931 . S
C612 C611 1.385 . S
C612 C613 1.389 . S
C613 C612 1.389 . S
C613 C614 1.387 . S
C614 H599 0.930 . S
C614 C609 1.390 . S
C614 C613 1.387 . S
H615 C627 0.930 . S
H616 C629 0.930 . S
H617 C630 0.930 . S
H618 C634 0.959 . S
H619 C634 0.959 . S
H620 C634 0.961 . S
H621 C635 0.960 . S
H622 C635 0.961 . S
H623 C635 0.959 . S
H624 C638 0.929 . S
H625 C639 0.931 . S
H626 C641 0.930 . S
C627 H615 0.930 . S
C627 C628 1.399 . S
C627 C632 1.399 . S
C628 C627 1.399 . S
C628 C629 1.376 . S
C629 H616 0.930 . S
C629 C628 1.376 . S
C629 C630 1.388 . S
C630 H617 0.930 . S
C630 C629 1.388 . S
C630 C631 1.390 . S
C631 C630 1.390 . S
C631 C632 1.394 . S
C631 C637 1.465 . S
C632 C627 1.399 . S
C632 C631 1.394 . S
C632 C633 1.516 . S
C633 C632 1.516 . S
C633 C634 1.502 . S
C633 C635 1.561 . S
C633 C636 1.526 . S
C634 H618 0.959 . S
C634 H619 0.959 . S
C634 H620 0.961 . S
C634 C633 1.502 . S
C635 H621 0.960 . S
C635 H622 0.961 . S
C635 H623 0.959 . S
C635 C633 1.561 . S
C636 C633 1.526 . S
C636 C637 1.396 . S
C636 C641 1.390 . S
C637 C631 1.465 . S
C637 C636 1.396 . S
C637 C638 1.399 . S
C638 H624 0.929 . S
C638 C637 1.399 . S
C638 C639 1.385 . S
C639 H625 0.931 . S
C639 C638 1.385 . S
C639 C640 1.389 . S
C640 C639 1.389 . S
C640 C641 1.387 . S
C641 H626 0.930 . S
C641 C636 1.390 . S
C641 C640 1.387 . S
H642 C654 0.930 . S
H643 C656 0.930 . S
H644 C657 0.930 . S
H645 C661 0.959 . S
H646 C661 0.959 . S
H647 C661 0.961 . S
H648 C662 0.960 . S
H649 C662 0.961 . S
H650 C662 0.959 . S
H651 C665 0.929 . S
H652 C666 0.931 . S
H653 C668 0.930 . S
C654 H642 0.930 . S
C654 C655 1.399 . S
C654 C659 1.399 . S
C655 C654 1.399 . S
C655 C656 1.376 . S
C656 H643 0.930 . S
C656 C655 1.376 . S
C656 C657 1.388 . S
C657 H644 0.930 . S
C657 C656 1.388 . S
C657 C658 1.390 . S
C658 C657 1.390 . S
C658 C659 1.394 . S
C658 C664 1.465 . S
C659 C654 1.399 . S
C659 C658 1.394 . S
C659 C660 1.516 . S
C660 C659 1.516 . S
C660 C661 1.502 . S
C660 C662 1.561 . S
C660 C663 1.526 . S
C661 H645 0.959 . S
C661 H646 0.959 . S
C661 H647 0.961 . S
C661 C660 1.502 . S
C662 H648 0.960 . S
C662 H649 0.961 . S
C662 H650 0.959 . S
C662 C660 1.561 . S
C663 C660 1.526 . S
C663 C664 1.396 . S
C663 C668 1.390 . S
C664 C658 1.465 . S
C664 C663 1.396 . S
C664 C665 1.399 . S
C665 H651 0.929 . S
C665 C664 1.399 . S
C665 C666 1.385 . S
C666 H652 0.931 . S
C666 C665 1.385 . S
C666 C667 1.389 . S
C667 C666 1.389 . S
C667 C668 1.387 . S
C668 H653 0.930 . S
C668 C663 1.390 . S
C668 C667 1.387 . S
H669 C681 0.930 . S
H670 C683 0.930 . S
H671 C684 0.930 . S
H672 C688 0.959 . S
H673 C688 0.959 . S
H674 C688 0.961 . S
H675 C689 0.960 . S
H676 C689 0.961 . S
H677 C689 0.959 . S
H678 C692 0.929 . S
H679 C693 0.931 . S
H680 C695 0.930 . S
C681 H669 0.930 . S
C681 C682 1.399 . S
C681 C686 1.399 . S
C682 C681 1.399 . S
C682 C683 1.376 . S
C683 H670 0.930 . S
C683 C682 1.376 . S
C683 C684 1.388 . S
C684 H671 0.930 . S
C684 C683 1.388 . S
C684 C685 1.390 . S
C685 C684 1.390 . S
C685 C686 1.394 . S
C685 C691 1.465 . S
C686 C681 1.399 . S
C686 C685 1.394 . S
C686 C687 1.516 . S
C687 C686 1.516 . S
C687 C688 1.502 . S
C687 C689 1.561 . S
C687 C690 1.526 . S
C688 H672 0.959 . S
C688 H673 0.959 . S
C688 H674 0.961 . S
C688 C687 1.502 . S
C689 H675 0.960 . S
C689 H676 0.961 . S
C689 H677 0.959 . S
C689 C687 1.561 . S
C690 C687 1.526 . S
C690 C691 1.396 . S
C690 C695 1.390 . S
C691 C685 1.465 . S
C691 C690 1.396 . S
C691 C692 1.399 . S
C692 H678 0.929 . S
C692 C691 1.399 . S
C692 C693 1.385 . S
C693 H679 0.931 . S
C693 C692 1.385 . S
C693 C694 1.389 . S
C694 C693 1.389 . S
C694 C695 1.387 . S
C695 H680 0.930 . S
C695 C690 1.390 . S
C695 C694 1.387 . S
H696 C708 0.930 . S
H697 C710 0.930 . S
H698 C711 0.930 . S
H699 C715 0.959 . S
H700 C715 0.959 . S
H701 C715 0.961 . S
H702 C716 0.960 . S
H703 C716 0.961 . S
H704 C716 0.959 . S
H705 C719 0.929 . S
H706 C720 0.931 . S
H707 C722 0.930 . S
C708 H696 0.930 . S
C708 C709 1.399 . S
C708 C713 1.399 . S
C709 C708 1.399 . S
C709 C710 1.376 . S
C710 H697 0.930 . S
C710 C709 1.376 . S
C710 C711 1.388 . S
C711 H698 0.930 . S
C711 C710 1.388 . S
C711 C712 1.390 . S
C712 C711 1.390 . S
C712 C713 1.394 . S
C712 C718 1.465 . S
C713 C708 1.399 . S
C713 C712 1.394 . S
C713 C714 1.516 . S
C714 C713 1.516 . S
C714 C715 1.502 . S
C714 C716 1.561 . S
C714 C717 1.526 . S
C715 H699 0.959 . S
C715 H700 0.959 . S
C715 H701 0.961 . S
C715 C714 1.502 . S
C716 H702 0.960 . S
C716 H703 0.961 . S
C716 H704 0.959 . S
C716 C714 1.561 . S
C717 C714 1.526 . S
C717 C718 1.396 . S
C717 C722 1.390 . S
C718 C712 1.465 . S
C718 C717 1.396 . S
C718 C719 1.399 . S
C719 H705 0.929 . S
C719 C718 1.399 . S
C719 C720 1.385 . S
C720 H706 0.931 . S
C720 C719 1.385 . S
C720 C721 1.389 . S
C721 C720 1.389 . S
C721 C722 1.387 . S
C722 H707 0.930 . S
C722 C717 1.390 . S
C722 C721 1.387 . S
H723 C735 0.930 . S
H724 C737 0.930 . S
H725 C738 0.930 . S
H726 C742 0.959 . S
H727 C742 0.959 . S
H728 C742 0.961 . S
H729 C743 0.960 . S
H730 C743 0.961 . S
H731 C743 0.959 . S
H732 C746 0.929 . S
H733 C747 0.931 . S
H734 C749 0.930 . S
C735 H723 0.930 . S
C735 C736 1.399 . S
C735 C740 1.399 . S
C736 C735 1.399 . S
C736 C737 1.376 . S
C737 H724 0.930 . S
C737 C736 1.376 . S
C737 C738 1.388 . S
C738 H725 0.930 . S
C738 C737 1.388 . S
C738 C739 1.390 . S
C739 C738 1.390 . S
C739 C740 1.394 . S
C739 C745 1.465 . S
C740 C735 1.399 . S
C740 C739 1.394 . S
C740 C741 1.516 . S
C741 C740 1.516 . S
C741 C742 1.502 . S
C741 C743 1.561 . S
C741 C744 1.526 . S
C742 H726 0.959 . S
C742 H727 0.959 . S
C742 H728 0.961 . S
C742 C741 1.502 . S
C743 H729 0.960 . S
C743 H730 0.961 . S
C743 H731 0.959 . S
C743 C741 1.561 . S
C744 C741 1.526 . S
C744 C745 1.396 . S
C744 C749 1.390 . S
C745 C739 1.465 . S
C745 C744 1.396 . S
C745 C746 1.399 . S
C746 H732 0.929 . S
C746 C745 1.399 . S
C746 C747 1.385 . S
C747 H733 0.931 . S
C747 C746 1.385 . S
C747 C748 1.389 . S
C748 C747 1.389 . S
C748 C749 1.387 . S
C749 H734 0.930 . S
C749 C744 1.390 . S
C749 C748 1.387 . S
H750 C762 0.930 . S
H751 C764 0.930 . S
H752 C765 0.930 . S
H753 C769 0.959 . S
H754 C769 0.959 . S
H755 C769 0.961 . S
H756 C770 0.960 . S
H757 C770 0.961 . S
H758 C770 0.959 . S
H759 C773 0.929 . S
H760 C774 0.931 . S
H761 C776 0.930 . S
C762 H750 0.930 . S
C762 C763 1.399 . S
C762 C767 1.399 . S
C763 C762 1.399 . S
C763 C764 1.376 . S
C764 H751 0.930 . S
C764 C763 1.376 . S
C764 C765 1.388 . S
C765 H752 0.930 . S
C765 C764 1.388 . S
C765 C766 1.390 . S
C766 C765 1.390 . S
C766 C767 1.394 . S
C766 C772 1.465 . S
C767 C762 1.399 . S
C767 C766 1.394 . S
C767 C768 1.516 . S
C768 C767 1.516 . S
C768 C769 1.502 . S
C768 C770 1.561 . S
C768 C771 1.526 . S
C769 H753 0.959 . S
C769 H754 0.959 . S
C769 H755 0.961 . S
C769 C768 1.502 . S
C770 H756 0.960 . S
C770 H757 0.961 . S
C770 H758 0.959 . S
C770 C768 1.561 . S
C771 C768 1.526 . S
C771 C772 1.396 . S
C771 C776 1.390 . S
C772 C766 1.465 . S
C772 C771 1.396 . S
C772 C773 1.399 . S
C773 H759 0.929 . S
C773 C772 1.399 . S
C773 C774 1.385 . S
C774 H760 0.931 . S
C774 C773 1.385 . S
C774 C775 1.389 . S
C775 C774 1.389 . S
C775 C776 1.387 . S
C776 H761 0.930 . S
C776 C771 1.390 . S
C776 C775 1.387 . S
H777 C789 0.930 . S
H778 C791 0.930 . S
H779 C792 0.930 . S
H780 C796 0.959 . S
H781 C796 0.959 . S
H782 C796 0.961 . S
H783 C797 0.960 . S
H784 C797 0.961 . S
H785 C797 0.959 . S
H786 C800 0.929 . S
H787 C801 0.931 . S
H788 C803 0.930 . S
C789 H777 0.930 . S
C789 C790 1.399 . S
C789 C794 1.399 . S
C790 C789 1.399 . S
C790 C791 1.376 . S
C791 H778 0.930 . S
C791 C790 1.376 . S
C791 C792 1.388 . S
C792 H779 0.930 . S
C792 C791 1.388 . S
C792 C793 1.390 . S
C793 C792 1.390 . S
C793 C794 1.394 . S
C793 C799 1.465 . S
C794 C789 1.399 . S
C794 C793 1.394 . S
C794 C795 1.516 . S
C795 C794 1.516 . S
C795 C796 1.502 . S
C795 C797 1.561 . S
C795 C798 1.526 . S
C796 H780 0.959 . S
C796 H781 0.959 . S
C796 H782 0.961 . S
C796 C795 1.502 . S
C797 H783 0.960 . S
C797 H784 0.961 . S
C797 H785 0.959 . S
C797 C795 1.561 . S
C798 C795 1.526 . S
C798 C799 1.396 . S
C798 C803 1.390 . S
C799 C793 1.465 . S
C799 C798 1.396 . S
C799 C800 1.399 . S
C800 H786 0.929 . S
C800 C799 1.399 . S
C800 C801 1.385 . S
C801 H787 0.931 . S
C801 C800 1.385 . S
C801 C802 1.389 . S
C802 C801 1.389 . S
C802 C803 1.387 . S
C803 H788 0.930 . S
C803 C798 1.390 . S
C803 C802 1.387 . S
C277 N137 1.492 . S
C289 N5 1.559 . S
C304 N38 1.542 . S
C316 N170 1.518 . S
C331 N71 1.527 . S
C343 N203 1.511 . S
C358 N236 1.487 . S
C370 N104 1.558 . S
C385 N245 0.987 . S
C397 C8 0.988 . S
C412 N146 1.012 . S
C424 C41 1.022 . S
C439 N179 1.027 . S
C451 C74 1.021 . S
C466 N212 1.013 . S
C478 C107 1.023 . S
C493 C140 1.011 . S
C505 N113 1.029 . S
C520 C173 1.033 . S
C532 N14 1.015 . S
C547 C206 0.978 . S
C559 N47 1.003 . S
C574 C239 0.978 . S
C586 N80 0.994 . S
C601 C17 1.048 . S
C613 C83 0.995 . S
C628 C50 1.070 . S
C640 C116 1.032 . S
C655 C215 1.007 . S
C667 C149 1.063 . S
C682 C248 1.067 . S
C694 C182 1.005 . S
C709 C94 0.908 . S
C721 C28 0.964 . S
C736 C61 0.845 . S
C748 C127 0.772 . S
C763 C226 0.774 . S
C775 C160 0.817 . S
C790 C259 0.955 . S
C802 C193 0.964 . S
