# Generated by pormake.
# Topology umu, (4)-cn, num edge types: 1
# Building blocks:
#     Node 0, Type 0, BuildingBlock: QUQFOY_clean_sbu_3, # of connection points: 4
#     Node 1, Type 0, BuildingBlock: QUQFOY_clean_sbu_3, # of connection points: 4
#     Node 2, Type 0, BuildingBlock: QUQFOY_clean_sbu_3, # of connection points: 4
#     Node 3, Type 0, BuildingBlock: QUQFOY_clean_sbu_3, # of connection points: 4
#     Node 4, Type 0, BuildingBlock: QUQFOY_clean_sbu_3, # of connection points: 4
#     Node 5, Type 0, BuildingBlock: QUQFOY_clean_sbu_3, # of connection points: 4
#     Node 6, Type 0, BuildingBlock: QUQFOY_clean_sbu_3, # of connection points: 4
#     Node 7, Type 0, BuildingBlock: QUQFOY_clean_sbu_3, # of connection points: 4
#     Node 8, Type 0, BuildingBlock: QUQFOY_clean_sbu_3, # of connection points: 4
#     Node 9, Type 0, BuildingBlock: QUQFOY_clean_sbu_3, # of connection points: 4
#     Node 10, Type 0, BuildingBlock: QUQFOY_clean_sbu_3, # of connection points: 4
#     Node 11, Type 0, BuildingBlock: QUQFOY_clean_sbu_3, # of connection points: 4
#     Node 12, Type 0, BuildingBlock: QUQFOY_clean_sbu_3, # of connection points: 4
#     Node 13, Type 0, BuildingBlock: QUQFOY_clean_sbu_3, # of connection points: 4
#     Node 14, Type 0, BuildingBlock: QUQFOY_clean_sbu_3, # of connection points: 4
#     Node 15, Type 0, BuildingBlock: QUQFOY_clean_sbu_3, # of connection points: 4
#     Node 16, Type 0, BuildingBlock: QUQFOY_clean_sbu_3, # of connection points: 4
#     Node 17, Type 0, BuildingBlock: QUQFOY_clean_sbu_3, # of connection points: 4
#     Node 18, Type 0, BuildingBlock: QUQFOY_clean_sbu_3, # of connection points: 4
#     Node 19, Type 0, BuildingBlock: QUQFOY_clean_sbu_3, # of connection points: 4
#     Node 20, Type 0, BuildingBlock: QUQFOY_clean_sbu_3, # of connection points: 4
#     Node 21, Type 0, BuildingBlock: QUQFOY_clean_sbu_3, # of connection points: 4
#     Node 22, Type 0, BuildingBlock: QUQFOY_clean_sbu_3, # of connection points: 4
#     Node 23, Type 0, BuildingBlock: QUQFOY_clean_sbu_3, # of connection points: 4
#     Node 24, Type 0, BuildingBlock: QUQFOY_clean_sbu_3, # of connection points: 4
#     Node 25, Type 0, BuildingBlock: QUQFOY_clean_sbu_3, # of connection points: 4
#     Node 26, Type 0, BuildingBlock: QUQFOY_clean_sbu_3, # of connection points: 4
#     Node 27, Type 0, BuildingBlock: QUQFOY_clean_sbu_3, # of connection points: 4
#     Node 28, Type 0, BuildingBlock: QUQFOY_clean_sbu_3, # of connection points: 4
#     Node 29, Type 0, BuildingBlock: QUQFOY_clean_sbu_3, # of connection points: 4
#     Node 30, Type 0, BuildingBlock: QUQFOY_clean_sbu_3, # of connection points: 4
#     Node 31, Type 0, BuildingBlock: QUQFOY_clean_sbu_3, # of connection points: 4
#     Edge 32, Type (0, 0), BuildingBlock: MIFKUJ_clean_linker_0, # of connection points: 2
#     Edge 33, Type (0, 0), BuildingBlock: MIFKUJ_clean_linker_0, # of connection points: 2
#     Edge 34, Type (0, 0), BuildingBlock: MIFKUJ_clean_linker_0, # of connection points: 2
#     Edge 35, Type (0, 0), BuildingBlock: MIFKUJ_clean_linker_0, # of connection points: 2
#     Edge 36, Type (0, 0), BuildingBlock: MIFKUJ_clean_linker_0, # of connection points: 2
#     Edge 37, Type (0, 0), BuildingBlock: MIFKUJ_clean_linker_0, # of connection points: 2
#     Edge 38, Type (0, 0), BuildingBlock: MIFKUJ_clean_linker_0, # of connection points: 2
#     Edge 39, Type (0, 0), BuildingBlock: MIFKUJ_clean_linker_0, # of connection points: 2
#     Edge 40, Type (0, 0), BuildingBlock: MIFKUJ_clean_linker_0, # of connection points: 2
#     Edge 41, Type (0, 0), BuildingBlock: MIFKUJ_clean_linker_0, # of connection points: 2
#     Edge 42, Type (0, 0), BuildingBlock: MIFKUJ_clean_linker_0, # of connection points: 2
#     Edge 43, Type (0, 0), BuildingBlock: MIFKUJ_clean_linker_0, # of connection points: 2
#     Edge 44, Type (0, 0), BuildingBlock: MIFKUJ_clean_linker_0, # of connection points: 2
#     Edge 45, Type (0, 0), BuildingBlock: MIFKUJ_clean_linker_0, # of connection points: 2
#     Edge 46, Type (0, 0), BuildingBlock: MIFKUJ_clean_linker_0, # of connection points: 2
#     Edge 47, Type (0, 0), BuildingBlock: MIFKUJ_clean_linker_0, # of connection points: 2
#     Edge 48, Type (0, 0), BuildingBlock: MIFKUJ_clean_linker_0, # of connection points: 2
#     Edge 49, Type (0, 0), BuildingBlock: MIFKUJ_clean_linker_0, # of connection points: 2
#     Edge 50, Type (0, 0), BuildingBlock: MIFKUJ_clean_linker_0, # of connection points: 2
#     Edge 51, Type (0, 0), BuildingBlock: MIFKUJ_clean_linker_0, # of connection points: 2
#     Edge 52, Type (0, 0), BuildingBlock: MIFKUJ_clean_linker_0, # of connection points: 2
#     Edge 53, Type (0, 0), BuildingBlock: MIFKUJ_clean_linker_0, # of connection points: 2
#     Edge 54, Type (0, 0), BuildingBlock: MIFKUJ_clean_linker_0, # of connection points: 2
#     Edge 55, Type (0, 0), BuildingBlock: MIFKUJ_clean_linker_0, # of connection points: 2
#     Edge 56, Type (0, 0), BuildingBlock: MIFKUJ_clean_linker_0, # of connection points: 2
#     Edge 57, Type (0, 0), BuildingBlock: MIFKUJ_clean_linker_0, # of connection points: 2
#     Edge 58, Type (0, 0), BuildingBlock: MIFKUJ_clean_linker_0, # of connection points: 2
#     Edge 59, Type (0, 0), BuildingBlock: MIFKUJ_clean_linker_0, # of connection points: 2
#     Edge 60, Type (0, 0), BuildingBlock: MIFKUJ_clean_linker_0, # of connection points: 2
#     Edge 61, Type (0, 0), BuildingBlock: MIFKUJ_clean_linker_0, # of connection points: 2
#     Edge 62, Type (0, 0), BuildingBlock: MIFKUJ_clean_linker_0, # of connection points: 2
#     Edge 63, Type (0, 0), BuildingBlock: MIFKUJ_clean_linker_0, # of connection points: 2
#     Edge 64, Type (0, 0), BuildingBlock: MIFKUJ_clean_linker_0, # of connection points: 2
#     Edge 65, Type (0, 0), BuildingBlock: MIFKUJ_clean_linker_0, # of connection points: 2
#     Edge 66, Type (0, 0), BuildingBlock: MIFKUJ_clean_linker_0, # of connection points: 2
#     Edge 67, Type (0, 0), BuildingBlock: MIFKUJ_clean_linker_0, # of connection points: 2
#     Edge 68, Type (0, 0), BuildingBlock: MIFKUJ_clean_linker_0, # of connection points: 2
#     Edge 69, Type (0, 0), BuildingBlock: MIFKUJ_clean_linker_0, # of connection points: 2
#     Edge 70, Type (0, 0), BuildingBlock: MIFKUJ_clean_linker_0, # of connection points: 2
#     Edge 71, Type (0, 0), BuildingBlock: MIFKUJ_clean_linker_0, # of connection points: 2
#     Edge 72, Type (0, 0), BuildingBlock: MIFKUJ_clean_linker_0, # of connection points: 2
#     Edge 73, Type (0, 0), BuildingBlock: MIFKUJ_clean_linker_0, # of connection points: 2
#     Edge 74, Type (0, 0), BuildingBlock: MIFKUJ_clean_linker_0, # of connection points: 2
#     Edge 75, Type (0, 0), BuildingBlock: MIFKUJ_clean_linker_0, # of connection points: 2
#     Edge 76, Type (0, 0), BuildingBlock: MIFKUJ_clean_linker_0, # of connection points: 2
#     Edge 77, Type (0, 0), BuildingBlock: MIFKUJ_clean_linker_0, # of connection points: 2
#     Edge 78, Type (0, 0), BuildingBlock: MIFKUJ_clean_linker_0, # of connection points: 2
#     Edge 79, Type (0, 0), BuildingBlock: MIFKUJ_clean_linker_0, # of connection points: 2
#     Edge 80, Type (0, 0), BuildingBlock: MIFKUJ_clean_linker_0, # of connection points: 2
#     Edge 81, Type (0, 0), BuildingBlock: MIFKUJ_clean_linker_0, # of connection points: 2
#     Edge 82, Type (0, 0), BuildingBlock: MIFKUJ_clean_linker_0, # of connection points: 2
#     Edge 83, Type (0, 0), BuildingBlock: MIFKUJ_clean_linker_0, # of connection points: 2
#     Edge 84, Type (0, 0), BuildingBlock: MIFKUJ_clean_linker_0, # of connection points: 2
#     Edge 85, Type (0, 0), BuildingBlock: MIFKUJ_clean_linker_0, # of connection points: 2
#     Edge 86, Type (0, 0), BuildingBlock: MIFKUJ_clean_linker_0, # of connection points: 2
#     Edge 87, Type (0, 0), BuildingBlock: MIFKUJ_clean_linker_0, # of connection points: 2
#     Edge 88, Type (0, 0), BuildingBlock: MIFKUJ_clean_linker_0, # of connection points: 2
#     Edge 89, Type (0, 0), BuildingBlock: MIFKUJ_clean_linker_0, # of connection points: 2
#     Edge 90, Type (0, 0), BuildingBlock: MIFKUJ_clean_linker_0, # of connection points: 2
#     Edge 91, Type (0, 0), BuildingBlock: MIFKUJ_clean_linker_0, # of connection points: 2
#     Edge 92, Type (0, 0), BuildingBlock: MIFKUJ_clean_linker_0, # of connection points: 2
#     Edge 93, Type (0, 0), BuildingBlock: MIFKUJ_clean_linker_0, # of connection points: 2
#     Edge 94, Type (0, 0), BuildingBlock: MIFKUJ_clean_linker_0, # of connection points: 2
#     Edge 95, Type (0, 0), BuildingBlock: MIFKUJ_clean_linker_0, # of connection points: 2
# Relax obj value: 0.125
# Max RMSD: 0.094
# Mean RMSD: 0.094
data_MOF--net-umu--node1-QUQFOY_clean_sbu_3--edge1-MIFKUJ_clean_linker_0
_symmetry_space_group_name_H-M    P1
_symmetry_Int_Tables_number       1
_symmetry_cell_setting            triclinic
loop_
_symmetry_equiv_pos_as_xyz
'x, y, z'
_cell_length_a     109.35708
_cell_length_b     109.37668
_cell_length_c     33.877144
_cell_angle_alpha  89.977505
_cell_angle_beta   90.014322
_cell_angle_gamma 90.025819
loop_
_atom_site_label
_atom_site_type_symbol
_atom_site_fract_x
_atom_site_fract_y
_atom_site_fract_z
_atom_type_partial_charge
C0 C 0.22356 0.15997 0.13825 0.0
O1 O 0.2317 0.16438 0.11556 0.0
Cd2 Cd 0.22963 0.17282 0.0521 0.0
O3 O 0.21229 0.15974 0.12812 0.0
Cd4 Cd 0.20028 0.16568 0.06785 0.0
C5 C 0.20874 0.19552 0.07503 0.0
O6 O 0.21607 0.15811 0.02721 0.0
O7 O 0.20187 0.16681 0.99402 0.0
O8 O 0.18734 0.14777 0.07489 0.0
C9 C 0.21184 0.16093 0.99392 0.0
O10 O 0.21937 0.19221 0.06402 0.0
C11 C 0.17741 0.15332 0.06738 0.0
O12 O 0.20022 0.18772 0.08013 0.0
O13 O 0.17801 0.16486 0.06356 0.0
C14 C 0.10407 0.9808 0.39286 0.0
O15 O 0.10169 0.98902 0.36756 0.0
Cd16 Cd 0.09257 0.98575 0.30512 0.0
O17 O 0.10228 0.96952 0.38503 0.0
Cd18 Cd 0.0956 0.95759 0.32577 0.0
C19 C 0.06723 0.96885 0.33342 0.0
O20 O 0.10467 0.9703 0.27542 0.0
O21 O 0.09 0.9588 0.25548 0.0
O22 O 0.11215 0.94285 0.33103 0.0
C23 C 0.09859 0.96609 0.24678 0.0
O24 O 0.07168 0.97864 0.31889 0.0
C25 C 0.10539 0.93352 0.32629 0.0
O26 O 0.07409 0.95978 0.34143 0.0
O27 O 0.09394 0.93537 0.32487 0.0
C28 C 0.26994 0.85883 0.62281 0.0
O29 O 0.26281 0.85574 0.59501 0.0
Cd30 Cd 0.2686 0.84766 0.53331 0.0
O31 O 0.28153 0.85805 0.6187 0.0
Cd32 Cd 0.29552 0.85187 0.56334 0.0
C33 C 0.2856 0.82291 0.56523 0.0
O34 O 0.28408 0.86099 0.51034 0.0
O35 O 0.29615 0.84664 0.49217 0.0
O36 O 0.30876 0.8694 0.5726 0.0
C37 C 0.28905 0.85528 0.48231 0.0
O38 O 0.27632 0.82715 0.54704 0.0
C39 C 0.31873 0.86352 0.57025 0.0
O40 O 0.29395 0.83004 0.57786 0.0
O41 O 0.31793 0.85195 0.56848 0.0
C42 C 0.39884 0.03223 0.89841 0.0
O43 O 0.40418 0.02505 0.87459 0.0
Cd44 Cd 0.41178 0.02967 0.81151 0.0
O45 O 0.39722 0.04349 0.88966 0.0
Cd46 Cd 0.40241 0.0562 0.83009 0.0
C47 C 0.43279 0.05169 0.83575 0.0
O48 O 0.39542 0.04112 0.78411 0.0
O49 O 0.40626 0.05522 0.75762 0.0
O50 O 0.38353 0.06794 0.83158 0.0
C51 C 0.39923 0.04613 0.75297 0.0
O52 O 0.4306 0.04105 0.82233 0.0
C53 C 0.38871 0.07823 0.8269 0.0
O54 O 0.4241 0.05902 0.84359 0.0
O55 O 0.4003 0.07834 0.82817 0.0
C56 C 0.22119 0.86082 0.00752 0.0
O57 O 0.22966 0.85817 0.03166 0.0
Cd58 Cd 0.22731 0.84946 0.09502 0.0
O59 O 0.20998 0.85922 0.0167 0.0
Cd60 Cd 0.19897 0.85215 0.07738 0.0
C61 C 0.21045 0.82381 0.07074 0.0
O62 O 0.21217 0.86176 0.12543 0.0
O63 O 0.20106 0.84715 0.14786 0.0
O64 O 0.18364 0.86823 0.0735 0.0
C65 C 0.20832 0.85589 0.15502 0.0
O66 O 0.22029 0.82844 0.08433 0.0
C67 C 0.17465 0.86123 0.08073 0.0
O68 O 0.20131 0.83055 0.06252 0.0
O69 O 0.17688 0.84985 0.08246 0.0
C70 C 0.3962 0.97952 0.26793 0.0
O71 O 0.39931 0.98837 0.28993 0.0
Cd72 Cd 0.4103 0.987 0.3493 0.0
O73 O 0.39863 0.96848 0.27738 0.0
Cd74 Cd 0.40754 0.95851 0.33791 0.0
C75 C 0.43551 0.96995 0.32114 0.0
O76 O 0.39834 0.97251 0.38368 0.0
O77 O 0.41311 0.96213 0.40821 0.0
O78 O 0.39095 0.94378 0.33748 0.0
C79 C 0.40426 0.96938 0.41392 0.0
O80 O 0.43097 0.97998 0.33345 0.0
C81 C 0.39742 0.93466 0.34753 0.0
O82 O 0.42881 0.9605 0.31724 0.0
O83 O 0.40889 0.93636 0.3493 0.0
C84 C 0.27382 0.15808 0.51597 0.0
O85 O 0.26614 0.16156 0.54176 0.0
Cd86 Cd 0.26966 0.16919 0.60564 0.0
O87 O 0.28533 0.15852 0.52245 0.0
Cd88 Cd 0.29857 0.16414 0.58023 0.0
C89 C 0.28865 0.19353 0.58196 0.0
O90 O 0.28455 0.15491 0.62412 0.0
O91 O 0.29872 0.16457 0.65435 0.0
O92 O 0.31184 0.14691 0.56629 0.0
C93 C 0.28935 0.15781 0.65651 0.0
O94 O 0.27868 0.18936 0.59605 0.0
C95 C 0.3217 0.15252 0.57426 0.0
O96 O 0.29722 0.18634 0.57143 0.0
O97 O 0.32086 0.16393 0.58075 0.0
C98 C 0.09615 0.03103 0.77607 0.0
O99 O 0.09278 0.02349 0.80237 0.0
Cd100 Cd 0.08576 0.02793 0.86667 0.0
O101 O 0.09608 0.04252 0.78287 0.0
Cd102 Cd 0.0907 0.05528 0.84189 0.0
C103 C 0.06136 0.04652 0.84298 0.0
O104 O 0.10004 0.04235 0.89114 0.0
O105 O 0.08652 0.05477 0.91346 0.0
O106 O 0.10827 0.06861 0.83407 0.0
C107 C 0.09501 0.04722 0.92074 0.0
O108 O 0.0654 0.03675 0.85881 0.0
C109 C 0.10245 0.07848 0.83992 0.0
O110 O 0.06869 0.0547 0.83044 0.0
O111 O 0.0909 0.07765 0.84238 0.0
C112 C 0.77315 0.85985 0.02602 0.0
O113 O 0.76529 0.85669 0.05162 0.0
Cd114 Cd 0.76921 0.8469 0.11236 0.0
O115 O 0.78456 0.85826 0.03221 0.0
Cd116 Cd 0.79705 0.85065 0.08962 0.0
C117 C 0.78627 0.82212 0.08041 0.0
O118 O 0.78461 0.85914 0.1416 0.0
O119 O 0.79633 0.84439 0.15952 0.0
O120 O 0.81106 0.86783 0.0855 0.0
C121 C 0.78918 0.85296 0.16942 0.0
O122 O 0.77658 0.82637 0.09615 0.0
C123 C 0.82072 0.86155 0.09003 0.0
O124 O 0.7952 0.82913 0.07197 0.0
O125 O 0.81946 0.85001 0.09054 0.0
C126 C 0.89753 0.03228 0.76895 0.0
O127 O 0.90043 0.02493 0.7964 0.0
Cd128 Cd 0.9061 0.02944 0.86178 0.0
O129 O 0.89749 0.04384 0.7746 0.0
Cd130 Cd 0.90155 0.05729 0.83335 0.0
C131 C 0.93089 0.04809 0.84338 0.0
O132 O 0.89102 0.04404 0.87753 0.0
O133 O 0.902 0.05735 0.9071 0.0
O134 O 0.88453 0.07091 0.82 0.0
C135 C 0.89415 0.04886 0.9097 0.0
O136 O 0.92656 0.03828 0.85806 0.0
C137 C 0.89051 0.0807 0.82555 0.0
O138 O 0.92383 0.05629 0.82948 0.0
O139 O 0.90197 0.07963 0.83054 0.0
C140 C 0.7252 0.16337 0.51885 0.0
O141 O 0.73227 0.16735 0.54564 0.0
Cd142 Cd 0.72735 0.17112 0.61238 0.0
O143 O 0.71388 0.16142 0.52586 0.0
Cd144 Cd 0.70058 0.16383 0.58532 0.0
C145 C 0.70623 0.19384 0.59967 0.0
O146 O 0.71502 0.15397 0.62791 0.0
O147 O 0.70068 0.16323 0.65873 0.0
O148 O 0.6883 0.1459 0.57013 0.0
C149 C 0.70974 0.15604 0.66027 0.0
O150 O 0.71639 0.19046 0.61438 0.0
C151 C 0.67814 0.15096 0.57784 0.0
O152 O 0.69907 0.18611 0.58368 0.0
O153 O 0.67836 0.16238 0.58444 0.0
C154 C 0.6042 0.98101 0.26562 0.0
O155 O 0.6013 0.98942 0.28968 0.0
Cd156 Cd 0.59152 0.98747 0.35143 0.0
O157 O 0.60221 0.96974 0.27341 0.0
Cd158 Cd 0.59443 0.95817 0.33224 0.0
C159 C 0.56607 0.97055 0.32425 0.0
O160 O 0.60381 0.97184 0.37793 0.0
O161 O 0.59173 0.95896 0.40521 0.0
O162 O 0.61039 0.94282 0.32541 0.0
C163 C 0.5994 0.96754 0.40933 0.0
O164 O 0.57067 0.98046 0.33735 0.0
C165 C 0.60341 0.93379 0.33241 0.0
O166 O 0.57277 0.96123 0.3179 0.0
O167 O 0.59206 0.93605 0.33529 0.0
C168 C 0.77716 0.1588 0.14072 0.0
O169 O 0.76839 0.16167 0.11798 0.0
Cd170 Cd 0.76941 0.17057 0.05493 0.0
O171 O 0.7883 0.16043 0.13048 0.0
Cd172 Cd 0.79852 0.16742 0.06794 0.0
C173 C 0.78704 0.196 0.07561 0.0
O174 O 0.78395 0.15734 0.02653 0.0
O175 O 0.79573 0.16962 -0.00476 0.0
O176 O 0.81354 0.15117 0.07321 0.0
C177 C 0.78751 0.16147 0.9938 0.0
O178 O 0.77685 0.19141 0.06498 0.0
C179 C 0.82255 0.15766 0.06223 0.0
O180 O 0.79638 0.18924 0.08085 0.0
O181 O 0.8206 0.16904 0.05809 0.0
C182 C 0.59201 0.03381 0.89782 0.0
O183 O 0.58635 0.02615 0.87637 0.0
Cd184 Cd 0.57912 0.02815 0.81117 0.0
O185 O 0.59426 0.04464 0.88549 0.0
Cd186 Cd 0.58985 0.05609 0.82286 0.0
C187 C 0.55908 0.05188 0.82711 0.0
O188 O 0.59579 0.03889 0.78436 0.0
O189 O 0.58893 0.05375 0.74957 0.0
O190 O 0.60904 0.06728 0.82654 0.0
C191 C 0.59375 0.04323 0.75061 0.0
O192 O 0.56106 0.0408 0.81766 0.0
C193 C 0.60435 0.0776 0.81844 0.0
O194 O 0.56789 0.05929 0.83271 0.0
O195 O 0.59277 0.07807 0.81622 0.0
C196 C 0.72362 0.8643 0.64485 0.0
O197 O 0.73164 0.86071 0.62041 0.0
Cd198 Cd 0.72835 0.85106 0.5591 0.0
O199 O 0.71223 0.86323 0.63704 0.0
Cd200 Cd 0.70043 0.85544 0.57841 0.0
C201 C 0.71069 0.82685 0.59095 0.0
O202 O 0.71354 0.86343 0.52716 0.0
O203 O 0.70222 0.84837 0.50955 0.0
O204 O 0.68512 0.87172 0.57771 0.0
C205 C 0.70948 0.85684 0.49951 0.0
O206 O 0.72058 0.83064 0.57526 0.0
C207 C 0.6761 0.86451 0.57345 0.0
O208 O 0.70198 0.83421 0.59833 0.0
O209 O 0.67835 0.85315 0.57546 0.0
C210 C 0.90176 0.98216 0.38565 0.0
O211 O 0.90524 0.99035 0.36157 0.0
Cd212 Cd 0.91266 0.98789 0.29702 0.0
O213 O 0.90199 0.97084 0.3762 0.0
Cd214 Cd 0.90775 0.95919 0.31491 0.0
C215 C 0.93706 0.96912 0.31878 0.0
O216 O 0.89817 0.97377 0.27284 0.0
O217 O 0.90933 0.96097 0.24153 0.0
O218 O 0.89081 0.94494 0.32294 0.0
C219 C 0.90166 0.96963 0.24009 0.0
O220 O 0.93302 0.97935 0.30645 0.0
C221 C 0.89695 0.93549 0.31403 0.0
O222 O 0.9298 0.96031 0.3261 0.0
O223 O 0.90838 0.93693 0.30946 0.0
C224 C 0.72717 0.66165 0.63493 0.0
O225 O 0.73444 0.66555 0.6086 0.0
Cd226 Cd 0.72916 0.67394 0.54714 0.0
O227 O 0.71559 0.66192 0.62968 0.0
Cd228 Cd 0.70191 0.66809 0.57341 0.0
C229 C 0.71066 0.69752 0.57844 0.0
O230 O 0.71494 0.65917 0.52485 0.0
O231 O 0.70131 0.67102 0.50034 0.0
O232 O 0.68897 0.65037 0.58418 0.0
C233 C 0.70956 0.6631 0.49452 0.0
O234 O 0.72055 0.69394 0.56234 0.0
C235 C 0.67899 0.65593 0.57741 0.0
O236 O 0.70233 0.68992 0.58763 0.0
O237 O 0.67961 0.66746 0.57357 0.0
C238 C 0.59885 0.48466 0.88627 0.0
O239 O 0.59614 0.49245 0.85993 0.0
Cd240 Cd 0.58768 0.48827 0.79716 0.0
O241 O 0.59747 0.47323 0.87998 0.0
Cd242 Cd 0.59086 0.4605 0.82227 0.0
C243 C 0.56228 0.47159 0.8258 0.0
O244 O 0.60049 0.47267 0.77185 0.0
O245 O 0.58641 0.46061 0.75091 0.0
O246 O 0.60795 0.44673 0.83128 0.0
C247 C 0.59513 0.46781 0.7428 0.0
O248 O 0.56686 0.48111 0.80986 0.0
C249 C 0.60191 0.43701 0.8251 0.0
O250 O 0.56909 0.4627 0.83618 0.0
O251 O 0.59038 0.43812 0.8221 0.0
C252 C 0.77745 0.3634 0.14707 0.0
O253 O 0.76884 0.36125 0.12296 0.0
Cd254 Cd 0.77073 0.35247 0.05969 0.0
O255 O 0.78861 0.36145 0.13781 0.0
Cd256 Cd 0.79951 0.35525 0.07579 0.0
C257 C 0.78794 0.32676 0.0814 0.0
O258 O 0.7857 0.36524 0.03102 0.0
O259 O 0.79766 0.3523 0.00339 0.0
O260 O 0.81428 0.37172 0.08223 0.0
C261 C 0.78962 0.36055 -0.00052 0.0
O262 O 0.77788 0.33148 0.07007 0.0
C263 C 0.82357 0.36516 0.07467 0.0
O264 O 0.79729 0.33342 0.0877 0.0
O265 O 0.82176 0.35374 0.07128 0.0
C266 C 0.8989 0.53323 0.38644 0.0
O267 O 0.9022 0.52547 0.36072 0.0
Cd268 Cd 0.91039 0.52938 0.29797 0.0
O269 O 0.89984 0.54471 0.37989 0.0
Cd270 Cd 0.90644 0.55729 0.32147 0.0
C271 C 0.93539 0.54683 0.32427 0.0
O272 O 0.89649 0.54429 0.27491 0.0
O273 O 0.90949 0.55637 0.24841 0.0
O274 O 0.88968 0.57159 0.33082 0.0
C275 C 0.90101 0.54862 0.24373 0.0
O276 O 0.93107 0.53706 0.30927 0.0
C277 C 0.89599 0.58111 0.32406 0.0
O278 O 0.92835 0.55558 0.33408 0.0
O279 O 0.90743 0.57961 0.31997 0.0
C280 C 0.72275 0.35269 0.52011 0.0
O281 O 0.73021 0.34831 0.54513 0.0
Cd282 Cd 0.7272 0.34491 0.61327 0.0
O283 O 0.71175 0.35525 0.52981 0.0
Cd284 Cd 0.69989 0.35271 0.59261 0.0
C285 C 0.7057 0.32252 0.60583 0.0
O286 O 0.71551 0.36221 0.63162 0.0
O287 O 0.70161 0.35347 0.66597 0.0
O288 O 0.68683 0.37052 0.58221 0.0
C289 C 0.71099 0.36027 0.66523 0.0
O290 O 0.71616 0.32573 0.61859 0.0
C291 C 0.67693 0.36495 0.59 0.0
O292 O 0.69837 0.33037 0.59131 0.0
O293 O 0.67765 0.35348 0.59512 0.0
C294 C 0.89738 0.48415 0.76822 0.0
O295 O 0.9006 0.49222 0.79306 0.0
Cd296 Cd 0.90924 0.48877 0.85559 0.0
O297 O 0.89854 0.47277 0.77595 0.0
Cd298 Cd 0.90569 0.4607 0.83453 0.0
C299 C 0.93431 0.4718 0.82738 0.0
O300 O 0.89589 0.4737 0.88142 0.0
O301 O 0.90936 0.46191 0.90701 0.0
O302 O 0.88924 0.44592 0.82753 0.0
C303 C 0.90074 0.46947 0.91226 0.0
O304 O 0.92999 0.4816 0.84213 0.0
C305 C 0.89587 0.43664 0.83443 0.0
O306 O 0.92734 0.46281 0.81944 0.0
O307 O 0.9073 0.43847 0.8372 0.0
C308 C 0.77628 0.65611 0.01608 0.0
O309 O 0.76765 0.65901 0.03931 0.0
Cd310 Cd 0.76873 0.66613 0.10476 0.0
O311 O 0.78747 0.65686 0.02687 0.0
Cd312 Cd 0.79819 0.66264 0.08974 0.0
C313 C 0.78674 0.69155 0.08823 0.0
O314 O 0.78345 0.65228 0.12888 0.0
O315 O 0.7957 0.66317 0.16316 0.0
O316 O 0.81364 0.64678 0.08182 0.0
C317 C 0.78694 0.65559 0.1626 0.0
O318 O 0.77651 0.68701 0.09874 0.0
C319 C 0.82257 0.65362 0.09121 0.0
O320 O 0.79589 0.68469 0.08119 0.0
O321 O 0.82023 0.66487 0.0964 0.0
C322 C 0.6048 0.53257 0.27249 0.0
O323 O 0.60204 0.52465 0.29837 0.0
Cd324 Cd 0.5933 0.52876 0.36083 0.0
O325 O 0.60358 0.54397 0.27963 0.0
Cd326 Cd 0.59725 0.55664 0.33762 0.0
C327 C 0.56859 0.54639 0.3305 0.0
O328 O 0.60566 0.54411 0.38949 0.0
O329 O 0.59098 0.55594 0.40729 0.0
O330 O 0.61502 0.56968 0.33284 0.0
C331 C 0.59943 0.54864 0.41726 0.0
O332 O 0.57287 0.53673 0.34645 0.0
C333 C 0.60928 0.57967 0.33701 0.0
O334 O 0.57564 0.55518 0.32086 0.0
O335 O 0.59768 0.57906 0.33751 0.0
C336 C 0.27468 0.36019 0.52199 0.0
O337 O 0.26716 0.35705 0.54864 0.0
Cd338 Cd 0.27214 0.34903 0.61115 0.0
O339 O 0.2862 0.35933 0.52769 0.0
Cd340 Cd 0.29954 0.35303 0.58443 0.0
C341 C 0.28935 0.32409 0.58269 0.0
O342 O 0.28734 0.36268 0.63425 0.0
O343 O 0.29959 0.3491 0.6568 0.0
O344 O 0.31327 0.37018 0.57403 0.0
C345 C 0.29212 0.35766 0.66398 0.0
O346 O 0.27985 0.3284 0.59937 0.0
C347 C 0.32305 0.36411 0.57877 0.0
O348 O 0.29789 0.33116 0.57111 0.0
O349 O 0.32192 0.3526 0.5823 0.0
C350 C 0.40301 0.53332 0.2692 0.0
O351 O 0.40673 0.52532 0.29353 0.0
Cd352 Cd 0.41336 0.52813 0.35878 0.0
O353 O 0.40288 0.54466 0.27844 0.0
Cd354 Cd 0.40923 0.55595 0.33993 0.0
C355 C 0.43831 0.5458 0.33774 0.0
O356 O 0.39847 0.54207 0.38249 0.0
O357 O 0.41148 0.55336 0.4125 0.0
O358 O 0.39356 0.57176 0.33152 0.0
C359 C 0.40262 0.54594 0.41483 0.0
O360 O 0.43414 0.53599 0.35282 0.0
C361 C 0.40034 0.58038 0.34397 0.0
O362 O 0.43111 0.55432 0.32711 0.0
O363 O 0.41147 0.57779 0.35032 0.0
C364 C 0.225 0.65982 0.02637 0.0
O365 O 0.23218 0.66258 0.05445 0.0
Cd366 Cd 0.22717 0.66822 0.11938 0.0
O367 O 0.2134 0.65983 0.03135 0.0
Cd368 Cd 0.19979 0.66428 0.08959 0.0
C369 C 0.20994 0.69345 0.09626 0.0
O370 O 0.21229 0.65324 0.13509 0.0
O371 O 0.19924 0.66489 0.16323 0.0
O372 O 0.18526 0.64802 0.07429 0.0
C373 C 0.20715 0.6565 0.16663 0.0
O374 O 0.21952 0.68905 0.11221 0.0
C375 C 0.17586 0.6544 0.08201 0.0
O376 O 0.20153 0.68644 0.08349 0.0
O377 O 0.17762 0.6657 0.08843 0.0
C378 C 0.10209 0.48444 0.76773 0.0
O379 O 0.09945 0.4929 0.79188 0.0
Cd380 Cd 0.08951 0.49 0.85306 0.0
O381 O 0.10008 0.47325 0.77638 0.0
Cd382 Cd 0.09255 0.46193 0.83595 0.0
C383 C 0.06444 0.47309 0.82243 0.0
O384 O 0.10139 0.47492 0.88578 0.0
O385 O 0.08603 0.46427 0.90532 0.0
O386 O 0.10926 0.44735 0.83284 0.0
C387 C 0.09493 0.47116 0.91419 0.0
O388 O 0.06877 0.48294 0.8369 0.0
C389 C 0.10269 0.43797 0.83887 0.0
O390 O 0.07133 0.46391 0.81625 0.0
O391 O 0.0912 0.43964 0.84039 0.0
C392 C 0.27619 0.65692 0.64342 0.0
O393 O 0.2675 0.65949 0.61995 0.0
Cd394 Cd 0.26864 0.6664 0.55423 0.0
O395 O 0.28736 0.65788 0.63269 0.0
Cd396 Cd 0.29777 0.66349 0.56901 0.0
C397 C 0.28614 0.69216 0.56999 0.0
O398 O 0.28324 0.65253 0.52963 0.0
O399 O 0.29496 0.66419 0.49597 0.0
O400 O 0.3139 0.64828 0.57941 0.0
C401 C 0.28666 0.65612 0.49609 0.0
O402 O 0.27612 0.68744 0.55835 0.0
C403 C 0.32237 0.65504 0.56587 0.0
O404 O 0.29527 0.68545 0.57864 0.0
O405 O 0.31953 0.66597 0.55735 0.0
C406 C 0.10133 0.53306 0.38152 0.0
O407 O 0.09838 0.52584 0.3538 0.0
Cd408 Cd 0.09096 0.53106 0.2905 0.0
O409 O 0.10076 0.54464 0.37675 0.0
Cd410 Cd 0.09488 0.55831 0.32025 0.0
C411 C 0.06592 0.54788 0.31998 0.0
O412 O 0.10438 0.54663 0.26822 0.0
O413 O 0.09064 0.55929 0.24888 0.0
O414 O 0.11168 0.57256 0.33063 0.0
C415 C 0.09913 0.55194 0.23976 0.0
O416 O 0.07021 0.53851 0.30249 0.0
C417 C 0.10517 0.58208 0.32613 0.0
O418 O 0.07299 0.55632 0.33229 0.0
O419 O 0.0937 0.58049 0.32361 0.0
C420 C 0.22321 0.36125 0.14334 0.0
O421 O 0.23157 0.35725 0.12082 0.0
Cd422 Cd 0.22946 0.34809 0.05859 0.0
O423 O 0.21195 0.3607 0.13328 0.0
Cd424 Cd 0.20118 0.35382 0.07136 0.0
C425 C 0.20993 0.32448 0.08213 0.0
O426 O 0.21624 0.36236 0.02813 0.0
O427 O 0.20417 0.34983 -0.00068 0.0
O428 O 0.1868 0.37086 0.07239 0.0
C429 C 0.21262 0.35769 -0.00375 0.0
O430 O 0.22044 0.32797 0.07041 0.0
C431 C 0.17746 0.36436 0.06487 0.0
O432 O 0.20134 0.33216 0.0872 0.0
O433 O 0.17904 0.35287 0.06379 0.0
C434 C 0.39378 0.48233 0.89466 0.0
O435 O 0.39646 0.49066 0.8701 0.0
Cd436 Cd 0.4055 0.48811 0.80765 0.0
O437 O 0.39569 0.47106 0.88677 0.0
Cd438 Cd 0.40308 0.45997 0.82632 0.0
C439 C 0.43141 0.47178 0.83196 0.0
O440 O 0.39262 0.47296 0.7803 0.0
O441 O 0.40664 0.46198 0.75412 0.0
O442 O 0.38712 0.4446 0.83074 0.0
C443 C 0.39764 0.46911 0.74925 0.0
O444 O 0.42664 0.48152 0.81824 0.0
C445 C 0.39403 0.43565 0.82231 0.0
O446 O 0.42477 0.46257 0.84032 0.0
O447 O 0.40542 0.43785 0.82054 0.0
H448 H 0.09254 0.10045 0.862 0.0
H449 H 0.1028 0.11618 0.9016 0.0
H450 H 0.13705 0.09717 0.88813 0.0
H451 H 0.12702 0.0816 0.84805 0.0
H452 H 0.12471 0.10066 0.97147 0.0
H453 H 0.13845 0.12079 0.84998 0.0
H454 H 0.13479 0.13125 0.78658 0.0
H455 H 0.11352 0.15867 0.84579 0.0
H456 H 0.11692 0.14826 0.90951 0.0
H457 H 0.17513 0.12877 0.05739 0.0
H458 H 0.15892 0.11825 0.02222 0.0
H459 H 0.13816 0.15177 0.01626 0.0
H460 H 0.15474 0.16254 0.05011 0.0
H461 H 0.13941 0.14288 0.94699 0.0
H462 H 0.12792 0.12552 0.06905 0.0
H463 H 0.13027 0.11554 0.13386 0.0
H464 H 0.14485 0.08351 0.07778 0.0
H465 H 0.14276 0.09335 0.01266 0.0
C466 C 0.10234 0.09988 0.86617 0.0
C467 C 0.10895 0.08969 0.85236 0.0
C468 C 0.10816 0.10884 0.88891 0.0
C469 C 0.1206 0.10768 0.89804 0.0
C470 C 0.12741 0.09814 0.8814 0.0
C471 C 0.12166 0.08928 0.85836 0.0
C472 C 0.1262 0.11525 0.92918 0.0
C473 C 0.128 0.10988 0.9663 0.0
C474 C 0.12985 0.12745 0.92268 0.0
C475 C 0.12779 0.13365 0.88439 0.0
C476 C 0.13287 0.12896 0.84941 0.0
C477 C 0.13087 0.13491 0.81344 0.0
C478 C 0.12389 0.14559 0.81213 0.0
C479 C 0.11891 0.15038 0.84683 0.0
C480 C 0.12087 0.14446 0.88287 0.0
C481 C 0.16697 0.13386 0.04968 0.0
C482 C 0.16627 0.14651 0.05624 0.0
C483 C 0.15764 0.12779 0.02963 0.0
C484 C 0.14724 0.13418 0.0166 0.0
C485 C 0.1461 0.14665 0.02583 0.0
C486 C 0.15555 0.15278 0.04543 0.0
C487 C 0.13847 0.12813 0.98938 0.0
C488 C 0.13596 0.13376 0.95289 0.0
C489 C 0.13394 0.11621 -0.00325 0.0
C490 C 0.13523 0.11022 0.03591 0.0
C491 C 0.13171 0.11638 0.07053 0.0
C492 C 0.13298 0.11074 0.10734 0.0
C493 C 0.13772 0.09891 0.10994 0.0
C494 C 0.14118 0.09268 0.07572 0.0
C495 C 0.13992 0.09827 0.03884 0.0
H496 H 0.1387 0.09456 0.13847 0.0
H497 H 0.12236 0.15018 0.78426 0.0
H498 H 0.1295 0.9271 0.32494 0.0
H499 H 0.13836 0.9106 0.28593 0.0
H500 H 0.10226 0.89674 0.26081 0.0
H501 H 0.09329 0.91328 0.29965 0.0
H502 H 0.13832 0.88554 0.27691 0.0
H503 H 0.10104 0.89336 0.15999 0.0
H504 H 0.08565 0.90892 0.14202 0.0
H505 H 0.10828 0.93708 0.19176 0.0
H506 H 0.12386 0.92172 0.20938 0.0
H507 H 0.15626 0.84892 0.11792 0.0
H508 H 0.14067 0.85807 0.16024 0.0
H509 H 0.1512 0.89398 0.12005 0.0
H510 H 0.16688 0.88493 0.07789 0.0
H511 H 0.12607 0.89206 0.13724 0.0
H512 H 0.16555 0.88351 0.1947 0.0
H513 H 0.18303 0.87034 0.21213 0.0
H514 H 0.15936 0.84734 0.28082 0.0
H515 H 0.14168 0.86027 0.26314 0.0
C516 C 0.12345 0.9203 0.31233 0.0
C517 C 0.11069 0.92164 0.31463 0.0
C518 C 0.12854 0.91084 0.29009 0.0
C519 C 0.12094 0.90265 0.26978 0.0
C520 C 0.10826 0.9031 0.27586 0.0
C521 C 0.10316 0.91254 0.29819 0.0
C522 C 0.12615 0.89511 0.23766 0.0
C523 C 0.13549 0.88678 0.24647 0.0
C524 C 0.12268 0.89702 0.19781 0.0
C525 C 0.11352 0.90637 0.18643 0.0
C526 C 0.10273 0.90288 0.16693 0.0
C527 C 0.09398 0.91166 0.15681 0.0
C528 C 0.09596 0.92397 0.16588 0.0
C529 C 0.10673 0.92754 0.18487 0.0
C530 C 0.11552 0.9188 0.19493 0.0
C531 C 0.15496 0.85874 0.1169 0.0
C532 C 0.16294 0.86624 0.09513 0.0
C533 C 0.14607 0.86394 0.14125 0.0
C534 C 0.14499 0.87669 0.14378 0.0
C535 C 0.15195 0.88411 0.11859 0.0
C536 C 0.16092 0.87893 0.09453 0.0
C537 C 0.13811 0.88236 0.17656 0.0
C538 C 0.12858 0.89047 0.1678 0.0
C539 C 0.14165 0.88051 0.21636 0.0
C540 C 0.15227 0.87275 0.22716 0.0
C541 C 0.16405 0.87558 0.21319 0.0
C542 C 0.174 0.86817 0.22316 0.0
C543 C 0.1723 0.85798 0.24748 0.0
C544 C 0.16065 0.85521 0.26191 0.0
C545 C 0.15066 0.86257 0.2519 0.0
H546 H 0.18002 0.85227 0.25523 0.0
H547 H 0.08917 0.93075 0.15811 0.0
H548 H 0.40862 0.91484 0.38158 0.0
H549 H 0.39879 0.89959 0.42429 0.0
H550 H 0.36347 0.91459 0.39547 0.0
H551 H 0.37309 0.92965 0.35241 0.0
H552 H 0.37454 0.91433 0.48396 0.0
H553 H 0.36457 0.89069 0.3636 0.0
H554 H 0.37072 0.87901 0.30458 0.0
H555 H 0.39195 0.85475 0.37695 0.0
H556 H 0.38605 0.86641 0.43635 0.0
H557 H 0.3219 0.88781 0.5572 0.0
H558 H 0.33938 0.89752 0.52658 0.0
H559 H 0.35964 0.86372 0.53406 0.0
H560 H 0.34172 0.85369 0.56297 0.0
H561 H 0.3615 0.87134 0.46431 0.0
H562 H 0.36837 0.89128 0.58546 0.0
H563 H 0.3638 0.90251 0.64678 0.0
H564 H 0.35123 0.93325 0.57915 0.0
H565 H 0.35554 0.92215 0.51742 0.0
C566 C 0.39874 0.91461 0.38324 0.0
C567 C 0.39164 0.92354 0.36394 0.0
C568 C 0.39316 0.90593 0.40775 0.0
C569 C 0.38046 0.9061 0.41314 0.0
C570 C 0.37331 0.91438 0.39161 0.0
C571 C 0.37883 0.92295 0.36692 0.0
C572 C 0.37464 0.89888 0.44476 0.0
C573 C 0.37165 0.90492 0.47992 0.0
C574 C 0.37151 0.88647 0.43999 0.0
C575 C 0.37503 0.87952 0.40428 0.0
C576 C 0.37067 0.88296 0.36685 0.0
C577 C 0.37407 0.87632 0.33335 0.0
C578 C 0.38176 0.86617 0.33699 0.0
C579 C 0.38602 0.86263 0.37416 0.0
C580 C 0.38265 0.86924 0.40774 0.0
C581 C 0.33017 0.88249 0.55345 0.0
C582 C 0.33038 0.86994 0.56224 0.0
C583 C 0.34026 0.88811 0.53606 0.0
C584 C 0.35095 0.88142 0.52814 0.0
C585 C 0.3515 0.86908 0.53971 0.0
C586 C 0.34128 0.86338 0.55651 0.0
C587 C 0.36073 0.88696 0.50334 0.0
C588 C 0.36458 0.88064 0.46934 0.0
C589 C 0.36488 0.89908 0.50962 0.0
C590 C 0.36226 0.90584 0.54673 0.0
C591 C 0.36456 0.90041 0.58363 0.0
C592 C 0.36202 0.90676 0.61848 0.0
C593 C 0.35722 0.91858 0.61686 0.0
C594 C 0.35496 0.92409 0.58037 0.0
C595 C 0.35747 0.91778 0.54543 0.0
H596 H 0.35526 0.92348 0.64388 0.0
H597 H 0.38438 0.86104 0.31103 0.0
H598 H 0.36501 0.07873 0.8024 0.0
H599 H 0.35605 0.09375 0.75768 0.0
H600 H 0.38795 0.11657 0.76994 0.0
H601 H 0.39718 0.10145 0.81424 0.0
H602 H 0.36048 0.12784 0.76439 0.0
H603 H 0.39173 0.1023 0.69987 0.0
H604 H 0.401 0.08213 0.68695 0.0
H605 H 0.36675 0.06897 0.64182 0.0
H606 H 0.35725 0.08902 0.65488 0.0
H607 H 0.3435 0.16174 0.60055 0.0
H608 H 0.35845 0.15055 0.64012 0.0
H609 H 0.33967 0.11677 0.61471 0.0
H610 H 0.32492 0.1278 0.57435 0.0
H611 H 0.36308 0.11227 0.62688 0.0
H612 H 0.33104 0.13408 0.69259 0.0
H613 H 0.31856 0.1521 0.70949 0.0
H614 H 0.3503 0.17007 0.75656 0.0
H615 H 0.36301 0.1522 0.73933 0.0
C616 C 0.36997 0.08712 0.79678 0.0
C617 C 0.38188 0.08883 0.81141 0.0
C618 C 0.36484 0.09566 0.77107 0.0
C619 C 0.37146 0.1061 0.7602 0.0
C620 C 0.38277 0.1085 0.778 0.0
C621 C 0.388 0.09987 0.80335 0.0
C622 C 0.36721 0.11355 0.72667 0.0
C623 C 0.3613 0.12465 0.73419 0.0
C624 C 0.36794 0.10906 0.68761 0.0
C625 C 0.37377 0.09713 0.6786 0.0
C626 C 0.38617 0.09508 0.68737 0.0
C627 C 0.39147 0.08368 0.67995 0.0
C628 C 0.38448 0.07427 0.66353 0.0
C629 C 0.37218 0.07626 0.6544 0.0
C630 C 0.36683 0.08765 0.66176 0.0
C631 C 0.34284 0.15187 0.60203 0.0
C632 C 0.33285 0.14568 0.58516 0.0
C633 C 0.35135 0.1455 0.6249 0.0
C634 C 0.3499 0.1329 0.63147 0.0
C635 C 0.34088 0.12651 0.61045 0.0
C636 C 0.33244 0.13285 0.58733 0.0
C637 C 0.3564 0.12673 0.66431 0.0
C638 C 0.3626 0.11575 0.65683 0.0
C639 C 0.35561 0.13115 0.70362 0.0
C640 C 0.348 0.14189 0.7142 0.0
C641 C 0.33538 0.14192 0.70627 0.0
C642 C 0.32825 0.1521 0.71593 0.0
C643 C 0.33364 0.16225 0.73398 0.0
C644 C 0.34615 0.16222 0.74248 0.0
C645 C 0.35332 0.15207 0.73276 0.0
H646 H 0.32811 0.17012 0.74147 0.0
H647 H 0.38858 0.06544 0.65785 0.0
H648 H 0.82546 0.88595 0.09475 0.0
H649 H 0.84221 0.89557 0.13021 0.0
H650 H 0.85901 0.86032 0.14838 0.0
H651 H 0.842 0.85054 0.11359 0.0
H652 H 0.85691 0.87154 0.21602 0.0
H653 H 0.87315 0.88293 0.09189 0.0
H654 H 0.87332 0.8909 0.02382 0.0
H655 H 0.86222 0.92622 0.06585 0.0
H656 H 0.86181 0.91843 0.13413 0.0
H657 H 0.90758 0.91429 0.28815 0.0
H658 H 0.89748 0.89809 0.25023 0.0
H659 H 0.86254 0.91509 0.27109 0.0
H660 H 0.87244 0.93116 0.3095 0.0
H661 H 0.87805 0.91023 0.18152 0.0
H662 H 0.85627 0.89496 0.30286 0.0
H663 H 0.85715 0.8865 0.37034 0.0
H664 H 0.88095 0.85785 0.33025 0.0
H665 H 0.88031 0.86628 0.26261 0.0
C666 C 0.83288 0.88025 0.10524 0.0
C667 C 0.83234 0.86746 0.10163 0.0
C668 C 0.84251 0.88579 0.12546 0.0
C669 C 0.85191 0.87868 0.14201 0.0
C670 C 0.85185 0.86598 0.13598 0.0
C671 C 0.84216 0.86041 0.11583 0.0
C672 C 0.86083 0.88444 0.16934 0.0
C673 C 0.86172 0.87986 0.20806 0.0
C674 C 0.86716 0.8953 0.15925 0.0
C675 C 0.8674 0.90006 0.11818 0.0
C676 C 0.87066 0.89238 0.08661 0.0
C677 C 0.87082 0.89687 0.04798 0.0
C678 C 0.86777 0.90906 0.04051 0.0
C679 C 0.86459 0.91679 0.07168 0.0
C680 C 0.86441 0.91234 0.11037 0.0
C681 C 0.8977 0.91433 0.28596 0.0
C682 C 0.89082 0.92407 0.30155 0.0
C683 C 0.89197 0.90509 0.26421 0.0
C684 C 0.87931 0.90545 0.25801 0.0
C685 C 0.87232 0.91462 0.27601 0.0
C686 C 0.87801 0.92379 0.29797 0.0
C687 C 0.87359 0.89756 0.22792 0.0
C688 C 0.87339 0.90176 0.18883 0.0
C689 C 0.868 0.88635 0.23747 0.0
C690 C 0.86839 0.88134 0.27797 0.0
C691 C 0.86181 0.88695 0.30859 0.0
C692 C 0.86223 0.88214 0.3468 0.0
C693 C 0.86914 0.87167 0.35462 0.0
C694 C 0.87562 0.86597 0.32419 0.0
C695 C 0.87523 0.87076 0.28593 0.0
H696 H 0.86945 0.86795 0.38421 0.0
H697 H 0.8679 0.91252 0.01058 0.0
H698 H 0.86636 0.08375 0.84079 0.0
H699 H 0.85711 0.10076 0.87516 0.0
H700 H 0.89084 0.12114 0.86592 0.0
H701 H 0.90046 0.10359 0.83355 0.0
H702 H 0.88439 0.12211 0.93639 0.0
H703 H 0.86215 0.13035 0.82005 0.0
H704 H 0.84977 0.12638 0.76059 0.0
H705 H 0.82046 0.11283 0.83269 0.0
H706 H 0.83271 0.11654 0.89256 0.0
H707 H 0.84223 0.16888 0.02756 0.0
H708 H 0.85705 0.15905 0.98353 0.0
H709 H 0.84251 0.12372 0.01468 0.0
H710 H 0.82784 0.13336 0.05908 0.0
H711 H 0.84114 0.13529 0.92641 0.0
H712 H 0.86683 0.12438 0.04118 0.0
H713 H 0.87957 0.13003 0.0984 0.0
H714 H 0.90275 0.15155 0.02325 0.0
H715 H 0.89001 0.14616 0.96566 0.0
C716 C 0.87173 0.09198 0.84486 0.0
C717 C 0.88418 0.09228 0.8347 0.0
C718 C 0.86638 0.10181 0.86445 0.0
C719 C 0.87321 0.11237 0.87307 0.0
C720 C 0.88537 0.11309 0.85985 0.0
C721 C 0.89084 0.1031 0.84103 0.0
C722 C 0.86808 0.12175 0.90026 0.0
C723 C 0.87502 0.12521 0.93348 0.0
C724 C 0.85586 0.12592 0.89684 0.0
C725 C 0.84839 0.1237 0.86086 0.0
C726 C 0.85309 0.12646 0.82324 0.0
C727 C 0.84609 0.12426 0.78945 0.0
C728 C 0.83434 0.11935 0.79286 0.0
C729 C 0.82956 0.11665 0.83009 0.0
C730 C 0.83652 0.11882 0.86398 0.0
C731 C 0.8425 0.15899 0.02625 0.0
C732 C 0.83375 0.1519 0.04639 0.0
C733 C 0.85095 0.15342 0.00098 0.0
C734 C 0.85072 0.14072 -0.00426 0.0
C735 C 0.84276 0.13356 0.01845 0.0
C736 C 0.83442 0.13909 0.04391 0.0
C737 C 0.85729 0.13499 0.96256 0.0
C738 C 0.85059 0.13235 0.92835 0.0
C739 C 0.86975 0.13182 0.96464 0.0
C740 C 0.87737 0.13502 -0.00073 0.0
C741 C 0.87455 0.13044 0.03695 0.0
C742 C 0.8818 0.13356 0.06943 0.0
C743 C 0.89194 0.14119 0.0645 0.0
C744 C 0.89488 0.14567 0.02705 0.0
C745 C 0.88765 0.14258 -0.00551 0.0
H746 H 0.89754 0.14359 0.08967 0.0
H747 H 0.82894 0.11765 0.76666 0.0
H748 H 0.67675 0.12616 0.58378 0.0
H749 H 0.66203 0.11491 0.62386 0.0
H750 H 0.64055 0.14763 0.63839 0.0
H751 H 0.65538 0.15909 0.5988 0.0
H752 H 0.65904 0.12491 0.70498 0.0
H753 H 0.60996 0.13471 0.65488 0.0
H754 H 0.59841 0.13877 0.59369 0.0
H755 H 0.62452 0.11793 0.52716 0.0
H756 H 0.63612 0.11361 0.58799 0.0
H757 H 0.59707 0.10091 0.80095 0.0
H758 H 0.60852 0.11593 0.76222 0.0
H759 H 0.63986 0.09193 0.76227 0.0
H760 H 0.6287 0.07724 0.80218 0.0
H761 H 0.61552 0.11295 0.69085 0.0
H762 H 0.66594 0.10597 0.74448 0.0
H763 H 0.67716 0.10336 0.80705 0.0
H764 H 0.64793 0.12081 0.87008 0.0
H765 H 0.63661 0.1237 0.80785 0.0
C766 C 0.66868 0.1309 0.59419 0.0
C767 C 0.66734 0.14357 0.58874 0.0
C768 C 0.66031 0.12446 0.61729 0.0
C769 C 0.65036 0.13052 0.63446 0.0
C770 C 0.64823 0.14283 0.62538 0.0
C771 C 0.65668 0.14934 0.60264 0.0
C772 C 0.64342 0.12448 0.66633 0.0
C773 C 0.64955 0.12214 0.7019 0.0
C774 C 0.63092 0.12153 0.66272 0.0
C775 C 0.62399 0.12398 0.62594 0.0
C776 C 0.61322 0.13098 0.62719 0.0
C777 C 0.60667 0.13332 0.59257 0.0
C778 C 0.61076 0.12865 0.55653 0.0
C779 C 0.6214 0.1216 0.55506 0.0
C780 C 0.62798 0.11922 0.5896 0.0
C781 C 0.60655 0.09906 0.79388 0.0
C782 C 0.61197 0.08787 0.80446 0.0
C783 C 0.61305 0.1076 0.77147 0.0
C784 C 0.62505 0.10508 0.75917 0.0
C785 C 0.6307 0.09424 0.77191 0.0
C786 C 0.62428 0.0858 0.79475 0.0
C787 C 0.63122 0.11299 0.72959 0.0
C788 C 0.62497 0.11579 0.69441 0.0
C789 C 0.64358 0.1166 0.73384 0.0
C790 C 0.65038 0.11497 0.77146 0.0
C791 C 0.66193 0.10931 0.77165 0.0
C792 C 0.6683 0.10777 0.80708 0.0
C793 C 0.66325 0.11189 0.84253 0.0
C794 C 0.65182 0.11759 0.84262 0.0
C795 C 0.64541 0.11916 0.80727 0.0
H796 H 0.6682 0.11068 0.86992 0.0
H797 H 0.60567 0.13048 0.52977 0.0
H798 H 0.62733 0.92669 0.33255 0.0
H799 H 0.63606 0.91007 0.37134 0.0
H800 H 0.59982 0.89758 0.40143 0.0
H801 H 0.59099 0.91426 0.36281 0.0
H802 H 0.61323 0.90266 0.4662 0.0
H803 H 0.61879 0.87918 0.34883 0.0
H804 H 0.62514 0.87536 0.2801 0.0
H805 H 0.66244 0.88311 0.31082 0.0
H806 H 0.6563 0.88714 0.3796 0.0
H807 H 0.65767 0.85103 0.54128 0.0
H808 H 0.64096 0.85876 0.50041 0.0
H809 H 0.651 0.89575 0.53016 0.0
H810 H 0.66791 0.88812 0.57052 0.0
H811 H 0.64695 0.87396 0.43496 0.0
H812 H 0.6241 0.91261 0.52608 0.0
H813 H 0.61792 0.91662 0.59487 0.0
H814 H 0.61484 0.87805 0.61623 0.0
H815 H 0.62083 0.8738 0.54744 0.0
C816 C 0.6212 0.92016 0.34625 0.0
C817 C 0.60847 0.92189 0.34503 0.0
C818 C 0.62621 0.91064 0.36842 0.0
C819 C 0.61858 0.90264 0.3895 0.0
C820 C 0.60586 0.9037 0.38551 0.0
C821 C 0.60083 0.9132 0.36322 0.0
C822 C 0.6239 0.89443 0.41975 0.0
C823 C 0.62049 0.89625 0.45931 0.0
C824 C 0.63331 0.88603 0.41072 0.0
C825 C 0.63707 0.88351 0.3694 0.0
C826 C 0.62834 0.88014 0.34089 0.0
C827 C 0.63191 0.87793 0.30192 0.0
C828 C 0.64419 0.879 0.29109 0.0
C829 C 0.65293 0.88227 0.31924 0.0
C830 C 0.64942 0.8845 0.35826 0.0
C831 C 0.6561 0.8608 0.54019 0.0
C832 C 0.66419 0.86899 0.55879 0.0
C833 C 0.64658 0.86519 0.51664 0.0
C834 C 0.64483 0.8778 0.51211 0.0
C835 C 0.6522 0.88597 0.53346 0.0
C836 C 0.66184 0.8816 0.55653 0.0
C837 C 0.63651 0.8825 0.48126 0.0
C838 C 0.63946 0.88012 0.44168 0.0
C839 C 0.62671 0.89041 0.49025 0.0
C840 C 0.623 0.89289 0.53162 0.0
C841 C 0.62204 0.90498 0.54538 0.0
C842 C 0.61859 0.9073 0.5844 0.0
C843 C 0.61602 0.8976 0.60993 0.0
C844 C 0.61687 0.88555 0.59647 0.0
C845 C 0.62032 0.88319 0.55748 0.0
H846 H 0.61334 0.89941 0.64012 0.0
H847 H 0.64693 0.87729 0.2609 0.0
H848 H 0.67645 0.63124 0.57068 0.0
H849 H 0.66177 0.6208 0.52825 0.0
H850 H 0.64223 0.65458 0.51091 0.0
H851 H 0.65701 0.66523 0.553 0.0
H852 H 0.62794 0.62918 0.51648 0.0
H853 H 0.66031 0.65192 0.44675 0.0
H854 H 0.68197 0.65753 0.43691 0.0
H855 H 0.69126 0.6197 0.42132 0.0
H856 H 0.6697 0.61387 0.4314 0.0
H857 H 0.5997 0.60244 0.35146 0.0
H858 H 0.60967 0.61887 0.38855 0.0
H859 H 0.64325 0.59813 0.38994 0.0
H860 H 0.6336 0.58213 0.35134 0.0
H861 H 0.64902 0.62036 0.38985 0.0
H862 H 0.62038 0.59628 0.46528 0.0
H863 H 0.60018 0.58755 0.48128 0.0
H864 H 0.58532 0.62369 0.49379 0.0
H865 H 0.60542 0.63262 0.47734 0.0
C866 C 0.66878 0.6364 0.55914 0.0
C867 C 0.66802 0.64912 0.5646 0.0
C868 C 0.66043 0.63041 0.53478 0.0
C869 C 0.65112 0.63701 0.51601 0.0
C870 C 0.64943 0.64939 0.52509 0.0
C871 C 0.65787 0.65544 0.54923 0.0
C872 C 0.64445 0.63138 0.48282 0.0
C873 C 0.6324 0.62746 0.48842 0.0
C874 C 0.65048 0.62888 0.4468 0.0
C875 C 0.6634 0.63246 0.44003 0.0
C876 C 0.66699 0.6448 0.44143 0.0
C877 C 0.67925 0.64802 0.43572 0.0
C878 C 0.68798 0.63898 0.42837 0.0
C879 C 0.68449 0.6267 0.4268 0.0
C880 C 0.67225 0.62344 0.43245 0.0
C881 C 0.60933 0.6016 0.35852 0.0
C882 C 0.61581 0.59089 0.34908 0.0
C883 C 0.61498 0.61093 0.38009 0.0
C884 C 0.62709 0.60955 0.39329 0.0
C885 C 0.63387 0.5994 0.38051 0.0
C886 C 0.62831 0.59021 0.35837 0.0
C887 C 0.63245 0.61786 0.42339 0.0
C888 C 0.64434 0.62231 0.41737 0.0
C889 C 0.62641 0.62045 0.45955 0.0
C890 C 0.61434 0.61511 0.46959 0.0
C891 C 0.61278 0.60236 0.4712 0.0
C892 C 0.60135 0.59738 0.48036 0.0
C893 C 0.59146 0.60506 0.48841 0.0
C894 C 0.59299 0.61775 0.48744 0.0
C895 C 0.60439 0.62278 0.47819 0.0
H896 H 0.58262 0.60119 0.49552 0.0
H897 H 0.69745 0.64146 0.42381 0.0
H898 H 0.62644 0.43328 0.81913 0.0
H899 H 0.63633 0.41798 0.77771 0.0
H900 H 0.60172 0.39999 0.7597 0.0
H901 H 0.5916 0.41545 0.80057 0.0
H902 H 0.62914 0.38553 0.76951 0.0
H903 H 0.60299 0.41392 0.6931 0.0
H904 H 0.59528 0.43478 0.68061 0.0
H905 H 0.63203 0.44761 0.66388 0.0
H906 H 0.63996 0.42687 0.67705 0.0
H907 H 0.65431 0.35554 0.60636 0.0
H908 H 0.63802 0.36586 0.64283 0.0
H909 H 0.65832 0.39965 0.63767 0.0
H910 H 0.67439 0.38954 0.60014 0.0
H911 H 0.63503 0.40463 0.6378 0.0
H912 H 0.66185 0.37915 0.71482 0.0
H913 H 0.67213 0.3599 0.73318 0.0
H914 H 0.63729 0.34302 0.75449 0.0
H915 H 0.62679 0.36214 0.73569 0.0
C916 C 0.62096 0.42584 0.80761 0.0
C917 C 0.6082 0.42571 0.81254 0.0
C918 C 0.62664 0.41712 0.78389 0.0
C919 C 0.61969 0.40804 0.76531 0.0
C920 C 0.60719 0.407 0.77381 0.0
C921 C 0.60145 0.41582 0.79723 0.0
C922 C 0.62518 0.40103 0.73267 0.0
C923 C 0.63017 0.3895 0.74034 0.0
C924 C 0.62684 0.40649 0.69523 0.0
C925 C 0.62206 0.41888 0.68638 0.0
C926 C 0.60943 0.42122 0.68709 0.0
C927 C 0.60502 0.43301 0.67985 0.0
C928 C 0.61316 0.44251 0.67152 0.0
C929 C 0.62573 0.44024 0.67036 0.0
C930 C 0.63019 0.42847 0.67769 0.0
C931 C 0.6551 0.36527 0.61181 0.0
C932 C 0.66573 0.37169 0.60099 0.0
C933 C 0.64582 0.37113 0.63293 0.0
C934 C 0.64714 0.38342 0.64409 0.0
C935 C 0.65715 0.39013 0.62973 0.0
C936 C 0.66635 0.38432 0.6082 0.0
C937 C 0.639 0.38896 0.67423 0.0
C938 C 0.63366 0.40037 0.66638 0.0
C939 C 0.63726 0.38348 0.71182 0.0
C940 C 0.64354 0.37201 0.72338 0.0
C941 C 0.65638 0.3713 0.72316 0.0
C942 C 0.66224 0.36042 0.73367 0.0
C943 C 0.65536 0.35023 0.74488 0.0
C944 C 0.6426 0.35091 0.74571 0.0
C945 C 0.63669 0.36176 0.73513 0.0
H946 H 0.65992 0.34182 0.75301 0.0
H947 H 0.60974 0.45162 0.6658 0.0
H948 H 0.87163 0.4313 0.84167 0.0
H949 H 0.86294 0.41523 0.88302 0.0
H950 H 0.89877 0.39968 0.89958 0.0
H951 H 0.90766 0.41588 0.85872 0.0
H952 H 0.86854 0.38512 0.88802 0.0
H953 H 0.89991 0.40835 0.9702 0.0
H954 H 0.90968 0.4282 0.98487 0.0
H955 H 0.87437 0.44465 0.00051 0.0
H956 H 0.86442 0.42492 0.98532 0.0
H957 H 0.84448 0.35364 0.05037 0.0
H958 H 0.86108 0.36292 0.01234 0.0
H959 H 0.84522 0.39857 0.03078 0.0
H960 H 0.82888 0.38945 0.06966 0.0
H961 H 0.86888 0.40085 0.02554 0.0
H962 H 0.83721 0.38071 0.95093 0.0
H963 H 0.82427 0.36328 0.93102 0.0
H964 H 0.85619 0.3433 0.8952 0.0
H965 H 0.86933 0.36056 0.91545 0.0
C966 C 0.87764 0.42424 0.8529 0.0
C967 C 0.89036 0.42499 0.8475 0.0
C968 C 0.87265 0.41507 0.87656 0.0
C969 C 0.88028 0.40646 0.89471 0.0
C970 C 0.89279 0.40635 0.88593 0.0
C971 C 0.89783 0.41558 0.86247 0.0
C972 C 0.87536 0.39899 0.92723 0.0
C973 C 0.86891 0.38829 0.91835 0.0
C974 C 0.87547 0.40348 0.96632 0.0
C975 C 0.88145 0.41522 0.97637 0.0
C976 C 0.89425 0.41623 0.97656 0.0
C977 C 0.89982 0.42745 0.98497 0.0
C978 C 0.89265 0.43769 0.99353 0.0
C979 C 0.87991 0.43672 0.99382 0.0
C980 C 0.87431 0.42552 0.98533 0.0
C981 C 0.84477 0.3635 0.04749 0.0
C982 C 0.83524 0.3708 0.06237 0.0
C983 C 0.85422 0.36878 0.02551 0.0
C984 C 0.85418 0.38139 0.01772 0.0
C985 C 0.84539 0.38881 0.0361 0.0
C986 C 0.83603 0.38356 0.05834 0.0
C987 C 0.86216 0.38672 0.98678 0.0
C988 C 0.86897 0.39725 -0.00428 0.0
C989 C 0.86213 0.3822 0.94751 0.0
C990 C 0.85426 0.37184 0.93517 0.0
C991 C 0.84147 0.37256 0.93907 0.0
C992 C 0.8341 0.36272 0.9277 0.0
C993 C 0.83941 0.35217 0.91198 0.0
C994 C 0.8521 0.35146 0.90749 0.0
C995 C 0.85951 0.36126 0.91891 0.0
H996 H 0.8337 0.34457 0.90318 0.0
H997 H 0.89697 0.44637 -0.0 0.0
H998 H 0.82921 0.62958 0.09196 0.0
H999 H 0.84576 0.6207 0.13098 0.0
H1000 H 0.85907 0.65677 0.15876 0.0
H1001 H 0.8425 0.6658 0.11999 0.0
H1002 H 0.87495 0.62648 0.14037 0.0
H1003 H 0.8519 0.65668 0.23429 0.0
H1004 H 0.8318 0.66616 0.2475 0.0
H1005 H 0.81447 0.63101 0.23879 0.0
H1006 H 0.83449 0.62139 0.2253 0.0
H1007 H 0.90696 0.60253 0.30169 0.0
H1008 H 0.89726 0.6191 0.26469 0.0
H1009 H 0.86203 0.60216 0.28192 0.0
H1010 H 0.87157 0.58583 0.31979 0.0
H1011 H 0.85917 0.62588 0.27788 0.0
H1012 H 0.88016 0.59498 0.20179 0.0
H1013 H 0.89798 0.58265 0.18167 0.0
H1014 H 0.91716 0.6153 0.14798 0.0
H1015 H 0.89948 0.62783 0.1684 0.0
C1016 C 0.83591 0.63563 0.10509 0.0
C1017 C 0.83443 0.64839 0.10346 0.0
C1018 C 0.84537 0.63053 0.12732 0.0
C1019 C 0.8535 0.63811 0.14792 0.0
C1020 C 0.85284 0.65081 0.143 0.0
C1021 C 0.84336 0.65593 0.12082 0.0
C1022 C 0.86096 0.63284 0.1799 0.0
C1023 C 0.87176 0.62661 0.17068 0.0
C1024 C 0.85648 0.63268 0.21896 0.0
C1025 C 0.84462 0.63835 0.22898 0.0
C1026 C 0.84379 0.651 0.23543 0.0
C1027 C 0.83242 0.65639 0.24282 0.0
C1028 C 0.82186 0.64919 0.24399 0.0
C1029 C 0.82266 0.63658 0.23792 0.0
C1030 C 0.834 0.63115 0.23046 0.0
C1031 C 0.8971 0.60257 0.29882 0.0
C1032 C 0.89005 0.59275 0.31298 0.0
C1033 C 0.89158 0.61201 0.27742 0.0
C1034 C 0.87898 0.61166 0.2695 0.0
C1035 C 0.87178 0.60257 0.28733 0.0
C1036 C 0.87727 0.59322 0.30901 0.0
C1037 C 0.87347 0.61964 0.23889 0.0
C1038 C 0.86281 0.62618 0.2481 0.0
C1039 C 0.87799 0.61986 0.1996 0.0
C1040 C 0.88858 0.61234 0.18705 0.0
C1041 C 0.88821 0.59953 0.19032 0.0
C1042 C 0.89828 0.5925 0.17885 0.0
C1043 C 0.90871 0.59819 0.16367 0.0
C1044 C 0.90908 0.61091 0.15983 0.0
C1045 C 0.89904 0.61798 0.17134 0.0
H1046 H 0.9165 0.59274 0.15479 0.0
H1047 H 0.81307 0.65338 0.24958 0.0
H1048 H 0.34531 0.35372 0.59495 0.0
H1049 H 0.36218 0.36357 0.63017 0.0
H1050 H 0.34348 0.39822 0.62237 0.0
H1051 H 0.32693 0.38859 0.58593 0.0
H1052 H 0.36663 0.40242 0.62394 0.0
H1053 H 0.33869 0.37774 0.70067 0.0
H1054 H 0.32797 0.35871 0.71895 0.0
H1055 H 0.3624 0.34117 0.74146 0.0
H1056 H 0.37333 0.36008 0.72282 0.0
H1057 H 0.37001 0.4302 0.81049 0.0
H1058 H 0.36207 0.41486 0.76494 0.0
H1059 H 0.39828 0.40004 0.75022 0.0
H1060 H 0.40644 0.41557 0.79528 0.0
H1061 H 0.37063 0.38389 0.75719 0.0
H1062 H 0.39772 0.41248 0.68339 0.0
H1063 H 0.40519 0.43341 0.67061 0.0
H1064 H 0.36846 0.4454 0.64834 0.0
H1065 H 0.36076 0.42458 0.66165 0.0
C1066 C 0.34502 0.36352 0.59945 0.0
C1067 C 0.33467 0.37034 0.58841 0.0
C1068 C 0.35463 0.36912 0.61986 0.0
C1069 C 0.35389 0.38155 0.63013 0.0
C1070 C 0.34422 0.38859 0.61519 0.0
C1071 C 0.33472 0.38306 0.59433 0.0
C1072 C 0.3621 0.38691 0.66047 0.0
C1073 C 0.36764 0.39825 0.65282 0.0
C1074 C 0.36336 0.38158 0.69848 0.0
C1075 C 0.35682 0.37024 0.70988 0.0
C1076 C 0.34397 0.36979 0.70929 0.0
C1077 C 0.33786 0.35904 0.71973 0.0
C1078 C 0.3445 0.34873 0.73123 0.0
C1079 C 0.35727 0.34916 0.73244 0.0
C1080 C 0.36343 0.35989 0.72194 0.0
C1081 C 0.37626 0.42345 0.79867 0.0
C1082 C 0.38889 0.42422 0.80605 0.0
C1083 C 0.3717 0.41473 0.77253 0.0
C1084 C 0.37966 0.40653 0.75387 0.0
C1085 C 0.39206 0.40639 0.76425 0.0
C1086 C 0.39667 0.41523 0.79013 0.0
C1087 C 0.37511 0.39925 0.72033 0.0
C1088 C 0.37007 0.38772 0.72768 0.0
C1089 C 0.37402 0.40454 0.68241 0.0
C1090 C 0.37867 0.41701 0.6739 0.0
C1091 C 0.39123 0.41961 0.67614 0.0
C1092 C 0.39551 0.43144 0.66871 0.0
C1093 C 0.3873 0.44074 0.65872 0.0
C1094 C 0.3748 0.4382 0.65608 0.0
C1095 C 0.37048 0.42639 0.66355 0.0
H1096 H 0.39062 0.44989 0.65292 0.0
H1097 H 0.33976 0.34041 0.73931 0.0
H1098 H 0.3329 0.63356 0.58962 0.0
H1099 H 0.34987 0.62298 0.55733 0.0
H1100 H 0.35454 0.65369 0.47856 0.0
H1101 H 0.33824 0.66452 0.51232 0.0
H1102 H 0.34944 0.61472 0.48979 0.0
H1103 H 0.38113 0.65403 0.4314 0.0
H1104 H 0.39007 0.6733 0.45583 0.0
H1105 H 0.38607 0.66085 0.57536 0.0
H1106 H 0.37727 0.64145 0.55167 0.0
H1107 H 0.37786 0.59011 0.3273 0.0
H1108 H 0.36724 0.60572 0.36594 0.0
H1109 H 0.39982 0.61142 0.43545 0.0
H1110 H 0.41064 0.59642 0.39552 0.0
H1111 H 0.38803 0.63146 0.43504 0.0
H1112 H 0.37746 0.59021 0.46307 0.0
H1113 H 0.37065 0.56919 0.44849 0.0
H1114 H 0.33598 0.58285 0.40857 0.0
H1115 H 0.34265 0.60398 0.42241 0.0
C1116 C 0.33787 0.63821 0.56638 0.0
C1117 C 0.33422 0.64984 0.55342 0.0
C1118 C 0.34751 0.63213 0.5477 0.0
C1119 C 0.35351 0.63747 0.51524 0.0
C1120 C 0.35031 0.6494 0.50394 0.0
C1121 C 0.3409 0.6556 0.52324 0.0
C1122 C 0.36186 0.63006 0.49008 0.0
C1123 C 0.35792 0.61841 0.47821 0.0
C1124 C 0.37308 0.63467 0.47524 0.0
C1125 C 0.37843 0.64631 0.48972 0.0
C1126 C 0.38221 0.65538 0.46289 0.0
C1127 C 0.38724 0.66633 0.47662 0.0
C1128 C 0.38861 0.66831 0.51712 0.0
C1129 C 0.38497 0.65933 0.54399 0.0
C1130 C 0.37993 0.64836 0.53043 0.0
C1131 C 0.38287 0.59501 0.34988 0.0
C1132 C 0.39501 0.59191 0.35877 0.0
C1133 C 0.37677 0.60385 0.37222 0.0
C1134 C 0.38259 0.6094 0.40462 0.0
C1135 C 0.39508 0.60718 0.41094 0.0
C1136 C 0.40126 0.59858 0.38798 0.0
C1137 C 0.37541 0.61634 0.43438 0.0
C1138 C 0.37957 0.62785 0.44699 0.0
C1139 C 0.3647 0.61137 0.45152 0.0
C1140 C 0.36059 0.59868 0.44344 0.0
C1141 C 0.3684 0.58873 0.45098 0.0
C1142 C 0.36457 0.5768 0.44286 0.0
C1143 C 0.3529 0.57469 0.42752 0.0
C1144 C 0.34502 0.5845 0.42039 0.0
C1145 C 0.34882 0.59646 0.42839 0.0
H1146 H 0.34994 0.56545 0.42125 0.0
H1147 H 0.39251 0.6768 0.52768 0.0
H1148 H 0.09377 0.60203 0.29485 0.0
H1149 H 0.10352 0.61758 0.25387 0.0
H1150 H 0.13903 0.60402 0.28761 0.0
H1151 H 0.12937 0.58831 0.32838 0.0
H1152 H 0.13842 0.6298 0.27321 0.0
H1153 H 0.12769 0.59137 0.21309 0.0
H1154 H 0.11355 0.57451 0.1971 0.0
H1155 H 0.09011 0.59954 0.13538 0.0
H1156 H 0.10403 0.6166 0.15164 0.0
H1157 H 0.16999 0.63012 0.07851 0.0
H1158 H 0.15445 0.62005 0.11878 0.0
H1159 H 0.14008 0.65518 0.15301 0.0
H1160 H 0.15555 0.66534 0.11277 0.0
H1161 H 0.1291 0.61954 0.13348 0.0
H1162 H 0.14015 0.65489 0.25442 0.0
H1163 H 0.15646 0.66959 0.2714 0.0
H1164 H 0.18287 0.64724 0.21156 0.0
H1165 H 0.16676 0.63235 0.19474 0.0
C1166 C 0.10366 0.60264 0.29489 0.0
C1167 C 0.11081 0.59379 0.31423 0.0
C1168 C 0.1092 0.61152 0.27128 0.0
C1169 C 0.12196 0.61174 0.26713 0.0
C1170 C 0.12915 0.60393 0.29032 0.0
C1171 C 0.12362 0.59496 0.31363 0.0
C1172 C 0.12765 0.61859 0.23426 0.0
C1173 C 0.13624 0.62771 0.2427 0.0
C1174 C 0.12509 0.61553 0.19445 0.0
C1175 C 0.11681 0.60528 0.18398 0.0
C1176 C 0.11947 0.59329 0.19638 0.0
C1177 C 0.1115 0.5837 0.18725 0.0
C1178 C 0.10091 0.58596 0.16536 0.0
C1179 C 0.0983 0.59781 0.15242 0.0
C1180 C 0.10623 0.60745 0.16158 0.0
C1181 C 0.16322 0.63571 0.09326 0.0
C1182 C 0.16418 0.64853 0.09317 0.0
C1183 C 0.15433 0.62993 0.1163 0.0
C1184 C 0.14634 0.6369 0.13959 0.0
C1185 C 0.1463 0.64967 0.13564 0.0
C1186 C 0.15513 0.65545 0.11246 0.0
C1187 C 0.13964 0.631 0.17241 0.0
C1188 C 0.13098 0.62191 0.16397 0.0
C1189 C 0.14242 0.63382 0.21226 0.0
C1190 C 0.15222 0.64261 0.22292 0.0
C1191 C 0.14944 0.65311 0.24501 0.0
C1192 C 0.15866 0.66147 0.25459 0.0
C1193 C 0.17069 0.65938 0.24241 0.0
C1194 C 0.17355 0.64889 0.22081 0.0
C1195 C 0.16437 0.64049 0.21122 0.0
H1196 H 0.1778 0.66587 0.24981 0.0
H1197 H 0.09476 0.57852 0.15833 0.0
H1198 H 0.1269 0.4322 0.83997 0.0
H1199 H 0.13633 0.41523 0.87499 0.0
H1200 H 0.10068 0.4002 0.90022 0.0
H1201 H 0.09113 0.41738 0.86571 0.0
H1202 H 0.11307 0.4029 0.96596 0.0
H1203 H 0.12159 0.38434 0.84285 0.0
H1204 H 0.12843 0.38277 0.77371 0.0
H1205 H 0.16491 0.3926 0.80821 0.0
H1206 H 0.15827 0.39443 0.87748 0.0
H1207 H 0.15677 0.35267 0.03959 0.0
H1208 H 0.14018 0.3617 0.00068 0.0
H1209 H 0.15584 0.39748 0.0174 0.0
H1210 H 0.17237 0.38863 0.05654 0.0
H1211 H 0.15018 0.37952 0.92886 0.0
H1212 H 0.13629 0.40614 0.04582 0.0
H1213 H 0.1291 0.40677 0.1149 0.0
H1214 H 0.10233 0.37916 0.08905 0.0
H1215 H 0.10948 0.37831 0.01991 0.0
C1216 C 0.12106 0.4251 0.85192 0.0
C1217 C 0.10827 0.4262 0.85044 0.0
C1218 C 0.12647 0.41535 0.87185 0.0
C1219 C 0.11921 0.40643 0.8903 0.0
C1220 C 0.10645 0.407 0.88629 0.0
C1221 C 0.10101 0.41679 0.86636 0.0
C1222 C 0.12496 0.39761 0.91793 0.0
C1223 C 0.12102 0.39759 0.95746 0.0
C1224 C 0.13534 0.39063 0.90713 0.0
C1225 C 0.1394 0.38957 0.86543 0.0
C1226 C 0.13106 0.38626 0.83568 0.0
C1227 C 0.1349 0.38531 0.79645 0.0
C1228 C 0.14709 0.3876 0.78657 0.0
C1229 C 0.15547 0.39083 0.81591 0.0
C1230 C 0.15167 0.3918 0.85519 0.0
C1231 C 0.15646 0.36251 0.03614 0.0
C1232 C 0.16594 0.36994 0.05087 0.0
C1233 C 0.147 0.36762 0.01384 0.0
C1234 C 0.14684 0.38021 0.00637 0.0
C1235 C 0.15577 0.38775 0.02335 0.0
C1236 C 0.16521 0.38267 0.04568 0.0
C1237 C 0.13853 0.38534 0.9764 0.0
C1238 C 0.14203 0.38462 0.93668 0.0
C1239 C 0.12775 0.39156 0.98677 0.0
C1240 C 0.12348 0.39208 0.02805 0.0
C1241 C 0.12893 0.40015 0.05504 0.0
C1242 C 0.12486 0.40056 0.09413 0.0
C1243 C 0.11529 0.39298 0.10639 0.0
C1244 C 0.10976 0.385 0.07955 0.0
C1245 C 0.11382 0.38455 0.04044 0.0
H1246 H 0.11214 0.39331 0.13666 0.0
H1247 H 0.15005 0.38685 0.75618 0.0
H1248 H 0.23605 0.15593 0.99209 0.0
H1249 H 0.24926 0.15446 0.93449 0.0
H1250 H 0.21843 0.16128 0.85823 0.0
H1251 H 0.20501 0.16308 0.91632 0.0
H1252 H 0.23703 0.13921 0.84281 0.0
H1253 H 0.23305 0.18322 0.86185 0.0
H1254 H 0.23345 0.20179 0.90309 0.0
H1255 H 0.2708 0.19456 0.93451 0.0
H1256 H 0.27055 0.17582 0.89392 0.0
H1257 H 0.26578 0.15065 0.66306 0.0
H1258 H 0.25335 0.14984 0.72205 0.0
H1259 H 0.28461 0.16004 0.79272 0.0
H1260 H 0.2971 0.16155 0.73264 0.0
H1261 H 0.26618 0.17284 0.81396 0.0
H1262 H 0.27164 0.13023 0.79401 0.0
H1263 H 0.27221 0.11072 0.75766 0.0
H1264 H 0.23377 0.11364 0.73356 0.0
H1265 H 0.233 0.13327 0.76931 0.0
C1266 C 0.23202 0.15709 0.96311 0.0
C1267 C 0.21951 0.15966 0.95856 0.0
C1268 C 0.2396 0.15625 0.93035 0.0
C1269 C 0.23476 0.1578 0.89251 0.0
C1270 C 0.22224 0.16007 0.88751 0.0
C1271 C 0.21463 0.16113 0.92051 0.0
C1272 C 0.24303 0.15728 0.85848 0.0
C1273 C 0.24329 0.1466 0.83582 0.0
C1274 C 0.25153 0.16672 0.85122 0.0
C1275 C 0.25173 0.17806 0.8752 0.0
C1276 C 0.24131 0.18553 0.87786 0.0
C1277 C 0.24151 0.1961 0.90105 0.0
C1278 C 0.25213 0.19933 0.9215 0.0
C1279 C 0.26257 0.19203 0.91869 0.0
C1280 C 0.26241 0.18144 0.89557 0.0
C1281 C 0.2701 0.1526 0.69114 0.0
C1282 C 0.28242 0.15619 0.69331 0.0
C1283 C 0.26297 0.15203 0.72497 0.0
C1284 C 0.26809 0.15463 0.76193 0.0
C1285 C 0.2805 0.15794 0.76443 0.0
C1286 C 0.28762 0.15877 0.73025 0.0
C1287 C 0.26014 0.15478 0.79722 0.0
C1288 C 0.25997 0.16538 0.82055 0.0
C1289 C 0.25188 0.14512 0.80556 0.0
C1290 C 0.25229 0.13328 0.78414 0.0
C1291 C 0.26333 0.12676 0.78074 0.0
C1292 C 0.26368 0.11567 0.76027 0.0
C1293 C 0.25304 0.11096 0.74325 0.0
C1294 C 0.24201 0.11731 0.74675 0.0
C1295 C 0.24161 0.12841 0.76717 0.0
H1296 H 0.25333 0.10237 0.72741 0.0
H1297 H 0.25227 0.20752 0.93945 0.0
H1298 H 0.1184 0.97603 0.21117 0.0
H1299 H 0.11844 0.98979 0.15426 0.0
H1300 H 0.07944 0.98492 0.14177 0.0
H1301 H 0.07952 0.9706 0.19719 0.0
H1302 H 0.08862 0.98764 0.07289 0.0
H1303 H 0.09237 0.00938 0.19434 0.0
H1304 H 0.10117 0.01454 0.25926 0.0
H1305 H 0.13519 0.02413 0.20404 0.0
H1306 H 0.12665 0.01884 0.13881 0.0
H1307 H 0.07755 0.0445 0.97739 0.0
H1308 H 0.07882 0.03121 0.03557 0.0
H1309 H 0.11673 0.02389 0.00984 0.0
H1310 H 0.11543 0.03684 0.95092 0.0
H1311 H 0.10771 0.0281 0.09834 0.0
H1312 H 0.10236 0.00449 0.97555 0.0
H1313 H 0.09152 0.00092 0.91273 0.0
H1314 H 0.05766 0.99662 0.97544 0.0
H1315 H 0.06829 0.00041 0.03859 0.0
C1316 C 0.10991 0.97769 0.19556 0.0
C1317 C 0.09895 0.97238 0.20856 0.0
C1318 C 0.10991 0.98561 0.16335 0.0
C1319 C 0.09888 0.9887 0.14464 0.0
C1320 C 0.08805 0.98275 0.15597 0.0
C1321 C 0.0881 0.97456 0.18757 0.0
C1322 C 0.0985 0.99866 0.11505 0.0
C1323 C 0.09272 0.99649 0.07873 0.0
C1324 C 0.10377 0.01029 0.1226 0.0
C1325 C 0.10891 0.0136 0.16173 0.0
C1326 C 0.10175 0.01252 0.19607 0.0
C1327 C 0.10669 0.01547 0.23292 0.0
C1328 C 0.11874 0.01964 0.23578 0.0
C1329 C 0.12586 0.02089 0.20177 0.0
C1330 C 0.12098 0.01792 0.16485 0.0
C1331 C 0.08623 0.04032 0.98479 0.0
C1332 C 0.09638 0.04158 0.95975 0.0
C1333 C 0.08693 0.03275 0.01787 0.0
C1334 C 0.09785 0.0266 0.02656 0.0
C1335 C 0.10826 0.02863 0.00342 0.0
C1336 C 0.10749 0.03596 0.96987 0.0
C1337 C 0.09801 0.01692 0.05662 0.0
C1338 C 0.10368 0.01919 0.09286 0.0
C1339 C 0.09238 0.00551 0.04946 0.0
C1340 C 0.08609 0.00285 0.01168 0.0
C1341 C 0.09259 0.00288 0.97589 0.0
C1342 C 0.08649 0.00081 0.94024 0.0
C1343 C 0.0739 0.99858 0.94008 0.0
C1344 C 0.06741 0.99837 0.9756 0.0
C1345 C 0.07346 0.00047 0.01132 0.0
H1346 H 0.06919 0.99699 0.91245 0.0
H1347 H 0.12255 0.02192 0.26434 0.0
H1348 H 0.21228 0.8377 0.20834 0.0
H1349 H 0.22636 0.83825 0.26413 0.0
H1350 H 0.23303 0.87662 0.24292 0.0
H1351 H 0.21945 0.8759 0.18559 0.0
H1352 H 0.2535 0.86611 0.25121 0.0
H1353 H 0.21658 0.86532 0.32531 0.0
H1354 H 0.19612 0.85813 0.3453 0.0
H1355 H 0.21118 0.82335 0.37826 0.0
H1356 H 0.23171 0.83024 0.35781 0.0
H1357 H 0.27976 0.87533 0.44654 0.0
H1358 H 0.26685 0.87573 0.38739 0.0
H1359 H 0.27228 0.83698 0.37202 0.0
H1360 H 0.28552 0.83658 0.43048 0.0
H1361 H 0.24609 0.8479 0.38316 0.0
H1362 H 0.28353 0.85025 0.30663 0.0
H1363 H 0.30352 0.85919 0.28932 0.0
H1364 H 0.28636 0.89373 0.26572 0.0
H1365 H 0.26627 0.88503 0.28349 0.0
C1366 C 0.21656 0.84631 0.21613 0.0
C1367 C 0.21485 0.85676 0.19277 0.0
C1368 C 0.22459 0.84663 0.24809 0.0
C1369 C 0.23072 0.8575 0.25791 0.0
C1370 C 0.22847 0.86811 0.23575 0.0
C1371 C 0.22067 0.86772 0.20323 0.0
C1372 C 0.24015 0.85757 0.2893 0.0
C1373 C 0.25178 0.86229 0.28024 0.0
C1374 C 0.238 0.85243 0.32703 0.0
C1375 C 0.22568 0.84827 0.33968 0.0
C1376 C 0.21552 0.8561 0.33655 0.0
C1377 C 0.20391 0.85209 0.34799 0.0
C1378 C 0.20235 0.84028 0.36296 0.0
C1379 C 0.21241 0.83248 0.36661 0.0
C1380 C 0.22403 0.83645 0.35513 0.0
C1381 C 0.27848 0.86698 0.42979 0.0
C1382 C 0.2836 0.85592 0.44283 0.0
C1383 C 0.27112 0.86722 0.39622 0.0
C1384 C 0.26863 0.85638 0.37579 0.0
C1385 C 0.27418 0.84542 0.38762 0.0
C1386 C 0.28178 0.84522 0.42072 0.0
C1387 C 0.25928 0.85633 0.34467 0.0
C1388 C 0.24769 0.85168 0.354 0.0
C1389 C 0.26135 0.8618 0.30762 0.0
C1390 C 0.27342 0.86702 0.29682 0.0
C1391 C 0.28403 0.85978 0.29816 0.0
C1392 C 0.29538 0.8648 0.28816 0.0
C1393 C 0.29622 0.87703 0.27654 0.0
C1394 C 0.2857 0.88426 0.27478 0.0
C1395 C 0.27433 0.87929 0.28478 0.0
H1396 H 0.30501 0.88089 0.26881 0.0
H1397 H 0.19336 0.83719 0.37181 0.0
H1398 H 0.4121 0.04994 0.68464 0.0
H1399 H 0.41162 0.03709 0.62538 0.0
H1400 H 0.38267 0.01544 0.67658 0.0
H1401 H 0.38324 0.02804 0.73582 0.0
H1402 H 0.40073 0.00127 0.65154 0.0
H1403 H 0.37678 0.03425 0.59985 0.0
H1404 H 0.37215 0.05574 0.58386 0.0
H1405 H 0.40391 0.05753 0.50962 0.0
H1406 H 0.40877 0.03604 0.52533 0.0
H1407 H 0.38477 0.98315 0.43489 0.0
H1408 H 0.38273 0.99617 0.49292 0.0
H1409 H 0.41815 0.98427 0.53403 0.0
H1410 H 0.42013 0.97096 0.47624 0.0
H1411 H 0.39614 0.01518 0.51296 0.0
H1412 H 0.41863 0.98537 0.63419 0.0
H1413 H 0.42115 0.96357 0.65109 0.0
H1414 H 0.38825 0.95485 0.58785 0.0
H1415 H 0.38546 0.97661 0.571 0.0
C1416 C 0.40552 0.04256 0.6829 0.0
C1417 C 0.39782 0.03986 0.71491 0.0
C1418 C 0.40524 0.03525 0.64911 0.0
C1419 C 0.39716 0.02528 0.64687 0.0
C1420 C 0.38905 0.02301 0.678 0.0
C1421 C 0.38937 0.03024 0.71171 0.0
C1422 C 0.39762 0.01672 0.61326 0.0
C1423 C 0.39972 0.0043 0.62121 0.0
C1424 C 0.39615 0.02069 0.57389 0.0
C1425 C 0.3932 0.03357 0.56407 0.0
C1426 C 0.38282 0.03925 0.58033 0.0
C1427 C 0.38015 0.05143 0.5713 0.0
C1428 C 0.38776 0.05802 0.54593 0.0
C1429 C 0.39803 0.05242 0.52934 0.0
C1430 C 0.40074 0.04023 0.53822 0.0
C1431 C 0.39206 0.9832 0.45654 0.0
C1432 C 0.40263 0.9761 0.4511 0.0
C1433 C 0.3909 0.99067 0.48953 0.0
C1434 C 0.40029 0.9912 0.51762 0.0
C1435 C 0.41074 0.98389 0.51282 0.0
C1436 C 0.41187 0.9763 0.47988 0.0
C1437 C 0.39925 -0.00028 0.55123 0.0
C1438 C 0.39713 0.01215 0.54328 0.0
C1439 C 0.40039 0.99571 0.5907 0.0
C1440 C 0.40192 0.98261 0.60101 0.0
C1441 C 0.41192 0.9788 0.62401 0.0
C1442 C 0.4134 0.96645 0.63356 0.0
C1443 C 0.40489 0.95783 0.62044 0.0
C1444 C 0.39486 0.96154 0.59786 0.0
C1445 C 0.39334 0.97387 0.58825 0.0
H1446 H 0.40606 0.94827 0.62785 0.0
H1447 H 0.38569 0.06746 0.53904 0.0
H1448 H 0.7858 0.83416 0.2211 0.0
H1449 H 0.77293 0.83449 0.28038 0.0
H1450 H 0.7672 0.87322 0.26533 0.0
H1451 H 0.77975 0.87289 0.20546 0.0
H1452 H 0.77145 0.86317 0.349 0.0
H1453 H 0.74713 0.85871 0.22818 0.0
H1454 H 0.74256 0.84837 0.1652 0.0
H1455 H 0.73721 0.81444 0.22664 0.0
H1456 H 0.742 0.82455 0.28994 0.0
H1457 H 0.72009 0.87595 0.462 0.0
H1458 H 0.73381 0.87503 0.40516 0.0
H1459 H 0.7278 0.8361 0.3966 0.0
H1460 H 0.71356 0.83711 0.45216 0.0
H1461 H 0.73044 0.84493 0.32632 0.0
H1462 H 0.75278 0.84832 0.44658 0.0
H1463 H 0.75843 0.8571 0.51108 0.0
H1464 H 0.76885 0.89069 0.45463 0.0
H1465 H 0.76306 0.88217 0.38983 0.0
C1466 C 0.78205 0.84278 0.23106 0.0
C1467 C 0.78365 0.8535 0.20881 0.0
C1468 C 0.7747 0.84295 0.26473 0.0
C1469 C 0.76913 0.85386 0.27678 0.0
C1470 C 0.77148 0.86474 0.25631 0.0
C1471 C 0.77859 0.86453 0.22221 0.0
C1472 C 0.75978 0.85376 0.30794 0.0
C1473 C 0.76244 0.85928 0.34415 0.0
C1474 C 0.74822 0.84834 0.30158 0.0
C1475 C 0.74506 0.84235 0.26369 0.0
C1476 C 0.74508 0.84902 0.2282 0.0
C1477 C 0.74244 0.84321 0.19246 0.0
C1478 C 0.73963 0.83074 0.1919 0.0
C1479 C 0.73941 0.82408 0.22711 0.0
C1480 C 0.74209 0.82985 0.26292 0.0
C1481 C 0.7215 0.86726 0.44735 0.0
C1482 C 0.71589 0.85659 0.46149 0.0
C1483 C 0.72941 0.86671 0.41516 0.0
C1484 C 0.73213 0.85543 0.39752 0.0
C1485 C 0.72591 0.84488 0.41001 0.0
C1486 C 0.71777 0.84548 0.44168 0.0
C1487 C 0.74197 0.85454 0.36767 0.0
C1488 C 0.73943 0.84879 0.33157 0.0
C1489 C 0.75375 0.85953 0.37451 0.0
C1490 C 0.75739 0.86464 0.41338 0.0
C1491 C 0.7562 0.85761 0.44794 0.0
C1492 C 0.75943 0.86253 0.48456 0.0
C1493 C 0.76397 0.87445 0.48696 0.0
C1494 C 0.76532 0.88146 0.45273 0.0
C1495 C 0.76207 0.87658 0.41604 0.0
H1496 H 0.76646 0.87826 0.51534 0.0
H1497 H 0.73759 0.82626 0.1642 0.0
H1498 H 0.90471 0.05276 0.98209 0.0
H1499 H 0.90379 0.03895 0.03898 0.0
H1500 H 0.87802 0.01604 0.97688 0.0
H1501 H 0.87858 0.02992 0.92083 0.0
H1502 H 0.87273 0.01604 0.05153 0.0
H1503 H 0.90851 0.01012 0.97326 0.0
H1504 H 0.92738 0.0164 0.93892 0.0
H1505 H 0.94349 0.02678 0.04954 0.0
H1506 H 0.92462 0.02078 0.08449 0.0
H1507 H 0.90933 0.96448 0.16478 0.0
H1508 H 0.90582 0.97692 0.10552 0.0
H1509 H 0.88485 0.00257 0.17471 0.0
H1510 H 0.88795 0.99012 0.23314 0.0
H1511 H 0.91309 -0.00077 0.09095 0.0
H1512 H 0.86333 0.01626 0.12193 0.0
H1513 H 0.8441 0.00818 0.14962 0.0
H1514 H 0.85542 0.97158 0.12209 0.0
H1515 H 0.87463 0.97944 0.09372 0.0
C1516 C 0.89862 0.04495 0.98105 0.0
C1517 C 0.8919 0.04227 0.94683 0.0
C1518 C 0.89816 0.03704 0.01339 0.0
C1519 C 0.89109 0.02632 0.01159 0.0
C1520 C 0.88362 0.02421 0.97872 0.0
C1521 C 0.88399 0.03213 0.94665 0.0
C1522 C 0.8922 0.01677 0.04219 0.0
C1523 C 0.88154 0.01238 0.06032 0.0
C1524 C 0.90367 0.01166 0.05227 0.0
C1525 C 0.91511 0.01511 0.03145 0.0
C1526 C 0.91605 0.01382 0.99024 0.0
C1527 C 0.92674 0.01732 0.97066 0.0
C1528 C 0.93662 0.02201 0.99202 0.0
C1529 C 0.93583 0.02317 0.03303 0.0
C1530 C 0.92513 0.01971 0.05274 0.0
C1531 C 0.90382 0.97268 0.16707 0.0
C1532 C 0.89894 0.97635 0.20351 0.0
C1533 C 0.90186 0.97978 0.13333 0.0
C1534 C 0.89498 0.99059 0.13571 0.0
C1535 C 0.88996 0.99413 0.172 0.0
C1536 C 0.89183 0.98703 0.20546 0.0
C1537 C 0.89363 0.99872 0.10114 0.0
C1538 C 0.90426 0.00284 0.08216 0.0
C1539 C 0.88209 0.00326 0.08927 0.0
C1540 C 0.87048 0.99845 0.10597 0.0
C1541 C 0.8617 0.0065 0.1216 0.0
C1542 C 0.8508 0.00195 0.13745 0.0
C1543 C 0.84855 0.98937 0.1377 0.0
C1544 C 0.85719 0.98132 0.122 0.0
C1545 C 0.86809 0.98581 0.10609 0.0
H1546 H 0.84012 0.98587 0.15001 0.0
H1547 H 0.94489 0.02472 0.97681 0.0
H1548 H 0.76742 0.14707 0.98725 0.0
H1549 H 0.75469 0.14398 0.92934 0.0
H1550 H 0.77918 0.16638 0.86029 0.0
H1551 H 0.79188 0.16984 0.91891 0.0
H1552 H 0.75651 0.17315 0.84881 0.0
H1553 H 0.77761 0.13514 0.84685 0.0
H1554 H 0.78589 0.11586 0.87349 0.0
H1555 H 0.74953 0.10346 0.8997 0.0
H1556 H 0.74103 0.12274 0.87369 0.0
H1557 H 0.72939 0.14126 0.66997 0.0
H1558 H 0.7424 0.13978 0.72809 0.0
H1559 H 0.71724 0.16252 0.79315 0.0
H1560 H 0.70425 0.16429 0.73452 0.0
H1561 H 0.7414 0.13275 0.80318 0.0
H1562 H 0.734 0.18359 0.84322 0.0
H1563 H 0.72726 0.20267 0.81094 0.0
H1564 H 0.73965 0.18912 0.69893 0.0
H1565 H 0.74666 0.17007 0.73065 0.0
C1566 C 0.7702 0.15125 0.95968 0.0
C1567 C 0.78061 0.15876 0.95758 0.0
C1568 C 0.76294 0.14941 0.92653 0.0
C1569 C 0.76606 0.15485 0.89047 0.0
C1570 C 0.77663 0.1621 0.88794 0.0
C1571 C 0.78388 0.16404 0.92132 0.0
C1572 C 0.75777 0.15361 0.85631 0.0
C1573 C 0.75326 0.16431 0.83874 0.0
C1574 C 0.75362 0.14206 0.84296 0.0
C1575 C 0.75869 0.13043 0.85859 0.0
C1576 C 0.77138 0.12834 0.85856 0.0
C1577 C 0.77611 0.11741 0.8735 0.0
C1578 C 0.76824 0.10845 0.88835 0.0
C1579 C 0.75561 0.11041 0.88821 0.0
C1580 C 0.75083 0.12133 0.87332 0.0
C1581 C 0.7265 0.14577 0.69685 0.0
C1582 C 0.71597 0.15313 0.69756 0.0
C1583 C 0.73391 0.14485 0.73009 0.0
C1584 C 0.7309 0.15125 0.7645 0.0
C1585 C 0.7198 0.15769 0.76648 0.0
C1586 C 0.71239 0.15867 0.73309 0.0
C1587 C 0.74002 0.15227 0.79638 0.0
C1588 C 0.74467 0.14156 0.81342 0.0
C1589 C 0.74459 0.16378 0.80847 0.0
C1590 C 0.74073 0.17536 0.78928 0.0
C1591 C 0.73535 0.18472 0.81175 0.0
C1592 C 0.73147 0.19552 0.79354 0.0
C1593 C 0.73299 0.19709 0.75289 0.0
C1594 C 0.73845 0.18789 0.73039 0.0
C1595 C 0.74237 0.17708 0.74847 0.0
H1596 H 0.72995 0.20544 0.73883 0.0
H1597 H 0.77192 0.09999 0.89991 0.0
H1598 H 0.59583 0.0186 0.7484 0.0
H1599 H 0.5982 0.00563 0.69068 0.0
H1600 H 0.59791 0.03752 0.61547 0.0
H1601 H 0.59496 0.05061 0.67355 0.0
H1602 H 0.58447 0.02077 0.58444 0.0
H1603 H 0.62479 0.02124 0.63679 0.0
H1604 H 0.64101 0.01949 0.68704 0.0
H1605 H 0.63196 0.98169 0.70477 0.0
H1606 H 0.61557 0.98324 0.65499 0.0
H1607 H 0.60988 0.98978 0.41978 0.0
H1608 H 0.61021 0.002 0.4799 0.0
H1609 H 0.59275 0.9727 0.54372 0.0
H1610 H 0.59208 0.96037 0.48308 0.0
H1611 H 0.61599 0.98815 0.57881 0.0
H1612 H 0.57402 0.98962 0.52703 0.0
H1613 H 0.55944 0.99227 0.47213 0.0
H1614 H 0.57399 0.02804 0.44911 0.0
H1615 H 0.58881 0.0255 0.5035 0.0
C1616 C 0.59631 0.02287 0.71958 0.0
C1617 C 0.59526 0.0356 0.71531 0.0
C1618 C 0.59775 0.01545 0.68664 0.0
C1619 C 0.59851 0.02063 0.64886 0.0
C1620 C 0.59741 0.03336 0.64444 0.0
C1621 C 0.59573 0.04081 0.67749 0.0
C1622 C 0.59994 0.01262 0.61404 0.0
C1623 C 0.59147 0.01375 0.58314 0.0
C1624 C 0.60901 0.00338 0.61238 0.0
C1625 C 0.61887 0.00239 0.64238 0.0
C1626 C 0.62619 0.01258 0.65162 0.0
C1627 C 0.63543 0.01162 0.67998 0.0
C1628 C 0.6375 0.00049 0.69915 0.0
C1629 C 0.63034 0.9903 0.68992 0.0
C1630 C 0.62109 0.99121 0.6616 0.0
C1631 C 0.60624 0.98583 0.44666 0.0
C1632 C 0.60083 0.97417 0.44677 0.0
C1633 C 0.60647 0.99283 0.48089 0.0
C1634 C 0.60147 0.9882 0.51581 0.0
C1635 C 0.59665 0.97633 0.51676 0.0
C1636 C 0.59623 0.96936 0.48224 0.0
C1637 C 0.60043 0.99625 0.55024 0.0
C1638 C 0.60901 0.99517 0.58064 0.0
C1639 C 0.59164 0.00569 0.55117 0.0
C1640 C 0.5826 0.00731 0.519 0.0
C1641 C 0.57418 0.998 0.51001 0.0
C1642 C 0.56587 -0.00051 0.47904 0.0
C1643 C 0.56582 0.0103 0.45706 0.0
C1644 C 0.57406 0.01966 0.46612 0.0
C1645 C 0.58241 0.0182 0.49702 0.0
H1646 H 0.55937 0.01144 0.43308 0.0
H1647 H 0.64465 -0.00023 0.7211 0.0
H1648 H 0.70318 0.67334 0.42341 0.0
H1649 H 0.71338 0.67005 0.35971 0.0
H1650 H 0.73742 0.6437 0.41431 0.0
H1651 H 0.72717 0.64665 0.477 0.0
H1652 H 0.73617 0.67517 0.34307 0.0
H1653 H 0.74713 0.62283 0.35327 0.0
H1654 H 0.73668 0.60391 0.37412 0.0
H1655 H 0.70179 0.62077 0.3539 0.0
H1656 H 0.712 0.63975 0.3328 0.0
H1657 H 0.78985 0.66424 0.23799 0.0
H1658 H 0.77462 0.66361 0.291 0.0
H1659 H 0.75053 0.64247 0.21658 0.0
H1660 H 0.76577 0.64268 0.16437 0.0
H1661 H 0.74833 0.6349 0.28819 0.0
H1662 H 0.7474 0.67349 0.22395 0.0
H1663 H 0.75587 0.69266 0.19714 0.0
H1664 H 0.76663 0.70377 0.31365 0.0
H1665 H 0.75839 0.68455 0.34109 0.0
C1666 C 0.71049 0.66669 0.42148 0.0
C1667 C 0.71449 0.66035 0.45515 0.0
C1668 C 0.7163 0.66484 0.38521 0.0
C1669 C 0.72609 0.65657 0.38227 0.0
C1670 C 0.72974 0.64994 0.41564 0.0
C1671 C 0.72393 0.65173 0.45161 0.0
C1672 C 0.73344 0.65567 0.34582 0.0
C1673 C 0.73872 0.66638 0.33075 0.0
C1674 C 0.73655 0.64422 0.32924 0.0
C1675 C 0.73035 0.63275 0.3416 0.0
C1676 C 0.73723 0.62248 0.35309 0.0
C1677 C 0.73134 0.61175 0.36509 0.0
C1678 C 0.71858 0.61115 0.36551 0.0
C1679 C 0.71167 0.62127 0.35385 0.0
C1680 C 0.7175 0.63202 0.34194 0.0
C1681 C 0.7814 0.65927 0.23331 0.0
C1682 C 0.7789 0.6537 0.19689 0.0
C1683 C 0.77269 0.65898 0.26343 0.0
C1684 C 0.76133 0.65326 0.25724 0.0
C1685 C 0.75919 0.64701 0.22186 0.0
C1686 C 0.76791 0.64718 0.192 0.0
C1687 C 0.7514 0.65436 0.28659 0.0
C1688 C 0.74565 0.6437 0.3002 0.0
C1689 C 0.74752 0.66589 0.3008 0.0
C1690 C 0.75236 0.67753 0.28453 0.0
C1691 C 0.75163 0.67998 0.24383 0.0
C1692 C 0.75639 0.69086 0.22852 0.0
C1693 C 0.7618 0.69942 0.25367 0.0
C1694 C 0.76244 0.69713 0.2942 0.0
C1695 C 0.75772 0.68625 0.30966 0.0
H1696 H 0.76548 0.70783 0.24176 0.0
H1697 H 0.71404 0.60283 0.37478 0.0
H1698 H 0.61898 0.54097 0.45941 0.0
H1699 H 0.61869 0.52717 0.51628 0.0
H1700 H 0.5792 0.52764 0.51523 0.0
H1701 H 0.57952 0.54209 0.46017 0.0
H1702 H 0.58619 0.52555 0.58656 0.0
H1703 H 0.59686 0.50496 0.46665 0.0
H1704 H 0.60868 0.50139 0.40575 0.0
H1705 H 0.64122 0.4957 0.4743 0.0
H1706 H 0.62962 0.49943 0.53561 0.0
H1707 H 0.57811 0.46921 0.68409 0.0
H1708 H 0.57938 0.48209 0.62504 0.0
H1709 H 0.61673 0.49116 0.65363 0.0
H1710 H 0.61546 0.47852 0.71311 0.0
H1711 H 0.61044 0.48761 0.56765 0.0
H1712 H 0.59835 0.50921 0.68798 0.0
H1713 H 0.58523 0.51138 0.74676 0.0
H1714 H 0.55344 0.51361 0.67266 0.0
H1715 H 0.56637 0.5112 0.61345 0.0
C1716 C 0.61027 0.53837 0.4722 0.0
C1717 C 0.59928 0.54249 0.45562 0.0
C1718 C 0.6101 0.5304 0.50431 0.0
C1719 C 0.59892 0.52603 0.51908 0.0
C1720 C 0.58793 0.53081 0.50413 0.0
C1721 C 0.58812 0.53908 0.47278 0.0
C1722 C 0.59864 0.51593 0.54817 0.0
C1723 C 0.5914 0.51722 0.58208 0.0
C1724 C 0.60543 0.50501 0.54246 0.0
C1725 C 0.61239 0.50258 0.50568 0.0
C1726 C 0.60655 0.50301 0.46872 0.0
C1727 C 0.6132 0.50096 0.43413 0.0
C1728 C 0.62569 0.49834 0.43615 0.0
C1729 C 0.63154 0.49774 0.47278 0.0
C1730 C 0.62493 0.49981 0.50746 0.0
C1731 C 0.58669 0.47367 0.67714 0.0
C1732 C 0.59664 0.47307 0.70327 0.0
C1733 C 0.58739 0.48101 0.64353 0.0
C1734 C 0.5981 0.48762 0.63551 0.0
C1735 C 0.6084 0.48611 0.65956 0.0
C1736 C 0.60764 0.47896 0.6935 0.0
C1737 C 0.59806 0.49735 0.60556 0.0
C1738 C 0.60524 0.49596 0.57171 0.0
C1739 C 0.59102 0.50805 0.61085 0.0
C1740 C 0.58331 0.5099 0.64635 0.0
C1741 C 0.58855 0.51008 0.68425 0.0
C1742 C 0.58115 0.51136 0.71764 0.0
C1743 C 0.5685 0.5126 0.71346 0.0
C1744 C 0.56323 0.51262 0.67586 0.0
C1745 C 0.5706 0.5113 0.64238 0.0
H1746 H 0.56278 0.51357 0.73934 0.0
H1747 H 0.63084 0.49676 0.40934 0.0
H1748 H 0.73241 0.37272 0.66911 0.0
H1749 H 0.74604 0.3745 0.72557 0.0
H1750 H 0.71947 0.35613 0.79881 0.0
H1751 H 0.70583 0.35399 0.7418 0.0
H1752 H 0.74585 0.38439 0.79603 0.0
H1753 H 0.73454 0.33671 0.86007 0.0
H1754 H 0.72631 0.3169 0.83751 0.0
H1755 H 0.73939 0.32405 0.72025 0.0
H1756 H 0.74787 0.34381 0.74225 0.0
H1757 H 0.77071 0.3761 0.98631 0.0
H1758 H 0.75822 0.37773 0.9271 0.0
H1759 H 0.78118 0.35127 0.86855 0.0
H1760 H 0.79367 0.34939 0.92833 0.0
H1761 H 0.75775 0.34547 0.86085 0.0
H1762 H 0.78178 0.38121 0.84124 0.0
H1763 H 0.79158 0.40078 0.85876 0.0
H1764 H 0.75633 0.41699 0.87806 0.0
H1765 H 0.74632 0.39746 0.8612 0.0
C1766 C 0.72938 0.36918 0.69732 0.0
C1767 C 0.71815 0.36301 0.70094 0.0
C1768 C 0.73717 0.37026 0.7296 0.0
C1769 C 0.73385 0.36525 0.7661 0.0
C1770 C 0.72227 0.35985 0.77059 0.0
C1771 C 0.71448 0.35867 0.73812 0.0
C1772 C 0.74293 0.36492 0.79839 0.0
C1773 C 0.74842 0.3759 0.81037 0.0
C1774 C 0.74654 0.35378 0.81611 0.0
C1775 C 0.74172 0.34179 0.80275 0.0
C1776 C 0.73571 0.33402 0.82952 0.0
C1777 C 0.731 0.32281 0.81683 0.0
C1778 C 0.73229 0.31924 0.77744 0.0
C1779 C 0.73836 0.32684 0.75072 0.0
C1780 C 0.74312 0.33805 0.76328 0.0
C1781 C 0.77322 0.37073 0.9607 0.0
C1782 C 0.78311 0.36254 0.96199 0.0
C1783 C 0.76609 0.37172 0.92681 0.0
C1784 C 0.76881 0.36466 0.89344 0.0
C1785 C 0.77893 0.35677 0.89412 0.0
C1786 C 0.78607 0.35574 0.92816 0.0
C1787 C 0.76056 0.36497 0.85894 0.0
C1788 C 0.75519 0.35397 0.84656 0.0
C1789 C 0.75732 0.37605 0.84014 0.0
C1790 C 0.7633 0.38783 0.85026 0.0
C1791 C 0.77612 0.38892 0.84953 0.0
C1792 C 0.78171 0.40001 0.85928 0.0
C1793 C 0.77458 0.41011 0.8696 0.0
C1794 C 0.76184 0.40915 0.87009 0.0
C1795 C 0.7562 0.39808 0.86039 0.0
H1796 H 0.77893 0.41869 0.87714 0.0
H1797 H 0.72861 0.31056 0.76766 0.0
H1798 H 0.91523 0.54916 0.17716 0.0
H1799 H 0.9134 0.53559 0.1199 0.0
H1800 H 0.88039 0.52014 0.16876 0.0
H1801 H 0.88223 0.5335 0.22603 0.0
H1802 H 0.8963 0.50262 0.14901 0.0
H1803 H 0.8791 0.53846 0.08906 0.0
H1804 H 0.87855 0.56015 0.06928 0.0
H1805 H 0.9109 0.55509 -0.00061 0.0
H1806 H 0.91175 0.53339 0.01923 0.0
H1807 H 0.88186 0.4843 0.93108 0.0
H1808 H 0.88005 0.49741 0.98895 0.0
H1809 H 0.91331 0.48206 0.03636 0.0
H1810 H 0.9151 0.46873 0.97852 0.0
H1811 H 0.89611 0.51493 0.00808 0.0
H1812 H 0.91177 0.48419 0.13793 0.0
H1813 H 0.91118 0.46242 0.15688 0.0
H1814 H 0.879 0.45716 0.08624 0.0
H1815 H 0.87924 0.47894 0.06753 0.0
C1816 C 0.90746 0.54304 0.17521 0.0
C1817 C 0.89894 0.54228 0.20609 0.0
C1818 C 0.90644 0.53529 0.14261 0.0
C1819 C 0.8968 0.52682 0.14039 0.0
C1820 C 0.88795 0.52653 0.17021 0.0
C1821 C 0.88899 0.5342 0.20276 0.0
C1822 C 0.89627 0.51776 0.10818 0.0
C1823 C 0.89623 0.50529 0.11816 0.0
C1824 C 0.89607 0.5213 0.0681 0.0
C1825 C 0.89555 0.53433 0.05593 0.0
C1826 C 0.88615 0.54199 0.06972 0.0
C1827 C 0.88578 0.55428 0.05845 0.0
C1828 C 0.8947 0.559 0.03317 0.0
C1829 C 0.904 0.55142 0.01901 0.0
C1830 C 0.90443 0.53913 0.03022 0.0
C1831 C 0.88868 0.48356 0.95416 0.0
C1832 C 0.8987 0.47563 0.95021 0.0
C1833 C 0.88766 0.49109 0.98705 0.0
C1834 C 0.8966 0.49077 0.0166 0.0
C1835 C 0.90629 0.48238 0.01384 0.0
C1836 C 0.90729 0.47478 0.98088 0.0
C1837 C 0.89617 0.49979 0.0489 0.0
C1838 C 0.89613 0.51225 0.03893 0.0
C1839 C 0.89607 0.49623 0.08897 0.0
C1840 C 0.89561 0.48319 0.10102 0.0
C1841 C 0.90452 0.47841 0.12665 0.0
C1842 C 0.90425 0.46606 0.13734 0.0
C1843 C 0.89508 0.4584 0.12268 0.0
C1844 C 0.88612 0.46309 0.09749 0.0
C1845 C 0.88632 0.47544 0.08683 0.0
H1846 H 0.89491 0.44884 0.13089 0.0
H1847 H 0.8944 0.56852 0.02449 0.0
H1848 H 0.27898 0.3771 0.68892 0.0
H1849 H 0.2664 0.37841 0.74824 0.0
H1850 H 0.27935 0.34293 0.78527 0.0
H1851 H 0.29222 0.34171 0.72626 0.0
H1852 H 0.24786 0.36387 0.76382 0.0
H1853 H 0.27689 0.34076 0.88561 0.0
H1854 H 0.29855 0.33863 0.90481 0.0
H1855 H 0.30699 0.3726 0.84731 0.0
H1856 H 0.28536 0.37501 0.82825 0.0
H1857 H 0.21127 0.34443 0.92767 0.0
H1858 H 0.22539 0.34553 0.87154 0.0
H1859 H 0.24466 0.37521 0.92787 0.0
H1860 H 0.23074 0.37412 0.98386 0.0
H1861 H 0.26017 0.35772 0.90333 0.0
H1862 H 0.22657 0.38079 0.85046 0.0
H1863 H 0.2051 0.3845 0.83169 0.0
H1864 H 0.20625 0.35393 0.75227 0.0
H1865 H 0.22769 0.34994 0.771 0.0
C1866 C 0.27934 0.3697 0.71016 0.0
C1867 C 0.28648 0.35927 0.70298 0.0
C1868 C 0.27212 0.37043 0.74388 0.0
C1869 C 0.27188 0.36074 0.77092 0.0
C1870 C 0.27949 0.35056 0.76489 0.0
C1871 C 0.28684 0.34988 0.73124 0.0
C1872 C 0.26297 0.36092 0.80366 0.0
C1873 C 0.25056 0.36255 0.79435 0.0
C1874 C 0.26652 0.35925 0.84341 0.0
C1875 C 0.27952 0.35799 0.85517 0.0
C1876 C 0.28336 0.34779 0.8772 0.0
C1877 C 0.29564 0.34654 0.88804 0.0
C1878 C 0.30415 0.35545 0.87717 0.0
C1879 C 0.3004 0.36567 0.85557 0.0
C1880 C 0.28813 0.36698 0.8447 0.0
C1881 C 0.21842 0.35128 0.92775 0.0
C1882 C 0.21997 0.35913 0.96017 0.0
C1883 C 0.22647 0.3519 0.89578 0.0
C1884 C 0.23609 0.36042 0.8958 0.0
C1885 C 0.23737 0.36851 0.92754 0.0
C1886 C 0.22937 0.3679 0.95938 0.0
C1887 C 0.2451 0.36071 0.86343 0.0
C1888 C 0.2575 0.35906 0.87278 0.0
C1889 C 0.24158 0.3626 0.82379 0.0
C1890 C 0.2287 0.36499 0.81244 0.0
C1891 C 0.22221 0.37479 0.82925 0.0
C1892 C 0.21006 0.37696 0.81856 0.0
C1893 C 0.20431 0.36944 0.79088 0.0
C1894 C 0.21071 0.35975 0.77375 0.0
C1895 C 0.22287 0.35753 0.78437 0.0
H1896 H 0.19489 0.37113 0.78265 0.0
H1897 H 0.31365 0.35446 0.88556 0.0
H1898 H 0.38264 0.53192 0.42833 0.0
H1899 H 0.37857 0.51908 0.48582 0.0
H1900 H 0.41154 0.53243 0.54115 0.0
H1901 H 0.41551 0.54552 0.484 0.0
H1902 H 0.39195 0.50066 0.5108 0.0
H1903 H 0.40874 0.53129 0.63994 0.0
H1904 H 0.40925 0.55314 0.65793 0.0
H1905 H 0.3781 0.55991 0.5839 0.0
H1906 H 0.3773 0.53808 0.5659 0.0
H1907 H 0.411 0.46776 0.68108 0.0
H1908 H 0.40855 0.48063 0.62248 0.0
H1909 H 0.37634 0.497 0.67363 0.0
H1910 H 0.37879 0.48431 0.7323 0.0
H1911 H 0.39241 0.514 0.65071 0.0
H1912 H 0.37363 0.47866 0.59564 0.0
H1913 H 0.37199 0.45678 0.57898 0.0
H1914 H 0.40388 0.45955 0.50562 0.0
H1915 H 0.40584 0.48142 0.52234 0.0
C1916 C 0.38891 0.53226 0.45306 0.0
C1917 C 0.39943 0.53964 0.45173 0.0
C1918 C 0.3866 0.5249 0.48575 0.0
C1919 C 0.39476 0.5248 0.51763 0.0
C1920 C 0.40505 0.5325 0.51701 0.0
C1921 C 0.40731 0.53996 0.48439 0.0
C1922 C 0.39292 0.51608 0.55039 0.0
C1923 C 0.39196 0.50358 0.5414 0.0
C1924 C 0.39275 0.51993 0.5902 0.0
C1925 C 0.39303 0.53306 0.60134 0.0
C1926 C 0.40196 0.53743 0.62766 0.0
C1927 C 0.40231 0.54981 0.63782 0.0
C1928 C 0.39373 0.55791 0.62198 0.0
C1929 C 0.38476 0.55364 0.59604 0.0
C1930 C 0.38437 0.54126 0.58582 0.0
C1931 C 0.40328 0.47395 0.67947 0.0
C1932 C 0.39519 0.47518 0.71137 0.0
C1933 C 0.40188 0.48127 0.64602 0.0
C1934 C 0.3923 0.48979 0.64398 0.0
C1935 C 0.38384 0.49054 0.67489 0.0
C1936 C 0.38525 0.48327 0.70828 0.0
C1937 C 0.39166 0.4986 0.6111 0.0
C1938 C 0.39223 0.51111 0.62008 0.0
C1939 C 0.39122 0.49477 0.57134 0.0
C1940 C 0.38993 0.48167 0.56048 0.0
C1941 C 0.38034 0.47459 0.57614 0.0
C1942 C 0.37935 0.46219 0.56669 0.0
C1943 C 0.38784 0.45677 0.54135 0.0
C1944 C 0.39731 0.46376 0.52528 0.0
C1945 C 0.39836 0.47617 0.53469 0.0
H1946 H 0.38706 0.44717 0.53412 0.0
H1947 H 0.39402 0.5675 0.62986 0.0
H1948 H 0.26542 0.64329 0.4935 0.0
H1949 H 0.25149 0.64121 0.43799 0.0
H1950 H 0.2768 0.66093 0.3637 0.0
H1951 H 0.29069 0.66344 0.41991 0.0
H1952 H 0.25502 0.66985 0.35512 0.0
H1953 H 0.27175 0.62968 0.35312 0.0
H1954 H 0.27814 0.60973 0.37999 0.0
H1955 H 0.24099 0.60167 0.4117 0.0
H1956 H 0.23439 0.62165 0.3855 0.0
H1957 H 0.22458 0.6394 0.17981 0.0
H1958 H 0.23697 0.63703 0.23889 0.0
H1959 H 0.21457 0.66356 0.29935 0.0
H1960 H 0.20226 0.66627 0.23952 0.0
H1961 H 0.23518 0.6311 0.3137 0.0
H1962 H 0.23352 0.68269 0.34961 0.0
H1963 H 0.22902 0.7022 0.31597 0.0
H1964 H 0.23986 0.68661 0.20506 0.0
H1965 H 0.24461 0.66709 0.23814 0.0
C1966 C 0.26812 0.64706 0.46524 0.0
C1967 C 0.27911 0.6536 0.46104 0.0
C1968 C 0.26016 0.6458 0.43346 0.0
C1969 C 0.26314 0.65083 0.39665 0.0
C1970 C 0.27432 0.657 0.39196 0.0
C1971 C 0.28226 0.65839 0.42396 0.0
C1972 C 0.25421 0.65034 0.36394 0.0
C1973 C 0.25072 0.66136 0.34604 0.0
C1974 C 0.24866 0.63925 0.35186 0.0
C1975 C 0.25259 0.62722 0.36766 0.0
C1976 C 0.26495 0.6237 0.36611 0.0
C1977 C 0.26861 0.61237 0.38116 0.0
C1978 C 0.25998 0.60445 0.39763 0.0
C1979 C 0.24767 0.60782 0.39898 0.0
C1980 C 0.24396 0.61914 0.38399 0.0
C1981 C 0.22214 0.64459 0.20588 0.0
C1982 C 0.21266 0.65326 0.20483 0.0
C1983 C 0.22919 0.64316 0.23972 0.0
C1984 C 0.22685 0.65032 0.27311 0.0
C1985 C 0.21665 0.65813 0.27349 0.0
C1986 C 0.20961 0.65964 0.23941 0.0
C1987 C 0.23595 0.6506 0.3053 0.0
C1988 C 0.23946 0.63957 0.32308 0.0
C1989 C 0.24183 0.66161 0.31634 0.0
C1990 C 0.23928 0.6734 0.2963 0.0
C1991 C 0.23499 0.68345 0.31808 0.0
C1992 C 0.2324 0.69451 0.29911 0.0
C1993 C 0.23411 0.69563 0.25839 0.0
C1994 C 0.2385 0.68572 0.23658 0.0
C1995 C 0.24114 0.67466 0.25542 0.0
H1996 H 0.23207 0.70419 0.24375 0.0
H1997 H 0.26284 0.59569 0.40926 0.0
H1998 H 0.08201 0.55242 0.18123 0.0
H1999 H 0.08189 0.53966 0.1219 0.0
H2000 H 0.11833 0.52717 0.14898 0.0
H2001 H 0.11843 0.53971 0.20883 0.0
H2002 H 0.11194 0.53145 0.06294 0.0
H2003 H 0.09878 0.51069 0.18374 0.0
H2004 H 0.08593 0.50961 0.24347 0.0
H2005 H 0.05355 0.51053 0.17179 0.0
H2006 H 0.06624 0.51186 0.11164 0.0
H2007 H 0.11523 0.47751 0.95476 0.0
H2008 H 0.11639 0.49146 0.01107 0.0
H2009 H 0.07699 0.49424 0.01208 0.0
H2010 H 0.07583 0.47962 0.95754 0.0
H2011 H 0.08451 0.49577 0.08306 0.0
H2012 H 0.09627 0.51547 0.96263 0.0
H2013 H 0.10801 0.51811 0.90105 0.0
H2014 H 0.14131 0.5209 0.96768 0.0
H2015 H 0.12978 0.51809 0.02964 0.0
C2016 C 0.09011 0.54725 0.17391 0.0
C2017 C 0.10015 0.54686 0.19978 0.0
C2018 C 0.09004 0.53997 0.14011 0.0
C2019 C 0.10006 0.53243 0.1316 0.0
C2020 C 0.11054 0.53295 0.15528 0.0
C2021 C 0.11055 0.54006 0.1894 0.0
C2022 C 0.09899 0.52277 0.10158 0.0
C2023 C 0.10604 0.52359 0.06726 0.0
C2024 C 0.09105 0.51273 0.10722 0.0
C2025 C 0.08345 0.5115 0.14326 0.0
C2026 C 0.08892 0.51075 0.18075 0.0
C2027 C 0.08167 0.51009 0.21467 0.0
C2028 C 0.06893 0.51004 0.21144 0.0
C2029 C 0.06342 0.51059 0.17425 0.0
C2030 C 0.07063 0.51129 0.14024 0.0
C2031 C 0.10684 0.48088 0.96783 0.0
C2032 C 0.09546 0.4776 0.95202 0.0
C2033 C 0.10749 0.48893 -0.00038 0.0
C2034 C 0.09679 0.49423 0.01486 0.0
C2035 C 0.08537 0.49034 0.0006 0.0
C2036 C 0.08471 0.48199 0.96955 0.0
C2037 C 0.09753 0.50432 0.04394 0.0
C2038 C 0.09041 0.50361 0.07831 0.0
C2039 C 0.10524 0.5146 0.03791 0.0
C2040 C 0.11218 0.51647 0.00074 0.0
C2041 C 0.10611 0.51658 0.96412 0.0
C2042 C 0.11272 0.51811 0.92916 0.0
C2043 C 0.1254 0.51964 0.93045 0.0
C2044 C 0.13149 0.51969 0.96672 0.0
C2045 C 0.12492 0.51815 0.00178 0.0
H2046 H 0.13051 0.52082 0.90335 0.0
H2047 H 0.06334 0.50955 0.23774 0.0
H2048 H 0.22566 0.21367 0.08095 0.0
H2049 H 0.22214 0.23535 0.0921 0.0
H2050 H 0.18324 0.22901 0.09693 0.0
H2051 H 0.18667 0.20709 0.08575 0.0
H2052 H 0.18993 0.24864 0.04818 0.0
H2053 H 0.19661 0.23582 0.17978 0.0
H2054 H 0.20665 0.22484 0.23443 0.0
H2055 H 0.23962 0.24532 0.2151 0.0
H2056 H 0.22984 0.2563 0.15991 0.0
H2057 H 0.18792 0.31296 0.09299 0.0
H2058 H 0.18431 0.29098 0.10091 0.0
H2059 H 0.22314 0.28438 0.09469 0.0
H2060 H 0.22684 0.30623 0.08675 0.0
H2061 H 0.21171 0.27114 0.15424 0.0
H2062 H 0.20597 0.28055 0.01486 0.0
H2063 H 0.19615 0.2912 0.95904 0.0
H2064 H 0.16121 0.27684 0.99375 0.0
H2065 H 0.17082 0.26624 0.05013 0.0
C2066 C 0.21633 0.21682 0.08448 0.0
C2067 C 0.20644 0.20864 0.08245 0.0
C2068 C 0.21435 0.22922 0.09111 0.0
C2069 C 0.20244 0.23373 0.09582 0.0
C2070 C 0.1925 0.22566 0.09361 0.0
C2071 C 0.19448 0.21316 0.0873 0.0
C2072 C 0.20061 0.24701 0.10137 0.0
C2073 C 0.1944 0.25356 0.07196 0.0
C2074 C 0.20654 0.25339 0.13222 0.0
C2075 C 0.21249 0.24685 0.16554 0.0
C2076 C 0.20603 0.23793 0.18698 0.0
C2077 C 0.21167 0.23171 0.21809 0.0
C2078 C 0.22377 0.23437 0.2282 0.0
C2079 C 0.23024 0.24327 0.20725 0.0
C2080 C 0.22464 0.24951 0.17608 0.0
C2081 C 0.19569 0.30683 0.09362 0.0
C2082 C 0.20767 0.31133 0.08902 0.0
C2083 C 0.1936 0.29429 0.09807 0.0
C2084 C 0.20346 0.28609 0.0982 0.0
C2085 C 0.21542 0.29059 0.09475 0.0
C2086 C 0.21751 0.30307 0.09 0.0
C2087 C 0.20145 0.27274 0.10026 0.0
C2088 C 0.20695 0.2662 0.13112 0.0
C2089 C 0.19484 0.26637 0.07081 0.0
C2090 C 0.18908 0.27275 0.03698 0.0
C2091 C 0.19618 0.27976 0.01079 0.0
C2092 C 0.19066 0.28577 0.97901 0.0
C2093 C 0.17806 0.28474 0.97293 0.0
C2094 C 0.17096 0.27766 -0.00144 0.0
C2095 C 0.17644 0.27165 0.03042 0.0
H2096 H 0.1738 0.28939 0.9483 0.0
H2097 H 0.22812 0.22954 0.2523 0.0
H2098 H 0.05396 0.94827 0.35044 0.0
H2099 H 0.03171 0.94647 0.35565 0.0
H2100 H 0.02806 0.98522 0.33513 0.0
H2101 H 0.05025 0.98713 0.32984 0.0
H2102 H 0.01285 0.97667 0.39509 0.0
H2103 H 0.024 0.96619 0.26095 0.0
H2104 H 0.03505 0.95448 0.21002 0.0
H2105 H 0.01881 0.9212 0.25216 0.0
H2106 H 0.00778 0.93271 0.30374 0.0
H2107 H 0.95449 0.98693 0.3174 0.0
H2108 H 0.97639 0.98472 0.3282 0.0
H2109 H 0.97183 0.94593 0.34577 0.0
H2110 H 0.94974 0.94804 0.33495 0.0
H2111 H 0.991 0.95172 0.29507 0.0
H2112 H 0.97756 0.96268 0.4235 0.0
H2113 H 0.96625 0.97453 0.47345 0.0
H2114 H 0.98654 0.00676 0.44261 0.0
H2115 H 0.99785 0.99516 0.39199 0.0
C2116 C 0.04843 0.95644 0.3474 0.0
C2117 C 0.05387 0.96784 0.33947 0.0
C2118 C 0.03573 0.95537 0.3503 0.0
C2119 C 0.02827 0.9657 0.34547 0.0
C2120 C 0.03368 0.97715 0.33895 0.0
C2121 C 0.04636 0.97821 0.33576 0.0
C2122 C 0.01479 0.96456 0.34541 0.0
C2123 C 0.00805 0.97126 0.37317 0.0
C2124 C 0.00859 0.9572 0.3175 0.0
C2125 C 0.0152 0.95028 0.28651 0.0
C2126 C 0.02288 0.95636 0.25959 0.0
C2127 C 0.02912 0.94977 0.23056 0.0
C2128 C 0.02767 0.9371 0.22794 0.0
C2129 C 0.01994 0.93101 0.25428 0.0
C2130 C 0.0137 0.93756 0.28341 0.0
C2131 C 0.9581 0.97791 0.32359 0.0
C2132 C 0.95036 0.96766 0.32534 0.0
C2133 C 0.97062 0.97669 0.32999 0.0
C2134 C 0.97568 0.96519 0.33824 0.0
C2135 C 0.96805 0.95489 0.33963 0.0
C2136 C 0.95546 0.95612 0.33351 0.0
C2137 C 0.98904 0.96405 0.3442 0.0
C2138 C 0.99577 0.95694 0.31752 0.0
C2139 C 0.99523 0.97102 0.37315 0.0
C2140 C 0.9885 0.97805 0.40373 0.0
C2141 C 0.97955 0.97232 0.42714 0.0
C2142 C 0.97315 0.97898 0.45562 0.0
C2143 C 0.97566 0.99139 0.46116 0.0
C2144 C 0.9846 0.99715 0.43828 0.0
C2145 C 0.99102 0.99052 0.40971 0.0
H2146 H 0.9707 0.99654 0.48322 0.0
H2147 H 0.0325 0.93201 0.20544 0.0
H2148 H 0.30341 0.81017 0.60517 0.0
H2149 H 0.30485 0.78796 0.61377 0.0
H2150 H 0.27162 0.7833 0.54678 0.0
H2151 H 0.26998 0.80533 0.53866 0.0
H2152 H 0.27141 0.76936 0.61145 0.0
H2153 H 0.30026 0.77857 0.50608 0.0
H2154 H 0.31838 0.78874 0.47771 0.0
H2155 H 0.3411 0.77261 0.56703 0.0
H2156 H 0.32308 0.76246 0.59621 0.0
H2157 H 0.27012 0.7093 0.54267 0.0
H2158 H 0.27146 0.73143 0.54926 0.0
H2159 H 0.30543 0.72773 0.61293 0.0
H2160 H 0.30433 0.70548 0.60551 0.0
H2161 H 0.30694 0.74586 0.56121 0.0
H2162 H 0.27862 0.73457 0.66165 0.0
H2163 H 0.26062 0.72425 0.69014 0.0
H2164 H 0.23702 0.74425 0.61205 0.0
H2165 H 0.2549 0.75457 0.5827 0.0
C2166 C 0.2964 0.80441 0.59235 0.0
C2167 C 0.28659 0.80954 0.57117 0.0
C2168 C 0.29726 0.79172 0.5972 0.0
C2169 C 0.28838 0.78398 0.58067 0.0
C2170 C 0.27855 0.7891 0.55989 0.0
C2171 C 0.27766 0.80172 0.55517 0.0
C2172 C 0.2892 0.7705 0.58447 0.0
C2173 C 0.27915 0.76421 0.60029 0.0
C2174 C 0.29949 0.76382 0.57124 0.0
C2175 C 0.31031 0.76988 0.55358 0.0
C2176 C 0.30911 0.77727 0.51984 0.0
C2177 C 0.31936 0.78302 0.50358 0.0
C2178 C 0.33088 0.78136 0.52063 0.0
C2179 C 0.33217 0.77391 0.5539 0.0
C2180 C 0.32195 0.76815 0.57029 0.0
C2181 C 0.27788 0.71316 0.55816 0.0
C2182 C 0.28708 0.70561 0.57379 0.0
C2183 C 0.2786 0.72583 0.56208 0.0
C2184 C 0.28842 0.73123 0.58231 0.0
C2185 C 0.29774 0.72375 0.59742 0.0
C2186 C 0.29708 0.71104 0.59318 0.0
C2187 C 0.28895 0.7447 0.58693 0.0
C2188 C 0.29927 0.75099 0.57292 0.0
C2189 C 0.27892 0.75141 0.60199 0.0
C2190 C 0.26812 0.7453 0.61982 0.0
C2191 C 0.2696 0.73672 0.65039 0.0
C2192 C 0.25941 0.73087 0.66671 0.0
C2193 C 0.24769 0.73358 0.65287 0.0
C2194 C 0.24612 0.74216 0.62274 0.0
C2195 C 0.25627 0.74803 0.60629 0.0
H2196 H 0.23981 0.72903 0.66553 0.0
H2197 H 0.3388 0.78581 0.50801 0.0
H2198 H 0.44195 0.07498 0.84182 0.0
H2199 H 0.46352 0.08094 0.84904 0.0
H2200 H 0.47389 0.0429 0.85132 0.0
H2201 H 0.45256 0.03691 0.84368 0.0
H2202 H 0.48519 0.05752 0.91062 0.0
H2203 H 0.47608 0.05769 0.76841 0.0
H2204 H 0.4651 0.0653 0.70972 0.0
H2205 H 0.47754 0.10178 0.73402 0.0
H2206 H 0.48847 0.09438 0.79319 0.0
H2207 H 0.53896 0.03746 0.83285 0.0
H2208 H 0.5179 0.04369 0.84346 0.0
H2209 H 0.52887 0.08156 0.84476 0.0
H2210 H 0.55027 0.07537 0.83437 0.0
H2211 H 0.50713 0.07494 0.79532 0.0
H2212 H 0.52123 0.07278 0.92717 0.0
H2213 H 0.53275 0.0643 0.98339 0.0
H2214 H 0.51121 0.0315 0.97869 0.0
H2215 H 0.49968 0.0397 0.92203 0.0
C2216 C 0.44884 0.06791 0.84417 0.0
C2217 C 0.44559 0.05548 0.84204 0.0
C2218 C 0.46112 0.07133 0.84823 0.0
C2219 C 0.47023 0.06235 0.85077 0.0
C2220 C 0.46695 0.04996 0.84962 0.0
C2221 C 0.45477 0.04655 0.84501 0.0
C2222 C 0.48333 0.06555 0.85293 0.0
C2223 C 0.49001 0.06148 0.8857 0.0
C2224 C 0.4895 0.07111 0.82094 0.0
C2225 C 0.48292 0.07552 0.78549 0.0
C2226 C 0.47637 0.06735 0.76144 0.0
C2227 C 0.47018 0.07162 0.72805 0.0
C2228 C 0.47058 0.08402 0.71823 0.0
C2229 C 0.47721 0.09218 0.74173 0.0
C2230 C 0.4834 0.08795 0.77519 0.0
C2231 C 0.53697 0.04713 0.8353 0.0
C2232 C 0.54631 0.05592 0.83285 0.0
C2233 C 0.52492 0.05066 0.84152 0.0
C2234 C 0.5219 0.06305 0.84527 0.0
C2235 C 0.53109 0.07194 0.84212 0.0
C2236 C 0.54327 0.06839 0.8363 0.0
C2237 C 0.509 0.06633 0.85219 0.0
C2238 C 0.50233 0.07155 0.82113 0.0
C2239 C 0.5028 0.06184 0.88581 0.0
C2240 C 0.50959 0.05687 0.92027 0.0
C2241 C 0.51899 0.06374 0.93798 0.0
C2242 C 0.52552 0.05898 0.96995 0.0
C2243 C 0.52272 0.04737 0.9846 0.0
C2244 C 0.51336 0.0405 0.96734 0.0
C2245 C 0.5068 0.04521 0.93535 0.0
H2246 H 0.52779 0.0437 0.00934 0.0
H2247 H 0.4658 0.08731 0.69236 0.0
H2248 H 0.22868 0.80693 0.07856 0.0
H2249 H 0.22687 0.78473 0.07588 0.0
H2250 H 0.18835 0.78797 0.05058 0.0
H2251 H 0.19004 0.81028 0.05344 0.0
H2252 H 0.19286 0.77152 0.10928 0.0
H2253 H 0.20714 0.77895 0.97916 0.0
H2254 H 0.22032 0.78779 0.92746 0.0
H2255 H 0.2514 0.76902 0.97564 0.0
H2256 H 0.23845 0.76022 0.02807 0.0
H2257 H 0.1897 0.70661 0.07447 0.0
H2258 H 0.18827 0.72877 0.06465 0.0
H2259 H 0.22628 0.73263 0.0962 0.0
H2260 H 0.2278 0.71059 0.10631 0.0
H2261 H 0.2198 0.74532 0.02728 0.0
H2262 H 0.20558 0.7399 0.16137 0.0
H2263 H 0.19229 0.73126 0.21314 0.0
H2264 H 0.1607 0.74635 0.15574 0.0
H2265 H 0.17381 0.75494 0.10328 0.0
C2266 C 0.21983 0.80296 0.07209 0.0
C2267 C 0.2095 0.81039 0.06624 0.0
C2268 C 0.21883 0.79026 0.07039 0.0
C2269 C 0.2075 0.78472 0.06272 0.0
C2270 C 0.19718 0.79208 0.05645 0.0
C2271 C 0.19818 0.80482 0.05795 0.0
C2272 C 0.20643 0.77123 0.06315 0.0
C2273 C 0.19856 0.76578 0.09075 0.0
C2274 C 0.21399 0.76377 0.03935 0.0
C2275 C 0.22183 0.76899 0.00775 0.0
C2276 C 0.21681 0.77678 0.97894 0.0
C2277 C 0.22423 0.78177 0.94946 0.0
C2278 C 0.23669 0.77898 0.94831 0.0
C2279 C 0.24175 0.77117 0.97659 0.0
C2280 C 0.23436 0.76617 0.00617 0.0
C2281 C 0.19774 0.71218 0.07941 0.0
C2282 C 0.20886 0.70684 0.09124 0.0
C2283 C 0.1969 0.72482 0.07382 0.0
C2284 C 0.20717 0.73229 0.07972 0.0
C2285 C 0.21827 0.72699 0.09138 0.0
C2286 C 0.21909 0.7144 0.09735 0.0
C2287 C 0.20645 0.74567 0.07394 0.0
C2288 C 0.21398 0.75108 0.04532 0.0
C2289 C 0.19853 0.75308 0.09666 0.0
C2290 C 0.19065 0.74792 0.12814 0.0
C2291 C 0.19579 0.74127 0.15958 0.0
C2292 C 0.18829 0.73641 0.18909 0.0
C2293 C 0.17565 0.73822 0.18766 0.0
C2294 C 0.17049 0.74493 0.15676 0.0
C2295 C 0.17795 0.7498 0.12714 0.0
H2296 H 0.16986 0.73445 0.21055 0.0
H2297 H 0.24242 0.78285 0.92546 0.0
H2298 H 0.45211 0.98858 0.32337 0.0
H2299 H 0.47418 0.9873 0.31496 0.0
H2300 H 0.47125 0.94862 0.29214 0.0
H2301 H 0.44906 0.94976 0.30104 0.0
H2302 H 0.48878 0.95347 0.34569 0.0
H2303 H 0.47834 0.96824 0.21775 0.0
H2304 H 0.46828 0.98163 0.16904 0.0
H2305 H 0.48767 0.01264 0.21515 0.0
H2306 H 0.49773 -0.00054 0.26453 0.0
H2307 H 0.55258 0.95045 0.30306 0.0
H2308 H 0.5304 0.9492 0.29447 0.0
H2309 H 0.52716 0.98761 0.3212 0.0
H2310 H 0.54929 0.989 0.32961 0.0
H2311 H 0.51278 0.98097 0.25866 0.0
H2312 H 0.52118 0.96673 0.39082 0.0
H2313 H 0.53101 0.9536 0.4408 0.0
H2314 H 0.51521 0.92176 0.38697 0.0
H2315 H 0.50542 0.9347 0.33631 0.0
C2316 C 0.45611 0.9798 0.3162 0.0
C2317 C 0.4488 0.96926 0.31296 0.0
C2318 C 0.46875 0.97911 0.31117 0.0
C2319 C 0.47436 0.96789 0.30252 0.0
C2320 C 0.46709 0.95737 0.29868 0.0
C2321 C 0.45441 0.95806 0.30368 0.0
C2322 C 0.48787 0.96712 0.29991 0.0
C2323 C 0.49403 0.95928 0.32601 0.0
C2324 C 0.49471 0.9749 0.27484 0.0
C2325 C 0.48873 0.98286 0.24504 0.0
C2326 C 0.48039 0.97793 0.2177 0.0
C2327 C 0.4747 0.98548 0.18993 0.0
C2328 C 0.47732 0.99798 0.18904 0.0
C2329 C 0.48565 0.00295 0.21588 0.0
C2330 C 0.49136 0.99544 0.24373 0.0
C2331 C 0.54716 0.95866 0.30689 0.0
C2332 C 0.55271 0.96982 0.31724 0.0
C2333 C 0.53449 0.95791 0.30206 0.0
C2334 C 0.52714 0.96829 0.30752 0.0
C2335 C 0.53268 0.97949 0.31682 0.0
C2336 C 0.54533 0.98025 0.32179 0.0
C2337 C 0.51364 0.96746 0.30482 0.0
C2338 C 0.50751 0.97501 0.27781 0.0
C2339 C 0.50681 0.95944 0.32909 0.0
C2340 C 0.5127 0.95166 0.3595 0.0
C2341 C 0.5199 0.95692 0.38943 0.0
C2342 C 0.52544 0.94952 0.41792 0.0
C2343 C 0.52377 0.93685 0.41698 0.0
C2344 C 0.51652 0.93157 0.38761 0.0
C2345 C 0.51097 0.93893 0.35901 0.0
H2346 H 0.52807 0.93114 0.43908 0.0
H2347 H 0.4729 0.00381 0.16752 0.0
H2348 H 0.27319 0.21126 0.6083 0.0
H2349 H 0.27516 0.23327 0.60066 0.0
H2350 H 0.30919 0.22839 0.53825 0.0
H2351 H 0.30741 0.20616 0.5464 0.0
H2352 H 0.31052 0.24701 0.5915 0.0
H2353 H 0.28362 0.23543 0.48722 0.0
H2354 H 0.26598 0.22496 0.45701 0.0
H2355 H 0.24145 0.24542 0.53061 0.0
H2356 H 0.25895 0.25589 0.56171 0.0
H2357 H 0.30779 0.31127 0.54624 0.0
H2358 H 0.30935 0.28906 0.53825 0.0
H2359 H 0.27503 0.28451 0.59929 0.0
H2360 H 0.27328 0.30656 0.6068 0.0
H2361 H 0.27588 0.2705 0.53492 0.0
H2362 H 0.30278 0.27973 0.64513 0.0
H2363 H 0.32031 0.28992 0.67707 0.0
H2364 H 0.34471 0.2738 0.59255 0.0
H2365 H 0.3273 0.26364 0.55981 0.0
C2366 C 0.28111 0.21481 0.59287 0.0
C2367 C 0.2901 0.20692 0.57768 0.0
C2368 C 0.28219 0.22742 0.58841 0.0
C2369 C 0.2922 0.23245 0.56822 0.0
C2370 C 0.30135 0.22467 0.5537 0.0
C2371 C 0.3003 0.21198 0.55833 0.0
C2372 C 0.29298 0.24587 0.56277 0.0
C2373 C 0.30307 0.25215 0.57836 0.0
C2374 C 0.2832 0.25256 0.54597 0.0
C2375 C 0.27262 0.24641 0.52694 0.0
C2376 C 0.27447 0.23765 0.49712 0.0
C2377 C 0.26449 0.23172 0.47983 0.0
C2378 C 0.2526 0.23451 0.49192 0.0
C2379 C 0.25067 0.24327 0.52127 0.0
C2380 C 0.26061 0.24922 0.5387 0.0
C2381 C 0.30056 0.30554 0.55788 0.0
C2382 C 0.29041 0.3107 0.57721 0.0
C2383 C 0.30149 0.29285 0.55339 0.0
C2384 C 0.29234 0.28513 0.56841 0.0
C2385 C 0.28218 0.29029 0.58735 0.0
C2386 C 0.28122 0.30292 0.59173 0.0
C2387 C 0.29322 0.27166 0.56489 0.0
C2388 C 0.28343 0.26536 0.54742 0.0
C2389 C 0.30327 0.26498 0.58 0.0
C2390 C 0.31373 0.27105 0.59975 0.0
C2391 C 0.31187 0.27844 0.63318 0.0
C2392 C 0.32179 0.28419 0.65146 0.0
C2393 C 0.33361 0.28254 0.63676 0.0
C2394 C 0.33555 0.2751 0.60384 0.0
C2395 C 0.32566 0.26933 0.58543 0.0
H2396 H 0.34128 0.287 0.65095 0.0
H2397 H 0.24489 0.2299 0.47851 0.0
H2398 H 0.94384 0.067 0.8101 0.0
H2399 H 0.96608 0.06967 0.80892 0.0
H2400 H 0.97046 0.03595 0.87348 0.0
H2401 H 0.94836 0.03327 0.8752 0.0
H2402 H 0.98474 0.05396 0.90312 0.0
H2403 H 0.97491 0.03721 0.77414 0.0
H2404 H 0.96453 0.03712 0.70951 0.0
H2405 H 0.98089 0.0717 0.68091 0.0
H2406 H 0.99126 0.07206 0.74564 0.0
H2407 H 0.04338 0.03161 0.87111 0.0
H2408 H 0.0214 0.03503 0.86986 0.0
H2409 H 0.02684 0.06915 0.80846 0.0
H2410 H 0.04902 0.06579 0.80938 0.0
H2411 H 0.00783 0.05519 0.77708 0.0
H2412 H 0.01995 0.07051 0.90238 0.0
H2413 H 0.03061 0.07039 0.9665 0.0
H2414 H 0.01007 0.0388 0.00223 0.0
H2415 H -0.00059 0.03862 0.93807 0.0
C2416 C 0.94954 0.06017 0.82409 0.0
C2417 C 0.94431 0.04989 0.8426 0.0
C2418 C 0.96224 0.06169 0.82329 0.0
C2419 C 0.96991 0.05296 0.8409 0.0
C2420 C 0.9647 0.0428 0.85976 0.0
C2421 C 0.95205 0.04126 0.86054 0.0
C2422 C 0.98338 0.05422 0.83971 0.0
C2423 C 0.9898 0.05419 0.87558 0.0
C2424 C 0.98995 0.05496 0.80377 0.0
C2425 C 0.98373 0.05473 0.7649 0.0
C2426 C 0.97621 0.04484 0.7542 0.0
C2427 C 0.97034 0.04474 0.71753 0.0
C2428 C 0.97202 0.05442 0.69117 0.0
C2429 C 0.97958 0.06422 0.70139 0.0
C2430 C 0.98546 0.06438 0.73805 0.0
C2431 C 0.03996 0.03984 0.85719 0.0
C2432 C 0.04799 0.04846 0.84051 0.0
C2433 C 0.02738 0.04181 0.85668 0.0
C2434 C 0.02253 0.05243 0.83961 0.0
C2435 C 0.03044 0.06093 0.82197 0.0
C2436 C 0.04309 0.05899 0.82259 0.0
C2437 C 0.00916 0.0545 0.84048 0.0
C2438 C 0.00278 0.0552 0.80464 0.0
C2439 C 0.0026 0.0544 0.87646 0.0
C2440 C 0.00893 0.05451 0.91527 0.0
C2441 C 0.01776 0.06349 0.92379 0.0
C2442 C 0.0238 0.06348 0.96017 0.0
C2443 C 0.02104 0.05458 0.98839 0.0
C2444 C 0.01221 0.04569 0.98033 0.0
C2445 C 0.00615 0.04565 0.94398 0.0
H2446 H 0.02572 0.05459 0.01654 0.0
H2447 H 0.96747 0.05432 0.66278 0.0
H2448 H 0.76859 0.70863 0.09315 0.0
H2449 H 0.77035 0.7307 0.08485 0.0
H2450 H 0.80912 0.72707 0.06462 0.0
H2451 H 0.80747 0.70488 0.07299 0.0
H2452 H 0.80353 0.74577 0.11643 0.0
H2453 H 0.79134 0.73277 0.9882 0.0
H2454 H 0.77896 0.72164 0.93913 0.0
H2455 H 0.74703 0.74162 0.97475 0.0
H2456 H 0.75918 0.75275 0.02449 0.0
H2457 H 0.80679 0.80887 0.06206 0.0
H2458 H 0.80852 0.78661 0.05658 0.0
H2459 H 0.76984 0.783 0.07852 0.0
H2460 H 0.768 0.80516 0.08398 0.0
H2461 H 0.77779 0.76782 0.01897 0.0
H2462 H 0.78951 0.77888 0.15196 0.0
H2463 H 0.8017 0.78983 0.20197 0.0
H2464 H 0.83452 0.77334 0.15723 0.0
H2465 H 0.82252 0.76242 0.10655 0.0
C2466 C 0.77751 0.71248 0.08692 0.0
C2467 C 0.78789 0.70497 0.08359 0.0
C2468 C 0.77848 0.72511 0.082 0.0
C2469 C 0.78984 0.73049 0.07363 0.0
C2470 C 0.80026 0.72307 0.07088 0.0
C2471 C 0.79929 0.7104 0.07559 0.0
C2472 C 0.79074 0.7439 0.06845 0.0
C2473 C 0.7981 0.75059 0.09458 0.0
C2474 C 0.78352 0.75016 0.04029 0.0
C2475 C 0.77616 0.74353 0.0103 0.0
C2476 C 0.78166 0.73473 0.9858 0.0
C2477 C 0.77469 0.72843 0.95782 0.0
C2478 C 0.76221 0.73091 0.95387 0.0
C2479 C 0.75669 0.73971 0.97785 0.0
C2480 C 0.76362 0.74603 0.00591 0.0
C2481 C 0.79863 0.80335 0.06529 0.0
C2482 C 0.78727 0.80879 0.07371 0.0
C2483 C 0.79965 0.79063 0.06229 0.0
C2484 C 0.78933 0.78318 0.0675 0.0
C2485 C 0.77792 0.7886 0.07442 0.0
C2486 C 0.7769 0.80127 0.07769 0.0
C2487 C 0.79038 0.76968 0.06745 0.0
C2488 C 0.78337 0.76299 0.04036 0.0
C2489 C 0.79793 0.76341 0.09472 0.0
C2490 C 0.80514 0.76996 0.12517 0.0
C2491 C 0.79934 0.77768 0.15256 0.0
C2492 C 0.80621 0.78386 0.18107 0.0
C2493 C 0.81888 0.78231 0.18269 0.0
C2494 C 0.8247 0.77455 0.15587 0.0
C2495 C 0.81787 0.76836 0.12726 0.0
H2496 H 0.82418 0.7871 0.20479 0.0
H2497 H 0.75683 0.72602 0.93219 0.0
H2498 H 0.71749 0.2119 0.6414 0.0
H2499 H 0.71235 0.23354 0.64315 0.0
H2500 H 0.68216 0.22721 0.56376 0.0
H2501 H 0.68728 0.20537 0.56166 0.0
H2502 H 0.69648 0.24676 0.54135 0.0
H2503 H 0.6757 0.23389 0.6566 0.0
H2504 H 0.67278 0.22296 0.71954 0.0
H2505 H 0.70171 0.2439 0.77222 0.0
H2506 H 0.70494 0.25483 0.70942 0.0
H2507 H 0.68643 0.31119 0.56892 0.0
H2508 H 0.68168 0.28926 0.5687 0.0
H2509 H 0.7124 0.28254 0.64561 0.0
H2510 H 0.71718 0.30429 0.64611 0.0
H2511 H 0.69194 0.26943 0.66736 0.0
H2512 H 0.7152 0.27865 0.54808 0.0
H2513 H 0.71864 0.28923 0.48473 0.0
H2514 H 0.68483 0.27487 0.43988 0.0
H2515 H 0.68112 0.26432 0.50322 0.0
C2516 C 0.70972 0.21505 0.62438 0.0
C2517 C 0.70281 0.20691 0.60132 0.0
C2518 C 0.70674 0.22743 0.62565 0.0
C2519 C 0.69678 0.23193 0.60399 0.0
C2520 C 0.68984 0.22387 0.58088 0.0
C2521 C 0.69277 0.21142 0.57977 0.0
C2522 C 0.69418 0.24521 0.60431 0.0
C2523 C 0.69515 0.25171 0.56876 0.0
C2524 C 0.69254 0.25164 0.64014 0.0
C2525 C 0.69059 0.24515 0.67817 0.0
C2526 C 0.6815 0.23611 0.68152 0.0
C2527 C 0.67977 0.22992 0.7172 0.0
C2528 C 0.68706 0.23272 0.74985 0.0
C2529 C 0.69607 0.24174 0.7469 0.0
C2530 C 0.69783 0.24795 0.71128 0.0
C2531 C 0.69209 0.30504 0.58605 0.0
C2532 C 0.70224 0.30946 0.60727 0.0
C2533 C 0.68938 0.29254 0.58584 0.0
C2534 C 0.69673 0.28431 0.60697 0.0
C2535 C 0.70659 0.28876 0.62919 0.0
C2536 C 0.70936 0.30119 0.62921 0.0
C2537 C 0.69473 0.27095 0.60465 0.0
C2538 C 0.6929 0.26445 0.63985 0.0
C2539 C 0.69557 0.26452 0.56852 0.0
C2540 C 0.69781 0.27084 0.53051 0.0
C2541 C 0.70845 0.27784 0.52481 0.0
C2542 C 0.71046 0.28381 0.4889 0.0
C2543 C 0.70194 0.28276 0.45835 0.0
C2544 C 0.69141 0.2757 0.46361 0.0
C2545 C 0.68935 0.26972 0.49949 0.0
H2546 H 0.70351 0.28739 0.43056 0.0
H2547 H 0.68572 0.22792 0.77744 0.0
H2548 H 0.76925 0.3102 0.08084 0.0
H2549 H 0.77065 0.28801 0.08646 0.0
H2550 H 0.80982 0.29065 0.09861 0.0
H2551 H 0.80853 0.31293 0.09296 0.0
H2552 H 0.80273 0.27331 0.04398 0.0
H2553 H 0.79344 0.28366 0.17741 0.0
H2554 H 0.78219 0.29373 0.2314 0.0
H2555 H 0.74945 0.27461 0.19843 0.0
H2556 H 0.76046 0.26454 0.14384 0.0
H2557 H 0.80776 0.20963 0.08764 0.0
H2558 H 0.80924 0.23186 0.09436 0.0
H2559 H 0.77007 0.23485 0.08298 0.0
H2560 H 0.76848 0.21269 0.07637 0.0
H2561 H 0.77912 0.24936 0.14237 0.0
H2562 H 0.78767 0.24075 0.00563 0.0
H2563 H 0.79853 0.23085 0.95047 0.0
H2564 H 0.83234 0.24687 0.98903 0.0
H2565 H 0.8217 0.25673 0.0448 0.0
C2566 C 0.77817 0.30609 0.08492 0.0
C2567 C 0.78878 0.31335 0.08645 0.0
C2568 C 0.77894 0.29341 0.08831 0.0
C2569 C 0.79033 0.28771 0.09328 0.0
C2570 C 0.80095 0.29489 0.09491 0.0
C2571 C 0.80018 0.30762 0.0918 0.0
C2572 C 0.7911 0.27421 0.09522 0.0
C2573 C 0.79778 0.26806 0.06598 0.0
C2574 C 0.78443 0.26741 0.12346 0.0
C2575 C 0.77776 0.27342 0.15632 0.0
C2576 C 0.78382 0.28167 0.18146 0.0
C2577 C 0.77749 0.28737 0.21221 0.0
C2578 C 0.76511 0.28483 0.21829 0.0
C2579 C 0.75904 0.27657 0.19367 0.0
C2580 C 0.76532 0.27086 0.16284 0.0
C2581 C 0.79945 0.21501 0.08678 0.0
C2582 C 0.78801 0.20939 0.08126 0.0
C2583 C 0.80032 0.2277 0.09052 0.0
C2584 C 0.78977 0.23498 0.08888 0.0
C2585 C 0.77832 0.22938 0.08435 0.0
C2586 C 0.77744 0.21672 0.08039 0.0
C2587 C 0.79061 0.24847 0.09083 0.0
C2588 C 0.78421 0.25461 0.12074 0.0
C2589 C 0.7975 0.25527 0.06314 0.0
C2590 C 0.80392 0.24935 0.02966 0.0
C2591 C 0.79744 0.24207 0.00256 0.0
C2592 C 0.80356 0.23648 0.97115 0.0
C2593 C 0.81613 0.23819 0.96632 0.0
C2594 C 0.82261 0.24553 0.99286 0.0
C2595 C 0.81654 0.25112 0.02436 0.0
H2596 H 0.82085 0.23387 0.94197 0.0
H2597 H 0.76022 0.28925 0.24213 0.0
H2598 H 0.6895 0.70954 0.59814 0.0
H2599 H 0.68695 0.73153 0.60988 0.0
H2600 H 0.72547 0.7371 0.5893 0.0
H2601 H 0.72811 0.71528 0.57744 0.0
H2602 H 0.71677 0.74956 0.65541 0.0
H2603 H 0.70597 0.7429 0.51783 0.0
H2604 H 0.69401 0.73357 0.46393 0.0
H2605 H 0.66092 0.74817 0.51318 0.0
H2606 H 0.67268 0.75745 0.56771 0.0
H2607 H 0.72831 0.80921 0.59073 0.0
H2608 H 0.72558 0.78724 0.59947 0.0
H2609 H 0.6869 0.79254 0.61757 0.0
H2610 H 0.68954 0.81462 0.60888 0.0
H2611 H 0.69199 0.77453 0.56289 0.0
H2612 H 0.70337 0.78425 0.69404 0.0
H2613 H 0.71541 0.79385 0.74717 0.0
H2614 H 0.74718 0.77371 0.71106 0.0
H2615 H 0.73538 0.76412 0.65729 0.0
C2616 C 0.69743 0.71545 0.59631 0.0
C2617 C 0.709 0.71069 0.58666 0.0
C2618 C 0.69594 0.72799 0.60297 0.0
C2619 C 0.70602 0.73589 0.60036 0.0
C2620 C 0.71759 0.73112 0.59157 0.0
C2621 C 0.71906 0.71866 0.58456 0.0
C2622 C 0.70461 0.74924 0.60543 0.0
C2623 C 0.71137 0.75504 0.63521 0.0
C2624 C 0.69723 0.7563 0.57983 0.0
C2625 C 0.69017 0.75071 0.54712 0.0
C2626 C 0.69613 0.74401 0.51737 0.0
C2627 C 0.68939 0.73876 0.48667 0.0
C2628 C 0.67671 0.74024 0.48521 0.0
C2629 C 0.67074 0.747 0.51441 0.0
C2630 C 0.67743 0.75226 0.54521 0.0
C2631 C 0.71923 0.80574 0.59693 0.0
C2632 C 0.70914 0.81366 0.59906 0.0
C2633 C 0.7177 0.79319 0.60212 0.0
C2634 C 0.70605 0.7883 0.60948 0.0
C2635 C 0.69596 0.79616 0.61207 0.0
C2636 C 0.6975 0.80876 0.60722 0.0
C2637 C 0.70447 0.7749 0.61211 0.0
C2638 C 0.69716 0.76906 0.58376 0.0
C2639 C 0.71133 0.7678 0.63909 0.0
C2640 C 0.71849 0.77352 0.67144 0.0
C2641 C 0.71295 0.78194 0.69722 0.0
C2642 C 0.71972 0.78736 0.72749 0.0
C2643 C 0.73206 0.7844 0.73246 0.0
C2644 C 0.73763 0.77599 0.70718 0.0
C2645 C 0.73089 0.77054 0.67682 0.0
H2646 H 0.73729 0.78862 0.75592 0.0
H2647 H 0.67151 0.73617 0.46141 0.0
H2648 H 0.54883 0.45243 0.85516 0.0
H2649 H 0.5266 0.45134 0.86299 0.0
H2650 H 0.52323 0.488 0.81728 0.0
H2651 H 0.54535 0.48923 0.80973 0.0
H2652 H 0.50898 0.48464 0.88153 0.0
H2653 H 0.51744 0.46343 0.75935 0.0
H2654 H 0.52722 0.4477 0.71791 0.0
H2655 H 0.51101 0.41944 0.7887 0.0
H2656 H 0.50126 0.43503 0.83091 0.0
H2657 H 0.44826 0.48955 0.81601 0.0
H2658 H 0.47041 0.48829 0.82221 0.0
H2659 H 0.46729 0.45139 0.86609 0.0
H2660 H 0.44502 0.45249 0.85941 0.0
H2661 H 0.48481 0.45316 0.81056 0.0
H2662 H 0.4745 0.47461 0.92853 0.0
H2663 H 0.46453 0.4905 0.96883 0.0
H2664 H 0.48409 0.51841 0.90587 0.0
H2665 H 0.49406 0.50269 0.86479 0.0
C2666 C 0.54337 0.46027 0.84692 0.0
C2667 C 0.54888 0.4709 0.8317 0.0
C2668 C 0.53066 0.45962 0.8513 0.0
C2669 C 0.52327 0.46956 0.84043 0.0
C2670 C 0.52877 0.48024 0.8259 0.0
C2671 C 0.54143 0.4809 0.82147 0.0
C2672 C 0.50977 0.46889 0.8435 0.0
C2673 C 0.50368 0.47781 0.86584 0.0
C2674 C 0.5029 0.45976 0.82393 0.0
C2675 C 0.50875 0.45039 0.79856 0.0
C2676 C 0.51605 0.45386 0.76629 0.0
C2677 C 0.52157 0.44497 0.74262 0.0
C2678 C 0.51977 0.43258 0.75075 0.0
C2679 C 0.51242 0.42905 0.7825 0.0
C2680 C 0.50689 0.4379 0.80629 0.0
C2681 C 0.45224 0.48117 0.82721 0.0
C2682 C 0.44484 0.47113 0.83728 0.0
C2683 C 0.46492 0.48049 0.83091 0.0
C2684 C 0.47049 0.4698 0.8451 0.0
C2685 C 0.46316 0.45974 0.85522 0.0
C2686 C 0.45044 0.46041 0.85147 0.0
C2687 C 0.484 0.46907 0.84796 0.0
C2688 C 0.4901 0.45989 0.82676 0.0
C2689 C 0.49089 0.47798 0.86855 0.0
C2690 C 0.48497 0.48747 0.89339 0.0
C2691 C 0.47662 0.48414 0.92309 0.0
C2692 C 0.47097 0.49311 0.9461 0.0
C2693 C 0.47366 0.50546 0.93987 0.0
C2694 C 0.48202 0.50884 0.91066 0.0
C2695 C 0.48768 0.4999 0.88754 0.0
H2696 H 0.46927 0.51239 0.95771 0.0
H2697 H 0.52405 0.42571 0.73238 0.0
H2698 H 0.9484 0.56698 0.34832 0.0
H2699 H 0.97063 0.56882 0.35493 0.0
H2700 H 0.97481 0.53124 0.3189 0.0
H2701 H 0.95271 0.52926 0.31251 0.0
H2702 H 0.98926 0.5367 0.38161 0.0
H2703 H 0.97947 0.55419 0.25423 0.0
H2704 H 0.96901 0.56849 0.20917 0.0
H2705 H 0.98503 0.59894 0.27022 0.0
H2706 H 0.99545 0.58481 0.316 0.0
H2707 H 0.04863 0.53039 0.30648 0.0
H2708 H 0.02657 0.53205 0.31519 0.0
H2709 H 0.03071 0.56926 0.35503 0.0
H2710 H 0.05291 0.56771 0.34639 0.0
H2711 H 0.01221 0.56639 0.29918 0.0
H2712 H 0.02418 0.54844 0.4213 0.0
H2713 H 0.03488 0.53387 0.46477 0.0
H2714 H 0.01494 0.50409 0.41299 0.0
H2715 H 0.00424 0.51847 0.36876 0.0
C2716 C 0.95405 0.55909 0.342 0.0
C2717 C 0.94877 0.54798 0.32972 0.0
C2718 C 0.96675 0.56018 0.34568 0.0
C2719 C 0.97436 0.55019 0.33714 0.0
C2720 C 0.9691 0.53905 0.3257 0.0
C2721 C 0.95645 0.53796 0.32189 0.0
C2722 C 0.98784 0.55129 0.33915 0.0
C2723 C 0.99429 0.54315 0.36348 0.0
C2724 C 0.99436 0.55996 0.31634 0.0
C2725 C 0.98811 0.56845 0.28884 0.0
C2726 C 0.98067 0.56394 0.25826 0.0
C2727 C 0.97477 0.57201 0.23255 0.0
C2728 C 0.97632 0.58462 0.23692 0.0
C2729 C 0.98381 0.58918 0.26693 0.0
C2730 C 0.98972 0.58114 0.29276 0.0
C2731 C 0.04489 0.53893 0.31721 0.0
C2732 C 0.05255 0.54891 0.32585 0.0
C2733 C 0.03228 0.53984 0.32232 0.0
C2734 C 0.02704 0.55073 0.33615 0.0
C2735 C 0.0346 0.56077 0.34449 0.0
C2736 C 0.04728 0.55984 0.33964 0.0
C2737 C 0.01362 0.55159 0.34089 0.0
C2738 C 0.00718 0.56009 0.31786 0.0
C2739 C 0.0071 0.54323 0.36482 0.0
C2740 C 0.01347 0.53454 0.39151 0.0
C2741 C 0.02214 0.53878 0.41896 0.0
C2742 C 0.02819 0.53055 0.44378 0.0
C2743 C 0.0256 0.51806 0.44159 0.0
C2744 C 0.01693 0.51377 0.41464 0.0
C2745 C 0.01086 0.52196 0.38972 0.0
H2746 H 0.0303 0.51171 0.46083 0.0
H2747 H 0.97175 0.59085 0.21697 0.0
H2748 H 0.95121 0.49013 0.83062 0.0
H2749 H 0.9732 0.48862 0.81995 0.0
H2750 H 0.96961 0.45005 0.79622 0.0
H2751 H 0.9475 0.45144 0.80694 0.0
H2752 H 0.98804 0.45519 0.84897 0.0
H2753 H 0.97561 0.46854 0.72171 0.0
H2754 H 0.96466 0.48129 0.67325 0.0
H2755 H 0.98454 0.51293 0.7122 0.0
H2756 H 0.99548 0.5004 0.76138 0.0
H2757 H 0.0514 0.45276 0.80091 0.0
H2758 H 0.02924 0.45107 0.79245 0.0
H2759 H 0.02533 0.48954 0.81729 0.0
H2760 H 0.04743 0.49136 0.82562 0.0
H2761 H 0.01059 0.48204 0.75589 0.0
H2762 H 0.02065 0.46916 0.88874 0.0
H2763 H 0.03129 0.4566 0.93849 0.0
H2764 H 0.01557 0.42407 0.88884 0.0
H2765 H 0.00496 0.43644 0.83842 0.0
C2766 C 0.95506 0.48132 0.82296 0.0
C2767 C 0.94759 0.4709 0.81967 0.0
C2768 C 0.96763 0.4805 0.81664 0.0
C2769 C 0.973 0.46925 0.8069 0.0
C2770 C 0.96561 0.45882 0.80354 0.0
C2771 C 0.95299 0.45965 0.8096 0.0
C2772 C 0.98642 0.46841 0.80211 0.0
C2773 C 0.99297 0.46085 0.828 0.0
C2774 C 0.99282 0.47595 0.77517 0.0
C2775 C 0.98631 0.48353 0.74546 0.0
C2776 C 0.97759 0.47823 0.72017 0.0
C2777 C 0.97139 0.48542 0.69253 0.0
C2778 C 0.97389 0.49792 0.68969 0.0
C2779 C 0.98261 0.50324 0.71444 0.0
C2780 C 0.98883 0.4961 0.74218 0.0
C2781 C 0.04584 0.46089 0.8042 0.0
C2782 C 0.05118 0.47218 0.81428 0.0
C2783 C 0.03319 0.45989 0.79942 0.0
C2784 C 0.02567 0.47015 0.80462 0.0
C2785 C 0.031 0.48151 0.81316 0.0
C2786 C 0.04362 0.48251 0.8181 0.0
C2787 C 0.01219 0.46901 0.80328 0.0
C2788 C 0.00564 0.47621 0.77631 0.0
C2789 C 0.00578 0.46114 0.82923 0.0
C2790 C 0.01214 0.45371 0.85952 0.0
C2791 C 0.01955 0.45932 0.88822 0.0
C2792 C 0.02556 0.45224 0.91658 0.0
C2793 C 0.02414 0.43954 0.91675 0.0
C2794 C 0.01668 0.4339 0.88862 0.0
C2795 C 0.01067 0.44094 0.86015 0.0
H2796 H 0.0288 0.43407 0.93874 0.0
H2797 H 0.96908 0.50347 0.66827 0.0
H2798 H 0.45066 0.56487 0.30321 0.0
H2799 H 0.47276 0.56661 0.29245 0.0
H2800 H 0.47815 0.5317 0.34907 0.0
H2801 H 0.45621 0.52978 0.35941 0.0
H2802 H 0.49179 0.56716 0.34403 0.0
H2803 H 0.50043 0.51614 0.30482 0.0
H2804 H 0.48973 0.49917 0.27152 0.0
H2805 H 0.46859 0.52488 0.20428 0.0
H2806 H 0.47928 0.54199 0.23675 0.0
H2807 H 0.55112 0.52977 0.35073 0.0
H2808 H 0.52908 0.53156 0.3432 0.0
H2809 H 0.53358 0.56682 0.28789 0.0
H2810 H 0.55579 0.56521 0.296 0.0
H2811 H 0.51479 0.5335 0.27987 0.0
H2812 H 0.50826 0.58441 0.31309 0.0
H2813 H 0.51865 0.60134 0.3477 0.0
H2814 H 0.53518 0.57575 0.42772 0.0
H2815 H 0.52477 0.55871 0.39388 0.0
C2816 C 0.45656 0.55756 0.31332 0.0
C2817 C 0.45166 0.54714 0.33195 0.0
C2818 C 0.46917 0.55858 0.30718 0.0
C2819 C 0.47705 0.5492 0.31936 0.0
C2820 C 0.4722 0.53893 0.33866 0.0
C2821 C 0.45964 0.53788 0.34472 0.0
C2822 C 0.49041 0.55008 0.3127 0.0
C2823 C 0.49681 0.55994 0.32925 0.0
C2824 C 0.49694 0.5406 0.29368 0.0
C2825 C 0.49061 0.53035 0.27343 0.0
C2826 C 0.49355 0.51817 0.28275 0.0
C2827 C 0.48748 0.50853 0.26406 0.0
C2828 C 0.47847 0.51095 0.23587 0.0
C2829 C 0.47554 0.52302 0.22621 0.0
C2830 C 0.4816 0.53269 0.24479 0.0
C2831 C 0.54747 0.53792 0.33683 0.0
C2832 C 0.55524 0.54738 0.32412 0.0
C2833 C 0.53485 0.5389 0.33243 0.0
C2834 C 0.52968 0.54935 0.31524 0.0
C2835 C 0.53738 0.55873 0.30169 0.0
C2836 C 0.55007 0.55778 0.30624 0.0
C2837 C 0.51619 0.55034 0.31251 0.0
C2838 C 0.50975 0.54084 0.294 0.0
C2839 C 0.50964 0.56014 0.32975 0.0
C2840 C 0.51587 0.57029 0.35061 0.0
C2841 C 0.5141 0.58241 0.33811 0.0
C2842 C 0.51999 0.59202 0.35759 0.0
C2843 C 0.52761 0.58962 0.38979 0.0
C2844 C 0.52932 0.5776 0.40267 0.0
C2845 C 0.52344 0.56796 0.38332 0.0
H2846 H 0.53217 0.59707 0.40481 0.0
H2847 H 0.47377 0.50347 0.22146 0.0
H2848 H 0.2469 0.1563 0.16275 0.0
H2849 H 0.2539 0.15056 0.22793 0.0
H2850 H 0.21653 0.14681 0.26702 0.0
H2851 H 0.20932 0.15288 0.20122 0.0
H2852 H 0.22929 0.16137 0.31415 0.0
H2853 H 0.23561 0.12165 0.26149 0.0
H2854 H 0.2425 0.10623 0.21335 0.0
H2855 H 0.27976 0.11744 0.23045 0.0
H2856 H 0.27309 0.13306 0.27826 0.0
H2857 H 0.25123 0.14885 0.50255 0.0
H2858 H 0.24194 0.14401 0.43919 0.0
H2859 H 0.27594 0.15225 0.3803 0.0
H2860 H 0.28545 0.157 0.4442 0.0
H2861 H 0.26274 0.13235 0.34633 0.0
H2862 H 0.25608 0.17412 0.38782 0.0
H2863 H 0.24963 0.19019 0.4344 0.0
H2864 H 0.21325 0.17541 0.43599 0.0
H2865 H 0.21954 0.15914 0.38981 0.0
C2866 C 0.24011 0.15413 0.18493 0.0
C2867 C 0.22753 0.1552 0.17694 0.0
C2868 C 0.24416 0.15068 0.22215 0.0
C2869 C 0.23575 0.14809 0.25216 0.0
C2870 C 0.22316 0.14869 0.24404 0.0
C2871 C 0.21906 0.15218 0.20656 0.0
C2872 C 0.24026 0.14638 0.29289 0.0
C2873 C 0.23635 0.15477 0.32147 0.0
C2874 C 0.24975 0.13803 0.302 0.0
C2875 C 0.25383 0.12858 0.2734 0.0
C2876 C 0.24527 0.12089 0.25482 0.0
C2877 C 0.24914 0.1121 0.2276 0.0
C2878 C 0.26156 0.11087 0.21882 0.0
C2879 C 0.27014 0.1184 0.2373 0.0
C2880 C 0.26632 0.12721 0.26452 0.0
C2881 C 0.25681 0.14949 0.47621 0.0
C2882 C 0.269 0.15356 0.47812 0.0
C2883 C 0.25149 0.14665 0.4401 0.0
C2884 C 0.25821 0.14798 0.40522 0.0
C2885 C 0.27063 0.1512 0.40709 0.0
C2886 C 0.27603 0.15396 0.44346 0.0
C2887 C 0.25185 0.14742 0.36691 0.0
C2888 C 0.25547 0.1387 0.33902 0.0
C2889 C 0.24213 0.15551 0.35817 0.0
C2890 C 0.23832 0.16533 0.38576 0.0
C2891 C 0.24673 0.17424 0.39837 0.0
C2892 C 0.2431 0.18339 0.42465 0.0
C2893 C 0.23105 0.1838 0.43825 0.0
C2894 C 0.22259 0.17507 0.4255 0.0
C2895 C 0.22618 0.16588 0.39926 0.0
H2896 H 0.22826 0.1909 0.45859 0.0
H2897 H 0.26453 0.10406 0.19773 0.0
H2898 H 0.11359 0.0028 0.41445 0.0
H2899 H 0.11594 0.0107 0.48131 0.0
H2900 H 0.10513 0.9757 0.52863 0.0
H2901 H 0.10271 0.9677 0.46157 0.0
H2902 H 0.09073 0.99463 0.55389 0.0
H2903 H 0.1335 0.98601 0.54425 0.0
H2904 H 0.154 0.98642 0.51403 0.0
H2905 H 0.15447 0.02561 0.52102 0.0
H2906 H 0.13389 0.02546 0.55077 0.0
H2907 H 0.09698 0.00718 0.75373 0.0
H2908 H 0.10151 -0.00106 0.68885 0.0
H2909 H 0.10827 0.03529 0.64467 0.0
H2910 H 0.10369 0.04379 0.7102 0.0
H2911 H 0.12543 0.01618 0.61786 0.0
H2912 H 0.08259 0.02501 0.62388 0.0
H2913 H 0.06199 0.02495 0.6534 0.0
H2914 H 0.06157 0.9857 0.65129 0.0
H2915 H 0.08227 0.98552 0.62232 0.0
C2916 C 0.11197 0.99669 0.43907 0.0
C2917 C 0.10781 0.98467 0.43281 0.0
C2918 C 0.1134 0.0012 0.47726 0.0
C2919 C 0.11069 0.99379 0.50983 0.0
C2920 C 0.10727 0.98155 0.50375 0.0
C2921 C 0.10593 0.97699 0.46548 0.0
C2922 C 0.10984 -0.00073 0.54958 0.0
C2923 C 0.09839 -0.00087 0.56818 0.0
C2924 C 0.11971 0.0056 0.56732 0.0
C2925 C 0.13209 0.00573 0.54941 0.0
C2926 C 0.13792 0.99473 0.53901 0.0
C2927 C 0.14957 0.99491 0.52204 0.0
C2928 C 0.15552 0.00604 0.51552 0.0
C2929 C 0.14985 0.017 0.52605 0.0
C2930 C 0.13819 0.01687 0.54302 0.0
C2931 C 0.09952 0.01349 0.73047 0.0
C2932 C 0.09983 0.02619 0.73708 0.0
C2933 C 0.10213 0.00872 0.6934 0.0
C2934 C 0.10511 0.01652 0.66208 0.0
C2935 C 0.10598 0.02915 0.66868 0.0
C2936 C 0.1033 0.03398 0.70598 0.0
C2937 C 0.10639 0.01135 0.62208 0.0
C2938 C 0.11783 0.01162 0.60345 0.0
C2939 C 0.0965 0.0052 0.60397 0.0
C2940 C 0.08403 0.00525 0.62131 0.0
C2941 C 0.07815 0.01636 0.63005 0.0
C2942 C 0.06645 0.01637 0.64662 0.0
C2943 C 0.06048 0.00533 0.65431 0.0
C2944 C 0.06621 0.99425 0.64536 0.0
C2945 C 0.07792 0.99419 0.62884 0.0
H2946 H 0.05142 0.00535 0.66712 0.0
H2947 H 0.16454 0.00616 0.50238 0.0
H2948 H 0.20666 0.86282 0.9417 0.0
H2949 H 0.2135 0.8667 0.87396 0.0
H2950 H 0.25041 0.87192 0.9157 0.0
H2951 H 0.24368 0.86831 0.98312 0.0
H2952 H 0.2456 0.88706 0.85491 0.0
H2953 H 0.24139 0.84421 0.88547 0.0
H2954 H 0.23045 0.82574 0.90777 0.0
H2955 H 0.20429 0.83017 0.81429 0.0
H2956 H 0.215 0.84878 0.79176 0.0
H2957 H 0.28164 0.86464 0.69228 0.0
H2958 H 0.27202 0.86906 0.75613 0.0
H2959 H 0.23637 0.86627 0.70243 0.0
H2960 H 0.24577 0.86191 0.63898 0.0
H2961 H 0.23917 0.85135 0.76701 0.0
H2962 H 0.24602 0.89331 0.7319 0.0
H2963 H 0.25826 0.91106 0.71062 0.0
H2964 H 0.28098 0.9075 0.81336 0.0
H2965 H 0.26898 0.8896 0.835 0.0
C2966 C 0.21617 0.86506 0.93651 0.0
C2967 C 0.22467 0.86503 0.96764 0.0
C2968 C 0.22007 0.86725 0.89784 0.0
C2969 C 0.2325 0.86938 0.88986 0.0
C2970 C 0.2408 0.87026 0.92122 0.0
C2971 C 0.23693 0.86808 0.95973 0.0
C2972 C 0.23719 0.86933 0.84892 0.0
C2973 C 0.24422 0.87926 0.83564 0.0
C2974 C 0.23534 0.85916 0.82385 0.0
C2975 C 0.2289 0.84797 0.83725 0.0
C2976 C 0.23325 0.8413 0.86988 0.0
C2977 C 0.2271 0.8308 0.88252 0.0
C2978 C 0.21666 0.82681 0.86254 0.0
C2979 C 0.21236 0.83329 0.82979 0.0
C2980 C 0.21847 0.84382 0.81707 0.0
C2981 C 0.27176 0.86515 0.69399 0.0
C2982 C 0.26448 0.86279 0.66064 0.0
C2983 C 0.26629 0.86772 0.7304 0.0
C2984 C 0.25349 0.86798 0.73383 0.0
C2985 C 0.24625 0.86608 0.70032 0.0
C2986 C 0.25168 0.86357 0.66408 0.0
C2987 C 0.24757 0.86909 0.77285 0.0
C2988 C 0.24038 0.85927 0.78592 0.0
C2989 C 0.24945 0.87927 0.79778 0.0
C2990 C 0.25666 0.89004 0.78489 0.0
C2991 C 0.25369 0.89624 0.74979 0.0
C2992 C 0.26057 0.90635 0.7377 0.0
C2993 C 0.27041 0.91039 0.76057 0.0
C2994 C 0.27336 0.90435 0.79565 0.0
C2995 C 0.26652 0.89423 0.80787 0.0
H2996 H 0.27572 0.91821 0.75116 0.0
H2997 H 0.21191 0.81867 0.87236 0.0
H2998 H 0.40166 0.00895 0.92471 0.0
H2999 H 0.39501 0.00025 0.98676 0.0
H3000 H 0.37913 0.03483 0.0203 0.0
H3001 H 0.38603 0.04383 0.95766 0.0
H3002 H 0.39308 0.02567 0.07741 0.0
H3003 H 0.36065 0.01011 -0.00052 0.0
H3004 H 0.35093 0.0003 0.94199 0.0
H3005 H 0.3702 0.96696 0.96646 0.0
H3006 H 0.3802 0.97661 0.02376 0.0
H3007 H 0.37984 0.99758 0.25518 0.0
H3008 H 0.37378 0.00601 0.19142 0.0
H3009 H 0.39338 0.97713 0.13214 0.0
H3010 H 0.39922 0.96843 0.19625 0.0
H3011 H 0.37278 0.98522 0.08976 0.0
H3012 H 0.40833 0.00236 0.15607 0.0
H3013 H 0.41893 0.01199 0.21234 0.0
H3014 H 0.39411 0.04237 0.2076 0.0
H3015 H 0.38325 0.03282 0.15162 0.0
C3016 C 0.39668 0.01476 0.94497 0.0
C3017 C 0.3944 0.02713 0.9362 0.0
C3018 C 0.39275 0.00969 0.98037 0.0
C3019 C 0.38633 0.0168 0.00776 0.0
C3020 C 0.38396 0.02916 -0.00076 0.0
C3021 C 0.38794 0.03429 0.96359 0.0
C3022 C 0.38328 0.01147 0.04667 0.0
C3023 C 0.3883 0.01701 0.08024 0.0
C3024 C 0.37729 3e-05 0.05018 0.0
C3025 C 0.37121 0.99412 0.01592 0.0
C3026 C 0.36288 0.00071 0.9925 0.0
C3027 C 0.35731 0.99517 0.95994 0.0
C3028 C 0.35995 0.98302 0.95056 0.0
C3029 C 0.36815 0.97637 0.97378 0.0
C3030 C 0.37376 0.98186 0.00636 0.0
C3031 C 0.38254 0.99281 0.22853 0.0
C3032 C 0.39017 0.9825 0.23038 0.0
C3033 C 0.37905 0.99762 0.1922 0.0
C3034 C 0.38339 0.99235 0.15723 0.0
C3035 C 0.38999 0.98134 0.15893 0.0
C3036 C 0.39333 0.97639 0.19545 0.0
C3037 C 0.38281 -0.00068 0.11993 0.0
C3038 C 0.37719 0.99406 0.08688 0.0
C3039 C 0.3883 0.01101 0.11669 0.0
C3040 C 0.3949 0.01681 0.15004 0.0
C3041 C 0.40508 0.01105 0.16723 0.0
C3042 C 0.41114 0.0165 0.19903 0.0
C3043 C 0.40717 0.02777 0.21362 0.0
C3044 C 0.39716 0.03363 0.19633 0.0
C3045 C 0.39105 0.02821 0.16458 0.0
H3046 H 0.41187 0.03197 0.23824 0.0
H3047 H 0.35563 0.97875 0.92533 0.0
H3048 H 0.75062 0.86922 0.0111 0.0
H3049 H 0.74195 0.87465 0.94729 0.0
H3050 H 0.77655 0.86723 0.89118 0.0
H3051 H 0.78544 0.86184 0.95548 0.0
H3052 H 0.76367 0.88757 0.85825 0.0
H3053 H 0.75663 0.84532 0.89298 0.0
H3054 H 0.74977 0.82859 0.93647 0.0
H3055 H 0.71334 0.84324 0.93642 0.0
H3056 H 0.72005 0.86018 0.89336 0.0
H3057 H 0.74707 0.86866 0.66757 0.0
H3058 H 0.75455 0.87276 0.73356 0.0
H3059 H 0.71746 0.87453 0.77671 0.0
H3060 H 0.70982 0.86998 0.71027 0.0
H3061 H 0.7303 0.8593 0.81894 0.0
H3062 H 0.73696 0.90017 0.77567 0.0
H3063 H 0.74406 0.91657 0.73128 0.0
H3064 H 0.78117 0.90456 0.74578 0.0
H3065 H 0.77428 0.88798 0.78982 0.0
C3066 C 0.75648 0.8689 0.98533 0.0
C3067 C 0.76867 0.86488 0.98819 0.0
C3068 C 0.7515 0.87205 0.94892 0.0
C3069 C 0.75856 0.87113 0.91457 0.0
C3070 C 0.77097 0.86796 0.91748 0.0
C3071 C 0.77601 0.86485 0.95414 0.0
C3072 C 0.75259 0.87222 0.87557 0.0
C3073 C 0.75643 0.88137 0.84937 0.0
C3074 C 0.74293 0.86431 0.86466 0.0
C3075 C 0.73887 0.85409 0.89033 0.0
C3076 C 0.74718 0.84503 0.90251 0.0
C3077 C 0.74332 0.8355 0.92704 0.0
C3078 C 0.73113 0.83487 0.9393 0.0
C3079 C 0.72278 0.84376 0.92696 0.0
C3080 C 0.72661 0.85332 0.90248 0.0
C3081 C 0.74044 0.87011 0.69084 0.0
C3082 C 0.72782 0.86883 0.6837 0.0
C3083 C 0.74476 0.8726 0.72863 0.0
C3084 C 0.73659 0.87408 0.76011 0.0
C3085 C 0.72394 0.87345 0.75277 0.0
C3086 C 0.71958 0.87087 0.71482 0.0
C3087 C 0.74136 0.87466 0.80104 0.0
C3088 C 0.73736 0.86572 0.82777 0.0
C3089 C 0.75087 0.88276 0.81222 0.0
C3090 C 0.75508 0.89278 0.78592 0.0
C3091 C 0.74662 0.90097 0.7692 0.0
C3092 C 0.75062 0.91031 0.74412 0.0
C3093 C 0.76306 0.91159 0.73567 0.0
C3094 C 0.77153 0.90356 0.75236 0.0
C3095 C 0.76759 0.8942 0.77744 0.0
H3096 H 0.76613 0.91882 0.71623 0.0
H3097 H 0.72816 0.82749 0.95828 0.0
H3098 H 0.89642 0.04382 0.69691 0.0
H3099 H 0.89304 0.03415 0.63249 0.0
H3100 H 0.88769 -0.00069 0.68973 0.0
H3101 H 0.89121 0.00877 0.75364 0.0
H3102 H 0.90438 0.99779 0.63305 0.0
H3103 H 0.86388 0.01406 0.64588 0.0
H3104 H 0.84845 0.03009 0.65737 0.0
H3105 H 0.86164 0.05001 0.55676 0.0
H3106 H 0.87726 0.03417 0.54496 0.0
H3107 H 0.89534 0.96791 0.44949 0.0
H3108 H 0.8903 0.97507 0.51619 0.0
H3109 H 0.89421 0.01246 0.47744 0.0
H3110 H 0.89891 0.00551 0.41129 0.0
H3111 H 0.87576 0.01073 0.52741 0.0
H3112 H 0.91795 0.99707 0.52145 0.0
H3113 H 0.93435 0.98202 0.50978 0.0
H3114 H 0.9188 0.95827 0.59742 0.0
H3115 H 0.90223 0.97314 0.60927 0.0
C3116 C 0.89435 0.03415 0.69571 0.0
C3117 C 0.89425 0.02704 0.73024 0.0
C3118 C 0.89237 0.02864 0.65898 0.0
C3119 C 0.8901 0.01601 0.65646 0.0
C3120 C 0.88948 0.00905 0.69106 0.0
C3121 C 0.89153 0.01449 0.72754 0.0
C3122 C 0.88947 0.0098 0.61778 0.0
C3123 C 0.89794 0.00045 0.61023 0.0
C3124 C 0.88125 0.01345 0.58785 0.0
C3125 C 0.87181 0.02296 0.59472 0.0
C3126 C 0.86355 0.0219 0.62637 0.0
C3127 C 0.85476 0.03095 0.63291 0.0
C3128 C 0.85408 0.04108 0.60786 0.0
C3129 C 0.86218 0.04216 0.57615 0.0
C3130 C 0.87099 0.03314 0.56949 0.0
C3131 C 0.89497 0.97765 0.45516 0.0
C3132 C 0.8977 0.98612 0.42523 0.0
C3133 C 0.8921 0.98172 0.49321 0.0
C3134 C 0.89203 0.9943 0.50178 0.0
C3135 C 0.89419 0.00273 0.47148 0.0
C3136 C 0.89699 0.9987 0.43367 0.0
C3137 C 0.89076 0.99885 0.54265 0.0
C3138 C 0.882 0.00791 0.55059 0.0
C3139 C 0.89881 0.99506 0.57292 0.0
C3140 C 0.90878 0.98613 0.56588 0.0
C3141 C 0.91798 0.9886 0.53801 0.0
C3142 C 0.92732 0.98011 0.5314 0.0
C3143 C 0.92759 0.96918 0.55275 0.0
C3144 C 0.91856 0.96673 0.58084 0.0
C3145 C 0.9092 0.97518 0.58753 0.0
H3146 H 0.93483 0.96262 0.5476 0.0
H3147 H 0.84727 0.04807 0.61298 0.0
H3148 H 0.78945 0.162 0.21046 0.0
H3149 H 0.78121 0.15806 0.27665 0.0
H3150 H 0.74948 0.14091 0.22495 0.0
H3151 H 0.75752 0.145 0.1592 0.0
H3152 H 0.74341 0.15992 0.26999 0.0
H3153 H 0.76872 0.12455 0.28248 0.0
H3154 H 0.78789 0.11272 0.28068 0.0
H3155 H 0.80316 0.1357 0.37084 0.0
H3156 H 0.78414 0.14779 0.37279 0.0
H3157 H 0.71413 0.15214 0.4557 0.0
H3158 H 0.72344 0.14721 0.39187 0.0
H3159 H 0.75743 0.16336 0.43022 0.0
H3160 H 0.74836 0.16813 0.49385 0.0
H3161 H 0.76152 0.1423 0.39155 0.0
H3162 H 0.73793 0.17917 0.37218 0.0
H3163 H 0.71926 0.1918 0.37357 0.0
H3164 H 0.70139 0.16658 0.29539 0.0
H3165 H 0.71993 0.15372 0.29395 0.0
C3166 C 0.78092 0.15706 0.2134 0.0
C3167 C 0.774 0.15399 0.17994 0.0
C3168 C 0.77623 0.15478 0.25113 0.0
C3169 C 0.76469 0.14928 0.25557 0.0
C3170 C 0.75834 0.14525 0.2221 0.0
C3171 C 0.76294 0.14761 0.18461 0.0
C3172 C 0.75837 0.14944 0.29409 0.0
C3173 C 0.74725 0.15581 0.29641 0.0
C3174 C 0.76356 0.1444 0.32863 0.0
C3175 C 0.77502 0.13715 0.32754 0.0
C3176 C 0.7762 0.12716 0.30168 0.0
C3177 C 0.78703 0.12039 0.30069 0.0
C3178 C 0.79674 0.12347 0.32557 0.0
C3179 C 0.79563 0.13333 0.35156 0.0
C3180 C 0.78482 0.14013 0.35266 0.0
C3181 C 0.72358 0.15465 0.45047 0.0
C3182 C 0.73047 0.16059 0.47975 0.0
C3183 C 0.72888 0.15179 0.4141 0.0
C3184 C 0.74111 0.15495 0.40641 0.0
C3185 C 0.74801 0.16076 0.4357 0.0
C3186 C 0.74276 0.16357 0.47197 0.0
C3187 C 0.74664 0.1528 0.36725 0.0
C3188 C 0.75761 0.14617 0.36489 0.0
C3189 C 0.74139 0.15768 0.33256 0.0
C3190 C 0.73025 0.16541 0.33335 0.0
C3191 C 0.72999 0.17627 0.35555 0.0
C3192 C 0.71943 0.18348 0.3563 0.0
C3193 C 0.70913 0.17997 0.33469 0.0
C3194 C 0.70937 0.16927 0.31219 0.0
C3195 C 0.71989 0.16202 0.31138 0.0
H3196 H 0.70097 0.18556 0.3353 0.0
H3197 H 0.80512 0.11822 0.32476 0.0
H3198 H 0.6198 -0.00028 0.25174 0.0
H3199 H 0.62429 0.00907 0.18787 0.0
H3200 H 0.60379 0.98058 0.12956 0.0
H3201 H 0.5997 0.97092 0.19347 0.0
H3202 H 0.62217 0.98858 0.08336 0.0
H3203 H 0.58981 0.00691 0.16241 0.0
H3204 H 0.58155 0.01685 0.22207 0.0
H3205 H 0.60731 0.04622 0.20896 0.0
H3206 H 0.61582 0.03635 0.14946 0.0
H3207 H 0.58691 0.01219 0.93348 0.0
H3208 H 0.59508 0.00429 -0.00517 0.0
H3209 H 0.61549 0.03761 0.01226 0.0
H3210 H 0.60725 0.04577 0.95001 0.0
H3211 H 0.60289 0.02966 0.07898 0.0
H3212 H 0.63108 0.01277 0.98746 0.0
H3213 H 0.63752 0.00249 0.92615 0.0
H3214 H 0.6181 0.97008 0.9607 0.0
H3215 H 0.61139 0.98021 0.02195 0.0
C3216 C 0.61658 0.99526 0.22513 0.0
C3217 C 0.60925 0.98473 0.22731 0.0
C3218 C 0.61913 0.00062 0.18875 0.0
C3219 C 0.61408 0.99571 0.15419 0.0
C3220 C 0.60772 0.98455 0.15599 0.0
C3221 C 0.60537 0.97904 0.19242 0.0
C3222 C 0.61387 0.00297 0.11737 0.0
C3223 C 0.61801 0.99758 0.08233 0.0
C3224 C 0.60871 0.01486 0.1163 0.0
C3225 C 0.60355 0.02083 0.15185 0.0
C3226 C 0.59376 0.01545 0.17242 0.0
C3227 C 0.58903 0.02107 0.20617 0.0
C3228 C 0.59393 0.03214 0.21937 0.0
C3229 C 0.60354 0.03763 0.19876 0.0
C3230 C 0.60832 0.03203 0.16503 0.0
C3231 C 0.59315 0.01791 0.95012 0.0
C3232 C 0.5965 0.0296 0.93665 0.0
C3233 C 0.59788 0.0133 0.98511 0.0
C3234 C 0.60612 0.02024 0.00744 0.0
C3235 C 0.60926 0.03207 -0.00503 0.0
C3236 C 0.60451 0.03672 0.95961 0.0
C3237 C 0.61081 0.0151 0.04479 0.0
C3238 C 0.60747 0.02086 0.08004 0.0
C3239 C 0.61655 0.0035 0.04592 0.0
C3240 C 0.62071 0.99728 0.00934 0.0
C3241 C 0.62813 0.00347 0.98192 0.0
C3242 C 0.63183 0.99766 0.94717 0.0
C3243 C 0.62822 0.98564 0.93953 0.0
C3244 C 0.62091 0.97939 0.96668 0.0
C3245 C 0.61717 0.98515 0.00147 0.0
H3246 H 0.63109 0.98117 0.91259 0.0
H3247 H 0.59025 0.03648 0.24551 0.0
H3248 H 0.75379 0.64953 0.98984 0.0
H3249 H 0.74746 0.6458 0.92239 0.0
H3250 H 0.78478 0.64981 0.88305 0.0
H3251 H 0.79124 0.65387 0.9512 0.0
H3252 H 0.7698 0.66435 0.8434 0.0
H3253 H 0.76973 0.62209 0.87542 0.0
H3254 H 0.76538 0.60366 0.91488 0.0
H3255 H 0.72682 0.60973 0.90151 0.0
H3256 H 0.73092 0.62831 0.86245 0.0
H3257 H 0.75095 0.65591 0.64853 0.0
H3258 H 0.76046 0.65064 0.71111 0.0
H3259 H 0.72525 0.65161 0.76834 0.0
H3260 H 0.71551 0.65688 0.70524 0.0
H3261 H 0.74124 0.63238 0.79521 0.0
H3262 H 0.74145 0.67601 0.7731 0.0
H3263 H 0.74549 0.69477 0.73488 0.0
H3264 H 0.78377 0.6861 0.73143 0.0
H3265 H 0.77992 0.66718 0.76916 0.0
C3266 C 0.76073 0.64947 0.96704 0.0
C3267 C 0.77301 0.65217 0.97578 0.0
C3268 C 0.75709 0.64717 0.92845 0.0
C3269 C 0.76566 0.64739 0.89774 0.0
C3270 C 0.77805 0.64953 0.90647 0.0
C3271 C 0.78172 0.65185 0.94532 0.0
C3272 C 0.76129 0.64704 0.85646 0.0
C3273 C 0.76384 0.65718 0.83251 0.0
C3274 C 0.75318 0.63786 0.84277 0.0
C3275 C 0.75065 0.62665 0.86612 0.0
C3276 C 0.76032 0.61955 0.8811 0.0
C3277 C 0.7579 0.60906 0.90338 0.0
C3278 C 0.74583 0.60553 0.91074 0.0
C3279 C 0.73616 0.61248 0.89578 0.0
C3280 C 0.73853 0.62297 0.8735 0.0
C3281 C 0.74516 0.65489 0.67425 0.0
C3282 C 0.73248 0.65704 0.67212 0.0
C3283 C 0.75063 0.65182 0.70994 0.0
C3284 C 0.74357 0.65091 0.74424 0.0
C3285 C 0.73082 0.6523 0.74199 0.0
C3286 C 0.72529 0.65535 0.70606 0.0
C3287 C 0.7497 0.64972 0.7828 0.0
C3288 C 0.74742 0.63937 0.80605 0.0
C3289 C 0.75804 0.65871 0.79607 0.0
C3290 C 0.76038 0.67011 0.77353 0.0
C3291 C 0.75072 0.67805 0.76388 0.0
C3292 C 0.75297 0.68872 0.74237 0.0
C3293 C 0.76488 0.69161 0.73062 0.0
C3294 C 0.77455 0.68384 0.74048 0.0
C3295 C 0.77234 0.67314 0.76194 0.0
H3296 H 0.76661 0.69988 0.71398 0.0
H3297 H 0.74398 0.59741 0.928 0.0
H3298 H 0.60885 0.50909 0.24915 0.0
H3299 H 0.61192 0.50164 0.18236 0.0
H3300 H 0.6124 0.53873 0.13895 0.0
H3301 H 0.60901 0.54632 0.20604 0.0
H3302 H 0.59639 0.52526 0.09995 0.0
H3303 H 0.63827 0.52041 0.13635 0.0
H3304 H 0.65556 0.51382 0.17791 0.0
H3305 H 0.64488 0.47631 0.16342 0.0
H3306 H 0.62741 0.48268 0.12221 0.0
H3307 H 0.60601 0.50779 0.90452 0.0
H3308 H 0.61081 0.51602 0.96941 0.0
H3309 H 0.60625 0.48024 0.02086 0.0
H3310 H 0.60149 0.4718 0.95551 0.0
H3311 H 0.62585 0.49383 0.05398 0.0
H3312 H 0.58309 0.49873 0.02419 0.0
H3313 H 0.56546 0.50502 0.98362 0.0
H3314 H 0.57767 0.54231 0.98738 0.0
H3315 H 0.59549 0.53621 0.02751 0.0
C3316 C 0.60981 0.51571 0.22558 0.0
C3317 C 0.60855 0.52831 0.23289 0.0
C3318 C 0.61167 0.51142 0.18737 0.0
C3319 C 0.61248 0.51962 0.15569 0.0
C3320 C 0.61182 0.53224 0.16306 0.0
C3321 C 0.60991 0.53657 0.20139 0.0
C3322 C 0.61254 0.51492 0.11471 0.0
C3323 C 0.60302 0.51861 0.08964 0.0
C3324 C 0.62093 0.50592 0.10176 0.0
C3325 C 0.63147 0.50204 0.12639 0.0
C3326 C 0.63955 0.51076 0.14225 0.0
C3327 C 0.6494 0.50707 0.16571 0.0
C3328 C 0.65131 0.49466 0.17336 0.0
C3329 C 0.64339 0.48592 0.15748 0.0
C3330 C 0.63352 0.48957 0.13402 0.0
C3331 C 0.60614 0.5016 0.92947 0.0
C3332 C 0.60317 0.48916 0.92497 0.0
C3333 C 0.60892 0.50634 0.96652 0.0
C3334 C 0.60869 0.49877 -0.00013 0.0
C3335 C 0.60644 0.48621 -0.00465 0.0
C3336 C 0.60368 0.48143 0.95808 0.0
C3337 C 0.60975 0.50424 0.03958 0.0
C3338 C 0.61938 0.50063 0.06432 0.0
C3339 C 0.60144 0.5133 0.05245 0.0
C3340 C 0.5907 0.517 0.02847 0.0
C3341 C 0.58207 0.50826 0.01608 0.0
C3342 C 0.57203 0.51179 0.99322 0.0
C3343 C 0.57046 0.52405 0.98283 0.0
C3344 C 0.57891 0.53281 -0.00461 0.0
C3345 C 0.58898 0.52933 0.01821 0.0
H3346 H 0.56268 0.52677 0.96514 0.0
H3347 H 0.65893 0.49182 0.19154 0.0
H3348 H 0.71301 0.3681 0.4642 0.0
H3349 H 0.72238 0.37401 0.40114 0.0
H3350 H 0.75236 0.34931 0.42348 0.0
H3351 H 0.74324 0.34353 0.48617 0.0
H3352 H 0.76058 0.37127 0.4001 0.0
H3353 H 0.72937 0.34219 0.35873 0.0
H3354 H 0.70821 0.33458 0.35303 0.0
H3355 H 0.69763 0.36765 0.29384 0.0
H3356 H 0.71872 0.37552 0.29962 0.0
H3357 H 0.78759 0.35619 0.21678 0.0
H3358 H 0.77855 0.35882 0.28227 0.0
H3359 H 0.75072 0.38223 0.23255 0.0
H3360 H 0.75941 0.37911 0.16693 0.0
H3361 H 0.74038 0.36504 0.27067 0.0
H3362 H 0.77264 0.39263 0.30211 0.0
H3363 H 0.7939 0.39998 0.30702 0.0
H3364 H 0.80274 0.37014 0.38428 0.0
H3365 H 0.78158 0.3625 0.37942 0.0
C3366 C 0.72152 0.36384 0.45535 0.0
C3367 C 0.7274 0.35539 0.48016 0.0
C3368 C 0.72688 0.36726 0.41947 0.0
C3369 C 0.73811 0.36214 0.40784 0.0
C3370 C 0.74378 0.35348 0.43214 0.0
C3371 C 0.7385 0.35014 0.46788 0.0
C3372 C 0.74409 0.36565 0.37038 0.0
C3373 C 0.75621 0.3699 0.37169 0.0
C3374 C 0.73822 0.36424 0.33354 0.0
C3375 C 0.72557 0.3595 0.33004 0.0
C3376 C 0.7225 0.34787 0.34479 0.0
C3377 C 0.71053 0.34351 0.34149 0.0
C3378 C 0.70157 0.35064 0.32321 0.0
C3379 C 0.70458 0.36215 0.30808 0.0
C3380 C 0.71653 0.36656 0.31134 0.0
C3381 C 0.77978 0.3622 0.22016 0.0
C3382 C 0.77411 0.36738 0.18702 0.0
C3383 C 0.77462 0.36373 0.25758 0.0
C3384 C 0.76393 0.37074 0.26238 0.0
C3385 C 0.75891 0.37673 0.22955 0.0
C3386 C 0.76389 0.37497 0.19215 0.0
C3387 C 0.75707 0.3704 0.3001 0.0
C3388 C 0.74475 0.36672 0.29891 0.0
C3389 C 0.76278 0.37235 0.33702 0.0
C3390 C 0.77552 0.37695 0.34022 0.0
C3391 C 0.77913 0.38759 0.31995 0.0
C3392 C 0.79117 0.39181 0.32275 0.0
C3393 C 0.79967 0.38552 0.3459 0.0
C3394 C 0.79615 0.375 0.36636 0.0
C3395 C 0.78412 0.37073 0.36365 0.0
H3396 H 0.80899 0.38881 0.34801 0.0
H3397 H 0.69231 0.34725 0.32067 0.0
H3398 H 0.89181 0.47023 0.7031 0.0
H3399 H 0.88703 0.47775 0.63672 0.0
H3400 H 0.88831 0.51489 0.67939 0.0
H3401 H 0.8927 0.50754 0.74548 0.0
H3402 H 0.87134 0.5129 0.62384 0.0
H3403 H 0.91366 0.50156 0.64073 0.0
H3404 H 0.93067 0.48763 0.657 0.0
H3405 H 0.9191 0.46298 0.5657 0.0
H3406 H 0.90192 0.47671 0.54921 0.0
H3407 H 0.89604 0.54561 0.45654 0.0
H3408 H 0.89086 0.53663 0.52087 0.0
H3409 H 0.88603 0.50141 0.4658 0.0
H3410 H 0.89117 0.51018 0.40203 0.0
H3411 H 0.90283 0.5012 0.5255 0.0
H3412 H 0.8619 0.5156 0.5031 0.0
H3413 H 0.84614 0.53099 0.48775 0.0
H3414 H 0.85648 0.55166 0.59018 0.0
H3415 H 0.87243 0.53648 0.60586 0.0
C3416 C 0.89083 0.47997 0.69844 0.0
C3417 C 0.89288 0.48828 0.72935 0.0
C3418 C 0.88812 0.48426 0.66056 0.0
C3419 C 0.88754 0.49689 0.65311 0.0
C3420 C 0.88873 0.50512 0.68448 0.0
C3421 C 0.89137 0.50087 0.72223 0.0
C3422 C 0.88714 0.50167 0.61234 0.0
C3423 C 0.87821 0.51036 0.60226 0.0
C3424 C 0.89611 0.49833 0.58428 0.0
C3425 C 0.90643 0.49007 0.59408 0.0
C3426 C 0.91469 0.49312 0.62434 0.0
C3427 C 0.92437 0.48528 0.63356 0.0
C3428 C 0.92594 0.47441 0.61249 0.0
C3429 C 0.91785 0.47139 0.58206 0.0
C3430 C 0.90815 0.47919 0.57275 0.0
C3431 C 0.89364 0.53602 0.45813 0.0
C3432 C 0.89423 0.52856 0.42441 0.0
C3433 C 0.89064 0.53092 0.49477 0.0
C3434 C 0.88811 0.51836 0.49791 0.0
C3435 C 0.88801 0.5111 0.46392 0.0
C3436 C 0.89101 0.51614 0.42755 0.0
C3437 C 0.88702 0.51242 0.53685 0.0
C3438 C 0.89578 0.50358 0.54671 0.0
C3439 C 0.87805 0.51582 0.56476 0.0
C3440 C 0.86844 0.52494 0.55546 0.0
C3441 C 0.86089 0.52348 0.52217 0.0
C3442 C 0.8519 0.53215 0.51345 0.0
C3443 C 0.85033 0.54231 0.53792 0.0
C3444 C 0.85772 0.5438 0.57123 0.0
C3445 C 0.86672 0.53515 0.58007 0.0
H3446 H 0.84336 0.54902 0.53112 0.0
H3447 H 0.93344 0.46835 0.61966 0.0
H3448 H 0.24511 0.37118 0.16158 0.0
H3449 H 0.25317 0.3754 0.2271 0.0
H3450 H 0.21818 0.36658 0.2784 0.0
H3451 H 0.20993 0.3623 0.21222 0.0
H3452 H 0.2327 0.38696 0.31661 0.0
H3453 H 0.23558 0.34467 0.27561 0.0
H3454 H 0.24062 0.32817 0.22878 0.0
H3455 H 0.27817 0.33965 0.22785 0.0
H3456 H 0.2733 0.35636 0.27419 0.0
H3457 H 0.2509 0.36489 0.50384 0.0
H3458 H 0.2423 0.36961 0.43954 0.0
H3459 H 0.27851 0.37001 0.38893 0.0
H3460 H 0.28727 0.36502 0.45355 0.0
H3461 H 0.26367 0.35534 0.34922 0.0
H3462 H 0.26138 0.39632 0.39589 0.0
H3463 H 0.25646 0.413 0.44215 0.0
H3464 H 0.21825 0.40439 0.43317 0.0
H3465 H 0.22295 0.38754 0.38727 0.0
C3466 C 0.23902 0.37036 0.18667 0.0
C3467 C 0.22696 0.36616 0.18198 0.0
C3468 C 0.24364 0.37285 0.22402 0.0
C3469 C 0.23631 0.37112 0.25738 0.0
C3470 C 0.22394 0.36795 0.25278 0.0
C3471 C 0.21926 0.36549 0.2151 0.0
C3472 C 0.24214 0.37088 0.29658 0.0
C3473 C 0.23936 0.38 0.32414 0.0
C3474 C 0.25107 0.36196 0.30559 0.0
C3475 C 0.25405 0.35185 0.278 0.0
C3476 C 0.24489 0.34375 0.26513 0.0
C3477 C 0.24772 0.33435 0.23873 0.0
C3478 C 0.2597 0.33289 0.22526 0.0
C3479 C 0.26889 0.34081 0.23826 0.0
C3480 C 0.2661 0.35024 0.26459 0.0
C3481 C 0.2571 0.36612 0.47922 0.0
C3482 C 0.26978 0.36444 0.48373 0.0
C3483 C 0.25215 0.36895 0.44249 0.0
C3484 C 0.25976 0.37027 0.40954 0.0
C3485 C 0.27248 0.36907 0.41413 0.0
C3486 C 0.27747 0.36622 0.45101 0.0
C3487 C 0.25429 0.37145 0.3698 0.0
C3488 C 0.2571 0.36242 0.34192 0.0
C3489 C 0.24541 0.38046 0.36072 0.0
C3490 C 0.24253 0.39059 0.38835 0.0
C3491 C 0.25193 0.39791 0.40402 0.0
C3492 C 0.24918 0.40741 0.43013 0.0
C3493 C 0.23705 0.40974 0.44065 0.0
C3494 C 0.22764 0.40257 0.42501 0.0
C3495 C 0.23034 0.39306 0.3989 0.0
H3496 H 0.23494 0.4171 0.46087 0.0
H3497 H 0.26188 0.3256 0.20484 0.0
H3498 H 0.37963 0.50205 0.90976 0.0
H3499 H 0.37538 0.51108 0.97414 0.0
H3500 H 0.39325 0.48065 0.03108 0.0
H3501 H 0.39727 0.47137 0.96643 0.0
H3502 H 0.37394 0.48983 0.07525 0.0
H3503 H 0.40962 0.5054 0.00563 0.0
H3504 H 0.4201 0.51484 0.94877 0.0
H3505 H 0.39709 0.5465 0.95853 0.0
H3506 H 0.38637 0.53716 0.01515 0.0
H3507 H 0.40526 0.51048 0.23908 0.0
H3508 H 0.39813 0.50287 0.17612 0.0
H3509 H 0.38371 0.5385 0.14737 0.0
H3510 H 0.39109 0.54639 0.21107 0.0
H3511 H 0.39659 0.529 0.08763 0.0
H3512 H 0.36412 0.51475 0.16805 0.0
H3513 H 0.35444 0.50511 0.22594 0.0
H3514 H 0.37164 0.47095 0.19761 0.0
H3515 H 0.38158 0.48041 0.13987 0.0
C3516 C 0.38238 0.49713 0.93607 0.0
C3517 C 0.38897 0.48614 0.93328 0.0
C3518 C 0.37994 0.5023 0.97276 0.0
C3519 C 0.38427 0.49668 0.00718 0.0
C3520 C 0.38989 0.48515 0.00473 0.0
C3521 C 0.39219 0.47986 0.96788 0.0
C3522 C 0.38445 0.50351 0.04478 0.0
C3523 C 0.37888 0.49839 0.07812 0.0
C3524 C 0.39059 0.51487 0.04804 0.0
C3525 C 0.39711 0.52053 0.01427 0.0
C3526 C 0.40675 0.51434 -0.00454 0.0
C3527 C 0.41274 0.51967 0.96331 0.0
C3528 C 0.40924 0.53125 0.94997 0.0
C3529 C 0.39977 0.53753 0.96884 0.0
C3530 C 0.39374 0.53222 0.00096 0.0
C3531 C 0.4005 0.51675 0.21967 0.0
C3532 C 0.3987 0.52906 0.23022 0.0
C3533 C 0.39632 0.51232 0.18372 0.0
C3534 C 0.3901 0.52002 0.15753 0.0
C3535 C 0.38836 0.53237 0.16753 0.0
C3536 C 0.39262 0.53687 0.20375 0.0
C3537 C 0.38636 0.51517 0.11861 0.0
C3538 C 0.39131 0.52064 0.08482 0.0
C3539 C 0.37968 0.50411 0.11509 0.0
C3540 C 0.37363 0.49832 0.14963 0.0
C3541 C 0.3659 0.50519 0.17427 0.0
C3542 C 0.36036 0.49976 0.20706 0.0
C3543 C 0.36243 0.48743 0.21546 0.0
C3544 C 0.37004 0.4805 0.19104 0.0
C3545 C 0.37561 0.48589 0.15822 0.0
H3546 H 0.35813 0.48324 0.24087 0.0
H3547 H 0.41388 0.53536 0.92508 0.0
H3548 H 0.24918 0.65966 0.00789 0.0
H3549 H 0.25852 0.65632 0.94388 0.0
H3550 H 0.22301 0.65008 0.89238 0.0
H3551 H 0.21338 0.65347 0.95707 0.0
H3552 H 0.24249 0.63332 0.86727 0.0
H3553 H 0.23391 0.67628 0.87838 0.0
H3554 H 0.23397 0.69641 0.91105 0.0
H3555 H 0.27323 0.69619 0.91318 0.0
H3556 H 0.27339 0.67595 0.88105 0.0
H3557 H 0.25474 0.64711 0.6677 0.0
H3558 H 0.24775 0.64422 0.73512 0.0
H3559 H 0.28305 0.65559 0.77872 0.0
H3560 H 0.29014 0.65865 0.71062 0.0
H3561 H 0.26458 0.66878 0.80991 0.0
H3562 H 0.27319 0.62646 0.79325 0.0
H3563 H 0.27301 0.60637 0.76028 0.0
H3564 H 0.23383 0.6053 0.76761 0.0
H3565 H 0.23375 0.62547 0.80012 0.0
C3566 C 0.24327 0.6575 0.98318 0.0
C3567 C 0.23048 0.65696 0.98756 0.0
C3568 C 0.24867 0.65559 0.9466 0.0
C3569 C 0.24144 0.65307 0.91355 0.0
C3570 C 0.22871 0.65202 0.91777 0.0
C3571 C 0.22324 0.65401 0.95459 0.0
C3572 C 0.24728 0.65228 0.87442 0.0
C3573 C 0.2472 0.64108 0.85432 0.0
C3574 C 0.25372 0.66234 0.85847 0.0
C3575 C 0.25366 0.67453 0.87771 0.0
C3576 C 0.24255 0.68047 0.88616 0.0
C3577 C 0.24255 0.69191 0.9045 0.0
C3578 C 0.2536 0.69756 0.91429 0.0
C3579 C 0.26468 0.69179 0.90564 0.0
C3580 C 0.26473 0.68034 0.88734 0.0
C3581 C 0.26111 0.6488 0.69157 0.0
C3582 C 0.27294 0.65325 0.68397 0.0
C3583 C 0.25712 0.64703 0.73012 0.0
C3584 C 0.26489 0.64964 0.76189 0.0
C3585 C 0.27694 0.65349 0.75447 0.0
C3586 C 0.28098 0.6552 0.71567 0.0
C3587 C 0.25983 0.6498 0.80234 0.0
C3588 C 0.26 0.66094 0.82281 0.0
C3589 C 0.25347 0.63968 0.81845 0.0
C3590 C 0.25347 0.62753 0.79889 0.0
C3591 C 0.26453 0.62199 0.78755 0.0
C3592 C 0.26447 0.61058 0.76899 0.0
C3593 C 0.25342 0.60457 0.76179 0.0
C3594 C 0.24239 0.60996 0.7732 0.0
C3595 C 0.24239 0.62138 0.79175 0.0
H3596 H 0.2534 0.59574 0.74742 0.0
H3597 H 0.25358 0.70643 0.92848 0.0
H3598 H 0.10878 0.54496 0.44906 0.0
H3599 H 0.11256 0.53575 0.51408 0.0
H3600 H 0.10518 0.5 0.46605 0.0
H3601 H 0.10152 0.50896 0.40148 0.0
H3602 H 0.09118 0.50593 0.53249 0.0
H3603 H 0.13308 0.50628 0.48942 0.0
H3604 H 0.15198 0.51569 0.46393 0.0
H3605 H 0.15343 0.53948 0.56461 0.0
H3606 H 0.13442 0.53033 0.59044 0.0
H3607 H 0.10223 0.47055 0.70044 0.0
H3608 H 0.10589 0.47784 0.6331 0.0
H3609 H 0.11533 0.51349 0.67826 0.0
H3610 H 0.11179 0.5063 0.74543 0.0
H3611 H 0.12915 0.50729 0.6127 0.0
H3612 H 0.08707 0.50873 0.65321 0.0
H3613 H 0.06785 0.5003 0.67985 0.0
H3614 H 0.06626 0.47448 0.58455 0.0
H3615 H 0.0856 0.48264 0.55769 0.0
C3616 C 0.10812 0.53513 0.45228 0.0
C3617 C 0.10475 0.52772 0.42013 0.0
C3618 C 0.11032 0.52989 0.48933 0.0
C3619 C 0.10913 0.51721 0.49467 0.0
C3620 C 0.10613 0.5098 0.46244 0.0
C3621 C 0.10404 0.51498 0.42553 0.0
C3622 C 0.11002 0.51168 0.53432 0.0
C3623 C 0.09954 0.50605 0.54977 0.0
C3624 C 0.12083 0.51218 0.55712 0.0
C3625 C 0.13225 0.51771 0.54164 0.0
C3626 C 0.13736 0.5136 0.50593 0.0
C3627 C 0.14811 0.51887 0.49147 0.0
C3628 C 0.15389 0.5282 0.51258 0.0
C3629 C 0.14894 0.53226 0.54826 0.0
C3630 C 0.13818 0.52703 0.56284 0.0
C3631 C 0.10539 0.47984 0.69608 0.0
C3632 C 0.10651 0.48791 0.72811 0.0
C3633 C 0.10745 0.484 0.65764 0.0
C3634 C 0.11069 0.49625 0.65082 0.0
C3635 C 0.1128 0.50401 0.68295 0.0
C3636 C 0.11069 0.4999 0.72128 0.0
C3637 C 0.11036 0.5014 0.61051 0.0
C3638 C 0.12085 0.50705 0.59514 0.0
C3639 C 0.09951 0.50108 0.58779 0.0
C3640 C 0.08785 0.49619 0.60373 0.0
C3641 C 0.08267 0.50118 0.63813 0.0
C3642 C 0.07175 0.49647 0.65324 0.0
C3643 C 0.06586 0.48683 0.63398 0.0
C3644 C 0.07085 0.48192 0.59949 0.0
C3645 C 0.08179 0.48659 0.58431 0.0
H3646 H 0.0574 0.4832 0.64571 0.0
H3647 H 0.16221 0.53226 0.50134 0.0
loop_
_geom_bond_atom_site_label_1
_geom_bond_atom_site_label_2
_geom_bond_distance
_geom_bond_site_symmetry_2
_ccdc_geom_bond_type
C0 O1 1.306 . S
C0 O3 1.160 . S
O1 C0 1.306 . S
O1 Cd2 2.228 . S
Cd2 O1 2.228 . S
Cd2 O6 2.273 . S
Cd2 O10 2.277 . S
O3 C0 1.160 . S
O3 Cd4 2.203 . S
Cd4 O3 2.203 . S
Cd4 O6 2.411 . S
Cd4 O7 2.333 1_554 S
Cd4 O8 2.352 . S
Cd4 O12 2.277 . S
Cd4 O13 2.356 . S
C5 O10 1.209 . S
C5 O12 1.226 . S
O6 Cd2 2.273 . S
O6 Cd4 2.411 . S
O6 C9 1.320 1_554 S
O7 Cd4 2.333 1_556 S
O7 C9 1.214 . S
O8 Cd4 2.352 . S
O8 C11 1.258 . S
C9 O6 1.320 1_556 S
C9 O7 1.214 . S
O10 Cd2 2.277 . S
O10 C5 1.209 . S
C11 O8 1.258 . S
C11 O13 1.282 . S
O12 Cd4 2.277 . S
O12 C5 1.226 . S
O13 Cd4 2.356 . S
O13 C11 1.282 . S
C14 O15 1.306 . S
C14 O17 1.160 . S
O15 C14 1.306 . S
O15 Cd16 2.228 1_565 S
Cd16 O15 2.228 1_545 S
Cd16 O20 2.273 1_545 S
Cd16 O24 2.277 1_545 S
O17 C14 1.160 . S
O17 Cd18 2.203 . S
Cd18 O17 2.203 . S
Cd18 O20 2.411 . S
Cd18 O21 2.333 . S
Cd18 O22 2.352 . S
Cd18 O26 2.277 . S
Cd18 O27 2.356 . S
C19 O24 1.209 . S
C19 O26 1.226 . S
O20 Cd16 2.273 1_565 S
O20 Cd18 2.411 . S
O20 C23 1.320 . S
O21 Cd18 2.333 . S
O21 C23 1.214 . S
O22 Cd18 2.352 . S
O22 C25 1.258 . S
C23 O20 1.320 . S
C23 O21 1.214 . S
O24 Cd16 2.277 1_565 S
O24 C19 1.209 . S
C25 O22 1.258 . S
C25 O27 1.282 . S
O26 Cd18 2.277 . S
O26 C19 1.226 . S
O27 Cd18 2.356 . S
O27 C25 1.282 . S
C28 O29 1.306 . S
C28 O31 1.160 . S
O29 C28 1.306 . S
O29 Cd30 2.228 . S
Cd30 O29 2.228 . S
Cd30 O34 2.273 . S
Cd30 O38 2.277 . S
O31 C28 1.160 . S
O31 Cd32 2.203 . S
Cd32 O31 2.203 . S
Cd32 O34 2.411 . S
Cd32 O35 2.333 . S
Cd32 O36 2.352 . S
Cd32 O40 2.277 . S
Cd32 O41 2.356 . S
C33 O38 1.209 . S
C33 O40 1.226 . S
O34 Cd30 2.273 . S
O34 Cd32 2.411 . S
O34 C37 1.320 . S
O35 Cd32 2.333 . S
O35 C37 1.214 . S
O36 Cd32 2.352 . S
O36 C39 1.258 . S
C37 O34 1.320 . S
C37 O35 1.214 . S
O38 Cd30 2.277 . S
O38 C33 1.209 . S
C39 O36 1.258 . S
C39 O41 1.282 . S
O40 Cd32 2.277 . S
O40 C33 1.226 . S
O41 Cd32 2.356 . S
O41 C39 1.282 . S
C42 O43 1.306 . S
C42 O45 1.160 . S
O43 C42 1.306 . S
O43 Cd44 2.228 . S
Cd44 O43 2.228 . S
Cd44 O48 2.273 . S
Cd44 O52 2.277 . S
O45 C42 1.160 . S
O45 Cd46 2.203 . S
Cd46 O45 2.203 . S
Cd46 O48 2.411 . S
Cd46 O49 2.333 . S
Cd46 O50 2.352 . S
Cd46 O54 2.277 . S
Cd46 O55 2.356 . S
C47 O52 1.209 . S
C47 O54 1.226 . S
O48 Cd44 2.273 . S
O48 Cd46 2.411 . S
O48 C51 1.320 . S
O49 Cd46 2.333 . S
O49 C51 1.214 . S
O50 Cd46 2.352 . S
O50 C53 1.258 . S
C51 O48 1.320 . S
C51 O49 1.214 . S
O52 Cd44 2.277 . S
O52 C47 1.209 . S
C53 O50 1.258 . S
C53 O55 1.282 . S
O54 Cd46 2.277 . S
O54 C47 1.226 . S
O55 Cd46 2.356 . S
O55 C53 1.282 . S
C56 O57 1.306 . S
C56 O59 1.160 . S
O57 C56 1.306 . S
O57 Cd58 2.228 . S
Cd58 O57 2.228 . S
Cd58 O62 2.273 . S
Cd58 O66 2.277 . S
O59 C56 1.160 . S
O59 Cd60 2.203 . S
Cd60 O59 2.203 . S
Cd60 O62 2.411 . S
Cd60 O63 2.333 . S
Cd60 O64 2.352 . S
Cd60 O68 2.277 . S
Cd60 O69 2.356 . S
C61 O66 1.209 . S
C61 O68 1.226 . S
O62 Cd58 2.273 . S
O62 Cd60 2.411 . S
O62 C65 1.320 . S
O63 Cd60 2.333 . S
O63 C65 1.214 . S
O64 Cd60 2.352 . S
O64 C67 1.258 . S
C65 O62 1.320 . S
C65 O63 1.214 . S
O66 Cd58 2.277 . S
O66 C61 1.209 . S
C67 O64 1.258 . S
C67 O69 1.282 . S
O68 Cd60 2.277 . S
O68 C61 1.226 . S
O69 Cd60 2.356 . S
O69 C67 1.282 . S
C70 O71 1.306 . S
C70 O73 1.160 . S
O71 C70 1.306 . S
O71 Cd72 2.229 1_565 S
Cd72 O71 2.229 1_545 S
Cd72 O76 2.275 1_545 S
Cd72 O80 2.280 1_545 S
O73 C70 1.160 . S
O73 Cd74 2.203 . S
Cd74 O73 2.203 . S
Cd74 O76 2.411 . S
Cd74 O77 2.333 . S
Cd74 O78 2.352 . S
Cd74 O82 2.277 . S
Cd74 O83 2.356 . S
C75 O80 1.209 . S
C75 O82 1.226 . S
O76 Cd72 2.275 1_565 S
O76 Cd74 2.411 . S
O76 C79 1.320 . S
O77 Cd74 2.333 . S
O77 C79 1.214 . S
O78 Cd74 2.352 . S
O78 C81 1.258 . S
C79 O76 1.320 . S
C79 O77 1.214 . S
O80 Cd72 2.280 1_565 S
O80 C75 1.209 . S
C81 O78 1.258 . S
C81 O83 1.282 . S
O82 Cd74 2.277 . S
O82 C75 1.226 . S
O83 Cd74 2.356 . S
O83 C81 1.282 . S
C84 O85 1.306 . S
C84 O87 1.160 . S
O85 C84 1.306 . S
O85 Cd86 2.228 . S
Cd86 O85 2.228 . S
Cd86 O90 2.273 . S
Cd86 O94 2.277 . S
O87 C84 1.160 . S
O87 Cd88 2.203 . S
Cd88 O87 2.203 . S
Cd88 O90 2.411 . S
Cd88 O91 2.333 . S
Cd88 O92 2.352 . S
Cd88 O96 2.277 . S
Cd88 O97 2.356 . S
C89 O94 1.209 . S
C89 O96 1.226 . S
O90 Cd86 2.273 . S
O90 Cd88 2.411 . S
O90 C93 1.320 . S
O91 Cd88 2.333 . S
O91 C93 1.214 . S
O92 Cd88 2.352 . S
O92 C95 1.258 . S
C93 O90 1.320 . S
C93 O91 1.214 . S
O94 Cd86 2.277 . S
O94 C89 1.209 . S
C95 O92 1.258 . S
C95 O97 1.282 . S
O96 Cd88 2.277 . S
O96 C89 1.226 . S
O97 Cd88 2.356 . S
O97 C95 1.282 . S
C98 O99 1.306 . S
C98 O101 1.160 . S
O99 C98 1.306 . S
O99 Cd100 2.228 . S
Cd100 O99 2.228 . S
Cd100 O104 2.273 . S
Cd100 O108 2.277 . S
O101 C98 1.160 . S
O101 Cd102 2.203 . S
Cd102 O101 2.203 . S
Cd102 O104 2.411 . S
Cd102 O105 2.333 . S
Cd102 O106 2.352 . S
Cd102 O110 2.277 . S
Cd102 O111 2.356 . S
C103 O108 1.209 . S
C103 O110 1.226 . S
O104 Cd100 2.273 . S
O104 Cd102 2.411 . S
O104 C107 1.320 . S
O105 Cd102 2.333 . S
O105 C107 1.214 . S
O106 Cd102 2.352 . S
O106 C109 1.258 . S
C107 O104 1.320 . S
C107 O105 1.214 . S
O108 Cd100 2.277 . S
O108 C103 1.209 . S
C109 O106 1.258 . S
C109 O111 1.282 . S
O110 Cd102 2.277 . S
O110 C103 1.226 . S
O111 Cd102 2.356 . S
O111 C109 1.282 . S
C112 O113 1.306 . S
C112 O115 1.160 . S
O113 C112 1.306 . S
O113 Cd114 2.228 . S
Cd114 O113 2.228 . S
Cd114 O118 2.273 . S
Cd114 O122 2.277 . S
O115 C112 1.160 . S
O115 Cd116 2.203 . S
Cd116 O115 2.203 . S
Cd116 O118 2.411 . S
Cd116 O119 2.333 . S
Cd116 O120 2.352 . S
Cd116 O124 2.277 . S
Cd116 O125 2.356 . S
C117 O122 1.209 . S
C117 O124 1.226 . S
O118 Cd114 2.273 . S
O118 Cd116 2.411 . S
O118 C121 1.320 . S
O119 Cd116 2.333 . S
O119 C121 1.214 . S
O120 Cd116 2.352 . S
O120 C123 1.258 . S
C121 O118 1.320 . S
C121 O119 1.214 . S
O122 Cd114 2.277 . S
O122 C117 1.209 . S
C123 O120 1.258 . S
C123 O125 1.282 . S
O124 Cd116 2.277 . S
O124 C117 1.226 . S
O125 Cd116 2.356 . S
O125 C123 1.282 . S
C126 O127 1.306 . S
C126 O129 1.160 . S
O127 C126 1.306 . S
O127 Cd128 2.228 . S
Cd128 O127 2.228 . S
Cd128 O132 2.273 . S
Cd128 O136 2.277 . S
O129 C126 1.160 . S
O129 Cd130 2.203 . S
Cd130 O129 2.203 . S
Cd130 O132 2.411 . S
Cd130 O133 2.333 . S
Cd130 O134 2.352 . S
Cd130 O138 2.277 . S
Cd130 O139 2.356 . S
C131 O136 1.209 . S
C131 O138 1.226 . S
O132 Cd128 2.273 . S
O132 Cd130 2.411 . S
O132 C135 1.320 . S
O133 Cd130 2.333 . S
O133 C135 1.214 . S
O134 Cd130 2.352 . S
O134 C137 1.258 . S
C135 O132 1.320 . S
C135 O133 1.214 . S
O136 Cd128 2.277 . S
O136 C131 1.209 . S
C137 O134 1.258 . S
C137 O139 1.282 . S
O138 Cd130 2.277 . S
O138 C131 1.226 . S
O139 Cd130 2.356 . S
O139 C137 1.282 . S
C140 O141 1.306 . S
C140 O143 1.160 . S
O141 C140 1.306 . S
O141 Cd142 2.228 . S
Cd142 O141 2.228 . S
Cd142 O146 2.273 . S
Cd142 O150 2.277 . S
O143 C140 1.160 . S
O143 Cd144 2.203 . S
Cd144 O143 2.203 . S
Cd144 O146 2.411 . S
Cd144 O147 2.333 . S
Cd144 O148 2.352 . S
Cd144 O152 2.277 . S
Cd144 O153 2.356 . S
C145 O150 1.209 . S
C145 O152 1.226 . S
O146 Cd142 2.273 . S
O146 Cd144 2.411 . S
O146 C149 1.320 . S
O147 Cd144 2.333 . S
O147 C149 1.214 . S
O148 Cd144 2.352 . S
O148 C151 1.258 . S
C149 O146 1.320 . S
C149 O147 1.214 . S
O150 Cd142 2.277 . S
O150 C145 1.209 . S
C151 O148 1.258 . S
C151 O153 1.282 . S
O152 Cd144 2.277 . S
O152 C145 1.226 . S
O153 Cd144 2.356 . S
O153 C151 1.282 . S
C154 O155 1.306 . S
C154 O157 1.160 . S
O155 C154 1.306 . S
O155 Cd156 2.229 1_565 S
Cd156 O155 2.229 1_545 S
Cd156 O160 2.275 1_545 S
Cd156 O164 2.280 1_545 S
O157 C154 1.160 . S
O157 Cd158 2.203 . S
Cd158 O157 2.203 . S
Cd158 O160 2.411 . S
Cd158 O161 2.333 . S
Cd158 O162 2.352 . S
Cd158 O166 2.277 . S
Cd158 O167 2.356 . S
C159 O164 1.209 . S
C159 O166 1.226 . S
O160 Cd156 2.275 1_565 S
O160 Cd158 2.411 . S
O160 C163 1.320 . S
O161 Cd158 2.333 . S
O161 C163 1.214 . S
O162 Cd158 2.352 . S
O162 C165 1.258 . S
C163 O160 1.320 . S
C163 O161 1.214 . S
O164 Cd156 2.280 1_565 S
O164 C159 1.209 . S
C165 O162 1.258 . S
C165 O167 1.282 . S
O166 Cd158 2.277 . S
O166 C159 1.226 . S
O167 Cd158 2.356 . S
O167 C165 1.282 . S
C168 O169 1.306 . S
C168 O171 1.160 . S
O169 C168 1.306 . S
O169 Cd170 2.228 . S
Cd170 O169 2.228 . S
Cd170 O174 2.273 . S
Cd170 O178 2.277 . S
O171 C168 1.160 . S
O171 Cd172 2.203 . S
Cd172 O171 2.203 . S
Cd172 O174 2.411 . S
Cd172 O175 2.333 1_554 S
Cd172 O176 2.352 . S
Cd172 O180 2.277 . S
Cd172 O181 2.356 . S
C173 O178 1.209 . S
C173 O180 1.226 . S
O174 Cd170 2.273 . S
O174 Cd172 2.411 . S
O174 C177 1.320 1_554 S
O175 Cd172 2.333 1_556 S
O175 C177 1.214 . S
O176 Cd172 2.352 . S
O176 C179 1.258 . S
C177 O174 1.320 1_556 S
C177 O175 1.214 . S
O178 Cd170 2.277 . S
O178 C173 1.209 . S
C179 O176 1.258 . S
C179 O181 1.282 . S
O180 Cd172 2.277 . S
O180 C173 1.226 . S
O181 Cd172 2.356 . S
O181 C179 1.282 . S
C182 O183 1.306 . S
C182 O185 1.160 . S
O183 C182 1.306 . S
O183 Cd184 2.228 . S
Cd184 O183 2.228 . S
Cd184 O188 2.273 . S
Cd184 O192 2.277 . S
O185 C182 1.160 . S
O185 Cd186 2.203 . S
Cd186 O185 2.203 . S
Cd186 O188 2.411 . S
Cd186 O189 2.333 . S
Cd186 O190 2.352 . S
Cd186 O194 2.277 . S
Cd186 O195 2.356 . S
C187 O192 1.209 . S
C187 O194 1.226 . S
O188 Cd184 2.273 . S
O188 Cd186 2.411 . S
O188 C191 1.320 . S
O189 Cd186 2.333 . S
O189 C191 1.214 . S
O190 Cd186 2.352 . S
O190 C193 1.258 . S
C191 O188 1.320 . S
C191 O189 1.214 . S
O192 Cd184 2.277 . S
O192 C187 1.209 . S
C193 O190 1.258 . S
C193 O195 1.282 . S
O194 Cd186 2.277 . S
O194 C187 1.226 . S
O195 Cd186 2.356 . S
O195 C193 1.282 . S
C196 O197 1.306 . S
C196 O199 1.160 . S
O197 C196 1.306 . S
O197 Cd198 2.228 . S
Cd198 O197 2.228 . S
Cd198 O202 2.273 . S
Cd198 O206 2.277 . S
O199 C196 1.160 . S
O199 Cd200 2.203 . S
Cd200 O199 2.203 . S
Cd200 O202 2.411 . S
Cd200 O203 2.333 . S
Cd200 O204 2.352 . S
Cd200 O208 2.277 . S
Cd200 O209 2.356 . S
C201 O206 1.209 . S
C201 O208 1.226 . S
O202 Cd198 2.273 . S
O202 Cd200 2.411 . S
O202 C205 1.320 . S
O203 Cd200 2.333 . S
O203 C205 1.214 . S
O204 Cd200 2.352 . S
O204 C207 1.258 . S
C205 O202 1.320 . S
C205 O203 1.214 . S
O206 Cd198 2.277 . S
O206 C201 1.209 . S
C207 O204 1.258 . S
C207 O209 1.282 . S
O208 Cd200 2.277 . S
O208 C201 1.226 . S
O209 Cd200 2.356 . S
O209 C207 1.282 . S
C210 O211 1.306 . S
C210 O213 1.160 . S
O211 C210 1.306 . S
O211 Cd212 2.228 1_565 S
Cd212 O211 2.228 1_545 S
Cd212 O216 2.273 1_545 S
Cd212 O220 2.277 1_545 S
O213 C210 1.160 . S
O213 Cd214 2.203 . S
Cd214 O213 2.203 . S
Cd214 O216 2.411 . S
Cd214 O217 2.333 . S
Cd214 O218 2.352 . S
Cd214 O222 2.277 . S
Cd214 O223 2.356 . S
C215 O220 1.209 . S
C215 O222 1.226 . S
O216 Cd212 2.273 1_565 S
O216 Cd214 2.411 . S
O216 C219 1.320 . S
O217 Cd214 2.333 . S
O217 C219 1.214 . S
O218 Cd214 2.352 . S
O218 C221 1.258 . S
C219 O216 1.320 . S
C219 O217 1.214 . S
O220 Cd212 2.277 1_565 S
O220 C215 1.209 . S
C221 O218 1.258 . S
C221 O223 1.282 . S
O222 Cd214 2.277 . S
O222 C215 1.226 . S
O223 Cd214 2.356 . S
O223 C221 1.282 . S
C224 O225 1.306 . S
C224 O227 1.160 . S
O225 C224 1.306 . S
O225 Cd226 2.228 . S
Cd226 O225 2.228 . S
Cd226 O230 2.273 . S
Cd226 O234 2.277 . S
O227 C224 1.160 . S
O227 Cd228 2.203 . S
Cd228 O227 2.203 . S
Cd228 O230 2.411 . S
Cd228 O231 2.333 . S
Cd228 O232 2.352 . S
Cd228 O236 2.277 . S
Cd228 O237 2.356 . S
C229 O234 1.209 . S
C229 O236 1.226 . S
O230 Cd226 2.273 . S
O230 Cd228 2.411 . S
O230 C233 1.320 . S
O231 Cd228 2.333 . S
O231 C233 1.214 . S
O232 Cd228 2.352 . S
O232 C235 1.258 . S
C233 O230 1.320 . S
C233 O231 1.214 . S
O234 Cd226 2.277 . S
O234 C229 1.209 . S
C235 O232 1.258 . S
C235 O237 1.282 . S
O236 Cd228 2.277 . S
O236 C229 1.226 . S
O237 Cd228 2.356 . S
O237 C235 1.282 . S
C238 O239 1.306 . S
C238 O241 1.160 . S
O239 C238 1.306 . S
O239 Cd240 2.228 . S
Cd240 O239 2.228 . S
Cd240 O244 2.273 . S
Cd240 O248 2.277 . S
O241 C238 1.160 . S
O241 Cd242 2.203 . S
Cd242 O241 2.203 . S
Cd242 O244 2.411 . S
Cd242 O245 2.333 . S
Cd242 O246 2.352 . S
Cd242 O250 2.277 . S
Cd242 O251 2.356 . S
C243 O248 1.209 . S
C243 O250 1.226 . S
O244 Cd240 2.273 . S
O244 Cd242 2.411 . S
O244 C247 1.320 . S
O245 Cd242 2.333 . S
O245 C247 1.214 . S
O246 Cd242 2.352 . S
O246 C249 1.258 . S
C247 O244 1.320 . S
C247 O245 1.214 . S
O248 Cd240 2.277 . S
O248 C243 1.209 . S
C249 O246 1.258 . S
C249 O251 1.282 . S
O250 Cd242 2.277 . S
O250 C243 1.226 . S
O251 Cd242 2.356 . S
O251 C249 1.282 . S
C252 O253 1.306 . S
C252 O255 1.160 . S
O253 C252 1.306 . S
O253 Cd254 2.228 . S
Cd254 O253 2.228 . S
Cd254 O258 2.273 . S
Cd254 O262 2.277 . S
O255 C252 1.160 . S
O255 Cd256 2.203 . S
Cd256 O255 2.203 . S
Cd256 O258 2.411 . S
Cd256 O259 2.333 1_554 S
Cd256 O260 2.352 . S
Cd256 O264 2.277 . S
Cd256 O265 2.356 . S
C257 O262 1.209 . S
C257 O264 1.226 . S
O258 Cd254 2.273 . S
O258 Cd256 2.411 . S
O258 C261 1.320 1_554 S
O259 Cd256 2.333 1_556 S
O259 C261 1.214 . S
O260 Cd256 2.352 . S
O260 C263 1.258 . S
C261 O258 1.320 1_556 S
C261 O259 1.214 . S
O262 Cd254 2.277 . S
O262 C257 1.209 . S
C263 O260 1.258 . S
C263 O265 1.282 . S
O264 Cd256 2.277 . S
O264 C257 1.226 . S
O265 Cd256 2.356 . S
O265 C263 1.282 . S
C266 O267 1.306 . S
C266 O269 1.160 . S
O267 C266 1.306 . S
O267 Cd268 2.228 . S
Cd268 O267 2.228 . S
Cd268 O272 2.273 . S
Cd268 O276 2.277 . S
O269 C266 1.160 . S
O269 Cd270 2.203 . S
Cd270 O269 2.203 . S
Cd270 O272 2.411 . S
Cd270 O273 2.333 . S
Cd270 O274 2.352 . S
Cd270 O278 2.277 . S
Cd270 O279 2.356 . S
C271 O276 1.209 . S
C271 O278 1.226 . S
O272 Cd268 2.273 . S
O272 Cd270 2.411 . S
O272 C275 1.320 . S
O273 Cd270 2.333 . S
O273 C275 1.214 . S
O274 Cd270 2.352 . S
O274 C277 1.258 . S
C275 O272 1.320 . S
C275 O273 1.214 . S
O276 Cd268 2.277 . S
O276 C271 1.209 . S
C277 O274 1.258 . S
C277 O279 1.282 . S
O278 Cd270 2.277 . S
O278 C271 1.226 . S
O279 Cd270 2.356 . S
O279 C277 1.282 . S
C280 O281 1.306 . S
C280 O283 1.160 . S
O281 C280 1.306 . S
O281 Cd282 2.228 . S
Cd282 O281 2.228 . S
Cd282 O286 2.273 . S
Cd282 O290 2.277 . S
O283 C280 1.160 . S
O283 Cd284 2.203 . S
Cd284 O283 2.203 . S
Cd284 O286 2.411 . S
Cd284 O287 2.333 . S
Cd284 O288 2.352 . S
Cd284 O292 2.277 . S
Cd284 O293 2.356 . S
C285 O290 1.209 . S
C285 O292 1.226 . S
O286 Cd282 2.273 . S
O286 Cd284 2.411 . S
O286 C289 1.320 . S
O287 Cd284 2.333 . S
O287 C289 1.214 . S
O288 Cd284 2.352 . S
O288 C291 1.258 . S
C289 O286 1.320 . S
C289 O287 1.214 . S
O290 Cd282 2.277 . S
O290 C285 1.209 . S
C291 O288 1.258 . S
C291 O293 1.282 . S
O292 Cd284 2.277 . S
O292 C285 1.226 . S
O293 Cd284 2.356 . S
O293 C291 1.282 . S
C294 O295 1.306 . S
C294 O297 1.160 . S
O295 C294 1.306 . S
O295 Cd296 2.228 . S
Cd296 O295 2.228 . S
Cd296 O300 2.273 . S
Cd296 O304 2.277 . S
O297 C294 1.160 . S
O297 Cd298 2.203 . S
Cd298 O297 2.203 . S
Cd298 O300 2.411 . S
Cd298 O301 2.333 . S
Cd298 O302 2.352 . S
Cd298 O306 2.277 . S
Cd298 O307 2.356 . S
C299 O304 1.209 . S
C299 O306 1.226 . S
O300 Cd296 2.273 . S
O300 Cd298 2.411 . S
O300 C303 1.320 . S
O301 Cd298 2.333 . S
O301 C303 1.214 . S
O302 Cd298 2.352 . S
O302 C305 1.258 . S
C303 O300 1.320 . S
C303 O301 1.214 . S
O304 Cd296 2.277 . S
O304 C299 1.209 . S
C305 O302 1.258 . S
C305 O307 1.282 . S
O306 Cd298 2.277 . S
O306 C299 1.226 . S
O307 Cd298 2.356 . S
O307 C305 1.282 . S
C308 O309 1.306 . S
C308 O311 1.160 . S
O309 C308 1.306 . S
O309 Cd310 2.228 . S
Cd310 O309 2.228 . S
Cd310 O314 2.273 . S
Cd310 O318 2.277 . S
O311 C308 1.160 . S
O311 Cd312 2.203 . S
Cd312 O311 2.203 . S
Cd312 O314 2.411 . S
Cd312 O315 2.333 . S
Cd312 O316 2.352 . S
Cd312 O320 2.277 . S
Cd312 O321 2.356 . S
C313 O318 1.209 . S
C313 O320 1.226 . S
O314 Cd310 2.273 . S
O314 Cd312 2.411 . S
O314 C317 1.320 . S
O315 Cd312 2.333 . S
O315 C317 1.214 . S
O316 Cd312 2.352 . S
O316 C319 1.258 . S
C317 O314 1.320 . S
C317 O315 1.214 . S
O318 Cd310 2.277 . S
O318 C313 1.209 . S
C319 O316 1.258 . S
C319 O321 1.282 . S
O320 Cd312 2.277 . S
O320 C313 1.226 . S
O321 Cd312 2.356 . S
O321 C319 1.282 . S
C322 O323 1.306 . S
C322 O325 1.160 . S
O323 C322 1.306 . S
O323 Cd324 2.228 . S
Cd324 O323 2.228 . S
Cd324 O328 2.273 . S
Cd324 O332 2.277 . S
O325 C322 1.160 . S
O325 Cd326 2.203 . S
Cd326 O325 2.203 . S
Cd326 O328 2.411 . S
Cd326 O329 2.333 . S
Cd326 O330 2.352 . S
Cd326 O334 2.277 . S
Cd326 O335 2.356 . S
C327 O332 1.209 . S
C327 O334 1.226 . S
O328 Cd324 2.273 . S
O328 Cd326 2.411 . S
O328 C331 1.320 . S
O329 Cd326 2.333 . S
O329 C331 1.214 . S
O330 Cd326 2.352 . S
O330 C333 1.258 . S
C331 O328 1.320 . S
C331 O329 1.214 . S
O332 Cd324 2.277 . S
O332 C327 1.209 . S
C333 O330 1.258 . S
C333 O335 1.282 . S
O334 Cd326 2.277 . S
O334 C327 1.226 . S
O335 Cd326 2.356 . S
O335 C333 1.282 . S
C336 O337 1.306 . S
C336 O339 1.160 . S
O337 C336 1.306 . S
O337 Cd338 2.228 . S
Cd338 O337 2.228 . S
Cd338 O342 2.273 . S
Cd338 O346 2.277 . S
O339 C336 1.160 . S
O339 Cd340 2.203 . S
Cd340 O339 2.203 . S
Cd340 O342 2.411 . S
Cd340 O343 2.333 . S
Cd340 O344 2.352 . S
Cd340 O348 2.277 . S
Cd340 O349 2.356 . S
C341 O346 1.209 . S
C341 O348 1.226 . S
O342 Cd338 2.273 . S
O342 Cd340 2.411 . S
O342 C345 1.320 . S
O343 Cd340 2.333 . S
O343 C345 1.214 . S
O344 Cd340 2.352 . S
O344 C347 1.258 . S
C345 O342 1.320 . S
C345 O343 1.214 . S
O346 Cd338 2.277 . S
O346 C341 1.209 . S
C347 O344 1.258 . S
C347 O349 1.282 . S
O348 Cd340 2.277 . S
O348 C341 1.226 . S
O349 Cd340 2.356 . S
O349 C347 1.282 . S
C350 O351 1.306 . S
C350 O353 1.160 . S
O351 C350 1.306 . S
O351 Cd352 2.228 . S
Cd352 O351 2.228 . S
Cd352 O356 2.273 . S
Cd352 O360 2.277 . S
O353 C350 1.160 . S
O353 Cd354 2.203 . S
Cd354 O353 2.203 . S
Cd354 O356 2.411 . S
Cd354 O357 2.333 . S
Cd354 O358 2.352 . S
Cd354 O362 2.277 . S
Cd354 O363 2.356 . S
C355 O360 1.209 . S
C355 O362 1.226 . S
O356 Cd352 2.273 . S
O356 Cd354 2.411 . S
O356 C359 1.320 . S
O357 Cd354 2.333 . S
O357 C359 1.214 . S
O358 Cd354 2.352 . S
O358 C361 1.258 . S
C359 O356 1.320 . S
C359 O357 1.214 . S
O360 Cd352 2.277 . S
O360 C355 1.209 . S
C361 O358 1.258 . S
C361 O363 1.282 . S
O362 Cd354 2.277 . S
O362 C355 1.226 . S
O363 Cd354 2.356 . S
O363 C361 1.282 . S
C364 O365 1.306 . S
C364 O367 1.160 . S
O365 C364 1.306 . S
O365 Cd366 2.228 . S
Cd366 O365 2.228 . S
Cd366 O370 2.273 . S
Cd366 O374 2.277 . S
O367 C364 1.160 . S
O367 Cd368 2.203 . S
Cd368 O367 2.203 . S
Cd368 O370 2.411 . S
Cd368 O371 2.333 . S
Cd368 O372 2.352 . S
Cd368 O376 2.277 . S
Cd368 O377 2.356 . S
C369 O374 1.209 . S
C369 O376 1.226 . S
O370 Cd366 2.273 . S
O370 Cd368 2.411 . S
O370 C373 1.320 . S
O371 Cd368 2.333 . S
O371 C373 1.214 . S
O372 Cd368 2.352 . S
O372 C375 1.258 . S
C373 O370 1.320 . S
C373 O371 1.214 . S
O374 Cd366 2.277 . S
O374 C369 1.209 . S
C375 O372 1.258 . S
C375 O377 1.282 . S
O376 Cd368 2.277 . S
O376 C369 1.226 . S
O377 Cd368 2.356 . S
O377 C375 1.282 . S
C378 O379 1.306 . S
C378 O381 1.160 . S
O379 C378 1.306 . S
O379 Cd380 2.228 . S
Cd380 O379 2.228 . S
Cd380 O384 2.273 . S
Cd380 O388 2.277 . S
O381 C378 1.160 . S
O381 Cd382 2.203 . S
Cd382 O381 2.203 . S
Cd382 O384 2.411 . S
Cd382 O385 2.333 . S
Cd382 O386 2.352 . S
Cd382 O390 2.277 . S
Cd382 O391 2.356 . S
C383 O388 1.209 . S
C383 O390 1.226 . S
O384 Cd380 2.273 . S
O384 Cd382 2.411 . S
O384 C387 1.320 . S
O385 Cd382 2.333 . S
O385 C387 1.214 . S
O386 Cd382 2.352 . S
O386 C389 1.258 . S
C387 O384 1.320 . S
C387 O385 1.214 . S
O388 Cd380 2.277 . S
O388 C383 1.209 . S
C389 O386 1.258 . S
C389 O391 1.282 . S
O390 Cd382 2.277 . S
O390 C383 1.226 . S
O391 Cd382 2.356 . S
O391 C389 1.282 . S
C392 O393 1.306 . S
C392 O395 1.160 . S
O393 C392 1.306 . S
O393 Cd394 2.228 . S
Cd394 O393 2.228 . S
Cd394 O398 2.273 . S
Cd394 O402 2.277 . S
O395 C392 1.160 . S
O395 Cd396 2.203 . S
Cd396 O395 2.203 . S
Cd396 O398 2.411 . S
Cd396 O399 2.333 . S
Cd396 O400 2.352 . S
Cd396 O404 2.277 . S
Cd396 O405 2.356 . S
C397 O402 1.209 . S
C397 O404 1.226 . S
O398 Cd394 2.273 . S
O398 Cd396 2.411 . S
O398 C401 1.320 . S
O399 Cd396 2.333 . S
O399 C401 1.214 . S
O400 Cd396 2.352 . S
O400 C403 1.258 . S
C401 O398 1.320 . S
C401 O399 1.214 . S
O402 Cd394 2.277 . S
O402 C397 1.209 . S
C403 O400 1.258 . S
C403 O405 1.282 . S
O404 Cd396 2.277 . S
O404 C397 1.226 . S
O405 Cd396 2.356 . S
O405 C403 1.282 . S
C406 O407 1.306 . S
C406 O409 1.160 . S
O407 C406 1.306 . S
O407 Cd408 2.228 . S
Cd408 O407 2.228 . S
Cd408 O412 2.273 . S
Cd408 O416 2.277 . S
O409 C406 1.160 . S
O409 Cd410 2.203 . S
Cd410 O409 2.203 . S
Cd410 O412 2.411 . S
Cd410 O413 2.333 . S
Cd410 O414 2.352 . S
Cd410 O418 2.277 . S
Cd410 O419 2.356 . S
C411 O416 1.209 . S
C411 O418 1.226 . S
O412 Cd408 2.273 . S
O412 Cd410 2.411 . S
O412 C415 1.320 . S
O413 Cd410 2.333 . S
O413 C415 1.214 . S
O414 Cd410 2.352 . S
O414 C417 1.258 . S
C415 O412 1.320 . S
C415 O413 1.214 . S
O416 Cd408 2.277 . S
O416 C411 1.209 . S
C417 O414 1.258 . S
C417 O419 1.282 . S
O418 Cd410 2.277 . S
O418 C411 1.226 . S
O419 Cd410 2.356 . S
O419 C417 1.282 . S
C420 O421 1.306 . S
C420 O423 1.160 . S
O421 C420 1.306 . S
O421 Cd422 2.228 . S
Cd422 O421 2.228 . S
Cd422 O426 2.273 . S
Cd422 O430 2.277 . S
O423 C420 1.160 . S
O423 Cd424 2.203 . S
Cd424 O423 2.203 . S
Cd424 O426 2.411 . S
Cd424 O427 2.333 1_554 S
Cd424 O428 2.352 . S
Cd424 O432 2.277 . S
Cd424 O433 2.356 . S
C425 O430 1.209 . S
C425 O432 1.226 . S
O426 Cd422 2.273 . S
O426 Cd424 2.411 . S
O426 C429 1.320 1_554 S
O427 Cd424 2.333 1_556 S
O427 C429 1.214 . S
O428 Cd424 2.352 . S
O428 C431 1.258 . S
C429 O426 1.320 1_556 S
C429 O427 1.214 . S
O430 Cd422 2.277 . S
O430 C425 1.209 . S
C431 O428 1.258 . S
C431 O433 1.282 . S
O432 Cd424 2.277 . S
O432 C425 1.226 . S
O433 Cd424 2.356 . S
O433 C431 1.282 . S
C434 O435 1.306 . S
C434 O437 1.160 . S
O435 C434 1.306 . S
O435 Cd436 2.228 . S
Cd436 O435 2.228 . S
Cd436 O440 2.273 . S
Cd436 O444 2.277 . S
O437 C434 1.160 . S
O437 Cd438 2.203 . S
Cd438 O437 2.203 . S
Cd438 O440 2.411 . S
Cd438 O441 2.333 . S
Cd438 O442 2.352 . S
Cd438 O446 2.277 . S
Cd438 O447 2.356 . S
C439 O444 1.209 . S
C439 O446 1.226 . S
O440 Cd436 2.273 . S
O440 Cd438 2.411 . S
O440 C443 1.320 . S
O441 Cd438 2.333 . S
O441 C443 1.214 . S
O442 Cd438 2.352 . S
O442 C445 1.258 . S
C443 O440 1.320 . S
C443 O441 1.214 . S
O444 Cd436 2.277 . S
O444 C439 1.209 . S
C445 O442 1.258 . S
C445 O447 1.282 . S
O446 Cd438 2.277 . S
O446 C439 1.226 . S
O447 Cd438 2.356 . S
O447 C445 1.282 . S
H448 C466 0.951 . S
H449 C468 0.951 . S
H450 C470 0.950 . S
H451 C471 0.950 . S
H452 C473 0.950 . S
H453 C476 0.950 . S
H454 C477 0.950 . S
H455 C479 0.950 . S
H456 C480 0.950 . S
H457 C481 0.951 . S
H458 C483 0.951 1_556 S
H459 C485 0.950 . S
H460 C486 0.950 . S
H461 C488 0.950 . S
H462 C491 0.950 . S
H463 C492 0.950 . S
H464 C494 0.950 . S
H465 C495 0.950 1_556 S
C466 H448 0.951 . S
C466 C467 1.366 . S
C466 C468 1.388 . S
C467 C466 1.366 . S
C467 C471 1.385 . S
C468 H449 0.951 . S
C468 C466 1.388 . S
C468 C469 1.366 . S
C469 C468 1.366 . S
C469 C470 1.414 . S
C469 C472 1.499 . S
C470 H450 0.950 . S
C470 C469 1.414 . S
C470 C471 1.374 . S
C471 H451 0.950 . S
C471 C467 1.385 . S
C471 C470 1.374 . S
C472 C469 1.499 . S
C472 C473 1.373 . S
C472 C474 1.389 . S
C473 H452 0.950 . S
C473 C472 1.373 . S
C473 C489 1.377 . S
C474 C472 1.389 . S
C474 C475 1.524 . S
C474 C488 1.377 . S
C475 C474 1.524 . S
C475 C476 1.397 . S
C475 C480 1.363 . S
C476 H453 0.950 . S
C476 C475 1.397 . S
C476 C477 1.334 . S
C477 H454 0.950 . S
C477 C476 1.334 . S
C477 C478 1.287 . S
C478 C477 1.287 . S
C478 C479 1.524 . S
C478 H497 0.913 . S
C479 H455 0.950 . S
C479 C478 1.524 . S
C479 C480 1.415 . S
C480 H456 0.950 . S
C480 C475 1.363 . S
C480 C479 1.415 . S
C481 H457 0.951 . S
C481 C482 1.366 . S
C481 C483 1.388 . S
C482 C481 1.366 . S
C482 C486 1.385 . S
C483 H458 0.951 1_554 S
C483 C481 1.388 . S
C483 C484 1.366 . S
C484 C483 1.366 . S
C484 C485 1.414 . S
C484 C487 1.499 1_554 S
C485 H459 0.950 . S
C485 C484 1.414 . S
C485 C486 1.374 . S
C486 H460 0.950 . S
C486 C482 1.385 . S
C486 C485 1.374 . S
C487 C484 1.499 1_556 S
C487 C488 1.373 . S
C487 C489 1.389 . S
C488 H461 0.950 . S
C488 C474 1.377 . S
C488 C487 1.373 . S
C489 C473 1.377 . S
C489 C487 1.389 . S
C489 C490 1.524 1_556 S
C490 C489 1.524 1_554 S
C490 C491 1.397 . S
C490 C495 1.363 . S
C491 H462 0.950 . S
C491 C490 1.397 . S
C491 C492 1.334 . S
C492 H463 0.950 . S
C492 C491 1.334 . S
C492 C493 1.287 . S
C493 C492 1.287 . S
C493 C494 1.524 . S
C493 H496 0.999 . S
C494 H464 0.950 . S
C494 C493 1.524 . S
C494 C495 1.415 . S
C495 H465 0.950 1_554 S
C495 C490 1.363 . S
C495 C494 1.415 . S
H496 C493 0.999 . S
H497 C478 0.913 . S
H498 C516 0.951 . S
H499 C518 0.951 . S
H500 C520 0.950 . S
H501 C521 0.950 . S
H502 C523 0.950 . S
H503 C526 0.950 . S
H504 C527 0.950 . S
H505 C529 0.950 . S
H506 C530 0.950 . S
H507 C531 0.951 . S
H508 C533 0.951 . S
H509 C535 0.950 . S
H510 C536 0.950 . S
H511 C538 0.950 . S
H512 C541 0.950 . S
H513 C542 0.950 . S
H514 C544 0.950 . S
H515 C545 0.950 . S
C516 H498 0.951 . S
C516 C517 1.366 . S
C516 C518 1.388 . S
C517 C516 1.366 . S
C517 C521 1.385 . S
C518 H499 0.951 . S
C518 C516 1.388 . S
C518 C519 1.366 . S
C519 C518 1.366 . S
C519 C520 1.414 . S
C519 C522 1.499 . S
C520 H500 0.950 . S
C520 C519 1.414 . S
C520 C521 1.374 . S
C521 H501 0.950 . S
C521 C517 1.385 . S
C521 C520 1.374 . S
C522 C519 1.499 . S
C522 C523 1.373 . S
C522 C524 1.389 . S
C523 H502 0.950 . S
C523 C522 1.373 . S
C523 C539 1.377 . S
C524 C522 1.389 . S
C524 C525 1.524 . S
C524 C538 1.377 . S
C525 C524 1.524 . S
C525 C526 1.397 . S
C525 C530 1.363 . S
C526 H503 0.950 . S
C526 C525 1.397 . S
C526 C527 1.334 . S
C527 H504 0.950 . S
C527 C526 1.334 . S
C527 C528 1.287 . S
C528 C527 1.287 . S
C528 C529 1.524 . S
C528 H547 0.913 . S
C529 H505 0.950 . S
C529 C528 1.524 . S
C529 C530 1.415 . S
C530 H506 0.950 . S
C530 C525 1.363 . S
C530 C529 1.415 . S
C531 H507 0.951 . S
C531 C532 1.366 . S
C531 C533 1.388 . S
C532 C531 1.366 . S
C532 C536 1.385 . S
C533 H508 0.951 . S
C533 C531 1.388 . S
C533 C534 1.366 . S
C534 C533 1.366 . S
C534 C535 1.414 . S
C534 C537 1.499 . S
C535 H509 0.950 . S
C535 C534 1.414 . S
C535 C536 1.374 . S
C536 H510 0.950 . S
C536 C532 1.385 . S
C536 C535 1.374 . S
C537 C534 1.499 . S
C537 C538 1.373 . S
C537 C539 1.389 . S
C538 H511 0.950 . S
C538 C524 1.377 . S
C538 C537 1.373 . S
C539 C523 1.377 . S
C539 C537 1.389 . S
C539 C540 1.524 . S
C540 C539 1.524 . S
C540 C541 1.397 . S
C540 C545 1.363 . S
C541 H512 0.950 . S
C541 C540 1.397 . S
C541 C542 1.334 . S
C542 H513 0.950 . S
C542 C541 1.334 . S
C542 C543 1.287 . S
C543 C542 1.287 . S
C543 C544 1.524 . S
C543 H546 0.999 . S
C544 H514 0.950 . S
C544 C543 1.524 . S
C544 C545 1.415 . S
C545 H515 0.950 . S
C545 C540 1.363 . S
C545 C544 1.415 . S
H546 C543 0.999 . S
H547 C528 0.913 . S
H548 C566 0.951 . S
H549 C568 0.951 . S
H550 C570 0.950 . S
H551 C571 0.950 . S
H552 C573 0.950 . S
H553 C576 0.950 . S
H554 C577 0.950 . S
H555 C579 0.950 . S
H556 C580 0.950 . S
H557 C581 0.951 . S
H558 C583 0.951 . S
H559 C585 0.950 . S
H560 C586 0.950 . S
H561 C588 0.950 . S
H562 C591 0.950 . S
H563 C592 0.950 . S
H564 C594 0.950 . S
H565 C595 0.950 . S
C566 H548 0.951 . S
C566 C567 1.366 . S
C566 C568 1.388 . S
C567 C566 1.366 . S
C567 C571 1.385 . S
C568 H549 0.951 . S
C568 C566 1.388 . S
C568 C569 1.366 . S
C569 C568 1.366 . S
C569 C570 1.414 . S
C569 C572 1.499 . S
C570 H550 0.950 . S
C570 C569 1.414 . S
C570 C571 1.374 . S
C571 H551 0.950 . S
C571 C567 1.385 . S
C571 C570 1.374 . S
C572 C569 1.499 . S
C572 C573 1.373 . S
C572 C574 1.389 . S
C573 H552 0.950 . S
C573 C572 1.373 . S
C573 C589 1.377 . S
C574 C572 1.389 . S
C574 C575 1.524 . S
C574 C588 1.377 . S
C575 C574 1.524 . S
C575 C576 1.397 . S
C575 C580 1.363 . S
C576 H553 0.950 . S
C576 C575 1.397 . S
C576 C577 1.334 . S
C577 H554 0.950 . S
C577 C576 1.334 . S
C577 C578 1.287 . S
C578 C577 1.287 . S
C578 C579 1.524 . S
C578 H597 0.913 . S
C579 H555 0.950 . S
C579 C578 1.524 . S
C579 C580 1.415 . S
C580 H556 0.950 . S
C580 C575 1.363 . S
C580 C579 1.415 . S
C581 H557 0.951 . S
C581 C582 1.366 . S
C581 C583 1.388 . S
C582 C581 1.366 . S
C582 C586 1.385 . S
C583 H558 0.951 . S
C583 C581 1.388 . S
C583 C584 1.366 . S
C584 C583 1.366 . S
C584 C585 1.414 . S
C584 C587 1.499 . S
C585 H559 0.950 . S
C585 C584 1.414 . S
C585 C586 1.374 . S
C586 H560 0.950 . S
C586 C582 1.385 . S
C586 C585 1.374 . S
C587 C584 1.499 . S
C587 C588 1.373 . S
C587 C589 1.389 . S
C588 H561 0.950 . S
C588 C574 1.377 . S
C588 C587 1.373 . S
C589 C573 1.377 . S
C589 C587 1.389 . S
C589 C590 1.524 . S
C590 C589 1.524 . S
C590 C591 1.397 . S
C590 C595 1.363 . S
C591 H562 0.950 . S
C591 C590 1.397 . S
C591 C592 1.334 . S
C592 H563 0.950 . S
C592 C591 1.334 . S
C592 C593 1.287 . S
C593 C592 1.287 . S
C593 C594 1.524 . S
C593 H596 0.999 . S
C594 H564 0.950 . S
C594 C593 1.524 . S
C594 C595 1.415 . S
C595 H565 0.950 . S
C595 C590 1.363 . S
C595 C594 1.415 . S
H596 C593 0.999 . S
H597 C578 0.913 . S
H598 C616 0.951 . S
H599 C618 0.951 . S
H600 C620 0.950 . S
H601 C621 0.950 . S
H602 C623 0.950 . S
H603 C626 0.950 . S
H604 C627 0.950 . S
H605 C629 0.950 . S
H606 C630 0.950 . S
H607 C631 0.951 . S
H608 C633 0.951 . S
H609 C635 0.950 . S
H610 C636 0.950 . S
H611 C638 0.950 . S
H612 C641 0.950 . S
H613 C642 0.950 . S
H614 C644 0.950 . S
H615 C645 0.950 . S
C616 H598 0.951 . S
C616 C617 1.366 . S
C616 C618 1.388 . S
C617 C616 1.366 . S
C617 C621 1.385 . S
C618 H599 0.951 . S
C618 C616 1.388 . S
C618 C619 1.366 . S
C619 C618 1.366 . S
C619 C620 1.414 . S
C619 C622 1.499 . S
C620 H600 0.950 . S
C620 C619 1.414 . S
C620 C621 1.374 . S
C621 H601 0.950 . S
C621 C617 1.385 . S
C621 C620 1.374 . S
C622 C619 1.499 . S
C622 C623 1.373 . S
C622 C624 1.389 . S
C623 H602 0.950 . S
C623 C622 1.373 . S
C623 C639 1.377 . S
C624 C622 1.389 . S
C624 C625 1.524 . S
C624 C638 1.377 . S
C625 C624 1.524 . S
C625 C626 1.397 . S
C625 C630 1.363 . S
C626 H603 0.950 . S
C626 C625 1.397 . S
C626 C627 1.334 . S
C627 H604 0.950 . S
C627 C626 1.334 . S
C627 C628 1.287 . S
C628 C627 1.287 . S
C628 C629 1.524 . S
C628 H647 0.913 . S
C629 H605 0.950 . S
C629 C628 1.524 . S
C629 C630 1.415 . S
C630 H606 0.950 . S
C630 C625 1.363 . S
C630 C629 1.415 . S
C631 H607 0.951 . S
C631 C632 1.366 . S
C631 C633 1.388 . S
C632 C631 1.366 . S
C632 C636 1.385 . S
C633 H608 0.951 . S
C633 C631 1.388 . S
C633 C634 1.366 . S
C634 C633 1.366 . S
C634 C635 1.414 . S
C634 C637 1.499 . S
C635 H609 0.950 . S
C635 C634 1.414 . S
C635 C636 1.374 . S
C636 H610 0.950 . S
C636 C632 1.385 . S
C636 C635 1.374 . S
C637 C634 1.499 . S
C637 C638 1.373 . S
C637 C639 1.389 . S
C638 H611 0.950 . S
C638 C624 1.377 . S
C638 C637 1.373 . S
C639 C623 1.377 . S
C639 C637 1.389 . S
C639 C640 1.524 . S
C640 C639 1.524 . S
C640 C641 1.397 . S
C640 C645 1.363 . S
C641 H612 0.950 . S
C641 C640 1.397 . S
C641 C642 1.334 . S
C642 H613 0.950 . S
C642 C641 1.334 . S
C642 C643 1.287 . S
C643 C642 1.287 . S
C643 C644 1.524 . S
C643 H646 0.999 . S
C644 H614 0.950 . S
C644 C643 1.524 . S
C644 C645 1.415 . S
C645 H615 0.950 . S
C645 C640 1.363 . S
C645 C644 1.415 . S
H646 C643 0.999 . S
H647 C628 0.913 . S
H648 C666 0.951 . S
H649 C668 0.951 . S
H650 C670 0.950 . S
H651 C671 0.950 . S
H652 C673 0.950 . S
H653 C676 0.950 . S
H654 C677 0.950 . S
H655 C679 0.950 . S
H656 C680 0.950 . S
H657 C681 0.951 . S
H658 C683 0.951 . S
H659 C685 0.950 . S
H660 C686 0.950 . S
H661 C688 0.950 . S
H662 C691 0.950 . S
H663 C692 0.950 . S
H664 C694 0.950 . S
H665 C695 0.950 . S
C666 H648 0.951 . S
C666 C667 1.366 . S
C666 C668 1.388 . S
C667 C666 1.366 . S
C667 C671 1.385 . S
C668 H649 0.951 . S
C668 C666 1.388 . S
C668 C669 1.366 . S
C669 C668 1.366 . S
C669 C670 1.414 . S
C669 C672 1.499 . S
C670 H650 0.950 . S
C670 C669 1.414 . S
C670 C671 1.374 . S
C671 H651 0.950 . S
C671 C667 1.385 . S
C671 C670 1.374 . S
C672 C669 1.499 . S
C672 C673 1.373 . S
C672 C674 1.389 . S
C673 H652 0.950 . S
C673 C672 1.373 . S
C673 C689 1.377 . S
C674 C672 1.389 . S
C674 C675 1.524 . S
C674 C688 1.377 . S
C675 C674 1.524 . S
C675 C676 1.397 . S
C675 C680 1.363 . S
C676 H653 0.950 . S
C676 C675 1.397 . S
C676 C677 1.334 . S
C677 H654 0.950 . S
C677 C676 1.334 . S
C677 C678 1.287 . S
C678 C677 1.287 . S
C678 C679 1.524 . S
C678 H697 0.913 . S
C679 H655 0.950 . S
C679 C678 1.524 . S
C679 C680 1.415 . S
C680 H656 0.950 . S
C680 C675 1.363 . S
C680 C679 1.415 . S
C681 H657 0.951 . S
C681 C682 1.366 . S
C681 C683 1.388 . S
C682 C681 1.366 . S
C682 C686 1.385 . S
C683 H658 0.951 . S
C683 C681 1.388 . S
C683 C684 1.366 . S
C684 C683 1.366 . S
C684 C685 1.414 . S
C684 C687 1.499 . S
C685 H659 0.950 . S
C685 C684 1.414 . S
C685 C686 1.374 . S
C686 H660 0.950 . S
C686 C682 1.385 . S
C686 C685 1.374 . S
C687 C684 1.499 . S
C687 C688 1.373 . S
C687 C689 1.389 . S
C688 H661 0.950 . S
C688 C674 1.377 . S
C688 C687 1.373 . S
C689 C673 1.377 . S
C689 C687 1.389 . S
C689 C690 1.524 . S
C690 C689 1.524 . S
C690 C691 1.397 . S
C690 C695 1.363 . S
C691 H662 0.950 . S
C691 C690 1.397 . S
C691 C692 1.334 . S
C692 H663 0.950 . S
C692 C691 1.334 . S
C692 C693 1.287 . S
C693 C692 1.287 . S
C693 C694 1.524 . S
C693 H696 0.999 . S
C694 H664 0.950 . S
C694 C693 1.524 . S
C694 C695 1.415 . S
C695 H665 0.950 . S
C695 C690 1.363 . S
C695 C694 1.415 . S
H696 C693 0.999 . S
H697 C678 0.913 . S
H698 C716 0.951 . S
H699 C718 0.951 . S
H700 C720 0.950 . S
H701 C721 0.950 . S
H702 C723 0.950 . S
H703 C726 0.950 . S
H704 C727 0.950 . S
H705 C729 0.950 1_554 S
H706 C730 0.950 1_554 S
H707 C731 0.953 . S
H708 C733 0.951 . S
H709 C735 0.950 . S
H710 C736 0.950 . S
H711 C738 0.950 . S
H712 C741 0.950 . S
H713 C742 0.950 . S
H714 C744 0.950 . S
H715 C745 0.950 . S
C716 H698 0.951 . S
C716 C717 1.366 . S
C716 C718 1.388 . S
C717 C716 1.366 . S
C717 C721 1.385 . S
C718 H699 0.951 . S
C718 C716 1.388 . S
C718 C719 1.366 . S
C719 C718 1.366 . S
C719 C720 1.414 . S
C719 C722 1.499 . S
C720 H700 0.950 . S
C720 C719 1.414 . S
C720 C721 1.374 . S
C721 H701 0.950 . S
C721 C717 1.385 . S
C721 C720 1.374 . S
C722 C719 1.499 . S
C722 C723 1.373 . S
C722 C724 1.389 . S
C723 H702 0.950 . S
C723 C722 1.373 . S
C723 C739 1.377 . S
C724 C722 1.389 . S
C724 C725 1.524 . S
C724 C738 1.377 . S
C725 C724 1.524 . S
C725 C726 1.397 . S
C725 C730 1.363 . S
C726 H703 0.950 . S
C726 C725 1.397 . S
C726 C727 1.334 . S
C727 H704 0.950 . S
C727 C726 1.334 . S
C727 C728 1.287 . S
C728 C727 1.287 . S
C728 C729 1.524 . S
C728 H747 0.913 . S
C729 H705 0.950 1_556 S
C729 C728 1.524 . S
C729 C730 1.415 . S
C730 H706 0.950 1_556 S
C730 C725 1.363 . S
C730 C729 1.415 . S
C731 H707 0.953 . S
C731 C732 1.362 1_556 S
C731 C733 1.390 . S
C732 C731 1.362 1_554 S
C732 C736 1.385 . S
C733 H708 0.951 . S
C733 C731 1.390 . S
C733 C734 1.362 1_556 S
C734 C733 1.362 1_554 S
C734 C735 1.422 . S
C734 C737 1.495 1_554 S
C735 H709 0.950 . S
C735 C734 1.422 . S
C735 C736 1.374 . S
C736 H710 0.950 . S
C736 C732 1.385 . S
C736 C735 1.374 . S
C737 C734 1.495 1_556 S
C737 C738 1.373 . S
C737 C739 1.389 . S
C738 H711 0.950 . S
C738 C724 1.377 . S
C738 C737 1.373 . S
C739 C723 1.377 . S
C739 C737 1.389 . S
C739 C740 1.524 . S
C740 C739 1.524 . S
C740 C741 1.397 1_556 S
C740 C745 1.363 . S
C741 H712 0.950 . S
C741 C740 1.397 1_554 S
C741 C742 1.334 . S
C742 H713 0.950 . S
C742 C741 1.334 . S
C742 C743 1.287 1_554 S
C743 C742 1.287 1_556 S
C743 C744 1.524 . S
C743 H746 0.999 . S
C744 H714 0.950 . S
C744 C743 1.524 . S
C744 C745 1.415 . S
C745 H715 0.950 . S
C745 C740 1.363 . S
C745 C744 1.415 . S
H746 C743 0.999 . S
H747 C728 0.913 . S
H748 C766 0.951 . S
H749 C768 0.951 . S
H750 C770 0.950 . S
H751 C771 0.950 . S
H752 C773 0.950 . S
H753 C776 0.950 . S
H754 C777 0.950 . S
H755 C779 0.950 . S
H756 C780 0.950 . S
H757 C781 0.951 . S
H758 C783 0.951 . S
H759 C785 0.950 . S
H760 C786 0.950 . S
H761 C788 0.950 . S
H762 C791 0.950 . S
H763 C792 0.950 . S
H764 C794 0.950 . S
H765 C795 0.950 . S
C766 H748 0.951 . S
C766 C767 1.366 . S
C766 C768 1.388 . S
C767 C766 1.366 . S
C767 C771 1.385 . S
C768 H749 0.951 . S
C768 C766 1.388 . S
C768 C769 1.366 . S
C769 C768 1.366 . S
C769 C770 1.414 . S
C769 C772 1.499 . S
C770 H750 0.950 . S
C770 C769 1.414 . S
C770 C771 1.374 . S
C771 H751 0.950 . S
C771 C767 1.385 . S
C771 C770 1.374 . S
C772 C769 1.499 . S
C772 C773 1.373 . S
C772 C774 1.389 . S
C773 H752 0.950 . S
C773 C772 1.373 . S
C773 C789 1.377 . S
C774 C772 1.389 . S
C774 C775 1.524 . S
C774 C788 1.377 . S
C775 C774 1.524 . S
C775 C776 1.397 . S
C775 C780 1.363 . S
C776 H753 0.950 . S
C776 C775 1.397 . S
C776 C777 1.334 . S
C777 H754 0.950 . S
C777 C776 1.334 . S
C777 C778 1.287 . S
C778 C777 1.287 . S
C778 C779 1.524 . S
C778 H797 0.913 . S
C779 H755 0.950 . S
C779 C778 1.524 . S
C779 C780 1.415 . S
C780 H756 0.950 . S
C780 C775 1.363 . S
C780 C779 1.415 . S
C781 H757 0.951 . S
C781 C782 1.366 . S
C781 C783 1.388 . S
C782 C781 1.366 . S
C782 C786 1.385 . S
C783 H758 0.951 . S
C783 C781 1.388 . S
C783 C784 1.366 . S
C784 C783 1.366 . S
C784 C785 1.414 . S
C784 C787 1.499 . S
C785 H759 0.950 . S
C785 C784 1.414 . S
C785 C786 1.374 . S
C786 H760 0.950 . S
C786 C782 1.385 . S
C786 C785 1.374 . S
C787 C784 1.499 . S
C787 C788 1.373 . S
C787 C789 1.389 . S
C788 H761 0.950 . S
C788 C774 1.377 . S
C788 C787 1.373 . S
C789 C773 1.377 . S
C789 C787 1.389 . S
C789 C790 1.524 . S
C790 C789 1.524 . S
C790 C791 1.397 . S
C790 C795 1.363 . S
C791 H762 0.950 . S
C791 C790 1.397 . S
C791 C792 1.334 . S
C792 H763 0.950 . S
C792 C791 1.334 . S
C792 C793 1.287 . S
C793 C792 1.287 . S
C793 C794 1.524 . S
C793 H796 0.999 . S
C794 H764 0.950 . S
C794 C793 1.524 . S
C794 C795 1.415 . S
C795 H765 0.950 . S
C795 C790 1.363 . S
C795 C794 1.415 . S
H796 C793 0.999 . S
H797 C778 0.913 . S
H798 C816 0.951 . S
H799 C818 0.951 . S
H800 C820 0.950 . S
H801 C821 0.950 . S
H802 C823 0.950 . S
H803 C826 0.950 . S
H804 C827 0.950 . S
H805 C829 0.950 . S
H806 C830 0.950 . S
H807 C831 0.951 . S
H808 C833 0.951 . S
H809 C835 0.950 . S
H810 C836 0.950 . S
H811 C838 0.950 . S
H812 C841 0.950 . S
H813 C842 0.950 . S
H814 C844 0.950 . S
H815 C845 0.950 . S
C816 H798 0.951 . S
C816 C817 1.366 . S
C816 C818 1.388 . S
C817 C816 1.366 . S
C817 C821 1.385 . S
C818 H799 0.951 . S
C818 C816 1.388 . S
C818 C819 1.366 . S
C819 C818 1.366 . S
C819 C820 1.414 . S
C819 C822 1.499 . S
C820 H800 0.950 . S
C820 C819 1.414 . S
C820 C821 1.374 . S
C821 H801 0.950 . S
C821 C817 1.385 . S
C821 C820 1.374 . S
C822 C819 1.499 . S
C822 C823 1.373 . S
C822 C824 1.389 . S
C823 H802 0.950 . S
C823 C822 1.373 . S
C823 C839 1.377 . S
C824 C822 1.389 . S
C824 C825 1.524 . S
C824 C838 1.377 . S
C825 C824 1.524 . S
C825 C826 1.397 . S
C825 C830 1.363 . S
C826 H803 0.950 . S
C826 C825 1.397 . S
C826 C827 1.334 . S
C827 H804 0.950 . S
C827 C826 1.334 . S
C827 C828 1.287 . S
C828 C827 1.287 . S
C828 C829 1.524 . S
C828 H847 0.913 . S
C829 H805 0.950 . S
C829 C828 1.524 . S
C829 C830 1.415 . S
C830 H806 0.950 . S
C830 C825 1.363 . S
C830 C829 1.415 . S
C831 H807 0.951 . S
C831 C832 1.366 . S
C831 C833 1.388 . S
C832 C831 1.366 . S
C832 C836 1.385 . S
C833 H808 0.951 . S
C833 C831 1.388 . S
C833 C834 1.366 . S
C834 C833 1.366 . S
C834 C835 1.414 . S
C834 C837 1.499 . S
C835 H809 0.950 . S
C835 C834 1.414 . S
C835 C836 1.374 . S
C836 H810 0.950 . S
C836 C832 1.385 . S
C836 C835 1.374 . S
C837 C834 1.499 . S
C837 C838 1.373 . S
C837 C839 1.389 . S
C838 H811 0.950 . S
C838 C824 1.377 . S
C838 C837 1.373 . S
C839 C823 1.377 . S
C839 C837 1.389 . S
C839 C840 1.524 . S
C840 C839 1.524 . S
C840 C841 1.397 . S
C840 C845 1.363 . S
C841 H812 0.950 . S
C841 C840 1.397 . S
C841 C842 1.334 . S
C842 H813 0.950 . S
C842 C841 1.334 . S
C842 C843 1.287 . S
C843 C842 1.287 . S
C843 C844 1.524 . S
C843 H846 0.999 . S
C844 H814 0.950 . S
C844 C843 1.524 . S
C844 C845 1.415 . S
C845 H815 0.950 . S
C845 C840 1.363 . S
C845 C844 1.415 . S
H846 C843 0.999 . S
H847 C828 0.913 . S
H848 C866 0.951 . S
H849 C868 0.951 . S
H850 C870 0.950 . S
H851 C871 0.950 . S
H852 C873 0.950 . S
H853 C876 0.950 . S
H854 C877 0.950 . S
H855 C879 0.950 . S
H856 C880 0.950 . S
H857 C881 0.951 . S
H858 C883 0.951 . S
H859 C885 0.950 . S
H860 C886 0.950 . S
H861 C888 0.950 . S
H862 C891 0.950 . S
H863 C892 0.950 . S
H864 C894 0.950 . S
H865 C895 0.950 . S
C866 H848 0.951 . S
C866 C867 1.366 . S
C866 C868 1.388 . S
C867 C866 1.366 . S
C867 C871 1.385 . S
C868 H849 0.951 . S
C868 C866 1.388 . S
C868 C869 1.366 . S
C869 C868 1.366 . S
C869 C870 1.414 . S
C869 C872 1.499 . S
C870 H850 0.950 . S
C870 C869 1.414 . S
C870 C871 1.374 . S
C871 H851 0.950 . S
C871 C867 1.385 . S
C871 C870 1.374 . S
C872 C869 1.499 . S
C872 C873 1.373 . S
C872 C874 1.389 . S
C873 H852 0.950 . S
C873 C872 1.373 . S
C873 C889 1.377 . S
C874 C872 1.389 . S
C874 C875 1.524 . S
C874 C888 1.377 . S
C875 C874 1.524 . S
C875 C876 1.397 . S
C875 C880 1.363 . S
C876 H853 0.950 . S
C876 C875 1.397 . S
C876 C877 1.334 . S
C877 H854 0.950 . S
C877 C876 1.334 . S
C877 C878 1.287 . S
C878 C877 1.287 . S
C878 C879 1.524 . S
C878 H897 0.913 . S
C879 H855 0.950 . S
C879 C878 1.524 . S
C879 C880 1.415 . S
C880 H856 0.950 . S
C880 C875 1.363 . S
C880 C879 1.415 . S
C881 H857 0.951 . S
C881 C882 1.366 . S
C881 C883 1.388 . S
C882 C881 1.366 . S
C882 C886 1.385 . S
C883 H858 0.951 . S
C883 C881 1.388 . S
C883 C884 1.366 . S
C884 C883 1.366 . S
C884 C885 1.414 . S
C884 C887 1.499 . S
C885 H859 0.950 . S
C885 C884 1.414 . S
C885 C886 1.374 . S
C886 H860 0.950 . S
C886 C882 1.385 . S
C886 C885 1.374 . S
C887 C884 1.499 . S
C887 C888 1.373 . S
C887 C889 1.389 . S
C888 H861 0.950 . S
C888 C874 1.377 . S
C888 C887 1.373 . S
C889 C873 1.377 . S
C889 C887 1.389 . S
C889 C890 1.524 . S
C890 C889 1.524 . S
C890 C891 1.397 . S
C890 C895 1.363 . S
C891 H862 0.950 . S
C891 C890 1.397 . S
C891 C892 1.334 . S
C892 H863 0.950 . S
C892 C891 1.334 . S
C892 C893 1.287 . S
C893 C892 1.287 . S
C893 C894 1.524 . S
C893 H896 0.999 . S
C894 H864 0.950 . S
C894 C893 1.524 . S
C894 C895 1.415 . S
C895 H865 0.950 . S
C895 C890 1.363 . S
C895 C894 1.415 . S
H896 C893 0.999 . S
H897 C878 0.913 . S
H898 C916 0.951 . S
H899 C918 0.951 . S
H900 C920 0.950 . S
H901 C921 0.950 . S
H902 C923 0.950 . S
H903 C926 0.950 . S
H904 C927 0.950 . S
H905 C929 0.950 . S
H906 C930 0.950 . S
H907 C931 0.951 . S
H908 C933 0.951 . S
H909 C935 0.950 . S
H910 C936 0.950 . S
H911 C938 0.950 . S
H912 C941 0.950 . S
H913 C942 0.950 . S
H914 C944 0.950 . S
H915 C945 0.950 . S
C916 H898 0.951 . S
C916 C917 1.366 . S
C916 C918 1.388 . S
C917 C916 1.366 . S
C917 C921 1.385 . S
C918 H899 0.951 . S
C918 C916 1.388 . S
C918 C919 1.366 . S
C919 C918 1.366 . S
C919 C920 1.414 . S
C919 C922 1.499 . S
C920 H900 0.950 . S
C920 C919 1.414 . S
C920 C921 1.374 . S
C921 H901 0.950 . S
C921 C917 1.385 . S
C921 C920 1.374 . S
C922 C919 1.499 . S
C922 C923 1.373 . S
C922 C924 1.389 . S
C923 H902 0.950 . S
C923 C922 1.373 . S
C923 C939 1.377 . S
C924 C922 1.389 . S
C924 C925 1.524 . S
C924 C938 1.377 . S
C925 C924 1.524 . S
C925 C926 1.397 . S
C925 C930 1.363 . S
C926 H903 0.950 . S
C926 C925 1.397 . S
C926 C927 1.334 . S
C927 H904 0.950 . S
C927 C926 1.334 . S
C927 C928 1.287 . S
C928 C927 1.287 . S
C928 C929 1.524 . S
C928 H947 0.913 . S
C929 H905 0.950 . S
C929 C928 1.524 . S
C929 C930 1.415 . S
C930 H906 0.950 . S
C930 C925 1.363 . S
C930 C929 1.415 . S
C931 H907 0.951 . S
C931 C932 1.366 . S
C931 C933 1.388 . S
C932 C931 1.366 . S
C932 C936 1.385 . S
C933 H908 0.951 . S
C933 C931 1.388 . S
C933 C934 1.366 . S
C934 C933 1.366 . S
C934 C935 1.414 . S
C934 C937 1.499 . S
C935 H909 0.950 . S
C935 C934 1.414 . S
C935 C936 1.374 . S
C936 H910 0.950 . S
C936 C932 1.385 . S
C936 C935 1.374 . S
C937 C934 1.499 . S
C937 C938 1.373 . S
C937 C939 1.389 . S
C938 H911 0.950 . S
C938 C924 1.377 . S
C938 C937 1.373 . S
C939 C923 1.377 . S
C939 C937 1.389 . S
C939 C940 1.524 . S
C940 C939 1.524 . S
C940 C941 1.397 . S
C940 C945 1.363 . S
C941 H912 0.950 . S
C941 C940 1.397 . S
C941 C942 1.334 . S
C942 H913 0.950 . S
C942 C941 1.334 . S
C942 C943 1.287 . S
C943 C942 1.287 . S
C943 C944 1.524 . S
C943 H946 0.999 . S
C944 H914 0.950 . S
C944 C943 1.524 . S
C944 C945 1.415 . S
C945 H915 0.950 . S
C945 C940 1.363 . S
C945 C944 1.415 . S
H946 C943 0.999 . S
H947 C928 0.913 . S
H948 C966 0.951 . S
H949 C968 0.951 . S
H950 C970 0.950 . S
H951 C971 0.950 . S
H952 C973 0.950 . S
H953 C976 0.950 . S
H954 C977 0.950 . S
H955 C979 0.950 . S
H956 C980 0.946 1_556 S
H957 C981 0.951 . S
H958 C983 0.951 . S
H959 C985 0.950 . S
H960 C986 0.950 . S
H961 C988 0.950 1_554 S
H962 C991 0.950 . S
H963 C992 0.950 . S
H964 C994 0.950 . S
H965 C995 0.950 . S
C966 H948 0.951 . S
C966 C967 1.366 . S
C966 C968 1.388 . S
C967 C966 1.366 . S
C967 C971 1.385 . S
C968 H949 0.951 . S
C968 C966 1.388 . S
C968 C969 1.366 . S
C969 C968 1.366 . S
C969 C970 1.414 . S
C969 C972 1.499 . S
C970 H950 0.950 . S
C970 C969 1.414 . S
C970 C971 1.374 . S
C971 H951 0.950 . S
C971 C967 1.385 . S
C971 C970 1.374 . S
C972 C969 1.499 . S
C972 C973 1.373 . S
C972 C974 1.389 . S
C973 H952 0.950 . S
C973 C972 1.373 . S
C973 C989 1.377 . S
C974 C972 1.389 . S
C974 C975 1.524 . S
C974 C988 1.377 . S
C975 C974 1.524 . S
C975 C976 1.397 1_556 S
C975 C980 1.363 1_556 S
C976 H953 0.950 . S
C976 C975 1.397 1_554 S
C976 C977 1.334 . S
C977 H954 0.950 . S
C977 C976 1.334 . S
C977 C978 1.287 . S
C978 C977 1.287 . S
C978 C979 1.524 . S
C978 H997 0.913 . S
C979 H955 0.950 . S
C979 C978 1.524 . S
C979 C980 1.415 . S
C980 H956 0.946 1_554 S
C980 C975 1.363 1_554 S
C980 C979 1.415 . S
C981 H957 0.951 . S
C981 C982 1.366 . S
C981 C983 1.388 . S
C982 C981 1.366 . S
C982 C986 1.385 . S
C983 H958 0.951 . S
C983 C981 1.388 . S
C983 C984 1.366 1_554 S
C984 C983 1.366 1_556 S
C984 C985 1.414 1_556 S
C984 C987 1.499 . S
C985 H959 0.950 . S
C985 C984 1.414 1_554 S
C985 C986 1.374 . S
C986 H960 0.950 . S
C986 C982 1.385 . S
C986 C985 1.374 . S
C987 C984 1.499 . S
C987 C988 1.373 . S
C987 C989 1.389 . S
C988 H961 0.950 1_556 S
C988 C974 1.377 . S
C988 C987 1.373 . S
C989 C973 1.377 . S
C989 C987 1.389 . S
C989 C990 1.524 . S
C990 C989 1.524 . S
C990 C991 1.397 . S
C990 C995 1.363 . S
C991 H962 0.950 . S
C991 C990 1.397 . S
C991 C992 1.334 . S
C992 H963 0.950 . S
C992 C991 1.334 . S
C992 C993 1.287 . S
C993 C992 1.287 . S
C993 C994 1.524 . S
C993 H996 0.999 . S
C994 H964 0.950 . S
C994 C993 1.524 . S
C994 C995 1.415 . S
C995 H965 0.950 . S
C995 C990 1.363 . S
C995 C994 1.415 . S
H996 C993 0.999 . S
H997 C978 0.913 . S
H998 C1016 0.951 . S
H999 C1018 0.951 . S
H1000 C1020 0.950 . S
H1001 C1021 0.950 . S
H1002 C1023 0.950 . S
H1003 C1026 0.950 . S
H1004 C1027 0.950 . S
H1005 C1029 0.950 . S
H1006 C1030 0.950 . S
H1007 C1031 0.951 . S
H1008 C1033 0.951 . S
H1009 C1035 0.950 . S
H1010 C1036 0.950 . S
H1011 C1038 0.950 . S
H1012 C1041 0.950 . S
H1013 C1042 0.950 . S
H1014 C1044 0.950 . S
H1015 C1045 0.950 . S
C1016 H998 0.951 . S
C1016 C1017 1.366 . S
C1016 C1018 1.388 . S
C1017 C1016 1.366 . S
C1017 C1021 1.385 . S
C1018 H999 0.951 . S
C1018 C1016 1.388 . S
C1018 C1019 1.366 . S
C1019 C1018 1.366 . S
C1019 C1020 1.414 . S
C1019 C1022 1.499 . S
C1020 H1000 0.950 . S
C1020 C1019 1.414 . S
C1020 C1021 1.374 . S
C1021 H1001 0.950 . S
C1021 C1017 1.385 . S
C1021 C1020 1.374 . S
C1022 C1019 1.499 . S
C1022 C1023 1.373 . S
C1022 C1024 1.389 . S
C1023 H1002 0.950 . S
C1023 C1022 1.373 . S
C1023 C1039 1.377 . S
C1024 C1022 1.389 . S
C1024 C1025 1.524 . S
C1024 C1038 1.377 . S
C1025 C1024 1.524 . S
C1025 C1026 1.397 . S
C1025 C1030 1.363 . S
C1026 H1003 0.950 . S
C1026 C1025 1.397 . S
C1026 C1027 1.334 . S
C1027 H1004 0.950 . S
C1027 C1026 1.334 . S
C1027 C1028 1.287 . S
C1028 C1027 1.287 . S
C1028 C1029 1.524 . S
C1028 H1047 0.913 . S
C1029 H1005 0.950 . S
C1029 C1028 1.524 . S
C1029 C1030 1.415 . S
C1030 H1006 0.950 . S
C1030 C1025 1.363 . S
C1030 C1029 1.415 . S
C1031 H1007 0.951 . S
C1031 C1032 1.366 . S
C1031 C1033 1.388 . S
C1032 C1031 1.366 . S
C1032 C1036 1.385 . S
C1033 H1008 0.951 . S
C1033 C1031 1.388 . S
C1033 C1034 1.366 . S
C1034 C1033 1.366 . S
C1034 C1035 1.414 . S
C1034 C1037 1.499 . S
C1035 H1009 0.950 . S
C1035 C1034 1.414 . S
C1035 C1036 1.374 . S
C1036 H1010 0.950 . S
C1036 C1032 1.385 . S
C1036 C1035 1.374 . S
C1037 C1034 1.499 . S
C1037 C1038 1.373 . S
C1037 C1039 1.389 . S
C1038 H1011 0.950 . S
C1038 C1024 1.377 . S
C1038 C1037 1.373 . S
C1039 C1023 1.377 . S
C1039 C1037 1.389 . S
C1039 C1040 1.524 . S
C1040 C1039 1.524 . S
C1040 C1041 1.397 . S
C1040 C1045 1.363 . S
C1041 H1012 0.950 . S
C1041 C1040 1.397 . S
C1041 C1042 1.334 . S
C1042 H1013 0.950 . S
C1042 C1041 1.334 . S
C1042 C1043 1.287 . S
C1043 C1042 1.287 . S
C1043 C1044 1.524 . S
C1043 H1046 0.999 . S
C1044 H1014 0.950 . S
C1044 C1043 1.524 . S
C1044 C1045 1.415 . S
C1045 H1015 0.950 . S
C1045 C1040 1.363 . S
C1045 C1044 1.415 . S
H1046 C1043 0.999 . S
H1047 C1028 0.913 . S
H1048 C1066 0.951 . S
H1049 C1068 0.951 . S
H1050 C1070 0.950 . S
H1051 C1071 0.950 . S
H1052 C1073 0.950 . S
H1053 C1076 0.950 . S
H1054 C1077 0.950 . S
H1055 C1079 0.950 . S
H1056 C1080 0.950 . S
H1057 C1081 0.951 . S
H1058 C1083 0.951 . S
H1059 C1085 0.950 . S
H1060 C1086 0.950 . S
H1061 C1088 0.950 . S
H1062 C1091 0.950 . S
H1063 C1092 0.950 . S
H1064 C1094 0.950 . S
H1065 C1095 0.950 . S
C1066 H1048 0.951 . S
C1066 C1067 1.366 . S
C1066 C1068 1.388 . S
C1067 C1066 1.366 . S
C1067 C1071 1.385 . S
C1068 H1049 0.951 . S
C1068 C1066 1.388 . S
C1068 C1069 1.366 . S
C1069 C1068 1.366 . S
C1069 C1070 1.414 . S
C1069 C1072 1.499 . S
C1070 H1050 0.950 . S
C1070 C1069 1.414 . S
C1070 C1071 1.374 . S
C1071 H1051 0.950 . S
C1071 C1067 1.385 . S
C1071 C1070 1.374 . S
C1072 C1069 1.499 . S
C1072 C1073 1.373 . S
C1072 C1074 1.389 . S
C1073 H1052 0.950 . S
C1073 C1072 1.373 . S
C1073 C1089 1.377 . S
C1074 C1072 1.389 . S
C1074 C1075 1.524 . S
C1074 C1088 1.377 . S
C1075 C1074 1.524 . S
C1075 C1076 1.397 . S
C1075 C1080 1.363 . S
C1076 H1053 0.950 . S
C1076 C1075 1.397 . S
C1076 C1077 1.334 . S
C1077 H1054 0.950 . S
C1077 C1076 1.334 . S
C1077 C1078 1.287 . S
C1078 C1077 1.287 . S
C1078 C1079 1.524 . S
C1078 H1097 0.913 . S
C1079 H1055 0.950 . S
C1079 C1078 1.524 . S
C1079 C1080 1.415 . S
C1080 H1056 0.950 . S
C1080 C1075 1.363 . S
C1080 C1079 1.415 . S
C1081 H1057 0.951 . S
C1081 C1082 1.366 . S
C1081 C1083 1.388 . S
C1082 C1081 1.366 . S
C1082 C1086 1.385 . S
C1083 H1058 0.951 . S
C1083 C1081 1.388 . S
C1083 C1084 1.366 . S
C1084 C1083 1.366 . S
C1084 C1085 1.414 . S
C1084 C1087 1.499 . S
C1085 H1059 0.950 . S
C1085 C1084 1.414 . S
C1085 C1086 1.374 . S
C1086 H1060 0.950 . S
C1086 C1082 1.385 . S
C1086 C1085 1.374 . S
C1087 C1084 1.499 . S
C1087 C1088 1.373 . S
C1087 C1089 1.389 . S
C1088 H1061 0.950 . S
C1088 C1074 1.377 . S
C1088 C1087 1.373 . S
C1089 C1073 1.377 . S
C1089 C1087 1.389 . S
C1089 C1090 1.524 . S
C1090 C1089 1.524 . S
C1090 C1091 1.397 . S
C1090 C1095 1.363 . S
C1091 H1062 0.950 . S
C1091 C1090 1.397 . S
C1091 C1092 1.334 . S
C1092 H1063 0.950 . S
C1092 C1091 1.334 . S
C1092 C1093 1.287 . S
C1093 C1092 1.287 . S
C1093 C1094 1.524 . S
C1093 H1096 0.999 . S
C1094 H1064 0.950 . S
C1094 C1093 1.524 . S
C1094 C1095 1.415 . S
C1095 H1065 0.950 . S
C1095 C1090 1.363 . S
C1095 C1094 1.415 . S
H1096 C1093 0.999 . S
H1097 C1078 0.913 . S
H1098 C1116 0.951 . S
H1099 C1118 0.951 . S
H1100 C1120 0.950 . S
H1101 C1121 0.950 . S
H1102 C1123 0.950 . S
H1103 C1126 0.950 . S
H1104 C1127 0.950 . S
H1105 C1129 0.950 . S
H1106 C1130 0.950 . S
H1107 C1131 0.951 . S
H1108 C1133 0.951 . S
H1109 C1135 0.950 . S
H1110 C1136 0.950 . S
H1111 C1138 0.950 . S
H1112 C1141 0.950 . S
H1113 C1142 0.950 . S
H1114 C1144 0.950 . S
H1115 C1145 0.950 . S
C1116 H1098 0.951 . S
C1116 C1117 1.366 . S
C1116 C1118 1.388 . S
C1117 C1116 1.366 . S
C1117 C1121 1.385 . S
C1118 H1099 0.951 . S
C1118 C1116 1.388 . S
C1118 C1119 1.366 . S
C1119 C1118 1.366 . S
C1119 C1120 1.414 . S
C1119 C1122 1.499 . S
C1120 H1100 0.950 . S
C1120 C1119 1.414 . S
C1120 C1121 1.374 . S
C1121 H1101 0.950 . S
C1121 C1117 1.385 . S
C1121 C1120 1.374 . S
C1122 C1119 1.499 . S
C1122 C1123 1.373 . S
C1122 C1124 1.389 . S
C1123 H1102 0.950 . S
C1123 C1122 1.373 . S
C1123 C1139 1.377 . S
C1124 C1122 1.389 . S
C1124 C1125 1.524 . S
C1124 C1138 1.377 . S
C1125 C1124 1.524 . S
C1125 C1126 1.397 . S
C1125 C1130 1.363 . S
C1126 H1103 0.950 . S
C1126 C1125 1.397 . S
C1126 C1127 1.334 . S
C1127 H1104 0.950 . S
C1127 C1126 1.334 . S
C1127 C1128 1.287 . S
C1128 C1127 1.287 . S
C1128 C1129 1.524 . S
C1128 H1147 0.913 . S
C1129 H1105 0.950 . S
C1129 C1128 1.524 . S
C1129 C1130 1.415 . S
C1130 H1106 0.950 . S
C1130 C1125 1.363 . S
C1130 C1129 1.415 . S
C1131 H1107 0.951 . S
C1131 C1132 1.366 . S
C1131 C1133 1.388 . S
C1132 C1131 1.366 . S
C1132 C1136 1.385 . S
C1133 H1108 0.951 . S
C1133 C1131 1.388 . S
C1133 C1134 1.366 . S
C1134 C1133 1.366 . S
C1134 C1135 1.414 . S
C1134 C1137 1.499 . S
C1135 H1109 0.950 . S
C1135 C1134 1.414 . S
C1135 C1136 1.374 . S
C1136 H1110 0.950 . S
C1136 C1132 1.385 . S
C1136 C1135 1.374 . S
C1137 C1134 1.499 . S
C1137 C1138 1.373 . S
C1137 C1139 1.389 . S
C1138 H1111 0.950 . S
C1138 C1124 1.377 . S
C1138 C1137 1.373 . S
C1139 C1123 1.377 . S
C1139 C1137 1.389 . S
C1139 C1140 1.524 . S
C1140 C1139 1.524 . S
C1140 C1141 1.397 . S
C1140 C1145 1.363 . S
C1141 H1112 0.950 . S
C1141 C1140 1.397 . S
C1141 C1142 1.334 . S
C1142 H1113 0.950 . S
C1142 C1141 1.334 . S
C1142 C1143 1.287 . S
C1143 C1142 1.287 . S
C1143 C1144 1.524 . S
C1143 H1146 0.999 . S
C1144 H1114 0.950 . S
C1144 C1143 1.524 . S
C1144 C1145 1.415 . S
C1145 H1115 0.950 . S
C1145 C1140 1.363 . S
C1145 C1144 1.415 . S
H1146 C1143 0.999 . S
H1147 C1128 0.913 . S
H1148 C1166 0.951 . S
H1149 C1168 0.951 . S
H1150 C1170 0.950 . S
H1151 C1171 0.950 . S
H1152 C1173 0.950 . S
H1153 C1176 0.950 . S
H1154 C1177 0.950 . S
H1155 C1179 0.950 . S
H1156 C1180 0.950 . S
H1157 C1181 0.951 . S
H1158 C1183 0.951 . S
H1159 C1185 0.950 . S
H1160 C1186 0.950 . S
H1161 C1188 0.950 . S
H1162 C1191 0.950 . S
H1163 C1192 0.950 . S
H1164 C1194 0.950 . S
H1165 C1195 0.950 . S
C1166 H1148 0.951 . S
C1166 C1167 1.366 . S
C1166 C1168 1.388 . S
C1167 C1166 1.366 . S
C1167 C1171 1.385 . S
C1168 H1149 0.951 . S
C1168 C1166 1.388 . S
C1168 C1169 1.366 . S
C1169 C1168 1.366 . S
C1169 C1170 1.414 . S
C1169 C1172 1.499 . S
C1170 H1150 0.950 . S
C1170 C1169 1.414 . S
C1170 C1171 1.374 . S
C1171 H1151 0.950 . S
C1171 C1167 1.385 . S
C1171 C1170 1.374 . S
C1172 C1169 1.499 . S
C1172 C1173 1.373 . S
C1172 C1174 1.389 . S
C1173 H1152 0.950 . S
C1173 C1172 1.373 . S
C1173 C1189 1.377 . S
C1174 C1172 1.389 . S
C1174 C1175 1.524 . S
C1174 C1188 1.377 . S
C1175 C1174 1.524 . S
C1175 C1176 1.397 . S
C1175 C1180 1.363 . S
C1176 H1153 0.950 . S
C1176 C1175 1.397 . S
C1176 C1177 1.334 . S
C1177 H1154 0.950 . S
C1177 C1176 1.334 . S
C1177 C1178 1.287 . S
C1178 C1177 1.287 . S
C1178 C1179 1.524 . S
C1178 H1197 0.913 . S
C1179 H1155 0.950 . S
C1179 C1178 1.524 . S
C1179 C1180 1.415 . S
C1180 H1156 0.950 . S
C1180 C1175 1.363 . S
C1180 C1179 1.415 . S
C1181 H1157 0.951 . S
C1181 C1182 1.366 . S
C1181 C1183 1.388 . S
C1182 C1181 1.366 . S
C1182 C1186 1.385 . S
C1183 H1158 0.951 . S
C1183 C1181 1.388 . S
C1183 C1184 1.366 . S
C1184 C1183 1.366 . S
C1184 C1185 1.414 . S
C1184 C1187 1.499 . S
C1185 H1159 0.950 . S
C1185 C1184 1.414 . S
C1185 C1186 1.374 . S
C1186 H1160 0.950 . S
C1186 C1182 1.385 . S
C1186 C1185 1.374 . S
C1187 C1184 1.499 . S
C1187 C1188 1.373 . S
C1187 C1189 1.389 . S
C1188 H1161 0.950 . S
C1188 C1174 1.377 . S
C1188 C1187 1.373 . S
C1189 C1173 1.377 . S
C1189 C1187 1.389 . S
C1189 C1190 1.524 . S
C1190 C1189 1.524 . S
C1190 C1191 1.397 . S
C1190 C1195 1.363 . S
C1191 H1162 0.950 . S
C1191 C1190 1.397 . S
C1191 C1192 1.334 . S
C1192 H1163 0.950 . S
C1192 C1191 1.334 . S
C1192 C1193 1.287 . S
C1193 C1192 1.287 . S
C1193 C1194 1.524 . S
C1193 H1196 0.999 . S
C1194 H1164 0.950 . S
C1194 C1193 1.524 . S
C1194 C1195 1.415 . S
C1195 H1165 0.950 . S
C1195 C1190 1.363 . S
C1195 C1194 1.415 . S
H1196 C1193 0.999 . S
H1197 C1178 0.913 . S
H1198 C1216 0.951 . S
H1199 C1218 0.951 . S
H1200 C1220 0.950 . S
H1201 C1221 0.950 . S
H1202 C1223 0.950 . S
H1203 C1226 0.950 . S
H1204 C1227 0.950 . S
H1205 C1229 0.950 . S
H1206 C1230 0.950 . S
H1207 C1231 0.951 . S
H1208 C1233 0.951 . S
H1209 C1235 0.950 . S
H1210 C1236 0.956 . S
H1211 C1238 0.950 . S
H1212 C1241 0.950 . S
H1213 C1242 0.950 . S
H1214 C1244 0.950 . S
H1215 C1245 0.950 . S
C1216 H1198 0.951 . S
C1216 C1217 1.366 . S
C1216 C1218 1.388 . S
C1217 C1216 1.366 . S
C1217 C1221 1.385 . S
C1218 H1199 0.951 . S
C1218 C1216 1.388 . S
C1218 C1219 1.366 . S
C1219 C1218 1.366 . S
C1219 C1220 1.414 . S
C1219 C1222 1.499 . S
C1220 H1200 0.950 . S
C1220 C1219 1.414 . S
C1220 C1221 1.374 . S
C1221 H1201 0.950 . S
C1221 C1217 1.385 . S
C1221 C1220 1.374 . S
C1222 C1219 1.499 . S
C1222 C1223 1.373 . S
C1222 C1224 1.389 . S
C1223 H1202 0.950 . S
C1223 C1222 1.373 . S
C1223 C1239 1.377 1_556 S
C1224 C1222 1.389 . S
C1224 C1225 1.524 . S
C1224 C1238 1.377 . S
C1225 C1224 1.524 . S
C1225 C1226 1.397 . S
C1225 C1230 1.363 . S
C1226 H1203 0.950 . S
C1226 C1225 1.397 . S
C1226 C1227 1.334 . S
C1227 H1204 0.950 . S
C1227 C1226 1.334 . S
C1227 C1228 1.287 . S
C1228 C1227 1.287 . S
C1228 C1229 1.524 . S
C1228 H1247 0.913 . S
C1229 H1205 0.950 . S
C1229 C1228 1.524 . S
C1229 C1230 1.415 . S
C1230 H1206 0.950 . S
C1230 C1225 1.363 . S
C1230 C1229 1.415 . S
C1231 H1207 0.951 . S
C1231 C1232 1.366 . S
C1231 C1233 1.388 . S
C1232 C1231 1.366 . S
C1232 C1236 1.385 . S
C1233 H1208 0.951 . S
C1233 C1231 1.388 . S
C1233 C1234 1.384 . S
C1234 C1233 1.384 . S
C1234 C1235 1.407 1_554 S
C1234 C1237 1.487 1_554 S
C1235 H1209 0.950 . S
C1235 C1234 1.407 1_556 S
C1235 C1236 1.374 1_556 S
C1236 H1210 0.956 . S
C1236 C1232 1.385 . S
C1236 C1235 1.374 1_554 S
C1237 C1234 1.487 1_556 S
C1237 C1238 1.373 . S
C1237 C1239 1.389 1_556 S
C1238 H1211 0.950 . S
C1238 C1224 1.377 . S
C1238 C1237 1.373 . S
C1239 C1223 1.377 1_554 S
C1239 C1237 1.389 1_554 S
C1239 C1240 1.524 . S
C1240 C1239 1.524 . S
C1240 C1241 1.397 . S
C1240 C1245 1.363 . S
C1241 H1212 0.950 . S
C1241 C1240 1.397 . S
C1241 C1242 1.334 . S
C1242 H1213 0.950 . S
C1242 C1241 1.334 . S
C1242 C1243 1.287 . S
C1243 C1242 1.287 . S
C1243 C1244 1.524 . S
C1243 H1246 0.999 . S
C1244 H1214 0.950 . S
C1244 C1243 1.524 . S
C1244 C1245 1.415 . S
C1245 H1215 0.950 . S
C1245 C1240 1.363 . S
C1245 C1244 1.415 . S
H1246 C1243 0.999 . S
H1247 C1228 0.913 . S
H1248 C1266 0.951 1_554 S
H1249 C1268 0.951 . S
H1250 C1270 0.950 . S
H1251 C1271 0.950 . S
H1252 C1273 0.950 . S
H1253 C1276 0.950 . S
H1254 C1277 0.950 . S
H1255 C1279 0.950 . S
H1256 C1280 0.950 . S
H1257 C1281 0.951 . S
H1258 C1283 0.951 . S
H1259 C1285 0.950 . S
H1260 C1286 0.950 . S
H1261 C1288 0.950 . S
H1262 C1291 0.950 . S
H1263 C1292 0.950 . S
H1264 C1294 0.950 . S
H1265 C1295 0.950 . S
C1266 H1248 0.951 1_556 S
C1266 C1267 1.366 . S
C1266 C1268 1.388 . S
C1267 C1266 1.366 . S
C1267 C1271 1.385 . S
C1268 H1249 0.951 . S
C1268 C1266 1.388 . S
C1268 C1269 1.366 . S
C1269 C1268 1.366 . S
C1269 C1270 1.414 . S
C1269 C1272 1.499 . S
C1270 H1250 0.950 . S
C1270 C1269 1.414 . S
C1270 C1271 1.374 . S
C1271 H1251 0.950 . S
C1271 C1267 1.385 . S
C1271 C1270 1.374 . S
C1272 C1269 1.499 . S
C1272 C1273 1.373 . S
C1272 C1274 1.389 . S
C1273 H1252 0.950 . S
C1273 C1272 1.373 . S
C1273 C1289 1.377 . S
C1274 C1272 1.389 . S
C1274 C1275 1.524 . S
C1274 C1288 1.377 . S
C1275 C1274 1.524 . S
C1275 C1276 1.397 . S
C1275 C1280 1.363 . S
C1276 H1253 0.950 . S
C1276 C1275 1.397 . S
C1276 C1277 1.334 . S
C1277 H1254 0.950 . S
C1277 C1276 1.334 . S
C1277 C1278 1.287 . S
C1278 C1277 1.287 . S
C1278 C1279 1.524 . S
C1278 H1297 0.913 . S
C1279 H1255 0.950 . S
C1279 C1278 1.524 . S
C1279 C1280 1.415 . S
C1280 H1256 0.950 . S
C1280 C1275 1.363 . S
C1280 C1279 1.415 . S
C1281 H1257 0.951 . S
C1281 C1282 1.366 . S
C1281 C1283 1.388 . S
C1282 C1281 1.366 . S
C1282 C1286 1.385 . S
C1283 H1258 0.951 . S
C1283 C1281 1.388 . S
C1283 C1284 1.366 . S
C1284 C1283 1.366 . S
C1284 C1285 1.414 . S
C1284 C1287 1.499 . S
C1285 H1259 0.950 . S
C1285 C1284 1.414 . S
C1285 C1286 1.374 . S
C1286 H1260 0.950 . S
C1286 C1282 1.385 . S
C1286 C1285 1.374 . S
C1287 C1284 1.499 . S
C1287 C1288 1.373 . S
C1287 C1289 1.389 . S
C1288 H1261 0.950 . S
C1288 C1274 1.377 . S
C1288 C1287 1.373 . S
C1289 C1273 1.377 . S
C1289 C1287 1.389 . S
C1289 C1290 1.524 . S
C1290 C1289 1.524 . S
C1290 C1291 1.397 . S
C1290 C1295 1.363 . S
C1291 H1262 0.950 . S
C1291 C1290 1.397 . S
C1291 C1292 1.334 . S
C1292 H1263 0.950 . S
C1292 C1291 1.334 . S
C1292 C1293 1.287 . S
C1293 C1292 1.287 . S
C1293 C1294 1.524 . S
C1293 H1296 0.999 . S
C1294 H1264 0.950 . S
C1294 C1293 1.524 . S
C1294 C1295 1.415 . S
C1295 H1265 0.950 . S
C1295 C1290 1.363 . S
C1295 C1294 1.415 . S
H1296 C1293 0.999 . S
H1297 C1278 0.913 . S
H1298 C1316 0.951 . S
H1299 C1318 0.951 . S
H1300 C1320 0.960 . S
H1301 C1321 0.950 . S
H1302 C1323 0.915 1_565 S
H1303 C1326 0.950 . S
H1304 C1327 0.950 . S
H1305 C1329 0.950 . S
H1306 C1330 0.950 . S
H1307 C1331 0.951 . S
H1308 C1333 0.951 1_554 S
H1309 C1335 0.950 . S
H1310 C1336 0.950 . S
H1311 C1338 0.950 . S
H1312 C1341 0.950 . S
H1313 C1342 0.950 . S
H1314 C1344 0.950 . S
H1315 C1345 0.935 1_545 S
C1316 H1298 0.951 . S
C1316 C1317 1.366 . S
C1316 C1318 1.388 . S
C1317 C1316 1.366 . S
C1317 C1321 1.385 . S
C1318 H1299 0.951 . S
C1318 C1316 1.388 . S
C1318 C1319 1.366 . S
C1319 C1318 1.366 . S
C1319 C1320 1.414 . S
C1319 C1322 1.499 1_565 S
C1320 H1300 0.960 . S
C1320 C1319 1.414 . S
C1320 C1321 1.374 . S
C1321 H1301 0.950 . S
C1321 C1317 1.385 . S
C1321 C1320 1.374 . S
C1322 C1319 1.499 1_545 S
C1322 C1323 1.391 . S
C1322 C1324 1.389 . S
C1323 H1302 0.915 1_545 S
C1323 C1322 1.391 . S
C1323 C1339 1.396 . S
C1324 C1322 1.389 . S
C1324 C1325 1.524 . S
C1324 C1338 1.377 . S
C1325 C1324 1.524 . S
C1325 C1326 1.397 . S
C1325 C1330 1.363 . S
C1326 H1303 0.950 . S
C1326 C1325 1.397 . S
C1326 C1327 1.334 . S
C1327 H1304 0.950 . S
C1327 C1326 1.334 . S
C1327 C1328 1.287 . S
C1328 C1327 1.287 . S
C1328 C1329 1.524 . S
C1328 H1347 0.913 . S
C1329 H1305 0.950 . S
C1329 C1328 1.524 . S
C1329 C1330 1.415 . S
C1330 H1306 0.950 . S
C1330 C1325 1.363 . S
C1330 C1329 1.415 . S
C1331 H1307 0.951 . S
C1331 C1332 1.366 . S
C1331 C1333 1.388 . S
C1332 C1331 1.366 . S
C1332 C1336 1.385 . S
C1333 H1308 0.951 1_556 S
C1333 C1331 1.388 . S
C1333 C1334 1.366 1_556 S
C1334 C1333 1.366 1_554 S
C1334 C1335 1.414 1_554 S
C1334 C1337 1.499 . S
C1335 H1309 0.950 . S
C1335 C1334 1.414 1_556 S
C1335 C1336 1.374 . S
C1336 H1310 0.950 . S
C1336 C1332 1.385 . S
C1336 C1335 1.374 . S
C1337 C1334 1.499 . S
C1337 C1338 1.373 . S
C1337 C1339 1.389 . S
C1338 H1311 0.950 . S
C1338 C1324 1.377 . S
C1338 C1337 1.373 . S
C1339 C1323 1.396 . S
C1339 C1337 1.389 . S
C1339 C1340 1.487 1_545 S
C1340 C1339 1.487 1_565 S
C1340 C1341 1.433 1_554 S
C1340 C1345 1.377 . S
C1341 H1312 0.950 . S
C1341 C1340 1.433 1_556 S
C1341 C1342 1.334 . S
C1342 H1313 0.950 . S
C1342 C1341 1.334 . S
C1342 C1343 1.287 . S
C1343 C1342 1.287 . S
C1343 C1344 1.524 1_556 S
C1343 H1346 0.999 . S
C1344 H1314 0.950 . S
C1344 C1343 1.524 1_554 S
C1344 C1345 1.415 . S
C1345 H1315 0.935 1_565 S
C1345 C1340 1.377 . S
C1345 C1344 1.415 . S
H1346 C1343 0.999 . S
H1347 C1328 0.913 . S
H1348 C1366 0.951 . S
H1349 C1368 0.951 . S
H1350 C1370 0.950 . S
H1351 C1371 0.950 . S
H1352 C1373 0.950 . S
H1353 C1376 0.950 . S
H1354 C1377 0.950 . S
H1355 C1379 0.950 . S
H1356 C1380 0.950 . S
H1357 C1381 0.951 . S
H1358 C1383 0.951 . S
H1359 C1385 0.950 . S
H1360 C1386 0.950 . S
H1361 C1388 0.950 . S
H1362 C1391 0.950 . S
H1363 C1392 0.950 . S
H1364 C1394 0.950 . S
H1365 C1395 0.950 . S
C1366 H1348 0.951 . S
C1366 C1367 1.366 . S
C1366 C1368 1.388 . S
C1367 C1366 1.366 . S
C1367 C1371 1.385 . S
C1368 H1349 0.951 . S
C1368 C1366 1.388 . S
C1368 C1369 1.366 . S
C1369 C1368 1.366 . S
C1369 C1370 1.414 . S
C1369 C1372 1.499 . S
C1370 H1350 0.950 . S
C1370 C1369 1.414 . S
C1370 C1371 1.374 . S
C1371 H1351 0.950 . S
C1371 C1367 1.385 . S
C1371 C1370 1.374 . S
C1372 C1369 1.499 . S
C1372 C1373 1.373 . S
C1372 C1374 1.389 . S
C1373 H1352 0.950 . S
C1373 C1372 1.373 . S
C1373 C1389 1.377 . S
C1374 C1372 1.389 . S
C1374 C1375 1.524 . S
C1374 C1388 1.377 . S
C1375 C1374 1.524 . S
C1375 C1376 1.397 . S
C1375 C1380 1.363 . S
C1376 H1353 0.950 . S
C1376 C1375 1.397 . S
C1376 C1377 1.334 . S
C1377 H1354 0.950 . S
C1377 C1376 1.334 . S
C1377 C1378 1.287 . S
C1378 C1377 1.287 . S
C1378 C1379 1.524 . S
C1378 H1397 0.913 . S
C1379 H1355 0.950 . S
C1379 C1378 1.524 . S
C1379 C1380 1.415 . S
C1380 H1356 0.950 . S
C1380 C1375 1.363 . S
C1380 C1379 1.415 . S
C1381 H1357 0.951 . S
C1381 C1382 1.366 . S
C1381 C1383 1.388 . S
C1382 C1381 1.366 . S
C1382 C1386 1.385 . S
C1383 H1358 0.951 . S
C1383 C1381 1.388 . S
C1383 C1384 1.366 . S
C1384 C1383 1.366 . S
C1384 C1385 1.414 . S
C1384 C1387 1.499 . S
C1385 H1359 0.950 . S
C1385 C1384 1.414 . S
C1385 C1386 1.374 . S
C1386 H1360 0.950 . S
C1386 C1382 1.385 . S
C1386 C1385 1.374 . S
C1387 C1384 1.499 . S
C1387 C1388 1.373 . S
C1387 C1389 1.389 . S
C1388 H1361 0.950 . S
C1388 C1374 1.377 . S
C1388 C1387 1.373 . S
C1389 C1373 1.377 . S
C1389 C1387 1.389 . S
C1389 C1390 1.524 . S
C1390 C1389 1.524 . S
C1390 C1391 1.397 . S
C1390 C1395 1.363 . S
C1391 H1362 0.950 . S
C1391 C1390 1.397 . S
C1391 C1392 1.334 . S
C1392 H1363 0.950 . S
C1392 C1391 1.334 . S
C1392 C1393 1.287 . S
C1393 C1392 1.287 . S
C1393 C1394 1.524 . S
C1393 H1396 0.999 . S
C1394 H1364 0.950 . S
C1394 C1393 1.524 . S
C1394 C1395 1.415 . S
C1395 H1365 0.950 . S
C1395 C1390 1.363 . S
C1395 C1394 1.415 . S
H1396 C1393 0.999 . S
H1397 C1378 0.913 . S
H1398 C1416 0.951 . S
H1399 C1418 0.951 . S
H1400 C1420 0.950 . S
H1401 C1421 0.950 . S
H1402 C1423 0.950 1_565 S
H1403 C1426 0.950 . S
H1404 C1427 0.950 . S
H1405 C1429 0.950 . S
H1406 C1430 0.950 . S
H1407 C1431 0.951 . S
H1408 C1433 0.951 . S
H1409 C1435 0.950 . S
H1410 C1436 0.950 1_545 S
H1411 C1438 0.950 . S
H1412 C1441 0.950 . S
H1413 C1442 0.950 . S
H1414 C1444 0.950 . S
H1415 C1445 0.950 . S
C1416 H1398 0.951 . S
C1416 C1417 1.366 . S
C1416 C1418 1.388 . S
C1417 C1416 1.366 . S
C1417 C1421 1.385 . S
C1418 H1399 0.951 . S
C1418 C1416 1.388 . S
C1418 C1419 1.366 . S
C1419 C1418 1.366 . S
C1419 C1420 1.414 . S
C1419 C1422 1.499 . S
C1420 H1400 0.950 . S
C1420 C1419 1.414 . S
C1420 C1421 1.374 . S
C1421 H1401 0.950 . S
C1421 C1417 1.385 . S
C1421 C1420 1.374 . S
C1422 C1419 1.499 . S
C1422 C1423 1.373 . S
C1422 C1424 1.389 . S
C1423 H1402 0.950 1_545 S
C1423 C1422 1.373 . S
C1423 C1439 1.377 1_545 S
C1424 C1422 1.389 . S
C1424 C1425 1.524 . S
C1424 C1438 1.377 . S
C1425 C1424 1.524 . S
C1425 C1426 1.397 . S
C1425 C1430 1.363 . S
C1426 H1403 0.950 . S
C1426 C1425 1.397 . S
C1426 C1427 1.334 . S
C1427 H1404 0.950 . S
C1427 C1426 1.334 . S
C1427 C1428 1.287 . S
C1428 C1427 1.287 . S
C1428 C1429 1.524 . S
C1428 H1447 0.913 . S
C1429 H1405 0.950 . S
C1429 C1428 1.524 . S
C1429 C1430 1.415 . S
C1430 H1406 0.950 . S
C1430 C1425 1.363 . S
C1430 C1429 1.415 . S
C1431 H1407 0.951 . S
C1431 C1432 1.366 . S
C1431 C1433 1.388 . S
C1432 C1431 1.366 . S
C1432 C1436 1.385 . S
C1433 H1408 0.951 . S
C1433 C1431 1.388 . S
C1433 C1434 1.366 . S
C1434 C1433 1.366 . S
C1434 C1435 1.414 1_565 S
C1434 C1437 1.499 1_565 S
C1435 H1409 0.950 . S
C1435 C1434 1.414 1_545 S
C1435 C1436 1.374 1_545 S
C1436 H1410 0.950 1_565 S
C1436 C1432 1.385 . S
C1436 C1435 1.374 1_565 S
C1437 C1434 1.499 1_545 S
C1437 C1438 1.373 . S
C1437 C1439 1.389 1_545 S
C1438 H1411 0.950 . S
C1438 C1424 1.377 . S
C1438 C1437 1.373 . S
C1439 C1423 1.377 1_565 S
C1439 C1437 1.389 1_565 S
C1439 C1440 1.524 . S
C1440 C1439 1.524 . S
C1440 C1441 1.397 . S
C1440 C1445 1.363 . S
C1441 H1412 0.950 . S
C1441 C1440 1.397 . S
C1441 C1442 1.334 . S
C1442 H1413 0.950 . S
C1442 C1441 1.334 . S
C1442 C1443 1.287 . S
C1443 C1442 1.287 . S
C1443 C1444 1.524 . S
C1443 H1446 0.999 . S
C1444 H1414 0.950 . S
C1444 C1443 1.524 . S
C1444 C1445 1.415 . S
C1445 H1415 0.950 . S
C1445 C1440 1.363 . S
C1445 C1444 1.415 . S
H1446 C1443 0.999 . S
H1447 C1428 0.913 . S
H1448 C1466 0.951 . S
H1449 C1468 0.951 . S
H1450 C1470 0.950 . S
H1451 C1471 0.950 . S
H1452 C1473 0.950 . S
H1453 C1476 0.950 . S
H1454 C1477 0.950 . S
H1455 C1479 0.950 . S
H1456 C1480 0.950 . S
H1457 C1481 0.951 . S
H1458 C1483 0.951 . S
H1459 C1485 0.950 . S
H1460 C1486 0.950 . S
H1461 C1488 0.950 . S
H1462 C1491 0.950 . S
H1463 C1492 0.950 . S
H1464 C1494 0.950 . S
H1465 C1495 0.950 . S
C1466 H1448 0.951 . S
C1466 C1467 1.366 . S
C1466 C1468 1.388 . S
C1467 C1466 1.366 . S
C1467 C1471 1.385 . S
C1468 H1449 0.951 . S
C1468 C1466 1.388 . S
C1468 C1469 1.366 . S
C1469 C1468 1.366 . S
C1469 C1470 1.414 . S
C1469 C1472 1.499 . S
C1470 H1450 0.950 . S
C1470 C1469 1.414 . S
C1470 C1471 1.374 . S
C1471 H1451 0.950 . S
C1471 C1467 1.385 . S
C1471 C1470 1.374 . S
C1472 C1469 1.499 . S
C1472 C1473 1.373 . S
C1472 C1474 1.389 . S
C1473 H1452 0.950 . S
C1473 C1472 1.373 . S
C1473 C1489 1.377 . S
C1474 C1472 1.389 . S
C1474 C1475 1.524 . S
C1474 C1488 1.377 . S
C1475 C1474 1.524 . S
C1475 C1476 1.397 . S
C1475 C1480 1.363 . S
C1476 H1453 0.950 . S
C1476 C1475 1.397 . S
C1476 C1477 1.334 . S
C1477 H1454 0.950 . S
C1477 C1476 1.334 . S
C1477 C1478 1.287 . S
C1478 C1477 1.287 . S
C1478 C1479 1.524 . S
C1478 H1497 0.913 . S
C1479 H1455 0.950 . S
C1479 C1478 1.524 . S
C1479 C1480 1.415 . S
C1480 H1456 0.950 . S
C1480 C1475 1.363 . S
C1480 C1479 1.415 . S
C1481 H1457 0.951 . S
C1481 C1482 1.366 . S
C1481 C1483 1.388 . S
C1482 C1481 1.366 . S
C1482 C1486 1.385 . S
C1483 H1458 0.951 . S
C1483 C1481 1.388 . S
C1483 C1484 1.366 . S
C1484 C1483 1.366 . S
C1484 C1485 1.414 . S
C1484 C1487 1.499 . S
C1485 H1459 0.950 . S
C1485 C1484 1.414 . S
C1485 C1486 1.374 . S
C1486 H1460 0.950 . S
C1486 C1482 1.385 . S
C1486 C1485 1.374 . S
C1487 C1484 1.499 . S
C1487 C1488 1.373 . S
C1487 C1489 1.389 . S
C1488 H1461 0.950 . S
C1488 C1474 1.377 . S
C1488 C1487 1.373 . S
C1489 C1473 1.377 . S
C1489 C1487 1.389 . S
C1489 C1490 1.524 . S
C1490 C1489 1.524 . S
C1490 C1491 1.397 . S
C1490 C1495 1.363 . S
C1491 H1462 0.950 . S
C1491 C1490 1.397 . S
C1491 C1492 1.334 . S
C1492 H1463 0.950 . S
C1492 C1491 1.334 . S
C1492 C1493 1.287 . S
C1493 C1492 1.287 . S
C1493 C1494 1.524 . S
C1493 H1496 0.999 . S
C1494 H1464 0.950 . S
C1494 C1493 1.524 . S
C1494 C1495 1.415 . S
C1495 H1465 0.950 . S
C1495 C1490 1.363 . S
C1495 C1494 1.415 . S
H1496 C1493 0.999 . S
H1497 C1478 0.913 . S
H1498 C1516 0.951 . S
H1499 C1518 0.951 . S
H1500 C1520 0.950 . S
H1501 C1521 0.950 . S
H1502 C1523 0.950 . S
H1503 C1526 0.950 . S
H1504 C1527 0.950 1_556 S
H1505 C1529 0.950 . S
H1506 C1530 0.950 . S
H1507 C1531 0.951 . S
H1508 C1533 0.951 . S
H1509 C1535 0.950 . S
H1510 C1536 0.925 1_545 S
H1511 C1538 0.950 . S
H1512 C1541 0.950 . S
H1513 C1542 0.948 . S
H1514 C1544 0.950 . S
H1515 C1545 0.950 . S
C1516 H1498 0.951 . S
C1516 C1517 1.366 . S
C1516 C1518 1.388 1_556 S
C1517 C1516 1.366 . S
C1517 C1521 1.385 . S
C1518 H1499 0.951 . S
C1518 C1516 1.388 1_554 S
C1518 C1519 1.366 . S
C1519 C1518 1.366 . S
C1519 C1520 1.414 1_554 S
C1519 C1522 1.499 . S
C1520 H1500 0.950 . S
C1520 C1519 1.414 1_556 S
C1520 C1521 1.374 . S
C1521 H1501 0.950 . S
C1521 C1517 1.385 . S
C1521 C1520 1.374 . S
C1522 C1519 1.499 . S
C1522 C1523 1.373 . S
C1522 C1524 1.389 . S
C1523 H1502 0.950 . S
C1523 C1522 1.373 . S
C1523 C1539 1.377 . S
C1524 C1522 1.389 . S
C1524 C1525 1.524 . S
C1524 C1538 1.377 . S
C1525 C1524 1.524 . S
C1525 C1526 1.397 . S
C1525 C1530 1.363 . S
C1526 H1503 0.950 . S
C1526 C1525 1.397 . S
C1526 C1527 1.334 . S
C1527 H1504 0.950 1_554 S
C1527 C1526 1.334 . S
C1527 C1528 1.287 . S
C1528 C1527 1.287 . S
C1528 C1529 1.524 . S
C1528 H1547 0.913 . S
C1529 H1505 0.950 . S
C1529 C1528 1.524 . S
C1529 C1530 1.415 . S
C1530 H1506 0.950 . S
C1530 C1525 1.363 . S
C1530 C1529 1.415 . S
C1531 H1507 0.951 . S
C1531 C1532 1.366 . S
C1531 C1533 1.388 . S
C1532 C1531 1.366 . S
C1532 C1536 1.432 . S
C1533 H1508 0.951 . S
C1533 C1531 1.388 . S
C1533 C1534 1.366 . S
C1534 C1533 1.366 . S
C1534 C1535 1.414 1_565 S
C1534 C1537 1.499 1_565 S
C1535 H1509 0.950 . S
C1535 C1534 1.414 1_545 S
C1535 C1536 1.352 1_545 S
C1536 H1510 0.925 1_565 S
C1536 C1532 1.432 . S
C1536 C1535 1.352 1_565 S
C1537 C1534 1.499 1_545 S
C1537 C1538 1.373 . S
C1537 C1539 1.389 . S
C1538 H1511 0.950 . S
C1538 C1524 1.377 . S
C1538 C1537 1.373 . S
C1539 C1523 1.377 . S
C1539 C1537 1.389 . S
C1539 C1540 1.524 1_545 S
C1540 C1539 1.524 1_565 S
C1540 C1541 1.397 1_565 S
C1540 C1545 1.363 . S
C1541 H1512 0.950 . S
C1541 C1540 1.397 1_545 S
C1541 C1542 1.332 . S
C1542 H1513 0.948 . S
C1542 C1541 1.332 . S
C1542 C1543 1.290 1_545 S
C1543 C1542 1.290 1_565 S
C1543 C1544 1.524 . S
C1543 H1546 0.999 . S
C1544 H1514 0.950 . S
C1544 C1543 1.524 . S
C1544 C1545 1.415 . S
C1545 H1515 0.950 . S
C1545 C1540 1.363 . S
C1545 C1544 1.415 . S
H1546 C1543 0.999 . S
H1547 C1528 0.913 . S
H1548 C1566 0.951 1_554 S
H1549 C1568 0.951 . S
H1550 C1570 0.950 . S
H1551 C1571 0.950 . S
H1552 C1573 0.950 . S
H1553 C1576 0.950 . S
H1554 C1577 0.950 . S
H1555 C1579 0.950 . S
H1556 C1580 0.950 . S
H1557 C1581 0.951 . S
H1558 C1583 0.951 . S
H1559 C1585 0.950 . S
H1560 C1586 0.950 . S
H1561 C1588 0.950 . S
H1562 C1591 0.950 . S
H1563 C1592 0.950 . S
H1564 C1594 0.950 . S
H1565 C1595 0.950 . S
C1566 H1548 0.951 1_556 S
C1566 C1567 1.366 . S
C1566 C1568 1.388 . S
C1567 C1566 1.366 . S
C1567 C1571 1.385 . S
C1568 H1549 0.951 . S
C1568 C1566 1.388 . S
C1568 C1569 1.366 . S
C1569 C1568 1.366 . S
C1569 C1570 1.414 . S
C1569 C1572 1.499 . S
C1570 H1550 0.950 . S
C1570 C1569 1.414 . S
C1570 C1571 1.374 . S
C1571 H1551 0.950 . S
C1571 C1567 1.385 . S
C1571 C1570 1.374 . S
C1572 C1569 1.499 . S
C1572 C1573 1.373 . S
C1572 C1574 1.389 . S
C1573 H1552 0.950 . S
C1573 C1572 1.373 . S
C1573 C1589 1.377 . S
C1574 C1572 1.389 . S
C1574 C1575 1.524 . S
C1574 C1588 1.377 . S
C1575 C1574 1.524 . S
C1575 C1576 1.397 . S
C1575 C1580 1.363 . S
C1576 H1553 0.950 . S
C1576 C1575 1.397 . S
C1576 C1577 1.334 . S
C1577 H1554 0.950 . S
C1577 C1576 1.334 . S
C1577 C1578 1.287 . S
C1578 C1577 1.287 . S
C1578 C1579 1.524 . S
C1578 H1597 0.913 . S
C1579 H1555 0.950 . S
C1579 C1578 1.524 . S
C1579 C1580 1.415 . S
C1580 H1556 0.950 . S
C1580 C1575 1.363 . S
C1580 C1579 1.415 . S
C1581 H1557 0.951 . S
C1581 C1582 1.366 . S
C1581 C1583 1.388 . S
C1582 C1581 1.366 . S
C1582 C1586 1.385 . S
C1583 H1558 0.951 . S
C1583 C1581 1.388 . S
C1583 C1584 1.366 . S
C1584 C1583 1.366 . S
C1584 C1585 1.414 . S
C1584 C1587 1.499 . S
C1585 H1559 0.950 . S
C1585 C1584 1.414 . S
C1585 C1586 1.374 . S
C1586 H1560 0.950 . S
C1586 C1582 1.385 . S
C1586 C1585 1.374 . S
C1587 C1584 1.499 . S
C1587 C1588 1.373 . S
C1587 C1589 1.389 . S
C1588 H1561 0.950 . S
C1588 C1574 1.377 . S
C1588 C1587 1.373 . S
C1589 C1573 1.377 . S
C1589 C1587 1.389 . S
C1589 C1590 1.524 . S
C1590 C1589 1.524 . S
C1590 C1591 1.397 . S
C1590 C1595 1.363 . S
C1591 H1562 0.950 . S
C1591 C1590 1.397 . S
C1591 C1592 1.334 . S
C1592 H1563 0.950 . S
C1592 C1591 1.334 . S
C1592 C1593 1.287 . S
C1593 C1592 1.287 . S
C1593 C1594 1.524 . S
C1593 H1596 0.999 . S
C1594 H1564 0.950 . S
C1594 C1593 1.524 . S
C1594 C1595 1.415 . S
C1595 H1565 0.950 . S
C1595 C1590 1.363 . S
C1595 C1594 1.415 . S
H1596 C1593 0.999 . S
H1597 C1578 0.913 . S
H1598 C1616 0.951 . S
H1599 C1618 0.951 . S
H1600 C1620 0.950 . S
H1601 C1621 0.950 . S
H1602 C1623 0.950 . S
H1603 C1626 0.950 . S
H1604 C1627 0.950 . S
H1605 C1629 0.950 . S
H1606 C1630 0.950 . S
H1607 C1631 0.941 1_545 S
H1608 C1633 0.951 . S
H1609 C1635 0.950 . S
H1610 C1636 0.950 . S
H1611 C1638 1.018 . S
H1612 C1641 0.950 . S
H1613 C1642 0.950 . S
H1614 C1644 0.950 . S
H1615 C1645 0.950 . S
C1616 H1598 0.951 . S
C1616 C1617 1.366 . S
C1616 C1618 1.388 . S
C1617 C1616 1.366 . S
C1617 C1621 1.385 . S
C1618 H1599 0.951 . S
C1618 C1616 1.388 . S
C1618 C1619 1.366 . S
C1619 C1618 1.366 . S
C1619 C1620 1.414 . S
C1619 C1622 1.499 . S
C1620 H1600 0.950 . S
C1620 C1619 1.414 . S
C1620 C1621 1.374 . S
C1621 H1601 0.950 . S
C1621 C1617 1.385 . S
C1621 C1620 1.374 . S
C1622 C1619 1.499 . S
C1622 C1623 1.373 . S
C1622 C1624 1.389 . S
C1623 H1602 0.950 . S
C1623 C1622 1.373 . S
C1623 C1639 1.377 . S
C1624 C1622 1.389 . S
C1624 C1625 1.508 1_545 S
C1624 C1638 1.342 1_545 S
C1625 C1624 1.508 1_565 S
C1625 C1626 1.370 1_565 S
C1625 C1630 1.405 . S
C1626 H1603 0.950 . S
C1626 C1625 1.370 1_545 S
C1626 C1627 1.334 . S
C1627 H1604 0.950 . S
C1627 C1626 1.334 . S
C1627 C1628 1.287 1_545 S
C1628 C1627 1.287 1_565 S
C1628 C1629 1.524 . S
C1628 H1647 0.913 . S
C1629 H1605 0.950 . S
C1629 C1628 1.524 . S
C1629 C1630 1.415 . S
C1630 H1606 0.950 . S
C1630 C1625 1.405 . S
C1630 C1629 1.415 . S
C1631 H1607 0.941 1_565 S
C1631 C1632 1.384 . S
C1631 C1633 1.380 1_565 S
C1632 C1631 1.384 . S
C1632 C1636 1.385 . S
C1633 H1608 0.951 . S
C1633 C1631 1.380 1_545 S
C1633 C1634 1.366 1_545 S
C1634 C1633 1.366 1_565 S
C1634 C1635 1.414 . S
C1634 C1637 1.499 1_565 S
C1635 H1609 0.950 . S
C1635 C1634 1.414 . S
C1635 C1636 1.374 . S
C1636 H1610 0.950 . S
C1636 C1632 1.385 . S
C1636 C1635 1.374 . S
C1637 C1634 1.499 1_545 S
C1637 C1638 1.345 1_545 S
C1637 C1639 1.389 . S
C1638 H1611 1.018 . S
C1638 C1624 1.342 1_565 S
C1638 C1637 1.345 1_565 S
C1639 C1623 1.377 . S
C1639 C1637 1.389 . S
C1639 C1640 1.524 . S
C1640 C1639 1.524 . S
C1640 C1641 1.397 . S
C1640 C1645 1.363 . S
C1641 H1612 0.950 . S
C1641 C1640 1.397 . S
C1641 C1642 1.334 . S
C1642 H1613 0.950 . S
C1642 C1641 1.334 . S
C1642 C1643 1.287 . S
C1643 C1642 1.287 . S
C1643 C1644 1.524 . S
C1643 H1646 0.999 . S
C1644 H1614 0.950 . S
C1644 C1643 1.524 . S
C1644 C1645 1.415 . S
C1645 H1615 0.950 . S
C1645 C1640 1.363 . S
C1645 C1644 1.415 . S
H1646 C1643 0.999 . S
H1647 C1628 0.913 . S
H1648 C1666 0.951 . S
H1649 C1668 0.951 . S
H1650 C1670 0.950 . S
H1651 C1671 0.950 . S
H1652 C1673 0.950 . S
H1653 C1676 0.950 . S
H1654 C1677 0.950 . S
H1655 C1679 0.950 . S
H1656 C1680 0.950 . S
H1657 C1681 0.951 . S
H1658 C1683 0.951 . S
H1659 C1685 0.950 . S
H1660 C1686 0.950 . S
H1661 C1688 0.950 . S
H1662 C1691 0.950 . S
H1663 C1692 0.950 . S
H1664 C1694 0.950 . S
H1665 C1695 0.950 . S
C1666 H1648 0.951 . S
C1666 C1667 1.366 . S
C1666 C1668 1.388 . S
C1667 C1666 1.366 . S
C1667 C1671 1.385 . S
C1668 H1649 0.951 . S
C1668 C1666 1.388 . S
C1668 C1669 1.366 . S
C1669 C1668 1.366 . S
C1669 C1670 1.414 . S
C1669 C1672 1.499 . S
C1670 H1650 0.950 . S
C1670 C1669 1.414 . S
C1670 C1671 1.374 . S
C1671 H1651 0.950 . S
C1671 C1667 1.385 . S
C1671 C1670 1.374 . S
C1672 C1669 1.499 . S
C1672 C1673 1.373 . S
C1672 C1674 1.389 . S
C1673 H1652 0.950 . S
C1673 C1672 1.373 . S
C1673 C1689 1.377 . S
C1674 C1672 1.389 . S
C1674 C1675 1.524 . S
C1674 C1688 1.377 . S
C1675 C1674 1.524 . S
C1675 C1676 1.397 . S
C1675 C1680 1.363 . S
C1676 H1653 0.950 . S
C1676 C1675 1.397 . S
C1676 C1677 1.334 . S
C1677 H1654 0.950 . S
C1677 C1676 1.334 . S
C1677 C1678 1.287 . S
C1678 C1677 1.287 . S
C1678 C1679 1.524 . S
C1678 H1697 0.913 . S
C1679 H1655 0.950 . S
C1679 C1678 1.524 . S
C1679 C1680 1.415 . S
C1680 H1656 0.950 . S
C1680 C1675 1.363 . S
C1680 C1679 1.415 . S
C1681 H1657 0.951 . S
C1681 C1682 1.366 . S
C1681 C1683 1.388 . S
C1682 C1681 1.366 . S
C1682 C1686 1.385 . S
C1683 H1658 0.951 . S
C1683 C1681 1.388 . S
C1683 C1684 1.366 . S
C1684 C1683 1.366 . S
C1684 C1685 1.414 . S
C1684 C1687 1.499 . S
C1685 H1659 0.950 . S
C1685 C1684 1.414 . S
C1685 C1686 1.374 . S
C1686 H1660 0.950 . S
C1686 C1682 1.385 . S
C1686 C1685 1.374 . S
C1687 C1684 1.499 . S
C1687 C1688 1.373 . S
C1687 C1689 1.389 . S
C1688 H1661 0.950 . S
C1688 C1674 1.377 . S
C1688 C1687 1.373 . S
C1689 C1673 1.377 . S
C1689 C1687 1.389 . S
C1689 C1690 1.524 . S
C1690 C1689 1.524 . S
C1690 C1691 1.397 . S
C1690 C1695 1.363 . S
C1691 H1662 0.950 . S
C1691 C1690 1.397 . S
C1691 C1692 1.334 . S
C1692 H1663 0.950 . S
C1692 C1691 1.334 . S
C1692 C1693 1.287 . S
C1693 C1692 1.287 . S
C1693 C1694 1.524 . S
C1693 H1696 0.999 . S
C1694 H1664 0.950 . S
C1694 C1693 1.524 . S
C1694 C1695 1.415 . S
C1695 H1665 0.950 . S
C1695 C1690 1.363 . S
C1695 C1694 1.415 . S
H1696 C1693 0.999 . S
H1697 C1678 0.913 . S
H1698 C1716 0.951 . S
H1699 C1718 0.951 . S
H1700 C1720 0.950 . S
H1701 C1721 0.950 . S
H1702 C1723 0.950 . S
H1703 C1726 0.950 . S
H1704 C1727 0.950 . S
H1705 C1729 0.950 . S
H1706 C1730 0.950 . S
H1707 C1731 0.951 . S
H1708 C1733 0.951 . S
H1709 C1735 0.950 . S
H1710 C1736 0.950 . S
H1711 C1738 0.950 . S
H1712 C1741 0.950 . S
H1713 C1742 0.950 . S
H1714 C1744 0.950 . S
H1715 C1745 0.950 . S
C1716 H1698 0.951 . S
C1716 C1717 1.366 . S
C1716 C1718 1.388 . S
C1717 C1716 1.366 . S
C1717 C1721 1.385 . S
C1718 H1699 0.951 . S
C1718 C1716 1.388 . S
C1718 C1719 1.366 . S
C1719 C1718 1.366 . S
C1719 C1720 1.414 . S
C1719 C1722 1.499 . S
C1720 H1700 0.950 . S
C1720 C1719 1.414 . S
C1720 C1721 1.374 . S
C1721 H1701 0.950 . S
C1721 C1717 1.385 . S
C1721 C1720 1.374 . S
C1722 C1719 1.499 . S
C1722 C1723 1.373 . S
C1722 C1724 1.389 . S
C1723 H1702 0.950 . S
C1723 C1722 1.373 . S
C1723 C1739 1.377 . S
C1724 C1722 1.389 . S
C1724 C1725 1.524 . S
C1724 C1738 1.377 . S
C1725 C1724 1.524 . S
C1725 C1726 1.397 . S
C1725 C1730 1.363 . S
C1726 H1703 0.950 . S
C1726 C1725 1.397 . S
C1726 C1727 1.334 . S
C1727 H1704 0.950 . S
C1727 C1726 1.334 . S
C1727 C1728 1.287 . S
C1728 C1727 1.287 . S
C1728 C1729 1.524 . S
C1728 H1747 0.913 . S
C1729 H1705 0.950 . S
C1729 C1728 1.524 . S
C1729 C1730 1.415 . S
C1730 H1706 0.950 . S
C1730 C1725 1.363 . S
C1730 C1729 1.415 . S
C1731 H1707 0.951 . S
C1731 C1732 1.366 . S
C1731 C1733 1.388 . S
C1732 C1731 1.366 . S
C1732 C1736 1.385 . S
C1733 H1708 0.951 . S
C1733 C1731 1.388 . S
C1733 C1734 1.366 . S
C1734 C1733 1.366 . S
C1734 C1735 1.414 . S
C1734 C1737 1.499 . S
C1735 H1709 0.950 . S
C1735 C1734 1.414 . S
C1735 C1736 1.374 . S
C1736 H1710 0.950 . S
C1736 C1732 1.385 . S
C1736 C1735 1.374 . S
C1737 C1734 1.499 . S
C1737 C1738 1.373 . S
C1737 C1739 1.389 . S
C1738 H1711 0.950 . S
C1738 C1724 1.377 . S
C1738 C1737 1.373 . S
C1739 C1723 1.377 . S
C1739 C1737 1.389 . S
C1739 C1740 1.524 . S
C1740 C1739 1.524 . S
C1740 C1741 1.397 . S
C1740 C1745 1.363 . S
C1741 H1712 0.950 . S
C1741 C1740 1.397 . S
C1741 C1742 1.334 . S
C1742 H1713 0.950 . S
C1742 C1741 1.334 . S
C1742 C1743 1.287 . S
C1743 C1742 1.287 . S
C1743 C1744 1.524 . S
C1743 H1746 0.999 . S
C1744 H1714 0.950 . S
C1744 C1743 1.524 . S
C1744 C1745 1.415 . S
C1745 H1715 0.950 . S
C1745 C1740 1.363 . S
C1745 C1744 1.415 . S
H1746 C1743 0.999 . S
H1747 C1728 0.913 . S
H1748 C1766 0.951 . S
H1749 C1768 0.951 . S
H1750 C1770 0.950 . S
H1751 C1771 0.950 . S
H1752 C1773 0.950 . S
H1753 C1776 0.950 . S
H1754 C1777 0.950 . S
H1755 C1779 0.950 . S
H1756 C1780 0.950 . S
H1757 C1781 0.951 1_554 S
H1758 C1783 0.951 . S
H1759 C1785 0.950 . S
H1760 C1786 0.950 . S
H1761 C1788 0.950 . S
H1762 C1791 0.950 . S
H1763 C1792 0.950 . S
H1764 C1794 0.950 . S
H1765 C1795 0.950 . S
C1766 H1748 0.951 . S
C1766 C1767 1.366 . S
C1766 C1768 1.388 . S
C1767 C1766 1.366 . S
C1767 C1771 1.385 . S
C1768 H1749 0.951 . S
C1768 C1766 1.388 . S
C1768 C1769 1.366 . S
C1769 C1768 1.366 . S
C1769 C1770 1.414 . S
C1769 C1772 1.499 . S
C1770 H1750 0.950 . S
C1770 C1769 1.414 . S
C1770 C1771 1.374 . S
C1771 H1751 0.950 . S
C1771 C1767 1.385 . S
C1771 C1770 1.374 . S
C1772 C1769 1.499 . S
C1772 C1773 1.373 . S
C1772 C1774 1.389 . S
C1773 H1752 0.950 . S
C1773 C1772 1.373 . S
C1773 C1789 1.377 . S
C1774 C1772 1.389 . S
C1774 C1775 1.524 . S
C1774 C1788 1.377 . S
C1775 C1774 1.524 . S
C1775 C1776 1.397 . S
C1775 C1780 1.363 . S
C1776 H1753 0.950 . S
C1776 C1775 1.397 . S
C1776 C1777 1.334 . S
C1777 H1754 0.950 . S
C1777 C1776 1.334 . S
C1777 C1778 1.287 . S
C1778 C1777 1.287 . S
C1778 C1779 1.524 . S
C1778 H1797 0.913 . S
C1779 H1755 0.950 . S
C1779 C1778 1.524 . S
C1779 C1780 1.415 . S
C1780 H1756 0.950 . S
C1780 C1775 1.363 . S
C1780 C1779 1.415 . S
C1781 H1757 0.951 1_556 S
C1781 C1782 1.366 . S
C1781 C1783 1.388 . S
C1782 C1781 1.366 . S
C1782 C1786 1.385 . S
C1783 H1758 0.951 . S
C1783 C1781 1.388 . S
C1783 C1784 1.366 . S
C1784 C1783 1.366 . S
C1784 C1785 1.414 . S
C1784 C1787 1.499 . S
C1785 H1759 0.950 . S
C1785 C1784 1.414 . S
C1785 C1786 1.374 . S
C1786 H1760 0.950 . S
C1786 C1782 1.385 . S
C1786 C1785 1.374 . S
C1787 C1784 1.499 . S
C1787 C1788 1.373 . S
C1787 C1789 1.389 . S
C1788 H1761 0.950 . S
C1788 C1774 1.377 . S
C1788 C1787 1.373 . S
C1789 C1773 1.377 . S
C1789 C1787 1.389 . S
C1789 C1790 1.524 . S
C1790 C1789 1.524 . S
C1790 C1791 1.397 . S
C1790 C1795 1.363 . S
C1791 H1762 0.950 . S
C1791 C1790 1.397 . S
C1791 C1792 1.334 . S
C1792 H1763 0.950 . S
C1792 C1791 1.334 . S
C1792 C1793 1.287 . S
C1793 C1792 1.287 . S
C1793 C1794 1.524 . S
C1793 H1796 0.999 . S
C1794 H1764 0.950 . S
C1794 C1793 1.524 . S
C1794 C1795 1.415 . S
C1795 H1765 0.950 . S
C1795 C1790 1.363 . S
C1795 C1794 1.415 . S
H1796 C1793 0.999 . S
H1797 C1778 0.913 . S
H1798 C1816 0.951 . S
H1799 C1818 0.951 . S
H1800 C1820 0.950 . S
H1801 C1821 0.950 . S
H1802 C1823 0.950 . S
H1803 C1826 0.950 . S
H1804 C1827 0.950 . S
H1805 C1829 0.950 . S
H1806 C1830 0.950 . S
H1807 C1831 0.951 . S
H1808 C1833 0.951 1_554 S
H1809 C1835 0.950 . S
H1810 C1836 0.950 . S
H1811 C1838 0.950 . S
H1812 C1841 0.950 . S
H1813 C1842 0.950 . S
H1814 C1844 0.950 . S
H1815 C1845 0.950 . S
C1816 H1798 0.951 . S
C1816 C1817 1.366 . S
C1816 C1818 1.388 . S
C1817 C1816 1.366 . S
C1817 C1821 1.385 . S
C1818 H1799 0.951 . S
C1818 C1816 1.388 . S
C1818 C1819 1.366 . S
C1819 C1818 1.366 . S
C1819 C1820 1.414 . S
C1819 C1822 1.499 . S
C1820 H1800 0.950 . S
C1820 C1819 1.414 . S
C1820 C1821 1.374 . S
C1821 H1801 0.950 . S
C1821 C1817 1.385 . S
C1821 C1820 1.374 . S
C1822 C1819 1.499 . S
C1822 C1823 1.373 . S
C1822 C1824 1.389 . S
C1823 H1802 0.950 . S
C1823 C1822 1.373 . S
C1823 C1839 1.377 . S
C1824 C1822 1.389 . S
C1824 C1825 1.524 . S
C1824 C1838 1.377 . S
C1825 C1824 1.524 . S
C1825 C1826 1.397 . S
C1825 C1830 1.363 . S
C1826 H1803 0.950 . S
C1826 C1825 1.397 . S
C1826 C1827 1.334 . S
C1827 H1804 0.950 . S
C1827 C1826 1.334 . S
C1827 C1828 1.287 . S
C1828 C1827 1.287 . S
C1828 C1829 1.524 . S
C1828 H1847 0.913 . S
C1829 H1805 0.950 . S
C1829 C1828 1.524 . S
C1829 C1830 1.415 . S
C1830 H1806 0.950 . S
C1830 C1825 1.363 . S
C1830 C1829 1.415 . S
C1831 H1807 0.951 . S
C1831 C1832 1.366 . S
C1831 C1833 1.388 . S
C1832 C1831 1.366 . S
C1832 C1836 1.385 . S
C1833 H1808 0.951 1_556 S
C1833 C1831 1.388 . S
C1833 C1834 1.366 1_556 S
C1834 C1833 1.366 1_554 S
C1834 C1835 1.414 1_554 S
C1834 C1837 1.499 . S
C1835 H1809 0.950 . S
C1835 C1834 1.414 1_556 S
C1835 C1836 1.374 . S
C1836 H1810 0.950 . S
C1836 C1832 1.385 . S
C1836 C1835 1.374 . S
C1837 C1834 1.499 . S
C1837 C1838 1.373 . S
C1837 C1839 1.389 . S
C1838 H1811 0.950 . S
C1838 C1824 1.377 . S
C1838 C1837 1.373 . S
C1839 C1823 1.377 . S
C1839 C1837 1.389 . S
C1839 C1840 1.524 . S
C1840 C1839 1.524 . S
C1840 C1841 1.397 . S
C1840 C1845 1.363 . S
C1841 H1812 0.950 . S
C1841 C1840 1.397 . S
C1841 C1842 1.334 . S
C1842 H1813 0.950 . S
C1842 C1841 1.334 . S
C1842 C1843 1.287 . S
C1843 C1842 1.287 . S
C1843 C1844 1.524 . S
C1843 H1846 0.999 . S
C1844 H1814 0.950 . S
C1844 C1843 1.524 . S
C1844 C1845 1.415 . S
C1845 H1815 0.950 . S
C1845 C1840 1.363 . S
C1845 C1844 1.415 . S
H1846 C1843 0.999 . S
H1847 C1828 0.913 . S
H1848 C1866 0.951 . S
H1849 C1868 0.951 . S
H1850 C1870 0.950 . S
H1851 C1871 0.950 . S
H1852 C1873 0.950 . S
H1853 C1876 0.950 . S
H1854 C1877 0.950 . S
H1855 C1879 0.950 . S
H1856 C1880 0.950 . S
H1857 C1881 0.951 . S
H1858 C1883 0.951 . S
H1859 C1885 0.950 . S
H1860 C1886 0.950 1_554 S
H1861 C1888 0.950 . S
H1862 C1891 0.950 . S
H1863 C1892 0.950 . S
H1864 C1894 0.950 . S
H1865 C1895 0.950 . S
C1866 H1848 0.951 . S
C1866 C1867 1.366 . S
C1866 C1868 1.388 . S
C1867 C1866 1.366 . S
C1867 C1871 1.385 . S
C1868 H1849 0.951 . S
C1868 C1866 1.388 . S
C1868 C1869 1.366 . S
C1869 C1868 1.366 . S
C1869 C1870 1.414 . S
C1869 C1872 1.499 . S
C1870 H1850 0.950 . S
C1870 C1869 1.414 . S
C1870 C1871 1.374 . S
C1871 H1851 0.950 . S
C1871 C1867 1.385 . S
C1871 C1870 1.374 . S
C1872 C1869 1.499 . S
C1872 C1873 1.373 . S
C1872 C1874 1.389 . S
C1873 H1852 0.950 . S
C1873 C1872 1.373 . S
C1873 C1889 1.377 . S
C1874 C1872 1.389 . S
C1874 C1875 1.524 . S
C1874 C1888 1.377 . S
C1875 C1874 1.524 . S
C1875 C1876 1.397 . S
C1875 C1880 1.363 . S
C1876 H1853 0.950 . S
C1876 C1875 1.397 . S
C1876 C1877 1.334 . S
C1877 H1854 0.950 . S
C1877 C1876 1.334 . S
C1877 C1878 1.287 . S
C1878 C1877 1.287 . S
C1878 C1879 1.524 . S
C1878 H1897 0.913 . S
C1879 H1855 0.950 . S
C1879 C1878 1.524 . S
C1879 C1880 1.415 . S
C1880 H1856 0.950 . S
C1880 C1875 1.363 . S
C1880 C1879 1.415 . S
C1881 H1857 0.951 . S
C1881 C1882 1.366 . S
C1881 C1883 1.388 . S
C1882 C1881 1.366 . S
C1882 C1886 1.385 . S
C1883 H1858 0.951 . S
C1883 C1881 1.388 . S
C1883 C1884 1.366 . S
C1884 C1883 1.366 . S
C1884 C1885 1.414 . S
C1884 C1887 1.499 . S
C1885 H1859 0.950 . S
C1885 C1884 1.414 . S
C1885 C1886 1.374 . S
C1886 H1860 0.950 1_556 S
C1886 C1882 1.385 . S
C1886 C1885 1.374 . S
C1887 C1884 1.499 . S
C1887 C1888 1.373 . S
C1887 C1889 1.389 . S
C1888 H1861 0.950 . S
C1888 C1874 1.377 . S
C1888 C1887 1.373 . S
C1889 C1873 1.377 . S
C1889 C1887 1.389 . S
C1889 C1890 1.524 . S
C1890 C1889 1.524 . S
C1890 C1891 1.397 . S
C1890 C1895 1.363 . S
C1891 H1862 0.950 . S
C1891 C1890 1.397 . S
C1891 C1892 1.334 . S
C1892 H1863 0.950 . S
C1892 C1891 1.334 . S
C1892 C1893 1.287 . S
C1893 C1892 1.287 . S
C1893 C1894 1.524 . S
C1893 H1896 0.999 . S
C1894 H1864 0.950 . S
C1894 C1893 1.524 . S
C1894 C1895 1.415 . S
C1895 H1865 0.950 . S
C1895 C1890 1.363 . S
C1895 C1894 1.415 . S
H1896 C1893 0.999 . S
H1897 C1878 0.913 . S
H1898 C1916 0.951 . S
H1899 C1918 0.951 . S
H1900 C1920 0.950 . S
H1901 C1921 0.950 . S
H1902 C1923 0.950 . S
H1903 C1926 0.950 . S
H1904 C1927 0.950 . S
H1905 C1929 0.950 . S
H1906 C1930 0.950 . S
H1907 C1931 0.951 . S
H1908 C1933 0.951 . S
H1909 C1935 0.950 . S
H1910 C1936 0.950 . S
H1911 C1938 0.950 . S
H1912 C1941 0.950 . S
H1913 C1942 0.950 . S
H1914 C1944 0.950 . S
H1915 C1945 0.950 . S
C1916 H1898 0.951 . S
C1916 C1917 1.366 . S
C1916 C1918 1.388 . S
C1917 C1916 1.366 . S
C1917 C1921 1.385 . S
C1918 H1899 0.951 . S
C1918 C1916 1.388 . S
C1918 C1919 1.366 . S
C1919 C1918 1.366 . S
C1919 C1920 1.414 . S
C1919 C1922 1.499 . S
C1920 H1900 0.950 . S
C1920 C1919 1.414 . S
C1920 C1921 1.374 . S
C1921 H1901 0.950 . S
C1921 C1917 1.385 . S
C1921 C1920 1.374 . S
C1922 C1919 1.499 . S
C1922 C1923 1.373 . S
C1922 C1924 1.389 . S
C1923 H1902 0.950 . S
C1923 C1922 1.373 . S
C1923 C1939 1.377 . S
C1924 C1922 1.389 . S
C1924 C1925 1.524 . S
C1924 C1938 1.377 . S
C1925 C1924 1.524 . S
C1925 C1926 1.397 . S
C1925 C1930 1.363 . S
C1926 H1903 0.950 . S
C1926 C1925 1.397 . S
C1926 C1927 1.334 . S
C1927 H1904 0.950 . S
C1927 C1926 1.334 . S
C1927 C1928 1.287 . S
C1928 C1927 1.287 . S
C1928 C1929 1.524 . S
C1928 H1947 0.913 . S
C1929 H1905 0.950 . S
C1929 C1928 1.524 . S
C1929 C1930 1.415 . S
C1930 H1906 0.950 . S
C1930 C1925 1.363 . S
C1930 C1929 1.415 . S
C1931 H1907 0.951 . S
C1931 C1932 1.366 . S
C1931 C1933 1.388 . S
C1932 C1931 1.366 . S
C1932 C1936 1.385 . S
C1933 H1908 0.951 . S
C1933 C1931 1.388 . S
C1933 C1934 1.366 . S
C1934 C1933 1.366 . S
C1934 C1935 1.414 . S
C1934 C1937 1.499 . S
C1935 H1909 0.950 . S
C1935 C1934 1.414 . S
C1935 C1936 1.374 . S
C1936 H1910 0.950 . S
C1936 C1932 1.385 . S
C1936 C1935 1.374 . S
C1937 C1934 1.499 . S
C1937 C1938 1.373 . S
C1937 C1939 1.389 . S
C1938 H1911 0.950 . S
C1938 C1924 1.377 . S
C1938 C1937 1.373 . S
C1939 C1923 1.377 . S
C1939 C1937 1.389 . S
C1939 C1940 1.524 . S
C1940 C1939 1.524 . S
C1940 C1941 1.397 . S
C1940 C1945 1.363 . S
C1941 H1912 0.950 . S
C1941 C1940 1.397 . S
C1941 C1942 1.334 . S
C1942 H1913 0.950 . S
C1942 C1941 1.334 . S
C1942 C1943 1.287 . S
C1943 C1942 1.287 . S
C1943 C1944 1.524 . S
C1943 H1946 0.999 . S
C1944 H1914 0.950 . S
C1944 C1943 1.524 . S
C1944 C1945 1.415 . S
C1945 H1915 0.950 . S
C1945 C1940 1.363 . S
C1945 C1944 1.415 . S
H1946 C1943 0.999 . S
H1947 C1928 0.913 . S
H1948 C1966 0.951 . S
H1949 C1968 0.951 . S
H1950 C1970 0.950 . S
H1951 C1971 0.950 . S
H1952 C1973 0.950 . S
H1953 C1976 0.950 . S
H1954 C1977 0.950 . S
H1955 C1979 0.950 . S
H1956 C1980 0.950 . S
H1957 C1981 0.951 . S
H1958 C1983 0.951 . S
H1959 C1985 0.950 . S
H1960 C1986 0.950 . S
H1961 C1988 0.950 . S
H1962 C1991 0.950 . S
H1963 C1992 0.950 . S
H1964 C1994 0.950 . S
H1965 C1995 0.950 . S
C1966 H1948 0.951 . S
C1966 C1967 1.366 . S
C1966 C1968 1.388 . S
C1967 C1966 1.366 . S
C1967 C1971 1.385 . S
C1968 H1949 0.951 . S
C1968 C1966 1.388 . S
C1968 C1969 1.366 . S
C1969 C1968 1.366 . S
C1969 C1970 1.414 . S
C1969 C1972 1.499 . S
C1970 H1950 0.950 . S
C1970 C1969 1.414 . S
C1970 C1971 1.374 . S
C1971 H1951 0.950 . S
C1971 C1967 1.385 . S
C1971 C1970 1.374 . S
C1972 C1969 1.499 . S
C1972 C1973 1.373 . S
C1972 C1974 1.389 . S
C1973 H1952 0.950 . S
C1973 C1972 1.373 . S
C1973 C1989 1.377 . S
C1974 C1972 1.389 . S
C1974 C1975 1.524 . S
C1974 C1988 1.377 . S
C1975 C1974 1.524 . S
C1975 C1976 1.397 . S
C1975 C1980 1.363 . S
C1976 H1953 0.950 . S
C1976 C1975 1.397 . S
C1976 C1977 1.334 . S
C1977 H1954 0.950 . S
C1977 C1976 1.334 . S
C1977 C1978 1.287 . S
C1978 C1977 1.287 . S
C1978 C1979 1.524 . S
C1978 H1997 0.913 . S
C1979 H1955 0.950 . S
C1979 C1978 1.524 . S
C1979 C1980 1.415 . S
C1980 H1956 0.950 . S
C1980 C1975 1.363 . S
C1980 C1979 1.415 . S
C1981 H1957 0.951 . S
C1981 C1982 1.366 . S
C1981 C1983 1.388 . S
C1982 C1981 1.366 . S
C1982 C1986 1.385 . S
C1983 H1958 0.951 . S
C1983 C1981 1.388 . S
C1983 C1984 1.366 . S
C1984 C1983 1.366 . S
C1984 C1985 1.414 . S
C1984 C1987 1.499 . S
C1985 H1959 0.950 . S
C1985 C1984 1.414 . S
C1985 C1986 1.374 . S
C1986 H1960 0.950 . S
C1986 C1982 1.385 . S
C1986 C1985 1.374 . S
C1987 C1984 1.499 . S
C1987 C1988 1.373 . S
C1987 C1989 1.389 . S
C1988 H1961 0.950 . S
C1988 C1974 1.377 . S
C1988 C1987 1.373 . S
C1989 C1973 1.377 . S
C1989 C1987 1.389 . S
C1989 C1990 1.524 . S
C1990 C1989 1.524 . S
C1990 C1991 1.397 . S
C1990 C1995 1.363 . S
C1991 H1962 0.950 . S
C1991 C1990 1.397 . S
C1991 C1992 1.334 . S
C1992 H1963 0.950 . S
C1992 C1991 1.334 . S
C1992 C1993 1.287 . S
C1993 C1992 1.287 . S
C1993 C1994 1.524 . S
C1993 H1996 0.999 . S
C1994 H1964 0.950 . S
C1994 C1993 1.524 . S
C1994 C1995 1.415 . S
C1995 H1965 0.950 . S
C1995 C1990 1.363 . S
C1995 C1994 1.415 . S
H1996 C1993 0.999 . S
H1997 C1978 0.913 . S
H1998 C2016 0.951 . S
H1999 C2018 0.951 . S
H2000 C2020 0.950 . S
H2001 C2021 0.950 . S
H2002 C2023 0.950 . S
H2003 C2026 0.950 . S
H2004 C2027 0.950 . S
H2005 C2029 0.950 . S
H2006 C2030 0.950 . S
H2007 C2031 0.951 . S
H2008 C2033 0.951 1_554 S
H2009 C2035 0.950 . S
H2010 C2036 0.950 . S
H2011 C2038 0.950 . S
H2012 C2041 0.950 1_556 S
H2013 C2042 0.950 . S
H2014 C2044 0.950 . S
H2015 C2045 0.950 . S
C2016 H1998 0.951 . S
C2016 C2017 1.366 . S
C2016 C2018 1.388 . S
C2017 C2016 1.366 . S
C2017 C2021 1.385 . S
C2018 H1999 0.951 . S
C2018 C2016 1.388 . S
C2018 C2019 1.366 . S
C2019 C2018 1.366 . S
C2019 C2020 1.414 . S
C2019 C2022 1.499 . S
C2020 H2000 0.950 . S
C2020 C2019 1.414 . S
C2020 C2021 1.374 . S
C2021 H2001 0.950 . S
C2021 C2017 1.385 . S
C2021 C2020 1.374 . S
C2022 C2019 1.499 . S
C2022 C2023 1.373 . S
C2022 C2024 1.389 . S
C2023 H2002 0.950 . S
C2023 C2022 1.373 . S
C2023 C2039 1.377 . S
C2024 C2022 1.389 . S
C2024 C2025 1.524 . S
C2024 C2038 1.377 . S
C2025 C2024 1.524 . S
C2025 C2026 1.397 . S
C2025 C2030 1.363 . S
C2026 H2003 0.950 . S
C2026 C2025 1.397 . S
C2026 C2027 1.334 . S
C2027 H2004 0.950 . S
C2027 C2026 1.334 . S
C2027 C2028 1.287 . S
C2028 C2027 1.287 . S
C2028 C2029 1.524 . S
C2028 H2047 0.913 . S
C2029 H2005 0.950 . S
C2029 C2028 1.524 . S
C2029 C2030 1.415 . S
C2030 H2006 0.950 . S
C2030 C2025 1.363 . S
C2030 C2029 1.415 . S
C2031 H2007 0.951 . S
C2031 C2032 1.366 . S
C2031 C2033 1.388 . S
C2032 C2031 1.366 . S
C2032 C2036 1.385 . S
C2033 H2008 0.951 1_556 S
C2033 C2031 1.388 . S
C2033 C2034 1.366 1_556 S
C2034 C2033 1.366 1_554 S
C2034 C2035 1.414 1_554 S
C2034 C2037 1.499 . S
C2035 H2009 0.950 . S
C2035 C2034 1.414 1_556 S
C2035 C2036 1.374 . S
C2036 H2010 0.950 . S
C2036 C2032 1.385 . S
C2036 C2035 1.374 . S
C2037 C2034 1.499 . S
C2037 C2038 1.373 . S
C2037 C2039 1.389 . S
C2038 H2011 0.950 . S
C2038 C2024 1.377 . S
C2038 C2037 1.373 . S
C2039 C2023 1.377 . S
C2039 C2037 1.389 . S
C2039 C2040 1.524 . S
C2040 C2039 1.524 . S
C2040 C2041 1.397 . S
C2040 C2045 1.363 . S
C2041 H2012 0.950 1_554 S
C2041 C2040 1.397 . S
C2041 C2042 1.334 1_554 S
C2042 H2013 0.950 . S
C2042 C2041 1.334 1_556 S
C2042 C2043 1.287 1_556 S
C2043 C2042 1.287 1_554 S
C2043 C2044 1.524 . S
C2043 H2046 0.999 1_554 S
C2044 H2014 0.950 . S
C2044 C2043 1.524 . S
C2044 C2045 1.415 . S
C2045 H2015 0.950 . S
C2045 C2040 1.363 . S
C2045 C2044 1.415 . S
H2046 C2043 0.999 1_556 S
H2047 C2028 0.913 . S
H2048 C2066 0.951 . S
H2049 C2068 0.951 . S
H2050 C2070 0.950 . S
H2051 C2071 0.950 . S
H2052 C2073 0.950 . S
H2053 C2076 0.950 . S
H2054 C2077 0.950 . S
H2055 C2079 0.950 . S
H2056 C2080 0.950 . S
H2057 C2081 0.951 . S
H2058 C2083 0.951 . S
H2059 C2085 0.950 . S
H2060 C2086 0.950 . S
H2061 C2088 0.950 . S
H2062 C2091 0.950 . S
H2063 C2092 0.950 . S
H2064 C2094 0.950 . S
H2065 C2095 0.950 . S
C2066 H2048 0.951 . S
C2066 C2067 1.366 . S
C2066 C2068 1.388 . S
C2067 C2066 1.366 . S
C2067 C2071 1.385 . S
C2068 H2049 0.951 . S
C2068 C2066 1.388 . S
C2068 C2069 1.366 . S
C2069 C2068 1.366 . S
C2069 C2070 1.414 . S
C2069 C2072 1.499 . S
C2070 H2050 0.950 . S
C2070 C2069 1.414 . S
C2070 C2071 1.374 . S
C2071 H2051 0.950 . S
C2071 C2067 1.385 . S
C2071 C2070 1.374 . S
C2072 C2069 1.499 . S
C2072 C2073 1.373 . S
C2072 C2074 1.389 . S
C2073 H2052 0.950 . S
C2073 C2072 1.373 . S
C2073 C2089 1.377 . S
C2074 C2072 1.389 . S
C2074 C2075 1.524 . S
C2074 C2088 1.377 . S
C2075 C2074 1.524 . S
C2075 C2076 1.397 . S
C2075 C2080 1.363 . S
C2076 H2053 0.950 . S
C2076 C2075 1.397 . S
C2076 C2077 1.334 . S
C2077 H2054 0.950 . S
C2077 C2076 1.334 . S
C2077 C2078 1.287 . S
C2078 C2077 1.287 . S
C2078 C2079 1.524 . S
C2078 H2097 0.913 . S
C2079 H2055 0.950 . S
C2079 C2078 1.524 . S
C2079 C2080 1.415 . S
C2080 H2056 0.950 . S
C2080 C2075 1.363 . S
C2080 C2079 1.415 . S
C2081 H2057 0.951 . S
C2081 C2082 1.366 . S
C2081 C2083 1.388 . S
C2082 C2081 1.366 . S
C2082 C2086 1.385 . S
C2083 H2058 0.951 . S
C2083 C2081 1.388 . S
C2083 C2084 1.366 . S
C2084 C2083 1.366 . S
C2084 C2085 1.414 . S
C2084 C2087 1.499 . S
C2085 H2059 0.950 . S
C2085 C2084 1.414 . S
C2085 C2086 1.374 . S
C2086 H2060 0.950 . S
C2086 C2082 1.385 . S
C2086 C2085 1.374 . S
C2087 C2084 1.499 . S
C2087 C2088 1.373 . S
C2087 C2089 1.389 . S
C2088 H2061 0.950 . S
C2088 C2074 1.377 . S
C2088 C2087 1.373 . S
C2089 C2073 1.377 . S
C2089 C2087 1.389 . S
C2089 C2090 1.524 1_554 S
C2090 C2089 1.524 1_556 S
C2090 C2091 1.397 . S
C2090 C2095 1.363 . S
C2091 H2062 0.950 . S
C2091 C2090 1.397 . S
C2091 C2092 1.334 . S
C2092 H2063 0.950 . S
C2092 C2091 1.334 . S
C2092 C2093 1.287 . S
C2093 C2092 1.287 . S
C2093 C2094 1.524 . S
C2093 H2096 0.999 . S
C2094 H2064 0.950 . S
C2094 C2093 1.524 . S
C2094 C2095 1.415 . S
C2095 H2065 0.950 . S
C2095 C2090 1.363 . S
C2095 C2094 1.415 . S
H2096 C2093 0.999 . S
H2097 C2078 0.913 . S
H2098 C2116 0.951 . S
H2099 C2118 0.951 . S
H2100 C2120 0.950 . S
H2101 C2121 0.950 . S
H2102 C2123 0.950 . S
H2103 C2126 0.950 . S
H2104 C2127 0.950 . S
H2105 C2129 0.950 . S
H2106 C2130 0.950 . S
H2107 C2131 0.951 . S
H2108 C2133 0.951 . S
H2109 C2135 0.950 . S
H2110 C2136 0.950 . S
H2111 C2138 0.950 . S
H2112 C2141 0.950 . S
H2113 C2142 0.950 . S
H2114 C2144 0.950 . S
H2115 C2145 0.950 . S
C2116 H2098 0.951 . S
C2116 C2117 1.366 . S
C2116 C2118 1.388 . S
C2117 C2116 1.366 . S
C2117 C2121 1.385 . S
C2118 H2099 0.951 . S
C2118 C2116 1.388 . S
C2118 C2119 1.366 . S
C2119 C2118 1.366 . S
C2119 C2120 1.414 . S
C2119 C2122 1.499 . S
C2120 H2100 0.950 . S
C2120 C2119 1.414 . S
C2120 C2121 1.374 . S
C2121 H2101 0.950 . S
C2121 C2117 1.385 . S
C2121 C2120 1.374 . S
C2122 C2119 1.499 . S
C2122 C2123 1.373 . S
C2122 C2124 1.389 . S
C2123 H2102 0.950 . S
C2123 C2122 1.373 . S
C2123 C2139 1.377 1_455 S
C2124 C2122 1.389 . S
C2124 C2125 1.524 . S
C2124 C2138 1.377 1_455 S
C2125 C2124 1.524 . S
C2125 C2126 1.397 . S
C2125 C2130 1.363 . S
C2126 H2103 0.950 . S
C2126 C2125 1.397 . S
C2126 C2127 1.334 . S
C2127 H2104 0.950 . S
C2127 C2126 1.334 . S
C2127 C2128 1.287 . S
C2128 C2127 1.287 . S
C2128 C2129 1.524 . S
C2128 H2147 0.913 . S
C2129 H2105 0.950 . S
C2129 C2128 1.524 . S
C2129 C2130 1.415 . S
C2130 H2106 0.950 . S
C2130 C2125 1.363 . S
C2130 C2129 1.415 . S
C2131 H2107 0.951 . S
C2131 C2132 1.366 . S
C2131 C2133 1.388 . S
C2132 C2131 1.366 . S
C2132 C2136 1.385 . S
C2133 H2108 0.951 . S
C2133 C2131 1.388 . S
C2133 C2134 1.366 . S
C2134 C2133 1.366 . S
C2134 C2135 1.414 . S
C2134 C2137 1.499 . S
C2135 H2109 0.950 . S
C2135 C2134 1.414 . S
C2135 C2136 1.374 . S
C2136 H2110 0.950 . S
C2136 C2132 1.385 . S
C2136 C2135 1.374 . S
C2137 C2134 1.499 . S
C2137 C2138 1.373 . S
C2137 C2139 1.389 . S
C2138 H2111 0.950 . S
C2138 C2124 1.377 1_655 S
C2138 C2137 1.373 . S
C2139 C2123 1.377 1_655 S
C2139 C2137 1.389 . S
C2139 C2140 1.524 . S
C2140 C2139 1.524 . S
C2140 C2141 1.397 . S
C2140 C2145 1.363 . S
C2141 H2112 0.950 . S
C2141 C2140 1.397 . S
C2141 C2142 1.334 . S
C2142 H2113 0.950 . S
C2142 C2141 1.334 . S
C2142 C2143 1.287 . S
C2143 C2142 1.287 . S
C2143 C2144 1.524 . S
C2143 H2146 0.999 . S
C2144 H2114 0.950 . S
C2144 C2143 1.524 . S
C2144 C2145 1.415 . S
C2145 H2115 0.950 . S
C2145 C2140 1.363 . S
C2145 C2144 1.415 . S
H2146 C2143 0.999 . S
H2147 C2128 0.913 . S
H2148 C2166 0.951 . S
H2149 C2168 0.951 . S
H2150 C2170 0.950 . S
H2151 C2171 0.950 . S
H2152 C2173 0.950 . S
H2153 C2176 0.950 . S
H2154 C2177 0.950 . S
H2155 C2179 0.950 . S
H2156 C2180 0.950 . S
H2157 C2181 0.951 . S
H2158 C2183 0.951 . S
H2159 C2185 0.950 . S
H2160 C2186 0.950 . S
H2161 C2188 0.950 . S
H2162 C2191 0.950 . S
H2163 C2192 0.950 . S
H2164 C2194 0.950 . S
H2165 C2195 0.950 . S
C2166 H2148 0.951 . S
C2166 C2167 1.366 . S
C2166 C2168 1.388 . S
C2167 C2166 1.366 . S
C2167 C2171 1.385 . S
C2168 H2149 0.951 . S
C2168 C2166 1.388 . S
C2168 C2169 1.366 . S
C2169 C2168 1.366 . S
C2169 C2170 1.414 . S
C2169 C2172 1.499 . S
C2170 H2150 0.950 . S
C2170 C2169 1.414 . S
C2170 C2171 1.374 . S
C2171 H2151 0.950 . S
C2171 C2167 1.385 . S
C2171 C2170 1.374 . S
C2172 C2169 1.499 . S
C2172 C2173 1.373 . S
C2172 C2174 1.389 . S
C2173 H2152 0.950 . S
C2173 C2172 1.373 . S
C2173 C2189 1.377 . S
C2174 C2172 1.389 . S
C2174 C2175 1.524 . S
C2174 C2188 1.377 . S
C2175 C2174 1.524 . S
C2175 C2176 1.397 . S
C2175 C2180 1.363 . S
C2176 H2153 0.950 . S
C2176 C2175 1.397 . S
C2176 C2177 1.334 . S
C2177 H2154 0.950 . S
C2177 C2176 1.334 . S
C2177 C2178 1.287 . S
C2178 C2177 1.287 . S
C2178 C2179 1.524 . S
C2178 H2197 0.913 . S
C2179 H2155 0.950 . S
C2179 C2178 1.524 . S
C2179 C2180 1.415 . S
C2180 H2156 0.950 . S
C2180 C2175 1.363 . S
C2180 C2179 1.415 . S
C2181 H2157 0.951 . S
C2181 C2182 1.366 . S
C2181 C2183 1.388 . S
C2182 C2181 1.366 . S
C2182 C2186 1.385 . S
C2183 H2158 0.951 . S
C2183 C2181 1.388 . S
C2183 C2184 1.366 . S
C2184 C2183 1.366 . S
C2184 C2185 1.414 . S
C2184 C2187 1.499 . S
C2185 H2159 0.950 . S
C2185 C2184 1.414 . S
C2185 C2186 1.374 . S
C2186 H2160 0.950 . S
C2186 C2182 1.385 . S
C2186 C2185 1.374 . S
C2187 C2184 1.499 . S
C2187 C2188 1.373 . S
C2187 C2189 1.389 . S
C2188 H2161 0.950 . S
C2188 C2174 1.377 . S
C2188 C2187 1.373 . S
C2189 C2173 1.377 . S
C2189 C2187 1.389 . S
C2189 C2190 1.524 . S
C2190 C2189 1.524 . S
C2190 C2191 1.397 . S
C2190 C2195 1.363 . S
C2191 H2162 0.950 . S
C2191 C2190 1.397 . S
C2191 C2192 1.334 . S
C2192 H2163 0.950 . S
C2192 C2191 1.334 . S
C2192 C2193 1.287 . S
C2193 C2192 1.287 . S
C2193 C2194 1.524 . S
C2193 H2196 0.999 . S
C2194 H2164 0.950 . S
C2194 C2193 1.524 . S
C2194 C2195 1.415 . S
C2195 H2165 0.950 . S
C2195 C2190 1.363 . S
C2195 C2194 1.415 . S
H2196 C2193 0.999 . S
H2197 C2178 0.913 . S
H2198 C2216 0.951 . S
H2199 C2218 0.951 . S
H2200 C2220 0.950 . S
H2201 C2221 0.950 . S
H2202 C2223 0.950 . S
H2203 C2226 0.950 . S
H2204 C2227 0.950 . S
H2205 C2229 0.950 . S
H2206 C2230 0.950 . S
H2207 C2231 0.951 . S
H2208 C2233 0.951 . S
H2209 C2235 0.950 . S
H2210 C2236 0.950 . S
H2211 C2238 0.950 . S
H2212 C2241 0.950 . S
H2213 C2242 0.950 . S
H2214 C2244 0.950 . S
H2215 C2245 0.950 . S
C2216 H2198 0.951 . S
C2216 C2217 1.366 . S
C2216 C2218 1.388 . S
C2217 C2216 1.366 . S
C2217 C2221 1.385 . S
C2218 H2199 0.951 . S
C2218 C2216 1.388 . S
C2218 C2219 1.366 . S
C2219 C2218 1.366 . S
C2219 C2220 1.414 . S
C2219 C2222 1.499 . S
C2220 H2200 0.950 . S
C2220 C2219 1.414 . S
C2220 C2221 1.374 . S
C2221 H2201 0.950 . S
C2221 C2217 1.385 . S
C2221 C2220 1.374 . S
C2222 C2219 1.499 . S
C2222 C2223 1.373 . S
C2222 C2224 1.389 . S
C2223 H2202 0.950 . S
C2223 C2222 1.373 . S
C2223 C2239 1.377 . S
C2224 C2222 1.389 . S
C2224 C2225 1.524 . S
C2224 C2238 1.377 . S
C2225 C2224 1.524 . S
C2225 C2226 1.397 . S
C2225 C2230 1.363 . S
C2226 H2203 0.950 . S
C2226 C2225 1.397 . S
C2226 C2227 1.334 . S
C2227 H2204 0.950 . S
C2227 C2226 1.334 . S
C2227 C2228 1.287 . S
C2228 C2227 1.287 . S
C2228 C2229 1.524 . S
C2228 H2247 0.913 . S
C2229 H2205 0.950 . S
C2229 C2228 1.524 . S
C2229 C2230 1.415 . S
C2230 H2206 0.950 . S
C2230 C2225 1.363 . S
C2230 C2229 1.415 . S
C2231 H2207 0.951 . S
C2231 C2232 1.366 . S
C2231 C2233 1.388 . S
C2232 C2231 1.366 . S
C2232 C2236 1.385 . S
C2233 H2208 0.951 . S
C2233 C2231 1.388 . S
C2233 C2234 1.366 . S
C2234 C2233 1.366 . S
C2234 C2235 1.414 . S
C2234 C2237 1.499 . S
C2235 H2209 0.950 . S
C2235 C2234 1.414 . S
C2235 C2236 1.374 . S
C2236 H2210 0.950 . S
C2236 C2232 1.385 . S
C2236 C2235 1.374 . S
C2237 C2234 1.499 . S
C2237 C2238 1.373 . S
C2237 C2239 1.389 . S
C2238 H2211 0.950 . S
C2238 C2224 1.377 . S
C2238 C2237 1.373 . S
C2239 C2223 1.377 . S
C2239 C2237 1.389 . S
C2239 C2240 1.524 . S
C2240 C2239 1.524 . S
C2240 C2241 1.397 . S
C2240 C2245 1.363 . S
C2241 H2212 0.950 . S
C2241 C2240 1.397 . S
C2241 C2242 1.334 . S
C2242 H2213 0.950 . S
C2242 C2241 1.334 . S
C2242 C2243 1.287 . S
C2243 C2242 1.287 . S
C2243 C2244 1.524 . S
C2243 H2246 0.999 . S
C2244 H2214 0.950 . S
C2244 C2243 1.524 . S
C2244 C2245 1.415 . S
C2245 H2215 0.950 . S
C2245 C2240 1.363 . S
C2245 C2244 1.415 . S
H2246 C2243 0.999 . S
H2247 C2228 0.913 . S
H2248 C2266 0.951 . S
H2249 C2268 0.951 . S
H2250 C2270 0.950 . S
H2251 C2271 0.950 . S
H2252 C2273 0.950 . S
H2253 C2276 0.950 . S
H2254 C2277 0.950 . S
H2255 C2279 0.950 . S
H2256 C2280 0.950 . S
H2257 C2281 0.951 . S
H2258 C2283 0.951 . S
H2259 C2285 0.950 . S
H2260 C2286 0.950 . S
H2261 C2288 0.950 . S
H2262 C2291 0.950 . S
H2263 C2292 0.950 . S
H2264 C2294 0.950 . S
H2265 C2295 0.950 . S
C2266 H2248 0.951 . S
C2266 C2267 1.366 . S
C2266 C2268 1.388 . S
C2267 C2266 1.366 . S
C2267 C2271 1.385 . S
C2268 H2249 0.951 . S
C2268 C2266 1.388 . S
C2268 C2269 1.366 . S
C2269 C2268 1.366 . S
C2269 C2270 1.414 . S
C2269 C2272 1.499 . S
C2270 H2250 0.950 . S
C2270 C2269 1.414 . S
C2270 C2271 1.374 . S
C2271 H2251 0.950 . S
C2271 C2267 1.385 . S
C2271 C2270 1.374 . S
C2272 C2269 1.499 . S
C2272 C2273 1.373 . S
C2272 C2274 1.389 . S
C2273 H2252 0.950 . S
C2273 C2272 1.373 . S
C2273 C2289 1.377 . S
C2274 C2272 1.389 . S
C2274 C2275 1.524 . S
C2274 C2288 1.377 . S
C2275 C2274 1.524 . S
C2275 C2276 1.397 . S
C2275 C2280 1.363 . S
C2276 H2253 0.950 . S
C2276 C2275 1.397 . S
C2276 C2277 1.334 1_554 S
C2277 H2254 0.950 . S
C2277 C2276 1.334 1_556 S
C2277 C2278 1.287 . S
C2278 C2277 1.287 . S
C2278 C2279 1.524 . S
C2278 H2297 0.913 . S
C2279 H2255 0.950 . S
C2279 C2278 1.524 . S
C2279 C2280 1.415 1_556 S
C2280 H2256 0.950 . S
C2280 C2275 1.363 . S
C2280 C2279 1.415 1_554 S
C2281 H2257 0.951 . S
C2281 C2282 1.366 . S
C2281 C2283 1.388 . S
C2282 C2281 1.366 . S
C2282 C2286 1.385 . S
C2283 H2258 0.951 . S
C2283 C2281 1.388 . S
C2283 C2284 1.366 . S
C2284 C2283 1.366 . S
C2284 C2285 1.414 . S
C2284 C2287 1.499 . S
C2285 H2259 0.950 . S
C2285 C2284 1.414 . S
C2285 C2286 1.374 . S
C2286 H2260 0.950 . S
C2286 C2282 1.385 . S
C2286 C2285 1.374 . S
C2287 C2284 1.499 . S
C2287 C2288 1.373 . S
C2287 C2289 1.389 . S
C2288 H2261 0.950 . S
C2288 C2274 1.377 . S
C2288 C2287 1.373 . S
C2289 C2273 1.377 . S
C2289 C2287 1.389 . S
C2289 C2290 1.524 . S
C2290 C2289 1.524 . S
C2290 C2291 1.397 . S
C2290 C2295 1.363 . S
C2291 H2262 0.950 . S
C2291 C2290 1.397 . S
C2291 C2292 1.334 . S
C2292 H2263 0.950 . S
C2292 C2291 1.334 . S
C2292 C2293 1.287 . S
C2293 C2292 1.287 . S
C2293 C2294 1.524 . S
C2293 H2296 0.999 . S
C2294 H2264 0.950 . S
C2294 C2293 1.524 . S
C2294 C2295 1.415 . S
C2295 H2265 0.950 . S
C2295 C2290 1.363 . S
C2295 C2294 1.415 . S
H2296 C2293 0.999 . S
H2297 C2278 0.913 . S
H2298 C2316 0.951 . S
H2299 C2318 0.951 . S
H2300 C2320 0.950 . S
H2301 C2321 0.950 . S
H2302 C2323 0.950 . S
H2303 C2326 0.950 . S
H2304 C2327 0.950 . S
H2305 C2329 1.043 . S
H2306 C2330 0.958 . S
H2307 C2331 0.951 . S
H2308 C2333 0.951 . S
H2309 C2335 0.950 . S
H2310 C2336 0.950 . S
H2311 C2338 0.950 . S
H2312 C2341 0.950 . S
H2313 C2342 0.950 . S
H2314 C2344 0.950 . S
H2315 C2345 0.950 . S
C2316 H2298 0.951 . S
C2316 C2317 1.366 . S
C2316 C2318 1.388 . S
C2317 C2316 1.366 . S
C2317 C2321 1.385 . S
C2318 H2299 0.951 . S
C2318 C2316 1.388 . S
C2318 C2319 1.366 . S
C2319 C2318 1.366 . S
C2319 C2320 1.414 . S
C2319 C2322 1.499 . S
C2320 H2300 0.950 . S
C2320 C2319 1.414 . S
C2320 C2321 1.374 . S
C2321 H2301 0.950 . S
C2321 C2317 1.385 . S
C2321 C2320 1.374 . S
C2322 C2319 1.499 . S
C2322 C2323 1.373 . S
C2322 C2324 1.389 . S
C2323 H2302 0.950 . S
C2323 C2322 1.373 . S
C2323 C2339 1.377 . S
C2324 C2322 1.389 . S
C2324 C2325 1.524 . S
C2324 C2338 1.377 . S
C2325 C2324 1.524 . S
C2325 C2326 1.397 . S
C2325 C2330 1.363 . S
C2326 H2303 0.950 . S
C2326 C2325 1.397 . S
C2326 C2327 1.334 . S
C2327 H2304 0.950 . S
C2327 C2326 1.334 . S
C2327 C2328 1.287 . S
C2328 C2327 1.287 . S
C2328 C2329 1.463 1_565 S
C2328 H2347 0.913 . S
C2329 H2305 1.043 . S
C2329 C2328 1.463 1_545 S
C2329 C2330 1.375 1_545 S
C2330 H2306 0.958 . S
C2330 C2325 1.363 . S
C2330 C2329 1.375 1_565 S
C2331 H2307 0.951 . S
C2331 C2332 1.366 . S
C2331 C2333 1.388 . S
C2332 C2331 1.366 . S
C2332 C2336 1.385 . S
C2333 H2308 0.951 . S
C2333 C2331 1.388 . S
C2333 C2334 1.366 . S
C2334 C2333 1.366 . S
C2334 C2335 1.414 . S
C2334 C2337 1.499 . S
C2335 H2309 0.950 . S
C2335 C2334 1.414 . S
C2335 C2336 1.374 . S
C2336 H2310 0.950 . S
C2336 C2332 1.385 . S
C2336 C2335 1.374 . S
C2337 C2334 1.499 . S
C2337 C2338 1.373 . S
C2337 C2339 1.389 . S
C2338 H2311 0.950 . S
C2338 C2324 1.377 . S
C2338 C2337 1.373 . S
C2339 C2323 1.377 . S
C2339 C2337 1.389 . S
C2339 C2340 1.524 . S
C2340 C2339 1.524 . S
C2340 C2341 1.397 . S
C2340 C2345 1.363 . S
C2341 H2312 0.950 . S
C2341 C2340 1.397 . S
C2341 C2342 1.334 . S
C2342 H2313 0.950 . S
C2342 C2341 1.334 . S
C2342 C2343 1.287 . S
C2343 C2342 1.287 . S
C2343 C2344 1.524 . S
C2343 H2346 0.999 . S
C2344 H2314 0.950 . S
C2344 C2343 1.524 . S
C2344 C2345 1.415 . S
C2345 H2315 0.950 . S
C2345 C2340 1.363 . S
C2345 C2344 1.415 . S
H2346 C2343 0.999 . S
H2347 C2328 0.913 . S
H2348 C2366 0.951 . S
H2349 C2368 0.951 . S
H2350 C2370 0.950 . S
H2351 C2371 0.950 . S
H2352 C2373 0.950 . S
H2353 C2376 0.950 . S
H2354 C2377 0.950 . S
H2355 C2379 0.950 . S
H2356 C2380 0.950 . S
H2357 C2381 0.951 . S
H2358 C2383 0.951 . S
H2359 C2385 0.950 . S
H2360 C2386 0.950 . S
H2361 C2388 0.950 . S
H2362 C2391 0.950 . S
H2363 C2392 0.950 . S
H2364 C2394 0.950 . S
H2365 C2395 0.950 . S
C2366 H2348 0.951 . S
C2366 C2367 1.366 . S
C2366 C2368 1.388 . S
C2367 C2366 1.366 . S
C2367 C2371 1.385 . S
C2368 H2349 0.951 . S
C2368 C2366 1.388 . S
C2368 C2369 1.366 . S
C2369 C2368 1.366 . S
C2369 C2370 1.414 . S
C2369 C2372 1.499 . S
C2370 H2350 0.950 . S
C2370 C2369 1.414 . S
C2370 C2371 1.374 . S
C2371 H2351 0.950 . S
C2371 C2367 1.385 . S
C2371 C2370 1.374 . S
C2372 C2369 1.499 . S
C2372 C2373 1.373 . S
C2372 C2374 1.389 . S
C2373 H2352 0.950 . S
C2373 C2372 1.373 . S
C2373 C2389 1.377 . S
C2374 C2372 1.389 . S
C2374 C2375 1.524 . S
C2374 C2388 1.377 . S
C2375 C2374 1.524 . S
C2375 C2376 1.397 . S
C2375 C2380 1.363 . S
C2376 H2353 0.950 . S
C2376 C2375 1.397 . S
C2376 C2377 1.334 . S
C2377 H2354 0.950 . S
C2377 C2376 1.334 . S
C2377 C2378 1.287 . S
C2378 C2377 1.287 . S
C2378 C2379 1.524 . S
C2378 H2397 0.913 . S
C2379 H2355 0.950 . S
C2379 C2378 1.524 . S
C2379 C2380 1.415 . S
C2380 H2356 0.950 . S
C2380 C2375 1.363 . S
C2380 C2379 1.415 . S
C2381 H2357 0.951 . S
C2381 C2382 1.366 . S
C2381 C2383 1.388 . S
C2382 C2381 1.366 . S
C2382 C2386 1.385 . S
C2383 H2358 0.951 . S
C2383 C2381 1.388 . S
C2383 C2384 1.366 . S
C2384 C2383 1.366 . S
C2384 C2385 1.414 . S
C2384 C2387 1.499 . S
C2385 H2359 0.950 . S
C2385 C2384 1.414 . S
C2385 C2386 1.374 . S
C2386 H2360 0.950 . S
C2386 C2382 1.385 . S
C2386 C2385 1.374 . S
C2387 C2384 1.499 . S
C2387 C2388 1.373 . S
C2387 C2389 1.389 . S
C2388 H2361 0.950 . S
C2388 C2374 1.377 . S
C2388 C2387 1.373 . S
C2389 C2373 1.377 . S
C2389 C2387 1.389 . S
C2389 C2390 1.524 . S
C2390 C2389 1.524 . S
C2390 C2391 1.397 . S
C2390 C2395 1.363 . S
C2391 H2362 0.950 . S
C2391 C2390 1.397 . S
C2391 C2392 1.334 . S
C2392 H2363 0.950 . S
C2392 C2391 1.334 . S
C2392 C2393 1.287 . S
C2393 C2392 1.287 . S
C2393 C2394 1.524 . S
C2393 H2396 0.999 . S
C2394 H2364 0.950 . S
C2394 C2393 1.524 . S
C2394 C2395 1.415 . S
C2395 H2365 0.950 . S
C2395 C2390 1.363 . S
C2395 C2394 1.415 . S
H2396 C2393 0.999 . S
H2397 C2378 0.913 . S
H2398 C2416 0.951 . S
H2399 C2418 0.951 . S
H2400 C2420 0.950 . S
H2401 C2421 0.950 . S
H2402 C2423 0.950 . S
H2403 C2426 0.950 . S
H2404 C2427 0.950 . S
H2405 C2429 0.950 . S
H2406 C2430 0.950 . S
H2407 C2431 0.951 . S
H2408 C2433 0.951 . S
H2409 C2435 0.950 . S
H2410 C2436 0.950 . S
H2411 C2438 0.950 . S
H2412 C2441 0.950 . S
H2413 C2442 0.950 . S
H2414 C2444 0.950 1_554 S
H2415 C2445 0.950 . S
C2416 H2398 0.951 . S
C2416 C2417 1.366 . S
C2416 C2418 1.388 . S
C2417 C2416 1.366 . S
C2417 C2421 1.385 . S
C2418 H2399 0.951 . S
C2418 C2416 1.388 . S
C2418 C2419 1.366 . S
C2419 C2418 1.366 . S
C2419 C2420 1.414 . S
C2419 C2422 1.499 . S
C2420 H2400 0.950 . S
C2420 C2419 1.414 . S
C2420 C2421 1.374 . S
C2421 H2401 0.950 . S
C2421 C2417 1.385 . S
C2421 C2420 1.374 . S
C2422 C2419 1.499 . S
C2422 C2423 1.373 . S
C2422 C2424 1.389 . S
C2423 H2402 0.950 . S
C2423 C2422 1.373 . S
C2423 C2439 1.377 1_655 S
C2424 C2422 1.389 . S
C2424 C2425 1.524 . S
C2424 C2438 1.377 1_655 S
C2425 C2424 1.524 . S
C2425 C2426 1.397 . S
C2425 C2430 1.363 . S
C2426 H2403 0.950 . S
C2426 C2425 1.397 . S
C2426 C2427 1.334 . S
C2427 H2404 0.950 . S
C2427 C2426 1.334 . S
C2427 C2428 1.287 . S
C2428 C2427 1.287 . S
C2428 C2429 1.524 . S
C2428 H2447 0.913 . S
C2429 H2405 0.950 . S
C2429 C2428 1.524 . S
C2429 C2430 1.415 . S
C2430 H2406 0.950 . S
C2430 C2425 1.363 . S
C2430 C2429 1.415 . S
C2431 H2407 0.951 . S
C2431 C2432 1.366 . S
C2431 C2433 1.388 . S
C2432 C2431 1.366 . S
C2432 C2436 1.385 . S
C2433 H2408 0.951 . S
C2433 C2431 1.388 . S
C2433 C2434 1.366 . S
C2434 C2433 1.366 . S
C2434 C2435 1.414 . S
C2434 C2437 1.499 . S
C2435 H2409 0.950 . S
C2435 C2434 1.414 . S
C2435 C2436 1.374 . S
C2436 H2410 0.950 . S
C2436 C2432 1.385 . S
C2436 C2435 1.374 . S
C2437 C2434 1.499 . S
C2437 C2438 1.373 . S
C2437 C2439 1.389 . S
C2438 H2411 0.950 . S
C2438 C2424 1.377 1_455 S
C2438 C2437 1.373 . S
C2439 C2423 1.377 1_455 S
C2439 C2437 1.389 . S
C2439 C2440 1.524 . S
C2440 C2439 1.524 . S
C2440 C2441 1.397 . S
C2440 C2445 1.363 . S
C2441 H2412 0.950 . S
C2441 C2440 1.397 . S
C2441 C2442 1.334 . S
C2442 H2413 0.950 . S
C2442 C2441 1.334 . S
C2442 C2443 1.287 1_556 S
C2443 C2442 1.287 1_554 S
C2443 C2444 1.524 1_554 S
C2443 H2446 0.999 . S
C2444 H2414 0.950 1_556 S
C2444 C2443 1.524 1_556 S
C2444 C2445 1.415 . S
C2445 H2415 0.950 . S
C2445 C2440 1.363 . S
C2445 C2444 1.415 . S
H2446 C2443 0.999 . S
H2447 C2428 0.913 . S
H2448 C2466 0.951 . S
H2449 C2468 0.951 . S
H2450 C2470 0.950 . S
H2451 C2471 0.950 . S
H2452 C2473 0.950 . S
H2453 C2476 0.950 . S
H2454 C2477 0.950 . S
H2455 C2479 0.950 . S
H2456 C2480 0.950 . S
H2457 C2481 0.951 . S
H2458 C2483 0.951 . S
H2459 C2485 0.950 . S
H2460 C2486 0.950 . S
H2461 C2488 0.950 . S
H2462 C2491 0.950 . S
H2463 C2492 0.950 . S
H2464 C2494 0.950 . S
H2465 C2495 0.950 . S
C2466 H2448 0.951 . S
C2466 C2467 1.366 . S
C2466 C2468 1.388 . S
C2467 C2466 1.366 . S
C2467 C2471 1.385 . S
C2468 H2449 0.951 . S
C2468 C2466 1.388 . S
C2468 C2469 1.366 . S
C2469 C2468 1.366 . S
C2469 C2470 1.414 . S
C2469 C2472 1.499 . S
C2470 H2450 0.950 . S
C2470 C2469 1.414 . S
C2470 C2471 1.374 . S
C2471 H2451 0.950 . S
C2471 C2467 1.385 . S
C2471 C2470 1.374 . S
C2472 C2469 1.499 . S
C2472 C2473 1.373 . S
C2472 C2474 1.389 . S
C2473 H2452 0.950 . S
C2473 C2472 1.373 . S
C2473 C2489 1.377 . S
C2474 C2472 1.389 . S
C2474 C2475 1.524 . S
C2474 C2488 1.377 . S
C2475 C2474 1.524 . S
C2475 C2476 1.397 . S
C2475 C2480 1.363 . S
C2476 H2453 0.950 . S
C2476 C2475 1.397 . S
C2476 C2477 1.334 1_554 S
C2477 H2454 0.950 . S
C2477 C2476 1.334 1_556 S
C2477 C2478 1.287 . S
C2478 C2477 1.287 . S
C2478 C2479 1.524 . S
C2478 H2497 0.913 . S
C2479 H2455 0.950 . S
C2479 C2478 1.524 . S
C2479 C2480 1.415 1_556 S
C2480 H2456 0.950 . S
C2480 C2475 1.363 . S
C2480 C2479 1.415 1_554 S
C2481 H2457 0.951 . S
C2481 C2482 1.366 . S
C2481 C2483 1.388 . S
C2482 C2481 1.366 . S
C2482 C2486 1.385 . S
C2483 H2458 0.951 . S
C2483 C2481 1.388 . S
C2483 C2484 1.366 . S
C2484 C2483 1.366 . S
C2484 C2485 1.414 . S
C2484 C2487 1.499 . S
C2485 H2459 0.950 . S
C2485 C2484 1.414 . S
C2485 C2486 1.374 . S
C2486 H2460 0.950 . S
C2486 C2482 1.385 . S
C2486 C2485 1.374 . S
C2487 C2484 1.499 . S
C2487 C2488 1.373 . S
C2487 C2489 1.389 . S
C2488 H2461 0.950 . S
C2488 C2474 1.377 . S
C2488 C2487 1.373 . S
C2489 C2473 1.377 . S
C2489 C2487 1.389 . S
C2489 C2490 1.524 . S
C2490 C2489 1.524 . S
C2490 C2491 1.397 . S
C2490 C2495 1.363 . S
C2491 H2462 0.950 . S
C2491 C2490 1.397 . S
C2491 C2492 1.334 . S
C2492 H2463 0.950 . S
C2492 C2491 1.334 . S
C2492 C2493 1.287 . S
C2493 C2492 1.287 . S
C2493 C2494 1.524 . S
C2493 H2496 0.999 . S
C2494 H2464 0.950 . S
C2494 C2493 1.524 . S
C2494 C2495 1.415 . S
C2495 H2465 0.950 . S
C2495 C2490 1.363 . S
C2495 C2494 1.415 . S
H2496 C2493 0.999 . S
H2497 C2478 0.913 . S
H2498 C2516 0.951 . S
H2499 C2518 0.951 . S
H2500 C2520 0.950 . S
H2501 C2521 0.950 . S
H2502 C2523 0.950 . S
H2503 C2526 0.950 . S
H2504 C2527 0.950 . S
H2505 C2529 0.950 . S
H2506 C2530 0.950 . S
H2507 C2531 0.951 . S
H2508 C2533 0.951 . S
H2509 C2535 0.950 . S
H2510 C2536 0.950 . S
H2511 C2538 0.950 . S
H2512 C2541 0.950 . S
H2513 C2542 0.950 . S
H2514 C2544 0.950 . S
H2515 C2545 0.950 . S
C2516 H2498 0.951 . S
C2516 C2517 1.366 . S
C2516 C2518 1.388 . S
C2517 C2516 1.366 . S
C2517 C2521 1.385 . S
C2518 H2499 0.951 . S
C2518 C2516 1.388 . S
C2518 C2519 1.366 . S
C2519 C2518 1.366 . S
C2519 C2520 1.414 . S
C2519 C2522 1.499 . S
C2520 H2500 0.950 . S
C2520 C2519 1.414 . S
C2520 C2521 1.374 . S
C2521 H2501 0.950 . S
C2521 C2517 1.385 . S
C2521 C2520 1.374 . S
C2522 C2519 1.499 . S
C2522 C2523 1.373 . S
C2522 C2524 1.389 . S
C2523 H2502 0.950 . S
C2523 C2522 1.373 . S
C2523 C2539 1.377 . S
C2524 C2522 1.389 . S
C2524 C2525 1.524 . S
C2524 C2538 1.377 . S
C2525 C2524 1.524 . S
C2525 C2526 1.397 . S
C2525 C2530 1.363 . S
C2526 H2503 0.950 . S
C2526 C2525 1.397 . S
C2526 C2527 1.334 . S
C2527 H2504 0.950 . S
C2527 C2526 1.334 . S
C2527 C2528 1.287 . S
C2528 C2527 1.287 . S
C2528 C2529 1.524 . S
C2528 H2547 0.913 . S
C2529 H2505 0.950 . S
C2529 C2528 1.524 . S
C2529 C2530 1.415 . S
C2530 H2506 0.950 . S
C2530 C2525 1.363 . S
C2530 C2529 1.415 . S
C2531 H2507 0.951 . S
C2531 C2532 1.366 . S
C2531 C2533 1.388 . S
C2532 C2531 1.366 . S
C2532 C2536 1.385 . S
C2533 H2508 0.951 . S
C2533 C2531 1.388 . S
C2533 C2534 1.366 . S
C2534 C2533 1.366 . S
C2534 C2535 1.414 . S
C2534 C2537 1.499 . S
C2535 H2509 0.950 . S
C2535 C2534 1.414 . S
C2535 C2536 1.374 . S
C2536 H2510 0.950 . S
C2536 C2532 1.385 . S
C2536 C2535 1.374 . S
C2537 C2534 1.499 . S
C2537 C2538 1.373 . S
C2537 C2539 1.389 . S
C2538 H2511 0.950 . S
C2538 C2524 1.377 . S
C2538 C2537 1.373 . S
C2539 C2523 1.377 . S
C2539 C2537 1.389 . S
C2539 C2540 1.524 . S
C2540 C2539 1.524 . S
C2540 C2541 1.397 . S
C2540 C2545 1.363 . S
C2541 H2512 0.950 . S
C2541 C2540 1.397 . S
C2541 C2542 1.334 . S
C2542 H2513 0.950 . S
C2542 C2541 1.334 . S
C2542 C2543 1.287 . S
C2543 C2542 1.287 . S
C2543 C2544 1.524 . S
C2543 H2546 0.999 . S
C2544 H2514 0.950 . S
C2544 C2543 1.524 . S
C2544 C2545 1.415 . S
C2545 H2515 0.950 . S
C2545 C2540 1.363 . S
C2545 C2544 1.415 . S
H2546 C2543 0.999 . S
H2547 C2528 0.913 . S
H2548 C2566 0.951 . S
H2549 C2568 0.951 . S
H2550 C2570 0.950 . S
H2551 C2571 0.950 . S
H2552 C2573 0.950 . S
H2553 C2576 0.950 . S
H2554 C2577 0.950 . S
H2555 C2579 0.950 . S
H2556 C2580 0.950 . S
H2557 C2581 0.951 . S
H2558 C2583 0.951 . S
H2559 C2585 0.950 . S
H2560 C2586 0.950 . S
H2561 C2588 0.950 . S
H2562 C2591 0.959 . S
H2563 C2592 0.950 . S
H2564 C2594 0.950 . S
H2565 C2595 0.950 . S
C2566 H2548 0.951 . S
C2566 C2567 1.366 . S
C2566 C2568 1.388 . S
C2567 C2566 1.366 . S
C2567 C2571 1.385 . S
C2568 H2549 0.951 . S
C2568 C2566 1.388 . S
C2568 C2569 1.366 . S
C2569 C2568 1.366 . S
C2569 C2570 1.414 . S
C2569 C2572 1.499 . S
C2570 H2550 0.950 . S
C2570 C2569 1.414 . S
C2570 C2571 1.374 . S
C2571 H2551 0.950 . S
C2571 C2567 1.385 . S
C2571 C2570 1.374 . S
C2572 C2569 1.499 . S
C2572 C2573 1.373 . S
C2572 C2574 1.389 . S
C2573 H2552 0.950 . S
C2573 C2572 1.373 . S
C2573 C2589 1.377 . S
C2574 C2572 1.389 . S
C2574 C2575 1.524 . S
C2574 C2588 1.377 . S
C2575 C2574 1.524 . S
C2575 C2576 1.397 . S
C2575 C2580 1.363 . S
C2576 H2553 0.950 . S
C2576 C2575 1.397 . S
C2576 C2577 1.334 . S
C2577 H2554 0.950 . S
C2577 C2576 1.334 . S
C2577 C2578 1.287 . S
C2578 C2577 1.287 . S
C2578 C2579 1.524 . S
C2578 H2597 0.913 . S
C2579 H2555 0.950 . S
C2579 C2578 1.524 . S
C2579 C2580 1.415 . S
C2580 H2556 0.950 . S
C2580 C2575 1.363 . S
C2580 C2579 1.415 . S
C2581 H2557 0.951 . S
C2581 C2582 1.366 . S
C2581 C2583 1.388 . S
C2582 C2581 1.366 . S
C2582 C2586 1.385 . S
C2583 H2558 0.951 . S
C2583 C2581 1.388 . S
C2583 C2584 1.366 . S
C2584 C2583 1.366 . S
C2584 C2585 1.414 . S
C2584 C2587 1.499 . S
C2585 H2559 0.950 . S
C2585 C2584 1.414 . S
C2585 C2586 1.374 . S
C2586 H2560 0.950 . S
C2586 C2582 1.385 . S
C2586 C2585 1.374 . S
C2587 C2584 1.499 . S
C2587 C2588 1.373 . S
C2587 C2589 1.389 . S
C2588 H2561 0.950 . S
C2588 C2574 1.377 . S
C2588 C2587 1.373 . S
C2589 C2573 1.377 . S
C2589 C2587 1.389 . S
C2589 C2590 1.524 1_554 S
C2590 C2589 1.524 1_556 S
C2590 C2591 1.397 . S
C2590 C2595 1.363 . S
C2591 H2562 0.959 . S
C2591 C2590 1.397 . S
C2591 C2592 1.334 . S
C2592 H2563 0.950 . S
C2592 C2591 1.334 . S
C2592 C2593 1.287 . S
C2593 C2592 1.287 . S
C2593 C2594 1.524 . S
C2593 H2596 0.999 . S
C2594 H2564 0.950 . S
C2594 C2593 1.524 . S
C2594 C2595 1.415 . S
C2595 H2565 0.950 . S
C2595 C2590 1.363 . S
C2595 C2594 1.415 . S
H2596 C2593 0.999 . S
H2597 C2578 0.913 . S
H2598 C2616 0.951 . S
H2599 C2618 0.951 . S
H2600 C2620 0.950 . S
H2601 C2621 0.950 . S
H2602 C2623 0.950 . S
H2603 C2626 0.950 . S
H2604 C2627 0.950 . S
H2605 C2629 0.950 . S
H2606 C2630 0.950 . S
H2607 C2631 0.951 . S
H2608 C2633 0.951 . S
H2609 C2635 0.950 . S
H2610 C2636 0.950 . S
H2611 C2638 0.950 . S
H2612 C2641 0.950 . S
H2613 C2642 0.950 . S
H2614 C2644 0.950 . S
H2615 C2645 0.950 . S
C2616 H2598 0.951 . S
C2616 C2617 1.366 . S
C2616 C2618 1.388 . S
C2617 C2616 1.366 . S
C2617 C2621 1.385 . S
C2618 H2599 0.951 . S
C2618 C2616 1.388 . S
C2618 C2619 1.366 . S
C2619 C2618 1.366 . S
C2619 C2620 1.414 . S
C2619 C2622 1.499 . S
C2620 H2600 0.950 . S
C2620 C2619 1.414 . S
C2620 C2621 1.374 . S
C2621 H2601 0.950 . S
C2621 C2617 1.385 . S
C2621 C2620 1.374 . S
C2622 C2619 1.499 . S
C2622 C2623 1.373 . S
C2622 C2624 1.389 . S
C2623 H2602 0.950 . S
C2623 C2622 1.373 . S
C2623 C2639 1.377 . S
C2624 C2622 1.389 . S
C2624 C2625 1.524 . S
C2624 C2638 1.377 . S
C2625 C2624 1.524 . S
C2625 C2626 1.397 . S
C2625 C2630 1.363 . S
C2626 H2603 0.950 . S
C2626 C2625 1.397 . S
C2626 C2627 1.334 . S
C2627 H2604 0.950 . S
C2627 C2626 1.334 . S
C2627 C2628 1.287 . S
C2628 C2627 1.287 . S
C2628 C2629 1.524 . S
C2628 H2647 0.913 . S
C2629 H2605 0.950 . S
C2629 C2628 1.524 . S
C2629 C2630 1.415 . S
C2630 H2606 0.950 . S
C2630 C2625 1.363 . S
C2630 C2629 1.415 . S
C2631 H2607 0.951 . S
C2631 C2632 1.366 . S
C2631 C2633 1.388 . S
C2632 C2631 1.366 . S
C2632 C2636 1.385 . S
C2633 H2608 0.951 . S
C2633 C2631 1.388 . S
C2633 C2634 1.366 . S
C2634 C2633 1.366 . S
C2634 C2635 1.414 . S
C2634 C2637 1.499 . S
C2635 H2609 0.950 . S
C2635 C2634 1.414 . S
C2635 C2636 1.374 . S
C2636 H2610 0.950 . S
C2636 C2632 1.385 . S
C2636 C2635 1.374 . S
C2637 C2634 1.499 . S
C2637 C2638 1.373 . S
C2637 C2639 1.389 . S
C2638 H2611 0.950 . S
C2638 C2624 1.377 . S
C2638 C2637 1.373 . S
C2639 C2623 1.377 . S
C2639 C2637 1.389 . S
C2639 C2640 1.524 . S
C2640 C2639 1.524 . S
C2640 C2641 1.397 . S
C2640 C2645 1.363 . S
C2641 H2612 0.950 . S
C2641 C2640 1.397 . S
C2641 C2642 1.334 . S
C2642 H2613 0.950 . S
C2642 C2641 1.334 . S
C2642 C2643 1.287 . S
C2643 C2642 1.287 . S
C2643 C2644 1.524 . S
C2643 H2646 0.999 . S
C2644 H2614 0.950 . S
C2644 C2643 1.524 . S
C2644 C2645 1.415 . S
C2645 H2615 0.950 . S
C2645 C2640 1.363 . S
C2645 C2644 1.415 . S
H2646 C2643 0.999 . S
H2647 C2628 0.913 . S
H2648 C2666 0.951 . S
H2649 C2668 0.951 . S
H2650 C2670 0.950 . S
H2651 C2671 0.950 . S
H2652 C2673 0.950 . S
H2653 C2676 0.950 . S
H2654 C2677 0.950 . S
H2655 C2679 0.950 . S
H2656 C2680 0.950 . S
H2657 C2681 0.951 . S
H2658 C2683 0.951 . S
H2659 C2685 0.950 . S
H2660 C2686 0.950 . S
H2661 C2688 0.950 . S
H2662 C2691 0.950 . S
H2663 C2692 0.950 . S
H2664 C2694 0.950 . S
H2665 C2695 0.950 . S
C2666 H2648 0.951 . S
C2666 C2667 1.366 . S
C2666 C2668 1.388 . S
C2667 C2666 1.366 . S
C2667 C2671 1.385 . S
C2668 H2649 0.951 . S
C2668 C2666 1.388 . S
C2668 C2669 1.366 . S
C2669 C2668 1.366 . S
C2669 C2670 1.414 . S
C2669 C2672 1.499 . S
C2670 H2650 0.950 . S
C2670 C2669 1.414 . S
C2670 C2671 1.374 . S
C2671 H2651 0.950 . S
C2671 C2667 1.385 . S
C2671 C2670 1.374 . S
C2672 C2669 1.499 . S
C2672 C2673 1.373 . S
C2672 C2674 1.389 . S
C2673 H2652 0.950 . S
C2673 C2672 1.373 . S
C2673 C2689 1.377 . S
C2674 C2672 1.389 . S
C2674 C2675 1.524 . S
C2674 C2688 1.377 . S
C2675 C2674 1.524 . S
C2675 C2676 1.397 . S
C2675 C2680 1.363 . S
C2676 H2653 0.950 . S
C2676 C2675 1.397 . S
C2676 C2677 1.334 . S
C2677 H2654 0.950 . S
C2677 C2676 1.334 . S
C2677 C2678 1.287 . S
C2678 C2677 1.287 . S
C2678 C2679 1.524 . S
C2678 H2697 0.913 . S
C2679 H2655 0.950 . S
C2679 C2678 1.524 . S
C2679 C2680 1.415 . S
C2680 H2656 0.950 . S
C2680 C2675 1.363 . S
C2680 C2679 1.415 . S
C2681 H2657 0.951 . S
C2681 C2682 1.366 . S
C2681 C2683 1.388 . S
C2682 C2681 1.366 . S
C2682 C2686 1.385 . S
C2683 H2658 0.951 . S
C2683 C2681 1.388 . S
C2683 C2684 1.366 . S
C2684 C2683 1.366 . S
C2684 C2685 1.414 . S
C2684 C2687 1.499 . S
C2685 H2659 0.950 . S
C2685 C2684 1.414 . S
C2685 C2686 1.374 . S
C2686 H2660 0.950 . S
C2686 C2682 1.385 . S
C2686 C2685 1.374 . S
C2687 C2684 1.499 . S
C2687 C2688 1.373 . S
C2687 C2689 1.389 . S
C2688 H2661 0.950 . S
C2688 C2674 1.377 . S
C2688 C2687 1.373 . S
C2689 C2673 1.377 . S
C2689 C2687 1.389 . S
C2689 C2690 1.524 . S
C2690 C2689 1.524 . S
C2690 C2691 1.397 . S
C2690 C2695 1.363 . S
C2691 H2662 0.950 . S
C2691 C2690 1.397 . S
C2691 C2692 1.334 . S
C2692 H2663 0.950 . S
C2692 C2691 1.334 . S
C2692 C2693 1.287 . S
C2693 C2692 1.287 . S
C2693 C2694 1.524 . S
C2693 H2696 0.999 . S
C2694 H2664 0.950 . S
C2694 C2693 1.524 . S
C2694 C2695 1.415 . S
C2695 H2665 0.950 . S
C2695 C2690 1.363 . S
C2695 C2694 1.415 . S
H2696 C2693 0.999 . S
H2697 C2678 0.913 . S
H2698 C2716 0.951 . S
H2699 C2718 0.951 . S
H2700 C2720 0.950 . S
H2701 C2721 0.950 . S
H2702 C2723 0.950 . S
H2703 C2726 0.950 . S
H2704 C2727 0.950 . S
H2705 C2729 0.950 . S
H2706 C2730 0.950 . S
H2707 C2731 0.951 . S
H2708 C2733 0.951 . S
H2709 C2735 0.950 . S
H2710 C2736 0.950 . S
H2711 C2738 0.950 . S
H2712 C2741 0.950 . S
H2713 C2742 0.950 . S
H2714 C2744 0.950 . S
H2715 C2745 0.950 . S
C2716 H2698 0.951 . S
C2716 C2717 1.366 . S
C2716 C2718 1.388 . S
C2717 C2716 1.366 . S
C2717 C2721 1.385 . S
C2718 H2699 0.951 . S
C2718 C2716 1.388 . S
C2718 C2719 1.366 . S
C2719 C2718 1.366 . S
C2719 C2720 1.414 . S
C2719 C2722 1.499 . S
C2720 H2700 0.950 . S
C2720 C2719 1.414 . S
C2720 C2721 1.374 . S
C2721 H2701 0.950 . S
C2721 C2717 1.385 . S
C2721 C2720 1.374 . S
C2722 C2719 1.499 . S
C2722 C2723 1.373 . S
C2722 C2724 1.389 . S
C2723 H2702 0.950 . S
C2723 C2722 1.373 . S
C2723 C2739 1.377 1_655 S
C2724 C2722 1.389 . S
C2724 C2725 1.524 . S
C2724 C2738 1.377 1_655 S
C2725 C2724 1.524 . S
C2725 C2726 1.397 . S
C2725 C2730 1.363 . S
C2726 H2703 0.950 . S
C2726 C2725 1.397 . S
C2726 C2727 1.334 . S
C2727 H2704 0.950 . S
C2727 C2726 1.334 . S
C2727 C2728 1.287 . S
C2728 C2727 1.287 . S
C2728 C2729 1.524 . S
C2728 H2747 0.913 . S
C2729 H2705 0.950 . S
C2729 C2728 1.524 . S
C2729 C2730 1.415 . S
C2730 H2706 0.950 . S
C2730 C2725 1.363 . S
C2730 C2729 1.415 . S
C2731 H2707 0.951 . S
C2731 C2732 1.366 . S
C2731 C2733 1.388 . S
C2732 C2731 1.366 . S
C2732 C2736 1.385 . S
C2733 H2708 0.951 . S
C2733 C2731 1.388 . S
C2733 C2734 1.366 . S
C2734 C2733 1.366 . S
C2734 C2735 1.414 . S
C2734 C2737 1.499 . S
C2735 H2709 0.950 . S
C2735 C2734 1.414 . S
C2735 C2736 1.374 . S
C2736 H2710 0.950 . S
C2736 C2732 1.385 . S
C2736 C2735 1.374 . S
C2737 C2734 1.499 . S
C2737 C2738 1.373 . S
C2737 C2739 1.389 . S
C2738 H2711 0.950 . S
C2738 C2724 1.377 1_455 S
C2738 C2737 1.373 . S
C2739 C2723 1.377 1_455 S
C2739 C2737 1.389 . S
C2739 C2740 1.524 . S
C2740 C2739 1.524 . S
C2740 C2741 1.397 . S
C2740 C2745 1.363 . S
C2741 H2712 0.950 . S
C2741 C2740 1.397 . S
C2741 C2742 1.334 . S
C2742 H2713 0.950 . S
C2742 C2741 1.334 . S
C2742 C2743 1.287 . S
C2743 C2742 1.287 . S
C2743 C2744 1.524 . S
C2743 H2746 0.999 . S
C2744 H2714 0.950 . S
C2744 C2743 1.524 . S
C2744 C2745 1.415 . S
C2745 H2715 0.950 . S
C2745 C2740 1.363 . S
C2745 C2744 1.415 . S
H2746 C2743 0.999 . S
H2747 C2728 0.913 . S
H2748 C2766 0.951 . S
H2749 C2768 0.951 . S
H2750 C2770 0.950 . S
H2751 C2771 0.950 . S
H2752 C2773 0.950 . S
H2753 C2776 0.950 . S
H2754 C2777 0.950 . S
H2755 C2779 0.950 . S
H2756 C2780 0.950 . S
H2757 C2781 0.951 . S
H2758 C2783 0.951 . S
H2759 C2785 0.950 . S
H2760 C2786 0.950 . S
H2761 C2788 0.950 . S
H2762 C2791 0.950 . S
H2763 C2792 0.950 . S
H2764 C2794 0.950 . S
H2765 C2795 0.950 . S
C2766 H2748 0.951 . S
C2766 C2767 1.366 . S
C2766 C2768 1.388 . S
C2767 C2766 1.366 . S
C2767 C2771 1.385 . S
C2768 H2749 0.951 . S
C2768 C2766 1.388 . S
C2768 C2769 1.366 . S
C2769 C2768 1.366 . S
C2769 C2770 1.414 . S
C2769 C2772 1.499 . S
C2770 H2750 0.950 . S
C2770 C2769 1.414 . S
C2770 C2771 1.374 . S
C2771 H2751 0.950 . S
C2771 C2767 1.385 . S
C2771 C2770 1.374 . S
C2772 C2769 1.499 . S
C2772 C2773 1.373 . S
C2772 C2774 1.389 . S
C2773 H2752 0.950 . S
C2773 C2772 1.373 . S
C2773 C2789 1.377 1_655 S
C2774 C2772 1.389 . S
C2774 C2775 1.524 . S
C2774 C2788 1.377 1_655 S
C2775 C2774 1.524 . S
C2775 C2776 1.397 . S
C2775 C2780 1.363 . S
C2776 H2753 0.950 . S
C2776 C2775 1.397 . S
C2776 C2777 1.334 . S
C2777 H2754 0.950 . S
C2777 C2776 1.334 . S
C2777 C2778 1.287 . S
C2778 C2777 1.287 . S
C2778 C2779 1.524 . S
C2778 H2797 0.913 . S
C2779 H2755 0.950 . S
C2779 C2778 1.524 . S
C2779 C2780 1.415 . S
C2780 H2756 0.950 . S
C2780 C2775 1.363 . S
C2780 C2779 1.415 . S
C2781 H2757 0.951 . S
C2781 C2782 1.366 . S
C2781 C2783 1.388 . S
C2782 C2781 1.366 . S
C2782 C2786 1.385 . S
C2783 H2758 0.951 . S
C2783 C2781 1.388 . S
C2783 C2784 1.366 . S
C2784 C2783 1.366 . S
C2784 C2785 1.414 . S
C2784 C2787 1.499 . S
C2785 H2759 0.950 . S
C2785 C2784 1.414 . S
C2785 C2786 1.374 . S
C2786 H2760 0.950 . S
C2786 C2782 1.385 . S
C2786 C2785 1.374 . S
C2787 C2784 1.499 . S
C2787 C2788 1.373 . S
C2787 C2789 1.389 . S
C2788 H2761 0.950 . S
C2788 C2774 1.377 1_455 S
C2788 C2787 1.373 . S
C2789 C2773 1.377 1_455 S
C2789 C2787 1.389 . S
C2789 C2790 1.524 . S
C2790 C2789 1.524 . S
C2790 C2791 1.397 . S
C2790 C2795 1.363 . S
C2791 H2762 0.950 . S
C2791 C2790 1.397 . S
C2791 C2792 1.334 . S
C2792 H2763 0.950 . S
C2792 C2791 1.334 . S
C2792 C2793 1.287 . S
C2793 C2792 1.287 . S
C2793 C2794 1.524 . S
C2793 H2796 0.999 1_556 S
C2794 H2764 0.950 . S
C2794 C2793 1.524 . S
C2794 C2795 1.415 . S
C2795 H2765 0.950 . S
C2795 C2790 1.363 . S
C2795 C2794 1.415 . S
H2796 C2793 0.999 1_554 S
H2797 C2778 0.913 . S
H2798 C2816 0.951 . S
H2799 C2818 0.951 . S
H2800 C2820 0.950 . S
H2801 C2821 0.950 . S
H2802 C2823 0.950 . S
H2803 C2826 0.950 . S
H2804 C2827 0.950 . S
H2805 C2829 0.950 . S
H2806 C2830 0.950 . S
H2807 C2831 0.951 . S
H2808 C2833 0.951 . S
H2809 C2835 0.950 . S
H2810 C2836 0.950 . S
H2811 C2838 0.950 . S
H2812 C2841 0.950 . S
H2813 C2842 0.950 . S
H2814 C2844 0.950 . S
H2815 C2845 0.950 . S
C2816 H2798 0.951 . S
C2816 C2817 1.366 . S
C2816 C2818 1.388 . S
C2817 C2816 1.366 . S
C2817 C2821 1.385 . S
C2818 H2799 0.951 . S
C2818 C2816 1.388 . S
C2818 C2819 1.366 . S
C2819 C2818 1.366 . S
C2819 C2820 1.414 . S
C2819 C2822 1.499 . S
C2820 H2800 0.950 . S
C2820 C2819 1.414 . S
C2820 C2821 1.374 . S
C2821 H2801 0.950 . S
C2821 C2817 1.385 . S
C2821 C2820 1.374 . S
C2822 C2819 1.499 . S
C2822 C2823 1.373 . S
C2822 C2824 1.389 . S
C2823 H2802 0.950 . S
C2823 C2822 1.373 . S
C2823 C2839 1.377 . S
C2824 C2822 1.389 . S
C2824 C2825 1.524 . S
C2824 C2838 1.377 . S
C2825 C2824 1.524 . S
C2825 C2826 1.397 . S
C2825 C2830 1.363 . S
C2826 H2803 0.950 . S
C2826 C2825 1.397 . S
C2826 C2827 1.334 . S
C2827 H2804 0.950 . S
C2827 C2826 1.334 . S
C2827 C2828 1.287 . S
C2828 C2827 1.287 . S
C2828 C2829 1.524 . S
C2828 H2847 0.913 . S
C2829 H2805 0.950 . S
C2829 C2828 1.524 . S
C2829 C2830 1.415 . S
C2830 H2806 0.950 . S
C2830 C2825 1.363 . S
C2830 C2829 1.415 . S
C2831 H2807 0.951 . S
C2831 C2832 1.366 . S
C2831 C2833 1.388 . S
C2832 C2831 1.366 . S
C2832 C2836 1.385 . S
C2833 H2808 0.951 . S
C2833 C2831 1.388 . S
C2833 C2834 1.366 . S
C2834 C2833 1.366 . S
C2834 C2835 1.414 . S
C2834 C2837 1.499 . S
C2835 H2809 0.950 . S
C2835 C2834 1.414 . S
C2835 C2836 1.374 . S
C2836 H2810 0.950 . S
C2836 C2832 1.385 . S
C2836 C2835 1.374 . S
C2837 C2834 1.499 . S
C2837 C2838 1.373 . S
C2837 C2839 1.389 . S
C2838 H2811 0.950 . S
C2838 C2824 1.377 . S
C2838 C2837 1.373 . S
C2839 C2823 1.377 . S
C2839 C2837 1.389 . S
C2839 C2840 1.524 . S
C2840 C2839 1.524 . S
C2840 C2841 1.397 . S
C2840 C2845 1.363 . S
C2841 H2812 0.950 . S
C2841 C2840 1.397 . S
C2841 C2842 1.334 . S
C2842 H2813 0.950 . S
C2842 C2841 1.334 . S
C2842 C2843 1.287 . S
C2843 C2842 1.287 . S
C2843 C2844 1.524 . S
C2843 H2846 0.999 . S
C2844 H2814 0.950 . S
C2844 C2843 1.524 . S
C2844 C2845 1.415 . S
C2845 H2815 0.950 . S
C2845 C2840 1.363 . S
C2845 C2844 1.415 . S
H2846 C2843 0.999 . S
H2847 C2828 0.913 . S
H2848 C2866 0.951 . S
H2849 C2868 0.951 . S
H2850 C2870 0.950 . S
H2851 C2871 0.950 . S
H2852 C2873 0.950 . S
H2853 C2876 0.950 . S
H2854 C2877 0.950 . S
H2855 C2879 0.950 . S
H2856 C2880 0.950 . S
H2857 C2881 0.951 . S
H2858 C2883 0.951 . S
H2859 C2885 0.950 . S
H2860 C2886 0.950 . S
H2861 C2888 0.950 . S
H2862 C2891 0.950 . S
H2863 C2892 0.950 . S
H2864 C2894 0.950 . S
H2865 C2895 0.950 . S
C2866 H2848 0.951 . S
C2866 C2867 1.366 . S
C2866 C2868 1.388 . S
C2867 C2866 1.366 . S
C2867 C2871 1.385 . S
C2868 H2849 0.951 . S
C2868 C2866 1.388 . S
C2868 C2869 1.366 . S
C2869 C2868 1.366 . S
C2869 C2870 1.414 . S
C2869 C2872 1.499 . S
C2870 H2850 0.950 . S
C2870 C2869 1.414 . S
C2870 C2871 1.374 . S
C2871 H2851 0.950 . S
C2871 C2867 1.385 . S
C2871 C2870 1.374 . S
C2872 C2869 1.499 . S
C2872 C2873 1.373 . S
C2872 C2874 1.389 . S
C2873 H2852 0.950 . S
C2873 C2872 1.373 . S
C2873 C2889 1.377 . S
C2874 C2872 1.389 . S
C2874 C2875 1.524 . S
C2874 C2888 1.377 . S
C2875 C2874 1.524 . S
C2875 C2876 1.397 . S
C2875 C2880 1.363 . S
C2876 H2853 0.950 . S
C2876 C2875 1.397 . S
C2876 C2877 1.334 . S
C2877 H2854 0.950 . S
C2877 C2876 1.334 . S
C2877 C2878 1.287 . S
C2878 C2877 1.287 . S
C2878 C2879 1.524 . S
C2878 H2897 0.913 . S
C2879 H2855 0.950 . S
C2879 C2878 1.524 . S
C2879 C2880 1.415 . S
C2880 H2856 0.950 . S
C2880 C2875 1.363 . S
C2880 C2879 1.415 . S
C2881 H2857 0.951 . S
C2881 C2882 1.366 . S
C2881 C2883 1.388 . S
C2882 C2881 1.366 . S
C2882 C2886 1.385 . S
C2883 H2858 0.951 . S
C2883 C2881 1.388 . S
C2883 C2884 1.366 . S
C2884 C2883 1.366 . S
C2884 C2885 1.414 . S
C2884 C2887 1.499 . S
C2885 H2859 0.950 . S
C2885 C2884 1.414 . S
C2885 C2886 1.374 . S
C2886 H2860 0.950 . S
C2886 C2882 1.385 . S
C2886 C2885 1.374 . S
C2887 C2884 1.499 . S
C2887 C2888 1.373 . S
C2887 C2889 1.389 . S
C2888 H2861 0.950 . S
C2888 C2874 1.377 . S
C2888 C2887 1.373 . S
C2889 C2873 1.377 . S
C2889 C2887 1.389 . S
C2889 C2890 1.524 . S
C2890 C2889 1.524 . S
C2890 C2891 1.397 . S
C2890 C2895 1.363 . S
C2891 H2862 0.950 . S
C2891 C2890 1.397 . S
C2891 C2892 1.334 . S
C2892 H2863 0.950 . S
C2892 C2891 1.334 . S
C2892 C2893 1.287 . S
C2893 C2892 1.287 . S
C2893 C2894 1.524 . S
C2893 H2896 0.999 . S
C2894 H2864 0.950 . S
C2894 C2893 1.524 . S
C2894 C2895 1.415 . S
C2895 H2865 0.950 . S
C2895 C2890 1.363 . S
C2895 C2894 1.415 . S
H2896 C2893 0.999 . S
H2897 C2878 0.913 . S
H2898 C2916 0.951 . S
H2899 C2918 0.959 . S
H2900 C2920 0.950 . S
H2901 C2921 0.950 . S
H2902 C2923 0.950 . S
H2903 C2926 0.950 . S
H2904 C2927 0.950 . S
H2905 C2929 0.964 . S
H2906 C2930 0.950 . S
H2907 C2931 0.951 . S
H2908 C2933 0.951 . S
H2909 C2935 0.950 . S
H2910 C2936 0.950 . S
H2911 C2938 0.950 . S
H2912 C2941 0.950 . S
H2913 C2942 0.950 . S
H2914 C2944 0.950 . S
H2915 C2945 0.950 . S
C2916 H2898 0.951 . S
C2916 C2917 1.366 . S
C2916 C2918 1.382 1_565 S
C2917 C2916 1.366 . S
C2917 C2921 1.385 . S
C2918 H2899 0.959 . S
C2918 C2916 1.382 1_545 S
C2918 C2919 1.363 1_545 S
C2919 C2918 1.363 1_565 S
C2919 C2920 1.414 . S
C2919 C2922 1.499 1_565 S
C2920 H2900 0.950 . S
C2920 C2919 1.414 . S
C2920 C2921 1.374 . S
C2921 H2901 0.950 . S
C2921 C2917 1.385 . S
C2921 C2920 1.374 . S
C2922 C2919 1.499 1_545 S
C2922 C2923 1.373 . S
C2922 C2924 1.389 . S
C2923 H2902 0.950 . S
C2923 C2922 1.373 . S
C2923 C2939 1.377 . S
C2924 C2922 1.389 . S
C2924 C2925 1.524 1_545 S
C2924 C2938 1.377 . S
C2925 C2924 1.524 1_565 S
C2925 C2926 1.397 . S
C2925 C2930 1.363 1_565 S
C2926 H2903 0.950 . S
C2926 C2925 1.397 . S
C2926 C2927 1.334 . S
C2927 H2904 0.950 . S
C2927 C2926 1.334 . S
C2927 C2928 1.287 . S
C2928 C2927 1.287 . S
C2928 C2929 1.524 . S
C2928 H2947 0.913 . S
C2929 H2905 0.964 . S
C2929 C2928 1.524 . S
C2929 C2930 1.415 1_565 S
C2930 H2906 0.950 . S
C2930 C2925 1.363 1_545 S
C2930 C2929 1.415 1_545 S
C2931 H2907 0.951 . S
C2931 C2932 1.366 . S
C2931 C2933 1.388 . S
C2932 C2931 1.366 . S
C2932 C2936 1.385 . S
C2933 H2908 0.951 . S
C2933 C2931 1.388 . S
C2933 C2934 1.366 . S
C2934 C2933 1.366 . S
C2934 C2935 1.414 . S
C2934 C2937 1.499 . S
C2935 H2909 0.950 . S
C2935 C2934 1.414 . S
C2935 C2936 1.374 . S
C2936 H2910 0.950 . S
C2936 C2932 1.385 . S
C2936 C2935 1.374 . S
C2937 C2934 1.499 . S
C2937 C2938 1.373 . S
C2937 C2939 1.389 . S
C2938 H2911 0.950 . S
C2938 C2924 1.377 . S
C2938 C2937 1.373 . S
C2939 C2923 1.377 . S
C2939 C2937 1.389 . S
C2939 C2940 1.524 . S
C2940 C2939 1.524 . S
C2940 C2941 1.397 . S
C2940 C2945 1.363 . S
C2941 H2912 0.950 . S
C2941 C2940 1.397 . S
C2941 C2942 1.334 . S
C2942 H2913 0.950 . S
C2942 C2941 1.334 . S
C2942 C2943 1.287 . S
C2943 C2942 1.287 . S
C2943 C2944 1.524 . S
C2943 H2946 0.999 . S
C2944 H2914 0.950 . S
C2944 C2943 1.524 . S
C2944 C2945 1.415 . S
C2945 H2915 0.950 . S
C2945 C2940 1.363 . S
C2945 C2944 1.415 . S
H2946 C2943 0.999 . S
H2947 C2928 0.913 . S
H2948 C2966 0.951 . S
H2949 C2968 0.951 . S
H2950 C2970 0.950 . S
H2951 C2971 0.950 1_554 S
H2952 C2973 0.950 . S
H2953 C2976 0.950 . S
H2954 C2977 0.950 . S
H2955 C2979 0.950 . S
H2956 C2980 0.950 . S
H2957 C2981 0.951 . S
H2958 C2983 0.951 . S
H2959 C2985 0.950 . S
H2960 C2986 0.950 . S
H2961 C2988 0.950 . S
H2962 C2991 0.950 . S
H2963 C2992 0.950 . S
H2964 C2994 0.950 . S
H2965 C2995 0.950 . S
C2966 H2948 0.951 . S
C2966 C2967 1.366 . S
C2966 C2968 1.388 . S
C2967 C2966 1.366 . S
C2967 C2971 1.385 . S
C2968 H2949 0.951 . S
C2968 C2966 1.388 . S
C2968 C2969 1.366 . S
C2969 C2968 1.366 . S
C2969 C2970 1.414 . S
C2969 C2972 1.499 . S
C2970 H2950 0.950 . S
C2970 C2969 1.414 . S
C2970 C2971 1.374 . S
C2971 H2951 0.950 1_556 S
C2971 C2967 1.385 . S
C2971 C2970 1.374 . S
C2972 C2969 1.499 . S
C2972 C2973 1.373 . S
C2972 C2974 1.389 . S
C2973 H2952 0.950 . S
C2973 C2972 1.373 . S
C2973 C2989 1.377 . S
C2974 C2972 1.389 . S
C2974 C2975 1.524 . S
C2974 C2988 1.377 . S
C2975 C2974 1.524 . S
C2975 C2976 1.397 . S
C2975 C2980 1.363 . S
C2976 H2953 0.950 . S
C2976 C2975 1.397 . S
C2976 C2977 1.334 . S
C2977 H2954 0.950 . S
C2977 C2976 1.334 . S
C2977 C2978 1.287 . S
C2978 C2977 1.287 . S
C2978 C2979 1.524 . S
C2978 H2997 0.913 . S
C2979 H2955 0.950 . S
C2979 C2978 1.524 . S
C2979 C2980 1.415 . S
C2980 H2956 0.950 . S
C2980 C2975 1.363 . S
C2980 C2979 1.415 . S
C2981 H2957 0.951 . S
C2981 C2982 1.366 . S
C2981 C2983 1.388 . S
C2982 C2981 1.366 . S
C2982 C2986 1.385 . S
C2983 H2958 0.951 . S
C2983 C2981 1.388 . S
C2983 C2984 1.366 . S
C2984 C2983 1.366 . S
C2984 C2985 1.414 . S
C2984 C2987 1.499 . S
C2985 H2959 0.950 . S
C2985 C2984 1.414 . S
C2985 C2986 1.374 . S
C2986 H2960 0.950 . S
C2986 C2982 1.385 . S
C2986 C2985 1.374 . S
C2987 C2984 1.499 . S
C2987 C2988 1.373 . S
C2987 C2989 1.389 . S
C2988 H2961 0.950 . S
C2988 C2974 1.377 . S
C2988 C2987 1.373 . S
C2989 C2973 1.377 . S
C2989 C2987 1.389 . S
C2989 C2990 1.524 . S
C2990 C2989 1.524 . S
C2990 C2991 1.397 . S
C2990 C2995 1.363 . S
C2991 H2962 0.950 . S
C2991 C2990 1.397 . S
C2991 C2992 1.334 . S
C2992 H2963 0.950 . S
C2992 C2991 1.334 . S
C2992 C2993 1.287 . S
C2993 C2992 1.287 . S
C2993 C2994 1.524 . S
C2993 H2996 0.999 . S
C2994 H2964 0.950 . S
C2994 C2993 1.524 . S
C2994 C2995 1.415 . S
C2995 H2965 0.950 . S
C2995 C2990 1.363 . S
C2995 C2994 1.415 . S
H2996 C2993 0.999 . S
H2997 C2978 0.913 . S
H2998 C3016 0.951 . S
H2999 C3018 0.951 . S
H3000 C3020 0.950 1_554 S
H3001 C3021 0.950 . S
H3002 C3023 0.950 . S
H3003 C3026 0.942 1_545 S
H3004 C3027 0.950 . S
H3005 C3029 0.950 . S
H3006 C3030 0.950 . S
H3007 C3031 0.951 . S
H3008 C3033 0.951 . S
H3009 C3035 0.950 . S
H3010 C3036 0.950 . S
H3011 C3038 0.950 . S
H3012 C3041 0.950 . S
H3013 C3042 0.950 . S
H3014 C3044 0.950 . S
H3015 C3045 0.950 . S
C3016 H2998 0.951 . S
C3016 C3017 1.366 . S
C3016 C3018 1.388 . S
C3017 C3016 1.366 . S
C3017 C3021 1.385 . S
C3018 H2999 0.951 . S
C3018 C3016 1.388 . S
C3018 C3019 1.366 1_556 S
C3019 C3018 1.366 1_554 S
C3019 C3020 1.414 1_554 S
C3019 C3022 1.499 . S
C3020 H3000 0.950 1_556 S
C3020 C3019 1.414 1_556 S
C3020 C3021 1.374 . S
C3021 H3001 0.950 . S
C3021 C3017 1.385 . S
C3021 C3020 1.374 . S
C3022 C3019 1.499 . S
C3022 C3023 1.373 . S
C3022 C3024 1.389 . S
C3023 H3002 0.950 . S
C3023 C3022 1.373 . S
C3023 C3039 1.377 . S
C3024 C3022 1.389 . S
C3024 C3025 1.524 1_545 S
C3024 C3038 1.377 1_545 S
C3025 C3024 1.524 1_565 S
C3025 C3026 1.397 1_554 S
C3025 C3030 1.363 . S
C3026 H3003 0.942 1_565 S
C3026 C3025 1.397 1_556 S
C3026 C3027 1.334 . S
C3027 H3004 0.950 . S
C3027 C3026 1.334 . S
C3027 C3028 1.287 . S
C3028 C3027 1.287 . S
C3028 C3029 1.524 . S
C3028 H3047 0.913 . S
C3029 H3005 0.950 . S
C3029 C3028 1.524 . S
C3029 C3030 1.415 1_556 S
C3030 H3006 0.950 . S
C3030 C3025 1.363 . S
C3030 C3029 1.415 1_554 S
C3031 H3007 0.951 . S
C3031 C3032 1.366 . S
C3031 C3033 1.388 1_565 S
C3032 C3031 1.366 . S
C3032 C3036 1.385 . S
C3033 H3008 0.951 . S
C3033 C3031 1.388 1_545 S
C3033 C3034 1.366 1_545 S
C3034 C3033 1.366 1_565 S
C3034 C3035 1.414 . S
C3034 C3037 1.499 1_565 S
C3035 H3009 0.950 . S
C3035 C3034 1.414 . S
C3035 C3036 1.374 . S
C3036 H3010 0.950 . S
C3036 C3032 1.385 . S
C3036 C3035 1.374 . S
C3037 C3034 1.499 1_545 S
C3037 C3038 1.373 1_545 S
C3037 C3039 1.389 . S
C3038 H3011 0.950 . S
C3038 C3024 1.377 1_565 S
C3038 C3037 1.373 1_565 S
C3039 C3023 1.377 . S
C3039 C3037 1.389 . S
C3039 C3040 1.524 . S
C3040 C3039 1.524 . S
C3040 C3041 1.397 . S
C3040 C3045 1.363 . S
C3041 H3012 0.950 . S
C3041 C3040 1.397 . S
C3041 C3042 1.334 . S
C3042 H3013 0.950 . S
C3042 C3041 1.334 . S
C3042 C3043 1.287 . S
C3043 C3042 1.287 . S
C3043 C3044 1.524 . S
C3043 H3046 0.999 . S
C3044 H3014 0.950 . S
C3044 C3043 1.524 . S
C3044 C3045 1.415 . S
C3045 H3015 0.950 . S
C3045 C3040 1.363 . S
C3045 C3044 1.415 . S
H3046 C3043 0.999 . S
H3047 C3028 0.913 . S
H3048 C3066 0.951 1_554 S
H3049 C3068 0.951 . S
H3050 C3070 0.950 . S
H3051 C3071 0.950 . S
H3052 C3073 0.950 . S
H3053 C3076 0.950 . S
H3054 C3077 0.950 . S
H3055 C3079 0.950 . S
H3056 C3080 0.950 . S
H3057 C3081 0.951 . S
H3058 C3083 0.951 . S
H3059 C3085 0.950 . S
H3060 C3086 0.950 . S
H3061 C3088 0.950 . S
H3062 C3091 0.950 . S
H3063 C3092 0.950 . S
H3064 C3094 0.950 . S
H3065 C3095 0.950 . S
C3066 H3048 0.951 1_556 S
C3066 C3067 1.366 . S
C3066 C3068 1.388 . S
C3067 C3066 1.366 . S
C3067 C3071 1.385 . S
C3068 H3049 0.951 . S
C3068 C3066 1.388 . S
C3068 C3069 1.366 . S
C3069 C3068 1.366 . S
C3069 C3070 1.414 . S
C3069 C3072 1.499 . S
C3070 H3050 0.950 . S
C3070 C3069 1.414 . S
C3070 C3071 1.374 . S
C3071 H3051 0.950 . S
C3071 C3067 1.385 . S
C3071 C3070 1.374 . S
C3072 C3069 1.499 . S
C3072 C3073 1.373 . S
C3072 C3074 1.389 . S
C3073 H3052 0.950 . S
C3073 C3072 1.373 . S
C3073 C3089 1.377 . S
C3074 C3072 1.389 . S
C3074 C3075 1.524 . S
C3074 C3088 1.377 . S
C3075 C3074 1.524 . S
C3075 C3076 1.397 . S
C3075 C3080 1.363 . S
C3076 H3053 0.950 . S
C3076 C3075 1.397 . S
C3076 C3077 1.334 . S
C3077 H3054 0.950 . S
C3077 C3076 1.334 . S
C3077 C3078 1.287 . S
C3078 C3077 1.287 . S
C3078 C3079 1.524 . S
C3078 H3097 0.913 . S
C3079 H3055 0.950 . S
C3079 C3078 1.524 . S
C3079 C3080 1.415 . S
C3080 H3056 0.950 . S
C3080 C3075 1.363 . S
C3080 C3079 1.415 . S
C3081 H3057 0.951 . S
C3081 C3082 1.366 . S
C3081 C3083 1.388 . S
C3082 C3081 1.366 . S
C3082 C3086 1.385 . S
C3083 H3058 0.951 . S
C3083 C3081 1.388 . S
C3083 C3084 1.366 . S
C3084 C3083 1.366 . S
C3084 C3085 1.414 . S
C3084 C3087 1.499 . S
C3085 H3059 0.950 . S
C3085 C3084 1.414 . S
C3085 C3086 1.374 . S
C3086 H3060 0.950 . S
C3086 C3082 1.385 . S
C3086 C3085 1.374 . S
C3087 C3084 1.499 . S
C3087 C3088 1.373 . S
C3087 C3089 1.389 . S
C3088 H3061 0.950 . S
C3088 C3074 1.377 . S
C3088 C3087 1.373 . S
C3089 C3073 1.377 . S
C3089 C3087 1.389 . S
C3089 C3090 1.524 . S
C3090 C3089 1.524 . S
C3090 C3091 1.397 . S
C3090 C3095 1.363 . S
C3091 H3062 0.950 . S
C3091 C3090 1.397 . S
C3091 C3092 1.334 . S
C3092 H3063 0.950 . S
C3092 C3091 1.334 . S
C3092 C3093 1.287 . S
C3093 C3092 1.287 . S
C3093 C3094 1.524 . S
C3093 H3096 0.999 . S
C3094 H3064 0.950 . S
C3094 C3093 1.524 . S
C3094 C3095 1.415 . S
C3095 H3065 0.950 . S
C3095 C3090 1.363 . S
C3095 C3094 1.415 . S
H3096 C3093 0.999 . S
H3097 C3078 0.913 . S
H3098 C3116 0.951 . S
H3099 C3118 0.951 . S
H3100 C3120 0.950 . S
H3101 C3121 0.950 . S
H3102 C3123 0.908 1_565 S
H3103 C3126 0.950 . S
H3104 C3127 0.950 . S
H3105 C3129 0.950 . S
H3106 C3130 0.950 . S
H3107 C3131 0.951 . S
H3108 C3133 0.951 . S
H3109 C3135 0.950 . S
H3110 C3136 0.950 1_545 S
H3111 C3138 0.950 . S
H3112 C3141 0.950 . S
H3113 C3142 0.950 . S
H3114 C3144 0.950 . S
H3115 C3145 0.950 . S
C3116 H3098 0.951 . S
C3116 C3117 1.366 . S
C3116 C3118 1.388 . S
C3117 C3116 1.366 . S
C3117 C3121 1.385 . S
C3118 H3099 0.951 . S
C3118 C3116 1.388 . S
C3118 C3119 1.366 . S
C3119 C3118 1.366 . S
C3119 C3120 1.414 . S
C3119 C3122 1.499 . S
C3120 H3100 0.950 . S
C3120 C3119 1.414 . S
C3120 C3121 1.374 . S
C3121 H3101 0.950 . S
C3121 C3117 1.385 . S
C3121 C3120 1.374 . S
C3122 C3119 1.499 . S
C3122 C3123 1.373 . S
C3122 C3124 1.389 . S
C3123 H3102 0.908 1_545 S
C3123 C3122 1.373 . S
C3123 C3139 1.377 1_545 S
C3124 C3122 1.389 . S
C3124 C3125 1.524 . S
C3124 C3138 1.377 . S
C3125 C3124 1.524 . S
C3125 C3126 1.397 . S
C3125 C3130 1.363 . S
C3126 H3103 0.950 . S
C3126 C3125 1.397 . S
C3126 C3127 1.334 . S
C3127 H3104 0.950 . S
C3127 C3126 1.334 . S
C3127 C3128 1.287 . S
C3128 C3127 1.287 . S
C3128 C3129 1.524 . S
C3128 H3147 0.913 . S
C3129 H3105 0.950 . S
C3129 C3128 1.524 . S
C3129 C3130 1.415 . S
C3130 H3106 0.950 . S
C3130 C3125 1.363 . S
C3130 C3129 1.415 . S
C3131 H3107 0.951 . S
C3131 C3132 1.366 . S
C3131 C3133 1.388 . S
C3132 C3131 1.366 . S
C3132 C3136 1.385 . S
C3133 H3108 0.951 . S
C3133 C3131 1.388 . S
C3133 C3134 1.366 . S
C3134 C3133 1.366 . S
C3134 C3135 1.414 1_565 S
C3134 C3137 1.499 1_565 S
C3135 H3109 0.950 . S
C3135 C3134 1.414 1_545 S
C3135 C3136 1.374 1_545 S
C3136 H3110 0.950 1_565 S
C3136 C3132 1.385 . S
C3136 C3135 1.374 1_565 S
C3137 C3134 1.499 1_545 S
C3137 C3138 1.373 . S
C3137 C3139 1.389 1_545 S
C3138 H3111 0.950 . S
C3138 C3124 1.377 . S
C3138 C3137 1.373 . S
C3139 C3123 1.377 1_565 S
C3139 C3137 1.389 1_565 S
C3139 C3140 1.524 . S
C3140 C3139 1.524 . S
C3140 C3141 1.397 . S
C3140 C3145 1.363 . S
C3141 H3112 0.950 . S
C3141 C3140 1.397 . S
C3141 C3142 1.334 . S
C3142 H3113 0.950 . S
C3142 C3141 1.334 . S
C3142 C3143 1.287 . S
C3143 C3142 1.287 . S
C3143 C3144 1.524 . S
C3143 H3146 0.999 . S
C3144 H3114 0.950 . S
C3144 C3143 1.524 . S
C3144 C3145 1.415 . S
C3145 H3115 0.950 . S
C3145 C3140 1.363 . S
C3145 C3144 1.415 . S
H3146 C3143 0.999 . S
H3147 C3128 0.913 . S
H3148 C3166 0.951 . S
H3149 C3168 0.951 . S
H3150 C3170 0.950 . S
H3151 C3171 0.950 . S
H3152 C3173 0.950 . S
H3153 C3176 0.950 . S
H3154 C3177 0.950 . S
H3155 C3179 0.950 . S
H3156 C3180 0.950 . S
H3157 C3181 0.951 . S
H3158 C3183 0.951 . S
H3159 C3185 0.950 . S
H3160 C3186 0.950 . S
H3161 C3188 0.950 . S
H3162 C3191 0.950 . S
H3163 C3192 0.950 . S
H3164 C3194 0.950 . S
H3165 C3195 0.950 . S
C3166 H3148 0.951 . S
C3166 C3167 1.366 . S
C3166 C3168 1.388 . S
C3167 C3166 1.366 . S
C3167 C3171 1.385 . S
C3168 H3149 0.951 . S
C3168 C3166 1.388 . S
C3168 C3169 1.366 . S
C3169 C3168 1.366 . S
C3169 C3170 1.414 . S
C3169 C3172 1.499 . S
C3170 H3150 0.950 . S
C3170 C3169 1.414 . S
C3170 C3171 1.374 . S
C3171 H3151 0.950 . S
C3171 C3167 1.385 . S
C3171 C3170 1.374 . S
C3172 C3169 1.499 . S
C3172 C3173 1.373 . S
C3172 C3174 1.389 . S
C3173 H3152 0.950 . S
C3173 C3172 1.373 . S
C3173 C3189 1.377 . S
C3174 C3172 1.389 . S
C3174 C3175 1.524 . S
C3174 C3188 1.377 . S
C3175 C3174 1.524 . S
C3175 C3176 1.397 . S
C3175 C3180 1.363 . S
C3176 H3153 0.950 . S
C3176 C3175 1.397 . S
C3176 C3177 1.334 . S
C3177 H3154 0.950 . S
C3177 C3176 1.334 . S
C3177 C3178 1.287 . S
C3178 C3177 1.287 . S
C3178 C3179 1.524 . S
C3178 H3197 0.913 . S
C3179 H3155 0.950 . S
C3179 C3178 1.524 . S
C3179 C3180 1.415 . S
C3180 H3156 0.950 . S
C3180 C3175 1.363 . S
C3180 C3179 1.415 . S
C3181 H3157 0.951 . S
C3181 C3182 1.366 . S
C3181 C3183 1.388 . S
C3182 C3181 1.366 . S
C3182 C3186 1.385 . S
C3183 H3158 0.951 . S
C3183 C3181 1.388 . S
C3183 C3184 1.366 . S
C3184 C3183 1.366 . S
C3184 C3185 1.414 . S
C3184 C3187 1.499 . S
C3185 H3159 0.950 . S
C3185 C3184 1.414 . S
C3185 C3186 1.374 . S
C3186 H3160 0.950 . S
C3186 C3182 1.385 . S
C3186 C3185 1.374 . S
C3187 C3184 1.499 . S
C3187 C3188 1.373 . S
C3187 C3189 1.389 . S
C3188 H3161 0.950 . S
C3188 C3174 1.377 . S
C3188 C3187 1.373 . S
C3189 C3173 1.377 . S
C3189 C3187 1.389 . S
C3189 C3190 1.524 . S
C3190 C3189 1.524 . S
C3190 C3191 1.397 . S
C3190 C3195 1.363 . S
C3191 H3162 0.950 . S
C3191 C3190 1.397 . S
C3191 C3192 1.334 . S
C3192 H3163 0.950 . S
C3192 C3191 1.334 . S
C3192 C3193 1.287 . S
C3193 C3192 1.287 . S
C3193 C3194 1.524 . S
C3193 H3196 0.999 . S
C3194 H3164 0.950 . S
C3194 C3193 1.524 . S
C3194 C3195 1.415 . S
C3195 H3165 0.950 . S
C3195 C3190 1.363 . S
C3195 C3194 1.415 . S
H3196 C3193 0.999 . S
H3197 C3178 0.913 . S
H3198 C3216 0.951 . S
H3199 C3218 0.951 1_545 S
H3200 C3220 0.950 . S
H3201 C3221 0.950 . S
H3202 C3223 0.950 . S
H3203 C3226 0.950 . S
H3204 C3227 0.950 . S
H3205 C3229 0.950 . S
H3206 C3230 0.950 . S
H3207 C3231 0.951 . S
H3208 C3233 0.951 . S
H3209 C3235 0.950 1_554 S
H3210 C3236 0.950 . S
H3211 C3238 0.950 . S
H3212 C3241 0.950 . S
H3213 C3242 0.950 . S
H3214 C3244 0.950 . S
H3215 C3245 0.950 . S
C3216 H3198 0.951 . S
C3216 C3217 1.366 . S
C3216 C3218 1.388 . S
C3217 C3216 1.366 . S
C3217 C3221 1.385 . S
C3218 H3199 0.951 1_565 S
C3218 C3216 1.388 . S
C3218 C3219 1.366 . S
C3219 C3218 1.366 . S
C3219 C3220 1.414 . S
C3219 C3222 1.499 1_565 S
C3220 H3200 0.950 . S
C3220 C3219 1.414 . S
C3220 C3221 1.374 . S
C3221 H3201 0.950 . S
C3221 C3217 1.385 . S
C3221 C3220 1.374 . S
C3222 C3219 1.499 1_545 S
C3222 C3223 1.373 1_545 S
C3222 C3224 1.389 . S
C3223 H3202 0.950 . S
C3223 C3222 1.373 1_565 S
C3223 C3239 1.377 1_565 S
C3224 C3222 1.389 . S
C3224 C3225 1.524 . S
C3224 C3238 1.377 . S
C3225 C3224 1.524 . S
C3225 C3226 1.397 . S
C3225 C3230 1.363 . S
C3226 H3203 0.950 . S
C3226 C3225 1.397 . S
C3226 C3227 1.334 . S
C3227 H3204 0.950 . S
C3227 C3226 1.334 . S
C3227 C3228 1.287 . S
C3228 C3227 1.287 . S
C3228 C3229 1.524 . S
C3228 H3247 0.913 . S
C3229 H3205 0.950 . S
C3229 C3228 1.524 . S
C3229 C3230 1.415 . S
C3230 H3206 0.950 . S
C3230 C3225 1.363 . S
C3230 C3229 1.415 . S
C3231 H3207 0.951 . S
C3231 C3232 1.366 . S
C3231 C3233 1.388 . S
C3232 C3231 1.366 . S
C3232 C3236 1.385 . S
C3233 H3208 0.951 . S
C3233 C3231 1.388 . S
C3233 C3234 1.366 1_556 S
C3234 C3233 1.366 1_554 S
C3234 C3235 1.414 1_554 S
C3234 C3237 1.499 . S
C3235 H3209 0.950 1_556 S
C3235 C3234 1.414 1_556 S
C3235 C3236 1.374 . S
C3236 H3210 0.950 . S
C3236 C3232 1.385 . S
C3236 C3235 1.374 . S
C3237 C3234 1.499 . S
C3237 C3238 1.373 . S
C3237 C3239 1.389 . S
C3238 H3211 0.950 . S
C3238 C3224 1.377 . S
C3238 C3237 1.373 . S
C3239 C3223 1.377 1_545 S
C3239 C3237 1.389 . S
C3239 C3240 1.524 1_545 S
C3240 C3239 1.524 1_565 S
C3240 C3241 1.397 1_554 S
C3240 C3245 1.363 . S
C3241 H3212 0.950 . S
C3241 C3240 1.397 1_556 S
C3241 C3242 1.334 . S
C3242 H3213 0.950 . S
C3242 C3241 1.334 . S
C3242 C3243 1.287 . S
C3243 C3242 1.287 . S
C3243 C3244 1.524 . S
C3243 H3246 0.999 . S
C3244 H3214 0.950 . S
C3244 C3243 1.524 . S
C3244 C3245 1.415 1_556 S
C3245 H3215 0.950 . S
C3245 C3240 1.363 . S
C3245 C3244 1.415 1_554 S
H3246 C3243 0.999 . S
H3247 C3228 0.913 . S
H3248 C3266 0.951 1_554 S
H3249 C3268 0.951 . S
H3250 C3270 0.950 . S
H3251 C3271 0.950 . S
H3252 C3273 0.950 . S
H3253 C3276 0.950 . S
H3254 C3277 0.950 . S
H3255 C3279 0.950 . S
H3256 C3280 0.950 . S
H3257 C3281 0.951 . S
H3258 C3283 0.951 . S
H3259 C3285 0.950 . S
H3260 C3286 0.950 . S
H3261 C3288 0.950 . S
H3262 C3291 0.950 . S
H3263 C3292 0.950 . S
H3264 C3294 0.950 . S
H3265 C3295 0.950 . S
C3266 H3248 0.951 1_556 S
C3266 C3267 1.366 . S
C3266 C3268 1.388 . S
C3267 C3266 1.366 . S
C3267 C3271 1.385 . S
C3268 H3249 0.951 . S
C3268 C3266 1.388 . S
C3268 C3269 1.366 . S
C3269 C3268 1.366 . S
C3269 C3270 1.414 . S
C3269 C3272 1.499 . S
C3270 H3250 0.950 . S
C3270 C3269 1.414 . S
C3270 C3271 1.374 . S
C3271 H3251 0.950 . S
C3271 C3267 1.385 . S
C3271 C3270 1.374 . S
C3272 C3269 1.499 . S
C3272 C3273 1.373 . S
C3272 C3274 1.389 . S
C3273 H3252 0.950 . S
C3273 C3272 1.373 . S
C3273 C3289 1.377 . S
C3274 C3272 1.389 . S
C3274 C3275 1.524 . S
C3274 C3288 1.377 . S
C3275 C3274 1.524 . S
C3275 C3276 1.397 . S
C3275 C3280 1.363 . S
C3276 H3253 0.950 . S
C3276 C3275 1.397 . S
C3276 C3277 1.334 . S
C3277 H3254 0.950 . S
C3277 C3276 1.334 . S
C3277 C3278 1.287 . S
C3278 C3277 1.287 . S
C3278 C3279 1.524 . S
C3278 H3297 0.913 . S
C3279 H3255 0.950 . S
C3279 C3278 1.524 . S
C3279 C3280 1.415 . S
C3280 H3256 0.950 . S
C3280 C3275 1.363 . S
C3280 C3279 1.415 . S
C3281 H3257 0.951 . S
C3281 C3282 1.366 . S
C3281 C3283 1.388 . S
C3282 C3281 1.366 . S
C3282 C3286 1.385 . S
C3283 H3258 0.951 . S
C3283 C3281 1.388 . S
C3283 C3284 1.366 . S
C3284 C3283 1.366 . S
C3284 C3285 1.414 . S
C3284 C3287 1.499 . S
C3285 H3259 0.950 . S
C3285 C3284 1.414 . S
C3285 C3286 1.374 . S
C3286 H3260 0.950 . S
C3286 C3282 1.385 . S
C3286 C3285 1.374 . S
C3287 C3284 1.499 . S
C3287 C3288 1.373 . S
C3287 C3289 1.389 . S
C3288 H3261 0.950 . S
C3288 C3274 1.377 . S
C3288 C3287 1.373 . S
C3289 C3273 1.377 . S
C3289 C3287 1.389 . S
C3289 C3290 1.524 . S
C3290 C3289 1.524 . S
C3290 C3291 1.397 . S
C3290 C3295 1.363 . S
C3291 H3262 0.950 . S
C3291 C3290 1.397 . S
C3291 C3292 1.334 . S
C3292 H3263 0.950 . S
C3292 C3291 1.334 . S
C3292 C3293 1.287 . S
C3293 C3292 1.287 . S
C3293 C3294 1.524 . S
C3293 H3296 0.999 . S
C3294 H3264 0.950 . S
C3294 C3293 1.524 . S
C3294 C3295 1.415 . S
C3295 H3265 0.950 . S
C3295 C3290 1.363 . S
C3295 C3294 1.415 . S
H3296 C3293 0.999 . S
H3297 C3278 0.913 . S
H3298 C3316 0.951 . S
H3299 C3318 0.951 . S
H3300 C3320 0.950 . S
H3301 C3321 0.950 . S
H3302 C3323 0.950 . S
H3303 C3326 0.950 . S
H3304 C3327 0.950 . S
H3305 C3329 0.950 . S
H3306 C3330 0.950 . S
H3307 C3331 0.951 . S
H3308 C3333 0.951 . S
H3309 C3335 0.950 . S
H3310 C3336 0.950 . S
H3311 C3338 0.950 . S
H3312 C3341 0.950 . S
H3313 C3342 0.950 . S
H3314 C3344 0.942 1_556 S
H3315 C3345 0.950 . S
C3316 H3298 0.951 . S
C3316 C3317 1.366 . S
C3316 C3318 1.388 . S
C3317 C3316 1.366 . S
C3317 C3321 1.385 . S
C3318 H3299 0.951 . S
C3318 C3316 1.388 . S
C3318 C3319 1.366 . S
C3319 C3318 1.366 . S
C3319 C3320 1.414 . S
C3319 C3322 1.499 . S
C3320 H3300 0.950 . S
C3320 C3319 1.414 . S
C3320 C3321 1.374 . S
C3321 H3301 0.950 . S
C3321 C3317 1.385 . S
C3321 C3320 1.374 . S
C3322 C3319 1.499 . S
C3322 C3323 1.373 . S
C3322 C3324 1.389 . S
C3323 H3302 0.950 . S
C3323 C3322 1.373 . S
C3323 C3339 1.377 . S
C3324 C3322 1.389 . S
C3324 C3325 1.524 . S
C3324 C3338 1.377 . S
C3325 C3324 1.524 . S
C3325 C3326 1.397 . S
C3325 C3330 1.363 . S
C3326 H3303 0.950 . S
C3326 C3325 1.397 . S
C3326 C3327 1.334 . S
C3327 H3304 0.950 . S
C3327 C3326 1.334 . S
C3327 C3328 1.287 . S
C3328 C3327 1.287 . S
C3328 C3329 1.524 . S
C3328 H3347 0.913 . S
C3329 H3305 0.950 . S
C3329 C3328 1.524 . S
C3329 C3330 1.415 . S
C3330 H3306 0.950 . S
C3330 C3325 1.363 . S
C3330 C3329 1.415 . S
C3331 H3307 0.951 . S
C3331 C3332 1.366 . S
C3331 C3333 1.388 . S
C3332 C3331 1.366 . S
C3332 C3336 1.385 . S
C3333 H3308 0.951 . S
C3333 C3331 1.388 . S
C3333 C3334 1.366 1_556 S
C3334 C3333 1.366 1_554 S
C3334 C3335 1.414 . S
C3334 C3337 1.499 . S
C3335 H3309 0.950 . S
C3335 C3334 1.414 . S
C3335 C3336 1.374 1_554 S
C3336 H3310 0.950 . S
C3336 C3332 1.385 . S
C3336 C3335 1.374 1_556 S
C3337 C3334 1.499 . S
C3337 C3338 1.373 . S
C3337 C3339 1.389 . S
C3338 H3311 0.950 . S
C3338 C3324 1.377 . S
C3338 C3337 1.373 . S
C3339 C3323 1.377 . S
C3339 C3337 1.389 . S
C3339 C3340 1.524 . S
C3340 C3339 1.524 . S
C3340 C3341 1.397 . S
C3340 C3345 1.363 . S
C3341 H3312 0.950 . S
C3341 C3340 1.397 . S
C3341 C3342 1.334 1_554 S
C3342 H3313 0.950 . S
C3342 C3341 1.334 1_556 S
C3342 C3343 1.287 . S
C3343 C3342 1.287 . S
C3343 C3344 1.517 1_556 S
C3343 H3346 0.999 . S
C3344 H3314 0.942 1_554 S
C3344 C3343 1.517 1_554 S
C3344 C3345 1.431 . S
C3345 H3315 0.950 . S
C3345 C3340 1.363 . S
C3345 C3344 1.431 . S
H3346 C3343 0.999 . S
H3347 C3328 0.913 . S
H3348 C3366 0.951 . S
H3349 C3368 0.951 . S
H3350 C3370 0.950 . S
H3351 C3371 0.950 . S
H3352 C3373 0.950 . S
H3353 C3376 0.950 . S
H3354 C3377 0.950 . S
H3355 C3379 0.950 . S
H3356 C3380 0.950 . S
H3357 C3381 0.951 . S
H3358 C3383 0.951 . S
H3359 C3385 0.950 . S
H3360 C3386 0.950 . S
H3361 C3388 0.950 . S
H3362 C3391 0.950 . S
H3363 C3392 0.950 . S
H3364 C3394 0.950 . S
H3365 C3395 0.950 . S
C3366 H3348 0.951 . S
C3366 C3367 1.366 . S
C3366 C3368 1.388 . S
C3367 C3366 1.366 . S
C3367 C3371 1.385 . S
C3368 H3349 0.951 . S
C3368 C3366 1.388 . S
C3368 C3369 1.366 . S
C3369 C3368 1.366 . S
C3369 C3370 1.414 . S
C3369 C3372 1.499 . S
C3370 H3350 0.950 . S
C3370 C3369 1.414 . S
C3370 C3371 1.374 . S
C3371 H3351 0.950 . S
C3371 C3367 1.385 . S
C3371 C3370 1.374 . S
C3372 C3369 1.499 . S
C3372 C3373 1.373 . S
C3372 C3374 1.389 . S
C3373 H3352 0.950 . S
C3373 C3372 1.373 . S
C3373 C3389 1.377 . S
C3374 C3372 1.389 . S
C3374 C3375 1.524 . S
C3374 C3388 1.377 . S
C3375 C3374 1.524 . S
C3375 C3376 1.397 . S
C3375 C3380 1.363 . S
C3376 H3353 0.950 . S
C3376 C3375 1.397 . S
C3376 C3377 1.334 . S
C3377 H3354 0.950 . S
C3377 C3376 1.334 . S
C3377 C3378 1.287 . S
C3378 C3377 1.287 . S
C3378 C3379 1.524 . S
C3378 H3397 0.913 . S
C3379 H3355 0.950 . S
C3379 C3378 1.524 . S
C3379 C3380 1.415 . S
C3380 H3356 0.950 . S
C3380 C3375 1.363 . S
C3380 C3379 1.415 . S
C3381 H3357 0.951 . S
C3381 C3382 1.366 . S
C3381 C3383 1.388 . S
C3382 C3381 1.366 . S
C3382 C3386 1.385 . S
C3383 H3358 0.951 . S
C3383 C3381 1.388 . S
C3383 C3384 1.366 . S
C3384 C3383 1.366 . S
C3384 C3385 1.414 . S
C3384 C3387 1.499 . S
C3385 H3359 0.950 . S
C3385 C3384 1.414 . S
C3385 C3386 1.374 . S
C3386 H3360 0.950 . S
C3386 C3382 1.385 . S
C3386 C3385 1.374 . S
C3387 C3384 1.499 . S
C3387 C3388 1.373 . S
C3387 C3389 1.389 . S
C3388 H3361 0.950 . S
C3388 C3374 1.377 . S
C3388 C3387 1.373 . S
C3389 C3373 1.377 . S
C3389 C3387 1.389 . S
C3389 C3390 1.524 . S
C3390 C3389 1.524 . S
C3390 C3391 1.397 . S
C3390 C3395 1.363 . S
C3391 H3362 0.950 . S
C3391 C3390 1.397 . S
C3391 C3392 1.334 . S
C3392 H3363 0.950 . S
C3392 C3391 1.334 . S
C3392 C3393 1.287 . S
C3393 C3392 1.287 . S
C3393 C3394 1.524 . S
C3393 H3396 0.999 . S
C3394 H3364 0.950 . S
C3394 C3393 1.524 . S
C3394 C3395 1.415 . S
C3395 H3365 0.950 . S
C3395 C3390 1.363 . S
C3395 C3394 1.415 . S
H3396 C3393 0.999 . S
H3397 C3378 0.913 . S
H3398 C3416 0.951 . S
H3399 C3418 0.951 . S
H3400 C3420 0.950 . S
H3401 C3421 0.950 . S
H3402 C3423 0.950 . S
H3403 C3426 0.950 . S
H3404 C3427 0.950 . S
H3405 C3429 0.950 . S
H3406 C3430 0.950 . S
H3407 C3431 0.951 . S
H3408 C3433 0.951 . S
H3409 C3435 0.950 . S
H3410 C3436 0.950 . S
H3411 C3438 0.950 . S
H3412 C3441 0.950 . S
H3413 C3442 0.950 . S
H3414 C3444 0.950 . S
H3415 C3445 0.950 . S
C3416 H3398 0.951 . S
C3416 C3417 1.366 . S
C3416 C3418 1.388 . S
C3417 C3416 1.366 . S
C3417 C3421 1.385 . S
C3418 H3399 0.951 . S
C3418 C3416 1.388 . S
C3418 C3419 1.366 . S
C3419 C3418 1.366 . S
C3419 C3420 1.414 . S
C3419 C3422 1.499 . S
C3420 H3400 0.950 . S
C3420 C3419 1.414 . S
C3420 C3421 1.374 . S
C3421 H3401 0.950 . S
C3421 C3417 1.385 . S
C3421 C3420 1.374 . S
C3422 C3419 1.499 . S
C3422 C3423 1.373 . S
C3422 C3424 1.389 . S
C3423 H3402 0.950 . S
C3423 C3422 1.373 . S
C3423 C3439 1.377 . S
C3424 C3422 1.389 . S
C3424 C3425 1.524 . S
C3424 C3438 1.377 . S
C3425 C3424 1.524 . S
C3425 C3426 1.397 . S
C3425 C3430 1.363 . S
C3426 H3403 0.950 . S
C3426 C3425 1.397 . S
C3426 C3427 1.334 . S
C3427 H3404 0.950 . S
C3427 C3426 1.334 . S
C3427 C3428 1.287 . S
C3428 C3427 1.287 . S
C3428 C3429 1.524 . S
C3428 H3447 0.913 . S
C3429 H3405 0.950 . S
C3429 C3428 1.524 . S
C3429 C3430 1.415 . S
C3430 H3406 0.950 . S
C3430 C3425 1.363 . S
C3430 C3429 1.415 . S
C3431 H3407 0.951 . S
C3431 C3432 1.366 . S
C3431 C3433 1.388 . S
C3432 C3431 1.366 . S
C3432 C3436 1.385 . S
C3433 H3408 0.951 . S
C3433 C3431 1.388 . S
C3433 C3434 1.366 . S
C3434 C3433 1.366 . S
C3434 C3435 1.414 . S
C3434 C3437 1.499 . S
C3435 H3409 0.950 . S
C3435 C3434 1.414 . S
C3435 C3436 1.374 . S
C3436 H3410 0.950 . S
C3436 C3432 1.385 . S
C3436 C3435 1.374 . S
C3437 C3434 1.499 . S
C3437 C3438 1.373 . S
C3437 C3439 1.389 . S
C3438 H3411 0.950 . S
C3438 C3424 1.377 . S
C3438 C3437 1.373 . S
C3439 C3423 1.377 . S
C3439 C3437 1.389 . S
C3439 C3440 1.524 . S
C3440 C3439 1.524 . S
C3440 C3441 1.397 . S
C3440 C3445 1.363 . S
C3441 H3412 0.950 . S
C3441 C3440 1.397 . S
C3441 C3442 1.334 . S
C3442 H3413 0.950 . S
C3442 C3441 1.334 . S
C3442 C3443 1.287 . S
C3443 C3442 1.287 . S
C3443 C3444 1.524 . S
C3443 H3446 0.999 . S
C3444 H3414 0.950 . S
C3444 C3443 1.524 . S
C3444 C3445 1.415 . S
C3445 H3415 0.950 . S
C3445 C3440 1.363 . S
C3445 C3444 1.415 . S
H3446 C3443 0.999 . S
H3447 C3428 0.913 . S
H3448 C3466 0.951 . S
H3449 C3468 0.951 . S
H3450 C3470 0.950 . S
H3451 C3471 0.950 . S
H3452 C3473 0.950 . S
H3453 C3476 0.950 . S
H3454 C3477 0.950 . S
H3455 C3479 0.950 . S
H3456 C3480 0.950 . S
H3457 C3481 0.951 . S
H3458 C3483 0.951 . S
H3459 C3485 0.950 . S
H3460 C3486 0.950 . S
H3461 C3488 0.950 . S
H3462 C3491 0.950 . S
H3463 C3492 0.950 . S
H3464 C3494 0.950 . S
H3465 C3495 0.950 . S
C3466 H3448 0.951 . S
C3466 C3467 1.366 . S
C3466 C3468 1.388 . S
C3467 C3466 1.366 . S
C3467 C3471 1.385 . S
C3468 H3449 0.951 . S
C3468 C3466 1.388 . S
C3468 C3469 1.366 . S
C3469 C3468 1.366 . S
C3469 C3470 1.414 . S
C3469 C3472 1.499 . S
C3470 H3450 0.950 . S
C3470 C3469 1.414 . S
C3470 C3471 1.374 . S
C3471 H3451 0.950 . S
C3471 C3467 1.385 . S
C3471 C3470 1.374 . S
C3472 C3469 1.499 . S
C3472 C3473 1.373 . S
C3472 C3474 1.389 . S
C3473 H3452 0.950 . S
C3473 C3472 1.373 . S
C3473 C3489 1.377 . S
C3474 C3472 1.389 . S
C3474 C3475 1.524 . S
C3474 C3488 1.377 . S
C3475 C3474 1.524 . S
C3475 C3476 1.397 . S
C3475 C3480 1.363 . S
C3476 H3453 0.950 . S
C3476 C3475 1.397 . S
C3476 C3477 1.334 . S
C3477 H3454 0.950 . S
C3477 C3476 1.334 . S
C3477 C3478 1.287 . S
C3478 C3477 1.287 . S
C3478 C3479 1.524 . S
C3478 H3497 0.913 . S
C3479 H3455 0.950 . S
C3479 C3478 1.524 . S
C3479 C3480 1.415 . S
C3480 H3456 0.950 . S
C3480 C3475 1.363 . S
C3480 C3479 1.415 . S
C3481 H3457 0.951 . S
C3481 C3482 1.366 . S
C3481 C3483 1.388 . S
C3482 C3481 1.366 . S
C3482 C3486 1.385 . S
C3483 H3458 0.951 . S
C3483 C3481 1.388 . S
C3483 C3484 1.366 . S
C3484 C3483 1.366 . S
C3484 C3485 1.414 . S
C3484 C3487 1.499 . S
C3485 H3459 0.950 . S
C3485 C3484 1.414 . S
C3485 C3486 1.374 . S
C3486 H3460 0.950 . S
C3486 C3482 1.385 . S
C3486 C3485 1.374 . S
C3487 C3484 1.499 . S
C3487 C3488 1.373 . S
C3487 C3489 1.389 . S
C3488 H3461 0.950 . S
C3488 C3474 1.377 . S
C3488 C3487 1.373 . S
C3489 C3473 1.377 . S
C3489 C3487 1.389 . S
C3489 C3490 1.524 . S
C3490 C3489 1.524 . S
C3490 C3491 1.397 . S
C3490 C3495 1.363 . S
C3491 H3462 0.950 . S
C3491 C3490 1.397 . S
C3491 C3492 1.334 . S
C3492 H3463 0.950 . S
C3492 C3491 1.334 . S
C3492 C3493 1.287 . S
C3493 C3492 1.287 . S
C3493 C3494 1.524 . S
C3493 H3496 0.999 . S
C3494 H3464 0.950 . S
C3494 C3493 1.524 . S
C3494 C3495 1.415 . S
C3495 H3465 0.950 . S
C3495 C3490 1.363 . S
C3495 C3494 1.415 . S
H3496 C3493 0.999 . S
H3497 C3478 0.913 . S
H3498 C3516 0.951 . S
H3499 C3518 0.951 . S
H3500 C3520 0.950 1_554 S
H3501 C3521 0.950 . S
H3502 C3523 0.950 . S
H3503 C3526 0.950 . S
H3504 C3527 0.950 . S
H3505 C3529 0.950 . S
H3506 C3530 0.950 . S
H3507 C3531 0.951 . S
H3508 C3533 0.951 . S
H3509 C3535 0.950 . S
H3510 C3536 0.950 . S
H3511 C3538 0.950 . S
H3512 C3541 0.950 . S
H3513 C3542 0.950 . S
H3514 C3544 0.950 . S
H3515 C3545 0.950 . S
C3516 H3498 0.951 . S
C3516 C3517 1.366 . S
C3516 C3518 1.388 . S
C3517 C3516 1.366 . S
C3517 C3521 1.385 . S
C3518 H3499 0.951 . S
C3518 C3516 1.388 . S
C3518 C3519 1.366 1_556 S
C3519 C3518 1.366 1_554 S
C3519 C3520 1.414 1_554 S
C3519 C3522 1.499 . S
C3520 H3500 0.950 1_556 S
C3520 C3519 1.414 1_556 S
C3520 C3521 1.374 . S
C3521 H3501 0.950 . S
C3521 C3517 1.385 . S
C3521 C3520 1.374 . S
C3522 C3519 1.499 . S
C3522 C3523 1.373 . S
C3522 C3524 1.389 . S
C3523 H3502 0.950 . S
C3523 C3522 1.373 . S
C3523 C3539 1.377 . S
C3524 C3522 1.389 . S
C3524 C3525 1.524 . S
C3524 C3538 1.377 . S
C3525 C3524 1.524 . S
C3525 C3526 1.397 1_554 S
C3525 C3530 1.363 . S
C3526 H3503 0.950 . S
C3526 C3525 1.397 1_556 S
C3526 C3527 1.334 . S
C3527 H3504 0.950 . S
C3527 C3526 1.334 . S
C3527 C3528 1.287 . S
C3528 C3527 1.287 . S
C3528 C3529 1.524 . S
C3528 H3547 0.913 . S
C3529 H3505 0.950 . S
C3529 C3528 1.524 . S
C3529 C3530 1.415 1_556 S
C3530 H3506 0.950 . S
C3530 C3525 1.363 . S
C3530 C3529 1.415 1_554 S
C3531 H3507 0.951 . S
C3531 C3532 1.366 . S
C3531 C3533 1.388 . S
C3532 C3531 1.366 . S
C3532 C3536 1.385 . S
C3533 H3508 0.951 . S
C3533 C3531 1.388 . S
C3533 C3534 1.366 . S
C3534 C3533 1.366 . S
C3534 C3535 1.414 . S
C3534 C3537 1.499 . S
C3535 H3509 0.950 . S
C3535 C3534 1.414 . S
C3535 C3536 1.374 . S
C3536 H3510 0.950 . S
C3536 C3532 1.385 . S
C3536 C3535 1.374 . S
C3537 C3534 1.499 . S
C3537 C3538 1.373 . S
C3537 C3539 1.389 . S
C3538 H3511 0.950 . S
C3538 C3524 1.377 . S
C3538 C3537 1.373 . S
C3539 C3523 1.377 . S
C3539 C3537 1.389 . S
C3539 C3540 1.524 . S
C3540 C3539 1.524 . S
C3540 C3541 1.397 . S
C3540 C3545 1.363 . S
C3541 H3512 0.950 . S
C3541 C3540 1.397 . S
C3541 C3542 1.334 . S
C3542 H3513 0.950 . S
C3542 C3541 1.334 . S
C3542 C3543 1.287 . S
C3543 C3542 1.287 . S
C3543 C3544 1.524 . S
C3543 H3546 0.999 . S
C3544 H3514 0.950 . S
C3544 C3543 1.524 . S
C3544 C3545 1.415 . S
C3545 H3515 0.950 . S
C3545 C3540 1.363 . S
C3545 C3544 1.415 . S
H3546 C3543 0.999 . S
H3547 C3528 0.913 . S
H3548 C3566 0.951 1_554 S
H3549 C3568 0.951 . S
H3550 C3570 0.950 . S
H3551 C3571 0.950 . S
H3552 C3573 0.950 . S
H3553 C3576 0.950 . S
H3554 C3577 0.950 . S
H3555 C3579 0.950 . S
H3556 C3580 0.950 . S
H3557 C3581 0.951 . S
H3558 C3583 0.951 . S
H3559 C3585 0.950 . S
H3560 C3586 0.950 . S
H3561 C3588 0.950 . S
H3562 C3591 0.950 . S
H3563 C3592 0.950 . S
H3564 C3594 0.950 . S
H3565 C3595 0.950 . S
C3566 H3548 0.951 1_556 S
C3566 C3567 1.366 . S
C3566 C3568 1.388 . S
C3567 C3566 1.366 . S
C3567 C3571 1.385 . S
C3568 H3549 0.951 . S
C3568 C3566 1.388 . S
C3568 C3569 1.366 . S
C3569 C3568 1.366 . S
C3569 C3570 1.414 . S
C3569 C3572 1.499 . S
C3570 H3550 0.950 . S
C3570 C3569 1.414 . S
C3570 C3571 1.374 . S
C3571 H3551 0.950 . S
C3571 C3567 1.385 . S
C3571 C3570 1.374 . S
C3572 C3569 1.499 . S
C3572 C3573 1.373 . S
C3572 C3574 1.389 . S
C3573 H3552 0.950 . S
C3573 C3572 1.373 . S
C3573 C3589 1.377 . S
C3574 C3572 1.389 . S
C3574 C3575 1.524 . S
C3574 C3588 1.377 . S
C3575 C3574 1.524 . S
C3575 C3576 1.397 . S
C3575 C3580 1.363 . S
C3576 H3553 0.950 . S
C3576 C3575 1.397 . S
C3576 C3577 1.334 . S
C3577 H3554 0.950 . S
C3577 C3576 1.334 . S
C3577 C3578 1.287 . S
C3578 C3577 1.287 . S
C3578 C3579 1.524 . S
C3578 H3597 0.913 . S
C3579 H3555 0.950 . S
C3579 C3578 1.524 . S
C3579 C3580 1.415 . S
C3580 H3556 0.950 . S
C3580 C3575 1.363 . S
C3580 C3579 1.415 . S
C3581 H3557 0.951 . S
C3581 C3582 1.366 . S
C3581 C3583 1.388 . S
C3582 C3581 1.366 . S
C3582 C3586 1.385 . S
C3583 H3558 0.951 . S
C3583 C3581 1.388 . S
C3583 C3584 1.366 . S
C3584 C3583 1.366 . S
C3584 C3585 1.414 . S
C3584 C3587 1.499 . S
C3585 H3559 0.950 . S
C3585 C3584 1.414 . S
C3585 C3586 1.374 . S
C3586 H3560 0.950 . S
C3586 C3582 1.385 . S
C3586 C3585 1.374 . S
C3587 C3584 1.499 . S
C3587 C3588 1.373 . S
C3587 C3589 1.389 . S
C3588 H3561 0.950 . S
C3588 C3574 1.377 . S
C3588 C3587 1.373 . S
C3589 C3573 1.377 . S
C3589 C3587 1.389 . S
C3589 C3590 1.524 . S
C3590 C3589 1.524 . S
C3590 C3591 1.397 . S
C3590 C3595 1.363 . S
C3591 H3562 0.950 . S
C3591 C3590 1.397 . S
C3591 C3592 1.334 . S
C3592 H3563 0.950 . S
C3592 C3591 1.334 . S
C3592 C3593 1.287 . S
C3593 C3592 1.287 . S
C3593 C3594 1.524 . S
C3593 H3596 0.999 . S
C3594 H3564 0.950 . S
C3594 C3593 1.524 . S
C3594 C3595 1.415 . S
C3595 H3565 0.950 . S
C3595 C3590 1.363 . S
C3595 C3594 1.415 . S
H3596 C3593 0.999 . S
H3597 C3578 0.913 . S
H3598 C3616 0.951 . S
H3599 C3618 0.951 . S
H3600 C3620 0.950 . S
H3601 C3621 0.950 . S
H3602 C3623 0.950 . S
H3603 C3626 0.950 . S
H3604 C3627 0.950 . S
H3605 C3629 0.950 . S
H3606 C3630 0.950 . S
H3607 C3631 0.951 . S
H3608 C3633 0.951 . S
H3609 C3635 0.950 . S
H3610 C3636 0.950 . S
H3611 C3638 0.950 . S
H3612 C3641 0.950 . S
H3613 C3642 0.950 . S
H3614 C3644 0.950 . S
H3615 C3645 0.950 . S
C3616 H3598 0.951 . S
C3616 C3617 1.366 . S
C3616 C3618 1.388 . S
C3617 C3616 1.366 . S
C3617 C3621 1.385 . S
C3618 H3599 0.951 . S
C3618 C3616 1.388 . S
C3618 C3619 1.366 . S
C3619 C3618 1.366 . S
C3619 C3620 1.414 . S
C3619 C3622 1.499 . S
C3620 H3600 0.950 . S
C3620 C3619 1.414 . S
C3620 C3621 1.374 . S
C3621 H3601 0.950 . S
C3621 C3617 1.385 . S
C3621 C3620 1.374 . S
C3622 C3619 1.499 . S
C3622 C3623 1.373 . S
C3622 C3624 1.389 . S
C3623 H3602 0.950 . S
C3623 C3622 1.373 . S
C3623 C3639 1.377 . S
C3624 C3622 1.389 . S
C3624 C3625 1.524 . S
C3624 C3638 1.377 . S
C3625 C3624 1.524 . S
C3625 C3626 1.397 . S
C3625 C3630 1.363 . S
C3626 H3603 0.950 . S
C3626 C3625 1.397 . S
C3626 C3627 1.334 . S
C3627 H3604 0.950 . S
C3627 C3626 1.334 . S
C3627 C3628 1.287 . S
C3628 C3627 1.287 . S
C3628 C3629 1.524 . S
C3628 H3647 0.913 . S
C3629 H3605 0.950 . S
C3629 C3628 1.524 . S
C3629 C3630 1.415 . S
C3630 H3606 0.950 . S
C3630 C3625 1.363 . S
C3630 C3629 1.415 . S
C3631 H3607 0.951 . S
C3631 C3632 1.366 . S
C3631 C3633 1.388 . S
C3632 C3631 1.366 . S
C3632 C3636 1.385 . S
C3633 H3608 0.951 . S
C3633 C3631 1.388 . S
C3633 C3634 1.366 . S
C3634 C3633 1.366 . S
C3634 C3635 1.414 . S
C3634 C3637 1.499 . S
C3635 H3609 0.950 . S
C3635 C3634 1.414 . S
C3635 C3636 1.374 . S
C3636 H3610 0.950 . S
C3636 C3632 1.385 . S
C3636 C3635 1.374 . S
C3637 C3634 1.499 . S
C3637 C3638 1.373 . S
C3637 C3639 1.389 . S
C3638 H3611 0.950 . S
C3638 C3624 1.377 . S
C3638 C3637 1.373 . S
C3639 C3623 1.377 . S
C3639 C3637 1.389 . S
C3639 C3640 1.524 . S
C3640 C3639 1.524 . S
C3640 C3641 1.397 . S
C3640 C3645 1.363 . S
C3641 H3612 0.950 . S
C3641 C3640 1.397 . S
C3641 C3642 1.334 . S
C3642 H3613 0.950 . S
C3642 C3641 1.334 . S
C3642 C3643 1.287 . S
C3643 C3642 1.287 . S
C3643 C3644 1.524 . S
C3643 H3646 0.999 . S
C3644 H3614 0.950 . S
C3644 C3643 1.524 . S
C3644 C3645 1.415 . S
C3645 H3615 0.950 . S
C3645 C3640 1.363 . S
C3645 C3644 1.415 . S
H3646 C3643 0.999 . S
H3647 C3628 0.913 . S
C467 C109 1.494 . S
C482 C11 1.494 . S
C517 C25 1.495 . S
C532 C67 1.495 . S
C567 C81 1.495 . S
C582 C39 1.495 . S
C617 C53 1.495 . S
C632 C95 1.495 . S
C667 C123 1.494 . S
C682 C221 1.494 . S
C717 C137 1.494 . S
C732 C179 1.495 . S
C767 C151 1.495 . S
C782 C193 1.494 . S
C817 C165 1.494 . S
C832 C207 1.494 . S
C867 C235 1.495 . S
C882 C333 1.495 . S
C917 C249 1.495 . S
C932 C291 1.495 . S
C967 C305 1.495 . S
C982 C263 1.495 . S
C1017 C319 1.495 . S
C1032 C277 1.495 . S
C1067 C347 1.495 . S
C1082 C445 1.495 . S
C1117 C403 1.495 . S
C1132 C361 1.494 . S
C1167 C417 1.495 . S
C1182 C375 1.495 . S
C1217 C389 1.494 . S
C1232 C431 1.494 . S
C1267 C9 0.356 . S
C1282 C93 0.356 . S
C1317 C23 0.355 . S
C1332 C107 0.356 . S
C1367 C65 0.358 . S
C1382 C37 0.358 . S
C1417 C51 0.357 . S
C1432 C79 0.358 . S
C1467 C121 0.355 . S
C1482 C205 0.355 . S
C1517 C135 0.357 . S
C1532 C219 0.356 . S
C1567 C177 0.357 . S
C1582 C149 0.357 . S
C1617 C191 0.356 . S
C1632 C163 0.356 . S
C1667 C233 0.356 . S
C1682 C317 0.356 . S
C1717 C331 0.356 . S
C1732 C247 0.356 . S
C1767 C289 0.357 . S
C1782 C261 0.357 . S
C1817 C275 0.358 . S
C1832 C303 0.358 . S
C1867 C345 0.357 . S
C1882 C429 0.357 . S
C1917 C359 0.357 . S
C1932 C443 0.357 . S
C1967 C401 0.356 . S
C1982 C373 0.357 . S
C2017 C415 0.356 . S
C2032 C387 0.356 . S
C2067 C5 1.528 . S
C2082 C425 1.528 . S
C2117 C19 1.528 . S
C2132 C215 1.528 . S
C2167 C33 1.528 . S
C2182 C397 1.528 . S
C2217 C47 1.528 . S
C2232 C187 1.528 . S
C2267 C61 1.528 . S
C2282 C369 1.528 . S
C2317 C75 1.528 . S
C2332 C159 1.528 . S
C2367 C89 1.528 . S
C2382 C341 1.528 . S
C2417 C131 1.528 . S
C2432 C103 1.528 . S
C2467 C313 1.528 . S
C2482 C117 1.528 . S
C2517 C145 1.528 . S
C2532 C285 1.528 . S
C2567 C257 1.528 . S
C2582 C173 1.528 . S
C2617 C229 1.528 . S
C2632 C201 1.528 . S
C2667 C243 1.528 . S
C2682 C439 1.528 . S
C2717 C271 1.528 . S
C2732 C411 1.528 . S
C2767 C299 1.528 . S
C2782 C383 1.528 . S
C2817 C355 1.528 . S
C2832 C327 1.528 . S
C2867 C0 1.629 . S
C2882 C84 1.630 . S
C2917 C14 1.629 . S
C2932 C98 1.629 . S
C2967 C56 1.630 1_556 S
C2982 C28 1.629 . S
C3017 C42 1.629 . S
C3032 C70 1.629 . S
C3067 C112 1.630 1_556 S
C3082 C196 1.629 . S
C3117 C126 1.629 . S
C3132 C210 1.629 . S
C3167 C168 1.629 . S
C3182 C140 1.629 . S
C3217 C154 1.629 . S
C3232 C182 1.629 . S
C3267 C308 1.629 1_556 S
C3282 C224 1.630 . S
C3317 C322 1.629 . S
C3332 C238 1.630 . S
C3367 C280 1.629 . S
C3382 C252 1.629 . S
C3417 C294 1.629 . S
C3432 C266 1.629 . S
C3467 C420 1.630 . S
C3482 C336 1.629 . S
C3517 C434 1.629 . S
C3532 C350 1.629 . S
C3567 C364 1.629 1_556 S
C3582 C392 1.629 . S
C3617 C406 1.629 . S
C3632 C378 1.629 . S
