# Generated by pormake.
# Topology wka, (5)-cn, num edge types: 1
# Building blocks:
#     Node 0, Type 0, BuildingBlock: XOMCOT_clean_sbu_1, # of connection points: 5
#     Node 1, Type 0, BuildingBlock: XOMCOT_clean_sbu_1, # of connection points: 5
#     Node 2, Type 0, BuildingBlock: XOMCOT_clean_sbu_1, # of connection points: 5
#     Node 3, Type 0, BuildingBlock: XOMCOT_clean_sbu_1, # of connection points: 5
#     Node 4, Type 0, BuildingBlock: XOMCOT_clean_sbu_1, # of connection points: 5
#     Node 5, Type 0, BuildingBlock: XOMCOT_clean_sbu_1, # of connection points: 5
#     Node 6, Type 0, BuildingBlock: XOMCOT_clean_sbu_1, # of connection points: 5
#     Node 7, Type 0, BuildingBlock: XOMCOT_clean_sbu_1, # of connection points: 5
#     Node 8, Type 0, BuildingBlock: XOMCOT_clean_sbu_1, # of connection points: 5
#     Node 9, Type 0, BuildingBlock: XOMCOT_clean_sbu_1, # of connection points: 5
#     Node 10, Type 0, BuildingBlock: XOMCOT_clean_sbu_1, # of connection points: 5
#     Node 11, Type 0, BuildingBlock: XOMCOT_clean_sbu_1, # of connection points: 5
#     Edge 12, Type (0, 0), BuildingBlock: XIVTED_clean_linker_0, # of connection points: 2
#     Edge 13, Type (0, 0), BuildingBlock: XIVTED_clean_linker_0, # of connection points: 2
#     Edge 14, Type (0, 0), BuildingBlock: XIVTED_clean_linker_0, # of connection points: 2
#     Edge 15, Type (0, 0), BuildingBlock: XIVTED_clean_linker_0, # of connection points: 2
#     Edge 16, Type (0, 0), BuildingBlock: XIVTED_clean_linker_0, # of connection points: 2
#     Edge 17, Type (0, 0), BuildingBlock: XIVTED_clean_linker_0, # of connection points: 2
#     Edge 18, Type (0, 0), BuildingBlock: XIVTED_clean_linker_0, # of connection points: 2
#     Edge 19, Type (0, 0), BuildingBlock: XIVTED_clean_linker_0, # of connection points: 2
#     Edge 20, Type (0, 0), BuildingBlock: XIVTED_clean_linker_0, # of connection points: 2
#     Edge 21, Type (0, 0), BuildingBlock: XIVTED_clean_linker_0, # of connection points: 2
#     Edge 22, Type (0, 0), BuildingBlock: XIVTED_clean_linker_0, # of connection points: 2
#     Edge 23, Type (0, 0), BuildingBlock: XIVTED_clean_linker_0, # of connection points: 2
#     Edge 24, Type (0, 0), BuildingBlock: XIVTED_clean_linker_0, # of connection points: 2
#     Edge 25, Type (0, 0), BuildingBlock: XIVTED_clean_linker_0, # of connection points: 2
#     Edge 26, Type (0, 0), BuildingBlock: XIVTED_clean_linker_0, # of connection points: 2
#     Edge 27, Type (0, 0), BuildingBlock: XIVTED_clean_linker_0, # of connection points: 2
#     Edge 28, Type (0, 0), BuildingBlock: XIVTED_clean_linker_0, # of connection points: 2
#     Edge 29, Type (0, 0), BuildingBlock: XIVTED_clean_linker_0, # of connection points: 2
#     Edge 30, Type (0, 0), BuildingBlock: XIVTED_clean_linker_0, # of connection points: 2
#     Edge 31, Type (0, 0), BuildingBlock: XIVTED_clean_linker_0, # of connection points: 2
#     Edge 32, Type (0, 0), BuildingBlock: XIVTED_clean_linker_0, # of connection points: 2
#     Edge 33, Type (0, 0), BuildingBlock: XIVTED_clean_linker_0, # of connection points: 2
#     Edge 34, Type (0, 0), BuildingBlock: XIVTED_clean_linker_0, # of connection points: 2
#     Edge 35, Type (0, 0), BuildingBlock: XIVTED_clean_linker_0, # of connection points: 2
#     Edge 36, Type (0, 0), BuildingBlock: XIVTED_clean_linker_0, # of connection points: 2
#     Edge 37, Type (0, 0), BuildingBlock: XIVTED_clean_linker_0, # of connection points: 2
#     Edge 38, Type (0, 0), BuildingBlock: XIVTED_clean_linker_0, # of connection points: 2
#     Edge 39, Type (0, 0), BuildingBlock: XIVTED_clean_linker_0, # of connection points: 2
#     Edge 40, Type (0, 0), BuildingBlock: XIVTED_clean_linker_0, # of connection points: 2
#     Edge 41, Type (0, 0), BuildingBlock: XIVTED_clean_linker_0, # of connection points: 2
# Relax obj value: 0.232
# Max RMSD: 0.182
# Mean RMSD: 0.182
data_MOF--net-wka--node1-XOMCOT_clean_sbu_1--edge1-XIVTED_clean_linker_0
_symmetry_space_group_name_H-M    P1
_symmetry_Int_Tables_number       1
_symmetry_cell_setting            triclinic
loop_
_symmetry_equiv_pos_as_xyz
'x, y, z'
_cell_length_a     67.488926
_cell_length_b     67.591215
_cell_length_c     17.210744
_cell_angle_alpha  90.000155
_cell_angle_beta   89.99945
_cell_angle_gamma 119.9785
loop_
_atom_site_label
_atom_site_type_symbol
_atom_site_fract_x
_atom_site_fract_y
_atom_site_fract_z
_atom_type_partial_charge
C0 C 0.14226 0.44804 -0.00327 0.0
C1 C 0.14637 0.45025 0.91783 0.0
N2 N 0.13311 0.42966 0.88481 0.0
N3 N 0.12638 0.42623 0.01249 0.0
C4 C 0.12174 0.41538 0.94375 0.0
H5 H 0.14921 0.46171 0.039 0.0
Co6 Co 0.11086 0.41443 0.10423 0.0
C7 C 0.06251 0.3837 0.05445 0.0
O8 O 0.05578 0.39131 0.11328 0.0
N9 N 0.09574 0.4022 0.19845 0.0
C10 C 0.07972 0.37686 0.29414 0.0
C11 C 0.08244 0.37974 0.21509 0.0
C12 C 0.10133 0.41245 0.26859 0.0
N13 N 0.09192 0.39749 0.32749 0.0
O14 O 0.12416 0.39501 0.1124 0.0
H15 H 0.07681 0.36606 0.17316 0.0
H16 H 0.1138 0.43016 0.27736 0.0
O17 O 0.08392 0.39095 0.04529 0.0
C18 C 0.14088 0.40438 0.16002 0.0
O19 O 0.14613 0.4243 0.18988 0.0
N20 N 0.10021 0.43561 0.09888 0.0
C21 C 0.09211 0.47242 0.09254 0.0
C22 C 0.08202 0.45455 0.03832 0.0
C23 C 0.08673 0.43659 0.04132 0.0
C24 C 0.1113 0.45363 0.14834 0.0
C25 C 0.10712 0.47185 0.14755 0.0
H26 H 0.08032 0.42418 -0.00494 0.0
H27 H 0.12468 0.45472 0.18536 0.0
H28 H 0.10947 0.39747 0.93635 0.0
H29 H 0.15694 0.46603 0.88679 0.0
H30 H 0.07132 0.36071 0.32475 0.0
H31 H 0.07094 0.45463 0.99296 0.0
H32 H 0.11648 0.48592 0.18735 0.0
C33 C 0.70362 0.13967 0.17093 0.0
C34 C 0.70557 0.14367 0.09198 0.0
N35 N 0.71178 0.12951 0.05895 0.0
N36 N 0.7084 0.12295 0.18669 0.0
C37 C 0.71397 0.11768 0.11789 0.0
H38 H 0.69783 0.14746 0.21331 0.0
Co39 Co 0.7046 0.10758 0.27871 0.0
C40 C 0.6845 0.05869 0.2314 0.0
O41 O 0.67078 0.05277 0.29182 0.0
N42 N 0.70161 0.09254 0.37288 0.0
C43 C 0.71058 0.0761 0.46812 0.0
C44 C 0.71045 0.07891 0.38912 0.0
C45 C 0.69702 0.09814 0.44307 0.0
N46 N 0.70239 0.0885 0.50171 0.0
O47 O 0.73715 0.11918 0.28364 0.0
H48 H 0.7182 0.07304 0.34684 0.0
H49 H 0.69181 0.11063 0.45208 0.0
O50 O 0.69905 0.07985 0.22019 0.0
C51 C 0.74544 0.13617 0.3302 0.0
O52 O 0.73156 0.14241 0.36072 0.0
N53 N 0.67319 0.09888 0.27708 0.0
C54 C 0.63009 0.09551 0.2761 0.0
C55 C 0.63506 0.08244 0.22478 0.0
C56 C 0.65696 0.08486 0.22467 0.0
C57 C 0.66879 0.11233 0.3247 0.0
C58 C 0.64734 0.11059 0.32649 0.0
H59 H 0.66101 0.07639 0.17955 0.0
H60 H 0.68247 0.12563 0.35821 0.0
H61 H 0.71879 0.10477 0.11057 0.0
H62 H 0.70126 0.15494 0.06098 0.0
H63 H 0.71809 0.06742 0.49854 0.0
H64 H 0.62258 0.07139 0.18233 0.0
H65 H 0.64455 0.12149 0.36569 0.0
C66 C 0.56813 0.70114 0.31363 0.0
C67 C 0.56711 0.70479 0.23529 0.0
N68 N 0.58829 0.71323 0.2055 0.0
N69 N 0.58981 0.70706 0.33213 0.0
C70 C 0.60173 0.71498 0.26591 0.0
H71 H 0.55383 0.6934 0.35347 0.0
Co72 Co 0.60092 0.70271 0.4244 0.0
C73 C 0.62818 0.6816 0.37163 0.0
O74 O 0.61845 0.66628 0.42692 0.0
N75 N 0.61246 0.69966 0.51903 0.0
C76 C 0.63684 0.70574 0.61546 0.0
C77 C 0.63363 0.70346 0.53655 0.0
C78 C 0.60378 0.70106 0.58799 0.0
N79 N 0.61805 0.70438 0.64755 0.0
O80 O 0.62175 0.73504 0.4324 0.0
H81 H 0.64693 0.70677 0.49505 0.0
H82 H 0.58811 0.70157 0.59368 0.0
O83 O 0.62357 0.6978 0.36588 0.0
C84 C 0.61164 0.74504 0.46104 0.0
O85 O 0.58956 0.73296 0.47436 0.0
N86 N 0.57873 0.67088 0.41931 0.0
C87 C 0.54251 0.62557 0.41092 0.0
C88 C 0.55827 0.63524 0.3498 0.0
C89 C 0.57593 0.65798 0.35446 0.0
C90 C 0.56297 0.66196 0.47764 0.0
C91 C 0.54505 0.63937 0.47526 0.0
H92 H 0.58704 0.66535 0.30481 0.0
H93 H 0.56342 0.67252 0.52496 0.0
H94 H 0.61985 0.72108 0.26144 0.0
H95 H 0.55176 0.70008 0.20208 0.0
H96 H 0.6525 0.70999 0.64598 0.0
H97 H 0.55688 0.62545 0.29823 0.0
H98 H 0.53273 0.63312 0.52225 0.0
C99 C 0.8707 0.56451 0.48676 0.0
C100 C 0.86566 0.5618 0.40856 0.0
N101 N 0.87994 0.58161 0.37258 0.0
N102 N 0.88829 0.58578 0.49928 0.0
C103 C 0.89323 0.59587 0.42901 0.0
H104 H 0.8627 0.55156 0.53117 0.0
Co105 Co 0.9037 0.59728 0.59164 0.0
C106 C 0.95251 0.62639 0.54404 0.0
O107 O 0.95856 0.61838 0.60351 0.0
N108 N 0.91857 0.6091 0.68672 0.0
C109 C 0.93535 0.63426 0.78241 0.0
C110 C 0.93269 0.63142 0.70335 0.0
C111 C 0.91239 0.59893 0.75699 0.0
N112 N 0.92239 0.61376 0.81603 0.0
O113 O 0.89202 0.61804 0.5977 0.0
H114 H 0.93919 0.64511 0.66125 0.0
H115 H 0.89882 0.58161 0.76567 0.0
O116 O 0.93129 0.61976 0.53343 0.0
C117 C 0.87417 0.60851 0.64032 0.0
O118 O 0.8672 0.58777 0.66621 0.0
N119 N 0.91274 0.57485 0.58873 0.0
C120 C 0.91704 0.53573 0.58444 0.0
C121 C 0.92937 0.55383 0.53259 0.0
C122 C 0.92647 0.57297 0.53416 0.0
C123 C 0.90001 0.55695 0.63713 0.0
C124 C 0.90221 0.53752 0.63716 0.0
H125 H 0.93432 0.5855 0.48869 0.0
H126 H 0.88687 0.557 0.67255 0.0
H127 H 0.90709 0.61301 0.41851 0.0
H128 H 0.85296 0.54632 0.38021 0.0
H129 H 0.94493 0.65037 0.81266 0.0
H130 H 0.94018 0.55266 0.48846 0.0
H131 H 0.89183 0.52372 0.67678 0.0
C132 C 0.31344 0.86819 0.65524 0.0
C133 C 0.31138 0.86422 0.57627 0.0
N134 N 0.30528 0.87852 0.54372 0.0
N135 N 0.30887 0.88503 0.67133 0.0
C136 C 0.30324 0.89037 0.60284 0.0
H137 H 0.31928 0.86035 0.69735 0.0
Co138 Co 0.31309 0.90047 0.76323 0.0
C139 C 0.33304 0.9494 0.71744 0.0
O140 O 0.34696 0.95504 0.77723 0.0
N141 N 0.31646 0.91547 0.85749 0.0
C142 C 0.30752 0.93154 0.95399 0.0
C143 C 0.30764 0.92904 0.87486 0.0
C144 C 0.32104 0.90956 0.9271 0.0
N145 N 0.31567 0.91896 0.98643 0.0
O146 O 0.28059 0.88891 0.77009 0.0
H147 H 0.29978 0.935 0.83328 0.0
H148 H 0.32608 0.89691 0.9352 0.0
O149 O 0.31843 0.92828 0.70541 0.0
C150 C 0.27255 0.87179 0.8161 0.0
O151 O 0.28654 0.86537 0.8443 0.0
N152 N 0.34448 0.9092 0.75957 0.0
C153 C 0.38771 0.91294 0.75485 0.0
C154 C 0.38225 0.92578 0.7042 0.0
C155 C 0.36029 0.92316 0.70593 0.0
C156 C 0.34933 0.89593 0.80649 0.0
C157 C 0.37086 0.89785 0.80638 0.0
H158 H 0.35584 0.93144 0.66128 0.0
H159 H 0.33594 0.88263 0.84085 0.0
H160 H 0.29864 0.90345 0.59572 0.0
H161 H 0.31564 0.85297 0.54488 0.0
H162 H 0.29995 0.94003 0.98525 0.0
H163 H 0.39441 0.93681 0.66091 0.0
H164 H 0.37404 0.8871 0.84503 0.0
C165 C 0.45094 0.30893 0.82287 0.0
C166 C 0.45358 0.30574 0.74541 0.0
N167 N 0.43339 0.29866 0.70929 0.0
N168 N 0.42926 0.30409 0.83519 0.0
C169 C 0.41891 0.29744 0.76556 0.0
H170 H 0.46411 0.31512 0.86697 0.0
Co171 Co 0.4172 0.30756 0.92757 0.0
C172 C 0.39064 0.32923 0.87119 0.0
O173 O 0.39989 0.3447 0.92624 0.0
N174 N 0.40496 0.30971 0.02251 0.0
C175 C 0.38198 0.30578 0.1215 0.0
C176 C 0.38487 0.30826 0.04216 0.0
C177 C 0.41312 0.30668 0.09027 0.0
N178 N 0.39992 0.30489 0.15149 0.0
O179 O 0.39626 0.27516 0.9319 0.0
H180 H 0.37217 0.30733 0.00191 0.0
H181 H 0.42776 0.30423 0.09388 0.0
O182 O 0.39522 0.31299 0.86766 0.0
C183 C 0.40613 0.26417 0.95346 0.0
O184 O 0.42843 0.27536 0.9626 0.0
N185 N 0.43943 0.33945 0.92658 0.0
C186 C 0.47714 0.38411 0.92269 0.0
C187 C 0.46258 0.37489 0.85815 0.0
C188 C 0.44392 0.35258 0.86119 0.0
C189 C 0.45361 0.34816 0.9892 0.0
C190 C 0.47198 0.37046 0.98935 0.0
H191 H 0.43368 0.34553 0.80947 0.0
H192 H 0.45164 0.33771 0.03871 0.0
H193 H 0.40128 0.29266 0.75585 0.0
H194 H 0.46932 0.30895 0.71778 0.0
H195 H 0.36749 0.30408 0.15407 0.0
H196 H 0.46604 0.38437 0.80441 0.0
H197 H 0.48237 0.37663 0.04123 0.0
C198 C 0.56665 0.86855 0.85692 0.0
C199 C 0.5659 0.86404 0.93523 0.0
N200 N 0.58702 0.87728 0.96489 0.0
N201 N 0.58812 0.88463 0.83779 0.0
C202 C 0.60019 0.88917 0.90412 0.0
H203 H 0.55227 0.86147 0.81738 0.0
Co204 Co 0.59837 0.8999 0.7442 0.0
C205 C 0.64016 0.94233 0.80405 0.0
O206 O 0.65443 0.94146 0.75415 0.0
N207 N 0.60836 0.91485 0.65093 0.0
C208 C 0.61926 0.93878 0.55124 0.0
C209 C 0.61611 0.93678 0.63058 0.0
C210 C 0.60671 0.90389 0.58408 0.0
N211 N 0.61319 0.91797 0.52229 0.0
O212 O 0.6209 0.8903 0.73646 0.0
H213 H 0.61844 0.9502 0.67019 0.0
H214 H 0.60028 0.8857 0.58094 0.0
O215 O 0.61895 0.92741 0.80149 0.0
C216 C 0.61156 0.86906 0.72038 0.0
O217 O 0.58915 0.85687 0.71698 0.0
N218 N 0.57519 0.9074 0.74691 0.0
C219 C 0.53605 0.91149 0.74381 0.0
C220 C 0.55373 0.92419 0.79696 0.0
C221 C 0.57318 0.92176 0.79802 0.0
C222 C 0.55839 0.8953 0.69412 0.0
C223 C 0.53875 0.89714 0.69132 0.0
H224 H 0.58616 0.93089 0.84134 0.0
H225 H 0.56008 0.88371 0.65496 0.0
H226 H 0.61819 0.90163 0.90822 0.0
H227 H 0.55067 0.85304 0.9684 0.0
H228 H 0.62453 0.95409 0.51727 0.0
H229 H 0.55218 0.93521 0.83918 0.0
H230 H 0.52566 0.8872 0.64884 0.0
C231 C 0.69847 0.56196 0.9949 0.0
C232 C 0.70184 0.56079 0.07332 0.0
N233 N 0.71006 0.58184 0.104 0.0
N234 N 0.70436 0.58359 0.97663 0.0
C235 C 0.71194 0.59536 0.04353 0.0
H236 H 0.69082 0.54774 0.95484 0.0
Co237 Co 0.69918 0.59418 0.88382 0.0
C238 C 0.69989 0.63662 0.94552 0.0
O239 O 0.7147 0.65089 0.89489 0.0
N240 N 0.69424 0.60457 0.79091 0.0
C241 C 0.68141 0.61594 0.69172 0.0
C242 C 0.68065 0.61311 0.77126 0.0
C243 C 0.70287 0.60221 0.72345 0.0
N244 N 0.69532 0.60888 0.66199 0.0
O245 O 0.73144 0.61586 0.8748 0.0
H246 H 0.67013 0.61614 0.81146 0.0
H247 H 0.71398 0.59501 0.71953 0.0
O248 O 0.69344 0.61541 0.94214 0.0
C249 C 0.74263 0.60614 0.85381 0.0
O250 O 0.73167 0.58385 0.8453 0.0
N251 N 0.66798 0.57186 0.88917 0.0
C252 C 0.62342 0.53488 0.89453 0.0
C253 C 0.632 0.55078 0.95541 0.0
C254 C 0.65434 0.56926 0.95148 0.0
C255 C 0.65991 0.55648 0.82969 0.0
C256 C 0.63755 0.53806 0.83058 0.0
H257 H 0.66094 0.58085 4e-05 0.0
H258 H 0.67108 0.55815 0.78202 0.0
H259 H 0.71779 0.61339 0.04825 0.0
H260 H 0.69701 0.54533 0.10581 0.0
H261 H 0.67163 0.62164 0.65822 0.0
H262 H 0.62165 0.54875 0.00614 0.0
H263 H 0.63171 0.52587 0.78324 0.0
C264 C 0.14207 0.69623 0.16243 0.0
C265 C 0.14617 0.69742 0.24116 0.0
N266 N 0.13303 0.70456 0.27628 0.0
N267 N 0.12606 0.70215 0.14834 0.0
C268 C 0.12135 0.70771 0.21867 0.0
H269 H 0.14891 0.6897 0.11902 0.0
Co270 Co 0.11002 0.69698 0.05538 0.0
C271 C 0.06801 0.69771 0.11436 0.0
O272 O 0.06753 0.71082 0.05895 0.0
N273 N 0.09418 0.69161 0.96176 0.0
C274 C 0.06907 0.67472 0.86621 0.0
C275 C 0.07235 0.67568 0.94551 0.0
C276 C 0.10375 0.70012 0.89189 0.0
N277 N 0.08888 0.69019 0.83292 0.0
O278 O 0.12105 0.72925 0.04538 0.0
H279 H 0.06003 0.66449 0.98801 0.0
H280 H 0.12175 0.712 0.88354 0.0
O281 O 0.0834 0.69202 0.11427 0.0
C282 C 0.14095 0.73916 0.01498 0.0
O283 O 0.15068 0.72696 -0.00085 0.0
N284 N 0.10089 0.66587 0.0618 0.0
C285 C 0.09269 0.62105 0.06481 0.0
C286 C 0.08316 0.62881 0.12143 0.0
C287 C 0.08756 0.65135 0.11917 0.0
C288 C 0.11032 0.65869 0.0065 0.0
C289 C 0.10635 0.63636 0.00662 0.0
H290 H 0.08071 0.65717 0.16467 0.0
H291 H 0.12139 0.67058 0.96277 0.0
H292 H 0.10821 0.71213 0.22861 0.0
H293 H 0.15691 0.69212 0.27076 0.0
H294 H 0.05366 0.66295 0.83523 0.0
H295 H 0.07249 0.61763 0.16742 0.0
H296 H 0.11454 0.63138 0.96279 0.0
C297 C 0.45278 0.14516 0.36482 0.0
C298 C 0.45402 0.14977 0.44321 0.0
N299 N 0.43331 0.1359 0.47444 0.0
N300 N 0.4314 0.12841 0.34735 0.0
C301 C 0.41987 0.12363 0.4148 0.0
H302 H 0.46688 0.15248 0.32416 0.0
Co303 Co 0.42167 0.11252 0.25441 0.0
C304 C 0.37938 0.06835 0.30198 0.0
O305 O 0.36813 0.0663 0.23747 0.0
N306 N 0.41274 0.09726 0.16109 0.0
C307 C 0.40576 0.07391 0.06139 0.0
C308 C 0.40818 0.07612 0.14088 0.0
C309 C 0.41341 0.10766 0.0938 0.0
N310 N 0.40922 0.09389 0.03203 0.0
O311 O 0.39948 0.12244 0.24084 0.0
H312 H 0.40774 0.06355 0.18083 0.0
H313 H 0.41784 0.12537 0.0903 0.0
O314 O 0.39959 0.0852 0.31171 0.0
C315 C 0.40838 0.14377 0.22683 0.0
O316 O 0.43074 0.15668 0.22821 0.0
N317 N 0.44441 0.10456 0.26324 0.0
C318 C 0.48305 0.09964 0.26716 0.0
C319 C 0.46469 0.08714 0.31828 0.0
C320 C 0.44548 0.09 0.31587 0.0
C321 C 0.46187 0.11648 0.2125 0.0
C322 C 0.48127 0.11423 0.21323 0.0
H323 H 0.43187 0.08099 0.35743 0.0
H324 H 0.46084 0.12817 0.17198 0.0
H325 H 0.40216 0.11068 0.42093 0.0
H326 H 0.46932 0.16106 0.47558 0.0
H327 H 0.40299 0.05923 0.02769 0.0
H328 H 0.46552 0.07591 0.36139 0.0
H329 H 0.49489 0.12402 0.17218 0.0
C330 C 0.32376 0.45225 0.48472 0.0
C331 C 0.322 0.45513 0.56319 0.0
N332 N 0.31338 0.43459 0.59801 0.0
N333 N 0.31665 0.43008 0.4706 0.0
C334 C 0.30982 0.41971 0.5402 0.0
H335 H 0.33089 0.46565 0.4415 0.0
Co336 Co 0.31939 0.41735 0.37868 0.0
C337 C 0.33492 0.38472 0.4313 0.0
O338 O 0.34813 0.3895 0.36992 0.0
N339 N 0.32139 0.40431 0.28437 0.0
C340 C 0.31074 0.37856 0.18944 0.0
C341 C 0.31106 0.38173 0.26844 0.0
C342 C 0.3267 0.41439 0.21372 0.0
N343 N 0.32045 0.39919 0.15506 0.0
O344 O 0.28655 0.39826 0.37367 0.0
H345 H 0.30256 0.36829 0.31093 0.0
H346 H 0.33252 0.43222 0.20436 0.0
O347 O 0.32265 0.39418 0.43955 0.0
C348 C 0.27881 0.40691 0.32465 0.0
O349 O 0.29326 0.42629 0.291 0.0
N350 N 0.35133 0.43805 0.38058 0.0
C351 C 0.3963 0.47496 0.38254 0.0
C352 C 0.38931 0.4567 0.43486 0.0
C353 C 0.36664 0.43865 0.43402 0.0
C354 C 0.35764 0.45618 0.33212 0.0
C355 C 0.38 0.4745 0.33098 0.0
H356 H 0.36135 0.42596 0.47917 0.0
H357 H 0.34487 0.45722 0.29752 0.0
H358 H 0.30351 0.40173 0.54906 0.0
H359 H 0.32747 0.4712 0.59257 0.0
H360 H 0.30269 0.36228 0.1597 0.0
H361 H 0.40108 0.45658 0.47733 0.0
H362 H 0.38412 0.48874 0.29257 0.0
C363 C 0.87337 0.31281 0.66476 0.0
C364 C 0.86933 0.31128 0.74361 0.0
N365 N 0.88294 0.30455 0.77778 0.0
N366 N 0.88981 0.30755 0.64969 0.0
C367 C 0.89484 0.30201 0.71954 0.0
H368 H 0.8661 0.31908 0.62201 0.0
Co369 Co 0.90597 0.31328 0.55664 0.0
C370 C 0.94866 0.31452 0.61834 0.0
O371 O 0.94934 0.30092 0.56524 0.0
N372 N 0.92199 0.31924 0.46317 0.0
C373 C 0.94718 0.33697 0.36848 0.0
C374 C 0.94371 0.33562 0.4477 0.0
C375 C 0.91268 0.31085 0.39287 0.0
N376 N 0.92761 0.32131 0.33438 0.0
O377 O 0.89648 0.28131 0.54759 0.0
H378 H 0.95578 0.34686 0.49069 0.0
H379 H 0.89479 0.29865 0.38392 0.0
O380 O 0.93302 0.31984 0.61617 0.0
C381 C 0.87672 0.27094 0.51609 0.0
O382 O 0.8665 0.28264 0.4996 0.0
N383 N 0.91334 0.34391 0.56157 0.0
C384 C 0.91707 0.38694 0.56268 0.0
C385 C 0.92921 0.38146 0.61663 0.0
C386 C 0.92696 0.35969 0.61558 0.0
C387 C 0.90184 0.34912 0.50789 0.0
C388 C 0.9035 0.37051 0.50722 0.0
H389 H 0.93556 0.3554 0.65963 0.0
H390 H 0.89082 0.33629 0.4664 0.0
H391 H 0.90833 0.29805 0.72874 0.0
H392 H 0.85828 0.31604 0.77395 0.0
H393 H 0.96254 0.34914 0.33813 0.0
H394 H 0.93962 0.39354 0.66109 0.0
H395 H 0.89399 0.37405 0.46412 0.0
H396 H 0.08623 0.59196 0.94341 0.0
H397 H 0.08717 0.49594 0.21375 0.0
H398 H 0.09164 0.59645 0.19349 0.0
H399 H 0.0892 0.49481 0.96319 0.0
H400 H 0.08487 0.53083 0.20736 0.0
H401 H 0.08353 0.55457 0.94959 0.0
C402 C 0.08684 0.58511 -0.00033 0.0
C403 C 0.08932 0.59753 0.06801 0.0
C404 C 0.08568 0.52289 0.15373 0.0
C405 C 0.086 0.55451 0.07548 0.0
C406 C 0.08707 0.50298 0.15732 0.0
C407 C 0.08855 0.49245 0.08892 0.0
C408 C 0.08577 0.53244 0.08118 0.0
C409 C 0.0879 0.50217 0.01745 0.0
C410 C 0.08518 0.56368 0.00314 0.0
C411 C 0.08952 0.58749 0.13929 0.0
N412 N 0.08671 0.52167 0.01548 0.0
N413 N 0.08801 0.56666 0.14109 0.0
H414 H 0.52688 0.13518 0.26283 0.0
H415 H 0.58659 0.05822 0.26601 0.0
H416 H 0.48812 0.06174 0.28151 0.0
H417 H 0.62288 0.13181 0.27905 0.0
H418 H 0.55025 0.05844 0.26533 0.0
H419 H 0.56211 0.13361 0.26362 0.0
C420 C 0.52579 0.11867 0.26684 0.0
C421 C 0.50449 0.09854 0.27146 0.0
C422 C 0.56619 0.0745 0.26856 0.0
C423 C 0.545 0.09658 0.27289 0.0
C424 C 0.58691 0.07439 0.26849 0.0
C425 C 0.60781 0.09501 0.27339 0.0
C426 C 0.56643 0.0954 0.27272 0.0
C427 C 0.60722 0.11547 0.27671 0.0
C428 C 0.54596 0.11778 0.26767 0.0
C429 C 0.50419 0.07767 0.27811 0.0
N430 N 0.58695 0.11512 0.27626 0.0
N431 N 0.52416 0.0772 0.27819 0.0
H432 H 0.42314 0.50019 0.26015 0.0
H433 H 0.52305 0.5939 0.52821 0.0
H434 H 0.42307 0.49631 0.51052 0.0
H435 H 0.51663 0.60285 0.28287 0.0
H436 H 0.48895 0.55606 0.52099 0.0
H437 H 0.45993 0.53559 0.26576 0.0
C438 C 0.43087 0.50672 0.31636 0.0
C439 C 0.4198 0.49525 0.385 0.0
C440 C 0.49509 0.56626 0.46867 0.0
C441 C 0.46217 0.53584 0.39175 0.0
C442 C 0.51452 0.58795 0.47276 0.0
C443 C 0.52275 0.60178 0.40616 0.0
C444 C 0.48373 0.5582 0.3974 0.0
C445 C 0.51117 0.59282 0.33566 0.0
C446 C 0.45194 0.52693 0.31947 0.0
C447 C 0.43096 0.50436 0.45601 0.0
N448 N 0.49223 0.5717 0.33326 0.0
N449 N 0.45143 0.52416 0.45754 0.0
H450 H 0.88085 0.39412 0.55089 0.0
H451 H 0.9549 0.53065 0.57017 0.0
H452 H 0.95403 0.43018 0.583 0.0
H453 H 0.88132 0.4919 0.58721 0.0
H454 H 0.9556 0.49464 0.5649 0.0
H455 H 0.88133 0.43039 0.55442 0.0
C456 C 0.89708 0.40972 0.55824 0.0
C457 C 0.91746 0.40911 0.56617 0.0
C458 C 0.93934 0.49408 0.57001 0.0
C459 C 0.91814 0.45089 0.57084 0.0
C460 C 0.93892 0.51459 0.57259 0.0
C461 C 0.91804 0.51427 0.57981 0.0
C462 C 0.91869 0.47315 0.57364 0.0
C463 C 0.89784 0.49299 0.58297 0.0
C464 C 0.89733 0.43045 0.56074 0.0
C465 C 0.93792 0.42988 0.57702 0.0
N466 N 0.89868 0.47336 0.57971 0.0
N467 N 0.93777 0.44996 0.57867 0.0
H468 H 0.43084 0.95058 0.74321 0.0
H469 H 0.49251 0.87549 0.73307 0.0
H470 H 0.39549 0.877 0.75537 0.0
H471 H 0.53005 0.94881 0.75816 0.0
H472 H 0.4569 0.87637 0.73282 0.0
H473 H 0.46746 0.95096 0.73977 0.0
C474 C 0.43079 0.93453 0.74487 0.0
C475 C 0.4101 0.91374 0.75037 0.0
C476 C 0.47288 0.89231 0.73838 0.0
C477 C 0.45176 0.91403 0.74646 0.0
C478 C 0.49327 0.89183 0.73804 0.0
C479 C 0.51434 0.91213 0.74511 0.0
C480 C 0.4734 0.91326 0.74561 0.0
C481 C 0.51418 0.93275 0.75297 0.0
C482 C 0.45166 0.93476 0.74334 0.0
C483 C 0.41101 0.89345 0.75258 0.0
N484 N 0.49402 0.93281 0.7527 0.0
N485 N 0.43143 0.89412 0.75057 0.0
H486 H 0.58911 0.51743 0.78578 0.0
H487 H 0.51842 0.39818 -0.00451 0.0
H488 H 0.60604 0.50485 0.01521 0.0
H489 H 0.48483 0.42275 0.84138 0.0
H490 H 0.55253 0.43564 0.99199 0.0
H491 H 0.55249 0.48131 0.79348 0.0
C492 C 0.58502 0.50711 0.83786 0.0
C493 C 0.60054 0.5141 0.90007 0.0
C494 C 0.53762 0.43285 0.95936 0.0
C495 C 0.55912 0.47281 0.90857 0.0
C496 C 0.51795 0.41143 0.96168 0.0
C497 C 0.49829 0.40712 0.91964 0.0
C498 C 0.53807 0.45014 0.91325 0.0
C499 C 0.49947 0.42503 0.87433 0.0
C500 C 0.56417 0.48662 0.84229 0.0
C501 C 0.59447 0.50017 0.9663 0.0
N502 N 0.51906 0.44571 0.87197 0.0
N503 N 0.57436 0.48007 0.96845 0.0
H504 H 0.0693 0.36645 0.91723 0.0
H505 H 0.9459 0.33423 0.75333 0.0
H506 H 0.01718 0.37057 0.04968 0.0
H507 H 0.9897 0.3149 0.6325 0.0
H508 H 0.9731 0.34885 0.85971 0.0
H509 H 0.04169 0.34838 0.81071 0.0
C510 C 0.05208 0.36345 0.92426 0.0
C511 C 0.04571 0.37032 0.99245 0.0
C512 C 0.97685 0.34139 0.81017 0.0
C513 C 0.01407 0.34969 0.87083 0.0
C514 C 0.96129 0.33308 0.74886 0.0
C515 C 0.96547 0.32333 0.6833 0.0
C516 C 0.99705 0.34026 0.80633 0.0
C517 C 0.98575 0.32225 0.68184 0.0
C518 C 0.03632 0.3531 0.86344 0.0
C519 C 0.02304 0.36575 -0.00165 0.0
N520 N 1.00087 0.33074 0.74222 0.0
N521 N 1.0082 0.35595 0.93838 0.0
H522 H 0.68181 0.9823 0.81592 0.0
H523 H 0.65145 0.01373 0.23149 0.0
H524 H 0.61741 0.94255 0.93479 0.0
H525 H 0.70769 0.06358 0.09337 0.0
H526 H 0.64205 0.98577 0.1287 0.0
H527 H 0.69439 0.01082 0.92098 0.0
C528 C 0.67034 0.97953 0.86395 0.0
C529 C 0.64845 0.96 0.86615 0.0
C530 C 0.65648 1.00281 0.12064 0.0
C531 C 0.66283 0.99235 0.98668 0.0
C532 C 0.66197 0.01884 0.17969 0.0
C533 C 0.6803 0.04123 0.17109 0.0
C534 C 0.66942 0.00899 0.05192 0.0
C535 C 0.69329 0.04662 0.10236 0.0
C536 C 0.67752 0.99582 0.92375 0.0
C537 C 0.63433 0.95735 0.92989 0.0
N538 N 0.68756 0.03064 0.04525 0.0
N539 N 0.64178 0.97322 0.98739 0.0
H540 H 0.64878 0.70711 0.23952 0.0
H541 H 0.67816 0.61386 0.07743 0.0
H542 H 0.63892 0.64778 0.36637 0.0
H543 H 0.70129 0.67814 0.96011 0.0
H544 H 0.66303 0.6265 0.18163 0.0
H545 H 0.66772 0.69767 0.1355 0.0
C546 C 0.6507 0.69223 0.24582 0.0
C547 C 0.64196 0.67809 0.31154 0.0
C548 C 0.67141 0.63796 0.13334 0.0
C549 C 0.66359 0.66722 0.19306 0.0
C550 C 0.67999 0.63065 0.0732 0.0
C551 C 0.69094 0.64485 0.00926 0.0
C552 C 0.67344 0.65966 0.12993 0.0
C553 C 0.69298 0.66661 0.00824 0.0
C554 C 0.66154 0.68687 0.18649 0.0
C555 C 0.64517 0.65914 0.31681 0.0
N556 N 0.68417 0.67331 0.06746 0.0
N557 N 0.65552 0.65424 0.25839 0.0
H558 H 0.99813 0.64078 0.54709 0.0
H559 H 0.02689 0.69731 0.12265 0.0
H560 H 0.94686 0.64317 0.40384 0.0
H561 H 0.06994 0.6788 0.25242 0.0
H562 H 0.99872 0.68205 0.22896 0.0
H563 H 0.02613 0.65979 0.44462 0.0
C564 C 0.99272 0.64542 0.49424 0.0
C565 C 0.96993 0.64009 0.48412 0.0
C566 C 0.01439 0.68142 0.23391 0.0
C567 C 1.00221 0.66196 0.36534 0.0
C568 C 0.0305 0.69017 0.1734 0.0
C569 C 0.05083 0.68927 0.17816 0.0
C570 C 0.01883 0.672 0.29999 0.0
C571 C 0.05453 0.67977 0.24541 0.0
C572 C 1.00878 0.65625 0.43541 0.0
C573 C 0.96415 0.64675 0.41415 0.0
N574 N 0.03877 0.6716 0.30334 0.0
N575 N 0.98016 0.65725 0.35723 0.0
H576 H 0.37583 0.07525 0.45548 0.0
H577 H 0.36191 0.99528 0.72985 0.0
H578 H 0.35807 0.02158 0.28873 0.0
H579 H 0.31327 0.9446 0.57245 0.0
H580 H 0.37129 0.02437 0.6317 0.0
H581 H 0.36256 0.04726 0.55993 0.0
C582 C 0.3696 0.05758 0.44115 0.0
C583 C 0.36895 0.05088 0.36387 0.0
C584 C 0.35818 0.00702 0.61872 0.0
C585 C 0.35352 0.01834 0.48333 0.0
C586 C 0.35292 0.99025 0.67487 0.0
C587 C 0.33681 0.96731 0.65955 0.0
C588 C 0.34727 1.001 0.546 0.0
C589 C 0.32589 0.962 0.58671 0.0
C590 C 0.3619 0.0415 0.50083 0.0
C591 C 0.35917 0.02746 0.34792 0.0
N592 N 0.3315 0.97867 0.53226 0.0
N593 N 0.35199 0.01199 0.40728 0.0
H594 H 0.38062 0.31061 0.72395 0.0
H595 H 0.32484 0.38523 0.58603 0.0
H596 H 0.37093 0.35606 0.87476 0.0
H597 H 0.35245 0.35589 0.42685 0.0
H598 H 0.33448 0.36826 0.69433 0.0
H599 H 0.36337 0.32075 0.61728 0.0
C600 C 0.37458 0.32243 0.73514 0.0
C601 C 0.37744 0.3326 0.80854 0.0
C602 C 0.33819 0.36531 0.63563 0.0
C603 C 0.3576 0.34429 0.6864 0.0
C604 C 0.33249 0.37486 0.5735 0.0
C605 C 0.33782 0.37204 0.49688 0.0
C606 C 0.34918 0.35267 0.6213 0.0
C607 C 0.34812 0.35863 0.48489 0.0
C608 C 0.36482 0.32832 0.67397 0.0
C609 C 0.36927 0.34791 0.8191 0.0
N610 N 0.35353 0.34953 0.54633 0.0
N611 N 0.35982 0.35333 0.75881 0.0
H612 H 0.15088 0.39895 0.30744 0.0
H613 H 0.26231 0.39945 0.17832 0.0
H614 H 0.16252 0.38722 0.07015 0.0
H615 H 0.2406 0.39054 0.41731 0.0
H616 H 0.22392 0.39014 0.13754 0.0
H617 H 0.18077 0.39099 0.34973 0.0
C618 C 0.15937 0.39406 0.26444 0.0
C619 C 0.15428 0.39371 0.18525 0.0
C620 C 0.22728 0.38965 0.19883 0.0
C621 C 0.18911 0.38535 0.23288 0.0
C622 C 0.24919 0.39494 0.22212 0.0
C623 C 0.25455 0.39577 0.30124 0.0
C624 C 0.2107 0.3858 0.25522 0.0
C625 C 0.23706 0.38992 0.35572 0.0
C626 C 0.17648 0.38957 0.28858 0.0
C627 C 0.16584 0.38748 0.13179 0.0
N628 N 0.21601 0.38566 0.33178 0.0
N629 N 0.18309 0.38401 0.15641 0.0
H630 H 0.78385 0.15833 0.239 0.0
H631 H 0.85653 0.23222 0.6047 0.0
H632 H 0.76146 0.14377 0.47701 0.0
H633 H 0.87014 0.25576 0.36783 0.0
H634 H 0.82838 0.19391 0.55782 0.0
H635 H 0.82187 0.18794 0.28451 0.0
C636 C 0.78724 0.16078 0.30081 0.0
C637 C 0.76964 0.14868 0.35446 0.0
C638 C 0.83801 0.20729 0.51593 0.0
C639 C 0.81267 0.18259 0.40689 0.0
C640 C 0.85424 0.22905 0.54274 0.0
C641 C 0.86573 0.247 0.48992 0.0
C642 C 0.83324 0.2036 0.43584 0.0
C643 C 0.86171 0.24224 0.41026 0.0
C644 C 0.80881 0.17781 0.32683 0.0
C645 C 0.77467 0.15281 0.43392 0.0
N646 N 0.84564 0.22109 0.38563 0.0
N647 N 0.79561 0.16954 0.45772 0.0
H648 H 0.63498 0.87746 0.5843 0.0
H649 H 0.62805 0.75593 0.60723 0.0
H650 H 0.61505 0.8347 0.7877 0.0
H651 H 0.62122 0.78554 0.39463 0.0
H652 H 0.63738 0.79133 0.6761 0.0
H653 H 0.64393 0.85059 0.5182 0.0
C654 C 0.63353 0.86298 0.6162 0.0
C655 C 0.62459 0.85838 0.69183 0.0
C656 C 0.63455 0.79038 0.61393 0.0
C657 C 0.63427 0.82744 0.61645 0.0
C658 C 0.62948 0.7703 0.57454 0.0
C659 C 0.62425 0.76807 0.4951 0.0
C660 C 0.63424 0.8083 0.57357 0.0
C661 C 0.62556 0.78683 0.45569 0.0
C662 C 0.63833 0.84751 0.57818 0.0
C663 C 0.62224 0.83898 0.72977 0.0
N664 N 0.63022 0.80613 0.49546 0.0
N665 N 0.62687 0.82413 0.69155 0.0
H666 H 0.75937 0.62608 0.7138 0.0
H667 H 0.87256 0.61974 0.78916 0.0
H668 H 0.77974 0.61264 0.9355 0.0
H669 H 0.84805 0.62244 0.56069 0.0
H670 H 0.84456 0.62842 0.84583 0.0
H671 H 0.7969 0.63565 0.66031 0.0
C672 C 0.77216 0.62611 0.75197 0.0
C673 C 0.76673 0.61897 0.8294 0.0
C674 C 0.84559 0.6277 0.78319 0.0
C675 C 0.80928 0.62911 0.76838 0.0
C676 C 0.86172 0.62296 0.75086 0.0
C677 C 0.86265 0.62057 0.67028 0.0
C678 C 0.82987 0.62959 0.73467 0.0
C679 C 0.84801 0.62446 0.62309 0.0
C680 C 0.79345 0.6313 0.72126 0.0
C681 C 0.78349 0.61847 0.87587 0.0
N682 N 0.83192 0.62841 0.65606 0.0
N683 N 0.80391 0.62324 0.84451 0.0
H684 H 0.23307 0.85011 0.72973 0.0
H685 H 0.16362 0.77784 0.10253 0.0
H686 H 0.2582 0.86463 0.96483 0.0
H687 H 0.14619 0.75424 0.86666 0.0
H688 H 0.19209 0.81572 0.05346 0.0
H689 H 0.19531 0.82121 0.77955 0.0
C690 C 0.23036 0.84779 0.79188 0.0
C691 C 0.24864 0.85966 0.8434 0.0
C692 C 0.18158 0.80244 0.01236 0.0
C693 C 0.20589 0.82658 0.90067 0.0
C694 C 0.16519 0.78094 0.04046 0.0
C695 C 0.15248 0.76308 0.98845 0.0
C696 C 0.18533 0.80596 0.93175 0.0
C697 C 0.15556 0.7677 0.90851 0.0
C698 C 0.20893 0.83117 0.82032 0.0
C699 C 0.24446 0.85574 0.92335 0.0
N700 N 0.17183 0.7886 0.88255 0.0
N701 N 0.22364 0.83941 0.94949 0.0
H702 H 0.3848 0.13327 0.09027 0.0
H703 H 0.3843 0.25143 0.092 0.0
H704 H 0.40419 0.17856 0.28699 0.0
H705 H 0.40168 0.22513 0.89147 0.0
H706 H 0.37544 0.21648 0.16356 0.0
H707 H 0.37499 0.15872 0.01864 0.0
C708 C 0.38599 0.14801 0.11955 0.0
C709 C 0.39512 0.1538 0.19477 0.0
C710 C 0.3804 0.21802 0.10302 0.0
C711 C 0.38414 0.18292 0.11342 0.0
C712 C 0.38518 0.23779 0.06197 0.0
C713 C 0.39336 0.2409 0.98551 0.0
C714 C 0.38371 0.20123 0.06701 0.0
C715 C 0.39505 0.22313 0.94998 0.0
C716 C 0.38064 0.16263 0.07843 0.0
C717 C 0.39696 0.17343 0.22936 0.0
N718 N 0.39043 0.2041 0.99118 0.0
N719 N 0.39168 0.18738 0.1883 0.0
H720 H 0.06491 0.37541 0.45014 0.0
H721 H 0.16165 0.45031 0.76298 0.0
H722 H 0.13248 0.42946 0.38866 0.0
H723 H 0.09284 0.39823 0.82123 0.0
H724 H 0.15189 0.44242 0.6249 0.0
H725 H 0.07544 0.38277 0.58743 0.0
C726 C 0.08192 0.38883 0.46572 0.0
C727 C 0.09772 0.40201 0.40825 0.0
C728 C 0.13901 0.43265 0.66815 0.0
C729 C 0.10997 0.41057 0.56447 0.0
C730 C 0.14458 0.43718 0.74672 0.0
C731 C 0.12816 0.42474 0.80363 0.0
C732 C 0.11684 0.41564 0.64675 0.0
C733 C 0.10625 0.40785 0.77963 0.0
C734 C 0.08794 0.39309 0.54386 0.0
C735 C 0.11958 0.41926 0.43116 0.0
N736 N 0.10124 0.40383 0.7031 0.0
N737 N 0.12507 0.42304 0.50758 0.0
H738 H 0.72101 0.15841 0.93734 0.0
H739 H 0.69692 0.06124 0.62405 0.0
H740 H 0.70143 0.08885 -0.00482 0.0
H741 H 0.71171 0.1292 0.56307 0.0
H742 H 0.70019 0.0717 0.76143 0.0
H743 H 0.71909 0.14868 0.79927 0.0
C744 C 0.71641 0.14117 0.921 0.0
C745 C 0.71165 0.12452 0.97779 0.0
C746 C 0.70263 0.0843 0.71794 0.0
C747 C 0.7094 0.11325 0.82094 0.0
C748 C 0.70081 0.07832 0.63977 0.0
C749 C 0.70375 0.09425 0.58247 0.0
C750 C 0.70757 0.10643 0.73868 0.0
C751 C 0.70875 0.11621 0.6055 0.0
C752 C 0.71536 0.13562 0.84243 0.0
C753 C 0.70583 0.10241 0.95368 0.0
N754 N 0.71052 0.12166 0.68193 0.0
N755 N 0.70485 0.09744 0.87716 0.0
H756 H 0.59198 0.72132 0.70569 0.0
H757 H 0.62177 0.70736 0.14281 0.0
H758 H 0.63706 0.69615 0.77238 0.0
H759 H 0.56865 0.72258 0.08367 0.0
H760 H 0.63076 0.70808 0.00661 0.0
H761 H 0.58587 0.72593 0.84271 0.0
C762 C 0.60049 0.71663 0.74903 0.0
C763 C 0.61487 0.70806 0.72762 0.0
C764 C 0.61722 0.71144 0.02313 0.0
C765 C 0.60826 0.71371 0.8841 0.0
C766 C 0.61223 0.71129 0.10131 0.0
C767 C 0.59451 0.71511 0.12491 0.0
C768 C 0.60435 0.71528 0.96759 0.0
C769 C 0.58232 0.71941 0.0678 0.0
C770 C 0.59712 0.71943 0.8272 0.0
C771 C 0.62596 0.70291 0.78627 0.0
N772 N 0.58743 0.71931 0.99144 0.0
N773 N 0.62235 0.70574 0.86184 0.0
H774 H 0.90783 0.57356 0.89072 0.0
H775 H 0.89517 0.6221 0.29968 0.0
H776 H 0.92338 0.64309 0.92623 0.0
H777 H 0.87293 0.55106 0.25863 0.0
H778 H 0.90549 0.63014 0.16273 0.0
H779 H 0.89538 0.56504 0.02582 0.0
C780 C 0.90863 0.58703 0.92693 0.0
C781 C 0.91664 0.60906 0.89701 0.0
C782 C 0.8982 0.61275 0.18346 0.0
C783 C 0.9025 0.59947 0.05174 0.0
C784 C 0.89233 0.60817 0.2616 0.0
C785 C 0.8833 0.58591 0.29054 0.0
C786 C 0.89515 0.59495 0.13392 0.0
C787 C 0.87966 0.56842 0.23859 0.0
C788 C 0.90153 0.58217 0.00404 0.0
C789 C 0.91763 0.62596 0.9469 0.0
N790 N 0.88578 0.57335 0.16282 0.0
N791 N 0.91061 0.62079 0.02178 0.0
H792 H 0.31802 0.91994 0.48238 0.0
H793 H 0.30508 0.87755 0.04435 0.0
H794 H 0.29494 0.84988 0.42067 0.0
H795 H 0.32175 0.9457 0.11071 0.0
H796 H 0.30198 0.86705 0.18109 0.0
H797 H 0.31967 0.92949 0.3462 0.0
C798 C 0.31286 0.90643 0.44012 0.0
C799 C 0.30587 0.88395 0.46292 0.0
C800 C 0.30637 0.88431 0.16582 0.0
C801 C 0.30843 0.89497 0.30603 0.0
C802 C 0.30838 0.8904 0.08785 0.0
C803 C 0.31404 0.91266 0.06659 0.0
C804 C 0.31007 0.90062 0.22275 0.0
C805 C 0.31739 0.9284 0.12504 0.0
C806 C 0.31406 0.91197 0.3621 0.0
C807 C 0.30037 0.86738 0.40529 0.0
N808 N 0.31543 0.9221 0.20067 0.0
N809 N 0.30176 0.87322 0.32913 0.0
H810 H 0.46438 0.31729 0.59194 0.0
H811 H 0.36853 0.28376 0.26628 0.0
H812 H 0.39205 0.27503 0.63729 0.0
H813 H 0.44104 0.31938 0.21936 0.0
H814 H 0.37657 0.27973 0.40222 0.0
H815 H 0.45603 0.31675 0.4543 0.0
C816 C 0.44676 0.30761 0.57314 0.0
C817 C 0.4289 0.29637 0.6269 0.0
C818 C 0.3907 0.2883 0.36198 0.0
C819 C 0.41916 0.2961 0.46879 0.0
C820 C 0.38612 0.29076 0.28456 0.0
C821 C 0.40414 0.30194 0.23142 0.0
C822 C 0.41347 0.29725 0.38643 0.0
C823 C 0.42661 0.3104 0.25807 0.0
C824 C 0.44198 0.30746 0.49431 0.0
C825 C 0.40637 0.28436 0.59848 0.0
N826 N 0.43063 0.30797 0.33369 0.0
N827 N 0.40214 0.28469 0.52149 0.0
H828 H 0.56643 0.8483 0.08581 0.0
H829 H 0.63819 0.94461 0.40176 0.0
H830 H 0.62172 0.91577 0.02959 0.0
H831 H 0.58447 0.87649 0.45913 0.0
H832 H 0.63402 0.93356 0.26491 0.0
H833 H 0.57462 0.85731 0.22369 0.0
C834 C 0.58034 0.86493 0.1023 0.0
C835 C 0.59322 0.88132 0.04577 0.0
C836 C 0.62327 0.92099 0.30761 0.0
C837 C 0.60272 0.89179 0.20325 0.0
C838 C 0.62556 0.92735 0.38561 0.0
C839 C 0.61165 0.9115 0.44198 0.0
C840 C 0.60683 0.89865 0.28586 0.0
C841 C 0.59577 0.88923 0.41797 0.0
C842 C 0.58507 0.87006 0.18099 0.0
C843 C 0.61134 0.90249 0.07058 0.0
N844 N 0.5937 0.88352 0.34169 0.0
N845 N 0.6154 0.90717 0.1474 0.0
H846 H 0.71519 0.55918 0.22597 0.0
H847 H 0.69473 0.63423 0.54075 0.0
H848 H 0.70864 0.61791 0.16916 0.0
H849 H 0.70531 0.57809 0.59907 0.0
H850 H 0.70111 0.62932 0.40387 0.0
H851 H 0.71352 0.56695 0.36366 0.0
C852 C 0.71349 0.57372 0.24216 0.0
C853 C 0.71177 0.58767 0.1853 0.0
C854 C 0.70218 0.61818 0.44679 0.0
C855 C 0.70988 0.59672 0.3429 0.0
C856 C 0.6984 0.6209 0.52477 0.0
C857 C 0.69953 0.60661 0.58144 0.0
C858 C 0.70697 0.60093 0.42537 0.0
C859 C 0.70461 0.58975 0.55767 0.0
C860 C 0.7126 0.5782 0.32085 0.0
C861 C 0.71003 0.60659 0.21013 0.0
N862 N 0.70804 0.58732 0.48146 0.0
N863 N 0.70893 0.61041 0.28692 0.0
H864 H 0.12685 0.6712 0.37633 0.0
H865 H 0.11461 0.72993 0.7565 0.0
H866 H 0.12687 0.73482 0.36089 0.0
H867 H 0.07619 0.65698 0.72494 0.0
H868 H 0.12582 0.73434 0.61857 0.0
H869 H 0.11531 0.6679 0.51304 0.0
C870 C 0.12476 0.68464 0.40227 0.0
C871 C 0.12797 0.70341 0.35788 0.0
C872 C 0.11482 0.71741 0.64193 0.0
C873 C 0.11482 0.69976 0.51354 0.0
C874 C 0.1085 0.7149 0.72023 0.0
C875 C 0.09438 0.69309 0.7515 0.0
C876 C 0.10749 0.6979 0.59551 0.0
C877 C 0.08686 0.67408 0.70257 0.0
C878 C 0.11796 0.68264 0.47977 0.0
C879 C 0.12459 0.72015 0.3936 0.0
N880 N 0.09375 0.67689 0.62715 0.0
N881 N 0.11838 0.71806 0.46976 0.0
H882 H 0.44889 0.16577 0.59474 0.0
H883 H 0.38832 0.06578 0.90988 0.0
H884 H 0.40697 0.09443 0.53863 0.0
H885 H 0.43381 0.13642 0.96986 0.0
H886 H 0.39259 0.07657 0.773 0.0
H887 H 0.44141 0.15607 0.73329 0.0
C888 C 0.43791 0.14814 0.6117 0.0
C889 C 0.42813 0.13092 0.55541 0.0
C890 C 0.40156 0.08973 0.81621 0.0
C891 C 0.41962 0.11963 0.71251 0.0
C892 C 0.39919 0.08354 0.8943 0.0
C893 C 0.41076 0.10016 0.95148 0.0
C894 C 0.41566 0.11273 0.79508 0.0
C895 C 0.42434 0.12303 0.92804 0.0
C896 C 0.43362 0.14259 0.69043 0.0
C897 C 0.41414 0.10828 0.57994 0.0
N898 N 0.42651 0.12862 0.85158 0.0
N899 N 0.41035 0.10329 0.65658 0.0
H900 H 0.28523 0.39463 0.67111 0.0
H901 H 0.34925 0.43839 0.07941 0.0
H902 H 0.33984 0.46353 0.71214 0.0
H903 H 0.29064 0.37134 0.04457 0.0
H904 H 0.34657 0.44761 0.94407 0.0
H905 H 0.28706 0.38559 0.80741 0.0
C906 C 0.29752 0.4079 0.70888 0.0
C907 C 0.31244 0.42986 0.67998 0.0
C908 C 0.33431 0.43086 0.966 0.0
C909 C 0.3147 0.41963 0.83615 0.0
C910 C 0.33583 0.42559 0.04332 0.0
C911 C 0.32013 0.40408 0.07367 0.0
C912 C 0.31698 0.41449 0.91836 0.0
C913 C 0.3033 0.38804 0.02373 0.0
C914 C 0.29854 0.40274 0.78673 0.0
C915 C 0.32783 0.44646 0.73188 0.0
N916 N 0.30214 0.3936 0.94864 0.0
N917 N 0.32866 0.44096 0.80728 0.0
H918 H 0.94044 0.35491 0.22784 0.0
H919 H 0.88982 0.27443 0.86013 0.0
H920 H 0.90234 0.28181 0.25586 0.0
H921 H 0.88877 0.33743 0.87951 0.0
H922 H 0.90117 0.27792 -0.00209 0.0
H923 H 0.929 0.35021 0.09057 0.0
C924 C 0.92992 0.33788 0.20464 0.0
C925 C 0.92231 0.3187 0.25277 0.0
C926 C 0.89828 0.29085 0.97188 0.0
C927 C 0.90933 0.3132 0.09656 0.0
C928 C 0.89185 0.28887 0.89373 0.0
C929 C 0.88809 0.30551 0.85923 0.0
C930 C 0.90167 0.30998 0.01467 0.0
C931 C 0.89112 0.32406 0.90458 0.0
C932 C 0.92325 0.33521 0.12679 0.0
C933 C 0.90844 0.29697 0.22036 0.0
N934 N 0.89798 0.32595 0.97978 0.0
N935 N 0.90249 0.29476 0.14395 0.0
loop_
_geom_bond_atom_site_label_1
_geom_bond_atom_site_label_2
_geom_bond_distance
_geom_bond_site_symmetry_2
_ccdc_geom_bond_type
C0 C1 1.351 . S
C0 N3 1.368 . S
C0 H5 0.931 . S
C1 C0 1.351 . S
C1 N2 1.373 . S
C1 H29 0.930 . S
N2 C1 1.373 . S
N2 C4 1.340 . S
N3 C0 1.368 . S
N3 C4 1.321 . S
N3 Co6 2.135 1_556 S
C4 N2 1.340 . S
C4 N3 1.321 . S
C4 H28 0.930 . S
H5 C0 0.931 . S
Co6 N3 2.135 1_554 S
Co6 N9 2.121 . S
Co6 O14 2.055 . S
Co6 O17 2.039 . S
Co6 N20 2.140 . S
C7 O8 1.227 . S
C7 O17 1.265 1_556 S
O8 C7 1.227 . S
N9 Co6 2.121 . S
N9 C11 1.375 . S
N9 C12 1.313 . S
C10 C11 1.338 . S
C10 N13 1.377 . S
C10 H30 0.930 . S
C11 N9 1.375 . S
C11 C10 1.338 . S
C11 H15 0.931 . S
C12 N9 1.313 . S
C12 N13 1.344 . S
C12 H16 0.930 . S
N13 C10 1.377 . S
N13 C12 1.344 . S
O14 Co6 2.055 . S
O14 C18 1.253 . S
H15 C11 0.931 . S
H16 C12 0.930 . S
O17 Co6 2.039 . S
O17 C7 1.265 1_554 S
C18 O14 1.253 . S
C18 O19 1.227 . S
O19 C18 1.227 . S
N20 Co6 2.140 . S
N20 C23 1.346 1_554 S
N20 C24 1.345 . S
C21 C22 1.387 1_554 S
C21 C25 1.391 . S
C22 C21 1.387 1_556 S
C22 C23 1.369 . S
C22 H31 0.929 . S
C23 N20 1.346 1_556 S
C23 C22 1.369 . S
C23 H26 0.928 . S
C24 N20 1.345 . S
C24 C25 1.371 . S
C24 H27 0.931 . S
C25 C21 1.391 . S
C25 C24 1.371 . S
C25 H32 0.930 . S
H26 C23 0.928 . S
H27 C24 0.931 . S
H28 C4 0.930 . S
H29 C1 0.930 . S
H30 C10 0.930 . S
H31 C22 0.929 . S
H32 C25 0.930 . S
C33 C34 1.351 . S
C33 N36 1.368 . S
C33 H38 0.931 . S
C34 C33 1.351 . S
C34 N35 1.373 1_554 S
C34 H62 0.930 1_554 S
N35 C34 1.373 1_556 S
N35 C37 1.340 1_556 S
N36 C33 1.368 . S
N36 C37 1.321 . S
N36 Co39 2.135 . S
C37 N35 1.340 1_554 S
C37 N36 1.321 . S
C37 H61 0.930 . S
H38 C33 0.931 . S
Co39 N36 2.135 . S
Co39 N42 2.121 . S
Co39 O47 2.055 . S
Co39 O50 2.039 . S
Co39 N53 2.140 . S
C40 O41 1.227 . S
C40 O50 1.265 . S
O41 C40 1.227 . S
N42 Co39 2.121 . S
N42 C44 1.375 . S
N42 C45 1.313 . S
C43 C44 1.338 . S
C43 N46 1.377 . S
C43 H63 0.930 . S
C44 N42 1.375 . S
C44 C43 1.338 . S
C44 H48 0.931 . S
C45 N42 1.313 . S
C45 N46 1.344 . S
C45 H49 0.930 . S
N46 C43 1.377 . S
N46 C45 1.344 . S
O47 Co39 2.055 . S
O47 C51 1.253 . S
H48 C44 0.931 . S
H49 C45 0.930 . S
O50 Co39 2.039 . S
O50 C40 1.265 . S
C51 O47 1.253 . S
C51 O52 1.227 . S
O52 C51 1.227 . S
N53 Co39 2.140 . S
N53 C56 1.346 . S
N53 C57 1.345 . S
C54 C55 1.387 . S
C54 C58 1.391 . S
C55 C54 1.387 . S
C55 C56 1.369 . S
C55 H64 0.929 . S
C56 N53 1.346 . S
C56 C55 1.369 . S
C56 H59 0.928 . S
C57 N53 1.345 . S
C57 C58 1.371 . S
C57 H60 0.931 . S
C58 C54 1.391 . S
C58 C57 1.371 . S
C58 H65 0.930 . S
H59 C56 0.928 . S
H60 C57 0.931 . S
H61 C37 0.930 . S
H62 C34 0.930 1_556 S
H63 C43 0.930 . S
H64 C55 0.929 . S
H65 C58 0.930 . S
C66 C67 1.351 . S
C66 N69 1.368 . S
C66 H71 0.931 . S
C67 C66 1.351 . S
C67 N68 1.373 . S
C67 H95 0.930 . S
N68 C67 1.373 . S
N68 C70 1.340 . S
N69 C66 1.368 . S
N69 C70 1.321 . S
N69 Co72 2.135 . S
C70 N68 1.340 . S
C70 N69 1.321 . S
C70 H94 0.930 . S
H71 C66 0.931 . S
Co72 N69 2.135 . S
Co72 N75 2.121 . S
Co72 O80 2.055 . S
Co72 O83 2.039 . S
Co72 N86 2.140 . S
C73 O74 1.227 . S
C73 O83 1.265 . S
O74 C73 1.227 . S
N75 Co72 2.121 . S
N75 C77 1.375 . S
N75 C78 1.313 . S
C76 C77 1.338 . S
C76 N79 1.377 . S
C76 H96 0.930 . S
C77 N75 1.375 . S
C77 C76 1.338 . S
C77 H81 0.931 . S
C78 N75 1.313 . S
C78 N79 1.344 . S
C78 H82 0.930 . S
N79 C76 1.377 . S
N79 C78 1.344 . S
O80 Co72 2.055 . S
O80 C84 1.253 . S
H81 C77 0.931 . S
H82 C78 0.930 . S
O83 Co72 2.039 . S
O83 C73 1.265 . S
C84 O80 1.253 . S
C84 O85 1.227 . S
O85 C84 1.227 . S
N86 Co72 2.140 . S
N86 C89 1.346 . S
N86 C90 1.345 . S
C87 C88 1.387 . S
C87 C91 1.391 . S
C88 C87 1.387 . S
C88 C89 1.369 . S
C88 H97 0.929 . S
C89 N86 1.346 . S
C89 C88 1.369 . S
C89 H92 0.928 . S
C90 N86 1.345 . S
C90 C91 1.371 . S
C90 H93 0.931 . S
C91 C87 1.391 . S
C91 C90 1.371 . S
C91 H98 0.930 . S
H92 C89 0.928 . S
H93 C90 0.931 . S
H94 C70 0.930 . S
H95 C67 0.930 . S
H96 C76 0.930 . S
H97 C88 0.929 . S
H98 C91 0.930 . S
C99 C100 1.351 . S
C99 N102 1.368 . S
C99 H104 0.931 . S
C100 C99 1.351 . S
C100 N101 1.373 . S
C100 H128 0.930 . S
N101 C100 1.373 . S
N101 C103 1.340 . S
N102 C99 1.368 . S
N102 C103 1.321 . S
N102 Co105 2.135 . S
C103 N101 1.340 . S
C103 N102 1.321 . S
C103 H127 0.930 . S
H104 C99 0.931 . S
Co105 N102 2.135 . S
Co105 N108 2.121 . S
Co105 O113 2.055 . S
Co105 O116 2.039 . S
Co105 N119 2.140 . S
C106 O107 1.227 . S
C106 O116 1.265 . S
O107 C106 1.227 . S
N108 Co105 2.121 . S
N108 C110 1.375 . S
N108 C111 1.313 . S
C109 C110 1.338 . S
C109 N112 1.377 . S
C109 H129 0.930 . S
C110 N108 1.375 . S
C110 C109 1.338 . S
C110 H114 0.931 . S
C111 N108 1.313 . S
C111 N112 1.344 . S
C111 H115 0.930 . S
N112 C109 1.377 . S
N112 C111 1.344 . S
O113 Co105 2.055 . S
O113 C117 1.253 . S
H114 C110 0.931 . S
H115 C111 0.930 . S
O116 Co105 2.039 . S
O116 C106 1.265 . S
C117 O113 1.253 . S
C117 O118 1.227 . S
O118 C117 1.227 . S
N119 Co105 2.140 . S
N119 C122 1.346 . S
N119 C123 1.345 . S
C120 C121 1.387 . S
C120 C124 1.391 . S
C121 C120 1.387 . S
C121 C122 1.369 . S
C121 H130 0.929 . S
C122 N119 1.346 . S
C122 C121 1.369 . S
C122 H125 0.928 . S
C123 N119 1.345 . S
C123 C124 1.371 . S
C123 H126 0.931 . S
C124 C120 1.391 . S
C124 C123 1.371 . S
C124 H131 0.930 . S
H125 C122 0.928 . S
H126 C123 0.931 . S
H127 C103 0.930 . S
H128 C100 0.930 . S
H129 C109 0.930 . S
H130 C121 0.929 . S
H131 C124 0.930 . S
C132 C133 1.351 . S
C132 N135 1.368 . S
C132 H137 0.931 . S
C133 C132 1.351 . S
C133 N134 1.373 . S
C133 H161 0.930 . S
N134 C133 1.373 . S
N134 C136 1.340 . S
N135 C132 1.368 . S
N135 C136 1.321 . S
N135 Co138 2.135 . S
C136 N134 1.340 . S
C136 N135 1.321 . S
C136 H160 0.930 . S
H137 C132 0.931 . S
Co138 N135 2.135 . S
Co138 N141 2.121 . S
Co138 O146 2.055 . S
Co138 O149 2.039 . S
Co138 N152 2.140 . S
C139 O140 1.227 . S
C139 O149 1.265 . S
O140 C139 1.227 . S
N141 Co138 2.121 . S
N141 C143 1.375 . S
N141 C144 1.313 . S
C142 C143 1.338 . S
C142 N145 1.377 . S
C142 H162 0.930 . S
C143 N141 1.375 . S
C143 C142 1.338 . S
C143 H147 0.931 . S
C144 N141 1.313 . S
C144 N145 1.344 . S
C144 H148 0.930 . S
N145 C142 1.377 . S
N145 C144 1.344 . S
O146 Co138 2.055 . S
O146 C150 1.253 . S
H147 C143 0.931 . S
H148 C144 0.930 . S
O149 Co138 2.039 . S
O149 C139 1.265 . S
C150 O146 1.253 . S
C150 O151 1.227 . S
O151 C150 1.227 . S
N152 Co138 2.140 . S
N152 C155 1.346 . S
N152 C156 1.345 . S
C153 C154 1.387 . S
C153 C157 1.391 . S
C154 C153 1.387 . S
C154 C155 1.369 . S
C154 H163 0.929 . S
C155 N152 1.346 . S
C155 C154 1.369 . S
C155 H158 0.928 . S
C156 N152 1.345 . S
C156 C157 1.371 . S
C156 H159 0.931 . S
C157 C153 1.391 . S
C157 C156 1.371 . S
C157 H164 0.930 . S
H158 C155 0.928 . S
H159 C156 0.931 . S
H160 C136 0.930 . S
H161 C133 0.930 . S
H162 C142 0.930 . S
H163 C154 0.929 . S
H164 C157 0.930 . S
C165 C166 1.351 . S
C165 N168 1.368 . S
C165 H170 0.931 . S
C166 C165 1.351 . S
C166 N167 1.373 . S
C166 H194 0.930 . S
N167 C166 1.373 . S
N167 C169 1.340 . S
N168 C165 1.368 . S
N168 C169 1.321 . S
N168 Co171 2.135 . S
C169 N167 1.340 . S
C169 N168 1.321 . S
C169 H193 0.930 . S
H170 C165 0.931 . S
Co171 N168 2.135 . S
Co171 N174 2.121 1_556 S
Co171 O179 2.055 . S
Co171 O182 2.039 . S
Co171 N185 2.140 . S
C172 O173 1.227 . S
C172 O182 1.265 . S
O173 C172 1.227 . S
N174 Co171 2.121 1_554 S
N174 C176 1.375 . S
N174 C177 1.313 . S
C175 C176 1.338 . S
C175 N178 1.377 . S
C175 H195 0.930 . S
C176 N174 1.375 . S
C176 C175 1.338 . S
C176 H180 0.931 1_554 S
C177 N174 1.313 . S
C177 N178 1.344 . S
C177 H181 0.930 . S
N178 C175 1.377 . S
N178 C177 1.344 . S
O179 Co171 2.055 . S
O179 C183 1.253 . S
H180 C176 0.931 1_556 S
H181 C177 0.930 . S
O182 Co171 2.039 . S
O182 C172 1.265 . S
C183 O179 1.253 . S
C183 O184 1.227 . S
O184 C183 1.227 . S
N185 Co171 2.140 . S
N185 C188 1.346 . S
N185 C189 1.345 . S
C186 C187 1.387 . S
C186 C190 1.391 . S
C187 C186 1.387 . S
C187 C188 1.369 . S
C187 H196 0.929 . S
C188 N185 1.346 . S
C188 C187 1.369 . S
C188 H191 0.928 . S
C189 N185 1.345 . S
C189 C190 1.371 . S
C189 H192 0.931 . S
C190 C186 1.391 . S
C190 C189 1.371 . S
C190 H197 0.919 1_556 S
H191 C188 0.928 . S
H192 C189 0.931 . S
H193 C169 0.930 . S
H194 C166 0.930 . S
H195 C175 0.930 . S
H196 C187 0.929 . S
H197 C190 0.919 1_554 S
C198 C199 1.351 . S
C198 N201 1.368 . S
C198 H203 0.931 . S
C199 C198 1.351 . S
C199 N200 1.373 1_556 S
C199 H227 0.930 1_556 S
N200 C199 1.373 1_554 S
N200 C202 1.340 1_554 S
N201 C198 1.368 . S
N201 C202 1.321 . S
N201 Co204 2.135 . S
C202 N200 1.340 1_556 S
C202 N201 1.321 . S
C202 H226 0.930 . S
H203 C198 0.931 . S
Co204 N201 2.135 . S
Co204 N207 2.121 . S
Co204 O212 2.055 . S
Co204 O215 2.039 . S
Co204 N218 2.140 . S
C205 O206 1.227 . S
C205 O215 1.265 . S
O206 C205 1.227 . S
N207 Co204 2.121 . S
N207 C209 1.375 . S
N207 C210 1.313 . S
C208 C209 1.338 . S
C208 N211 1.377 . S
C208 H228 0.930 . S
C209 N207 1.375 . S
C209 C208 1.338 . S
C209 H213 0.931 . S
C210 N207 1.313 . S
C210 N211 1.344 . S
C210 H214 0.930 . S
N211 C208 1.377 . S
N211 C210 1.344 . S
O212 Co204 2.055 . S
O212 C216 1.253 . S
H213 C209 0.931 . S
H214 C210 0.930 . S
O215 Co204 2.039 . S
O215 C205 1.265 . S
C216 O212 1.253 . S
C216 O217 1.227 . S
O217 C216 1.227 . S
N218 Co204 2.140 . S
N218 C221 1.346 . S
N218 C222 1.345 . S
C219 C220 1.387 . S
C219 C223 1.391 . S
C220 C219 1.387 . S
C220 C221 1.369 . S
C220 H229 0.929 . S
C221 N218 1.346 . S
C221 C220 1.369 . S
C221 H224 0.928 . S
C222 N218 1.345 . S
C222 C223 1.371 . S
C222 H225 0.931 . S
C223 C219 1.391 . S
C223 C222 1.371 . S
C223 H230 0.930 . S
H224 C221 0.928 . S
H225 C222 0.931 . S
H226 C202 0.930 . S
H227 C199 0.930 1_554 S
H228 C208 0.930 . S
H229 C220 0.929 . S
H230 C223 0.930 . S
C231 C232 1.351 . S
C231 N234 1.368 . S
C231 H236 0.931 . S
C232 C231 1.351 . S
C232 N233 1.373 . S
C232 H260 0.930 . S
N233 C232 1.373 . S
N233 C235 1.340 . S
N234 C231 1.368 . S
N234 C235 1.321 . S
N234 Co237 2.135 1_554 S
C235 N233 1.340 . S
C235 N234 1.321 . S
C235 H259 0.930 . S
H236 C231 0.931 . S
Co237 N234 2.135 1_556 S
Co237 N240 2.121 . S
Co237 O245 2.055 . S
Co237 O248 2.039 . S
Co237 N251 2.140 . S
C238 O239 1.227 . S
C238 O248 1.265 1_554 S
O239 C238 1.227 . S
N240 Co237 2.121 . S
N240 C242 1.375 . S
N240 C243 1.313 . S
C241 C242 1.338 . S
C241 N244 1.377 . S
C241 H261 0.930 . S
C242 N240 1.375 . S
C242 C241 1.338 . S
C242 H246 0.931 . S
C243 N240 1.313 . S
C243 N244 1.344 . S
C243 H247 0.930 . S
N244 C241 1.377 . S
N244 C243 1.344 . S
O245 Co237 2.055 . S
O245 C249 1.253 . S
H246 C242 0.931 . S
H247 C243 0.930 . S
O248 Co237 2.039 . S
O248 C238 1.265 1_556 S
C249 O245 1.253 . S
C249 O250 1.227 . S
O250 C249 1.227 . S
N251 Co237 2.140 . S
N251 C254 1.346 1_556 S
N251 C255 1.345 . S
C252 C253 1.387 1_556 S
C252 C256 1.391 . S
C253 C252 1.387 1_554 S
C253 C254 1.369 . S
C253 H262 0.929 . S
C254 N251 1.346 1_554 S
C254 C253 1.369 . S
C254 H257 0.928 . S
C255 N251 1.345 . S
C255 C256 1.371 . S
C255 H258 0.931 . S
C256 C252 1.391 . S
C256 C255 1.371 . S
C256 H263 0.930 . S
H257 C254 0.928 . S
H258 C255 0.931 . S
H259 C235 0.930 . S
H260 C232 0.930 . S
H261 C241 0.930 . S
H262 C253 0.929 . S
H263 C256 0.930 . S
C264 C265 1.351 . S
C264 N267 1.368 . S
C264 H269 0.931 . S
C265 C264 1.351 . S
C265 N266 1.373 . S
C265 H293 0.930 . S
N266 C265 1.373 . S
N266 C268 1.340 . S
N267 C264 1.368 . S
N267 C268 1.321 . S
N267 Co270 2.135 . S
C268 N266 1.340 . S
C268 N267 1.321 . S
C268 H292 0.930 . S
H269 C264 0.931 . S
Co270 N267 2.135 . S
Co270 N273 2.121 . S
Co270 O278 2.055 . S
Co270 O281 2.039 . S
Co270 N284 2.140 . S
C271 O272 1.227 . S
C271 O281 1.265 . S
O272 C271 1.227 . S
N273 Co270 2.121 . S
N273 C275 1.375 1_554 S
N273 C276 1.313 1_554 S
C274 C275 1.338 . S
C274 N277 1.377 . S
C274 H294 0.930 . S
C275 N273 1.375 1_556 S
C275 C274 1.338 . S
C275 H279 0.931 1_556 S
C276 N273 1.313 1_556 S
C276 N277 1.344 . S
C276 H280 0.930 . S
N277 C274 1.377 . S
N277 C276 1.344 . S
O278 Co270 2.055 . S
O278 C282 1.253 . S
H279 C275 0.931 1_554 S
H280 C276 0.930 . S
O281 Co270 2.039 . S
O281 C271 1.265 . S
C282 O278 1.253 . S
C282 O283 1.227 . S
O283 C282 1.227 . S
N284 Co270 2.140 . S
N284 C287 1.346 . S
N284 C288 1.345 . S
C285 C286 1.387 . S
C285 C289 1.391 . S
C286 C285 1.387 . S
C286 C287 1.369 . S
C286 H295 0.929 . S
C287 N284 1.346 . S
C287 C286 1.369 . S
C287 H290 0.928 . S
C288 N284 1.345 . S
C288 C289 1.371 . S
C288 H291 0.931 . S
C289 C285 1.391 . S
C289 C288 1.371 . S
C289 H296 0.930 . S
H290 C287 0.928 . S
H291 C288 0.931 . S
H292 C268 0.930 . S
H293 C265 0.930 . S
H294 C274 0.930 . S
H295 C286 0.929 . S
H296 C289 0.930 . S
C297 C298 1.351 . S
C297 N300 1.368 . S
C297 H302 0.931 . S
C298 C297 1.351 . S
C298 N299 1.373 . S
C298 H326 0.930 . S
N299 C298 1.373 . S
N299 C301 1.340 . S
N300 C297 1.368 . S
N300 C301 1.321 . S
N300 Co303 2.135 . S
C301 N299 1.340 . S
C301 N300 1.321 . S
C301 H325 0.930 . S
H302 C297 0.931 . S
Co303 N300 2.135 . S
Co303 N306 2.121 . S
Co303 O311 2.055 . S
Co303 O314 2.039 . S
Co303 N317 2.140 . S
C304 O305 1.227 . S
C304 O314 1.265 . S
O305 C304 1.227 . S
N306 Co303 2.121 . S
N306 C308 1.375 . S
N306 C309 1.313 . S
C307 C308 1.338 . S
C307 N310 1.377 . S
C307 H327 0.930 . S
C308 N306 1.375 . S
C308 C307 1.338 . S
C308 H312 0.931 . S
C309 N306 1.313 . S
C309 N310 1.344 . S
C309 H313 0.930 . S
N310 C307 1.377 . S
N310 C309 1.344 . S
O311 Co303 2.055 . S
O311 C315 1.253 . S
H312 C308 0.931 . S
H313 C309 0.930 . S
O314 Co303 2.039 . S
O314 C304 1.265 . S
C315 O311 1.253 . S
C315 O316 1.227 . S
O316 C315 1.227 . S
N317 Co303 2.140 . S
N317 C320 1.346 . S
N317 C321 1.345 . S
C318 C319 1.387 . S
C318 C322 1.391 . S
C319 C318 1.387 . S
C319 C320 1.369 . S
C319 H328 0.929 . S
C320 N317 1.346 . S
C320 C319 1.369 . S
C320 H323 0.928 . S
C321 N317 1.345 . S
C321 C322 1.371 . S
C321 H324 0.931 . S
C322 C318 1.391 . S
C322 C321 1.371 . S
C322 H329 0.930 . S
H323 C320 0.928 . S
H324 C321 0.931 . S
H325 C301 0.930 . S
H326 C298 0.930 . S
H327 C307 0.930 . S
H328 C319 0.929 . S
H329 C322 0.930 . S
C330 C331 1.351 . S
C330 N333 1.368 . S
C330 H335 0.931 . S
C331 C330 1.351 . S
C331 N332 1.373 . S
C331 H359 0.930 . S
N332 C331 1.373 . S
N332 C334 1.340 . S
N333 C330 1.368 . S
N333 C334 1.321 . S
N333 Co336 2.135 . S
C334 N332 1.340 . S
C334 N333 1.321 . S
C334 H358 0.930 . S
H335 C330 0.931 . S
Co336 N333 2.135 . S
Co336 N339 2.121 . S
Co336 O344 2.055 . S
Co336 O347 2.039 . S
Co336 N350 2.140 . S
C337 O338 1.227 . S
C337 O347 1.265 . S
O338 C337 1.227 . S
N339 Co336 2.121 . S
N339 C341 1.375 . S
N339 C342 1.313 . S
C340 C341 1.338 . S
C340 N343 1.377 . S
C340 H360 0.930 . S
C341 N339 1.375 . S
C341 C340 1.338 . S
C341 H345 0.931 . S
C342 N339 1.313 . S
C342 N343 1.344 . S
C342 H346 0.930 . S
N343 C340 1.377 . S
N343 C342 1.344 . S
O344 Co336 2.055 . S
O344 C348 1.253 . S
H345 C341 0.931 . S
H346 C342 0.930 . S
O347 Co336 2.039 . S
O347 C337 1.265 . S
C348 O344 1.253 . S
C348 O349 1.227 . S
O349 C348 1.227 . S
N350 Co336 2.140 . S
N350 C353 1.346 . S
N350 C354 1.345 . S
C351 C352 1.387 . S
C351 C355 1.391 . S
C352 C351 1.387 . S
C352 C353 1.369 . S
C352 H361 0.929 . S
C353 N350 1.346 . S
C353 C352 1.369 . S
C353 H356 0.928 . S
C354 N350 1.345 . S
C354 C355 1.371 . S
C354 H357 0.931 . S
C355 C351 1.391 . S
C355 C354 1.371 . S
C355 H362 0.930 . S
H356 C353 0.928 . S
H357 C354 0.931 . S
H358 C334 0.930 . S
H359 C331 0.930 . S
H360 C340 0.930 . S
H361 C352 0.929 . S
H362 C355 0.930 . S
C363 C364 1.351 . S
C363 N366 1.368 . S
C363 H368 0.931 . S
C364 C363 1.351 . S
C364 N365 1.373 . S
C364 H392 0.930 . S
N365 C364 1.373 . S
N365 C367 1.340 . S
N366 C363 1.368 . S
N366 C367 1.321 . S
N366 Co369 2.135 . S
C367 N365 1.340 . S
C367 N366 1.321 . S
C367 H391 0.930 . S
H368 C363 0.931 . S
Co369 N366 2.135 . S
Co369 N372 2.121 . S
Co369 O377 2.055 . S
Co369 O380 2.039 . S
Co369 N383 2.140 . S
C370 O371 1.227 . S
C370 O380 1.265 . S
O371 C370 1.227 . S
N372 Co369 2.121 . S
N372 C374 1.375 . S
N372 C375 1.313 . S
C373 C374 1.338 . S
C373 N376 1.377 . S
C373 H393 0.930 . S
C374 N372 1.375 . S
C374 C373 1.338 . S
C374 H378 0.931 . S
C375 N372 1.313 . S
C375 N376 1.344 . S
C375 H379 0.930 . S
N376 C373 1.377 . S
N376 C375 1.344 . S
O377 Co369 2.055 . S
O377 C381 1.253 . S
H378 C374 0.931 . S
H379 C375 0.930 . S
O380 Co369 2.039 . S
O380 C370 1.265 . S
C381 O377 1.253 . S
C381 O382 1.227 . S
O382 C381 1.227 . S
N383 Co369 2.140 . S
N383 C386 1.346 . S
N383 C387 1.345 . S
C384 C385 1.387 . S
C384 C388 1.391 . S
C385 C384 1.387 . S
C385 C386 1.369 . S
C385 H394 0.929 . S
C386 N383 1.346 . S
C386 C385 1.369 . S
C386 H389 0.928 . S
C387 N383 1.345 . S
C387 C388 1.371 . S
C387 H390 0.931 . S
C388 C384 1.391 . S
C388 C387 1.371 . S
C388 H395 0.930 . S
H389 C386 0.928 . S
H390 C387 0.931 . S
H391 C367 0.930 . S
H392 C364 0.930 . S
H393 C373 0.930 . S
H394 C385 0.929 . S
H395 C388 0.930 . S
H396 C402 0.930 1_556 S
H397 C406 0.930 . S
H398 C411 0.929 . S
H399 C409 0.929 . S
H400 C404 0.929 . S
H401 C410 0.929 1_556 S
C402 H396 0.930 1_554 S
C402 C403 1.367 . S
C402 C410 1.378 . S
C403 C402 1.367 . S
C403 C411 1.433 . S
C404 H400 0.929 . S
C404 C406 1.378 . S
C404 C408 1.350 . S
C405 C408 1.463 . S
C405 C410 1.350 . S
C405 N413 1.427 . S
C406 H397 0.930 . S
C406 C404 1.378 . S
C406 C407 1.367 . S
C407 C406 1.367 . S
C407 C409 1.433 1_554 S
C408 C404 1.350 . S
C408 C405 1.463 . S
C408 N412 1.427 . S
C409 H399 0.929 . S
C409 C407 1.433 1_556 S
C409 N412 1.384 1_556 S
C410 H401 0.929 1_554 S
C410 C402 1.378 . S
C410 C405 1.350 . S
C411 H398 0.929 . S
C411 C403 1.433 . S
C411 N413 1.384 . S
N412 C408 1.427 . S
N412 C409 1.384 1_554 S
N413 C405 1.427 . S
N413 C411 1.384 . S
H414 C420 0.930 . S
H415 C424 0.930 . S
H416 C429 0.929 . S
H417 C427 0.929 . S
H418 C422 0.929 . S
H419 C428 0.929 . S
C420 H414 0.930 . S
C420 C421 1.367 . S
C420 C428 1.378 . S
C421 C420 1.367 . S
C421 C429 1.433 . S
C422 H418 0.929 . S
C422 C424 1.378 . S
C422 C426 1.350 . S
C423 C426 1.463 . S
C423 C428 1.350 . S
C423 N431 1.427 . S
C424 H415 0.930 . S
C424 C422 1.378 . S
C424 C425 1.367 . S
C425 C424 1.367 . S
C425 C427 1.433 . S
C426 C422 1.350 . S
C426 C423 1.463 . S
C426 N430 1.427 . S
C427 H417 0.929 . S
C427 C425 1.433 . S
C427 N430 1.384 . S
C428 H419 0.929 . S
C428 C420 1.378 . S
C428 C423 1.350 . S
C429 H416 0.929 . S
C429 C421 1.433 . S
C429 N431 1.384 . S
N430 C426 1.427 . S
N430 C427 1.384 . S
N431 C423 1.427 . S
N431 C429 1.384 . S
H432 C438 0.930 . S
H433 C442 0.930 . S
H434 C447 0.929 . S
H435 C445 0.929 . S
H436 C440 0.929 . S
H437 C446 0.929 . S
C438 H432 0.930 . S
C438 C439 1.367 . S
C438 C446 1.378 . S
C439 C438 1.367 . S
C439 C447 1.433 . S
C440 H436 0.929 . S
C440 C442 1.378 . S
C440 C444 1.350 . S
C441 C444 1.463 . S
C441 C446 1.350 . S
C441 N449 1.427 . S
C442 H433 0.930 . S
C442 C440 1.378 . S
C442 C443 1.367 . S
C443 C442 1.367 . S
C443 C445 1.433 . S
C444 C440 1.350 . S
C444 C441 1.463 . S
C444 N448 1.427 . S
C445 H435 0.929 . S
C445 C443 1.433 . S
C445 N448 1.384 . S
C446 H437 0.929 . S
C446 C438 1.378 . S
C446 C441 1.350 . S
C447 H434 0.929 . S
C447 C439 1.433 . S
C447 N449 1.384 . S
N448 C444 1.427 . S
N448 C445 1.384 . S
N449 C441 1.427 . S
N449 C447 1.384 . S
H450 C456 0.930 . S
H451 C460 0.930 . S
H452 C465 0.929 . S
H453 C463 0.929 . S
H454 C458 0.929 . S
H455 C464 0.929 . S
C456 H450 0.930 . S
C456 C457 1.367 . S
C456 C464 1.378 . S
C457 C456 1.367 . S
C457 C465 1.433 . S
C458 H454 0.929 . S
C458 C460 1.378 . S
C458 C462 1.350 . S
C459 C462 1.463 . S
C459 C464 1.350 . S
C459 N467 1.427 . S
C460 H451 0.930 . S
C460 C458 1.378 . S
C460 C461 1.367 . S
C461 C460 1.367 . S
C461 C463 1.433 . S
C462 C458 1.350 . S
C462 C459 1.463 . S
C462 N466 1.427 . S
C463 H453 0.929 . S
C463 C461 1.433 . S
C463 N466 1.384 . S
C464 H455 0.929 . S
C464 C456 1.378 . S
C464 C459 1.350 . S
C465 H452 0.929 . S
C465 C457 1.433 . S
C465 N467 1.384 . S
N466 C462 1.427 . S
N466 C463 1.384 . S
N467 C459 1.427 . S
N467 C465 1.384 . S
H468 C474 0.930 . S
H469 C478 0.930 . S
H470 C483 0.929 . S
H471 C481 0.929 . S
H472 C476 0.929 . S
H473 C482 0.929 . S
C474 H468 0.930 . S
C474 C475 1.367 . S
C474 C482 1.378 . S
C475 C474 1.367 . S
C475 C483 1.433 . S
C476 H472 0.929 . S
C476 C478 1.378 . S
C476 C480 1.350 . S
C477 C480 1.463 . S
C477 C482 1.350 . S
C477 N485 1.427 . S
C478 H469 0.930 . S
C478 C476 1.378 . S
C478 C479 1.367 . S
C479 C478 1.367 . S
C479 C481 1.433 . S
C480 C476 1.350 . S
C480 C477 1.463 . S
C480 N484 1.427 . S
C481 H471 0.929 . S
C481 C479 1.433 . S
C481 N484 1.384 . S
C482 H473 0.929 . S
C482 C474 1.378 . S
C482 C477 1.350 . S
C483 H470 0.929 . S
C483 C475 1.433 . S
C483 N485 1.384 . S
N484 C480 1.427 . S
N484 C481 1.384 . S
N485 C477 1.427 . S
N485 C483 1.384 . S
H486 C492 0.930 . S
H487 C496 0.927 1_554 S
H488 C501 0.929 1_554 S
H489 C499 0.929 . S
H490 C494 0.929 1_554 S
H491 C500 0.929 . S
C492 H486 0.930 . S
C492 C493 1.367 . S
C492 C500 1.378 . S
C493 C492 1.367 . S
C493 C501 1.433 . S
C494 H490 0.929 1_556 S
C494 C496 1.378 . S
C494 C498 1.350 . S
C495 C498 1.463 . S
C495 C500 1.350 . S
C495 N503 1.427 . S
C496 H487 0.927 1_556 S
C496 C494 1.378 . S
C496 C497 1.367 . S
C497 C496 1.367 . S
C497 C499 1.433 . S
C498 C494 1.350 . S
C498 C495 1.463 . S
C498 N502 1.427 . S
C499 H489 0.929 . S
C499 C497 1.433 . S
C499 N502 1.384 . S
C500 H491 0.929 . S
C500 C492 1.378 . S
C500 C495 1.350 . S
C501 H488 0.929 1_556 S
C501 C493 1.433 . S
C501 N503 1.384 . S
N502 C498 1.427 . S
N502 C499 1.384 . S
N503 C495 1.427 . S
N503 C501 1.384 . S
H504 C510 0.930 . S
H505 C514 0.930 . S
H506 C519 0.929 1_554 S
H507 C517 0.929 . S
H508 C512 0.929 . S
H509 C518 0.929 . S
C510 H504 0.930 . S
C510 C511 1.367 . S
C510 C518 1.378 . S
C511 C510 1.367 . S
C511 C519 1.433 . S
C512 H508 0.929 . S
C512 C514 1.378 . S
C512 C516 1.350 . S
C513 C516 1.463 1_455 S
C513 C518 1.350 . S
C513 N521 1.427 . S
C514 H505 0.930 . S
C514 C512 1.378 . S
C514 C515 1.367 . S
C515 C514 1.367 . S
C515 C517 1.433 . S
C516 C512 1.350 . S
C516 C513 1.463 1_655 S
C516 N520 1.427 . S
C517 H507 0.929 . S
C517 C515 1.433 . S
C517 N520 1.384 . S
C518 H509 0.929 . S
C518 C510 1.378 . S
C518 C513 1.350 . S
C519 H506 0.929 1_556 S
C519 C511 1.433 . S
C519 N521 1.384 . S
N520 C516 1.427 . S
N520 C517 1.384 . S
N521 C513 1.427 . S
N521 C519 1.384 . S
H522 C528 0.930 . S
H523 C532 0.930 . S
H524 C537 0.929 . S
H525 C535 0.929 . S
H526 C530 0.929 1_565 S
H527 C536 0.929 1_545 S
C528 H522 0.930 . S
C528 C529 1.367 . S
C528 C536 1.378 . S
C529 C528 1.367 . S
C529 C537 1.433 . S
C530 H526 0.929 1_545 S
C530 C532 1.378 . S
C530 C534 1.350 . S
C531 C534 1.463 1_566 S
C531 C536 1.350 . S
C531 N539 1.423 1_556 S
C532 H523 0.930 . S
C532 C530 1.378 . S
C532 C533 1.367 . S
C533 C532 1.367 . S
C533 C535 1.433 . S
C534 C530 1.350 . S
C534 C531 1.463 1_544 S
C534 N538 1.427 . S
C535 H525 0.929 . S
C535 C533 1.433 . S
C535 N538 1.384 . S
C536 H527 0.929 1_565 S
C536 C528 1.378 . S
C536 C531 1.350 . S
C537 H524 0.929 . S
C537 C529 1.433 . S
C537 N539 1.374 1_556 S
N538 C534 1.427 . S
N538 C535 1.384 . S
N539 C531 1.423 1_554 S
N539 C537 1.374 1_554 S
H540 C546 0.930 . S
H541 C550 0.930 . S
H542 C555 0.929 . S
H543 C553 0.929 . S
H544 C548 0.929 . S
H545 C554 0.929 . S
C546 H540 0.930 . S
C546 C547 1.367 . S
C546 C554 1.378 . S
C547 C546 1.367 . S
C547 C555 1.433 . S
C548 H544 0.929 . S
C548 C550 1.378 . S
C548 C552 1.350 . S
C549 C552 1.463 . S
C549 C554 1.350 . S
C549 N557 1.427 . S
C550 H541 0.930 . S
C550 C548 1.378 . S
C550 C551 1.367 . S
C551 C550 1.367 . S
C551 C553 1.433 . S
C552 C548 1.350 . S
C552 C549 1.463 . S
C552 N556 1.427 . S
C553 H543 0.929 . S
C553 C551 1.433 . S
C553 N556 1.384 . S
C554 H545 0.929 . S
C554 C546 1.378 . S
C554 C549 1.350 . S
C555 H542 0.929 . S
C555 C547 1.433 . S
C555 N557 1.384 . S
N556 C552 1.427 . S
N556 C553 1.384 . S
N557 C549 1.427 . S
N557 C555 1.384 . S
H558 C564 0.930 . S
H559 C568 0.930 . S
H560 C573 0.929 . S
H561 C571 0.929 . S
H562 C566 0.929 1_655 S
H563 C572 0.929 1_455 S
C564 H558 0.930 . S
C564 C565 1.367 . S
C564 C572 1.378 . S
C565 C564 1.367 . S
C565 C573 1.433 . S
C566 H562 0.929 1_455 S
C566 C568 1.378 . S
C566 C570 1.350 . S
C567 C570 1.463 1_655 S
C567 C572 1.350 . S
C567 N575 1.427 . S
C568 H559 0.930 . S
C568 C566 1.378 . S
C568 C569 1.367 . S
C569 C568 1.367 . S
C569 C571 1.433 . S
C570 C566 1.350 . S
C570 C567 1.463 1_455 S
C570 N574 1.427 . S
C571 H561 0.929 . S
C571 C569 1.433 . S
C571 N574 1.384 . S
C572 H563 0.929 1_655 S
C572 C564 1.378 . S
C572 C567 1.350 . S
C573 H560 0.929 . S
C573 C565 1.433 . S
C573 N575 1.384 . S
N574 C570 1.427 . S
N574 C571 1.384 . S
N575 C567 1.427 . S
N575 C573 1.384 . S
H576 C582 0.930 . S
H577 C586 0.930 . S
H578 C591 0.929 . S
H579 C589 0.929 . S
H580 C584 0.929 . S
H581 C590 0.929 . S
C582 H576 0.930 . S
C582 C583 1.367 . S
C582 C590 1.378 . S
C583 C582 1.367 . S
C583 C591 1.433 . S
C584 H580 0.929 . S
C584 C586 1.378 . S
C584 C588 1.350 . S
C585 C588 1.463 1_545 S
C585 C590 1.350 . S
C585 N593 1.427 . S
C586 H577 0.930 . S
C586 C584 1.378 . S
C586 C587 1.367 . S
C587 C586 1.367 . S
C587 C589 1.433 . S
C588 C584 1.350 . S
C588 C585 1.463 1_565 S
C588 N592 1.427 . S
C589 H579 0.929 . S
C589 C587 1.433 . S
C589 N592 1.384 . S
C590 H581 0.929 . S
C590 C582 1.378 . S
C590 C585 1.350 . S
C591 H578 0.929 . S
C591 C583 1.433 . S
C591 N593 1.384 . S
N592 C588 1.427 . S
N592 C589 1.384 . S
N593 C585 1.427 . S
N593 C591 1.384 . S
H594 C600 0.930 . S
H595 C604 0.930 . S
H596 C609 0.929 . S
H597 C607 0.929 . S
H598 C602 0.929 . S
H599 C608 0.929 . S
C600 H594 0.930 . S
C600 C601 1.367 . S
C600 C608 1.378 . S
C601 C600 1.367 . S
C601 C609 1.433 . S
C602 H598 0.929 . S
C602 C604 1.378 . S
C602 C606 1.350 . S
C603 C606 1.463 . S
C603 C608 1.350 . S
C603 N611 1.427 . S
C604 H595 0.930 . S
C604 C602 1.378 . S
C604 C605 1.367 . S
C605 C604 1.367 . S
C605 C607 1.433 . S
C606 C602 1.350 . S
C606 C603 1.463 . S
C606 N610 1.427 . S
C607 H597 0.929 . S
C607 C605 1.433 . S
C607 N610 1.384 . S
C608 H599 0.929 . S
C608 C600 1.378 . S
C608 C603 1.350 . S
C609 H596 0.929 . S
C609 C601 1.433 . S
C609 N611 1.384 . S
N610 C606 1.427 . S
N610 C607 1.384 . S
N611 C603 1.427 . S
N611 C609 1.384 . S
H612 C618 0.930 . S
H613 C622 0.930 . S
H614 C627 0.929 . S
H615 C625 0.929 . S
H616 C620 0.929 . S
H617 C626 0.929 . S
C618 H612 0.930 . S
C618 C619 1.367 . S
C618 C626 1.378 . S
C619 C618 1.367 . S
C619 C627 1.433 . S
C620 H616 0.929 . S
C620 C622 1.378 . S
C620 C624 1.350 . S
C621 C624 1.463 . S
C621 C626 1.350 . S
C621 N629 1.427 . S
C622 H613 0.930 . S
C622 C620 1.378 . S
C622 C623 1.367 . S
C623 C622 1.367 . S
C623 C625 1.433 . S
C624 C620 1.350 . S
C624 C621 1.463 . S
C624 N628 1.427 . S
C625 H615 0.929 . S
C625 C623 1.433 . S
C625 N628 1.384 . S
C626 H617 0.929 . S
C626 C618 1.378 . S
C626 C621 1.350 . S
C627 H614 0.929 . S
C627 C619 1.433 . S
C627 N629 1.384 . S
N628 C624 1.427 . S
N628 C625 1.384 . S
N629 C621 1.427 . S
N629 C627 1.384 . S
H630 C636 0.930 . S
H631 C640 0.930 . S
H632 C645 0.929 . S
H633 C643 0.929 . S
H634 C638 0.929 . S
H635 C644 0.929 . S
C636 H630 0.930 . S
C636 C637 1.367 . S
C636 C644 1.378 . S
C637 C636 1.367 . S
C637 C645 1.433 . S
C638 H634 0.929 . S
C638 C640 1.378 . S
C638 C642 1.350 . S
C639 C642 1.463 . S
C639 C644 1.350 . S
C639 N647 1.427 . S
C640 H631 0.930 . S
C640 C638 1.378 . S
C640 C641 1.367 . S
C641 C640 1.367 . S
C641 C643 1.433 . S
C642 C638 1.350 . S
C642 C639 1.463 . S
C642 N646 1.427 . S
C643 H633 0.929 . S
C643 C641 1.433 . S
C643 N646 1.384 . S
C644 H635 0.929 . S
C644 C636 1.378 . S
C644 C639 1.350 . S
C645 H632 0.929 . S
C645 C637 1.433 . S
C645 N647 1.384 . S
N646 C642 1.427 . S
N646 C643 1.384 . S
N647 C639 1.427 . S
N647 C645 1.384 . S
H648 C654 0.930 . S
H649 C658 0.930 . S
H650 C663 0.929 . S
H651 C661 0.929 . S
H652 C656 0.929 . S
H653 C662 0.929 . S
C654 H648 0.930 . S
C654 C655 1.367 . S
C654 C662 1.378 . S
C655 C654 1.367 . S
C655 C663 1.433 . S
C656 H652 0.929 . S
C656 C658 1.378 . S
C656 C660 1.350 . S
C657 C660 1.463 . S
C657 C662 1.350 . S
C657 N665 1.427 . S
C658 H649 0.930 . S
C658 C656 1.378 . S
C658 C659 1.367 . S
C659 C658 1.367 . S
C659 C661 1.433 . S
C660 C656 1.350 . S
C660 C657 1.463 . S
C660 N664 1.427 . S
C661 H651 0.929 . S
C661 C659 1.433 . S
C661 N664 1.384 . S
C662 H653 0.929 . S
C662 C654 1.378 . S
C662 C657 1.350 . S
C663 H650 0.929 . S
C663 C655 1.433 . S
C663 N665 1.384 . S
N664 C660 1.427 . S
N664 C661 1.384 . S
N665 C657 1.427 . S
N665 C663 1.384 . S
H666 C672 0.930 . S
H667 C676 0.930 . S
H668 C681 0.929 . S
H669 C679 0.929 . S
H670 C674 0.929 . S
H671 C680 0.929 . S
C672 H666 0.930 . S
C672 C673 1.367 . S
C672 C680 1.378 . S
C673 C672 1.367 . S
C673 C681 1.433 . S
C674 H670 0.929 . S
C674 C676 1.378 . S
C674 C678 1.350 . S
C675 C678 1.463 . S
C675 C680 1.350 . S
C675 N683 1.427 . S
C676 H667 0.930 . S
C676 C674 1.378 . S
C676 C677 1.367 . S
C677 C676 1.367 . S
C677 C679 1.433 . S
C678 C674 1.350 . S
C678 C675 1.463 . S
C678 N682 1.427 . S
C679 H669 0.929 . S
C679 C677 1.433 . S
C679 N682 1.384 . S
C680 H671 0.929 . S
C680 C672 1.378 . S
C680 C675 1.350 . S
C681 H668 0.929 . S
C681 C673 1.433 . S
C681 N683 1.384 . S
N682 C678 1.427 . S
N682 C679 1.384 . S
N683 C675 1.427 . S
N683 C681 1.384 . S
H684 C690 0.930 . S
H685 C694 0.930 . S
H686 C699 0.929 . S
H687 C697 0.929 . S
H688 C692 0.929 . S
H689 C698 0.929 . S
C690 H684 0.930 . S
C690 C691 1.367 . S
C690 C698 1.378 . S
C691 C690 1.367 . S
C691 C699 1.433 . S
C692 H688 0.929 . S
C692 C694 1.378 . S
C692 C696 1.350 1_554 S
C693 C696 1.463 . S
C693 C698 1.350 . S
C693 N701 1.427 . S
C694 H685 0.930 . S
C694 C692 1.378 . S
C694 C695 1.367 . S
C695 C694 1.367 . S
C695 C697 1.433 1_554 S
C696 C692 1.350 1_556 S
C696 C693 1.463 . S
C696 N700 1.427 . S
C697 H687 0.929 . S
C697 C695 1.433 1_556 S
C697 N700 1.384 . S
C698 H689 0.929 . S
C698 C690 1.378 . S
C698 C693 1.350 . S
C699 H686 0.929 . S
C699 C691 1.433 . S
C699 N701 1.384 . S
N700 C696 1.427 . S
N700 C697 1.384 . S
N701 C693 1.427 . S
N701 C699 1.384 . S
H702 C708 0.930 . S
H703 C712 0.930 . S
H704 C717 0.929 . S
H705 C715 0.929 . S
H706 C710 0.929 . S
H707 C716 0.929 . S
C708 H702 0.930 . S
C708 C709 1.367 . S
C708 C716 1.378 . S
C709 C708 1.367 . S
C709 C717 1.433 . S
C710 H706 0.929 . S
C710 C712 1.378 . S
C710 C714 1.350 . S
C711 C714 1.463 . S
C711 C716 1.350 . S
C711 N719 1.427 . S
C712 H703 0.930 . S
C712 C710 1.378 . S
C712 C713 1.367 1_554 S
C713 C712 1.367 1_556 S
C713 C715 1.433 . S
C714 C710 1.350 . S
C714 C711 1.463 . S
C714 N718 1.427 . S
C715 H705 0.929 . S
C715 C713 1.433 . S
C715 N718 1.384 1_556 S
C716 H707 0.929 . S
C716 C708 1.378 . S
C716 C711 1.350 . S
C717 H704 0.929 . S
C717 C709 1.433 . S
C717 N719 1.384 . S
N718 C714 1.427 . S
N718 C715 1.384 1_554 S
N719 C711 1.427 . S
N719 C717 1.384 . S
H720 C726 0.930 . S
H721 C730 0.930 . S
H722 C735 0.929 . S
H723 C733 0.929 . S
H724 C728 0.929 . S
H725 C734 0.929 . S
C726 H720 0.930 . S
C726 C727 1.367 . S
C726 C734 1.378 . S
C727 C726 1.367 . S
C727 C735 1.433 . S
C728 H724 0.929 . S
C728 C730 1.378 . S
C728 C732 1.350 . S
C729 C732 1.463 . S
C729 C734 1.350 . S
C729 N737 1.427 . S
C730 H721 0.930 . S
C730 C728 1.378 . S
C730 C731 1.367 . S
C731 C730 1.367 . S
C731 C733 1.433 . S
C732 C728 1.350 . S
C732 C729 1.463 . S
C732 N736 1.427 . S
C733 H723 0.929 . S
C733 C731 1.433 . S
C733 N736 1.384 . S
C734 H725 0.929 . S
C734 C726 1.378 . S
C734 C729 1.350 . S
C735 H722 0.929 . S
C735 C727 1.433 . S
C735 N737 1.384 . S
N736 C732 1.427 . S
N736 C733 1.384 . S
N737 C729 1.427 . S
N737 C735 1.384 . S
H738 C744 0.930 . S
H739 C748 0.930 . S
H740 C753 0.929 . S
H741 C751 0.929 . S
H742 C746 0.929 . S
H743 C752 0.929 . S
C744 H738 0.930 . S
C744 C745 1.367 . S
C744 C752 1.378 . S
C745 C744 1.367 . S
C745 C753 1.433 . S
C746 H742 0.929 . S
C746 C748 1.378 . S
C746 C750 1.350 . S
C747 C750 1.463 . S
C747 C752 1.350 . S
C747 N755 1.427 . S
C748 H739 0.930 . S
C748 C746 1.378 . S
C748 C749 1.367 . S
C749 C748 1.367 . S
C749 C751 1.433 . S
C750 C746 1.350 . S
C750 C747 1.463 . S
C750 N754 1.427 . S
C751 H741 0.929 . S
C751 C749 1.433 . S
C751 N754 1.384 . S
C752 H743 0.929 . S
C752 C744 1.378 . S
C752 C747 1.350 . S
C753 H740 0.929 . S
C753 C745 1.433 . S
C753 N755 1.384 . S
N754 C750 1.427 . S
N754 C751 1.384 . S
N755 C747 1.427 . S
N755 C753 1.384 . S
H756 C762 0.930 . S
H757 C766 0.930 . S
H758 C771 0.929 . S
H759 C769 0.929 . S
H760 C764 0.929 . S
H761 C770 0.929 . S
C762 H756 0.930 . S
C762 C763 1.367 . S
C762 C770 1.378 . S
C763 C762 1.367 . S
C763 C771 1.433 . S
C764 H760 0.929 . S
C764 C766 1.378 1_556 S
C764 C768 1.350 . S
C765 C768 1.463 . S
C765 C770 1.350 . S
C765 N773 1.427 . S
C766 H757 0.930 . S
C766 C764 1.378 1_554 S
C766 C767 1.367 . S
C767 C766 1.367 . S
C767 C769 1.433 . S
C768 C764 1.350 . S
C768 C765 1.463 . S
C768 N772 1.427 . S
C769 H759 0.929 . S
C769 C767 1.433 . S
C769 N772 1.384 1_554 S
C770 H761 0.929 . S
C770 C762 1.378 . S
C770 C765 1.350 . S
C771 H758 0.929 . S
C771 C763 1.433 . S
C771 N773 1.384 . S
N772 C768 1.427 . S
N772 C769 1.384 1_556 S
N773 C765 1.427 . S
N773 C771 1.384 . S
H774 C780 0.930 . S
H775 C784 0.930 . S
H776 C789 0.929 . S
H777 C787 0.929 . S
H778 C782 0.929 . S
H779 C788 0.929 1_554 S
C780 H774 0.930 . S
C780 C781 1.367 . S
C780 C788 1.378 . S
C781 C780 1.367 . S
C781 C789 1.433 . S
C782 H778 0.929 . S
C782 C784 1.378 . S
C782 C786 1.350 . S
C783 C786 1.463 . S
C783 C788 1.350 1_554 S
C783 N791 1.427 1_554 S
C784 H775 0.930 . S
C784 C782 1.378 . S
C784 C785 1.367 . S
C785 C784 1.367 . S
C785 C787 1.433 . S
C786 C782 1.350 . S
C786 C783 1.463 . S
C786 N790 1.427 . S
C787 H777 0.929 . S
C787 C785 1.433 . S
C787 N790 1.384 . S
C788 H779 0.929 1_556 S
C788 C780 1.378 . S
C788 C783 1.350 1_556 S
C789 H776 0.929 . S
C789 C781 1.433 . S
C789 N791 1.384 . S
N790 C786 1.427 . S
N790 C787 1.384 . S
N791 C783 1.427 1_556 S
N791 C789 1.384 . S
H792 C798 0.930 . S
H793 C802 0.930 . S
H794 C807 0.929 . S
H795 C805 0.929 . S
H796 C800 0.929 . S
H797 C806 0.929 . S
C798 H792 0.930 . S
C798 C799 1.367 . S
C798 C806 1.378 . S
C799 C798 1.367 . S
C799 C807 1.433 . S
C800 H796 0.929 . S
C800 C802 1.378 . S
C800 C804 1.350 . S
C801 C804 1.463 . S
C801 C806 1.350 . S
C801 N809 1.427 . S
C802 H793 0.930 . S
C802 C800 1.378 . S
C802 C803 1.367 . S
C803 C802 1.367 . S
C803 C805 1.433 . S
C804 C800 1.350 . S
C804 C801 1.463 . S
C804 N808 1.427 . S
C805 H795 0.929 . S
C805 C803 1.433 . S
C805 N808 1.384 . S
C806 H797 0.929 . S
C806 C798 1.378 . S
C806 C801 1.350 . S
C807 H794 0.929 . S
C807 C799 1.433 . S
C807 N809 1.384 . S
N808 C804 1.427 . S
N808 C805 1.384 . S
N809 C801 1.427 . S
N809 C807 1.384 . S
H810 C816 0.930 . S
H811 C820 0.930 . S
H812 C825 0.929 . S
H813 C823 0.929 . S
H814 C818 0.929 . S
H815 C824 0.929 . S
C816 H810 0.930 . S
C816 C817 1.367 . S
C816 C824 1.378 . S
C817 C816 1.367 . S
C817 C825 1.433 . S
C818 H814 0.929 . S
C818 C820 1.378 . S
C818 C822 1.350 . S
C819 C822 1.463 . S
C819 C824 1.350 . S
C819 N827 1.427 . S
C820 H811 0.930 . S
C820 C818 1.378 . S
C820 C821 1.367 . S
C821 C820 1.367 . S
C821 C823 1.433 . S
C822 C818 1.350 . S
C822 C819 1.463 . S
C822 N826 1.427 . S
C823 H813 0.929 . S
C823 C821 1.433 . S
C823 N826 1.384 . S
C824 H815 0.929 . S
C824 C816 1.378 . S
C824 C819 1.350 . S
C825 H812 0.929 . S
C825 C817 1.433 . S
C825 N827 1.384 . S
N826 C822 1.427 . S
N826 C823 1.384 . S
N827 C819 1.427 . S
N827 C825 1.384 . S
H828 C834 0.930 . S
H829 C838 0.930 . S
H830 C843 0.929 . S
H831 C841 0.929 . S
H832 C836 0.929 . S
H833 C842 0.929 . S
C834 H828 0.930 . S
C834 C835 1.367 . S
C834 C842 1.378 . S
C835 C834 1.367 . S
C835 C843 1.433 . S
C836 H832 0.929 . S
C836 C838 1.378 . S
C836 C840 1.350 . S
C837 C840 1.463 . S
C837 C842 1.350 . S
C837 N845 1.427 . S
C838 H829 0.930 . S
C838 C836 1.378 . S
C838 C839 1.367 . S
C839 C838 1.367 . S
C839 C841 1.433 . S
C840 C836 1.350 . S
C840 C837 1.463 . S
C840 N844 1.427 . S
C841 H831 0.929 . S
C841 C839 1.433 . S
C841 N844 1.384 . S
C842 H833 0.929 . S
C842 C834 1.378 . S
C842 C837 1.350 . S
C843 H830 0.929 . S
C843 C835 1.433 . S
C843 N845 1.384 . S
N844 C840 1.427 . S
N844 C841 1.384 . S
N845 C837 1.427 . S
N845 C843 1.384 . S
H846 C852 0.930 . S
H847 C856 0.930 . S
H848 C861 0.929 . S
H849 C859 0.929 . S
H850 C854 0.929 . S
H851 C860 0.929 . S
C852 H846 0.930 . S
C852 C853 1.367 . S
C852 C860 1.378 . S
C853 C852 1.367 . S
C853 C861 1.433 . S
C854 H850 0.929 . S
C854 C856 1.378 . S
C854 C858 1.350 . S
C855 C858 1.463 . S
C855 C860 1.350 . S
C855 N863 1.427 . S
C856 H847 0.930 . S
C856 C854 1.378 . S
C856 C857 1.367 . S
C857 C856 1.367 . S
C857 C859 1.433 . S
C858 C854 1.350 . S
C858 C855 1.463 . S
C858 N862 1.427 . S
C859 H849 0.929 . S
C859 C857 1.433 . S
C859 N862 1.384 . S
C860 H851 0.929 . S
C860 C852 1.378 . S
C860 C855 1.350 . S
C861 H848 0.929 . S
C861 C853 1.433 . S
C861 N863 1.384 . S
N862 C858 1.427 . S
N862 C859 1.384 . S
N863 C855 1.427 . S
N863 C861 1.384 . S
H864 C870 0.930 . S
H865 C874 0.930 . S
H866 C879 0.929 . S
H867 C877 0.929 . S
H868 C872 0.929 . S
H869 C878 0.929 . S
C870 H864 0.930 . S
C870 C871 1.367 . S
C870 C878 1.378 . S
C871 C870 1.367 . S
C871 C879 1.433 . S
C872 H868 0.929 . S
C872 C874 1.378 . S
C872 C876 1.350 . S
C873 C876 1.463 . S
C873 C878 1.350 . S
C873 N881 1.427 . S
C874 H865 0.930 . S
C874 C872 1.378 . S
C874 C875 1.367 . S
C875 C874 1.367 . S
C875 C877 1.433 . S
C876 C872 1.350 . S
C876 C873 1.463 . S
C876 N880 1.427 . S
C877 H867 0.929 . S
C877 C875 1.433 . S
C877 N880 1.384 . S
C878 H869 0.929 . S
C878 C870 1.378 . S
C878 C873 1.350 . S
C879 H866 0.929 . S
C879 C871 1.433 . S
C879 N881 1.384 . S
N880 C876 1.427 . S
N880 C877 1.384 . S
N881 C873 1.427 . S
N881 C879 1.384 . S
H882 C888 0.930 . S
H883 C892 0.930 . S
H884 C897 0.929 . S
H885 C895 0.929 . S
H886 C890 0.929 . S
H887 C896 0.929 . S
C888 H882 0.930 . S
C888 C889 1.367 . S
C888 C896 1.378 . S
C889 C888 1.367 . S
C889 C897 1.433 . S
C890 H886 0.929 . S
C890 C892 1.378 . S
C890 C894 1.350 . S
C891 C894 1.463 . S
C891 C896 1.350 . S
C891 N899 1.427 . S
C892 H883 0.930 . S
C892 C890 1.378 . S
C892 C893 1.367 . S
C893 C892 1.367 . S
C893 C895 1.433 . S
C894 C890 1.350 . S
C894 C891 1.463 . S
C894 N898 1.427 . S
C895 H885 0.929 . S
C895 C893 1.433 . S
C895 N898 1.384 . S
C896 H887 0.929 . S
C896 C888 1.378 . S
C896 C891 1.350 . S
C897 H884 0.929 . S
C897 C889 1.433 . S
C897 N899 1.384 . S
N898 C894 1.427 . S
N898 C895 1.384 . S
N899 C891 1.427 . S
N899 C897 1.384 . S
H900 C906 0.930 . S
H901 C910 0.930 . S
H902 C915 0.929 . S
H903 C913 0.929 . S
H904 C908 0.929 . S
H905 C914 0.929 . S
C906 H900 0.930 . S
C906 C907 1.367 . S
C906 C914 1.378 . S
C907 C906 1.367 . S
C907 C915 1.433 . S
C908 H904 0.929 . S
C908 C910 1.378 . S
C908 C912 1.350 1_554 S
C909 C912 1.463 . S
C909 C914 1.350 . S
C909 N917 1.427 . S
C910 H901 0.930 . S
C910 C908 1.378 . S
C910 C911 1.367 . S
C911 C910 1.367 . S
C911 C913 1.433 . S
C912 C908 1.350 1_556 S
C912 C909 1.463 . S
C912 N916 1.427 1_556 S
C913 H903 0.929 . S
C913 C911 1.433 . S
C913 N916 1.384 . S
C914 H905 0.929 . S
C914 C906 1.378 . S
C914 C909 1.350 . S
C915 H902 0.929 . S
C915 C907 1.433 . S
C915 N917 1.384 . S
N916 C912 1.427 1_554 S
N916 C913 1.384 . S
N917 C909 1.427 . S
N917 C915 1.384 . S
H918 C924 0.930 . S
H919 C928 0.930 . S
H920 C933 0.929 . S
H921 C931 0.929 . S
H922 C926 0.929 . S
H923 C932 0.929 . S
C924 H918 0.930 . S
C924 C925 1.367 . S
C924 C932 1.378 . S
C925 C924 1.367 . S
C925 C933 1.433 . S
C926 H922 0.929 . S
C926 C928 1.378 1_554 S
C926 C930 1.350 . S
C927 C930 1.463 . S
C927 C932 1.350 . S
C927 N935 1.427 . S
C928 H919 0.930 . S
C928 C926 1.378 1_556 S
C928 C929 1.367 . S
C929 C928 1.367 . S
C929 C931 1.433 . S
C930 C926 1.350 . S
C930 C927 1.463 . S
C930 N934 1.427 . S
C931 H921 0.929 . S
C931 C929 1.433 . S
C931 N934 1.384 1_556 S
C932 H923 0.929 . S
C932 C924 1.378 . S
C932 C927 1.350 . S
C933 H920 0.929 . S
C933 C925 1.433 . S
C933 N935 1.384 . S
N934 C930 1.427 . S
N934 C931 1.384 1_554 S
N935 C927 1.427 . S
N935 C933 1.384 . S
C403 C285 1.616 . S
C407 C21 1.616 . S
C421 C318 1.619 . S
C425 C54 1.616 . S
C439 C351 1.616 . S
C443 C87 1.616 . S
C457 C384 1.618 . S
C461 C120 1.616 . S
C475 C153 1.616 . S
C479 C219 1.618 . S
C493 C252 1.615 . S
C497 C186 1.617 . S
C511 C7 1.247 . S
C515 C370 1.249 . S
C529 C205 1.262 . S
C533 C40 1.266 . S
C547 C73 1.259 . S
C551 C238 1.246 . S
C565 C106 1.266 . S
C569 C271 1.262 . S
C583 C304 1.265 . S
C587 C139 1.251 . S
C601 C172 1.249 . S
C605 C337 1.248 . S
C619 C18 1.367 . S
C623 C348 1.371 . S
C637 C51 1.373 . S
C641 C381 1.377 . S
C655 C216 1.371 . S
C659 C84 1.367 . S
C673 C249 1.367 . S
C677 C117 1.368 . S
C691 C150 1.375 . S
C695 C282 1.378 . S
C709 C315 1.372 . S
C713 C183 1.367 . S
C727 N13 1.010 . S
C731 N2 1.009 . S
C745 N35 1.010 . S
C749 N46 1.011 . S
C763 N79 1.017 . S
C767 N68 1.017 . S
C781 N112 1.009 . S
C785 N101 1.009 . S
C799 N134 1.016 . S
C803 N145 1.017 1_554 S
C817 N167 1.016 . S
C821 N178 1.017 . S
C835 N200 1.011 . S
C839 N211 1.012 . S
C853 N233 1.015 . S
C857 N244 1.016 . S
C871 N266 1.017 . S
C875 N277 1.018 . S
C889 N299 1.012 . S
C893 N310 1.013 1_556 S
C907 N332 1.012 . S
C911 N343 1.012 . S
C925 N376 1.010 . S
C929 N365 1.009 . S
