# Generated by pormake.
# Topology crs, (6)-cn, num edge types: 1
# Building blocks:
#     Node 0, Type 0, BuildingBlock: BETDAH_clean_sbu_0, # of connection points: 6
#     Node 1, Type 0, BuildingBlock: BETDAH_clean_sbu_0, # of connection points: 6
#     Node 2, Type 0, BuildingBlock: BETDAH_clean_sbu_0, # of connection points: 6
#     Node 3, Type 0, BuildingBlock: BETDAH_clean_sbu_0, # of connection points: 6
#     Node 4, Type 0, BuildingBlock: BETDAH_clean_sbu_0, # of connection points: 6
#     Node 5, Type 0, BuildingBlock: BETDAH_clean_sbu_0, # of connection points: 6
#     Node 6, Type 0, BuildingBlock: BETDAH_clean_sbu_0, # of connection points: 6
#     Node 7, Type 0, BuildingBlock: BETDAH_clean_sbu_0, # of connection points: 6
#     Node 8, Type 0, BuildingBlock: BETDAH_clean_sbu_0, # of connection points: 6
#     Node 9, Type 0, BuildingBlock: BETDAH_clean_sbu_0, # of connection points: 6
#     Node 10, Type 0, BuildingBlock: BETDAH_clean_sbu_0, # of connection points: 6
#     Node 11, Type 0, BuildingBlock: BETDAH_clean_sbu_0, # of connection points: 6
#     Node 12, Type 0, BuildingBlock: BETDAH_clean_sbu_0, # of connection points: 6
#     Node 13, Type 0, BuildingBlock: BETDAH_clean_sbu_0, # of connection points: 6
#     Node 14, Type 0, BuildingBlock: BETDAH_clean_sbu_0, # of connection points: 6
#     Node 15, Type 0, BuildingBlock: BETDAH_clean_sbu_0, # of connection points: 6
#     Edge 16, Type (0, 0), BuildingBlock: UVAHIK_clean_linker_0, # of connection points: 2
#     Edge 17, Type (0, 0), BuildingBlock: UVAHIK_clean_linker_0, # of connection points: 2
#     Edge 18, Type (0, 0), BuildingBlock: UVAHIK_clean_linker_0, # of connection points: 2
#     Edge 19, Type (0, 0), BuildingBlock: UVAHIK_clean_linker_0, # of connection points: 2
#     Edge 20, Type (0, 0), BuildingBlock: UVAHIK_clean_linker_0, # of connection points: 2
#     Edge 21, Type (0, 0), BuildingBlock: UVAHIK_clean_linker_0, # of connection points: 2
#     Edge 22, Type (0, 0), BuildingBlock: UVAHIK_clean_linker_0, # of connection points: 2
#     Edge 23, Type (0, 0), BuildingBlock: UVAHIK_clean_linker_0, # of connection points: 2
#     Edge 24, Type (0, 0), BuildingBlock: UVAHIK_clean_linker_0, # of connection points: 2
#     Edge 25, Type (0, 0), BuildingBlock: UVAHIK_clean_linker_0, # of connection points: 2
#     Edge 26, Type (0, 0), BuildingBlock: UVAHIK_clean_linker_0, # of connection points: 2
#     Edge 27, Type (0, 0), BuildingBlock: UVAHIK_clean_linker_0, # of connection points: 2
#     Edge 28, Type (0, 0), BuildingBlock: UVAHIK_clean_linker_0, # of connection points: 2
#     Edge 29, Type (0, 0), BuildingBlock: UVAHIK_clean_linker_0, # of connection points: 2
#     Edge 30, Type (0, 0), BuildingBlock: UVAHIK_clean_linker_0, # of connection points: 2
#     Edge 31, Type (0, 0), BuildingBlock: UVAHIK_clean_linker_0, # of connection points: 2
#     Edge 32, Type (0, 0), BuildingBlock: UVAHIK_clean_linker_0, # of connection points: 2
#     Edge 33, Type (0, 0), BuildingBlock: UVAHIK_clean_linker_0, # of connection points: 2
#     Edge 34, Type (0, 0), BuildingBlock: UVAHIK_clean_linker_0, # of connection points: 2
#     Edge 35, Type (0, 0), BuildingBlock: UVAHIK_clean_linker_0, # of connection points: 2
#     Edge 36, Type (0, 0), BuildingBlock: UVAHIK_clean_linker_0, # of connection points: 2
#     Edge 37, Type (0, 0), BuildingBlock: UVAHIK_clean_linker_0, # of connection points: 2
#     Edge 38, Type (0, 0), BuildingBlock: UVAHIK_clean_linker_0, # of connection points: 2
#     Edge 39, Type (0, 0), BuildingBlock: UVAHIK_clean_linker_0, # of connection points: 2
#     Edge 40, Type (0, 0), BuildingBlock: UVAHIK_clean_linker_0, # of connection points: 2
#     Edge 41, Type (0, 0), BuildingBlock: UVAHIK_clean_linker_0, # of connection points: 2
#     Edge 42, Type (0, 0), BuildingBlock: UVAHIK_clean_linker_0, # of connection points: 2
#     Edge 43, Type (0, 0), BuildingBlock: UVAHIK_clean_linker_0, # of connection points: 2
#     Edge 44, Type (0, 0), BuildingBlock: UVAHIK_clean_linker_0, # of connection points: 2
#     Edge 45, Type (0, 0), BuildingBlock: UVAHIK_clean_linker_0, # of connection points: 2
#     Edge 46, Type (0, 0), BuildingBlock: UVAHIK_clean_linker_0, # of connection points: 2
#     Edge 47, Type (0, 0), BuildingBlock: UVAHIK_clean_linker_0, # of connection points: 2
#     Edge 48, Type (0, 0), BuildingBlock: UVAHIK_clean_linker_0, # of connection points: 2
#     Edge 49, Type (0, 0), BuildingBlock: UVAHIK_clean_linker_0, # of connection points: 2
#     Edge 50, Type (0, 0), BuildingBlock: UVAHIK_clean_linker_0, # of connection points: 2
#     Edge 51, Type (0, 0), BuildingBlock: UVAHIK_clean_linker_0, # of connection points: 2
#     Edge 52, Type (0, 0), BuildingBlock: UVAHIK_clean_linker_0, # of connection points: 2
#     Edge 53, Type (0, 0), BuildingBlock: UVAHIK_clean_linker_0, # of connection points: 2
#     Edge 54, Type (0, 0), BuildingBlock: UVAHIK_clean_linker_0, # of connection points: 2
#     Edge 55, Type (0, 0), BuildingBlock: UVAHIK_clean_linker_0, # of connection points: 2
#     Edge 56, Type (0, 0), BuildingBlock: UVAHIK_clean_linker_0, # of connection points: 2
#     Edge 57, Type (0, 0), BuildingBlock: UVAHIK_clean_linker_0, # of connection points: 2
#     Edge 58, Type (0, 0), BuildingBlock: UVAHIK_clean_linker_0, # of connection points: 2
#     Edge 59, Type (0, 0), BuildingBlock: UVAHIK_clean_linker_0, # of connection points: 2
#     Edge 60, Type (0, 0), BuildingBlock: UVAHIK_clean_linker_0, # of connection points: 2
#     Edge 61, Type (0, 0), BuildingBlock: UVAHIK_clean_linker_0, # of connection points: 2
#     Edge 62, Type (0, 0), BuildingBlock: UVAHIK_clean_linker_0, # of connection points: 2
#     Edge 63, Type (0, 0), BuildingBlock: UVAHIK_clean_linker_0, # of connection points: 2
# Relax obj value: 0.399
# Max RMSD: 0.338
# Mean RMSD: 0.282
data_MOF--net-crs--node1-BETDAH_clean_sbu_0--edge1-UVAHIK_clean_linker_0
_symmetry_space_group_name_H-M    P1
_symmetry_Int_Tables_number       1
_symmetry_cell_setting            triclinic
loop_
_symmetry_equiv_pos_as_xyz
'x, y, z'
_cell_length_a     65.431054
_cell_length_b     66.309766
_cell_length_c     57.63869
_cell_angle_alpha  77.890894
_cell_angle_beta   79.476443
_cell_angle_gamma 68.94698
loop_
_atom_site_label
_atom_site_type_symbol
_atom_site_fract_x
_atom_site_fract_y
_atom_site_fract_z
_atom_type_partial_charge
Ho0 Ho 0.97014 1.00197 0.03062 0.0
Ho1 Ho 0.00719 0.00562 0.98995 0.0
C2 C 0.00025 0.96001 1.00384 0.0
C3 C 0.93754 0.99297 0.05739 0.0
C4 C 0.92998 0.97433 0.05933 0.0
C5 C 0.93192 0.9649 0.03904 0.0
C6 C 0.92905 0.94471 0.04147 0.0
C7 C 0.92411 0.93369 0.06421 0.0
C8 C 0.92103 0.94367 0.0844 0.0
C9 C 0.92407 0.96384 0.08197 0.0
C10 C 0.00795 1.00003 0.0444 0.0
C11 C 0.9772 0.04763 0.01682 0.0
C12 C 0.03996 0.0141 0.96289 0.0
C13 C 0.04782 0.03268 0.95986 0.0
C14 C 0.04455 0.044 0.97899 0.0
C15 C 0.04872 0.06369 0.97516 0.0
C16 C 0.05632 0.07228 0.9522 0.0
C17 C 0.06043 0.06047 0.93328 0.0
C18 C 0.05608 0.04083 0.93708 0.0
C19 C 0.96929 0.00752 0.9763 0.0
O20 O 0.98118 0.97026 0.01565 0.0
O21 O 0.01532 0.96946 0.99525 0.0
O22 O 0.95693 0.98771 0.0645 0.0
O23 O 0.93524 0.00673 0.03729 0.0
O24 O 0.98861 0.00888 0.05545 0.0
O25 O 0.00634 0.99131 0.02768 0.0
O26 O -0.00403 0.03758 1.00436 0.0
O27 O 0.96234 0.03805 0.02607 0.0
O28 O 0.02065 0.01909 0.95574 0.0
O29 O 0.042 1.00117 0.98352 0.0
O30 O 0.98863 0.9985 0.96533 0.0
O31 O 0.97101 0.0163 0.9929 0.0
H32 H 0.93654 0.97268 0.02137 0.0
H33 H 0.93105 0.93752 0.02561 0.0
H34 H 0.91718 0.93546 0.10211 0.0
H35 H 0.92276 0.97078 0.09782 0.0
H36 H 0.03815 0.03799 0.99674 0.0
H37 H 0.04579 0.07232 0.99011 0.0
H38 H 0.0663 0.0668 0.91541 0.0
H39 H 0.05846 0.03239 0.9221 0.0
Ho40 Ho -0.00092 0.27061 0.27077 0.0
Ho41 Ho 0.98865 0.23752 0.25115 0.0
C42 C 0.96989 0.24255 0.30482 0.0
C43 C -0.00132 0.30244 0.29055 0.0
C44 C -0.00092 0.30718 0.31444 0.0
C45 C 0.97948 0.31481 0.32964 0.0
C46 C 0.97989 0.32135 0.35107 0.0
C47 C -0.00012 0.32045 0.35772 0.0
C48 C 0.01951 0.31226 0.3428 0.0
C49 C 0.0191 0.3058 0.32139 0.0
C50 C 0.03069 0.23059 0.27389 0.0
C51 C 0.01771 0.26556 0.21702 0.0
C52 C 0.98919 0.2056 0.23141 0.0
C53 C 0.98966 0.20038 0.2075 0.0
C54 C 0.00973 0.18952 0.19472 0.0
C55 C 0.00997 0.1824 0.17345 0.0
C56 C 0.99013 0.18587 0.16456 0.0
C57 C 0.97011 0.19729 0.177 0.0
C58 C 0.96987 0.20439 0.19825 0.0
C59 C 0.95721 0.27777 0.24781 0.0
O60 O 0.97504 0.26066 0.30046 0.0
O61 O 0.97695 0.22849 0.28956 0.0
O62 O 0.01663 0.28857 0.28138 0.0
O63 O 0.9808 0.30001 0.28631 0.0
O64 O 0.03448 0.24891 0.27011 0.0
O65 O 0.01016 0.23417 0.27777 0.0
O66 O 0.01267 0.24741 0.22148 0.0
O67 O 0.0106 0.27968 0.23224 0.0
O68 O 0.97115 0.21991 0.23978 0.0
O69 O 0.00697 0.20773 0.23636 0.0
O70 O 0.95326 0.25951 0.25176 0.0
O71 O 0.97776 0.27395 0.24394 0.0
H72 H 0.96374 0.31623 0.32476 0.0
H73 H 0.9645 0.32744 0.36226 0.0
H74 H 0.03514 0.3117 0.34716 0.0
H75 H 0.03446 0.30031 0.30994 0.0
H76 H 0.02526 0.186 0.20145 0.0
H77 H 0.02568 0.17384 0.16417 0.0
H78 H 0.95451 0.19994 0.17088 0.0
H79 H 0.95408 0.21243 0.20779 0.0
Ho80 Ho 0.73463 0.24533 0.49003 0.0
Ho81 Ho 0.74742 0.27257 0.52032 0.0
C82 C 0.70036 0.26753 0.53457 0.0
C83 C 0.7179 0.22186 0.4743 0.0
C84 C 0.69942 0.21374 0.48356 0.0
C85 C 0.69948 0.19447 0.47723 0.0
C86 C 0.68174 0.18687 0.48577 0.0
C87 C 0.66397 0.1983 0.50106 0.0
C88 C 0.66407 0.21741 0.50765 0.0
C89 C 0.68155 0.22524 0.49868 0.0
C90 C 0.73519 0.2855 0.46855 0.0
C91 C 0.78437 0.24411 0.48211 0.0
C92 C 0.7592 0.30251 0.53005 0.0
C93 C 0.7814 0.3037 0.52894 0.0
C94 C 0.79622 0.30098 0.5079 0.0
C95 C 0.81757 0.30108 0.50728 0.0
C96 C 0.82453 0.30386 0.52766 0.0
C97 C 0.8098 0.30631 0.54877 0.0
C98 C 0.78839 0.30626 0.54938 0.0
C99 C 0.75624 0.22996 0.54231 0.0
O100 O 0.70693 0.25242 0.52039 0.0
O101 O 0.71208 0.27993 0.53534 0.0
O102 O 0.71241 0.24313 0.46815 0.0
O103 O 0.73505 0.21336 0.4863 0.0
O104 O 0.74182 0.26856 0.45782 0.0
O105 O 0.7279 0.28054 0.49011 0.0
O106 O 0.77786 0.26057 0.49447 0.0
O107 O 0.77128 0.23329 0.48041 0.0
O108 O 0.75442 0.28749 0.54659 0.0
O109 O 0.75269 0.30361 0.5095 0.0
O110 O 0.76021 0.24475 0.55061 0.0
O111 O 0.74869 0.23897 0.52278 0.0
H112 H 0.7131 0.18543 0.46554 0.0
H113 H 0.68189 0.17206 0.48052 0.0
H114 H 0.65037 0.22657 0.51918 0.0
H115 H 0.6809 0.24046 0.50324 0.0
H116 H 0.79141 0.29872 0.49188 0.0
H117 H 0.82862 0.29907 0.49081 0.0
H118 H 0.81465 0.30886 0.56463 0.0
H119 H 0.77728 0.30823 0.56581 0.0
Ho120 Ho 0.72518 0.00502 0.74617 0.0
Ho121 Ho 0.76399 0.00929 0.76352 0.0
C122 C 0.75196 0.03612 0.71255 0.0
C123 C 0.68853 0.01175 0.73008 0.0
C124 C 0.68007 0.01714 0.70684 0.0
C125 C 0.65802 0.03018 0.70517 0.0
C126 C 0.64895 0.03402 0.6839 0.0
C127 C 0.6618 0.02479 0.66392 0.0
C128 C 0.68417 0.01239 0.66538 0.0
C129 C 0.69328 0.00868 0.68666 0.0
C130 C 0.76409 0.97328 0.73666 0.0
C131 C 0.73765 0.97792 0.79684 0.0
C132 C 0.80021 1.00308 0.78031 0.0
C133 C 0.80777 0.99743 0.80398 0.0
C134 C 0.8303 0.99133 0.80571 0.0
C135 C 0.83773 0.98738 0.82797 0.0
C136 C 0.8227 0.98951 0.8489 0.0
C137 C 0.80011 0.99509 0.84713 0.0
C138 C 0.7927 0.99895 0.82481 0.0
C139 C 0.72477 0.04069 0.77329 0.0
O140 O 0.73342 0.03142 0.71781 0.0
O141 O 0.7683 0.0264 0.72592 0.0
O142 O 0.70319 0.99237 0.73479 0.0
O143 O 0.69323 0.0271 0.73671 0.0
O144 O 0.74514 0.97037 0.74134 0.0
O145 O 0.76133 0.99335 0.73516 0.0
O146 O 0.75639 0.98218 0.79099 0.0
O147 O 0.72091 0.98821 0.7841 0.0
O148 O 0.78515 0.02224 0.77602 0.0
O149 O 0.79616 0.98776 0.77285 0.0
O150 O 0.74352 0.04397 0.76824 0.0
O151 O 0.72793 0.02058 0.77475 0.0
H152 H 0.64761 0.03687 0.72056 0.0
H153 H 0.63159 0.04339 0.68347 0.0
H154 H 0.69448 0.00523 0.65021 0.0
H155 H 0.71046 0.99875 0.68753 0.0
H156 H 0.84211 0.99012 0.78977 0.0
H157 H 0.85519 0.98344 0.82866 0.0
H158 H 0.78819 0.99669 0.86296 0.0
H159 H 0.77521 1.00355 0.82373 0.0
Ho160 Ho 0.49439 0.77086 0.26649 0.0
Ho161 Ho 0.48626 0.7355 0.24789 0.0
C162 C 0.46567 0.74251 0.30091 0.0
C163 C 0.49135 0.80455 0.28458 0.0
C164 C 0.49059 0.81045 0.3081 0.0
C165 C 0.47391 0.82923 0.31486 0.0
C166 C 0.47388 0.83635 0.33604 0.0
C167 C 0.49066 0.82488 0.3508 0.0
C168 C 0.50702 0.80569 0.34435 0.0
C169 C 0.50695 0.79848 0.32324 0.0
C170 C 0.5266 0.73132 0.2722 0.0
C171 C 0.51545 0.76354 0.21372 0.0
C172 C 0.48898 0.70191 0.22978 0.0
C173 C 0.48851 0.69653 0.20642 0.0
C174 C 0.50153 0.67577 0.20095 0.0
C175 C 0.50006 0.66952 0.1798 0.0
C176 C 0.48545 0.68391 0.16374 0.0
C177 C 0.47285 0.70497 0.16895 0.0
C178 C 0.47444 0.71128 0.19008 0.0
C179 C 0.4543 0.77527 0.24175 0.0
O180 O 0.46994 0.76111 0.29581 0.0
O181 O 0.47397 0.72767 0.2865 0.0
O182 O 0.50999 0.7911 0.27606 0.0
O183 O 0.47419 0.80058 0.28067 0.0
O184 O 0.52991 0.74989 0.26832 0.0
O185 O 0.50616 0.73452 0.27506 0.0
O186 O 0.51104 0.745 0.21879 0.0
O187 O 0.50705 0.77848 0.22799 0.0
O188 O 0.47057 0.71486 0.23935 0.0
O189 O 0.50624 0.70638 0.23245 0.0
O190 O 0.45081 0.75679 0.24564 0.0
O191 O 0.47476 0.77179 0.23906 0.0
H192 H 0.46119 0.83875 0.30342 0.0
H193 H 0.46119 0.85132 0.34037 0.0
H194 H 0.52001 0.79639 0.3555 0.0
H195 H 0.51996 0.78383 0.31856 0.0
H196 H 0.51245 0.66417 0.21335 0.0
H197 H 0.5098 0.6531 0.17645 0.0
H198 H 0.46163 0.71649 0.15681 0.0
H199 H 0.46434 0.72748 0.19386 0.0
Ho200 Ho 0.23551 0.74013 0.49229 0.0
Ho201 Ho 0.24497 0.76557 0.52184 0.0
C202 C 0.19662 0.76562 0.53033 0.0
C203 C 0.2194 0.71561 0.47772 0.0
C204 C 0.20079 0.70823 0.48941 0.0
C205 C 0.19987 0.69873 0.51367 0.0
C206 C 0.18106 0.69406 0.52532 0.0
C207 C 0.16275 0.69915 0.51306 0.0
C208 C 0.16365 0.7087 0.48888 0.0
C209 C 0.18256 0.71312 0.47713 0.0
C210 C 0.23655 0.77964 0.46871 0.0
C211 C 0.28427 0.73952 0.48376 0.0
C212 C 0.25855 0.79032 0.53986 0.0
C213 C 0.27951 0.79431 0.5374 0.0
C214 C 0.29287 0.79462 0.51539 0.0
C215 C 0.31331 0.79732 0.51378 0.0
C216 C 0.32065 0.79971 0.53417 0.0
C217 C 0.30724 0.79919 0.55618 0.0
C218 C 0.28685 0.79649 0.55776 0.0
C219 C 0.24382 0.72596 0.54548 0.0
O220 O 0.20516 0.74835 0.51933 0.0
O221 O 0.20834 0.77805 0.53062 0.0
O222 O 0.21401 0.73664 0.47015 0.0
O223 O 0.23724 0.70778 0.4885 0.0
O224 O 0.24446 0.76176 0.45953 0.0
O225 O 0.22757 0.77605 0.48986 0.0
O226 O 0.27672 0.75556 0.49672 0.0
O227 O 0.27178 0.72837 0.48163 0.0
O228 O 0.2591 0.77071 0.55022 0.0
O229 O 0.24768 0.79724 0.52121 0.0
O230 O 0.23581 0.7439 0.55447 0.0
O231 O 0.25283 0.72961 0.52436 0.0
H232 H 0.21348 0.69525 0.5238 0.0
H233 H 0.18072 0.68667 0.54397 0.0
H234 H 0.14985 0.71241 0.47895 0.0
H235 H 0.18281 0.72073 0.45855 0.0
H236 H 0.28751 0.7928 0.49948 0.0
H237 H 0.32333 0.79761 0.49661 0.0
H238 H 0.31222 0.80146 0.5721 0.0
H239 H 0.27678 0.79612 0.5749 0.0
Ho240 Ho 0.22266 0.49899 0.75003 0.0
Ho241 Ho 0.25893 0.50619 0.76808 0.0
C242 C 0.24798 0.53093 0.71614 0.0
C243 C 0.18799 0.50213 0.73213 0.0
C244 C 0.18005 0.50802 0.70851 0.0
C245 C 0.17901 0.5281 0.69381 0.0
C246 C 0.1706 0.53339 0.67185 0.0
C247 C 0.16329 0.51862 0.66421 0.0
C248 C 0.16477 0.49842 0.67881 0.0
C249 C 0.17302 0.49322 0.70074 0.0
C250 C 0.26263 0.46791 0.74317 0.0
C251 C 0.23318 0.47444 0.80202 0.0
C252 C 0.29378 0.50304 0.78567 0.0
C253 C 0.3015 0.49872 0.80924 0.0
C254 C 0.30162 0.47977 0.82574 0.0
C255 C 0.31005 0.47585 0.84752 0.0
C256 C 0.31827 0.49091 0.85317 0.0
C257 C 0.31764 0.51003 0.83678 0.0
C258 C 0.3094 0.51385 0.81505 0.0
C259 C 0.219 0.53731 0.77506 0.0
O260 O 0.22988 0.52552 0.72139 0.0
O261 O 0.26399 0.52228 0.73004 0.0
O262 O 0.20461 0.48399 0.73531 0.0
O263 O 0.18959 0.51777 0.74146 0.0
O264 O 0.24413 0.46413 0.74852 0.0
O265 O 0.25907 0.48826 0.74023 0.0
O266 O 0.25133 0.47984 0.79706 0.0
O267 O 0.21738 0.48305 0.78789 0.0
O268 O 0.27788 0.52148 0.78092 0.0
O269 O 0.29138 0.4868 0.7782 0.0
O270 O 0.23754 0.541 0.77006 0.0
O271 O 0.22255 0.51697 0.77791 0.0
H272 H 0.18442 0.5398 0.69938 0.0
H273 H 0.16968 0.54905 0.66092 0.0
H274 H 0.15886 0.48687 0.67367 0.0
H275 H 0.1736 0.47769 0.71184 0.0
H276 H 0.29551 0.46787 0.82173 0.0
H277 H 0.3103 0.46101 0.85984 0.0
H278 H 0.32425 0.52173 0.84038 0.0
H279 H 0.30953 0.52851 0.80255 0.0
Ho280 Ho 0.97448 0.50985 0.51636 0.0
Ho281 Ho 0.01725 0.51086 0.48289 0.0
C282 C 0.00933 0.46562 0.49588 0.0
C283 C 0.93884 0.50221 0.53566 0.0
C284 C 0.93178 0.48375 0.53485 0.0
C285 C 0.93703 0.47424 0.51401 0.0
C286 C 0.93359 0.45465 0.51428 0.0
C287 C 0.92519 0.44397 0.53554 0.0
C288 C 0.91935 0.45387 0.55624 0.0
C289 C 0.9226 0.47364 0.55586 0.0
C290 C 0.00774 0.50936 0.53792 0.0
C291 C 0.98291 0.55479 0.50415 0.0
C292 C 0.05262 0.51938 0.46493 0.0
C293 C 0.05938 0.53705 0.46958 0.0
C294 C 0.07124 0.53343 0.48895 0.0
C295 C 0.07268 0.55105 0.49738 0.0
C296 C 0.06262 0.57256 0.48639 0.0
C297 C 0.05253 0.57609 0.46572 0.0
C298 C 0.05091 0.55849 0.45739 0.0
C299 C 0.98381 0.51158 0.46141 0.0
O300 O 0.98911 0.4764 0.50496 0.0
O301 O 0.02474 0.47484 0.48859 0.0
O302 O 0.95604 0.49689 0.54708 0.0
O303 O 0.93996 0.51552 0.5155 0.0
O304 O 0.98708 0.51854 0.54522 0.0
O305 O 0.00955 0.49948 0.52079 0.0
O306 O 0.00317 0.54367 0.4956 0.0
O307 O 0.96714 0.54594 0.51035 0.0
O308 O 0.03529 0.52577 0.45339 0.0
O309 O 0.05211 0.50383 0.48312 0.0
O310 O 0.00445 0.50247 0.45388 0.0
O311 O 0.98221 0.52134 0.47854 0.0
H312 H 0.94456 0.4815 0.49771 0.0
H313 H 0.93791 0.4477 0.49792 0.0
H314 H 0.91309 0.44595 0.57298 0.0
H315 H 0.91882 0.48055 0.57221 0.0
H316 H 0.07841 0.51708 0.49838 0.0
H317 H 0.08124 0.54792 0.51282 0.0
H318 H 0.0448 0.59253 0.45678 0.0
H319 H 0.04187 0.56187 0.44224 0.0
Ho320 Ho 0.23474 0.24017 0.99304 0.0
Ho321 Ho 0.24943 0.26768 0.02489 0.0
C322 C 0.19984 0.26493 0.03474 0.0
C323 C 0.22513 0.21083 0.9788 0.0
C324 C 0.20413 0.20983 0.97437 0.0
C325 C 0.18511 0.2161 0.99072 0.0
C326 C 0.16522 0.21522 0.98633 0.0
C327 C 0.16396 0.20826 0.96542 0.0
C328 C 0.18287 0.20253 0.94878 0.0
C329 C 0.20284 0.20326 0.95327 0.0
C330 C 0.22501 0.28372 0.97447 0.0
C331 C 0.28415 0.24347 0.98281 0.0
C332 C 0.26017 0.29608 0.03948 0.0
C333 C 0.28186 0.29473 0.04418 0.0
C334 C 0.28443 0.31164 0.05303 0.0
C335 C 0.30551 0.31101 0.05544 0.0
C336 C 0.32422 0.29352 0.04883 0.0
C337 C 0.32146 0.27626 0.0407 0.0
C338 C 0.3004 0.2768 0.03854 0.0
C339 C 0.25934 0.22402 0.04319 0.0
O340 O 0.20528 0.24999 0.02044 0.0
O341 O 0.213 0.27562 0.03688 0.0
O342 O 0.23233 0.2254 0.96401 0.0
O343 O 0.22727 0.2102 1.00115 0.0
O344 O 0.22024 0.26991 0.96528 0.0
O345 O 0.23334 0.27331 0.99326 0.0
O346 O 0.2786 0.25835 0.99714 0.0
O347 O 0.27111 0.23264 0.98071 0.0
O348 O 0.25153 0.28244 0.05404 0.0
O349 O 0.25864 0.29669 0.01698 0.0
O350 O 0.26408 0.23777 0.05249 0.0
O351 O 0.25092 0.23459 0.02453 0.0
H352 H 0.18561 0.22153 1.00699 0.0
H353 H 0.15085 0.21983 0.99936 0.0
H354 H 0.18239 0.19682 0.93267 0.0
H355 H 0.2173 0.19855 0.94037 0.0
H356 H 0.27025 0.32556 0.05742 0.0
H357 H 0.30723 0.32468 0.06143 0.0
H358 H 0.33561 0.26261 0.03557 0.0
H359 H 0.2986 0.26351 0.03184 0.0
Ho360 Ho 0.22397 1.00146 0.24775 0.0
Ho361 Ho 0.26284 0.00558 0.26486 0.0
C362 C 0.25054 0.03263 0.21419 0.0
C363 C 0.18777 0.00767 0.23096 0.0
C364 C 0.18062 0.01057 0.2072 0.0
C365 C 0.17173 0.03159 0.19427 0.0
C366 C 0.16379 0.03425 0.17249 0.0
C367 C 0.16453 0.01596 0.16325 0.0
C368 C 0.17379 0.99495 0.176 0.0
C369 C 0.18166 0.99229 0.19775 0.0
C370 C 0.26292 0.97006 0.23724 0.0
C371 C 0.23666 0.97419 0.29818 0.0
C372 C 0.2995 0.99932 0.28077 0.0
C373 C 0.30796 0.99441 0.30389 0.0
C374 C 0.33076 0.98707 0.30453 0.0
C375 C 0.33927 0.984 0.32598 0.0
C376 C 0.32506 0.98826 0.34721 0.0
C377 C 0.30215 0.99494 0.34662 0.0
C378 C 0.29365 0.99793 0.32509 0.0
C379 C 0.2237 0.03702 0.27502 0.0
O380 O 0.23176 0.0284 0.21989 0.0
O381 O 0.26712 0.02234 0.22711 0.0
O382 O 0.20121 0.98836 0.2387 0.0
O383 O 0.19297 0.02353 0.23576 0.0
O384 O 0.24405 0.96704 0.24193 0.0
O385 O 0.26006 0.99007 0.23618 0.0
O386 O 0.2555 0.97822 0.29207 0.0
O387 O 0.21973 0.9849 0.2858 0.0
O388 O 0.28467 0.01856 0.27605 0.0
O389 O 0.29478 0.98377 0.27463 0.0
O390 O 0.24251 0.04018 0.27006 0.0
O391 O 0.22677 0.01695 0.27636 0.0
H392 H 0.17056 0.04602 0.20113 0.0
H393 H 0.15682 0.05065 0.16302 0.0
H394 H 0.1742 0.98054 0.16964 0.0
H395 H 0.18814 0.97588 0.20738 0.0
H396 H 0.342 0.9843 0.28829 0.0
H397 H 0.35696 0.97918 0.32572 0.0
H398 H 0.29082 0.99817 0.3627 0.0
H399 H 0.27595 1.00349 0.32487 0.0
Ho400 Ho 0.49769 0.27196 0.77046 0.0
Ho401 Ho 0.48957 0.23665 0.7518 0.0
C402 C 0.46913 0.24329 0.80477 0.0
C403 C 0.49502 0.30567 0.78836 0.0
C404 C 0.49501 0.31147 0.81161 0.0
C405 C 0.48839 0.29986 0.83322 0.0
C406 C 0.48924 0.30551 0.85505 0.0
C407 C 0.49694 0.32268 0.85553 0.0
C408 C 0.5034 0.33427 0.83376 0.0
C409 C 0.50243 0.32871 0.81205 0.0
C410 C 0.53006 0.23249 0.77578 0.0
C411 C 0.5183 0.26495 0.71753 0.0
C412 C 0.49254 0.20331 0.73306 0.0
C413 C 0.49469 0.19731 0.70918 0.0
C414 C 0.51446 0.18222 0.70044 0.0
C415 C 0.51611 0.17474 0.67901 0.0
C416 C 0.49793 0.18204 0.66591 0.0
C417 C 0.47834 0.19763 0.67433 0.0
C418 C 0.47672 0.20517 0.69572 0.0
C419 C 0.45725 0.27623 0.74657 0.0
O420 O 0.47349 0.26186 0.79989 0.0
O421 O 0.47725 0.2286 0.7902 0.0
O422 O 0.51356 0.29217 0.7798 0.0
O423 O 0.4778 0.30139 0.78517 0.0
O424 O 0.53329 0.2511 0.77185 0.0
O425 O 0.50963 0.23563 0.77883 0.0
O426 O 0.51399 0.24639 0.72266 0.0
O427 O 0.51002 0.27985 0.73186 0.0
O428 O 0.47383 0.21746 0.74034 0.0
O429 O 0.50955 0.20634 0.73877 0.0
O430 O 0.45394 0.25763 0.75082 0.0
O431 O 0.4777 0.27302 0.74331 0.0
H432 H 0.48277 0.28636 0.83321 0.0
H433 H 0.48426 0.29623 0.87153 0.0
H434 H 0.50906 0.34781 0.83349 0.0
H435 H 0.5076 0.33784 0.79554 0.0
H436 H 0.52854 0.17581 0.71048 0.0
H437 H 0.53154 0.16296 0.67289 0.0
H438 H 0.46392 0.20339 0.6649 0.0
H439 H 0.46117 0.2167 0.70198 0.0
Ho440 Ho -0.00461 0.77105 0.76634 0.0
Ho441 Ho 0.98555 0.73652 0.74826 0.0
C442 C 0.96633 0.74344 0.8015 0.0
C443 C -0.00634 0.80427 0.78449 0.0
C444 C -0.00629 0.80956 0.80806 0.0
C445 C 0.97967 0.82985 0.81405 0.0
C446 C 0.98064 0.83609 0.83542 0.0
C447 C -0.00418 0.82218 0.85114 0.0
C448 C 0.00943 0.80155 0.84544 0.0
C449 C 0.00833 0.79525 0.82413 0.0
C450 C 0.02691 0.73102 0.77165 0.0
C451 C 0.01494 0.7638 0.71316 0.0
C452 C 0.98642 0.70318 0.73089 0.0
C453 C 0.98585 0.6973 0.7079 0.0
C454 C 0.97794 0.68028 0.70797 0.0
C455 C 0.97654 0.67456 0.68652 0.0
C456 C 0.98305 0.68577 0.66451 0.0
C457 C 0.99119 0.70275 0.66446 0.0
C458 C -0.00753 0.70857 0.68604 0.0
C459 C 0.95407 0.77668 0.74322 0.0
O460 O 0.97117 0.76173 0.79629 0.0
O461 O 0.97382 0.7287 0.78699 0.0
O462 O 0.01194 0.79066 0.7755 0.0
O463 O 0.97611 0.80076 0.78101 0.0
O464 O 0.03073 0.74935 0.76754 0.0
O465 O 0.00638 0.73469 0.77494 0.0
O466 O 0.00992 0.7456 0.71838 0.0
O467 O 0.00754 0.77859 0.72764 0.0
O468 O 0.96833 0.71732 0.73937 0.0
O469 O 0.00417 0.70671 0.73373 0.0
O470 O 0.95014 0.75839 0.74762 0.0
O471 O 0.97462 0.77284 0.73968 0.0
H472 H 0.9683 0.84112 0.80189 0.0
H473 H 0.97011 0.85217 0.83917 0.0
H474 H 0.02111 0.7904 0.85733 0.0
H475 H 0.01922 0.7794 0.82001 0.0
H476 H 0.97277 0.67141 0.72469 0.0
H477 H 0.97056 0.66116 0.68718 0.0
H478 H -0.00378 0.71174 0.64778 0.0
H479 H -0.00153 0.72189 0.68567 0.0
Ho480 Ho 0.72591 0.50333 0.24623 0.0
Ho481 Ho 0.76248 0.51024 0.2642 0.0
C482 C 0.75137 0.53542 0.21249 0.0
C483 C 0.6907 0.50668 0.22922 0.0
C484 C 0.68301 0.50911 0.20595 0.0
C485 C 0.68021 0.52835 0.18913 0.0
C486 C 0.671 0.53078 0.16819 0.0
C487 C 0.66457 0.514 0.16372 0.0
C488 C 0.66812 0.49454 0.18022 0.0
C489 C 0.67715 0.49217 0.20113 0.0
C490 C 0.7658 0.47238 0.2383 0.0
C491 C 0.73735 0.47817 0.29778 0.0
C492 C 0.79717 0.5073 0.28198 0.0
C493 C 0.805 0.50256 0.30556 0.0
C494 C 0.80707 0.48255 0.32083 0.0
C495 C 0.81591 0.47821 0.34243 0.0
C496 C 0.82261 0.49387 0.34915 0.0
C497 C 0.8199 0.51406 0.3341 0.0
C498 C 0.81126 0.51831 0.31253 0.0
C499 C 0.72233 0.54102 0.27185 0.0
O500 O 0.73326 0.52996 0.21748 0.0
O501 O 0.76738 0.52655 0.22637 0.0
O502 O 0.70556 0.48801 0.23603 0.0
O503 O 0.69428 0.52336 0.2343 0.0
O504 O 0.74723 0.46876 0.2429 0.0
O505 O 0.76231 0.49267 0.23608 0.0
O506 O 0.7558 0.48293 0.29208 0.0
O507 O 0.7209 0.48778 0.28456 0.0
O508 O 0.78096 0.52559 0.27772 0.0
O509 O 0.79518 0.49119 0.27386 0.0
O510 O 0.74074 0.54496 0.2666 0.0
O511 O 0.72617 0.52068 0.2744 0.0
H512 H 0.68463 0.54169 0.19234 0.0
H513 H 0.66851 0.54592 0.15574 0.0
H514 H 0.66295 0.48147 0.17756 0.0
H515 H 0.67899 0.47727 0.2139 0.0
H516 H 0.80224 0.47014 0.31595 0.0
H517 H 0.81777 0.46253 0.35372 0.0
H518 H 0.8253 0.5263 0.33851 0.0
H519 H 0.80991 0.5338 0.30099 0.0
Ho520 Ho 0.73384 0.74546 0.98885 0.0
Ho521 Ho 0.74551 0.77219 0.02016 0.0
C522 C 0.69757 0.76819 0.03146 0.0
C523 C 0.71848 0.72222 0.97096 0.0
C524 C 0.69905 0.71535 0.97772 0.0
C525 C 0.69012 0.71219 1.00173 0.0
C526 C 0.67026 0.70791 1.00762 0.0
C527 C 0.65903 0.70689 0.98955 0.0
C528 C 0.66817 0.70993 0.96556 0.0
C529 C 0.68801 0.71416 0.95972 0.0
C530 C 0.73503 0.78554 0.96783 0.0
C531 C 0.7835 0.74409 0.9826 0.0
C532 C 0.75626 0.8019 0.03207 0.0
C533 C 0.77792 0.80238 0.03518 0.0
C534 C 0.79536 0.79895 0.01651 0.0
C535 C 0.81602 0.79867 0.01982 0.0
C536 C 0.81969 0.80178 0.04184 0.0
C537 C 0.80236 0.80491 0.06062 0.0
C538 C 0.78162 0.80525 0.05728 0.0
C539 C 0.75427 0.72957 0.04206 0.0
O540 O 0.70432 0.75325 0.01707 0.0
O541 O 0.70964 0.77992 0.03334 0.0
O542 O 0.7139 0.74331 0.96424 0.0
O543 O 0.73409 0.71361 0.98509 0.0
O544 O 0.74229 0.76849 0.95722 0.0
O545 O 0.72694 0.78071 0.9891 0.0
O546 O 0.77662 0.76054 0.99501 0.0
O547 O 0.7706 0.7332 0.98057 0.0
O548 O 0.7488 0.78805 0.04783 0.0
O549 O 0.75323 0.80202 0.01018 0.0
O550 O 0.75806 0.74439 0.05047 0.0
O551 O 0.747 0.73846 0.02236 0.0
H552 H 0.69831 0.71336 0.01586 0.0
H553 H 0.66357 0.70563 0.02624 0.0
H554 H 0.66013 0.70874 0.9513 0.0
H555 H 0.6946 0.71679 0.9411 0.0
H556 H 0.79309 0.79651 0.99929 0.0
H557 H 0.82912 0.79613 1.0051 0.0
H558 H 0.80467 0.8077 0.07767 0.0
H559 H 0.76845 0.8078 0.07194 0.0
Ho560 Ho 0.46786 0.0087 0.52515 0.0
Ho561 Ho 0.51231 0.00434 0.49266 0.0
C562 C 0.49727 0.96309 0.5039 0.0
C563 C 0.42999 0.00619 0.54444 0.0
C564 C 0.41977 0.99 0.54363 0.0
C565 C 0.42289 0.98124 0.52258 0.0
C566 C 0.41782 0.96248 0.52308 0.0
C567 C 0.40986 0.95197 0.5447 0.0
C568 C 0.40531 0.96156 0.56544 0.0
C569 C 0.41028 0.98047 0.56489 0.0
C570 C 0.50258 1.00323 0.54754 0.0
C571 C 0.4824 0.05042 0.51256 0.0
C572 C 0.55041 0.00724 0.47586 0.0
C573 C 0.55928 0.02395 0.47898 0.0
C574 C 0.57288 0.0195 0.49697 0.0
C575 C 0.57667 0.03653 0.50422 0.0
C576 C 0.56696 0.0583 0.49361 0.0
C577 C 0.55496 0.06248 0.47424 0.0
C578 C 0.55122 0.04549 0.46695 0.0
C579 C 0.47743 0.01078 0.47013 0.0
O580 O 0.47778 0.9761 0.51228 0.0
O581 O 0.51482 0.96935 0.49834 0.0
O582 O 0.44753 0.99824 0.55573 0.0
O583 O 0.43262 0.01909 0.52434 0.0
O584 O 0.48241 0.01452 0.55438 0.0
O585 O 0.50291 0.99398 0.53038 0.0
O586 O 0.50189 0.03746 0.50421 0.0
O587 O 0.46503 0.04389 0.51889 0.0
O588 O 0.53389 0.01424 0.46302 0.0
O589 O 0.54722 0.9939 0.49537 0.0
O590 O 0.49751 0.99935 0.46297 0.0
O591 O 0.47735 0.01953 0.48759 0.0
H592 H 0.43051 0.98804 0.50603 0.0
H593 H 0.4211 0.95561 0.50676 0.0
H594 H 0.39915 0.95374 0.58233 0.0
H595 H 0.40798 0.98687 0.58136 0.0
H596 H 0.5796 1.00301 0.50633 0.0
H597 H 0.58672 0.03273 0.51854 0.0
H598 H 0.54721 0.07903 0.46563 0.0
H599 H 0.5408 0.04956 0.45289 0.0
Ho600 Ho 0.46565 0.50186 0.02765 0.0
Ho601 Ho 0.51118 0.49755 0.99793 0.0
C602 C 0.49827 0.45486 0.01148 0.0
C603 C 0.42774 0.49798 0.04351 0.0
C604 C 0.4208 0.47894 0.0443 0.0
C605 C 0.41292 0.47631 0.02439 0.0
C606 C 0.41108 0.45627 0.02302 0.0
C607 C 0.4169 0.43855 0.04164 0.0
C608 C 0.4234 0.44167 0.06217 0.0
C609 C 0.42515 0.46167 0.06357 0.0
C610 C 0.49826 0.49767 0.05257 0.0
C611 C 0.47927 0.54387 0.0159 0.0
C612 C 0.54903 0.50108 0.98054 0.0
C613 C 0.55841 0.51758 0.98267 0.0
C614 C 0.55538 0.52486 1.00462 0.0
C615 C 0.56015 0.5434 1.00583 0.0
C616 C 0.56755 0.55536 0.98499 0.0
C617 C 0.5717 0.54744 0.96319 0.0
C618 C 0.56718 0.52863 0.96207 0.0
C619 C 0.47842 0.50093 0.97357 0.0
O620 O 0.47814 0.46757 0.0185 0.0
O621 O 0.51519 0.46211 1.0056 0.0
O622 O 0.44267 0.49488 0.05745 0.0
O623 O 0.43188 0.5084 0.02219 0.0
O624 O 0.47775 0.50909 0.05791 0.0
O625 O 0.50008 0.48786 0.03538 0.0
O626 O 0.49945 0.5307 0.00984 0.0
O627 O 0.46195 0.53727 0.01993 0.0
O628 O 0.53202 0.50877 0.96843 0.0
O629 O 0.54612 0.48773 1.00016 0.0
O630 O 0.4989 0.48946 0.96833 0.0
O631 O 0.47683 0.51121 0.99025 0.0
H632 H 0.40907 0.48942 0.00943 0.0
H633 H 0.4055 0.45455 1.00719 0.0
H634 H 0.42814 0.42834 0.07679 0.0
H635 H 0.43109 0.46316 0.07927 0.0
H636 H 0.54819 0.51697 0.02064 0.0
H637 H 0.5572 0.54884 0.02298 0.0
H638 H 0.57732 0.55637 0.94681 0.0
H639 H 0.56935 0.52344 0.9449 0.0
C640 C 0.95901 0.07649 0.04297 0.0
C641 C 0.97471 0.06869 0.02391 0.0
C642 C 0.95965 0.09366 0.05304 0.0
C643 C 0.96048 0.13451 0.06811 0.0
H644 H 0.01942 0.12799 0.0791 0.0
C645 C 0.97525 0.18777 0.12653 0.0
C646 C 0.99011 0.17626 0.14344 0.0
C647 C 0.97385 0.17783 0.108 0.0
C648 C 0.00285 0.13006 0.07617 0.0
H649 H 0.0021 0.07415 0.99909 0.0
H650 H 0.00309 0.1042 0.01648 0.0
H651 H 0.01459 0.10555 0.05349 0.0
H652 H 0.01538 0.14536 0.15386 0.0
H653 H 0.01294 0.12807 0.1217 0.0
H654 H 0.94872 0.15818 0.09184 0.0
C655 C 0.99063 0.0967 0.02404 0.0
C656 C 7e-05 0.11739 0.06122 0.0
C657 C 0.99 0.07951 0.014 0.0
C658 C 0.00401 0.15484 0.14094 0.0
C659 C 0.0026 0.14491 0.12245 0.0
C660 C 0.96326 0.14716 0.0831 0.0
C661 C 0.97594 0.10347 0.04421 0.0
C662 C 0.97884 0.1191 0.05742 0.0
C663 C 0.98727 0.15615 0.10597 0.0
C664 C 0.98446 0.14471 0.08776 0.0
H665 H 0.94703 0.06853 0.05111 0.0
H666 H 0.94818 0.09831 0.06866 0.0
H667 H 0.94391 0.13642 0.06534 0.0
H668 H 0.96453 0.20441 0.12775 0.0
H669 H 0.96209 0.18705 0.0954 0.0
C670 C 0.82071 0.25032 0.47 0.0
C671 C 0.80649 0.23932 0.46786 0.0
C672 C 0.84023 0.24829 0.45457 0.0
C673 C 0.88047 0.21516 0.41139 0.0
H674 H 0.89001 0.27004 0.38348 0.0
C675 C 0.94428 0.22313 0.32859 0.0
C676 C 0.95465 0.2388 0.32648 0.0
C677 C 0.92787 0.22145 0.34752 0.0
C678 C 0.88794 0.25447 0.39136 0.0
H679 H 0.80238 0.2166 0.44841 0.0
H680 H 0.83664 0.21294 0.42152 0.0
H681 H 0.85872 0.26987 0.41348 0.0
H682 H 0.95665 0.26423 0.34337 0.0
H683 H 0.92864 0.26085 0.37669 0.0
H684 H 0.90978 0.19974 0.38927 0.0
C685 C 0.83257 0.22319 0.4352 0.0
C686 C 0.86987 0.2544 0.40857 0.0
C687 C 0.8129 0.22532 0.45061 0.0
C688 C 0.9489 0.25208 0.34432 0.0
C689 C 0.93265 0.25026 0.36335 0.0
C690 C 0.8987 0.21519 0.39427 0.0
C691 C 0.84618 0.23509 0.43663 0.0
C692 C 0.86585 0.23478 0.41875 0.0
C693 C 0.92151 0.23528 0.36494 0.0
C694 C 0.90265 0.23489 0.38393 0.0
H695 H 0.81656 0.261 0.48324 0.0
H696 H 0.85054 0.25734 0.45647 0.0
H697 H 0.87794 0.19974 0.41904 0.0
H698 H 0.9482 0.2127 0.31511 0.0
H699 H 0.91958 0.20987 0.3479 0.0
C700 C 0.77098 0.06245 0.6893 0.0
C701 C 0.75391 0.05363 0.692 0.0
C702 C 0.77167 0.08035 0.67154 0.0
C703 C 0.75161 0.11204 0.61408 0.0
H704 H 0.7624 0.15899 0.63452 0.0
C705 C 0.74428 0.19645 0.55244 0.0
C706 C 0.75772 0.20781 0.55578 0.0
C707 C 0.74405 0.17688 0.56774 0.0
C708 C 0.75978 0.14596 0.62818 0.0
H709 H 0.72454 0.0565 0.67735 0.0
H710 H 0.726 0.08749 0.64611 0.0
H711 H 0.76214 0.12636 0.66288 0.0
H712 H 0.78217 0.20706 0.57694 0.0
H713 H 0.78271 0.1728 0.60253 0.0
H714 H 0.74963 0.13152 0.57921 0.0
C715 C 0.73882 0.08056 0.65786 0.0
C716 C 0.75953 0.12718 0.64463 0.0
C717 C 0.73795 0.0628 0.67585 0.0
C718 C 0.77152 0.19877 0.57399 0.0
C719 C 0.77159 0.17916 0.58893 0.0
C720 C 0.75215 0.13079 0.59745 0.0
C721 C 0.75547 0.08985 0.65573 0.0
C722 C 0.75555 0.10988 0.63786 0.0
C723 C 0.75744 0.16811 0.58656 0.0
C724 C 0.7564 0.14805 0.60418 0.0
H725 H 0.78354 0.05594 0.70135 0.0
H726 H 0.78489 0.08687 0.67028 0.0
H727 H 0.74856 0.09901 0.60819 0.0
H728 H 0.73327 0.20315 0.53871 0.0
H729 H 0.73279 0.1691 0.56528 0.0
C730 C 0.9516 0.98598 0.96165 0.0
C731 C 0.9494 1.00344 0.97313 0.0
C732 C 0.93301 0.98243 0.95733 0.0
C733 C 0.87748 0.01321 0.94402 0.0
H734 H 0.87542 0.95558 0.94348 0.0
C735 C 0.81964 1.00297 0.88738 0.0
C736 C 0.83065 0.98739 0.8721 0.0
C737 C 0.82908 1.00311 0.90721 0.0
C738 C 0.87567 0.9718 0.94362 0.0
H739 H 0.92623 0.03039 0.99004 0.0
H740 H 0.89337 0.02453 0.98189 0.0
H741 H 0.90198 0.95936 0.96562 0.0
H742 H 0.85921 0.95865 0.86677 0.0
H743 H 0.87593 0.95916 0.90089 0.0
H744 H 0.85225 0.02559 0.92083 0.0
C745 C 0.90955 0.01353 0.97639 0.0
C746 C 0.89082 0.97396 0.95634 0.0
C747 C 0.92827 0.01689 0.98102 0.0
C748 C 0.85051 0.97106 0.878 0.0
C749 C 0.85994 0.9712 0.89778 0.0
C750 C 0.86239 0.01105 0.93123 0.0
C751 C 0.91178 0.99645 0.96414 0.0
C752 C 0.8925 0.99459 0.9558 0.0
C753 C 0.84971 0.98767 0.91216 0.0
C754 C 0.86197 0.99023 0.93005 0.0
H755 H 0.96775 0.9752 0.95566 0.0
H756 H 0.93531 0.96932 0.9476 0.0
H757 H 0.87849 0.02931 0.94311 0.0
H758 H 0.80433 0.01581 0.88328 0.0
H759 H 0.82065 0.01584 0.91811 0.0
C760 C 0.04892 0.99114 0.03913 0.0
C761 C 0.0278 0.00408 0.04774 0.0
C762 C 0.06762 0.99462 0.04358 0.0
C763 C 0.08602 0.03403 0.06448 0.0
H764 H 0.12816 0.98186 0.09496 0.0
C765 C 0.13318 0.03438 0.13854 0.0
C766 C 0.15407 0.01863 0.14152 0.0
C767 C 0.12172 0.03476 0.12018 0.0
C768 C 0.11694 0.99659 0.08597 0.0
H769 H 0.00945 0.03149 0.06653 0.0
H770 H 0.0419 0.03744 0.07446 0.0
H771 H 0.10049 0.9784 0.07455 0.0
H772 H 0.18008 0.99207 0.12642 0.0
H773 H 0.16001 0.99273 0.0943 0.0
H774 H 0.10188 0.05225 0.07691 0.0
C775 C 0.04419 0.02469 0.06421 0.0
C776 C 0.10104 0.99459 0.07425 0.0
C777 C 0.02559 0.02109 0.05996 0.0
C778 C 0.16383 0.00415 0.12483 0.0
C779 C 0.15236 0.00454 0.10643 0.0
C780 C 0.10195 0.03604 0.07617 0.0
C781 C 0.06542 0.01125 0.05648 0.0
C782 C 0.0849 0.01331 0.06421 0.0
C783 C 0.1309 0.01941 0.10436 0.0
C784 C 0.11705 0.01736 0.08784 0.0
H785 H 0.05097 0.97798 0.02958 0.0
H786 H 0.08379 0.98408 0.03732 0.0
H787 H 0.074 0.04874 0.05651 0.0
H788 H 0.12509 0.0456 0.15123 0.0
H789 H 0.1051 0.04624 0.11933 0.0
C790 C 0.02839 0.43645 0.4705 0.0
C791 C 0.01345 0.44366 0.4903 0.0
C792 C 0.02891 0.41805 0.46192 0.0
C793 C 0.99146 0.38818 0.46108 0.0
H794 H 0.04247 0.3521 0.42492 0.0
C795 C 0.01724 0.31919 0.39376 0.0
C796 C 0.00023 0.32955 0.37907 0.0
C797 C 0.01895 0.32913 0.41213 0.0
C798 C 0.02809 0.36173 0.43528 0.0
H799 H 0.98877 0.43617 0.51796 0.0
H800 H 0.99086 0.40312 0.50388 0.0
H801 H 0.04728 0.37543 0.44949 0.0
H802 H 0.97136 0.35823 0.37261 0.0
H803 H 0.97438 0.37557 0.40443 0.0
H804 H 0.97225 0.37459 0.44675 0.0
C805 C 0.00125 0.4124 0.49426 0.0
C806 C 0.03083 0.37531 0.44916 0.0
C807 C 0.00031 0.43112 0.5025 0.0
C808 C 0.98447 0.34964 0.38379 0.0
C809 C 0.98621 0.35959 0.4021 0.0
C810 C 0.98873 0.37453 0.44729 0.0
C811 C 0.01478 0.40622 0.47323 0.0
C812 C 0.01248 0.38919 0.46167 0.0
C813 C 0.00372 0.34968 0.41618 0.0
C814 C 0.00693 0.36163 0.43364 0.0
H815 H 0.03858 0.44589 0.46058 0.0
H816 H 0.03944 0.41393 0.44558 0.0
H817 H 0.97689 0.39873 0.47031 0.0
H818 H 0.02945 0.30354 0.3908 0.0
H819 H 0.03243 0.32088 0.42289 0.0
C820 C 0.67037 0.2869 0.56452 0.0
C821 C 0.67979 0.26947 0.55132 0.0
C822 C 0.65169 0.28788 0.58126 0.0
C823 C 0.62172 0.25206 0.61837 0.0
H824 H 0.57457 0.30659 0.62723 0.0
C825 C 0.54214 0.25269 0.68036 0.0
C826 C 0.53383 0.26826 0.69598 0.0
C827 C 0.55869 0.25419 0.66164 0.0
C828 C 0.58769 0.29125 0.6251 0.0
H829 H 0.67687 0.23932 0.54568 0.0
H830 H 0.64415 0.24138 0.57406 0.0
H831 H 0.60589 0.30664 0.59668 0.0
H832 H 0.53596 0.29811 0.70348 0.0
H833 H 0.56497 0.30066 0.67079 0.0
H834 H 0.60371 0.23665 0.64675 0.0
C835 C 0.65127 0.25421 0.57174 0.0
C836 C 0.60567 0.29128 0.6076 0.0
C837 C 0.66992 0.25321 0.55511 0.0
C838 C 0.54191 0.28586 0.69178 0.0
C839 C 0.55854 0.28735 0.67299 0.0
C840 C 0.6038 0.25203 0.63577 0.0
C841 C 0.64204 0.2714 0.58526 0.0
C842 C 0.62288 0.27165 0.60394 0.0
C843 C 0.56746 0.27126 0.658 0.0
C844 C 0.58648 0.27159 0.63932 0.0
H845 H 0.67757 0.29967 0.56215 0.0
H846 H 0.64518 0.30124 0.59151 0.0
H847 H 0.63487 0.2367 0.61649 0.0
H848 H 0.53623 0.23898 0.6829 0.0
H849 H 0.56482 0.24176 0.65015 0.0
C850 C 0.71561 0.95903 0.82892 0.0
C851 C 0.73607 0.96046 0.81749 0.0
C852 C 0.71452 0.94198 0.84781 0.0
C853 C 0.75023 0.89603 0.88956 0.0
H854 H 0.7014 0.87403 0.89869 0.0
C855 C 0.75239 0.80905 0.93727 0.0
C856 C 0.7352 0.80751 0.9554 0.0
C857 C 0.75187 0.82919 0.92327 0.0
C858 C 0.71502 0.88016 0.89652 0.0
H859 H 0.77144 0.9447 0.8168 0.0
H860 H 0.76966 0.91473 0.84848 0.0
H861 H 0.70166 0.90576 0.86836 0.0
H862 H 0.704 0.82594 0.97321 0.0
H863 H 0.70265 0.86129 0.94794 0.0
H864 H 0.76411 0.86938 0.91681 0.0
C865 C 0.75429 0.92712 0.84385 0.0
C866 C 0.71519 0.8985 0.87914 0.0
C867 C 0.75536 0.94436 0.82538 0.0
C868 C 0.71757 0.82669 0.95951 0.0
C869 C 0.71673 0.84684 0.94496 0.0
C870 C 0.75028 0.87742 0.90651 0.0
C871 C 0.73387 0.92556 0.85552 0.0
C872 C 0.73294 0.90667 0.87511 0.0
C873 C 0.73384 0.84825 0.92657 0.0
C874 C 0.73276 0.86917 0.91008 0.0
H875 H 0.70041 0.97117 0.82336 0.0
H876 H 0.69841 0.94183 0.85639 0.0
H877 H 0.76393 0.90193 0.88782 0.0
H878 H 0.76616 0.79453 0.93368 0.0
H879 H 0.76525 0.82971 0.90922 0.0
C880 C 0.16436 0.25722 0.04917 0.0
C881 C 0.1783 0.2689 0.05014 0.0
C882 C 0.14525 0.25907 0.06526 0.0
C883 C 0.10558 0.29277 0.10841 0.0
H884 H 0.09678 0.23788 0.13798 0.0
C885 C 0.04313 0.28502 0.19275 0.0
C886 C 0.03271 0.26935 0.19517 0.0
C887 C 0.05932 0.28668 0.17354 0.0
C888 C 0.09868 0.25343 0.12965 0.0
H889 H 0.18236 0.29248 0.0684 0.0
H890 H 0.14894 0.29569 0.09649 0.0
H891 H 0.12758 0.2379 0.10723 0.0
H892 H 0.03033 0.24392 0.17856 0.0
H893 H 0.05797 0.24722 0.14484 0.0
H894 H 0.0766 0.30829 0.1309 0.0
C895 C 0.15286 0.28511 0.08316 0.0
C896 C 0.11644 0.25343 0.11201 0.0
C897 C 0.17209 0.2832 0.06708 0.0
C898 C 0.03815 0.25605 0.17739 0.0
C899 C 0.05417 0.25783 0.15811 0.0
C900 C 0.08767 0.2928 0.126 0.0
C901 C 0.13946 0.27271 0.08276 0.0
C902 C 0.12016 0.27306 0.10117 0.0
C903 C 0.06537 0.2728 0.1562 0.0
C904 C 0.08399 0.2731 0.1369 0.0
H905 H 0.16841 0.24617 0.03633 0.0
H906 H 0.13509 0.24957 0.06417 0.0
H907 H 0.10788 0.3082 0.10027 0.0
H908 H 0.03943 0.29545 0.20619 0.0
H909 H 0.06768 0.29827 0.17285 0.0
C910 C 0.71543 0.45852 0.32905 0.0
C911 C 0.7358 0.46084 0.31862 0.0
C912 C 0.71439 0.44143 0.34789 0.0
C913 C 0.74955 0.39684 0.39134 0.0
H914 H 0.70273 0.3725 0.39759 0.0
C915 C 0.75282 0.30908 0.43839 0.0
C916 C 0.7354 0.30746 0.45615 0.0
C917 C 0.75231 0.32924 0.42439 0.0
C918 C 0.71578 0.37928 0.39621 0.0
H919 H 0.77111 0.44667 0.3198 0.0
H920 H 0.76951 0.41659 0.35142 0.0
H921 H 0.70291 0.40432 0.3674 0.0
H922 H 0.70377 0.32573 0.47331 0.0
H923 H 0.7024 0.36106 0.44799 0.0
H924 H 0.76304 0.37068 0.41925 0.0
C925 C 0.75409 0.42832 0.34599 0.0
C926 C 0.71589 0.39769 0.37892 0.0
C927 C 0.75507 0.44563 0.32756 0.0
C928 C 0.71752 0.32656 0.4599 0.0
C929 C 0.71668 0.34669 0.44533 0.0
C930 C 0.7497 0.37814 0.40819 0.0
C931 C 0.73374 0.42581 0.35656 0.0
C932 C 0.7329 0.40674 0.37597 0.0
C933 C 0.73403 0.34819 0.4273 0.0
C934 C 0.73288 0.36908 0.41075 0.0
H935 H 0.70023 0.46997 0.32269 0.0
H936 H 0.6983 0.44059 0.35563 0.0
H937 H 0.76266 0.40341 0.39041 0.0
H938 H 0.76678 0.29461 0.43508 0.0
H939 H 0.76587 0.32986 0.41063 0.0
C940 C 0.54267 0.99206 0.55217 0.0
C941 C 0.52151 0.00774 0.55289 0.0
C942 C 0.56012 0.9964 0.55867 0.0
C943 C 0.56885 0.03331 0.59341 0.0
H944 H 0.63036 0.00669 0.57019 0.0
C945 C 0.63521 0.04608 0.6341 0.0
C946 C 0.65113 0.02641 0.6427 0.0
C947 C 0.62208 0.04651 0.61733 0.0
C948 C 0.61322 0.0143 0.57673 0.0
H949 H 0.50213 0.04068 0.55936 0.0
H950 H 0.53257 0.04891 0.56874 0.0
H951 H 0.60175 1.00201 0.55197 0.0
H952 H 0.66689 0.99214 0.63916 0.0
H953 H 0.64388 0.99284 0.61002 0.0
H954 H 0.5802 0.04521 0.61842 0.0
C955 C 0.53573 0.0328 0.56457 0.0
C956 C 0.59682 0.01152 0.56642 0.0
C957 C 0.51825 0.02817 0.55895 0.0
C958 C 0.65485 0.00758 0.63278 0.0
C959 C 0.64167 0.00799 0.61604 0.0
C960 C 0.58516 0.0362 0.60353 0.0
C961 C 0.55674 0.01673 0.56537 0.0
C962 C 0.5744 0.02076 0.57486 0.0
C963 C 0.62455 0.02724 0.6089 0.0
C964 C 0.60753 0.02645 0.59561 0.0
H965 H 0.54553 0.97622 0.54742 0.0
H966 H 0.576 0.98355 0.55919 0.0
H967 H 0.55189 0.04023 0.60092 0.0
H968 H 0.63228 0.06094 0.64111 0.0
H969 H 0.60928 0.06169 0.61178 0.0
C970 C 0.02364 0.92639 0.98607 0.0
C971 C 0.00311 0.93896 0.9965 0.0
C972 C 0.02538 0.90873 0.97525 0.0
C973 C -0.00606 0.87418 0.96587 0.0
H974 H 0.02984 0.87315 0.90437 0.0
C975 C 0.97976 0.84133 0.88692 0.0
C976 C -0.00165 0.82984 0.87255 0.0
C977 C 0.98221 0.85048 0.90557 0.0
C978 C 0.02002 0.87293 0.92166 0.0
H979 H 0.96851 0.94215 1.00472 0.0
H980 H 0.97135 0.91192 0.98556 0.0
H981 H 0.03117 0.8963 0.93116 0.0
H982 H 0.0341 0.81841 0.86695 0.0
H983 H 0.03835 0.83438 0.89953 0.0
H984 H 0.98201 0.85153 0.95556 0.0
C985 C 0.98628 0.91525 0.98606 0.0
C986 C 0.02083 0.88617 0.93714 0.0
C987 C 0.98462 0.93271 0.99709 0.0
C988 C 0.01946 0.82703 0.8778 0.0
C989 C 0.02189 0.83632 0.89632 0.0
C990 C -0.00703 0.86108 0.95023 0.0
C991 C 0.00656 0.90344 0.97433 0.0
C992 C 0.00754 0.88727 0.9593 0.0
C993 C 0.00329 0.84849 0.91011 0.0
C994 C 0.00576 0.86058 0.92781 0.0
H995 H 0.03825 0.93066 0.98548 0.0
H996 H 0.04137 0.89968 0.96692 0.0
H997 H 0.98374 0.87431 0.98293 0.0
H998 H 0.9633 0.8436 0.88343 0.0
H999 H 0.96755 0.85989 0.91578 0.0
C1000 C 0.0438 0.11161 0.95717 0.0
C1001 C 0.05988 0.09355 0.94807 0.0
C1002 C 0.04776 0.13135 0.95451 0.0
C1003 C 0.06794 0.16289 0.96383 0.0
H1004 H 0.10999 0.17793 0.91276 0.0
C1005 C 0.1332 0.1935 0.98056 0.0
C1006 C 0.14357 0.20511 0.96195 0.0
C1007 C 0.11598 0.18751 0.97654 0.0
C1008 C 0.09777 0.17452 0.92694 0.0
H1009 H 0.09237 0.08197 0.92861 0.0
H1010 H 0.09972 0.11598 0.9247 0.0
H1011 H 0.09216 0.15304 0.90783 0.0
H1012 H 0.143 0.22118 0.92514 0.0
H1013 H 0.1124 0.21114 0.91815 0.0
H1014 H 0.07353 0.18441 0.98292 0.0
C1015 C 0.08375 0.11533 0.93322 0.0
C1016 C 0.08781 0.1599 0.92425 0.0
C1017 C 0.07966 0.09572 0.93562 0.0
C1018 C 0.13543 0.21193 0.93967 0.0
C1019 C 0.11796 0.20616 0.9357 0.0
C1020 C 0.07758 0.17785 0.96634 0.0
C1021 C 0.06799 0.13329 0.94295 0.0
C1022 C 0.07383 0.1529 0.94322 0.0
C1023 C 0.10858 0.19317 0.95385 0.0
C1024 C 0.09365 0.18277 0.94853 0.0
H1025 H 0.02824 0.11038 0.96654 0.0
H1026 H 0.03514 0.14493 0.96191 0.0
H1027 H 0.05716 0.15802 0.97881 0.0
H1028 H 0.1393 0.18786 0.99785 0.0
H1029 H 0.10954 0.17717 0.99087 0.0
C1030 C 0.69927 0.58041 0.26674 0.0
C1031 C 0.70037 0.55842 0.27241 0.0
C1032 C 0.67898 0.59728 0.26625 0.0
C1033 C 0.61965 0.61174 0.28807 0.0
H1034 H 0.61571 0.66132 0.23743 0.0
C1035 C 0.54045 0.68992 0.27753 0.0
C1036 C 0.54461 0.70988 0.27245 0.0
C1037 C 0.558 0.66996 0.27711 0.0
C1038 C 0.61652 0.64768 0.25177 0.0
H1039 H 0.68093 0.53685 0.28241 0.0
H1040 H 0.6451 0.56659 0.2816 0.0
H1041 H 0.64876 0.62915 0.23744 0.0
H1042 H 0.57036 0.72453 0.26312 0.0
H1043 H 0.60064 0.69011 0.26242 0.0
H1044 H 0.58733 0.63064 0.30253 0.0
C1045 C 0.6601 0.57068 0.27757 0.0
C1046 C 0.63551 0.62919 0.25179 0.0
C1047 C 0.68058 0.55366 0.27796 0.0
C1048 C 0.56656 0.70947 0.26707 0.0
C1049 C 0.58396 0.68969 0.2665 0.0
C1050 C 0.60051 0.63034 0.28804 0.0
C1051 C 0.65908 0.59273 0.27143 0.0
C1052 C 0.63763 0.61119 0.27025 0.0
C1053 C 0.57999 0.66965 0.27134 0.0
C1054 C 0.59898 0.64877 0.2702 0.0
H1055 H 0.71418 0.58467 0.26247 0.0
H1056 H 0.67891 0.61401 0.26193 0.0
H1057 H 0.62072 0.59819 0.30258 0.0
H1058 H 0.52368 0.68975 0.28172 0.0
H1059 H 0.55435 0.65482 0.28087 0.0
C1060 C 0.35498 0.79584 0.55062 0.0
C1061 C 0.34118 0.80477 0.53235 0.0
C1062 C 0.37148 0.80424 0.55161 0.0
C1063 C 0.39907 0.84433 0.51957 0.0
H1064 H 0.38751 0.86284 0.58161 0.0
C1065 C 0.42526 0.91405 0.535 0.0
C1066 C 0.40798 0.93026 0.54584 0.0
C1067 C 0.42343 0.89371 0.53522 0.0
C1068 C 0.39107 0.85765 0.56426 0.0
H1069 H 0.33513 0.828 0.49963 0.0
H1070 H 0.3637 0.84271 0.5014 0.0
H1071 H 0.37482 0.834 0.57638 0.0
H1072 H 0.37563 0.93775 0.5662 0.0
H1073 H 0.37223 0.90222 0.56647 0.0
H1074 H 0.41385 0.86921 0.50706 0.0
C1075 C 0.36202 0.82912 0.51486 0.0
C1076 C 0.3841 0.84091 0.56131 0.0
C1077 C 0.34555 0.82073 0.51387 0.0
C1078 C 0.38916 0.92552 0.55772 0.0
C1079 C 0.38732 0.90515 0.55799 0.0
C1080 C 0.40605 0.8611 0.52252 0.0
C1081 C 0.37442 0.8217 0.53435 0.0
C1082 C 0.38712 0.83479 0.53867 0.0
C1083 C 0.40432 0.88916 0.54646 0.0
C1084 C 0.40119 0.86857 0.54464 0.0
H1085 H 0.35227 0.78316 0.56481 0.0
H1086 H 0.38107 0.79797 0.56661 0.0
H1087 H 0.40185 0.83974 0.502 0.0
H1088 H 0.44022 0.91712 0.52641 0.0
H1089 H 0.43688 0.88161 0.52646 0.0
C1090 C 0.06656 0.70815 0.77181 0.0
C1091 C 0.04445 0.70925 0.77421 0.0
C1092 C 0.08353 0.688 0.77413 0.0
C1093 C 0.09857 0.62935 0.77073 0.0
H1094 H 0.14706 0.62465 0.80377 0.0
C1095 C 0.17722 0.55065 0.78228 0.0
C1096 C 0.19727 0.55492 0.77738 0.0
C1097 C 0.15699 0.56796 0.7838 0.0
C1098 C 0.13371 0.62567 0.7944 0.0
H1099 H 0.0228 0.68997 0.78061 0.0
H1100 H 0.0527 0.65442 0.78466 0.0
H1101 H 0.11465 0.65747 0.80297 0.0
H1102 H 0.21178 0.58062 0.77015 0.0
H1103 H 0.17695 0.61041 0.77292 0.0
H1104 H 0.11805 0.59749 0.76187 0.0
C1105 C 0.05682 0.66929 0.78096 0.0
C1106 C 0.1151 0.64454 0.79391 0.0
C1107 C 0.0397 0.68962 0.77875 0.0
C1108 C 0.19667 0.57671 0.77412 0.0
C1109 C 0.17664 0.59385 0.77582 0.0
C1110 C 0.11731 0.61034 0.77123 0.0
C1111 C 0.07896 0.66826 0.77888 0.0
C1112 C 0.09751 0.64693 0.78155 0.0
C1113 C 0.1565 0.58978 0.78076 0.0
C1114 C 0.13536 0.60854 0.78255 0.0
H1115 H 0.07082 0.72295 0.7681 0.0
H1116 H 0.10036 0.68791 0.77191 0.0
H1117 H 0.08536 0.63064 0.761 0.0
H1118 H 0.17716 0.53401 0.78491 0.0
H1119 H 0.14177 0.56425 0.78769 0.0
C1120 C 0.85304 0.32039 0.50728 0.0
C1121 C 0.84631 0.30626 0.52634 0.0
C1122 C 0.8714 0.32609 0.50799 0.0
C1123 C 0.89755 0.33399 0.55405 0.0
H1124 H 0.92701 0.36087 0.4983 0.0
C1125 C 0.9395 0.4066 0.5237 0.0
C1126 C 0.92323 0.42225 0.53631 0.0
C1127 C 0.93764 0.38619 0.52425 0.0
C1128 C 0.91941 0.35308 0.51419 0.0
H1129 H 0.85477 0.28506 0.55979 0.0
H1130 H 0.8872 0.29478 0.56094 0.0
H1131 H 0.91265 0.33278 0.49437 0.0
H1132 H 0.89213 0.42877 0.55926 0.0
H1133 H 0.88866 0.39341 0.55999 0.0
H1134 H 0.90386 0.35463 0.57376 0.0
C1135 C 0.87796 0.3019 0.54572 0.0
C1136 C 0.91098 0.33711 0.51188 0.0
C1137 C 0.85941 0.29636 0.54511 0.0
C1138 C 0.90515 0.41697 0.54969 0.0
C1139 C 0.90325 0.39661 0.55021 0.0
C1140 C 0.90619 0.34973 0.55641 0.0
C1141 C 0.8835 0.31767 0.52774 0.0
C1142 C 0.89869 0.32847 0.53147 0.0
C1143 C 0.91941 0.38103 0.53741 0.0
C1144 C 0.91592 0.36043 0.53622 0.0
H1145 H 0.84319 0.32835 0.49264 0.0
H1146 H 0.87489 0.3385 0.49396 0.0
H1147 H 0.88826 0.3277 0.5696 0.0
H1148 H 0.95369 0.41012 0.51341 0.0
H1149 H 0.95038 0.37453 0.51425 0.0
C1150 C 0.28447 0.93052 0.2374 0.0
C1151 C 0.28436 0.95209 0.23487 0.0
C1152 C 0.30429 0.91308 0.23592 0.0
C1153 C 0.36353 0.89562 0.24226 0.0
H1154 H 0.36641 0.84872 0.21002 0.0
C1155 C 0.44122 0.81664 0.23492 0.0
C1156 C 0.43663 0.79693 0.23911 0.0
C1157 C 0.42402 0.83688 0.23272 0.0
C1158 C 0.36588 0.86158 0.21924 0.0
H1159 H 0.30506 0.97231 0.22873 0.0
H1160 H 0.34002 0.9416 0.22626 0.0
H1161 H 0.33414 0.88168 0.20893 0.0
H1162 H 0.41048 0.78302 0.24451 0.0
H1163 H 0.38076 0.81797 0.24069 0.0
H1164 H 0.39529 0.87516 0.25285 0.0
C1165 C 0.32463 0.93825 0.22948 0.0
C1166 C 0.34734 0.88053 0.2186 0.0
C1167 C 0.30464 0.95584 0.2308 0.0
C1168 C 0.4146 0.79789 0.2411 0.0
C1169 C 0.39754 0.81798 0.23878 0.0
C1170 C 0.38219 0.87656 0.2429 0.0
C1171 C 0.32467 0.91663 0.23192 0.0
C1172 C 0.34563 0.89761 0.23056 0.0
C1173 C 0.40195 0.83779 0.23444 0.0
C1174 C 0.38335 0.85907 0.23185 0.0
H1175 H 0.26915 0.92702 0.24071 0.0
H1176 H 0.30362 0.89667 0.23834 0.0
H1177 H 0.36275 0.9084 0.25175 0.0
H1178 H 0.45805 0.8164 0.23336 0.0
H1179 H 0.42802 0.85181 0.22931 0.0
C1180 C 0.30438 0.45484 0.73612 0.0
C1181 C 0.28444 0.45038 0.74102 0.0
C1182 C 0.32471 0.43766 0.73472 0.0
C1183 C 0.34862 0.37977 0.72468 0.0
H1184 H 0.39695 0.37615 0.7573 0.0
C1185 C 0.41735 0.29829 0.74685 0.0
C1186 C 0.4393 0.29773 0.74417 0.0
C1187 C 0.4 0.31817 0.74466 0.0
C1188 C 0.38374 0.37706 0.74779 0.0
H1189 H 0.27021 0.42446 0.74838 0.0
H1190 H 0.30523 0.39486 0.74585 0.0
H1191 H 0.36384 0.40887 0.75646 0.0
H1192 H 0.46028 0.31773 0.73743 0.0
H1193 H 0.42973 0.35281 0.73359 0.0
H1194 H 0.36814 0.34801 0.71626 0.0
C1195 C 0.30538 0.41149 0.74284 0.0
C1196 C 0.36476 0.39582 0.74731 0.0
C1197 C 0.28524 0.42851 0.74441 0.0
C1198 C 0.44351 0.31766 0.7395 0.0
C1199 C 0.42602 0.33771 0.73741 0.0
C1200 C 0.36749 0.36113 0.72514 0.0
C1201 C 0.32543 0.41576 0.7379 0.0
C1202 C 0.34672 0.39715 0.73624 0.0
C1203 C 0.40403 0.3382 0.73976 0.0
C1204 C 0.3851 0.35923 0.7372 0.0
H1205 H 0.30428 0.47153 0.73342 0.0
H1206 H 0.33984 0.44154 0.73081 0.0
H1207 H 0.33531 0.38042 0.71549 0.0
H1208 H 0.4135 0.28325 0.75067 0.0
H1209 H 0.38331 0.31783 0.74709 0.0
C1210 C 0.16289 0.75497 0.54569 0.0
C1211 C 0.17489 0.76895 0.54521 0.0
C1212 C 0.14379 0.75618 0.56169 0.0
C1213 C 0.10096 0.79099 0.6021 0.0
H1214 H 0.09621 0.73544 0.6357 0.0
C1215 C 0.03932 0.78381 0.68736 0.0
C1216 C 0.03012 0.76702 0.6912 0.0
C1217 C 0.05542 0.78535 0.668 0.0
C1218 C 0.09699 0.75113 0.62626 0.0
H1219 H 0.17559 0.79579 0.56068 0.0
H1220 H 0.14224 0.79789 0.58864 0.0
H1221 H 0.12672 0.73598 0.60468 0.0
H1222 H 0.03005 0.73926 0.67694 0.0
H1223 H 0.05759 0.74227 0.643 0.0
H1224 H 0.07122 0.80613 0.62382 0.0
C1225 C 0.14758 0.78603 0.57652 0.0
C1226 C 0.11457 0.75144 0.60842 0.0
C1227 C 0.16676 0.78479 0.5605 0.0
C1228 C 0.03684 0.75233 0.67468 0.0
C1229 C 0.05282 0.75395 0.65527 0.0
C1230 C 0.08327 0.79069 0.61991 0.0
C1231 C 0.13611 0.77143 0.57766 0.0
C1232 C 0.11687 0.77135 0.59614 0.0
C1233 C 0.06268 0.77021 0.65189 0.0
C1234 C 0.08107 0.77074 0.63231 0.0
H1235 H 0.16852 0.74265 0.53408 0.0
H1236 H 0.13517 0.74494 0.56174 0.0
H1237 H 0.10207 0.80662 0.59284 0.0
H1238 H 0.03464 0.79536 0.69977 0.0
H1239 H 0.06273 0.79797 0.66619 0.0
C1240 C 0.25474 0.93987 0.32552 0.0
C1241 C 0.23528 0.95628 0.31836 0.0
C1242 C 0.25386 0.92193 0.34304 0.0
C1243 C 0.22203 0.90175 0.39524 0.0
H1244 H 0.25218 0.84481 0.3759 0.0
C1245 C 0.21877 0.82064 0.45795 0.0
C1246 C 0.23636 0.80124 0.4547 0.0
C1247 C 0.21794 0.84032 0.44237 0.0
C1248 C 0.24405 0.86044 0.38202 0.0
H1249 H 0.1996 0.96688 0.32474 0.0
H1250 H 0.19814 0.93575 0.35614 0.0
H1251 H 0.25217 0.8776 0.34766 0.0
H1252 H 0.26749 0.78748 0.43369 0.0
H1253 H 0.26695 0.82156 0.40783 0.0
H1254 H 0.21467 0.88473 0.42994 0.0
C1255 C 0.21404 0.93679 0.34782 0.0
C1256 C 0.24388 0.87933 0.36558 0.0
C1257 C 0.21489 0.95457 0.3298 0.0
C1258 C 0.25355 0.80212 0.43641 0.0
C1259 C 0.25304 0.82176 0.42132 0.0
C1260 C 0.22262 0.88278 0.41197 0.0
C1261 C 0.23354 0.92008 0.35433 0.0
C1262 C 0.23294 0.9002 0.37196 0.0
C1263 C 0.23493 0.84115 0.42347 0.0
C1264 C 0.23379 0.86172 0.40571 0.0
H1265 H 0.27075 0.9405 0.31705 0.0
H1266 H 0.26916 0.90936 0.34772 0.0
H1267 H 0.21353 0.91765 0.4007 0.0
H1268 H 0.20522 0.82041 0.47185 0.0
H1269 H 0.20359 0.85466 0.44475 0.0
C1270 C 0.96277 0.67464 0.6393 0.0
C1271 C 0.98143 0.6794 0.64187 0.0
C1272 C 0.962 0.66653 0.61913 0.0
C1273 C -0.00094 0.63492 0.57397 0.0
H1274 H 0.94484 0.64738 0.54699 0.0
C1275 C -0.00364 0.58534 0.50527 0.0
C1276 C 0.97938 0.57618 0.51108 0.0
C1277 C -0.00441 0.60256 0.51616 0.0
C1278 C 0.9601 0.64376 0.55433 0.0
H1279 H 0.01355 0.68027 0.62477 0.0
H1280 H 0.01214 0.66624 0.58929 0.0
H1281 H 0.94581 0.66945 0.57557 0.0
H1282 H 0.94741 0.57914 0.53154 0.0
H1283 H 0.94607 0.60918 0.5506 0.0
H1284 H 0.01306 0.60867 0.55361 0.0
C1285 C -0.00181 0.66859 0.60307 0.0
C1286 C 0.96067 0.65637 0.57069 0.0
C1287 C -0.00107 0.67679 0.62328 0.0
C1288 C 0.96076 0.58581 0.52661 0.0
C1289 C 0.95998 0.60307 0.53753 0.0
C1290 C -0.00154 0.62231 0.55767 0.0
C1291 C 0.97988 0.66297 0.60099 0.0
C1292 C 0.98002 0.65176 0.58113 0.0
C1293 C 0.97779 0.61104 0.53311 0.0
C1294 C 0.97888 0.62631 0.548 0.0
H1295 H 0.94889 0.67678 0.65317 0.0
H1296 H 0.94773 0.66218 0.61826 0.0
H1297 H 0.01414 0.63067 0.5819 0.0
H1298 H 0.01087 0.57846 0.49326 0.0
H1299 H 0.00934 0.60865 0.51201 0.0
C1300 C 0.31803 0.75011 0.46743 0.0
C1301 C 0.30609 0.73587 0.46894 0.0
C1302 C 0.33716 0.74842 0.45127 0.0
C1303 C 0.36469 0.72679 0.3949 0.0
H1304 H 0.41347 0.7411 0.4081 0.0
C1305 C 0.44266 0.721 0.32666 0.0
C1306 C 0.45045 0.73879 0.32268 0.0
C1307 C 0.42668 0.71872 0.34591 0.0
C1308 C 0.39992 0.73717 0.40408 0.0
H1309 H 0.30568 0.70796 0.45526 0.0
H1310 H 0.33924 0.70465 0.42759 0.0
H1311 H 0.38296 0.74019 0.43934 0.0
H1312 H 0.44793 0.76776 0.33642 0.0
H1313 H 0.42019 0.76374 0.36991 0.0
H1314 H 0.38161 0.72386 0.35962 0.0
C1315 C 0.33353 0.71754 0.43847 0.0
C1316 C 0.38237 0.73668 0.422 0.0
C1317 C 0.31433 0.71931 0.45454 0.0
C1318 C 0.44236 0.75384 0.3389 0.0
C1319 C 0.42649 0.75148 0.35821 0.0
C1320 C 0.38228 0.72716 0.37704 0.0
C1321 C 0.34499 0.73235 0.43623 0.0
C1322 C 0.36438 0.73168 0.41762 0.0
C1323 C 0.41817 0.73409 0.36177 0.0
C1324 C 0.40005 0.73255 0.3813 0.0
H1325 H 0.31222 0.76311 0.47813 0.0
H1326 H 0.34531 0.76029 0.44999 0.0
H1327 H 0.35101 0.72328 0.3906 0.0
H1328 H 0.44848 0.70908 0.31457 0.0
H1329 H 0.42087 0.70497 0.34827 0.0
C1330 C 0.23534 0.06131 0.17936 0.0
C1331 C 0.25265 0.04998 0.19354 0.0
C1332 C 0.23669 0.07877 0.16119 0.0
C1333 C 0.26508 0.12006 0.14337 0.0
H1334 H 0.24357 0.12977 0.08222 0.0
C1335 C 0.27751 0.1896 0.06962 0.0
C1336 C 0.26044 0.20166 0.05547 0.0
C1337 C 0.27724 0.17005 0.08454 0.0
C1338 C 0.24945 0.12748 0.09928 0.0
H1339 H 0.28524 0.04806 0.19912 0.0
H1340 H 0.28762 0.07828 0.16757 0.0
H1341 H 0.24167 0.09789 0.11176 0.0
H1342 H 0.22938 0.2029 0.04629 0.0
H1343 H 0.22875 0.16875 0.07232 0.0
H1344 H 0.27246 0.14971 0.13136 0.0
C1345 C 0.27284 0.07384 0.17063 0.0
C1346 C 0.24839 0.10912 0.11625 0.0
C1347 C 0.27154 0.05633 0.18867 0.0
C1348 C 0.24321 0.19352 0.05622 0.0
C1349 C 0.24279 0.17399 0.07139 0.0
C1350 C 0.26603 0.13841 0.12653 0.0
C1351 C 0.25534 0.08553 0.1568 0.0
C1352 C 0.25631 0.10507 0.13852 0.0
C1353 C 0.2596 0.16217 0.08619 0.0
C1354 C 0.25838 0.14241 0.10411 0.0
H1355 H 0.22049 0.05697 0.18256 0.0
H1356 H 0.22281 0.08743 0.15108 0.0
H1357 H 0.27089 0.11784 0.16046 0.0
H1358 H 0.29092 0.19556 0.06956 0.0
H1359 H 0.29079 0.16131 0.09511 0.0
C1360 C 0.81924 0.7515 0.96953 0.0
C1361 C 0.80561 0.73955 0.96831 0.0
C1362 C 0.83858 0.7497 0.95379 0.0
C1363 C 0.87931 0.71607 0.91118 0.0
H1364 H 0.88669 0.77139 0.88078 0.0
C1365 C 0.94136 0.72382 0.82657 0.0
C1366 C 0.95123 0.74002 0.82344 0.0
C1367 C 0.92526 0.7222 0.8459 0.0
C1368 C 0.88521 0.75572 0.88934 0.0
H1369 H 0.80243 0.71542 0.95023 0.0
H1370 H 0.83631 0.7122 0.92286 0.0
H1371 H 0.85607 0.77095 0.91167 0.0
H1372 H 0.95262 0.76656 0.83891 0.0
H1373 H 0.92515 0.76334 0.87289 0.0
H1374 H 0.90851 0.70082 0.88884 0.0
C1375 C 0.83194 0.72299 0.93603 0.0
C1376 C 0.86755 0.75549 0.90708 0.0
C1377 C 0.81248 0.72488 0.95173 0.0
C1378 C 0.94525 0.754 0.84063 0.0
C1379 C 0.92932 0.75225 0.86006 0.0
C1380 C 0.89713 0.71627 0.89353 0.0
C1381 C 0.84493 0.73581 0.93648 0.0
C1382 C 0.8643 0.73569 0.91817 0.0
C1383 C 0.91873 0.73664 0.86272 0.0
C1384 C 0.90029 0.73613 0.88226 0.0
H1385 H 0.8147 0.76278 0.98219 0.0
H1386 H 0.84841 0.75949 0.95494 0.0
H1387 H 0.87739 0.70052 0.91952 0.0
H1388 H 0.94546 0.71286 0.81361 0.0
H1389 H 0.91738 0.71013 0.8471 0.0
C1390 C 0.26713 0.55635 0.69025 0.0
C1391 C 0.24954 0.54801 0.69498 0.0
C1392 C 0.2673 0.57391 0.67173 0.0
C1393 C 0.26815 0.60601 0.62466 0.0
H1394 H 0.21211 0.65258 0.61777 0.0
C1395 C 0.25737 0.68442 0.55169 0.0
C1396 C 0.24447 0.70428 0.55974 0.0
C1397 C 0.25831 0.66428 0.56637 0.0
C1398 C 0.22794 0.63978 0.61942 0.0
H1399 H 0.21875 0.55129 0.68306 0.0
H1400 H 0.21918 0.5815 0.65086 0.0
H1401 H 0.21377 0.61968 0.64665 0.0
H1402 H 0.22208 0.71855 0.58924 0.0
H1403 H 0.22365 0.68387 0.61451 0.0
H1404 H 0.28234 0.62657 0.59774 0.0
C1405 C 0.23269 0.57479 0.66171 0.0
C1406 C 0.22886 0.62072 0.63587 0.0
C1407 C 0.23252 0.55728 0.68016 0.0
C1408 C 0.23225 0.70356 0.58246 0.0
C1409 C 0.23303 0.6836 0.59695 0.0
C1410 C 0.2672 0.62512 0.60805 0.0
C1411 C 0.24987 0.58366 0.65743 0.0
C1412 C 0.249 0.60358 0.63896 0.0
C1413 C 0.24613 0.66362 0.58926 0.0
C1414 C 0.24711 0.64242 0.60543 0.0
H1415 H 0.2805 0.54974 0.70129 0.0
H1416 H 0.28074 0.58033 0.66919 0.0
H1417 H 0.28393 0.59314 0.62629 0.0
H1418 H 0.26694 0.68444 0.53425 0.0
H1419 H 0.26844 0.64925 0.55974 0.0
C1420 C 0.3248 0.00452 0.38284 0.0
C1421 C 0.33429 0.98744 0.3692 0.0
C1422 C 0.33564 0.00586 0.40094 0.0
C1423 C 0.38339 0.97609 0.43595 0.0
H1424 H 0.38884 0.03358 0.42776 0.0
C1425 C 0.46025 0.98961 0.45398 0.0
C1426 C 0.45791 0.00808 0.46379 0.0
C1427 C 0.44184 0.98653 0.44839 0.0
C1428 C 0.38717 0.01754 0.43073 0.0
H1429 H 0.36153 0.95734 0.36526 0.0
H1430 H 0.38068 0.95991 0.39637 0.0
H1431 H 0.36154 0.02857 0.40816 0.0
H1432 H 0.43471 0.03776 0.47565 0.0
H1433 H 0.40232 0.03262 0.4654 0.0
H1434 H 0.40984 0.96493 0.45766 0.0
C1435 C 0.36484 0.97224 0.39326 0.0
C1436 C 0.37146 0.01465 0.41951 0.0
C1437 C 0.354 0.97089 0.37521 0.0
C1438 C 0.43685 0.02342 0.46803 0.0
C1439 C 0.4184 0.02047 0.46217 0.0
C1440 C 0.39914 0.97898 0.44715 0.0
C1441 C 0.35618 0.99016 0.40575 0.0
C1442 C 0.36987 0.99376 0.42134 0.0
C1443 C 0.42074 1.00201 0.4522 0.0
C1444 C 0.40167 0.9996 0.44398 0.0
H1445 H 0.30967 0.01758 0.37862 0.0
H1446 H 0.32838 0.0197 0.41048 0.0
H1447 H 0.38231 0.95987 0.43804 0.0
H1448 H 0.47632 0.97742 0.45075 0.0
H1449 H 0.44426 0.97231 0.44042 0.0
C1450 C 0.85113 0.79369 0.06545 0.0
C1451 C 0.84091 0.80367 0.04459 0.0
C1452 C 0.86947 0.79815 0.06925 0.0
C1453 C 0.90803 0.82912 0.04043 0.0
H1454 H 0.89769 0.84617 0.10301 0.0
C1455 C 0.90433 0.90694 0.08052 0.0
C1456 C 0.92249 0.91169 0.06677 0.0
C1457 C 0.90185 0.88678 0.08135 0.0
C1458 C 0.90088 0.84145 0.08546 0.0
H1459 H 0.84245 0.82517 0.01083 0.0
H1460 H 0.87372 0.83348 0.01762 0.0
H1461 H 0.88001 0.82198 0.09586 0.0
H1462 H 0.95314 0.89878 0.04442 0.0
H1463 H 0.9491 0.86326 0.04624 0.0
H1464 H 0.92689 0.85055 0.02931 0.0
C1465 C 0.86822 0.82172 0.03086 0.0
C1466 C 0.89102 0.82722 0.08143 0.0
C1467 C 0.85011 0.81709 0.02699 0.0
C1468 C 0.93876 0.89557 0.05483 0.0
C1469 C 0.93645 0.87526 0.0559 0.0
C1470 C 0.91753 0.8437 0.04433 0.0
C1471 C 0.87769 0.8129 0.05238 0.0
C1472 C 0.8934 0.82197 0.05846 0.0
C1473 C 0.91766 0.87082 0.06868 0.0
C1474 C 0.91297 0.85103 0.06652 0.0
H1475 H 0.84452 0.78297 0.07912 0.0
H1476 H 0.8766 0.79077 0.08582 0.0
H1477 H 0.9108 0.82481 0.02273 0.0
H1478 H 0.89152 0.91917 0.08977 0.0
H1479 H 0.88691 0.88423 0.09094 0.0
C1480 C 0.63871 0.18516 0.53375 0.0
C1481 C 0.64497 0.19069 0.50927 0.0
C1482 C 0.62187 0.17608 0.5412 0.0
C1483 C 0.57652 0.16646 0.52018 0.0
H1484 H 0.60125 0.10656 0.55109 0.0
C1485 C 0.57065 0.09536 0.48755 0.0
C1486 C 0.5686 0.07669 0.50317 0.0
C1487 C 0.57194 0.11278 0.49638 0.0
C1488 C 0.59364 0.12341 0.54318 0.0
H1489 H 0.63799 0.19256 0.47347 0.0
H1490 H 0.60849 0.17698 0.48634 0.0
H1491 H 0.61836 0.13332 0.55257 0.0
H1492 H 0.56554 0.06204 0.54049 0.0
H1493 H 0.56897 0.09224 0.55586 0.0
H1494 H 0.55294 0.15607 0.50905 0.0
C1495 C 0.61644 0.17959 0.49983 0.0
C1496 C 0.60344 0.13875 0.54403 0.0
C1497 C 0.63347 0.18822 0.49242 0.0
C1498 C 0.56763 0.07597 0.52793 0.0
C1499 C 0.56928 0.09334 0.53678 0.0
C1500 C 0.5667 0.15117 0.51938 0.0
C1501 C 0.61081 0.17296 0.52424 0.0
C1502 C 0.59588 0.15994 0.53108 0.0
C1503 C 0.57148 0.11189 0.52103 0.0
C1504 C 0.5762 0.12917 0.52937 0.0
H1505 H 0.64745 0.18703 0.54699 0.0
H1506 H 0.61791 0.17092 0.56009 0.0
H1507 H 0.5702 0.18284 0.5104 0.0
H1508 H 0.57183 0.09635 0.46839 0.0
H1509 H 0.57429 0.1266 0.48375 0.0
C1510 C 0.80764 0.45877 0.23257 0.0
C1511 C 0.78753 0.45467 0.2366 0.0
C1512 C 0.82784 0.44135 0.23177 0.0
C1513 C 0.85135 0.38328 0.22207 0.0
H1514 H 0.89862 0.3787 0.25692 0.0
C1515 C 0.91762 0.30083 0.24736 0.0
C1516 C 0.93976 0.2996 0.24508 0.0
C1517 C 0.90076 0.32104 0.24458 0.0
C1518 C 0.88571 0.37988 0.24681 0.0
H1519 H 0.77289 0.42911 0.24302 0.0
H1520 H 0.80762 0.39913 0.24155 0.0
H1521 H 0.86606 0.41198 0.25483 0.0
H1522 H 0.96155 0.31874 0.23859 0.0
H1523 H 0.93184 0.3544 0.23381 0.0
H1524 H 0.87056 0.3512 0.21438 0.0
C1525 C 0.80804 0.41566 0.23875 0.0
C1526 C 0.86705 0.39896 0.2456 0.0
C1527 C 0.78804 0.43291 0.2397 0.0
C1528 C 0.94464 0.31918 0.24033 0.0
C1529 C 0.92763 0.33957 0.23771 0.0
C1530 C 0.86987 0.36432 0.22329 0.0
C1531 C 0.82825 0.41955 0.23469 0.0
C1532 C 0.84937 0.40065 0.23372 0.0
C1533 C 0.90547 0.34071 0.23953 0.0
C1534 C 0.88706 0.36208 0.23618 0.0
H1535 H 0.80777 0.47537 0.2301 0.0
H1536 H 0.8431 0.44494 0.22855 0.0
H1537 H 0.83833 0.38418 0.21226 0.0
H1538 H 0.91325 0.28608 0.25122 0.0
H1539 H 0.88391 0.32123 0.24661 0.0
C1540 C 0.06716 0.609 0.48214 0.0
C1541 C 0.06224 0.59125 0.49683 0.0
C1542 C 0.06792 0.6261 0.49207 0.0
C1543 C 0.06493 0.66363 0.51474 0.0
H1544 H 0.09894 0.64293 0.56857 0.0
C1545 C 0.12193 0.70762 0.52251 0.0
C1546 C 0.1434 0.6929 0.52472 0.0
C1547 C 0.10384 0.70033 0.52945 0.0
C1548 C 0.08933 0.64909 0.55359 0.0
H1549 H 0.05284 0.57803 0.53326 0.0
H1550 H 0.05397 0.60806 0.55071 0.0
H1551 H 0.08142 0.61985 0.55852 0.0
H1552 H 0.16281 0.65961 0.53765 0.0
H1553 H 0.13176 0.64659 0.54868 0.0
H1554 H 0.07506 0.69161 0.50792 0.0
C1555 C 0.05769 0.60859 0.53155 0.0
C1556 C 0.07896 0.63593 0.548 0.0
C1557 C 0.05715 0.59135 0.52159 0.0
C1558 C 0.14639 0.67128 0.53579 0.0
C1559 C 0.12842 0.66389 0.54232 0.0
C1560 C 0.07575 0.67653 0.51995 0.0
C1561 C 0.06353 0.62598 0.51695 0.0
C1562 C 0.068 0.64242 0.52744 0.0
C1563 C 0.107 0.67806 0.53817 0.0
C1564 C 0.08943 0.66865 0.53838 0.0
H1565 H 0.0713 0.60926 0.46302 0.0
H1566 H 0.07307 0.63885 0.48023 0.0
H1567 H 0.05577 0.66953 0.49941 0.0
H1568 H 0.11925 0.72453 0.51443 0.0
H1569 H 0.08756 0.71185 0.52661 0.0
C1570 C 0.70253 0.08037 0.76881 0.0
C1571 C 0.70312 0.05852 0.77433 0.0
C1572 C 0.68246 0.09759 0.76868 0.0
C1573 C 0.6231 0.11288 0.79111 0.0
H1574 H 0.61938 0.16266 0.74077 0.0
C1575 C 0.54404 0.1911 0.78125 0.0
C1576 C 0.54812 0.2111 0.77593 0.0
C1577 C 0.56162 0.17117 0.78073 0.0
C1578 C 0.62014 0.14897 0.75506 0.0
H1579 H 0.68302 0.03758 0.78456 0.0
H1580 H 0.64764 0.06788 0.78433 0.0
H1581 H 0.65227 0.13034 0.74055 0.0
H1582 H 0.57378 0.22585 0.76612 0.0
H1583 H 0.60413 0.1915 0.76533 0.0
H1584 H 0.59091 0.13185 0.80573 0.0
C1585 C 0.66284 0.07161 0.78012 0.0
C1586 C 0.63905 0.13039 0.75494 0.0
C1587 C 0.68307 0.05427 0.78016 0.0
C1588 C 0.57003 0.21076 0.77024 0.0
C1589 C 0.58748 0.19101 0.76961 0.0
C1590 C 0.60407 0.13156 0.79123 0.0
C1591 C 0.6623 0.09352 0.7741 0.0
C1592 C 0.64106 0.11228 0.77325 0.0
C1593 C 0.58358 0.17092 0.77468 0.0
C1594 C 0.60259 0.15006 0.77349 0.0
H1595 H 0.71766 0.08423 0.76434 0.0
H1596 H 0.68276 0.11419 0.76444 0.0
H1597 H 0.6241 0.09926 0.80552 0.0
H1598 H 0.5273 0.19086 0.7857 0.0
H1599 H 0.55802 0.15601 0.78466 0.0
C1600 C 0.76978 0.56228 0.18937 0.0
C1601 C 0.75314 0.55292 0.19185 0.0
C1602 C 0.77027 0.5802 0.17158 0.0
C1603 C 0.7508 0.61115 0.11367 0.0
H1604 H 0.75965 0.659 0.13445 0.0
C1605 C 0.74312 0.69556 0.0517 0.0
C1606 C 0.756 0.70733 0.05546 0.0
C1607 C 0.74296 0.67596 0.06698 0.0
C1608 C 0.75758 0.64572 0.12802 0.0
H1609 H 0.72432 0.5549 0.17675 0.0
H1610 H 0.72546 0.58595 0.1454 0.0
H1611 H 0.75954 0.62636 0.16285 0.0
H1612 H 0.77961 0.70722 0.07735 0.0
H1613 H 0.78031 0.67293 0.10293 0.0
H1614 H 0.74925 0.6304 0.07866 0.0
C1615 C 0.73809 0.5794 0.15738 0.0
C1616 C 0.75741 0.62694 0.1445 0.0
C1617 C 0.73742 0.5616 0.17542 0.0
C1618 C 0.76938 0.69863 0.07407 0.0
C1619 C 0.76953 0.679 0.089 0.0
C1620 C 0.75127 0.62992 0.09701 0.0
C1621 C 0.75429 0.58922 0.15549 0.0
C1622 C 0.75414 0.6093 0.1376 0.0
C1623 C 0.75588 0.66756 0.08623 0.0
C1624 C 0.75485 0.6475 0.10387 0.0
H1625 H 0.78216 0.55617 0.20163 0.0
H1626 H 0.78316 0.58713 0.17051 0.0
H1627 H 0.74831 0.59787 0.10769 0.0
H1628 H 0.73248 0.70197 0.03763 0.0
H1629 H 0.73211 0.66786 0.06418 0.0
C1630 C 0.94398 0.51898 0.45907 0.0
C1631 C 0.96602 0.50542 0.45585 0.0
C1632 C 0.92725 0.51299 0.45345 0.0
C1633 C 0.91968 0.47869 0.41535 0.0
H1634 H 0.85992 0.49547 0.4474 0.0
C1635 C 0.85179 0.46891 0.37452 0.0
C1636 C 0.83437 0.48872 0.37045 0.0
C1637 C 0.86611 0.46602 0.39111 0.0
C1638 C 0.87658 0.49056 0.43839 0.0
H1639 H 0.98796 0.47454 0.44549 0.0
H1640 H 0.95884 0.46375 0.43638 0.0
H1641 H 0.88924 0.49995 0.46468 0.0
H1642 H 0.81679 0.52003 0.38235 0.0
H1643 H 0.84198 0.51517 0.41101 0.0
H1644 H 0.9071 0.4699 0.38877 0.0
C1645 C 0.95439 0.47932 0.44247 0.0
C1646 C 0.89333 0.49323 0.44818 0.0
C1647 C 0.97108 0.48549 0.44768 0.0
C1648 C 0.83033 0.50474 0.38486 0.0
C1649 C 0.84462 0.50185 0.40146 0.0
C1650 C 0.90303 0.47589 0.4057 0.0
C1651 C 0.93231 0.49319 0.4448 0.0
C1652 C 0.91497 0.48786 0.4364 0.0
C1653 C 0.86325 0.48288 0.40394 0.0
C1654 C 0.8812 0.48231 0.41675 0.0
H1655 H 0.93976 0.5344 0.46543 0.0
H1656 H 0.91048 0.52421 0.45518 0.0
H1657 H 0.93602 0.47471 0.40553 0.0
H1658 H 0.85534 0.45626 0.36369 0.0
H1659 H 0.88016 0.45109 0.39293 0.0
C1660 C 0.13609 0.54506 0.63731 0.0
C1661 C 0.15252 0.52462 0.64208 0.0
C1662 C 0.12276 0.54903 0.61935 0.0
C1663 C 0.11421 0.52597 0.56955 0.0
H1664 H 0.05312 0.54551 0.59723 0.0
C1665 C 0.04738 0.5012 0.5419 0.0
C1666 C 0.02548 0.51521 0.54409 0.0
C1667 C 0.06388 0.50651 0.54906 0.0
C1668 C 0.06999 0.54049 0.58881 0.0
H1669 H 0.16945 0.4932 0.63022 0.0
H1670 H 0.14595 0.49988 0.59929 0.0
H1671 H 0.08116 0.54869 0.61693 0.0
H1672 H 0.00363 0.54637 0.55381 0.0
H1673 H 0.03241 0.55618 0.56516 0.0
H1674 H 0.10301 0.51697 0.54187 0.0
C1675 C 0.14332 0.51292 0.60927 0.0
C1676 C 0.08613 0.54237 0.60016 0.0
C1677 C 0.15664 0.50897 0.6272 0.0
C1678 C 0.0204 0.53508 0.55239 0.0
C1679 C 0.03691 0.54066 0.55895 0.0
C1680 C 0.098 0.52413 0.55812 0.0
C1681 C 0.12563 0.53262 0.60586 0.0
C1682 C 0.10849 0.53453 0.59108 0.0
C1683 C 0.05878 0.5262 0.55797 0.0
C1684 C 0.07575 0.5308 0.568 0.0
H1685 H 0.13253 0.55745 0.64847 0.0
H1686 H 0.10945 0.56451 0.61686 0.0
H1687 H 0.13129 0.52003 0.56196 0.0
H1688 H 0.05162 0.48583 0.53542 0.0
H1689 H 0.08046 0.49484 0.54829 0.0
C1690 C 0.53932 0.75188 0.17612 0.0
C1691 C 0.531 0.76705 0.1922 0.0
C1692 C 0.55551 0.75404 0.1571 0.0
C1693 C 0.60004 0.77798 0.13921 0.0
H1694 H 0.60004 0.76534 0.07652 0.0
C1695 C 0.66809 0.78691 0.06218 0.0
C1696 C 0.67631 0.7708 0.04722 0.0
C1697 C 0.64908 0.78817 0.07843 0.0
C1698 C 0.60045 0.76871 0.09398 0.0
H1699 H 0.53291 0.79676 0.20038 0.0
H1700 H 0.56107 0.80053 0.16722 0.0
H1701 H 0.56924 0.76436 0.10733 0.0
H1702 H 0.67047 0.74365 0.03742 0.0
H1703 H 0.63773 0.74554 0.0659 0.0
H1704 H 0.63141 0.78183 0.12619 0.0
C1705 C 0.55519 0.78683 0.16945 0.0
C1706 C 0.58273 0.76819 0.11165 0.0
C1707 C 0.5389 0.78476 0.18838 0.0
C1708 C 0.66466 0.75633 0.04855 0.0
C1709 C 0.64573 0.7575 0.06488 0.0
C1710 C 0.6178 0.77837 0.12161 0.0
C1711 C 0.56393 0.77135 0.15374 0.0
C1712 C 0.58233 0.77273 0.13454 0.0
C1713 C 0.63779 0.77326 0.08029 0.0
C1714 C 0.61835 0.77365 0.09875 0.0
H1715 H 0.53368 0.73801 0.17848 0.0
H1716 H 0.56197 0.74171 0.14549 0.0
H1717 H 0.60048 0.7812 0.15673 0.0
H1718 H 0.6765 0.79844 0.06161 0.0
H1719 H 0.64329 0.80081 0.08962 0.0
C1720 C 0.63432 0.53677 0.13872 0.0
C1721 C 0.65206 0.51735 0.14341 0.0
C1722 C 0.61951 0.5382 0.12332 0.0
C1723 C 0.60828 0.51052 0.07967 0.0
H1724 H 0.54895 0.52865 0.11261 0.0
C1725 C 0.53793 0.48611 0.05874 0.0
C1726 C 0.51661 0.50149 0.06021 0.0
C1727 C 0.55527 0.49026 0.06568 0.0
C1728 C 0.5653 0.52391 0.10286 0.0
H1729 H 0.66954 0.4851 0.13379 0.0
H1730 H 0.64349 0.48745 0.10718 0.0
H1731 H 0.57851 0.53346 0.12833 0.0
H1732 H 0.49658 0.53339 0.06941 0.0
H1733 H 0.52682 0.54102 0.0806 0.0
H1734 H 0.59494 0.50059 0.05439 0.0
C1735 C 0.64099 0.50157 0.11536 0.0
C1736 C 0.58228 0.52673 0.11187 0.0
C1737 C 0.6558 0.50014 0.13079 0.0
C1738 C 0.51286 0.52114 0.0684 0.0
C1739 C 0.53019 0.52548 0.07485 0.0
C1740 C 0.5912 0.50781 0.07053 0.0
C1741 C 0.62217 0.52025 0.11232 0.0
C1742 C 0.60401 0.51977 0.10062 0.0
C1743 C 0.55156 0.51002 0.07382 0.0
C1744 C 0.56958 0.51416 0.08228 0.0
H1745 H 0.63096 0.55031 0.14821 0.0
H1746 H 0.60532 0.55294 0.12099 0.0
H1747 H 0.62487 0.50512 0.07056 0.0
H1748 H 0.54114 0.47085 0.05244 0.0
H1749 H 0.57148 0.47789 0.06496 0.0
C1750 C 0.41019 0.40341 0.05956 0.0
C1751 C 0.41698 0.41665 0.03951 0.0
C1752 C 0.4109 0.38253 0.05793 0.0
C1753 C 0.40638 0.352 0.01517 0.0
H1754 H 0.41393 0.30647 0.07069 0.0
C1755 C 0.36137 0.29179 0.02722 0.0
C1756 C 0.34647 0.2946 0.04816 0.0
C1757 C 0.38022 0.2977 0.02439 0.0
C1758 C 0.41217 0.3188 0.05484 0.0
H1759 H 0.43006 0.41822 1.00199 0.0
H1760 H 0.43109 0.38163 0.9991 0.0
H1761 H 0.42854 0.3361 0.06794 0.0
H1762 H 0.3407 0.30328 0.08353 0.0
H1763 H 0.3734 0.31382 0.07861 0.0
H1764 H 0.38869 0.33567 1.00282 0.0
C1765 C 0.42526 0.3875 0.0161 0.0
C1766 C 0.42042 0.33579 0.0533 0.0
C1767 C 0.42448 0.4085 0.01772 0.0
C1768 C 0.35182 0.30126 0.06711 0.0
C1769 C 0.3707 0.30702 0.06436 0.0
C1770 C 0.39823 0.33497 0.01665 0.0
C1771 C 0.41838 0.37434 0.0362 0.0
C1772 C 0.41626 0.3533 0.03422 0.0
C1773 C 0.38446 0.30639 0.04251 0.0
C1774 C 0.39978 0.31903 0.03724 0.0
H1775 H 0.40388 0.40935 0.07648 0.0
H1776 H 0.40479 0.37312 0.07357 0.0
H1777 H 0.40293 0.36521 1.00022 0.0
H1778 H 0.3576 0.28667 0.01232 0.0
H1779 H 0.39063 0.29693 1.00745 0.0
C1780 C 0.04393 0.18914 0.27952 0.0
C1781 C 0.04841 0.20894 0.27419 0.0
C1782 C 0.06128 0.169 0.2793 0.0
C1783 C 0.12009 0.14587 0.25464 0.0
H1784 H 0.1227 0.09647 0.30522 0.0
C1785 C 0.2017 0.07678 0.27061 0.0
C1786 C 0.20211 0.05498 0.27574 0.0
C1787 C 0.18173 0.09412 0.27007 0.0
C1788 C 0.12209 0.11001 0.29079 0.0
H1789 H 0.07454 0.2231 0.26463 0.0
H1790 H 0.10443 0.18843 0.26437 0.0
H1791 H 0.08978 0.12937 0.30472 0.0
H1792 H 0.18177 0.03427 0.2848 0.0
H1793 H 0.14655 0.0648 0.28394 0.0
H1794 H 0.15237 0.12687 0.24088 0.0
C1795 C 0.08766 0.18824 0.26843 0.0
C1796 C 0.1032 0.12887 0.29049 0.0
C1797 C 0.07047 0.20818 0.26875 0.0
C1798 C 0.18196 0.05092 0.28077 0.0
C1799 C 0.16182 0.06839 0.28035 0.0
C1800 C 0.13886 0.12714 0.25496 0.0
C1801 C 0.08339 0.16834 0.27353 0.0
C1802 C 0.1022 0.14726 0.27271 0.0
C1803 C 0.16149 0.09024 0.27469 0.0
C1804 C 0.14038 0.10914 0.27333 0.0
H1805 H 0.02708 0.18923 0.28377 0.0
H1806 H 0.05738 0.154 0.28324 0.0
H1807 H 0.11972 0.15945 0.24032 0.0
H1808 H 0.21691 0.0805 0.26674 0.0
H1809 H 0.18217 0.11067 0.2661 0.0
C1810 C 0.24059 0.3147 0.96189 0.0
C1811 C 0.22382 0.30609 0.96205 0.0
C1812 C 0.24101 0.3342 0.94663 0.0
C1813 C 0.21926 0.3685 0.89031 0.0
H1814 H 0.24088 0.41075 0.90584 0.0
C1815 C 0.21269 0.45022 0.82736 0.0
C1816 C 0.23104 0.4574 0.82303 0.0
C1817 C 0.21151 0.43282 0.84559 0.0
C1818 C 0.23494 0.39903 0.90114 0.0
H1819 H 0.19409 0.31139 0.94686 0.0
H1820 H 0.19423 0.34554 0.92112 0.0
H1821 H 0.23913 0.37889 0.93554 0.0
H1822 H 0.2623 0.45205 0.83523 0.0
H1823 H 0.26021 0.42173 0.86705 0.0
H1824 H 0.21504 0.3885 0.85602 0.0
C1825 C 0.20743 0.33719 0.93222 0.0
C1826 C 0.23396 0.38069 0.9182 0.0
C1827 C 0.20717 0.31769 0.94724 0.0
C1828 C 0.24788 0.44706 0.838 0.0
C1829 C 0.24665 0.42966 0.85635 0.0
C1830 C 0.22014 0.38681 0.87338 0.0
C1831 C 0.22466 0.3455 0.93115 0.0
C1832 C 0.22596 0.36517 0.91311 0.0
C1833 C 0.22862 0.42202 0.86015 0.0
C1834 C 0.22788 0.40244 0.87851 0.0
H1835 H 0.2541 0.30571 0.97239 0.0
H1836 H 0.25472 0.33981 0.94619 0.0
H1837 H 0.21359 0.35673 0.88529 0.0
H1838 H 0.19934 0.45774 0.81633 0.0
H1839 H 0.19717 0.42773 0.84819 0.0
C1840 C 0.31867 0.2527 0.96711 0.0
C1841 C 0.30573 0.2396 0.96754 0.0
C1842 C 0.33808 0.25044 0.95141 0.0
C1843 C 0.36574 0.22968 0.89473 0.0
H1844 H 0.41554 0.24011 0.9113 0.0
C1845 C 0.44558 0.22202 0.82951 0.0
C1846 C 0.45373 0.2395 0.82627 0.0
C1847 C 0.4292 0.21984 0.84825 0.0
C1848 C 0.40173 0.23724 0.90638 0.0
H1849 H 0.30372 0.21323 0.95226 0.0
H1850 H 0.33785 0.20894 0.92529 0.0
H1851 H 0.38409 0.23975 0.94138 0.0
H1852 H 0.45153 0.26794 0.84085 0.0
H1853 H 0.42311 0.26401 0.87362 0.0
H1854 H 0.38343 0.22718 0.85973 0.0
C1855 C 0.33268 0.22135 0.93673 0.0
C1856 C 0.38364 0.23709 0.92361 0.0
C1857 C 0.31314 0.2237 0.95235 0.0
C1858 C 0.44568 0.25426 0.84279 0.0
C1859 C 0.42942 0.25197 0.86165 0.0
C1860 C 0.3839 0.22966 0.87759 0.0
C1861 C 0.34527 0.23492 0.93578 0.0
C1862 C 0.36525 0.23358 0.91795 0.0
C1863 C 0.42067 0.23497 0.86434 0.0
C1864 C 0.40201 0.23369 0.88311 0.0
H1865 H 0.31354 0.26518 0.97846 0.0
H1866 H 0.34707 0.26142 0.95104 0.0
H1867 H 0.3518 0.22731 0.8895 0.0
H1868 H 0.45137 0.21034 0.81716 0.0
H1869 H 0.42302 0.20641 0.85 0.0
C1870 C 0.4637 0.47542 0.96161 0.0
C1871 C 0.46008 0.49609 0.96732 0.0
C1872 C 0.44646 0.47049 0.95578 0.0
C1873 C 0.38556 0.49009 0.95563 0.0
H1874 H 0.40084 0.46175 0.89946 0.0
C1875 C 0.32596 0.50296 0.88806 0.0
C1876 C 0.32918 0.48616 0.87503 0.0
C1877 C 0.33951 0.49985 0.90551 0.0
C1878 C 0.39628 0.46919 0.91552 0.0
H1879 H 0.43579 0.52774 0.97174 0.0
H1880 H 0.4057 0.51962 0.96024 0.0
H1881 H 0.42976 0.46485 0.91791 0.0
H1882 H 0.34783 0.45231 0.87149 0.0
H1883 H 0.37131 0.44675 0.90226 0.0
H1884 H 0.35185 0.49534 0.95232 0.0
C1885 C 0.42169 0.50695 0.961 0.0
C1886 C 0.41291 0.47101 0.92611 0.0
C1887 C 0.4389 0.51171 0.96733 0.0
C1888 C 0.34495 0.46557 0.88123 0.0
C1889 C 0.35852 0.46245 0.8987 0.0
C1890 C 0.36885 0.48833 0.94493 0.0
C1891 C 0.42534 0.48633 0.95494 0.0
C1892 C 0.40773 0.48199 0.94589 0.0
C1893 C 0.35655 0.47985 0.91027 0.0
C1894 C 0.37402 0.47835 0.92438 0.0
H1895 H 0.47986 0.46295 0.96182 0.0
H1896 H 0.44975 0.45434 0.95165 0.0
H1897 H 0.38109 0.49825 0.97116 0.0
H1898 H 0.31368 0.5189 0.88391 0.0
H1899 H 0.33759 0.51361 0.91402 0.0
C1900 C 0.63777 0.68331 0.01323 0.0
C1901 C 0.63867 0.70113 0.99547 0.0
C1902 C 0.62089 0.67467 0.01524 0.0
C1903 C 0.59045 0.66716 0.97381 0.0
H1904 H 0.57011 0.63234 0.02979 0.0
C1905 C 0.55349 0.59128 0.99989 0.0
C1906 C 0.56955 0.5767 0.98588 0.0
C1907 C 0.55539 0.61124 1.00127 0.0
C1908 C 0.57527 0.64228 0.014 0.0
H1909 H 0.62127 0.72568 0.96799 0.0
H1910 H 0.59175 0.71046 0.97142 0.0
H1911 H 0.58291 0.66141 0.03469 0.0
H1912 H 0.59998 0.57182 0.9619 0.0
H1913 H 0.60329 0.60683 0.96414 0.0
H1914 H 0.5839 0.64734 0.95318 0.0
C1915 C 0.60429 0.70295 0.98347 0.0
C1916 C 0.58266 0.65883 0.01681 0.0
C1917 C 0.6212 0.71157 0.98144 0.0
C1918 C 0.58727 0.58277 0.97271 0.0
C1919 C 0.5891 0.60282 0.97393 0.0
C1920 C 0.58316 0.6506 0.97102 0.0
C1921 C 0.60464 0.68373 0.99951 0.0
C1922 C 0.59124 0.67075 0.99677 0.0
C1923 C 0.57328 0.61713 0.9884 0.0
C1924 C 0.57646 0.6374 0.99112 0.0
H1925 H 0.65104 0.67492 0.02426 0.0
H1926 H 0.62174 0.65974 0.02766 0.0
H1927 H 0.59711 0.67593 0.95799 0.0
H1928 H 0.53937 0.58726 0.00969 0.0
H1929 H 0.54291 0.62207 0.0124 0.0
C1930 C 0.91442 0.79972 0.74774 0.0
C1931 C 0.9366 0.79851 0.74228 0.0
C1932 C 0.89752 0.81993 0.74749 0.0
C1933 C 0.88325 0.87894 0.7237 0.0
H1934 H 0.8338 0.8831 0.77333 0.0
C1935 C 0.80587 0.95852 0.73108 0.0
C1936 C 0.78545 0.95498 0.7365 0.0
C1937 C 0.82574 0.94071 0.73201 0.0
C1938 C 0.84739 0.88223 0.75922 0.0
H1939 H 0.95848 0.81764 0.73208 0.0
H1940 H 0.92873 0.85327 0.73158 0.0
H1941 H 0.86583 0.84992 0.77468 0.0
H1942 H 0.76992 0.93003 0.74671 0.0
H1943 H 0.80415 0.89931 0.74817 0.0
H1944 H 0.86445 0.91132 0.70813 0.0
C1945 C 0.92448 0.83845 0.73597 0.0
C1946 C 0.8658 0.86315 0.76 0.0
C1947 C 0.94152 0.81808 0.73634 0.0
C1948 C 0.78533 0.93337 0.74252 0.0
C1949 C 0.80502 0.91571 0.74355 0.0
C1950 C 0.86472 0.89814 0.72293 0.0
C1951 C 0.90224 0.8396 0.74176 0.0
C1952 C 0.88378 0.86099 0.74197 0.0
C1953 C 0.82552 0.91905 0.73855 0.0
C1954 C 0.84632 0.8998 0.74039 0.0
H1955 H 0.91004 0.78497 0.75232 0.0
H1956 H 0.88063 0.8201 0.75159 0.0
H1957 H 0.89676 0.87784 0.70948 0.0
H1958 H 0.80647 0.975 0.72631 0.0
H1959 H 0.84122 0.94389 0.72808 0.0
C1960 C 0.50921 0.14976 0.64447 0.0
C1961 C 0.49884 0.17236 0.64451 0.0
C1962 C 0.50854 0.14021 0.62533 0.0
C1963 C 0.47466 0.14852 0.57777 0.0
H1964 H 0.52326 0.09897 0.5575 0.0
C1965 C 0.49979 0.07846 0.51206 0.0
C1966 C 0.4815 0.07125 0.51897 0.0
C1967 C 0.50166 0.09478 0.52254 0.0
C1968 C 0.50966 0.11307 0.56252 0.0
H1969 H 0.48045 0.20279 0.62387 0.0
H1970 H 0.47919 0.18605 0.59044 0.0
H1971 H 0.52872 0.11984 0.58449 0.0
H1972 H 0.44996 0.07678 0.54104 0.0
H1973 H 0.45318 0.10524 0.55939 0.0
H1974 H 0.45557 0.14157 0.55591 0.0
C1975 C 0.48761 0.1757 0.60542 0.0
C1976 C 0.5127 0.12483 0.57829 0.0
C1977 C 0.48832 0.18528 0.62458 0.0
C1978 C 0.46424 0.08198 0.53521 0.0
C1979 C 0.4661 0.09833 0.54575 0.0
C1980 C 0.47164 0.13676 0.56192 0.0
C1981 C 0.49746 0.15301 0.60574 0.0
C1982 C 0.49508 0.14236 0.58658 0.0
C1983 C 0.48522 0.10431 0.5402 0.0
C1984 C 0.48898 0.11862 0.55451 0.0
H1985 H 0.51713 0.13923 0.65967 0.0
H1986 H 0.51598 0.12263 0.62637 0.0
H1987 H 0.4607 0.16183 0.58391 0.0
H1988 H 0.51324 0.07069 0.49945 0.0
H1989 H 0.51639 0.09932 0.5175 0.0
C1990 C 0.48076 0.33087 0.897 0.0
C1991 C 0.49828 0.32876 0.87846 0.0
C1992 C 0.48127 0.33872 0.91756 0.0
C1993 C 0.51839 0.35075 0.95075 0.0
H1994 H 0.46574 0.39805 0.96829 0.0
C1995 C 0.51952 0.42211 0.99156 0.0
C1996 C 0.50089 0.43308 1.00624 0.0
C1997 C 0.51984 0.40427 0.98202 0.0
C1998 C 0.48046 0.38455 0.96409 0.0
H1999 H 0.53064 0.33193 0.86759 0.0
H2000 H 0.53141 0.3459 0.90307 0.0
H2001 H 0.46478 0.37601 0.93999 0.0
H2002 H 0.46886 0.43255 0.02428 0.0
H2003 H 0.46994 0.40086 1.00831 0.0
H2004 H 0.53429 0.35993 0.97417 0.0
C2005 C 0.51729 0.34143 0.90192 0.0
C2006 C 0.4799 0.37189 0.9478 0.0
C2007 C 0.51674 0.33368 0.8814 0.0
C2008 C 0.48339 0.42465 0.01282 0.0
C2009 C 0.48386 0.40664 1.00348 0.0
C2010 C 0.51896 0.36342 0.96705 0.0
C2011 C 0.49939 0.34446 0.92005 0.0
C2012 C 0.49905 0.3553 0.94034 0.0
C2013 C 0.50164 0.39686 0.98715 0.0
C2014 C 0.50018 0.38091 0.97333 0.0
H2015 H 0.46628 0.32726 0.89523 0.0
H2016 H 0.4673 0.34069 0.9313 0.0
H2017 H 0.53331 0.33779 0.94575 0.0
H2018 H 0.53327 0.42817 0.98607 0.0
H2019 H 0.53378 0.39724 0.9694 0.0
C2020 C 0.51185 0.83477 0.37615 0.0
C2021 C 0.49178 0.83374 0.37198 0.0
C2022 C 0.5126 0.84509 0.39463 0.0
C2023 C 0.47647 0.88724 0.43051 0.0
H2024 H 0.52685 0.86899 0.46589 0.0
C2025 C 0.47899 0.93718 0.4991 0.0
C2026 C 0.49826 0.94262 0.49649 0.0
C2027 C 0.47844 0.9208 0.48771 0.0
C2028 C 0.5127 0.8743 0.4561 0.0
H2029 H 0.45697 0.84162 0.38471 0.0
H2030 H 0.45828 0.85936 0.41722 0.0
H2031 H 0.52509 0.84582 0.43895 0.0
H2032 H 0.53262 0.93381 0.48133 0.0
H2033 H 0.53171 0.90498 0.46173 0.0
H2034 H 0.46423 0.91584 0.44725 0.0
C2035 C 0.47338 0.85266 0.40586 0.0
C2036 C 0.51169 0.86106 0.44065 0.0
C2037 C 0.47262 0.84246 0.38728 0.0
C2038 C 0.51747 0.9301 0.48373 0.0
C2039 C 0.51697 0.91353 0.4725 0.0
C2040 C 0.47743 0.90039 0.44599 0.0
C2041 C 0.49329 0.85452 0.40944 0.0
C2042 C 0.49368 0.86752 0.42742 0.0
C2043 C 0.49723 0.90923 0.4737 0.0
C2044 C 0.49566 0.89421 0.45877 0.0
H2045 H 0.52686 0.82844 0.36448 0.0
H2046 H 0.52816 0.84648 0.39662 0.0
H2047 H 0.46256 0.89299 0.42029 0.0
H2048 H 0.46398 0.9463 0.50896 0.0
H2049 H 0.46308 0.91768 0.48917 0.0
C2050 C 0.45603 0.57972 0.02956 0.0
C2051 C 0.47688 0.56512 0.02247 0.0
C2052 C 0.45424 0.59782 0.0397 0.0
C2053 C 0.48686 0.63031 0.05074 0.0
H2054 H 0.44705 0.63683 0.1095 0.0
C2055 C 0.50089 0.66377 0.12868 0.0
C2056 C 0.48255 0.67639 0.1424 0.0
C2057 C 0.49803 0.65475 0.11017 0.0
C2058 C 0.45796 0.63558 0.0929 0.0
H2059 H 0.51212 0.55868 0.0197 0.0
H2060 H 0.50895 0.5894 0.03819 0.0
H2061 H 0.44547 0.6131 0.0834 0.0
H2062 H 0.44684 0.69003 0.14692 0.0
H2063 H 0.44186 0.67437 0.11446 0.0
H2064 H 0.49998 0.65208 0.06088 0.0
C2065 C 0.494 0.58744 0.03512 0.0
C2066 C 0.45702 0.62198 0.07788 0.0
C2067 C 0.49579 0.56963 0.02468 0.0
C2068 C 0.46131 0.6805 0.13658 0.0
C2069 C 0.45845 0.67137 0.11814 0.0
C2070 C 0.48785 0.64384 0.06583 0.0
C2071 C 0.47326 0.60156 0.04313 0.0
C2072 C 0.47186 0.61872 0.05694 0.0
C2073 C 0.47676 0.65805 0.10502 0.0
C2074 C 0.47378 0.64619 0.08738 0.0
H2075 H 0.44112 0.57676 0.02808 0.0
H2076 H 0.43799 0.60852 0.04548 0.0
H2077 H 0.49828 0.62846 0.03453 0.0
H2078 H 0.51746 0.66051 0.13257 0.0
H2079 H 0.51249 0.64441 0.10057 0.0
loop_
_geom_bond_atom_site_label_1
_geom_bond_atom_site_label_2
_geom_bond_distance
_geom_bond_site_symmetry_2
_ccdc_geom_bond_type
Ho0 C3 2.811 . S
Ho0 O20 2.292 1_654 S
Ho0 O22 2.378 . S
Ho0 O23 2.524 . S
Ho0 O24 2.381 1_655 S
Ho0 O25 2.669 1_655 S
Ho0 O27 2.346 1_565 S
Ho0 O31 2.305 1_564 S
Ho1 C12 2.811 . S
Ho1 O21 2.346 1_545 S
Ho1 O25 2.305 1_546 S
Ho1 O26 2.322 1_456 S
Ho1 O28 2.378 . S
Ho1 O29 2.524 . S
Ho1 O30 2.381 1_455 S
Ho1 O31 2.669 1_455 S
C2 O20 1.303 . S
C2 O21 1.268 . S
C3 Ho0 2.811 . S
C3 C4 1.488 . S
C3 O22 1.215 . S
C3 O23 1.289 . S
C4 C3 1.488 . S
C4 C5 1.348 . S
C4 C9 1.413 . S
C5 C4 1.348 . S
C5 C6 1.442 . S
C5 H32 0.930 1_554 S
C6 C5 1.442 . S
C6 C7 1.381 . S
C6 H33 0.931 1_554 S
C7 C6 1.381 . S
C7 C8 1.321 . S
C8 C7 1.321 . S
C8 C9 1.403 . S
C8 H34 0.934 . S
C9 C4 1.413 . S
C9 C8 1.403 . S
C9 H35 0.930 . S
C10 O24 1.275 . S
C10 O25 1.256 . S
C11 O26 1.259 . S
C11 O27 1.268 . S
C12 Ho1 2.811 . S
C12 C13 1.488 . S
C12 O28 1.215 . S
C12 O29 1.289 . S
C13 C12 1.488 . S
C13 C14 1.348 . S
C13 C18 1.413 . S
C14 C13 1.348 . S
C14 C15 1.442 . S
C14 H36 0.930 1_556 S
C15 C14 1.442 . S
C15 C16 1.381 . S
C15 H37 0.931 1_556 S
C16 C15 1.381 . S
C16 C17 1.321 . S
C17 C16 1.321 . S
C17 C18 1.403 . S
C17 H38 0.934 . S
C18 C13 1.413 . S
C18 C17 1.403 . S
C18 H39 0.930 . S
C19 O30 1.275 . S
C19 O31 1.256 . S
O20 Ho0 2.292 1_456 S
O20 C2 1.303 . S
O21 Ho1 2.346 1_565 S
O21 C2 1.268 . S
O22 Ho0 2.378 . S
O22 C3 1.215 . S
O23 Ho0 2.524 . S
O23 C3 1.289 . S
O24 Ho0 2.381 1_455 S
O24 C10 1.275 . S
O25 Ho0 2.669 1_455 S
O25 Ho1 2.305 1_564 S
O25 C10 1.256 . S
O26 Ho1 2.322 1_654 S
O26 C11 1.259 . S
O27 Ho0 2.346 1_545 S
O27 C11 1.268 . S
O28 Ho1 2.378 . S
O28 C12 1.215 . S
O29 Ho1 2.524 . S
O29 C12 1.289 . S
O30 Ho1 2.381 1_655 S
O30 C19 1.275 . S
O31 Ho0 2.305 1_546 S
O31 Ho1 2.669 1_655 S
O31 C19 1.256 . S
H32 C5 0.930 1_556 S
H33 C6 0.931 1_556 S
H34 C8 0.934 . S
H35 C9 0.930 . S
H36 C14 0.930 1_554 S
H37 C15 0.931 1_554 S
H38 C17 0.934 . S
H39 C18 0.930 . S
Ho40 C43 2.811 . S
Ho40 O60 2.322 1_455 S
Ho40 O62 2.378 . S
Ho40 O63 2.524 1_455 S
Ho40 O64 2.381 . S
Ho40 O65 2.669 . S
Ho40 O67 2.346 . S
Ho40 O71 2.305 1_455 S
Ho41 C52 2.811 . S
Ho41 O61 2.346 . S
Ho41 O65 2.305 1_655 S
Ho41 O66 2.322 1_655 S
Ho41 O68 2.378 . S
Ho41 O69 2.524 1_655 S
Ho41 O70 2.381 . S
Ho41 O71 2.669 . S
C42 O60 1.259 . S
C42 O61 1.268 . S
C43 Ho40 2.811 . S
C43 C44 1.488 . S
C43 O62 1.215 . S
C43 O63 1.289 1_455 S
C44 C43 1.488 . S
C44 C45 1.348 1_455 S
C44 C49 1.413 . S
C45 C44 1.348 1_655 S
C45 C46 1.442 . S
C45 H72 0.930 . S
C46 C45 1.442 . S
C46 C47 1.381 . S
C46 H73 0.931 . S
C47 C46 1.381 . S
C47 C48 1.321 1_655 S
C48 C47 1.321 1_455 S
C48 C49 1.403 . S
C48 H74 0.934 . S
C49 C44 1.413 . S
C49 C48 1.403 . S
C49 H75 0.930 . S
C50 O64 1.275 . S
C50 O65 1.256 . S
C51 O66 1.259 . S
C51 O67 1.268 . S
C52 Ho41 2.811 . S
C52 C53 1.488 . S
C52 O68 1.215 . S
C52 O69 1.289 1_655 S
C53 C52 1.488 . S
C53 C54 1.348 1_655 S
C53 C58 1.413 . S
C54 C53 1.348 1_455 S
C54 C55 1.442 . S
C54 H76 0.930 . S
C55 C54 1.442 . S
C55 C56 1.381 . S
C55 H77 0.931 . S
C56 C55 1.381 . S
C56 C57 1.321 1_455 S
C57 C56 1.321 1_655 S
C57 C58 1.403 . S
C57 H78 0.934 . S
C58 C53 1.413 . S
C58 C57 1.403 . S
C58 H79 0.930 . S
C59 O70 1.275 . S
C59 O71 1.256 . S
O60 Ho40 2.322 1_655 S
O60 C42 1.259 . S
O61 Ho41 2.346 . S
O61 C42 1.268 . S
O62 Ho40 2.378 . S
O62 C43 1.215 . S
O63 Ho40 2.524 1_655 S
O63 C43 1.289 1_655 S
O64 Ho40 2.381 . S
O64 C50 1.275 . S
O65 Ho40 2.669 . S
O65 Ho41 2.305 1_455 S
O65 C50 1.256 . S
O66 Ho41 2.322 1_455 S
O66 C51 1.259 . S
O67 Ho40 2.346 . S
O67 C51 1.268 . S
O68 Ho41 2.378 . S
O68 C52 1.215 . S
O69 Ho41 2.524 1_455 S
O69 C52 1.289 1_455 S
O70 Ho41 2.381 . S
O70 C59 1.275 . S
O71 Ho40 2.305 1_655 S
O71 Ho41 2.669 . S
O71 C59 1.256 . S
H72 C45 0.930 . S
H73 C46 0.931 . S
H74 C48 0.934 . S
H75 C49 0.930 . S
H76 C54 0.930 . S
H77 C55 0.931 . S
H78 C57 0.934 . S
H79 C58 0.930 . S
Ho80 C83 2.811 . S
Ho80 O100 2.322 . S
Ho80 O102 2.378 . S
Ho80 O103 2.524 . S
Ho80 O104 2.381 . S
Ho80 O105 2.669 . S
Ho80 O107 2.346 . S
Ho80 O111 2.305 . S
Ho81 C92 2.811 . S
Ho81 O101 2.346 . S
Ho81 O105 2.305 . S
Ho81 O106 2.322 . S
Ho81 O108 2.378 . S
Ho81 O109 2.524 . S
Ho81 O110 2.381 . S
Ho81 O111 2.669 . S
C82 O100 1.259 . S
C82 O101 1.268 . S
C83 Ho80 2.811 . S
C83 C84 1.488 . S
C83 O102 1.215 . S
C83 O103 1.289 . S
C84 C83 1.488 . S
C84 C85 1.348 . S
C84 C89 1.413 . S
C85 C84 1.348 . S
C85 C86 1.442 . S
C85 H112 0.930 . S
C86 C85 1.442 . S
C86 C87 1.381 . S
C86 H113 0.931 . S
C87 C86 1.381 . S
C87 C88 1.321 . S
C88 C87 1.321 . S
C88 C89 1.403 . S
C88 H114 0.934 . S
C89 C84 1.413 . S
C89 C88 1.403 . S
C89 H115 0.930 . S
C90 O104 1.275 . S
C90 O105 1.256 . S
C91 O106 1.259 . S
C91 O107 1.268 . S
C92 Ho81 2.811 . S
C92 C93 1.488 . S
C92 O108 1.215 . S
C92 O109 1.289 . S
C93 C92 1.488 . S
C93 C94 1.348 . S
C93 C98 1.413 . S
C94 C93 1.348 . S
C94 C95 1.442 . S
C94 H116 0.930 . S
C95 C94 1.442 . S
C95 C96 1.381 . S
C95 H117 0.931 . S
C96 C95 1.381 . S
C96 C97 1.321 . S
C97 C96 1.321 . S
C97 C98 1.403 . S
C97 H118 0.934 . S
C98 C93 1.413 . S
C98 C97 1.403 . S
C98 H119 0.930 . S
C99 O110 1.275 . S
C99 O111 1.256 . S
O100 Ho80 2.322 . S
O100 C82 1.259 . S
O101 Ho81 2.346 . S
O101 C82 1.268 . S
O102 Ho80 2.378 . S
O102 C83 1.215 . S
O103 Ho80 2.524 . S
O103 C83 1.289 . S
O104 Ho80 2.381 . S
O104 C90 1.275 . S
O105 Ho80 2.669 . S
O105 Ho81 2.305 . S
O105 C90 1.256 . S
O106 Ho81 2.322 . S
O106 C91 1.259 . S
O107 Ho80 2.346 . S
O107 C91 1.268 . S
O108 Ho81 2.378 . S
O108 C92 1.215 . S
O109 Ho81 2.524 . S
O109 C92 1.289 . S
O110 Ho81 2.381 . S
O110 C99 1.275 . S
O111 Ho80 2.305 . S
O111 Ho81 2.669 . S
O111 C99 1.256 . S
H112 C85 0.930 . S
H113 C86 0.931 . S
H114 C88 0.934 . S
H115 C89 0.930 . S
H116 C94 0.930 . S
H117 C95 0.931 . S
H118 C97 0.934 . S
H119 C98 0.930 . S
Ho120 C123 2.811 . S
Ho120 O140 2.322 1_565 S
Ho120 O142 2.378 . S
Ho120 O143 2.524 1_565 S
Ho120 O144 2.381 . S
Ho120 O145 2.669 . S
Ho120 O147 2.346 . S
Ho120 O151 2.305 1_565 S
Ho121 C132 2.811 . S
Ho121 O141 2.346 . S
Ho121 O145 2.305 1_545 S
Ho121 O146 2.322 1_545 S
Ho121 O148 2.378 . S
Ho121 O149 2.524 1_545 S
Ho121 O150 2.381 . S
Ho121 O151 2.669 . S
C122 O140 1.259 . S
C122 O141 1.268 . S
C123 Ho120 2.811 . S
C123 C124 1.492 1_565 S
C123 O142 1.215 . S
C123 O143 1.289 1_565 S
C124 C123 1.492 1_545 S
C124 C125 1.374 . S
C124 C129 1.385 1_545 S
C125 C124 1.374 . S
C125 C126 1.442 . S
C125 H152 0.930 . S
C126 C125 1.442 . S
C126 C127 1.381 . S
C126 H153 0.931 . S
C127 C126 1.381 . S
C127 C128 1.321 1_545 S
C128 C127 1.321 1_565 S
C128 C129 1.403 . S
C128 H154 0.934 . S
C129 C124 1.385 1_565 S
C129 C128 1.403 . S
C129 H155 0.930 . S
C130 O144 1.275 . S
C130 O145 1.256 . S
C131 O146 1.259 . S
C131 O147 1.268 . S
C132 Ho121 2.811 . S
C132 C133 1.491 1_545 S
C132 O148 1.215 . S
C132 O149 1.289 1_545 S
C133 C132 1.491 1_565 S
C133 C134 1.365 . S
C133 C138 1.395 1_565 S
C134 C133 1.365 . S
C134 C135 1.442 . S
C134 H156 0.930 . S
C135 C134 1.442 . S
C135 C136 1.381 . S
C135 H157 0.931 . S
C136 C135 1.381 . S
C136 C137 1.321 1_565 S
C137 C136 1.321 1_545 S
C137 C138 1.403 . S
C137 H158 0.934 . S
C138 C133 1.395 1_545 S
C138 C137 1.403 . S
C138 H159 0.930 . S
C139 O150 1.275 . S
C139 O151 1.256 . S
O140 Ho120 2.322 1_545 S
O140 C122 1.259 . S
O141 Ho121 2.346 . S
O141 C122 1.268 . S
O142 Ho120 2.378 . S
O142 C123 1.215 . S
O143 Ho120 2.524 1_545 S
O143 C123 1.289 1_545 S
O144 Ho120 2.381 . S
O144 C130 1.275 . S
O145 Ho120 2.669 . S
O145 Ho121 2.305 1_565 S
O145 C130 1.256 . S
O146 Ho121 2.322 1_565 S
O146 C131 1.259 . S
O147 Ho120 2.346 . S
O147 C131 1.268 . S
O148 Ho121 2.378 . S
O148 C132 1.215 . S
O149 Ho121 2.524 1_565 S
O149 C132 1.289 1_565 S
O150 Ho121 2.381 . S
O150 C139 1.275 . S
O151 Ho120 2.305 1_545 S
O151 Ho121 2.669 . S
O151 C139 1.256 . S
H152 C125 0.930 . S
H153 C126 0.931 . S
H154 C128 0.934 . S
H155 C129 0.930 . S
H156 C134 0.930 . S
H157 C135 0.931 . S
H158 C137 0.934 . S
H159 C138 0.930 . S
Ho160 C163 2.811 . S
Ho160 O180 2.322 . S
Ho160 O182 2.378 . S
Ho160 O183 2.524 . S
Ho160 O184 2.381 . S
Ho160 O185 2.669 . S
Ho160 O187 2.346 . S
Ho160 O191 2.305 . S
Ho161 C172 2.811 . S
Ho161 O181 2.346 . S
Ho161 O185 2.305 . S
Ho161 O186 2.322 . S
Ho161 O188 2.378 . S
Ho161 O189 2.524 . S
Ho161 O190 2.381 . S
Ho161 O191 2.669 . S
C162 O180 1.259 . S
C162 O181 1.268 . S
C163 Ho160 2.811 . S
C163 C164 1.488 . S
C163 O182 1.215 . S
C163 O183 1.289 . S
C164 C163 1.488 . S
C164 C165 1.348 . S
C164 C169 1.413 . S
C165 C164 1.348 . S
C165 C166 1.442 . S
C165 H192 0.930 . S
C166 C165 1.442 . S
C166 C167 1.381 . S
C166 H193 0.931 . S
C167 C166 1.381 . S
C167 C168 1.321 . S
C168 C167 1.321 . S
C168 C169 1.403 . S
C168 H194 0.934 . S
C169 C164 1.413 . S
C169 C168 1.403 . S
C169 H195 0.930 . S
C170 O184 1.275 . S
C170 O185 1.256 . S
C171 O186 1.259 . S
C171 O187 1.268 . S
C172 Ho161 2.811 . S
C172 C173 1.488 . S
C172 O188 1.215 . S
C172 O189 1.289 . S
C173 C172 1.488 . S
C173 C174 1.348 . S
C173 C178 1.413 . S
C174 C173 1.348 . S
C174 C175 1.442 . S
C174 H196 0.930 . S
C175 C174 1.442 . S
C175 C176 1.381 . S
C175 H197 0.931 . S
C176 C175 1.381 . S
C176 C177 1.321 . S
C177 C176 1.321 . S
C177 C178 1.403 . S
C177 H198 0.934 . S
C178 C173 1.413 . S
C178 C177 1.403 . S
C178 H199 0.930 . S
C179 O190 1.275 . S
C179 O191 1.256 . S
O180 Ho160 2.322 . S
O180 C162 1.259 . S
O181 Ho161 2.346 . S
O181 C162 1.268 . S
O182 Ho160 2.378 . S
O182 C163 1.215 . S
O183 Ho160 2.524 . S
O183 C163 1.289 . S
O184 Ho160 2.381 . S
O184 C170 1.275 . S
O185 Ho160 2.669 . S
O185 Ho161 2.305 . S
O185 C170 1.256 . S
O186 Ho161 2.322 . S
O186 C171 1.259 . S
O187 Ho160 2.346 . S
O187 C171 1.268 . S
O188 Ho161 2.378 . S
O188 C172 1.215 . S
O189 Ho161 2.524 . S
O189 C172 1.289 . S
O190 Ho161 2.381 . S
O190 C179 1.275 . S
O191 Ho160 2.305 . S
O191 Ho161 2.669 . S
O191 C179 1.256 . S
H192 C165 0.930 . S
H193 C166 0.931 . S
H194 C168 0.934 . S
H195 C169 0.930 . S
H196 C174 0.930 . S
H197 C175 0.931 . S
H198 C177 0.934 . S
H199 C178 0.930 . S
Ho200 C203 2.811 . S
Ho200 O220 2.322 . S
Ho200 O222 2.378 . S
Ho200 O223 2.524 . S
Ho200 O224 2.381 . S
Ho200 O225 2.669 . S
Ho200 O227 2.346 . S
Ho200 O231 2.305 . S
Ho201 C212 2.811 . S
Ho201 O221 2.346 . S
Ho201 O225 2.305 . S
Ho201 O226 2.322 . S
Ho201 O228 2.378 . S
Ho201 O229 2.524 . S
Ho201 O230 2.381 . S
Ho201 O231 2.669 . S
C202 O220 1.259 . S
C202 O221 1.268 . S
C203 Ho200 2.811 . S
C203 C204 1.488 . S
C203 O222 1.215 . S
C203 O223 1.289 . S
C204 C203 1.488 . S
C204 C205 1.348 . S
C204 C209 1.413 . S
C205 C204 1.348 . S
C205 C206 1.442 . S
C205 H232 0.930 . S
C206 C205 1.442 . S
C206 C207 1.381 . S
C206 H233 0.931 . S
C207 C206 1.381 . S
C207 C208 1.321 . S
C208 C207 1.321 . S
C208 C209 1.403 . S
C208 H234 0.934 . S
C209 C204 1.413 . S
C209 C208 1.403 . S
C209 H235 0.930 . S
C210 O224 1.275 . S
C210 O225 1.256 . S
C211 O226 1.259 . S
C211 O227 1.268 . S
C212 Ho201 2.811 . S
C212 C213 1.488 . S
C212 O228 1.215 . S
C212 O229 1.289 . S
C213 C212 1.488 . S
C213 C214 1.348 . S
C213 C218 1.413 . S
C214 C213 1.348 . S
C214 C215 1.442 . S
C214 H236 0.930 . S
C215 C214 1.442 . S
C215 C216 1.381 . S
C215 H237 0.931 . S
C216 C215 1.381 . S
C216 C217 1.321 . S
C217 C216 1.321 . S
C217 C218 1.403 . S
C217 H238 0.934 . S
C218 C213 1.413 . S
C218 C217 1.403 . S
C218 H239 0.930 . S
C219 O230 1.275 . S
C219 O231 1.256 . S
O220 Ho200 2.322 . S
O220 C202 1.259 . S
O221 Ho201 2.346 . S
O221 C202 1.268 . S
O222 Ho200 2.378 . S
O222 C203 1.215 . S
O223 Ho200 2.524 . S
O223 C203 1.289 . S
O224 Ho200 2.381 . S
O224 C210 1.275 . S
O225 Ho200 2.669 . S
O225 Ho201 2.305 . S
O225 C210 1.256 . S
O226 Ho201 2.322 . S
O226 C211 1.259 . S
O227 Ho200 2.346 . S
O227 C211 1.268 . S
O228 Ho201 2.378 . S
O228 C212 1.215 . S
O229 Ho201 2.524 . S
O229 C212 1.289 . S
O230 Ho201 2.381 . S
O230 C219 1.275 . S
O231 Ho200 2.305 . S
O231 Ho201 2.669 . S
O231 C219 1.256 . S
H232 C205 0.930 . S
H233 C206 0.931 . S
H234 C208 0.934 . S
H235 C209 0.930 . S
H236 C214 0.930 . S
H237 C215 0.931 . S
H238 C217 0.934 . S
H239 C218 0.930 . S
Ho240 C243 2.811 . S
Ho240 O260 2.322 . S
Ho240 O262 2.378 . S
Ho240 O263 2.524 . S
Ho240 O264 2.381 . S
Ho240 O265 2.669 . S
Ho240 O267 2.346 . S
Ho240 O271 2.305 . S
Ho241 C252 2.811 . S
Ho241 O261 2.346 . S
Ho241 O265 2.305 . S
Ho241 O266 2.322 . S
Ho241 O268 2.378 . S
Ho241 O269 2.524 . S
Ho241 O270 2.381 . S
Ho241 O271 2.669 . S
C242 O260 1.259 . S
C242 O261 1.268 . S
C243 Ho240 2.811 . S
C243 C244 1.488 . S
C243 O262 1.215 . S
C243 O263 1.289 . S
C244 C243 1.488 . S
C244 C245 1.348 . S
C244 C249 1.413 . S
C245 C244 1.348 . S
C245 C246 1.442 . S
C245 H272 0.930 . S
C246 C245 1.442 . S
C246 C247 1.381 . S
C246 H273 0.931 . S
C247 C246 1.381 . S
C247 C248 1.321 . S
C248 C247 1.321 . S
C248 C249 1.403 . S
C248 H274 0.934 . S
C249 C244 1.413 . S
C249 C248 1.403 . S
C249 H275 0.930 . S
C250 O264 1.275 . S
C250 O265 1.256 . S
C251 O266 1.259 . S
C251 O267 1.268 . S
C252 Ho241 2.811 . S
C252 C253 1.488 . S
C252 O268 1.215 . S
C252 O269 1.289 . S
C253 C252 1.488 . S
C253 C254 1.348 . S
C253 C258 1.413 . S
C254 C253 1.348 . S
C254 C255 1.442 . S
C254 H276 0.930 . S
C255 C254 1.442 . S
C255 C256 1.381 . S
C255 H277 0.931 . S
C256 C255 1.381 . S
C256 C257 1.321 . S
C257 C256 1.321 . S
C257 C258 1.403 . S
C257 H278 0.934 . S
C258 C253 1.413 . S
C258 C257 1.403 . S
C258 H279 0.930 . S
C259 O270 1.275 . S
C259 O271 1.256 . S
O260 Ho240 2.322 . S
O260 C242 1.259 . S
O261 Ho241 2.346 . S
O261 C242 1.268 . S
O262 Ho240 2.378 . S
O262 C243 1.215 . S
O263 Ho240 2.524 . S
O263 C243 1.289 . S
O264 Ho240 2.381 . S
O264 C250 1.275 . S
O265 Ho240 2.669 . S
O265 Ho241 2.305 . S
O265 C250 1.256 . S
O266 Ho241 2.322 . S
O266 C251 1.259 . S
O267 Ho240 2.346 . S
O267 C251 1.268 . S
O268 Ho241 2.378 . S
O268 C252 1.215 . S
O269 Ho241 2.524 . S
O269 C252 1.289 . S
O270 Ho241 2.381 . S
O270 C259 1.275 . S
O271 Ho240 2.305 . S
O271 Ho241 2.669 . S
O271 C259 1.256 . S
H272 C245 0.930 . S
H273 C246 0.931 . S
H274 C248 0.934 . S
H275 C249 0.930 . S
H276 C254 0.930 . S
H277 C255 0.931 . S
H278 C257 0.934 . S
H279 C258 0.930 . S
Ho280 C283 2.811 . S
Ho280 O300 2.322 1_655 S
Ho280 O302 2.378 . S
Ho280 O303 2.524 . S
Ho280 O304 2.381 1_655 S
Ho280 O305 2.669 1_655 S
Ho280 O307 2.346 . S
Ho280 O311 2.305 . S
Ho281 C292 2.811 . S
Ho281 O301 2.346 . S
Ho281 O305 2.305 . S
Ho281 O306 2.322 1_455 S
Ho281 O308 2.378 . S
Ho281 O309 2.524 . S
Ho281 O310 2.381 1_455 S
Ho281 O311 2.669 1_455 S
C282 O300 1.259 . S
C282 O301 1.268 . S
C283 Ho280 2.811 . S
C283 C284 1.488 . S
C283 O302 1.215 . S
C283 O303 1.289 . S
C284 C283 1.488 . S
C284 C285 1.348 . S
C284 C289 1.413 . S
C285 C284 1.348 . S
C285 C286 1.442 . S
C285 H312 0.930 . S
C286 C285 1.442 . S
C286 C287 1.381 . S
C286 H313 0.931 . S
C287 C286 1.381 . S
C287 C288 1.321 . S
C288 C287 1.321 . S
C288 C289 1.403 . S
C288 H314 0.934 . S
C289 C284 1.413 . S
C289 C288 1.403 . S
C289 H315 0.930 . S
C290 O304 1.275 . S
C290 O305 1.256 . S
C291 O306 1.259 . S
C291 O307 1.268 . S
C292 Ho281 2.811 . S
C292 C293 1.488 . S
C292 O308 1.215 . S
C292 O309 1.289 . S
C293 C292 1.488 . S
C293 C294 1.348 . S
C293 C298 1.413 . S
C294 C293 1.348 . S
C294 C295 1.442 . S
C294 H316 0.930 . S
C295 C294 1.442 . S
C295 C296 1.381 . S
C295 H317 0.931 . S
C296 C295 1.381 . S
C296 C297 1.321 . S
C297 C296 1.321 . S
C297 C298 1.403 . S
C297 H318 0.934 . S
C298 C293 1.413 . S
C298 C297 1.403 . S
C298 H319 0.930 . S
C299 O310 1.275 . S
C299 O311 1.256 . S
O300 Ho280 2.322 1_455 S
O300 C282 1.259 . S
O301 Ho281 2.346 . S
O301 C282 1.268 . S
O302 Ho280 2.378 . S
O302 C283 1.215 . S
O303 Ho280 2.524 . S
O303 C283 1.289 . S
O304 Ho280 2.381 1_455 S
O304 C290 1.275 . S
O305 Ho280 2.669 1_455 S
O305 Ho281 2.305 . S
O305 C290 1.256 . S
O306 Ho281 2.322 1_655 S
O306 C291 1.259 . S
O307 Ho280 2.346 . S
O307 C291 1.268 . S
O308 Ho281 2.378 . S
O308 C292 1.215 . S
O309 Ho281 2.524 . S
O309 C292 1.289 . S
O310 Ho281 2.381 1_655 S
O310 C299 1.275 . S
O311 Ho280 2.305 . S
O311 Ho281 2.669 1_655 S
O311 C299 1.256 . S
H312 C285 0.930 . S
H313 C286 0.931 . S
H314 C288 0.934 . S
H315 C289 0.930 . S
H316 C294 0.930 . S
H317 C295 0.931 . S
H318 C297 0.934 . S
H319 C298 0.930 . S
Ho320 C323 2.811 . S
Ho320 O340 2.322 1_556 S
Ho320 O342 2.378 . S
Ho320 O343 2.524 1_556 S
Ho320 O344 2.381 . S
Ho320 O345 2.669 . S
Ho320 O347 2.346 . S
Ho320 O351 2.305 1_556 S
Ho321 C332 2.811 . S
Ho321 O341 2.346 . S
Ho321 O345 2.305 1_554 S
Ho321 O346 2.322 1_554 S
Ho321 O348 2.378 . S
Ho321 O349 2.524 1_554 S
Ho321 O350 2.381 . S
Ho321 O351 2.669 . S
C322 O340 1.259 . S
C322 O341 1.268 . S
C323 Ho320 2.811 . S
C323 C324 1.488 . S
C323 O342 1.215 . S
C323 O343 1.289 1_556 S
C324 C323 1.488 . S
C324 C325 1.348 1_556 S
C324 C329 1.413 . S
C325 C324 1.348 1_554 S
C325 C326 1.442 . S
C325 H352 0.930 . S
C326 C325 1.442 . S
C326 C327 1.381 1_554 S
C326 H353 0.931 . S
C327 C326 1.381 1_556 S
C327 C328 1.321 . S
C328 C327 1.321 . S
C328 C329 1.403 . S
C328 H354 0.934 . S
C329 C324 1.413 . S
C329 C328 1.403 . S
C329 H355 0.930 . S
C330 O344 1.275 . S
C330 O345 1.256 . S
C331 O346 1.259 . S
C331 O347 1.268 . S
C332 Ho321 2.811 . S
C332 C333 1.488 . S
C332 O348 1.215 . S
C332 O349 1.289 1_554 S
C333 C332 1.488 . S
C333 C334 1.348 1_554 S
C333 C338 1.413 . S
C334 C333 1.348 1_556 S
C334 C335 1.442 . S
C334 H356 0.930 . S
C335 C334 1.442 . S
C335 C336 1.381 1_556 S
C335 H357 0.931 . S
C336 C335 1.381 1_554 S
C336 C337 1.321 . S
C337 C336 1.321 . S
C337 C338 1.403 . S
C337 H358 0.934 . S
C338 C333 1.413 . S
C338 C337 1.403 . S
C338 H359 0.930 . S
C339 O350 1.275 . S
C339 O351 1.256 . S
O340 Ho320 2.322 1_554 S
O340 C322 1.259 . S
O341 Ho321 2.346 . S
O341 C322 1.268 . S
O342 Ho320 2.378 . S
O342 C323 1.215 . S
O343 Ho320 2.524 1_554 S
O343 C323 1.289 1_554 S
O344 Ho320 2.381 . S
O344 C330 1.275 . S
O345 Ho320 2.669 . S
O345 Ho321 2.305 1_556 S
O345 C330 1.256 . S
O346 Ho321 2.322 1_556 S
O346 C331 1.259 . S
O347 Ho320 2.346 . S
O347 C331 1.268 . S
O348 Ho321 2.378 . S
O348 C332 1.215 . S
O349 Ho321 2.524 1_556 S
O349 C332 1.289 1_556 S
O350 Ho321 2.381 . S
O350 C339 1.275 . S
O351 Ho320 2.305 1_554 S
O351 Ho321 2.669 . S
O351 C339 1.256 . S
H352 C325 0.930 . S
H353 C326 0.931 . S
H354 C328 0.934 . S
H355 C329 0.930 . S
H356 C334 0.930 . S
H357 C335 0.931 . S
H358 C337 0.934 . S
H359 C338 0.930 . S
Ho360 C363 2.811 . S
Ho360 O380 2.322 1_565 S
Ho360 O382 2.378 . S
Ho360 O383 2.524 1_565 S
Ho360 O384 2.381 . S
Ho360 O385 2.669 . S
Ho360 O387 2.346 . S
Ho360 O391 2.305 1_565 S
Ho361 C372 2.811 . S
Ho361 O381 2.346 . S
Ho361 O385 2.305 1_545 S
Ho361 O386 2.322 1_545 S
Ho361 O388 2.378 . S
Ho361 O389 2.524 1_545 S
Ho361 O390 2.381 . S
Ho361 O391 2.669 . S
C362 O380 1.259 . S
C362 O381 1.268 . S
C363 Ho360 2.811 . S
C363 C364 1.492 1_565 S
C363 O382 1.215 . S
C363 O383 1.289 1_565 S
C364 C363 1.492 1_545 S
C364 C365 1.374 . S
C364 C369 1.384 1_545 S
C365 C364 1.374 . S
C365 C366 1.442 . S
C365 H392 0.930 . S
C366 C365 1.442 . S
C366 C367 1.381 . S
C366 H393 0.931 . S
C367 C366 1.381 . S
C367 C368 1.321 1_545 S
C368 C367 1.321 1_565 S
C368 C369 1.403 . S
C368 H394 0.934 . S
C369 C364 1.384 1_565 S
C369 C368 1.403 . S
C369 H395 0.930 . S
C370 O384 1.275 . S
C370 O385 1.256 . S
C371 O386 1.259 . S
C371 O387 1.268 . S
C372 Ho361 2.811 . S
C372 C373 1.491 1_545 S
C372 O388 1.215 . S
C372 O389 1.289 1_545 S
C373 C372 1.491 1_565 S
C373 C374 1.365 . S
C373 C378 1.395 1_565 S
C374 C373 1.365 . S
C374 C375 1.442 . S
C374 H396 0.930 . S
C375 C374 1.442 . S
C375 C376 1.381 . S
C375 H397 0.931 . S
C376 C375 1.381 . S
C376 C377 1.321 1_565 S
C377 C376 1.321 1_545 S
C377 C378 1.403 . S
C377 H398 0.934 . S
C378 C373 1.395 1_545 S
C378 C377 1.403 . S
C378 H399 0.930 . S
C379 O390 1.275 . S
C379 O391 1.256 . S
O380 Ho360 2.322 1_545 S
O380 C362 1.259 . S
O381 Ho361 2.346 . S
O381 C362 1.268 . S
O382 Ho360 2.378 . S
O382 C363 1.215 . S
O383 Ho360 2.524 1_545 S
O383 C363 1.289 1_545 S
O384 Ho360 2.381 . S
O384 C370 1.275 . S
O385 Ho360 2.669 . S
O385 Ho361 2.305 1_565 S
O385 C370 1.256 . S
O386 Ho361 2.322 1_565 S
O386 C371 1.259 . S
O387 Ho360 2.346 . S
O387 C371 1.268 . S
O388 Ho361 2.378 . S
O388 C372 1.215 . S
O389 Ho361 2.524 1_565 S
O389 C372 1.289 1_565 S
O390 Ho361 2.381 . S
O390 C379 1.275 . S
O391 Ho360 2.305 1_545 S
O391 Ho361 2.669 . S
O391 C379 1.256 . S
H392 C365 0.930 . S
H393 C366 0.931 . S
H394 C368 0.934 . S
H395 C369 0.930 . S
H396 C374 0.930 . S
H397 C375 0.931 . S
H398 C377 0.934 . S
H399 C378 0.930 . S
Ho400 C403 2.811 . S
Ho400 O420 2.322 . S
Ho400 O422 2.378 . S
Ho400 O423 2.524 . S
Ho400 O424 2.381 . S
Ho400 O425 2.669 . S
Ho400 O427 2.346 . S
Ho400 O431 2.305 . S
Ho401 C412 2.811 . S
Ho401 O421 2.346 . S
Ho401 O425 2.305 . S
Ho401 O426 2.322 . S
Ho401 O428 2.378 . S
Ho401 O429 2.524 . S
Ho401 O430 2.381 . S
Ho401 O431 2.669 . S
C402 O420 1.259 . S
C402 O421 1.268 . S
C403 Ho400 2.811 . S
C403 C404 1.488 . S
C403 O422 1.215 . S
C403 O423 1.289 . S
C404 C403 1.488 . S
C404 C405 1.348 . S
C404 C409 1.413 . S
C405 C404 1.348 . S
C405 C406 1.442 . S
C405 H432 0.930 . S
C406 C405 1.442 . S
C406 C407 1.381 . S
C406 H433 0.931 . S
C407 C406 1.381 . S
C407 C408 1.321 . S
C408 C407 1.321 . S
C408 C409 1.403 . S
C408 H434 0.934 . S
C409 C404 1.413 . S
C409 C408 1.403 . S
C409 H435 0.930 . S
C410 O424 1.275 . S
C410 O425 1.256 . S
C411 O426 1.259 . S
C411 O427 1.268 . S
C412 Ho401 2.811 . S
C412 C413 1.488 . S
C412 O428 1.215 . S
C412 O429 1.289 . S
C413 C412 1.488 . S
C413 C414 1.348 . S
C413 C418 1.413 . S
C414 C413 1.348 . S
C414 C415 1.442 . S
C414 H436 0.930 . S
C415 C414 1.442 . S
C415 C416 1.381 . S
C415 H437 0.931 . S
C416 C415 1.381 . S
C416 C417 1.321 . S
C417 C416 1.321 . S
C417 C418 1.403 . S
C417 H438 0.934 . S
C418 C413 1.413 . S
C418 C417 1.403 . S
C418 H439 0.930 . S
C419 O430 1.275 . S
C419 O431 1.256 . S
O420 Ho400 2.322 . S
O420 C402 1.259 . S
O421 Ho401 2.346 . S
O421 C402 1.268 . S
O422 Ho400 2.378 . S
O422 C403 1.215 . S
O423 Ho400 2.524 . S
O423 C403 1.289 . S
O424 Ho400 2.381 . S
O424 C410 1.275 . S
O425 Ho400 2.669 . S
O425 Ho401 2.305 . S
O425 C410 1.256 . S
O426 Ho401 2.322 . S
O426 C411 1.259 . S
O427 Ho400 2.346 . S
O427 C411 1.268 . S
O428 Ho401 2.378 . S
O428 C412 1.215 . S
O429 Ho401 2.524 . S
O429 C412 1.289 . S
O430 Ho401 2.381 . S
O430 C419 1.275 . S
O431 Ho400 2.305 . S
O431 Ho401 2.669 . S
O431 C419 1.256 . S
H432 C405 0.930 . S
H433 C406 0.931 . S
H434 C408 0.934 . S
H435 C409 0.930 . S
H436 C414 0.930 . S
H437 C415 0.931 . S
H438 C417 0.934 . S
H439 C418 0.930 . S
Ho440 C443 2.811 . S
Ho440 O460 2.322 1_455 S
Ho440 O462 2.378 . S
Ho440 O463 2.524 1_455 S
Ho440 O464 2.381 . S
Ho440 O465 2.669 . S
Ho440 O467 2.346 . S
Ho440 O471 2.305 1_455 S
Ho441 C452 2.811 . S
Ho441 O461 2.346 . S
Ho441 O465 2.305 1_655 S
Ho441 O466 2.322 1_655 S
Ho441 O468 2.378 . S
Ho441 O469 2.524 1_655 S
Ho441 O470 2.381 . S
Ho441 O471 2.669 . S
C442 O460 1.259 . S
C442 O461 1.268 . S
C443 Ho440 2.811 . S
C443 C444 1.488 . S
C443 O462 1.215 . S
C443 O463 1.289 1_455 S
C444 C443 1.488 . S
C444 C445 1.348 1_455 S
C444 C449 1.413 . S
C445 C444 1.348 1_655 S
C445 C446 1.442 . S
C445 H472 0.930 . S
C446 C445 1.442 . S
C446 C447 1.381 . S
C446 H473 0.931 . S
C447 C446 1.381 . S
C447 C448 1.321 1_655 S
C448 C447 1.321 1_455 S
C448 C449 1.403 . S
C448 H474 0.934 . S
C449 C444 1.413 . S
C449 C448 1.403 . S
C449 H475 0.930 . S
C450 O464 1.275 . S
C450 O465 1.256 . S
C451 O466 1.259 . S
C451 O467 1.268 . S
C452 Ho441 2.811 . S
C452 C453 1.488 . S
C452 O468 1.215 . S
C452 O469 1.289 1_655 S
C453 C452 1.488 . S
C453 C454 1.348 1_655 S
C453 C458 1.413 . S
C454 C453 1.348 1_455 S
C454 C455 1.442 . S
C454 H476 0.930 . S
C455 C454 1.442 . S
C455 C456 1.381 . S
C455 H477 0.931 . S
C456 C455 1.381 . S
C456 C457 1.321 1_455 S
C457 C456 1.321 1_655 S
C457 C458 1.403 . S
C457 H478 0.934 . S
C458 C453 1.413 . S
C458 C457 1.403 . S
C458 H479 0.930 . S
C459 O470 1.275 . S
C459 O471 1.256 . S
O460 Ho440 2.322 1_655 S
O460 C442 1.259 . S
O461 Ho441 2.346 . S
O461 C442 1.268 . S
O462 Ho440 2.378 . S
O462 C443 1.215 . S
O463 Ho440 2.524 1_655 S
O463 C443 1.289 1_655 S
O464 Ho440 2.381 . S
O464 C450 1.275 . S
O465 Ho440 2.669 . S
O465 Ho441 2.305 1_455 S
O465 C450 1.256 . S
O466 Ho441 2.322 1_455 S
O466 C451 1.259 . S
O467 Ho440 2.346 . S
O467 C451 1.268 . S
O468 Ho441 2.378 . S
O468 C452 1.215 . S
O469 Ho441 2.524 1_455 S
O469 C452 1.289 1_455 S
O470 Ho441 2.381 . S
O470 C459 1.275 . S
O471 Ho440 2.305 1_655 S
O471 Ho441 2.669 . S
O471 C459 1.256 . S
H472 C445 0.930 . S
H473 C446 0.931 . S
H474 C448 0.934 . S
H475 C449 0.930 . S
H476 C454 0.930 . S
H477 C455 0.931 . S
H478 C457 0.934 . S
H479 C458 0.930 . S
Ho480 C483 2.811 . S
Ho480 O500 2.322 . S
Ho480 O502 2.378 . S
Ho480 O503 2.524 . S
Ho480 O504 2.381 . S
Ho480 O505 2.669 . S
Ho480 O507 2.346 . S
Ho480 O511 2.305 . S
Ho481 C492 2.811 . S
Ho481 O501 2.346 . S
Ho481 O505 2.305 . S
Ho481 O506 2.322 . S
Ho481 O508 2.378 . S
Ho481 O509 2.524 . S
Ho481 O510 2.381 . S
Ho481 O511 2.669 . S
C482 O500 1.259 . S
C482 O501 1.268 . S
C483 Ho480 2.811 . S
C483 C484 1.488 . S
C483 O502 1.215 . S
C483 O503 1.289 . S
C484 C483 1.488 . S
C484 C485 1.348 . S
C484 C489 1.413 . S
C485 C484 1.348 . S
C485 C486 1.442 . S
C485 H512 0.930 . S
C486 C485 1.442 . S
C486 C487 1.381 . S
C486 H513 0.931 . S
C487 C486 1.381 . S
C487 C488 1.321 . S
C488 C487 1.321 . S
C488 C489 1.403 . S
C488 H514 0.934 . S
C489 C484 1.413 . S
C489 C488 1.403 . S
C489 H515 0.930 . S
C490 O504 1.275 . S
C490 O505 1.256 . S
C491 O506 1.259 . S
C491 O507 1.268 . S
C492 Ho481 2.811 . S
C492 C493 1.488 . S
C492 O508 1.215 . S
C492 O509 1.289 . S
C493 C492 1.488 . S
C493 C494 1.348 . S
C493 C498 1.413 . S
C494 C493 1.348 . S
C494 C495 1.442 . S
C494 H516 0.930 . S
C495 C494 1.442 . S
C495 C496 1.381 . S
C495 H517 0.931 . S
C496 C495 1.381 . S
C496 C497 1.321 . S
C497 C496 1.321 . S
C497 C498 1.403 . S
C497 H518 0.934 . S
C498 C493 1.413 . S
C498 C497 1.403 . S
C498 H519 0.930 . S
C499 O510 1.275 . S
C499 O511 1.256 . S
O500 Ho480 2.322 . S
O500 C482 1.259 . S
O501 Ho481 2.346 . S
O501 C482 1.268 . S
O502 Ho480 2.378 . S
O502 C483 1.215 . S
O503 Ho480 2.524 . S
O503 C483 1.289 . S
O504 Ho480 2.381 . S
O504 C490 1.275 . S
O505 Ho480 2.669 . S
O505 Ho481 2.305 . S
O505 C490 1.256 . S
O506 Ho481 2.322 . S
O506 C491 1.259 . S
O507 Ho480 2.346 . S
O507 C491 1.268 . S
O508 Ho481 2.378 . S
O508 C492 1.215 . S
O509 Ho481 2.524 . S
O509 C492 1.289 . S
O510 Ho481 2.381 . S
O510 C499 1.275 . S
O511 Ho480 2.305 . S
O511 Ho481 2.669 . S
O511 C499 1.256 . S
H512 C485 0.930 . S
H513 C486 0.931 . S
H514 C488 0.934 . S
H515 C489 0.930 . S
H516 C494 0.930 . S
H517 C495 0.931 . S
H518 C497 0.934 . S
H519 C498 0.930 . S
Ho520 C523 2.811 . S
Ho520 O540 2.322 1_556 S
Ho520 O542 2.378 . S
Ho520 O543 2.524 1_556 S
Ho520 O544 2.381 . S
Ho520 O545 2.669 . S
Ho520 O547 2.346 . S
Ho520 O551 2.305 1_556 S
Ho521 C532 2.811 . S
Ho521 O541 2.346 . S
Ho521 O545 2.305 1_554 S
Ho521 O546 2.322 1_554 S
Ho521 O548 2.378 . S
Ho521 O549 2.524 1_554 S
Ho521 O550 2.381 . S
Ho521 O551 2.669 . S
C522 O540 1.259 . S
C522 O541 1.268 . S
C523 Ho520 2.811 . S
C523 C524 1.488 . S
C523 O542 1.215 . S
C523 O543 1.289 1_556 S
C524 C523 1.488 . S
C524 C525 1.348 1_556 S
C524 C529 1.413 . S
C525 C524 1.348 1_554 S
C525 C526 1.442 . S
C525 H552 0.930 . S
C526 C525 1.442 . S
C526 C527 1.381 1_554 S
C526 H553 0.931 . S
C527 C526 1.381 1_556 S
C527 C528 1.321 . S
C528 C527 1.321 . S
C528 C529 1.403 . S
C528 H554 0.934 . S
C529 C524 1.413 . S
C529 C528 1.403 . S
C529 H555 0.930 . S
C530 O544 1.275 . S
C530 O545 1.256 . S
C531 O546 1.259 . S
C531 O547 1.268 . S
C532 Ho521 2.811 . S
C532 C533 1.488 . S
C532 O548 1.215 . S
C532 O549 1.289 1_554 S
C533 C532 1.488 . S
C533 C534 1.348 1_554 S
C533 C538 1.413 . S
C534 C533 1.348 1_556 S
C534 C535 1.442 . S
C534 H556 0.930 . S
C535 C534 1.442 . S
C535 C536 1.381 1_556 S
C535 H557 0.931 . S
C536 C535 1.381 1_554 S
C536 C537 1.321 . S
C537 C536 1.321 . S
C537 C538 1.403 . S
C537 H558 0.934 . S
C538 C533 1.413 . S
C538 C537 1.403 . S
C538 H559 0.930 . S
C539 O550 1.275 . S
C539 O551 1.256 . S
O540 Ho520 2.322 1_554 S
O540 C522 1.259 . S
O541 Ho521 2.346 . S
O541 C522 1.268 . S
O542 Ho520 2.378 . S
O542 C523 1.215 . S
O543 Ho520 2.524 1_554 S
O543 C523 1.289 1_554 S
O544 Ho520 2.381 . S
O544 C530 1.275 . S
O545 Ho520 2.669 . S
O545 Ho521 2.305 1_556 S
O545 C530 1.256 . S
O546 Ho521 2.322 1_556 S
O546 C531 1.259 . S
O547 Ho520 2.346 . S
O547 C531 1.268 . S
O548 Ho521 2.378 . S
O548 C532 1.215 . S
O549 Ho521 2.524 1_556 S
O549 C532 1.289 1_556 S
O550 Ho521 2.381 . S
O550 C539 1.275 . S
O551 Ho520 2.305 1_554 S
O551 Ho521 2.669 . S
O551 C539 1.256 . S
H552 C525 0.930 . S
H553 C526 0.931 . S
H554 C528 0.934 . S
H555 C529 0.930 . S
H556 C534 0.930 . S
H557 C535 0.931 . S
H558 C537 0.934 . S
H559 C538 0.930 . S
Ho560 C563 2.811 . S
Ho560 O580 2.322 . S
Ho560 O582 2.378 . S
Ho560 O583 2.524 . S
Ho560 O584 2.381 . S
Ho560 O585 2.669 . S
Ho560 O587 2.346 1_565 S
Ho560 O591 2.305 1_565 S
Ho561 C572 2.811 . S
Ho561 O581 2.346 1_545 S
Ho561 O585 2.305 1_545 S
Ho561 O586 2.322 . S
Ho561 O588 2.378 . S
Ho561 O589 2.524 . S
Ho561 O590 2.381 . S
Ho561 O591 2.669 . S
C562 O580 1.259 . S
C562 O581 1.268 . S
C563 Ho560 2.811 . S
C563 C564 1.488 . S
C563 O582 1.215 . S
C563 O583 1.289 . S
C564 C563 1.488 . S
C564 C565 1.348 . S
C564 C569 1.413 . S
C565 C564 1.348 . S
C565 C566 1.442 . S
C565 H592 0.930 . S
C566 C565 1.442 . S
C566 C567 1.381 . S
C566 H593 0.931 . S
C567 C566 1.381 . S
C567 C568 1.321 . S
C568 C567 1.321 . S
C568 C569 1.403 . S
C568 H594 0.934 . S
C569 C564 1.413 . S
C569 C568 1.403 . S
C569 H595 0.930 . S
C570 O584 1.275 . S
C570 O585 1.256 . S
C571 O586 1.259 . S
C571 O587 1.268 . S
C572 Ho561 2.811 . S
C572 C573 1.488 . S
C572 O588 1.215 . S
C572 O589 1.289 . S
C573 C572 1.488 . S
C573 C574 1.348 . S
C573 C578 1.413 . S
C574 C573 1.348 . S
C574 C575 1.442 . S
C574 H596 0.930 . S
C575 C574 1.442 . S
C575 C576 1.381 . S
C575 H597 0.931 . S
C576 C575 1.381 . S
C576 C577 1.321 . S
C577 C576 1.321 . S
C577 C578 1.403 . S
C577 H598 0.934 . S
C578 C573 1.413 . S
C578 C577 1.403 . S
C578 H599 0.930 . S
C579 O590 1.275 . S
C579 O591 1.256 . S
O580 Ho560 2.322 . S
O580 C562 1.259 . S
O581 Ho561 2.346 1_565 S
O581 C562 1.268 . S
O582 Ho560 2.378 . S
O582 C563 1.215 . S
O583 Ho560 2.524 . S
O583 C563 1.289 . S
O584 Ho560 2.381 . S
O584 C570 1.275 . S
O585 Ho560 2.669 . S
O585 Ho561 2.305 1_565 S
O585 C570 1.256 . S
O586 Ho561 2.322 . S
O586 C571 1.259 . S
O587 Ho560 2.346 1_545 S
O587 C571 1.268 . S
O588 Ho561 2.378 . S
O588 C572 1.215 . S
O589 Ho561 2.524 . S
O589 C572 1.289 . S
O590 Ho561 2.381 . S
O590 C579 1.275 . S
O591 Ho560 2.305 1_545 S
O591 Ho561 2.669 . S
O591 C579 1.256 . S
H592 C565 0.930 . S
H593 C566 0.931 . S
H594 C568 0.934 . S
H595 C569 0.930 . S
H596 C574 0.930 . S
H597 C575 0.931 . S
H598 C577 0.934 . S
H599 C578 0.930 . S
Ho600 C603 2.811 . S
Ho600 O620 2.292 1_554 S
Ho600 O622 2.378 . S
Ho600 O623 2.524 . S
Ho600 O624 2.381 . S
Ho600 O625 2.669 . S
Ho600 O627 2.346 . S
Ho600 O631 2.305 1_554 S
Ho601 C612 2.811 . S
Ho601 O621 2.346 . S
Ho601 O625 2.305 1_556 S
Ho601 O626 2.322 1_556 S
Ho601 O628 2.378 . S
Ho601 O629 2.524 . S
Ho601 O630 2.381 . S
Ho601 O631 2.669 . S
C602 O620 1.303 . S
C602 O621 1.268 . S
C603 Ho600 2.811 . S
C603 C604 1.488 . S
C603 O622 1.215 . S
C603 O623 1.289 . S
C604 C603 1.488 . S
C604 C605 1.348 . S
C604 C609 1.413 . S
C605 C604 1.348 . S
C605 C606 1.442 . S
C605 H632 0.930 1_554 S
C606 C605 1.442 . S
C606 C607 1.381 . S
C606 H633 0.931 1_554 S
C607 C606 1.381 . S
C607 C608 1.321 . S
C608 C607 1.321 . S
C608 C609 1.403 . S
C608 H634 0.934 . S
C609 C604 1.413 . S
C609 C608 1.403 . S
C609 H635 0.930 . S
C610 O624 1.275 . S
C610 O625 1.256 . S
C611 O626 1.259 . S
C611 O627 1.268 . S
C612 Ho601 2.811 . S
C612 C613 1.488 . S
C612 O628 1.215 . S
C612 O629 1.289 . S
C613 C612 1.488 . S
C613 C614 1.348 . S
C613 C618 1.413 . S
C614 C613 1.348 . S
C614 C615 1.442 . S
C614 H636 0.930 1_556 S
C615 C614 1.442 . S
C615 C616 1.381 . S
C615 H637 0.931 1_556 S
C616 C615 1.381 . S
C616 C617 1.321 . S
C617 C616 1.321 . S
C617 C618 1.403 . S
C617 H638 0.934 . S
C618 C613 1.413 . S
C618 C617 1.403 . S
C618 H639 0.930 . S
C619 O630 1.275 . S
C619 O631 1.256 . S
O620 Ho600 2.292 1_556 S
O620 C602 1.303 . S
O621 Ho601 2.346 . S
O621 C602 1.268 . S
O622 Ho600 2.378 . S
O622 C603 1.215 . S
O623 Ho600 2.524 . S
O623 C603 1.289 . S
O624 Ho600 2.381 . S
O624 C610 1.275 . S
O625 Ho600 2.669 . S
O625 Ho601 2.305 1_554 S
O625 C610 1.256 . S
O626 Ho601 2.322 1_554 S
O626 C611 1.259 . S
O627 Ho600 2.346 . S
O627 C611 1.268 . S
O628 Ho601 2.378 . S
O628 C612 1.215 . S
O629 Ho601 2.524 . S
O629 C612 1.289 . S
O630 Ho601 2.381 . S
O630 C619 1.275 . S
O631 Ho600 2.305 1_556 S
O631 Ho601 2.669 . S
O631 C619 1.256 . S
H632 C605 0.930 1_556 S
H633 C606 0.931 1_556 S
H634 C608 0.934 . S
H635 C609 0.930 . S
H636 C614 0.930 1_554 S
H637 C615 0.931 1_554 S
H638 C617 0.934 . S
H639 C618 0.930 . S
C640 C641 1.376 . S
C640 C642 1.307 1_655 S
C640 H665 0.945 1_655 S
C641 C640 1.376 . S
C641 C657 1.349 . S
C642 C640 1.307 1_455 S
C642 C661 1.429 1_455 S
C642 H666 0.950 . S
C643 C660 1.574 . S
C643 C662 1.368 . S
C643 H667 0.949 . S
H644 C648 0.949 . S
C645 C646 1.349 1_655 S
C645 C647 1.327 . S
C645 H668 0.950 . S
C646 C645 1.349 1_455 S
C646 C658 1.349 . S
C647 C645 1.327 . S
C647 C663 1.429 1_655 S
C647 H669 0.950 . S
C648 H644 0.949 . S
C648 C656 1.574 . S
C648 C664 1.359 1_455 S
H649 C657 0.950 . S
H650 C655 0.950 . S
H651 C656 0.949 . S
H652 C658 0.950 . S
H653 C659 0.950 . S
H654 C660 0.949 . S
C655 H650 0.950 . S
C655 C657 1.327 . S
C655 C661 1.429 . S
C656 C648 1.574 . S
C656 H651 0.949 . S
C656 C662 1.368 1_455 S
C657 C641 1.349 . S
C657 H649 0.950 . S
C657 C655 1.327 . S
C658 C646 1.349 . S
C658 H652 0.950 . S
C658 C659 1.327 . S
C659 H653 0.950 . S
C659 C658 1.327 . S
C659 C663 1.429 . S
C660 C643 1.574 . S
C660 H654 0.949 . S
C660 C664 1.396 . S
C661 C642 1.429 1_655 S
C661 C655 1.429 . S
C661 C662 1.523 . S
C662 C643 1.368 . S
C662 C656 1.368 1_655 S
C662 C661 1.523 . S
C663 C647 1.429 1_455 S
C663 C659 1.429 . S
C663 C664 1.502 1_455 S
C664 C648 1.359 1_655 S
C664 C660 1.396 . S
C664 C663 1.502 1_655 S
H665 C640 0.945 1_455 S
H666 C642 0.950 . S
H667 C643 0.949 . S
H668 C645 0.950 . S
H669 C647 0.950 . S
C670 C671 1.349 . S
C670 C672 1.327 . S
C670 H695 0.950 . S
C671 C670 1.349 . S
C671 C687 1.349 . S
C672 C670 1.327 . S
C672 C691 1.429 . S
C672 H696 0.950 . S
C673 C690 1.574 . S
C673 C692 1.368 . S
C673 H697 0.949 . S
H674 C678 0.949 . S
C675 C676 1.349 . S
C675 C677 1.327 . S
C675 H698 0.950 . S
C676 C675 1.349 . S
C676 C688 1.349 . S
C677 C675 1.327 . S
C677 C693 1.429 . S
C677 H699 0.950 . S
C678 H674 0.949 . S
C678 C686 1.574 . S
C678 C694 1.368 . S
H679 C687 0.950 . S
H680 C685 0.950 . S
H681 C686 0.949 . S
H682 C688 0.950 . S
H683 C689 0.950 . S
H684 C690 0.949 . S
C685 H680 0.950 . S
C685 C687 1.327 . S
C685 C691 1.429 . S
C686 C678 1.574 . S
C686 H681 0.949 . S
C686 C692 1.368 . S
C687 C671 1.349 . S
C687 H679 0.950 . S
C687 C685 1.327 . S
C688 C676 1.349 . S
C688 H682 0.950 . S
C688 C689 1.327 . S
C689 H683 0.950 . S
C689 C688 1.327 . S
C689 C693 1.429 . S
C690 C673 1.574 . S
C690 H684 0.949 . S
C690 C694 1.368 . S
C691 C672 1.429 . S
C691 C685 1.429 . S
C691 C692 1.523 . S
C692 C673 1.368 . S
C692 C686 1.368 . S
C692 C691 1.523 . S
C693 C677 1.429 . S
C693 C689 1.429 . S
C693 C694 1.523 . S
C694 C678 1.368 . S
C694 C690 1.368 . S
C694 C693 1.523 . S
H695 C670 0.950 . S
H696 C672 0.950 . S
H697 C673 0.949 . S
H698 C675 0.950 . S
H699 C677 0.950 . S
C700 C701 1.349 . S
C700 C702 1.327 . S
C700 H725 0.950 . S
C701 C700 1.349 . S
C701 C717 1.349 . S
C702 C700 1.327 . S
C702 C721 1.429 . S
C702 H726 0.950 . S
C703 C720 1.574 . S
C703 C722 1.368 . S
C703 H727 0.949 . S
H704 C708 0.949 . S
C705 C706 1.349 . S
C705 C707 1.327 . S
C705 H728 0.950 . S
C706 C705 1.349 . S
C706 C718 1.349 . S
C707 C705 1.327 . S
C707 C723 1.429 . S
C707 H729 0.950 . S
C708 H704 0.949 . S
C708 C716 1.574 . S
C708 C724 1.368 . S
H709 C717 0.950 . S
H710 C715 0.950 . S
H711 C716 0.949 . S
H712 C718 0.950 . S
H713 C719 0.950 . S
H714 C720 0.949 . S
C715 H710 0.950 . S
C715 C717 1.327 . S
C715 C721 1.429 . S
C716 C708 1.574 . S
C716 H711 0.949 . S
C716 C722 1.368 . S
C717 C701 1.349 . S
C717 H709 0.950 . S
C717 C715 1.327 . S
C718 C706 1.349 . S
C718 H712 0.950 . S
C718 C719 1.327 . S
C719 H713 0.950 . S
C719 C718 1.327 . S
C719 C723 1.429 . S
C720 C703 1.574 . S
C720 H714 0.949 . S
C720 C724 1.368 . S
C721 C702 1.429 . S
C721 C715 1.429 . S
C721 C722 1.523 . S
C722 C703 1.368 . S
C722 C716 1.368 . S
C722 C721 1.523 . S
C723 C707 1.429 . S
C723 C719 1.429 . S
C723 C724 1.523 . S
C724 C708 1.368 . S
C724 C720 1.368 . S
C724 C723 1.523 . S
H725 C700 0.950 . S
H726 C702 0.950 . S
H727 C703 0.949 . S
H728 C705 0.950 . S
H729 C707 0.950 . S
C730 C731 1.349 . S
C730 C732 1.327 1_545 S
C730 H755 0.950 1_545 S
C731 C730 1.349 . S
C731 C747 1.349 . S
C732 C730 1.327 1_565 S
C732 C751 1.429 1_565 S
C732 H756 0.950 . S
C733 C750 1.574 . S
C733 C752 1.368 . S
C733 H757 0.949 . S
H734 C738 0.949 . S
C735 C736 1.349 1_545 S
C735 C737 1.327 . S
C735 H758 0.950 . S
C736 C735 1.349 1_565 S
C736 C748 1.349 . S
C737 C735 1.327 . S
C737 C753 1.421 1_545 S
C737 H759 0.950 . S
C738 H734 0.949 . S
C738 C746 1.574 . S
C738 C754 1.368 1_565 S
H739 C747 0.950 . S
H740 C745 0.950 . S
H741 C746 0.949 . S
H742 C748 0.950 . S
H743 C749 0.950 . S
H744 C750 0.949 . S
C745 H740 0.950 . S
C745 C747 1.327 . S
C745 C751 1.429 . S
C746 C738 1.574 . S
C746 H741 0.949 . S
C746 C752 1.368 1_565 S
C747 C731 1.349 . S
C747 H739 0.950 . S
C747 C745 1.327 . S
C748 C736 1.349 . S
C748 H742 0.950 . S
C748 C749 1.327 . S
C749 H743 0.950 . S
C749 C748 1.327 . S
C749 C753 1.445 . S
C750 C733 1.574 . S
C750 H744 0.949 . S
C750 C754 1.368 . S
C751 C732 1.429 1_545 S
C751 C745 1.429 . S
C751 C752 1.523 . S
C752 C733 1.368 . S
C752 C746 1.368 1_545 S
C752 C751 1.523 . S
C753 C737 1.421 1_565 S
C753 C749 1.445 . S
C753 C754 1.515 1_565 S
C754 C738 1.368 1_545 S
C754 C750 1.368 . S
C754 C753 1.515 1_545 S
H755 C730 0.950 1_565 S
H756 C732 0.950 . S
H757 C733 0.949 . S
H758 C735 0.950 . S
H759 C737 0.950 . S
C760 C761 1.349 . S
C760 C762 1.327 . S
C760 H785 0.950 . S
C761 C760 1.349 . S
C761 C777 1.349 . S
C762 C760 1.327 . S
C762 C781 1.429 . S
C762 H786 0.950 . S
C763 C780 1.574 . S
C763 C782 1.368 1_545 S
C763 H787 0.949 . S
H764 C768 0.949 . S
C765 C766 1.349 . S
C765 C767 1.327 . S
C765 H788 0.950 . S
C766 C765 1.349 . S
C766 C778 1.349 1_545 S
C767 C765 1.327 . S
C767 C783 1.456 . S
C767 H789 0.950 . S
C768 H764 0.949 . S
C768 C776 1.574 . S
C768 C784 1.368 . S
H769 C777 0.950 1_545 S
H770 C775 0.956 . S
H771 C776 0.949 . S
H772 C778 0.950 . S
H773 C779 0.950 . S
H774 C780 0.949 . S
C775 H770 0.956 . S
C775 C777 1.323 1_545 S
C775 C781 1.426 1_545 S
C776 C768 1.574 . S
C776 H771 0.949 . S
C776 C782 1.368 . S
C777 C761 1.349 . S
C777 H769 0.950 1_565 S
C777 C775 1.323 1_565 S
C778 C766 1.349 1_565 S
C778 H772 0.950 . S
C778 C779 1.327 . S
C779 H773 0.950 . S
C779 C778 1.327 . S
C779 C783 1.418 1_565 S
C780 C763 1.574 . S
C780 H774 0.949 . S
C780 C784 1.368 1_545 S
C781 C762 1.429 . S
C781 C775 1.426 1_565 S
C781 C782 1.523 . S
C782 C763 1.368 1_565 S
C782 C776 1.368 . S
C782 C781 1.523 . S
C783 C767 1.456 . S
C783 C779 1.418 1_545 S
C783 C784 1.507 1_545 S
C784 C768 1.368 . S
C784 C780 1.368 1_565 S
C784 C783 1.507 1_565 S
H785 C760 0.950 . S
H786 C762 0.950 . S
H787 C763 0.949 . S
H788 C765 0.950 . S
H789 C767 0.950 . S
C790 C791 1.349 . S
C790 C792 1.327 . S
C790 H815 0.950 . S
C791 C790 1.349 . S
C791 C807 1.349 . S
C792 C790 1.327 . S
C792 C811 1.429 . S
C792 H816 0.950 . S
C793 C810 1.574 . S
C793 C812 1.368 1_655 S
C793 H817 0.949 . S
H794 C798 0.949 . S
C795 C796 1.349 . S
C795 C797 1.327 . S
C795 H818 0.950 . S
C796 C795 1.349 . S
C796 C808 1.349 1_655 S
C797 C795 1.327 . S
C797 C813 1.429 . S
C797 H819 0.950 . S
C798 H794 0.949 . S
C798 C806 1.574 . S
C798 C814 1.368 . S
H799 C807 0.950 . S
H800 C805 0.950 1_655 S
H801 C806 0.949 . S
H802 C808 0.950 . S
H803 C809 0.950 . S
H804 C810 0.949 . S
C805 H800 0.950 1_455 S
C805 C807 1.327 . S
C805 C811 1.429 . S
C806 C798 1.574 . S
C806 H801 0.949 . S
C806 C812 1.368 . S
C807 C791 1.349 . S
C807 H799 0.950 . S
C807 C805 1.327 . S
C808 C796 1.349 1_455 S
C808 H802 0.950 . S
C808 C809 1.327 . S
C809 H803 0.950 . S
C809 C808 1.327 . S
C809 C813 1.429 1_455 S
C810 C793 1.574 . S
C810 H804 0.949 . S
C810 C814 1.368 1_655 S
C811 C792 1.429 . S
C811 C805 1.429 . S
C811 C812 1.523 . S
C812 C793 1.368 1_455 S
C812 C806 1.368 . S
C812 C811 1.523 . S
C813 C797 1.429 . S
C813 C809 1.429 1_655 S
C813 C814 1.523 1_655 S
C814 C798 1.368 . S
C814 C810 1.368 1_455 S
C814 C813 1.523 1_455 S
H815 C790 0.950 . S
H816 C792 0.950 . S
H817 C793 0.949 . S
H818 C795 0.950 . S
H819 C797 0.950 . S
C820 C821 1.349 . S
C820 C822 1.327 . S
C820 H845 0.950 . S
C821 C820 1.349 . S
C821 C837 1.349 . S
C822 C820 1.327 . S
C822 C841 1.429 . S
C822 H846 0.950 . S
C823 C840 1.574 . S
C823 C842 1.368 . S
C823 H847 0.949 . S
H824 C828 0.949 . S
C825 C826 1.349 . S
C825 C827 1.327 . S
C825 H848 0.950 . S
C826 C825 1.349 . S
C826 C838 1.349 . S
C827 C825 1.327 . S
C827 C843 1.429 . S
C827 H849 0.950 . S
C828 H824 0.949 . S
C828 C836 1.574 . S
C828 C844 1.368 . S
H829 C837 0.950 . S
H830 C835 0.950 . S
H831 C836 0.949 . S
H832 C838 0.950 . S
H833 C839 0.950 . S
H834 C840 0.949 . S
C835 H830 0.950 . S
C835 C837 1.327 . S
C835 C841 1.429 . S
C836 C828 1.574 . S
C836 H831 0.949 . S
C836 C842 1.368 . S
C837 C821 1.349 . S
C837 H829 0.950 . S
C837 C835 1.327 . S
C838 C826 1.349 . S
C838 H832 0.950 . S
C838 C839 1.327 . S
C839 H833 0.950 . S
C839 C838 1.327 . S
C839 C843 1.429 . S
C840 C823 1.574 . S
C840 H834 0.949 . S
C840 C844 1.368 . S
C841 C822 1.429 . S
C841 C835 1.429 . S
C841 C842 1.523 . S
C842 C823 1.368 . S
C842 C836 1.368 . S
C842 C841 1.523 . S
C843 C827 1.429 . S
C843 C839 1.429 . S
C843 C844 1.523 . S
C844 C828 1.368 . S
C844 C840 1.368 . S
C844 C843 1.523 . S
H845 C820 0.950 . S
H846 C822 0.950 . S
H847 C823 0.949 . S
H848 C825 0.950 . S
H849 C827 0.950 . S
C850 C851 1.349 . S
C850 C852 1.327 . S
C850 H875 0.950 . S
C851 C850 1.349 . S
C851 C867 1.349 . S
C852 C850 1.327 . S
C852 C871 1.429 . S
C852 H876 0.950 . S
C853 C870 1.574 . S
C853 C872 1.368 . S
C853 H877 0.949 . S
H854 C858 0.949 . S
C855 C856 1.349 . S
C855 C857 1.327 . S
C855 H878 0.950 . S
C856 C855 1.349 . S
C856 C868 1.349 . S
C857 C855 1.327 . S
C857 C873 1.429 . S
C857 H879 0.950 . S
C858 H854 0.949 . S
C858 C866 1.574 . S
C858 C874 1.368 . S
H859 C867 0.950 . S
H860 C865 0.950 . S
H861 C866 0.949 . S
H862 C868 0.950 . S
H863 C869 0.950 . S
H864 C870 0.949 . S
C865 H860 0.950 . S
C865 C867 1.327 . S
C865 C871 1.429 . S
C866 C858 1.574 . S
C866 H861 0.949 . S
C866 C872 1.368 . S
C867 C851 1.349 . S
C867 H859 0.950 . S
C867 C865 1.327 . S
C868 C856 1.349 . S
C868 H862 0.950 . S
C868 C869 1.327 . S
C869 H863 0.950 . S
C869 C868 1.327 . S
C869 C873 1.429 . S
C870 C853 1.574 . S
C870 H864 0.949 . S
C870 C874 1.368 . S
C871 C852 1.429 . S
C871 C865 1.429 . S
C871 C872 1.523 . S
C872 C853 1.368 . S
C872 C866 1.368 . S
C872 C871 1.523 . S
C873 C857 1.429 . S
C873 C869 1.429 . S
C873 C874 1.523 . S
C874 C858 1.368 . S
C874 C870 1.368 . S
C874 C873 1.523 . S
H875 C850 0.950 . S
H876 C852 0.950 . S
H877 C853 0.949 . S
H878 C855 0.950 . S
H879 C857 0.950 . S
C880 C881 1.349 . S
C880 C882 1.327 . S
C880 H905 0.950 . S
C881 C880 1.349 . S
C881 C897 1.349 . S
C882 C880 1.327 . S
C882 C901 1.429 . S
C882 H906 0.950 . S
C883 C900 1.574 . S
C883 C902 1.368 . S
C883 H907 0.949 . S
H884 C888 0.949 . S
C885 C886 1.349 . S
C885 C887 1.327 . S
C885 H908 0.950 . S
C886 C885 1.349 . S
C886 C898 1.349 . S
C887 C885 1.327 . S
C887 C903 1.429 . S
C887 H909 0.950 . S
C888 H884 0.949 . S
C888 C896 1.574 . S
C888 C904 1.368 . S
H889 C897 0.950 . S
H890 C895 0.950 . S
H891 C896 0.949 . S
H892 C898 0.950 . S
H893 C899 0.950 . S
H894 C900 0.949 . S
C895 H890 0.950 . S
C895 C897 1.327 . S
C895 C901 1.429 . S
C896 C888 1.574 . S
C896 H891 0.949 . S
C896 C902 1.368 . S
C897 C881 1.349 . S
C897 H889 0.950 . S
C897 C895 1.327 . S
C898 C886 1.349 . S
C898 H892 0.950 . S
C898 C899 1.327 . S
C899 H893 0.950 . S
C899 C898 1.327 . S
C899 C903 1.429 . S
C900 C883 1.574 . S
C900 H894 0.949 . S
C900 C904 1.368 . S
C901 C882 1.429 . S
C901 C895 1.429 . S
C901 C902 1.523 . S
C902 C883 1.368 . S
C902 C896 1.368 . S
C902 C901 1.523 . S
C903 C887 1.429 . S
C903 C899 1.429 . S
C903 C904 1.523 . S
C904 C888 1.368 . S
C904 C900 1.368 . S
C904 C903 1.523 . S
H905 C880 0.950 . S
H906 C882 0.950 . S
H907 C883 0.949 . S
H908 C885 0.950 . S
H909 C887 0.950 . S
C910 C911 1.349 . S
C910 C912 1.327 . S
C910 H935 0.950 . S
C911 C910 1.349 . S
C911 C927 1.349 . S
C912 C910 1.327 . S
C912 C931 1.429 . S
C912 H936 0.950 . S
C913 C930 1.574 . S
C913 C932 1.368 . S
C913 H937 0.949 . S
H914 C918 0.949 . S
C915 C916 1.349 . S
C915 C917 1.327 . S
C915 H938 0.950 . S
C916 C915 1.349 . S
C916 C928 1.349 . S
C917 C915 1.327 . S
C917 C933 1.429 . S
C917 H939 0.950 . S
C918 H914 0.949 . S
C918 C926 1.574 . S
C918 C934 1.368 . S
H919 C927 0.950 . S
H920 C925 0.950 . S
H921 C926 0.949 . S
H922 C928 0.950 . S
H923 C929 0.950 . S
H924 C930 0.949 . S
C925 H920 0.950 . S
C925 C927 1.327 . S
C925 C931 1.429 . S
C926 C918 1.574 . S
C926 H921 0.949 . S
C926 C932 1.368 . S
C927 C911 1.349 . S
C927 H919 0.950 . S
C927 C925 1.327 . S
C928 C916 1.349 . S
C928 H922 0.950 . S
C928 C929 1.327 . S
C929 H923 0.950 . S
C929 C928 1.327 . S
C929 C933 1.429 . S
C930 C913 1.574 . S
C930 H924 0.949 . S
C930 C934 1.368 . S
C931 C912 1.429 . S
C931 C925 1.429 . S
C931 C932 1.523 . S
C932 C913 1.368 . S
C932 C926 1.368 . S
C932 C931 1.523 . S
C933 C917 1.429 . S
C933 C929 1.429 . S
C933 C934 1.523 . S
C934 C918 1.368 . S
C934 C930 1.368 . S
C934 C933 1.523 . S
H935 C910 0.950 . S
H936 C912 0.950 . S
H937 C913 0.949 . S
H938 C915 0.950 . S
H939 C917 0.950 . S
C940 C941 1.349 . S
C940 C942 1.327 . S
C940 H965 0.950 . S
C941 C940 1.349 . S
C941 C957 1.349 . S
C942 C940 1.327 . S
C942 C961 1.429 . S
C942 H966 0.950 . S
C943 C960 1.574 . S
C943 C962 1.368 1_545 S
C943 H967 0.949 . S
H944 C948 0.949 . S
C945 C946 1.349 . S
C945 C947 1.327 . S
C945 H968 0.950 . S
C946 C945 1.349 . S
C946 C958 1.349 1_545 S
C947 C945 1.327 . S
C947 C963 1.459 . S
C947 H969 0.950 . S
C948 H944 0.949 . S
C948 C956 1.574 . S
C948 C964 1.368 . S
H949 C957 0.950 1_545 S
H950 C955 0.950 . S
H951 C956 0.949 . S
H952 C958 0.950 . S
H953 C959 0.950 . S
H954 C960 0.949 . S
C955 H950 0.950 . S
C955 C957 1.327 1_545 S
C955 C961 1.429 1_545 S
C956 C948 1.574 . S
C956 H951 0.949 . S
C956 C962 1.368 . S
C957 C941 1.349 . S
C957 H949 0.950 1_565 S
C957 C955 1.327 1_565 S
C958 C946 1.349 1_565 S
C958 H952 0.950 . S
C958 C959 1.327 . S
C959 H953 0.950 . S
C959 C958 1.327 . S
C959 C963 1.415 1_565 S
C960 C943 1.574 . S
C960 H954 0.949 . S
C960 C964 1.368 1_545 S
C961 C942 1.429 . S
C961 C955 1.429 1_565 S
C961 C962 1.523 . S
C962 C943 1.368 1_565 S
C962 C956 1.368 . S
C962 C961 1.523 . S
C963 C947 1.459 . S
C963 C959 1.415 1_545 S
C963 C964 1.508 1_545 S
C964 C948 1.368 . S
C964 C960 1.368 1_565 S
C964 C963 1.508 1_565 S
H965 C940 0.950 . S
H966 C942 0.950 . S
H967 C943 0.949 . S
H968 C945 0.950 . S
H969 C947 0.950 . S
C970 C971 1.349 . S
C970 C972 1.327 . S
C970 H995 0.950 . S
C971 C970 1.349 . S
C971 C987 1.349 1_455 S
C972 C970 1.327 . S
C972 C991 1.429 . S
C972 H996 0.950 . S
C973 C990 1.574 . S
C973 C992 1.368 1_655 S
C973 H997 0.949 . S
H974 C978 0.949 . S
C975 C976 1.349 . S
C975 C977 1.327 . S
C975 H998 0.950 . S
C976 C975 1.349 . S
C976 C988 1.349 1_655 S
C977 C975 1.327 . S
C977 C993 1.429 . S
C977 H999 0.950 . S
C978 H974 0.949 . S
C978 C986 1.574 . S
C978 C994 1.368 . S
H979 C987 0.950 . S
H980 C985 0.950 . S
H981 C986 0.949 . S
H982 C988 0.950 . S
H983 C989 0.950 . S
H984 C990 0.949 . S
C985 H980 0.950 . S
C985 C987 1.327 . S
C985 C991 1.429 1_655 S
C986 C978 1.574 . S
C986 H981 0.949 . S
C986 C992 1.368 . S
C987 C971 1.349 1_655 S
C987 H979 0.950 . S
C987 C985 1.327 . S
C988 C976 1.349 1_455 S
C988 H982 0.950 . S
C988 C989 1.327 . S
C989 H983 0.950 . S
C989 C988 1.327 . S
C989 C993 1.429 1_455 S
C990 C973 1.574 . S
C990 H984 0.949 . S
C990 C994 1.368 1_655 S
C991 C972 1.429 . S
C991 C985 1.429 1_455 S
C991 C992 1.523 . S
C992 C973 1.368 1_455 S
C992 C986 1.368 . S
C992 C991 1.523 . S
C993 C977 1.429 . S
C993 C989 1.429 1_655 S
C993 C994 1.523 1_655 S
C994 C978 1.368 . S
C994 C990 1.368 1_455 S
C994 C993 1.523 1_455 S
H995 C970 0.950 . S
H996 C972 0.950 . S
H997 C973 0.949 . S
H998 C975 0.950 . S
H999 C977 0.950 . S
C1000 C1001 1.349 . S
C1000 C1002 1.327 . S
C1000 H1025 0.950 . S
C1001 C1000 1.349 . S
C1001 C1017 1.349 . S
C1002 C1000 1.327 . S
C1002 C1021 1.429 . S
C1002 H1026 0.950 . S
C1003 C1020 1.574 . S
C1003 C1022 1.368 . S
C1003 H1027 0.949 1_556 S
H1004 C1008 0.949 . S
C1005 C1006 1.349 1_554 S
C1005 C1007 1.327 . S
C1005 H1028 0.950 . S
C1006 C1005 1.349 1_556 S
C1006 C1018 1.349 . S
C1007 C1005 1.327 . S
C1007 C1023 1.429 1_554 S
C1007 H1029 0.950 . S
C1008 H1004 0.949 . S
C1008 C1016 1.574 . S
C1008 C1024 1.368 . S
H1009 C1017 0.950 . S
H1010 C1015 0.992 . S
H1011 C1016 0.949 . S
H1012 C1018 0.950 . S
H1013 C1019 0.950 . S
H1014 C1020 0.949 1_554 S
C1015 H1010 0.992 . S
C1015 C1017 1.327 . S
C1015 C1021 1.429 . S
C1016 C1008 1.574 . S
C1016 H1011 0.949 . S
C1016 C1022 1.368 . S
C1017 C1001 1.349 . S
C1017 H1009 0.950 . S
C1017 C1015 1.327 . S
C1018 C1006 1.349 . S
C1018 H1012 0.950 . S
C1018 C1019 1.327 . S
C1019 H1013 0.950 . S
C1019 C1018 1.327 . S
C1019 C1023 1.429 . S
C1020 C1003 1.574 . S
C1020 H1014 0.949 1_556 S
C1020 C1024 1.368 . S
C1021 C1002 1.429 . S
C1021 C1015 1.429 . S
C1021 C1022 1.523 . S
C1022 C1003 1.368 . S
C1022 C1016 1.368 . S
C1022 C1021 1.523 . S
C1023 C1007 1.429 1_556 S
C1023 C1019 1.429 . S
C1023 C1024 1.523 . S
C1024 C1008 1.368 . S
C1024 C1020 1.368 . S
C1024 C1023 1.523 . S
H1025 C1000 0.950 . S
H1026 C1002 0.950 . S
H1027 C1003 0.949 1_554 S
H1028 C1005 0.950 . S
H1029 C1007 0.950 . S
C1030 C1031 1.349 . S
C1030 C1032 1.327 . S
C1030 H1055 0.950 . S
C1031 C1030 1.349 . S
C1031 C1047 1.349 . S
C1032 C1030 1.327 . S
C1032 C1051 1.429 . S
C1032 H1056 0.950 . S
C1033 C1050 1.574 . S
C1033 C1052 1.368 . S
C1033 H1057 0.949 . S
H1034 C1038 0.949 . S
C1035 C1036 1.349 . S
C1035 C1037 1.327 . S
C1035 H1058 0.950 . S
C1036 C1035 1.349 . S
C1036 C1048 1.349 . S
C1037 C1035 1.327 . S
C1037 C1053 1.429 . S
C1037 H1059 0.950 . S
C1038 H1034 0.949 . S
C1038 C1046 1.574 . S
C1038 C1054 1.368 . S
H1039 C1047 0.950 . S
H1040 C1045 0.950 . S
H1041 C1046 0.949 . S
H1042 C1048 0.950 . S
H1043 C1049 0.950 . S
H1044 C1050 0.949 . S
C1045 H1040 0.950 . S
C1045 C1047 1.327 . S
C1045 C1051 1.429 . S
C1046 C1038 1.574 . S
C1046 H1041 0.949 . S
C1046 C1052 1.368 . S
C1047 C1031 1.349 . S
C1047 H1039 0.950 . S
C1047 C1045 1.327 . S
C1048 C1036 1.349 . S
C1048 H1042 0.950 . S
C1048 C1049 1.327 . S
C1049 H1043 0.950 . S
C1049 C1048 1.327 . S
C1049 C1053 1.429 . S
C1050 C1033 1.574 . S
C1050 H1044 0.949 . S
C1050 C1054 1.368 . S
C1051 C1032 1.429 . S
C1051 C1045 1.429 . S
C1051 C1052 1.523 . S
C1052 C1033 1.368 . S
C1052 C1046 1.368 . S
C1052 C1051 1.523 . S
C1053 C1037 1.429 . S
C1053 C1049 1.429 . S
C1053 C1054 1.523 . S
C1054 C1038 1.368 . S
C1054 C1050 1.368 . S
C1054 C1053 1.523 . S
H1055 C1030 0.950 . S
H1056 C1032 0.950 . S
H1057 C1033 0.949 . S
H1058 C1035 0.950 . S
H1059 C1037 0.950 . S
C1060 C1061 1.349 . S
C1060 C1062 1.327 . S
C1060 H1085 0.950 . S
C1061 C1060 1.349 . S
C1061 C1077 1.349 . S
C1062 C1060 1.327 . S
C1062 C1081 1.429 . S
C1062 H1086 0.950 . S
C1063 C1080 1.574 . S
C1063 C1082 1.368 . S
C1063 H1087 0.949 . S
H1064 C1068 0.949 . S
C1065 C1066 1.349 . S
C1065 C1067 1.327 . S
C1065 H1088 0.950 . S
C1066 C1065 1.349 . S
C1066 C1078 1.349 . S
C1067 C1065 1.327 . S
C1067 C1083 1.429 . S
C1067 H1089 0.950 . S
C1068 H1064 0.949 . S
C1068 C1076 1.574 . S
C1068 C1084 1.368 . S
H1069 C1077 0.950 . S
H1070 C1075 0.950 . S
H1071 C1076 0.949 . S
H1072 C1078 0.950 . S
H1073 C1079 0.950 . S
H1074 C1080 0.949 . S
C1075 H1070 0.950 . S
C1075 C1077 1.327 . S
C1075 C1081 1.429 . S
C1076 C1068 1.574 . S
C1076 H1071 0.949 . S
C1076 C1082 1.368 . S
C1077 C1061 1.349 . S
C1077 H1069 0.950 . S
C1077 C1075 1.327 . S
C1078 C1066 1.349 . S
C1078 H1072 0.950 . S
C1078 C1079 1.327 . S
C1079 H1073 0.950 . S
C1079 C1078 1.327 . S
C1079 C1083 1.429 . S
C1080 C1063 1.574 . S
C1080 H1074 0.949 . S
C1080 C1084 1.368 . S
C1081 C1062 1.429 . S
C1081 C1075 1.429 . S
C1081 C1082 1.523 . S
C1082 C1063 1.368 . S
C1082 C1076 1.368 . S
C1082 C1081 1.523 . S
C1083 C1067 1.429 . S
C1083 C1079 1.429 . S
C1083 C1084 1.523 . S
C1084 C1068 1.368 . S
C1084 C1080 1.368 . S
C1084 C1083 1.523 . S
H1085 C1060 0.950 . S
H1086 C1062 0.950 . S
H1087 C1063 0.949 . S
H1088 C1065 0.950 . S
H1089 C1067 0.950 . S
C1090 C1091 1.349 . S
C1090 C1092 1.327 . S
C1090 H1115 0.950 . S
C1091 C1090 1.349 . S
C1091 C1107 1.349 . S
C1092 C1090 1.327 . S
C1092 C1111 1.429 . S
C1092 H1116 0.950 . S
C1093 C1110 1.574 . S
C1093 C1112 1.368 . S
C1093 H1117 0.949 . S
H1094 C1098 0.949 . S
C1095 C1096 1.349 . S
C1095 C1097 1.327 . S
C1095 H1118 0.950 . S
C1096 C1095 1.349 . S
C1096 C1108 1.349 . S
C1097 C1095 1.327 . S
C1097 C1113 1.429 . S
C1097 H1119 0.950 . S
C1098 H1094 0.949 . S
C1098 C1106 1.574 . S
C1098 C1114 1.368 . S
H1099 C1107 0.950 . S
H1100 C1105 0.950 . S
H1101 C1106 0.949 . S
H1102 C1108 0.950 . S
H1103 C1109 0.950 . S
H1104 C1110 0.949 . S
C1105 H1100 0.950 . S
C1105 C1107 1.327 . S
C1105 C1111 1.429 . S
C1106 C1098 1.574 . S
C1106 H1101 0.949 . S
C1106 C1112 1.368 . S
C1107 C1091 1.349 . S
C1107 H1099 0.950 . S
C1107 C1105 1.327 . S
C1108 C1096 1.349 . S
C1108 H1102 0.950 . S
C1108 C1109 1.327 . S
C1109 H1103 0.950 . S
C1109 C1108 1.327 . S
C1109 C1113 1.429 . S
C1110 C1093 1.574 . S
C1110 H1104 0.949 . S
C1110 C1114 1.368 . S
C1111 C1092 1.429 . S
C1111 C1105 1.429 . S
C1111 C1112 1.523 . S
C1112 C1093 1.368 . S
C1112 C1106 1.368 . S
C1112 C1111 1.523 . S
C1113 C1097 1.429 . S
C1113 C1109 1.429 . S
C1113 C1114 1.523 . S
C1114 C1098 1.368 . S
C1114 C1110 1.368 . S
C1114 C1113 1.523 . S
H1115 C1090 0.950 . S
H1116 C1092 0.950 . S
H1117 C1093 0.949 . S
H1118 C1095 0.950 . S
H1119 C1097 0.950 . S
C1120 C1121 1.349 . S
C1120 C1122 1.327 . S
C1120 H1145 0.950 . S
C1121 C1120 1.349 . S
C1121 C1137 1.349 . S
C1122 C1120 1.327 . S
C1122 C1141 1.429 . S
C1122 H1146 0.950 . S
C1123 C1140 1.574 . S
C1123 C1142 1.368 . S
C1123 H1147 0.949 . S
H1124 C1128 0.949 . S
C1125 C1126 1.349 . S
C1125 C1127 1.327 . S
C1125 H1148 0.950 . S
C1126 C1125 1.349 . S
C1126 C1138 1.349 . S
C1127 C1125 1.327 . S
C1127 C1143 1.429 . S
C1127 H1149 0.950 . S
C1128 H1124 0.949 . S
C1128 C1136 1.574 . S
C1128 C1144 1.368 . S
H1129 C1137 0.950 . S
H1130 C1135 0.950 . S
H1131 C1136 0.949 . S
H1132 C1138 0.950 . S
H1133 C1139 0.950 . S
H1134 C1140 0.949 . S
C1135 H1130 0.950 . S
C1135 C1137 1.327 . S
C1135 C1141 1.429 . S
C1136 C1128 1.574 . S
C1136 H1131 0.949 . S
C1136 C1142 1.368 . S
C1137 C1121 1.349 . S
C1137 H1129 0.950 . S
C1137 C1135 1.327 . S
C1138 C1126 1.349 . S
C1138 H1132 0.950 . S
C1138 C1139 1.327 . S
C1139 H1133 0.950 . S
C1139 C1138 1.327 . S
C1139 C1143 1.429 . S
C1140 C1123 1.574 . S
C1140 H1134 0.949 . S
C1140 C1144 1.368 . S
C1141 C1122 1.429 . S
C1141 C1135 1.429 . S
C1141 C1142 1.523 . S
C1142 C1123 1.368 . S
C1142 C1136 1.368 . S
C1142 C1141 1.523 . S
C1143 C1127 1.429 . S
C1143 C1139 1.429 . S
C1143 C1144 1.523 . S
C1144 C1128 1.368 . S
C1144 C1140 1.368 . S
C1144 C1143 1.523 . S
H1145 C1120 0.950 . S
H1146 C1122 0.950 . S
H1147 C1123 0.949 . S
H1148 C1125 0.950 . S
H1149 C1127 0.950 . S
C1150 C1151 1.349 . S
C1150 C1152 1.327 . S
C1150 H1175 0.950 . S
C1151 C1150 1.349 . S
C1151 C1167 1.349 . S
C1152 C1150 1.327 . S
C1152 C1171 1.429 . S
C1152 H1176 0.950 . S
C1153 C1170 1.574 . S
C1153 C1172 1.368 . S
C1153 H1177 0.949 . S
H1154 C1158 0.949 . S
C1155 C1156 1.349 . S
C1155 C1157 1.327 . S
C1155 H1178 0.950 . S
C1156 C1155 1.349 . S
C1156 C1168 1.349 . S
C1157 C1155 1.327 . S
C1157 C1173 1.429 . S
C1157 H1179 0.950 . S
C1158 H1154 0.949 . S
C1158 C1166 1.574 . S
C1158 C1174 1.368 . S
H1159 C1167 0.950 . S
H1160 C1165 0.950 . S
H1161 C1166 0.949 . S
H1162 C1168 0.950 . S
H1163 C1169 0.950 . S
H1164 C1170 0.949 . S
C1165 H1160 0.950 . S
C1165 C1167 1.327 . S
C1165 C1171 1.429 . S
C1166 C1158 1.574 . S
C1166 H1161 0.949 . S
C1166 C1172 1.368 . S
C1167 C1151 1.349 . S
C1167 H1159 0.950 . S
C1167 C1165 1.327 . S
C1168 C1156 1.349 . S
C1168 H1162 0.950 . S
C1168 C1169 1.327 . S
C1169 H1163 0.950 . S
C1169 C1168 1.327 . S
C1169 C1173 1.429 . S
C1170 C1153 1.574 . S
C1170 H1164 0.949 . S
C1170 C1174 1.368 . S
C1171 C1152 1.429 . S
C1171 C1165 1.429 . S
C1171 C1172 1.523 . S
C1172 C1153 1.368 . S
C1172 C1166 1.368 . S
C1172 C1171 1.523 . S
C1173 C1157 1.429 . S
C1173 C1169 1.429 . S
C1173 C1174 1.523 . S
C1174 C1158 1.368 . S
C1174 C1170 1.368 . S
C1174 C1173 1.523 . S
H1175 C1150 0.950 . S
H1176 C1152 0.950 . S
H1177 C1153 0.949 . S
H1178 C1155 0.950 . S
H1179 C1157 0.950 . S
C1180 C1181 1.349 . S
C1180 C1182 1.327 . S
C1180 H1205 0.950 . S
C1181 C1180 1.349 . S
C1181 C1197 1.349 . S
C1182 C1180 1.327 . S
C1182 C1201 1.429 . S
C1182 H1206 0.950 . S
C1183 C1200 1.574 . S
C1183 C1202 1.368 . S
C1183 H1207 0.949 . S
H1184 C1188 0.949 . S
C1185 C1186 1.349 . S
C1185 C1187 1.327 . S
C1185 H1208 0.950 . S
C1186 C1185 1.349 . S
C1186 C1198 1.349 . S
C1187 C1185 1.327 . S
C1187 C1203 1.429 . S
C1187 H1209 0.950 . S
C1188 H1184 0.949 . S
C1188 C1196 1.574 . S
C1188 C1204 1.368 . S
H1189 C1197 0.950 . S
H1190 C1195 0.950 . S
H1191 C1196 0.949 . S
H1192 C1198 0.950 . S
H1193 C1199 0.950 . S
H1194 C1200 0.949 . S
C1195 H1190 0.950 . S
C1195 C1197 1.327 . S
C1195 C1201 1.429 . S
C1196 C1188 1.574 . S
C1196 H1191 0.949 . S
C1196 C1202 1.368 . S
C1197 C1181 1.349 . S
C1197 H1189 0.950 . S
C1197 C1195 1.327 . S
C1198 C1186 1.349 . S
C1198 H1192 0.950 . S
C1198 C1199 1.327 . S
C1199 H1193 0.950 . S
C1199 C1198 1.327 . S
C1199 C1203 1.429 . S
C1200 C1183 1.574 . S
C1200 H1194 0.949 . S
C1200 C1204 1.368 . S
C1201 C1182 1.429 . S
C1201 C1195 1.429 . S
C1201 C1202 1.523 . S
C1202 C1183 1.368 . S
C1202 C1196 1.368 . S
C1202 C1201 1.523 . S
C1203 C1187 1.429 . S
C1203 C1199 1.429 . S
C1203 C1204 1.523 . S
C1204 C1188 1.368 . S
C1204 C1200 1.368 . S
C1204 C1203 1.523 . S
H1205 C1180 0.950 . S
H1206 C1182 0.950 . S
H1207 C1183 0.949 . S
H1208 C1185 0.950 . S
H1209 C1187 0.950 . S
C1210 C1211 1.349 . S
C1210 C1212 1.327 . S
C1210 H1235 0.950 . S
C1211 C1210 1.349 . S
C1211 C1227 1.349 . S
C1212 C1210 1.327 . S
C1212 C1231 1.429 . S
C1212 H1236 0.950 . S
C1213 C1230 1.574 . S
C1213 C1232 1.368 . S
C1213 H1237 0.949 . S
H1214 C1218 0.949 . S
C1215 C1216 1.349 . S
C1215 C1217 1.327 . S
C1215 H1238 0.950 . S
C1216 C1215 1.349 . S
C1216 C1228 1.349 . S
C1217 C1215 1.327 . S
C1217 C1233 1.429 . S
C1217 H1239 0.950 . S
C1218 H1214 0.949 . S
C1218 C1226 1.574 . S
C1218 C1234 1.368 . S
H1219 C1227 0.950 . S
H1220 C1225 0.950 . S
H1221 C1226 0.949 . S
H1222 C1228 0.950 . S
H1223 C1229 0.950 . S
H1224 C1230 0.949 . S
C1225 H1220 0.950 . S
C1225 C1227 1.327 . S
C1225 C1231 1.429 . S
C1226 C1218 1.574 . S
C1226 H1221 0.949 . S
C1226 C1232 1.368 . S
C1227 C1211 1.349 . S
C1227 H1219 0.950 . S
C1227 C1225 1.327 . S
C1228 C1216 1.349 . S
C1228 H1222 0.950 . S
C1228 C1229 1.327 . S
C1229 H1223 0.950 . S
C1229 C1228 1.327 . S
C1229 C1233 1.429 . S
C1230 C1213 1.574 . S
C1230 H1224 0.949 . S
C1230 C1234 1.368 . S
C1231 C1212 1.429 . S
C1231 C1225 1.429 . S
C1231 C1232 1.523 . S
C1232 C1213 1.368 . S
C1232 C1226 1.368 . S
C1232 C1231 1.523 . S
C1233 C1217 1.429 . S
C1233 C1229 1.429 . S
C1233 C1234 1.523 . S
C1234 C1218 1.368 . S
C1234 C1230 1.368 . S
C1234 C1233 1.523 . S
H1235 C1210 0.950 . S
H1236 C1212 0.950 . S
H1237 C1213 0.949 . S
H1238 C1215 0.950 . S
H1239 C1217 0.950 . S
C1240 C1241 1.349 . S
C1240 C1242 1.327 . S
C1240 H1265 0.950 . S
C1241 C1240 1.349 . S
C1241 C1257 1.349 . S
C1242 C1240 1.327 . S
C1242 C1261 1.429 . S
C1242 H1266 0.950 . S
C1243 C1260 1.574 . S
C1243 C1262 1.368 . S
C1243 H1267 0.949 . S
H1244 C1248 0.949 . S
C1245 C1246 1.349 . S
C1245 C1247 1.327 . S
C1245 H1268 0.950 . S
C1246 C1245 1.349 . S
C1246 C1258 1.349 . S
C1247 C1245 1.327 . S
C1247 C1263 1.429 . S
C1247 H1269 0.950 . S
C1248 H1244 0.949 . S
C1248 C1256 1.574 . S
C1248 C1264 1.368 . S
H1249 C1257 0.950 . S
H1250 C1255 0.950 . S
H1251 C1256 0.949 . S
H1252 C1258 0.950 . S
H1253 C1259 0.950 . S
H1254 C1260 0.949 . S
C1255 H1250 0.950 . S
C1255 C1257 1.327 . S
C1255 C1261 1.429 . S
C1256 C1248 1.574 . S
C1256 H1251 0.949 . S
C1256 C1262 1.368 . S
C1257 C1241 1.349 . S
C1257 H1249 0.950 . S
C1257 C1255 1.327 . S
C1258 C1246 1.349 . S
C1258 H1252 0.950 . S
C1258 C1259 1.327 . S
C1259 H1253 0.950 . S
C1259 C1258 1.327 . S
C1259 C1263 1.429 . S
C1260 C1243 1.574 . S
C1260 H1254 0.949 . S
C1260 C1264 1.368 . S
C1261 C1242 1.429 . S
C1261 C1255 1.429 . S
C1261 C1262 1.523 . S
C1262 C1243 1.368 . S
C1262 C1256 1.368 . S
C1262 C1261 1.523 . S
C1263 C1247 1.429 . S
C1263 C1259 1.429 . S
C1263 C1264 1.523 . S
C1264 C1248 1.368 . S
C1264 C1260 1.368 . S
C1264 C1263 1.523 . S
H1265 C1240 0.950 . S
H1266 C1242 0.950 . S
H1267 C1243 0.949 . S
H1268 C1245 0.950 . S
H1269 C1247 0.950 . S
C1270 C1271 1.349 1_655 S
C1270 C1272 1.327 . S
C1270 H1295 0.950 . S
C1271 C1270 1.349 1_455 S
C1271 C1287 1.349 . S
C1272 C1270 1.327 . S
C1272 C1291 1.429 1_655 S
C1272 H1296 0.950 . S
C1273 C1290 1.574 . S
C1273 C1292 1.352 1_455 S
C1273 H1297 0.949 . S
H1274 C1278 0.949 . S
C1275 C1276 1.347 1_455 S
C1275 C1277 1.328 . S
C1275 H1298 0.950 . S
C1276 C1275 1.347 1_655 S
C1276 C1288 1.349 . S
C1277 C1275 1.328 . S
C1277 C1293 1.429 1_455 S
C1277 H1299 0.950 . S
C1278 H1274 0.949 . S
C1278 C1286 1.574 . S
C1278 C1294 1.368 . S
H1279 C1287 0.950 . S
H1280 C1285 0.950 . S
H1281 C1286 0.949 . S
H1282 C1288 0.950 . S
H1283 C1289 0.950 . S
H1284 C1290 0.949 . S
C1285 H1280 0.950 . S
C1285 C1287 1.327 . S
C1285 C1291 1.429 . S
C1286 C1278 1.574 . S
C1286 H1281 0.949 . S
C1286 C1292 1.403 . S
C1287 C1271 1.349 . S
C1287 H1279 0.950 . S
C1287 C1285 1.327 . S
C1288 C1276 1.349 . S
C1288 H1282 0.950 . S
C1288 C1289 1.327 . S
C1289 H1283 0.950 . S
C1289 C1288 1.327 . S
C1289 C1293 1.429 . S
C1290 C1273 1.574 . S
C1290 H1284 0.949 . S
C1290 C1294 1.368 1_455 S
C1291 C1272 1.429 1_455 S
C1291 C1285 1.429 . S
C1291 C1292 1.502 1_455 S
C1292 C1273 1.352 1_655 S
C1292 C1286 1.403 . S
C1292 C1291 1.502 1_655 S
C1293 C1277 1.429 1_655 S
C1293 C1289 1.429 . S
C1293 C1294 1.523 . S
C1294 C1278 1.368 . S
C1294 C1290 1.368 1_655 S
C1294 C1293 1.523 . S
H1295 C1270 0.950 . S
H1296 C1272 0.950 . S
H1297 C1273 0.949 . S
H1298 C1275 0.950 . S
H1299 C1277 0.950 . S
C1300 C1301 1.349 . S
C1300 C1302 1.327 . S
C1300 H1325 0.950 . S
C1301 C1300 1.349 . S
C1301 C1317 1.349 . S
C1302 C1300 1.327 . S
C1302 C1321 1.429 . S
C1302 H1326 0.950 . S
C1303 C1320 1.574 . S
C1303 C1322 1.368 . S
C1303 H1327 0.949 . S
H1304 C1308 0.949 . S
C1305 C1306 1.349 . S
C1305 C1307 1.327 . S
C1305 H1328 0.950 . S
C1306 C1305 1.349 . S
C1306 C1318 1.349 . S
C1307 C1305 1.327 . S
C1307 C1323 1.429 . S
C1307 H1329 0.950 . S
C1308 H1304 0.949 . S
C1308 C1316 1.574 . S
C1308 C1324 1.368 . S
H1309 C1317 0.950 . S
H1310 C1315 0.950 . S
H1311 C1316 0.949 . S
H1312 C1318 0.950 . S
H1313 C1319 0.950 . S
H1314 C1320 0.949 . S
C1315 H1310 0.950 . S
C1315 C1317 1.327 . S
C1315 C1321 1.429 . S
C1316 C1308 1.574 . S
C1316 H1311 0.949 . S
C1316 C1322 1.368 . S
C1317 C1301 1.349 . S
C1317 H1309 0.950 . S
C1317 C1315 1.327 . S
C1318 C1306 1.349 . S
C1318 H1312 0.950 . S
C1318 C1319 1.327 . S
C1319 H1313 0.950 . S
C1319 C1318 1.327 . S
C1319 C1323 1.429 . S
C1320 C1303 1.574 . S
C1320 H1314 0.949 . S
C1320 C1324 1.368 . S
C1321 C1302 1.429 . S
C1321 C1315 1.429 . S
C1321 C1322 1.523 . S
C1322 C1303 1.368 . S
C1322 C1316 1.368 . S
C1322 C1321 1.523 . S
C1323 C1307 1.429 . S
C1323 C1319 1.429 . S
C1323 C1324 1.523 . S
C1324 C1308 1.368 . S
C1324 C1320 1.368 . S
C1324 C1323 1.523 . S
H1325 C1300 0.950 . S
H1326 C1302 0.950 . S
H1327 C1303 0.949 . S
H1328 C1305 0.950 . S
H1329 C1307 0.950 . S
C1330 C1331 1.349 . S
C1330 C1332 1.327 . S
C1330 H1355 0.950 . S
C1331 C1330 1.349 . S
C1331 C1347 1.349 . S
C1332 C1330 1.327 . S
C1332 C1351 1.429 . S
C1332 H1356 0.950 . S
C1333 C1350 1.574 . S
C1333 C1352 1.368 . S
C1333 H1357 0.949 . S
H1334 C1338 0.949 . S
C1335 C1336 1.349 . S
C1335 C1337 1.327 . S
C1335 H1358 0.950 . S
C1336 C1335 1.349 . S
C1336 C1348 1.349 . S
C1337 C1335 1.327 . S
C1337 C1353 1.429 . S
C1337 H1359 0.950 . S
C1338 H1334 0.949 . S
C1338 C1346 1.574 . S
C1338 C1354 1.368 . S
H1339 C1347 0.950 . S
H1340 C1345 0.950 . S
H1341 C1346 0.949 . S
H1342 C1348 0.950 . S
H1343 C1349 0.950 . S
H1344 C1350 0.949 . S
C1345 H1340 0.950 . S
C1345 C1347 1.327 . S
C1345 C1351 1.429 . S
C1346 C1338 1.574 . S
C1346 H1341 0.949 . S
C1346 C1352 1.368 . S
C1347 C1331 1.349 . S
C1347 H1339 0.950 . S
C1347 C1345 1.327 . S
C1348 C1336 1.349 . S
C1348 H1342 0.950 . S
C1348 C1349 1.327 . S
C1349 H1343 0.950 . S
C1349 C1348 1.327 . S
C1349 C1353 1.429 . S
C1350 C1333 1.574 . S
C1350 H1344 0.949 . S
C1350 C1354 1.368 . S
C1351 C1332 1.429 . S
C1351 C1345 1.429 . S
C1351 C1352 1.523 . S
C1352 C1333 1.368 . S
C1352 C1346 1.368 . S
C1352 C1351 1.523 . S
C1353 C1337 1.429 . S
C1353 C1349 1.429 . S
C1353 C1354 1.523 . S
C1354 C1338 1.368 . S
C1354 C1350 1.368 . S
C1354 C1353 1.523 . S
H1355 C1330 0.950 . S
H1356 C1332 0.950 . S
H1357 C1333 0.949 . S
H1358 C1335 0.950 . S
H1359 C1337 0.950 . S
C1360 C1361 1.349 . S
C1360 C1362 1.327 . S
C1360 H1385 0.950 . S
C1361 C1360 1.349 . S
C1361 C1377 1.349 . S
C1362 C1360 1.327 . S
C1362 C1381 1.429 . S
C1362 H1386 0.950 . S
C1363 C1380 1.574 . S
C1363 C1382 1.368 . S
C1363 H1387 0.949 . S
H1364 C1368 0.949 . S
C1365 C1366 1.349 . S
C1365 C1367 1.327 . S
C1365 H1388 0.950 . S
C1366 C1365 1.349 . S
C1366 C1378 1.349 . S
C1367 C1365 1.327 . S
C1367 C1383 1.429 . S
C1367 H1389 0.950 . S
C1368 H1364 0.949 . S
C1368 C1376 1.574 . S
C1368 C1384 1.368 . S
H1369 C1377 0.950 . S
H1370 C1375 0.950 . S
H1371 C1376 0.949 . S
H1372 C1378 0.950 . S
H1373 C1379 0.950 . S
H1374 C1380 0.949 . S
C1375 H1370 0.950 . S
C1375 C1377 1.327 . S
C1375 C1381 1.429 . S
C1376 C1368 1.574 . S
C1376 H1371 0.949 . S
C1376 C1382 1.368 . S
C1377 C1361 1.349 . S
C1377 H1369 0.950 . S
C1377 C1375 1.327 . S
C1378 C1366 1.349 . S
C1378 H1372 0.950 . S
C1378 C1379 1.327 . S
C1379 H1373 0.950 . S
C1379 C1378 1.327 . S
C1379 C1383 1.429 . S
C1380 C1363 1.574 . S
C1380 H1374 0.949 . S
C1380 C1384 1.368 . S
C1381 C1362 1.429 . S
C1381 C1375 1.429 . S
C1381 C1382 1.523 . S
C1382 C1363 1.368 . S
C1382 C1376 1.368 . S
C1382 C1381 1.523 . S
C1383 C1367 1.429 . S
C1383 C1379 1.429 . S
C1383 C1384 1.523 . S
C1384 C1368 1.368 . S
C1384 C1380 1.368 . S
C1384 C1383 1.523 . S
H1385 C1360 0.950 . S
H1386 C1362 0.950 . S
H1387 C1363 0.949 . S
H1388 C1365 0.950 . S
H1389 C1367 0.950 . S
C1390 C1391 1.349 . S
C1390 C1392 1.327 . S
C1390 H1415 0.950 . S
C1391 C1390 1.349 . S
C1391 C1407 1.349 . S
C1392 C1390 1.327 . S
C1392 C1411 1.429 . S
C1392 H1416 0.950 . S
C1393 C1410 1.574 . S
C1393 C1412 1.368 . S
C1393 H1417 0.949 . S
H1394 C1398 0.949 . S
C1395 C1396 1.349 . S
C1395 C1397 1.327 . S
C1395 H1418 0.950 . S
C1396 C1395 1.349 . S
C1396 C1408 1.349 . S
C1397 C1395 1.327 . S
C1397 C1413 1.429 . S
C1397 H1419 0.950 . S
C1398 H1394 0.949 . S
C1398 C1406 1.574 . S
C1398 C1414 1.368 . S
H1399 C1407 0.950 . S
H1400 C1405 0.950 . S
H1401 C1406 0.949 . S
H1402 C1408 0.950 . S
H1403 C1409 0.950 . S
H1404 C1410 0.949 . S
C1405 H1400 0.950 . S
C1405 C1407 1.327 . S
C1405 C1411 1.429 . S
C1406 C1398 1.574 . S
C1406 H1401 0.949 . S
C1406 C1412 1.368 . S
C1407 C1391 1.349 . S
C1407 H1399 0.950 . S
C1407 C1405 1.327 . S
C1408 C1396 1.349 . S
C1408 H1402 0.950 . S
C1408 C1409 1.327 . S
C1409 H1403 0.950 . S
C1409 C1408 1.327 . S
C1409 C1413 1.429 . S
C1410 C1393 1.574 . S
C1410 H1404 0.949 . S
C1410 C1414 1.368 . S
C1411 C1392 1.429 . S
C1411 C1405 1.429 . S
C1411 C1412 1.523 . S
C1412 C1393 1.368 . S
C1412 C1406 1.368 . S
C1412 C1411 1.523 . S
C1413 C1397 1.429 . S
C1413 C1409 1.429 . S
C1413 C1414 1.523 . S
C1414 C1398 1.368 . S
C1414 C1410 1.368 . S
C1414 C1413 1.523 . S
H1415 C1390 0.950 . S
H1416 C1392 0.950 . S
H1417 C1393 0.949 . S
H1418 C1395 0.950 . S
H1419 C1397 0.950 . S
C1420 C1421 1.349 1_545 S
C1420 C1422 1.327 . S
C1420 H1445 0.950 . S
C1421 C1420 1.349 1_565 S
C1421 C1437 1.349 . S
C1422 C1420 1.327 . S
C1422 C1441 1.421 1_545 S
C1422 H1446 0.950 . S
C1423 C1440 1.574 . S
C1423 C1442 1.368 1_565 S
C1423 H1447 0.949 . S
H1424 C1428 0.949 . S
C1425 C1426 1.349 . S
C1425 C1427 1.327 1_545 S
C1425 H1448 0.950 1_545 S
C1426 C1425 1.349 . S
C1426 C1438 1.349 . S
C1427 C1425 1.327 1_565 S
C1427 C1443 1.429 1_565 S
C1427 H1449 0.950 . S
C1428 H1424 0.949 . S
C1428 C1436 1.574 . S
C1428 C1444 1.368 . S
H1429 C1437 0.950 . S
H1430 C1435 0.950 . S
H1431 C1436 0.949 . S
H1432 C1438 0.950 . S
H1433 C1439 0.950 . S
H1434 C1440 0.949 . S
C1435 H1430 0.950 . S
C1435 C1437 1.327 . S
C1435 C1441 1.445 . S
C1436 C1428 1.574 . S
C1436 H1431 0.949 . S
C1436 C1442 1.368 . S
C1437 C1421 1.349 . S
C1437 H1429 0.950 . S
C1437 C1435 1.327 . S
C1438 C1426 1.349 . S
C1438 H1432 0.950 . S
C1438 C1439 1.327 . S
C1439 H1433 0.950 . S
C1439 C1438 1.327 . S
C1439 C1443 1.429 . S
C1440 C1423 1.574 . S
C1440 H1434 0.949 . S
C1440 C1444 1.368 1_565 S
C1441 C1422 1.421 1_565 S
C1441 C1435 1.445 . S
C1441 C1442 1.514 1_565 S
C1442 C1423 1.368 1_545 S
C1442 C1436 1.368 . S
C1442 C1441 1.514 1_545 S
C1443 C1427 1.429 1_545 S
C1443 C1439 1.429 . S
C1443 C1444 1.523 . S
C1444 C1428 1.368 . S
C1444 C1440 1.368 1_545 S
C1444 C1443 1.523 . S
H1445 C1420 0.950 . S
H1446 C1422 0.950 . S
H1447 C1423 0.949 . S
H1448 C1425 0.950 1_565 S
H1449 C1427 0.950 . S
C1450 C1451 1.349 . S
C1450 C1452 1.327 . S
C1450 H1475 0.950 . S
C1451 C1450 1.349 . S
C1451 C1467 1.349 1_554 S
C1452 C1450 1.327 . S
C1452 C1471 1.429 . S
C1452 H1476 0.950 . S
C1453 C1470 1.574 . S
C1453 C1472 1.368 . S
C1453 H1477 0.949 1_554 S
H1454 C1458 0.949 . S
C1455 C1456 1.349 . S
C1455 C1457 1.327 . S
C1455 H1478 0.950 . S
C1456 C1455 1.349 . S
C1456 C1468 1.349 . S
C1457 C1455 1.327 . S
C1457 C1473 1.429 . S
C1457 H1479 0.950 . S
C1458 H1454 0.949 . S
C1458 C1466 1.574 . S
C1458 C1474 1.368 . S
H1459 C1467 0.950 . S
H1460 C1465 0.950 . S
H1461 C1466 0.949 . S
H1462 C1468 0.950 . S
H1463 C1469 0.950 . S
H1464 C1470 0.949 1_556 S
C1465 H1460 0.950 . S
C1465 C1467 1.327 . S
C1465 C1471 1.429 1_556 S
C1466 C1458 1.574 . S
C1466 H1461 0.949 . S
C1466 C1472 1.368 . S
C1467 C1451 1.349 1_556 S
C1467 H1459 0.950 . S
C1467 C1465 1.327 . S
C1468 C1456 1.349 . S
C1468 H1462 0.950 . S
C1468 C1469 1.327 . S
C1469 H1463 0.950 . S
C1469 C1468 1.327 . S
C1469 C1473 1.429 . S
C1470 C1453 1.574 . S
C1470 H1464 0.949 1_554 S
C1470 C1474 1.368 . S
C1471 C1452 1.429 . S
C1471 C1465 1.429 1_554 S
C1471 C1472 1.523 . S
C1472 C1453 1.368 . S
C1472 C1466 1.368 . S
C1472 C1471 1.523 . S
C1473 C1457 1.429 . S
C1473 C1469 1.429 . S
C1473 C1474 1.523 . S
C1474 C1458 1.368 . S
C1474 C1470 1.368 . S
C1474 C1473 1.523 . S
H1475 C1450 0.950 . S
H1476 C1452 0.950 . S
H1477 C1453 0.949 1_556 S
H1478 C1455 0.950 . S
H1479 C1457 0.950 . S
C1480 C1481 1.349 . S
C1480 C1482 1.327 . S
C1480 H1505 0.950 . S
C1481 C1480 1.349 . S
C1481 C1497 1.349 . S
C1482 C1480 1.327 . S
C1482 C1501 1.429 . S
C1482 H1506 0.950 . S
C1483 C1500 1.574 . S
C1483 C1502 1.368 . S
C1483 H1507 0.949 . S
H1484 C1488 0.949 . S
C1485 C1486 1.349 . S
C1485 C1487 1.327 . S
C1485 H1508 0.950 . S
C1486 C1485 1.349 . S
C1486 C1498 1.349 . S
C1487 C1485 1.327 . S
C1487 C1503 1.429 . S
C1487 H1509 0.950 . S
C1488 H1484 0.949 . S
C1488 C1496 1.574 . S
C1488 C1504 1.368 . S
H1489 C1497 0.950 . S
H1490 C1495 0.950 . S
H1491 C1496 0.949 . S
H1492 C1498 0.950 . S
H1493 C1499 0.950 . S
H1494 C1500 0.949 . S
C1495 H1490 0.950 . S
C1495 C1497 1.327 . S
C1495 C1501 1.429 . S
C1496 C1488 1.574 . S
C1496 H1491 0.949 . S
C1496 C1502 1.368 . S
C1497 C1481 1.349 . S
C1497 H1489 0.950 . S
C1497 C1495 1.327 . S
C1498 C1486 1.349 . S
C1498 H1492 0.950 . S
C1498 C1499 1.327 . S
C1499 H1493 0.950 . S
C1499 C1498 1.327 . S
C1499 C1503 1.429 . S
C1500 C1483 1.574 . S
C1500 H1494 0.949 . S
C1500 C1504 1.368 . S
C1501 C1482 1.429 . S
C1501 C1495 1.429 . S
C1501 C1502 1.523 . S
C1502 C1483 1.368 . S
C1502 C1496 1.368 . S
C1502 C1501 1.523 . S
C1503 C1487 1.429 . S
C1503 C1499 1.429 . S
C1503 C1504 1.523 . S
C1504 C1488 1.368 . S
C1504 C1500 1.368 . S
C1504 C1503 1.523 . S
H1505 C1480 0.950 . S
H1506 C1482 0.950 . S
H1507 C1483 0.949 . S
H1508 C1485 0.950 . S
H1509 C1487 0.950 . S
C1510 C1511 1.349 . S
C1510 C1512 1.327 . S
C1510 H1535 0.950 . S
C1511 C1510 1.349 . S
C1511 C1527 1.349 . S
C1512 C1510 1.327 . S
C1512 C1531 1.429 . S
C1512 H1536 0.950 . S
C1513 C1530 1.574 . S
C1513 C1532 1.368 . S
C1513 H1537 0.949 . S
H1514 C1518 0.949 . S
C1515 C1516 1.349 . S
C1515 C1517 1.327 . S
C1515 H1538 0.950 . S
C1516 C1515 1.349 . S
C1516 C1528 1.349 . S
C1517 C1515 1.327 . S
C1517 C1533 1.429 . S
C1517 H1539 0.950 . S
C1518 H1514 0.949 . S
C1518 C1526 1.574 . S
C1518 C1534 1.368 . S
H1519 C1527 0.950 . S
H1520 C1525 0.950 . S
H1521 C1526 0.949 . S
H1522 C1528 0.950 . S
H1523 C1529 0.950 . S
H1524 C1530 0.949 . S
C1525 H1520 0.950 . S
C1525 C1527 1.327 . S
C1525 C1531 1.429 . S
C1526 C1518 1.574 . S
C1526 H1521 0.949 . S
C1526 C1532 1.368 . S
C1527 C1511 1.349 . S
C1527 H1519 0.950 . S
C1527 C1525 1.327 . S
C1528 C1516 1.349 . S
C1528 H1522 0.950 . S
C1528 C1529 1.327 . S
C1529 H1523 0.950 . S
C1529 C1528 1.327 . S
C1529 C1533 1.429 . S
C1530 C1513 1.574 . S
C1530 H1524 0.949 . S
C1530 C1534 1.368 . S
C1531 C1512 1.429 . S
C1531 C1525 1.429 . S
C1531 C1532 1.523 . S
C1532 C1513 1.368 . S
C1532 C1526 1.368 . S
C1532 C1531 1.523 . S
C1533 C1517 1.429 . S
C1533 C1529 1.429 . S
C1533 C1534 1.523 . S
C1534 C1518 1.368 . S
C1534 C1530 1.368 . S
C1534 C1533 1.523 . S
H1535 C1510 0.950 . S
H1536 C1512 0.950 . S
H1537 C1513 0.949 . S
H1538 C1515 0.950 . S
H1539 C1517 0.950 . S
C1540 C1541 1.349 . S
C1540 C1542 1.327 . S
C1540 H1565 0.950 . S
C1541 C1540 1.349 . S
C1541 C1557 1.349 . S
C1542 C1540 1.327 . S
C1542 C1561 1.429 . S
C1542 H1566 0.950 . S
C1543 C1560 1.574 . S
C1543 C1562 1.368 . S
C1543 H1567 0.949 . S
H1544 C1548 0.949 . S
C1545 C1546 1.349 . S
C1545 C1547 1.327 . S
C1545 H1568 0.950 . S
C1546 C1545 1.349 . S
C1546 C1558 1.349 . S
C1547 C1545 1.327 . S
C1547 C1563 1.429 . S
C1547 H1569 0.950 . S
C1548 H1544 0.949 . S
C1548 C1556 1.574 . S
C1548 C1564 1.368 . S
H1549 C1557 0.950 . S
H1550 C1555 0.950 . S
H1551 C1556 0.949 . S
H1552 C1558 0.950 . S
H1553 C1559 0.950 . S
H1554 C1560 0.949 . S
C1555 H1550 0.950 . S
C1555 C1557 1.327 . S
C1555 C1561 1.429 . S
C1556 C1548 1.574 . S
C1556 H1551 0.949 . S
C1556 C1562 1.368 . S
C1557 C1541 1.349 . S
C1557 H1549 0.950 . S
C1557 C1555 1.327 . S
C1558 C1546 1.349 . S
C1558 H1552 0.950 . S
C1558 C1559 1.327 . S
C1559 H1553 0.950 . S
C1559 C1558 1.327 . S
C1559 C1563 1.429 . S
C1560 C1543 1.574 . S
C1560 H1554 0.949 . S
C1560 C1564 1.368 . S
C1561 C1542 1.429 . S
C1561 C1555 1.429 . S
C1561 C1562 1.523 . S
C1562 C1543 1.368 . S
C1562 C1556 1.368 . S
C1562 C1561 1.523 . S
C1563 C1547 1.429 . S
C1563 C1559 1.429 . S
C1563 C1564 1.523 . S
C1564 C1548 1.368 . S
C1564 C1560 1.368 . S
C1564 C1563 1.523 . S
H1565 C1540 0.950 . S
H1566 C1542 0.950 . S
H1567 C1543 0.949 . S
H1568 C1545 0.950 . S
H1569 C1547 0.950 . S
C1570 C1571 1.349 . S
C1570 C1572 1.327 . S
C1570 H1595 0.950 . S
C1571 C1570 1.349 . S
C1571 C1587 1.349 . S
C1572 C1570 1.327 . S
C1572 C1591 1.429 . S
C1572 H1596 0.950 . S
C1573 C1590 1.574 . S
C1573 C1592 1.368 . S
C1573 H1597 0.949 . S
H1574 C1578 0.949 . S
C1575 C1576 1.349 . S
C1575 C1577 1.327 . S
C1575 H1598 0.950 . S
C1576 C1575 1.349 . S
C1576 C1588 1.349 . S
C1577 C1575 1.327 . S
C1577 C1593 1.429 . S
C1577 H1599 0.950 . S
C1578 H1574 0.949 . S
C1578 C1586 1.574 . S
C1578 C1594 1.368 . S
H1579 C1587 0.950 . S
H1580 C1585 0.950 . S
H1581 C1586 0.949 . S
H1582 C1588 0.950 . S
H1583 C1589 0.950 . S
H1584 C1590 0.949 . S
C1585 H1580 0.950 . S
C1585 C1587 1.327 . S
C1585 C1591 1.429 . S
C1586 C1578 1.574 . S
C1586 H1581 0.949 . S
C1586 C1592 1.368 . S
C1587 C1571 1.349 . S
C1587 H1579 0.950 . S
C1587 C1585 1.327 . S
C1588 C1576 1.349 . S
C1588 H1582 0.950 . S
C1588 C1589 1.327 . S
C1589 H1583 0.950 . S
C1589 C1588 1.327 . S
C1589 C1593 1.429 . S
C1590 C1573 1.574 . S
C1590 H1584 0.949 . S
C1590 C1594 1.368 . S
C1591 C1572 1.429 . S
C1591 C1585 1.429 . S
C1591 C1592 1.523 . S
C1592 C1573 1.368 . S
C1592 C1586 1.368 . S
C1592 C1591 1.523 . S
C1593 C1577 1.429 . S
C1593 C1589 1.429 . S
C1593 C1594 1.523 . S
C1594 C1578 1.368 . S
C1594 C1590 1.368 . S
C1594 C1593 1.523 . S
H1595 C1570 0.950 . S
H1596 C1572 0.950 . S
H1597 C1573 0.949 . S
H1598 C1575 0.950 . S
H1599 C1577 0.950 . S
C1600 C1601 1.349 . S
C1600 C1602 1.327 . S
C1600 H1625 0.950 . S
C1601 C1600 1.349 . S
C1601 C1617 1.349 . S
C1602 C1600 1.327 . S
C1602 C1621 1.429 . S
C1602 H1626 0.950 . S
C1603 C1620 1.574 . S
C1603 C1622 1.368 . S
C1603 H1627 0.949 . S
H1604 C1608 0.949 . S
C1605 C1606 1.349 . S
C1605 C1607 1.327 . S
C1605 H1628 0.950 . S
C1606 C1605 1.349 . S
C1606 C1618 1.349 . S
C1607 C1605 1.327 . S
C1607 C1623 1.429 . S
C1607 H1629 0.950 . S
C1608 H1604 0.949 . S
C1608 C1616 1.574 . S
C1608 C1624 1.368 . S
H1609 C1617 0.950 . S
H1610 C1615 0.950 . S
H1611 C1616 0.949 . S
H1612 C1618 0.950 . S
H1613 C1619 0.950 . S
H1614 C1620 0.949 . S
C1615 H1610 0.950 . S
C1615 C1617 1.327 . S
C1615 C1621 1.429 . S
C1616 C1608 1.574 . S
C1616 H1611 0.949 . S
C1616 C1622 1.368 . S
C1617 C1601 1.349 . S
C1617 H1609 0.950 . S
C1617 C1615 1.327 . S
C1618 C1606 1.349 . S
C1618 H1612 0.950 . S
C1618 C1619 1.327 . S
C1619 H1613 0.950 . S
C1619 C1618 1.327 . S
C1619 C1623 1.429 . S
C1620 C1603 1.574 . S
C1620 H1614 0.949 . S
C1620 C1624 1.368 . S
C1621 C1602 1.429 . S
C1621 C1615 1.429 . S
C1621 C1622 1.523 . S
C1622 C1603 1.368 . S
C1622 C1616 1.368 . S
C1622 C1621 1.523 . S
C1623 C1607 1.429 . S
C1623 C1619 1.429 . S
C1623 C1624 1.523 . S
C1624 C1608 1.368 . S
C1624 C1620 1.368 . S
C1624 C1623 1.523 . S
H1625 C1600 0.950 . S
H1626 C1602 0.950 . S
H1627 C1603 0.949 . S
H1628 C1605 0.950 . S
H1629 C1607 0.950 . S
C1630 C1631 1.349 . S
C1630 C1632 1.327 . S
C1630 H1655 0.950 . S
C1631 C1630 1.349 . S
C1631 C1647 1.349 . S
C1632 C1630 1.327 . S
C1632 C1651 1.429 . S
C1632 H1656 0.950 . S
C1633 C1650 1.574 . S
C1633 C1652 1.368 . S
C1633 H1657 0.949 . S
H1634 C1638 0.949 . S
C1635 C1636 1.349 . S
C1635 C1637 1.327 . S
C1635 H1658 0.950 . S
C1636 C1635 1.349 . S
C1636 C1648 1.349 . S
C1637 C1635 1.327 . S
C1637 C1653 1.429 . S
C1637 H1659 0.950 . S
C1638 H1634 0.949 . S
C1638 C1646 1.574 . S
C1638 C1654 1.368 . S
H1639 C1647 0.950 . S
H1640 C1645 0.950 . S
H1641 C1646 0.949 . S
H1642 C1648 0.950 . S
H1643 C1649 0.950 . S
H1644 C1650 0.949 . S
C1645 H1640 0.950 . S
C1645 C1647 1.327 . S
C1645 C1651 1.429 . S
C1646 C1638 1.574 . S
C1646 H1641 0.949 . S
C1646 C1652 1.368 . S
C1647 C1631 1.349 . S
C1647 H1639 0.950 . S
C1647 C1645 1.327 . S
C1648 C1636 1.349 . S
C1648 H1642 0.950 . S
C1648 C1649 1.327 . S
C1649 H1643 0.950 . S
C1649 C1648 1.327 . S
C1649 C1653 1.429 . S
C1650 C1633 1.574 . S
C1650 H1644 0.949 . S
C1650 C1654 1.368 . S
C1651 C1632 1.429 . S
C1651 C1645 1.429 . S
C1651 C1652 1.523 . S
C1652 C1633 1.368 . S
C1652 C1646 1.368 . S
C1652 C1651 1.523 . S
C1653 C1637 1.429 . S
C1653 C1649 1.429 . S
C1653 C1654 1.523 . S
C1654 C1638 1.368 . S
C1654 C1650 1.368 . S
C1654 C1653 1.523 . S
H1655 C1630 0.950 . S
H1656 C1632 0.950 . S
H1657 C1633 0.949 . S
H1658 C1635 0.950 . S
H1659 C1637 0.950 . S
C1660 C1661 1.349 . S
C1660 C1662 1.327 . S
C1660 H1685 0.950 . S
C1661 C1660 1.349 . S
C1661 C1677 1.349 . S
C1662 C1660 1.327 . S
C1662 C1681 1.429 . S
C1662 H1686 0.950 . S
C1663 C1680 1.574 . S
C1663 C1682 1.368 . S
C1663 H1687 0.949 . S
H1664 C1668 0.949 . S
C1665 C1666 1.349 . S
C1665 C1667 1.327 . S
C1665 H1688 0.950 . S
C1666 C1665 1.349 . S
C1666 C1678 1.349 . S
C1667 C1665 1.327 . S
C1667 C1683 1.429 . S
C1667 H1689 0.950 . S
C1668 H1664 0.949 . S
C1668 C1676 1.574 . S
C1668 C1684 1.368 . S
H1669 C1677 0.950 . S
H1670 C1675 0.950 . S
H1671 C1676 0.949 . S
H1672 C1678 0.950 . S
H1673 C1679 0.950 . S
H1674 C1680 0.949 . S
C1675 H1670 0.950 . S
C1675 C1677 1.327 . S
C1675 C1681 1.429 . S
C1676 C1668 1.574 . S
C1676 H1671 0.949 . S
C1676 C1682 1.368 . S
C1677 C1661 1.349 . S
C1677 H1669 0.950 . S
C1677 C1675 1.327 . S
C1678 C1666 1.349 . S
C1678 H1672 0.950 . S
C1678 C1679 1.327 . S
C1679 H1673 0.950 . S
C1679 C1678 1.327 . S
C1679 C1683 1.429 . S
C1680 C1663 1.574 . S
C1680 H1674 0.949 . S
C1680 C1684 1.368 . S
C1681 C1662 1.429 . S
C1681 C1675 1.429 . S
C1681 C1682 1.523 . S
C1682 C1663 1.368 . S
C1682 C1676 1.368 . S
C1682 C1681 1.523 . S
C1683 C1667 1.429 . S
C1683 C1679 1.429 . S
C1683 C1684 1.523 . S
C1684 C1668 1.368 . S
C1684 C1680 1.368 . S
C1684 C1683 1.523 . S
H1685 C1660 0.950 . S
H1686 C1662 0.950 . S
H1687 C1663 0.949 . S
H1688 C1665 0.950 . S
H1689 C1667 0.950 . S
C1690 C1691 1.349 . S
C1690 C1692 1.327 . S
C1690 H1715 0.950 . S
C1691 C1690 1.349 . S
C1691 C1707 1.349 . S
C1692 C1690 1.327 . S
C1692 C1711 1.429 . S
C1692 H1716 0.950 . S
C1693 C1710 1.574 . S
C1693 C1712 1.368 . S
C1693 H1717 0.949 . S
H1694 C1698 0.949 . S
C1695 C1696 1.349 . S
C1695 C1697 1.327 . S
C1695 H1718 0.950 . S
C1696 C1695 1.349 . S
C1696 C1708 1.349 . S
C1697 C1695 1.327 . S
C1697 C1713 1.429 . S
C1697 H1719 0.950 . S
C1698 H1694 0.949 . S
C1698 C1706 1.574 . S
C1698 C1714 1.368 . S
H1699 C1707 0.950 . S
H1700 C1705 0.950 . S
H1701 C1706 0.949 . S
H1702 C1708 0.950 . S
H1703 C1709 0.950 . S
H1704 C1710 0.949 . S
C1705 H1700 0.950 . S
C1705 C1707 1.327 . S
C1705 C1711 1.429 . S
C1706 C1698 1.574 . S
C1706 H1701 0.949 . S
C1706 C1712 1.368 . S
C1707 C1691 1.349 . S
C1707 H1699 0.950 . S
C1707 C1705 1.327 . S
C1708 C1696 1.349 . S
C1708 H1702 0.950 . S
C1708 C1709 1.327 . S
C1709 H1703 0.950 . S
C1709 C1708 1.327 . S
C1709 C1713 1.429 . S
C1710 C1693 1.574 . S
C1710 H1704 0.949 . S
C1710 C1714 1.368 . S
C1711 C1692 1.429 . S
C1711 C1705 1.429 . S
C1711 C1712 1.523 . S
C1712 C1693 1.368 . S
C1712 C1706 1.368 . S
C1712 C1711 1.523 . S
C1713 C1697 1.429 . S
C1713 C1709 1.429 . S
C1713 C1714 1.523 . S
C1714 C1698 1.368 . S
C1714 C1710 1.368 . S
C1714 C1713 1.523 . S
H1715 C1690 0.950 . S
H1716 C1692 0.950 . S
H1717 C1693 0.949 . S
H1718 C1695 0.950 . S
H1719 C1697 0.950 . S
C1720 C1721 1.349 . S
C1720 C1722 1.327 . S
C1720 H1745 0.950 . S
C1721 C1720 1.349 . S
C1721 C1737 1.349 . S
C1722 C1720 1.327 . S
C1722 C1741 1.429 . S
C1722 H1746 0.950 . S
C1723 C1740 1.574 . S
C1723 C1742 1.368 . S
C1723 H1747 0.949 . S
H1724 C1728 0.949 . S
C1725 C1726 1.349 . S
C1725 C1727 1.327 . S
C1725 H1748 0.950 . S
C1726 C1725 1.349 . S
C1726 C1738 1.349 . S
C1727 C1725 1.327 . S
C1727 C1743 1.429 . S
C1727 H1749 0.950 . S
C1728 H1724 0.949 . S
C1728 C1736 1.574 . S
C1728 C1744 1.368 . S
H1729 C1737 0.950 . S
H1730 C1735 0.950 . S
H1731 C1736 0.949 . S
H1732 C1738 0.950 . S
H1733 C1739 0.950 . S
H1734 C1740 0.949 . S
C1735 H1730 0.950 . S
C1735 C1737 1.327 . S
C1735 C1741 1.429 . S
C1736 C1728 1.574 . S
C1736 H1731 0.949 . S
C1736 C1742 1.368 . S
C1737 C1721 1.349 . S
C1737 H1729 0.950 . S
C1737 C1735 1.327 . S
C1738 C1726 1.349 . S
C1738 H1732 0.950 . S
C1738 C1739 1.327 . S
C1739 H1733 0.950 . S
C1739 C1738 1.327 . S
C1739 C1743 1.429 . S
C1740 C1723 1.574 . S
C1740 H1734 0.949 . S
C1740 C1744 1.368 . S
C1741 C1722 1.429 . S
C1741 C1735 1.429 . S
C1741 C1742 1.523 . S
C1742 C1723 1.368 . S
C1742 C1736 1.368 . S
C1742 C1741 1.523 . S
C1743 C1727 1.429 . S
C1743 C1739 1.429 . S
C1743 C1744 1.523 . S
C1744 C1728 1.368 . S
C1744 C1740 1.368 . S
C1744 C1743 1.523 . S
H1745 C1720 0.950 . S
H1746 C1722 0.950 . S
H1747 C1723 0.949 . S
H1748 C1725 0.950 . S
H1749 C1727 0.950 . S
C1750 C1751 1.349 . S
C1750 C1752 1.327 . S
C1750 H1775 0.950 . S
C1751 C1750 1.349 . S
C1751 C1767 1.349 . S
C1752 C1750 1.327 . S
C1752 C1771 1.429 . S
C1752 H1776 0.950 . S
C1753 C1770 1.571 1_554 S
C1753 C1772 1.368 . S
C1753 H1777 0.949 1_554 S
H1754 C1758 0.949 . S
C1755 C1756 1.349 1_556 S
C1755 C1757 1.327 . S
C1755 H1778 0.950 . S
C1756 C1755 1.349 1_554 S
C1756 C1768 1.349 . S
C1757 C1755 1.327 . S
C1757 C1773 1.429 1_556 S
C1757 H1779 0.950 . S
C1758 H1754 0.949 . S
C1758 C1766 1.574 . S
C1758 C1774 1.368 . S
H1759 C1767 0.950 . S
H1760 C1765 0.950 1_556 S
H1761 C1766 0.949 . S
H1762 C1768 0.950 . S
H1763 C1769 0.950 . S
H1764 C1770 0.957 . S
C1765 H1760 0.950 1_554 S
C1765 C1767 1.327 . S
C1765 C1771 1.429 . S
C1766 C1758 1.574 . S
C1766 H1761 0.949 . S
C1766 C1772 1.368 . S
C1767 C1751 1.349 . S
C1767 H1759 0.950 . S
C1767 C1765 1.327 . S
C1768 C1756 1.349 . S
C1768 H1762 0.950 . S
C1768 C1769 1.327 . S
C1769 H1763 0.950 . S
C1769 C1768 1.327 . S
C1769 C1773 1.429 . S
C1770 C1753 1.571 1_556 S
C1770 H1764 0.957 . S
C1770 C1774 1.363 1_556 S
C1771 C1752 1.429 . S
C1771 C1765 1.429 . S
C1771 C1772 1.523 . S
C1772 C1753 1.368 . S
C1772 C1766 1.368 . S
C1772 C1771 1.523 . S
C1773 C1757 1.429 1_554 S
C1773 C1769 1.429 . S
C1773 C1774 1.523 . S
C1774 C1758 1.368 . S
C1774 C1770 1.363 1_554 S
C1774 C1773 1.523 . S
H1775 C1750 0.950 . S
H1776 C1752 0.950 . S
H1777 C1753 0.949 1_556 S
H1778 C1755 0.950 . S
H1779 C1757 0.950 . S
C1780 C1781 1.349 . S
C1780 C1782 1.327 . S
C1780 H1805 0.950 . S
C1781 C1780 1.349 . S
C1781 C1797 1.349 . S
C1782 C1780 1.327 . S
C1782 C1801 1.429 . S
C1782 H1806 0.950 . S
C1783 C1800 1.574 . S
C1783 C1802 1.368 . S
C1783 H1807 0.949 . S
H1784 C1788 0.949 . S
C1785 C1786 1.349 . S
C1785 C1787 1.327 . S
C1785 H1808 0.950 . S
C1786 C1785 1.349 . S
C1786 C1798 1.349 . S
C1787 C1785 1.327 . S
C1787 C1803 1.429 . S
C1787 H1809 0.950 . S
C1788 H1784 0.949 . S
C1788 C1796 1.574 . S
C1788 C1804 1.368 . S
H1789 C1797 0.950 . S
H1790 C1795 0.950 . S
H1791 C1796 0.949 . S
H1792 C1798 0.950 . S
H1793 C1799 0.950 . S
H1794 C1800 0.949 . S
C1795 H1790 0.950 . S
C1795 C1797 1.327 . S
C1795 C1801 1.429 . S
C1796 C1788 1.574 . S
C1796 H1791 0.949 . S
C1796 C1802 1.368 . S
C1797 C1781 1.349 . S
C1797 H1789 0.950 . S
C1797 C1795 1.327 . S
C1798 C1786 1.349 . S
C1798 H1792 0.950 . S
C1798 C1799 1.327 . S
C1799 H1793 0.950 . S
C1799 C1798 1.327 . S
C1799 C1803 1.429 . S
C1800 C1783 1.574 . S
C1800 H1794 0.949 . S
C1800 C1804 1.368 . S
C1801 C1782 1.429 . S
C1801 C1795 1.429 . S
C1801 C1802 1.523 . S
C1802 C1783 1.368 . S
C1802 C1796 1.368 . S
C1802 C1801 1.523 . S
C1803 C1787 1.429 . S
C1803 C1799 1.429 . S
C1803 C1804 1.523 . S
C1804 C1788 1.368 . S
C1804 C1800 1.368 . S
C1804 C1803 1.523 . S
H1805 C1780 0.950 . S
H1806 C1782 0.950 . S
H1807 C1783 0.949 . S
H1808 C1785 0.950 . S
H1809 C1787 0.950 . S
C1810 C1811 1.349 . S
C1810 C1812 1.327 . S
C1810 H1835 0.950 . S
C1811 C1810 1.349 . S
C1811 C1827 1.349 . S
C1812 C1810 1.327 . S
C1812 C1831 1.429 . S
C1812 H1836 0.950 . S
C1813 C1830 1.574 . S
C1813 C1832 1.368 . S
C1813 H1837 0.949 . S
H1814 C1818 0.949 . S
C1815 C1816 1.349 . S
C1815 C1817 1.327 . S
C1815 H1838 0.950 . S
C1816 C1815 1.349 . S
C1816 C1828 1.349 . S
C1817 C1815 1.327 . S
C1817 C1833 1.429 . S
C1817 H1839 0.950 . S
C1818 H1814 0.949 . S
C1818 C1826 1.574 . S
C1818 C1834 1.368 . S
H1819 C1827 0.950 . S
H1820 C1825 0.950 . S
H1821 C1826 0.949 . S
H1822 C1828 0.950 . S
H1823 C1829 0.950 . S
H1824 C1830 0.949 . S
C1825 H1820 0.950 . S
C1825 C1827 1.327 . S
C1825 C1831 1.429 . S
C1826 C1818 1.574 . S
C1826 H1821 0.949 . S
C1826 C1832 1.368 . S
C1827 C1811 1.349 . S
C1827 H1819 0.950 . S
C1827 C1825 1.327 . S
C1828 C1816 1.349 . S
C1828 H1822 0.950 . S
C1828 C1829 1.327 . S
C1829 H1823 0.950 . S
C1829 C1828 1.327 . S
C1829 C1833 1.429 . S
C1830 C1813 1.574 . S
C1830 H1824 0.949 . S
C1830 C1834 1.368 . S
C1831 C1812 1.429 . S
C1831 C1825 1.429 . S
C1831 C1832 1.523 . S
C1832 C1813 1.368 . S
C1832 C1826 1.368 . S
C1832 C1831 1.523 . S
C1833 C1817 1.429 . S
C1833 C1829 1.429 . S
C1833 C1834 1.523 . S
C1834 C1818 1.368 . S
C1834 C1830 1.368 . S
C1834 C1833 1.523 . S
H1835 C1810 0.950 . S
H1836 C1812 0.950 . S
H1837 C1813 0.949 . S
H1838 C1815 0.950 . S
H1839 C1817 0.950 . S
C1840 C1841 1.349 . S
C1840 C1842 1.327 . S
C1840 H1865 0.950 . S
C1841 C1840 1.349 . S
C1841 C1857 1.349 . S
C1842 C1840 1.327 . S
C1842 C1861 1.429 . S
C1842 H1866 0.950 . S
C1843 C1860 1.574 . S
C1843 C1862 1.368 . S
C1843 H1867 0.949 . S
H1844 C1848 0.949 . S
C1845 C1846 1.349 . S
C1845 C1847 1.327 . S
C1845 H1868 0.950 . S
C1846 C1845 1.349 . S
C1846 C1858 1.349 . S
C1847 C1845 1.327 . S
C1847 C1863 1.429 . S
C1847 H1869 0.950 . S
C1848 H1844 0.949 . S
C1848 C1856 1.574 . S
C1848 C1864 1.368 . S
H1849 C1857 0.950 . S
H1850 C1855 0.950 . S
H1851 C1856 0.949 . S
H1852 C1858 0.950 . S
H1853 C1859 0.950 . S
H1854 C1860 0.949 . S
C1855 H1850 0.950 . S
C1855 C1857 1.327 . S
C1855 C1861 1.429 . S
C1856 C1848 1.574 . S
C1856 H1851 0.949 . S
C1856 C1862 1.368 . S
C1857 C1841 1.349 . S
C1857 H1849 0.950 . S
C1857 C1855 1.327 . S
C1858 C1846 1.349 . S
C1858 H1852 0.950 . S
C1858 C1859 1.327 . S
C1859 H1853 0.950 . S
C1859 C1858 1.327 . S
C1859 C1863 1.429 . S
C1860 C1843 1.574 . S
C1860 H1854 0.949 . S
C1860 C1864 1.368 . S
C1861 C1842 1.429 . S
C1861 C1855 1.429 . S
C1861 C1862 1.523 . S
C1862 C1843 1.368 . S
C1862 C1856 1.368 . S
C1862 C1861 1.523 . S
C1863 C1847 1.429 . S
C1863 C1859 1.429 . S
C1863 C1864 1.523 . S
C1864 C1848 1.368 . S
C1864 C1860 1.368 . S
C1864 C1863 1.523 . S
H1865 C1840 0.950 . S
H1866 C1842 0.950 . S
H1867 C1843 0.949 . S
H1868 C1845 0.950 . S
H1869 C1847 0.950 . S
C1870 C1871 1.349 . S
C1870 C1872 1.327 . S
C1870 H1895 0.950 . S
C1871 C1870 1.349 . S
C1871 C1887 1.349 . S
C1872 C1870 1.327 . S
C1872 C1891 1.429 . S
C1872 H1896 0.950 . S
C1873 C1890 1.574 . S
C1873 C1892 1.368 . S
C1873 H1897 0.949 . S
H1874 C1878 0.949 . S
C1875 C1876 1.349 . S
C1875 C1877 1.327 . S
C1875 H1898 0.950 . S
C1876 C1875 1.349 . S
C1876 C1888 1.349 . S
C1877 C1875 1.327 . S
C1877 C1893 1.429 . S
C1877 H1899 0.950 . S
C1878 H1874 0.949 . S
C1878 C1886 1.574 . S
C1878 C1894 1.368 . S
H1879 C1887 0.950 . S
H1880 C1885 0.950 . S
H1881 C1886 0.949 . S
H1882 C1888 0.950 . S
H1883 C1889 0.950 . S
H1884 C1890 0.949 . S
C1885 H1880 0.950 . S
C1885 C1887 1.327 . S
C1885 C1891 1.429 . S
C1886 C1878 1.574 . S
C1886 H1881 0.949 . S
C1886 C1892 1.368 . S
C1887 C1871 1.349 . S
C1887 H1879 0.950 . S
C1887 C1885 1.327 . S
C1888 C1876 1.349 . S
C1888 H1882 0.950 . S
C1888 C1889 1.327 . S
C1889 H1883 0.950 . S
C1889 C1888 1.327 . S
C1889 C1893 1.429 . S
C1890 C1873 1.574 . S
C1890 H1884 0.949 . S
C1890 C1894 1.368 . S
C1891 C1872 1.429 . S
C1891 C1885 1.429 . S
C1891 C1892 1.523 . S
C1892 C1873 1.368 . S
C1892 C1886 1.368 . S
C1892 C1891 1.523 . S
C1893 C1877 1.429 . S
C1893 C1889 1.429 . S
C1893 C1894 1.523 . S
C1894 C1878 1.368 . S
C1894 C1890 1.368 . S
C1894 C1893 1.523 . S
H1895 C1870 0.950 . S
H1896 C1872 0.950 . S
H1897 C1873 0.949 . S
H1898 C1875 0.950 . S
H1899 C1877 0.950 . S
C1900 C1901 1.349 1_554 S
C1900 C1902 1.327 . S
C1900 H1925 0.950 . S
C1901 C1900 1.349 1_556 S
C1901 C1917 1.349 . S
C1902 C1900 1.327 . S
C1902 C1921 1.429 1_554 S
C1902 H1926 0.950 . S
C1903 C1920 1.574 . S
C1903 C1922 1.368 . S
C1903 H1927 0.949 . S
H1904 C1908 0.949 1_554 S
C1905 C1906 1.349 . S
C1905 C1907 1.327 . S
C1905 H1928 0.950 . S
C1906 C1905 1.349 . S
C1906 C1918 1.349 . S
C1907 C1905 1.327 . S
C1907 C1923 1.429 . S
C1907 H1929 0.950 . S
C1908 H1904 0.949 1_556 S
C1908 C1916 1.574 . S
C1908 C1924 1.368 . S
H1909 C1917 0.950 . S
H1910 C1915 0.950 . S
H1911 C1916 0.949 1_554 S
H1912 C1918 0.950 . S
H1913 C1919 0.950 . S
H1914 C1920 0.949 . S
C1915 H1910 0.950 . S
C1915 C1917 1.327 . S
C1915 C1921 1.429 . S
C1916 C1908 1.574 . S
C1916 H1911 0.949 1_556 S
C1916 C1922 1.368 . S
C1917 C1901 1.349 . S
C1917 H1909 0.950 . S
C1917 C1915 1.327 . S
C1918 C1906 1.349 . S
C1918 H1912 0.950 . S
C1918 C1919 1.327 . S
C1919 H1913 0.950 . S
C1919 C1918 1.327 . S
C1919 C1923 1.429 . S
C1920 C1903 1.574 . S
C1920 H1914 0.949 . S
C1920 C1924 1.368 . S
C1921 C1902 1.429 1_556 S
C1921 C1915 1.429 . S
C1921 C1922 1.523 . S
C1922 C1903 1.368 . S
C1922 C1916 1.368 . S
C1922 C1921 1.523 . S
C1923 C1907 1.429 . S
C1923 C1919 1.429 . S
C1923 C1924 1.523 . S
C1924 C1908 1.368 . S
C1924 C1920 1.368 . S
C1924 C1923 1.523 . S
H1925 C1900 0.950 . S
H1926 C1902 0.950 . S
H1927 C1903 0.949 . S
H1928 C1905 0.950 . S
H1929 C1907 0.950 . S
C1930 C1931 1.349 . S
C1930 C1932 1.327 . S
C1930 H1955 0.950 . S
C1931 C1930 1.349 . S
C1931 C1947 1.349 . S
C1932 C1930 1.327 . S
C1932 C1951 1.429 . S
C1932 H1956 0.950 . S
C1933 C1950 1.574 . S
C1933 C1952 1.368 . S
C1933 H1957 0.949 . S
H1934 C1938 0.949 . S
C1935 C1936 1.349 . S
C1935 C1937 1.327 . S
C1935 H1958 0.950 . S
C1936 C1935 1.349 . S
C1936 C1948 1.349 . S
C1937 C1935 1.327 . S
C1937 C1953 1.429 . S
C1937 H1959 0.950 . S
C1938 H1934 0.949 . S
C1938 C1946 1.574 . S
C1938 C1954 1.368 . S
H1939 C1947 0.950 . S
H1940 C1945 0.950 . S
H1941 C1946 0.949 . S
H1942 C1948 0.950 . S
H1943 C1949 0.950 . S
H1944 C1950 0.949 . S
C1945 H1940 0.950 . S
C1945 C1947 1.327 . S
C1945 C1951 1.429 . S
C1946 C1938 1.574 . S
C1946 H1941 0.949 . S
C1946 C1952 1.368 . S
C1947 C1931 1.349 . S
C1947 H1939 0.950 . S
C1947 C1945 1.327 . S
C1948 C1936 1.349 . S
C1948 H1942 0.950 . S
C1948 C1949 1.327 . S
C1949 H1943 0.950 . S
C1949 C1948 1.327 . S
C1949 C1953 1.429 . S
C1950 C1933 1.574 . S
C1950 H1944 0.949 . S
C1950 C1954 1.368 . S
C1951 C1932 1.429 . S
C1951 C1945 1.429 . S
C1951 C1952 1.523 . S
C1952 C1933 1.368 . S
C1952 C1946 1.368 . S
C1952 C1951 1.523 . S
C1953 C1937 1.429 . S
C1953 C1949 1.429 . S
C1953 C1954 1.523 . S
C1954 C1938 1.368 . S
C1954 C1950 1.368 . S
C1954 C1953 1.523 . S
H1955 C1930 0.950 . S
H1956 C1932 0.950 . S
H1957 C1933 0.949 . S
H1958 C1935 0.950 . S
H1959 C1937 0.950 . S
C1960 C1961 1.349 . S
C1960 C1962 1.327 . S
C1960 H1985 0.950 . S
C1961 C1960 1.349 . S
C1961 C1977 1.349 . S
C1962 C1960 1.327 . S
C1962 C1981 1.429 . S
C1962 H1986 0.950 . S
C1963 C1980 1.574 . S
C1963 C1982 1.368 . S
C1963 H1987 0.949 . S
H1964 C1968 0.949 . S
C1965 C1966 1.349 . S
C1965 C1967 1.327 . S
C1965 H1988 0.950 . S
C1966 C1965 1.349 . S
C1966 C1978 1.349 . S
C1967 C1965 1.327 . S
C1967 C1983 1.429 . S
C1967 H1989 0.950 . S
C1968 H1964 0.949 . S
C1968 C1976 1.574 . S
C1968 C1984 1.368 . S
H1969 C1977 0.950 . S
H1970 C1975 0.950 . S
H1971 C1976 0.949 . S
H1972 C1978 0.950 . S
H1973 C1979 0.950 . S
H1974 C1980 0.949 . S
C1975 H1970 0.950 . S
C1975 C1977 1.327 . S
C1975 C1981 1.429 . S
C1976 C1968 1.574 . S
C1976 H1971 0.949 . S
C1976 C1982 1.368 . S
C1977 C1961 1.349 . S
C1977 H1969 0.950 . S
C1977 C1975 1.327 . S
C1978 C1966 1.349 . S
C1978 H1972 0.950 . S
C1978 C1979 1.327 . S
C1979 H1973 0.950 . S
C1979 C1978 1.327 . S
C1979 C1983 1.429 . S
C1980 C1963 1.574 . S
C1980 H1974 0.949 . S
C1980 C1984 1.368 . S
C1981 C1962 1.429 . S
C1981 C1975 1.429 . S
C1981 C1982 1.523 . S
C1982 C1963 1.368 . S
C1982 C1976 1.368 . S
C1982 C1981 1.523 . S
C1983 C1967 1.429 . S
C1983 C1979 1.429 . S
C1983 C1984 1.523 . S
C1984 C1968 1.368 . S
C1984 C1980 1.368 . S
C1984 C1983 1.523 . S
H1985 C1960 0.950 . S
H1986 C1962 0.950 . S
H1987 C1963 0.949 . S
H1988 C1965 0.950 . S
H1989 C1967 0.950 . S
C1990 C1991 1.349 . S
C1990 C1992 1.327 . S
C1990 H2015 0.950 . S
C1991 C1990 1.349 . S
C1991 C2007 1.349 . S
C1992 C1990 1.327 . S
C1992 C2011 1.429 . S
C1992 H2016 0.950 . S
C1993 C2010 1.574 . S
C1993 C2012 1.368 . S
C1993 H2017 0.949 . S
H1994 C1998 0.949 . S
C1995 C1996 1.349 . S
C1995 C1997 1.327 . S
C1995 H2018 0.950 . S
C1996 C1995 1.349 . S
C1996 C2008 1.349 . S
C1997 C1995 1.327 . S
C1997 C2013 1.429 . S
C1997 H2019 0.950 . S
C1998 H1994 0.949 . S
C1998 C2006 1.574 . S
C1998 C2014 1.368 . S
H1999 C2007 0.950 . S
H2000 C2005 0.950 . S
H2001 C2006 0.949 . S
H2002 C2008 0.950 . S
H2003 C2009 0.950 . S
H2004 C2010 0.949 . S
C2005 H2000 0.950 . S
C2005 C2007 1.327 . S
C2005 C2011 1.429 . S
C2006 C1998 1.574 . S
C2006 H2001 0.949 . S
C2006 C2012 1.368 . S
C2007 C1991 1.349 . S
C2007 H1999 0.950 . S
C2007 C2005 1.327 . S
C2008 C1996 1.349 . S
C2008 H2002 0.950 . S
C2008 C2009 1.327 . S
C2009 H2003 0.950 . S
C2009 C2008 1.327 . S
C2009 C2013 1.429 . S
C2010 C1993 1.574 . S
C2010 H2004 0.949 . S
C2010 C2014 1.368 . S
C2011 C1992 1.429 . S
C2011 C2005 1.429 . S
C2011 C2012 1.523 . S
C2012 C1993 1.368 . S
C2012 C2006 1.368 . S
C2012 C2011 1.523 . S
C2013 C1997 1.429 . S
C2013 C2009 1.429 . S
C2013 C2014 1.523 . S
C2014 C1998 1.368 . S
C2014 C2010 1.368 . S
C2014 C2013 1.523 . S
H2015 C1990 0.950 . S
H2016 C1992 0.950 . S
H2017 C1993 0.949 . S
H2018 C1995 0.950 . S
H2019 C1997 0.950 . S
C2020 C2021 1.349 . S
C2020 C2022 1.327 . S
C2020 H2045 0.950 . S
C2021 C2020 1.349 . S
C2021 C2037 1.349 . S
C2022 C2020 1.327 . S
C2022 C2041 1.429 . S
C2022 H2046 0.950 . S
C2023 C2040 1.574 . S
C2023 C2042 1.368 . S
C2023 H2047 0.949 . S
H2024 C2028 0.949 . S
C2025 C2026 1.349 . S
C2025 C2027 1.327 . S
C2025 H2048 0.950 . S
C2026 C2025 1.349 . S
C2026 C2038 1.349 . S
C2027 C2025 1.327 . S
C2027 C2043 1.429 . S
C2027 H2049 0.950 . S
C2028 H2024 0.949 . S
C2028 C2036 1.574 . S
C2028 C2044 1.368 . S
H2029 C2037 0.950 . S
H2030 C2035 0.950 . S
H2031 C2036 0.949 . S
H2032 C2038 0.950 . S
H2033 C2039 0.950 . S
H2034 C2040 0.949 . S
C2035 H2030 0.950 . S
C2035 C2037 1.327 . S
C2035 C2041 1.429 . S
C2036 C2028 1.574 . S
C2036 H2031 0.949 . S
C2036 C2042 1.368 . S
C2037 C2021 1.349 . S
C2037 H2029 0.950 . S
C2037 C2035 1.327 . S
C2038 C2026 1.349 . S
C2038 H2032 0.950 . S
C2038 C2039 1.327 . S
C2039 H2033 0.950 . S
C2039 C2038 1.327 . S
C2039 C2043 1.429 . S
C2040 C2023 1.574 . S
C2040 H2034 0.949 . S
C2040 C2044 1.368 . S
C2041 C2022 1.429 . S
C2041 C2035 1.429 . S
C2041 C2042 1.523 . S
C2042 C2023 1.368 . S
C2042 C2036 1.368 . S
C2042 C2041 1.523 . S
C2043 C2027 1.429 . S
C2043 C2039 1.429 . S
C2043 C2044 1.523 . S
C2044 C2028 1.368 . S
C2044 C2040 1.368 . S
C2044 C2043 1.523 . S
H2045 C2020 0.950 . S
H2046 C2022 0.950 . S
H2047 C2023 0.949 . S
H2048 C2025 0.950 . S
H2049 C2027 0.950 . S
C2050 C2051 1.349 . S
C2050 C2052 1.327 . S
C2050 H2075 0.950 . S
C2051 C2050 1.349 . S
C2051 C2067 1.349 . S
C2052 C2050 1.327 . S
C2052 C2071 1.429 . S
C2052 H2076 0.950 . S
C2053 C2070 1.574 . S
C2053 C2072 1.368 . S
C2053 H2077 0.949 . S
H2054 C2058 0.949 . S
C2055 C2056 1.349 . S
C2055 C2057 1.327 . S
C2055 H2078 0.950 . S
C2056 C2055 1.349 . S
C2056 C2068 1.349 . S
C2057 C2055 1.327 . S
C2057 C2073 1.429 . S
C2057 H2079 0.950 . S
C2058 H2054 0.949 . S
C2058 C2066 1.574 . S
C2058 C2074 1.368 . S
H2059 C2067 0.950 . S
H2060 C2065 0.950 . S
H2061 C2066 0.949 . S
H2062 C2068 0.950 . S
H2063 C2069 0.950 . S
H2064 C2070 0.949 . S
C2065 H2060 0.950 . S
C2065 C2067 1.327 . S
C2065 C2071 1.429 . S
C2066 C2058 1.574 . S
C2066 H2061 0.949 . S
C2066 C2072 1.368 . S
C2067 C2051 1.349 . S
C2067 H2059 0.950 . S
C2067 C2065 1.327 . S
C2068 C2056 1.349 . S
C2068 H2062 0.950 . S
C2068 C2069 1.327 . S
C2069 H2063 0.950 . S
C2069 C2068 1.327 . S
C2069 C2073 1.429 . S
C2070 C2053 1.574 . S
C2070 H2064 0.949 . S
C2070 C2074 1.368 . S
C2071 C2052 1.429 . S
C2071 C2065 1.429 . S
C2071 C2072 1.523 . S
C2072 C2053 1.368 . S
C2072 C2066 1.368 . S
C2072 C2071 1.523 . S
C2073 C2057 1.429 . S
C2073 C2069 1.429 . S
C2073 C2074 1.523 . S
C2074 C2058 1.368 . S
C2074 C2070 1.368 . S
C2074 C2073 1.523 . S
H2075 C2050 0.950 . S
H2076 C2052 0.950 . S
H2077 C2053 0.949 . S
H2078 C2055 0.950 . S
H2079 C2057 0.950 . S
C641 C11 0.969 . S
C646 C56 0.954 . S
C671 C91 1.798 . S
C676 C42 1.780 . S
C701 C122 2.065 . S
C706 C99 2.065 . S
C731 C19 1.045 . S
C736 C136 1.039 . S
C761 C10 1.044 . S
C766 C367 1.036 . S
C791 C282 0.970 . S
C796 C47 0.954 . S
C821 C82 1.798 . S
C826 C411 1.779 . S
C851 C131 2.065 . S
C856 C530 2.066 . S
C881 C322 1.798 . S
C886 C51 1.778 . S
C911 C491 2.065 . S
C916 C90 2.065 . S
C941 C570 1.044 . S
C946 C127 1.037 . S
C971 C2 0.970 . S
C976 C447 0.955 . S
C1001 C16 0.604 . S
C1006 C327 0.576 . S
C1031 C499 1.464 . S
C1036 C170 1.468 . S
C1061 C216 0.574 . S
C1066 C567 0.604 . S
C1091 C450 1.467 . S
C1096 C259 1.463 . S
C1121 C96 0.574 . S
C1126 C287 0.604 . S
C1151 C370 1.464 . S
C1156 C179 1.467 . S
C1181 C250 1.464 . S
C1186 C419 1.467 . S
C1211 C202 1.798 . S
C1216 C451 1.778 . S
C1241 C371 2.065 . S
C1246 C210 2.066 . S
C1271 C456 0.954 . S
C1276 C291 0.970 . S
C1301 C211 1.798 . S
C1306 C162 1.779 . S
C1331 C362 2.065 . S
C1336 C339 2.065 . S
C1361 C531 1.798 . S
C1366 C442 1.780 . S
C1391 C242 2.065 . S
C1396 C219 2.066 . S
C1421 C376 1.037 . S
C1426 C579 1.044 . S
C1451 C536 0.574 . S
C1456 C7 0.602 . S
C1481 C87 0.574 . S
C1486 C576 0.604 . S
C1511 C490 1.464 . S
C1516 C59 1.468 . S
C1541 C296 0.604 . S
C1546 C207 0.575 . S
C1571 C139 1.464 . S
C1576 C410 1.468 . S
C1601 C482 2.065 . S
C1606 C539 2.066 . S
C1631 C299 1.045 . S
C1636 C496 1.038 . S
C1661 C247 1.037 . S
C1666 C290 1.044 . S
C1691 C171 1.779 . S
C1696 C522 1.798 . S
C1721 C487 1.037 . S
C1726 C610 1.044 . S
C1751 C607 0.604 . S
C1756 C336 0.574 . S
C1781 C50 1.467 . S
C1786 C379 1.463 . S
C1811 C330 2.066 . S
C1816 C251 2.065 . S
C1841 C331 1.798 . S
C1846 C402 1.779 . S
C1871 C619 1.044 . S
C1876 C256 1.037 . S
C1901 C527 0.574 . S
C1906 C616 0.604 . S
C1931 C459 1.468 . S
C1936 C130 1.465 . S
C1961 C416 0.954 . S
C1966 C571 0.970 . S
C1991 C407 0.954 . S
C1996 C602 0.970 . S
C2021 C167 0.954 . S
C2026 C562 0.970 . S
C2051 C611 0.970 . S
C2056 C176 0.954 . S
