# Generated by pormake.
# Topology wlr, (5)-cn, num edge types: 1
# Building blocks:
#     Node 0, Type 0, BuildingBlock: BEQFEK_clean_sbu_0, # of connection points: 5
#     Node 1, Type 0, BuildingBlock: BEQFEK_clean_sbu_0, # of connection points: 5
#     Node 2, Type 0, BuildingBlock: BEQFEK_clean_sbu_0, # of connection points: 5
#     Node 3, Type 0, BuildingBlock: BEQFEK_clean_sbu_0, # of connection points: 5
#     Node 4, Type 0, BuildingBlock: BEQFEK_clean_sbu_0, # of connection points: 5
#     Node 5, Type 0, BuildingBlock: BEQFEK_clean_sbu_0, # of connection points: 5
#     Node 6, Type 0, BuildingBlock: BEQFEK_clean_sbu_0, # of connection points: 5
#     Node 7, Type 0, BuildingBlock: BEQFEK_clean_sbu_0, # of connection points: 5
#     Node 8, Type 0, BuildingBlock: BEQFEK_clean_sbu_0, # of connection points: 5
#     Node 9, Type 0, BuildingBlock: BEQFEK_clean_sbu_0, # of connection points: 5
#     Node 10, Type 0, BuildingBlock: BEQFEK_clean_sbu_0, # of connection points: 5
#     Node 11, Type 0, BuildingBlock: BEQFEK_clean_sbu_0, # of connection points: 5
#     Node 12, Type 0, BuildingBlock: BEQFEK_clean_sbu_0, # of connection points: 5
#     Node 13, Type 0, BuildingBlock: BEQFEK_clean_sbu_0, # of connection points: 5
#     Node 14, Type 0, BuildingBlock: BEQFEK_clean_sbu_0, # of connection points: 5
#     Node 15, Type 0, BuildingBlock: BEQFEK_clean_sbu_0, # of connection points: 5
#     Node 16, Type 0, BuildingBlock: BEQFEK_clean_sbu_0, # of connection points: 5
#     Node 17, Type 0, BuildingBlock: BEQFEK_clean_sbu_0, # of connection points: 5
#     Node 18, Type 0, BuildingBlock: BEQFEK_clean_sbu_0, # of connection points: 5
#     Node 19, Type 0, BuildingBlock: BEQFEK_clean_sbu_0, # of connection points: 5
#     Node 20, Type 0, BuildingBlock: BEQFEK_clean_sbu_0, # of connection points: 5
#     Node 21, Type 0, BuildingBlock: BEQFEK_clean_sbu_0, # of connection points: 5
#     Node 22, Type 0, BuildingBlock: BEQFEK_clean_sbu_0, # of connection points: 5
#     Node 23, Type 0, BuildingBlock: BEQFEK_clean_sbu_0, # of connection points: 5
#     Node 24, Type 0, BuildingBlock: BEQFEK_clean_sbu_0, # of connection points: 5
#     Node 25, Type 0, BuildingBlock: BEQFEK_clean_sbu_0, # of connection points: 5
#     Node 26, Type 0, BuildingBlock: BEQFEK_clean_sbu_0, # of connection points: 5
#     Node 27, Type 0, BuildingBlock: BEQFEK_clean_sbu_0, # of connection points: 5
#     Node 28, Type 0, BuildingBlock: BEQFEK_clean_sbu_0, # of connection points: 5
#     Node 29, Type 0, BuildingBlock: BEQFEK_clean_sbu_0, # of connection points: 5
#     Node 30, Type 0, BuildingBlock: BEQFEK_clean_sbu_0, # of connection points: 5
#     Node 31, Type 0, BuildingBlock: BEQFEK_clean_sbu_0, # of connection points: 5
#     Node 32, Type 0, BuildingBlock: BEQFEK_clean_sbu_0, # of connection points: 5
#     Node 33, Type 0, BuildingBlock: BEQFEK_clean_sbu_0, # of connection points: 5
#     Node 34, Type 0, BuildingBlock: BEQFEK_clean_sbu_0, # of connection points: 5
#     Node 35, Type 0, BuildingBlock: BEQFEK_clean_sbu_0, # of connection points: 5
#     Edge 36, Type (0, 0), None
#     Edge 37, Type (0, 0), None
#     Edge 38, Type (0, 0), None
#     Edge 39, Type (0, 0), None
#     Edge 40, Type (0, 0), None
#     Edge 41, Type (0, 0), None
#     Edge 42, Type (0, 0), None
#     Edge 43, Type (0, 0), None
#     Edge 44, Type (0, 0), None
#     Edge 45, Type (0, 0), None
#     Edge 46, Type (0, 0), None
#     Edge 47, Type (0, 0), None
#     Edge 48, Type (0, 0), None
#     Edge 49, Type (0, 0), None
#     Edge 50, Type (0, 0), None
#     Edge 51, Type (0, 0), None
#     Edge 52, Type (0, 0), None
#     Edge 53, Type (0, 0), None
#     Edge 54, Type (0, 0), None
#     Edge 55, Type (0, 0), None
#     Edge 56, Type (0, 0), None
#     Edge 57, Type (0, 0), None
#     Edge 58, Type (0, 0), None
#     Edge 59, Type (0, 0), None
#     Edge 60, Type (0, 0), None
#     Edge 61, Type (0, 0), None
#     Edge 62, Type (0, 0), None
#     Edge 63, Type (0, 0), None
#     Edge 64, Type (0, 0), None
#     Edge 65, Type (0, 0), None
#     Edge 66, Type (0, 0), None
#     Edge 67, Type (0, 0), None
#     Edge 68, Type (0, 0), None
#     Edge 69, Type (0, 0), None
#     Edge 70, Type (0, 0), None
#     Edge 71, Type (0, 0), None
#     Edge 72, Type (0, 0), None
#     Edge 73, Type (0, 0), None
#     Edge 74, Type (0, 0), None
#     Edge 75, Type (0, 0), None
#     Edge 76, Type (0, 0), None
#     Edge 77, Type (0, 0), None
#     Edge 78, Type (0, 0), None
#     Edge 79, Type (0, 0), None
#     Edge 80, Type (0, 0), None
#     Edge 81, Type (0, 0), None
#     Edge 82, Type (0, 0), None
#     Edge 83, Type (0, 0), None
#     Edge 84, Type (0, 0), None
#     Edge 85, Type (0, 0), None
#     Edge 86, Type (0, 0), None
#     Edge 87, Type (0, 0), None
#     Edge 88, Type (0, 0), None
#     Edge 89, Type (0, 0), None
#     Edge 90, Type (0, 0), None
#     Edge 91, Type (0, 0), None
#     Edge 92, Type (0, 0), None
#     Edge 93, Type (0, 0), None
#     Edge 94, Type (0, 0), None
#     Edge 95, Type (0, 0), None
#     Edge 96, Type (0, 0), None
#     Edge 97, Type (0, 0), None
#     Edge 98, Type (0, 0), None
#     Edge 99, Type (0, 0), None
#     Edge 100, Type (0, 0), None
#     Edge 101, Type (0, 0), None
#     Edge 102, Type (0, 0), None
#     Edge 103, Type (0, 0), None
#     Edge 104, Type (0, 0), None
#     Edge 105, Type (0, 0), None
#     Edge 106, Type (0, 0), None
#     Edge 107, Type (0, 0), None
#     Edge 108, Type (0, 0), None
#     Edge 109, Type (0, 0), None
#     Edge 110, Type (0, 0), None
#     Edge 111, Type (0, 0), None
#     Edge 112, Type (0, 0), None
#     Edge 113, Type (0, 0), None
#     Edge 114, Type (0, 0), None
#     Edge 115, Type (0, 0), None
#     Edge 116, Type (0, 0), None
#     Edge 117, Type (0, 0), None
#     Edge 118, Type (0, 0), None
#     Edge 119, Type (0, 0), None
#     Edge 120, Type (0, 0), None
#     Edge 121, Type (0, 0), None
#     Edge 122, Type (0, 0), None
#     Edge 123, Type (0, 0), None
#     Edge 124, Type (0, 0), None
#     Edge 125, Type (0, 0), None
# Relax obj value: 0.202
# Max RMSD: 0.135
# Mean RMSD: 0.135
data_MOF--net-wlr--node1-BEQFEK_clean_sbu_0--edge1-none
_symmetry_space_group_name_H-M    P1
_symmetry_Int_Tables_number       1
_symmetry_cell_setting            triclinic
loop_
_symmetry_equiv_pos_as_xyz
'x, y, z'
_cell_length_a     37.879293
_cell_length_b     37.789286
_cell_length_c     19.748681
_cell_angle_alpha  89.89909
_cell_angle_beta   89.923724
_cell_angle_gamma 119.95211
loop_
_atom_site_label
_atom_site_type_symbol
_atom_site_fract_x
_atom_site_fract_y
_atom_site_fract_z
_atom_type_partial_charge
Co0 Co 0.34729 0.23446 0.08692 0.0
Co1 Co 0.26599 0.22768 0.03586 0.0
C2 C 0.35221 0.2796 0.96599 0.0
O3 O 0.37066 0.27414 1.01477 0.0
O4 O 0.31287 0.26239 0.96559 0.0
C5 C 0.38725 0.2056 0.17639 0.0
O6 O 0.41971 0.2046 0.19603 0.0
C7 C 0.20265 0.25351 1.0125 0.0
C8 C 0.14614 0.19435 0.02326 0.0
C9 C 0.16016 0.2356 1.01421 0.0
N10 N 0.21304 0.22437 1.02042 0.0
N11 N 0.17876 0.18903 0.02645 0.0
C12 C 0.23293 0.29759 1.00604 0.0
H13 H 0.26387 0.30356 1.01964 0.0
H14 H 0.22419 0.31595 0.03847 0.0
H15 H 0.23282 0.30604 0.95243 0.0
C16 C 0.32431 0.26067 0.21143 0.0
N17 N 0.31751 0.24901 0.14628 0.0
N18 N 0.28253 0.24516 0.12708 0.0
C19 C 0.26518 0.25248 0.18127 0.0
C20 C 0.29101 0.26188 0.23645 0.0
C21 C 0.36259 0.27176 0.24852 0.0
H22 H 0.38918 0.28671 0.21389 0.0
H23 H 0.36687 0.29239 0.29151 0.0
H24 H 0.36019 0.24331 0.26828 0.0
O25 O 0.31553 0.17797 0.04884 0.0
O26 O 0.25413 0.16972 0.03203 0.0
H27 H 0.21408 0.25057 0.23368 0.0
H28 H 0.22549 0.27449 0.15138 0.0
C29 C 0.22411 0.24904 0.18146 0.0
H30 H 0.20154 0.2198 0.15789 0.0
H31 H 0.17756 0.16119 0.035 0.0
O32 O 0.39196 0.23319 0.1345 0.0
C33 C 0.27808 0.15521 0.03509 0.0
Co34 Co 0.81468 0.12535 0.09081 0.0
Co35 Co 0.8155 0.04915 0.03436 0.0
C36 C 0.76948 0.09124 0.96754 0.0
O37 O 0.77622 0.11462 1.01773 0.0
O38 O 0.78416 0.06685 0.96587 0.0
C39 C 0.85163 0.1957 0.17806 0.0
O40 O 0.8581 0.23217 0.19329 0.0
C41 C 0.7873 0.95829 0.02322 0.0
C42 C 0.84394 0.96324 0.98244 0.0
C43 C 0.80577 0.9354 1.00676 0.0
N44 N 0.81402 0.99821 1.01049 0.0
N45 N 0.84753 1.00046 0.98551 0.0
C46 C 0.74748 0.94281 0.05934 0.0
H47 H 0.73949 0.9672 0.06487 0.0
H48 H 0.74913 0.93092 0.10973 0.0
H49 H 0.72314 0.91613 0.03278 0.0
C50 C 0.78335 0.0723 0.21311 0.0
N51 N 0.79552 0.07847 0.14789 0.0
N52 N 0.79949 0.04759 0.12699 0.0
C53 C 0.79371 1.02287 0.18065 0.0
C54 C 0.78163 0.03682 0.23586 0.0
C55 C 0.77608 0.10116 0.25388 0.0
H56 H 0.76225 0.1152 0.22192 0.0
H57 H 0.75608 0.08529 0.29787 0.0
H58 H 0.80585 0.12573 0.27245 0.0
O59 O 0.87141 0.14633 0.05277 0.0
O60 O 0.87433 0.09046 0.03213 0.0
H61 H 0.83329 1.00519 0.22769 0.0
H62 H 0.7859 0.96362 0.20154 0.0
C63 C 0.8104 0.99447 0.1864 0.0
H64 H 0.82561 0.99354 0.13927 0.0
H65 H 0.87362 0.02774 0.97236 0.0
O66 O 0.82122 0.17323 0.14072 0.0
C67 C 0.89174 0.12902 0.0376 0.0
Co68 Co 0.9427 0.71957 0.08956 0.0
Co69 Co 1.01298 0.79636 0.02671 0.0
C70 C 0.97246 0.70655 0.96441 0.0
O71 O 0.95006 0.69003 1.01572 0.0
O72 O 0.99612 0.74571 0.96169 0.0
C73 C 0.87294 0.68473 0.1559 0.0
O74 O 0.85675 0.68726 0.09884 0.0
C75 C 0.10338 0.85237 1.01893 0.0
C76 C 0.10583 0.90716 0.97425 0.0
C77 C 0.13003 0.89297 1.00176 0.0
N78 N 0.06503 0.84326 1.00292 0.0
N79 N 0.06701 0.87625 0.97595 0.0
C80 C 0.11367 0.82483 0.05821 0.0
H81 H 0.08755 0.79312 0.05903 0.0
H82 H 0.12144 0.83603 0.11091 0.0
H83 H 0.14112 0.82569 0.03684 0.0
C84 C 0.99317 0.74599 0.20865 0.0
N85 N 0.98942 0.749 0.14147 0.0
N86 N 1.01507 0.78622 0.12135 0.0
C87 C 0.03394 0.80887 0.17691 0.0
C88 C 1.01976 0.78393 0.23397 0.0
C89 C 0.97406 0.70719 0.24829 0.0
H90 H 0.96051 0.68017 0.21463 0.0
H91 H 0.99718 0.70574 0.28082 0.0
H92 H 0.95108 0.70741 0.28262 0.0
O93 O 0.9193 0.75601 0.05955 0.0
O94 O 0.97077 0.81292 1.01824 0.0
H95 H 0.05195 0.86787 0.21773 0.0
H96 H 0.09305 0.86114 0.19007 0.0
C97 C 0.0617 0.85411 0.17743 0.0
H98 H 0.06153 0.86784 0.12793 0.0
H99 H 0.04162 0.87811 0.96071 0.0
O100 O 0.90493 0.68254 0.15473 0.0
C101 C 0.93325 0.79169 0.03441 0.0
Co102 Co 0.25506 0.33149 0.44036 0.0
Co103 Co 0.25158 0.25716 0.50849 0.0
C104 C 0.2947 0.34776 0.56886 0.0
O105 O 0.28947 0.36337 0.51555 0.0
O106 O 0.28082 0.30881 0.57289 0.0
C107 C 0.21459 0.36308 0.38194 0.0
O108 O 0.20285 0.36507 0.44368 0.0
C109 C 0.28117 0.19706 0.52695 0.0
C110 C 0.22607 0.14642 0.57407 0.0
C111 C 0.26361 0.15648 0.54721 0.0
N112 N 0.25451 0.21015 0.5398 0.0
N113 N 0.22198 0.17968 0.56881 0.0
C114 C 0.31999 0.22055 0.48783 0.0
H115 H 0.32716 0.25243 0.47871 0.0
H116 H 0.31752 0.20518 0.43899 0.0
H117 H 0.3452 0.22 0.51499 0.0
C118 C 0.28892 0.30817 0.32766 0.0
N119 N 0.27708 0.30404 0.39289 0.0
N120 N 0.26897 0.26808 0.41554 0.0
C121 C 0.27198 0.24679 0.36278 0.0
C122 C 0.28557 0.27208 0.30627 0.0
C123 C 0.2993 0.34426 0.28387 0.0
H124 H 0.31096 0.3724 0.31468 0.0
H125 H 0.32257 0.34837 0.24559 0.0
H126 H 0.27139 0.3383 0.25635 0.0
O127 O 0.19608 0.29375 0.46964 0.0
O128 O 0.19238 0.23759 0.50946 0.0
H129 H 0.22953 0.18884 0.32092 0.0
H130 H 0.27681 0.19341 0.34542 0.0
C131 C 0.25343 0.20137 0.3606 0.0
H132 H 0.23928 0.18707 0.40959 0.0
H133 H 0.19604 0.18095 0.58258 0.0
O134 O 0.24801 0.36403 0.37287 0.0
C135 C 0.17517 0.2578 0.49327 0.0
Co136 Co 0.71726 0.92625 0.4439 0.0
Co137 Co 0.79663 0.99979 0.50136 0.0
C138 C 0.70948 0.96055 0.56905 0.0
O139 O 0.6916 0.93989 0.51681 0.0
O140 O 0.74881 0.98263 0.57125 0.0
C141 C 0.67938 0.85263 0.36259 0.0
O142 O 0.6475 0.81656 0.35221 0.0
C143 C 0.86264 0.08667 0.53409 0.0
C144 C 0.91704 0.08011 0.52346 0.0
C145 C 0.90529 0.10885 0.5346 0.0
N146 N 0.85 0.04692 0.52263 0.0
N147 N 0.883 0.0435 0.51693 0.0
C148 C 0.83435 0.10296 0.54074 0.0
H149 H 0.80296 0.07948 0.52605 0.0
H150 H 0.84492 0.13067 0.50889 0.0
H151 H 0.83442 0.11127 0.59445 0.0
C152 C 0.74205 0.98072 0.32363 0.0
N153 N 0.74789 0.97316 0.38797 0.0
N154 N 0.78065 1.00522 0.41192 0.0
C155 C 0.7971 0.03379 0.3623 0.0
C156 C 0.77292 1.01919 0.30495 0.0
C157 C 0.70812 0.95091 0.28036 0.0
H158 H 0.6789 0.93791 0.30855 0.0
H159 H 0.70603 0.96529 0.23264 0.0
H160 H 0.71401 0.92569 0.26869 0.0
O161 O 0.74821 0.90171 0.48502 0.0
O162 O 0.80958 0.95499 0.4976 0.0
H163 H 0.84856 0.08609 0.31597 0.0
H164 H 0.8335 0.09483 0.39771 0.0
C165 C 0.83721 0.07249 0.36677 0.0
H166 H 0.86001 0.06647 0.39114 0.0
H167 H 0.88252 1.01627 0.50606 0.0
O168 O 0.67414 0.87893 0.39458 0.0
C169 C 0.78589 0.91665 0.49607 0.0
Co170 Co 0.11938 0.81075 0.44387 0.0
Co171 Co 0.05012 0.81982 0.50857 0.0
C172 C 0.08945 0.76962 0.57114 0.0
O173 O 0.11033 0.77344 0.51855 0.0
O174 O 0.06685 0.78633 0.57422 0.0
C175 C 0.19135 0.84359 0.38413 0.0
O176 O 0.20616 0.85766 0.44432 0.0
C177 C 0.96156 0.79078 0.53612 0.0
C178 C 0.96325 0.8496 0.5477 0.0
C179 C 0.93668 0.80793 0.54463 0.0
N180 N 1.00088 0.82087 0.53417 0.0
N181 N 1.00143 0.85593 0.54163 0.0
C182 C 0.9481 0.74694 0.52501 0.0
H183 H 0.97355 0.74322 0.5054 0.0
H184 H 0.92183 0.73299 0.48974 0.0
H185 H 0.93805 0.73137 0.57445 0.0
C186 C 0.06733 0.7872 0.32593 0.0
N187 N 0.07301 0.79596 0.39237 0.0
N188 N 0.04504 0.80376 0.41495 0.0
C189 C 1.02154 0.80184 0.36167 0.0
C190 C 0.03588 0.79221 0.30356 0.0
C191 C 0.09103 0.77354 0.28381 0.0
H192 H 0.10098 0.75569 0.315 0.0
H193 H 0.07269 0.75434 0.2408 0.0
H194 H 0.11769 0.80089 0.26228 0.0
O195 O 0.14547 0.86968 0.47471 0.0
O196 O 0.09524 0.87788 0.51315 0.0
H197 H 0.97973 0.81724 0.31405 0.0
H198 H 0.96004 0.78384 0.38645 0.0
C199 C 0.98736 0.81078 0.36518 0.0
H200 H 0.9957 0.83721 0.39892 0.0
H201 H 1.02786 0.88449 0.53991 0.0
O202 O 0.15735 0.81153 0.37907 0.0
C203 C 0.13278 0.8925 0.4987 0.0
Co204 Co 0.71948 0.81141 0.9551 0.0
Co205 Co 0.80077 0.81816 1.00615 0.0
C206 C 0.71454 0.76624 0.07601 0.0
O207 O 0.6961 0.77171 0.02724 0.0
O208 O 0.75388 0.78345 0.07641 0.0
C209 C 0.67952 0.84028 0.86564 0.0
O210 O 0.64706 0.84128 0.846 0.0
C211 C 0.86411 0.79232 0.02951 0.0
C212 C 0.92061 0.85148 1.01873 0.0
C213 C 0.90659 0.81023 0.0278 0.0
N214 N 0.85372 0.82146 0.02158 0.0
N215 N 0.88799 0.8568 1.01554 0.0
C216 C 0.83382 0.74825 0.03598 0.0
H217 H 0.80288 0.74228 0.02238 0.0
H218 H 0.84256 0.72989 1.00353 0.0
H219 H 0.83393 0.7398 0.08958 0.0
C220 C 0.74245 0.7852 0.83057 0.0
N221 N 0.74925 0.79686 0.89572 0.0
N222 N 0.78423 0.8007 0.91492 0.0
C223 C 0.80158 0.79337 0.86073 0.0
C224 C 0.77575 0.78398 0.80554 0.0
C225 C 0.70417 0.77412 0.79348 0.0
H226 H 0.67759 0.75918 0.82811 0.0
H227 H 0.69989 0.7535 0.75049 0.0
H228 H 0.70658 0.80258 0.77373 0.0
O229 O 0.75124 0.86789 0.9932 0.0
O230 O 0.81263 0.87612 1.01002 0.0
H231 H 0.85266 0.79525 0.80833 0.0
H232 H 0.84124 0.77134 0.89064 0.0
C233 C 0.84263 0.79679 0.86055 0.0
H234 H 0.86522 0.82602 0.88411 0.0
H235 H 0.8892 0.88464 1.00699 0.0
O236 O 0.67481 0.81268 0.90752 0.0
C237 C 0.78869 0.89063 1.00697 0.0
Co238 Co 0.25205 0.92048 0.95119 0.0
Co239 Co 0.25125 0.99669 1.00765 0.0
C240 C 0.29726 0.95459 0.07445 0.0
O241 O 0.29052 0.93122 0.02426 0.0
O242 O 0.28259 0.97899 0.07613 0.0
C243 C 0.2151 0.85013 0.86394 0.0
O244 O 0.20863 0.81366 0.84873 0.0
C245 C 0.27946 0.08756 1.01883 0.0
C246 C 0.22282 0.08261 0.05962 0.0
C247 C 0.261 0.11045 0.03536 0.0
N248 N 0.25274 0.04764 0.03153 0.0
N249 N 0.21923 0.04538 0.05652 0.0
C250 C 0.31927 0.10304 0.98267 0.0
H251 H 0.32726 0.07865 0.97713 0.0
H252 H 0.3176 0.11492 0.93229 0.0
H253 H 0.34362 0.12972 1.00922 0.0
C254 C 0.28337 0.97354 0.82887 0.0
N255 N 0.27121 0.96737 0.8941 0.0
N256 N 0.26724 0.99825 0.91501 0.0
C257 C 0.27303 0.02297 0.86136 0.0
C258 C 0.2851 1.00902 0.80614 0.0
C259 C 0.29063 0.94467 0.7881 0.0
H260 H 0.30446 0.93063 0.82005 0.0
H261 H 0.31063 0.96054 0.7441 0.0
H262 H 0.26086 0.9201 0.76954 0.0
O263 O 0.19533 0.89951 0.98924 0.0
O264 O 0.19242 0.95539 1.00991 0.0
H265 H 0.23345 0.04067 0.81434 0.0
H266 H 0.28085 0.08223 0.84047 0.0
C267 C 0.25635 0.05138 0.85562 0.0
H268 H 0.24115 0.05232 0.90276 0.0
H269 H 0.19313 1.0181 0.06965 0.0
O270 O 0.2455 0.87261 0.90128 0.0
C271 C 0.17501 0.91682 1.00445 0.0
Co272 Co 0.12405 0.32627 0.95244 0.0
Co273 Co 0.05377 0.24948 1.01528 0.0
C274 C 0.09429 0.33929 0.07759 0.0
O275 O 0.1167 0.3558 0.02627 0.0
O276 O 0.07063 0.30013 0.08031 0.0
C277 C 0.19382 0.3611 0.88609 0.0
O278 O 0.21001 0.35857 0.94315 0.0
C279 C 0.96337 0.19347 0.0231 0.0
C280 C 0.96092 0.13868 0.06779 0.0
C281 C 0.93672 0.15288 0.04033 0.0
N282 N 1.00172 0.20258 0.03908 0.0
N283 N 0.99975 0.16959 0.06605 0.0
C284 C 0.95308 0.22101 0.9838 0.0
H285 H 0.9792 0.25272 0.98297 0.0
H286 H 0.94531 0.2098 0.93111 0.0
H287 H 0.92563 0.22015 1.00516 0.0
C288 C 0.07358 0.29985 0.83335 0.0
N289 N 0.07733 0.29683 0.90052 0.0
N290 N 0.05168 0.25961 0.92064 0.0
C291 C 1.0328 0.23697 0.86508 0.0
C292 C 0.04698 0.2619 0.80802 0.0
C293 C 0.0927 0.33864 0.7937 0.0
H294 H 0.10625 0.36566 0.82736 0.0
H295 H 0.06958 0.34009 0.76117 0.0
H296 H 0.11568 0.33842 0.75938 0.0
O297 O 0.14746 0.28982 0.98245 0.0
O298 O 0.09598 0.23291 0.02376 0.0
H299 H 1.0148 0.17796 0.82428 0.0
H300 H 0.97369 0.1847 0.8519 0.0
C301 C 1.00504 0.19172 0.86457 0.0
H302 H 1.00519 0.17799 0.91407 0.0
H303 H 1.02513 0.16772 0.08127 0.0
O304 O 0.16182 0.36329 0.88726 0.0
C305 C 0.1335 0.25414 1.00759 0.0
Co306 Co 0.81169 0.71435 0.60165 0.0
Co307 Co 0.81517 0.78868 0.53351 0.0
C308 C 0.77205 0.69808 0.47314 0.0
O309 O 0.77728 0.68247 0.52646 0.0
O310 O 0.78593 0.73703 0.4691 0.0
C311 C 0.85215 0.68275 0.66007 0.0
O312 O 0.86389 0.68076 0.59833 0.0
C313 C 0.78557 0.84877 0.51501 0.0
C314 C 0.84067 0.89941 0.46788 0.0
C315 C 0.80313 0.88934 0.49471 0.0
N316 N 0.81224 0.83568 0.50218 0.0
N317 N 0.84477 0.86615 0.47318 0.0
C318 C 0.74676 0.82529 0.55414 0.0
H319 H 0.73959 0.79341 0.56328 0.0
H320 H 0.74924 0.84067 0.60298 0.0
H321 H 0.72154 0.82584 0.52699 0.0
C322 C 0.77783 0.73768 0.71435 0.0
N323 N 0.78967 0.74181 0.64912 0.0
N324 N 0.79777 0.77776 0.62646 0.0
C325 C 0.79477 0.79905 0.67921 0.0
C326 C 0.78118 0.77378 0.73573 0.0
C327 C 0.76746 0.70159 0.75815 0.0
H328 H 0.75579 0.67345 0.72734 0.0
H329 H 0.7442 0.69749 0.79645 0.0
H330 H 0.79537 0.70755 0.78565 0.0
O331 O 0.87067 0.75209 0.57237 0.0
O332 O 0.87437 0.80824 0.53255 0.0
H333 H 0.83723 0.85701 0.72105 0.0
H334 H 0.78994 0.85243 0.69656 0.0
C335 C 0.81332 0.84447 0.68138 0.0
H336 H 0.82745 0.85877 0.63238 0.0
H337 H 0.87071 0.86488 0.45942 0.0
O338 O 0.81874 0.68181 0.66914 0.0
C339 C 0.89158 0.78804 0.54874 0.0
Co340 Co 0.34948 0.11959 0.59808 0.0
Co341 Co 0.27011 0.04604 0.54061 0.0
C342 C 0.35727 0.08528 0.47294 0.0
O343 O 0.37514 0.10594 0.52518 0.0
O344 O 0.31794 0.0632 0.47074 0.0
C345 C 0.38735 0.19321 0.67938 0.0
O346 O 0.41923 0.22928 0.68975 0.0
C347 C 0.20411 0.95916 0.5079 0.0
C348 C 0.14971 0.96572 0.51851 0.0
C349 C 0.16145 0.93698 0.50739 0.0
N350 N 0.21674 0.99891 0.51935 0.0
N351 N 0.18374 1.00233 0.52504 0.0
C352 C 0.2324 0.94287 0.50126 0.0
H353 H 0.26378 0.96635 0.51596 0.0
H354 H 0.22183 0.91516 0.5331 0.0
H355 H 0.23233 0.93456 0.44755 0.0
C356 C 0.32467 0.06512 0.71837 0.0
N357 N 0.31885 0.07268 0.65402 0.0
N358 N 0.28609 0.04061 0.63007 0.0
C359 C 0.26963 1.01204 0.67969 0.0
C360 C 0.29381 0.02665 0.73704 0.0
C361 C 0.3586 0.09494 0.76164 0.0
H362 H 0.38782 0.10793 0.73345 0.0
H363 H 0.36069 0.08056 0.80936 0.0
H364 H 0.35271 0.12016 0.7733 0.0
O365 O 0.31853 0.14412 0.55695 0.0
O366 O 0.25716 0.09084 0.54435 0.0
H367 H 0.21817 0.95975 0.72602 0.0
H368 H 0.23324 0.951 0.64428 0.0
C369 C 0.22953 0.97335 0.67522 0.0
H370 H 0.20673 0.97937 0.65083 0.0
H371 H 0.18422 0.02957 0.53589 0.0
O372 O 0.39259 0.16691 0.64741 0.0
C373 C 0.28085 0.12918 0.54588 0.0
Co374 Co 0.94737 0.23508 0.59812 0.0
Co375 Co 1.01662 0.22601 0.53342 0.0
C376 C 0.97729 0.27621 0.47084 0.0
O377 O 0.95642 0.27239 0.52344 0.0
O378 O 0.99989 0.2595 0.46776 0.0
C379 C 0.8754 0.20224 0.65786 0.0
O380 O 0.86058 0.18817 0.59767 0.0
C381 C 0.10519 0.25505 0.50588 0.0
C382 C 0.1035 0.19623 0.49431 0.0
C383 C 0.13007 0.2379 0.49738 0.0
N384 N 0.06587 0.22496 0.50782 0.0
N385 N 0.06532 0.1899 0.50036 0.0
C386 C 0.11864 0.2989 0.51699 0.0
H387 H 0.09319 0.30261 0.53662 0.0
H388 H 0.14492 0.31285 0.55225 0.0
H389 H 0.12868 0.31446 0.46755 0.0
C390 C 0.99942 0.25864 0.71606 0.0
N391 N 0.99373 0.24987 0.64962 0.0
N392 N 1.02171 0.24207 0.62704 0.0
C393 C 0.04521 0.24399 0.68032 0.0
C394 C 1.03086 0.25362 0.73843 0.0
C395 C 0.97572 0.2723 0.75818 0.0
H396 H 0.96576 0.29014 0.72699 0.0
H397 H 0.99406 0.2915 0.80119 0.0
H398 H 0.94906 0.24495 0.77972 0.0
O399 O 0.92127 0.17615 0.56728 0.0
O400 O 0.97151 0.16795 0.52884 0.0
H401 H 0.08702 0.22859 0.72794 0.0
H402 H 0.10671 0.26199 0.65555 0.0
C403 C 0.07938 0.23505 0.67682 0.0
H404 H 0.07105 0.20862 0.64307 0.0
H405 H 0.03889 0.16135 0.50207 0.0
O406 O 0.9094 0.2343 0.66292 0.0
C407 C 0.93396 0.15333 0.54329 0.0
Co408 Co 1.01401 0.56779 0.4202 0.0
Co409 Co 0.93268 0.56095 0.36915 0.0
C410 C 1.01891 0.61293 0.29928 0.0
O411 O 0.03737 0.60747 0.34804 0.0
O412 O 0.97956 0.59569 0.2989 0.0
C413 C 0.05394 0.53894 0.50974 0.0
O414 O 0.08639 0.53794 0.52944 0.0
C415 C 0.86932 0.58675 0.34582 0.0
C416 C 0.81282 0.52757 0.35649 0.0
C417 C 0.82684 0.56883 0.34749 0.0
N418 N 0.87972 0.55761 0.35371 0.0
N419 N 0.84545 0.52226 0.35968 0.0
C420 C 0.8996 0.63083 0.33943 0.0
H421 H 0.93053 0.6368 0.35309 0.0
H422 H 0.89083 0.64917 0.37185 0.0
H423 H 0.89953 0.6393 0.28582 0.0
C424 C 0.99103 0.59401 0.54469 0.0
N425 N 0.98422 0.58233 0.47955 0.0
N426 N 0.94921 0.57842 0.46037 0.0
C427 C 0.93184 0.58571 0.51457 0.0
C428 C 0.95769 0.59515 0.56974 0.0
C429 C 1.02935 0.60519 0.58173 0.0
H430 H 0.05591 0.62016 0.54706 0.0
H431 H 0.03361 0.62582 0.62471 0.0
H432 H 1.02702 0.57677 0.60151 0.0
O433 O 0.98228 0.51129 0.38213 0.0
O434 O 0.92087 0.503 0.36533 0.0
H435 H 0.8807 0.58367 0.56703 0.0
H436 H 0.89208 0.60763 0.48477 0.0
C437 C 0.89074 0.58219 0.5148 0.0
H438 H 0.86821 0.55295 0.49119 0.0
H439 H 0.84425 0.49442 0.36819 0.0
O440 O 0.05867 0.56654 0.46783 0.0
C441 C 0.94483 0.48851 0.36839 0.0
Co442 Co 0.48134 0.45869 0.42413 0.0
Co443 Co 0.48211 0.38248 0.36765 0.0
C444 C 0.43613 0.42461 0.30085 0.0
O445 O 0.44288 0.44798 0.35105 0.0
O446 O 0.45079 0.4002 0.29916 0.0
C447 C 0.51829 0.52906 0.51135 0.0
O448 O 0.52475 0.56553 0.52655 0.0
C449 C 0.45391 0.29161 0.35651 0.0
C450 C 0.51053 0.29657 0.31563 0.0
C451 C 0.47238 0.26873 0.34001 0.0
N452 N 0.48061 0.33153 0.34375 0.0
N453 N 0.5141 0.33379 0.3187 0.0
C454 C 0.41411 0.27612 0.3927 0.0
H455 H 0.40611 0.30051 0.39828 0.0
H456 H 0.41579 0.26423 0.44306 0.0
H457 H 0.38975 0.24945 0.36615 0.0
C458 C 0.45002 0.40564 0.54645 0.0
N459 N 0.46217 0.4118 0.48121 0.0
N460 N 0.46612 0.38091 0.46029 0.0
C461 C 0.46034 0.3562 0.51394 0.0
C462 C 0.44829 0.37015 0.56918 0.0
C463 C 0.44278 0.43452 0.58725 0.0
H464 H 0.42896 0.44857 0.55532 0.0
H465 H 0.42279 0.41865 0.63125 0.0
H466 H 0.47256 0.45907 0.6058 0.0
O467 O 0.53807 0.47965 0.3861 0.0
O468 O 0.54094 0.42375 0.3654 0.0
H469 H 0.49996 0.33854 0.56093 0.0
H470 H 0.45256 0.29695 0.53484 0.0
C471 C 0.47704 0.32781 0.51967 0.0
H472 H 0.49224 0.32687 0.47252 0.0
H473 H 0.54018 0.36107 0.3055 0.0
O474 O 0.48788 0.50657 0.47403 0.0
C475 C 0.55837 0.46232 0.3709 0.0
Co476 Co 0.60938 0.05296 0.42292 0.0
Co477 Co 0.67967 0.12976 0.36012 0.0
C478 C 0.63915 0.03996 0.29777 0.0
O479 O 0.61674 0.02344 0.34907 0.0
O480 O 0.66281 0.07912 0.29506 0.0
C481 C 0.5396 1.01812 0.48923 0.0
O482 O 0.52342 1.02065 0.43217 0.0
C483 C 0.77008 0.18573 0.35233 0.0
C484 C 0.77257 0.24056 0.30777 0.0
C485 C 0.79675 0.22633 0.33521 0.0
N486 N 0.73174 0.17665 0.33636 0.0
N487 N 0.73374 0.20967 0.30947 0.0
C488 C 0.78034 0.15814 0.39153 0.0
H489 H 0.75421 0.12643 0.39228 0.0
H490 H 0.7881 0.16929 0.44426 0.0
H491 H 0.80779 0.15901 0.37016 0.0
C492 C 0.65985 0.07933 0.54202 0.0
N493 N 0.6561 0.08238 0.47485 0.0
N494 N 0.68176 0.1196 0.45476 0.0
C495 C 0.70065 0.14222 0.51033 0.0
C496 C 0.68647 0.11726 0.56737 0.0
C497 C 0.6407 0.04053 0.58163 0.0
H498 H 0.62715 1.01351 0.54795 0.0
H499 H 0.66379 0.03905 0.61419 0.0
H500 H 0.61771 0.04075 0.61593 0.0
O501 O 0.58599 0.08942 0.39292 0.0
O502 O 0.63747 0.14634 0.35166 0.0
H503 H 0.71872 0.20122 0.55123 0.0
H504 H 0.75979 0.19445 0.5235 0.0
C505 C 0.72844 0.18746 0.51089 0.0
H506 H 0.72828 0.20121 0.46142 0.0
H507 H 0.70836 0.21157 0.29427 0.0
O508 O 0.5716 1.01593 0.48807 0.0
C509 C 0.59995 0.1251 0.3678 0.0
Co510 Co 0.92173 0.66475 0.77365 0.0
Co511 Co 0.91819 0.59038 0.84176 0.0
C512 C 0.96136 0.68096 0.90215 0.0
O513 O 0.95615 0.6966 0.84885 0.0
O514 O 0.94744 0.64201 0.9062 0.0
C515 C 0.88134 0.69643 0.71527 0.0
O516 O 0.86958 0.69841 0.77701 0.0
C517 C 0.94775 0.53027 0.86029 0.0
C518 C 0.89261 0.4796 0.90726 0.0
C519 C 0.93017 0.48968 0.88051 0.0
N520 N 0.92107 0.54334 0.87306 0.0
N521 N 0.88851 0.51285 0.90196 0.0
C522 C 0.9866 0.55378 0.82128 0.0
H523 H 0.99377 0.58566 0.81217 0.0
H524 H 0.98419 0.53843 0.77243 0.0
H525 H 1.01179 0.55322 0.84852 0.0
C526 C 0.95559 0.64142 0.66095 0.0
N527 N 0.94372 0.63728 0.72618 0.0
N528 N 0.93561 0.60132 0.74882 0.0
C529 C 0.93864 0.58004 0.69606 0.0
C530 C 0.95225 0.60533 0.63956 0.0
C531 C 0.96597 0.67752 0.61718 0.0
H532 H 0.97767 0.70566 0.64801 0.0
H533 H 0.98921 0.68161 0.57885 0.0
H534 H 0.93806 0.67159 0.58971 0.0
O535 O 0.86274 0.62704 0.80291 0.0
O536 O 0.85899 0.57085 0.84268 0.0
H537 H 0.89626 0.52208 0.65413 0.0
H538 H 0.94354 0.52669 0.67878 0.0
C539 C 0.92012 0.53462 0.69387 0.0
H540 H 0.90594 0.52031 0.74284 0.0
H541 H 0.86255 0.51411 0.91566 0.0
O542 O 0.91474 0.69734 0.70621 0.0
C543 C 0.84181 0.59109 0.82651 0.0
Co544 Co 0.38396 0.25957 0.77724 0.0
Co545 Co 0.46331 0.33315 0.8347 0.0
C546 C 0.37615 0.29391 0.90235 0.0
O547 O 0.35829 0.27322 0.85013 0.0
O548 O 0.41548 0.31599 0.90458 0.0
C549 C 0.34609 0.18593 0.69597 0.0
O550 O 0.31421 0.14987 0.68559 0.0
C551 C 0.5293 0.42004 0.86741 0.0
C552 C 0.58371 0.4135 0.85674 0.0
C553 C 0.57196 0.44222 0.86789 0.0
N554 N 0.51667 0.3803 0.85595 0.0
N555 N 0.54968 0.37688 0.85022 0.0
C556 C 0.50101 0.43632 0.87408 0.0
H557 H 0.46962 0.41283 0.85941 0.0
H558 H 0.51156 0.46403 0.84223 0.0
H559 H 0.50109 0.44464 0.92779 0.0
C560 C 0.40874 0.31403 0.65695 0.0
N561 N 0.41458 0.30649 0.72129 0.0
N562 N 0.44733 0.33856 0.74524 0.0
C563 C 0.46377 0.36713 0.69562 0.0
C564 C 0.43959 0.35252 0.63827 0.0
C565 C 0.37482 0.28421 0.61369 0.0
H566 H 0.34559 0.27124 0.64187 0.0
H567 H 0.37273 0.29857 0.56594 0.0
H568 H 0.38069 0.25898 0.60208 0.0
O569 O 0.41492 0.23506 0.81838 0.0
O570 O 0.47628 0.28835 0.83099 0.0
H571 H 0.5152 0.41945 0.6493 0.0
H572 H 0.50013 0.42817 0.73105 0.0
C573 C 0.50385 0.40585 0.7001 0.0
H574 H 0.52667 0.39985 0.72446 0.0
H575 H 0.5492 0.34965 0.83935 0.0
O576 O 0.34085 0.21224 0.72793 0.0
C577 C 0.4526 0.25001 0.82946 0.0
Co578 Co 0.78603 0.14396 0.77726 0.0
Co579 Co 0.71679 0.15304 0.84201 0.0
C580 C 0.75613 0.10284 0.90452 0.0
O581 O 0.77701 0.10665 0.85193 0.0
O582 O 0.73354 0.11955 0.90763 0.0
C583 C 0.85799 0.17681 0.7175 0.0
O584 O 0.87281 0.19088 0.77768 0.0
C585 C 0.62822 0.12403 0.8694 0.0
C586 C 0.62997 0.18285 0.88146 0.0
C587 C 0.60336 0.1412 0.87809 0.0
N588 N 0.66755 0.15409 0.86766 0.0
N589 N 0.66814 0.18915 0.87541 0.0
C590 C 0.61471 0.0802 0.85793 0.0
H591 H 0.64017 0.07649 0.83837 0.0
H592 H 0.58852 0.06641 0.8225 0.0
H593 H 0.60452 0.06449 0.90722 0.0
C594 C 0.73398 0.12043 0.65935 0.0
N595 N 0.73966 0.12916 0.7258 0.0
N596 N 0.71171 0.13701 0.74837 0.0
C597 C 0.68825 0.13515 0.69508 0.0
C598 C 0.70258 0.12551 0.63696 0.0
C599 C 0.75766 0.10674 0.61722 0.0
H600 H 0.76761 0.08889 0.64841 0.0
H601 H 0.73929 0.08753 0.57423 0.0
H602 H 0.78431 0.13407 0.59565 0.0
O603 O 0.81213 0.20289 0.80811 0.0
O604 O 0.7619 0.21109 0.84659 0.0
H605 H 0.64665 0.15083 0.64746 0.0
H606 H 0.62672 0.11721 0.71955 0.0
C607 C 0.65413 0.14419 0.69856 0.0
H608 H 0.66245 0.17052 0.73252 0.0
H609 H 0.69459 0.21769 0.87389 0.0
O610 O 0.82399 0.14475 0.71243 0.0
C611 C 0.79944 0.22571 0.83212 0.0
Co612 Co 0.38613 0.14472 0.28839 0.0
Co613 Co 0.46744 0.15152 0.33947 0.0
C614 C 0.38121 0.09957 0.4093 0.0
O615 O 0.36276 0.10503 0.36053 0.0
O616 O 0.42055 0.1168 0.40973 0.0
C617 C 0.34616 0.17358 0.19893 0.0
O618 O 0.3137 0.17458 0.17929 0.0
C619 C 0.5308 0.12572 0.36285 0.0
C620 C 0.58729 0.18489 0.35213 0.0
C621 C 0.57328 0.14364 0.36118 0.0
N622 N 0.5204 0.15485 0.35492 0.0
N623 N 0.55467 0.1902 0.34892 0.0
C624 C 0.50051 0.08164 0.36929 0.0
H625 H 0.46958 0.07566 0.35567 0.0
H626 H 0.50927 0.06329 0.33686 0.0
H627 H 0.50061 0.07319 0.4229 0.0
C628 C 0.40912 0.11852 0.1639 0.0
N629 N 0.41592 0.13019 0.22904 0.0
N630 N 0.4509 0.13405 0.24825 0.0
C631 C 0.46827 0.12674 0.19406 0.0
C632 C 0.44243 0.11733 0.13887 0.0
C633 C 0.37084 0.10742 0.1268 0.0
H634 H 0.34425 0.09247 0.16143 0.0
H635 H 0.36657 0.0868 0.08381 0.0
H636 H 0.37324 0.13587 0.10704 0.0
O637 O 0.41787 0.20121 0.32649 0.0
O638 O 0.47927 0.20947 0.34331 0.0
H639 H 0.51937 0.12866 0.14165 0.0
H640 H 0.50796 0.10475 0.22396 0.0
C641 C 0.50934 0.13019 0.19388 0.0
H642 H 0.5319 0.15942 0.21745 0.0
H643 H 0.55587 0.21803 0.34037 0.0
O644 O 0.34145 0.14598 0.2408 0.0
C645 C 0.45531 0.22397 0.34026 0.0
Co646 Co 0.91874 0.25375 0.28459 0.0
Co647 Co 0.918 0.32998 0.34106 0.0
C648 C 0.96398 0.28785 0.40783 0.0
O649 O 0.95721 0.26446 0.35764 0.0
O650 O 0.94932 0.31226 0.40954 0.0
C651 C 0.88176 0.18338 0.19737 0.0
O652 O 0.87529 0.14691 0.18214 0.0
C653 C 0.94623 0.42087 0.35218 0.0
C654 C 0.88962 0.41592 0.39309 0.0
C655 C 0.92778 0.44376 0.36872 0.0
N656 N 0.91953 0.38095 0.36495 0.0
N657 N 0.88604 0.3787 0.39001 0.0
C658 C 0.98602 0.43634 0.31594 0.0
H659 H 0.99401 0.41195 0.31037 0.0
H660 H 0.98432 0.44821 0.26557 0.0
H661 H 1.01039 0.46303 0.34244 0.0
C662 C 0.95006 0.30679 0.16226 0.0
N663 N 0.93791 0.30063 0.2275 0.0
N664 N 0.93397 0.33153 0.24842 0.0
C665 C 0.93974 0.35624 0.19476 0.0
C666 C 0.95179 0.34228 0.13953 0.0
C667 C 0.9573 0.27792 0.12148 0.0
H668 H 0.97114 0.26388 0.15341 0.0
H669 H 0.97729 0.29378 0.07746 0.0
H670 H 0.92752 0.25335 0.10295 0.0
O671 O 0.86203 0.23281 0.32264 0.0
O672 O 0.85917 0.28872 0.34336 0.0
H673 H 0.9001 0.37388 0.14779 0.0
H674 H 0.9475 0.41547 0.17383 0.0
C675 C 0.92303 0.38462 0.18903 0.0
H676 H 0.90785 0.38557 0.23619 0.0
H677 H 0.85995 0.35142 0.40321 0.0
O678 O 0.91217 0.20586 0.23468 0.0
C679 C 0.84173 0.25015 0.33788 0.0
Co680 Co 0.79072 0.65949 0.28575 0.0
Co681 Co 0.72043 0.58269 0.34857 0.0
C682 C 0.76094 0.67249 0.41089 0.0
O683 O 0.78336 0.68902 0.35959 0.0
O684 O 0.73729 0.63333 0.41362 0.0
C685 C 0.8605 0.69434 0.21944 0.0
O686 O 0.87669 0.6918 0.27649 0.0
C687 C 0.63003 0.52673 0.35643 0.0
C688 C 0.62754 0.4719 0.40099 0.0
C689 C 0.60336 0.48614 0.37361 0.0
N690 N 0.66837 0.5358 0.37235 0.0
N691 N 0.66638 0.50278 0.39924 0.0
C692 C 0.61977 0.55432 0.31721 0.0
H693 H 0.6459 0.58602 0.31645 0.0
H694 H 0.61201 0.54316 0.26449 0.0
H695 H 0.59231 0.55345 0.33858 0.0
C696 C 0.74025 0.63309 0.16665 0.0
N697 N 0.744 0.63005 0.23382 0.0
N698 N 0.71833 0.59284 0.25392 0.0
C699 C 0.69943 0.57022 0.19836 0.0
C700 C 0.71362 0.59516 0.14131 0.0
C701 C 0.7594 0.67189 0.12702 0.0
H702 H 0.77294 0.69891 0.1607 0.0
H703 H 0.7363 0.67336 0.09446 0.0
H704 H 0.78239 0.67167 0.09273 0.0
O705 O 0.81412 0.62304 0.31576 0.0
O706 O 0.76265 0.56612 0.35703 0.0
H707 H 0.68135 0.5112 0.15749 0.0
H708 H 0.64029 0.51799 0.18521 0.0
C709 C 0.67164 0.52498 0.19783 0.0
H710 H 0.67179 0.51123 0.2473 0.0
H711 H 0.69175 0.50087 0.4144 0.0
O712 O 0.8285 0.69652 0.2206 0.0
C713 C 0.80017 0.58736 0.34088 0.0
Co714 Co 0.47834 0.04767 0.935 0.0
Co715 Co 0.48189 0.12205 0.86688 0.0
C716 C 0.43872 0.03145 0.80647 0.0
O717 O 0.44393 1.01581 0.85978 0.0
O718 O 0.45264 0.0704 0.80245 0.0
C719 C 0.51876 1.01603 0.99343 0.0
O720 O 0.53049 1.014 0.9317 0.0
C721 C 0.45231 0.18214 0.84838 0.0
C722 C 0.50743 0.23281 0.80138 0.0
C723 C 0.46986 0.22272 0.82813 0.0
N724 N 0.47899 0.16907 0.83558 0.0
N725 N 0.51153 0.19956 0.80666 0.0
C726 C 0.41347 0.15863 0.88744 0.0
H727 H 0.4063 0.12674 0.89652 0.0
H728 H 0.41592 0.17397 0.93632 0.0
H729 H 0.38827 0.1592 0.86028 0.0
C730 C 0.44449 0.07102 0.04768 0.0
N731 N 0.45635 0.07515 0.98246 0.0
N732 N 0.46448 0.11111 0.95981 0.0
C733 C 0.46148 0.13241 1.01256 0.0
C734 C 0.44787 0.10713 0.06906 0.0
C735 C 0.43408 0.03493 0.09148 0.0
H736 H 0.42244 1.00679 0.06066 0.0
H737 H 0.4108 0.03081 0.12971 0.0
H738 H 0.46198 0.04089 0.11905 0.0
O739 O 0.53733 0.08538 0.90573 0.0
O740 O 0.54109 0.14157 0.86595 0.0
H741 H 0.50393 0.19036 0.05444 0.0
H742 H 0.45667 0.1858 0.02986 0.0
C743 C 0.48005 0.17783 1.01473 0.0
H744 H 0.49421 0.19213 0.96575 0.0
H745 H 0.53749 0.19831 0.79295 0.0
O746 O 0.48535 1.01509 1.00247 0.0
C747 C 0.55826 0.12133 0.88213 0.0
Co748 Co 1.0161 0.45287 0.93148 0.0
Co749 Co 0.93676 0.37928 0.87401 0.0
C750 C 1.02391 0.41858 0.80631 0.0
O751 O 0.04177 0.43924 0.85857 0.0
O752 O 0.98458 0.39648 0.80411 0.0
C753 C 0.05399 0.52654 1.01271 0.0
O754 O 0.08589 0.5626 0.02302 0.0
C755 C 0.87077 0.29238 0.8413 0.0
C756 C 0.81636 0.29892 0.85196 0.0
C757 C 0.82811 0.2702 0.84081 0.0
N758 N 0.88339 0.33213 0.85276 0.0
N759 N 0.85039 0.33554 0.85848 0.0
C760 C 0.89906 0.2761 0.83463 0.0
H761 H 0.93045 0.29959 0.8493 0.0
H762 H 0.8885 0.24839 0.86648 0.0
H763 H 0.89897 0.26779 0.78092 0.0
C764 C 0.99132 0.3984 0.05177 0.0
N765 N 0.98549 0.40595 0.98742 0.0
N766 N 0.95275 0.37387 0.96346 0.0
C767 C 0.93632 0.34529 1.01308 0.0
C768 C 0.96049 0.35991 0.07044 0.0
C769 C 1.02522 0.42825 0.09505 0.0
H770 H 0.05446 0.44126 0.06689 0.0
H771 H 1.02732 0.41389 0.14279 0.0
H772 H 1.0193 0.45344 0.10668 0.0
O773 O 0.98512 0.47736 0.89034 0.0
O774 O 0.92376 0.42405 0.87773 0.0
H775 H 0.88489 0.29296 0.05939 0.0
H776 H 0.89998 0.28425 0.97765 0.0
C777 C 0.89624 0.30657 1.0086 0.0
H778 H 0.87342 0.31255 0.98422 0.0
H779 H 0.85086 0.36277 0.86934 0.0
O780 O 0.05922 0.50021 0.98077 0.0
C781 C 0.94744 0.46239 0.87925 0.0
Co782 Co 0.61405 0.56847 0.93141 0.0
Co783 Co 0.68328 0.55938 0.86667 0.0
C784 C 0.64395 0.60959 0.80413 0.0
O785 O 0.62308 0.60578 0.85673 0.0
O786 O 0.66654 0.59288 0.80103 0.0
C787 C 0.54209 0.53563 0.99117 0.0
O788 O 0.52727 0.52156 0.93099 0.0
C789 C 0.77185 0.58839 0.8392 0.0
C790 C 0.77011 0.52956 0.82733 0.0
C791 C 0.79671 0.57122 0.83058 0.0
N792 N 0.73252 0.55832 0.84103 0.0
N793 N 0.73194 0.52326 0.83339 0.0
C794 C 0.78535 0.63223 0.85053 0.0
H795 H 0.7599 0.63595 0.87011 0.0
H796 H 0.81157 0.64608 0.8859 0.0
H797 H 0.79548 0.64788 0.80118 0.0
C798 C 0.66609 0.59198 0.04935 0.0
N799 N 0.66041 0.58325 0.98289 0.0
N800 N 0.68837 0.57542 0.96031 0.0
C801 C 0.71184 0.57728 1.0136 0.0
C802 C 0.6975 0.58691 0.07172 0.0
C803 C 0.64241 0.60566 0.09148 0.0
H804 H 0.63247 0.62352 0.0603 0.0
H805 H 0.66077 0.62486 0.13448 0.0
H806 H 0.61575 0.57833 0.11303 0.0
O807 O 0.58794 0.50953 0.90057 0.0
O808 O 0.63816 0.50133 0.86209 0.0
H809 H 0.75353 0.56171 0.0612 0.0
H810 H 0.77335 0.59524 0.98898 0.0
C811 C 0.74598 0.56828 1.01009 0.0
H812 H 0.73764 0.54191 0.97622 0.0
H813 H 0.70549 0.49472 0.83499 0.0
O814 O 0.57609 0.56769 0.99623 0.0
C815 C 0.60063 0.48671 0.87656 0.0
Co816 Co 0.68064 0.90114 0.75362 0.0
Co817 Co 0.59932 0.89431 0.70254 0.0
C818 C 0.68554 0.94627 0.6327 0.0
O819 O 0.704 0.94082 0.68147 0.0
O820 O 0.6462 0.92903 0.63227 0.0
C821 C 0.72061 0.8723 0.8431 0.0
O822 O 0.75307 0.8713 0.86275 0.0
C823 C 0.53596 0.92012 0.67916 0.0
C824 C 0.47946 0.86094 0.68986 0.0
C825 C 0.49348 0.9022 0.68083 0.0
N826 N 0.54636 0.89098 0.68708 0.0
N827 N 0.51209 0.85563 0.69308 0.0
C828 C 0.56624 0.96419 0.67272 0.0
H829 H 0.59718 0.97017 0.68636 0.0
H830 H 0.55748 0.98254 0.70515 0.0
H831 H 0.56615 0.97265 0.61911 0.0
C832 C 0.65765 0.92735 0.8781 0.0
N833 N 0.65085 0.91568 0.81295 0.0
N834 N 0.61586 0.9118 0.79376 0.0
C835 C 0.59849 0.91911 0.84794 0.0
C836 C 0.62433 0.92853 0.90312 0.0
C837 C 0.69593 0.93846 0.91519 0.0
H838 H 0.72252 0.95342 0.88056 0.0
H839 H 0.7002 0.95909 0.95818 0.0
H840 H 0.69355 0.91002 0.93496 0.0
O841 O 0.6489 0.84465 0.71554 0.0
O842 O 0.58749 0.83637 0.69874 0.0
H843 H 0.54737 0.91715 0.90036 0.0
H844 H 0.55877 0.94107 0.81806 0.0
C845 C 0.55741 0.91563 0.84813 0.0
H846 H 0.53485 0.88639 0.82455 0.0
H847 H 0.51089 0.8278 0.70162 0.0
O848 O 0.72532 0.8999 0.80122 0.0
C849 C 0.61145 0.82188 0.7018 0.0
Co850 Co 0.14799 0.79208 0.75741 0.0
Co851 Co 0.14875 0.71586 0.70094 0.0
C852 C 0.10277 0.75799 0.63416 0.0
O853 O 0.10953 0.78137 0.68434 0.0
O854 O 0.11743 0.73358 0.63245 0.0
C855 C 0.18496 0.86244 0.84464 0.0
O856 O 0.19143 0.89891 0.85988 0.0
C857 C 0.12053 0.62497 0.68987 0.0
C858 C 0.17714 0.62992 0.64898 0.0
C859 C 0.139 0.60209 0.67339 0.0
N860 N 0.14723 0.66489 0.67707 0.0
N861 N 0.18072 0.66714 0.65202 0.0
C862 C 0.08073 0.60951 0.72607 0.0
H863 H 0.07274 0.6339 0.73161 0.0
H864 H 0.08242 0.59763 0.77645 0.0
H865 H 0.05637 0.58282 0.69955 0.0
C866 C 0.11667 0.73903 0.87972 0.0
N867 N 0.12882 0.7452 0.81449 0.0
N868 N 0.13277 0.71431 0.79358 0.0
C869 C 0.12701 0.6896 0.84723 0.0
C870 C 0.11495 0.70355 0.90246 0.0
C871 C 0.10941 0.76791 0.92051 0.0
H872 H 0.09557 0.78194 0.88857 0.0
H873 H 0.08943 0.75204 0.96452 0.0
H874 H 0.13919 0.79248 0.93904 0.0
O875 O 0.20471 0.81303 0.71937 0.0
O876 O 0.20758 0.75713 0.69867 0.0
H877 H 0.16665 0.67198 0.89423 0.0
H878 H 0.11926 0.63037 0.86816 0.0
C879 C 0.14373 0.66123 0.85297 0.0
H880 H 0.15892 0.66029 0.80583 0.0
H881 H 0.2068 0.69442 0.63879 0.0
O882 O 0.15455 0.83997 0.80732 0.0
C883 C 0.22502 0.7957 0.70416 0.0
Co884 Co 0.27604 0.38635 0.75625 0.0
Co885 Co 0.34632 0.46314 0.69343 0.0
C886 C 0.30582 0.37334 0.63111 0.0
O887 O 0.2834 0.35682 0.68241 0.0
O888 O 0.32947 0.4125 0.62838 0.0
C889 C 0.20625 0.35149 0.82255 0.0
O890 O 0.19007 0.35403 0.7655 0.0
C891 C 0.43672 0.51911 0.6856 0.0
C892 C 0.43921 0.57394 0.64105 0.0
C893 C 0.4634 0.55971 0.66848 0.0
N894 N 0.39838 0.51004 0.66966 0.0
N895 N 0.40038 0.54306 0.64276 0.0
C896 C 0.44698 0.49152 0.72481 0.0
H897 H 0.42085 0.45981 0.72556 0.0
H898 H 0.45475 0.50267 0.77753 0.0
H899 H 0.47444 0.49239 0.70342 0.0
C900 C 0.3265 0.41274 0.87535 0.0
N901 N 0.32275 0.41578 0.80818 0.0
N902 N 0.34842 0.45299 0.78807 0.0
C903 C 0.36732 0.47562 0.84364 0.0
C904 C 0.35313 0.45067 0.90069 0.0
C905 C 0.30736 0.37394 0.91497 0.0
H906 H 0.29382 0.34692 0.8813 0.0
H907 H 0.33046 0.37247 0.94753 0.0
H908 H 0.28437 0.37416 0.94927 0.0
O909 O 0.25263 0.4228 0.72624 0.0
O910 O 0.30411 0.47971 0.68497 0.0
H911 H 0.3854 0.53463 0.88452 0.0
H912 H 0.42646 0.52785 0.85676 0.0
C913 C 0.39511 0.52086 0.84417 0.0
H914 H 0.39494 0.53461 0.7947 0.0
H915 H 0.37501 0.54496 0.62757 0.0
O916 O 0.23826 0.34932 0.8214 0.0
C917 C 0.26659 0.45848 0.70112 0.0
Co918 Co 0.58841 0.99817 0.10701 0.0
Co919 Co 0.58486 0.92379 0.17512 0.0
C920 C 0.62804 1.01438 0.23551 0.0
O921 O 0.62283 0.03002 0.18221 0.0
O922 O 0.61412 0.97543 0.23955 0.0
C923 C 0.54799 0.02982 0.04859 0.0
O924 O 0.53625 0.03183 0.11032 0.0
C925 C 0.61444 0.86369 0.19358 0.0
C926 C 0.55932 0.81301 0.24057 0.0
C927 C 0.59687 0.8231 0.21378 0.0
N928 N 0.58776 0.87676 0.2064 0.0
N929 N 0.55521 0.84627 0.23532 0.0
C930 C 0.65328 0.88721 0.15453 0.0
H931 H 0.66045 0.9191 0.14547 0.0
H932 H 0.65084 0.87188 0.10565 0.0
H933 H 0.67848 0.88664 0.18171 0.0
C934 C 0.62226 0.97483 0.99432 0.0
N935 N 0.6104 0.97069 0.05955 0.0
N936 N 0.60226 0.93473 0.08219 0.0
C937 C 0.60527 0.91343 0.02943 0.0
C938 C 0.61888 0.93872 0.97293 0.0
C939 C 0.63267 1.01093 0.95053 0.0
H940 H 0.6443 0.03906 0.98135 0.0
H941 H 0.65597 1.01504 0.91231 0.0
H942 H 0.60478 1.00496 0.92294 0.0
O943 O 0.52942 0.96046 0.13628 0.0
O944 O 0.52566 0.90427 0.17605 0.0
H945 H 0.56282 0.85549 0.98753 0.0
H946 H 0.61008 0.86004 1.01212 0.0
C947 C 0.5867 0.86801 0.02725 0.0
H948 H 0.57253 0.85371 0.07623 0.0
H949 H 0.52926 0.84752 0.24905 0.0
O950 O 0.5814 0.03075 0.03953 0.0
C951 C 0.50849 0.92451 0.15988 0.0
Co952 Co 0.05064 0.59296 0.1105 0.0
Co953 Co 0.12999 0.66655 0.16797 0.0
C954 C 0.04284 0.62727 0.23564 0.0
O955 O 1.02497 0.6066 0.18341 0.0
O956 O 0.08217 0.64936 0.23787 0.0
C957 C 1.01274 0.51929 0.02929 0.0
O958 O 0.98085 0.48323 1.01895 0.0
C959 C 0.19598 0.75345 0.2007 0.0
C960 C 0.25039 0.74691 0.19001 0.0
C961 C 0.23864 0.77563 0.20118 0.0
N962 N 0.18335 0.71371 0.18922 0.0
N963 N 0.21636 0.71029 0.18348 0.0
C964 C 0.16769 0.76973 0.20738 0.0
H965 H 0.1363 0.74624 0.19271 0.0
H966 H 0.17824 0.79744 0.17553 0.0
H967 H 0.16778 0.77804 0.26108 0.0
C968 C 0.07541 0.64743 0.99022 0.0
N969 N 0.08125 0.63988 0.05457 0.0
N970 N 0.11399 0.67197 0.07852 0.0
C971 C 0.13042 0.70054 0.02891 0.0
C972 C 0.10624 0.68592 0.97155 0.0
C973 C 0.04151 0.61759 0.94694 0.0
H974 H 1.01228 0.60457 0.9751 0.0
H975 H 0.03942 0.63195 0.8992 0.0
H976 H 0.04743 0.59239 0.93532 0.0
O977 O 0.08162 0.56848 0.15164 0.0
O978 O 0.14298 0.62178 0.16424 0.0
H979 H 0.18184 0.75289 0.9826 0.0
H980 H 0.16675 0.76159 0.06436 0.0
C981 C 0.1705 0.73927 0.03339 0.0
H982 H 0.19332 0.73328 0.05775 0.0
H983 H 0.21588 0.68306 0.17261 0.0
O984 O 1.00752 0.54562 0.06121 0.0
C985 C 0.1193 0.58343 0.16271 0.0
Co986 Co 0.45271 0.47736 0.11058 0.0
Co987 Co 0.38347 0.48644 0.17533 0.0
C988 C 0.42279 0.43623 0.23783 0.0
O989 O 0.44367 0.44004 0.18524 0.0
O990 O 0.4002 0.45294 0.24096 0.0
C991 C 0.52467 0.5102 0.05082 0.0
O992 O 0.53949 0.52428 0.111 0.0
C993 C 0.2949 0.45744 0.2028 0.0
C994 C 0.29665 0.51627 0.21468 0.0
C995 C 0.27004 0.47461 0.21143 0.0
N996 N 0.33423 0.48751 0.20097 0.0
N997 N 0.33482 0.52257 0.20861 0.0
C998 C 0.2814 0.4136 0.19146 0.0
H999 H 0.30685 0.40988 0.17189 0.0
H1000 H 0.25518 0.39976 0.15608 0.0
H1001 H 0.27125 0.39794 0.24081 0.0
C1002 C 0.40066 0.45386 0.99264 0.0
N1003 N 0.40634 0.46258 0.0591 0.0
N1004 N 0.37838 0.47041 0.08169 0.0
C1005 C 0.35491 0.46855 0.0284 0.0
C1006 C 0.36925 0.45893 0.97027 0.0
C1007 C 0.42434 0.44017 0.95051 0.0
H1008 H 0.43428 0.42231 0.98169 0.0
H1009 H 0.40598 0.42098 0.9075 0.0
H1010 H 0.451 0.46751 0.92896 0.0
O1011 O 0.47881 0.5363 0.14142 0.0
O1012 O 0.42859 0.5445 0.17991 0.0
H1013 H 0.31322 0.48413 0.9808 0.0
H1014 H 0.2934 0.45059 0.05301 0.0
C1015 C 0.32077 0.47755 0.03191 0.0
H1016 H 0.3291 0.50392 0.06579 0.0
H1017 H 0.36126 0.55111 0.20702 0.0
O1018 O 0.49066 0.47815 0.04575 0.0
C1019 C 0.46612 0.55912 0.16544 0.0
Co1020 Co 0.05276 0.47807 0.6218 0.0
Co1021 Co 0.13408 0.48489 0.67285 0.0
C1022 C 0.04785 0.4329 0.74267 0.0
O1023 O 1.02939 0.43837 0.69393 0.0
O1024 O 0.08719 0.45014 0.7431 0.0
C1025 C 1.01284 0.50694 0.53228 0.0
O1026 O 0.98038 0.50794 0.51259 0.0
C1027 C 0.19744 0.45909 0.69619 0.0
C1028 C 0.25393 0.51826 0.6855 0.0
C1029 C 0.23992 0.47701 0.69451 0.0
N1030 N 0.18704 0.48823 0.68829 0.0
N1031 N 0.22131 0.52357 0.68231 0.0
C1032 C 0.16716 0.41501 0.70259 0.0
H1033 H 0.13622 0.40903 0.68893 0.0
H1034 H 0.17593 0.39667 0.67016 0.0
H1035 H 0.16723 0.40654 0.7562 0.0
C1036 C 0.07575 0.45187 0.4973 0.0
N1037 N 0.08255 0.46354 0.56244 0.0
N1038 N 0.11755 0.46743 0.58162 0.0
C1039 C 0.13492 0.46014 0.52743 0.0
C1040 C 0.10907 0.45072 0.47225 0.0
C1041 C 0.03744 0.44071 0.46025 0.0
H1042 H 1.01087 0.42575 0.49491 0.0
H1043 H 1.03317 0.42008 0.41727 0.0
H1044 H 0.03978 0.46914 0.44048 0.0
O1045 O 0.08449 0.53456 0.6599 0.0
O1046 O 0.1459 0.54283 0.67672 0.0
H1047 H 0.18605 0.46214 0.47498 0.0
H1048 H 0.17465 0.43819 0.55726 0.0
C1049 C 0.17601 0.46364 0.52721 0.0
H1050 H 0.19855 0.49286 0.55082 0.0
H1051 H 0.2225 0.55141 0.6738 0.0
O1052 O 1.00811 0.47934 0.57418 0.0
C1053 C 0.12194 0.55733 0.67367 0.0
Co1054 Co 0.5854 0.58714 0.61786 0.0
Co1055 Co 0.58465 0.66336 0.67436 0.0
C1056 C 0.63063 0.62123 0.74112 0.0
O1057 O 0.62387 0.59785 0.69092 0.0
O1058 O 0.61597 0.64564 0.74284 0.0
C1059 C 0.54843 0.51676 0.53066 0.0
O1060 O 0.54197 0.48029 0.51546 0.0
C1061 C 0.61286 0.75424 0.68554 0.0
C1062 C 0.55624 0.74927 0.72644 0.0
C1063 C 0.5944 0.77712 0.70211 0.0
N1064 N 0.58616 0.71431 0.69828 0.0
N1065 N 0.55266 0.71205 0.72334 0.0
C1066 C 0.65265 0.76972 0.64931 0.0
H1067 H 0.66064 0.74534 0.64371 0.0
H1068 H 0.65095 0.78162 0.59896 0.0
H1069 H 0.67702 0.7964 0.67585 0.0
C1070 C 0.6167 0.6402 0.49554 0.0
N1071 N 0.60456 0.63403 0.56078 0.0
N1072 N 0.60062 0.66493 0.58171 0.0
C1073 C 0.6064 0.68964 0.52806 0.0
C1074 C 0.61844 0.67569 0.47282 0.0
C1075 C 0.62393 0.61131 0.45473 0.0
H1076 H 0.63776 0.59726 0.48664 0.0
H1077 H 0.64391 0.62718 0.41071 0.0
H1078 H 0.59414 0.58676 0.43619 0.0
O1079 O 0.52868 0.56619 0.65591 0.0
O1080 O 0.52582 0.62209 0.67664 0.0
H1081 H 0.56678 0.70732 0.48111 0.0
H1082 H 0.6142 0.74889 0.50717 0.0
C1083 C 0.58971 0.71804 0.52235 0.0
H1084 H 0.57453 0.71899 0.56951 0.0
H1085 H 0.52658 0.68477 0.73652 0.0
O1086 O 0.57885 0.53926 0.56796 0.0
C1087 C 0.50838 0.58352 0.67114 0.0
Co1088 Co 0.45737 0.99287 0.61907 0.0
Co1089 Co 0.38708 0.91607 0.68187 0.0
C1090 C 0.42761 1.00587 0.74421 0.0
O1091 O 0.45002 1.0224 0.69291 0.0
O1092 O 0.40394 0.96671 0.74693 0.0
C1093 C 0.52716 0.02772 0.55277 0.0
O1094 O 0.54334 0.02518 0.60982 0.0
C1095 C 0.29668 0.86011 0.68971 0.0
C1096 C 0.29419 0.80527 0.73426 0.0
C1097 C 0.27 0.81952 0.70688 0.0
N1098 N 0.33502 0.86918 0.70564 0.0
N1099 N 0.33302 0.83616 0.73253 0.0
C1100 C 0.28642 0.8877 0.65049 0.0
H1101 H 0.31254 0.9194 0.64973 0.0
H1102 H 0.27866 0.87654 0.59776 0.0
H1103 H 0.25896 0.88683 0.67186 0.0
C1104 C 0.40691 0.96649 0.49997 0.0
N1105 N 0.41066 0.96345 0.56714 0.0
N1106 N 0.38499 0.92623 0.58723 0.0
C1107 C 0.36609 0.90361 0.53166 0.0
C1108 C 0.38028 0.92857 0.47462 0.0
C1109 C 0.42606 1.0053 0.46035 0.0
H1110 H 0.4396 0.03231 0.49403 0.0
H1111 H 0.40297 1.00677 0.42778 0.0
H1112 H 0.44906 1.00507 0.42607 0.0
O1113 O 0.48077 0.95641 0.64908 0.0
O1114 O 0.42929 0.89949 0.69033 0.0
H1115 H 0.34802 0.8446 0.49078 0.0
H1116 H 0.30695 0.85139 0.51849 0.0
C1117 C 0.33829 0.85838 0.53111 0.0
H1118 H 0.33845 0.84462 0.58059 0.0
H1119 H 0.3584 0.83425 0.74769 0.0
O1120 O 0.49516 0.0299 0.55392 0.0
C1121 C 0.46681 0.92073 0.67419 0.0
Co1122 Co 0.14502 0.38109 0.26835 0.0
Co1123 Co 0.14857 0.45546 0.20024 0.0
C1124 C 0.1054 0.36487 0.13984 0.0
O1125 O 0.1106 0.34924 0.19315 0.0
O1126 O 0.11931 0.40383 0.13579 0.0
C1127 C 0.1854 0.3494 0.32674 0.0
O1128 O 0.19716 0.34742 0.265 0.0
C1129 C 0.119 0.51556 0.18167 0.0
C1130 C 0.17415 0.56624 0.13472 0.0
C1131 C 0.13657 0.55614 0.16142 0.0
N1132 N 0.14569 0.5025 0.16892 0.0
N1133 N 0.17825 0.53299 0.14003 0.0
C1134 C 0.08015 0.49206 0.22068 0.0
H1135 H 0.07298 0.46017 0.2298 0.0
H1136 H 0.08257 0.50741 0.26954 0.0
H1137 H 0.05496 0.49261 0.19346 0.0
C1138 C 0.11117 0.40443 0.38105 0.0
N1139 N 0.12304 0.40857 0.31582 0.0
N1140 N 0.13114 0.44452 0.29318 0.0
C1141 C 0.12811 0.46581 0.34593 0.0
C1142 C 0.11452 0.44052 0.40243 0.0
C1143 C 0.10079 0.36833 0.42483 0.0
H1144 H 0.08908 0.3402 0.39402 0.0
H1145 H 0.07756 0.36425 0.46317 0.0
H1146 H 0.12871 0.37426 0.45228 0.0
O1147 O 0.20401 0.41879 0.23909 0.0
O1148 O 0.20777 0.47498 0.19932 0.0
H1149 H 0.1705 0.52377 0.38784 0.0
H1150 H 0.12322 0.51916 0.36319 0.0
C1151 C 0.14663 0.51123 0.3481 0.0
H1152 H 0.16081 0.52554 0.29913 0.0
H1153 H 0.20421 0.53174 0.12636 0.0
O1154 O 0.152 0.34849 0.3358 0.0
C1155 C 0.22494 0.45474 0.2155 0.0
Co1156 Co 0.68278 0.78627 0.26475 0.0
Co1157 Co 0.60344 0.71268 0.20727 0.0
C1158 C 0.6906 0.75192 0.13964 0.0
O1159 O 0.70846 0.77262 0.19187 0.0
O1160 O 0.65127 0.72984 0.1374 0.0
C1161 C 0.72064 0.85991 0.346 0.0
O1162 O 0.75252 0.89598 0.35637 0.0
C1163 C 0.53745 0.62579 0.17458 0.0
C1164 C 0.48304 0.63233 0.18525 0.0
C1165 C 0.49479 0.6036 0.17411 0.0
N1166 N 0.55007 0.66553 0.18603 0.0
N1167 N 0.51707 0.66895 0.19175 0.0
C1168 C 0.56575 0.60951 0.16792 0.0
H1169 H 0.59713 0.633 0.18259 0.0
H1170 H 0.55519 0.5818 0.19977 0.0
H1171 H 0.56566 0.60119 0.11421 0.0
C1172 C 0.65799 0.73181 0.38505 0.0
N1173 N 0.65216 0.73935 0.3207 0.0
N1174 N 0.61941 0.70728 0.29675 0.0
C1175 C 0.60297 0.67871 0.34637 0.0
C1176 C 0.62714 0.69333 0.40373 0.0
C1177 C 0.69191 0.76164 0.42831 0.0
H1178 H 0.72114 0.77461 0.40014 0.0
H1179 H 0.69399 0.74728 0.47606 0.0
H1180 H 0.68604 0.78687 0.43991 0.0
O1181 O 0.65182 0.81077 0.22359 0.0
O1182 O 0.59046 0.75747 0.21095 0.0
H1183 H 0.55153 0.62638 0.39268 0.0
H1184 H 0.56662 0.61766 0.31094 0.0
C1185 C 0.56289 0.63999 0.34189 0.0
H1186 H 0.54007 0.64598 0.31751 0.0
H1187 H 0.51755 0.69618 0.20261 0.0
O1188 O 0.72589 0.8336 0.31405 0.0
C1189 C 0.61414 0.79581 0.21249 0.0
Co1190 Co 0.28071 0.90188 0.26473 0.0
Co1191 Co 0.34995 0.89279 0.19998 0.0
C1192 C 0.31061 0.94299 0.13746 0.0
O1193 O 0.28974 0.93919 0.19006 0.0
O1194 O 0.3332 0.92628 0.13435 0.0
C1195 C 0.20875 0.86903 0.32449 0.0
O1196 O 0.19393 0.85495 0.26431 0.0
C1197 C 0.43853 0.92181 0.1726 0.0
C1198 C 0.43678 0.86299 0.16053 0.0
C1199 C 0.46339 0.90464 0.16392 0.0
N1200 N 0.39919 0.89174 0.17433 0.0
N1201 N 0.39861 0.85668 0.16658 0.0
C1202 C 0.45203 0.96563 0.18407 0.0
H1203 H 0.42658 0.96935 0.20365 0.0
H1204 H 0.47823 0.97943 0.2195 0.0
H1205 H 0.46221 0.98135 0.13478 0.0
C1206 C 0.33276 0.92541 0.38265 0.0
N1207 N 0.32709 0.91667 0.3162 0.0
N1208 N 0.35504 0.90882 0.29362 0.0
C1209 C 0.3785 0.91068 0.34691 0.0
C1210 C 0.36417 0.92032 0.40503 0.0
C1211 C 0.30909 0.9391 0.42477 0.0
H1212 H 0.29914 0.95694 0.39358 0.0
H1213 H 0.32746 0.95831 0.46776 0.0
H1214 H 0.28244 0.91176 0.44635 0.0
O1215 O 0.25462 0.84294 0.23388 0.0
O1216 O 0.30484 0.83474 0.1954 0.0
H1217 H 0.4201 0.89499 0.39453 0.0
H1218 H 0.44002 0.92862 0.32245 0.0
C1219 C 0.41261 0.90164 0.34343 0.0
H1220 H 0.4043 0.87531 0.30947 0.0
H1221 H 0.37216 0.82814 0.16809 0.0
O1222 O 0.24276 0.90108 0.32956 0.0
C1223 C 0.2673 0.82012 0.20986 0.0
loop_
_geom_bond_atom_site_label_1
_geom_bond_atom_site_label_2
_geom_bond_distance
_geom_bond_site_symmetry_2
_ccdc_geom_bond_type
Co0 O3 1.970 . S
Co0 N17 1.989 . S
Co0 O25 1.967 . S
Co0 O32 1.920 . S
Co1 O4 1.966 1_554 S
Co1 N10 2.022 1_554 S
Co1 N18 1.993 . S
Co1 O26 1.941 1_554 S
C2 O3 1.258 1_556 S
C2 O4 1.263 . S
O3 Co0 1.970 . S
O3 C2 1.258 1_554 S
O4 Co1 1.966 1_556 S
O4 C2 1.263 . S
C5 O6 1.235 . S
C5 O32 1.289 . S
O6 C5 1.235 . S
C7 C9 1.400 . S
C7 N10 1.351 . S
C7 C12 1.501 . S
C8 C9 1.387 . S
C8 N11 1.341 . S
C9 C7 1.400 . S
C9 C8 1.387 . S
N10 Co1 2.022 1_556 S
N10 C7 1.351 . S
N10 N11 1.365 . S
N11 C8 1.341 . S
N11 N10 1.365 . S
N11 H31 0.862 1_556 S
C12 C7 1.501 . S
C12 H13 0.961 . S
C12 H14 0.961 . S
C12 H15 0.960 . S
H13 C12 0.961 . S
H14 C12 0.961 . S
H15 C12 0.960 . S
C16 N17 1.342 . S
C16 C20 1.401 . S
C16 C21 1.499 . S
N17 Co0 1.989 . S
N17 C16 1.342 . S
N17 N18 1.388 . S
N18 Co1 1.993 . S
N18 N17 1.388 . S
N18 C19 1.346 . S
C19 N18 1.346 . S
C19 C20 1.396 . S
C19 C29 1.510 . S
C20 C16 1.401 . S
C20 C19 1.396 . S
C21 C16 1.499 . S
C21 H22 0.959 . S
C21 H23 0.960 . S
C21 H24 0.961 . S
H22 C21 0.959 . S
H23 C21 0.960 . S
H24 C21 0.961 . S
O25 Co0 1.967 . S
O25 C33 1.258 . S
O26 Co1 1.941 1_556 S
O26 C33 1.266 1_556 S
H27 C29 0.959 . S
H28 C29 0.961 . S
C29 C19 1.510 . S
C29 H27 0.959 . S
C29 H28 0.961 . S
C29 H30 0.960 . S
H30 C29 0.960 . S
H31 N11 0.862 1_554 S
O32 Co0 1.920 . S
O32 C5 1.289 . S
C33 O25 1.258 . S
C33 O26 1.266 1_554 S
Co34 O37 1.970 . S
Co34 N51 1.989 . S
Co34 O59 1.967 . S
Co34 O66 1.920 . S
Co35 O38 1.966 1_554 S
Co35 N44 2.022 1_544 S
Co35 N52 1.993 . S
Co35 O60 1.941 1_554 S
C36 O37 1.258 1_556 S
C36 O38 1.263 . S
O37 Co34 1.970 . S
O37 C36 1.258 1_554 S
O38 Co35 1.966 1_556 S
O38 C36 1.263 . S
C39 O40 1.235 . S
C39 O66 1.289 . S
O40 C39 1.235 . S
C41 C43 1.400 . S
C41 N44 1.351 . S
C41 C46 1.501 . S
C42 C43 1.387 . S
C42 N45 1.341 . S
C43 C41 1.400 . S
C43 C42 1.387 . S
N44 Co35 2.022 1_566 S
N44 C41 1.351 . S
N44 N45 1.365 . S
N45 C42 1.341 . S
N45 N44 1.365 . S
N45 H65 0.862 1_556 S
C46 C41 1.501 . S
C46 H47 0.961 . S
C46 H48 0.961 . S
C46 H49 0.960 . S
H47 C46 0.961 . S
H48 C46 0.961 . S
H49 C46 0.960 . S
C50 N51 1.342 . S
C50 C54 1.401 . S
C50 C55 1.499 . S
N51 Co34 1.989 . S
N51 C50 1.342 . S
N51 N52 1.388 . S
N52 Co35 1.993 . S
N52 N51 1.388 . S
N52 C53 1.346 1_545 S
C53 N52 1.346 1_565 S
C53 C54 1.396 1_565 S
C53 C63 1.510 . S
C54 C50 1.401 . S
C54 C53 1.396 1_545 S
C55 C50 1.499 . S
C55 H56 0.959 . S
C55 H57 0.960 . S
C55 H58 0.961 . S
H56 C55 0.959 . S
H57 C55 0.960 . S
H58 C55 0.961 . S
O59 Co34 1.967 . S
O59 C67 1.258 . S
O60 Co35 1.941 1_556 S
O60 C67 1.266 1_556 S
H61 C63 0.959 . S
H62 C63 0.961 . S
C63 C53 1.510 . S
C63 H61 0.959 . S
C63 H62 0.961 . S
C63 H64 0.960 . S
H64 C63 0.960 . S
H65 N45 0.862 1_554 S
O66 Co34 1.920 . S
O66 C39 1.289 . S
C67 O59 1.258 . S
C67 O60 1.266 1_554 S
Co68 O71 1.970 . S
Co68 N85 1.989 . S
Co68 O93 1.967 . S
Co68 O100 1.920 . S
Co69 O72 1.966 1_554 S
Co69 N78 2.022 1_654 S
Co69 N86 1.993 . S
Co69 O94 1.941 1_554 S
C70 O71 1.258 1_556 S
C70 O72 1.263 . S
O71 Co68 1.970 . S
O71 C70 1.258 1_554 S
O72 Co69 1.966 1_556 S
O72 C70 1.263 . S
C73 O74 1.235 . S
C73 O100 1.289 . S
O74 C73 1.235 . S
C75 C77 1.400 . S
C75 N78 1.351 . S
C75 C80 1.501 . S
C76 C77 1.387 . S
C76 N79 1.341 . S
C77 C75 1.400 . S
C77 C76 1.387 . S
N78 Co69 2.022 1_456 S
N78 C75 1.351 . S
N78 N79 1.365 . S
N79 C76 1.341 . S
N79 N78 1.365 . S
N79 H99 0.862 1_556 S
C80 C75 1.501 . S
C80 H81 0.961 . S
C80 H82 0.961 . S
C80 H83 0.960 . S
H81 C80 0.961 . S
H82 C80 0.961 . S
H83 C80 0.960 . S
C84 N85 1.342 . S
C84 C88 1.401 . S
C84 C89 1.499 . S
N85 Co68 1.989 . S
N85 C84 1.342 . S
N85 N86 1.388 . S
N86 Co69 1.993 . S
N86 N85 1.388 . S
N86 C87 1.346 1_655 S
C87 N86 1.346 1_455 S
C87 C88 1.396 1_455 S
C87 C97 1.510 . S
C88 C84 1.401 . S
C88 C87 1.396 1_655 S
C89 C84 1.499 . S
C89 H90 0.959 . S
C89 H91 0.960 . S
C89 H92 0.961 . S
H90 C89 0.959 . S
H91 C89 0.960 . S
H92 C89 0.961 . S
O93 Co68 1.967 . S
O93 C101 1.258 . S
O94 Co69 1.941 1_556 S
O94 C101 1.266 1_556 S
H95 C97 0.959 . S
H96 C97 0.961 . S
C97 C87 1.510 . S
C97 H95 0.959 . S
C97 H96 0.961 . S
C97 H98 0.960 . S
H98 C97 0.960 . S
H99 N79 0.862 1_554 S
O100 Co68 1.920 . S
O100 C73 1.289 . S
C101 O93 1.258 . S
C101 O94 1.266 1_554 S
Co102 O105 1.970 . S
Co102 N119 1.989 . S
Co102 O127 1.967 . S
Co102 O134 1.920 . S
Co103 O106 1.966 . S
Co103 N112 2.022 . S
Co103 N120 1.993 . S
Co103 O128 1.941 . S
C104 O105 1.258 . S
C104 O106 1.263 . S
O105 Co102 1.970 . S
O105 C104 1.258 . S
O106 Co103 1.966 . S
O106 C104 1.263 . S
C107 O108 1.235 . S
C107 O134 1.289 . S
O108 C107 1.235 . S
C109 C111 1.400 . S
C109 N112 1.351 . S
C109 C114 1.501 . S
C110 C111 1.387 . S
C110 N113 1.341 . S
C111 C109 1.400 . S
C111 C110 1.387 . S
N112 Co103 2.022 . S
N112 C109 1.351 . S
N112 N113 1.365 . S
N113 C110 1.341 . S
N113 N112 1.365 . S
N113 H133 0.862 . S
C114 C109 1.501 . S
C114 H115 0.961 . S
C114 H116 0.961 . S
C114 H117 0.960 . S
H115 C114 0.961 . S
H116 C114 0.961 . S
H117 C114 0.960 . S
C118 N119 1.342 . S
C118 C122 1.401 . S
C118 C123 1.499 . S
N119 Co102 1.989 . S
N119 C118 1.342 . S
N119 N120 1.388 . S
N120 Co103 1.993 . S
N120 N119 1.388 . S
N120 C121 1.346 . S
C121 N120 1.346 . S
C121 C122 1.396 . S
C121 C131 1.510 . S
C122 C118 1.401 . S
C122 C121 1.396 . S
C123 C118 1.499 . S
C123 H124 0.959 . S
C123 H125 0.960 . S
C123 H126 0.961 . S
H124 C123 0.959 . S
H125 C123 0.960 . S
H126 C123 0.961 . S
O127 Co102 1.967 . S
O127 C135 1.258 . S
O128 Co103 1.941 . S
O128 C135 1.266 . S
H129 C131 0.959 . S
H130 C131 0.961 . S
C131 C121 1.510 . S
C131 H129 0.959 . S
C131 H130 0.961 . S
C131 H132 0.960 . S
H132 C131 0.960 . S
H133 N113 0.862 . S
O134 Co102 1.920 . S
O134 C107 1.289 . S
C135 O127 1.258 . S
C135 O128 1.266 . S
Co136 O139 1.970 . S
Co136 N153 1.989 . S
Co136 O161 1.967 . S
Co136 O168 1.920 . S
Co137 O140 1.966 . S
Co137 N146 2.022 1_565 S
Co137 N154 1.993 . S
Co137 O162 1.941 . S
C138 O139 1.258 . S
C138 O140 1.263 . S
O139 Co136 1.970 . S
O139 C138 1.258 . S
O140 Co137 1.966 . S
O140 C138 1.263 . S
C141 O142 1.235 . S
C141 O168 1.289 . S
O142 C141 1.235 . S
C143 C145 1.400 . S
C143 N146 1.351 . S
C143 C148 1.501 . S
C144 C145 1.387 . S
C144 N147 1.341 . S
C145 C143 1.400 . S
C145 C144 1.387 . S
N146 Co137 2.022 1_545 S
N146 C143 1.351 . S
N146 N147 1.365 . S
N147 C144 1.341 . S
N147 N146 1.365 . S
N147 H167 0.862 . S
C148 C143 1.501 . S
C148 H149 0.961 . S
C148 H150 0.961 . S
C148 H151 0.960 . S
H149 C148 0.961 . S
H150 C148 0.961 . S
H151 C148 0.960 . S
C152 N153 1.342 . S
C152 C156 1.401 . S
C152 C157 1.499 . S
N153 Co136 1.989 . S
N153 C152 1.342 . S
N153 N154 1.388 . S
N154 Co137 1.993 . S
N154 N153 1.388 . S
N154 C155 1.346 1_565 S
C155 N154 1.346 1_545 S
C155 C156 1.396 1_545 S
C155 C165 1.510 . S
C156 C152 1.401 . S
C156 C155 1.396 1_565 S
C157 C152 1.499 . S
C157 H158 0.959 . S
C157 H159 0.960 . S
C157 H160 0.961 . S
H158 C157 0.959 . S
H159 C157 0.960 . S
H160 C157 0.961 . S
O161 Co136 1.967 . S
O161 C169 1.258 . S
O162 Co137 1.941 . S
O162 C169 1.266 . S
H163 C165 0.959 . S
H164 C165 0.961 . S
C165 C155 1.510 . S
C165 H163 0.959 . S
C165 H164 0.961 . S
C165 H166 0.960 . S
H166 C165 0.960 . S
H167 N147 0.862 . S
O168 Co136 1.920 . S
O168 C141 1.289 . S
C169 O161 1.258 . S
C169 O162 1.266 . S
Co170 O173 1.970 . S
Co170 N187 1.989 . S
Co170 O195 1.967 . S
Co170 O202 1.920 . S
Co171 O174 1.966 . S
Co171 N180 2.022 1_455 S
Co171 N188 1.993 . S
Co171 O196 1.941 . S
C172 O173 1.258 . S
C172 O174 1.263 . S
O173 Co170 1.970 . S
O173 C172 1.258 . S
O174 Co171 1.966 . S
O174 C172 1.263 . S
C175 O176 1.235 . S
C175 O202 1.289 . S
O176 C175 1.235 . S
C177 C179 1.400 . S
C177 N180 1.351 . S
C177 C182 1.501 . S
C178 C179 1.387 . S
C178 N181 1.341 . S
C179 C177 1.400 . S
C179 C178 1.387 . S
N180 Co171 2.022 1_655 S
N180 C177 1.351 . S
N180 N181 1.365 . S
N181 C178 1.341 . S
N181 N180 1.365 . S
N181 H201 0.862 . S
C182 C177 1.501 . S
C182 H183 0.961 . S
C182 H184 0.961 . S
C182 H185 0.960 . S
H183 C182 0.961 . S
H184 C182 0.961 . S
H185 C182 0.960 . S
C186 N187 1.342 . S
C186 C190 1.401 . S
C186 C191 1.499 . S
N187 Co170 1.989 . S
N187 C186 1.342 . S
N187 N188 1.388 . S
N188 Co171 1.993 . S
N188 N187 1.388 . S
N188 C189 1.346 1_455 S
C189 N188 1.346 1_655 S
C189 C190 1.396 1_655 S
C189 C199 1.510 . S
C190 C186 1.401 . S
C190 C189 1.396 1_455 S
C191 C186 1.499 . S
C191 H192 0.959 . S
C191 H193 0.960 . S
C191 H194 0.961 . S
H192 C191 0.959 . S
H193 C191 0.960 . S
H194 C191 0.961 . S
O195 Co170 1.967 . S
O195 C203 1.258 . S
O196 Co171 1.941 . S
O196 C203 1.266 . S
H197 C199 0.959 . S
H198 C199 0.961 . S
C199 C189 1.510 . S
C199 H197 0.959 . S
C199 H198 0.961 . S
C199 H200 0.960 . S
H200 C199 0.960 . S
H201 N181 0.862 . S
O202 Co170 1.920 . S
O202 C175 1.289 . S
C203 O195 1.258 . S
C203 O196 1.266 . S
Co204 O207 1.970 . S
Co204 N221 1.989 . S
Co204 O229 1.967 . S
Co204 O236 1.920 . S
Co205 O208 1.966 1_556 S
Co205 N214 2.022 1_556 S
Co205 N222 1.993 . S
Co205 O230 1.941 1_556 S
C206 O207 1.258 1_554 S
C206 O208 1.263 . S
O207 Co204 1.970 . S
O207 C206 1.258 1_556 S
O208 Co205 1.966 1_554 S
O208 C206 1.263 . S
C209 O210 1.235 . S
C209 O236 1.289 . S
O210 C209 1.235 . S
C211 C213 1.400 . S
C211 N214 1.351 . S
C211 C216 1.501 . S
C212 C213 1.387 . S
C212 N215 1.341 . S
C213 C211 1.400 . S
C213 C212 1.387 . S
N214 Co205 2.022 1_554 S
N214 C211 1.351 . S
N214 N215 1.365 . S
N215 C212 1.341 . S
N215 N214 1.365 . S
N215 H235 0.862 1_554 S
C216 C211 1.501 . S
C216 H217 0.961 . S
C216 H218 0.961 . S
C216 H219 0.960 . S
H217 C216 0.961 . S
H218 C216 0.961 . S
H219 C216 0.960 . S
C220 N221 1.342 . S
C220 C224 1.401 . S
C220 C225 1.499 . S
N221 Co204 1.989 . S
N221 C220 1.342 . S
N221 N222 1.388 . S
N222 Co205 1.993 . S
N222 N221 1.388 . S
N222 C223 1.346 . S
C223 N222 1.346 . S
C223 C224 1.396 . S
C223 C233 1.510 . S
C224 C220 1.401 . S
C224 C223 1.396 . S
C225 C220 1.499 . S
C225 H226 0.959 . S
C225 H227 0.960 . S
C225 H228 0.961 . S
H226 C225 0.959 . S
H227 C225 0.960 . S
H228 C225 0.961 . S
O229 Co204 1.967 . S
O229 C237 1.258 . S
O230 Co205 1.941 1_554 S
O230 C237 1.266 1_554 S
H231 C233 0.959 . S
H232 C233 0.961 . S
C233 C223 1.510 . S
C233 H231 0.959 . S
C233 H232 0.961 . S
C233 H234 0.960 . S
H234 C233 0.960 . S
H235 N215 0.862 1_556 S
O236 Co204 1.920 . S
O236 C209 1.289 . S
C237 O229 1.258 . S
C237 O230 1.266 1_556 S
Co238 O241 1.970 . S
Co238 N255 1.989 . S
Co238 O263 1.967 . S
Co238 O270 1.920 . S
Co239 O242 1.966 1_556 S
Co239 N248 2.022 1_566 S
Co239 N256 1.993 . S
Co239 O264 1.941 1_556 S
C240 O241 1.258 1_554 S
C240 O242 1.263 . S
O241 Co238 1.970 . S
O241 C240 1.258 1_556 S
O242 Co239 1.966 1_554 S
O242 C240 1.263 . S
C243 O244 1.235 . S
C243 O270 1.289 . S
O244 C243 1.235 . S
C245 C247 1.400 . S
C245 N248 1.351 . S
C245 C250 1.501 . S
C246 C247 1.387 . S
C246 N249 1.341 . S
C247 C245 1.400 . S
C247 C246 1.387 . S
N248 Co239 2.022 1_544 S
N248 C245 1.351 . S
N248 N249 1.365 . S
N249 C246 1.341 . S
N249 N248 1.365 . S
N249 H269 0.862 1_554 S
C250 C245 1.501 . S
C250 H251 0.961 . S
C250 H252 0.961 . S
C250 H253 0.960 . S
H251 C250 0.961 . S
H252 C250 0.961 . S
H253 C250 0.960 . S
C254 N255 1.342 . S
C254 C258 1.401 . S
C254 C259 1.499 . S
N255 Co238 1.989 . S
N255 C254 1.342 . S
N255 N256 1.388 . S
N256 Co239 1.993 . S
N256 N255 1.388 . S
N256 C257 1.346 1_565 S
C257 N256 1.346 1_545 S
C257 C258 1.396 1_545 S
C257 C267 1.510 . S
C258 C254 1.401 . S
C258 C257 1.396 1_565 S
C259 C254 1.499 . S
C259 H260 0.959 . S
C259 H261 0.960 . S
C259 H262 0.961 . S
H260 C259 0.959 . S
H261 C259 0.960 . S
H262 C259 0.961 . S
O263 Co238 1.967 . S
O263 C271 1.258 . S
O264 Co239 1.941 1_554 S
O264 C271 1.266 1_554 S
H265 C267 0.959 . S
H266 C267 0.961 . S
C267 C257 1.510 . S
C267 H265 0.959 . S
C267 H266 0.961 . S
C267 H268 0.960 . S
H268 C267 0.960 . S
H269 N249 0.862 1_556 S
O270 Co238 1.920 . S
O270 C243 1.289 . S
C271 O263 1.258 . S
C271 O264 1.266 1_556 S
Co272 O275 1.970 . S
Co272 N289 1.989 . S
Co272 O297 1.967 . S
Co272 O304 1.920 . S
Co273 O276 1.966 1_556 S
Co273 N282 2.022 1_456 S
Co273 N290 1.993 . S
Co273 O298 1.941 1_556 S
C274 O275 1.258 1_554 S
C274 O276 1.263 . S
O275 Co272 1.970 . S
O275 C274 1.258 1_556 S
O276 Co273 1.966 1_554 S
O276 C274 1.263 . S
C277 O278 1.235 . S
C277 O304 1.289 . S
O278 C277 1.235 . S
C279 C281 1.400 . S
C279 N282 1.351 . S
C279 C284 1.501 . S
C280 C281 1.387 . S
C280 N283 1.341 . S
C281 C279 1.400 . S
C281 C280 1.387 . S
N282 Co273 2.022 1_654 S
N282 C279 1.351 . S
N282 N283 1.365 . S
N283 C280 1.341 . S
N283 N282 1.365 . S
N283 H303 0.862 1_554 S
C284 C279 1.501 . S
C284 H285 0.961 . S
C284 H286 0.961 . S
C284 H287 0.960 . S
H285 C284 0.961 . S
H286 C284 0.961 . S
H287 C284 0.960 . S
C288 N289 1.342 . S
C288 C292 1.401 . S
C288 C293 1.499 . S
N289 Co272 1.989 . S
N289 C288 1.342 . S
N289 N290 1.388 . S
N290 Co273 1.993 . S
N290 N289 1.388 . S
N290 C291 1.346 1_455 S
C291 N290 1.346 1_655 S
C291 C292 1.396 1_655 S
C291 C301 1.510 . S
C292 C288 1.401 . S
C292 C291 1.396 1_455 S
C293 C288 1.499 . S
C293 H294 0.959 . S
C293 H295 0.960 . S
C293 H296 0.961 . S
H294 C293 0.959 . S
H295 C293 0.960 . S
H296 C293 0.961 . S
O297 Co272 1.967 . S
O297 C305 1.258 . S
O298 Co273 1.941 1_554 S
O298 C305 1.266 1_554 S
H299 C301 0.959 . S
H300 C301 0.961 . S
C301 C291 1.510 . S
C301 H299 0.959 . S
C301 H300 0.961 . S
C301 H302 0.960 . S
H302 C301 0.960 . S
H303 N283 0.862 1_556 S
O304 Co272 1.920 . S
O304 C277 1.289 . S
C305 O297 1.258 . S
C305 O298 1.266 1_556 S
Co306 O309 1.970 . S
Co306 N323 1.989 . S
Co306 O331 1.967 . S
Co306 O338 1.920 . S
Co307 O310 1.966 . S
Co307 N316 2.022 . S
Co307 N324 1.993 . S
Co307 O332 1.941 . S
C308 O309 1.258 . S
C308 O310 1.263 . S
O309 Co306 1.970 . S
O309 C308 1.258 . S
O310 Co307 1.966 . S
O310 C308 1.263 . S
C311 O312 1.235 . S
C311 O338 1.289 . S
O312 C311 1.235 . S
C313 C315 1.400 . S
C313 N316 1.351 . S
C313 C318 1.501 . S
C314 C315 1.387 . S
C314 N317 1.341 . S
C315 C313 1.400 . S
C315 C314 1.387 . S
N316 Co307 2.022 . S
N316 C313 1.351 . S
N316 N317 1.365 . S
N317 C314 1.341 . S
N317 N316 1.365 . S
N317 H337 0.862 . S
C318 C313 1.501 . S
C318 H319 0.961 . S
C318 H320 0.961 . S
C318 H321 0.960 . S
H319 C318 0.961 . S
H320 C318 0.961 . S
H321 C318 0.960 . S
C322 N323 1.342 . S
C322 C326 1.401 . S
C322 C327 1.499 . S
N323 Co306 1.989 . S
N323 C322 1.342 . S
N323 N324 1.388 . S
N324 Co307 1.993 . S
N324 N323 1.388 . S
N324 C325 1.346 . S
C325 N324 1.346 . S
C325 C326 1.396 . S
C325 C335 1.510 . S
C326 C322 1.401 . S
C326 C325 1.396 . S
C327 C322 1.499 . S
C327 H328 0.959 . S
C327 H329 0.960 . S
C327 H330 0.961 . S
H328 C327 0.959 . S
H329 C327 0.960 . S
H330 C327 0.961 . S
O331 Co306 1.967 . S
O331 C339 1.258 . S
O332 Co307 1.941 . S
O332 C339 1.266 . S
H333 C335 0.959 . S
H334 C335 0.961 . S
C335 C325 1.510 . S
C335 H333 0.959 . S
C335 H334 0.961 . S
C335 H336 0.960 . S
H336 C335 0.960 . S
H337 N317 0.862 . S
O338 Co306 1.920 . S
O338 C311 1.289 . S
C339 O331 1.258 . S
C339 O332 1.266 . S
Co340 O343 1.970 . S
Co340 N357 1.989 . S
Co340 O365 1.967 . S
Co340 O372 1.920 . S
Co341 O344 1.966 . S
Co341 N350 2.022 1_545 S
Co341 N358 1.993 . S
Co341 O366 1.941 . S
C342 O343 1.258 . S
C342 O344 1.263 . S
O343 Co340 1.970 . S
O343 C342 1.258 . S
O344 Co341 1.966 . S
O344 C342 1.263 . S
C345 O346 1.235 . S
C345 O372 1.289 . S
O346 C345 1.235 . S
C347 C349 1.400 . S
C347 N350 1.351 . S
C347 C352 1.501 . S
C348 C349 1.387 . S
C348 N351 1.341 . S
C349 C347 1.400 . S
C349 C348 1.387 . S
N350 Co341 2.022 1_565 S
N350 C347 1.351 . S
N350 N351 1.365 . S
N351 C348 1.341 . S
N351 N350 1.365 . S
N351 H371 0.862 . S
C352 C347 1.501 . S
C352 H353 0.961 . S
C352 H354 0.961 . S
C352 H355 0.960 . S
H353 C352 0.961 . S
H354 C352 0.961 . S
H355 C352 0.960 . S
C356 N357 1.342 . S
C356 C360 1.401 . S
C356 C361 1.499 . S
N357 Co340 1.989 . S
N357 C356 1.342 . S
N357 N358 1.388 . S
N358 Co341 1.993 . S
N358 N357 1.388 . S
N358 C359 1.346 1_545 S
C359 N358 1.346 1_565 S
C359 C360 1.396 1_565 S
C359 C369 1.510 . S
C360 C356 1.401 . S
C360 C359 1.396 1_545 S
C361 C356 1.499 . S
C361 H362 0.959 . S
C361 H363 0.960 . S
C361 H364 0.961 . S
H362 C361 0.959 . S
H363 C361 0.960 . S
H364 C361 0.961 . S
O365 Co340 1.967 . S
O365 C373 1.258 . S
O366 Co341 1.941 . S
O366 C373 1.266 . S
H367 C369 0.959 . S
H368 C369 0.961 . S
C369 C359 1.510 . S
C369 H367 0.959 . S
C369 H368 0.961 . S
C369 H370 0.960 . S
H370 C369 0.960 . S
H371 N351 0.862 . S
O372 Co340 1.920 . S
O372 C345 1.289 . S
C373 O365 1.258 . S
C373 O366 1.266 . S
Co374 O377 1.970 . S
Co374 N391 1.989 . S
Co374 O399 1.967 . S
Co374 O406 1.920 . S
Co375 O378 1.966 . S
Co375 N384 2.022 1_655 S
Co375 N392 1.993 . S
Co375 O400 1.941 . S
C376 O377 1.258 . S
C376 O378 1.263 . S
O377 Co374 1.970 . S
O377 C376 1.258 . S
O378 Co375 1.966 . S
O378 C376 1.263 . S
C379 O380 1.235 . S
C379 O406 1.289 . S
O380 C379 1.235 . S
C381 C383 1.400 . S
C381 N384 1.351 . S
C381 C386 1.501 . S
C382 C383 1.387 . S
C382 N385 1.341 . S
C383 C381 1.400 . S
C383 C382 1.387 . S
N384 Co375 2.022 1_455 S
N384 C381 1.351 . S
N384 N385 1.365 . S
N385 C382 1.341 . S
N385 N384 1.365 . S
N385 H405 0.862 . S
C386 C381 1.501 . S
C386 H387 0.961 . S
C386 H388 0.961 . S
C386 H389 0.960 . S
H387 C386 0.961 . S
H388 C386 0.961 . S
H389 C386 0.960 . S
C390 N391 1.342 . S
C390 C394 1.401 . S
C390 C395 1.499 . S
N391 Co374 1.989 . S
N391 C390 1.342 . S
N391 N392 1.388 . S
N392 Co375 1.993 . S
N392 N391 1.388 . S
N392 C393 1.346 1_655 S
C393 N392 1.346 1_455 S
C393 C394 1.396 1_455 S
C393 C403 1.510 . S
C394 C390 1.401 . S
C394 C393 1.396 1_655 S
C395 C390 1.499 . S
C395 H396 0.959 . S
C395 H397 0.960 . S
C395 H398 0.961 . S
H396 C395 0.959 . S
H397 C395 0.960 . S
H398 C395 0.961 . S
O399 Co374 1.967 . S
O399 C407 1.258 . S
O400 Co375 1.941 . S
O400 C407 1.266 . S
H401 C403 0.959 . S
H402 C403 0.961 . S
C403 C393 1.510 . S
C403 H401 0.959 . S
C403 H402 0.961 . S
C403 H404 0.960 . S
H404 C403 0.960 . S
H405 N385 0.862 . S
O406 Co374 1.920 . S
O406 C379 1.289 . S
C407 O399 1.258 . S
C407 O400 1.266 . S
Co408 O411 1.970 . S
Co408 N425 1.989 . S
Co408 O433 1.967 . S
Co408 O440 1.920 . S
Co409 O412 1.966 . S
Co409 N418 2.022 . S
Co409 N426 1.993 . S
Co409 O434 1.941 . S
C410 O411 1.258 . S
C410 O412 1.263 . S
O411 Co408 1.970 . S
O411 C410 1.258 . S
O412 Co409 1.966 . S
O412 C410 1.263 . S
C413 O414 1.235 . S
C413 O440 1.289 1_455 S
O414 C413 1.235 . S
C415 C417 1.400 . S
C415 N418 1.351 . S
C415 C420 1.501 . S
C416 C417 1.387 . S
C416 N419 1.341 . S
C417 C415 1.400 . S
C417 C416 1.387 . S
N418 Co409 2.022 . S
N418 C415 1.351 . S
N418 N419 1.365 . S
N419 C416 1.341 . S
N419 N418 1.365 . S
N419 H439 0.862 . S
C420 C415 1.501 . S
C420 H421 0.961 . S
C420 H422 0.961 . S
C420 H423 0.960 . S
H421 C420 0.961 . S
H422 C420 0.961 . S
H423 C420 0.960 . S
C424 N425 1.342 . S
C424 C428 1.401 . S
C424 C429 1.499 . S
N425 Co408 1.989 . S
N425 C424 1.342 . S
N425 N426 1.388 . S
N426 Co409 1.993 . S
N426 N425 1.388 . S
N426 C427 1.346 . S
C427 N426 1.346 . S
C427 C428 1.396 . S
C427 C437 1.510 . S
C428 C424 1.401 . S
C428 C427 1.396 . S
C429 C424 1.499 . S
C429 H430 0.959 . S
C429 H431 0.960 . S
C429 H432 0.961 . S
H430 C429 0.959 . S
H431 C429 0.960 . S
H432 C429 0.961 . S
O433 Co408 1.967 . S
O433 C441 1.258 . S
O434 Co409 1.941 . S
O434 C441 1.266 . S
H435 C437 0.959 . S
H436 C437 0.961 . S
C437 C427 1.510 . S
C437 H435 0.959 . S
C437 H436 0.961 . S
C437 H438 0.960 . S
H438 C437 0.960 . S
H439 N419 0.862 . S
O440 Co408 1.920 . S
O440 C413 1.289 1_655 S
C441 O433 1.258 . S
C441 O434 1.266 . S
Co442 O445 1.970 . S
Co442 N459 1.989 . S
Co442 O467 1.967 . S
Co442 O474 1.920 . S
Co443 O446 1.966 . S
Co443 N452 2.022 . S
Co443 N460 1.993 . S
Co443 O468 1.941 . S
C444 O445 1.258 . S
C444 O446 1.263 . S
O445 Co442 1.970 . S
O445 C444 1.258 . S
O446 Co443 1.966 . S
O446 C444 1.263 . S
C447 O448 1.235 . S
C447 O474 1.289 . S
O448 C447 1.235 . S
C449 C451 1.400 . S
C449 N452 1.351 . S
C449 C454 1.501 . S
C450 C451 1.387 . S
C450 N453 1.341 . S
C451 C449 1.400 . S
C451 C450 1.387 . S
N452 Co443 2.022 . S
N452 C449 1.351 . S
N452 N453 1.365 . S
N453 C450 1.341 . S
N453 N452 1.365 . S
N453 H473 0.862 . S
C454 C449 1.501 . S
C454 H455 0.961 . S
C454 H456 0.961 . S
C454 H457 0.960 . S
H455 C454 0.961 . S
H456 C454 0.961 . S
H457 C454 0.960 . S
C458 N459 1.342 . S
C458 C462 1.401 . S
C458 C463 1.499 . S
N459 Co442 1.989 . S
N459 C458 1.342 . S
N459 N460 1.388 . S
N460 Co443 1.993 . S
N460 N459 1.388 . S
N460 C461 1.346 . S
C461 N460 1.346 . S
C461 C462 1.396 . S
C461 C471 1.510 . S
C462 C458 1.401 . S
C462 C461 1.396 . S
C463 C458 1.499 . S
C463 H464 0.959 . S
C463 H465 0.960 . S
C463 H466 0.961 . S
H464 C463 0.959 . S
H465 C463 0.960 . S
H466 C463 0.961 . S
O467 Co442 1.967 . S
O467 C475 1.258 . S
O468 Co443 1.941 . S
O468 C475 1.266 . S
H469 C471 0.959 . S
H470 C471 0.961 . S
C471 C461 1.510 . S
C471 H469 0.959 . S
C471 H470 0.961 . S
C471 H472 0.960 . S
H472 C471 0.960 . S
H473 N453 0.862 . S
O474 Co442 1.920 . S
O474 C447 1.289 . S
C475 O467 1.258 . S
C475 O468 1.266 . S
Co476 O479 1.970 . S
Co476 N493 1.989 . S
Co476 O501 1.967 . S
Co476 O508 1.920 . S
Co477 O480 1.966 . S
Co477 N486 2.022 . S
Co477 N494 1.993 . S
Co477 O502 1.941 . S
C478 O479 1.258 . S
C478 O480 1.263 . S
O479 Co476 1.970 . S
O479 C478 1.258 . S
O480 Co477 1.966 . S
O480 C478 1.263 . S
C481 O482 1.235 . S
C481 O508 1.289 1_565 S
O482 C481 1.235 . S
C483 C485 1.400 . S
C483 N486 1.351 . S
C483 C488 1.501 . S
C484 C485 1.387 . S
C484 N487 1.341 . S
C485 C483 1.400 . S
C485 C484 1.387 . S
N486 Co477 2.022 . S
N486 C483 1.351 . S
N486 N487 1.365 . S
N487 C484 1.341 . S
N487 N486 1.365 . S
N487 H507 0.862 . S
C488 C483 1.501 . S
C488 H489 0.961 . S
C488 H490 0.961 . S
C488 H491 0.960 . S
H489 C488 0.961 . S
H490 C488 0.961 . S
H491 C488 0.960 . S
C492 N493 1.342 . S
C492 C496 1.401 . S
C492 C497 1.499 . S
N493 Co476 1.989 . S
N493 C492 1.342 . S
N493 N494 1.388 . S
N494 Co477 1.993 . S
N494 N493 1.388 . S
N494 C495 1.346 . S
C495 N494 1.346 . S
C495 C496 1.396 . S
C495 C505 1.510 . S
C496 C492 1.401 . S
C496 C495 1.396 . S
C497 C492 1.499 . S
C497 H498 0.959 . S
C497 H499 0.960 . S
C497 H500 0.961 . S
H498 C497 0.959 . S
H499 C497 0.960 . S
H500 C497 0.961 . S
O501 Co476 1.967 . S
O501 C509 1.258 . S
O502 Co477 1.941 . S
O502 C509 1.266 . S
H503 C505 0.959 . S
H504 C505 0.961 . S
C505 C495 1.510 . S
C505 H503 0.959 . S
C505 H504 0.961 . S
C505 H506 0.960 . S
H506 C505 0.960 . S
H507 N487 0.862 . S
O508 Co476 1.920 . S
O508 C481 1.289 1_545 S
C509 O501 1.258 . S
C509 O502 1.266 . S
Co510 O513 1.970 . S
Co510 N527 1.989 . S
Co510 O535 1.967 . S
Co510 O542 1.920 . S
Co511 O514 1.966 . S
Co511 N520 2.022 . S
Co511 N528 1.993 . S
Co511 O536 1.941 . S
C512 O513 1.258 . S
C512 O514 1.263 . S
O513 Co510 1.970 . S
O513 C512 1.258 . S
O514 Co511 1.966 . S
O514 C512 1.263 . S
C515 O516 1.235 . S
C515 O542 1.289 . S
O516 C515 1.235 . S
C517 C519 1.400 . S
C517 N520 1.351 . S
C517 C522 1.501 . S
C518 C519 1.387 . S
C518 N521 1.341 . S
C519 C517 1.400 . S
C519 C518 1.387 . S
N520 Co511 2.022 . S
N520 C517 1.351 . S
N520 N521 1.365 . S
N521 C518 1.341 . S
N521 N520 1.365 . S
N521 H541 0.862 . S
C522 C517 1.501 . S
C522 H523 0.961 . S
C522 H524 0.961 . S
C522 H525 0.960 . S
H523 C522 0.961 . S
H524 C522 0.961 . S
H525 C522 0.960 . S
C526 N527 1.342 . S
C526 C530 1.401 . S
C526 C531 1.499 . S
N527 Co510 1.989 . S
N527 C526 1.342 . S
N527 N528 1.388 . S
N528 Co511 1.993 . S
N528 N527 1.388 . S
N528 C529 1.346 . S
C529 N528 1.346 . S
C529 C530 1.396 . S
C529 C539 1.510 . S
C530 C526 1.401 . S
C530 C529 1.396 . S
C531 C526 1.499 . S
C531 H532 0.959 . S
C531 H533 0.960 . S
C531 H534 0.961 . S
H532 C531 0.959 . S
H533 C531 0.960 . S
H534 C531 0.961 . S
O535 Co510 1.967 . S
O535 C543 1.258 . S
O536 Co511 1.941 . S
O536 C543 1.266 . S
H537 C539 0.959 . S
H538 C539 0.961 . S
C539 C529 1.510 . S
C539 H537 0.959 . S
C539 H538 0.961 . S
C539 H540 0.960 . S
H540 C539 0.960 . S
H541 N521 0.862 . S
O542 Co510 1.920 . S
O542 C515 1.289 . S
C543 O535 1.258 . S
C543 O536 1.266 . S
Co544 O547 1.970 . S
Co544 N561 1.989 . S
Co544 O569 1.967 . S
Co544 O576 1.920 . S
Co545 O548 1.966 . S
Co545 N554 2.022 . S
Co545 N562 1.993 . S
Co545 O570 1.941 . S
C546 O547 1.258 . S
C546 O548 1.263 . S
O547 Co544 1.970 . S
O547 C546 1.258 . S
O548 Co545 1.966 . S
O548 C546 1.263 . S
C549 O550 1.235 . S
C549 O576 1.289 . S
O550 C549 1.235 . S
C551 C553 1.400 . S
C551 N554 1.351 . S
C551 C556 1.501 . S
C552 C553 1.387 . S
C552 N555 1.341 . S
C553 C551 1.400 . S
C553 C552 1.387 . S
N554 Co545 2.022 . S
N554 C551 1.351 . S
N554 N555 1.365 . S
N555 C552 1.341 . S
N555 N554 1.365 . S
N555 H575 0.862 . S
C556 C551 1.501 . S
C556 H557 0.961 . S
C556 H558 0.961 . S
C556 H559 0.960 . S
H557 C556 0.961 . S
H558 C556 0.961 . S
H559 C556 0.960 . S
C560 N561 1.342 . S
C560 C564 1.401 . S
C560 C565 1.499 . S
N561 Co544 1.989 . S
N561 C560 1.342 . S
N561 N562 1.388 . S
N562 Co545 1.993 . S
N562 N561 1.388 . S
N562 C563 1.346 . S
C563 N562 1.346 . S
C563 C564 1.396 . S
C563 C573 1.510 . S
C564 C560 1.401 . S
C564 C563 1.396 . S
C565 C560 1.499 . S
C565 H566 0.959 . S
C565 H567 0.960 . S
C565 H568 0.961 . S
H566 C565 0.959 . S
H567 C565 0.960 . S
H568 C565 0.961 . S
O569 Co544 1.967 . S
O569 C577 1.258 . S
O570 Co545 1.941 . S
O570 C577 1.266 . S
H571 C573 0.959 . S
H572 C573 0.961 . S
C573 C563 1.510 . S
C573 H571 0.959 . S
C573 H572 0.961 . S
C573 H574 0.960 . S
H574 C573 0.960 . S
H575 N555 0.862 . S
O576 Co544 1.920 . S
O576 C549 1.289 . S
C577 O569 1.258 . S
C577 O570 1.266 . S
Co578 O581 1.970 . S
Co578 N595 1.989 . S
Co578 O603 1.967 . S
Co578 O610 1.920 . S
Co579 O582 1.966 . S
Co579 N588 2.022 . S
Co579 N596 1.993 . S
Co579 O604 1.941 . S
C580 O581 1.258 . S
C580 O582 1.263 . S
O581 Co578 1.970 . S
O581 C580 1.258 . S
O582 Co579 1.966 . S
O582 C580 1.263 . S
C583 O584 1.235 . S
C583 O610 1.289 . S
O584 C583 1.235 . S
C585 C587 1.400 . S
C585 N588 1.351 . S
C585 C590 1.501 . S
C586 C587 1.387 . S
C586 N589 1.341 . S
C587 C585 1.400 . S
C587 C586 1.387 . S
N588 Co579 2.022 . S
N588 C585 1.351 . S
N588 N589 1.365 . S
N589 C586 1.341 . S
N589 N588 1.365 . S
N589 H609 0.862 . S
C590 C585 1.501 . S
C590 H591 0.961 . S
C590 H592 0.961 . S
C590 H593 0.960 . S
H591 C590 0.961 . S
H592 C590 0.961 . S
H593 C590 0.960 . S
C594 N595 1.342 . S
C594 C598 1.401 . S
C594 C599 1.499 . S
N595 Co578 1.989 . S
N595 C594 1.342 . S
N595 N596 1.388 . S
N596 Co579 1.993 . S
N596 N595 1.388 . S
N596 C597 1.346 . S
C597 N596 1.346 . S
C597 C598 1.396 . S
C597 C607 1.510 . S
C598 C594 1.401 . S
C598 C597 1.396 . S
C599 C594 1.499 . S
C599 H600 0.959 . S
C599 H601 0.960 . S
C599 H602 0.961 . S
H600 C599 0.959 . S
H601 C599 0.960 . S
H602 C599 0.961 . S
O603 Co578 1.967 . S
O603 C611 1.258 . S
O604 Co579 1.941 . S
O604 C611 1.266 . S
H605 C607 0.959 . S
H606 C607 0.961 . S
C607 C597 1.510 . S
C607 H605 0.959 . S
C607 H606 0.961 . S
C607 H608 0.960 . S
H608 C607 0.960 . S
H609 N589 0.862 . S
O610 Co578 1.920 . S
O610 C583 1.289 . S
C611 O603 1.258 . S
C611 O604 1.266 . S
Co612 O615 1.970 . S
Co612 N629 1.989 . S
Co612 O637 1.967 . S
Co612 O644 1.920 . S
Co613 O616 1.966 . S
Co613 N622 2.022 . S
Co613 N630 1.993 . S
Co613 O638 1.941 . S
C614 O615 1.258 . S
C614 O616 1.263 . S
O615 Co612 1.970 . S
O615 C614 1.258 . S
O616 Co613 1.966 . S
O616 C614 1.263 . S
C617 O618 1.235 . S
C617 O644 1.289 . S
O618 C617 1.235 . S
C619 C621 1.400 . S
C619 N622 1.351 . S
C619 C624 1.501 . S
C620 C621 1.387 . S
C620 N623 1.341 . S
C621 C619 1.400 . S
C621 C620 1.387 . S
N622 Co613 2.022 . S
N622 C619 1.351 . S
N622 N623 1.365 . S
N623 C620 1.341 . S
N623 N622 1.365 . S
N623 H643 0.862 . S
C624 C619 1.501 . S
C624 H625 0.961 . S
C624 H626 0.961 . S
C624 H627 0.960 . S
H625 C624 0.961 . S
H626 C624 0.961 . S
H627 C624 0.960 . S
C628 N629 1.342 . S
C628 C632 1.401 . S
C628 C633 1.499 . S
N629 Co612 1.989 . S
N629 C628 1.342 . S
N629 N630 1.388 . S
N630 Co613 1.993 . S
N630 N629 1.388 . S
N630 C631 1.346 . S
C631 N630 1.346 . S
C631 C632 1.396 . S
C631 C641 1.510 . S
C632 C628 1.401 . S
C632 C631 1.396 . S
C633 C628 1.499 . S
C633 H634 0.959 . S
C633 H635 0.960 . S
C633 H636 0.961 . S
H634 C633 0.959 . S
H635 C633 0.960 . S
H636 C633 0.961 . S
O637 Co612 1.967 . S
O637 C645 1.258 . S
O638 Co613 1.941 . S
O638 C645 1.266 . S
H639 C641 0.959 . S
H640 C641 0.961 . S
C641 C631 1.510 . S
C641 H639 0.959 . S
C641 H640 0.961 . S
C641 H642 0.960 . S
H642 C641 0.960 . S
H643 N623 0.862 . S
O644 Co612 1.920 . S
O644 C617 1.289 . S
C645 O637 1.258 . S
C645 O638 1.266 . S
Co646 O649 1.970 . S
Co646 N663 1.989 . S
Co646 O671 1.967 . S
Co646 O678 1.920 . S
Co647 O650 1.966 . S
Co647 N656 2.022 . S
Co647 N664 1.993 . S
Co647 O672 1.941 . S
C648 O649 1.258 . S
C648 O650 1.263 . S
O649 Co646 1.970 . S
O649 C648 1.258 . S
O650 Co647 1.966 . S
O650 C648 1.263 . S
C651 O652 1.235 . S
C651 O678 1.289 . S
O652 C651 1.235 . S
C653 C655 1.400 . S
C653 N656 1.351 . S
C653 C658 1.501 . S
C654 C655 1.387 . S
C654 N657 1.341 . S
C655 C653 1.400 . S
C655 C654 1.387 . S
N656 Co647 2.022 . S
N656 C653 1.351 . S
N656 N657 1.365 . S
N657 C654 1.341 . S
N657 N656 1.365 . S
N657 H677 0.862 . S
C658 C653 1.501 . S
C658 H659 0.961 . S
C658 H660 0.961 . S
C658 H661 0.960 . S
H659 C658 0.961 . S
H660 C658 0.961 . S
H661 C658 0.960 . S
C662 N663 1.342 . S
C662 C666 1.401 . S
C662 C667 1.499 . S
N663 Co646 1.989 . S
N663 C662 1.342 . S
N663 N664 1.388 . S
N664 Co647 1.993 . S
N664 N663 1.388 . S
N664 C665 1.346 . S
C665 N664 1.346 . S
C665 C666 1.396 . S
C665 C675 1.510 . S
C666 C662 1.401 . S
C666 C665 1.396 . S
C667 C662 1.499 . S
C667 H668 0.959 . S
C667 H669 0.960 . S
C667 H670 0.961 . S
H668 C667 0.959 . S
H669 C667 0.960 . S
H670 C667 0.961 . S
O671 Co646 1.967 . S
O671 C679 1.258 . S
O672 Co647 1.941 . S
O672 C679 1.266 . S
H673 C675 0.959 . S
H674 C675 0.961 . S
C675 C665 1.510 . S
C675 H673 0.959 . S
C675 H674 0.961 . S
C675 H676 0.960 . S
H676 C675 0.960 . S
H677 N657 0.862 . S
O678 Co646 1.920 . S
O678 C651 1.289 . S
C679 O671 1.258 . S
C679 O672 1.266 . S
Co680 O683 1.970 . S
Co680 N697 1.989 . S
Co680 O705 1.967 . S
Co680 O712 1.920 . S
Co681 O684 1.966 . S
Co681 N690 2.022 . S
Co681 N698 1.993 . S
Co681 O706 1.941 . S
C682 O683 1.258 . S
C682 O684 1.263 . S
O683 Co680 1.970 . S
O683 C682 1.258 . S
O684 Co681 1.966 . S
O684 C682 1.263 . S
C685 O686 1.235 . S
C685 O712 1.289 . S
O686 C685 1.235 . S
C687 C689 1.400 . S
C687 N690 1.351 . S
C687 C692 1.501 . S
C688 C689 1.387 . S
C688 N691 1.341 . S
C689 C687 1.400 . S
C689 C688 1.387 . S
N690 Co681 2.022 . S
N690 C687 1.351 . S
N690 N691 1.365 . S
N691 C688 1.341 . S
N691 N690 1.365 . S
N691 H711 0.862 . S
C692 C687 1.501 . S
C692 H693 0.961 . S
C692 H694 0.961 . S
C692 H695 0.960 . S
H693 C692 0.961 . S
H694 C692 0.961 . S
H695 C692 0.960 . S
C696 N697 1.342 . S
C696 C700 1.401 . S
C696 C701 1.499 . S
N697 Co680 1.989 . S
N697 C696 1.342 . S
N697 N698 1.388 . S
N698 Co681 1.993 . S
N698 N697 1.388 . S
N698 C699 1.346 . S
C699 N698 1.346 . S
C699 C700 1.396 . S
C699 C709 1.510 . S
C700 C696 1.401 . S
C700 C699 1.396 . S
C701 C696 1.499 . S
C701 H702 0.959 . S
C701 H703 0.960 . S
C701 H704 0.961 . S
H702 C701 0.959 . S
H703 C701 0.960 . S
H704 C701 0.961 . S
O705 Co680 1.967 . S
O705 C713 1.258 . S
O706 Co681 1.941 . S
O706 C713 1.266 . S
H707 C709 0.959 . S
H708 C709 0.961 . S
C709 C699 1.510 . S
C709 H707 0.959 . S
C709 H708 0.961 . S
C709 H710 0.960 . S
H710 C709 0.960 . S
H711 N691 0.862 . S
O712 Co680 1.920 . S
O712 C685 1.289 . S
C713 O705 1.258 . S
C713 O706 1.266 . S
Co714 O717 1.970 . S
Co714 N731 1.989 . S
Co714 O739 1.967 . S
Co714 O746 1.920 . S
Co715 O718 1.966 . S
Co715 N724 2.022 . S
Co715 N732 1.993 . S
Co715 O740 1.941 . S
C716 O717 1.258 . S
C716 O718 1.263 . S
O717 Co714 1.970 . S
O717 C716 1.258 . S
O718 Co715 1.966 . S
O718 C716 1.263 . S
C719 O720 1.235 . S
C719 O746 1.289 1_565 S
O720 C719 1.235 . S
C721 C723 1.400 . S
C721 N724 1.351 . S
C721 C726 1.501 . S
C722 C723 1.387 . S
C722 N725 1.341 . S
C723 C721 1.400 . S
C723 C722 1.387 . S
N724 Co715 2.022 . S
N724 C721 1.351 . S
N724 N725 1.365 . S
N725 C722 1.341 . S
N725 N724 1.365 . S
N725 H745 0.862 . S
C726 C721 1.501 . S
C726 H727 0.961 . S
C726 H728 0.961 . S
C726 H729 0.960 . S
H727 C726 0.961 . S
H728 C726 0.961 . S
H729 C726 0.960 . S
C730 N731 1.342 1_554 S
C730 C734 1.401 . S
C730 C735 1.499 . S
N731 Co714 1.989 . S
N731 C730 1.342 1_556 S
N731 N732 1.388 . S
N732 Co715 1.993 . S
N732 N731 1.388 . S
N732 C733 1.346 . S
C733 N732 1.346 . S
C733 C734 1.396 1_556 S
C733 C743 1.510 . S
C734 C730 1.401 . S
C734 C733 1.396 1_554 S
C735 C730 1.499 . S
C735 H736 0.959 . S
C735 H737 0.960 . S
C735 H738 0.961 . S
H736 C735 0.959 . S
H737 C735 0.960 . S
H738 C735 0.961 . S
O739 Co714 1.967 . S
O739 C747 1.258 . S
O740 Co715 1.941 . S
O740 C747 1.266 . S
H741 C743 0.959 . S
H742 C743 0.961 . S
C743 C733 1.510 . S
C743 H741 0.959 . S
C743 H742 0.961 . S
C743 H744 0.960 . S
H744 C743 0.960 . S
H745 N725 0.862 . S
O746 Co714 1.920 . S
O746 C719 1.289 1_545 S
C747 O739 1.258 . S
C747 O740 1.266 . S
Co748 O751 1.970 . S
Co748 N765 1.989 . S
Co748 O773 1.967 . S
Co748 O780 1.920 . S
Co749 O752 1.966 . S
Co749 N758 2.022 . S
Co749 N766 1.993 . S
Co749 O774 1.941 . S
C750 O751 1.258 . S
C750 O752 1.263 . S
O751 Co748 1.970 . S
O751 C750 1.258 . S
O752 Co749 1.966 . S
O752 C750 1.263 . S
C753 O754 1.235 . S
C753 O780 1.289 1_455 S
O754 C753 1.235 . S
C755 C757 1.400 . S
C755 N758 1.351 . S
C755 C760 1.501 . S
C756 C757 1.387 . S
C756 N759 1.341 . S
C757 C755 1.400 . S
C757 C756 1.387 . S
N758 Co749 2.022 . S
N758 C755 1.351 . S
N758 N759 1.365 . S
N759 C756 1.341 . S
N759 N758 1.365 . S
N759 H779 0.862 . S
C760 C755 1.501 . S
C760 H761 0.961 . S
C760 H762 0.961 . S
C760 H763 0.960 . S
H761 C760 0.961 . S
H762 C760 0.961 . S
H763 C760 0.960 . S
C764 N765 1.342 1_554 S
C764 C768 1.401 . S
C764 C769 1.499 . S
N765 Co748 1.989 . S
N765 C764 1.342 1_556 S
N765 N766 1.388 . S
N766 Co749 1.993 . S
N766 N765 1.388 . S
N766 C767 1.346 . S
C767 N766 1.346 . S
C767 C768 1.396 1_556 S
C767 C777 1.510 . S
C768 C764 1.401 . S
C768 C767 1.396 1_554 S
C769 C764 1.499 . S
C769 H770 0.959 . S
C769 H771 0.960 . S
C769 H772 0.961 . S
H770 C769 0.959 . S
H771 C769 0.960 . S
H772 C769 0.961 . S
O773 Co748 1.967 . S
O773 C781 1.258 . S
O774 Co749 1.941 . S
O774 C781 1.266 . S
H775 C777 0.959 . S
H776 C777 0.961 . S
C777 C767 1.510 . S
C777 H775 0.959 . S
C777 H776 0.961 . S
C777 H778 0.960 . S
H778 C777 0.960 . S
H779 N759 0.862 . S
O780 Co748 1.920 . S
O780 C753 1.289 1_655 S
C781 O773 1.258 . S
C781 O774 1.266 . S
Co782 O785 1.970 . S
Co782 N799 1.989 . S
Co782 O807 1.967 . S
Co782 O814 1.920 . S
Co783 O786 1.966 . S
Co783 N792 2.022 . S
Co783 N800 1.993 . S
Co783 O808 1.941 . S
C784 O785 1.258 . S
C784 O786 1.263 . S
O785 Co782 1.970 . S
O785 C784 1.258 . S
O786 Co783 1.966 . S
O786 C784 1.263 . S
C787 O788 1.235 . S
C787 O814 1.289 . S
O788 C787 1.235 . S
C789 C791 1.400 . S
C789 N792 1.351 . S
C789 C794 1.501 . S
C790 C791 1.387 . S
C790 N793 1.341 . S
C791 C789 1.400 . S
C791 C790 1.387 . S
N792 Co783 2.022 . S
N792 C789 1.351 . S
N792 N793 1.365 . S
N793 C790 1.341 . S
N793 N792 1.365 . S
N793 H813 0.862 . S
C794 C789 1.501 . S
C794 H795 0.961 . S
C794 H796 0.961 . S
C794 H797 0.960 . S
H795 C794 0.961 . S
H796 C794 0.961 . S
H797 C794 0.960 . S
C798 N799 1.342 1_554 S
C798 C802 1.401 . S
C798 C803 1.499 . S
N799 Co782 1.989 . S
N799 C798 1.342 1_556 S
N799 N800 1.388 . S
N800 Co783 1.993 . S
N800 N799 1.388 . S
N800 C801 1.346 . S
C801 N800 1.346 . S
C801 C802 1.396 1_556 S
C801 C811 1.510 . S
C802 C798 1.401 . S
C802 C801 1.396 1_554 S
C803 C798 1.499 . S
C803 H804 0.959 . S
C803 H805 0.960 . S
C803 H806 0.961 . S
H804 C803 0.959 . S
H805 C803 0.960 . S
H806 C803 0.961 . S
O807 Co782 1.967 . S
O807 C815 1.258 . S
O808 Co783 1.941 . S
O808 C815 1.266 . S
H809 C811 0.959 . S
H810 C811 0.961 . S
C811 C801 1.510 . S
C811 H809 0.959 . S
C811 H810 0.961 . S
C811 H812 0.960 . S
H812 C811 0.960 . S
H813 N793 0.862 . S
O814 Co782 1.920 . S
O814 C787 1.289 . S
C815 O807 1.258 . S
C815 O808 1.266 . S
Co816 O819 1.970 . S
Co816 N833 1.989 . S
Co816 O841 1.967 . S
Co816 O848 1.920 . S
Co817 O820 1.966 . S
Co817 N826 2.022 . S
Co817 N834 1.993 . S
Co817 O842 1.941 . S
C818 O819 1.258 . S
C818 O820 1.263 . S
O819 Co816 1.970 . S
O819 C818 1.258 . S
O820 Co817 1.966 . S
O820 C818 1.263 . S
C821 O822 1.235 . S
C821 O848 1.289 . S
O822 C821 1.235 . S
C823 C825 1.400 . S
C823 N826 1.351 . S
C823 C828 1.501 . S
C824 C825 1.387 . S
C824 N827 1.341 . S
C825 C823 1.400 . S
C825 C824 1.387 . S
N826 Co817 2.022 . S
N826 C823 1.351 . S
N826 N827 1.365 . S
N827 C824 1.341 . S
N827 N826 1.365 . S
N827 H847 0.862 . S
C828 C823 1.501 . S
C828 H829 0.961 . S
C828 H830 0.961 . S
C828 H831 0.960 . S
H829 C828 0.961 . S
H830 C828 0.961 . S
H831 C828 0.960 . S
C832 N833 1.342 . S
C832 C836 1.401 . S
C832 C837 1.499 . S
N833 Co816 1.989 . S
N833 C832 1.342 . S
N833 N834 1.388 . S
N834 Co817 1.993 . S
N834 N833 1.388 . S
N834 C835 1.346 . S
C835 N834 1.346 . S
C835 C836 1.396 . S
C835 C845 1.510 . S
C836 C832 1.401 . S
C836 C835 1.396 . S
C837 C832 1.499 . S
C837 H838 0.959 . S
C837 H839 0.960 . S
C837 H840 0.961 . S
H838 C837 0.959 . S
H839 C837 0.960 . S
H840 C837 0.961 . S
O841 Co816 1.967 . S
O841 C849 1.258 . S
O842 Co817 1.941 . S
O842 C849 1.266 . S
H843 C845 0.959 . S
H844 C845 0.961 . S
C845 C835 1.510 . S
C845 H843 0.959 . S
C845 H844 0.961 . S
C845 H846 0.960 . S
H846 C845 0.960 . S
H847 N827 0.862 . S
O848 Co816 1.920 . S
O848 C821 1.289 . S
C849 O841 1.258 . S
C849 O842 1.266 . S
Co850 O853 1.970 . S
Co850 N867 1.989 . S
Co850 O875 1.967 . S
Co850 O882 1.920 . S
Co851 O854 1.966 . S
Co851 N860 2.022 . S
Co851 N868 1.993 . S
Co851 O876 1.941 . S
C852 O853 1.258 . S
C852 O854 1.263 . S
O853 Co850 1.970 . S
O853 C852 1.258 . S
O854 Co851 1.966 . S
O854 C852 1.263 . S
C855 O856 1.235 . S
C855 O882 1.289 . S
O856 C855 1.235 . S
C857 C859 1.400 . S
C857 N860 1.351 . S
C857 C862 1.501 . S
C858 C859 1.387 . S
C858 N861 1.341 . S
C859 C857 1.400 . S
C859 C858 1.387 . S
N860 Co851 2.022 . S
N860 C857 1.351 . S
N860 N861 1.365 . S
N861 C858 1.341 . S
N861 N860 1.365 . S
N861 H881 0.862 . S
C862 C857 1.501 . S
C862 H863 0.961 . S
C862 H864 0.961 . S
C862 H865 0.960 . S
H863 C862 0.961 . S
H864 C862 0.961 . S
H865 C862 0.960 . S
C866 N867 1.342 . S
C866 C870 1.401 . S
C866 C871 1.499 . S
N867 Co850 1.989 . S
N867 C866 1.342 . S
N867 N868 1.388 . S
N868 Co851 1.993 . S
N868 N867 1.388 . S
N868 C869 1.346 . S
C869 N868 1.346 . S
C869 C870 1.396 . S
C869 C879 1.510 . S
C870 C866 1.401 . S
C870 C869 1.396 . S
C871 C866 1.499 . S
C871 H872 0.959 . S
C871 H873 0.960 . S
C871 H874 0.961 . S
H872 C871 0.959 . S
H873 C871 0.960 . S
H874 C871 0.961 . S
O875 Co850 1.967 . S
O875 C883 1.258 . S
O876 Co851 1.941 . S
O876 C883 1.266 . S
H877 C879 0.959 . S
H878 C879 0.961 . S
C879 C869 1.510 . S
C879 H877 0.959 . S
C879 H878 0.961 . S
C879 H880 0.960 . S
H880 C879 0.960 . S
H881 N861 0.862 . S
O882 Co850 1.920 . S
O882 C855 1.289 . S
C883 O875 1.258 . S
C883 O876 1.266 . S
Co884 O887 1.970 . S
Co884 N901 1.989 . S
Co884 O909 1.967 . S
Co884 O916 1.920 . S
Co885 O888 1.966 . S
Co885 N894 2.022 . S
Co885 N902 1.993 . S
Co885 O910 1.941 . S
C886 O887 1.258 . S
C886 O888 1.263 . S
O887 Co884 1.970 . S
O887 C886 1.258 . S
O888 Co885 1.966 . S
O888 C886 1.263 . S
C889 O890 1.235 . S
C889 O916 1.289 . S
O890 C889 1.235 . S
C891 C893 1.400 . S
C891 N894 1.351 . S
C891 C896 1.501 . S
C892 C893 1.387 . S
C892 N895 1.341 . S
C893 C891 1.400 . S
C893 C892 1.387 . S
N894 Co885 2.022 . S
N894 C891 1.351 . S
N894 N895 1.365 . S
N895 C892 1.341 . S
N895 N894 1.365 . S
N895 H915 0.862 . S
C896 C891 1.501 . S
C896 H897 0.961 . S
C896 H898 0.961 . S
C896 H899 0.960 . S
H897 C896 0.961 . S
H898 C896 0.961 . S
H899 C896 0.960 . S
C900 N901 1.342 . S
C900 C904 1.401 . S
C900 C905 1.499 . S
N901 Co884 1.989 . S
N901 C900 1.342 . S
N901 N902 1.388 . S
N902 Co885 1.993 . S
N902 N901 1.388 . S
N902 C903 1.346 . S
C903 N902 1.346 . S
C903 C904 1.396 . S
C903 C913 1.510 . S
C904 C900 1.401 . S
C904 C903 1.396 . S
C905 C900 1.499 . S
C905 H906 0.959 . S
C905 H907 0.960 . S
C905 H908 0.961 . S
H906 C905 0.959 . S
H907 C905 0.960 . S
H908 C905 0.961 . S
O909 Co884 1.967 . S
O909 C917 1.258 . S
O910 Co885 1.941 . S
O910 C917 1.266 . S
H911 C913 0.959 . S
H912 C913 0.961 . S
C913 C903 1.510 . S
C913 H911 0.959 . S
C913 H912 0.961 . S
C913 H914 0.960 . S
H914 C913 0.960 . S
H915 N895 0.862 . S
O916 Co884 1.920 . S
O916 C889 1.289 . S
C917 O909 1.258 . S
C917 O910 1.266 . S
Co918 O921 1.970 . S
Co918 N935 1.989 . S
Co918 O943 1.967 . S
Co918 O950 1.920 . S
Co919 O922 1.966 . S
Co919 N928 2.022 . S
Co919 N936 1.993 . S
Co919 O944 1.941 . S
C920 O921 1.258 . S
C920 O922 1.263 . S
O921 Co918 1.970 . S
O921 C920 1.258 . S
O922 Co919 1.966 . S
O922 C920 1.263 . S
C923 O924 1.235 . S
C923 O950 1.289 1_545 S
O924 C923 1.235 . S
C925 C927 1.400 . S
C925 N928 1.351 . S
C925 C930 1.501 . S
C926 C927 1.387 . S
C926 N929 1.341 . S
C927 C925 1.400 . S
C927 C926 1.387 . S
N928 Co919 2.022 . S
N928 C925 1.351 . S
N928 N929 1.365 . S
N929 C926 1.341 . S
N929 N928 1.365 . S
N929 H949 0.862 . S
C930 C925 1.501 . S
C930 H931 0.961 . S
C930 H932 0.961 . S
C930 H933 0.960 . S
H931 C930 0.961 . S
H932 C930 0.961 . S
H933 C930 0.960 . S
C934 N935 1.342 1_556 S
C934 C938 1.401 . S
C934 C939 1.499 . S
N935 Co918 1.989 . S
N935 C934 1.342 1_554 S
N935 N936 1.388 . S
N936 Co919 1.993 . S
N936 N935 1.388 . S
N936 C937 1.346 . S
C937 N936 1.346 . S
C937 C938 1.396 1_554 S
C937 C947 1.510 . S
C938 C934 1.401 . S
C938 C937 1.396 1_556 S
C939 C934 1.499 . S
C939 H940 0.959 . S
C939 H941 0.960 . S
C939 H942 0.961 . S
H940 C939 0.959 . S
H941 C939 0.960 . S
H942 C939 0.961 . S
O943 Co918 1.967 . S
O943 C951 1.258 . S
O944 Co919 1.941 . S
O944 C951 1.266 . S
H945 C947 0.959 . S
H946 C947 0.961 . S
C947 C937 1.510 . S
C947 H945 0.959 . S
C947 H946 0.961 . S
C947 H948 0.960 . S
H948 C947 0.960 . S
H949 N929 0.862 . S
O950 Co918 1.920 . S
O950 C923 1.289 1_565 S
C951 O943 1.258 . S
C951 O944 1.266 . S
Co952 O955 1.970 . S
Co952 N969 1.989 . S
Co952 O977 1.967 . S
Co952 O984 1.920 . S
Co953 O956 1.966 . S
Co953 N962 2.022 . S
Co953 N970 1.993 . S
Co953 O978 1.941 . S
C954 O955 1.258 . S
C954 O956 1.263 . S
O955 Co952 1.970 . S
O955 C954 1.258 . S
O956 Co953 1.966 . S
O956 C954 1.263 . S
C957 O958 1.235 . S
C957 O984 1.289 1_655 S
O958 C957 1.235 . S
C959 C961 1.400 . S
C959 N962 1.351 . S
C959 C964 1.501 . S
C960 C961 1.387 . S
C960 N963 1.341 . S
C961 C959 1.400 . S
C961 C960 1.387 . S
N962 Co953 2.022 . S
N962 C959 1.351 . S
N962 N963 1.365 . S
N963 C960 1.341 . S
N963 N962 1.365 . S
N963 H983 0.862 . S
C964 C959 1.501 . S
C964 H965 0.961 . S
C964 H966 0.961 . S
C964 H967 0.960 . S
H965 C964 0.961 . S
H966 C964 0.961 . S
H967 C964 0.960 . S
C968 N969 1.342 1_556 S
C968 C972 1.401 . S
C968 C973 1.499 . S
N969 Co952 1.989 . S
N969 C968 1.342 1_554 S
N969 N970 1.388 . S
N970 Co953 1.993 . S
N970 N969 1.388 . S
N970 C971 1.346 . S
C971 N970 1.346 . S
C971 C972 1.396 1_554 S
C971 C981 1.510 . S
C972 C968 1.401 . S
C972 C971 1.396 1_556 S
C973 C968 1.499 . S
C973 H974 0.959 . S
C973 H975 0.960 . S
C973 H976 0.961 . S
H974 C973 0.959 . S
H975 C973 0.960 . S
H976 C973 0.961 . S
O977 Co952 1.967 . S
O977 C985 1.258 . S
O978 Co953 1.941 . S
O978 C985 1.266 . S
H979 C981 0.959 . S
H980 C981 0.961 . S
C981 C971 1.510 . S
C981 H979 0.959 . S
C981 H980 0.961 . S
C981 H982 0.960 . S
H982 C981 0.960 . S
H983 N963 0.862 . S
O984 Co952 1.920 . S
O984 C957 1.289 1_455 S
C985 O977 1.258 . S
C985 O978 1.266 . S
Co986 O989 1.970 . S
Co986 N1003 1.989 . S
Co986 O1011 1.967 . S
Co986 O1018 1.920 . S
Co987 O990 1.966 . S
Co987 N996 2.022 . S
Co987 N1004 1.993 . S
Co987 O1012 1.941 . S
C988 O989 1.258 . S
C988 O990 1.263 . S
O989 Co986 1.970 . S
O989 C988 1.258 . S
O990 Co987 1.966 . S
O990 C988 1.263 . S
C991 O992 1.235 . S
C991 O1018 1.289 . S
O992 C991 1.235 . S
C993 C995 1.400 . S
C993 N996 1.351 . S
C993 C998 1.501 . S
C994 C995 1.387 . S
C994 N997 1.341 . S
C995 C993 1.400 . S
C995 C994 1.387 . S
N996 Co987 2.022 . S
N996 C993 1.351 . S
N996 N997 1.365 . S
N997 C994 1.341 . S
N997 N996 1.365 . S
N997 H1017 0.862 . S
C998 C993 1.501 . S
C998 H999 0.961 . S
C998 H1000 0.961 . S
C998 H1001 0.960 . S
H999 C998 0.961 . S
H1000 C998 0.961 . S
H1001 C998 0.960 . S
C1002 N1003 1.342 1_556 S
C1002 C1006 1.401 . S
C1002 C1007 1.499 . S
N1003 Co986 1.989 . S
N1003 C1002 1.342 1_554 S
N1003 N1004 1.388 . S
N1004 Co987 1.993 . S
N1004 N1003 1.388 . S
N1004 C1005 1.346 . S
C1005 N1004 1.346 . S
C1005 C1006 1.396 1_554 S
C1005 C1015 1.510 . S
C1006 C1002 1.401 . S
C1006 C1005 1.396 1_556 S
C1007 C1002 1.499 . S
C1007 H1008 0.959 . S
C1007 H1009 0.960 . S
C1007 H1010 0.961 . S
H1008 C1007 0.959 . S
H1009 C1007 0.960 . S
H1010 C1007 0.961 . S
O1011 Co986 1.967 . S
O1011 C1019 1.258 . S
O1012 Co987 1.941 . S
O1012 C1019 1.266 . S
H1013 C1015 0.959 . S
H1014 C1015 0.961 . S
C1015 C1005 1.510 . S
C1015 H1013 0.959 . S
C1015 H1014 0.961 . S
C1015 H1016 0.960 . S
H1016 C1015 0.960 . S
H1017 N997 0.862 . S
O1018 Co986 1.920 . S
O1018 C991 1.289 . S
C1019 O1011 1.258 . S
C1019 O1012 1.266 . S
Co1020 O1023 1.970 . S
Co1020 N1037 1.989 . S
Co1020 O1045 1.967 . S
Co1020 O1052 1.920 . S
Co1021 O1024 1.966 . S
Co1021 N1030 2.022 . S
Co1021 N1038 1.993 . S
Co1021 O1046 1.941 . S
C1022 O1023 1.258 . S
C1022 O1024 1.263 . S
O1023 Co1020 1.970 . S
O1023 C1022 1.258 . S
O1024 Co1021 1.966 . S
O1024 C1022 1.263 . S
C1025 O1026 1.235 . S
C1025 O1052 1.289 1_655 S
O1026 C1025 1.235 . S
C1027 C1029 1.400 . S
C1027 N1030 1.351 . S
C1027 C1032 1.501 . S
C1028 C1029 1.387 . S
C1028 N1031 1.341 . S
C1029 C1027 1.400 . S
C1029 C1028 1.387 . S
N1030 Co1021 2.022 . S
N1030 C1027 1.351 . S
N1030 N1031 1.365 . S
N1031 C1028 1.341 . S
N1031 N1030 1.365 . S
N1031 H1051 0.862 . S
C1032 C1027 1.501 . S
C1032 H1033 0.961 . S
C1032 H1034 0.961 . S
C1032 H1035 0.960 . S
H1033 C1032 0.961 . S
H1034 C1032 0.961 . S
H1035 C1032 0.960 . S
C1036 N1037 1.342 . S
C1036 C1040 1.401 . S
C1036 C1041 1.499 . S
N1037 Co1020 1.989 . S
N1037 C1036 1.342 . S
N1037 N1038 1.388 . S
N1038 Co1021 1.993 . S
N1038 N1037 1.388 . S
N1038 C1039 1.346 . S
C1039 N1038 1.346 . S
C1039 C1040 1.396 . S
C1039 C1049 1.510 . S
C1040 C1036 1.401 . S
C1040 C1039 1.396 . S
C1041 C1036 1.499 . S
C1041 H1042 0.959 . S
C1041 H1043 0.960 . S
C1041 H1044 0.961 . S
H1042 C1041 0.959 . S
H1043 C1041 0.960 . S
H1044 C1041 0.961 . S
O1045 Co1020 1.967 . S
O1045 C1053 1.258 . S
O1046 Co1021 1.941 . S
O1046 C1053 1.266 . S
H1047 C1049 0.959 . S
H1048 C1049 0.961 . S
C1049 C1039 1.510 . S
C1049 H1047 0.959 . S
C1049 H1048 0.961 . S
C1049 H1050 0.960 . S
H1050 C1049 0.960 . S
H1051 N1031 0.862 . S
O1052 Co1020 1.920 . S
O1052 C1025 1.289 1_455 S
C1053 O1045 1.258 . S
C1053 O1046 1.266 . S
Co1054 O1057 1.970 . S
Co1054 N1071 1.989 . S
Co1054 O1079 1.967 . S
Co1054 O1086 1.920 . S
Co1055 O1058 1.966 . S
Co1055 N1064 2.022 . S
Co1055 N1072 1.993 . S
Co1055 O1080 1.941 . S
C1056 O1057 1.258 . S
C1056 O1058 1.263 . S
O1057 Co1054 1.970 . S
O1057 C1056 1.258 . S
O1058 Co1055 1.966 . S
O1058 C1056 1.263 . S
C1059 O1060 1.235 . S
C1059 O1086 1.289 . S
O1060 C1059 1.235 . S
C1061 C1063 1.400 . S
C1061 N1064 1.351 . S
C1061 C1066 1.501 . S
C1062 C1063 1.387 . S
C1062 N1065 1.341 . S
C1063 C1061 1.400 . S
C1063 C1062 1.387 . S
N1064 Co1055 2.022 . S
N1064 C1061 1.351 . S
N1064 N1065 1.365 . S
N1065 C1062 1.341 . S
N1065 N1064 1.365 . S
N1065 H1085 0.862 . S
C1066 C1061 1.501 . S
C1066 H1067 0.961 . S
C1066 H1068 0.961 . S
C1066 H1069 0.960 . S
H1067 C1066 0.961 . S
H1068 C1066 0.961 . S
H1069 C1066 0.960 . S
C1070 N1071 1.342 . S
C1070 C1074 1.401 . S
C1070 C1075 1.499 . S
N1071 Co1054 1.989 . S
N1071 C1070 1.342 . S
N1071 N1072 1.388 . S
N1072 Co1055 1.993 . S
N1072 N1071 1.388 . S
N1072 C1073 1.346 . S
C1073 N1072 1.346 . S
C1073 C1074 1.396 . S
C1073 C1083 1.510 . S
C1074 C1070 1.401 . S
C1074 C1073 1.396 . S
C1075 C1070 1.499 . S
C1075 H1076 0.959 . S
C1075 H1077 0.960 . S
C1075 H1078 0.961 . S
H1076 C1075 0.959 . S
H1077 C1075 0.960 . S
H1078 C1075 0.961 . S
O1079 Co1054 1.967 . S
O1079 C1087 1.258 . S
O1080 Co1055 1.941 . S
O1080 C1087 1.266 . S
H1081 C1083 0.959 . S
H1082 C1083 0.961 . S
C1083 C1073 1.510 . S
C1083 H1081 0.959 . S
C1083 H1082 0.961 . S
C1083 H1084 0.960 . S
H1084 C1083 0.960 . S
H1085 N1065 0.862 . S
O1086 Co1054 1.920 . S
O1086 C1059 1.289 . S
C1087 O1079 1.258 . S
C1087 O1080 1.266 . S
Co1088 O1091 1.970 . S
Co1088 N1105 1.989 . S
Co1088 O1113 1.967 . S
Co1088 O1120 1.920 . S
Co1089 O1092 1.966 . S
Co1089 N1098 2.022 . S
Co1089 N1106 1.993 . S
Co1089 O1114 1.941 . S
C1090 O1091 1.258 . S
C1090 O1092 1.263 . S
O1091 Co1088 1.970 . S
O1091 C1090 1.258 . S
O1092 Co1089 1.966 . S
O1092 C1090 1.263 . S
C1093 O1094 1.235 . S
C1093 O1120 1.289 1_545 S
O1094 C1093 1.235 . S
C1095 C1097 1.400 . S
C1095 N1098 1.351 . S
C1095 C1100 1.501 . S
C1096 C1097 1.387 . S
C1096 N1099 1.341 . S
C1097 C1095 1.400 . S
C1097 C1096 1.387 . S
N1098 Co1089 2.022 . S
N1098 C1095 1.351 . S
N1098 N1099 1.365 . S
N1099 C1096 1.341 . S
N1099 N1098 1.365 . S
N1099 H1119 0.862 . S
C1100 C1095 1.501 . S
C1100 H1101 0.961 . S
C1100 H1102 0.961 . S
C1100 H1103 0.960 . S
H1101 C1100 0.961 . S
H1102 C1100 0.961 . S
H1103 C1100 0.960 . S
C1104 N1105 1.342 . S
C1104 C1108 1.401 . S
C1104 C1109 1.499 . S
N1105 Co1088 1.989 . S
N1105 C1104 1.342 . S
N1105 N1106 1.388 . S
N1106 Co1089 1.993 . S
N1106 N1105 1.388 . S
N1106 C1107 1.346 . S
C1107 N1106 1.346 . S
C1107 C1108 1.396 . S
C1107 C1117 1.510 . S
C1108 C1104 1.401 . S
C1108 C1107 1.396 . S
C1109 C1104 1.499 . S
C1109 H1110 0.959 . S
C1109 H1111 0.960 . S
C1109 H1112 0.961 . S
H1110 C1109 0.959 . S
H1111 C1109 0.960 . S
H1112 C1109 0.961 . S
O1113 Co1088 1.967 . S
O1113 C1121 1.258 . S
O1114 Co1089 1.941 . S
O1114 C1121 1.266 . S
H1115 C1117 0.959 . S
H1116 C1117 0.961 . S
C1117 C1107 1.510 . S
C1117 H1115 0.959 . S
C1117 H1116 0.961 . S
C1117 H1118 0.960 . S
H1118 C1117 0.960 . S
H1119 N1099 0.862 . S
O1120 Co1088 1.920 . S
O1120 C1093 1.289 1_565 S
C1121 O1113 1.258 . S
C1121 O1114 1.266 . S
Co1122 O1125 1.970 . S
Co1122 N1139 1.989 . S
Co1122 O1147 1.967 . S
Co1122 O1154 1.920 . S
Co1123 O1126 1.966 . S
Co1123 N1132 2.022 . S
Co1123 N1140 1.993 . S
Co1123 O1148 1.941 . S
C1124 O1125 1.258 . S
C1124 O1126 1.263 . S
O1125 Co1122 1.970 . S
O1125 C1124 1.258 . S
O1126 Co1123 1.966 . S
O1126 C1124 1.263 . S
C1127 O1128 1.235 . S
C1127 O1154 1.289 . S
O1128 C1127 1.235 . S
C1129 C1131 1.400 . S
C1129 N1132 1.351 . S
C1129 C1134 1.501 . S
C1130 C1131 1.387 . S
C1130 N1133 1.341 . S
C1131 C1129 1.400 . S
C1131 C1130 1.387 . S
N1132 Co1123 2.022 . S
N1132 C1129 1.351 . S
N1132 N1133 1.365 . S
N1133 C1130 1.341 . S
N1133 N1132 1.365 . S
N1133 H1153 0.862 . S
C1134 C1129 1.501 . S
C1134 H1135 0.961 . S
C1134 H1136 0.961 . S
C1134 H1137 0.960 . S
H1135 C1134 0.961 . S
H1136 C1134 0.961 . S
H1137 C1134 0.960 . S
C1138 N1139 1.342 . S
C1138 C1142 1.401 . S
C1138 C1143 1.499 . S
N1139 Co1122 1.989 . S
N1139 C1138 1.342 . S
N1139 N1140 1.388 . S
N1140 Co1123 1.993 . S
N1140 N1139 1.388 . S
N1140 C1141 1.346 . S
C1141 N1140 1.346 . S
C1141 C1142 1.396 . S
C1141 C1151 1.510 . S
C1142 C1138 1.401 . S
C1142 C1141 1.396 . S
C1143 C1138 1.499 . S
C1143 H1144 0.959 . S
C1143 H1145 0.960 . S
C1143 H1146 0.961 . S
H1144 C1143 0.959 . S
H1145 C1143 0.960 . S
H1146 C1143 0.961 . S
O1147 Co1122 1.967 . S
O1147 C1155 1.258 . S
O1148 Co1123 1.941 . S
O1148 C1155 1.266 . S
H1149 C1151 0.959 . S
H1150 C1151 0.961 . S
C1151 C1141 1.510 . S
C1151 H1149 0.959 . S
C1151 H1150 0.961 . S
C1151 H1152 0.960 . S
H1152 C1151 0.960 . S
H1153 N1133 0.862 . S
O1154 Co1122 1.920 . S
O1154 C1127 1.289 . S
C1155 O1147 1.258 . S
C1155 O1148 1.266 . S
Co1156 O1159 1.970 . S
Co1156 N1173 1.989 . S
Co1156 O1181 1.967 . S
Co1156 O1188 1.920 . S
Co1157 O1160 1.966 . S
Co1157 N1166 2.022 . S
Co1157 N1174 1.993 . S
Co1157 O1182 1.941 . S
C1158 O1159 1.258 . S
C1158 O1160 1.263 . S
O1159 Co1156 1.970 . S
O1159 C1158 1.258 . S
O1160 Co1157 1.966 . S
O1160 C1158 1.263 . S
C1161 O1162 1.235 . S
C1161 O1188 1.289 . S
O1162 C1161 1.235 . S
C1163 C1165 1.400 . S
C1163 N1166 1.351 . S
C1163 C1168 1.501 . S
C1164 C1165 1.387 . S
C1164 N1167 1.341 . S
C1165 C1163 1.400 . S
C1165 C1164 1.387 . S
N1166 Co1157 2.022 . S
N1166 C1163 1.351 . S
N1166 N1167 1.365 . S
N1167 C1164 1.341 . S
N1167 N1166 1.365 . S
N1167 H1187 0.862 . S
C1168 C1163 1.501 . S
C1168 H1169 0.961 . S
C1168 H1170 0.961 . S
C1168 H1171 0.960 . S
H1169 C1168 0.961 . S
H1170 C1168 0.961 . S
H1171 C1168 0.960 . S
C1172 N1173 1.342 . S
C1172 C1176 1.401 . S
C1172 C1177 1.499 . S
N1173 Co1156 1.989 . S
N1173 C1172 1.342 . S
N1173 N1174 1.388 . S
N1174 Co1157 1.993 . S
N1174 N1173 1.388 . S
N1174 C1175 1.346 . S
C1175 N1174 1.346 . S
C1175 C1176 1.396 . S
C1175 C1185 1.510 . S
C1176 C1172 1.401 . S
C1176 C1175 1.396 . S
C1177 C1172 1.499 . S
C1177 H1178 0.959 . S
C1177 H1179 0.960 . S
C1177 H1180 0.961 . S
H1178 C1177 0.959 . S
H1179 C1177 0.960 . S
H1180 C1177 0.961 . S
O1181 Co1156 1.967 . S
O1181 C1189 1.258 . S
O1182 Co1157 1.941 . S
O1182 C1189 1.266 . S
H1183 C1185 0.959 . S
H1184 C1185 0.961 . S
C1185 C1175 1.510 . S
C1185 H1183 0.959 . S
C1185 H1184 0.961 . S
C1185 H1186 0.960 . S
H1186 C1185 0.960 . S
H1187 N1167 0.862 . S
O1188 Co1156 1.920 . S
O1188 C1161 1.289 . S
C1189 O1181 1.258 . S
C1189 O1182 1.266 . S
Co1190 O1193 1.970 . S
Co1190 N1207 1.989 . S
Co1190 O1215 1.967 . S
Co1190 O1222 1.920 . S
Co1191 O1194 1.966 . S
Co1191 N1200 2.022 . S
Co1191 N1208 1.993 . S
Co1191 O1216 1.941 . S
C1192 O1193 1.258 . S
C1192 O1194 1.263 . S
O1193 Co1190 1.970 . S
O1193 C1192 1.258 . S
O1194 Co1191 1.966 . S
O1194 C1192 1.263 . S
C1195 O1196 1.235 . S
C1195 O1222 1.289 . S
O1196 C1195 1.235 . S
C1197 C1199 1.400 . S
C1197 N1200 1.351 . S
C1197 C1202 1.501 . S
C1198 C1199 1.387 . S
C1198 N1201 1.341 . S
C1199 C1197 1.400 . S
C1199 C1198 1.387 . S
N1200 Co1191 2.022 . S
N1200 C1197 1.351 . S
N1200 N1201 1.365 . S
N1201 C1198 1.341 . S
N1201 N1200 1.365 . S
N1201 H1221 0.862 . S
C1202 C1197 1.501 . S
C1202 H1203 0.961 . S
C1202 H1204 0.961 . S
C1202 H1205 0.960 . S
H1203 C1202 0.961 . S
H1204 C1202 0.961 . S
H1205 C1202 0.960 . S
C1206 N1207 1.342 . S
C1206 C1210 1.401 . S
C1206 C1211 1.499 . S
N1207 Co1190 1.989 . S
N1207 C1206 1.342 . S
N1207 N1208 1.388 . S
N1208 Co1191 1.993 . S
N1208 N1207 1.388 . S
N1208 C1209 1.346 . S
C1209 N1208 1.346 . S
C1209 C1210 1.396 . S
C1209 C1219 1.510 . S
C1210 C1206 1.401 . S
C1210 C1209 1.396 . S
C1211 C1206 1.499 . S
C1211 H1212 0.959 . S
C1211 H1213 0.960 . S
C1211 H1214 0.961 . S
H1212 C1211 0.959 . S
H1213 C1211 0.960 . S
H1214 C1211 0.961 . S
O1215 Co1190 1.967 . S
O1215 C1223 1.258 . S
O1216 Co1191 1.941 . S
O1216 C1223 1.266 . S
H1217 C1219 0.959 . S
H1218 C1219 0.961 . S
C1219 C1209 1.510 . S
C1219 H1217 0.959 . S
C1219 H1218 0.961 . S
C1219 H1220 0.960 . S
H1220 C1219 0.960 . S
H1221 N1201 0.862 . S
O1222 Co1190 1.920 . S
O1222 C1195 1.289 . S
C1223 O1215 1.258 . S
C1223 O1216 1.266 . S
C617 C5 2.490 . S
C39 C651 2.489 . S
C685 C73 2.489 . S
C1127 C107 2.490 . S
C1161 C141 2.489 . S
C175 C1195 2.489 . S
C209 C821 2.490 . S
C855 C243 2.489 . S
C277 C889 2.489 . S
C515 C311 2.490 . S
C345 C549 2.489 . S
C583 C379 2.489 . S
C413 C1025 2.490 1_455 S
C447 C1059 2.490 . S
C1093 C481 2.489 1_545 S
C923 C719 2.490 1_544 S
C753 C957 2.489 1_456 S
C991 C787 2.490 1_554 S
C33 C247 1.753 . S
C67 C281 1.752 . S
C101 C213 1.753 . S
C383 C135 1.753 . S
C169 C315 1.752 . S
C203 C349 1.752 . S
C237 C43 1.753 . S
C271 C77 1.752 . S
C9 C305 1.753 . S
C339 C179 1.753 . S
C373 C111 1.752 . S
C407 C145 1.752 . S
C655 C441 1.753 . S
C475 C689 1.753 . S
C509 C621 1.753 . S
C543 C791 1.753 . S
C577 C723 1.753 . S
C757 C611 1.752 . S
C451 C645 1.753 . S
C679 C485 1.752 . S
C417 C713 1.753 . S
C747 C587 1.753 . S
C519 C781 1.753 . S
C553 C815 1.753 . S
C1063 C849 1.753 . S
C1097 C883 1.752 . S
C917 C1029 1.753 . S
C1199 C951 1.753 . S
C1131 C985 1.753 . S
C1019 C1165 1.753 . S
C859 C1053 1.753 . S
C1087 C893 1.753 . S
C1121 C825 1.753 . S
C1155 C995 1.753 . S
C927 C1189 1.753 . S
C961 C1223 1.752 . S
C20 C122 1.643 . S
C54 C156 1.644 1_545 S
C190 C88 1.644 1_455 S
C224 C326 1.643 . S
C360 C258 1.644 1_545 S
C292 C394 1.644 1_455 S
C428 C530 1.643 . S
C462 C564 1.644 . S
C598 C496 1.644 . S
C632 C734 1.643 . S
C666 C768 1.644 . S
C802 C700 1.644 . S
C938 C836 1.643 . S
C972 C870 1.644 . S
C904 C1006 1.644 . S
C1040 C1142 1.643 . S
C1176 C1074 1.644 . S
C1210 C1108 1.644 . S
C2 C546 2.990 . S
C36 C580 2.991 . S
C512 C70 2.991 . S
C104 C886 2.990 . S
C818 C138 2.991 . S
C172 C852 2.991 . S
C206 C1158 2.990 . S
C1192 C240 2.991 . S
C274 C1124 2.991 . S
C682 C308 2.990 . S
C614 C342 2.991 . S
C648 C376 2.991 . S
C954 C410 2.991 1_455 S
C988 C444 2.991 . S
C920 C478 2.991 1_565 S
C1090 C716 2.991 1_565 S
C1022 C750 2.991 1_455 S
C1056 C784 2.991 . S
