# Generated by pormake.
# Topology fnk, (5)-cn, num edge types: 1
# Building blocks:
#     Node 0, Type 0, BuildingBlock: BEQFEK_clean_sbu_0, # of connection points: 5
#     Node 1, Type 0, BuildingBlock: BEQFEK_clean_sbu_0, # of connection points: 5
#     Node 2, Type 0, BuildingBlock: BEQFEK_clean_sbu_0, # of connection points: 5
#     Node 3, Type 0, BuildingBlock: BEQFEK_clean_sbu_0, # of connection points: 5
#     Node 4, Type 0, BuildingBlock: BEQFEK_clean_sbu_0, # of connection points: 5
#     Node 5, Type 0, BuildingBlock: BEQFEK_clean_sbu_0, # of connection points: 5
#     Node 6, Type 0, BuildingBlock: BEQFEK_clean_sbu_0, # of connection points: 5
#     Node 7, Type 0, BuildingBlock: BEQFEK_clean_sbu_0, # of connection points: 5
#     Node 8, Type 0, BuildingBlock: BEQFEK_clean_sbu_0, # of connection points: 5
#     Node 9, Type 0, BuildingBlock: BEQFEK_clean_sbu_0, # of connection points: 5
#     Node 10, Type 0, BuildingBlock: BEQFEK_clean_sbu_0, # of connection points: 5
#     Node 11, Type 0, BuildingBlock: BEQFEK_clean_sbu_0, # of connection points: 5
#     Node 12, Type 0, BuildingBlock: BEQFEK_clean_sbu_0, # of connection points: 5
#     Node 13, Type 0, BuildingBlock: BEQFEK_clean_sbu_0, # of connection points: 5
#     Node 14, Type 0, BuildingBlock: BEQFEK_clean_sbu_0, # of connection points: 5
#     Node 15, Type 0, BuildingBlock: BEQFEK_clean_sbu_0, # of connection points: 5
#     Edge 16, Type (0, 0), BuildingBlock: OJICUG_clean_linker_0, # of connection points: 2
#     Edge 17, Type (0, 0), BuildingBlock: OJICUG_clean_linker_0, # of connection points: 2
#     Edge 18, Type (0, 0), BuildingBlock: OJICUG_clean_linker_0, # of connection points: 2
#     Edge 19, Type (0, 0), BuildingBlock: OJICUG_clean_linker_0, # of connection points: 2
#     Edge 20, Type (0, 0), BuildingBlock: OJICUG_clean_linker_0, # of connection points: 2
#     Edge 21, Type (0, 0), BuildingBlock: OJICUG_clean_linker_0, # of connection points: 2
#     Edge 22, Type (0, 0), BuildingBlock: OJICUG_clean_linker_0, # of connection points: 2
#     Edge 23, Type (0, 0), BuildingBlock: OJICUG_clean_linker_0, # of connection points: 2
#     Edge 24, Type (0, 0), BuildingBlock: OJICUG_clean_linker_0, # of connection points: 2
#     Edge 25, Type (0, 0), BuildingBlock: OJICUG_clean_linker_0, # of connection points: 2
#     Edge 26, Type (0, 0), BuildingBlock: OJICUG_clean_linker_0, # of connection points: 2
#     Edge 27, Type (0, 0), BuildingBlock: OJICUG_clean_linker_0, # of connection points: 2
#     Edge 28, Type (0, 0), BuildingBlock: OJICUG_clean_linker_0, # of connection points: 2
#     Edge 29, Type (0, 0), BuildingBlock: OJICUG_clean_linker_0, # of connection points: 2
#     Edge 30, Type (0, 0), BuildingBlock: OJICUG_clean_linker_0, # of connection points: 2
#     Edge 31, Type (0, 0), BuildingBlock: OJICUG_clean_linker_0, # of connection points: 2
#     Edge 32, Type (0, 0), BuildingBlock: OJICUG_clean_linker_0, # of connection points: 2
#     Edge 33, Type (0, 0), BuildingBlock: OJICUG_clean_linker_0, # of connection points: 2
#     Edge 34, Type (0, 0), BuildingBlock: OJICUG_clean_linker_0, # of connection points: 2
#     Edge 35, Type (0, 0), BuildingBlock: OJICUG_clean_linker_0, # of connection points: 2
#     Edge 36, Type (0, 0), BuildingBlock: OJICUG_clean_linker_0, # of connection points: 2
#     Edge 37, Type (0, 0), BuildingBlock: OJICUG_clean_linker_0, # of connection points: 2
#     Edge 38, Type (0, 0), BuildingBlock: OJICUG_clean_linker_0, # of connection points: 2
#     Edge 39, Type (0, 0), BuildingBlock: OJICUG_clean_linker_0, # of connection points: 2
#     Edge 40, Type (0, 0), BuildingBlock: OJICUG_clean_linker_0, # of connection points: 2
#     Edge 41, Type (0, 0), BuildingBlock: OJICUG_clean_linker_0, # of connection points: 2
#     Edge 42, Type (0, 0), BuildingBlock: OJICUG_clean_linker_0, # of connection points: 2
#     Edge 43, Type (0, 0), BuildingBlock: OJICUG_clean_linker_0, # of connection points: 2
#     Edge 44, Type (0, 0), BuildingBlock: OJICUG_clean_linker_0, # of connection points: 2
#     Edge 45, Type (0, 0), BuildingBlock: OJICUG_clean_linker_0, # of connection points: 2
#     Edge 46, Type (0, 0), BuildingBlock: OJICUG_clean_linker_0, # of connection points: 2
#     Edge 47, Type (0, 0), BuildingBlock: OJICUG_clean_linker_0, # of connection points: 2
#     Edge 48, Type (0, 0), BuildingBlock: OJICUG_clean_linker_0, # of connection points: 2
#     Edge 49, Type (0, 0), BuildingBlock: OJICUG_clean_linker_0, # of connection points: 2
#     Edge 50, Type (0, 0), BuildingBlock: OJICUG_clean_linker_0, # of connection points: 2
#     Edge 51, Type (0, 0), BuildingBlock: OJICUG_clean_linker_0, # of connection points: 2
#     Edge 52, Type (0, 0), BuildingBlock: OJICUG_clean_linker_0, # of connection points: 2
#     Edge 53, Type (0, 0), BuildingBlock: OJICUG_clean_linker_0, # of connection points: 2
#     Edge 54, Type (0, 0), BuildingBlock: OJICUG_clean_linker_0, # of connection points: 2
#     Edge 55, Type (0, 0), BuildingBlock: OJICUG_clean_linker_0, # of connection points: 2
# Relax obj value: 0.379
# Max RMSD: 0.211
# Mean RMSD: 0.211
data_MOF--net-fnk--node1-BEQFEK_clean_sbu_0--edge1-OJICUG_clean_linker_0
_symmetry_space_group_name_H-M    P1
_symmetry_Int_Tables_number       1
_symmetry_cell_setting            triclinic
loop_
_symmetry_equiv_pos_as_xyz
'x, y, z'
_cell_length_a     39.490144
_cell_length_b     39.532048
_cell_length_c     35.828577
_cell_angle_alpha  90.020523
_cell_angle_beta   89.187398
_cell_angle_gamma 90.05399
loop_
_atom_site_label
_atom_site_type_symbol
_atom_site_fract_x
_atom_site_fract_y
_atom_site_fract_z
_atom_type_partial_charge
Co0 Co 0.07509 0.39496 0.15232 0.0
Co1 Co 0.12894 0.35093 0.19148 0.0
C2 C 0.1296 0.42576 0.20124 0.0
O3 O 0.1042 0.42817 0.17968 0.0
O4 O 0.14275 0.39706 0.20876 0.0
C5 C 0.0458 0.4474 0.10638 0.0
O6 O 0.07556 0.46228 0.10687 0.0
C7 C 0.18801 0.31723 0.22663 0.0
C8 C 0.18221 0.26568 0.20355 0.0
C9 C 0.20278 0.28534 0.22571 0.0
N10 N 0.16021 0.31647 0.20533 0.0
N11 N 0.15679 0.28549 0.19202 0.0
C12 C 0.20063 0.34821 0.24595 0.0
H13 H 0.18129 0.3568 0.26663 0.0
H14 H 0.20412 0.3688 0.22521 0.0
H15 H 0.22496 0.34348 0.26014 0.0
C16 C 0.10335 0.36299 0.08469 0.0
N17 N 0.1012 0.3662 0.12204 0.0
N18 N 0.12629 0.34984 0.13755 0.0
C19 C 0.1464 0.33711 0.10992 0.0
C20 C 0.13202 0.3444 0.07562 0.0
C21 C 0.08069 0.38085 0.05795 0.0
H22 H 0.05402 0.37908 0.06781 0.0
H23 H 0.08803 0.40791 0.05654 0.0
H24 H 0.08276 0.37006 0.02944 0.0
O25 O 0.04704 0.3699 0.18843 0.0
O26 O 0.08484 0.34003 0.21922 0.0
H27 H 0.17709 0.29357 0.11893 0.0
H28 H 0.19728 0.3257 0.09122 0.0
C29 C 0.18031 0.32129 0.1157 0.0
H30 H 0.1922 0.33163 0.14113 0.0
H31 H 0.13718 0.27796 0.17464 0.0
O32 O 0.0418 0.41923 0.12273 0.0
C33 C 0.05431 0.3495 0.2144 0.0
Co34 Co 0.581 0.0955 0.14906 0.0
Co35 Co 0.63194 0.14352 0.18727 0.0
C36 C 0.55787 0.14568 0.20798 0.0
O37 O 0.55213 0.12264 0.18393 0.0
O38 O 0.58784 0.15716 0.21285 0.0
C39 C 0.52405 0.07303 0.10514 0.0
O40 O 0.51135 0.10356 0.10894 0.0
C41 C 0.67283 0.19822 0.22284 0.0
C42 C 0.72306 0.18593 0.19836 0.0
C43 C 0.70647 0.20857 0.22161 0.0
N44 N 0.66968 0.17096 0.20061 0.0
N45 N 0.69991 0.16363 0.18651 0.0
C46 C 0.64413 0.21404 0.24412 0.0
H47 H 0.6365 0.19706 0.26743 0.0
H48 H 0.62201 0.21683 0.22562 0.0
H49 H 0.65134 0.2391 0.25551 0.0
C50 C 0.60975 0.125 0.0806 0.0
N51 N 0.60767 0.12284 0.11802 0.0
N52 N 0.62878 0.14444 0.13315 0.0
C53 C 0.64456 0.16172 0.10512 0.0
C54 C 0.63288 0.1499 0.07107 0.0
C55 C 0.59172 0.10188 0.05434 0.0
H56 H 0.59283 0.07551 0.06474 0.0
H57 H 0.56481 0.10966 0.05276 0.0
H58 H 0.60299 0.10272 0.02583 0.0
O59 O 0.60856 0.06351 0.17746 0.0
O60 O 0.64349 0.09732 0.20755 0.0
H61 H 0.69537 0.17872 0.11207 0.0
H62 H 0.66942 0.20709 0.08592 0.0
C63 C 0.6696 0.18965 0.11021 0.0
H64 H 0.66373 0.20402 0.13607 0.0
H65 H 0.7047 0.14327 0.16865 0.0
O66 O 0.55238 0.06615 0.1194 0.0
C67 C 0.63222 0.06781 0.20055 0.0
Co68 Co 0.90456 0.57492 0.17163 0.0
Co69 Co 0.86327 0.6249 0.22153 0.0
C70 C 0.86 0.5478 0.23111 0.0
O71 O 0.8796 0.54264 0.20324 0.0
O72 O 0.85166 0.57781 0.24099 0.0
C73 C 0.9267 0.522 0.12078 0.0
O74 O 0.89783 0.50678 0.12841 0.0
C75 C 0.80155 0.66488 0.23987 0.0
C76 C 0.82085 0.69833 0.28415 0.0
C77 C 0.79234 0.69135 0.26346 0.0
N78 N 0.83415 0.65694 0.24612 0.0
N79 N 0.84532 0.6768 0.27295 0.0
C80 C 0.7792 0.64594 0.21373 0.0
H81 H 0.79292 0.62417 0.20112 0.0
H82 H 0.77027 0.66285 0.19131 0.0
H83 H 0.75644 0.63677 0.22919 0.0
C84 C 0.87254 0.61155 0.11125 0.0
N85 N 0.87589 0.60543 0.14786 0.0
N86 N 0.8611 0.62953 0.16748 0.0
C87 C 0.84946 0.65305 0.14317 0.0
C88 C 0.8556 0.64179 0.10684 0.0
C89 C 0.88887 0.59082 0.08095 0.0
H90 H 0.91679 0.59301 0.08286 0.0
H91 H 0.88166 0.56394 0.08468 0.0
H92 H 0.88122 0.59908 0.05273 0.0
O93 O 0.93845 0.5988 0.20227 0.0
O94 O 0.91007 0.63408 0.23922 0.0
H95 H 0.84291 0.69332 0.18326 0.0
H96 H 0.849 0.70682 0.1354 0.0
C97 C 0.83705 0.68749 0.15381 0.0
H98 H 0.80935 0.68886 0.14951 0.0
H99 H 0.86993 0.67613 0.28316 0.0
O100 O 0.93281 0.55055 0.1353 0.0
C101 C 0.93781 0.62098 0.22796 0.0
Co102 Co 0.40018 0.92986 0.17413 0.0
Co103 Co 0.35891 0.87782 0.22132 0.0
C104 C 0.43485 0.87786 0.2219 0.0
O105 O 0.43566 0.90212 0.19847 0.0
O106 O 0.40678 0.86531 0.23346 0.0
C107 C 0.4477 0.95607 0.11929 0.0
O108 O 0.4619 0.92602 0.11956 0.0
C109 C 0.32723 0.81228 0.24323 0.0
C110 C 0.28301 0.8304 0.27591 0.0
C111 C 0.29863 0.80133 0.26282 0.0
N112 N 0.32819 0.84634 0.24446 0.0
N113 N 0.30186 0.85688 0.26444 0.0
C114 C 0.35411 0.7908 0.22544 0.0
H115 H 0.3683 0.77761 0.24763 0.0
H116 H 0.37197 0.80656 0.20871 0.0
H117 H 0.34269 0.77109 0.20755 0.0
C118 C 0.36173 0.90145 0.11256 0.0
N119 N 0.3684 0.9034 0.14919 0.0
N120 N 0.35166 0.87968 0.16748 0.0
C121 C 0.33445 0.86111 0.14204 0.0
C122 C 0.34033 0.87443 0.10653 0.0
C123 C 0.37837 0.92292 0.0831 0.0
H124 H 0.3783 0.94976 0.09199 0.0
H125 H 0.40484 0.91434 0.0788 0.0
H126 H 0.36532 0.9211 0.056 0.0
O127 O 0.37842 0.95899 0.21127 0.0
O128 O 0.35049 0.92283 0.24748 0.0
H129 H 0.29924 0.83406 0.17701 0.0
H130 H 0.29603 0.82488 0.12769 0.0
C131 C 0.31379 0.83038 0.15068 0.0
H132 H 0.3309 0.80839 0.15366 0.0
H133 H 0.29631 0.88227 0.26958 0.0
O134 O 0.42196 0.9617 0.13986 0.0
C135 C 0.35987 0.95293 0.23963 0.0
Co136 Co 0.09987 0.56858 0.35528 0.0
Co137 Co 0.13912 0.62047 0.30558 0.0
C138 C 0.14136 0.54367 0.29229 0.0
O139 O 0.12309 0.53761 0.32098 0.0
O140 O 0.14934 0.57397 0.28312 0.0
C141 C 0.04839 0.55527 0.40845 0.0
O142 O 0.04279 0.58779 0.40412 0.0
C143 C 0.19985 0.66236 0.28737 0.0
C144 C 0.17955 0.69506 0.24303 0.0
C145 C 0.20821 0.68913 0.26384 0.0
N146 N 0.16754 0.65325 0.28102 0.0
N147 N 0.15581 0.67266 0.25412 0.0
C148 C 0.2228 0.64435 0.31361 0.0
H149 H 0.2102 0.62156 0.32542 0.0
H150 H 0.23025 0.66141 0.33659 0.0
H151 H 0.24637 0.63689 0.29851 0.0
C152 C 0.13628 0.60205 0.41523 0.0
N153 N 0.13053 0.59759 0.37871 0.0
N154 N 0.1434 0.62303 0.35955 0.0
C155 C 0.15523 0.64608 0.38427 0.0
C156 C 0.1519 0.63297 0.42025 0.0
C157 C 0.12362 0.57896 0.44546 0.0
H158 H 0.12248 0.55254 0.43519 0.0
H159 H 0.14038 0.58006 0.47003 0.0
H160 H 0.09797 0.58716 0.45462 0.0
O161 O 0.06477 0.59404 0.32729 0.0
O162 O 0.09193 0.63091 0.29114 0.0
H163 H 0.15869 0.6877 0.3454 0.0
H164 H 0.15012 0.69938 0.39335 0.0
C165 C 0.16443 0.6818 0.37485 0.0
H166 H 0.19171 0.68593 0.3802 0.0
H167 H 0.13126 0.67112 0.24384 0.0
O168 O 0.07354 0.54179 0.39166 0.0
C169 C 0.06453 0.61744 0.30292 0.0
Co170 Co 0.42924 0.10064 0.37707 0.0
Co171 Co 0.37535 0.1461 0.33989 0.0
C172 C 0.44775 0.14825 0.31361 0.0
O173 O 0.45481 0.1264 0.33841 0.0
O174 O 0.4175 0.1593 0.30998 0.0
C175 C 0.49131 0.08651 0.41431 0.0
O176 O 0.49942 0.11787 0.40592 0.0
C177 C 0.33165 0.19898 0.30536 0.0
C178 C 0.28259 0.18551 0.33195 0.0
C179 C 0.29778 0.20838 0.30781 0.0
N180 N 0.33627 0.17203 0.32767 0.0
N181 N 0.30673 0.164 0.34308 0.0
C182 C 0.35926 0.21558 0.28303 0.0
H183 H 0.366 0.19919 0.2589 0.0
H184 H 0.38216 0.21829 0.30039 0.0
H185 H 0.35129 0.24077 0.27269 0.0
C186 C 0.40394 0.13316 0.44556 0.0
N187 N 0.40411 0.12938 0.40826 0.0
N188 N 0.38166 0.1497 0.39343 0.0
C189 C 0.36667 0.16757 0.42149 0.0
C190 C 0.38041 0.15769 0.45534 0.0
C191 C 0.42392 0.11148 0.47152 0.0
H192 H 0.4231 0.08477 0.46215 0.0
H193 H 0.45067 0.12004 0.47104 0.0
H194 H 0.41412 0.11293 0.5006 0.0
O195 O 0.40043 0.06625 0.35304 0.0
O196 O 0.36354 0.09867 0.32397 0.0
H197 H 0.3148 0.18158 0.41619 0.0
H198 H 0.34011 0.21214 0.44019 0.0
C199 C 0.34001 0.19395 0.41658 0.0
H200 H 0.34422 0.20777 0.39001 0.0
H201 H 0.30311 0.14376 0.36141 0.0
O202 O 0.46236 0.07527 0.40567 0.0
C203 C 0.3753 0.06948 0.33157 0.0
Co204 Co 0.92088 0.40442 0.37788 0.0
Co205 Co 0.86921 0.357 0.33937 0.0
C206 C 0.86789 0.43084 0.32407 0.0
O207 O 0.89237 0.43466 0.34655 0.0
O208 O 0.85532 0.40165 0.31775 0.0
C209 C 0.94159 0.46224 0.42002 0.0
O210 O 0.91004 0.47208 0.41634 0.0
C211 C 0.81153 0.32091 0.30441 0.0
C212 C 0.81856 0.26984 0.32821 0.0
C213 C 0.79767 0.28861 0.30555 0.0
N214 N 0.83914 0.32124 0.32601 0.0
N215 N 0.8433 0.29054 0.33979 0.0
C216 C 0.79818 0.35128 0.28459 0.0
H217 H 0.79457 0.3722 0.3049 0.0
H218 H 0.77377 0.34583 0.27085 0.0
H219 H 0.81713 0.3598 0.26343 0.0
C220 C 0.89109 0.37474 0.44626 0.0
N221 N 0.89391 0.37688 0.40885 0.0
N222 N 0.8699 0.35885 0.39337 0.0
C223 C 0.84994 0.34585 0.42096 0.0
C224 C 0.8632 0.35493 0.45529 0.0
C225 C 0.91282 0.39392 0.47287 0.0
H226 H 0.9396 0.39322 0.4632 0.0
H227 H 0.9044 0.42067 0.47374 0.0
H228 H 0.91094 0.38348 0.50155 0.0
O229 O 0.9513 0.37759 0.34532 0.0
O230 O 0.9147 0.34529 0.31543 0.0
H231 H 0.823 0.29973 0.41258 0.0
H232 H 0.79984 0.33074 0.43902 0.0
C233 C 0.81752 0.32715 0.41498 0.0
H234 H 0.80529 0.33591 0.38906 0.0
H235 H 0.86295 0.28382 0.35749 0.0
O236 O 0.95057 0.43362 0.40722 0.0
C237 C 0.945 0.35532 0.32079 0.0
Co238 Co 0.59085 0.92429 0.35326 0.0
Co239 Co 0.63618 0.8754 0.30616 0.0
C240 C 0.55973 0.87593 0.2997 0.0
O241 O 0.55699 0.89854 0.32489 0.0
O242 O 0.58864 0.86447 0.28931 0.0
C243 C 0.58321 0.98037 0.40082 0.0
O244 O 0.61549 0.98436 0.39256 0.0
C245 C 0.66966 0.8105 0.28541 0.0
C246 C 0.71232 0.82936 0.2507 0.0
C247 C 0.69807 0.80009 0.26515 0.0
N248 N 0.6675 0.84445 0.28322 0.0
N249 N 0.6929 0.85542 0.26207 0.0
C250 C 0.64381 0.78858 0.30444 0.0
H251 H 0.62922 0.77486 0.28294 0.0
H252 H 0.6261 0.80413 0.3216 0.0
H253 H 0.65615 0.76932 0.32209 0.0
C254 C 0.62267 0.89039 0.4158 0.0
N255 N 0.61957 0.89521 0.3789 0.0
N256 N 0.64007 0.8747 0.36046 0.0
C257 C 0.65769 0.85663 0.38596 0.0
C258 C 0.6471 0.86614 0.42169 0.0
C259 C 0.60069 0.90683 0.44502 0.0
H260 H 0.5742 0.90825 0.43532 0.0
H261 H 0.60109 0.89275 0.47176 0.0
H262 H 0.6101 0.9328 0.45026 0.0
O263 O 0.61568 0.95488 0.31923 0.0
O264 O 0.64737 0.92109 0.28411 0.0
H265 H 0.69757 0.83754 0.35039 0.0
H266 H 0.70318 0.82988 0.39976 0.0
C267 C 0.68445 0.8311 0.37698 0.0
H268 H 0.67257 0.80581 0.37461 0.0
H269 H 0.69741 0.88084 0.25594 0.0
O270 O 0.56748 0.95492 0.38799 0.0
C271 C 0.63692 0.95058 0.29278 0.0
Co272 Co 0.92818 0.59925 0.8794 0.0
Co273 Co 0.87458 0.64381 0.84032 0.0
C274 C 0.94821 0.64576 0.81611 0.0
O275 O 0.95538 0.6246 0.84168 0.0
O276 O 0.91778 0.65609 0.81158 0.0
C277 C 0.94648 0.54546 0.92554 0.0
O278 O 0.91358 0.54047 0.92562 0.0
C279 C 0.83241 0.69774 0.80528 0.0
C280 C 0.78229 0.68296 0.82834 0.0
C281 C 0.79841 0.70682 0.80621 0.0
N282 N 0.83617 0.67001 0.82661 0.0
N283 N 0.80603 0.6612 0.83986 0.0
C284 C 0.86085 0.71531 0.78529 0.0
H285 H 0.88326 0.71656 0.80357 0.0
H286 H 0.85341 0.74119 0.77663 0.0
H287 H 0.86804 0.70043 0.76014 0.0
C288 C 0.903 0.63469 0.94672 0.0
N289 N 0.90288 0.62898 0.90965 0.0
N290 N 0.87969 0.64792 0.894 0.0
C291 C 0.86391 0.66607 0.9213 0.0
C292 C 0.8782 0.65826 0.95548 0.0
C293 C 0.92495 0.61606 0.97359 0.0
H294 H 0.95099 0.61377 0.96194 0.0
H295 H 0.92613 0.62887 1.00102 0.0
H296 H 0.91446 0.59035 0.97813 0.0
O297 O 0.89967 0.56549 0.85358 0.0
O298 O 0.86222 0.59681 0.82426 0.0
H299 H 0.81159 0.67678 0.91319 0.0
H300 H 0.8336 0.70854 0.93928 0.0
C301 C 0.83584 0.69075 0.91538 0.0
H302 H 0.84041 0.70529 0.88936 0.0
H303 H 0.80172 0.64028 0.85705 0.0
O304 O 0.9586 0.57142 0.90921 0.0
C305 C 0.87458 0.56798 0.83201 0.0
Co306 Co 0.42289 0.90304 0.87786 0.0
Co307 Co 0.37103 0.85602 0.83909 0.0
C308 C 0.37004 0.92991 0.82411 0.0
O309 O 0.39454 0.93352 0.8466 0.0
O310 O 0.35735 0.90079 0.81763 0.0
C311 C 0.44394 0.96072 0.92003 0.0
O312 O 0.41245 0.97075 0.91633 0.0
C313 C 0.31308 0.82023 0.80423 0.0
C314 C 0.31999 0.76911 0.82797 0.0
C315 C 0.29907 0.788 0.80544 0.0
N316 N 0.34081 0.82042 0.82567 0.0
N317 N 0.34489 0.78969 0.83941 0.0
C318 C 0.29974 0.85069 0.78458 0.0
H319 H 0.3186 0.85917 0.7633 0.0
H320 H 0.29635 0.8716 0.80496 0.0
H321 H 0.27522 0.84537 0.77101 0.0
C322 C 0.39249 0.87363 0.9461 0.0
N323 N 0.39566 0.87562 0.90871 0.0
N324 N 0.37157 0.85782 0.89306 0.0
C325 C 0.35122 0.84514 0.92048 0.0
C326 C 0.3643 0.85417 0.95492 0.0
C327 C 0.41404 0.89288 0.97283 0.0
H328 H 0.4409 0.89207 0.96344 0.0
H329 H 0.40568 0.91965 0.97347 0.0
H330 H 0.4119 0.88257 1.00155 0.0
O331 O 0.45323 0.87608 0.84532 0.0
O332 O 0.41651 0.84403 0.81531 0.0
H333 H 0.32372 0.79943 0.91165 0.0
H334 H 0.30082 0.83059 0.93813 0.0
C335 C 0.31859 0.82691 0.9142 0.0
H336 H 0.30663 0.83596 0.88825 0.0
H337 H 0.36457 0.78288 0.85702 0.0
O338 O 0.45274 0.93203 0.90729 0.0
C339 C 0.44687 0.85386 0.82076 0.0
Co340 Co 0.09198 0.42264 0.85503 0.0
Co341 Co 0.13788 0.37437 0.80807 0.0
C342 C 0.06253 0.3729 0.80042 0.0
O343 O 0.05983 0.39582 0.8252 0.0
O344 O 0.09142 0.36134 0.79033 0.0
C345 C 0.03778 0.43929 0.90546 0.0
O346 O 0.02772 0.40805 0.89972 0.0
C347 C 0.17322 0.31115 0.78552 0.0
C348 C 0.21769 0.33199 0.75529 0.0
C349 C 0.20283 0.30195 0.76674 0.0
N350 N 0.17092 0.34514 0.7854 0.0
N351 N 0.19743 0.35733 0.76691 0.0
C352 C 0.14663 0.28811 0.80137 0.0
H353 H 0.12777 0.30264 0.81812 0.0
H354 H 0.1582 0.26817 0.81877 0.0
H355 H 0.13354 0.27527 0.77809 0.0
C356 C 0.12718 0.39203 0.91772 0.0
N357 N 0.12228 0.39522 0.88084 0.0
N358 N 0.14149 0.37352 0.86241 0.0
C359 C 0.15899 0.3553 0.88788 0.0
C360 C 0.15037 0.36657 0.9236 0.0
C361 C 0.10829 0.4116 0.94717 0.0
H362 H 0.10761 0.43875 0.93954 0.0
H363 H 0.082 0.40188 0.94933 0.0
H364 H 0.12002 0.40912 0.97495 0.0
O365 O 0.11604 0.455 0.82253 0.0
O366 O 0.14708 0.42099 0.7867 0.0
H367 H 0.19839 0.33401 0.85341 0.0
H368 H 0.20095 0.32339 0.90243 0.0
C369 C 0.18349 0.32763 0.87887 0.0
H370 H 0.1693 0.30388 0.87409 0.0
H371 H 0.20206 0.38307 0.76282 0.0
O372 O 0.06477 0.44985 0.8897 0.0
C373 C 0.13684 0.45057 0.79561 0.0
Co374 Co 0.60239 0.06659 0.85439 0.0
Co375 Co 0.64149 0.11841 0.80451 0.0
C376 C 0.64354 0.04163 0.79122 0.0
O377 O 0.62545 0.03555 0.82005 0.0
O378 O 0.65149 0.07192 0.78203 0.0
C379 C 0.551 0.05341 0.90772 0.0
O380 O 0.54543 0.08592 0.90335 0.0
C381 C 0.70241 0.15988 0.78648 0.0
C382 C 0.68248 0.19276 0.74209 0.0
C383 C 0.71101 0.18664 0.76304 0.0
N384 N 0.67008 0.15098 0.77997 0.0
N385 N 0.65856 0.17049 0.75303 0.0
C386 C 0.72511 0.14173 0.81287 0.0
H387 H 0.74935 0.13542 0.79844 0.0
H388 H 0.71282 0.11828 0.82341 0.0
H389 H 0.73126 0.15826 0.83678 0.0
C390 C 0.63888 0.10024 0.91421 0.0
N391 N 0.63316 0.0956 0.8777 0.0
N392 N 0.64585 0.12105 0.85843 0.0
C393 C 0.65748 0.1443 0.88304 0.0
C394 C 0.65426 0.1313 0.91908 0.0
C395 C 0.62617 0.07728 0.94455 0.0
H396 H 0.62504 0.05082 0.93443 0.0
H397 H 0.6429 0.0785 0.96914 0.0
H398 H 0.60052 0.08554 0.95363 0.0
O399 O 0.56729 0.09208 0.82637 0.0
O400 O 0.59437 0.12895 0.79012 0.0
H401 H 0.66083 0.1857 0.84386 0.0
H402 H 0.65123 0.19755 0.89152 0.0
C403 C 0.66619 0.18011 0.87347 0.0
H404 H 0.69328 0.18482 0.87937 0.0
H405 H 0.63404 0.16911 0.74265 0.0
O406 O 0.5761 0.03987 0.89088 0.0
C407 C 0.56701 0.11546 0.80197 0.0
Co408 Co 0.90283 0.4275 0.67539 0.0
Co409 Co 0.8615 0.37549 0.72242 0.0
C410 C 0.93756 0.37552 0.72294 0.0
O411 O 0.93844 0.39978 0.6995 0.0
O412 O 0.90945 0.36309 0.73451 0.0
C413 C 0.94998 0.4542 0.62036 0.0
O414 O 0.96446 0.42428 0.62037 0.0
C415 C 0.83012 0.30976 0.7437 0.0
C416 C 0.78622 0.32738 0.77724 0.0
C417 C 0.80175 0.29851 0.76346 0.0
N418 N 0.83104 0.34378 0.74549 0.0
N419 N 0.80492 0.35403 0.76599 0.0
C420 C 0.85687 0.28858 0.72522 0.0
H421 H 0.87433 0.30457 0.70826 0.0
H422 H 0.84534 0.26885 0.70746 0.0
H423 H 0.87155 0.27542 0.74704 0.0
C424 C 0.86423 0.39935 0.61374 0.0
N425 N 0.87109 0.40106 0.65034 0.0
N426 N 0.85414 0.37747 0.6686 0.0
C427 C 0.83652 0.35926 0.64317 0.0
C428 C 0.84241 0.37268 0.60771 0.0
C429 C 0.88081 0.42089 0.5843 0.0
H430 H 0.88063 0.44772 0.59322 0.0
H431 H 0.90731 0.41241 0.58002 0.0
H432 H 0.86779 0.41905 0.55718 0.0
O433 O 0.88095 0.45653 0.71262 0.0
O434 O 0.85274 0.42039 0.74862 0.0
H435 H 0.80107 0.33276 0.6784 0.0
H436 H 0.79705 0.32411 0.62904 0.0
C437 C 0.81521 0.32897 0.65182 0.0
H438 H 0.83181 0.30654 0.65432 0.0
H439 H 0.79939 0.37934 0.77163 0.0
O440 O 0.92434 0.45953 0.64119 0.0
C441 C 0.86218 0.45048 0.74083 0.0
Co442 Co 0.57557 0.89299 0.65188 0.0
Co443 Co 0.63021 0.84933 0.69005 0.0
C444 C 0.63065 0.92399 0.7 0.0
O445 O 0.60496 0.92631 0.67885 0.0
O446 O 0.64401 0.89536 0.70725 0.0
C447 C 0.54601 0.94518 0.60582 0.0
O448 O 0.57598 0.95966 0.60519 0.0
C449 C 0.68951 0.81619 0.72506 0.0
C450 C 0.6855 0.76513 0.70027 0.0
C451 C 0.70517 0.78476 0.72342 0.0
N452 N 0.66209 0.81524 0.7032 0.0
N453 N 0.65973 0.78454 0.68884 0.0
C454 C 0.7009 0.84696 0.74568 0.0
H455 H 0.6806 0.85503 0.76548 0.0
H456 H 0.70507 0.86792 0.72553 0.0
H457 H 0.72465 0.84227 0.76102 0.0
C458 C 0.60281 0.86093 0.58383 0.0
N459 N 0.60126 0.86422 0.62119 0.0
N460 N 0.62696 0.84845 0.63617 0.0
C461 C 0.64699 0.83634 0.60815 0.0
C462 C 0.63185 0.84321 0.57414 0.0
C463 C 0.57891 0.87756 0.5575 0.0
H464 H 0.55274 0.87662 0.56905 0.0
H465 H 0.58646 0.90437 0.55363 0.0
H466 H 0.57945 0.86495 0.52985 0.0
O467 O 0.54809 0.86785 0.68828 0.0
O468 O 0.58641 0.83808 0.71845 0.0
H469 H 0.67973 0.79401 0.61541 0.0
H470 H 0.69821 0.82782 0.58876 0.0
C471 C 0.68164 0.82193 0.61319 0.0
H472 H 0.69322 0.83208 0.63889 0.0
H473 H 0.64059 0.77692 0.67089 0.0
O474 O 0.54198 0.91737 0.62288 0.0
C475 C 0.55577 0.84742 0.71407 0.0
Co476 Co 0.08147 0.59477 0.65079 0.0
Co477 Co 0.13221 0.64302 0.68894 0.0
C478 C 0.05825 0.64465 0.71003 0.0
O479 O 0.0526 0.62166 0.68589 0.0
O480 O 0.08815 0.65637 0.7148 0.0
C481 C 0.0247 0.57202 0.60667 0.0
O482 O 0.01172 0.60244 0.61044 0.0
C483 C 0.17332 0.69778 0.72421 0.0
C484 C 0.22331 0.68567 0.699 0.0
C485 C 0.20693 0.70823 0.72252 0.0
N486 N 0.16999 0.67054 0.70199 0.0
N487 N 0.20007 0.66332 0.68745 0.0
C488 C 0.14481 0.71354 0.74587 0.0
H489 H 0.13772 0.6967 0.76949 0.0
H490 H 0.12237 0.71598 0.72778 0.0
H491 H 0.15201 0.73876 0.75686 0.0
C492 C 0.10979 0.62462 0.58229 0.0
N493 N 0.10792 0.62228 0.61971 0.0
N494 N 0.12885 0.64405 0.63482 0.0
C495 C 0.14427 0.66165 0.60679 0.0
C496 C 0.13257 0.64983 0.57274 0.0
C497 C 0.09175 0.60155 0.55598 0.0
H498 H 0.09301 0.57513 0.56621 0.0
H499 H 0.06482 0.60924 0.55452 0.0
H500 H 0.10294 0.60258 0.52744 0.0
O501 O 0.10916 0.56287 0.67913 0.0
O502 O 0.1439 0.59685 0.70925 0.0
H503 H 0.19485 0.67944 0.61341 0.0
H504 H 0.16823 0.70754 0.58773 0.0
C505 C 0.16889 0.68996 0.61187 0.0
H506 H 0.16298 0.70407 0.6379 0.0
H507 H 0.20471 0.64302 0.66947 0.0
O508 O 0.053 0.56534 0.62112 0.0
C509 C 0.13273 0.56729 0.7023 0.0
Co510 Co 0.40553 0.07372 0.67155 0.0
Co511 Co 0.36564 0.12436 0.72186 0.0
C512 C 0.36168 0.04707 0.73154 0.0
O513 O 0.38079 0.0416 0.70334 0.0
O514 O 0.3539 0.07723 0.74148 0.0
C515 C 0.42733 0.02043 0.62128 0.0
O516 O 0.39882 0.00506 0.63015 0.0
C517 C 0.30476 0.16579 0.73962 0.0
C518 C 0.32379 0.19713 0.78586 0.0
C519 C 0.29574 0.19179 0.76389 0.0
N520 N 0.33686 0.15654 0.74669 0.0
N521 N 0.34786 0.17515 0.77468 0.0
C522 C 0.28259 0.14859 0.71191 0.0
H523 H 0.29546 0.12607 0.69983 0.0
H524 H 0.27602 0.16629 0.6892 0.0
H525 H 0.25851 0.14084 0.72581 0.0
C526 C 0.37284 0.11022 0.61166 0.0
N527 N 0.3766 0.10426 0.64823 0.0
N528 N 0.36323 0.12911 0.66787 0.0
C529 C 0.35264 0.15314 0.64357 0.0
C530 C 0.35764 0.14137 0.60721 0.0
C531 C 0.38714 0.08825 0.58128 0.0
H532 H 0.4151 0.09101 0.58028 0.0
H533 H 0.38075 0.06148 0.58719 0.0
H534 H 0.37693 0.09507 0.55362 0.0
O535 O 0.43995 0.09736 0.70196 0.0
O536 O 0.4125 0.13319 0.73912 0.0
H537 H 0.34766 0.19336 0.68402 0.0
H538 H 0.35758 0.20675 0.63687 0.0
C539 C 0.34288 0.18843 0.65412 0.0
H540 H 0.31575 0.19249 0.64798 0.0
H541 H 0.3721 0.17331 0.78572 0.0
O542 O 0.43339 0.04941 0.63478 0.0
C543 C 0.43991 0.11962 0.72759 0.0
C544 C 0.98621 0.52011 0.09696 0.0
C545 C 0.95516 0.50344 0.10341 0.0
H546 H 0.03999 0.51507 0.09219 0.0
C547 C 0.95375 0.46814 0.10008 0.0
H548 H 0.98789 0.54745 0.0983 0.0
C549 C 0.98364 0.44962 0.09633 0.0
C550 C 0.01519 0.46623 0.09596 0.0
H551 H 0.93011 0.45462 0.10409 0.0
H552 H 0.98215 0.42227 0.09735 0.0
C553 C 0.01611 0.50159 0.09328 0.0
C554 C 0.46756 0.04642 0.09757 0.0
C555 C 0.50284 0.04439 0.09369 0.0
H556 H 0.42182 0.01907 0.1082 0.0
C557 C 0.51806 0.01267 0.08747 0.0
H558 H 0.45511 0.07056 0.10173 0.0
C559 C 0.49908 0.98313 0.09148 0.0
C560 C 0.46476 0.98516 0.10165 0.0
H561 H 0.54521 0.01053 0.08338 0.0
H562 H 0.51204 0.959 0.09046 0.0
C563 C 0.44858 0.01687 0.10155 0.0
C564 C 0.96143 0.52159 0.42947 0.0
C565 C 0.96819 0.48671 0.4299 0.0
H566 H 0.98216 0.57125 0.42285 0.0
C567 C 0.00186 0.47568 0.43281 0.0
H568 H 0.9357 0.53088 0.4278 0.0
C569 C 0.02844 0.49875 0.42982 0.0
C570 C 0.0217 0.53319 0.42411 0.0
H571 H 0.00782 0.44896 0.43411 0.0
H572 H 0.05416 0.48925 0.42887 0.0
C573 C 0.98809 0.54474 0.42665 0.0
C574 C 0.53055 0.00222 0.43054 0.0
C575 C 0.5635 0.00834 0.4171 0.0
H576 H 0.48161 0.02307 0.44154 0.0
C577 C 0.57473 0.04186 0.41267 0.0
H578 H 0.52156 0.97661 0.43503 0.0
C579 C 0.55176 0.06855 0.41618 0.0
C580 C 0.51751 0.06181 0.42425 0.0
H581 H 0.60021 0.04726 0.40276 0.0
H582 H 0.5601 0.09382 0.40882 0.0
C583 C 0.50772 0.02883 0.43427 0.0
C584 C 0.95763 0.4839 0.93304 0.0
C585 C 0.96948 0.51742 0.93421 0.0
H586 H 0.97053 0.4321 0.92306 0.0
C587 C 0.00443 0.52348 0.93565 0.0
H588 H 0.93075 0.47846 0.9324 0.0
C589 C 0.02716 0.49696 0.93039 0.0
C590 C 0.01516 0.46412 0.92348 0.0
H591 H 0.01421 0.54904 0.93743 0.0
H592 H 0.05395 0.50274 0.92844 0.0
C593 C 0.98042 0.45732 0.92761 0.0
C594 C 0.50436 0.97393 0.93236 0.0
C595 C 0.4707 0.98509 0.92976 0.0
H596 H 0.55668 0.98732 0.92798 0.0
C597 C 0.46407 0.01999 0.92944 0.0
H598 H 0.51023 0.94719 0.93357 0.0
C599 C 0.49079 0.04305 0.92641 0.0
C600 C 0.52434 0.03139 0.92356 0.0
H601 H 0.43836 0.02937 0.92801 0.0
H602 H 0.48492 0.06959 0.92271 0.0
C603 C 0.531 0.99691 0.92917 0.0
C604 C 0.0009 0.48194 0.5924 0.0
C605 C 0.96658 0.48351 0.60268 0.0
H606 H 0.04666 0.50997 0.58437 0.0
C607 C 0.94997 0.515 0.6027 0.0
H608 H 0.01417 0.45798 0.59127 0.0
C609 C 0.96856 0.54481 0.59882 0.0
C610 C 0.00386 0.54323 0.59492 0.0
H611 H 0.92319 0.51682 0.60941 0.0
H612 H 0.9558 0.56876 0.60314 0.0
C613 C 0.01948 0.51174 0.58848 0.0
C614 C 0.48672 0.01822 0.597 0.0
C615 C 0.45563 0.00171 0.6038 0.0
H616 H 0.54045 0.01289 0.59166 0.0
C617 C 0.45404 0.96641 0.60061 0.0
H618 H 0.48856 0.04554 0.59826 0.0
C619 C 0.48379 0.94774 0.59657 0.0
C620 C 0.51542 0.96418 0.59576 0.0
H621 H 0.43036 0.953 0.60487 0.0
H622 H 0.48219 0.92039 0.59766 0.0
C623 C 0.5165 0.99954 0.59303 0.0
C624 C 0.23239 0.27417 0.28536 0.0
C625 C 0.23198 0.27222 0.2463 0.0
H626 H 0.25403 0.25502 0.33567 0.0
C627 C 0.25657 0.2527 0.22752 0.0
H628 H 0.21325 0.28855 0.30041 0.0
C629 C 0.28029 0.23411 0.24759 0.0
C630 C 0.27911 0.23415 0.28673 0.0
H631 H 0.2564 0.25059 0.19737 0.0
H632 H 0.29779 0.21776 0.23261 0.0
C633 C 0.25556 0.25494 0.30545 0.0
C634 C 0.7691 0.27662 0.24544 0.0
C635 C 0.76921 0.2744 0.2845 0.0
H636 H 0.74863 0.25705 0.19469 0.0
C637 C 0.74512 0.2539 0.30281 0.0
H638 H 0.78787 0.29176 0.23074 0.0
C639 C 0.72224 0.23462 0.28226 0.0
C640 C 0.72379 0.235 0.24314 0.0
H641 H 0.74506 0.2516 0.33294 0.0
H642 H 0.70516 0.21755 0.29687 0.0
C643 C 0.74679 0.25674 0.2249 0.0
C644 C 0.72409 0.75083 0.29745 0.0
C645 C 0.71497 0.7668 0.26408 0.0
H646 H 0.75589 0.71387 0.32322 0.0
C647 C 0.72809 0.75446 0.23009 0.0
H648 H 0.71541 0.76064 0.32414 0.0
C649 C 0.75117 0.72764 0.22955 0.0
C650 C 0.76188 0.71302 0.26308 0.0
H651 H 0.722 0.76689 0.20408 0.0
H652 H 0.76274 0.72043 0.20316 0.0
C653 C 0.74751 0.72429 0.29695 0.0
C654 C 0.25218 0.72361 0.2308 0.0
C655 C 0.23782 0.71199 0.26453 0.0
H656 H 0.28338 0.76094 0.20388 0.0
C657 C 0.24756 0.72721 0.29814 0.0
H658 H 0.24453 0.71271 0.20448 0.0
C659 C 0.26962 0.75493 0.29778 0.0
C660 C 0.28275 0.76752 0.2639 0.0
H661 H 0.23597 0.71965 0.3244 0.0
H662 H 0.27493 0.76775 0.32379 0.0
C663 C 0.27465 0.751 0.23049 0.0
C664 C 0.73331 0.77268 0.78367 0.0
C665 C 0.7341 0.77179 0.74455 0.0
H666 H 0.75361 0.75236 0.83409 0.0
C667 C 0.75961 0.75326 0.72603 0.0
H668 H 0.71346 0.78627 0.79849 0.0
C669 C 0.78298 0.73445 0.74635 0.0
C670 C 0.78051 0.73328 0.78541 0.0
H671 H 0.76037 0.75198 0.69582 0.0
H672 H 0.80116 0.71876 0.73148 0.0
C673 C 0.75614 0.75324 0.80395 0.0
C674 C 0.2232 0.73435 0.78296 0.0
C675 C 0.22445 0.73467 0.74383 0.0
H676 H 0.2465 0.75128 0.83339 0.0
C677 C 0.24737 0.75633 0.72534 0.0
H678 H 0.20619 0.71734 0.79775 0.0
C679 C 0.26992 0.77615 0.74565 0.0
C680 C 0.27036 0.77395 0.78469 0.0
H681 H 0.24898 0.75661 0.69513 0.0
H682 H 0.28864 0.79121 0.73075 0.0
C683 C 0.24632 0.75356 0.80325 0.0
C684 C 0.25056 0.22452 0.79704 0.0
C685 C 0.26595 0.21434 0.76329 0.0
H686 H 0.21781 0.26016 0.82448 0.0
C687 C 0.2568 0.2305 0.73003 0.0
H688 H 0.25773 0.21286 0.82312 0.0
C689 C 0.23415 0.25769 0.73085 0.0
C690 C 0.21985 0.26877 0.7648 0.0
H691 H 0.26917 0.22405 0.70384 0.0
H692 H 0.22918 0.27124 0.70522 0.0
C693 C 0.22749 0.25136 0.79777 0.0
C694 C 0.77748 0.24876 0.73039 0.0
C695 C 0.78584 0.2647 0.76404 0.0
H696 H 0.74707 0.21099 0.70388 0.0
C697 C 0.77293 0.25161 0.79777 0.0
H698 H 0.78605 0.2591 0.70391 0.0
C699 C 0.75077 0.22397 0.79777 0.0
C700 C 0.74073 0.20935 0.76395 0.0
H701 H 0.77845 0.26399 0.82398 0.0
H702 H 0.73934 0.21605 0.82398 0.0
C703 C 0.75493 0.22144 0.73034 0.0
C704 C 0.13025 0.3202 1.01152 0.0
C705 C 0.14659 0.3409 0.03753 0.0
H706 H 0.11987 0.31154 0.95368 0.0
C707 C 0.17092 0.36427 0.02483 0.0
H708 H 0.111 0.30241 0.02076 0.0
C709 C 0.17605 0.36943 0.98647 0.0
C710 C 0.1569 0.35129 0.96046 0.0
H711 H 0.18336 0.38089 0.0444 0.0
H712 H 0.19213 0.39012 0.97728 0.0
C713 C 0.13545 0.3253 0.97319 0.0
C714 C 0.62684 0.16596 0.96855 0.0
C715 C 0.65575 0.14882 0.95547 0.0
H716 H 0.59712 0.18029 0.01656 0.0
C717 C 0.68075 0.13948 0.98099 0.0
H718 H 0.60688 0.17262 0.94946 0.0
C719 C 0.67527 0.14406 0.0194 0.0
C720 C 0.64457 0.15769 0.03263 0.0
H721 H 0.70284 0.12549 0.97154 0.0
H722 H 0.6933 0.13362 0.03877 0.0
C723 C 0.62122 0.17026 1.0069 0.0
C724 C 0.83537 0.6512 1.00655 0.0
C725 C 0.86553 0.6662 0.9936 0.0
H726 H 0.80784 0.63258 0.05434 0.0
C727 C 0.88706 0.68174 0.01934 0.0
H728 H 0.81854 0.63884 0.98719 0.0
C729 C 0.88079 0.67842 0.05774 0.0
C730 C 0.85288 0.65958 0.07075 0.0
H731 H 0.91053 0.69331 1.00989 0.0
H732 H 0.89981 0.68704 0.07705 0.0
C733 C 0.82912 0.64783 0.04496 0.0
C734 C 0.32271 0.87072 1.0047 0.0
C735 C 0.34943 0.84979 0.99276 0.0
H736 H 0.29781 0.89417 0.05164 0.0
C737 C 0.36673 0.83046 0.01921 0.0
H738 H 0.30936 0.88619 0.98476 0.0
C739 C 0.35991 0.83474 0.05737 0.0
C740 C 0.33588 0.85862 0.0695 0.0
H741 H 0.38768 0.81446 1.01056 0.0
H742 H 0.37606 0.82231 0.07734 0.0
C743 C 0.31594 0.87508 0.0429 0.0
C744 C 0.12501 0.667 0.47059 0.0
C745 C 0.15386 0.65019 0.45678 0.0
H746 H 0.09588 0.68061 0.51927 0.0
C747 C 0.17927 0.64073 0.48174 0.0
H748 H 0.10474 0.67373 0.45193 0.0
C749 C 0.17429 0.64486 0.5203 0.0
C750 C 0.1437 0.65815 0.53423 0.0
H751 H 0.2013 0.62697 0.47174 0.0
H752 H 0.19266 0.63431 0.53921 0.0
C753 C 0.11991 0.67085 0.50908 0.0
C754 C 0.39313 0.17777 0.51959 0.0
C755 C 0.36928 0.16604 0.49392 0.0
H756 H 0.40717 0.18034 0.57711 0.0
C757 C 0.33758 0.15483 0.50715 0.0
H758 H 0.41786 0.18621 0.50996 0.0
C759 C 0.33149 0.15143 0.54563 0.0
C760 C 0.35688 0.15956 0.5712 0.0
H761 H 0.31899 0.14527 0.48785 0.0
H762 H 0.30849 0.13896 0.55513 0.0
C763 C 0.38692 0.17466 0.55799 0.0
C764 C 0.86673 0.33001 0.51892 0.0
C765 C 0.84898 0.34988 0.49332 0.0
H766 H 0.87721 0.32082 0.5766 0.0
C767 C 0.82262 0.37074 0.50636 0.0
H768 H 0.88744 0.31409 0.50942 0.0
C769 C 0.81666 0.37448 0.5448 0.0
C770 C 0.83704 0.35745 0.57054 0.0
H771 H 0.80896 0.38663 0.48709 0.0
H772 H 0.79883 0.39352 0.55439 0.0
C773 C 0.8607 0.33366 0.55731 0.0
C774 C 0.63688 0.82375 0.47168 0.0
C775 C 0.6552 0.85192 0.45865 0.0
H776 H 0.61529 0.79865 0.51958 0.0
C777 C 0.67189 0.87256 0.48448 0.0
H778 H 0.62302 0.80809 0.45231 0.0
C779 C 0.66757 0.86711 0.52287 0.0
C780 C 0.64632 0.84109 0.53589 0.0
H781 H 0.68536 0.89495 0.47508 0.0
H782 H 0.67803 0.88524 0.54225 0.0
C783 C 0.63232 0.81847 0.51011 0.0
C784 C 0.15524 0.48281 0.28081 0.0
C785 C 0.1479 0.51504 0.26645 0.0
H786 H 0.15638 0.42932 0.27096 0.0
C787 C 0.13952 0.51796 0.2286 0.0
H788 H 0.16142 0.47981 0.30999 0.0
C789 C 0.13553 0.48894 0.20653 0.0
C790 C 0.14078 0.4565 0.22159 0.0
H791 H 0.13317 0.5424 0.21695 0.0
H792 H 0.1267 0.49178 0.17821 0.0
C793 C 0.15228 0.45389 0.25844 0.0
C794 C 0.49581 0.15413 0.22184 0.0
C795 C 0.52962 0.15528 0.23386 0.0
H796 H 0.44313 0.15248 0.23772 0.0
C797 C 0.53567 0.15991 0.27208 0.0
H798 H 0.49033 0.15044 0.19257 0.0
C799 C 0.50865 0.16018 0.29797 0.0
C800 C 0.47495 0.15695 0.28614 0.0
H801 H 0.56134 0.16054 0.28231 0.0
H802 H 0.51422 0.16109 0.32747 0.0
C803 C 0.46874 0.15547 0.24766 0.0
C804 C 0.85063 0.45722 0.26364 0.0
C805 C 0.85719 0.46059 0.30191 0.0
H806 H 0.84653 0.48253 0.21088 0.0
C807 C 0.85864 0.49327 0.31739 0.0
H808 H 0.84964 0.43239 0.25087 0.0
C809 C 0.85577 0.52198 0.29469 0.0
C810 C 0.85245 0.51857 0.25587 0.0
H811 H 0.86371 0.49663 0.3468 0.0
H812 H 0.85908 0.54673 0.30712 0.0
C813 C 0.84884 0.48592 0.24074 0.0
C814 C 0.49788 0.8626 0.29819 0.0
C815 C 0.52883 0.86703 0.27895 0.0
H816 H 0.44374 0.86111 0.29482 0.0
C817 C 0.52871 0.86951 0.23984 0.0
H818 H 0.49728 0.86093 0.32838 0.0
C819 C 0.498 0.8707 0.2207 0.0
C820 C 0.46692 0.86835 0.24023 0.0
H821 H 0.55217 0.87343 0.22438 0.0
H822 H 0.4985 0.87525 0.19088 0.0
C823 C 0.46724 0.86265 0.27894 0.0
C824 C 0.86868 0.50481 0.82675 0.0
C825 C 0.86313 0.53727 0.81183 0.0
H826 H 0.87124 0.45137 0.81609 0.0
C827 C 0.85122 0.53993 0.77517 0.0
H828 H 0.87786 0.50194 0.85493 0.0
C829 C 0.84813 0.51106 0.7528 0.0
C830 C 0.85582 0.47885 0.76696 0.0
H831 H 0.8469 0.5645 0.76276 0.0
H832 H 0.84163 0.51409 0.72372 0.0
C833 C 0.86463 0.47582 0.80465 0.0
C834 C 0.53556 0.84218 0.78047 0.0
C835 C 0.52894 0.83931 0.74218 0.0
H836 H 0.5146 0.84931 0.83553 0.0
C837 C 0.49511 0.83572 0.73093 0.0
H838 H 0.56128 0.84548 0.78996 0.0
C839 C 0.46837 0.83721 0.75708 0.0
C840 C 0.47483 0.84333 0.79496 0.0
H841 H 0.48922 0.83372 0.70157 0.0
H842 H 0.4426 0.83632 0.74716 0.0
C843 C 0.50877 0.84461 0.80653 0.0
C844 C 0.14498 0.47657 0.73246 0.0
C845 C 0.14494 0.48003 0.77148 0.0
H846 H 0.14087 0.50184 0.67972 0.0
C847 C 0.14675 0.5127 0.78694 0.0
H848 H 0.14326 0.45175 0.71977 0.0
C849 C 0.14634 0.54138 0.76395 0.0
C850 C 0.14307 0.53791 0.72515 0.0
H851 H 0.14665 0.5161 0.81695 0.0
H852 H 0.14569 0.56619 0.77679 0.0
C853 C 0.14351 0.50524 0.70954 0.0
C854 C 0.47291 0.12426 0.78622 0.0
C855 C 0.47195 0.1261 0.7471 0.0
H856 H 0.50414 0.11886 0.83442 0.0
C857 C 0.50249 0.12877 0.72675 0.0
H858 H 0.4497 0.12172 0.80247 0.0
C859 C 0.53355 0.1282 0.74508 0.0
C860 C 0.53459 0.12367 0.78394 0.0
H861 H 0.50235 0.12997 0.69654 0.0
H862 H 0.55674 0.12886 0.72856 0.0
C863 C 0.504 0.12247 0.80445 0.0
C864 C 0.64078 0.01612 0.72754 0.0
C865 C 0.64975 0.01308 0.7652 0.0
H866 H 0.62722 0.99008 0.6773 0.0
C867 C 0.65732 0.98083 0.77931 0.0
H868 H 0.63425 0.04059 0.7161 0.0
C869 C 0.65404 0.95198 0.7569 0.0
C870 C 0.64199 0.9547 0.72028 0.0
H871 H 0.66394 0.97774 0.80836 0.0
H872 H 0.65837 0.92738 0.76925 0.0
C873 C 0.63648 0.98717 0.70544 0.0
C874 C 0.96922 0.65347 0.7502 0.0
C875 C 0.97551 0.65444 0.78869 0.0
H876 H 0.99066 0.64933 0.69496 0.0
C877 C 0.00924 0.65764 0.80045 0.0
H878 H 0.94359 0.65059 0.74027 0.0
C879 C 0.03618 0.65786 0.77446 0.0
C880 C 0.03005 0.65378 0.73618 0.0
H881 H 0.01489 0.65826 0.82995 0.0
H882 H 0.06189 0.65847 0.78461 0.0
C883 C 0.99622 0.65262 0.72427 0.0
C884 C 0.34988 0.98538 0.74139 0.0
C885 C 0.35418 0.01796 0.75646 0.0
H886 H 0.35032 0.93183 0.75138 0.0
C887 C 0.35839 0.02127 0.79517 0.0
H888 H 0.34687 0.98206 0.7116 0.0
C889 C 0.36144 0.99248 0.81773 0.0
C890 C 0.35931 0.95985 0.80224 0.0
H891 H 0.36227 0.04596 0.80753 0.0
H892 H 0.36716 0.99575 0.847 0.0
C893 C 0.35187 0.95661 0.76416 0.0
C894 C 0.96999 0.36006 0.77989 0.0
C895 C 0.96962 0.36581 0.74118 0.0
H896 H 1.00012 0.35811 0.82924 0.0
C897 C 0.00068 0.36792 0.72157 0.0
H898 H 0.94651 0.3587 0.79582 0.0
C899 C 0.03143 0.36645 0.74062 0.0
C900 C 0.03162 0.36392 0.77973 0.0
H901 H 0.00115 0.3725 0.69176 0.0
H902 H 0.05488 0.37025 0.72512 0.0
C903 C 0.00067 0.35973 0.79905 0.0
C904 C 0.34708 0.0137 0.25213 0.0
C905 C 0.35404 0.98122 0.26602 0.0
H906 H 0.34727 0.0671 0.26243 0.0
C907 C 0.36285 0.97775 0.30366 0.0
H908 H 0.34058 0.01709 0.22309 0.0
C909 C 0.3677 0.0065 0.32595 0.0
C910 C 0.36298 0.03917 0.31126 0.0
H911 H 0.36888 0.95308 0.31491 0.0
H912 H 0.37687 0.00323 0.35407 0.0
C913 C 0.35099 0.04235 0.27468 0.0
C914 C 0.99338 0.33844 0.23076 0.0
C915 C 0.0272 0.34151 0.24223 0.0
H916 H 0.94083 0.33917 0.24682 0.0
C917 C 0.0337 0.34367 0.28061 0.0
H918 H 0.98758 0.33696 0.20134 0.0
C919 C 0.00685 0.34588 0.30661 0.0
C920 C 0.97296 0.34502 0.29488 0.0
H921 H 0.05941 0.34653 0.29029 0.0
H922 H 0.01261 0.35001 0.33573 0.0
C923 C 0.96657 0.33967 0.25684 0.0
C924 C 0.64508 0.97694 0.22985 0.0
C925 C 0.64516 0.98014 0.26888 0.0
H926 H 0.64061 0.00258 0.17736 0.0
C927 C 0.64681 0.0127 0.28463 0.0
H928 H 0.64343 0.95221 0.21696 0.0
C929 C 0.64613 0.04154 0.26191 0.0
C930 C 0.64273 0.03832 0.22311 0.0
H931 H 0.64671 0.01589 0.31468 0.0
H932 H 0.64535 0.06625 0.27498 0.0
C933 C 0.64334 0.00577 0.2072 0.0
C934 C 0.97042 0.62567 0.28686 0.0
C935 C 0.9696 0.62791 0.24776 0.0
H936 H 0.0015 0.62004 0.33513 0.0
C937 C 1.0002 0.63118 0.22761 0.0
H938 H 0.94717 0.62266 0.30295 0.0
C939 C 0.03119 0.6307 0.24608 0.0
C940 C 0.03212 0.62569 0.28487 0.0
H941 H 1.00017 0.63268 0.19742 0.0
H942 H 0.05443 0.63176 0.22968 0.0
C943 C 0.00146 0.624 0.30521 0.0
loop_
_geom_bond_atom_site_label_1
_geom_bond_atom_site_label_2
_geom_bond_distance
_geom_bond_site_symmetry_2
_ccdc_geom_bond_type
Co0 O3 1.970 . S
Co0 N17 1.989 . S
Co0 O25 1.967 . S
Co0 O32 1.920 . S
Co1 O4 1.966 . S
Co1 N10 2.022 . S
Co1 N18 1.993 . S
Co1 O26 1.941 . S
C2 O3 1.258 . S
C2 O4 1.263 . S
O3 Co0 1.970 . S
O3 C2 1.258 . S
O4 Co1 1.966 . S
O4 C2 1.263 . S
C5 O6 1.235 . S
C5 O32 1.289 . S
O6 C5 1.235 . S
C7 C9 1.400 . S
C7 N10 1.351 . S
C7 C12 1.501 . S
C8 C9 1.387 . S
C8 N11 1.341 . S
C9 C7 1.400 . S
C9 C8 1.387 . S
N10 Co1 2.022 . S
N10 C7 1.351 . S
N10 N11 1.365 . S
N11 C8 1.341 . S
N11 N10 1.365 . S
N11 H31 0.862 . S
C12 C7 1.501 . S
C12 H13 0.961 . S
C12 H14 0.961 . S
C12 H15 0.960 . S
H13 C12 0.961 . S
H14 C12 0.961 . S
H15 C12 0.960 . S
C16 N17 1.342 . S
C16 C20 1.401 . S
C16 C21 1.499 . S
N17 Co0 1.989 . S
N17 C16 1.342 . S
N17 N18 1.388 . S
N18 Co1 1.993 . S
N18 N17 1.388 . S
N18 C19 1.346 . S
C19 N18 1.346 . S
C19 C20 1.396 . S
C19 C29 1.510 . S
C20 C16 1.401 . S
C20 C19 1.396 . S
C21 C16 1.499 . S
C21 H22 0.959 . S
C21 H23 0.960 . S
C21 H24 0.961 . S
H22 C21 0.959 . S
H23 C21 0.960 . S
H24 C21 0.961 . S
O25 Co0 1.967 . S
O25 C33 1.258 . S
O26 Co1 1.941 . S
O26 C33 1.266 . S
H27 C29 0.959 . S
H28 C29 0.961 . S
C29 C19 1.510 . S
C29 H27 0.959 . S
C29 H28 0.961 . S
C29 H30 0.960 . S
H30 C29 0.960 . S
H31 N11 0.862 . S
O32 Co0 1.920 . S
O32 C5 1.289 . S
C33 O25 1.258 . S
C33 O26 1.266 . S
Co34 O37 1.970 . S
Co34 N51 1.989 . S
Co34 O59 1.967 . S
Co34 O66 1.920 . S
Co35 O38 1.966 . S
Co35 N44 2.022 . S
Co35 N52 1.993 . S
Co35 O60 1.941 . S
C36 O37 1.258 . S
C36 O38 1.263 . S
O37 Co34 1.970 . S
O37 C36 1.258 . S
O38 Co35 1.966 . S
O38 C36 1.263 . S
C39 O40 1.235 . S
C39 O66 1.289 . S
O40 C39 1.235 . S
C41 C43 1.400 . S
C41 N44 1.351 . S
C41 C46 1.501 . S
C42 C43 1.387 . S
C42 N45 1.341 . S
C43 C41 1.400 . S
C43 C42 1.387 . S
N44 Co35 2.022 . S
N44 C41 1.351 . S
N44 N45 1.365 . S
N45 C42 1.341 . S
N45 N44 1.365 . S
N45 H65 0.862 . S
C46 C41 1.501 . S
C46 H47 0.961 . S
C46 H48 0.961 . S
C46 H49 0.960 . S
H47 C46 0.961 . S
H48 C46 0.961 . S
H49 C46 0.960 . S
C50 N51 1.342 . S
C50 C54 1.401 . S
C50 C55 1.499 . S
N51 Co34 1.989 . S
N51 C50 1.342 . S
N51 N52 1.388 . S
N52 Co35 1.993 . S
N52 N51 1.388 . S
N52 C53 1.346 . S
C53 N52 1.346 . S
C53 C54 1.396 . S
C53 C63 1.510 . S
C54 C50 1.401 . S
C54 C53 1.396 . S
C55 C50 1.499 . S
C55 H56 0.959 . S
C55 H57 0.960 . S
C55 H58 0.961 . S
H56 C55 0.959 . S
H57 C55 0.960 . S
H58 C55 0.961 . S
O59 Co34 1.967 . S
O59 C67 1.258 . S
O60 Co35 1.941 . S
O60 C67 1.266 . S
H61 C63 0.959 . S
H62 C63 0.961 . S
C63 C53 1.510 . S
C63 H61 0.959 . S
C63 H62 0.961 . S
C63 H64 0.960 . S
H64 C63 0.960 . S
H65 N45 0.862 . S
O66 Co34 1.920 . S
O66 C39 1.289 . S
C67 O59 1.258 . S
C67 O60 1.266 . S
Co68 O71 1.970 . S
Co68 N85 1.989 . S
Co68 O93 1.967 . S
Co68 O100 1.920 . S
Co69 O72 1.966 . S
Co69 N78 2.022 . S
Co69 N86 1.993 . S
Co69 O94 1.941 . S
C70 O71 1.258 . S
C70 O72 1.263 . S
O71 Co68 1.970 . S
O71 C70 1.258 . S
O72 Co69 1.966 . S
O72 C70 1.263 . S
C73 O74 1.235 . S
C73 O100 1.289 . S
O74 C73 1.235 . S
C75 C77 1.400 . S
C75 N78 1.351 . S
C75 C80 1.501 . S
C76 C77 1.387 . S
C76 N79 1.341 . S
C77 C75 1.400 . S
C77 C76 1.387 . S
N78 Co69 2.022 . S
N78 C75 1.351 . S
N78 N79 1.365 . S
N79 C76 1.341 . S
N79 N78 1.365 . S
N79 H99 0.862 . S
C80 C75 1.501 . S
C80 H81 0.961 . S
C80 H82 0.961 . S
C80 H83 0.960 . S
H81 C80 0.961 . S
H82 C80 0.961 . S
H83 C80 0.960 . S
C84 N85 1.342 . S
C84 C88 1.401 . S
C84 C89 1.499 . S
N85 Co68 1.989 . S
N85 C84 1.342 . S
N85 N86 1.388 . S
N86 Co69 1.993 . S
N86 N85 1.388 . S
N86 C87 1.346 . S
C87 N86 1.346 . S
C87 C88 1.396 . S
C87 C97 1.510 . S
C88 C84 1.401 . S
C88 C87 1.396 . S
C89 C84 1.499 . S
C89 H90 0.959 . S
C89 H91 0.960 . S
C89 H92 0.961 . S
H90 C89 0.959 . S
H91 C89 0.960 . S
H92 C89 0.961 . S
O93 Co68 1.967 . S
O93 C101 1.258 . S
O94 Co69 1.941 . S
O94 C101 1.266 . S
H95 C97 0.959 . S
H96 C97 0.961 . S
C97 C87 1.510 . S
C97 H95 0.959 . S
C97 H96 0.961 . S
C97 H98 0.960 . S
H98 C97 0.960 . S
H99 N79 0.862 . S
O100 Co68 1.920 . S
O100 C73 1.289 . S
C101 O93 1.258 . S
C101 O94 1.266 . S
Co102 O105 1.970 . S
Co102 N119 1.989 . S
Co102 O127 1.967 . S
Co102 O134 1.920 . S
Co103 O106 1.966 . S
Co103 N112 2.022 . S
Co103 N120 1.993 . S
Co103 O128 1.941 . S
C104 O105 1.258 . S
C104 O106 1.263 . S
O105 Co102 1.970 . S
O105 C104 1.258 . S
O106 Co103 1.966 . S
O106 C104 1.263 . S
C107 O108 1.235 . S
C107 O134 1.289 . S
O108 C107 1.235 . S
C109 C111 1.400 . S
C109 N112 1.351 . S
C109 C114 1.501 . S
C110 C111 1.387 . S
C110 N113 1.341 . S
C111 C109 1.400 . S
C111 C110 1.387 . S
N112 Co103 2.022 . S
N112 C109 1.351 . S
N112 N113 1.365 . S
N113 C110 1.341 . S
N113 N112 1.365 . S
N113 H133 0.862 . S
C114 C109 1.501 . S
C114 H115 0.961 . S
C114 H116 0.961 . S
C114 H117 0.960 . S
H115 C114 0.961 . S
H116 C114 0.961 . S
H117 C114 0.960 . S
C118 N119 1.342 . S
C118 C122 1.401 . S
C118 C123 1.499 . S
N119 Co102 1.989 . S
N119 C118 1.342 . S
N119 N120 1.388 . S
N120 Co103 1.993 . S
N120 N119 1.388 . S
N120 C121 1.346 . S
C121 N120 1.346 . S
C121 C122 1.396 . S
C121 C131 1.510 . S
C122 C118 1.401 . S
C122 C121 1.396 . S
C123 C118 1.499 . S
C123 H124 0.959 . S
C123 H125 0.960 . S
C123 H126 0.961 . S
H124 C123 0.959 . S
H125 C123 0.960 . S
H126 C123 0.961 . S
O127 Co102 1.967 . S
O127 C135 1.258 . S
O128 Co103 1.941 . S
O128 C135 1.266 . S
H129 C131 0.959 . S
H130 C131 0.961 . S
C131 C121 1.510 . S
C131 H129 0.959 . S
C131 H130 0.961 . S
C131 H132 0.960 . S
H132 C131 0.960 . S
H133 N113 0.862 . S
O134 Co102 1.920 . S
O134 C107 1.289 . S
C135 O127 1.258 . S
C135 O128 1.266 . S
Co136 O139 1.970 . S
Co136 N153 1.989 . S
Co136 O161 1.967 . S
Co136 O168 1.920 . S
Co137 O140 1.966 . S
Co137 N146 2.022 . S
Co137 N154 1.993 . S
Co137 O162 1.941 . S
C138 O139 1.258 . S
C138 O140 1.263 . S
O139 Co136 1.970 . S
O139 C138 1.258 . S
O140 Co137 1.966 . S
O140 C138 1.263 . S
C141 O142 1.235 . S
C141 O168 1.289 . S
O142 C141 1.235 . S
C143 C145 1.400 . S
C143 N146 1.351 . S
C143 C148 1.501 . S
C144 C145 1.387 . S
C144 N147 1.341 . S
C145 C143 1.400 . S
C145 C144 1.387 . S
N146 Co137 2.022 . S
N146 C143 1.351 . S
N146 N147 1.365 . S
N147 C144 1.341 . S
N147 N146 1.365 . S
N147 H167 0.862 . S
C148 C143 1.501 . S
C148 H149 0.961 . S
C148 H150 0.961 . S
C148 H151 0.960 . S
H149 C148 0.961 . S
H150 C148 0.961 . S
H151 C148 0.960 . S
C152 N153 1.342 . S
C152 C156 1.401 . S
C152 C157 1.499 . S
N153 Co136 1.989 . S
N153 C152 1.342 . S
N153 N154 1.388 . S
N154 Co137 1.993 . S
N154 N153 1.388 . S
N154 C155 1.346 . S
C155 N154 1.346 . S
C155 C156 1.396 . S
C155 C165 1.510 . S
C156 C152 1.401 . S
C156 C155 1.396 . S
C157 C152 1.499 . S
C157 H158 0.959 . S
C157 H159 0.960 . S
C157 H160 0.961 . S
H158 C157 0.959 . S
H159 C157 0.960 . S
H160 C157 0.961 . S
O161 Co136 1.967 . S
O161 C169 1.258 . S
O162 Co137 1.941 . S
O162 C169 1.266 . S
H163 C165 0.959 . S
H164 C165 0.961 . S
C165 C155 1.510 . S
C165 H163 0.959 . S
C165 H164 0.961 . S
C165 H166 0.960 . S
H166 C165 0.960 . S
H167 N147 0.862 . S
O168 Co136 1.920 . S
O168 C141 1.289 . S
C169 O161 1.258 . S
C169 O162 1.266 . S
Co170 O173 1.970 . S
Co170 N187 1.989 . S
Co170 O195 1.967 . S
Co170 O202 1.920 . S
Co171 O174 1.966 . S
Co171 N180 2.022 . S
Co171 N188 1.993 . S
Co171 O196 1.941 . S
C172 O173 1.258 . S
C172 O174 1.263 . S
O173 Co170 1.970 . S
O173 C172 1.258 . S
O174 Co171 1.966 . S
O174 C172 1.263 . S
C175 O176 1.235 . S
C175 O202 1.289 . S
O176 C175 1.235 . S
C177 C179 1.400 . S
C177 N180 1.351 . S
C177 C182 1.501 . S
C178 C179 1.387 . S
C178 N181 1.341 . S
C179 C177 1.400 . S
C179 C178 1.387 . S
N180 Co171 2.022 . S
N180 C177 1.351 . S
N180 N181 1.365 . S
N181 C178 1.341 . S
N181 N180 1.365 . S
N181 H201 0.862 . S
C182 C177 1.501 . S
C182 H183 0.961 . S
C182 H184 0.961 . S
C182 H185 0.960 . S
H183 C182 0.961 . S
H184 C182 0.961 . S
H185 C182 0.960 . S
C186 N187 1.342 . S
C186 C190 1.401 . S
C186 C191 1.499 . S
N187 Co170 1.989 . S
N187 C186 1.342 . S
N187 N188 1.388 . S
N188 Co171 1.993 . S
N188 N187 1.388 . S
N188 C189 1.346 . S
C189 N188 1.346 . S
C189 C190 1.396 . S
C189 C199 1.510 . S
C190 C186 1.401 . S
C190 C189 1.396 . S
C191 C186 1.499 . S
C191 H192 0.959 . S
C191 H193 0.960 . S
C191 H194 0.961 . S
H192 C191 0.959 . S
H193 C191 0.960 . S
H194 C191 0.961 . S
O195 Co170 1.967 . S
O195 C203 1.258 . S
O196 Co171 1.941 . S
O196 C203 1.266 . S
H197 C199 0.959 . S
H198 C199 0.961 . S
C199 C189 1.510 . S
C199 H197 0.959 . S
C199 H198 0.961 . S
C199 H200 0.960 . S
H200 C199 0.960 . S
H201 N181 0.862 . S
O202 Co170 1.920 . S
O202 C175 1.289 . S
C203 O195 1.258 . S
C203 O196 1.266 . S
Co204 O207 1.970 . S
Co204 N221 1.989 . S
Co204 O229 1.967 . S
Co204 O236 1.920 . S
Co205 O208 1.966 . S
Co205 N214 2.022 . S
Co205 N222 1.993 . S
Co205 O230 1.941 . S
C206 O207 1.258 . S
C206 O208 1.263 . S
O207 Co204 1.970 . S
O207 C206 1.258 . S
O208 Co205 1.966 . S
O208 C206 1.263 . S
C209 O210 1.235 . S
C209 O236 1.289 . S
O210 C209 1.235 . S
C211 C213 1.400 . S
C211 N214 1.351 . S
C211 C216 1.501 . S
C212 C213 1.387 . S
C212 N215 1.341 . S
C213 C211 1.400 . S
C213 C212 1.387 . S
N214 Co205 2.022 . S
N214 C211 1.351 . S
N214 N215 1.365 . S
N215 C212 1.341 . S
N215 N214 1.365 . S
N215 H235 0.862 . S
C216 C211 1.501 . S
C216 H217 0.961 . S
C216 H218 0.961 . S
C216 H219 0.960 . S
H217 C216 0.961 . S
H218 C216 0.961 . S
H219 C216 0.960 . S
C220 N221 1.342 . S
C220 C224 1.401 . S
C220 C225 1.499 . S
N221 Co204 1.989 . S
N221 C220 1.342 . S
N221 N222 1.388 . S
N222 Co205 1.993 . S
N222 N221 1.388 . S
N222 C223 1.346 . S
C223 N222 1.346 . S
C223 C224 1.396 . S
C223 C233 1.510 . S
C224 C220 1.401 . S
C224 C223 1.396 . S
C225 C220 1.499 . S
C225 H226 0.959 . S
C225 H227 0.960 . S
C225 H228 0.961 . S
H226 C225 0.959 . S
H227 C225 0.960 . S
H228 C225 0.961 . S
O229 Co204 1.967 . S
O229 C237 1.258 . S
O230 Co205 1.941 . S
O230 C237 1.266 . S
H231 C233 0.959 . S
H232 C233 0.961 . S
C233 C223 1.510 . S
C233 H231 0.959 . S
C233 H232 0.961 . S
C233 H234 0.960 . S
H234 C233 0.960 . S
H235 N215 0.862 . S
O236 Co204 1.920 . S
O236 C209 1.289 . S
C237 O229 1.258 . S
C237 O230 1.266 . S
Co238 O241 1.970 . S
Co238 N255 1.989 . S
Co238 O263 1.967 . S
Co238 O270 1.920 . S
Co239 O242 1.966 . S
Co239 N248 2.022 . S
Co239 N256 1.993 . S
Co239 O264 1.941 . S
C240 O241 1.258 . S
C240 O242 1.263 . S
O241 Co238 1.970 . S
O241 C240 1.258 . S
O242 Co239 1.966 . S
O242 C240 1.263 . S
C243 O244 1.235 . S
C243 O270 1.289 . S
O244 C243 1.235 . S
C245 C247 1.400 . S
C245 N248 1.351 . S
C245 C250 1.501 . S
C246 C247 1.387 . S
C246 N249 1.341 . S
C247 C245 1.400 . S
C247 C246 1.387 . S
N248 Co239 2.022 . S
N248 C245 1.351 . S
N248 N249 1.365 . S
N249 C246 1.341 . S
N249 N248 1.365 . S
N249 H269 0.862 . S
C250 C245 1.501 . S
C250 H251 0.961 . S
C250 H252 0.961 . S
C250 H253 0.960 . S
H251 C250 0.961 . S
H252 C250 0.961 . S
H253 C250 0.960 . S
C254 N255 1.342 . S
C254 C258 1.401 . S
C254 C259 1.499 . S
N255 Co238 1.989 . S
N255 C254 1.342 . S
N255 N256 1.388 . S
N256 Co239 1.993 . S
N256 N255 1.388 . S
N256 C257 1.346 . S
C257 N256 1.346 . S
C257 C258 1.396 . S
C257 C267 1.510 . S
C258 C254 1.401 . S
C258 C257 1.396 . S
C259 C254 1.499 . S
C259 H260 0.959 . S
C259 H261 0.960 . S
C259 H262 0.961 . S
H260 C259 0.959 . S
H261 C259 0.960 . S
H262 C259 0.961 . S
O263 Co238 1.967 . S
O263 C271 1.258 . S
O264 Co239 1.941 . S
O264 C271 1.266 . S
H265 C267 0.959 . S
H266 C267 0.961 . S
C267 C257 1.510 . S
C267 H265 0.959 . S
C267 H266 0.961 . S
C267 H268 0.960 . S
H268 C267 0.960 . S
H269 N249 0.862 . S
O270 Co238 1.920 . S
O270 C243 1.289 . S
C271 O263 1.258 . S
C271 O264 1.266 . S
Co272 O275 1.970 . S
Co272 N289 1.989 . S
Co272 O297 1.967 . S
Co272 O304 1.920 . S
Co273 O276 1.966 . S
Co273 N282 2.022 . S
Co273 N290 1.993 . S
Co273 O298 1.941 . S
C274 O275 1.258 . S
C274 O276 1.263 . S
O275 Co272 1.970 . S
O275 C274 1.258 . S
O276 Co273 1.966 . S
O276 C274 1.263 . S
C277 O278 1.235 . S
C277 O304 1.289 . S
O278 C277 1.235 . S
C279 C281 1.400 . S
C279 N282 1.351 . S
C279 C284 1.501 . S
C280 C281 1.387 . S
C280 N283 1.341 . S
C281 C279 1.400 . S
C281 C280 1.387 . S
N282 Co273 2.022 . S
N282 C279 1.351 . S
N282 N283 1.365 . S
N283 C280 1.341 . S
N283 N282 1.365 . S
N283 H303 0.862 . S
C284 C279 1.501 . S
C284 H285 0.961 . S
C284 H286 0.961 . S
C284 H287 0.960 . S
H285 C284 0.961 . S
H286 C284 0.961 . S
H287 C284 0.960 . S
C288 N289 1.342 . S
C288 C292 1.401 . S
C288 C293 1.499 . S
N289 Co272 1.989 . S
N289 C288 1.342 . S
N289 N290 1.388 . S
N290 Co273 1.993 . S
N290 N289 1.388 . S
N290 C291 1.346 . S
C291 N290 1.346 . S
C291 C292 1.396 . S
C291 C301 1.510 . S
C292 C288 1.401 . S
C292 C291 1.396 . S
C293 C288 1.499 . S
C293 H294 0.959 . S
C293 H295 0.960 . S
C293 H296 0.961 . S
H294 C293 0.959 . S
H295 C293 0.960 . S
H296 C293 0.961 . S
O297 Co272 1.967 . S
O297 C305 1.258 . S
O298 Co273 1.941 . S
O298 C305 1.266 . S
H299 C301 0.959 . S
H300 C301 0.961 . S
C301 C291 1.510 . S
C301 H299 0.959 . S
C301 H300 0.961 . S
C301 H302 0.960 . S
H302 C301 0.960 . S
H303 N283 0.862 . S
O304 Co272 1.920 . S
O304 C277 1.289 . S
C305 O297 1.258 . S
C305 O298 1.266 . S
Co306 O309 1.970 . S
Co306 N323 1.989 . S
Co306 O331 1.967 . S
Co306 O338 1.920 . S
Co307 O310 1.966 . S
Co307 N316 2.022 . S
Co307 N324 1.993 . S
Co307 O332 1.941 . S
C308 O309 1.258 . S
C308 O310 1.263 . S
O309 Co306 1.970 . S
O309 C308 1.258 . S
O310 Co307 1.966 . S
O310 C308 1.263 . S
C311 O312 1.235 . S
C311 O338 1.289 . S
O312 C311 1.235 . S
C313 C315 1.400 . S
C313 N316 1.351 . S
C313 C318 1.501 . S
C314 C315 1.387 . S
C314 N317 1.341 . S
C315 C313 1.400 . S
C315 C314 1.387 . S
N316 Co307 2.022 . S
N316 C313 1.351 . S
N316 N317 1.365 . S
N317 C314 1.341 . S
N317 N316 1.365 . S
N317 H337 0.862 . S
C318 C313 1.501 . S
C318 H319 0.961 . S
C318 H320 0.961 . S
C318 H321 0.960 . S
H319 C318 0.961 . S
H320 C318 0.961 . S
H321 C318 0.960 . S
C322 N323 1.342 . S
C322 C326 1.401 . S
C322 C327 1.499 . S
N323 Co306 1.989 . S
N323 C322 1.342 . S
N323 N324 1.388 . S
N324 Co307 1.993 . S
N324 N323 1.388 . S
N324 C325 1.346 . S
C325 N324 1.346 . S
C325 C326 1.396 . S
C325 C335 1.510 . S
C326 C322 1.401 . S
C326 C325 1.396 . S
C327 C322 1.499 . S
C327 H328 0.959 . S
C327 H329 0.960 . S
C327 H330 0.961 . S
H328 C327 0.959 . S
H329 C327 0.960 . S
H330 C327 0.961 . S
O331 Co306 1.967 . S
O331 C339 1.258 . S
O332 Co307 1.941 . S
O332 C339 1.266 . S
H333 C335 0.959 . S
H334 C335 0.961 . S
C335 C325 1.510 . S
C335 H333 0.959 . S
C335 H334 0.961 . S
C335 H336 0.960 . S
H336 C335 0.960 . S
H337 N317 0.862 . S
O338 Co306 1.920 . S
O338 C311 1.289 . S
C339 O331 1.258 . S
C339 O332 1.266 . S
Co340 O343 1.970 . S
Co340 N357 1.989 . S
Co340 O365 1.967 . S
Co340 O372 1.920 . S
Co341 O344 1.966 . S
Co341 N350 2.022 . S
Co341 N358 1.993 . S
Co341 O366 1.941 . S
C342 O343 1.258 . S
C342 O344 1.263 . S
O343 Co340 1.970 . S
O343 C342 1.258 . S
O344 Co341 1.966 . S
O344 C342 1.263 . S
C345 O346 1.235 . S
C345 O372 1.289 . S
O346 C345 1.235 . S
C347 C349 1.400 . S
C347 N350 1.351 . S
C347 C352 1.501 . S
C348 C349 1.387 . S
C348 N351 1.341 . S
C349 C347 1.400 . S
C349 C348 1.387 . S
N350 Co341 2.022 . S
N350 C347 1.351 . S
N350 N351 1.365 . S
N351 C348 1.341 . S
N351 N350 1.365 . S
N351 H371 0.862 . S
C352 C347 1.501 . S
C352 H353 0.961 . S
C352 H354 0.961 . S
C352 H355 0.960 . S
H353 C352 0.961 . S
H354 C352 0.961 . S
H355 C352 0.960 . S
C356 N357 1.342 . S
C356 C360 1.401 . S
C356 C361 1.499 . S
N357 Co340 1.989 . S
N357 C356 1.342 . S
N357 N358 1.388 . S
N358 Co341 1.993 . S
N358 N357 1.388 . S
N358 C359 1.346 . S
C359 N358 1.346 . S
C359 C360 1.396 . S
C359 C369 1.510 . S
C360 C356 1.401 . S
C360 C359 1.396 . S
C361 C356 1.499 . S
C361 H362 0.959 . S
C361 H363 0.960 . S
C361 H364 0.961 . S
H362 C361 0.959 . S
H363 C361 0.960 . S
H364 C361 0.961 . S
O365 Co340 1.967 . S
O365 C373 1.258 . S
O366 Co341 1.941 . S
O366 C373 1.266 . S
H367 C369 0.959 . S
H368 C369 0.961 . S
C369 C359 1.510 . S
C369 H367 0.959 . S
C369 H368 0.961 . S
C369 H370 0.960 . S
H370 C369 0.960 . S
H371 N351 0.862 . S
O372 Co340 1.920 . S
O372 C345 1.289 . S
C373 O365 1.258 . S
C373 O366 1.266 . S
Co374 O377 1.970 . S
Co374 N391 1.989 . S
Co374 O399 1.967 . S
Co374 O406 1.920 . S
Co375 O378 1.966 . S
Co375 N384 2.022 . S
Co375 N392 1.993 . S
Co375 O400 1.941 . S
C376 O377 1.258 . S
C376 O378 1.263 . S
O377 Co374 1.970 . S
O377 C376 1.258 . S
O378 Co375 1.966 . S
O378 C376 1.263 . S
C379 O380 1.235 . S
C379 O406 1.289 . S
O380 C379 1.235 . S
C381 C383 1.400 . S
C381 N384 1.351 . S
C381 C386 1.501 . S
C382 C383 1.387 . S
C382 N385 1.341 . S
C383 C381 1.400 . S
C383 C382 1.387 . S
N384 Co375 2.022 . S
N384 C381 1.351 . S
N384 N385 1.365 . S
N385 C382 1.341 . S
N385 N384 1.365 . S
N385 H405 0.862 . S
C386 C381 1.501 . S
C386 H387 0.961 . S
C386 H388 0.961 . S
C386 H389 0.960 . S
H387 C386 0.961 . S
H388 C386 0.961 . S
H389 C386 0.960 . S
C390 N391 1.342 . S
C390 C394 1.401 . S
C390 C395 1.499 . S
N391 Co374 1.989 . S
N391 C390 1.342 . S
N391 N392 1.388 . S
N392 Co375 1.993 . S
N392 N391 1.388 . S
N392 C393 1.346 . S
C393 N392 1.346 . S
C393 C394 1.396 . S
C393 C403 1.510 . S
C394 C390 1.401 . S
C394 C393 1.396 . S
C395 C390 1.499 . S
C395 H396 0.959 . S
C395 H397 0.960 . S
C395 H398 0.961 . S
H396 C395 0.959 . S
H397 C395 0.960 . S
H398 C395 0.961 . S
O399 Co374 1.967 . S
O399 C407 1.258 . S
O400 Co375 1.941 . S
O400 C407 1.266 . S
H401 C403 0.959 . S
H402 C403 0.961 . S
C403 C393 1.510 . S
C403 H401 0.959 . S
C403 H402 0.961 . S
C403 H404 0.960 . S
H404 C403 0.960 . S
H405 N385 0.862 . S
O406 Co374 1.920 . S
O406 C379 1.289 . S
C407 O399 1.258 . S
C407 O400 1.266 . S
Co408 O411 1.970 . S
Co408 N425 1.989 . S
Co408 O433 1.967 . S
Co408 O440 1.920 . S
Co409 O412 1.966 . S
Co409 N418 2.022 . S
Co409 N426 1.993 . S
Co409 O434 1.941 . S
C410 O411 1.258 . S
C410 O412 1.263 . S
O411 Co408 1.970 . S
O411 C410 1.258 . S
O412 Co409 1.966 . S
O412 C410 1.263 . S
C413 O414 1.235 . S
C413 O440 1.289 . S
O414 C413 1.235 . S
C415 C417 1.400 . S
C415 N418 1.351 . S
C415 C420 1.501 . S
C416 C417 1.387 . S
C416 N419 1.341 . S
C417 C415 1.400 . S
C417 C416 1.387 . S
N418 Co409 2.022 . S
N418 C415 1.351 . S
N418 N419 1.365 . S
N419 C416 1.341 . S
N419 N418 1.365 . S
N419 H439 0.862 . S
C420 C415 1.501 . S
C420 H421 0.961 . S
C420 H422 0.961 . S
C420 H423 0.960 . S
H421 C420 0.961 . S
H422 C420 0.961 . S
H423 C420 0.960 . S
C424 N425 1.342 . S
C424 C428 1.401 . S
C424 C429 1.499 . S
N425 Co408 1.989 . S
N425 C424 1.342 . S
N425 N426 1.388 . S
N426 Co409 1.993 . S
N426 N425 1.388 . S
N426 C427 1.346 . S
C427 N426 1.346 . S
C427 C428 1.396 . S
C427 C437 1.510 . S
C428 C424 1.401 . S
C428 C427 1.396 . S
C429 C424 1.499 . S
C429 H430 0.959 . S
C429 H431 0.960 . S
C429 H432 0.961 . S
H430 C429 0.959 . S
H431 C429 0.960 . S
H432 C429 0.961 . S
O433 Co408 1.967 . S
O433 C441 1.258 . S
O434 Co409 1.941 . S
O434 C441 1.266 . S
H435 C437 0.959 . S
H436 C437 0.961 . S
C437 C427 1.510 . S
C437 H435 0.959 . S
C437 H436 0.961 . S
C437 H438 0.960 . S
H438 C437 0.960 . S
H439 N419 0.862 . S
O440 Co408 1.920 . S
O440 C413 1.289 . S
C441 O433 1.258 . S
C441 O434 1.266 . S
Co442 O445 1.970 . S
Co442 N459 1.989 . S
Co442 O467 1.967 . S
Co442 O474 1.920 . S
Co443 O446 1.966 . S
Co443 N452 2.022 . S
Co443 N460 1.993 . S
Co443 O468 1.941 . S
C444 O445 1.258 . S
C444 O446 1.263 . S
O445 Co442 1.970 . S
O445 C444 1.258 . S
O446 Co443 1.966 . S
O446 C444 1.263 . S
C447 O448 1.235 . S
C447 O474 1.289 . S
O448 C447 1.235 . S
C449 C451 1.400 . S
C449 N452 1.351 . S
C449 C454 1.501 . S
C450 C451 1.387 . S
C450 N453 1.341 . S
C451 C449 1.400 . S
C451 C450 1.387 . S
N452 Co443 2.022 . S
N452 C449 1.351 . S
N452 N453 1.365 . S
N453 C450 1.341 . S
N453 N452 1.365 . S
N453 H473 0.862 . S
C454 C449 1.501 . S
C454 H455 0.961 . S
C454 H456 0.961 . S
C454 H457 0.960 . S
H455 C454 0.961 . S
H456 C454 0.961 . S
H457 C454 0.960 . S
C458 N459 1.342 . S
C458 C462 1.401 . S
C458 C463 1.499 . S
N459 Co442 1.989 . S
N459 C458 1.342 . S
N459 N460 1.388 . S
N460 Co443 1.993 . S
N460 N459 1.388 . S
N460 C461 1.346 . S
C461 N460 1.346 . S
C461 C462 1.396 . S
C461 C471 1.510 . S
C462 C458 1.401 . S
C462 C461 1.396 . S
C463 C458 1.499 . S
C463 H464 0.959 . S
C463 H465 0.960 . S
C463 H466 0.961 . S
H464 C463 0.959 . S
H465 C463 0.960 . S
H466 C463 0.961 . S
O467 Co442 1.967 . S
O467 C475 1.258 . S
O468 Co443 1.941 . S
O468 C475 1.266 . S
H469 C471 0.959 . S
H470 C471 0.961 . S
C471 C461 1.510 . S
C471 H469 0.959 . S
C471 H470 0.961 . S
C471 H472 0.960 . S
H472 C471 0.960 . S
H473 N453 0.862 . S
O474 Co442 1.920 . S
O474 C447 1.289 . S
C475 O467 1.258 . S
C475 O468 1.266 . S
Co476 O479 1.970 . S
Co476 N493 1.989 . S
Co476 O501 1.967 . S
Co476 O508 1.920 . S
Co477 O480 1.966 . S
Co477 N486 2.022 . S
Co477 N494 1.993 . S
Co477 O502 1.941 . S
C478 O479 1.258 . S
C478 O480 1.263 . S
O479 Co476 1.970 . S
O479 C478 1.258 . S
O480 Co477 1.966 . S
O480 C478 1.263 . S
C481 O482 1.235 . S
C481 O508 1.289 . S
O482 C481 1.235 . S
C483 C485 1.400 . S
C483 N486 1.351 . S
C483 C488 1.501 . S
C484 C485 1.387 . S
C484 N487 1.341 . S
C485 C483 1.400 . S
C485 C484 1.387 . S
N486 Co477 2.022 . S
N486 C483 1.351 . S
N486 N487 1.365 . S
N487 C484 1.341 . S
N487 N486 1.365 . S
N487 H507 0.862 . S
C488 C483 1.501 . S
C488 H489 0.961 . S
C488 H490 0.961 . S
C488 H491 0.960 . S
H489 C488 0.961 . S
H490 C488 0.961 . S
H491 C488 0.960 . S
C492 N493 1.342 . S
C492 C496 1.401 . S
C492 C497 1.499 . S
N493 Co476 1.989 . S
N493 C492 1.342 . S
N493 N494 1.388 . S
N494 Co477 1.993 . S
N494 N493 1.388 . S
N494 C495 1.346 . S
C495 N494 1.346 . S
C495 C496 1.396 . S
C495 C505 1.510 . S
C496 C492 1.401 . S
C496 C495 1.396 . S
C497 C492 1.499 . S
C497 H498 0.959 . S
C497 H499 0.960 . S
C497 H500 0.961 . S
H498 C497 0.959 . S
H499 C497 0.960 . S
H500 C497 0.961 . S
O501 Co476 1.967 . S
O501 C509 1.258 . S
O502 Co477 1.941 . S
O502 C509 1.266 . S
H503 C505 0.959 . S
H504 C505 0.961 . S
C505 C495 1.510 . S
C505 H503 0.959 . S
C505 H504 0.961 . S
C505 H506 0.960 . S
H506 C505 0.960 . S
H507 N487 0.862 . S
O508 Co476 1.920 . S
O508 C481 1.289 . S
C509 O501 1.258 . S
C509 O502 1.266 . S
Co510 O513 1.970 . S
Co510 N527 1.989 . S
Co510 O535 1.967 . S
Co510 O542 1.920 . S
Co511 O514 1.966 . S
Co511 N520 2.022 . S
Co511 N528 1.993 . S
Co511 O536 1.941 . S
C512 O513 1.258 . S
C512 O514 1.263 . S
O513 Co510 1.970 . S
O513 C512 1.258 . S
O514 Co511 1.966 . S
O514 C512 1.263 . S
C515 O516 1.235 . S
C515 O542 1.289 . S
O516 C515 1.235 . S
C517 C519 1.400 . S
C517 N520 1.351 . S
C517 C522 1.501 . S
C518 C519 1.387 . S
C518 N521 1.341 . S
C519 C517 1.400 . S
C519 C518 1.387 . S
N520 Co511 2.022 . S
N520 C517 1.351 . S
N520 N521 1.365 . S
N521 C518 1.341 . S
N521 N520 1.365 . S
N521 H541 0.862 . S
C522 C517 1.501 . S
C522 H523 0.961 . S
C522 H524 0.961 . S
C522 H525 0.960 . S
H523 C522 0.961 . S
H524 C522 0.961 . S
H525 C522 0.960 . S
C526 N527 1.342 . S
C526 C530 1.401 . S
C526 C531 1.499 . S
N527 Co510 1.989 . S
N527 C526 1.342 . S
N527 N528 1.388 . S
N528 Co511 1.993 . S
N528 N527 1.388 . S
N528 C529 1.346 . S
C529 N528 1.346 . S
C529 C530 1.396 . S
C529 C539 1.510 . S
C530 C526 1.401 . S
C530 C529 1.396 . S
C531 C526 1.499 . S
C531 H532 0.959 . S
C531 H533 0.960 . S
C531 H534 0.961 . S
H532 C531 0.959 . S
H533 C531 0.960 . S
H534 C531 0.961 . S
O535 Co510 1.967 . S
O535 C543 1.258 . S
O536 Co511 1.941 . S
O536 C543 1.266 . S
H537 C539 0.959 . S
H538 C539 0.961 . S
C539 C529 1.510 . S
C539 H537 0.959 . S
C539 H538 0.961 . S
C539 H540 0.960 . S
H540 C539 0.960 . S
H541 N521 0.862 . S
O542 Co510 1.920 . S
O542 C515 1.289 . S
C543 O535 1.258 . S
C543 O536 1.266 . S
C544 C545 1.387 . S
C544 H548 0.950 . S
C544 C553 1.390 1_655 S
C545 C544 1.387 . S
C545 C547 1.387 . S
H546 C553 0.950 . S
C547 C545 1.387 . S
C547 C549 1.390 1_655 S
C547 H551 0.950 . S
H548 C544 0.950 . S
C549 C547 1.390 1_455 S
C549 C550 1.387 . S
C549 H552 0.950 . S
C550 C549 1.387 . S
C550 C553 1.387 . S
H551 C547 0.950 . S
H552 C549 0.950 . S
C553 C544 1.390 1_455 S
C553 H546 0.950 . S
C553 C550 1.387 . S
C554 C555 1.387 . S
C554 H558 0.950 . S
C554 C563 1.390 1_545 S
C555 C554 1.387 . S
C555 C557 1.387 . S
H556 C563 0.950 . S
C557 C555 1.387 . S
C557 C559 1.390 1_545 S
C557 H561 0.950 . S
H558 C554 0.950 . S
C559 C557 1.390 1_565 S
C559 C560 1.387 . S
C559 H562 0.950 . S
C560 C559 1.387 . S
C560 C563 1.387 . S
H561 C557 0.950 . S
H562 C559 0.950 . S
C563 C554 1.390 1_565 S
C563 H556 0.950 . S
C563 C560 1.387 . S
C564 C565 1.387 . S
C564 H568 0.950 . S
C564 C573 1.390 1_655 S
C565 C564 1.387 . S
C565 C567 1.387 . S
H566 C573 0.950 . S
C567 C565 1.387 . S
C567 C569 1.390 1_655 S
C567 H571 0.950 . S
H568 C564 0.950 . S
C569 C567 1.390 1_455 S
C569 C570 1.387 . S
C569 H572 0.950 . S
C570 C569 1.387 . S
C570 C573 1.387 . S
H571 C567 0.950 . S
H572 C569 0.950 . S
C573 C564 1.390 1_455 S
C573 H566 0.950 . S
C573 C570 1.387 . S
C574 C575 1.387 . S
C574 H578 0.950 . S
C574 C583 1.390 1_565 S
C575 C574 1.387 . S
C575 C577 1.387 . S
H576 C583 0.950 . S
C577 C575 1.387 . S
C577 C579 1.390 1_565 S
C577 H581 0.950 . S
H578 C574 0.950 . S
C579 C577 1.390 1_545 S
C579 C580 1.387 . S
C579 H582 0.950 . S
C580 C579 1.387 . S
C580 C583 1.387 . S
H581 C577 0.950 . S
H582 C579 0.950 . S
C583 C574 1.390 1_545 S
C583 H576 0.950 . S
C583 C580 1.387 . S
C584 C585 1.387 . S
C584 H588 0.950 . S
C584 C593 1.390 1_655 S
C585 C584 1.387 . S
C585 C587 1.387 . S
H586 C593 0.950 . S
C587 C585 1.387 . S
C587 C589 1.390 1_655 S
C587 H591 0.950 . S
H588 C584 0.950 . S
C589 C587 1.390 1_455 S
C589 C590 1.387 . S
C589 H592 0.950 . S
C590 C589 1.387 . S
C590 C593 1.387 . S
H591 C587 0.950 . S
H592 C589 0.950 . S
C593 C584 1.390 1_455 S
C593 H586 0.950 . S
C593 C590 1.387 . S
C594 C595 1.387 . S
C594 H598 0.950 . S
C594 C603 1.390 1_565 S
C595 C594 1.387 . S
C595 C597 1.387 . S
H596 C603 0.950 . S
C597 C595 1.387 . S
C597 C599 1.390 1_565 S
C597 H601 0.950 . S
H598 C594 0.950 . S
C599 C597 1.390 1_545 S
C599 C600 1.387 . S
C599 H602 0.950 . S
C600 C599 1.387 . S
C600 C603 1.387 . S
H601 C597 0.950 . S
H602 C599 0.950 . S
C603 C594 1.390 1_545 S
C603 H596 0.950 . S
C603 C600 1.387 . S
C604 C605 1.387 . S
C604 H608 0.950 . S
C604 C613 1.390 1_655 S
C605 C604 1.387 . S
C605 C607 1.387 . S
H606 C613 0.950 . S
C607 C605 1.387 . S
C607 C609 1.390 1_655 S
C607 H611 0.950 . S
H608 C604 0.950 . S
C609 C607 1.390 1_455 S
C609 C610 1.387 . S
C609 H612 0.950 . S
C610 C609 1.387 . S
C610 C613 1.387 . S
H611 C607 0.950 . S
H612 C609 0.950 . S
C613 C604 1.390 1_455 S
C613 H606 0.950 . S
C613 C610 1.387 . S
C614 C615 1.387 . S
C614 H618 0.950 . S
C614 C623 1.390 1_545 S
C615 C614 1.387 . S
C615 C617 1.387 . S
H616 C623 0.950 . S
C617 C615 1.387 . S
C617 C619 1.390 1_545 S
C617 H621 0.950 . S
H618 C614 0.950 . S
C619 C617 1.390 1_565 S
C619 C620 1.387 . S
C619 H622 0.950 . S
C620 C619 1.387 . S
C620 C623 1.387 . S
H621 C617 0.950 . S
H622 C619 0.950 . S
C623 C614 1.390 1_565 S
C623 H616 0.950 . S
C623 C620 1.387 . S
C624 C625 1.387 . S
C624 H628 0.950 . S
C624 C633 1.390 . S
C625 C624 1.387 . S
C625 C627 1.387 . S
H626 C633 0.950 . S
C627 C625 1.387 . S
C627 C629 1.390 . S
C627 H631 0.950 . S
H628 C624 0.950 . S
C629 C627 1.390 . S
C629 C630 1.387 . S
C629 H632 0.950 . S
C630 C629 1.387 . S
C630 C633 1.387 . S
H631 C627 0.950 . S
H632 C629 0.950 . S
C633 C624 1.390 . S
C633 H626 0.950 . S
C633 C630 1.387 . S
C634 C635 1.387 . S
C634 H638 0.950 . S
C634 C643 1.390 . S
C635 C634 1.387 . S
C635 C637 1.387 . S
H636 C643 0.950 . S
C637 C635 1.387 . S
C637 C639 1.390 . S
C637 H641 0.950 . S
H638 C634 0.950 . S
C639 C637 1.390 . S
C639 C640 1.387 . S
C639 H642 0.950 . S
C640 C639 1.387 . S
C640 C643 1.387 . S
H641 C637 0.950 . S
H642 C639 0.950 . S
C643 C634 1.390 . S
C643 H636 0.950 . S
C643 C640 1.387 . S
C644 C645 1.387 . S
C644 H648 0.950 . S
C644 C653 1.390 . S
C645 C644 1.387 . S
C645 C647 1.387 . S
H646 C653 0.950 . S
C647 C645 1.387 . S
C647 C649 1.390 . S
C647 H651 0.950 . S
H648 C644 0.950 . S
C649 C647 1.390 . S
C649 C650 1.387 . S
C649 H652 0.950 . S
C650 C649 1.387 . S
C650 C653 1.387 . S
H651 C647 0.950 . S
H652 C649 0.950 . S
C653 C644 1.390 . S
C653 H646 0.950 . S
C653 C650 1.387 . S
C654 C655 1.387 . S
C654 H658 0.950 . S
C654 C663 1.390 . S
C655 C654 1.387 . S
C655 C657 1.387 . S
H656 C663 0.950 . S
C657 C655 1.387 . S
C657 C659 1.390 . S
C657 H661 0.950 . S
H658 C654 0.950 . S
C659 C657 1.390 . S
C659 C660 1.387 . S
C659 H662 0.950 . S
C660 C659 1.387 . S
C660 C663 1.387 . S
H661 C657 0.950 . S
H662 C659 0.950 . S
C663 C654 1.390 . S
C663 H656 0.950 . S
C663 C660 1.387 . S
C664 C665 1.387 . S
C664 H668 0.950 . S
C664 C673 1.390 . S
C665 C664 1.387 . S
C665 C667 1.387 . S
H666 C673 0.950 . S
C667 C665 1.387 . S
C667 C669 1.390 . S
C667 H671 0.950 . S
H668 C664 0.950 . S
C669 C667 1.390 . S
C669 C670 1.387 . S
C669 H672 0.950 . S
C670 C669 1.387 . S
C670 C673 1.387 . S
H671 C667 0.950 . S
H672 C669 0.950 . S
C673 C664 1.390 . S
C673 H666 0.950 . S
C673 C670 1.387 . S
C674 C675 1.387 . S
C674 H678 0.950 . S
C674 C683 1.390 . S
C675 C674 1.387 . S
C675 C677 1.387 . S
H676 C683 0.950 . S
C677 C675 1.387 . S
C677 C679 1.390 . S
C677 H681 0.950 . S
H678 C674 0.950 . S
C679 C677 1.390 . S
C679 C680 1.387 . S
C679 H682 0.950 . S
C680 C679 1.387 . S
C680 C683 1.387 . S
H681 C677 0.950 . S
H682 C679 0.950 . S
C683 C674 1.390 . S
C683 H676 0.950 . S
C683 C680 1.387 . S
C684 C685 1.387 . S
C684 H688 0.950 . S
C684 C693 1.390 . S
C685 C684 1.387 . S
C685 C687 1.387 . S
H686 C693 0.950 . S
C687 C685 1.387 . S
C687 C689 1.390 . S
C687 H691 0.950 . S
H688 C684 0.950 . S
C689 C687 1.390 . S
C689 C690 1.387 . S
C689 H692 0.950 . S
C690 C689 1.387 . S
C690 C693 1.387 . S
H691 C687 0.950 . S
H692 C689 0.950 . S
C693 C684 1.390 . S
C693 H686 0.950 . S
C693 C690 1.387 . S
C694 C695 1.387 . S
C694 H698 0.950 . S
C694 C703 1.390 . S
C695 C694 1.387 . S
C695 C697 1.387 . S
H696 C703 0.950 . S
C697 C695 1.387 . S
C697 C699 1.390 . S
C697 H701 0.950 . S
H698 C694 0.950 . S
C699 C697 1.390 . S
C699 C700 1.387 . S
C699 H702 0.950 . S
C700 C699 1.387 . S
C700 C703 1.387 . S
H701 C697 0.950 . S
H702 C699 0.950 . S
C703 C694 1.390 . S
C703 H696 0.950 . S
C703 C700 1.387 . S
C704 C705 1.387 . S
C704 H708 0.950 . S
C704 C713 1.390 1_554 S
C705 C704 1.387 . S
C705 C707 1.387 . S
H706 C713 0.950 . S
C707 C705 1.387 . S
C707 C709 1.390 1_554 S
C707 H711 0.950 . S
H708 C704 0.950 . S
C709 C707 1.390 1_556 S
C709 C710 1.387 . S
C709 H712 0.950 . S
C710 C709 1.387 . S
C710 C713 1.387 . S
H711 C707 0.950 . S
H712 C709 0.950 . S
C713 C704 1.390 1_556 S
C713 H706 0.950 . S
C713 C710 1.387 . S
C714 C715 1.387 . S
C714 H718 0.950 . S
C714 C723 1.390 1_556 S
C715 C714 1.387 . S
C715 C717 1.387 . S
H716 C723 0.950 . S
C717 C715 1.387 . S
C717 C719 1.390 1_556 S
C717 H721 0.950 . S
H718 C714 0.950 . S
C719 C717 1.390 1_554 S
C719 C720 1.387 . S
C719 H722 0.950 . S
C720 C719 1.387 . S
C720 C723 1.387 . S
H721 C717 0.950 . S
H722 C719 0.950 . S
C723 C714 1.390 1_554 S
C723 H716 0.950 . S
C723 C720 1.387 . S
C724 C725 1.387 . S
C724 H728 0.950 . S
C724 C733 1.390 1_556 S
C725 C724 1.387 . S
C725 C727 1.387 . S
H726 C733 0.950 . S
C727 C725 1.387 . S
C727 C729 1.390 1_556 S
C727 H731 0.950 . S
H728 C724 0.950 . S
C729 C727 1.390 1_554 S
C729 C730 1.387 . S
C729 H732 0.950 . S
C730 C729 1.387 . S
C730 C733 1.387 . S
H731 C727 0.950 . S
H732 C729 0.950 . S
C733 C724 1.390 1_554 S
C733 H726 0.950 . S
C733 C730 1.387 . S
C734 C735 1.387 . S
C734 H738 0.950 . S
C734 C743 1.390 1_556 S
C735 C734 1.387 . S
C735 C737 1.387 . S
H736 C743 0.950 . S
C737 C735 1.387 . S
C737 C739 1.390 1_556 S
C737 H741 0.950 . S
H738 C734 0.950 . S
C739 C737 1.390 1_554 S
C739 C740 1.387 . S
C739 H742 0.950 . S
C740 C739 1.387 . S
C740 C743 1.387 . S
H741 C737 0.950 . S
H742 C739 0.950 . S
C743 C734 1.390 1_554 S
C743 H736 0.950 . S
C743 C740 1.387 . S
C744 C745 1.387 . S
C744 H748 0.950 . S
C744 C753 1.390 . S
C745 C744 1.387 . S
C745 C747 1.387 . S
H746 C753 0.950 . S
C747 C745 1.387 . S
C747 C749 1.390 . S
C747 H751 0.950 . S
H748 C744 0.950 . S
C749 C747 1.390 . S
C749 C750 1.387 . S
C749 H752 0.950 . S
C750 C749 1.387 . S
C750 C753 1.387 . S
H751 C747 0.950 . S
H752 C749 0.950 . S
C753 C744 1.390 . S
C753 H746 0.950 . S
C753 C750 1.387 . S
C754 C755 1.387 . S
C754 H758 0.950 . S
C754 C763 1.390 . S
C755 C754 1.387 . S
C755 C757 1.387 . S
H756 C763 0.950 . S
C757 C755 1.387 . S
C757 C759 1.390 . S
C757 H761 0.950 . S
H758 C754 0.950 . S
C759 C757 1.390 . S
C759 C760 1.387 . S
C759 H762 0.950 . S
C760 C759 1.387 . S
C760 C763 1.387 . S
H761 C757 0.950 . S
H762 C759 0.950 . S
C763 C754 1.390 . S
C763 H756 0.950 . S
C763 C760 1.387 . S
C764 C765 1.387 . S
C764 H768 0.950 . S
C764 C773 1.390 . S
C765 C764 1.387 . S
C765 C767 1.387 . S
H766 C773 0.950 . S
C767 C765 1.387 . S
C767 C769 1.390 . S
C767 H771 0.950 . S
H768 C764 0.950 . S
C769 C767 1.390 . S
C769 C770 1.387 . S
C769 H772 0.950 . S
C770 C769 1.387 . S
C770 C773 1.387 . S
H771 C767 0.950 . S
H772 C769 0.950 . S
C773 C764 1.390 . S
C773 H766 0.950 . S
C773 C770 1.387 . S
C774 C775 1.387 . S
C774 H778 0.950 . S
C774 C783 1.390 . S
C775 C774 1.387 . S
C775 C777 1.387 . S
H776 C783 0.950 . S
C777 C775 1.387 . S
C777 C779 1.390 . S
C777 H781 0.950 . S
H778 C774 0.950 . S
C779 C777 1.390 . S
C779 C780 1.387 . S
C779 H782 0.950 . S
C780 C779 1.387 . S
C780 C783 1.387 . S
H781 C777 0.950 . S
H782 C779 0.950 . S
C783 C774 1.390 . S
C783 H776 0.950 . S
C783 C780 1.387 . S
C784 C785 1.387 . S
C784 H788 0.950 . S
C784 C793 1.390 . S
C785 C784 1.387 . S
C785 C787 1.387 . S
H786 C793 0.950 . S
C787 C785 1.387 . S
C787 C789 1.390 . S
C787 H791 0.950 . S
H788 C784 0.950 . S
C789 C787 1.390 . S
C789 C790 1.387 . S
C789 H792 0.950 . S
C790 C789 1.387 . S
C790 C793 1.387 . S
H791 C787 0.950 . S
H792 C789 0.950 . S
C793 C784 1.390 . S
C793 H786 0.950 . S
C793 C790 1.387 . S
C794 C795 1.387 . S
C794 H798 0.950 . S
C794 C803 1.390 . S
C795 C794 1.387 . S
C795 C797 1.387 . S
H796 C803 0.950 . S
C797 C795 1.387 . S
C797 C799 1.390 . S
C797 H801 0.950 . S
H798 C794 0.950 . S
C799 C797 1.390 . S
C799 C800 1.387 . S
C799 H802 0.950 . S
C800 C799 1.387 . S
C800 C803 1.387 . S
H801 C797 0.950 . S
H802 C799 0.950 . S
C803 C794 1.390 . S
C803 H796 0.950 . S
C803 C800 1.387 . S
C804 C805 1.387 . S
C804 H808 0.950 . S
C804 C813 1.390 . S
C805 C804 1.387 . S
C805 C807 1.387 . S
H806 C813 0.950 . S
C807 C805 1.387 . S
C807 C809 1.390 . S
C807 H811 0.950 . S
H808 C804 0.950 . S
C809 C807 1.390 . S
C809 C810 1.387 . S
C809 H812 0.950 . S
C810 C809 1.387 . S
C810 C813 1.387 . S
H811 C807 0.950 . S
H812 C809 0.950 . S
C813 C804 1.390 . S
C813 H806 0.950 . S
C813 C810 1.387 . S
C814 C815 1.387 . S
C814 H818 0.950 . S
C814 C823 1.390 . S
C815 C814 1.387 . S
C815 C817 1.387 . S
H816 C823 0.950 . S
C817 C815 1.387 . S
C817 C819 1.390 . S
C817 H821 0.950 . S
H818 C814 0.950 . S
C819 C817 1.390 . S
C819 C820 1.387 . S
C819 H822 0.950 . S
C820 C819 1.387 . S
C820 C823 1.387 . S
H821 C817 0.950 . S
H822 C819 0.950 . S
C823 C814 1.390 . S
C823 H816 0.950 . S
C823 C820 1.387 . S
C824 C825 1.387 . S
C824 H828 0.950 . S
C824 C833 1.390 . S
C825 C824 1.387 . S
C825 C827 1.387 . S
H826 C833 0.950 . S
C827 C825 1.387 . S
C827 C829 1.390 . S
C827 H831 0.950 . S
H828 C824 0.950 . S
C829 C827 1.390 . S
C829 C830 1.387 . S
C829 H832 0.950 . S
C830 C829 1.387 . S
C830 C833 1.387 . S
H831 C827 0.950 . S
H832 C829 0.950 . S
C833 C824 1.390 . S
C833 H826 0.950 . S
C833 C830 1.387 . S
C834 C835 1.387 . S
C834 H838 0.950 . S
C834 C843 1.390 . S
C835 C834 1.387 . S
C835 C837 1.387 . S
H836 C843 0.950 . S
C837 C835 1.387 . S
C837 C839 1.390 . S
C837 H841 0.950 . S
H838 C834 0.950 . S
C839 C837 1.390 . S
C839 C840 1.387 . S
C839 H842 0.950 . S
C840 C839 1.387 . S
C840 C843 1.387 . S
H841 C837 0.950 . S
H842 C839 0.950 . S
C843 C834 1.390 . S
C843 H836 0.950 . S
C843 C840 1.387 . S
C844 C845 1.387 . S
C844 H848 0.950 . S
C844 C853 1.390 . S
C845 C844 1.387 . S
C845 C847 1.387 . S
H846 C853 0.950 . S
C847 C845 1.387 . S
C847 C849 1.390 . S
C847 H851 0.950 . S
H848 C844 0.950 . S
C849 C847 1.390 . S
C849 C850 1.387 . S
C849 H852 0.950 . S
C850 C849 1.387 . S
C850 C853 1.387 . S
H851 C847 0.950 . S
H852 C849 0.950 . S
C853 C844 1.390 . S
C853 H846 0.950 . S
C853 C850 1.387 . S
C854 C855 1.387 . S
C854 H858 0.950 . S
C854 C863 1.390 . S
C855 C854 1.387 . S
C855 C857 1.387 . S
H856 C863 0.950 . S
C857 C855 1.387 . S
C857 C859 1.390 . S
C857 H861 0.950 . S
H858 C854 0.950 . S
C859 C857 1.390 . S
C859 C860 1.387 . S
C859 H862 0.950 . S
C860 C859 1.387 . S
C860 C863 1.387 . S
H861 C857 0.950 . S
H862 C859 0.950 . S
C863 C854 1.390 . S
C863 H856 0.950 . S
C863 C860 1.387 . S
C864 C865 1.387 . S
C864 H868 0.950 . S
C864 C873 1.390 1_545 S
C865 C864 1.387 . S
C865 C867 1.387 . S
H866 C873 0.950 . S
C867 C865 1.387 . S
C867 C869 1.390 1_545 S
C867 H871 0.950 . S
H868 C864 0.950 . S
C869 C867 1.390 1_565 S
C869 C870 1.387 . S
C869 H872 0.950 . S
C870 C869 1.387 . S
C870 C873 1.387 . S
H871 C867 0.950 . S
H872 C869 0.950 . S
C873 C864 1.390 1_565 S
C873 H866 0.950 . S
C873 C870 1.387 . S
C874 C875 1.387 . S
C874 H878 0.950 . S
C874 C883 1.390 1_655 S
C875 C874 1.387 . S
C875 C877 1.387 . S
H876 C883 0.950 . S
C877 C875 1.387 . S
C877 C879 1.390 1_655 S
C877 H881 0.950 . S
H878 C874 0.950 . S
C879 C877 1.390 1_455 S
C879 C880 1.387 . S
C879 H882 0.950 . S
C880 C879 1.387 . S
C880 C883 1.387 . S
H881 C877 0.950 . S
H882 C879 0.950 . S
C883 C874 1.390 1_455 S
C883 H876 0.950 . S
C883 C880 1.387 . S
C884 C885 1.387 . S
C884 H888 0.950 . S
C884 C893 1.390 1_545 S
C885 C884 1.387 . S
C885 C887 1.387 . S
H886 C893 0.950 . S
C887 C885 1.387 . S
C887 C889 1.390 1_545 S
C887 H891 0.950 . S
H888 C884 0.950 . S
C889 C887 1.390 1_565 S
C889 C890 1.387 . S
C889 H892 0.950 . S
C890 C889 1.387 . S
C890 C893 1.387 . S
H891 C887 0.950 . S
H892 C889 0.950 . S
C893 C884 1.390 1_565 S
C893 H886 0.950 . S
C893 C890 1.387 . S
C894 C895 1.387 . S
C894 H898 0.950 . S
C894 C903 1.390 1_655 S
C895 C894 1.387 . S
C895 C897 1.387 . S
H896 C903 0.950 . S
C897 C895 1.387 . S
C897 C899 1.390 1_655 S
C897 H901 0.950 . S
H898 C894 0.950 . S
C899 C897 1.390 1_455 S
C899 C900 1.387 . S
C899 H902 0.950 . S
C900 C899 1.387 . S
C900 C903 1.387 . S
H901 C897 0.950 . S
H902 C899 0.950 . S
C903 C894 1.390 1_455 S
C903 H896 0.950 . S
C903 C900 1.387 . S
C904 C905 1.387 . S
C904 H908 0.950 . S
C904 C913 1.390 1_565 S
C905 C904 1.387 . S
C905 C907 1.387 . S
H906 C913 0.950 . S
C907 C905 1.387 . S
C907 C909 1.390 1_565 S
C907 H911 0.950 . S
H908 C904 0.950 . S
C909 C907 1.390 1_545 S
C909 C910 1.387 . S
C909 H912 0.950 . S
C910 C909 1.387 . S
C910 C913 1.387 . S
H911 C907 0.950 . S
H912 C909 0.950 . S
C913 C904 1.390 1_545 S
C913 H906 0.950 . S
C913 C910 1.387 . S
C914 C915 1.387 . S
C914 H918 0.950 . S
C914 C923 1.390 1_455 S
C915 C914 1.387 . S
C915 C917 1.387 . S
H916 C923 0.950 . S
C917 C915 1.387 . S
C917 C919 1.390 1_455 S
C917 H921 0.950 . S
H918 C914 0.950 . S
C919 C917 1.390 1_655 S
C919 C920 1.387 . S
C919 H922 0.950 . S
C920 C919 1.387 . S
C920 C923 1.387 . S
H921 C917 0.950 . S
H922 C919 0.950 . S
C923 C914 1.390 1_655 S
C923 H916 0.950 . S
C923 C920 1.387 . S
C924 C925 1.387 . S
C924 H928 0.950 . S
C924 C933 1.390 1_565 S
C925 C924 1.387 . S
C925 C927 1.387 . S
H926 C933 0.950 . S
C927 C925 1.387 . S
C927 C929 1.390 1_565 S
C927 H931 0.950 . S
H928 C924 0.950 . S
C929 C927 1.390 1_545 S
C929 C930 1.387 . S
C929 H932 0.950 . S
C930 C929 1.387 . S
C930 C933 1.387 . S
H931 C927 0.950 . S
H932 C929 0.950 . S
C933 C924 1.390 1_545 S
C933 H926 0.950 . S
C933 C930 1.387 . S
C934 C935 1.387 . S
C934 H938 0.950 . S
C934 C943 1.390 1_655 S
C935 C934 1.387 . S
C935 C937 1.387 . S
H936 C943 0.950 . S
C937 C935 1.387 . S
C937 C939 1.390 1_655 S
C937 H941 0.950 . S
H938 C934 0.950 . S
C939 C937 1.390 1_455 S
C939 C940 1.387 . S
C939 H942 0.950 . S
C940 C939 1.387 . S
C940 C943 1.387 . S
H941 C937 0.950 . S
H942 C939 0.950 . S
C943 C934 1.390 1_455 S
C943 H936 0.950 . S
C943 C940 1.387 . S
C545 C73 1.061 . S
C550 C5 1.061 . S
C555 C39 1.057 . S
C560 C107 1.057 . S
C565 C209 1.057 . S
C570 C141 1.057 . S
C575 C243 1.061 . S
C580 C175 1.061 . S
C585 C277 1.057 . S
C590 C345 1.057 . S
C595 C311 1.061 . S
C600 C379 1.061 . S
C605 C413 1.057 . S
C610 C481 1.057 . S
C615 C515 1.061 . S
C620 C447 1.061 . S
C625 C9 1.674 . S
C630 C179 1.671 . S
C635 C213 1.674 . S
C640 C43 1.671 . S
C645 C247 1.673 . S
C650 C77 1.674 . S
C655 C145 1.674 . S
C660 C111 1.672 . S
C665 C451 1.674 . S
C670 C281 1.670 . S
C675 C485 1.674 . S
C680 C315 1.670 . S
C685 C519 1.672 . S
C690 C349 1.670 . S
C695 C417 1.670 . S
C700 C383 1.672 . S
C705 C20 1.482 . S
C710 C360 1.480 . S
C715 C394 1.483 . S
C720 C54 1.482 . S
C725 C292 1.483 . S
C730 C88 1.482 . S
C735 C326 1.481 . S
C740 C122 1.483 . S
C745 C156 1.483 . S
C750 C496 1.482 . S
C755 C190 1.480 . S
C760 C530 1.481 . S
C765 C224 1.482 . S
C770 C428 1.480 . S
C775 C258 1.480 . S
C780 C462 1.481 . S
C785 C138 1.412 . S
C790 C2 1.412 . S
C795 C36 1.410 . S
C800 C172 1.410 . S
C805 C206 1.410 . S
C810 C70 1.410 . S
C815 C240 1.412 . S
C820 C104 1.412 . S
C825 C305 1.524 . S
C830 C441 1.524 . S
C835 C475 1.524 . S
C840 C339 1.524 . S
C845 C373 1.523 . S
C850 C509 1.523 . S
C855 C543 1.524 . S
C860 C407 1.524 . S
C865 C376 1.410 . S
C870 C444 1.410 . S
C875 C274 1.410 . S
C880 C478 1.410 . S
C885 C512 1.410 . S
C890 C308 1.410 . S
C895 C410 1.412 . S
C900 C342 1.412 . S
C905 C135 1.523 . S
C910 C203 1.523 . S
C915 C33 1.523 . S
C920 C237 1.523 . S
C925 C271 1.523 . S
C930 C67 1.523 . S
C935 C101 1.524 . S
C940 C169 1.524 . S
