# Generated by pormake.
# Topology umy, (4)-cn, num edge types: 1
# Building blocks:
#     Node 0, Type 0, BuildingBlock: QUQFOY_clean_sbu_3, # of connection points: 4
#     Node 1, Type 0, BuildingBlock: QUQFOY_clean_sbu_3, # of connection points: 4
#     Node 2, Type 0, BuildingBlock: QUQFOY_clean_sbu_3, # of connection points: 4
#     Node 3, Type 0, BuildingBlock: QUQFOY_clean_sbu_3, # of connection points: 4
#     Node 4, Type 0, BuildingBlock: QUQFOY_clean_sbu_3, # of connection points: 4
#     Node 5, Type 0, BuildingBlock: QUQFOY_clean_sbu_3, # of connection points: 4
#     Node 6, Type 0, BuildingBlock: QUQFOY_clean_sbu_3, # of connection points: 4
#     Node 7, Type 0, BuildingBlock: QUQFOY_clean_sbu_3, # of connection points: 4
#     Node 8, Type 0, BuildingBlock: QUQFOY_clean_sbu_3, # of connection points: 4
#     Node 9, Type 0, BuildingBlock: QUQFOY_clean_sbu_3, # of connection points: 4
#     Node 10, Type 0, BuildingBlock: QUQFOY_clean_sbu_3, # of connection points: 4
#     Node 11, Type 0, BuildingBlock: QUQFOY_clean_sbu_3, # of connection points: 4
#     Edge 12, Type (0, 0), BuildingBlock: EYOCIG_clean_linker_4, # of connection points: 2
#     Edge 13, Type (0, 0), BuildingBlock: EYOCIG_clean_linker_4, # of connection points: 2
#     Edge 14, Type (0, 0), BuildingBlock: EYOCIG_clean_linker_4, # of connection points: 2
#     Edge 15, Type (0, 0), BuildingBlock: EYOCIG_clean_linker_4, # of connection points: 2
#     Edge 16, Type (0, 0), BuildingBlock: EYOCIG_clean_linker_4, # of connection points: 2
#     Edge 17, Type (0, 0), BuildingBlock: EYOCIG_clean_linker_4, # of connection points: 2
#     Edge 18, Type (0, 0), BuildingBlock: EYOCIG_clean_linker_4, # of connection points: 2
#     Edge 19, Type (0, 0), BuildingBlock: EYOCIG_clean_linker_4, # of connection points: 2
#     Edge 20, Type (0, 0), BuildingBlock: EYOCIG_clean_linker_4, # of connection points: 2
#     Edge 21, Type (0, 0), BuildingBlock: EYOCIG_clean_linker_4, # of connection points: 2
#     Edge 22, Type (0, 0), BuildingBlock: EYOCIG_clean_linker_4, # of connection points: 2
#     Edge 23, Type (0, 0), BuildingBlock: EYOCIG_clean_linker_4, # of connection points: 2
#     Edge 24, Type (0, 0), BuildingBlock: EYOCIG_clean_linker_4, # of connection points: 2
#     Edge 25, Type (0, 0), BuildingBlock: EYOCIG_clean_linker_4, # of connection points: 2
#     Edge 26, Type (0, 0), BuildingBlock: EYOCIG_clean_linker_4, # of connection points: 2
#     Edge 27, Type (0, 0), BuildingBlock: EYOCIG_clean_linker_4, # of connection points: 2
#     Edge 28, Type (0, 0), BuildingBlock: EYOCIG_clean_linker_4, # of connection points: 2
#     Edge 29, Type (0, 0), BuildingBlock: EYOCIG_clean_linker_4, # of connection points: 2
#     Edge 30, Type (0, 0), BuildingBlock: EYOCIG_clean_linker_4, # of connection points: 2
#     Edge 31, Type (0, 0), BuildingBlock: EYOCIG_clean_linker_4, # of connection points: 2
#     Edge 32, Type (0, 0), BuildingBlock: EYOCIG_clean_linker_4, # of connection points: 2
#     Edge 33, Type (0, 0), BuildingBlock: EYOCIG_clean_linker_4, # of connection points: 2
#     Edge 34, Type (0, 0), BuildingBlock: EYOCIG_clean_linker_4, # of connection points: 2
#     Edge 35, Type (0, 0), BuildingBlock: EYOCIG_clean_linker_4, # of connection points: 2
# Relax obj value: 0.101
# Max RMSD: 0.074
# Mean RMSD: 0.074
data_MOF--net-umy--node1-QUQFOY_clean_sbu_3--edge1-EYOCIG_clean_linker_4
_symmetry_space_group_name_H-M    P1
_symmetry_Int_Tables_number       1
_symmetry_cell_setting            triclinic
loop_
_symmetry_equiv_pos_as_xyz
'x, y, z'
_cell_length_a     32.21202
_cell_length_b     32.213605
_cell_length_c     42.653132
_cell_angle_alpha  89.968295
_cell_angle_beta   90.037066
_cell_angle_gamma 119.95039
loop_
_atom_site_label
_atom_site_type_symbol
_atom_site_fract_x
_atom_site_fract_y
_atom_site_fract_z
_atom_type_partial_charge
C0 C 0.92416 0.22186 0.13399 0.0
O1 O 0.94286 0.19695 0.12595 0.0
Cd2 Cd 0.02478 0.2319 0.10778 0.0
O3 O 0.94663 0.267 0.13055 0.0
Cd4 Cd 0.02323 0.32733 0.10732 0.0
C5 C 0.08195 0.31347 0.16726 0.0
O6 O 0.04029 0.2865 0.06498 0.0
O7 O 0.09952 0.35339 0.08217 0.0
O8 O -0.02224 0.35459 0.07664 0.0
C9 C 0.08341 0.32013 0.06201 0.0
O10 O 0.07513 0.27587 0.15295 0.0
C11 C 0.00064 0.39709 0.08702 0.0
O12 O 0.06398 0.33832 0.15734 0.0
O13 O 0.03398 0.40726 0.10667 0.0
C14 C 0.68276 0.93652 0.3024 0.0
O15 O 0.72583 0.95427 0.29342 0.0
Cd16 Cd 0.77224 0.03551 0.27427 0.0
O17 O 0.66028 0.95919 0.29882 0.0
Cd18 Cd 0.67622 0.03452 0.27355 0.0
C19 C 0.74804 0.0933 0.33344 0.0
O20 O 0.73312 0.04995 0.23095 0.0
O21 O 0.72709 0.11036 0.24773 0.0
O22 O 0.60327 -0.01244 0.2434 0.0
C23 C 0.74291 0.09309 0.22743 0.0
O24 O 0.77866 0.08599 0.31934 0.0
C25 C 0.58378 0.01101 0.25298 0.0
O26 O 0.70545 0.0759 0.32328 0.0
O27 O 0.60715 0.04535 0.27192 0.0
C28 C 0.72636 0.69133 0.46831 0.0
O29 O 0.7514 0.73507 0.46065 0.0
Cd30 Cd 0.71755 0.78266 0.44159 0.0
O31 O 0.68132 0.66869 0.46441 0.0
Cd32 Cd 0.62163 0.6857 0.4409 0.0
C33 C 0.63455 0.75959 0.49978 0.0
O34 O 0.66356 0.74336 0.39866 0.0
O35 O 0.5963 0.73599 0.41482 0.0
O36 O 0.59391 0.61277 0.41045 0.0
C37 C 0.63024 0.75323 0.39516 0.0
O38 O 0.67248 0.79005 0.48564 0.0
C39 C 0.55154 0.59329 0.42105 0.0
O40 O 0.61004 0.71656 0.49027 0.0
O41 O 0.5416 0.61671 0.44062 0.0
C42 C 0.01541 0.73722 0.63424 0.0
O43 O -0.00328 0.76222 0.62637 0.0
Cd44 Cd 0.91513 0.72756 0.6075 0.0
O45 O -0.00714 0.69211 0.63059 0.0
Cd46 Cd 0.91551 0.6329 0.60729 0.0
C47 C 0.8556 0.64609 0.66637 0.0
O48 O 0.89995 0.67382 0.5642 0.0
O49 O 0.83949 0.6084 0.58202 0.0
O50 O 0.95878 0.6032 0.57666 0.0
C51 C 0.85667 0.64061 0.56115 0.0
O52 O 0.86279 0.68371 0.65191 0.0
C53 C 0.93488 0.5609 0.58725 0.0
O54 O 0.87406 0.62147 0.65697 0.0
O55 O 0.90216 0.55204 0.6071 0.0
C56 C 0.25578 0.02361 0.80122 0.0
O57 O 0.21191 0.004 0.79371 0.0
Cd58 Cd 0.16624 0.92243 0.77485 0.0
O59 O 0.27925 0.002 0.79731 0.0
Cd60 Cd 0.26327 0.92536 0.77394 0.0
C61 C 0.19082 0.86387 0.83321 0.0
O62 O 0.20612 0.9097 0.7313 0.0
O63 O 0.21329 0.84972 0.74746 0.0
O64 O 0.33653 0.9713 0.74378 0.0
C65 C 0.19694 0.86684 0.72741 0.0
O66 O 0.1598 0.87053 0.81906 0.0
C67 C 0.35595 0.94815 0.7541 0.0
O68 O 0.23381 0.88298 0.82354 0.0
O69 O 0.33243 0.91448 0.77344 0.0
C70 C 0.21417 0.26784 0.96983 0.0
O71 O 0.18867 0.22433 0.96181 0.0
Cd72 Cd 0.22202 0.17703 0.94173 0.0
O73 O 0.25912 0.29025 0.96548 0.0
Cd74 Cd 0.31722 0.27227 0.94041 0.0
C75 C 0.3055 0.19922 -0.00065 0.0
O76 O 0.27416 0.21575 0.89776 0.0
O77 O 0.34032 0.22055 0.91397 0.0
O78 O 0.34545 0.34532 0.90995 0.0
C79 C 0.30712 0.20549 0.89379 0.0
O80 O 0.26727 0.16889 -0.01456 0.0
C81 C 0.38827 0.36365 0.91957 0.0
O82 O 0.33014 0.2421 -0.01038 0.0
O83 O 0.39807 0.33976 0.93886 0.0
C84 C 0.72604 0.02157 0.66151 0.0
O85 O 0.75087 0.00297 0.66999 0.0
Cd86 Cd 0.71545 0.92188 0.68926 0.0
O87 O 0.68099 -0.00032 0.66545 0.0
Cd88 Cd 0.62086 0.92446 0.69047 0.0
C89 C 0.63241 0.86476 0.63046 0.0
O90 O 0.66293 0.90924 0.73284 0.0
O91 O 0.5959 0.84895 0.71683 0.0
O92 O 0.595 0.97177 0.72052 0.0
C93 C 0.62943 0.86633 0.73681 0.0
O94 O 0.67028 0.87157 0.64441 0.0
C95 C 0.552 0.94818 0.71109 0.0
O96 O 0.60778 0.88274 0.64073 0.0
O97 O 0.541 0.91374 0.69225 0.0
C98 C 0.68213 0.73767 0.83035 0.0
O99 O 0.72589 0.76252 0.838 0.0
Cd100 Cd 0.77252 0.72747 0.85656 0.0
O101 O 0.6594 0.69258 0.83406 0.0
Cd102 Cd 0.67674 0.63258 0.85687 0.0
C103 C 0.74927 0.64644 0.79713 0.0
O104 O 0.73308 0.67391 0.89987 0.0
O105 O 0.72805 0.60813 0.88276 0.0
O106 O 0.60279 0.60227 0.8866 0.0
C107 C 0.74308 0.64071 0.90336 0.0
O108 O 0.78004 0.68385 0.81158 0.0
C109 C 0.5849 0.56007 0.8759 0.0
O110 O 0.70644 0.62182 0.8069 0.0
O111 O 0.60953 0.55152 0.85651 0.0
C112 C 0.92461 0.69241 -0.00404 0.0
O113 O 0.94412 0.73647 0.00294 0.0
Cd114 Cd 0.02581 0.7833 0.02146 0.0
O115 O 0.94639 0.66917 0.00018 0.0
Cd116 Cd 0.02311 0.68532 0.02324 0.0
C117 C 0.08366 0.75722 0.96332 0.0
O118 O 0.03892 0.74373 0.06499 0.0
O119 O 0.09854 0.73535 0.04965 0.0
O120 O -0.02265 0.61243 0.05377 0.0
C121 C 0.08183 0.75306 0.06896 0.0
O122 O 0.07699 0.78844 0.97714 0.0
C123 C 0.00048 0.59294 0.04357 0.0
O124 O 0.06495 0.71447 0.97344 0.0
O125 O 0.03408 0.61626 0.02416 0.0
C126 C 0.21226 0.9368 0.1614 0.0
O127 O 0.18771 0.95593 0.16938 0.0
Cd128 Cd 0.22262 0.03698 0.18882 0.0
O129 O 0.25725 0.95826 0.16562 0.0
Cd130 Cd 0.3181 0.03356 0.19007 0.0
C131 C 0.30628 0.09396 0.1303 0.0
O132 O 0.27579 0.04939 0.23183 0.0
O133 O 0.34374 0.10899 0.21647 0.0
O134 O 0.34464 -0.01319 0.22013 0.0
C135 C 0.3093 0.0923 0.23575 0.0
O136 O 0.2685 0.08744 0.14421 0.0
C137 C 0.38736 0.01008 0.21013 0.0
O138 O 0.33055 0.0755 0.14046 0.0
O139 O 0.39789 0.04415 0.19104 0.0
C140 C 0.25586 0.22336 0.32755 0.0
O141 O 0.21269 0.19825 0.33639 0.0
Cd142 Cd 0.16568 0.23169 0.35669 0.0
O143 O 0.27882 0.26841 0.33143 0.0
Cd144 Cd 0.26386 0.32817 0.35686 0.0
C145 C 0.18922 0.31492 0.29827 0.0
O146 O 0.20678 0.28578 0.39908 0.0
O147 O 0.21393 0.35322 0.38345 0.0
O148 O 0.33689 0.35411 0.38701 0.0
C149 C 0.19686 0.319 0.40292 0.0
O150 O 0.15901 0.27692 0.31248 0.0
C151 C 0.35638 0.39703 0.3774 0.0
O152 O 0.23222 0.33993 0.30781 0.0
O153 O 0.33312 0.40794 0.35828 0.0
C154 C 0.01238 0.26601 0.49451 0.0
O155 O -0.00594 0.22261 0.50293 0.0
Cd156 Cd 0.91376 0.17538 0.52338 0.0
O157 O -0.00962 0.28905 0.4986 0.0
Cd158 Cd 0.91478 0.27282 0.52342 0.0
C159 C 0.85373 0.19802 0.46495 0.0
O160 O 0.9005 0.21612 0.56595 0.0
O161 O 0.83974 0.22199 0.54975 0.0
O162 O 0.95944 0.3464 0.55338 0.0
C163 C 0.85722 0.20573 0.56961 0.0
O164 O 0.86123 0.1677 0.47931 0.0
C165 C 0.9352 0.3647 0.54312 0.0
O166 O 0.87205 0.24111 0.4743 0.0
O167 O 0.9018 0.34057 0.52374 0.0
C168 C -0.01593 0.50789 0.06116 0.0
C169 C -0.01013 0.54651 0.05399 0.0
C170 C -0.01586 0.46565 0.06931 0.0
C171 C -0.00997 0.4329 0.07654 0.0
C172 C 0.49842 -0.00638 0.23534 0.0
C173 C 0.53717 -0.00023 0.24253 0.0
C174 C 0.45594 -0.00666 0.22738 0.0
C175 C 0.42303 -0.00085 0.22041 0.0
C176 C 0.48307 0.50788 0.40393 0.0
C177 C 0.51567 0.5467 0.41095 0.0
C178 C 0.44109 0.46539 0.39571 0.0
C179 C 0.40266 0.43256 0.38826 0.0
C180 C 0.94885 0.4908 0.56938 0.0
C181 C 0.94382 0.52397 0.57683 0.0
C182 C 0.94909 0.44876 0.56093 0.0
C183 C 0.94426 0.4106 0.55356 0.0
C184 C 0.48371 0.96502 0.72889 0.0
C185 C 0.51654 0.95924 0.72167 0.0
C186 C 0.44128 0.96482 0.73692 0.0
C187 C 0.40253 0.95886 0.74393 0.0
C188 C 0.45802 0.4475 0.90105 0.0
C189 C 0.42478 0.40946 0.90871 0.0
C190 C 0.50035 0.48959 0.89272 0.0
C191 C 0.53875 0.52289 0.88573 0.0
C192 C 0.14074 0.31542 0.01989 0.0
C193 C 0.11477 0.31781 0.03919 0.0
C194 C 0.17011 0.30585 0.00025 0.0
C195 C 0.19236 0.29067 -0.01354 0.0
C196 C 0.80275 0.14856 0.18367 0.0
C197 C 0.77543 0.12321 0.20365 0.0
C198 C 0.84135 0.17725 0.1636 0.0
C199 C 0.87913 0.19933 0.15018 0.0
C200 C 0.63616 0.81621 0.35331 0.0
C201 C 0.63358 0.78746 0.37239 0.0
C202 C 0.64575 0.85511 0.33359 0.0
C203 C 0.66074 0.89227 0.31949 0.0
C204 C 0.77113 0.65298 0.49755 0.0
C205 C 0.74873 0.66847 0.48428 0.0
C206 C 0.80046 0.64367 0.51742 0.0
C207 C 0.82627 0.64242 0.53735 0.0
C208 C 0.09834 0.78198 0.66378 0.0
C209 C 0.06053 0.75966 0.65039 0.0
C210 C 0.13699 0.81105 0.68376 0.0
C211 C 0.16435 0.8367 0.70364 0.0
C212 C 0.29277 0.10694 0.83005 0.0
C213 C 0.27788 0.069 0.81697 0.0
C214 C 0.30205 0.14569 0.8498 0.0
C215 C 0.30402 0.17298 0.8698 0.0
C216 C 0.64402 0.78248 0.80081 0.0
C217 C 0.65955 0.7602 0.81422 0.0
C218 C 0.63423 0.81126 0.78072 0.0
C219 C 0.63212 0.83648 0.76069 0.0
C220 C 0.80237 0.64462 0.94739 0.0
C221 C 0.7753 0.64298 0.92732 0.0
C222 C 0.84111 0.65425 0.96725 0.0
C223 C 0.87915 0.66973 0.98031 0.0
C224 C 0.16688 0.8549 0.13089 0.0
C225 C 0.18941 0.89222 0.14473 0.0
C226 C 0.13784 0.81593 0.11117 0.0
C227 C 0.1124 0.78719 0.09186 0.0
C228 C 0.30237 0.14921 0.27714 0.0
C229 C 0.3054 0.12311 0.25826 0.0
C230 C 0.2926 0.1786 0.29658 0.0
C231 C 0.27773 0.20092 0.31059 0.0
C232 C 0.1332 0.31206 0.44444 0.0
C233 C 0.16225 0.31495 0.42554 0.0
C234 C 0.09407 0.3026 0.46382 0.0
C235 C 0.05683 0.28797 0.47771 0.0
C236 C 0.8009 0.14253 0.61151 0.0
C237 C 0.8269 0.17137 0.59245 0.0
C238 C 0.77137 0.10344 0.63097 0.0
C239 C 0.74875 0.06611 0.6448 0.0
C240 C 0.15737 0.335 0.24683 0.0
C241 C 0.17447 0.32821 0.27006 0.0
C242 C 0.13309 0.33444 0.21914 0.0
C243 C 0.10951 0.32703 0.19568 0.0
C244 C 0.80164 0.1668 0.41355 0.0
C245 C 0.82562 0.18336 0.43679 0.0
C246 C 0.7779 0.14332 0.3857 0.0
C247 C 0.76179 0.12029 0.36206 0.0
C248 C 0.61171 0.81446 0.57831 0.0
C249 C 0.61864 0.83766 0.60187 0.0
C250 C 0.61241 0.79078 0.55067 0.0
C251 C 0.62035 0.77417 0.52766 0.0
C252 C 0.80328 0.62522 0.71764 0.0
C253 C 0.82739 0.63251 0.69448 0.0
C254 C 0.77937 0.62542 0.74529 0.0
C255 C 0.76323 0.63286 0.76873 0.0
C256 C 0.16024 0.81116 0.88439 0.0
C257 C 0.1769 0.83549 0.86128 0.0
C258 C 0.13585 0.7869 0.9119 0.0
C259 C 0.11176 0.77064 0.93514 0.0
C260 C 0.32769 0.14459 0.07824 0.0
C261 C 0.32031 0.12122 0.10178 0.0
C262 C 0.32743 0.16829 0.05048 0.0
C263 C 0.31966 0.18483 0.02735 0.0
loop_
_geom_bond_atom_site_label_1
_geom_bond_atom_site_label_2
_geom_bond_distance
_geom_bond_site_symmetry_2
_ccdc_geom_bond_type
C0 O1 1.306 . S
C0 O3 1.160 . S
O1 C0 1.306 . S
O1 Cd2 2.228 1_655 S
Cd2 O1 2.228 1_455 S
Cd2 O6 2.273 . S
Cd2 O10 2.277 . S
O3 C0 1.160 . S
O3 Cd4 2.203 1_655 S
Cd4 O3 2.203 1_455 S
Cd4 O6 2.411 . S
Cd4 O7 2.333 . S
Cd4 O8 2.352 . S
Cd4 O12 2.277 . S
Cd4 O13 2.356 . S
C5 O10 1.209 . S
C5 O12 1.226 . S
O6 Cd2 2.273 . S
O6 Cd4 2.411 . S
O6 C9 1.320 . S
O7 Cd4 2.333 . S
O7 C9 1.214 . S
O8 Cd4 2.352 . S
O8 C11 1.258 . S
C9 O6 1.320 . S
C9 O7 1.214 . S
O10 Cd2 2.277 . S
O10 C5 1.209 . S
C11 O8 1.258 . S
C11 O13 1.282 . S
O12 Cd4 2.277 . S
O12 C5 1.226 . S
O13 Cd4 2.356 . S
O13 C11 1.282 . S
C14 O15 1.306 . S
C14 O17 1.160 . S
O15 C14 1.306 . S
O15 Cd16 2.228 1_565 S
Cd16 O15 2.228 1_545 S
Cd16 O20 2.273 . S
Cd16 O24 2.277 . S
O17 C14 1.160 . S
O17 Cd18 2.203 1_565 S
Cd18 O17 2.203 1_545 S
Cd18 O20 2.411 . S
Cd18 O21 2.333 . S
Cd18 O22 2.352 . S
Cd18 O26 2.277 . S
Cd18 O27 2.356 . S
C19 O24 1.209 . S
C19 O26 1.226 . S
O20 Cd16 2.273 . S
O20 Cd18 2.411 . S
O20 C23 1.320 . S
O21 Cd18 2.333 . S
O21 C23 1.214 . S
O22 Cd18 2.352 . S
O22 C25 1.258 . S
C23 O20 1.320 . S
C23 O21 1.214 . S
O24 Cd16 2.277 . S
O24 C19 1.209 . S
C25 O22 1.258 . S
C25 O27 1.282 . S
O26 Cd18 2.277 . S
O26 C19 1.226 . S
O27 Cd18 2.356 . S
O27 C25 1.282 . S
C28 O29 1.306 . S
C28 O31 1.160 . S
O29 C28 1.306 . S
O29 Cd30 2.228 . S
Cd30 O29 2.228 . S
Cd30 O34 2.273 . S
Cd30 O38 2.277 . S
O31 C28 1.160 . S
O31 Cd32 2.203 . S
Cd32 O31 2.203 . S
Cd32 O34 2.411 . S
Cd32 O35 2.333 . S
Cd32 O36 2.352 . S
Cd32 O40 2.277 . S
Cd32 O41 2.356 . S
C33 O38 1.209 . S
C33 O40 1.226 . S
O34 Cd30 2.273 . S
O34 Cd32 2.411 . S
O34 C37 1.320 . S
O35 Cd32 2.333 . S
O35 C37 1.214 . S
O36 Cd32 2.352 . S
O36 C39 1.258 . S
C37 O34 1.320 . S
C37 O35 1.214 . S
O38 Cd30 2.277 . S
O38 C33 1.209 . S
C39 O36 1.258 . S
C39 O41 1.282 . S
O40 Cd32 2.277 . S
O40 C33 1.226 . S
O41 Cd32 2.356 . S
O41 C39 1.282 . S
C42 O43 1.306 . S
C42 O45 1.160 . S
O43 C42 1.306 . S
O43 Cd44 2.228 1_455 S
Cd44 O43 2.228 1_655 S
Cd44 O48 2.273 . S
Cd44 O52 2.277 . S
O45 C42 1.160 . S
O45 Cd46 2.203 1_455 S
Cd46 O45 2.203 1_655 S
Cd46 O48 2.411 . S
Cd46 O49 2.333 . S
Cd46 O50 2.352 . S
Cd46 O54 2.277 . S
Cd46 O55 2.356 . S
C47 O52 1.209 . S
C47 O54 1.226 . S
O48 Cd44 2.273 . S
O48 Cd46 2.411 . S
O48 C51 1.320 . S
O49 Cd46 2.333 . S
O49 C51 1.214 . S
O50 Cd46 2.352 . S
O50 C53 1.258 . S
C51 O48 1.320 . S
C51 O49 1.214 . S
O52 Cd44 2.277 . S
O52 C47 1.209 . S
C53 O50 1.258 . S
C53 O55 1.282 . S
O54 Cd46 2.277 . S
O54 C47 1.226 . S
O55 Cd46 2.356 . S
O55 C53 1.282 . S
C56 O57 1.306 . S
C56 O59 1.160 . S
O57 C56 1.306 . S
O57 Cd58 2.228 1_545 S
Cd58 O57 2.228 1_565 S
Cd58 O62 2.273 . S
Cd58 O66 2.277 . S
O59 C56 1.160 . S
O59 Cd60 2.203 1_545 S
Cd60 O59 2.203 1_565 S
Cd60 O62 2.411 . S
Cd60 O63 2.333 . S
Cd60 O64 2.352 . S
Cd60 O68 2.277 . S
Cd60 O69 2.356 . S
C61 O66 1.209 . S
C61 O68 1.226 . S
O62 Cd58 2.273 . S
O62 Cd60 2.411 . S
O62 C65 1.320 . S
O63 Cd60 2.333 . S
O63 C65 1.214 . S
O64 Cd60 2.352 . S
O64 C67 1.258 . S
C65 O62 1.320 . S
C65 O63 1.214 . S
O66 Cd58 2.277 . S
O66 C61 1.209 . S
C67 O64 1.258 . S
C67 O69 1.282 . S
O68 Cd60 2.277 . S
O68 C61 1.226 . S
O69 Cd60 2.356 . S
O69 C67 1.282 . S
C70 O71 1.306 . S
C70 O73 1.160 . S
O71 C70 1.306 . S
O71 Cd72 2.228 . S
Cd72 O71 2.228 . S
Cd72 O76 2.273 . S
Cd72 O80 2.277 1_556 S
O73 C70 1.160 . S
O73 Cd74 2.203 . S
Cd74 O73 2.203 . S
Cd74 O76 2.411 . S
Cd74 O77 2.333 . S
Cd74 O78 2.352 . S
Cd74 O82 2.277 1_556 S
Cd74 O83 2.356 . S
C75 O80 1.209 . S
C75 O82 1.226 . S
O76 Cd72 2.273 . S
O76 Cd74 2.411 . S
O76 C79 1.320 . S
O77 Cd74 2.333 . S
O77 C79 1.214 . S
O78 Cd74 2.352 . S
O78 C81 1.258 . S
C79 O76 1.320 . S
C79 O77 1.214 . S
O80 Cd72 2.277 1_554 S
O80 C75 1.209 . S
C81 O78 1.258 . S
C81 O83 1.282 . S
O82 Cd74 2.277 1_554 S
O82 C75 1.226 . S
O83 Cd74 2.356 . S
O83 C81 1.282 . S
C84 O85 1.306 . S
C84 O87 1.160 . S
O85 C84 1.306 . S
O85 Cd86 2.228 1_545 S
Cd86 O85 2.228 1_565 S
Cd86 O90 2.273 . S
Cd86 O94 2.277 . S
O87 C84 1.160 . S
O87 Cd88 2.203 1_545 S
Cd88 O87 2.203 1_565 S
Cd88 O90 2.411 . S
Cd88 O91 2.333 . S
Cd88 O92 2.352 . S
Cd88 O96 2.277 . S
Cd88 O97 2.356 . S
C89 O94 1.209 . S
C89 O96 1.226 . S
O90 Cd86 2.273 . S
O90 Cd88 2.411 . S
O90 C93 1.320 . S
O91 Cd88 2.333 . S
O91 C93 1.214 . S
O92 Cd88 2.352 . S
O92 C95 1.258 . S
C93 O90 1.320 . S
C93 O91 1.214 . S
O94 Cd86 2.277 . S
O94 C89 1.209 . S
C95 O92 1.258 . S
C95 O97 1.282 . S
O96 Cd88 2.277 . S
O96 C89 1.226 . S
O97 Cd88 2.356 . S
O97 C95 1.282 . S
C98 O99 1.306 . S
C98 O101 1.160 . S
O99 C98 1.306 . S
O99 Cd100 2.228 . S
Cd100 O99 2.228 . S
Cd100 O104 2.273 . S
Cd100 O108 2.277 . S
O101 C98 1.160 . S
O101 Cd102 2.203 . S
Cd102 O101 2.203 . S
Cd102 O104 2.411 . S
Cd102 O105 2.333 . S
Cd102 O106 2.352 . S
Cd102 O110 2.277 . S
Cd102 O111 2.356 . S
C103 O108 1.209 . S
C103 O110 1.226 . S
O104 Cd100 2.273 . S
O104 Cd102 2.411 . S
O104 C107 1.320 . S
O105 Cd102 2.333 . S
O105 C107 1.214 . S
O106 Cd102 2.352 . S
O106 C109 1.258 . S
C107 O104 1.320 . S
C107 O105 1.214 . S
O108 Cd100 2.277 . S
O108 C103 1.209 . S
C109 O106 1.258 . S
C109 O111 1.282 . S
O110 Cd102 2.277 . S
O110 C103 1.226 . S
O111 Cd102 2.356 . S
O111 C109 1.282 . S
C112 O113 1.306 . S
C112 O115 1.160 . S
O113 C112 1.306 . S
O113 Cd114 2.228 1_655 S
Cd114 O113 2.228 1_455 S
Cd114 O118 2.273 . S
Cd114 O122 2.277 1_554 S
O115 C112 1.160 . S
O115 Cd116 2.203 1_655 S
Cd116 O115 2.203 1_455 S
Cd116 O118 2.411 . S
Cd116 O119 2.333 . S
Cd116 O120 2.352 . S
Cd116 O124 2.277 1_554 S
Cd116 O125 2.356 . S
C117 O122 1.209 . S
C117 O124 1.226 . S
O118 Cd114 2.273 . S
O118 Cd116 2.411 . S
O118 C121 1.320 . S
O119 Cd116 2.333 . S
O119 C121 1.214 . S
O120 Cd116 2.352 . S
O120 C123 1.258 . S
C121 O118 1.320 . S
C121 O119 1.214 . S
O122 Cd114 2.277 1_556 S
O122 C117 1.209 . S
C123 O120 1.258 . S
C123 O125 1.282 . S
O124 Cd116 2.277 1_556 S
O124 C117 1.226 . S
O125 Cd116 2.356 . S
O125 C123 1.282 . S
C126 O127 1.306 . S
C126 O129 1.160 . S
O127 C126 1.306 . S
O127 Cd128 2.228 1_565 S
Cd128 O127 2.228 1_545 S
Cd128 O132 2.273 . S
Cd128 O136 2.277 . S
O129 C126 1.160 . S
O129 Cd130 2.203 1_565 S
Cd130 O129 2.203 1_545 S
Cd130 O132 2.411 . S
Cd130 O133 2.333 . S
Cd130 O134 2.352 . S
Cd130 O138 2.277 . S
Cd130 O139 2.356 . S
C131 O136 1.209 . S
C131 O138 1.226 . S
O132 Cd128 2.273 . S
O132 Cd130 2.411 . S
O132 C135 1.320 . S
O133 Cd130 2.333 . S
O133 C135 1.214 . S
O134 Cd130 2.352 . S
O134 C137 1.258 . S
C135 O132 1.320 . S
C135 O133 1.214 . S
O136 Cd128 2.277 . S
O136 C131 1.209 . S
C137 O134 1.258 . S
C137 O139 1.282 . S
O138 Cd130 2.277 . S
O138 C131 1.226 . S
O139 Cd130 2.356 . S
O139 C137 1.282 . S
C140 O141 1.306 . S
C140 O143 1.160 . S
O141 C140 1.306 . S
O141 Cd142 2.228 . S
Cd142 O141 2.228 . S
Cd142 O146 2.273 . S
Cd142 O150 2.277 . S
O143 C140 1.160 . S
O143 Cd144 2.203 . S
Cd144 O143 2.203 . S
Cd144 O146 2.411 . S
Cd144 O147 2.333 . S
Cd144 O148 2.352 . S
Cd144 O152 2.277 . S
Cd144 O153 2.356 . S
C145 O150 1.209 . S
C145 O152 1.226 . S
O146 Cd142 2.273 . S
O146 Cd144 2.411 . S
O146 C149 1.320 . S
O147 Cd144 2.333 . S
O147 C149 1.214 . S
O148 Cd144 2.352 . S
O148 C151 1.258 . S
C149 O146 1.320 . S
C149 O147 1.214 . S
O150 Cd142 2.277 . S
O150 C145 1.209 . S
C151 O148 1.258 . S
C151 O153 1.282 . S
O152 Cd144 2.277 . S
O152 C145 1.226 . S
O153 Cd144 2.356 . S
O153 C151 1.282 . S
C154 O155 1.306 . S
C154 O157 1.160 . S
O155 C154 1.306 . S
O155 Cd156 2.228 1_455 S
Cd156 O155 2.228 1_655 S
Cd156 O160 2.273 . S
Cd156 O164 2.277 . S
O157 C154 1.160 . S
O157 Cd158 2.203 1_455 S
Cd158 O157 2.203 1_655 S
Cd158 O160 2.411 . S
Cd158 O161 2.333 . S
Cd158 O162 2.352 . S
Cd158 O166 2.277 . S
Cd158 O167 2.356 . S
C159 O164 1.209 . S
C159 O166 1.226 . S
O160 Cd156 2.273 . S
O160 Cd158 2.411 . S
O160 C163 1.320 . S
O161 Cd158 2.333 . S
O161 C163 1.214 . S
O162 Cd158 2.352 . S
O162 C165 1.258 . S
C163 O160 1.320 . S
C163 O161 1.214 . S
O164 Cd156 2.277 . S
O164 C159 1.209 . S
C165 O162 1.258 . S
C165 O167 1.282 . S
O166 Cd158 2.277 . S
O166 C159 1.226 . S
O167 Cd158 2.356 . S
O167 C165 1.282 . S
C168 C169 1.170 . S
C168 C170 1.380 . S
C169 C168 1.170 . S
C170 C168 1.380 . S
C170 C171 1.170 . S
C171 C170 1.170 . S
C172 C173 1.170 . S
C172 C174 1.380 . S
C173 C172 1.170 . S
C174 C172 1.380 . S
C174 C175 1.170 . S
C175 C174 1.170 . S
C176 C177 1.170 . S
C176 C178 1.380 . S
C177 C176 1.170 . S
C178 C176 1.380 . S
C178 C179 1.170 . S
C179 C178 1.170 . S
C180 C181 1.170 . S
C180 C182 1.380 . S
C181 C180 1.170 . S
C182 C180 1.380 . S
C182 C183 1.170 . S
C183 C182 1.170 . S
C184 C185 1.170 . S
C184 C186 1.380 . S
C185 C184 1.170 . S
C186 C184 1.380 . S
C186 C187 1.170 . S
C187 C186 1.170 . S
C188 C189 1.170 . S
C188 C190 1.380 . S
C189 C188 1.170 . S
C190 C188 1.380 . S
C190 C191 1.170 . S
C191 C190 1.170 . S
C192 C193 1.170 . S
C192 C194 1.380 . S
C193 C192 1.170 . S
C194 C192 1.380 . S
C194 C195 1.170 . S
C195 C194 1.170 . S
C196 C197 1.170 . S
C196 C198 1.380 . S
C197 C196 1.170 . S
C198 C196 1.380 . S
C198 C199 1.170 . S
C199 C198 1.170 . S
C200 C201 1.170 . S
C200 C202 1.380 . S
C201 C200 1.170 . S
C202 C200 1.380 . S
C202 C203 1.170 . S
C203 C202 1.170 . S
C204 C205 1.170 . S
C204 C206 1.380 . S
C205 C204 1.170 . S
C206 C204 1.380 . S
C206 C207 1.170 . S
C207 C206 1.170 . S
C208 C209 1.170 . S
C208 C210 1.380 . S
C209 C208 1.170 . S
C210 C208 1.380 . S
C210 C211 1.170 . S
C211 C210 1.170 . S
C212 C213 1.170 . S
C212 C214 1.380 . S
C213 C212 1.170 . S
C214 C212 1.380 . S
C214 C215 1.170 . S
C215 C214 1.170 . S
C216 C217 1.170 . S
C216 C218 1.380 . S
C217 C216 1.170 . S
C218 C216 1.380 . S
C218 C219 1.170 . S
C219 C218 1.170 . S
C220 C221 1.170 . S
C220 C222 1.380 . S
C221 C220 1.170 . S
C222 C220 1.380 . S
C222 C223 1.170 . S
C223 C222 1.170 . S
C224 C225 1.170 . S
C224 C226 1.380 . S
C225 C224 1.170 . S
C226 C224 1.380 . S
C226 C227 1.170 . S
C227 C226 1.170 . S
C228 C229 1.170 . S
C228 C230 1.380 . S
C229 C228 1.170 . S
C230 C228 1.380 . S
C230 C231 1.170 . S
C231 C230 1.170 . S
C232 C233 1.170 . S
C232 C234 1.380 . S
C233 C232 1.170 . S
C234 C232 1.380 . S
C234 C235 1.170 . S
C235 C234 1.170 . S
C236 C237 1.170 . S
C236 C238 1.380 . S
C237 C236 1.170 . S
C238 C236 1.380 . S
C238 C239 1.170 . S
C239 C238 1.170 . S
C240 C241 1.170 . S
C240 C242 1.380 . S
C241 C240 1.170 . S
C242 C240 1.380 . S
C242 C243 1.170 . S
C243 C242 1.170 . S
C244 C245 1.170 . S
C244 C246 1.380 . S
C245 C244 1.170 . S
C246 C244 1.380 . S
C246 C247 1.170 . S
C247 C246 1.170 . S
C248 C249 1.170 . S
C248 C250 1.380 . S
C249 C248 1.170 . S
C250 C248 1.380 . S
C250 C251 1.170 . S
C251 C250 1.170 . S
C252 C253 1.170 . S
C252 C254 1.380 . S
C253 C252 1.170 . S
C254 C252 1.380 . S
C254 C255 1.170 . S
C255 C254 1.170 . S
C256 C257 1.170 . S
C256 C258 1.380 . S
C257 C256 1.170 . S
C258 C256 1.380 . S
C258 C259 1.170 . S
C259 C258 1.170 . S
C260 C261 1.170 . S
C260 C262 1.380 . S
C261 C260 1.170 . S
C262 C260 1.380 . S
C262 C263 1.170 . S
C263 C262 1.170 . S
C169 C123 1.444 . S
C171 C11 1.447 . S
C173 C25 1.451 . S
C175 C137 1.439 . S
C177 C39 1.436 . S
C179 C151 1.452 . S
C181 C53 1.436 . S
C183 C165 1.433 . S
C185 C95 1.450 . S
C187 C67 1.439 . S
C189 C81 1.444 . S
C191 C109 1.427 . S
C193 C9 1.530 . S
C195 C70 1.516 1_554 S
C197 C23 1.530 . S
C199 C0 1.523 . S
C201 C37 1.534 . S
C203 C14 1.506 . S
C205 C28 1.525 . S
C207 C51 1.528 . S
C209 C42 1.522 . S
C211 C65 1.532 . S
C213 C56 1.508 . S
C215 C79 1.542 . S
C217 C98 1.515 . S
C219 C93 1.537 . S
C221 C107 1.538 . S
C223 C112 1.513 1_556 S
C225 C126 1.489 . S
C227 C121 1.549 . S
C229 C135 1.545 . S
C231 C140 1.492 . S
C233 C149 1.546 . S
C235 C154 1.490 . S
C237 C163 1.546 . S
C239 C84 1.491 . S
C241 C145 1.331 . S
C243 C5 1.328 . S
C245 C159 1.332 . S
C247 C19 1.327 . S
C249 C89 1.329 . S
C251 C33 1.334 . S
C253 C47 1.331 . S
C255 C103 1.328 . S
C257 C61 1.333 . S
C259 C117 1.331 . S
C261 C131 1.329 . S
C263 C75 1.334 . S
