# Generated by pormake.
# Topology unw, (4)-cn, num edge types: 1
# Building blocks:
#     Node 0, Type 0, BuildingBlock: NAWXER_clean_sbu_0, # of connection points: 4
#     Node 1, Type 0, BuildingBlock: NAWXER_clean_sbu_0, # of connection points: 4
#     Node 2, Type 0, BuildingBlock: NAWXER_clean_sbu_0, # of connection points: 4
#     Node 3, Type 0, BuildingBlock: NAWXER_clean_sbu_0, # of connection points: 4
#     Node 4, Type 0, BuildingBlock: NAWXER_clean_sbu_0, # of connection points: 4
#     Node 5, Type 0, BuildingBlock: NAWXER_clean_sbu_0, # of connection points: 4
#     Node 6, Type 0, BuildingBlock: NAWXER_clean_sbu_0, # of connection points: 4
#     Node 7, Type 0, BuildingBlock: NAWXER_clean_sbu_0, # of connection points: 4
#     Node 8, Type 0, BuildingBlock: NAWXER_clean_sbu_0, # of connection points: 4
#     Node 9, Type 0, BuildingBlock: NAWXER_clean_sbu_0, # of connection points: 4
#     Node 10, Type 0, BuildingBlock: NAWXER_clean_sbu_0, # of connection points: 4
#     Node 11, Type 0, BuildingBlock: NAWXER_clean_sbu_0, # of connection points: 4
#     Node 12, Type 0, BuildingBlock: NAWXER_clean_sbu_0, # of connection points: 4
#     Node 13, Type 0, BuildingBlock: NAWXER_clean_sbu_0, # of connection points: 4
#     Node 14, Type 0, BuildingBlock: NAWXER_clean_sbu_0, # of connection points: 4
#     Node 15, Type 0, BuildingBlock: NAWXER_clean_sbu_0, # of connection points: 4
#     Node 16, Type 0, BuildingBlock: NAWXER_clean_sbu_0, # of connection points: 4
#     Node 17, Type 0, BuildingBlock: NAWXER_clean_sbu_0, # of connection points: 4
#     Node 18, Type 0, BuildingBlock: NAWXER_clean_sbu_0, # of connection points: 4
#     Node 19, Type 0, BuildingBlock: NAWXER_clean_sbu_0, # of connection points: 4
#     Node 20, Type 0, BuildingBlock: NAWXER_clean_sbu_0, # of connection points: 4
#     Node 21, Type 0, BuildingBlock: NAWXER_clean_sbu_0, # of connection points: 4
#     Node 22, Type 0, BuildingBlock: NAWXER_clean_sbu_0, # of connection points: 4
#     Node 23, Type 0, BuildingBlock: NAWXER_clean_sbu_0, # of connection points: 4
#     Edge 24, Type (0, 0), BuildingBlock: TEMPAE_clean_linker_10, # of connection points: 2
#     Edge 25, Type (0, 0), BuildingBlock: TEMPAE_clean_linker_10, # of connection points: 2
#     Edge 26, Type (0, 0), BuildingBlock: TEMPAE_clean_linker_10, # of connection points: 2
#     Edge 27, Type (0, 0), BuildingBlock: TEMPAE_clean_linker_10, # of connection points: 2
#     Edge 28, Type (0, 0), BuildingBlock: TEMPAE_clean_linker_10, # of connection points: 2
#     Edge 29, Type (0, 0), BuildingBlock: TEMPAE_clean_linker_10, # of connection points: 2
#     Edge 30, Type (0, 0), BuildingBlock: TEMPAE_clean_linker_10, # of connection points: 2
#     Edge 31, Type (0, 0), BuildingBlock: TEMPAE_clean_linker_10, # of connection points: 2
#     Edge 32, Type (0, 0), BuildingBlock: TEMPAE_clean_linker_10, # of connection points: 2
#     Edge 33, Type (0, 0), BuildingBlock: TEMPAE_clean_linker_10, # of connection points: 2
#     Edge 34, Type (0, 0), BuildingBlock: TEMPAE_clean_linker_10, # of connection points: 2
#     Edge 35, Type (0, 0), BuildingBlock: TEMPAE_clean_linker_10, # of connection points: 2
#     Edge 36, Type (0, 0), BuildingBlock: TEMPAE_clean_linker_10, # of connection points: 2
#     Edge 37, Type (0, 0), BuildingBlock: TEMPAE_clean_linker_10, # of connection points: 2
#     Edge 38, Type (0, 0), BuildingBlock: TEMPAE_clean_linker_10, # of connection points: 2
#     Edge 39, Type (0, 0), BuildingBlock: TEMPAE_clean_linker_10, # of connection points: 2
#     Edge 40, Type (0, 0), BuildingBlock: TEMPAE_clean_linker_10, # of connection points: 2
#     Edge 41, Type (0, 0), BuildingBlock: TEMPAE_clean_linker_10, # of connection points: 2
#     Edge 42, Type (0, 0), BuildingBlock: TEMPAE_clean_linker_10, # of connection points: 2
#     Edge 43, Type (0, 0), BuildingBlock: TEMPAE_clean_linker_10, # of connection points: 2
#     Edge 44, Type (0, 0), BuildingBlock: TEMPAE_clean_linker_10, # of connection points: 2
#     Edge 45, Type (0, 0), BuildingBlock: TEMPAE_clean_linker_10, # of connection points: 2
#     Edge 46, Type (0, 0), BuildingBlock: TEMPAE_clean_linker_10, # of connection points: 2
#     Edge 47, Type (0, 0), BuildingBlock: TEMPAE_clean_linker_10, # of connection points: 2
#     Edge 48, Type (0, 0), BuildingBlock: TEMPAE_clean_linker_10, # of connection points: 2
#     Edge 49, Type (0, 0), BuildingBlock: TEMPAE_clean_linker_10, # of connection points: 2
#     Edge 50, Type (0, 0), BuildingBlock: TEMPAE_clean_linker_10, # of connection points: 2
#     Edge 51, Type (0, 0), BuildingBlock: TEMPAE_clean_linker_10, # of connection points: 2
#     Edge 52, Type (0, 0), BuildingBlock: TEMPAE_clean_linker_10, # of connection points: 2
#     Edge 53, Type (0, 0), BuildingBlock: TEMPAE_clean_linker_10, # of connection points: 2
#     Edge 54, Type (0, 0), BuildingBlock: TEMPAE_clean_linker_10, # of connection points: 2
#     Edge 55, Type (0, 0), BuildingBlock: TEMPAE_clean_linker_10, # of connection points: 2
#     Edge 56, Type (0, 0), BuildingBlock: TEMPAE_clean_linker_10, # of connection points: 2
#     Edge 57, Type (0, 0), BuildingBlock: TEMPAE_clean_linker_10, # of connection points: 2
#     Edge 58, Type (0, 0), BuildingBlock: TEMPAE_clean_linker_10, # of connection points: 2
#     Edge 59, Type (0, 0), BuildingBlock: TEMPAE_clean_linker_10, # of connection points: 2
#     Edge 60, Type (0, 0), BuildingBlock: TEMPAE_clean_linker_10, # of connection points: 2
#     Edge 61, Type (0, 0), BuildingBlock: TEMPAE_clean_linker_10, # of connection points: 2
#     Edge 62, Type (0, 0), BuildingBlock: TEMPAE_clean_linker_10, # of connection points: 2
#     Edge 63, Type (0, 0), BuildingBlock: TEMPAE_clean_linker_10, # of connection points: 2
#     Edge 64, Type (0, 0), BuildingBlock: TEMPAE_clean_linker_10, # of connection points: 2
#     Edge 65, Type (0, 0), BuildingBlock: TEMPAE_clean_linker_10, # of connection points: 2
#     Edge 66, Type (0, 0), BuildingBlock: TEMPAE_clean_linker_10, # of connection points: 2
#     Edge 67, Type (0, 0), BuildingBlock: TEMPAE_clean_linker_10, # of connection points: 2
#     Edge 68, Type (0, 0), BuildingBlock: TEMPAE_clean_linker_10, # of connection points: 2
#     Edge 69, Type (0, 0), BuildingBlock: TEMPAE_clean_linker_10, # of connection points: 2
#     Edge 70, Type (0, 0), BuildingBlock: TEMPAE_clean_linker_10, # of connection points: 2
#     Edge 71, Type (0, 0), BuildingBlock: TEMPAE_clean_linker_10, # of connection points: 2
# Relax obj value: 0.404
# Max RMSD: 0.268
# Mean RMSD: 0.268
data_MOF--net-unw--node1-NAWXER_clean_sbu_0--edge1-TEMPAE_clean_linker_10
_symmetry_space_group_name_H-M    P1
_symmetry_Int_Tables_number       1
_symmetry_cell_setting            triclinic
loop_
_symmetry_equiv_pos_as_xyz
'x, y, z'
_cell_length_a     45.984007
_cell_length_b     45.835899
_cell_length_c     46.07269
_cell_angle_alpha  89.700292
_cell_angle_beta   90.197697
_cell_angle_gamma 90.110302
loop_
_atom_site_label
_atom_site_type_symbol
_atom_site_fract_x
_atom_site_fract_y
_atom_site_fract_z
_atom_type_partial_charge
C0 C 0.19483 0.37284 0.24834 0.0
C1 C 0.10951 0.40279 0.30554 0.0
O2 O 0.1709 0.3746 0.23424 0.0
Zn3 Zn 0.12683 0.38713 0.23975 0.0
O4 O 0.19615 0.38277 0.27414 0.0
Zn5 Zn 0.15473 0.39417 0.27697 0.0
O6 O 0.13702 0.35165 0.27209 0.0
O7 O 0.11051 0.34821 0.23199 0.0
O8 O 0.13597 0.40444 0.31368 0.0
O9 O 0.1038 0.39772 0.27875 0.0
O10 O 0.12317 0.41968 0.21238 0.0
O11 O 0.15228 0.43118 0.24864 0.0
C12 C 0.12126 0.3366 0.25486 0.0
C13 C 0.14007 0.43797 0.22447 0.0
C14 C 0.62742 0.22321 0.30407 0.0
C15 C 0.64605 0.12376 0.3438 0.0
O16 O 0.64793 0.20808 0.2936 0.0
Zn17 Zn 0.66932 0.16846 0.29533 0.0
O18 O 0.61144 0.21287 0.3244 0.0
Zn19 Zn 0.63201 0.1742 0.32573 0.0
O20 O 0.67166 0.1906 0.34076 0.0
O21 O 0.70724 0.18512 0.30943 0.0
O22 O 0.62597 0.14078 0.35242 0.0
O23 O 0.66234 0.13179 0.32269 0.0
O24 O 0.65732 0.15755 0.25504 0.0
O25 O 0.61931 0.16035 0.28389 0.0
C26 C 0.6981 0.19494 0.33368 0.0
C27 C 0.62975 0.15646 0.2585 0.0
C28 C 0.95497 0.66039 0.31391 0.0
C29 C 0.88219 0.6873 0.2429 0.0
O30 O 0.95728 0.66972 0.28816 0.0
Zn31 Zn 0.91718 0.6676 0.27598 0.0
O32 O 0.93034 0.64995 0.32204 0.0
Zn33 Zn 0.88837 0.64438 0.29972 0.0
O34 O 0.88188 0.60392 0.29092 0.0
O35 O 0.9084 0.62437 0.2572 0.0
O36 O 0.87072 0.67002 0.26194 0.0
O37 O 0.90944 0.69166 0.24337 0.0
O38 O 0.89141 0.69177 0.30984 0.0
O39 O 0.8633 0.65768 0.32914 0.0
C40 C 0.8939 0.60219 0.26638 0.0
C41 C 0.87145 0.68412 0.32807 0.0
C42 C 0.3781 0.86232 0.3127 0.0
C43 C 0.45582 0.88804 0.24704 0.0
O44 O 0.40487 0.85574 0.31294 0.0
Zn45 Zn 0.41562 0.8803 0.28178 0.0
O46 O 0.36865 0.88114 0.29395 0.0
Zn47 Zn 0.38973 0.90673 0.25789 0.0
O48 O 0.36534 0.89673 0.22671 0.0
O49 O 0.3898 0.85974 0.24562 0.0
O50 O 0.43234 0.90025 0.23805 0.0
O51 O 0.45599 0.87637 0.27193 0.0
O52 O 0.40935 0.92324 0.30173 0.0
O53 O 0.38621 0.94701 0.26744 0.0
C54 C 0.37133 0.86975 0.22686 0.0
C55 C 0.39747 0.94687 0.29247 0.0
C56 C 0.19628 0.70243 0.72458 0.0
C57 C 0.1676 0.62432 0.79444 0.0
O58 O 0.19442 0.6765 0.71476 0.0
Zn59 Zn 0.18289 0.63372 0.72691 0.0
O60 O 0.1865 0.70774 0.74995 0.0
Zn61 Zn 0.17468 0.66697 0.76034 0.0
O62 O 0.21662 0.65003 0.75865 0.0
O63 O 0.2231 0.61776 0.72367 0.0
O64 O 0.166 0.6516 0.7997 0.0
O65 O 0.1722 0.61594 0.76837 0.0
O66 O 0.14981 0.6257 0.70079 0.0
O67 O 0.1378 0.65839 0.73358 0.0
C68 C 0.23301 0.63251 0.74504 0.0
C69 C 0.13096 0.64286 0.71149 0.0
C70 C 0.35449 0.13675 0.80992 0.0
C71 C 0.45727 0.15638 0.83837 0.0
O72 O 0.36865 0.1561 0.79606 0.0
Zn73 Zn 0.40856 0.17691 0.79239 0.0
O74 O 0.36672 0.12216 0.83034 0.0
Zn75 Zn 0.40548 0.14183 0.82566 0.0
O76 O 0.39078 0.18295 0.83925 0.0
O77 O 0.39342 0.21595 0.80445 0.0
O78 O 0.44122 0.13651 0.84936 0.0
O79 O 0.44724 0.17175 0.81726 0.0
O80 O 0.41609 0.16273 0.75232 0.0
O81 O 0.41507 0.12614 0.78357 0.0
C82 C 0.38574 0.20882 0.83019 0.0
C83 C 0.4172 0.13531 0.75738 0.0
C84 C 0.87791 0.35794 0.73665 0.0
C85 C 0.9101 0.43842 0.80166 0.0
O86 O 0.88383 0.38251 0.72491 0.0
Zn87 Zn 0.89916 0.42453 0.73425 0.0
O88 O 0.88552 0.35336 0.76301 0.0
Zn89 Zn 0.90163 0.39331 0.77112 0.0
O90 O 0.86175 0.41409 0.76452 0.0
O91 O 0.86082 0.4437 0.72641 0.0
O92 O 0.90968 0.41168 0.80968 0.0
O93 O 0.9079 0.44439 0.77459 0.0
O94 O 0.93512 0.42751 0.711 0.0
O95 O 0.94059 0.39544 0.74634 0.0
C96 C 0.84808 0.43181 0.74813 0.0
C97 C 0.95093 0.40875 0.72408 0.0
C98 C 0.62909 0.93351 0.70719 0.0
C99 C 0.64143 0.83389 0.74951 0.0
O100 O 0.64291 0.93183 0.73133 0.0
Zn101 Zn 0.65624 0.90077 0.76292 0.0
O102 O 0.61731 0.91056 0.69681 0.0
Zn103 Zn 0.62981 0.88182 0.72673 0.0
O104 O 0.60596 0.8903 0.76478 0.0
O105 O 0.63361 0.90955 0.79885 0.0
O106 O 0.62738 0.83821 0.72585 0.0
O107 O 0.65159 0.85546 0.76361 0.0
O108 O 0.69956 0.8999 0.75669 0.0
O109 O 0.67409 0.88343 0.7196 0.0
C110 C 0.60888 0.89971 0.79074 0.0
C111 C 0.69859 0.8895 0.73097 0.0
C112 C 0.22733 0.18663 0.35774 0.0
C113 C 0.29642 0.11173 0.38341 0.0
O114 O 0.22794 0.15964 0.35193 0.0
Zn115 Zn 0.26027 0.15057 0.3755 0.0
O116 O 0.24616 0.19723 0.37572 0.0
Zn117 Zn 0.2835 0.17819 0.40088 0.0
O118 O 0.31387 0.20356 0.38902 0.0
O119 O 0.29501 0.17714 0.35368 0.0
O120 O 0.30466 0.13568 0.39529 0.0
O121 O 0.27156 0.11076 0.37171 0.0
O122 O 0.24147 0.15553 0.41871 0.0
O123 O 0.27403 0.18203 0.44132 0.0
C124 C 0.31335 0.19663 0.3624 0.0
C125 C 0.25014 0.16837 0.44189 0.0
C126 C 0.93535 0.33453 0.41736 0.0
C127 C 0.83312 0.31127 0.44191 0.0
O128 O 0.92499 0.31188 0.40473 0.0
Zn129 Zn 0.88597 0.28684 0.40389 0.0
O130 O 0.92 0.34742 0.43633 0.0
Zn131 Zn 0.88427 0.32377 0.43435 0.0
O132 O 0.89219 0.28297 0.45491 0.0
O133 O 0.89372 0.24814 0.42224 0.0
O134 O 0.84644 0.33302 0.45314 0.0
O135 O 0.84628 0.29423 0.42465 0.0
O136 O 0.86985 0.29446 0.36402 0.0
O137 O 0.86889 0.33302 0.39232 0.0
C138 C 0.89399 0.25579 0.44885 0.0
C139 C 0.86277 0.3211 0.36808 0.0
C140 C 0.8165 0.90921 0.47378 0.0
C141 C 0.78013 0.89782 0.37362 0.0
O142 O 0.79004 0.90036 0.47208 0.0
Zn143 Zn 0.75724 0.89399 0.43931 0.0
O144 O 0.82883 0.91883 0.45094 0.0
Zn145 Zn 0.798 0.90976 0.42255 0.0
O146 O 0.76516 0.94311 0.42497 0.0
O147 O 0.72622 0.9228 0.44411 0.0
O148 O 0.80526 0.90757 0.38039 0.0
O149 O 0.76126 0.89329 0.39342 0.0
O150 O 0.75025 0.85181 0.44332 0.0
O151 O 0.79448 0.86369 0.42857 0.0
C152 C 0.73856 0.9451 0.4331 0.0
C153 C 0.7758 0.84427 0.43568 0.0
C154 C 0.22495 0.77215 0.432 0.0
C155 C 0.12178 0.74353 0.42786 0.0
O156 O 0.20746 0.7922 0.42372 0.0
Zn157 Zn 0.16234 0.79968 0.4166 0.0
O158 O 0.21509 0.74752 0.44056 0.0
Zn159 Zn 0.17392 0.75804 0.43561 0.0
O160 O 0.17578 0.76039 0.38966 0.0
O161 O 0.16603 0.80495 0.37399 0.0
O162 O 0.14216 0.72981 0.44073 0.0
O163 O 0.12658 0.76963 0.41883 0.0
O164 O 0.15531 0.83202 0.44397 0.0
O165 O 0.17019 0.79242 0.46678 0.0
C166 C 0.17333 0.77862 0.36874 0.0
C167 C 0.16361 0.8196 0.46735 0.0
C168 C 0.31374 0.85494 0.63364 0.0
C169 C 0.34117 0.95779 0.65669 0.0
O170 O 0.29995 0.86826 0.65337 0.0
Zn171 Zn 0.29604 0.90741 0.67544 0.0
O172 O 0.33369 0.86807 0.61926 0.0
Zn173 Zn 0.32878 0.90629 0.64004 0.0
O174 O 0.34324 0.88981 0.68004 0.0
O175 O 0.30901 0.8901 0.71337 0.0
O176 O 0.35175 0.94282 0.636 0.0
O177 O 0.32052 0.94675 0.67187 0.0
O178 O 0.2555 0.91476 0.66158 0.0
O179 O 0.2863 0.91545 0.62506 0.0
C180 C 0.33468 0.883 0.70549 0.0
C181 C 0.26013 0.91663 0.63429 0.0
C182 C 0.1518 0.22634 0.6254 0.0
C183 C 0.13768 0.25672 0.7273 0.0
O184 O 0.16684 0.24836 0.63366 0.0
Zn185 Zn 0.17431 0.27399 0.67103 0.0
O186 O 0.13408 0.21434 0.64304 0.0
Zn187 Zn 0.14053 0.23958 0.67698 0.0
O188 O 0.12366 0.28109 0.66557 0.0
O189 O 0.15901 0.31354 0.66198 0.0
O190 O 0.12326 0.23545 0.71654 0.0
O191 O 0.15571 0.27088 0.71181 0.0
O192 O 0.2145 0.26264 0.68405 0.0
O193 O 0.18251 0.22732 0.68957 0.0
C194 C 0.13187 0.3075 0.6615 0.0
C195 C 0.20841 0.23679 0.69271 0.0
C196 C 0.72769 0.16944 0.69285 0.0
C197 C 0.79101 0.15243 0.60638 0.0
O198 O 0.71727 0.17332 0.66751 0.0
Zn199 Zn 0.72605 0.17108 0.62358 0.0
O200 O 0.7534 0.15909 0.69565 0.0
Zn201 Zn 0.76163 0.15467 0.65289 0.0
O202 O 0.762 0.19918 0.64432 0.0
O203 O 0.72548 0.21434 0.61681 0.0
O204 O 0.79874 0.14546 0.63218 0.0
O205 O 0.76484 0.16078 0.6019 0.0
O206 O 0.69706 0.14101 0.61231 0.0
O207 O 0.73115 0.12222 0.64052 0.0
C208 C 0.74852 0.21976 0.63151 0.0
C209 C 0.70756 0.1191 0.62595 0.0
C210 C 0.87565 0.72583 0.70021 0.0
C211 C 0.91141 0.80499 0.63399 0.0
O212 O 0.87633 0.72122 0.67298 0.0
Zn213 Zn 0.88863 0.73886 0.63333 0.0
O214 O 0.88735 0.74908 0.71016 0.0
Zn215 Zn 0.90017 0.76649 0.67208 0.0
O216 O 0.85908 0.77214 0.65501 0.0
O217 O 0.84836 0.74504 0.61691 0.0
O218 O 0.9125 0.80727 0.66166 0.0
O219 O 0.90458 0.78045 0.62283 0.0
O220 O 0.91997 0.71168 0.62165 0.0
O221 O 0.93433 0.73916 0.65828 0.0
C222 C 0.84125 0.76457 0.63534 0.0
C223 C 0.93966 0.71916 0.63975 0.0
C224 C 0.42602 0.29008 0.20483 0.0
C225 C 0.42465 0.31839 0.10112 0.0
O226 O 0.41968 0.26963 0.18715 0.0
Zn227 Zn 0.41503 0.2618 0.14182 0.0
O228 O 0.43354 0.31515 0.19516 0.0
Zn229 Zn 0.43106 0.30428 0.15378 0.0
O230 O 0.38496 0.29927 0.15386 0.0
O231 O 0.37296 0.25359 0.14415 0.0
O232 O 0.43663 0.33247 0.1217 0.0
O233 O 0.41634 0.29205 0.1059 0.0
O234 O 0.44459 0.23093 0.13651 0.0
O235 O 0.46438 0.2716 0.15232 0.0
C236 C 0.36553 0.2795 0.15095 0.0
C237 C 0.46679 0.24445 0.14615 0.0
C238 C 0.37202 0.73843 0.86612 0.0
C239 C 0.44791 0.80911 0.89803 0.0
O240 O 0.3976 0.72882 0.87086 0.0
Zn241 Zn 0.43916 0.74097 0.88483 0.0
O242 O 0.36566 0.76437 0.87399 0.0
Zn243 Zn 0.40529 0.77526 0.88893 0.0
O244 O 0.4251 0.77161 0.84869 0.0
O245 O 0.45725 0.73587 0.84575 0.0
O246 O 0.42074 0.81485 0.89756 0.0
O247 O 0.45617 0.78265 0.89497 0.0
O248 O 0.4439 0.71584 0.91941 0.0
O249 O 0.41 0.74896 0.92667 0.0
C250 C 0.44332 0.75704 0.83403 0.0
C251 C 0.4246 0.72691 0.93579 0.0
C252 C 0.24333 0.45256 0.90635 0.0
C253 C 0.26757 0.3494 0.93079 0.0
O254 O 0.26414 0.4413 0.89173 0.0
Zn255 Zn 0.28779 0.40152 0.88905 0.0
O256 O 0.23216 0.43781 0.92706 0.0
Zn257 Zn 0.25449 0.40104 0.92384 0.0
O258 O 0.29709 0.40885 0.93961 0.0
O259 O 0.32826 0.40773 0.90343 0.0
O260 O 0.2477 0.363 0.94464 0.0
O261 O 0.28218 0.36239 0.91125 0.0
O262 O 0.27509 0.38489 0.85088 0.0
O263 O 0.24026 0.38528 0.88357 0.0
C264 C 0.32341 0.40934 0.93067 0.0
C265 C 0.24902 0.37856 0.85824 0.0
C266 C 0.70341 0.33367 0.86592 0.0
C267 C 0.63322 0.26022 0.90563 0.0
O268 O 0.67652 0.34036 0.86661 0.0
Zn269 Zn 0.63582 0.32554 0.88024 0.0
O270 O 0.71179 0.3102 0.87851 0.0
Zn271 Zn 0.67273 0.29606 0.89204 0.0
O272 O 0.65468 0.29015 0.85128 0.0
O273 O 0.61831 0.31988 0.84065 0.0
O274 O 0.66079 0.25656 0.90624 0.0
O275 O 0.62296 0.28498 0.89788 0.0
O276 O 0.62594 0.35448 0.9105 0.0
O277 O 0.66112 0.32531 0.92549 0.0
C278 C 0.63516 0.29886 0.8337 0.0
C279 C 0.6438 0.34659 0.93028 0.0
C280 C 0.7501 0.68526 0.86717 0.0
C281 C 0.81219 0.60176 0.8987 0.0
O282 O 0.73771 0.66073 0.87157 0.0
Zn283 Zn 0.74541 0.61777 0.88525 0.0
O284 O 0.77644 0.68873 0.87554 0.0
Zn285 Zn 0.783 0.64779 0.89011 0.0
O286 O 0.77716 0.6288 0.84948 0.0
O287 O 0.73805 0.60072 0.84617 0.0
O288 O 0.82074 0.62829 0.89925 0.0
O289 O 0.78508 0.59646 0.89502 0.0
O290 O 0.72038 0.61429 0.9197 0.0
O291 O 0.75657 0.64484 0.92771 0.0
C292 C 0.7606 0.61229 0.83465 0.0
C293 C 0.73341 0.632 0.93657 0.0
C294 C 0.73469 0.78691 0.13002 0.0
C295 C 0.63252 0.8149 0.14484 0.0
O296 O 0.71937 0.76912 0.14495 0.0
Zn297 Zn 0.6767 0.76313 0.161 0.0
O298 O 0.72315 0.80972 0.11895 0.0
Zn299 Zn 0.6838 0.80122 0.13355 0.0
O300 O 0.6944 0.80667 0.17794 0.0
O301 O 0.68665 0.76624 0.20285 0.0
O302 O 0.65095 0.82796 0.12882 0.0
O303 O 0.63961 0.79075 0.15711 0.0
O304 O 0.66708 0.72633 0.14147 0.0
O305 O 0.6737 0.76229 0.11019 0.0
C306 C 0.69575 0.79256 0.2019 0.0
C307 C 0.66858 0.73522 0.11526 0.0
C308 C 0.26112 0.67976 0.19493 0.0
C309 C 0.31558 0.65127 0.10756 0.0
O310 O 0.2463 0.6793 0.17141 0.0
Zn311 Zn 0.25054 0.66841 0.12678 0.0
O312 O 0.28674 0.6691 0.1951 0.0
Zn313 Zn 0.28803 0.65902 0.15345 0.0
O314 O 0.28415 0.7024 0.13737 0.0
O315 O 0.24348 0.70808 0.11203 0.0
O316 O 0.32409 0.64814 0.13374 0.0
O317 O 0.28884 0.65753 0.10255 0.0
O318 O 0.22204 0.63716 0.12225 0.0
O319 O 0.25827 0.62309 0.1504 0.0
C320 C 0.26695 0.71856 0.12259 0.0
C321 C 0.23367 0.61775 0.1383 0.0
C322 C 0.71427 0.42692 0.1196 0.0
C323 C 0.74646 0.42874 0.22276 0.0
O324 O 0.73636 0.41101 0.12582 0.0
Zn325 Zn 0.76284 0.39971 0.1621 0.0
O326 O 0.70325 0.44299 0.1392 0.0
Zn327 Zn 0.7289 0.43263 0.17217 0.0
O328 O 0.77031 0.4508 0.16344 0.0
O329 O 0.80225 0.41604 0.15502 0.0
O330 O 0.72517 0.44436 0.21382 0.0
O331 O 0.7604 0.41285 0.2051 0.0
O332 O 0.7518 0.35822 0.1705 0.0
O333 O 0.71651 0.38941 0.17899 0.0
C334 C 0.79656 0.44307 0.15852 0.0
C335 C 0.72583 0.36326 0.17896 0.0
C336 C 0.18732 0.58978 0.14649 0.0
C337 C 0.21783 0.59035 0.14572 0.0
C338 C 0.17218 0.56538 0.15755 0.0
C339 C 0.18786 0.54062 0.16741 0.0
C340 C 0.21862 0.54056 0.16525 0.0
C341 C 0.2332 0.56553 0.15486 0.0
C342 C 0.13949 0.56671 0.16004 0.0
C343 C 0.23624 0.51442 0.17473 0.0
C344 C 0.15826 0.48952 0.22591 0.0
C345 C 0.14844 0.46565 0.20963 0.0
C346 C 0.16981 0.51454 0.21234 0.0
C347 C 0.17248 0.5155 0.1817 0.0
C348 C 0.16193 0.49173 0.16509 0.0
C349 C 0.14971 0.46727 0.17923 0.0
C350 C 0.17999 0.53962 0.23093 0.0
C351 C 0.1649 0.49148 0.13248 0.0
H352 H 0.17527 0.60899 0.1398 0.0
H353 H 0.25677 0.56575 0.15425 0.0
H354 H 0.12939 0.5473 0.14984 0.0
H355 H 0.13327 0.56646 0.18329 0.0
H356 H 0.13033 0.58665 0.14971 0.0
H357 H 0.2596 0.51669 0.16905 0.0
H358 H 0.23451 0.51153 0.19858 0.0
H359 H 0.22759 0.49431 0.16451 0.0
H360 H 0.1573 0.48846 0.2494 0.0
H361 H 0.14254 0.44876 0.1665 0.0
H362 H 0.17061 0.56043 0.22285 0.0
H363 H 0.204 0.54162 0.22962 0.0
H364 H 0.17388 0.53672 0.25408 0.0
H365 H 0.15561 0.51166 0.1229 0.0
H366 H 0.15396 0.47233 0.12254 0.0
H367 H 0.18829 0.49096 0.12664 0.0
C368 C 0.57899 0.15283 0.23933 0.0
C369 C 0.60859 0.1582 0.23376 0.0
C370 C 0.55693 0.16332 0.22078 0.0
C371 C 0.56439 0.17929 0.19548 0.0
C372 C 0.59425 0.18215 0.18809 0.0
C373 C 0.61601 0.17174 0.20735 0.0
C374 C 0.52561 0.15964 0.22986 0.0
C375 C 0.60317 0.19797 0.16075 0.0
C376 C 0.5001 0.20012 0.14582 0.0
C377 C 0.49373 0.22849 0.15534 0.0
C378 C 0.52396 0.18431 0.15739 0.0
C379 C 0.54132 0.19668 0.17976 0.0
C380 C 0.53508 0.22544 0.18904 0.0
C381 C 0.5119 0.241 0.17649 0.0
C382 C 0.52987 0.15397 0.14641 0.0
C383 C 0.55211 0.23945 0.21332 0.0
H384 H 0.57288 0.1423 0.25954 0.0
H385 H 0.63868 0.17623 0.20277 0.0
H386 H 0.51683 0.18104 0.23677 0.0
H387 H 0.51215 0.152 0.21139 0.0
H388 H 0.5232 0.14394 0.24815 0.0
H389 H 0.62702 0.19699 0.1571 0.0
H390 H 0.59184 0.18837 0.14174 0.0
H391 H 0.59656 0.2212 0.16196 0.0
H392 H 0.48621 0.19011 0.12962 0.0
H393 H 0.50713 0.26269 0.18443 0.0
H394 H 0.5222 0.13773 0.1626 0.0
H395 H 0.55354 0.1505 0.1434 0.0
H396 H 0.51852 0.14972 0.12552 0.0
H397 H 0.549 0.22685 0.23372 0.0
H398 H 0.54559 0.26243 0.21715 0.0
H399 H 0.57554 0.239 0.20815 0.0
C400 C 0.81215 0.49512 0.16173 0.0
C401 C 0.81966 0.46545 0.16347 0.0
C402 C 0.82925 0.5168 0.17493 0.0
C403 C 0.85491 0.50887 0.19012 0.0
C404 C 0.86422 0.47935 0.18938 0.0
C405 C 0.84644 0.45795 0.17617 0.0
C406 C 0.81822 0.54781 0.17501 0.0
C407 C 0.89167 0.46989 0.20472 0.0
C408 C 0.89891 0.57368 0.21947 0.0
C409 C 0.88777 0.5762 0.24772 0.0
C410 C 0.88986 0.55087 0.2009 0.0
C411 C 0.86871 0.53041 0.21052 0.0
C412 C 0.85834 0.53225 0.23938 0.0
C413 C 0.86813 0.55479 0.25754 0.0
C414 C 0.90209 0.54934 0.17062 0.0
C415 C 0.83548 0.51141 0.25068 0.0
H416 H 0.79159 0.50123 0.15184 0.0
H417 H 0.85244 0.43514 0.17788 0.0
H418 H 0.81045 0.55333 0.19709 0.0
H419 H 0.83591 0.5633 0.16948 0.0
H420 H 0.79998 0.55109 0.15945 0.0
H421 H 0.89926 0.4483 0.19697 0.0
H422 H 0.90929 0.48616 0.20155 0.0
H423 H 0.88745 0.46814 0.22837 0.0
H424 H 0.91412 0.58995 0.21157 0.0
H425 H 0.85927 0.55629 0.27925 0.0
H426 H 0.88538 0.55661 0.15476 0.0
H427 H 0.90795 0.52655 0.16515 0.0
H428 H 0.92162 0.56341 0.16804 0.0
H429 H 0.81457 0.51554 0.23929 0.0
H430 H 0.8319 0.51372 0.27439 0.0
H431 H 0.84175 0.48855 0.24619 0.0
C432 C 0.58165 0.81116 0.16357 0.0
C433 C 0.60415 0.8285 0.15226 0.0
C434 C 0.55645 0.82371 0.17526 0.0
C435 C 0.55372 0.85448 0.17618 0.0
C436 C 0.57565 0.87211 0.16343 0.0
C437 C 0.60052 0.8589 0.15143 0.0
C438 C 0.53347 0.80398 0.18811 0.0
C439 C 0.57375 0.90495 0.16407 0.0
C440 C 0.47875 0.88288 0.19779 0.0
C441 C 0.48167 0.88462 0.22806 0.0
C442 C 0.50235 0.87434 0.18029 0.0
C443 C 0.52957 0.86781 0.19335 0.0
C444 C 0.53301 0.87141 0.2237 0.0
C445 C 0.50903 0.8795 0.24064 0.0
C446 C 0.49764 0.8706 0.1481 0.0
C447 C 0.56167 0.86523 0.23858 0.0
H448 H 0.58414 0.78764 0.16411 0.0
H449 H 0.61785 0.87249 0.14291 0.0
H450 H 0.53338 0.8063 0.21207 0.0
H451 H 0.51159 0.81029 0.18006 0.0
H452 H 0.53724 0.78066 0.18285 0.0
H453 H 0.59039 0.91543 0.15002 0.0
H454 H 0.55188 0.91236 0.157 0.0
H455 H 0.57706 0.91261 0.18666 0.0
H456 H 0.45763 0.88657 0.18793 0.0
H457 H 0.51151 0.88097 0.26399 0.0
H458 H 0.4977 0.84701 0.14281 0.0
H459 H 0.51556 0.88096 0.13569 0.0
H460 H 0.47664 0.88008 0.14074 0.0
H461 H 0.56642 0.84153 0.23755 0.0
H462 H 0.5616 0.87187 0.26174 0.0
H463 H 0.57961 0.87685 0.22734 0.0
C464 C 0.24551 0.49785 0.8754 0.0
C465 C 0.23104 0.48136 0.89677 0.0
C466 C 0.23291 0.52295 0.86293 0.0
C467 C 0.20491 0.53212 0.87184 0.0
C468 C 0.19073 0.51645 0.8944 0.0
C469 C 0.20391 0.49131 0.90658 0.0
C470 C 0.2491 0.5389 0.83917 0.0
C471 C 0.16106 0.52554 0.90483 0.0
C472 C 0.18414 0.60846 0.84437 0.0
C473 C 0.17025 0.60193 0.81798 0.0
C474 C 0.19401 0.58604 0.86316 0.0
C475 C 0.18981 0.55634 0.85551 0.0
C476 C 0.17384 0.54981 0.82997 0.0
C477 C 0.16441 0.57255 0.8116 0.0
C478 C 0.21084 0.59421 0.89008 0.0
C479 C 0.16856 0.51865 0.82083 0.0
H480 H 0.26654 0.49066 0.86768 0.0
H481 H 0.19244 0.47886 0.92301 0.0
H482 H 0.23719 0.5365 0.81832 0.0
H483 H 0.25029 0.56255 0.844 0.0
H484 H 0.27155 0.53052 0.8363 0.0
H485 H 0.15434 0.51334 0.9246 0.0
H486 H 0.16078 0.54924 0.90958 0.0
H487 H 0.14475 0.52155 0.88749 0.0
H488 H 0.18922 0.63099 0.84935 0.0
H489 H 0.15377 0.56722 0.79126 0.0
H490 H 0.23438 0.59074 0.88623 0.0
H491 H 0.20443 0.58023 0.90874 0.0
H492 H 0.20753 0.61744 0.89596 0.0
H493 H 0.18948 0.50857 0.8144 0.0
H494 H 0.1532 0.51716 0.80223 0.0
H495 H 0.15973 0.50567 0.83918 0.0
C496 C 0.61703 0.2093 0.89294 0.0
C497 C 0.61188 0.23573 0.90731 0.0
C498 C 0.59372 0.19074 0.88498 0.0
C499 C 0.56464 0.19885 0.89142 0.0
C500 C 0.55981 0.22402 0.90844 0.0
C501 C 0.58339 0.24199 0.91619 0.0
C502 C 0.59998 0.1634 0.86806 0.0
C503 C 0.52942 0.23375 0.91598 0.0
C504 C 0.5038 0.18507 0.83675 0.0
C505 C 0.48656 0.16391 0.85071 0.0
C506 C 0.52977 0.19547 0.8492 0.0
C507 C 0.53925 0.18446 0.87645 0.0
C508 C 0.52281 0.162 0.89004 0.0
C509 C 0.49664 0.15207 0.8771 0.0
C510 C 0.54649 0.21922 0.83362 0.0
C511 C 0.53215 0.14929 0.91883 0.0
H512 H 0.63887 0.20437 0.8857 0.0
H513 H 0.57917 0.26238 0.92724 0.0
H514 H 0.59156 0.14414 0.88008 0.0
H515 H 0.58853 0.16405 0.84683 0.0
H516 H 0.62361 0.16035 0.86417 0.0
H517 H 0.52945 0.25148 0.93233 0.0
H518 H 0.51835 0.24186 0.89608 0.0
H519 H 0.51646 0.2152 0.92453 0.0
H520 H 0.49658 0.19428 0.81626 0.0
H521 H 0.48366 0.13571 0.88814 0.0
H522 H 0.56933 0.21233 0.83034 0.0
H523 H 0.54692 0.23926 0.84703 0.0
H524 H 0.53688 0.22472 0.81213 0.0
H525 H 0.55592 0.14515 0.91914 0.0
H526 H 0.52055 0.12859 0.92382 0.0
H527 H 0.52742 0.1651 0.93633 0.0
C528 C 0.86312 0.58034 0.89477 0.0
C529 C 0.83281 0.57662 0.896 0.0
C530 C 0.88147 0.55729 0.88584 0.0
C531 C 0.86918 0.53036 0.87673 0.0
C532 C 0.83889 0.52597 0.87996 0.0
C533 C 0.82135 0.54876 0.89009 0.0
C534 C 0.91384 0.56239 0.88474 0.0
C535 C 0.82445 0.49804 0.87022 0.0
C536 C 0.89918 0.49088 0.81115 0.0
C537 C 0.90639 0.46321 0.82246 0.0
C538 C 0.88859 0.51329 0.82882 0.0
C539 C 0.88635 0.50884 0.85916 0.0
C540 C 0.89637 0.48203 0.87123 0.0
C541 C 0.90563 0.45928 0.85271 0.0
C542 C 0.87731 0.5408 0.81448 0.0
C543 C 0.89605 0.47663 0.90352 0.0
H544 H 0.87244 0.60151 0.89958 0.0
H545 H 0.79808 0.5452 0.8913 0.0
H546 H 0.92597 0.54202 0.88964 0.0
H547 H 0.92005 0.56983 0.86267 0.0
H548 H 0.92062 0.57952 0.90035 0.0
H549 H 0.80061 0.49807 0.87407 0.0
H550 H 0.8283 0.49481 0.84669 0.0
H551 H 0.83398 0.47913 0.88188 0.0
H552 H 0.89975 0.49458 0.78791 0.0
H553 H 0.9113 0.43823 0.8619 0.0
H554 H 0.88803 0.56027 0.82386 0.0
H555 H 0.8536 0.54287 0.81846 0.0
H556 H 0.88095 0.54103 0.79065 0.0
H557 H 0.89806 0.49725 0.91591 0.0
H558 H 0.91402 0.46179 0.91003 0.0
H559 H 0.87531 0.46587 0.90963 0.0
C560 C 0.56281 0.87394 0.80339 0.0
C561 C 0.58433 0.89424 0.81138 0.0
C562 C 0.54069 0.86541 0.82248 0.0
C563 C 0.53905 0.87793 0.85044 0.0
C564 C 0.55995 0.89936 0.85847 0.0
C565 C 0.58267 0.9069 0.83904 0.0
C566 C 0.51976 0.84183 0.81303 0.0
C567 C 0.55881 0.91379 0.88776 0.0
C568 C 0.46467 0.85892 0.88131 0.0
C569 C 0.47072 0.83222 0.89513 0.0
C570 C 0.48728 0.87621 0.86952 0.0
C571 C 0.51655 0.86643 0.87125 0.0
C572 C 0.52286 0.84124 0.88804 0.0
C573 C 0.49998 0.82465 0.89987 0.0
C574 C 0.47949 0.90333 0.85258 0.0
C575 C 0.55351 0.82976 0.89067 0.0
H576 H 0.56381 0.86359 0.78232 0.0
H577 H 0.59912 0.92253 0.84556 0.0
H578 H 0.52267 0.8222 0.82694 0.0
H579 H 0.49705 0.84933 0.81573 0.0
H580 H 0.52293 0.83537 0.79005 0.0
H581 H 0.57161 0.93436 0.88809 0.0
H582 H 0.53603 0.91863 0.89399 0.0
H583 H 0.56801 0.89884 0.9044 0.0
H584 H 0.44225 0.86508 0.87743 0.0
H585 H 0.505 0.80424 0.91078 0.0
H586 H 0.47906 0.89821 0.82907 0.0
H587 H 0.49595 0.92073 0.85605 0.0
H588 H 0.45774 0.91173 0.85875 0.0
H589 H 0.56016 0.82015 0.86964 0.0
H590 H 0.55545 0.81267 0.90775 0.0
H591 H 0.56893 0.84765 0.8957 0.0
C592 C 0.15881 0.18403 0.59149 0.0
C593 C 0.15759 0.21423 0.59613 0.0
C594 C 0.17043 0.17269 0.56557 0.0
C595 C 0.18058 0.19202 0.54364 0.0
C596 C 0.17725 0.22248 0.54748 0.0
C597 C 0.16615 0.23316 0.57371 0.0
C598 C 0.17373 0.14012 0.56255 0.0
C599 C 0.18715 0.24399 0.52459 0.0
C600 C 0.24519 0.17482 0.49547 0.0
C601 C 0.23195 0.16954 0.46852 0.0
C602 C 0.22859 0.18027 0.5204 0.0
C603 C 0.19784 0.18107 0.5184 0.0
C604 C 0.18425 0.17443 0.49153 0.0
C605 C 0.20147 0.1685 0.46694 0.0
C606 C 0.24412 0.18667 0.54861 0.0
C607 C 0.15161 0.1753 0.48829 0.0
H608 H 0.1525 0.16929 0.60885 0.0
H609 H 0.16511 0.25653 0.57711 0.0
H610 H 0.16666 0.1329 0.5407 0.0
H611 H 0.19701 0.13423 0.56502 0.0
H612 H 0.16105 0.12799 0.5792 0.0
H613 H 0.17986 0.26657 0.52929 0.0
H614 H 0.21124 0.24393 0.52342 0.0
H615 H 0.17873 0.23761 0.50293 0.0
H616 H 0.26872 0.17544 0.49694 0.0
H617 H 0.19107 0.16462 0.44617 0.0
H618 H 0.23471 0.17344 0.56651 0.0
H619 H 0.24118 0.20998 0.55426 0.0
H620 H 0.2678 0.18211 0.54736 0.0
H621 H 0.141 0.16325 0.50633 0.0
H622 H 0.14424 0.16588 0.46735 0.0
H623 H 0.14413 0.19827 0.48934 0.0
C624 C 0.84239 0.15647 0.58611 0.0
C625 C 0.8121 0.15642 0.58192 0.0
C626 C 0.86136 0.16679 0.56413 0.0
C627 C 0.84977 0.17825 0.5378 0.0
C628 C 0.81943 0.1763 0.53285 0.0
C629 C 0.80124 0.16496 0.55457 0.0
C630 C 0.89366 0.16687 0.56985 0.0
C631 C 0.8057 0.18862 0.50559 0.0
C632 C 0.88232 0.24493 0.50084 0.0
C633 C 0.88961 0.23433 0.47317 0.0
C634 C 0.87105 0.22659 0.5226 0.0
C635 C 0.86795 0.19632 0.51734 0.0
C636 C 0.87805 0.18491 0.49058 0.0
C637 C 0.88819 0.20407 0.46859 0.0
C638 C 0.86006 0.24018 0.5503 0.0
C639 C 0.8767 0.15266 0.48446 0.0
H640 H 0.85121 0.14978 0.60694 0.0
H641 H 0.77798 0.16468 0.55066 0.0
H642 H 0.90602 0.16286 0.54961 0.0
H643 H 0.9003 0.18848 0.57836 0.0
H644 H 0.89973 0.15009 0.58625 0.0
H645 H 0.78186 0.18477 0.50471 0.0
H646 H 0.80971 0.21249 0.50446 0.0
H647 H 0.81563 0.17877 0.48608 0.0
H648 H 0.88339 0.26816 0.505 0.0
H649 H 0.8939 0.19543 0.44752 0.0
H650 H 0.86976 0.22915 0.56947 0.0
H651 H 0.83611 0.23738 0.55169 0.0
H652 H 0.86512 0.26384 0.5516 0.0
H653 H 0.88086 0.13967 0.50445 0.0
H654 H 0.89275 0.14638 0.46765 0.0
H655 H 0.85473 0.14691 0.47629 0.0
C656 C 0.86183 0.9141 0.50509 0.0
C657 C 0.83347 0.90335 0.50098 0.0
C658 C 0.87905 0.90489 0.52895 0.0
C659 C 0.86811 0.88363 0.54862 0.0
C660 C 0.83909 0.87366 0.54507 0.0
C661 C 0.82213 0.88395 0.52176 0.0
C662 C 0.90938 0.91706 0.53214 0.0
C663 C 0.82628 0.8509 0.5651 0.0
C664 C 0.91482 0.82518 0.58398 0.0
C665 C 0.91055 0.83052 0.6137 0.0
C666 C 0.90306 0.84357 0.56247 0.0
C667 C 0.88743 0.86879 0.57064 0.0
C668 C 0.88659 0.87652 0.60045 0.0
C669 C 0.89781 0.85711 0.62174 0.0
C670 C 0.90468 0.83416 0.53115 0.0
C671 C 0.87222 0.90444 0.60984 0.0
H672 H 0.87089 0.92918 0.48933 0.0
H673 H 0.80031 0.87539 0.51898 0.0
H674 H 0.91618 0.91809 0.55524 0.0
H675 H 0.92489 0.90282 0.52052 0.0
H676 H 0.91097 0.93926 0.52247 0.0
H677 H 0.80364 0.8449 0.55909 0.0
H678 H 0.83981 0.83087 0.56489 0.0
H679 H 0.82622 0.85929 0.58756 0.0
H680 H 0.92495 0.80491 0.57746 0.0
H681 H 0.89442 0.86163 0.64454 0.0
H682 H 0.91238 0.8524 0.51728 0.0
H683 H 0.88264 0.82794 0.52343 0.0
H684 H 0.91943 0.81526 0.52812 0.0
H685 H 0.8813 0.92311 0.59736 0.0
H686 H 0.87526 0.90858 0.6334 0.0
H687 H 0.84859 0.90354 0.60504 0.0
C688 C 0.15779 0.86384 0.49999 0.0
C689 C 0.17075 0.83682 0.49395 0.0
C690 C 0.16678 0.88065 0.52416 0.0
C691 C 0.18999 0.87076 0.54209 0.0
C692 C 0.20296 0.84346 0.53594 0.0
C693 C 0.19294 0.82677 0.51244 0.0
C694 C 0.15193 0.90931 0.53006 0.0
C695 C 0.22853 0.83235 0.55333 0.0
C696 C 0.24262 0.91993 0.58298 0.0
C697 C 0.23657 0.91295 0.61211 0.0
C698 C 0.22613 0.90827 0.55999 0.0
C699 C 0.20252 0.8893 0.56603 0.0
C700 C 0.19444 0.88457 0.59543 0.0
C701 C 0.2116 0.89632 0.61812 0.0
C702 C 0.2359 0.91399 0.52923 0.0
C703 C 0.16913 0.865 0.60293 0.0
H704 H 0.14074 0.8719 0.48579 0.0
H705 H 0.20359 0.80625 0.50777 0.0
H706 H 0.14646 0.91111 0.55342 0.0
H707 H 0.16687 0.92756 0.52469 0.0
H708 H 0.13173 0.91193 0.51702 0.0
H709 H 0.23384 0.80928 0.54836 0.0
H710 H 0.24792 0.84601 0.54862 0.0
H711 H 0.224 0.83418 0.57678 0.0
H712 H 0.26179 0.9328 0.57799 0.0
H713 H 0.20677 0.89048 0.64042 0.0
H714 H 0.21709 0.91932 0.51507 0.0
H715 H 0.24619 0.89401 0.52047 0.0
H716 H 0.25191 0.93213 0.52792 0.0
H717 H 0.14987 0.87078 0.58952 0.0
H718 H 0.16323 0.86644 0.62624 0.0
H719 H 0.17479 0.84203 0.59801 0.0
C720 C 0.63177 0.96211 0.66013 0.0
C721 C 0.63081 0.96156 0.6906 0.0
C722 C 0.6402 0.98765 0.64492 0.0
C723 C 0.64772 1.01326 0.66049 0.0
C724 C 0.64459 1.01329 0.69109 0.0
C725 C 0.63634 0.98756 0.70566 0.0
C726 C 0.64298 0.98656 0.61234 0.0
C727 C 0.65198 0.03997 0.70876 0.0
C728 C 0.70742 0.0655 0.63626 0.0
C729 C 0.69179 0.09067 0.62847 0.0
C730 C 0.69324 0.03964 0.64476 0.0
C731 C 0.66245 0.03869 0.64582 0.0
C732 C 0.64645 0.06339 0.63614 0.0
C733 C 0.6613 0.08907 0.6275 0.0
C734 C 0.71138 1.01393 0.65449 0.0
C735 C 0.61367 0.0634 0.63669 0.0
H736 H 0.62778 0.94214 0.64826 0.0
H737 H 0.6355 0.98746 0.72918 0.0
H738 H 0.63399 1.00664 0.60221 0.0
H739 H 0.66632 0.98536 0.60645 0.0
H740 H 0.63169 0.96728 0.60306 0.0
H741 H 0.64548 0.03753 0.73185 0.0
H742 H 0.67579 0.04393 0.70797 0.0
H743 H 0.64111 0.05954 0.69957 0.0
H744 H 0.73098 0.06637 0.63689 0.0
H745 H 0.64898 0.10839 0.62172 0.0
H746 H 0.70375 0.99366 0.64381 0.0
H747 H 0.70898 1.01076 0.67826 0.0
H748 H 0.73483 1.017 0.64959 0.0
H749 H 0.60491 0.0427 0.62782 0.0
H750 H 0.60444 0.08195 0.62409 0.0
H751 H 0.60615 0.06512 0.65947 0.0
C752 C 0.97038 0.67385 0.6433 0.0
C753 C 0.96835 0.70434 0.64154 0.0
C754 C 0.99664 0.66019 0.65178 0.0
C755 C 1.02158 0.6774 0.65804 0.0
C756 C 1.02001 0.70807 0.65421 0.0
C757 C 0.9934 0.72111 0.64649 0.0
C758 C 0.99706 0.62754 0.65601 0.0
C759 C 0.04604 0.72737 0.65987 0.0
C760 C 0.07824 0.65595 0.71481 0.0
C761 C 0.10183 0.6471 0.69776 0.0
C762 C 0.05153 0.66405 0.70219 0.0
C763 C 0.04833 0.66416 0.67156 0.0
C764 C 0.07174 0.65423 0.65424 0.0
C765 C 0.09809 0.64551 0.66755 0.0
C766 C 0.02709 0.67375 0.72169 0.0
C767 C 0.0696 0.65444 0.62156 0.0
H768 H 0.95096 0.66081 0.64 0.0
H769 H 0.99192 0.7447 0.64526 0.0
H770 H 1.01666 0.61793 0.6459 0.0
H771 H 0.99805 0.62246 0.67957 0.0
H772 H 0.97741 0.61692 0.64673 0.0
H773 H 0.04235 0.75018 0.65247 0.0
H774 H 0.05087 0.72766 0.68348 0.0
H775 H 0.06552 0.7187 0.64872 0.0
H776 H 0.08087 0.6571 0.73818 0.0
H777 H 0.11628 0.63899 0.65418 0.0
H778 H 1.00656 0.6625 0.7157 0.0
H779 H 1.02348 0.69752 0.71889 0.0
H780 H 0.0318 0.66931 0.74496 0.0
H781 H 0.04909 0.64393 0.61433 0.0
H782 H 0.08822 0.6431 0.61129 0.0
H783 H 0.06917 0.67734 0.61362 0.0
C784 C 0.39632 0.11787 0.70984 0.0
C785 C 0.41444 0.11301 0.73399 0.0
C786 C 0.38625 0.09439 0.69266 0.0
C787 C 0.39454 0.06533 0.69968 0.0
C788 C 0.4147 0.06073 0.72259 0.0
C789 C 0.42426 0.08449 0.7394 0.0
C790 C 0.36494 0.1005 0.66845 0.0
C791 C 0.42436 0.03038 0.73101 0.0
C792 C 0.34139 1.00218 0.68859 0.0
C793 C 0.35354 0.9869 0.66518 0.0
C794 C 0.35392 1.0281 0.69917 0.0
C795 C 0.37939 0.03955 0.68609 0.0
C796 C 0.39121 1.02495 0.66172 0.0
C797 C 0.37825 0.99882 0.65162 0.0
C798 C 0.34045 0.0426 0.72524 0.0
C799 C 0.4181 0.03644 0.64687 0.0
H800 H 0.38813 0.13967 0.70573 0.0
H801 H 0.43812 0.08044 0.75809 0.0
H802 H 0.37065 0.08787 0.6488 0.0
H803 H 0.34286 0.09355 0.67526 0.0
H804 H 0.36418 0.12406 0.66272 0.0
H805 H 0.4426 0.03067 0.74689 0.0
H806 H 0.40584 1.01838 0.74086 0.0
H807 H 0.43129 1.01805 0.71159 0.0
H808 H 0.32229 0.99346 0.69933 0.0
H809 H 0.38791 0.98739 0.63354 0.0
H810 H 0.33667 0.06607 0.72076 0.0
H811 H 0.35562 0.04116 0.74398 0.0
H812 H 0.31946 0.03238 0.73155 0.0
H813 H 0.41562 0.06 0.64181 0.0
H814 H 0.42284 1.02457 0.62647 0.0
H815 H 0.43708 0.0342 0.66164 0.0
C816 C 0.08061 0.32288 0.65262 0.0
C817 C 0.10883 0.33035 0.66171 0.0
C818 C 0.05638 0.33994 0.66 0.0
C819 C 0.06023 0.36532 0.67703 0.0
C820 C 0.08892 0.37434 0.68424 0.0
C821 C 0.1129 0.35676 0.67651 0.0
C822 C 1.02641 0.32932 0.65164 0.0
C823 C 0.09422 0.40132 0.70209 0.0
C824 C 0.99163 0.41176 0.68701 0.0
C825 C 0.98043 0.40046 0.71311 0.0
C826 C 1.01828 0.40166 0.67559 0.0
C827 C 0.03411 0.37959 0.69046 0.0
C828 C 1.02344 0.369 0.71736 0.0
C829 C 0.99696 0.37954 0.72829 0.0
C830 C 0.02901 0.41392 0.64713 0.0
C831 C 0.03942 0.34553 0.73412 0.0
H832 H 0.07722 0.30252 0.64118 0.0
H833 H 0.13451 0.36258 0.68399 0.0
H834 H 1.01491 0.32141 0.67131 0.0
H835 H 1.01337 0.34739 0.64223 0.0
H836 H 0.02722 0.31124 0.6357 0.0
H837 H 0.11722 0.40869 0.70075 0.0
H838 H 0.07984 0.4194 0.69492 0.0
H839 H 0.0892 0.39653 0.72517 0.0
H840 H 0.97923 0.42798 0.67509 0.0
H841 H 0.98882 0.37069 0.74856 0.0
H842 H 0.02734 0.39698 0.63009 0.0
H843 H 0.05226 0.42018 0.64892 0.0
H844 H 1.01628 0.43327 0.64001 0.0
H845 H 0.03977 0.32512 0.72128 0.0
H846 H 0.02918 0.34077 0.75544 0.0
H847 H 0.06233 0.35214 0.73791 0.0
C848 C 0.69146 0.97091 0.42172 0.0
C849 C 0.7217 0.97211 0.42612 0.0
C850 C 0.67602 0.99511 0.41053 0.0
C851 C 0.69098 1.02144 0.40407 0.0
C852 C 0.72121 1.02322 0.41007 0.0
C853 C 0.7362 0.99854 0.42064 0.0
C854 C 0.64398 0.99192 0.40407 0.0
C855 C 0.73806 0.05092 0.40419 0.0
C856 C 0.66592 0.07297 0.34368 0.0
C857 C 0.65303 0.09586 0.35911 0.0
C858 C 0.67695 0.0481 0.35796 0.0
C859 C 0.67587 0.04618 0.38866 0.0
C860 C 0.66201 0.06881 0.40434 0.0
C861 C 0.65048 0.09321 0.38937 0.0
C862 C 0.6908 1.02434 0.34015 0.0
C863 C 0.66073 0.068 0.43705 0.0
H864 H 0.68005 0.95056 0.42557 0.0
H865 H 0.7595 0.99978 0.42403 0.0
H866 H 0.63165 1.01043 0.4133 0.0
H867 H 0.64048 0.99235 0.38023 0.0
H868 H 0.63491 0.9712 0.41284 0.0
H869 H 0.7606 0.04987 0.41289 0.0
H870 H 0.73917 0.05489 0.38044 0.0
H871 H 0.72685 0.06987 0.41399 0.0
H872 H 0.66795 0.07479 0.3203 0.0
H873 H 0.64094 0.11096 0.40151 0.0
H874 H 0.68169 1.00274 0.34628 0.0
H875 H 0.71451 1.02366 0.3446 0.0
H876 H 0.68749 1.02774 0.31647 0.0
H877 H 0.65199 0.04676 0.44471 0.0
H878 H 0.64708 0.0858 0.44592 0.0
H879 H 0.68305 0.0702 0.44604 0.0
C880 C 0.97457 0.66733 0.36474 0.0
C881 C 0.97945 0.66538 0.33473 0.0
C882 C 0.99657 0.67732 0.38377 0.0
C883 C 1.02419 0.68537 0.37261 0.0
C884 C 0.02966 0.68179 0.34258 0.0
C885 C 1.0073 0.672 0.32411 0.0
C886 C 0.98972 0.68073 0.41556 0.0
C887 C 0.05877 0.68972 0.32962 0.0
C888 C 0.07144 0.7446 0.40657 0.0
C889 C 0.09431 0.72846 0.41896 0.0
C890 C 0.04771 0.73078 0.39297 0.0
C891 C 0.04666 0.69991 0.39144 0.0
C892 C 0.06878 0.68342 0.4054 0.0
C893 C 0.09227 0.69785 0.41902 0.0
C894 C 1.02458 0.74936 0.37872 0.0
C895 C 0.06859 0.65053 0.40445 0.0
H896 H 0.95311 0.66251 0.37319 0.0
H897 H 1.01142 0.67046 0.30101 0.0
H898 H 1.0073 0.6712 0.42915 0.0
H899 H 0.98839 0.70427 0.42088 0.0
H900 H 0.96877 0.67021 0.42149 0.0
H901 H 0.06036 0.68344 0.30642 0.0
H902 H 0.06227 0.71361 0.33127 0.0
H903 H 0.07658 0.67888 0.34185 0.0
H904 H 0.07261 0.76822 0.40645 0.0
H905 H 0.1098 0.68508 0.42837 0.0
H906 H 1.00262 0.74186 0.38534 0.0
H907 H 1.02598 0.74714 0.35479 0.0
H908 H 1.0269 0.77281 0.38427 0.0
H909 H 0.04675 0.6419 0.41007 0.0
H910 H 0.08489 0.64084 0.41949 0.0
H911 H 0.07357 0.64324 0.38208 0.0
C912 C 0.38541 0.99947 0.29842 0.0
C913 C 0.39315 0.97277 0.3113 0.0
C914 C 0.37452 1.02257 0.31498 0.0
C915 C 0.37129 1.01909 0.34536 0.0
C916 C 0.38153 0.99317 0.35887 0.0
C917 C 0.39231 0.97022 0.34166 0.0
C918 C 0.36414 0.04979 0.2995 0.0
C919 C 0.37914 0.98876 0.39124 0.0
C920 C 0.34654 0.08932 0.38185 0.0
C921 C 0.31619 0.0863 0.38005 0.0
C922 C 0.36511 0.06664 0.37279 0.0
C923 C 0.35302 0.04051 0.36155 0.0
C924 C 0.32246 0.03662 0.36193 0.0
C925 C 0.30453 0.05944 0.37119 0.0
C926 C 0.39755 0.07147 0.37343 0.0
C927 C 0.30845 1.00917 0.35036 0.0
H928 H 0.38635 1.00181 0.27501 0.0
H929 H 0.39828 0.94971 0.35184 0.0
H930 H 0.34004 0.05077 0.30033 0.0
H931 H 0.37267 0.06957 0.31038 0.0
H932 H 0.3709 0.05036 0.27638 0.0
H933 H 0.39352 0.9709 0.39904 0.0
H934 H 0.38474 1.00909 0.40299 0.0
H935 H 0.35639 0.98299 0.39681 0.0
H936 H 0.35579 0.10993 0.38874 0.0
H937 H 0.28113 0.05669 0.3701 0.0
H938 H 0.40519 0.07709 0.35128 0.0
H939 H 0.40907 0.05136 0.3804 0.0
H940 H 0.40369 0.08957 0.3882 0.0
H941 H 0.31184 1.00795 0.32656 0.0
H942 H 0.2847 1.00842 0.35464 0.0
H943 H 0.31864 0.98958 0.36026 0.0
C944 C 0.05634 0.40333 0.31732 0.0
C945 C 0.08527 0.40118 0.32697 0.0
C946 C 0.03293 0.39552 0.33535 0.0
C947 C 0.03837 0.38499 0.36383 0.0
C948 C 0.06739 0.38457 0.37438 0.0
C949 C 0.09047 0.39275 0.35589 0.0
C950 C 1.00242 0.39673 0.32317 0.0
C951 C 0.0743 0.37357 0.40454 0.0
C952 C 0.97161 0.37585 0.41264 0.0
C953 C 0.96382 0.34669 0.40739 0.0
C954 C 0.99644 0.38843 0.39959 0.0
C955 C 1.01407 0.37143 0.38098 0.0
C956 C 1.0071 0.3416 0.37686 0.0
C957 C 0.98213 0.3297 0.38995 0.0
C958 C 1.00303 0.42026 0.40464 0.0
C959 C 1.02535 0.32245 0.35753 0.0
H960 H 0.05201 0.40991 0.29509 0.0
H961 H 0.11269 0.39075 0.36357 0.0
H962 H 0.99409 0.37422 0.32006 0.0
H963 H 0.98765 0.40779 0.33857 0.0
H964 H 1.00148 0.40837 0.30197 0.0
H965 H 0.09704 0.37863 0.41104 0.0
H966 H 0.05928 0.38321 0.42064 0.0
H967 H 0.07128 0.34955 0.40533 0.0
H968 H 0.95762 0.38925 0.42595 0.0
H969 H 0.97653 0.30711 0.38585 0.0
H970 H 0.99905 0.43275 0.38432 0.0
H971 H 1.02626 0.42326 0.41049 0.0
H972 H 0.98935 0.42963 0.42208 0.0
H973 H 1.02379 0.3303 0.33476 0.0
H974 H 1.01834 0.29925 0.35827 0.0
H975 H 0.04857 0.32369 0.36404 0.0
C976 C 0.69219 0.6342 0.97279 0.0
C977 C 0.72125 0.64012 0.96543 0.0
C978 C 0.67983 0.64556 0.99838 0.0
C979 C 0.69691 0.6632 1.01709 0.0
C980 C 0.72662 0.66789 1.01047 0.0
C981 C 0.73833 0.65638 0.98485 0.0
C982 C 0.64815 0.63983 1.00466 0.0
C983 C 0.74582 0.68631 0.02978 0.0
C984 C 0.66636 0.72526 0.06197 0.0
C985 C 0.66925 0.7145 0.09043 0.0
C986 C 0.6733 0.70802 0.03783 0.0
C987 C 0.68356 0.67917 0.04206 0.0
C988 C 0.68446 0.66742 0.0706 0.0
C989 C 0.67725 0.68519 0.09445 0.0
C990 C 0.67167 0.7215 1.00789 0.0
C991 C 0.69502 0.63675 0.07617 0.0
H992 H 0.67876 0.6217 0.95799 0.0
H993 H 0.76087 0.66091 0.97962 0.0
H994 H 0.64521 0.63311 0.02763 0.0
H995 H 0.63557 0.6602 1.00127 0.0
H996 H 0.63892 0.62267 0.99038 0.0
H997 H 0.76892 0.68613 1.02278 0.0
H998 H 0.73803 0.70921 0.0295 0.0
H999 H 0.7447 0.67841 0.05255 0.0
H1000 H 0.66 0.74778 0.05855 0.0
H1001 H 0.67968 0.67665 0.11631 0.0
H1002 H 0.66034 0.70663 0.99265 0.0
H1003 H 0.694 0.72503 0.9995 0.0
H1004 H 0.66017 0.7428 1.00791 0.0
H1005 H 0.68527 0.62136 0.06037 0.0
H1006 H 0.68982 0.62919 0.09851 0.0
H1007 H 0.71896 0.63599 0.07335 0.0
C1008 C 0.36615 0.65996 0.08831 0.0
C1009 C 0.33675 0.6533 0.08314 0.0
C1010 C 0.38467 0.66877 0.0655 0.0
C1011 C 0.37363 0.67085 0.03678 0.0
C1012 C 0.3446 0.66198 0.0312 0.0
C1013 C 0.32658 0.65344 0.05436 0.0
C1014 C 0.41543 0.67787 0.07252 0.0
C1015 C 0.33187 0.66344 1.00097 0.0
C1016 C 0.4 0.72932 0.98409 0.0
C1017 C 0.41619 0.71317 0.96399 0.0
C1018 C 0.38744 0.71604 1.0086 0.0
C1019 C 0.39079 0.68564 1.01323 0.0
C1020 C 0.40837 0.66943 0.99388 0.0
C1021 C 0.42096 0.6834 0.96954 0.0
C1022 C 0.36928 0.73438 0.02876 0.0
C1023 C 0.4126 0.63705 0.99797 0.0
H1024 H 0.37427 0.66012 0.11042 0.0
H1025 H 0.30398 0.64822 0.05002 0.0
H1026 H 0.43085 0.66886 0.05643 0.0
H1027 H 0.41713 0.702 0.07142 0.0
H1028 H 0.42218 0.67063 0.09458 0.0
H1029 H 0.31022 0.65272 0.99964 0.0
H1030 H 0.32942 0.68661 0.99429 0.0
H1031 H 0.34665 0.65292 0.9852 0.0
H1032 H 0.39633 0.75236 0.98016 0.0
H1033 H 0.43326 0.67068 0.9541 0.0
H1034 H 0.37627 0.731 0.0516 0.0
H1035 H 0.34614 0.72762 0.02719 0.0
H1036 H 0.37076 0.75803 1.02356 0.0
H1037 H 0.41838 0.63195 1.02083 0.0
H1038 H 0.42982 0.62833 0.98356 0.0
H1039 H 0.39193 0.62553 0.99305 0.0
C1040 C 0.37159 0.38817 0.94692 0.0
C1041 C 0.34668 0.40471 0.95303 0.0
C1042 C 0.38893 0.37632 0.96952 0.0
C1043 C 0.38115 0.38091 0.99897 0.0
C1044 C 0.35732 0.39941 1.00511 0.0
C1045 C 0.34061 0.41112 0.98221 0.0
C1046 C 0.41428 0.35705 0.96185 0.0
C1047 C 0.34788 0.40493 0.03595 0.0
C1048 C 0.39449 0.32113 0.05562 0.0
C1049 C 0.41651 0.33315 0.07312 0.0
C1050 C 0.38354 0.33605 0.03114 0.0
C1051 C 0.39517 0.36363 1.0232 0.0
C1052 C 0.41836 0.37533 0.03995 0.0
C1053 C 0.42847 0.36019 0.06487 0.0
C1054 C 0.35828 0.3229 1.01474 0.0
C1055 C 0.43189 0.40429 0.03207 0.0
H1056 H 0.37637 0.38266 0.92459 0.0
H1057 H 0.32145 0.42383 0.98729 0.0
H1058 H 0.43352 0.36252 0.97538 0.0
H1059 H 0.40855 0.33395 0.96637 0.0
H1060 H 0.42025 0.35909 0.93858 0.0
H1061 H 0.33085 0.42204 0.03725 0.0
H1062 H 0.33906 0.38447 0.04547 0.0
H1063 H 0.36667 0.41168 0.04949 0.0
H1064 H 0.38473 0.30048 0.06181 0.0
H1065 H 0.44547 0.36976 0.07812 0.0
H1066 H 0.36189 0.32445 0.99104 0.0
H1067 H 0.33821 0.33533 1.01964 0.0
H1068 H 0.35459 0.29966 1.02064 0.0
H1069 H 0.43734 0.40492 1.00862 0.0
H1070 H 0.45192 0.40873 0.04487 0.0
H1071 H 0.41611 0.42207 0.0361 0.0
C1072 C 0.6702 0.42306 0.08709 0.0
C1073 C 0.70056 0.42361 0.09043 0.0
C1074 C 0.65722 0.41384 0.06082 0.0
C1075 C 0.67499 0.40555 0.03711 0.0
C1076 C 0.70561 0.40814 0.03984 0.0
C1077 C 0.71795 0.4167 0.06647 0.0
C1078 C 0.62457 0.41107 0.05916 0.0
C1079 C 0.72552 0.40025 1.01511 0.0
C1080 C 0.65349 0.34615 0.9836 0.0
C1081 C 0.64643 0.36212 0.9585 0.0
C1082 C 0.66094 0.3601 1.00971 0.0
C1083 C 0.66222 0.39098 1.01078 0.0
C1084 C 0.65394 0.40731 0.98581 0.0
C1085 C 0.64584 0.39269 0.96004 0.0
C1086 C 0.66884 0.34163 0.0358 0.0
C1087 C 0.65537 0.44018 0.98573 0.0
H1088 H 0.6566 0.42799 0.10558 0.0
H1089 H 0.74142 0.41713 0.06883 0.0
H1090 H 0.6162 0.42056 0.03858 0.0
H1091 H 0.61849 0.38763 0.05941 0.0
H1092 H 0.61367 0.42195 0.07766 0.0
H1093 H 0.74839 0.40688 1.01936 0.0
H1094 H 0.72497 0.37631 1.01172 0.0
H1095 H 0.71808 0.41079 0.99467 0.0
H1096 H 0.65391 0.32252 0.9826 0.0
H1097 H 0.64077 0.40518 0.94064 0.0
H1098 H 0.65714 0.34937 0.05532 0.0
H1099 H 0.69248 0.34364 0.04028 0.0
H1100 H 0.66363 0.3182 0.03249 0.0
H1101 H 0.64473 0.44912 1.00532 0.0
H1102 H 0.6449 0.44978 0.96613 0.0
H1103 H 0.67847 0.44722 0.98629 0.0
C1104 C 0.14332 0.28908 0.24662 0.0
C1105 C 0.12149 0.30513 0.26032 0.0
C1106 C 0.15731 0.26602 0.26118 0.0
C1107 C 0.14867 0.25862 0.28981 0.0
C1108 C 0.12391 0.27217 0.30196 0.0
C1109 C 0.11068 0.29542 0.28706 0.0
C1110 C 0.18359 0.25224 0.24733 0.0
C1111 C 0.11358 0.26465 0.33215 0.0
C1112 C 0.18322 0.19261 0.32634 0.0
C1113 C 0.20597 0.20543 0.34233 0.0
C1114 C 0.16412 0.20959 0.3095 0.0
C1115 C 0.16789 0.24017 0.30843 0.0
C1116 C 0.19045 0.25335 0.32493 0.0
C1117 C 0.20913 0.23583 0.3418 0.0
C1118 C 0.14029 0.19477 0.29241 0.0
C1119 C 0.19524 0.28596 0.32428 0.0
H1120 H 0.15217 0.29704 0.22626 0.0
H1121 H 0.09419 0.30825 0.29791 0.0
H1122 H 0.20362 0.26132 0.25735 0.0
H1123 H 0.18374 0.22831 0.25101 0.0
H1124 H 0.18442 0.25662 0.2236 0.0
H1125 H 0.09135 0.27313 0.33625 0.0
H1126 H 0.1136 0.2407 0.33572 0.0
H1127 H 0.1286 0.27444 0.3483 0.0
H1128 H 0.18049 0.16912 0.32667 0.0
H1129 H 0.2267 0.24588 0.35391 0.0
H1130 H 0.14379 0.19839 0.26885 0.0
H1131 H 0.11888 0.20438 0.29786 0.0
H1132 H 0.1394 0.1709 0.29664 0.0
H1133 H 0.20004 0.29322 0.30178 0.0
H1134 H 0.21348 0.29283 0.33859 0.0
H1135 H 0.1752 0.29737 0.33124 0.0
C1136 C 0.79283 0.27908 0.45283 0.0
C1137 C 0.80163 0.30663 0.44279 0.0
C1138 C 0.773 0.26213 0.43687 0.0
C1139 C 0.76122 0.2734 0.41065 0.0
C1140 C 0.76625 0.30306 0.40334 0.0
C1141 C 0.78605 0.31952 0.41991 0.0
C1142 C 0.7677 0.23106 0.44648 0.0
C1143 C 0.75345 0.31661 0.37628 0.0
C1144 C 0.74537 0.21911 0.3496 0.0
C1145 C 0.71542 0.21456 0.35293 0.0
C1146 C 0.76058 0.23838 0.36815 0.0
C1147 C 0.7454 0.25371 0.39016 0.0
C1148 C 0.71517 0.24958 0.39316 0.0
C1149 C 0.7007 0.23007 0.37478 0.0
C1150 C 0.79294 0.24224 0.3644 0.0
C1151 C 0.69808 0.26566 0.41598 0.0
H1152 H 0.80487 0.26892 0.47048 0.0
H1153 H 0.79272 0.34084 0.41204 0.0
H1154 H 0.74614 0.2228 0.43945 0.0
H1155 H 0.78467 0.21686 0.43697 0.0
H1156 H 0.76914 0.22914 0.47047 0.0
H1157 H 0.75309 0.34079 0.37779 0.0
H1158 H 0.76703 0.31062 0.35735 0.0
H1159 H 0.73102 0.30867 0.37217 0.0
H1160 H 0.75691 0.20753 0.33275 0.0
H1161 H 0.67746 0.22729 0.3775 0.0
H1162 H 0.80435 0.2361 0.38481 0.0
H1163 H 0.79803 0.26552 0.35994 0.0
H1164 H 0.80165 0.22882 0.34642 0.0
H1165 H 0.70605 0.25944 0.43791 0.0
H1166 H 0.6744 0.26094 0.41476 0.0
H1167 H 0.70138 0.28954 0.41351 0.0
C1168 C 0.84087 0.69579 0.37125 0.0
C1169 C 0.85705 0.70561 0.34726 0.0
C1170 C 0.82567 0.71533 0.38896 0.0
C1171 C 0.82631 0.74549 0.3824 0.0
C1172 C 0.84265 0.7556 0.35827 0.0
C1173 C 0.85804 0.73556 0.34113 0.0
C1174 C 0.80892 0.70371 0.41469 0.0
C1175 C 0.84376 0.78763 0.35047 0.0
C1176 C 0.76835 0.79823 0.40861 0.0
C1177 C 0.78383 0.81384 0.42966 0.0
C1178 C 0.78136 0.77475 0.394 0.0
C1179 C 0.81032 0.76665 0.40095 0.0
C1180 C 0.82493 0.78071 0.42409 0.0
C1181 C 0.81159 0.8043 0.43798 0.0
C1182 C 0.76505 0.76028 0.3695 0.0
C1183 C 0.85558 0.77247 0.43262 0.0
H1184 H 0.84007 0.67267 0.37626 0.0
H1185 H 0.87029 0.74329 0.32255 0.0
H1186 H 0.81698 0.714 0.43493 0.0
H1187 H 0.78559 0.7094 0.41249 0.0
H1188 H 0.81082 0.67965 0.417 0.0
H1189 H 0.8546 0.79992 0.36815 0.0
H1190 H 0.85571 0.79175 0.32994 0.0
H1191 H 0.8214 0.79644 0.34821 0.0
H1192 H 0.74721 0.80609 0.40162 0.0
H1193 H 0.82373 0.8167 0.45396 0.0
H1194 H 0.76547 0.73622 0.37217 0.0
H1195 H 0.77588 0.76547 0.34861 0.0
H1196 H 0.74205 0.76754 0.36821 0.0
H1197 H 0.8577 0.74845 0.43472 0.0
H1198 H 0.86229 0.78265 0.45344 0.0
H1199 H 0.87085 0.77976 0.41544 0.0
C1200 C 0.32806 0.84847 0.32992 0.0
C1201 C 0.35831 0.84745 0.33351 0.0
C1202 C 0.30951 0.83317 0.3489 0.0
C1203 C 0.3215 0.81673 0.37223 0.0
C1204 C 0.35199 0.81573 0.37601 0.0
C1205 C 0.36999 0.831 0.35661 0.0
C1206 C 0.27704 0.83449 0.34392 0.0
C1207 C 0.36561 0.79863 0.40063 0.0
C1208 C 0.26769 0.8044 0.43307 0.0
C1209 C 0.2558 0.7773 0.42552 0.0
C1210 C 0.2907 0.81661 0.4172 0.0
C1211 C 0.3019 0.80137 0.39305 0.0
C1212 C 0.29191 0.77271 0.38718 0.0
C1213 C 0.26897 0.7609 0.40366 0.0
C1214 C 0.30088 0.84704 0.42449 0.0
C1215 C 0.3036 0.75564 0.36188 0.0
H1216 H 0.31887 0.86087 0.31202 0.0
H1217 H 0.39335 0.83007 0.35962 0.0
H1218 H 0.26822 0.81215 0.34087 0.0
H1219 H 0.26622 0.84383 0.36325 0.0
H1220 H 0.27119 0.84789 0.32462 0.0
H1221 H 0.38974 0.7997 0.40032 0.0
H1222 H 0.35788 0.80716 0.42173 0.0
H1223 H 0.35884 0.77542 0.39946 0.0
H1224 H 0.25713 0.81727 0.44968 0.0
H1225 H 0.25933 0.74025 0.39736 0.0
H1226 H 0.29256 0.86257 0.40788 0.0
H1227 H 0.32496 0.84835 0.42421 0.0
H1228 H 0.29305 0.85415 0.44611 0.0
H1229 H 0.29843 0.76723 0.34131 0.0
H1230 H 0.29436 0.73325 0.36084 0.0
H1231 H 0.32762 0.75407 0.36338 0.0
C1232 C 0.22045 0.75184 0.71737 0.0
C1233 C 0.21371 0.72382 0.70724 0.0
C1234 C 0.23926 0.77043 0.70156 0.0
C1235 C 0.2521 0.76057 0.67535 0.0
C1236 C 0.24521 0.73246 0.66503 0.0
C1237 C 0.22608 0.71465 0.68086 0.0
C1238 C 0.24509 0.80081 0.71261 0.0
C1239 C 0.2579 0.72124 0.63705 0.0
C1240 C 0.27658 0.8193 0.62187 0.0
C1241 C 0.3054 0.82415 0.63067 0.0
C1242 C 0.25912 0.79813 0.63556 0.0
C1243 C 0.27123 0.7803 0.65772 0.0
C1244 C 0.30145 0.78237 0.66376 0.0
C1245 C 0.31813 0.8044 0.65026 0.0
C1246 C 0.22727 0.79694 0.62743 0.0
C1247 C 0.31566 0.76298 0.68623 0.0
H1248 H 0.21122 0.75917 0.73767 0.0
H1249 H 0.22124 0.69309 0.67257 0.0
H1250 H 0.26875 0.80389 0.71634 0.0
H1251 H 0.23825 0.81707 0.69601 0.0
H1252 H 0.2334 0.80534 0.73315 0.0
H1253 H 0.25223 0.69803 0.63307 0.0
H1254 H 0.24967 0.73456 0.6186 0.0
H1255 H 0.28195 0.72344 0.63741 0.0
H1256 H 0.26644 0.83493 0.6073 0.0
H1257 H 0.34018 0.80839 0.65773 0.0
H1258 H 0.21806 0.81932 0.62716 0.0
H1259 H 0.21385 0.78335 0.64217 0.0
H1260 H 0.22516 0.78803 0.60517 0.0
H1261 H 0.30847 0.76952 0.70822 0.0
H1262 H 0.33977 0.76441 0.68542 0.0
H1263 H 0.30903 0.73992 0.68301 0.0
C1264 C 0.3184 0.1261 0.77297 0.0
C1265 C 0.32373 0.13495 0.80161 0.0
C1266 C 0.29812 0.14083 0.75533 0.0
C1267 C 0.28202 0.16434 0.76696 0.0
C1268 C 0.28444 0.1706 0.79699 0.0
C1269 C 0.30526 0.15575 0.81397 0.0
C1270 C 0.29637 0.13327 0.72352 0.0
C1271 C 0.26708 0.19484 0.81061 0.0
C1272 C 0.25763 0.22603 0.71584 0.0
C1273 C 0.22871 0.21815 0.71014 0.0
C1274 C 0.27535 0.20862 0.73414 0.0
C1275 C 0.26371 0.18308 0.74745 0.0
C1276 C 0.23457 0.17521 0.74184 0.0
C1277 C 0.21767 0.19253 0.72319 0.0
C1278 C 0.30651 0.21758 0.73938 0.0
C1279 C 0.22104 0.14861 0.75589 0.0
H1280 H 0.33309 0.11056 0.76309 0.0
H1281 H 0.30972 0.16321 0.83586 0.0
H1282 H 0.27341 0.13175 0.71622 0.0
H1283 H 0.30692 0.15082 0.7106 0.0
H1284 H 0.30742 0.11235 0.71866 0.0
H1285 H 0.26825 0.19413 0.83469 0.0
H1286 H 0.27567 0.21623 0.80316 0.0
H1287 H 0.24395 0.19357 0.80383 0.0
H1288 H 0.26635 0.24578 0.70617 0.0
H1289 H 0.19529 0.1861 0.71941 0.0
H1290 H 0.32132 0.19957 0.7332 0.0
H1291 H 0.31001 0.22183 0.76282 0.0
H1292 H 0.31258 0.23747 0.7269 0.0
H1293 H 0.23322 0.12873 0.74971 0.0
H1294 H 0.19788 0.14566 0.74962 0.0
H1295 H 0.22237 0.15046 0.77987 0.0
C1296 C 0.78899 0.25436 0.6284 0.0
C1297 C 0.76027 0.24906 0.63716 0.0
C1298 C 0.80738 0.27298 0.64424 0.0
C1299 C 0.79677 0.28697 0.66942 0.0
C1300 C 0.76699 0.28374 0.67683 0.0
C1301 C 0.74917 0.26463 0.66075 0.0
C1302 C 0.83881 0.27587 0.63525 0.0
C1303 C 0.75428 0.29858 0.703 0.0
C1304 C 0.8525 0.30926 0.72761 0.0
C1305 C 0.85763 0.33851 0.72017 0.0
C1306 C 0.83255 0.29218 0.71147 0.0
C1307 C 0.81698 0.30482 0.68781 0.0
C1308 C 0.82143 0.33451 0.68098 0.0
C1309 C 0.84175 0.35074 0.69687 0.0
C1310 C 0.82816 0.26057 0.71958 0.0
C1311 C 0.80451 0.34931 0.6569 0.0
H1312 H 0.79795 0.24158 0.61081 0.0
H1313 H 0.72739 0.25976 0.66837 0.0
H1314 H 0.8448 0.29921 0.63285 0.0
H1315 H 0.85303 0.26643 0.65238 0.0
H1316 H 0.84335 0.2646 0.61446 0.0
H1317 H 0.75855 0.28502 0.72257 0.0
H1318 H 0.76419 0.32032 0.70652 0.0
H1319 H 0.73039 0.30127 0.70071 0.0
H1320 H 0.86423 0.29969 0.74573 0.0
H1321 H 0.84474 0.37352 0.69116 0.0
H1322 H 0.83329 0.2465 0.70074 0.0
H1323 H 0.80503 0.2567 0.72522 0.0
H1324 H 0.84198 0.25384 0.73826 0.0
H1325 H 0.80919 0.33865 0.63587 0.0
H1326 H 0.80978 0.3729 0.65493 0.0
H1327 H 0.78083 0.34701 0.66093 0.0
C1328 C 0.82027 0.81298 0.63267 0.0
C1329 C 0.81497 0.78281 0.63396 0.0
C1330 C 0.80277 0.83284 0.64767 0.0
C1331 C 0.77776 0.82265 0.66233 0.0
C1332 C 0.77016 0.79265 0.66051 0.0
C1333 C 0.78928 0.7729 0.64696 0.0
C1334 C 0.81256 0.86427 0.64961 0.0
C1335 C 0.74287 0.78116 0.67458 0.0
C1336 C 0.74659 0.86364 0.7274 0.0
C1337 C 0.72418 0.87961 0.71423 0.0
C1338 C 0.76496 0.84576 0.71061 0.0
C1339 C 0.76015 0.84324 0.6802 0.0
C1340 C 0.73867 0.86069 0.66676 0.0
C1341 C 0.72145 0.87903 0.68381 0.0
C1342 C 0.7888 0.82876 0.72555 0.0
C1343 C 0.73254 0.85864 0.6346 0.0
H1344 H 0.84055 0.82061 0.62333 0.0
H1345 H 0.78543 0.74962 0.64879 0.0
H1346 H 0.80071 0.87752 0.63323 0.0
H1347 H 0.80815 0.87364 0.67131 0.0
H1348 H 0.83617 0.86646 0.64531 0.0
H1349 H 0.73875 0.75792 0.66921 0.0
H1350 H 0.74474 0.78319 0.69847 0.0
H1351 H 0.72385 0.79436 0.6676 0.0
H1352 H 0.74857 0.86359 0.75085 0.0
H1353 H 0.70409 0.89132 0.67349 0.0
H1354 H 0.80963 0.8316 0.71374 0.0
H1355 H 0.7834 0.80517 0.72541 0.0
H1356 H 0.79194 0.83567 0.74843 0.0
H1357 H 0.75214 0.86488 0.62208 0.0
H1358 H 0.71427 0.87291 0.62766 0.0
H1359 H 0.72713 0.83577 0.62885 0.0
C1360 C 0.35594 0.22942 0.35259 0.0
C1361 C 0.33327 0.21181 0.34188 0.0
C1362 C 0.37445 0.24492 0.33379 0.0
C1363 C 0.37012 0.24305 0.30346 0.0
C1364 C 0.34731 0.22531 0.29247 0.0
C1365 C 0.32929 0.20978 0.31178 0.0
C1366 C 0.3987 0.26321 0.34639 0.0
C1367 C 0.34198 0.2227 0.26022 0.0
C1368 C 0.39723 0.29967 0.2492 0.0
C1369 C 0.41957 0.28422 0.23561 0.0
C1370 C 0.38211 0.28738 0.27284 0.0
C1371 C 0.38965 0.2591 0.28299 0.0
C1372 C 0.41412 0.24484 0.27113 0.0
C1373 C 0.42867 0.25752 0.24748 0.0
C1374 C 0.35636 0.30342 0.28511 0.0
C1375 C 0.42335 0.21497 0.28156 0.0
H1376 H 0.35932 0.2311 0.37582 0.0
H1377 H 0.3118 0.19638 0.30329 0.0
H1378 H 0.41997 0.25548 0.33818 0.0
H1379 H 0.39627 0.28625 0.33934 0.0
H1380 H 0.39913 0.26244 0.37049 0.0
H1381 H 0.32211 0.20984 0.25522 0.0
H1382 H 0.33982 0.24467 0.25024 0.0
H1383 H 0.36086 0.21195 0.24987 0.0
H1384 H 0.38967 0.31995 0.23961 0.0
H1385 H 0.44567 0.24536 0.23666 0.0
H1386 H 0.35694 0.30305 0.30917 0.0
H1387 H 0.33601 0.29233 0.27824 0.0
H1388 H 0.35561 0.32649 0.27762 0.0
H1389 H 0.4237 0.21396 0.30562 0.0
H1390 H 0.44519 0.20893 0.27332 0.0
H1391 H 0.40743 0.19848 0.27388 0.0
C1392 C 0.82834 0.36216 0.35945 0.0
C1393 C 0.84336 0.33799 0.34812 0.0
C1394 C 0.80923 0.37885 0.34247 0.0
C1395 C 0.80524 0.37191 0.31295 0.0
C1396 C 0.81979 0.34726 0.30127 0.0
C1397 C 0.83848 0.33035 0.31909 0.0
C1398 C 0.79342 0.40412 0.35619 0.0
C1399 C 0.81587 0.33904 0.26985 0.0
C1400 C 0.74155 0.40274 0.26909 0.0
C1401 C 0.75521 0.42502 0.25323 0.0
C1402 C 0.75714 0.38601 0.2896 0.0
C1403 C 0.78718 0.39154 0.29409 0.0
C1404 C 0.80027 0.41579 0.28008 0.0
C1405 C 0.78405 0.43237 0.26005 0.0
C1406 C 0.74192 0.36096 0.30449 0.0
C1407 C 0.83212 0.42269 0.28433 0.0
H1408 H 0.8312 0.3681 0.38201 0.0
H1409 H 0.84956 0.31157 0.31023 0.0
H1410 H 0.80033 0.4249 0.34584 0.0
H1411 H 0.76965 0.40187 0.35261 0.0
H1412 H 0.79757 0.4056 0.37991 0.0
H1413 H 0.82839 0.31922 0.26405 0.0
H1414 H 0.79251 0.33505 0.2652 0.0
H1415 H 0.82299 0.35736 0.2557 0.0
H1416 H 0.71962 0.39625 0.26319 0.0
H1417 H 0.79495 0.44895 0.24716 0.0
H1418 H 0.74676 0.34044 0.2928 0.0
H1419 H 0.71798 0.3641 0.30459 0.0
H1420 H 0.74954 0.35839 0.32718 0.0
H1421 H 0.8371 0.42535 0.30774 0.0
H1422 H 0.8388 0.44285 0.27267 0.0
H1423 H 0.84546 0.40429 0.2763 0.0
C1424 C 0.72644 0.83283 0.22148 0.0
C1425 C 0.71059 0.80703 0.22675 0.0
C1426 C 0.74064 0.84777 0.24386 0.0
C1427 C 0.73904 0.83691 0.27254 0.0
C1428 C 0.72392 0.8104 0.27805 0.0
C1429 C 0.70989 0.79569 0.25505 0.0
C1430 C 0.75673 0.8757 0.23687 0.0
C1431 C 0.72185 0.79804 0.30837 0.0
C1432 C 0.79085 0.86769 0.32986 0.0
C1433 C 0.77267 0.88737 0.34425 0.0
C1434 C 0.78038 0.85122 0.30624 0.0
C1435 C 0.75114 0.85468 0.29687 0.0
C1436 C 0.73328 0.87561 0.31053 0.0
C1437 C 0.74421 0.89152 0.33409 0.0
C1438 C 0.80008 0.82903 0.29236 0.0
C1439 C 0.7022 0.88045 0.30097 0.0
H1440 H 0.72777 0.84161 0.19964 0.0
H1441 H 0.69802 0.77568 0.25932 0.0
H1442 H 0.74598 0.89431 0.24775 0.0
H1443 H 0.77935 0.87457 0.24523 0.0
H1444 H 0.75745 0.88027 0.21318 0.0
H1445 H 0.71379 0.77518 0.30848 0.0
H1446 H 0.74336 0.79878 0.3193 0.0
H1447 H 0.70671 0.81154 0.32131 0.0
H1448 H 0.81255 0.86374 0.33825 0.0
H1449 H 0.73 0.9064 0.34551 0.0
H1450 H 0.7992 0.83086 0.26835 0.0
H1451 H 0.79257 0.80675 0.29824 0.0
H1452 H 0.82303 0.83154 0.29955 0.0
H1453 H 0.70143 0.88599 0.2775 0.0
H1454 H 0.6915 0.89823 0.31324 0.0
H1455 H 0.68947 0.8601 0.30408 0.0
C1456 C 0.22182 0.70989 0.21691 0.0
C1457 C 0.24872 0.69561 0.22017 0.0
C1458 C 0.20965 0.72622 0.23942 0.0
C1459 C 0.22447 0.72831 0.26624 0.0
C1460 C 0.25184 0.7144 0.2697 0.0
C1461 C 0.26372 0.69829 0.24658 0.0
C1462 C 0.18056 0.74078 0.23465 0.0
C1463 C 0.26833 0.71623 0.29798 0.0
C1464 C 0.19961 0.78529 0.32133 0.0
C1465 C 0.18215 0.76826 0.33969 0.0
C1466 C 0.21351 0.77274 0.29714 0.0
C1467 C 0.20981 0.74254 0.29136 0.0
C1468 C 0.1913 0.72567 0.30931 0.0
C1469 C 0.17773 0.73873 0.33309 0.0
C1470 C 0.23299 0.7915 0.27846 0.0
C1471 C 0.18653 0.69351 0.30398 0.0
H1472 H 0.21007 0.70844 0.19654 0.0
H1473 H 0.28465 0.68775 0.24923 0.0
H1474 H 0.16408 0.73077 0.24917 0.0
H1475 H 0.18198 0.76426 0.24021 0.0
H1476 H 0.17281 0.7388 0.21188 0.0
H1477 H 0.28996 0.70555 0.29683 0.0
H1478 H 0.27143 0.7394 0.30405 0.0
H1479 H 0.25555 0.7057 0.31555 0.0
H1480 H 0.20367 0.80793 0.32674 0.0
H1481 H 0.16438 0.72542 0.34735 0.0
H1482 H 0.22748 0.78871 0.25516 0.0
H1483 H 0.25592 0.78459 0.28141 0.0
H1484 H 0.23132 0.81499 0.284 0.0
H1485 H 0.17758 0.69011 0.28186 0.0
H1486 H 0.17137 0.68352 0.31993 0.0
H1487 H 0.20759 0.68179 0.30522 0.0
C1488 C 0.41924 0.75258 0.7875 0.0
C1489 C 0.44293 0.76405 0.80297 0.0
C1490 C 0.4025 0.7704 0.76894 0.0
C1491 C 0.41021 0.80013 0.76522 0.0
C1492 C 0.43682 0.81032 0.77711 0.0
C1493 C 0.45299 0.79199 0.79561 0.0
C1494 C 0.375 0.75806 0.7559 0.0
C1495 C 0.44708 0.8414 0.77317 0.0
C1496 C 0.37506 0.84688 0.70673 0.0
C1497 C 0.35351 0.86226 0.72207 0.0
C1498 C 0.393 0.82626 0.72031 0.0
C1499 C 0.3899 0.82083 0.75028 0.0
C1500 C 0.36819 0.83602 0.76608 0.0
C1501 C 0.34997 0.85636 0.75171 0.0
C1502 C 0.41566 0.81058 0.70262 0.0
C1503 C 0.36457 0.83102 0.79825 0.0
H1504 H 0.4111 0.73109 0.79331 0.0
H1505 H 0.47107 0.80109 0.80772 0.0
H1506 H 0.35615 0.76457 0.76937 0.0
H1507 H 0.37133 0.76657 0.7336 0.0
H1508 H 0.37566 0.73386 0.75516 0.0
H1509 H 0.47086 0.84177 0.76917 0.0
H1510 H 0.43621 0.85298 0.75498 0.0
H1511 H 0.44302 0.85365 0.79348 0.0
H1512 H 0.37783 0.8506 0.68366 0.0
H1513 H 0.33332 0.86782 0.76368 0.0
H1514 H 0.41316 0.78662 0.70523 0.0
H1515 H 0.4377 0.81646 0.71062 0.0
H1516 H 0.41428 0.81608 0.67914 0.0
H1517 H 0.36004 0.80762 0.80261 0.0
H1518 H 0.34666 0.84427 0.80746 0.0
H1519 H 0.38512 0.83663 0.80968 0.0
C1520 C 0.20607 0.34546 0.85529 0.0
C1521 C 0.22949 0.35918 0.84095 0.0
C1522 C 0.18753 0.32588 0.84109 0.0
C1523 C 0.19191 0.31994 0.81144 0.0
C1524 C 0.21549 0.3335 0.79663 0.0
C1525 C 0.23423 0.35278 0.81165 0.0
C1526 C 0.16332 0.31137 0.85796 0.0
C1527 C 0.2208 0.32769 0.76489 0.0
C1528 C 0.16075 0.25254 0.77454 0.0
C1529 C 0.13819 0.26481 0.758 0.0
C1530 C 0.17762 0.26985 0.79334 0.0
C1531 C 0.1714 0.30001 0.79586 0.0
C1532 C 0.14613 0.31141 0.7823 0.0
C1533 C 0.12953 0.29348 0.76392 0.0
C1534 C 0.20379 0.25643 0.80804 0.0
C1535 C 0.13837 0.34332 0.78455 0.0
H1536 H 0.20234 0.34955 0.87812 0.0
H1537 H 0.25235 0.36291 0.80047 0.0
H1538 H 0.14196 0.31714 0.84827 0.0
H1539 H 0.1655 0.2873 0.85674 0.0
H1540 H 0.16326 0.3178 0.88118 0.0
H1541 H 0.23972 0.34012 0.75637 0.0
H1542 H 0.22473 0.30407 0.76154 0.0
H1543 H 0.20121 0.33364 0.75203 0.0
H1544 H 0.16791 0.23056 0.76967 0.0
H1545 H 0.11242 0.3032 0.7508 0.0
H1546 H 0.20602 0.26438 0.83063 0.0
H1547 H 0.22376 0.26282 0.79613 0.0
H1548 H 0.20247 0.23222 0.80844 0.0
H1549 H 0.13865 0.35042 0.80752 0.0
H1550 H 0.1166 0.3481 0.77513 0.0
H1551 H 0.15481 0.35654 0.77275 0.0
C1552 C 0.72258 0.19405 0.74164 0.0
C1553 C 0.70997 0.18147 0.71697 0.0
C1554 C 0.70602 0.21223 0.75997 0.0
C1555 C 0.67654 0.21854 0.75293 0.0
C1556 C 0.66347 0.20463 0.72893 0.0
C1557 C 0.68008 0.18587 0.71177 0.0
C1558 C 0.72039 0.22562 0.7862 0.0
C1559 C 0.63235 0.21087 0.7203 0.0
C1560 C 0.628 0.25171 0.81082 0.0
C1561 C 0.63309 0.28169 0.80692 0.0
C1562 C 0.6414 0.23089 0.79308 0.0
C1563 C 0.65948 0.24027 0.77004 0.0
C1564 C 0.66178 0.27057 0.76384 0.0
C1565 C 0.64892 0.29096 0.78265 0.0
C1566 C 0.63869 0.19906 0.80124 0.0
C1567 C 0.67972 0.28154 0.73869 0.0
H1568 H 0.7456 0.19103 0.74575 0.0
H1569 H 0.66996 0.17603 0.6929 0.0
H1570 H 0.72329 0.24939 0.78262 0.0
H1571 H 0.7064 0.22277 0.80561 0.0
H1572 H 0.74203 0.21584 0.79076 0.0
H1573 H 0.62529 0.198 0.70116 0.0
H1574 H 0.61749 0.20595 0.73859 0.0
H1575 H 0.62996 0.23442 0.71506 0.0
H1576 H 0.61661 0.24441 0.83015 0.0
H1577 H 0.6537 0.314 0.78002 0.0
H1578 H 0.65815 0.19252 0.814 0.0
H1579 H 0.63753 0.18487 0.78187 0.0
H1580 H 0.61916 0.195 0.81475 0.0
H1581 H 0.70311 0.27826 0.7436 0.0
H1582 H 0.67606 0.30511 0.73435 0.0
H1583 H 0.67459 0.26906 0.71873 0.0
C1584 C 0.84428 0.68146 0.70388 0.0
C1585 C 0.85823 0.70488 0.71805 0.0
C1586 C 0.82546 0.66243 0.71853 0.0
C1587 C 0.82064 0.6662 0.74848 0.0
C1588 C 0.83492 0.68936 0.76326 0.0
C1589 C 0.85342 0.70859 0.74783 0.0
C1590 C 0.81029 0.63853 0.70178 0.0
C1591 C 0.83042 0.69392 0.79534 0.0
C1592 C 0.75443 0.63565 0.78772 0.0
C1593 C 0.76696 0.61265 0.80353 0.0
C1594 C 0.77118 0.65243 0.76831 0.0
C1595 C 0.80096 0.64562 0.76434 0.0
C1596 C 0.81231 0.61976 0.77694 0.0
C1597 C 0.79494 0.60328 0.79599 0.0
C1598 C 0.7577 0.6792 0.75466 0.0
C1599 C 0.84378 0.61129 0.77318 0.0
H1600 H 0.84753 0.67817 0.68084 0.0
H1601 H 0.86382 0.72659 0.75898 0.0
H1602 H 0.81602 0.61689 0.71103 0.0
H1603 H 0.78638 0.64101 0.70371 0.0
H1604 H 0.81608 0.63873 0.67839 0.0
H1605 H 0.84371 0.71224 0.80389 0.0
H1606 H 0.80715 0.69854 0.79965 0.0
H1607 H 0.83612 0.67372 0.80747 0.0
H1608 H 0.73295 0.64326 0.79372 0.0
H1609 H 0.80485 0.58575 0.80846 0.0
H1610 H 0.76566 0.68265 0.7322 0.0
H1611 H 0.76374 0.69866 0.76759 0.0
H1612 H 0.73358 0.67761 0.75419 0.0
H1613 H 0.8507 0.61383 0.75028 0.0
H1614 H 0.84781 0.58842 0.78013 0.0
H1615 H 0.85762 0.62589 0.78655 0.0
C1616 C 0.24774 0.35807 0.24509 0.0
C1617 C 0.2191 0.35647 0.23475 0.0
C1618 C 0.27027 0.34269 0.2312 0.0
C1619 C 0.26393 0.32521 0.20658 0.0
C1620 C 0.23489 0.32274 0.19682 0.0
C1621 C 0.21297 0.33839 0.21089 0.0
C1622 C 0.30099 0.34605 0.24224 0.0
C1623 C 0.22701 0.30411 0.171 0.0
C1624 C 0.32526 0.31508 0.15259 0.0
C1625 C 0.33574 0.28729 0.15989 0.0
C1626 C 0.30141 0.32722 0.16703 0.0
C1627 C 0.28778 0.31131 0.18963 0.0
C1628 C 0.29729 0.28255 0.1961 0.0
C1629 C 0.32122 0.27083 0.1811 0.0
C1630 C 0.29173 0.35769 0.15902 0.0
C1631 C 0.28345 0.26492 0.22013 0.0
H1632 H 0.25266 0.37176 0.26358 0.0
H1633 H 0.19082 0.33641 0.203 0.0
H1634 H 0.31278 0.325 0.24139 0.0
H1635 H 0.31279 0.36177 0.22816 0.0
H1636 H 0.30158 0.35433 0.26486 0.0
H1637 H 0.20316 0.30306 0.16724 0.0
H1638 H 0.23748 0.31307 0.15119 0.0
H1639 H 0.23528 0.28158 0.17415 0.0
H1640 H 0.33674 0.32798 0.13647 0.0
H1641 H 0.32981 0.2497 0.18741 0.0
H1642 H 0.2955 0.37253 0.17761 0.0
H1643 H 0.26807 0.3579 0.1542 0.0
H1644 H 0.30353 0.36647 0.13986 0.0
H1645 H 0.29034 0.27391 0.24139 0.0
H1646 H 0.28988 0.24159 0.21927 0.0
H1647 H 0.25938 0.2663 0.21903 0.0
C1648 C 0.32381 0.72676 0.84138 0.0
C1649 C 0.35292 0.71998 0.84741 0.0
C1650 C 0.30717 0.70916 0.82241 0.0
C1651 C 0.32012 0.68464 0.80877 0.0
C1652 C 0.34954 0.67811 0.81442 0.0
C1653 C 0.36535 0.69554 0.83372 0.0
C1654 C 0.27568 0.71669 0.81698 0.0
C1655 C 0.36445 0.65266 0.80003 0.0
C1656 C 0.26888 0.62483 0.78301 0.0
C1657 C 0.2635 0.63344 0.75425 0.0
C1658 C 0.28806 0.64067 0.80078 0.0
C1659 C 0.30281 0.66526 0.78921 0.0
C1660 C 0.30024 0.67168 0.75917 0.0
C1661 C 0.28064 0.65559 0.74201 0.0
C1662 C 0.29013 0.63286 0.8326 0.0
C1663 C 0.3164 0.69699 0.74567 0.0
H1664 H 0.31407 0.74565 0.8515 0.0
H1665 H 0.38796 0.69009 0.8376 0.0
H1666 H 0.27208 0.7209 0.79351 0.0
H1667 H 0.26165 0.69796 0.8232 0.0
H1668 H 0.26871 0.73619 0.82935 0.0
H1669 H 0.38786 0.65116 0.80591 0.0
H1670 H 0.35364 0.63195 0.8064 0.0
H1671 H 0.36261 0.65465 0.77609 0.0
H1672 H 0.25512 0.60821 0.79274 0.0
H1673 H 0.27603 0.66279 0.72 0.0
H1674 H 0.27958 0.65016 0.84561 0.0
H1675 H 0.31319 0.63161 0.83962 0.0
H1676 H 0.27936 0.61172 0.83763 0.0
H1677 H 0.3092 0.71776 0.75557 0.0
H1678 H 0.31292 0.69839 0.72183 0.0
H1679 H 0.34003 0.69478 0.74998 0.0
C1680 C 0.26177 0.30045 0.91189 0.0
C1681 C 0.27415 0.31821 0.93337 0.0
C1682 C 0.27871 0.27994 0.89686 0.0
C1683 C 0.30866 0.27698 0.90371 0.0
C1684 C 0.31997 0.29175 0.92829 0.0
C1685 C 0.30231 0.31169 0.94318 0.0
C1686 C 0.26515 0.26365 0.87183 0.0
C1687 C 0.35131 0.28899 0.93781 0.0
C1688 C 0.35373 0.21481 0.87345 0.0
C1689 C 0.3671 0.22756 0.84895 0.0
C1690 C 0.33441 0.2304 0.89097 0.0
C1691 C 0.32833 0.25985 0.88438 0.0
C1692 C 0.34189 0.27317 0.85996 0.0
C1693 C 0.36088 0.25678 0.84231 0.0
C1694 C 0.32066 0.2154 0.91676 0.0
C1695 C 0.33659 0.30486 0.85278 0.0
H1696 H 0.24011 0.30552 0.90394 0.0
H1697 H 0.31214 0.32545 0.95963 0.0
H1698 H 0.2714 0.27437 0.85111 0.0
H1699 H 0.27298 0.24078 0.87117 0.0
H1700 H 0.24104 0.26352 0.87322 0.0
H1701 H 0.352 0.2812 0.96066 0.0
H1702 H 0.36435 0.27385 0.92448 0.0
H1703 H 0.36184 0.31081 0.93722 0.0
H1704 H 0.35793 0.19217 0.87889 0.0
H1705 H 0.37088 0.26684 0.82348 0.0
H1706 H 0.29665 0.21761 0.91572 0.0
H1707 H 0.32813 0.22605 0.93706 0.0
H1708 H 0.3262 0.19184 0.91798 0.0
H1709 H 0.31309 0.30853 0.84866 0.0
H1710 H 0.34902 0.3122 0.83343 0.0
H1711 H 0.3429 0.3186 0.87156 0.0
C1712 C 0.75241 0.34658 0.84376 0.0
C1713 C 0.72279 0.35251 0.84773 0.0
C1714 C 0.76945 0.36391 0.82482 0.0
C1715 C 0.75651 0.3874 0.8092 0.0
C1716 C 0.72676 0.39349 0.81328 0.0
C1717 C 0.71043 0.37625 0.8325 0.0
C1718 C 0.80136 0.35713 0.82149 0.0
C1719 C 0.71211 0.41831 0.79729 0.0
C1720 C 0.80964 0.4449 0.78166 0.0
C1721 C 0.81688 0.43367 0.75437 0.0
C1722 C 0.78863 0.43121 0.7992 0.0
C1723 C 0.7742 0.4059 0.78896 0.0
C1724 C 0.77831 0.3973 0.75973 0.0
C1725 C 0.79949 0.41145 0.74272 0.0
C1726 C 0.7846 0.44239 0.82966 0.0
C1727 C 0.76261 0.37129 0.74724 0.0
H1728 H 0.7622 0.32837 0.85523 0.0
H1729 H 0.68758 0.38128 0.83516 0.0
H1730 H 0.8061 0.35171 0.79854 0.0
H1731 H 0.81451 0.37666 0.82711 0.0
H1732 H 0.80836 0.33861 0.83548 0.0
H1733 H 0.6885 0.41966 0.80208 0.0
H1734 H 0.7225 0.43929 0.80339 0.0
H1735 H 0.71492 0.41565 0.77353 0.0
H1736 H 0.82326 0.46181 0.79103 0.0
H1737 H 0.8052 0.40237 0.7218 0.0
H1738 H 0.80329 0.43524 0.84324 0.0
H1739 H 0.76427 0.4346 0.83997 0.0
H1740 H 0.78441 0.46661 0.82951 0.0
H1741 H 0.77341 0.351 0.75487 0.0
H1742 H 0.76306 0.3716 0.72313 0.0
H1743 H 0.73964 0.37053 0.7545 0.0
C1744 C 0.70894 0.69679 0.83367 0.0
C1745 C 0.73407 0.70656 0.84836 0.0
C1746 C 0.69311 0.71495 0.81491 0.0
C1747 C 0.70206 0.74411 0.81073 0.0
C1748 C 0.72769 0.75421 0.82489 0.0
C1749 C 0.74356 0.73524 0.8434 0.0
C1750 C 0.66655 0.70288 0.79969 0.0
C1751 C 0.7381 0.78515 0.82067 0.0
C1752 C 0.67096 0.78857 0.7472 0.0
C1753 C 0.64944 0.80494 0.7611 0.0
C1754 C 0.68779 0.76804 0.76281 0.0
C1755 C 0.68334 0.76429 0.79309 0.0
C1756 C 0.66041 0.77956 0.80669 0.0
C1757 C 0.64377 0.79955 0.79053 0.0
C1758 C 0.71146 0.75179 0.74715 0.0
C1759 C 0.65453 0.77611 0.83875 0.0
H1760 H 0.70151 0.67451 0.83652 0.0
H1761 H 0.76311 0.74292 0.85414 0.0
H1762 H 0.64685 0.71473 0.80691 0.0
H1763 H 0.66847 0.70624 0.7759 0.0
H1764 H 0.66334 0.67923 0.80402 0.0
H1765 H 0.75862 0.7896 0.83265 0.0
H1766 H 0.74168 0.78955 0.79724 0.0
H1767 H 0.72118 0.80057 0.82819 0.0
H1768 H 0.67623 0.79344 0.72476 0.0
H1769 H 0.62772 0.81282 0.80151 0.0
H1770 H 0.71325 0.72901 0.75512 0.0
H1771 H 0.73262 0.76276 0.75118 0.0
H1772 H 0.70749 0.75139 0.72337 0.0
H1773 H 0.65057 0.75283 0.84416 0.0
H1774 H 0.63545 0.78903 0.84589 0.0
H1775 H 0.67387 0.78323 0.85135 0.0
C1776 C 0.77705 0.75575 0.12219 0.0
C1777 C 0.76616 0.78243 0.13204 0.0
C1778 C 0.80009 0.74182 0.1367 0.0
C1779 C 0.81222 0.75485 0.1618 0.0
C1780 C 0.80363 0.78344 0.16961 0.0
C1781 C 0.78081 0.79704 0.15437 0.0
C1782 C 0.80886 0.71162 0.12725 0.0
C1783 C 0.81587 0.79822 0.1962 0.0
C1784 C 0.83368 0.70343 0.22341 0.0
C1785 C 0.86407 0.70333 0.22134 0.0
C1786 C 0.81664 0.72013 0.20414 0.0
C1787 C 0.83029 0.73699 0.18212 0.0
C1788 C 0.86091 0.73665 0.17966 0.0
C1789 C 0.87741 0.7199 0.19929 0.0
C1790 C 0.78398 0.72 0.20758 0.0
C1791 C 0.87624 0.75422 0.15649 0.0
H1792 H 0.7653 0.74417 0.10533 0.0
H1793 H 0.77192 0.81731 0.16251 0.0
H1794 H 0.83281 0.70894 0.12831 0.0
H1795 H 0.79906 0.69525 0.14213 0.0
H1796 H 0.80136 0.70684 0.10482 0.0
H1797 H 0.81101 0.82196 0.19628 0.0
H1798 H 0.80607 0.7883 0.21591 0.0
H1799 H 0.83975 0.79516 0.19766 0.0
H1800 H 0.8232 0.69088 0.24042 0.0
H1801 H 0.9009 0.71999 0.19744 0.0
H1802 H 0.77349 0.71237 0.18726 0.0
H1803 H 0.77612 0.74248 0.21165 0.0
H1804 H 0.77674 0.70572 0.22573 0.0
H1805 H 0.90019 0.7511 0.15704 0.0
H1806 H 0.87149 0.77775 0.15932 0.0
H1807 H 0.86804 0.74797 0.13471 0.0
C1808 C 0.33942 0.8627 0.18344 0.0
C1809 C 0.35573 0.8504 0.20629 0.0
C1810 C 0.3225 0.84528 0.16496 0.0
C1811 C 0.3217 0.81479 0.16945 0.0
C1812 C 0.33848 0.80212 0.19214 0.0
C1813 C 0.35542 0.82009 0.21023 0.0
C1814 C 0.30506 0.85956 0.14098 0.0
C1815 C 0.33809 0.76962 0.19768 0.0
C1816 C 0.25973 0.7658 0.14563 0.0
C1817 C 0.27324 0.74982 0.12368 0.0
C1818 C 0.27448 0.78871 0.15952 0.0
C1819 C 0.30313 0.79594 0.15073 0.0
C1820 C 0.31523 0.78227 0.12609 0.0
C1821 C 0.30014 0.75919 0.11293 0.0
C1822 C 0.26071 0.80265 0.18571 0.0
C1823 C 0.34548 0.78959 0.11567 0.0
H1824 H 0.33959 0.88612 0.18012 0.0
H1825 H 0.36779 0.81046 0.22789 0.0
H1826 H 0.31064 0.84975 0.11976 0.0
H1827 H 0.28152 0.85566 0.14459 0.0
H1828 H 0.30887 0.88347 0.1397 0.0
H1829 H 0.35263 0.76316 0.21591 0.0
H1830 H 0.31564 0.76238 0.20283 0.0
H1831 H 0.34496 0.75783 0.17789 0.0
H1832 H 0.2393 0.75799 0.15449 0.0
H1833 H 0.31085 0.74636 0.09639 0.0
H1834 H 0.26427 0.82659 0.18557 0.0
H1835 H 0.27095 0.79376 0.20572 0.0
H1836 H 0.23697 0.79823 0.18677 0.0
H1837 H 0.34894 0.81355 0.11515 0.0
H1838 H 0.34969 0.7807 0.09369 0.0
H1839 H 0.36167 0.78014 0.13094 0.0
C1840 C 0.7182 0.31639 0.20718 0.0
C1841 C 0.70687 0.34122 0.19337 0.0
C1842 C 0.70071 0.29939 0.22594 0.0
C1843 C 0.6715 0.30782 0.23146 0.0
C1844 C 0.65982 0.33225 0.2168 0.0
C1845 C 0.6774 0.34826 0.1977 0.0
C1846 C 0.71352 0.27256 0.24008 0.0
C1847 C 0.62894 0.34207 0.22197 0.0
C1848 C 0.61915 0.24999 0.25959 0.0
C1849 C 0.62367 0.2516 0.28969 0.0
C1850 C 0.63454 0.26812 0.24034 0.0
C1851 C 0.65269 0.29037 0.25153 0.0
C1852 C 0.6536 0.29504 0.28196 0.0
C1853 C 0.6395 0.27523 0.30074 0.0
C1854 C 0.63309 0.2616 0.20824 0.0
C1855 C 0.67162 0.31926 0.29486 0.0
H1856 H 0.74091 0.3109 0.20424 0.0
H1857 H 0.66826 0.3673 0.18702 0.0
H1858 H 0.69938 0.25337 0.23585 0.0
H1859 H 0.73576 0.26779 0.23207 0.0
H1860 H 0.71456 0.27555 0.26393 0.0
H1861 H 0.62381 0.36287 0.21059 0.0
H1862 H 0.61354 0.3251 0.2143 0.0
H1863 H 0.62518 0.345 0.24556 0.0
H1864 H 0.60743 0.23136 0.25097 0.0
H1865 H 0.64366 0.2763 0.3239 0.0
H1866 H 0.65372 0.26678 0.19691 0.0
H1867 H 0.61554 0.27481 0.19815 0.0
H1868 H 0.62814 0.23824 0.20443 0.0
H1869 H 0.69484 0.31278 0.29485 0.0
H1870 H 0.66523 0.32385 0.31762 0.0
H1871 H 0.66952 0.3396 0.28184 0.0
loop_
_geom_bond_atom_site_label_1
_geom_bond_atom_site_label_2
_geom_bond_distance
_geom_bond_site_symmetry_2
_ccdc_geom_bond_type
C0 O2 1.247 . S
C0 O4 1.258 . S
C1 O8 1.247 . S
C1 O9 1.258 . S
O2 C0 1.247 . S
O2 Zn3 2.028 . S
Zn3 O2 2.028 . S
Zn3 O7 2.035 . S
Zn3 O9 2.035 . S
Zn3 O10 2.028 . S
O4 C0 1.258 . S
O4 Zn5 2.035 . S
Zn5 O4 2.035 . S
Zn5 O6 2.028 . S
Zn5 O8 2.028 . S
Zn5 O11 2.035 . S
O6 Zn5 2.028 . S
O6 C12 1.247 . S
O7 Zn3 2.035 . S
O7 C12 1.258 . S
O8 C1 1.247 . S
O8 Zn5 2.028 . S
O9 C1 1.258 . S
O9 Zn3 2.035 . S
O10 Zn3 2.028 . S
O10 C13 1.247 . S
O11 Zn5 2.035 . S
O11 C13 1.258 . S
C12 O6 1.247 . S
C12 O7 1.258 . S
C13 O10 1.247 . S
C13 O11 1.258 . S
C14 O16 1.247 . S
C14 O18 1.258 . S
C15 O22 1.247 . S
C15 O23 1.258 . S
O16 C14 1.247 . S
O16 Zn17 2.028 . S
Zn17 O16 2.028 . S
Zn17 O21 2.035 . S
Zn17 O23 2.035 . S
Zn17 O24 2.028 . S
O18 C14 1.258 . S
O18 Zn19 2.035 . S
Zn19 O18 2.035 . S
Zn19 O20 2.028 . S
Zn19 O22 2.028 . S
Zn19 O25 2.035 . S
O20 Zn19 2.028 . S
O20 C26 1.247 . S
O21 Zn17 2.035 . S
O21 C26 1.258 . S
O22 C15 1.247 . S
O22 Zn19 2.028 . S
O23 C15 1.258 . S
O23 Zn17 2.035 . S
O24 Zn17 2.028 . S
O24 C27 1.247 . S
O25 Zn19 2.035 . S
O25 C27 1.258 . S
C26 O20 1.247 . S
C26 O21 1.258 . S
C27 O24 1.247 . S
C27 O25 1.258 . S
C28 O30 1.247 . S
C28 O32 1.258 . S
C29 O36 1.247 . S
C29 O37 1.258 . S
O30 C28 1.247 . S
O30 Zn31 2.028 . S
Zn31 O30 2.028 . S
Zn31 O35 2.035 . S
Zn31 O37 2.035 . S
Zn31 O38 2.028 . S
O32 C28 1.258 . S
O32 Zn33 2.035 . S
Zn33 O32 2.035 . S
Zn33 O34 2.028 . S
Zn33 O36 2.028 . S
Zn33 O39 2.035 . S
O34 Zn33 2.028 . S
O34 C40 1.247 . S
O35 Zn31 2.035 . S
O35 C40 1.258 . S
O36 C29 1.247 . S
O36 Zn33 2.028 . S
O37 C29 1.258 . S
O37 Zn31 2.035 . S
O38 Zn31 2.028 . S
O38 C41 1.247 . S
O39 Zn33 2.035 . S
O39 C41 1.258 . S
C40 O34 1.247 . S
C40 O35 1.258 . S
C41 O38 1.247 . S
C41 O39 1.258 . S
C42 O44 1.247 . S
C42 O46 1.258 . S
C43 O50 1.247 . S
C43 O51 1.258 . S
O44 C42 1.247 . S
O44 Zn45 2.028 . S
Zn45 O44 2.028 . S
Zn45 O49 2.035 . S
Zn45 O51 2.035 . S
Zn45 O52 2.028 . S
O46 C42 1.258 . S
O46 Zn47 2.035 . S
Zn47 O46 2.035 . S
Zn47 O48 2.028 . S
Zn47 O50 2.028 . S
Zn47 O53 2.035 . S
O48 Zn47 2.028 . S
O48 C54 1.247 . S
O49 Zn45 2.035 . S
O49 C54 1.258 . S
O50 C43 1.247 . S
O50 Zn47 2.028 . S
O51 C43 1.258 . S
O51 Zn45 2.035 . S
O52 Zn45 2.028 . S
O52 C55 1.247 . S
O53 Zn47 2.035 . S
O53 C55 1.258 . S
C54 O48 1.247 . S
C54 O49 1.258 . S
C55 O52 1.247 . S
C55 O53 1.258 . S
C56 O58 1.247 . S
C56 O60 1.258 . S
C57 O64 1.247 . S
C57 O65 1.258 . S
O58 C56 1.247 . S
O58 Zn59 2.028 . S
Zn59 O58 2.028 . S
Zn59 O63 2.035 . S
Zn59 O65 2.035 . S
Zn59 O66 2.028 . S
O60 C56 1.258 . S
O60 Zn61 2.035 . S
Zn61 O60 2.035 . S
Zn61 O62 2.028 . S
Zn61 O64 2.028 . S
Zn61 O67 2.035 . S
O62 Zn61 2.028 . S
O62 C68 1.247 . S
O63 Zn59 2.035 . S
O63 C68 1.258 . S
O64 C57 1.247 . S
O64 Zn61 2.028 . S
O65 C57 1.258 . S
O65 Zn59 2.035 . S
O66 Zn59 2.028 . S
O66 C69 1.247 . S
O67 Zn61 2.035 . S
O67 C69 1.258 . S
C68 O62 1.247 . S
C68 O63 1.258 . S
C69 O66 1.247 . S
C69 O67 1.258 . S
C70 O72 1.247 . S
C70 O74 1.258 . S
C71 O78 1.247 . S
C71 O79 1.258 . S
O72 C70 1.247 . S
O72 Zn73 2.028 . S
Zn73 O72 2.028 . S
Zn73 O77 2.035 . S
Zn73 O79 2.035 . S
Zn73 O80 2.028 . S
O74 C70 1.258 . S
O74 Zn75 2.035 . S
Zn75 O74 2.035 . S
Zn75 O76 2.028 . S
Zn75 O78 2.028 . S
Zn75 O81 2.035 . S
O76 Zn75 2.028 . S
O76 C82 1.247 . S
O77 Zn73 2.035 . S
O77 C82 1.258 . S
O78 C71 1.247 . S
O78 Zn75 2.028 . S
O79 C71 1.258 . S
O79 Zn73 2.035 . S
O80 Zn73 2.028 . S
O80 C83 1.247 . S
O81 Zn75 2.035 . S
O81 C83 1.258 . S
C82 O76 1.247 . S
C82 O77 1.258 . S
C83 O80 1.247 . S
C83 O81 1.258 . S
C84 O86 1.247 . S
C84 O88 1.258 . S
C85 O92 1.247 . S
C85 O93 1.258 . S
O86 C84 1.247 . S
O86 Zn87 2.028 . S
Zn87 O86 2.028 . S
Zn87 O91 2.035 . S
Zn87 O93 2.035 . S
Zn87 O94 2.028 . S
O88 C84 1.258 . S
O88 Zn89 2.035 . S
Zn89 O88 2.035 . S
Zn89 O90 2.028 . S
Zn89 O92 2.028 . S
Zn89 O95 2.035 . S
O90 Zn89 2.028 . S
O90 C96 1.247 . S
O91 Zn87 2.035 . S
O91 C96 1.258 . S
O92 C85 1.247 . S
O92 Zn89 2.028 . S
O93 C85 1.258 . S
O93 Zn87 2.035 . S
O94 Zn87 2.028 . S
O94 C97 1.247 . S
O95 Zn89 2.035 . S
O95 C97 1.258 . S
C96 O90 1.247 . S
C96 O91 1.258 . S
C97 O94 1.247 . S
C97 O95 1.258 . S
C98 O100 1.247 . S
C98 O102 1.258 . S
C99 O106 1.247 . S
C99 O107 1.258 . S
O100 C98 1.247 . S
O100 Zn101 2.028 . S
Zn101 O100 2.028 . S
Zn101 O105 2.035 . S
Zn101 O107 2.035 . S
Zn101 O108 2.028 . S
O102 C98 1.258 . S
O102 Zn103 2.035 . S
Zn103 O102 2.035 . S
Zn103 O104 2.028 . S
Zn103 O106 2.028 . S
Zn103 O109 2.035 . S
O104 Zn103 2.028 . S
O104 C110 1.247 . S
O105 Zn101 2.035 . S
O105 C110 1.258 . S
O106 C99 1.247 . S
O106 Zn103 2.028 . S
O107 C99 1.258 . S
O107 Zn101 2.035 . S
O108 Zn101 2.028 . S
O108 C111 1.247 . S
O109 Zn103 2.035 . S
O109 C111 1.258 . S
C110 O104 1.247 . S
C110 O105 1.258 . S
C111 O108 1.247 . S
C111 O109 1.258 . S
C112 O114 1.247 . S
C112 O116 1.258 . S
C113 O120 1.247 . S
C113 O121 1.258 . S
O114 C112 1.247 . S
O114 Zn115 2.028 . S
Zn115 O114 2.028 . S
Zn115 O119 2.035 . S
Zn115 O121 2.035 . S
Zn115 O122 2.028 . S
O116 C112 1.258 . S
O116 Zn117 2.035 . S
Zn117 O116 2.035 . S
Zn117 O118 2.028 . S
Zn117 O120 2.028 . S
Zn117 O123 2.035 . S
O118 Zn117 2.028 . S
O118 C124 1.247 . S
O119 Zn115 2.035 . S
O119 C124 1.258 . S
O120 C113 1.247 . S
O120 Zn117 2.028 . S
O121 C113 1.258 . S
O121 Zn115 2.035 . S
O122 Zn115 2.028 . S
O122 C125 1.247 . S
O123 Zn117 2.035 . S
O123 C125 1.258 . S
C124 O118 1.247 . S
C124 O119 1.258 . S
C125 O122 1.247 . S
C125 O123 1.258 . S
C126 O128 1.247 . S
C126 O130 1.258 . S
C127 O134 1.247 . S
C127 O135 1.258 . S
O128 C126 1.247 . S
O128 Zn129 2.028 . S
Zn129 O128 2.028 . S
Zn129 O133 2.035 . S
Zn129 O135 2.035 . S
Zn129 O136 2.028 . S
O130 C126 1.258 . S
O130 Zn131 2.035 . S
Zn131 O130 2.035 . S
Zn131 O132 2.028 . S
Zn131 O134 2.028 . S
Zn131 O137 2.035 . S
O132 Zn131 2.028 . S
O132 C138 1.247 . S
O133 Zn129 2.035 . S
O133 C138 1.258 . S
O134 C127 1.247 . S
O134 Zn131 2.028 . S
O135 C127 1.258 . S
O135 Zn129 2.035 . S
O136 Zn129 2.028 . S
O136 C139 1.247 . S
O137 Zn131 2.035 . S
O137 C139 1.258 . S
C138 O132 1.247 . S
C138 O133 1.258 . S
C139 O136 1.247 . S
C139 O137 1.258 . S
C140 O142 1.247 . S
C140 O144 1.258 . S
C141 O148 1.247 . S
C141 O149 1.258 . S
O142 C140 1.247 . S
O142 Zn143 2.028 . S
Zn143 O142 2.028 . S
Zn143 O147 2.035 . S
Zn143 O149 2.035 . S
Zn143 O150 2.028 . S
O144 C140 1.258 . S
O144 Zn145 2.035 . S
Zn145 O144 2.035 . S
Zn145 O146 2.028 . S
Zn145 O148 2.028 . S
Zn145 O151 2.035 . S
O146 Zn145 2.028 . S
O146 C152 1.247 . S
O147 Zn143 2.035 . S
O147 C152 1.258 . S
O148 C141 1.247 . S
O148 Zn145 2.028 . S
O149 C141 1.258 . S
O149 Zn143 2.035 . S
O150 Zn143 2.028 . S
O150 C153 1.247 . S
O151 Zn145 2.035 . S
O151 C153 1.258 . S
C152 O146 1.247 . S
C152 O147 1.258 . S
C153 O150 1.247 . S
C153 O151 1.258 . S
C154 O156 1.247 . S
C154 O158 1.258 . S
C155 O162 1.247 . S
C155 O163 1.258 . S
O156 C154 1.247 . S
O156 Zn157 2.028 . S
Zn157 O156 2.028 . S
Zn157 O161 2.035 . S
Zn157 O163 2.035 . S
Zn157 O164 2.028 . S
O158 C154 1.258 . S
O158 Zn159 2.035 . S
Zn159 O158 2.035 . S
Zn159 O160 2.028 . S
Zn159 O162 2.028 . S
Zn159 O165 2.035 . S
O160 Zn159 2.028 . S
O160 C166 1.247 . S
O161 Zn157 2.035 . S
O161 C166 1.258 . S
O162 C155 1.247 . S
O162 Zn159 2.028 . S
O163 C155 1.258 . S
O163 Zn157 2.035 . S
O164 Zn157 2.028 . S
O164 C167 1.247 . S
O165 Zn159 2.035 . S
O165 C167 1.258 . S
C166 O160 1.247 . S
C166 O161 1.258 . S
C167 O164 1.247 . S
C167 O165 1.258 . S
C168 O170 1.247 . S
C168 O172 1.258 . S
C169 O176 1.247 . S
C169 O177 1.258 . S
O170 C168 1.247 . S
O170 Zn171 2.028 . S
Zn171 O170 2.028 . S
Zn171 O175 2.035 . S
Zn171 O177 2.035 . S
Zn171 O178 2.028 . S
O172 C168 1.258 . S
O172 Zn173 2.035 . S
Zn173 O172 2.035 . S
Zn173 O174 2.028 . S
Zn173 O176 2.028 . S
Zn173 O179 2.035 . S
O174 Zn173 2.028 . S
O174 C180 1.247 . S
O175 Zn171 2.035 . S
O175 C180 1.258 . S
O176 C169 1.247 . S
O176 Zn173 2.028 . S
O177 C169 1.258 . S
O177 Zn171 2.035 . S
O178 Zn171 2.028 . S
O178 C181 1.247 . S
O179 Zn173 2.035 . S
O179 C181 1.258 . S
C180 O174 1.247 . S
C180 O175 1.258 . S
C181 O178 1.247 . S
C181 O179 1.258 . S
C182 O184 1.247 . S
C182 O186 1.258 . S
C183 O190 1.247 . S
C183 O191 1.258 . S
O184 C182 1.247 . S
O184 Zn185 2.028 . S
Zn185 O184 2.028 . S
Zn185 O189 2.035 . S
Zn185 O191 2.035 . S
Zn185 O192 2.028 . S
O186 C182 1.258 . S
O186 Zn187 2.035 . S
Zn187 O186 2.035 . S
Zn187 O188 2.028 . S
Zn187 O190 2.028 . S
Zn187 O193 2.035 . S
O188 Zn187 2.028 . S
O188 C194 1.247 . S
O189 Zn185 2.035 . S
O189 C194 1.258 . S
O190 C183 1.247 . S
O190 Zn187 2.028 . S
O191 C183 1.258 . S
O191 Zn185 2.035 . S
O192 Zn185 2.028 . S
O192 C195 1.247 . S
O193 Zn187 2.035 . S
O193 C195 1.258 . S
C194 O188 1.247 . S
C194 O189 1.258 . S
C195 O192 1.247 . S
C195 O193 1.258 . S
C196 O198 1.247 . S
C196 O200 1.258 . S
C197 O204 1.247 . S
C197 O205 1.258 . S
O198 C196 1.247 . S
O198 Zn199 2.028 . S
Zn199 O198 2.028 . S
Zn199 O203 2.035 . S
Zn199 O205 2.035 . S
Zn199 O206 2.028 . S
O200 C196 1.258 . S
O200 Zn201 2.035 . S
Zn201 O200 2.035 . S
Zn201 O202 2.028 . S
Zn201 O204 2.028 . S
Zn201 O207 2.035 . S
O202 Zn201 2.028 . S
O202 C208 1.247 . S
O203 Zn199 2.035 . S
O203 C208 1.258 . S
O204 C197 1.247 . S
O204 Zn201 2.028 . S
O205 C197 1.258 . S
O205 Zn199 2.035 . S
O206 Zn199 2.028 . S
O206 C209 1.247 . S
O207 Zn201 2.035 . S
O207 C209 1.258 . S
C208 O202 1.247 . S
C208 O203 1.258 . S
C209 O206 1.247 . S
C209 O207 1.258 . S
C210 O212 1.247 . S
C210 O214 1.258 . S
C211 O218 1.247 . S
C211 O219 1.258 . S
O212 C210 1.247 . S
O212 Zn213 2.028 . S
Zn213 O212 2.028 . S
Zn213 O217 2.035 . S
Zn213 O219 2.035 . S
Zn213 O220 2.028 . S
O214 C210 1.258 . S
O214 Zn215 2.035 . S
Zn215 O214 2.035 . S
Zn215 O216 2.028 . S
Zn215 O218 2.028 . S
Zn215 O221 2.035 . S
O216 Zn215 2.028 . S
O216 C222 1.247 . S
O217 Zn213 2.035 . S
O217 C222 1.258 . S
O218 C211 1.247 . S
O218 Zn215 2.028 . S
O219 C211 1.258 . S
O219 Zn213 2.035 . S
O220 Zn213 2.028 . S
O220 C223 1.247 . S
O221 Zn215 2.035 . S
O221 C223 1.258 . S
C222 O216 1.247 . S
C222 O217 1.258 . S
C223 O220 1.247 . S
C223 O221 1.258 . S
C224 O226 1.247 . S
C224 O228 1.258 . S
C225 O232 1.247 . S
C225 O233 1.258 . S
O226 C224 1.247 . S
O226 Zn227 2.028 . S
Zn227 O226 2.028 . S
Zn227 O231 2.035 . S
Zn227 O233 2.035 . S
Zn227 O234 2.028 . S
O228 C224 1.258 . S
O228 Zn229 2.035 . S
Zn229 O228 2.035 . S
Zn229 O230 2.028 . S
Zn229 O232 2.028 . S
Zn229 O235 2.035 . S
O230 Zn229 2.028 . S
O230 C236 1.247 . S
O231 Zn227 2.035 . S
O231 C236 1.258 . S
O232 C225 1.247 . S
O232 Zn229 2.028 . S
O233 C225 1.258 . S
O233 Zn227 2.035 . S
O234 Zn227 2.028 . S
O234 C237 1.247 . S
O235 Zn229 2.035 . S
O235 C237 1.258 . S
C236 O230 1.247 . S
C236 O231 1.258 . S
C237 O234 1.247 . S
C237 O235 1.258 . S
C238 O240 1.247 . S
C238 O242 1.258 . S
C239 O246 1.247 . S
C239 O247 1.258 . S
O240 C238 1.247 . S
O240 Zn241 2.028 . S
Zn241 O240 2.028 . S
Zn241 O245 2.035 . S
Zn241 O247 2.035 . S
Zn241 O248 2.028 . S
O242 C238 1.258 . S
O242 Zn243 2.035 . S
Zn243 O242 2.035 . S
Zn243 O244 2.028 . S
Zn243 O246 2.028 . S
Zn243 O249 2.035 . S
O244 Zn243 2.028 . S
O244 C250 1.247 . S
O245 Zn241 2.035 . S
O245 C250 1.258 . S
O246 C239 1.247 . S
O246 Zn243 2.028 . S
O247 C239 1.258 . S
O247 Zn241 2.035 . S
O248 Zn241 2.028 . S
O248 C251 1.247 . S
O249 Zn243 2.035 . S
O249 C251 1.258 . S
C250 O244 1.247 . S
C250 O245 1.258 . S
C251 O248 1.247 . S
C251 O249 1.258 . S
C252 O254 1.247 . S
C252 O256 1.258 . S
C253 O260 1.247 . S
C253 O261 1.258 . S
O254 C252 1.247 . S
O254 Zn255 2.028 . S
Zn255 O254 2.028 . S
Zn255 O259 2.035 . S
Zn255 O261 2.035 . S
Zn255 O262 2.028 . S
O256 C252 1.258 . S
O256 Zn257 2.035 . S
Zn257 O256 2.035 . S
Zn257 O258 2.028 . S
Zn257 O260 2.028 . S
Zn257 O263 2.035 . S
O258 Zn257 2.028 . S
O258 C264 1.247 . S
O259 Zn255 2.035 . S
O259 C264 1.258 . S
O260 C253 1.247 . S
O260 Zn257 2.028 . S
O261 C253 1.258 . S
O261 Zn255 2.035 . S
O262 Zn255 2.028 . S
O262 C265 1.247 . S
O263 Zn257 2.035 . S
O263 C265 1.258 . S
C264 O258 1.247 . S
C264 O259 1.258 . S
C265 O262 1.247 . S
C265 O263 1.258 . S
C266 O268 1.247 . S
C266 O270 1.258 . S
C267 O274 1.247 . S
C267 O275 1.258 . S
O268 C266 1.247 . S
O268 Zn269 2.028 . S
Zn269 O268 2.028 . S
Zn269 O273 2.035 . S
Zn269 O275 2.035 . S
Zn269 O276 2.028 . S
O270 C266 1.258 . S
O270 Zn271 2.035 . S
Zn271 O270 2.035 . S
Zn271 O272 2.028 . S
Zn271 O274 2.028 . S
Zn271 O277 2.035 . S
O272 Zn271 2.028 . S
O272 C278 1.247 . S
O273 Zn269 2.035 . S
O273 C278 1.258 . S
O274 C267 1.247 . S
O274 Zn271 2.028 . S
O275 C267 1.258 . S
O275 Zn269 2.035 . S
O276 Zn269 2.028 . S
O276 C279 1.247 . S
O277 Zn271 2.035 . S
O277 C279 1.258 . S
C278 O272 1.247 . S
C278 O273 1.258 . S
C279 O276 1.247 . S
C279 O277 1.258 . S
C280 O282 1.247 . S
C280 O284 1.258 . S
C281 O288 1.247 . S
C281 O289 1.258 . S
O282 C280 1.247 . S
O282 Zn283 2.028 . S
Zn283 O282 2.028 . S
Zn283 O287 2.035 . S
Zn283 O289 2.035 . S
Zn283 O290 2.028 . S
O284 C280 1.258 . S
O284 Zn285 2.035 . S
Zn285 O284 2.035 . S
Zn285 O286 2.028 . S
Zn285 O288 2.028 . S
Zn285 O291 2.035 . S
O286 Zn285 2.028 . S
O286 C292 1.247 . S
O287 Zn283 2.035 . S
O287 C292 1.258 . S
O288 C281 1.247 . S
O288 Zn285 2.028 . S
O289 C281 1.258 . S
O289 Zn283 2.035 . S
O290 Zn283 2.028 . S
O290 C293 1.247 . S
O291 Zn285 2.035 . S
O291 C293 1.258 . S
C292 O286 1.247 . S
C292 O287 1.258 . S
C293 O290 1.247 . S
C293 O291 1.258 . S
C294 O296 1.247 . S
C294 O298 1.258 . S
C295 O302 1.247 . S
C295 O303 1.258 . S
O296 C294 1.247 . S
O296 Zn297 2.028 . S
Zn297 O296 2.028 . S
Zn297 O301 2.035 . S
Zn297 O303 2.035 . S
Zn297 O304 2.028 . S
O298 C294 1.258 . S
O298 Zn299 2.035 . S
Zn299 O298 2.035 . S
Zn299 O300 2.028 . S
Zn299 O302 2.028 . S
Zn299 O305 2.035 . S
O300 Zn299 2.028 . S
O300 C306 1.247 . S
O301 Zn297 2.035 . S
O301 C306 1.258 . S
O302 C295 1.247 . S
O302 Zn299 2.028 . S
O303 C295 1.258 . S
O303 Zn297 2.035 . S
O304 Zn297 2.028 . S
O304 C307 1.247 . S
O305 Zn299 2.035 . S
O305 C307 1.258 . S
C306 O300 1.247 . S
C306 O301 1.258 . S
C307 O304 1.247 . S
C307 O305 1.258 . S
C308 O310 1.247 . S
C308 O312 1.258 . S
C309 O316 1.247 . S
C309 O317 1.258 . S
O310 C308 1.247 . S
O310 Zn311 2.028 . S
Zn311 O310 2.028 . S
Zn311 O315 2.035 . S
Zn311 O317 2.035 . S
Zn311 O318 2.028 . S
O312 C308 1.258 . S
O312 Zn313 2.035 . S
Zn313 O312 2.035 . S
Zn313 O314 2.028 . S
Zn313 O316 2.028 . S
Zn313 O319 2.035 . S
O314 Zn313 2.028 . S
O314 C320 1.247 . S
O315 Zn311 2.035 . S
O315 C320 1.258 . S
O316 C309 1.247 . S
O316 Zn313 2.028 . S
O317 C309 1.258 . S
O317 Zn311 2.035 . S
O318 Zn311 2.028 . S
O318 C321 1.247 . S
O319 Zn313 2.035 . S
O319 C321 1.258 . S
C320 O314 1.247 . S
C320 O315 1.258 . S
C321 O318 1.247 . S
C321 O319 1.258 . S
C322 O324 1.247 . S
C322 O326 1.258 . S
C323 O330 1.247 . S
C323 O331 1.258 . S
O324 C322 1.247 . S
O324 Zn325 2.028 . S
Zn325 O324 2.028 . S
Zn325 O329 2.035 . S
Zn325 O331 2.035 . S
Zn325 O332 2.028 . S
O326 C322 1.258 . S
O326 Zn327 2.035 . S
Zn327 O326 2.035 . S
Zn327 O328 2.028 . S
Zn327 O330 2.028 . S
Zn327 O333 2.035 . S
O328 Zn327 2.028 . S
O328 C334 1.247 . S
O329 Zn325 2.035 . S
O329 C334 1.258 . S
O330 C323 1.247 . S
O330 Zn327 2.028 . S
O331 C323 1.258 . S
O331 Zn325 2.035 . S
O332 Zn325 2.028 . S
O332 C335 1.247 . S
O333 Zn327 2.035 . S
O333 C335 1.258 . S
C334 O328 1.247 . S
C334 O329 1.258 . S
C335 O332 1.247 . S
C335 O333 1.258 . S
C336 C337 1.391 . S
C336 C338 1.394 . S
C336 H352 0.931 . S
C337 C336 1.391 . S
C337 C341 1.376 . S
C338 C336 1.394 . S
C338 C339 1.369 . S
C338 C342 1.531 . S
C339 C338 1.369 . S
C339 C340 1.410 . S
C339 C347 1.503 . S
C340 C339 1.410 . S
C340 C341 1.392 . S
C340 C343 1.511 . S
C341 C337 1.376 . S
C341 C340 1.392 . S
C341 H353 0.929 . S
C342 C338 1.531 . S
C342 H354 0.960 . S
C342 H355 0.962 . S
C342 H356 0.960 . S
C343 C340 1.511 . S
C343 H357 0.961 . S
C343 H358 0.961 . S
C343 H359 0.961 . S
C344 C345 1.370 . S
C344 C346 1.363 . S
C344 H360 0.931 . S
C345 C344 1.370 . S
C345 C349 1.408 . S
C346 C344 1.363 . S
C346 C347 1.370 . S
C346 C350 1.524 . S
C347 C339 1.503 . S
C347 C346 1.370 . S
C347 C348 1.403 . S
C348 C347 1.403 . S
C348 C349 1.404 . S
C348 C351 1.539 . S
C349 C345 1.408 . S
C349 C348 1.404 . S
C349 H361 0.930 . S
C350 C346 1.524 . S
C350 H362 0.956 . S
C350 H363 0.961 . S
C350 H364 0.961 . S
C351 C348 1.539 . S
C351 H365 0.958 . S
C351 H366 0.961 . S
C351 H367 0.960 . S
H352 C336 0.931 . S
H353 C341 0.929 . S
H354 C342 0.960 . S
H355 C342 0.962 . S
H356 C342 0.960 . S
H357 C343 0.961 . S
H358 C343 0.961 . S
H359 C343 0.961 . S
H360 C344 0.931 . S
H361 C349 0.930 . S
H362 C350 0.956 . S
H363 C350 0.961 . S
H364 C350 0.961 . S
H365 C351 0.958 . S
H366 C351 0.961 . S
H367 C351 0.960 . S
C368 C369 1.391 . S
C368 C370 1.394 . S
C368 H384 0.931 . S
C369 C368 1.391 . S
C369 C373 1.376 . S
C370 C368 1.394 . S
C370 C371 1.369 . S
C370 C374 1.531 . S
C371 C370 1.369 . S
C371 C372 1.410 . S
C371 C379 1.503 . S
C372 C371 1.410 . S
C372 C373 1.392 . S
C372 C375 1.511 . S
C373 C369 1.376 . S
C373 C372 1.392 . S
C373 H385 0.929 . S
C374 C370 1.531 . S
C374 H386 0.960 . S
C374 H387 0.962 . S
C374 H388 0.960 . S
C375 C372 1.511 . S
C375 H389 0.961 . S
C375 H390 0.961 . S
C375 H391 0.961 . S
C376 C377 1.370 . S
C376 C378 1.363 . S
C376 H392 0.931 . S
C377 C376 1.370 . S
C377 C381 1.408 . S
C378 C376 1.363 . S
C378 C379 1.370 . S
C378 C382 1.524 . S
C379 C371 1.503 . S
C379 C378 1.370 . S
C379 C380 1.403 . S
C380 C379 1.403 . S
C380 C381 1.404 . S
C380 C383 1.539 . S
C381 C377 1.408 . S
C381 C380 1.404 . S
C381 H393 0.930 . S
C382 C378 1.524 . S
C382 H394 0.956 . S
C382 H395 0.961 . S
C382 H396 0.961 . S
C383 C380 1.539 . S
C383 H397 0.958 . S
C383 H398 0.961 . S
C383 H399 0.960 . S
H384 C368 0.931 . S
H385 C373 0.929 . S
H386 C374 0.960 . S
H387 C374 0.962 . S
H388 C374 0.960 . S
H389 C375 0.961 . S
H390 C375 0.961 . S
H391 C375 0.961 . S
H392 C376 0.931 . S
H393 C381 0.930 . S
H394 C382 0.956 . S
H395 C382 0.961 . S
H396 C382 0.961 . S
H397 C383 0.958 . S
H398 C383 0.961 . S
H399 C383 0.960 . S
C400 C401 1.391 . S
C400 C402 1.394 . S
C400 H416 0.931 . S
C401 C400 1.391 . S
C401 C405 1.376 . S
C402 C400 1.394 . S
C402 C403 1.369 . S
C402 C406 1.531 . S
C403 C402 1.369 . S
C403 C404 1.410 . S
C403 C411 1.503 . S
C404 C403 1.410 . S
C404 C405 1.392 . S
C404 C407 1.511 . S
C405 C401 1.376 . S
C405 C404 1.392 . S
C405 H417 0.929 . S
C406 C402 1.531 . S
C406 H418 0.960 . S
C406 H419 0.962 . S
C406 H420 0.960 . S
C407 C404 1.511 . S
C407 H421 0.961 . S
C407 H422 0.961 . S
C407 H423 0.961 . S
C408 C409 1.370 . S
C408 C410 1.363 . S
C408 H424 0.931 . S
C409 C408 1.370 . S
C409 C413 1.408 . S
C410 C408 1.363 . S
C410 C411 1.370 . S
C410 C414 1.524 . S
C411 C403 1.503 . S
C411 C410 1.370 . S
C411 C412 1.403 . S
C412 C411 1.403 . S
C412 C413 1.404 . S
C412 C415 1.539 . S
C413 C409 1.408 . S
C413 C412 1.404 . S
C413 H425 0.930 . S
C414 C410 1.524 . S
C414 H426 0.956 . S
C414 H427 0.961 . S
C414 H428 0.961 . S
C415 C412 1.539 . S
C415 H429 0.958 . S
C415 H430 0.961 . S
C415 H431 0.960 . S
H416 C400 0.931 . S
H417 C405 0.929 . S
H418 C406 0.960 . S
H419 C406 0.962 . S
H420 C406 0.960 . S
H421 C407 0.961 . S
H422 C407 0.961 . S
H423 C407 0.961 . S
H424 C408 0.931 . S
H425 C413 0.930 . S
H426 C414 0.956 . S
H427 C414 0.961 . S
H428 C414 0.961 . S
H429 C415 0.958 . S
H430 C415 0.961 . S
H431 C415 0.960 . S
C432 C433 1.391 . S
C432 C434 1.394 . S
C432 H448 0.931 . S
C433 C432 1.391 . S
C433 C437 1.376 . S
C434 C432 1.394 . S
C434 C435 1.369 . S
C434 C438 1.531 . S
C435 C434 1.369 . S
C435 C436 1.410 . S
C435 C443 1.503 . S
C436 C435 1.410 . S
C436 C437 1.392 . S
C436 C439 1.511 . S
C437 C433 1.376 . S
C437 C436 1.392 . S
C437 H449 0.929 . S
C438 C434 1.531 . S
C438 H450 0.960 . S
C438 H451 0.962 . S
C438 H452 0.960 . S
C439 C436 1.511 . S
C439 H453 0.961 . S
C439 H454 0.961 . S
C439 H455 0.961 . S
C440 C441 1.370 . S
C440 C442 1.363 . S
C440 H456 0.931 . S
C441 C440 1.370 . S
C441 C445 1.408 . S
C442 C440 1.363 . S
C442 C443 1.370 . S
C442 C446 1.524 . S
C443 C435 1.503 . S
C443 C442 1.370 . S
C443 C444 1.403 . S
C444 C443 1.403 . S
C444 C445 1.404 . S
C444 C447 1.539 . S
C445 C441 1.408 . S
C445 C444 1.404 . S
C445 H457 0.930 . S
C446 C442 1.524 . S
C446 H458 0.956 . S
C446 H459 0.961 . S
C446 H460 0.961 . S
C447 C444 1.539 . S
C447 H461 0.958 . S
C447 H462 0.961 . S
C447 H463 0.960 . S
H448 C432 0.931 . S
H449 C437 0.929 . S
H450 C438 0.960 . S
H451 C438 0.962 . S
H452 C438 0.960 . S
H453 C439 0.961 . S
H454 C439 0.961 . S
H455 C439 0.961 . S
H456 C440 0.931 . S
H457 C445 0.930 . S
H458 C446 0.956 . S
H459 C446 0.961 . S
H460 C446 0.961 . S
H461 C447 0.958 . S
H462 C447 0.961 . S
H463 C447 0.960 . S
C464 C465 1.391 . S
C464 C466 1.394 . S
C464 H480 0.931 . S
C465 C464 1.391 . S
C465 C469 1.376 . S
C466 C464 1.394 . S
C466 C467 1.369 . S
C466 C470 1.531 . S
C467 C466 1.369 . S
C467 C468 1.410 . S
C467 C475 1.503 . S
C468 C467 1.410 . S
C468 C469 1.392 . S
C468 C471 1.511 . S
C469 C465 1.376 . S
C469 C468 1.392 . S
C469 H481 0.929 . S
C470 C466 1.531 . S
C470 H482 0.960 . S
C470 H483 0.962 . S
C470 H484 0.960 . S
C471 C468 1.511 . S
C471 H485 0.961 . S
C471 H486 0.961 . S
C471 H487 0.961 . S
C472 C473 1.370 . S
C472 C474 1.363 . S
C472 H488 0.931 . S
C473 C472 1.370 . S
C473 C477 1.408 . S
C474 C472 1.363 . S
C474 C475 1.370 . S
C474 C478 1.524 . S
C475 C467 1.503 . S
C475 C474 1.370 . S
C475 C476 1.403 . S
C476 C475 1.403 . S
C476 C477 1.404 . S
C476 C479 1.539 . S
C477 C473 1.408 . S
C477 C476 1.404 . S
C477 H489 0.930 . S
C478 C474 1.524 . S
C478 H490 0.956 . S
C478 H491 0.961 . S
C478 H492 0.961 . S
C479 C476 1.539 . S
C479 H493 0.958 . S
C479 H494 0.961 . S
C479 H495 0.960 . S
H480 C464 0.931 . S
H481 C469 0.929 . S
H482 C470 0.960 . S
H483 C470 0.962 . S
H484 C470 0.960 . S
H485 C471 0.961 . S
H486 C471 0.961 . S
H487 C471 0.961 . S
H488 C472 0.931 . S
H489 C477 0.930 . S
H490 C478 0.956 . S
H491 C478 0.961 . S
H492 C478 0.961 . S
H493 C479 0.958 . S
H494 C479 0.961 . S
H495 C479 0.960 . S
C496 C497 1.391 . S
C496 C498 1.394 . S
C496 H512 0.931 . S
C497 C496 1.391 . S
C497 C501 1.376 . S
C498 C496 1.394 . S
C498 C499 1.369 . S
C498 C502 1.531 . S
C499 C498 1.369 . S
C499 C500 1.410 . S
C499 C507 1.503 . S
C500 C499 1.410 . S
C500 C501 1.392 . S
C500 C503 1.511 . S
C501 C497 1.376 . S
C501 C500 1.392 . S
C501 H513 0.929 . S
C502 C498 1.531 . S
C502 H514 0.960 . S
C502 H515 0.962 . S
C502 H516 0.960 . S
C503 C500 1.511 . S
C503 H517 0.961 . S
C503 H518 0.961 . S
C503 H519 0.961 . S
C504 C505 1.370 . S
C504 C506 1.363 . S
C504 H520 0.931 . S
C505 C504 1.370 . S
C505 C509 1.408 . S
C506 C504 1.363 . S
C506 C507 1.370 . S
C506 C510 1.524 . S
C507 C499 1.503 . S
C507 C506 1.370 . S
C507 C508 1.403 . S
C508 C507 1.403 . S
C508 C509 1.404 . S
C508 C511 1.539 . S
C509 C505 1.408 . S
C509 C508 1.404 . S
C509 H521 0.930 . S
C510 C506 1.524 . S
C510 H522 0.956 . S
C510 H523 0.961 . S
C510 H524 0.961 . S
C511 C508 1.539 . S
C511 H525 0.958 . S
C511 H526 0.961 . S
C511 H527 0.960 . S
H512 C496 0.931 . S
H513 C501 0.929 . S
H514 C502 0.960 . S
H515 C502 0.962 . S
H516 C502 0.960 . S
H517 C503 0.961 . S
H518 C503 0.961 . S
H519 C503 0.961 . S
H520 C504 0.931 . S
H521 C509 0.930 . S
H522 C510 0.956 . S
H523 C510 0.961 . S
H524 C510 0.961 . S
H525 C511 0.958 . S
H526 C511 0.961 . S
H527 C511 0.960 . S
C528 C529 1.391 . S
C528 C530 1.394 . S
C528 H544 0.931 . S
C529 C528 1.391 . S
C529 C533 1.376 . S
C530 C528 1.394 . S
C530 C531 1.369 . S
C530 C534 1.531 . S
C531 C530 1.369 . S
C531 C532 1.410 . S
C531 C539 1.503 . S
C532 C531 1.410 . S
C532 C533 1.392 . S
C532 C535 1.511 . S
C533 C529 1.376 . S
C533 C532 1.392 . S
C533 H545 0.929 . S
C534 C530 1.531 . S
C534 H546 0.960 . S
C534 H547 0.962 . S
C534 H548 0.960 . S
C535 C532 1.511 . S
C535 H549 0.961 . S
C535 H550 0.961 . S
C535 H551 0.961 . S
C536 C537 1.370 . S
C536 C538 1.363 . S
C536 H552 0.931 . S
C537 C536 1.370 . S
C537 C541 1.408 . S
C538 C536 1.363 . S
C538 C539 1.370 . S
C538 C542 1.524 . S
C539 C531 1.503 . S
C539 C538 1.370 . S
C539 C540 1.403 . S
C540 C539 1.403 . S
C540 C541 1.404 . S
C540 C543 1.539 . S
C541 C537 1.408 . S
C541 C540 1.404 . S
C541 H553 0.930 . S
C542 C538 1.524 . S
C542 H554 0.956 . S
C542 H555 0.961 . S
C542 H556 0.961 . S
C543 C540 1.539 . S
C543 H557 0.958 . S
C543 H558 0.961 . S
C543 H559 0.960 . S
H544 C528 0.931 . S
H545 C533 0.929 . S
H546 C534 0.960 . S
H547 C534 0.962 . S
H548 C534 0.960 . S
H549 C535 0.961 . S
H550 C535 0.961 . S
H551 C535 0.961 . S
H552 C536 0.931 . S
H553 C541 0.930 . S
H554 C542 0.956 . S
H555 C542 0.961 . S
H556 C542 0.961 . S
H557 C543 0.958 . S
H558 C543 0.961 . S
H559 C543 0.960 . S
C560 C561 1.391 . S
C560 C562 1.394 . S
C560 H576 0.931 . S
C561 C560 1.391 . S
C561 C565 1.376 . S
C562 C560 1.394 . S
C562 C563 1.369 . S
C562 C566 1.531 . S
C563 C562 1.369 . S
C563 C564 1.410 . S
C563 C571 1.503 . S
C564 C563 1.410 . S
C564 C565 1.392 . S
C564 C567 1.511 . S
C565 C561 1.376 . S
C565 C564 1.392 . S
C565 H577 0.929 . S
C566 C562 1.531 . S
C566 H578 0.960 . S
C566 H579 0.962 . S
C566 H580 0.960 . S
C567 C564 1.511 . S
C567 H581 0.961 . S
C567 H582 0.961 . S
C567 H583 0.961 . S
C568 C569 1.370 . S
C568 C570 1.363 . S
C568 H584 0.931 . S
C569 C568 1.370 . S
C569 C573 1.408 . S
C570 C568 1.363 . S
C570 C571 1.370 . S
C570 C574 1.524 . S
C571 C563 1.503 . S
C571 C570 1.370 . S
C571 C572 1.403 . S
C572 C571 1.403 . S
C572 C573 1.404 . S
C572 C575 1.539 . S
C573 C569 1.408 . S
C573 C572 1.404 . S
C573 H585 0.930 . S
C574 C570 1.524 . S
C574 H586 0.956 . S
C574 H587 0.961 . S
C574 H588 0.961 . S
C575 C572 1.539 . S
C575 H589 0.958 . S
C575 H590 0.961 . S
C575 H591 0.960 . S
H576 C560 0.931 . S
H577 C565 0.929 . S
H578 C566 0.960 . S
H579 C566 0.962 . S
H580 C566 0.960 . S
H581 C567 0.961 . S
H582 C567 0.961 . S
H583 C567 0.961 . S
H584 C568 0.931 . S
H585 C573 0.930 . S
H586 C574 0.956 . S
H587 C574 0.961 . S
H588 C574 0.961 . S
H589 C575 0.958 . S
H590 C575 0.961 . S
H591 C575 0.960 . S
C592 C593 1.391 . S
C592 C594 1.394 . S
C592 H608 0.931 . S
C593 C592 1.391 . S
C593 C597 1.376 . S
C594 C592 1.394 . S
C594 C595 1.369 . S
C594 C598 1.531 . S
C595 C594 1.369 . S
C595 C596 1.410 . S
C595 C603 1.503 . S
C596 C595 1.410 . S
C596 C597 1.392 . S
C596 C599 1.511 . S
C597 C593 1.376 . S
C597 C596 1.392 . S
C597 H609 0.929 . S
C598 C594 1.531 . S
C598 H610 0.960 . S
C598 H611 0.962 . S
C598 H612 0.960 . S
C599 C596 1.511 . S
C599 H613 0.961 . S
C599 H614 0.961 . S
C599 H615 0.961 . S
C600 C601 1.370 . S
C600 C602 1.363 . S
C600 H616 0.931 . S
C601 C600 1.370 . S
C601 C605 1.408 . S
C602 C600 1.363 . S
C602 C603 1.370 . S
C602 C606 1.524 . S
C603 C595 1.503 . S
C603 C602 1.370 . S
C603 C604 1.403 . S
C604 C603 1.403 . S
C604 C605 1.404 . S
C604 C607 1.539 . S
C605 C601 1.408 . S
C605 C604 1.404 . S
C605 H617 0.930 . S
C606 C602 1.524 . S
C606 H618 0.956 . S
C606 H619 0.961 . S
C606 H620 0.961 . S
C607 C604 1.539 . S
C607 H621 0.958 . S
C607 H622 0.961 . S
C607 H623 0.960 . S
H608 C592 0.931 . S
H609 C597 0.929 . S
H610 C598 0.960 . S
H611 C598 0.962 . S
H612 C598 0.960 . S
H613 C599 0.961 . S
H614 C599 0.961 . S
H615 C599 0.961 . S
H616 C600 0.931 . S
H617 C605 0.930 . S
H618 C606 0.956 . S
H619 C606 0.961 . S
H620 C606 0.961 . S
H621 C607 0.958 . S
H622 C607 0.961 . S
H623 C607 0.960 . S
C624 C625 1.391 . S
C624 C626 1.394 . S
C624 H640 0.931 . S
C625 C624 1.391 . S
C625 C629 1.376 . S
C626 C624 1.394 . S
C626 C627 1.369 . S
C626 C630 1.531 . S
C627 C626 1.369 . S
C627 C628 1.410 . S
C627 C635 1.503 . S
C628 C627 1.410 . S
C628 C629 1.392 . S
C628 C631 1.511 . S
C629 C625 1.376 . S
C629 C628 1.392 . S
C629 H641 0.929 . S
C630 C626 1.531 . S
C630 H642 0.960 . S
C630 H643 0.962 . S
C630 H644 0.960 . S
C631 C628 1.511 . S
C631 H645 0.961 . S
C631 H646 0.961 . S
C631 H647 0.961 . S
C632 C633 1.370 . S
C632 C634 1.363 . S
C632 H648 0.931 . S
C633 C632 1.370 . S
C633 C637 1.408 . S
C634 C632 1.363 . S
C634 C635 1.370 . S
C634 C638 1.524 . S
C635 C627 1.503 . S
C635 C634 1.370 . S
C635 C636 1.403 . S
C636 C635 1.403 . S
C636 C637 1.404 . S
C636 C639 1.539 . S
C637 C633 1.408 . S
C637 C636 1.404 . S
C637 H649 0.930 . S
C638 C634 1.524 . S
C638 H650 0.956 . S
C638 H651 0.961 . S
C638 H652 0.961 . S
C639 C636 1.539 . S
C639 H653 0.958 . S
C639 H654 0.961 . S
C639 H655 0.960 . S
H640 C624 0.931 . S
H641 C629 0.929 . S
H642 C630 0.960 . S
H643 C630 0.962 . S
H644 C630 0.960 . S
H645 C631 0.961 . S
H646 C631 0.961 . S
H647 C631 0.961 . S
H648 C632 0.931 . S
H649 C637 0.930 . S
H650 C638 0.956 . S
H651 C638 0.961 . S
H652 C638 0.961 . S
H653 C639 0.958 . S
H654 C639 0.961 . S
H655 C639 0.960 . S
C656 C657 1.391 . S
C656 C658 1.394 . S
C656 H672 0.931 . S
C657 C656 1.391 . S
C657 C661 1.376 . S
C658 C656 1.394 . S
C658 C659 1.369 . S
C658 C662 1.531 . S
C659 C658 1.369 . S
C659 C660 1.410 . S
C659 C667 1.503 . S
C660 C659 1.410 . S
C660 C661 1.392 . S
C660 C663 1.511 . S
C661 C657 1.376 . S
C661 C660 1.392 . S
C661 H673 0.929 . S
C662 C658 1.531 . S
C662 H674 0.960 . S
C662 H675 0.962 . S
C662 H676 0.960 . S
C663 C660 1.511 . S
C663 H677 0.961 . S
C663 H678 0.961 . S
C663 H679 0.961 . S
C664 C665 1.370 . S
C664 C666 1.363 . S
C664 H680 0.931 . S
C665 C664 1.370 . S
C665 C669 1.408 . S
C666 C664 1.363 . S
C666 C667 1.370 . S
C666 C670 1.524 . S
C667 C659 1.503 . S
C667 C666 1.370 . S
C667 C668 1.403 . S
C668 C667 1.403 . S
C668 C669 1.404 . S
C668 C671 1.539 . S
C669 C665 1.408 . S
C669 C668 1.404 . S
C669 H681 0.930 . S
C670 C666 1.524 . S
C670 H682 0.956 . S
C670 H683 0.961 . S
C670 H684 0.961 . S
C671 C668 1.539 . S
C671 H685 0.958 . S
C671 H686 0.961 . S
C671 H687 0.960 . S
H672 C656 0.931 . S
H673 C661 0.929 . S
H674 C662 0.960 . S
H675 C662 0.962 . S
H676 C662 0.960 . S
H677 C663 0.961 . S
H678 C663 0.961 . S
H679 C663 0.961 . S
H680 C664 0.931 . S
H681 C669 0.930 . S
H682 C670 0.956 . S
H683 C670 0.961 . S
H684 C670 0.961 . S
H685 C671 0.958 . S
H686 C671 0.961 . S
H687 C671 0.960 . S
C688 C689 1.391 . S
C688 C690 1.394 . S
C688 H704 0.931 . S
C689 C688 1.391 . S
C689 C693 1.376 . S
C690 C688 1.394 . S
C690 C691 1.369 . S
C690 C694 1.531 . S
C691 C690 1.369 . S
C691 C692 1.410 . S
C691 C699 1.503 . S
C692 C691 1.410 . S
C692 C693 1.392 . S
C692 C695 1.511 . S
C693 C689 1.376 . S
C693 C692 1.392 . S
C693 H705 0.929 . S
C694 C690 1.531 . S
C694 H706 0.960 . S
C694 H707 0.962 . S
C694 H708 0.960 . S
C695 C692 1.511 . S
C695 H709 0.961 . S
C695 H710 0.961 . S
C695 H711 0.961 . S
C696 C697 1.370 . S
C696 C698 1.363 . S
C696 H712 0.931 . S
C697 C696 1.370 . S
C697 C701 1.408 . S
C698 C696 1.363 . S
C698 C699 1.370 . S
C698 C702 1.524 . S
C699 C691 1.503 . S
C699 C698 1.370 . S
C699 C700 1.403 . S
C700 C699 1.403 . S
C700 C701 1.404 . S
C700 C703 1.539 . S
C701 C697 1.408 . S
C701 C700 1.404 . S
C701 H713 0.930 . S
C702 C698 1.524 . S
C702 H714 0.956 . S
C702 H715 0.961 . S
C702 H716 0.961 . S
C703 C700 1.539 . S
C703 H717 0.958 . S
C703 H718 0.961 . S
C703 H719 0.960 . S
H704 C688 0.931 . S
H705 C693 0.929 . S
H706 C694 0.960 . S
H707 C694 0.962 . S
H708 C694 0.960 . S
H709 C695 0.961 . S
H710 C695 0.961 . S
H711 C695 0.961 . S
H712 C696 0.931 . S
H713 C701 0.930 . S
H714 C702 0.956 . S
H715 C702 0.961 . S
H716 C702 0.961 . S
H717 C703 0.958 . S
H718 C703 0.961 . S
H719 C703 0.960 . S
C720 C721 1.391 . S
C720 C722 1.394 . S
C720 H736 0.931 . S
C721 C720 1.391 . S
C721 C725 1.376 . S
C722 C720 1.394 . S
C722 C723 1.369 . S
C722 C726 1.531 . S
C723 C722 1.369 . S
C723 C724 1.410 . S
C723 C731 1.503 1_565 S
C724 C723 1.410 . S
C724 C725 1.392 . S
C724 C727 1.511 1_565 S
C725 C721 1.376 . S
C725 C724 1.392 . S
C725 H737 0.929 . S
C726 C722 1.531 . S
C726 H738 0.960 . S
C726 H739 0.962 . S
C726 H740 0.960 . S
C727 C724 1.511 1_545 S
C727 H741 0.961 . S
C727 H742 0.961 . S
C727 H743 0.961 . S
C728 C729 1.370 . S
C728 C730 1.363 . S
C728 H744 0.931 . S
C729 C728 1.370 . S
C729 C733 1.408 . S
C730 C728 1.363 . S
C730 C731 1.370 . S
C730 C734 1.524 . S
C731 C723 1.503 1_545 S
C731 C730 1.370 . S
C731 C732 1.403 . S
C732 C731 1.403 . S
C732 C733 1.404 . S
C732 C735 1.539 1_545 S
C733 C729 1.408 . S
C733 C732 1.404 . S
C733 H745 0.930 . S
C734 C730 1.524 . S
C734 H746 0.956 . S
C734 H747 0.961 . S
C734 H748 0.961 . S
C735 C732 1.539 1_565 S
C735 H749 0.958 . S
C735 H750 0.961 . S
C735 H751 0.960 . S
H736 C720 0.931 . S
H737 C725 0.929 . S
H738 C726 0.960 . S
H739 C726 0.962 . S
H740 C726 0.960 . S
H741 C727 0.961 . S
H742 C727 0.961 . S
H743 C727 0.961 . S
H744 C728 0.931 . S
H745 C733 0.930 . S
H746 C734 0.956 . S
H747 C734 0.961 . S
H748 C734 0.961 . S
H749 C735 0.958 . S
H750 C735 0.961 . S
H751 C735 0.960 . S
C752 C753 1.391 . S
C752 C754 1.394 . S
C752 H768 0.931 . S
C753 C752 1.391 . S
C753 C757 1.376 . S
C754 C752 1.394 . S
C754 C755 1.369 . S
C754 C758 1.531 . S
C755 C754 1.369 . S
C755 C756 1.410 . S
C755 C763 1.503 1_655 S
C756 C755 1.410 . S
C756 C757 1.392 . S
C756 C759 1.511 1_655 S
C757 C753 1.376 . S
C757 C756 1.392 . S
C757 H769 0.929 . S
C758 C754 1.531 . S
C758 H770 0.960 . S
C758 H771 0.962 . S
C758 H772 0.960 . S
C759 C756 1.511 1_455 S
C759 H773 0.961 . S
C759 H774 0.961 . S
C759 H775 0.961 . S
C760 C761 1.370 . S
C760 C762 1.363 . S
C760 H776 0.931 . S
C761 C760 1.370 . S
C761 C765 1.408 . S
C762 C760 1.363 . S
C762 C763 1.370 . S
C762 C766 1.524 1_455 S
C763 C755 1.503 1_455 S
C763 C762 1.370 . S
C763 C764 1.403 . S
C764 C763 1.403 . S
C764 C765 1.404 . S
C764 C767 1.539 . S
C765 C761 1.408 . S
C765 C764 1.404 . S
C765 H777 0.930 . S
C766 C762 1.524 1_655 S
C766 H778 0.956 . S
C766 H779 0.961 . S
C766 H780 0.961 . S
C767 C764 1.539 . S
C767 H781 0.958 . S
C767 H782 0.961 . S
C767 H783 0.960 . S
H768 C752 0.931 . S
H769 C757 0.929 . S
H770 C758 0.960 . S
H771 C758 0.962 . S
H772 C758 0.960 . S
H773 C759 0.961 . S
H774 C759 0.961 . S
H775 C759 0.961 . S
H776 C760 0.931 . S
H777 C765 0.930 . S
H778 C766 0.956 . S
H779 C766 0.961 . S
H780 C766 0.961 . S
H781 C767 0.958 . S
H782 C767 0.961 . S
H783 C767 0.960 . S
C784 C785 1.391 . S
C784 C786 1.394 . S
C784 H800 0.931 . S
C785 C784 1.391 . S
C785 C789 1.376 . S
C786 C784 1.394 . S
C786 C787 1.369 . S
C786 C790 1.531 . S
C787 C786 1.369 . S
C787 C788 1.410 . S
C787 C795 1.503 1_545 S
C788 C787 1.410 . S
C788 C789 1.392 . S
C788 C791 1.511 1_545 S
C789 C785 1.376 . S
C789 C788 1.392 . S
C789 H801 0.929 . S
C790 C786 1.531 . S
C790 H802 0.960 . S
C790 H803 0.962 . S
C790 H804 0.960 . S
C791 C788 1.511 1_565 S
C791 H805 0.961 . S
C791 H806 0.961 . S
C791 H807 0.961 . S
C792 C793 1.370 . S
C792 C794 1.363 . S
C792 H808 0.931 . S
C793 C792 1.370 . S
C793 C797 1.408 . S
C794 C792 1.363 . S
C794 C795 1.370 . S
C794 C798 1.524 . S
C795 C787 1.503 1_565 S
C795 C794 1.370 . S
C795 C796 1.403 . S
C796 C795 1.403 . S
C796 C797 1.404 . S
C796 C799 1.539 . S
C797 C793 1.408 . S
C797 C796 1.404 . S
C797 H809 0.930 . S
C798 C794 1.524 . S
C798 H810 0.956 1_565 S
C798 H811 0.961 . S
C798 H812 0.961 . S
C799 C796 1.539 . S
C799 H813 0.958 . S
C799 H814 0.961 . S
C799 H815 0.960 . S
H800 C784 0.931 . S
H801 C789 0.929 . S
H802 C790 0.960 . S
H803 C790 0.962 . S
H804 C790 0.960 . S
H805 C791 0.961 . S
H806 C791 0.961 . S
H807 C791 0.961 . S
H808 C792 0.931 . S
H809 C797 0.930 . S
H810 C798 0.956 1_545 S
H811 C798 0.961 . S
H812 C798 0.961 . S
H813 C799 0.958 . S
H814 C799 0.961 . S
H815 C799 0.960 . S
C816 C817 1.391 . S
C816 C818 1.394 . S
C816 H832 0.931 . S
C817 C816 1.391 . S
C817 C821 1.376 . S
C818 C816 1.394 . S
C818 C819 1.369 . S
C818 C822 1.531 1_455 S
C819 C818 1.369 . S
C819 C820 1.410 . S
C819 C827 1.503 1_455 S
C820 C819 1.410 . S
C820 C821 1.392 . S
C820 C823 1.511 . S
C821 C817 1.376 . S
C821 C820 1.392 . S
C821 H833 0.929 . S
C822 C818 1.531 1_655 S
C822 H834 0.960 . S
C822 H835 0.962 . S
C822 H836 0.960 . S
C823 C820 1.511 . S
C823 H837 0.961 . S
C823 H838 0.961 . S
C823 H839 0.961 . S
C824 C825 1.370 . S
C824 C826 1.363 . S
C824 H840 0.931 . S
C825 C824 1.370 . S
C825 C829 1.408 . S
C826 C824 1.363 . S
C826 C827 1.370 . S
C826 C830 1.524 . S
C827 C819 1.503 1_655 S
C827 C826 1.370 . S
C827 C828 1.403 . S
C828 C827 1.403 . S
C828 C829 1.404 . S
C828 C831 1.539 1_655 S
C829 C825 1.408 . S
C829 C828 1.404 . S
C829 H841 0.930 . S
C830 C826 1.524 . S
C830 H842 0.956 . S
C830 H843 0.961 . S
C830 H844 0.961 . S
C831 C828 1.539 1_455 S
C831 H845 0.958 1_455 S
C831 H846 0.961 . S
C831 H847 0.960 . S
H832 C816 0.931 . S
H833 C821 0.929 . S
H834 C822 0.960 . S
H835 C822 0.962 . S
H836 C822 0.960 . S
H837 C823 0.961 . S
H838 C823 0.961 . S
H839 C823 0.961 . S
H840 C824 0.931 . S
H841 C829 0.930 . S
H842 C830 0.956 . S
H843 C830 0.961 . S
H844 C830 0.961 . S
H845 C831 0.958 1_655 S
H846 C831 0.961 . S
H847 C831 0.960 . S
C848 C849 1.391 . S
C848 C850 1.394 . S
C848 H864 0.931 . S
C849 C848 1.391 . S
C849 C853 1.376 . S
C850 C848 1.394 . S
C850 C851 1.369 . S
C850 C854 1.531 . S
C851 C850 1.369 . S
C851 C852 1.410 . S
C851 C859 1.503 1_565 S
C852 C851 1.410 . S
C852 C853 1.392 . S
C852 C855 1.511 . S
C853 C849 1.376 . S
C853 C852 1.392 . S
C853 H865 0.929 . S
C854 C850 1.531 . S
C854 H866 0.960 1_565 S
C854 H867 0.962 . S
C854 H868 0.960 . S
C855 C852 1.511 . S
C855 H869 0.961 . S
C855 H870 0.961 1_565 S
C855 H871 0.961 1_565 S
C856 C857 1.370 . S
C856 C858 1.363 . S
C856 H872 0.931 . S
C857 C856 1.370 . S
C857 C861 1.408 . S
C858 C856 1.363 . S
C858 C859 1.370 . S
C858 C862 1.524 1_545 S
C859 C851 1.503 1_545 S
C859 C858 1.370 . S
C859 C860 1.403 . S
C860 C859 1.403 . S
C860 C861 1.404 . S
C860 C863 1.539 . S
C861 C857 1.408 . S
C861 C860 1.404 . S
C861 H873 0.930 . S
C862 C858 1.524 1_565 S
C862 H874 0.956 . S
C862 H875 0.961 . S
C862 H876 0.961 . S
C863 C860 1.539 . S
C863 H877 0.958 . S
C863 H878 0.961 . S
C863 H879 0.960 . S
H864 C848 0.931 . S
H865 C853 0.929 . S
H866 C854 0.960 1_545 S
H867 C854 0.962 . S
H868 C854 0.960 . S
H869 C855 0.961 . S
H870 C855 0.961 1_545 S
H871 C855 0.961 1_545 S
H872 C856 0.931 . S
H873 C861 0.930 . S
H874 C862 0.956 . S
H875 C862 0.961 . S
H876 C862 0.961 . S
H877 C863 0.958 . S
H878 C863 0.961 . S
H879 C863 0.960 . S
C880 C881 1.391 . S
C880 C882 1.394 . S
C880 H896 0.931 . S
C881 C880 1.391 . S
C881 C885 1.376 . S
C882 C880 1.394 . S
C882 C883 1.369 . S
C882 C886 1.531 . S
C883 C882 1.369 . S
C883 C884 1.410 . S
C883 C891 1.503 1_655 S
C884 C883 1.410 . S
C884 C885 1.392 . S
C884 C887 1.511 1_655 S
C885 C881 1.376 . S
C885 C884 1.392 . S
C885 H897 0.929 . S
C886 C882 1.531 . S
C886 H898 0.960 . S
C886 H899 0.962 . S
C886 H900 0.960 . S
C887 C884 1.511 1_455 S
C887 H901 0.961 . S
C887 H902 0.961 . S
C887 H903 0.961 . S
C888 C889 1.370 . S
C888 C890 1.363 . S
C888 H904 0.931 . S
C889 C888 1.370 . S
C889 C893 1.408 . S
C890 C888 1.363 . S
C890 C891 1.370 . S
C890 C894 1.524 . S
C891 C883 1.503 1_455 S
C891 C890 1.370 . S
C891 C892 1.403 . S
C892 C891 1.403 . S
C892 C893 1.404 . S
C892 C895 1.539 . S
C893 C889 1.408 . S
C893 C892 1.404 . S
C893 H905 0.930 . S
C894 C890 1.524 . S
C894 H906 0.956 1_455 S
C894 H907 0.961 . S
C894 H908 0.961 . S
C895 C892 1.539 . S
C895 H909 0.958 1_455 S
C895 H910 0.961 . S
C895 H911 0.960 . S
H896 C880 0.931 . S
H897 C885 0.929 . S
H898 C886 0.960 . S
H899 C886 0.962 . S
H900 C886 0.960 . S
H901 C887 0.961 . S
H902 C887 0.961 . S
H903 C887 0.961 . S
H904 C888 0.931 . S
H905 C893 0.930 . S
H906 C894 0.956 1_655 S
H907 C894 0.961 . S
H908 C894 0.961 . S
H909 C895 0.958 1_655 S
H910 C895 0.961 . S
H911 C895 0.960 . S
C912 C913 1.391 . S
C912 C914 1.394 . S
C912 H928 0.931 . S
C913 C912 1.391 . S
C913 C917 1.376 . S
C914 C912 1.394 . S
C914 C915 1.369 . S
C914 C918 1.531 1_565 S
C915 C914 1.369 . S
C915 C916 1.410 . S
C915 C923 1.503 1_565 S
C916 C915 1.410 . S
C916 C917 1.392 . S
C916 C919 1.511 . S
C917 C913 1.376 . S
C917 C916 1.392 . S
C917 H929 0.929 . S
C918 C914 1.531 1_545 S
C918 H930 0.960 . S
C918 H931 0.962 . S
C918 H932 0.960 . S
C919 C916 1.511 . S
C919 H933 0.961 . S
C919 H934 0.961 . S
C919 H935 0.961 . S
C920 C921 1.370 . S
C920 C922 1.363 . S
C920 H936 0.931 . S
C921 C920 1.370 . S
C921 C925 1.408 . S
C922 C920 1.363 . S
C922 C923 1.370 . S
C922 C926 1.524 1_545 S
C923 C915 1.503 1_545 S
C923 C922 1.370 . S
C923 C924 1.403 . S
C924 C923 1.403 . S
C924 C925 1.404 . S
C924 C927 1.539 . S
C925 C921 1.408 . S
C925 C924 1.404 . S
C925 H937 0.930 . S
C926 C922 1.524 1_565 S
C926 H938 0.956 . S
C926 H939 0.961 . S
C926 H940 0.961 . S
C927 C924 1.539 . S
C927 H941 0.958 . S
C927 H942 0.961 . S
C927 H943 0.960 . S
H928 C912 0.931 . S
H929 C917 0.929 . S
H930 C918 0.960 . S
H931 C918 0.962 . S
H932 C918 0.960 . S
H933 C919 0.961 . S
H934 C919 0.961 . S
H935 C919 0.961 . S
H936 C920 0.931 . S
H937 C925 0.930 . S
H938 C926 0.956 . S
H939 C926 0.961 . S
H940 C926 0.961 . S
H941 C927 0.958 . S
H942 C927 0.961 . S
H943 C927 0.960 . S
C944 C945 1.391 . S
C944 C946 1.394 . S
C944 H960 0.931 . S
C945 C944 1.391 . S
C945 C949 1.376 . S
C946 C944 1.394 . S
C946 C947 1.369 . S
C946 C950 1.531 . S
C947 C946 1.369 . S
C947 C948 1.410 . S
C947 C955 1.503 1_455 S
C948 C947 1.410 . S
C948 C949 1.392 . S
C948 C951 1.511 . S
C949 C945 1.376 . S
C949 C948 1.392 . S
C949 H961 0.929 . S
C950 C946 1.531 . S
C950 H962 0.960 . S
C950 H963 0.962 1_455 S
C950 H964 0.960 . S
C951 C948 1.511 . S
C951 H965 0.961 . S
C951 H966 0.932 1_455 S
C951 H967 0.961 . S
C952 C953 1.370 . S
C952 C954 1.363 . S
C952 H968 0.931 . S
C953 C952 1.370 . S
C953 C957 1.408 . S
C954 C952 1.363 . S
C954 C955 1.370 . S
C954 C958 1.524 . S
C955 C947 1.503 1_655 S
C955 C954 1.370 . S
C955 C956 1.403 . S
C956 C955 1.403 . S
C956 C957 1.404 . S
C956 C959 1.539 1_655 S
C957 C953 1.408 . S
C957 C956 1.404 . S
C957 H969 0.930 . S
C958 C954 1.524 . S
C958 H970 0.956 . S
C958 H971 0.961 . S
C958 H972 0.961 . S
C959 C956 1.539 1_455 S
C959 H973 0.958 . S
C959 H974 0.961 . S
C959 H975 0.960 . S
H960 C944 0.931 . S
H961 C949 0.929 . S
H962 C950 0.960 . S
H963 C950 0.962 1_655 S
H964 C950 0.960 . S
H965 C951 0.961 . S
H966 C951 0.932 1_655 S
H967 C951 0.961 . S
H968 C952 0.931 . S
H969 C957 0.930 . S
H970 C958 0.956 . S
H971 C958 0.961 . S
H972 C958 0.961 . S
H973 C959 0.958 . S
H974 C959 0.961 . S
H975 C959 0.960 . S
C976 C977 1.391 . S
C976 C978 1.394 . S
C976 H992 0.931 . S
C977 C976 1.391 . S
C977 C981 1.376 . S
C978 C976 1.394 . S
C978 C979 1.369 . S
C978 C982 1.531 . S
C979 C978 1.369 . S
C979 C980 1.410 . S
C979 C987 1.503 1_556 S
C980 C979 1.410 . S
C980 C981 1.392 . S
C980 C983 1.511 . S
C981 C977 1.376 . S
C981 C980 1.392 . S
C981 H993 0.929 . S
C982 C978 1.531 . S
C982 H994 0.960 1_556 S
C982 H995 0.962 . S
C982 H996 0.960 . S
C983 C980 1.511 . S
C983 H997 0.961 . S
C983 H998 0.979 . S
C983 H999 0.961 1_556 S
C984 C985 1.370 . S
C984 C986 1.363 . S
C984 H1000 0.931 . S
C985 C984 1.370 . S
C985 C989 1.408 . S
C986 C984 1.363 . S
C986 C987 1.370 . S
C986 C990 1.524 1_554 S
C987 C979 1.503 1_554 S
C987 C986 1.370 . S
C987 C988 1.403 . S
C988 C987 1.403 . S
C988 C989 1.404 . S
C988 C991 1.539 . S
C989 C985 1.408 . S
C989 C988 1.404 . S
C989 H1001 0.930 . S
C990 C986 1.524 1_556 S
C990 H1002 0.956 . S
C990 H1003 0.961 . S
C990 H1004 0.961 . S
C991 C988 1.539 . S
C991 H1005 0.958 . S
C991 H1006 0.961 . S
C991 H1007 0.960 . S
H992 C976 0.931 . S
H993 C981 0.929 . S
H994 C982 0.960 1_554 S
H995 C982 0.962 . S
H996 C982 0.960 . S
H997 C983 0.961 . S
H998 C983 0.979 . S
H999 C983 0.961 1_554 S
H1000 C984 0.931 . S
H1001 C989 0.930 . S
H1002 C990 0.956 . S
H1003 C990 0.961 . S
H1004 C990 0.961 . S
H1005 C991 0.958 . S
H1006 C991 0.961 . S
H1007 C991 0.960 . S
C1008 C1009 1.391 . S
C1008 C1010 1.394 . S
C1008 H1024 0.931 . S
C1009 C1008 1.391 . S
C1009 C1013 1.376 . S
C1010 C1008 1.394 . S
C1010 C1011 1.369 . S
C1010 C1014 1.531 1_554 S
C1011 C1010 1.369 . S
C1011 C1012 1.410 . S
C1011 C1019 1.503 1_554 S
C1012 C1011 1.410 . S
C1012 C1013 1.392 . S
C1012 C1015 1.511 . S
C1013 C1009 1.376 . S
C1013 C1012 1.392 . S
C1013 H1025 0.929 . S
C1014 C1010 1.531 1_556 S
C1014 H1026 0.960 . S
C1014 H1027 0.962 . S
C1014 H1028 0.960 . S
C1015 C1012 1.511 . S
C1015 H1029 0.961 . S
C1015 H1030 0.961 . S
C1015 H1031 0.961 . S
C1016 C1017 1.370 . S
C1016 C1018 1.363 . S
C1016 H1032 0.931 . S
C1017 C1016 1.370 . S
C1017 C1021 1.408 . S
C1018 C1016 1.363 . S
C1018 C1019 1.370 . S
C1018 C1022 1.524 1_556 S
C1019 C1011 1.503 1_556 S
C1019 C1018 1.370 . S
C1019 C1020 1.403 . S
C1020 C1019 1.403 . S
C1020 C1021 1.404 . S
C1020 C1023 1.539 . S
C1021 C1017 1.408 . S
C1021 C1020 1.404 . S
C1021 H1033 0.930 . S
C1022 C1018 1.524 1_554 S
C1022 H1034 0.956 . S
C1022 H1035 0.961 . S
C1022 H1036 0.961 . S
C1023 C1020 1.539 . S
C1023 H1037 0.958 . S
C1023 H1038 0.961 . S
C1023 H1039 0.960 . S
H1024 C1008 0.931 . S
H1025 C1013 0.929 . S
H1026 C1014 0.960 . S
H1027 C1014 0.962 . S
H1028 C1014 0.960 . S
H1029 C1015 0.961 . S
H1030 C1015 0.961 . S
H1031 C1015 0.961 . S
H1032 C1016 0.931 . S
H1033 C1021 0.930 . S
H1034 C1022 0.956 . S
H1035 C1022 0.961 . S
H1036 C1022 0.961 . S
H1037 C1023 0.958 . S
H1038 C1023 0.961 . S
H1039 C1023 0.960 . S
C1040 C1041 1.391 . S
C1040 C1042 1.394 . S
C1040 H1056 0.931 . S
C1041 C1040 1.391 . S
C1041 C1045 1.376 . S
C1042 C1040 1.394 . S
C1042 C1043 1.369 . S
C1042 C1046 1.531 . S
C1043 C1042 1.369 . S
C1043 C1044 1.410 . S
C1043 C1051 1.503 1_556 S
C1044 C1043 1.410 . S
C1044 C1045 1.392 . S
C1044 C1047 1.511 1_556 S
C1045 C1041 1.376 . S
C1045 C1044 1.392 . S
C1045 H1057 0.929 . S
C1046 C1042 1.531 . S
C1046 H1058 0.960 . S
C1046 H1059 0.962 . S
C1046 H1060 0.960 . S
C1047 C1044 1.511 1_554 S
C1047 H1061 0.961 . S
C1047 H1062 0.961 . S
C1047 H1063 0.961 . S
C1048 C1049 1.370 . S
C1048 C1050 1.363 . S
C1048 H1064 0.931 . S
C1049 C1048 1.370 . S
C1049 C1053 1.408 . S
C1050 C1048 1.363 . S
C1050 C1051 1.370 . S
C1050 C1054 1.524 1_554 S
C1051 C1043 1.503 1_554 S
C1051 C1050 1.370 . S
C1051 C1052 1.403 . S
C1052 C1051 1.403 . S
C1052 C1053 1.404 . S
C1052 C1055 1.539 . S
C1053 C1049 1.408 . S
C1053 C1052 1.404 . S
C1053 H1065 0.930 . S
C1054 C1050 1.524 1_556 S
C1054 H1066 0.956 . S
C1054 H1067 0.961 . S
C1054 H1068 0.961 1_556 S
C1055 C1052 1.539 . S
C1055 H1069 0.958 . S
C1055 H1070 0.961 . S
C1055 H1071 0.960 . S
H1056 C1040 0.931 . S
H1057 C1045 0.929 . S
H1058 C1046 0.960 . S
H1059 C1046 0.962 . S
H1060 C1046 0.960 . S
H1061 C1047 0.961 . S
H1062 C1047 0.961 . S
H1063 C1047 0.961 . S
H1064 C1048 0.931 . S
H1065 C1053 0.930 . S
H1066 C1054 0.956 . S
H1067 C1054 0.961 . S
H1068 C1054 0.961 1_554 S
H1069 C1055 0.958 . S
H1070 C1055 0.961 . S
H1071 C1055 0.960 . S
C1072 C1073 1.391 . S
C1072 C1074 1.394 . S
C1072 H1088 0.931 . S
C1073 C1072 1.391 . S
C1073 C1077 1.376 . S
C1074 C1072 1.394 . S
C1074 C1075 1.369 . S
C1074 C1078 1.531 . S
C1075 C1074 1.369 . S
C1075 C1076 1.410 . S
C1075 C1083 1.503 1_554 S
C1076 C1075 1.410 . S
C1076 C1077 1.392 . S
C1076 C1079 1.511 1_554 S
C1077 C1073 1.376 . S
C1077 C1076 1.392 . S
C1077 H1089 0.929 . S
C1078 C1074 1.531 . S
C1078 H1090 0.960 . S
C1078 H1091 0.962 . S
C1078 H1092 0.960 . S
C1079 C1076 1.511 1_556 S
C1079 H1093 0.961 . S
C1079 H1094 0.961 . S
C1079 H1095 0.961 . S
C1080 C1081 1.370 . S
C1080 C1082 1.363 . S
C1080 H1096 0.931 . S
C1081 C1080 1.370 . S
C1081 C1085 1.408 . S
C1082 C1080 1.363 . S
C1082 C1083 1.370 . S
C1082 C1086 1.524 1_556 S
C1083 C1075 1.503 1_556 S
C1083 C1082 1.370 . S
C1083 C1084 1.403 . S
C1084 C1083 1.403 . S
C1084 C1085 1.404 . S
C1084 C1087 1.539 . S
C1085 C1081 1.408 . S
C1085 C1084 1.404 . S
C1085 H1097 0.930 . S
C1086 C1082 1.524 1_554 S
C1086 H1098 0.956 . S
C1086 H1099 0.961 . S
C1086 H1100 0.961 . S
C1087 C1084 1.539 . S
C1087 H1101 0.958 . S
C1087 H1102 0.961 . S
C1087 H1103 0.960 . S
H1088 C1072 0.931 . S
H1089 C1077 0.929 . S
H1090 C1078 0.960 . S
H1091 C1078 0.962 . S
H1092 C1078 0.960 . S
H1093 C1079 0.961 . S
H1094 C1079 0.961 . S
H1095 C1079 0.961 . S
H1096 C1080 0.931 . S
H1097 C1085 0.930 . S
H1098 C1086 0.956 . S
H1099 C1086 0.961 . S
H1100 C1086 0.961 . S
H1101 C1087 0.958 . S
H1102 C1087 0.961 . S
H1103 C1087 0.960 . S
C1104 C1105 1.391 . S
C1104 C1106 1.394 . S
C1104 H1120 0.931 . S
C1105 C1104 1.391 . S
C1105 C1109 1.376 . S
C1106 C1104 1.394 . S
C1106 C1107 1.369 . S
C1106 C1110 1.531 . S
C1107 C1106 1.369 . S
C1107 C1108 1.410 . S
C1107 C1115 1.503 . S
C1108 C1107 1.410 . S
C1108 C1109 1.392 . S
C1108 C1111 1.511 . S
C1109 C1105 1.376 . S
C1109 C1108 1.392 . S
C1109 H1121 0.929 . S
C1110 C1106 1.531 . S
C1110 H1122 0.960 . S
C1110 H1123 0.962 . S
C1110 H1124 0.960 . S
C1111 C1108 1.511 . S
C1111 H1125 0.961 . S
C1111 H1126 0.961 . S
C1111 H1127 0.961 . S
C1112 C1113 1.370 . S
C1112 C1114 1.363 . S
C1112 H1128 0.931 . S
C1113 C1112 1.370 . S
C1113 C1117 1.408 . S
C1114 C1112 1.363 . S
C1114 C1115 1.370 . S
C1114 C1118 1.524 . S
C1115 C1107 1.503 . S
C1115 C1114 1.370 . S
C1115 C1116 1.403 . S
C1116 C1115 1.403 . S
C1116 C1117 1.404 . S
C1116 C1119 1.539 . S
C1117 C1113 1.408 . S
C1117 C1116 1.404 . S
C1117 H1129 0.930 . S
C1118 C1114 1.524 . S
C1118 H1130 0.956 . S
C1118 H1131 0.961 . S
C1118 H1132 0.961 . S
C1119 C1116 1.539 . S
C1119 H1133 0.958 . S
C1119 H1134 0.961 . S
C1119 H1135 0.960 . S
H1120 C1104 0.931 . S
H1121 C1109 0.929 . S
H1122 C1110 0.960 . S
H1123 C1110 0.962 . S
H1124 C1110 0.960 . S
H1125 C1111 0.961 . S
H1126 C1111 0.961 . S
H1127 C1111 0.961 . S
H1128 C1112 0.931 . S
H1129 C1117 0.930 . S
H1130 C1118 0.956 . S
H1131 C1118 0.961 . S
H1132 C1118 0.961 . S
H1133 C1119 0.958 . S
H1134 C1119 0.961 . S
H1135 C1119 0.960 . S
C1136 C1137 1.391 . S
C1136 C1138 1.394 . S
C1136 H1152 0.931 . S
C1137 C1136 1.391 . S
C1137 C1141 1.376 . S
C1138 C1136 1.394 . S
C1138 C1139 1.369 . S
C1138 C1142 1.531 . S
C1139 C1138 1.369 . S
C1139 C1140 1.410 . S
C1139 C1147 1.503 . S
C1140 C1139 1.410 . S
C1140 C1141 1.392 . S
C1140 C1143 1.511 . S
C1141 C1137 1.376 . S
C1141 C1140 1.392 . S
C1141 H1153 0.929 . S
C1142 C1138 1.531 . S
C1142 H1154 0.960 . S
C1142 H1155 0.962 . S
C1142 H1156 0.960 . S
C1143 C1140 1.511 . S
C1143 H1157 0.961 . S
C1143 H1158 0.961 . S
C1143 H1159 0.961 . S
C1144 C1145 1.370 . S
C1144 C1146 1.363 . S
C1144 H1160 0.931 . S
C1145 C1144 1.370 . S
C1145 C1149 1.408 . S
C1146 C1144 1.363 . S
C1146 C1147 1.370 . S
C1146 C1150 1.524 . S
C1147 C1139 1.503 . S
C1147 C1146 1.370 . S
C1147 C1148 1.403 . S
C1148 C1147 1.403 . S
C1148 C1149 1.404 . S
C1148 C1151 1.539 . S
C1149 C1145 1.408 . S
C1149 C1148 1.404 . S
C1149 H1161 0.930 . S
C1150 C1146 1.524 . S
C1150 H1162 0.956 . S
C1150 H1163 0.961 . S
C1150 H1164 0.961 . S
C1151 C1148 1.539 . S
C1151 H1165 0.958 . S
C1151 H1166 0.961 . S
C1151 H1167 0.960 . S
H1152 C1136 0.931 . S
H1153 C1141 0.929 . S
H1154 C1142 0.960 . S
H1155 C1142 0.962 . S
H1156 C1142 0.960 . S
H1157 C1143 0.961 . S
H1158 C1143 0.961 . S
H1159 C1143 0.961 . S
H1160 C1144 0.931 . S
H1161 C1149 0.930 . S
H1162 C1150 0.956 . S
H1163 C1150 0.961 . S
H1164 C1150 0.961 . S
H1165 C1151 0.958 . S
H1166 C1151 0.961 . S
H1167 C1151 0.960 . S
C1168 C1169 1.391 . S
C1168 C1170 1.394 . S
C1168 H1184 0.931 . S
C1169 C1168 1.391 . S
C1169 C1173 1.376 . S
C1170 C1168 1.394 . S
C1170 C1171 1.369 . S
C1170 C1174 1.531 . S
C1171 C1170 1.369 . S
C1171 C1172 1.410 . S
C1171 C1179 1.503 . S
C1172 C1171 1.410 . S
C1172 C1173 1.392 . S
C1172 C1175 1.511 . S
C1173 C1169 1.376 . S
C1173 C1172 1.392 . S
C1173 H1185 0.929 . S
C1174 C1170 1.531 . S
C1174 H1186 0.960 . S
C1174 H1187 0.962 . S
C1174 H1188 0.960 . S
C1175 C1172 1.511 . S
C1175 H1189 0.961 . S
C1175 H1190 0.961 . S
C1175 H1191 0.961 . S
C1176 C1177 1.370 . S
C1176 C1178 1.363 . S
C1176 H1192 0.931 . S
C1177 C1176 1.370 . S
C1177 C1181 1.408 . S
C1178 C1176 1.363 . S
C1178 C1179 1.370 . S
C1178 C1182 1.524 . S
C1179 C1171 1.503 . S
C1179 C1178 1.370 . S
C1179 C1180 1.403 . S
C1180 C1179 1.403 . S
C1180 C1181 1.404 . S
C1180 C1183 1.539 . S
C1181 C1177 1.408 . S
C1181 C1180 1.404 . S
C1181 H1193 0.930 . S
C1182 C1178 1.524 . S
C1182 H1194 0.956 . S
C1182 H1195 0.961 . S
C1182 H1196 0.961 . S
C1183 C1180 1.539 . S
C1183 H1197 0.958 . S
C1183 H1198 0.961 . S
C1183 H1199 0.960 . S
H1184 C1168 0.931 . S
H1185 C1173 0.929 . S
H1186 C1174 0.960 . S
H1187 C1174 0.962 . S
H1188 C1174 0.960 . S
H1189 C1175 0.961 . S
H1190 C1175 0.961 . S
H1191 C1175 0.961 . S
H1192 C1176 0.931 . S
H1193 C1181 0.930 . S
H1194 C1182 0.956 . S
H1195 C1182 0.961 . S
H1196 C1182 0.961 . S
H1197 C1183 0.958 . S
H1198 C1183 0.961 . S
H1199 C1183 0.960 . S
C1200 C1201 1.391 . S
C1200 C1202 1.394 . S
C1200 H1216 0.931 . S
C1201 C1200 1.391 . S
C1201 C1205 1.376 . S
C1202 C1200 1.394 . S
C1202 C1203 1.369 . S
C1202 C1206 1.531 . S
C1203 C1202 1.369 . S
C1203 C1204 1.410 . S
C1203 C1211 1.503 . S
C1204 C1203 1.410 . S
C1204 C1205 1.392 . S
C1204 C1207 1.511 . S
C1205 C1201 1.376 . S
C1205 C1204 1.392 . S
C1205 H1217 0.929 . S
C1206 C1202 1.531 . S
C1206 H1218 0.960 . S
C1206 H1219 0.962 . S
C1206 H1220 0.960 . S
C1207 C1204 1.511 . S
C1207 H1221 0.961 . S
C1207 H1222 0.961 . S
C1207 H1223 0.961 . S
C1208 C1209 1.370 . S
C1208 C1210 1.363 . S
C1208 H1224 0.931 . S
C1209 C1208 1.370 . S
C1209 C1213 1.408 . S
C1210 C1208 1.363 . S
C1210 C1211 1.370 . S
C1210 C1214 1.524 . S
C1211 C1203 1.503 . S
C1211 C1210 1.370 . S
C1211 C1212 1.403 . S
C1212 C1211 1.403 . S
C1212 C1213 1.404 . S
C1212 C1215 1.539 . S
C1213 C1209 1.408 . S
C1213 C1212 1.404 . S
C1213 H1225 0.930 . S
C1214 C1210 1.524 . S
C1214 H1226 0.956 . S
C1214 H1227 0.961 . S
C1214 H1228 0.961 . S
C1215 C1212 1.539 . S
C1215 H1229 0.958 . S
C1215 H1230 0.961 . S
C1215 H1231 0.960 . S
H1216 C1200 0.931 . S
H1217 C1205 0.929 . S
H1218 C1206 0.960 . S
H1219 C1206 0.962 . S
H1220 C1206 0.960 . S
H1221 C1207 0.961 . S
H1222 C1207 0.961 . S
H1223 C1207 0.961 . S
H1224 C1208 0.931 . S
H1225 C1213 0.930 . S
H1226 C1214 0.956 . S
H1227 C1214 0.961 . S
H1228 C1214 0.961 . S
H1229 C1215 0.958 . S
H1230 C1215 0.961 . S
H1231 C1215 0.960 . S
C1232 C1233 1.391 . S
C1232 C1234 1.394 . S
C1232 H1248 0.931 . S
C1233 C1232 1.391 . S
C1233 C1237 1.376 . S
C1234 C1232 1.394 . S
C1234 C1235 1.369 . S
C1234 C1238 1.531 . S
C1235 C1234 1.369 . S
C1235 C1236 1.410 . S
C1235 C1243 1.503 . S
C1236 C1235 1.410 . S
C1236 C1237 1.392 . S
C1236 C1239 1.511 . S
C1237 C1233 1.376 . S
C1237 C1236 1.392 . S
C1237 H1249 0.929 . S
C1238 C1234 1.531 . S
C1238 H1250 0.960 . S
C1238 H1251 0.962 . S
C1238 H1252 0.960 . S
C1239 C1236 1.511 . S
C1239 H1253 0.961 . S
C1239 H1254 0.961 . S
C1239 H1255 0.961 . S
C1240 C1241 1.370 . S
C1240 C1242 1.363 . S
C1240 H1256 0.931 . S
C1241 C1240 1.370 . S
C1241 C1245 1.408 . S
C1242 C1240 1.363 . S
C1242 C1243 1.370 . S
C1242 C1246 1.524 . S
C1243 C1235 1.503 . S
C1243 C1242 1.370 . S
C1243 C1244 1.403 . S
C1244 C1243 1.403 . S
C1244 C1245 1.404 . S
C1244 C1247 1.539 . S
C1245 C1241 1.408 . S
C1245 C1244 1.404 . S
C1245 H1257 0.930 . S
C1246 C1242 1.524 . S
C1246 H1258 0.956 . S
C1246 H1259 0.961 . S
C1246 H1260 0.961 . S
C1247 C1244 1.539 . S
C1247 H1261 0.958 . S
C1247 H1262 0.961 . S
C1247 H1263 0.960 . S
H1248 C1232 0.931 . S
H1249 C1237 0.929 . S
H1250 C1238 0.960 . S
H1251 C1238 0.962 . S
H1252 C1238 0.960 . S
H1253 C1239 0.961 . S
H1254 C1239 0.961 . S
H1255 C1239 0.961 . S
H1256 C1240 0.931 . S
H1257 C1245 0.930 . S
H1258 C1246 0.956 . S
H1259 C1246 0.961 . S
H1260 C1246 0.961 . S
H1261 C1247 0.958 . S
H1262 C1247 0.961 . S
H1263 C1247 0.960 . S
C1264 C1265 1.391 . S
C1264 C1266 1.394 . S
C1264 H1280 0.931 . S
C1265 C1264 1.391 . S
C1265 C1269 1.376 . S
C1266 C1264 1.394 . S
C1266 C1267 1.369 . S
C1266 C1270 1.531 . S
C1267 C1266 1.369 . S
C1267 C1268 1.410 . S
C1267 C1275 1.503 . S
C1268 C1267 1.410 . S
C1268 C1269 1.392 . S
C1268 C1271 1.511 . S
C1269 C1265 1.376 . S
C1269 C1268 1.392 . S
C1269 H1281 0.929 . S
C1270 C1266 1.531 . S
C1270 H1282 0.960 . S
C1270 H1283 0.962 . S
C1270 H1284 0.960 . S
C1271 C1268 1.511 . S
C1271 H1285 0.961 . S
C1271 H1286 0.961 . S
C1271 H1287 0.961 . S
C1272 C1273 1.370 . S
C1272 C1274 1.363 . S
C1272 H1288 0.931 . S
C1273 C1272 1.370 . S
C1273 C1277 1.408 . S
C1274 C1272 1.363 . S
C1274 C1275 1.370 . S
C1274 C1278 1.524 . S
C1275 C1267 1.503 . S
C1275 C1274 1.370 . S
C1275 C1276 1.403 . S
C1276 C1275 1.403 . S
C1276 C1277 1.404 . S
C1276 C1279 1.539 . S
C1277 C1273 1.408 . S
C1277 C1276 1.404 . S
C1277 H1289 0.930 . S
C1278 C1274 1.524 . S
C1278 H1290 0.956 . S
C1278 H1291 0.961 . S
C1278 H1292 0.961 . S
C1279 C1276 1.539 . S
C1279 H1293 0.958 . S
C1279 H1294 0.961 . S
C1279 H1295 0.960 . S
H1280 C1264 0.931 . S
H1281 C1269 0.929 . S
H1282 C1270 0.960 . S
H1283 C1270 0.962 . S
H1284 C1270 0.960 . S
H1285 C1271 0.961 . S
H1286 C1271 0.961 . S
H1287 C1271 0.961 . S
H1288 C1272 0.931 . S
H1289 C1277 0.930 . S
H1290 C1278 0.956 . S
H1291 C1278 0.961 . S
H1292 C1278 0.961 . S
H1293 C1279 0.958 . S
H1294 C1279 0.961 . S
H1295 C1279 0.960 . S
C1296 C1297 1.391 . S
C1296 C1298 1.394 . S
C1296 H1312 0.931 . S
C1297 C1296 1.391 . S
C1297 C1301 1.376 . S
C1298 C1296 1.394 . S
C1298 C1299 1.369 . S
C1298 C1302 1.531 . S
C1299 C1298 1.369 . S
C1299 C1300 1.410 . S
C1299 C1307 1.503 . S
C1300 C1299 1.410 . S
C1300 C1301 1.392 . S
C1300 C1303 1.511 . S
C1301 C1297 1.376 . S
C1301 C1300 1.392 . S
C1301 H1313 0.929 . S
C1302 C1298 1.531 . S
C1302 H1314 0.960 . S
C1302 H1315 0.962 . S
C1302 H1316 0.960 . S
C1303 C1300 1.511 . S
C1303 H1317 0.961 . S
C1303 H1318 0.961 . S
C1303 H1319 0.961 . S
C1304 C1305 1.370 . S
C1304 C1306 1.363 . S
C1304 H1320 0.931 . S
C1305 C1304 1.370 . S
C1305 C1309 1.408 . S
C1306 C1304 1.363 . S
C1306 C1307 1.370 . S
C1306 C1310 1.524 . S
C1307 C1299 1.503 . S
C1307 C1306 1.370 . S
C1307 C1308 1.403 . S
C1308 C1307 1.403 . S
C1308 C1309 1.404 . S
C1308 C1311 1.539 . S
C1309 C1305 1.408 . S
C1309 C1308 1.404 . S
C1309 H1321 0.930 . S
C1310 C1306 1.524 . S
C1310 H1322 0.956 . S
C1310 H1323 0.961 . S
C1310 H1324 0.961 . S
C1311 C1308 1.539 . S
C1311 H1325 0.958 . S
C1311 H1326 0.961 . S
C1311 H1327 0.960 . S
H1312 C1296 0.931 . S
H1313 C1301 0.929 . S
H1314 C1302 0.960 . S
H1315 C1302 0.962 . S
H1316 C1302 0.960 . S
H1317 C1303 0.961 . S
H1318 C1303 0.961 . S
H1319 C1303 0.961 . S
H1320 C1304 0.931 . S
H1321 C1309 0.930 . S
H1322 C1310 0.956 . S
H1323 C1310 0.961 . S
H1324 C1310 0.961 . S
H1325 C1311 0.958 . S
H1326 C1311 0.961 . S
H1327 C1311 0.960 . S
C1328 C1329 1.391 . S
C1328 C1330 1.394 . S
C1328 H1344 0.931 . S
C1329 C1328 1.391 . S
C1329 C1333 1.376 . S
C1330 C1328 1.394 . S
C1330 C1331 1.369 . S
C1330 C1334 1.531 . S
C1331 C1330 1.369 . S
C1331 C1332 1.410 . S
C1331 C1339 1.503 . S
C1332 C1331 1.410 . S
C1332 C1333 1.392 . S
C1332 C1335 1.511 . S
C1333 C1329 1.376 . S
C1333 C1332 1.392 . S
C1333 H1345 0.929 . S
C1334 C1330 1.531 . S
C1334 H1346 0.960 . S
C1334 H1347 0.962 . S
C1334 H1348 0.960 . S
C1335 C1332 1.511 . S
C1335 H1349 0.961 . S
C1335 H1350 0.961 . S
C1335 H1351 0.961 . S
C1336 C1337 1.370 . S
C1336 C1338 1.363 . S
C1336 H1352 0.931 . S
C1337 C1336 1.370 . S
C1337 C1341 1.408 . S
C1338 C1336 1.363 . S
C1338 C1339 1.370 . S
C1338 C1342 1.524 . S
C1339 C1331 1.503 . S
C1339 C1338 1.370 . S
C1339 C1340 1.403 . S
C1340 C1339 1.403 . S
C1340 C1341 1.404 . S
C1340 C1343 1.539 . S
C1341 C1337 1.408 . S
C1341 C1340 1.404 . S
C1341 H1353 0.930 . S
C1342 C1338 1.524 . S
C1342 H1354 0.956 . S
C1342 H1355 0.961 . S
C1342 H1356 0.961 . S
C1343 C1340 1.539 . S
C1343 H1357 0.958 . S
C1343 H1358 0.961 . S
C1343 H1359 0.960 . S
H1344 C1328 0.931 . S
H1345 C1333 0.929 . S
H1346 C1334 0.960 . S
H1347 C1334 0.962 . S
H1348 C1334 0.960 . S
H1349 C1335 0.961 . S
H1350 C1335 0.961 . S
H1351 C1335 0.961 . S
H1352 C1336 0.931 . S
H1353 C1341 0.930 . S
H1354 C1342 0.956 . S
H1355 C1342 0.961 . S
H1356 C1342 0.961 . S
H1357 C1343 0.958 . S
H1358 C1343 0.961 . S
H1359 C1343 0.960 . S
C1360 C1361 1.391 . S
C1360 C1362 1.394 . S
C1360 H1376 0.931 . S
C1361 C1360 1.391 . S
C1361 C1365 1.376 . S
C1362 C1360 1.394 . S
C1362 C1363 1.369 . S
C1362 C1366 1.531 . S
C1363 C1362 1.369 . S
C1363 C1364 1.410 . S
C1363 C1371 1.503 . S
C1364 C1363 1.410 . S
C1364 C1365 1.392 . S
C1364 C1367 1.511 . S
C1365 C1361 1.376 . S
C1365 C1364 1.392 . S
C1365 H1377 0.929 . S
C1366 C1362 1.531 . S
C1366 H1378 0.960 . S
C1366 H1379 0.962 . S
C1366 H1380 0.960 . S
C1367 C1364 1.511 . S
C1367 H1381 0.961 . S
C1367 H1382 0.961 . S
C1367 H1383 0.961 . S
C1368 C1369 1.370 . S
C1368 C1370 1.363 . S
C1368 H1384 0.931 . S
C1369 C1368 1.370 . S
C1369 C1373 1.408 . S
C1370 C1368 1.363 . S
C1370 C1371 1.370 . S
C1370 C1374 1.524 . S
C1371 C1363 1.503 . S
C1371 C1370 1.370 . S
C1371 C1372 1.403 . S
C1372 C1371 1.403 . S
C1372 C1373 1.404 . S
C1372 C1375 1.539 . S
C1373 C1369 1.408 . S
C1373 C1372 1.404 . S
C1373 H1385 0.930 . S
C1374 C1370 1.524 . S
C1374 H1386 0.956 . S
C1374 H1387 0.961 . S
C1374 H1388 0.961 . S
C1375 C1372 1.539 . S
C1375 H1389 0.958 . S
C1375 H1390 0.961 . S
C1375 H1391 0.960 . S
H1376 C1360 0.931 . S
H1377 C1365 0.929 . S
H1378 C1366 0.960 . S
H1379 C1366 0.962 . S
H1380 C1366 0.960 . S
H1381 C1367 0.961 . S
H1382 C1367 0.961 . S
H1383 C1367 0.961 . S
H1384 C1368 0.931 . S
H1385 C1373 0.930 . S
H1386 C1374 0.956 . S
H1387 C1374 0.961 . S
H1388 C1374 0.961 . S
H1389 C1375 0.958 . S
H1390 C1375 0.961 . S
H1391 C1375 0.960 . S
C1392 C1393 1.391 . S
C1392 C1394 1.394 . S
C1392 H1408 0.931 . S
C1393 C1392 1.391 . S
C1393 C1397 1.376 . S
C1394 C1392 1.394 . S
C1394 C1395 1.369 . S
C1394 C1398 1.531 . S
C1395 C1394 1.369 . S
C1395 C1396 1.410 . S
C1395 C1403 1.503 . S
C1396 C1395 1.410 . S
C1396 C1397 1.392 . S
C1396 C1399 1.511 . S
C1397 C1393 1.376 . S
C1397 C1396 1.392 . S
C1397 H1409 0.929 . S
C1398 C1394 1.531 . S
C1398 H1410 0.960 . S
C1398 H1411 0.962 . S
C1398 H1412 0.960 . S
C1399 C1396 1.511 . S
C1399 H1413 0.961 . S
C1399 H1414 0.961 . S
C1399 H1415 0.961 . S
C1400 C1401 1.370 . S
C1400 C1402 1.363 . S
C1400 H1416 0.931 . S
C1401 C1400 1.370 . S
C1401 C1405 1.408 . S
C1402 C1400 1.363 . S
C1402 C1403 1.370 . S
C1402 C1406 1.524 . S
C1403 C1395 1.503 . S
C1403 C1402 1.370 . S
C1403 C1404 1.403 . S
C1404 C1403 1.403 . S
C1404 C1405 1.404 . S
C1404 C1407 1.539 . S
C1405 C1401 1.408 . S
C1405 C1404 1.404 . S
C1405 H1417 0.930 . S
C1406 C1402 1.524 . S
C1406 H1418 0.956 . S
C1406 H1419 0.961 . S
C1406 H1420 0.961 . S
C1407 C1404 1.539 . S
C1407 H1421 0.958 . S
C1407 H1422 0.961 . S
C1407 H1423 0.960 . S
H1408 C1392 0.931 . S
H1409 C1397 0.929 . S
H1410 C1398 0.960 . S
H1411 C1398 0.962 . S
H1412 C1398 0.960 . S
H1413 C1399 0.961 . S
H1414 C1399 0.961 . S
H1415 C1399 0.961 . S
H1416 C1400 0.931 . S
H1417 C1405 0.930 . S
H1418 C1406 0.956 . S
H1419 C1406 0.961 . S
H1420 C1406 0.961 . S
H1421 C1407 0.958 . S
H1422 C1407 0.961 . S
H1423 C1407 0.960 . S
C1424 C1425 1.391 . S
C1424 C1426 1.394 . S
C1424 H1440 0.931 . S
C1425 C1424 1.391 . S
C1425 C1429 1.376 . S
C1426 C1424 1.394 . S
C1426 C1427 1.369 . S
C1426 C1430 1.531 . S
C1427 C1426 1.369 . S
C1427 C1428 1.410 . S
C1427 C1435 1.503 . S
C1428 C1427 1.410 . S
C1428 C1429 1.392 . S
C1428 C1431 1.511 . S
C1429 C1425 1.376 . S
C1429 C1428 1.392 . S
C1429 H1441 0.929 . S
C1430 C1426 1.531 . S
C1430 H1442 0.960 . S
C1430 H1443 0.962 . S
C1430 H1444 0.960 . S
C1431 C1428 1.511 . S
C1431 H1445 0.961 . S
C1431 H1446 0.961 . S
C1431 H1447 0.961 . S
C1432 C1433 1.370 . S
C1432 C1434 1.363 . S
C1432 H1448 0.931 . S
C1433 C1432 1.370 . S
C1433 C1437 1.408 . S
C1434 C1432 1.363 . S
C1434 C1435 1.370 . S
C1434 C1438 1.524 . S
C1435 C1427 1.503 . S
C1435 C1434 1.370 . S
C1435 C1436 1.403 . S
C1436 C1435 1.403 . S
C1436 C1437 1.404 . S
C1436 C1439 1.539 . S
C1437 C1433 1.408 . S
C1437 C1436 1.404 . S
C1437 H1449 0.930 . S
C1438 C1434 1.524 . S
C1438 H1450 0.956 . S
C1438 H1451 0.961 . S
C1438 H1452 0.961 . S
C1439 C1436 1.539 . S
C1439 H1453 0.958 . S
C1439 H1454 0.961 . S
C1439 H1455 0.960 . S
H1440 C1424 0.931 . S
H1441 C1429 0.929 . S
H1442 C1430 0.960 . S
H1443 C1430 0.962 . S
H1444 C1430 0.960 . S
H1445 C1431 0.961 . S
H1446 C1431 0.961 . S
H1447 C1431 0.961 . S
H1448 C1432 0.931 . S
H1449 C1437 0.930 . S
H1450 C1438 0.956 . S
H1451 C1438 0.961 . S
H1452 C1438 0.961 . S
H1453 C1439 0.958 . S
H1454 C1439 0.961 . S
H1455 C1439 0.960 . S
C1456 C1457 1.391 . S
C1456 C1458 1.394 . S
C1456 H1472 0.931 . S
C1457 C1456 1.391 . S
C1457 C1461 1.376 . S
C1458 C1456 1.394 . S
C1458 C1459 1.369 . S
C1458 C1462 1.531 . S
C1459 C1458 1.369 . S
C1459 C1460 1.410 . S
C1459 C1467 1.503 . S
C1460 C1459 1.410 . S
C1460 C1461 1.392 . S
C1460 C1463 1.511 . S
C1461 C1457 1.376 . S
C1461 C1460 1.392 . S
C1461 H1473 0.929 . S
C1462 C1458 1.531 . S
C1462 H1474 0.960 . S
C1462 H1475 0.962 . S
C1462 H1476 0.960 . S
C1463 C1460 1.511 . S
C1463 H1477 0.961 . S
C1463 H1478 0.961 . S
C1463 H1479 0.961 . S
C1464 C1465 1.370 . S
C1464 C1466 1.363 . S
C1464 H1480 0.931 . S
C1465 C1464 1.370 . S
C1465 C1469 1.408 . S
C1466 C1464 1.363 . S
C1466 C1467 1.370 . S
C1466 C1470 1.524 . S
C1467 C1459 1.503 . S
C1467 C1466 1.370 . S
C1467 C1468 1.403 . S
C1468 C1467 1.403 . S
C1468 C1469 1.404 . S
C1468 C1471 1.539 . S
C1469 C1465 1.408 . S
C1469 C1468 1.404 . S
C1469 H1481 0.930 . S
C1470 C1466 1.524 . S
C1470 H1482 0.956 . S
C1470 H1483 0.961 . S
C1470 H1484 0.961 . S
C1471 C1468 1.539 . S
C1471 H1485 0.958 . S
C1471 H1486 0.961 . S
C1471 H1487 0.960 . S
H1472 C1456 0.931 . S
H1473 C1461 0.929 . S
H1474 C1462 0.960 . S
H1475 C1462 0.962 . S
H1476 C1462 0.960 . S
H1477 C1463 0.961 . S
H1478 C1463 0.961 . S
H1479 C1463 0.961 . S
H1480 C1464 0.931 . S
H1481 C1469 0.930 . S
H1482 C1470 0.956 . S
H1483 C1470 0.961 . S
H1484 C1470 0.961 . S
H1485 C1471 0.958 . S
H1486 C1471 0.961 . S
H1487 C1471 0.960 . S
C1488 C1489 1.391 . S
C1488 C1490 1.394 . S
C1488 H1504 0.931 . S
C1489 C1488 1.391 . S
C1489 C1493 1.376 . S
C1490 C1488 1.394 . S
C1490 C1491 1.369 . S
C1490 C1494 1.531 . S
C1491 C1490 1.369 . S
C1491 C1492 1.410 . S
C1491 C1499 1.503 . S
C1492 C1491 1.410 . S
C1492 C1493 1.392 . S
C1492 C1495 1.511 . S
C1493 C1489 1.376 . S
C1493 C1492 1.392 . S
C1493 H1505 0.929 . S
C1494 C1490 1.531 . S
C1494 H1506 0.960 . S
C1494 H1507 0.962 . S
C1494 H1508 0.960 . S
C1495 C1492 1.511 . S
C1495 H1509 0.961 . S
C1495 H1510 0.961 . S
C1495 H1511 0.961 . S
C1496 C1497 1.370 . S
C1496 C1498 1.363 . S
C1496 H1512 0.931 . S
C1497 C1496 1.370 . S
C1497 C1501 1.408 . S
C1498 C1496 1.363 . S
C1498 C1499 1.370 . S
C1498 C1502 1.524 . S
C1499 C1491 1.503 . S
C1499 C1498 1.370 . S
C1499 C1500 1.403 . S
C1500 C1499 1.403 . S
C1500 C1501 1.404 . S
C1500 C1503 1.539 . S
C1501 C1497 1.408 . S
C1501 C1500 1.404 . S
C1501 H1513 0.930 . S
C1502 C1498 1.524 . S
C1502 H1514 0.956 . S
C1502 H1515 0.961 . S
C1502 H1516 0.961 . S
C1503 C1500 1.539 . S
C1503 H1517 0.958 . S
C1503 H1518 0.961 . S
C1503 H1519 0.960 . S
H1504 C1488 0.931 . S
H1505 C1493 0.929 . S
H1506 C1494 0.960 . S
H1507 C1494 0.962 . S
H1508 C1494 0.960 . S
H1509 C1495 0.961 . S
H1510 C1495 0.961 . S
H1511 C1495 0.961 . S
H1512 C1496 0.931 . S
H1513 C1501 0.930 . S
H1514 C1502 0.956 . S
H1515 C1502 0.961 . S
H1516 C1502 0.961 . S
H1517 C1503 0.958 . S
H1518 C1503 0.961 . S
H1519 C1503 0.960 . S
C1520 C1521 1.391 . S
C1520 C1522 1.394 . S
C1520 H1536 0.931 . S
C1521 C1520 1.391 . S
C1521 C1525 1.376 . S
C1522 C1520 1.394 . S
C1522 C1523 1.369 . S
C1522 C1526 1.531 . S
C1523 C1522 1.369 . S
C1523 C1524 1.410 . S
C1523 C1531 1.503 . S
C1524 C1523 1.410 . S
C1524 C1525 1.392 . S
C1524 C1527 1.511 . S
C1525 C1521 1.376 . S
C1525 C1524 1.392 . S
C1525 H1537 0.929 . S
C1526 C1522 1.531 . S
C1526 H1538 0.960 . S
C1526 H1539 0.962 . S
C1526 H1540 0.960 . S
C1527 C1524 1.511 . S
C1527 H1541 0.961 . S
C1527 H1542 0.961 . S
C1527 H1543 0.961 . S
C1528 C1529 1.370 . S
C1528 C1530 1.363 . S
C1528 H1544 0.931 . S
C1529 C1528 1.370 . S
C1529 C1533 1.408 . S
C1530 C1528 1.363 . S
C1530 C1531 1.370 . S
C1530 C1534 1.524 . S
C1531 C1523 1.503 . S
C1531 C1530 1.370 . S
C1531 C1532 1.403 . S
C1532 C1531 1.403 . S
C1532 C1533 1.404 . S
C1532 C1535 1.539 . S
C1533 C1529 1.408 . S
C1533 C1532 1.404 . S
C1533 H1545 0.930 . S
C1534 C1530 1.524 . S
C1534 H1546 0.956 . S
C1534 H1547 0.961 . S
C1534 H1548 0.961 . S
C1535 C1532 1.539 . S
C1535 H1549 0.958 . S
C1535 H1550 0.961 . S
C1535 H1551 0.960 . S
H1536 C1520 0.931 . S
H1537 C1525 0.929 . S
H1538 C1526 0.960 . S
H1539 C1526 0.962 . S
H1540 C1526 0.960 . S
H1541 C1527 0.961 . S
H1542 C1527 0.961 . S
H1543 C1527 0.961 . S
H1544 C1528 0.931 . S
H1545 C1533 0.930 . S
H1546 C1534 0.956 . S
H1547 C1534 0.961 . S
H1548 C1534 0.961 . S
H1549 C1535 0.958 . S
H1550 C1535 0.961 . S
H1551 C1535 0.960 . S
C1552 C1553 1.391 . S
C1552 C1554 1.394 . S
C1552 H1568 0.931 . S
C1553 C1552 1.391 . S
C1553 C1557 1.376 . S
C1554 C1552 1.394 . S
C1554 C1555 1.369 . S
C1554 C1558 1.531 . S
C1555 C1554 1.369 . S
C1555 C1556 1.410 . S
C1555 C1563 1.503 . S
C1556 C1555 1.410 . S
C1556 C1557 1.392 . S
C1556 C1559 1.511 . S
C1557 C1553 1.376 . S
C1557 C1556 1.392 . S
C1557 H1569 0.929 . S
C1558 C1554 1.531 . S
C1558 H1570 0.960 . S
C1558 H1571 0.962 . S
C1558 H1572 0.960 . S
C1559 C1556 1.511 . S
C1559 H1573 0.961 . S
C1559 H1574 0.961 . S
C1559 H1575 0.961 . S
C1560 C1561 1.370 . S
C1560 C1562 1.363 . S
C1560 H1576 0.931 . S
C1561 C1560 1.370 . S
C1561 C1565 1.408 . S
C1562 C1560 1.363 . S
C1562 C1563 1.370 . S
C1562 C1566 1.524 . S
C1563 C1555 1.503 . S
C1563 C1562 1.370 . S
C1563 C1564 1.403 . S
C1564 C1563 1.403 . S
C1564 C1565 1.404 . S
C1564 C1567 1.539 . S
C1565 C1561 1.408 . S
C1565 C1564 1.404 . S
C1565 H1577 0.930 . S
C1566 C1562 1.524 . S
C1566 H1578 0.956 . S
C1566 H1579 0.961 . S
C1566 H1580 0.961 . S
C1567 C1564 1.539 . S
C1567 H1581 0.958 . S
C1567 H1582 0.961 . S
C1567 H1583 0.960 . S
H1568 C1552 0.931 . S
H1569 C1557 0.929 . S
H1570 C1558 0.960 . S
H1571 C1558 0.962 . S
H1572 C1558 0.960 . S
H1573 C1559 0.961 . S
H1574 C1559 0.961 . S
H1575 C1559 0.961 . S
H1576 C1560 0.931 . S
H1577 C1565 0.930 . S
H1578 C1566 0.956 . S
H1579 C1566 0.961 . S
H1580 C1566 0.961 . S
H1581 C1567 0.958 . S
H1582 C1567 0.961 . S
H1583 C1567 0.960 . S
C1584 C1585 1.391 . S
C1584 C1586 1.394 . S
C1584 H1600 0.931 . S
C1585 C1584 1.391 . S
C1585 C1589 1.376 . S
C1586 C1584 1.394 . S
C1586 C1587 1.369 . S
C1586 C1590 1.531 . S
C1587 C1586 1.369 . S
C1587 C1588 1.410 . S
C1587 C1595 1.503 . S
C1588 C1587 1.410 . S
C1588 C1589 1.392 . S
C1588 C1591 1.511 . S
C1589 C1585 1.376 . S
C1589 C1588 1.392 . S
C1589 H1601 0.929 . S
C1590 C1586 1.531 . S
C1590 H1602 0.960 . S
C1590 H1603 0.962 . S
C1590 H1604 0.960 . S
C1591 C1588 1.511 . S
C1591 H1605 0.961 . S
C1591 H1606 0.961 . S
C1591 H1607 0.961 . S
C1592 C1593 1.370 . S
C1592 C1594 1.363 . S
C1592 H1608 0.931 . S
C1593 C1592 1.370 . S
C1593 C1597 1.408 . S
C1594 C1592 1.363 . S
C1594 C1595 1.370 . S
C1594 C1598 1.524 . S
C1595 C1587 1.503 . S
C1595 C1594 1.370 . S
C1595 C1596 1.403 . S
C1596 C1595 1.403 . S
C1596 C1597 1.404 . S
C1596 C1599 1.539 . S
C1597 C1593 1.408 . S
C1597 C1596 1.404 . S
C1597 H1609 0.930 . S
C1598 C1594 1.524 . S
C1598 H1610 0.956 . S
C1598 H1611 0.961 . S
C1598 H1612 0.961 . S
C1599 C1596 1.539 . S
C1599 H1613 0.958 . S
C1599 H1614 0.961 . S
C1599 H1615 0.960 . S
H1600 C1584 0.931 . S
H1601 C1589 0.929 . S
H1602 C1590 0.960 . S
H1603 C1590 0.962 . S
H1604 C1590 0.960 . S
H1605 C1591 0.961 . S
H1606 C1591 0.961 . S
H1607 C1591 0.961 . S
H1608 C1592 0.931 . S
H1609 C1597 0.930 . S
H1610 C1598 0.956 . S
H1611 C1598 0.961 . S
H1612 C1598 0.961 . S
H1613 C1599 0.958 . S
H1614 C1599 0.961 . S
H1615 C1599 0.960 . S
C1616 C1617 1.391 . S
C1616 C1618 1.394 . S
C1616 H1632 0.931 . S
C1617 C1616 1.391 . S
C1617 C1621 1.376 . S
C1618 C1616 1.394 . S
C1618 C1619 1.369 . S
C1618 C1622 1.531 . S
C1619 C1618 1.369 . S
C1619 C1620 1.410 . S
C1619 C1627 1.503 . S
C1620 C1619 1.410 . S
C1620 C1621 1.392 . S
C1620 C1623 1.511 . S
C1621 C1617 1.376 . S
C1621 C1620 1.392 . S
C1621 H1633 0.929 . S
C1622 C1618 1.531 . S
C1622 H1634 0.960 . S
C1622 H1635 0.962 . S
C1622 H1636 0.960 . S
C1623 C1620 1.511 . S
C1623 H1637 0.961 . S
C1623 H1638 0.961 . S
C1623 H1639 0.961 . S
C1624 C1625 1.370 . S
C1624 C1626 1.363 . S
C1624 H1640 0.931 . S
C1625 C1624 1.370 . S
C1625 C1629 1.408 . S
C1626 C1624 1.363 . S
C1626 C1627 1.370 . S
C1626 C1630 1.524 . S
C1627 C1619 1.503 . S
C1627 C1626 1.370 . S
C1627 C1628 1.403 . S
C1628 C1627 1.403 . S
C1628 C1629 1.404 . S
C1628 C1631 1.539 . S
C1629 C1625 1.408 . S
C1629 C1628 1.404 . S
C1629 H1641 0.930 . S
C1630 C1626 1.524 . S
C1630 H1642 0.956 . S
C1630 H1643 0.961 . S
C1630 H1644 0.961 . S
C1631 C1628 1.539 . S
C1631 H1645 0.958 . S
C1631 H1646 0.961 . S
C1631 H1647 0.960 . S
H1632 C1616 0.931 . S
H1633 C1621 0.929 . S
H1634 C1622 0.960 . S
H1635 C1622 0.962 . S
H1636 C1622 0.960 . S
H1637 C1623 0.961 . S
H1638 C1623 0.961 . S
H1639 C1623 0.961 . S
H1640 C1624 0.931 . S
H1641 C1629 0.930 . S
H1642 C1630 0.956 . S
H1643 C1630 0.961 . S
H1644 C1630 0.961 . S
H1645 C1631 0.958 . S
H1646 C1631 0.961 . S
H1647 C1631 0.960 . S
C1648 C1649 1.391 . S
C1648 C1650 1.394 . S
C1648 H1664 0.931 . S
C1649 C1648 1.391 . S
C1649 C1653 1.376 . S
C1650 C1648 1.394 . S
C1650 C1651 1.369 . S
C1650 C1654 1.531 . S
C1651 C1650 1.369 . S
C1651 C1652 1.410 . S
C1651 C1659 1.503 . S
C1652 C1651 1.410 . S
C1652 C1653 1.392 . S
C1652 C1655 1.511 . S
C1653 C1649 1.376 . S
C1653 C1652 1.392 . S
C1653 H1665 0.929 . S
C1654 C1650 1.531 . S
C1654 H1666 0.960 . S
C1654 H1667 0.962 . S
C1654 H1668 0.960 . S
C1655 C1652 1.511 . S
C1655 H1669 0.961 . S
C1655 H1670 0.961 . S
C1655 H1671 0.961 . S
C1656 C1657 1.370 . S
C1656 C1658 1.363 . S
C1656 H1672 0.931 . S
C1657 C1656 1.370 . S
C1657 C1661 1.408 . S
C1658 C1656 1.363 . S
C1658 C1659 1.370 . S
C1658 C1662 1.524 . S
C1659 C1651 1.503 . S
C1659 C1658 1.370 . S
C1659 C1660 1.403 . S
C1660 C1659 1.403 . S
C1660 C1661 1.404 . S
C1660 C1663 1.539 . S
C1661 C1657 1.408 . S
C1661 C1660 1.404 . S
C1661 H1673 0.930 . S
C1662 C1658 1.524 . S
C1662 H1674 0.956 . S
C1662 H1675 0.961 . S
C1662 H1676 0.961 . S
C1663 C1660 1.539 . S
C1663 H1677 0.958 . S
C1663 H1678 0.961 . S
C1663 H1679 0.960 . S
H1664 C1648 0.931 . S
H1665 C1653 0.929 . S
H1666 C1654 0.960 . S
H1667 C1654 0.962 . S
H1668 C1654 0.960 . S
H1669 C1655 0.961 . S
H1670 C1655 0.961 . S
H1671 C1655 0.961 . S
H1672 C1656 0.931 . S
H1673 C1661 0.930 . S
H1674 C1662 0.956 . S
H1675 C1662 0.961 . S
H1676 C1662 0.961 . S
H1677 C1663 0.958 . S
H1678 C1663 0.961 . S
H1679 C1663 0.960 . S
C1680 C1681 1.391 . S
C1680 C1682 1.394 . S
C1680 H1696 0.931 . S
C1681 C1680 1.391 . S
C1681 C1685 1.376 . S
C1682 C1680 1.394 . S
C1682 C1683 1.369 . S
C1682 C1686 1.531 . S
C1683 C1682 1.369 . S
C1683 C1684 1.410 . S
C1683 C1691 1.503 . S
C1684 C1683 1.410 . S
C1684 C1685 1.392 . S
C1684 C1687 1.511 . S
C1685 C1681 1.376 . S
C1685 C1684 1.392 . S
C1685 H1697 0.929 . S
C1686 C1682 1.531 . S
C1686 H1698 0.960 . S
C1686 H1699 0.962 . S
C1686 H1700 0.960 . S
C1687 C1684 1.511 . S
C1687 H1701 0.961 . S
C1687 H1702 0.961 . S
C1687 H1703 0.961 . S
C1688 C1689 1.370 . S
C1688 C1690 1.363 . S
C1688 H1704 0.931 . S
C1689 C1688 1.370 . S
C1689 C1693 1.408 . S
C1690 C1688 1.363 . S
C1690 C1691 1.370 . S
C1690 C1694 1.524 . S
C1691 C1683 1.503 . S
C1691 C1690 1.370 . S
C1691 C1692 1.403 . S
C1692 C1691 1.403 . S
C1692 C1693 1.404 . S
C1692 C1695 1.539 . S
C1693 C1689 1.408 . S
C1693 C1692 1.404 . S
C1693 H1705 0.930 . S
C1694 C1690 1.524 . S
C1694 H1706 0.956 . S
C1694 H1707 0.961 . S
C1694 H1708 0.961 . S
C1695 C1692 1.539 . S
C1695 H1709 0.958 . S
C1695 H1710 0.961 . S
C1695 H1711 0.960 . S
H1696 C1680 0.931 . S
H1697 C1685 0.929 . S
H1698 C1686 0.960 . S
H1699 C1686 0.962 . S
H1700 C1686 0.960 . S
H1701 C1687 0.961 . S
H1702 C1687 0.961 . S
H1703 C1687 0.961 . S
H1704 C1688 0.931 . S
H1705 C1693 0.930 . S
H1706 C1694 0.956 . S
H1707 C1694 0.961 . S
H1708 C1694 0.961 . S
H1709 C1695 0.958 . S
H1710 C1695 0.961 . S
H1711 C1695 0.960 . S
C1712 C1713 1.391 . S
C1712 C1714 1.394 . S
C1712 H1728 0.931 . S
C1713 C1712 1.391 . S
C1713 C1717 1.376 . S
C1714 C1712 1.394 . S
C1714 C1715 1.369 . S
C1714 C1718 1.531 . S
C1715 C1714 1.369 . S
C1715 C1716 1.410 . S
C1715 C1723 1.503 . S
C1716 C1715 1.410 . S
C1716 C1717 1.392 . S
C1716 C1719 1.511 . S
C1717 C1713 1.376 . S
C1717 C1716 1.392 . S
C1717 H1729 0.929 . S
C1718 C1714 1.531 . S
C1718 H1730 0.960 . S
C1718 H1731 0.962 . S
C1718 H1732 0.960 . S
C1719 C1716 1.511 . S
C1719 H1733 0.961 . S
C1719 H1734 0.961 . S
C1719 H1735 0.961 . S
C1720 C1721 1.370 . S
C1720 C1722 1.363 . S
C1720 H1736 0.931 . S
C1721 C1720 1.370 . S
C1721 C1725 1.408 . S
C1722 C1720 1.363 . S
C1722 C1723 1.370 . S
C1722 C1726 1.524 . S
C1723 C1715 1.503 . S
C1723 C1722 1.370 . S
C1723 C1724 1.403 . S
C1724 C1723 1.403 . S
C1724 C1725 1.404 . S
C1724 C1727 1.539 . S
C1725 C1721 1.408 . S
C1725 C1724 1.404 . S
C1725 H1737 0.930 . S
C1726 C1722 1.524 . S
C1726 H1738 0.956 . S
C1726 H1739 0.961 . S
C1726 H1740 0.961 . S
C1727 C1724 1.539 . S
C1727 H1741 0.958 . S
C1727 H1742 0.961 . S
C1727 H1743 0.960 . S
H1728 C1712 0.931 . S
H1729 C1717 0.929 . S
H1730 C1718 0.960 . S
H1731 C1718 0.962 . S
H1732 C1718 0.960 . S
H1733 C1719 0.961 . S
H1734 C1719 0.961 . S
H1735 C1719 0.961 . S
H1736 C1720 0.931 . S
H1737 C1725 0.930 . S
H1738 C1726 0.956 . S
H1739 C1726 0.961 . S
H1740 C1726 0.961 . S
H1741 C1727 0.958 . S
H1742 C1727 0.961 . S
H1743 C1727 0.960 . S
C1744 C1745 1.391 . S
C1744 C1746 1.394 . S
C1744 H1760 0.931 . S
C1745 C1744 1.391 . S
C1745 C1749 1.376 . S
C1746 C1744 1.394 . S
C1746 C1747 1.369 . S
C1746 C1750 1.531 . S
C1747 C1746 1.369 . S
C1747 C1748 1.410 . S
C1747 C1755 1.503 . S
C1748 C1747 1.410 . S
C1748 C1749 1.392 . S
C1748 C1751 1.511 . S
C1749 C1745 1.376 . S
C1749 C1748 1.392 . S
C1749 H1761 0.929 . S
C1750 C1746 1.531 . S
C1750 H1762 0.960 . S
C1750 H1763 0.962 . S
C1750 H1764 0.960 . S
C1751 C1748 1.511 . S
C1751 H1765 0.961 . S
C1751 H1766 0.961 . S
C1751 H1767 0.961 . S
C1752 C1753 1.370 . S
C1752 C1754 1.363 . S
C1752 H1768 0.931 . S
C1753 C1752 1.370 . S
C1753 C1757 1.408 . S
C1754 C1752 1.363 . S
C1754 C1755 1.370 . S
C1754 C1758 1.524 . S
C1755 C1747 1.503 . S
C1755 C1754 1.370 . S
C1755 C1756 1.403 . S
C1756 C1755 1.403 . S
C1756 C1757 1.404 . S
C1756 C1759 1.539 . S
C1757 C1753 1.408 . S
C1757 C1756 1.404 . S
C1757 H1769 0.930 . S
C1758 C1754 1.524 . S
C1758 H1770 0.956 . S
C1758 H1771 0.961 . S
C1758 H1772 0.961 . S
C1759 C1756 1.539 . S
C1759 H1773 0.958 . S
C1759 H1774 0.961 . S
C1759 H1775 0.960 . S
H1760 C1744 0.931 . S
H1761 C1749 0.929 . S
H1762 C1750 0.960 . S
H1763 C1750 0.962 . S
H1764 C1750 0.960 . S
H1765 C1751 0.961 . S
H1766 C1751 0.961 . S
H1767 C1751 0.961 . S
H1768 C1752 0.931 . S
H1769 C1757 0.930 . S
H1770 C1758 0.956 . S
H1771 C1758 0.961 . S
H1772 C1758 0.961 . S
H1773 C1759 0.958 . S
H1774 C1759 0.961 . S
H1775 C1759 0.960 . S
C1776 C1777 1.391 . S
C1776 C1778 1.394 . S
C1776 H1792 0.931 . S
C1777 C1776 1.391 . S
C1777 C1781 1.376 . S
C1778 C1776 1.394 . S
C1778 C1779 1.369 . S
C1778 C1782 1.531 . S
C1779 C1778 1.369 . S
C1779 C1780 1.410 . S
C1779 C1787 1.503 . S
C1780 C1779 1.410 . S
C1780 C1781 1.392 . S
C1780 C1783 1.511 . S
C1781 C1777 1.376 . S
C1781 C1780 1.392 . S
C1781 H1793 0.929 . S
C1782 C1778 1.531 . S
C1782 H1794 0.960 . S
C1782 H1795 0.962 . S
C1782 H1796 0.960 . S
C1783 C1780 1.511 . S
C1783 H1797 0.961 . S
C1783 H1798 0.961 . S
C1783 H1799 0.961 . S
C1784 C1785 1.370 . S
C1784 C1786 1.363 . S
C1784 H1800 0.931 . S
C1785 C1784 1.370 . S
C1785 C1789 1.408 . S
C1786 C1784 1.363 . S
C1786 C1787 1.370 . S
C1786 C1790 1.524 . S
C1787 C1779 1.503 . S
C1787 C1786 1.370 . S
C1787 C1788 1.403 . S
C1788 C1787 1.403 . S
C1788 C1789 1.404 . S
C1788 C1791 1.539 . S
C1789 C1785 1.408 . S
C1789 C1788 1.404 . S
C1789 H1801 0.930 . S
C1790 C1786 1.524 . S
C1790 H1802 0.956 . S
C1790 H1803 0.961 . S
C1790 H1804 0.961 . S
C1791 C1788 1.539 . S
C1791 H1805 0.958 . S
C1791 H1806 0.961 . S
C1791 H1807 0.960 . S
H1792 C1776 0.931 . S
H1793 C1781 0.929 . S
H1794 C1782 0.960 . S
H1795 C1782 0.962 . S
H1796 C1782 0.960 . S
H1797 C1783 0.961 . S
H1798 C1783 0.961 . S
H1799 C1783 0.961 . S
H1800 C1784 0.931 . S
H1801 C1789 0.930 . S
H1802 C1790 0.956 . S
H1803 C1790 0.961 . S
H1804 C1790 0.961 . S
H1805 C1791 0.958 . S
H1806 C1791 0.961 . S
H1807 C1791 0.960 . S
C1808 C1809 1.391 . S
C1808 C1810 1.394 . S
C1808 H1824 0.931 . S
C1809 C1808 1.391 . S
C1809 C1813 1.376 . S
C1810 C1808 1.394 . S
C1810 C1811 1.369 . S
C1810 C1814 1.531 . S
C1811 C1810 1.369 . S
C1811 C1812 1.410 . S
C1811 C1819 1.503 . S
C1812 C1811 1.410 . S
C1812 C1813 1.392 . S
C1812 C1815 1.511 . S
C1813 C1809 1.376 . S
C1813 C1812 1.392 . S
C1813 H1825 0.929 . S
C1814 C1810 1.531 . S
C1814 H1826 0.960 . S
C1814 H1827 0.962 . S
C1814 H1828 0.960 . S
C1815 C1812 1.511 . S
C1815 H1829 0.961 . S
C1815 H1830 0.961 . S
C1815 H1831 0.961 . S
C1816 C1817 1.370 . S
C1816 C1818 1.363 . S
C1816 H1832 0.931 . S
C1817 C1816 1.370 . S
C1817 C1821 1.408 . S
C1818 C1816 1.363 . S
C1818 C1819 1.370 . S
C1818 C1822 1.524 . S
C1819 C1811 1.503 . S
C1819 C1818 1.370 . S
C1819 C1820 1.403 . S
C1820 C1819 1.403 . S
C1820 C1821 1.404 . S
C1820 C1823 1.539 . S
C1821 C1817 1.408 . S
C1821 C1820 1.404 . S
C1821 H1833 0.930 . S
C1822 C1818 1.524 . S
C1822 H1834 0.956 . S
C1822 H1835 0.961 . S
C1822 H1836 0.961 . S
C1823 C1820 1.539 . S
C1823 H1837 0.958 . S
C1823 H1838 0.961 . S
C1823 H1839 0.960 . S
H1824 C1808 0.931 . S
H1825 C1813 0.929 . S
H1826 C1814 0.960 . S
H1827 C1814 0.962 . S
H1828 C1814 0.960 . S
H1829 C1815 0.961 . S
H1830 C1815 0.961 . S
H1831 C1815 0.961 . S
H1832 C1816 0.931 . S
H1833 C1821 0.930 . S
H1834 C1822 0.956 . S
H1835 C1822 0.961 . S
H1836 C1822 0.961 . S
H1837 C1823 0.958 . S
H1838 C1823 0.961 . S
H1839 C1823 0.960 . S
C1840 C1841 1.391 . S
C1840 C1842 1.394 . S
C1840 H1856 0.931 . S
C1841 C1840 1.391 . S
C1841 C1845 1.376 . S
C1842 C1840 1.394 . S
C1842 C1843 1.369 . S
C1842 C1846 1.531 . S
C1843 C1842 1.369 . S
C1843 C1844 1.410 . S
C1843 C1851 1.503 . S
C1844 C1843 1.410 . S
C1844 C1845 1.392 . S
C1844 C1847 1.511 . S
C1845 C1841 1.376 . S
C1845 C1844 1.392 . S
C1845 H1857 0.929 . S
C1846 C1842 1.531 . S
C1846 H1858 0.960 . S
C1846 H1859 0.962 . S
C1846 H1860 0.960 . S
C1847 C1844 1.511 . S
C1847 H1861 0.961 . S
C1847 H1862 0.961 . S
C1847 H1863 0.961 . S
C1848 C1849 1.370 . S
C1848 C1850 1.363 . S
C1848 H1864 0.931 . S
C1849 C1848 1.370 . S
C1849 C1853 1.408 . S
C1850 C1848 1.363 . S
C1850 C1851 1.370 . S
C1850 C1854 1.524 . S
C1851 C1843 1.503 . S
C1851 C1850 1.370 . S
C1851 C1852 1.403 . S
C1852 C1851 1.403 . S
C1852 C1853 1.404 . S
C1852 C1855 1.539 . S
C1853 C1849 1.408 . S
C1853 C1852 1.404 . S
C1853 H1865 0.930 . S
C1854 C1850 1.524 . S
C1854 H1866 0.956 . S
C1854 H1867 0.961 . S
C1854 H1868 0.961 . S
C1855 C1852 1.539 . S
C1855 H1869 0.958 . S
C1855 H1870 0.961 . S
C1855 H1871 0.960 . S
H1856 C1840 0.931 . S
H1857 C1845 0.929 . S
H1858 C1846 0.960 . S
H1859 C1846 0.962 . S
H1860 C1846 0.960 . S
H1861 C1847 0.961 . S
H1862 C1847 0.961 . S
H1863 C1847 0.961 . S
H1864 C1848 0.931 . S
H1865 C1853 0.930 . S
H1866 C1854 0.956 . S
H1867 C1854 0.961 . S
H1868 C1854 0.961 . S
H1869 C1855 0.958 . S
H1870 C1855 0.961 . S
H1871 C1855 0.960 . S
C337 C321 1.857 . S
C345 C13 1.840 . S
C369 C27 1.817 . S
C377 C237 1.844 . S
C401 C334 1.828 . S
C409 C40 1.848 . S
C433 C295 1.816 . S
C441 C43 1.842 . S
C465 C252 1.828 . S
C473 C57 1.849 . S
C497 C267 1.853 . S
C505 C71 1.845 . S
C529 C281 1.851 . S
C537 C85 1.834 . S
C561 C110 1.821 . S
C569 C239 1.836 . S
C593 C182 1.843 . S
C601 C125 1.849 . S
C625 C197 1.854 . S
C633 C138 1.835 . S
C657 C140 1.844 . S
C665 C211 1.833 . S
C689 C167 1.846 . S
C697 C181 1.848 . S
C721 C98 1.837 . S
C729 C209 1.850 . S
C753 C223 1.857 . S
C761 C69 1.842 . S
C785 C83 1.852 . S
C793 C169 1.846 . S
C817 C194 1.816 . S
C825 C97 1.840 . S
C849 C152 1.851 . S
C857 C15 1.835 . S
C881 C28 1.849 . S
C889 C155 1.847 . S
C913 C55 1.834 . S
C921 C113 1.833 . S
C945 C1 1.822 . S
C953 C126 1.847 . S
C977 C293 1.849 . S
C985 C307 1.834 . S
C1009 C309 1.842 . S
C1017 C251 1.833 . S
C1041 C264 1.855 . S
C1049 C225 1.843 . S
C1073 C322 1.856 . S
C1081 C279 1.839 . S
C1105 C12 1.071 . S
C1113 C112 1.100 . S
C1137 C127 1.139 . S
C1145 C26 1.090 . S
C1169 C41 1.145 . S
C1177 C153 1.095 . S
C1201 C42 1.109 . S
C1209 C154 1.089 . S
C1233 C56 1.083 . S
C1241 C168 1.095 . S
C1265 C70 1.100 . S
C1273 C195 1.091 . S
C1297 C208 1.113 . S
C1305 C84 1.088 . S
C1329 C222 1.146 . S
C1337 C111 1.095 . S
C1361 C124 1.146 . S
C1369 C224 1.094 . S
C1393 C139 1.113 . S
C1401 C323 1.126 . S
C1425 C306 1.101 . S
C1433 C141 1.127 . S
C1457 C308 1.149 . S
C1465 C166 1.106 . S
C1489 C250 1.072 . S
C1497 C180 1.124 . S
C1521 C265 1.107 . S
C1529 C183 1.127 . S
C1553 C196 1.100 . S
C1561 C278 1.090 . S
C1585 C210 1.111 . S
C1593 C292 1.124 . S
C1617 C0 1.062 . S
C1625 C236 1.106 . S
C1649 C238 1.060 . S
C1657 C68 1.109 . S
C1681 C253 1.063 . S
C1689 C82 1.119 . S
C1713 C266 1.063 . S
C1721 C96 1.106 . S
C1745 C280 1.149 . S
C1753 C99 1.107 . S
C1777 C294 1.090 . S
C1785 C29 1.093 . S
C1809 C54 1.074 . S
C1817 C320 1.125 . S
C1841 C335 1.067 . S
C1849 C14 1.121 . S
