# Generated by pormake.
# Topology snl, (6)-cn, num edge types: 1
# Building blocks:
#     Node 0, Type 0, BuildingBlock: HISSIN_clean_sbu_0, # of connection points: 6
#     Node 1, Type 0, BuildingBlock: HISSIN_clean_sbu_0, # of connection points: 6
#     Node 2, Type 0, BuildingBlock: HISSIN_clean_sbu_0, # of connection points: 6
#     Node 3, Type 0, BuildingBlock: HISSIN_clean_sbu_0, # of connection points: 6
#     Node 4, Type 0, BuildingBlock: HISSIN_clean_sbu_0, # of connection points: 6
#     Node 5, Type 0, BuildingBlock: HISSIN_clean_sbu_0, # of connection points: 6
#     Node 6, Type 0, BuildingBlock: HISSIN_clean_sbu_0, # of connection points: 6
#     Node 7, Type 0, BuildingBlock: HISSIN_clean_sbu_0, # of connection points: 6
#     Node 8, Type 0, BuildingBlock: HISSIN_clean_sbu_0, # of connection points: 6
#     Node 9, Type 0, BuildingBlock: HISSIN_clean_sbu_0, # of connection points: 6
#     Node 10, Type 0, BuildingBlock: HISSIN_clean_sbu_0, # of connection points: 6
#     Node 11, Type 0, BuildingBlock: HISSIN_clean_sbu_0, # of connection points: 6
#     Node 12, Type 0, BuildingBlock: HISSIN_clean_sbu_0, # of connection points: 6
#     Node 13, Type 0, BuildingBlock: HISSIN_clean_sbu_0, # of connection points: 6
#     Node 14, Type 0, BuildingBlock: HISSIN_clean_sbu_0, # of connection points: 6
#     Node 15, Type 0, BuildingBlock: HISSIN_clean_sbu_0, # of connection points: 6
#     Edge 16, Type (0, 0), BuildingBlock: ZUJKAS_clean_linker_0, # of connection points: 2
#     Edge 17, Type (0, 0), BuildingBlock: ZUJKAS_clean_linker_0, # of connection points: 2
#     Edge 18, Type (0, 0), BuildingBlock: ZUJKAS_clean_linker_0, # of connection points: 2
#     Edge 19, Type (0, 0), BuildingBlock: ZUJKAS_clean_linker_0, # of connection points: 2
#     Edge 20, Type (0, 0), BuildingBlock: ZUJKAS_clean_linker_0, # of connection points: 2
#     Edge 21, Type (0, 0), BuildingBlock: ZUJKAS_clean_linker_0, # of connection points: 2
#     Edge 22, Type (0, 0), BuildingBlock: ZUJKAS_clean_linker_0, # of connection points: 2
#     Edge 23, Type (0, 0), BuildingBlock: ZUJKAS_clean_linker_0, # of connection points: 2
#     Edge 24, Type (0, 0), BuildingBlock: ZUJKAS_clean_linker_0, # of connection points: 2
#     Edge 25, Type (0, 0), BuildingBlock: ZUJKAS_clean_linker_0, # of connection points: 2
#     Edge 26, Type (0, 0), BuildingBlock: ZUJKAS_clean_linker_0, # of connection points: 2
#     Edge 27, Type (0, 0), BuildingBlock: ZUJKAS_clean_linker_0, # of connection points: 2
#     Edge 28, Type (0, 0), BuildingBlock: ZUJKAS_clean_linker_0, # of connection points: 2
#     Edge 29, Type (0, 0), BuildingBlock: ZUJKAS_clean_linker_0, # of connection points: 2
#     Edge 30, Type (0, 0), BuildingBlock: ZUJKAS_clean_linker_0, # of connection points: 2
#     Edge 31, Type (0, 0), BuildingBlock: ZUJKAS_clean_linker_0, # of connection points: 2
#     Edge 32, Type (0, 0), BuildingBlock: ZUJKAS_clean_linker_0, # of connection points: 2
#     Edge 33, Type (0, 0), BuildingBlock: ZUJKAS_clean_linker_0, # of connection points: 2
#     Edge 34, Type (0, 0), BuildingBlock: ZUJKAS_clean_linker_0, # of connection points: 2
#     Edge 35, Type (0, 0), BuildingBlock: ZUJKAS_clean_linker_0, # of connection points: 2
#     Edge 36, Type (0, 0), BuildingBlock: ZUJKAS_clean_linker_0, # of connection points: 2
#     Edge 37, Type (0, 0), BuildingBlock: ZUJKAS_clean_linker_0, # of connection points: 2
#     Edge 38, Type (0, 0), BuildingBlock: ZUJKAS_clean_linker_0, # of connection points: 2
#     Edge 39, Type (0, 0), BuildingBlock: ZUJKAS_clean_linker_0, # of connection points: 2
#     Edge 40, Type (0, 0), BuildingBlock: ZUJKAS_clean_linker_0, # of connection points: 2
#     Edge 41, Type (0, 0), BuildingBlock: ZUJKAS_clean_linker_0, # of connection points: 2
#     Edge 42, Type (0, 0), BuildingBlock: ZUJKAS_clean_linker_0, # of connection points: 2
#     Edge 43, Type (0, 0), BuildingBlock: ZUJKAS_clean_linker_0, # of connection points: 2
#     Edge 44, Type (0, 0), BuildingBlock: ZUJKAS_clean_linker_0, # of connection points: 2
#     Edge 45, Type (0, 0), BuildingBlock: ZUJKAS_clean_linker_0, # of connection points: 2
#     Edge 46, Type (0, 0), BuildingBlock: ZUJKAS_clean_linker_0, # of connection points: 2
#     Edge 47, Type (0, 0), BuildingBlock: ZUJKAS_clean_linker_0, # of connection points: 2
#     Edge 48, Type (0, 0), BuildingBlock: ZUJKAS_clean_linker_0, # of connection points: 2
#     Edge 49, Type (0, 0), BuildingBlock: ZUJKAS_clean_linker_0, # of connection points: 2
#     Edge 50, Type (0, 0), BuildingBlock: ZUJKAS_clean_linker_0, # of connection points: 2
#     Edge 51, Type (0, 0), BuildingBlock: ZUJKAS_clean_linker_0, # of connection points: 2
#     Edge 52, Type (0, 0), BuildingBlock: ZUJKAS_clean_linker_0, # of connection points: 2
#     Edge 53, Type (0, 0), BuildingBlock: ZUJKAS_clean_linker_0, # of connection points: 2
#     Edge 54, Type (0, 0), BuildingBlock: ZUJKAS_clean_linker_0, # of connection points: 2
#     Edge 55, Type (0, 0), BuildingBlock: ZUJKAS_clean_linker_0, # of connection points: 2
#     Edge 56, Type (0, 0), BuildingBlock: ZUJKAS_clean_linker_0, # of connection points: 2
#     Edge 57, Type (0, 0), BuildingBlock: ZUJKAS_clean_linker_0, # of connection points: 2
#     Edge 58, Type (0, 0), BuildingBlock: ZUJKAS_clean_linker_0, # of connection points: 2
#     Edge 59, Type (0, 0), BuildingBlock: ZUJKAS_clean_linker_0, # of connection points: 2
#     Edge 60, Type (0, 0), BuildingBlock: ZUJKAS_clean_linker_0, # of connection points: 2
#     Edge 61, Type (0, 0), BuildingBlock: ZUJKAS_clean_linker_0, # of connection points: 2
#     Edge 62, Type (0, 0), BuildingBlock: ZUJKAS_clean_linker_0, # of connection points: 2
#     Edge 63, Type (0, 0), BuildingBlock: ZUJKAS_clean_linker_0, # of connection points: 2
# Relax obj value: 0.178
# Max RMSD: 0.211
# Mean RMSD: 0.211
data_MOF--net-snl--node1-HISSIN_clean_sbu_0--edge1-ZUJKAS_clean_linker_0
_symmetry_space_group_name_H-M    P1
_symmetry_Int_Tables_number       1
_symmetry_cell_setting            triclinic
loop_
_symmetry_equiv_pos_as_xyz
'x, y, z'
_cell_length_a     77.626717
_cell_length_b     72.441643
_cell_length_c     30.588474
_cell_angle_alpha  89.890666
_cell_angle_beta   90.105962
_cell_angle_gamma 90.002569
loop_
_atom_site_label
_atom_site_type_symbol
_atom_site_fract_x
_atom_site_fract_y
_atom_site_fract_z
_atom_type_partial_charge
Eu0 Eu 0.12212 0.62404 0.22138 0.0
Eu1 Eu 0.12659 0.64328 0.12264 0.0
C2 C 0.1586 0.63451 0.18432 0.0
C3 C 0.11812 0.61517 0.34686 0.0
C4 C 0.12744 0.62991 0.36513 0.0
C5 C 0.10707 0.60777 0.41934 0.0
C6 C 0.12683 0.63332 0.41022 0.0
C7 C 0.10776 0.60432 0.37431 0.0
C8 C 0.11682 0.62213 0.43804 0.0
C9 C 0.12011 0.60988 0.30035 0.0
O10 O 0.13081 0.613 0.11258 0.0
O11 O 0.11785 0.60053 0.17364 0.0
C12 C 0.12397 0.599 0.13362 0.0
O13 O 0.09608 0.63495 0.20112 0.0
O14 O 0.14306 0.64866 0.06611 0.0
O15 O 0.11713 0.65968 0.06755 0.0
O16 O 0.09919 0.63274 0.12681 0.0
C17 C 0.08936 0.63385 0.16171 0.0
O18 O 0.12671 0.65449 0.23383 0.0
O19 O 0.11844 0.66629 0.16702 0.0
O20 O 0.15121 0.64764 0.1613 0.0
O21 O 0.10684 0.61173 0.27447 0.0
O22 O 0.13447 0.61447 0.28121 0.0
O23 O 0.14942 0.62056 0.19842 0.0
C24 C 0.12923 0.65319 0.99779 0.0
C25 C 0.11818 0.63915 0.98309 0.0
C26 C 0.13731 0.65953 0.92243 0.0
C27 C 0.11665 0.6354 0.9382 0.0
C28 C 0.13877 0.66329 0.96712 0.0
C29 C 0.12625 0.64553 0.90726 0.0
C30 C 0.13117 0.65762 0.04466 0.0
C31 C 0.12198 0.6684 0.20874 0.0
H32 H 0.13551 0.63857 0.34475 0.0
H33 H 0.09936 0.59876 0.4397 0.0
H34 H 0.13429 0.64467 0.42335 0.0
H35 H 0.10055 0.5928 0.36108 0.0
H36 H 0.11077 0.63109 1.00627 0.0
H37 H 0.1447 0.66781 0.89968 0.0
H38 H 0.10814 0.6244 0.92777 0.0
H39 H 0.14735 0.6742 0.97778 0.0
Eu40 Eu 0.62242 0.90103 0.30431 0.0
Eu41 Eu 0.62745 0.88183 0.40282 0.0
C42 C 0.65917 0.89096 0.34063 0.0
C43 C 0.61834 0.90971 0.17882 0.0
C44 C 0.62876 0.89588 0.16046 0.0
C45 C 0.60657 0.91608 0.10641 0.0
C46 C 0.62832 0.89244 0.11538 0.0
C47 C 0.60709 0.91958 0.15144 0.0
C48 C 0.6174 0.90268 0.08764 0.0
C49 C 0.62002 0.91515 0.22535 0.0
O50 O 0.63149 0.91212 0.41279 0.0
O51 O 0.61807 0.9245 0.35219 0.0
C52 C 0.62439 0.92606 0.39208 0.0
O53 O 0.59654 0.88995 0.32491 0.0
O54 O 0.64416 0.87664 0.45918 0.0
O55 O 0.61836 0.86526 0.45793 0.0
O56 O 0.59988 0.89205 0.3992 0.0
C57 C 0.58993 0.89092 0.36439 0.0
O58 O 0.62724 0.8706 0.29174 0.0
O59 O 0.61923 0.85879 0.35864 0.0
O60 O 0.65203 0.87775 0.36386 0.0
O61 O 0.60679 0.9127 0.25095 0.0
O62 O 0.63451 0.91124 0.24484 0.0
O63 O 0.64977 0.90479 0.32678 0.0
C64 C 0.63057 0.87192 0.52766 0.0
C65 C 0.61835 0.88468 0.54287 0.0
C66 C 0.63982 0.86654 0.60264 0.0
C67 C 0.61681 0.88824 0.58783 0.0
C68 C 0.64129 0.86296 0.55789 0.0
C69 C 0.62755 0.8792 0.61833 0.0
C70 C 0.63242 0.86754 0.48074 0.0
C71 C 0.62262 0.85667 0.3169 0.0
H72 H 0.63753 0.88798 0.18075 0.0
H73 H 0.59811 0.92434 0.08609 0.0
H74 H 0.63664 0.88183 0.10219 0.0
H75 H 0.59901 0.93039 0.16474 0.0
H76 H 0.61 0.89185 0.52006 0.0
H77 H 0.64813 0.8591 0.62505 0.0
H78 H 0.60735 0.89821 0.59865 0.0
H79 H 0.65078 0.85304 0.54686 0.0
Eu80 Eu 0.37548 0.40392 0.72746 0.0
Eu81 Eu 0.36547 0.38661 0.62894 0.0
C82 C 0.33612 0.39575 0.70198 0.0
C83 C 0.38196 0.41298 0.85217 0.0
C84 C 0.36846 0.40214 0.86878 0.0
C85 C 0.39237 0.41775 0.92645 0.0
C86 C 0.3669 0.3992 0.91404 0.0
C87 C 0.39392 0.42064 0.88136 0.0
C88 C 0.37879 0.40708 0.94356 0.0
C89 C 0.38386 0.41678 0.80487 0.0
O90 O 0.37561 0.41505 0.61724 0.0
O91 O 0.369 0.42832 0.68317 0.0
C92 C 0.37279 0.42968 0.64126 0.0
O93 O 0.39922 0.4062 0.68585 0.0
O94 O 0.35012 0.38879 0.56941 0.0
O95 O 0.36842 0.36638 0.57619 0.0
O96 O 0.39414 0.38182 0.63987 0.0
C97 C 0.4048 0.39351 0.65877 0.0
O98 O 0.37836 0.37274 0.73163 0.0
O99 O 0.35971 0.36408 0.67691 0.0
O100 O 0.34033 0.39579 0.66023 0.0
O101 O 0.39349 0.40549 0.78249 0.0
O102 O 0.3701 0.4218 0.78328 0.0
O103 O 0.3478 0.39547 0.73303 0.0
C104 C 0.36132 0.37637 0.50384 0.0
C105 C 0.37437 0.38818 0.48873 0.0
C106 C 0.35396 0.36903 0.42847 0.0
C107 C 0.37718 0.3904 0.44362 0.0
C108 C 0.35123 0.3668 0.47337 0.0
C109 C 0.36694 0.3809 0.41279 0.0
C110 C 0.35719 0.37451 0.55078 0.0
C111 C 0.36868 0.36026 0.71218 0.0
H112 H 0.35908 0.39607 0.84683 0.0
H113 H 0.40195 0.42376 0.94789 0.0
H114 H 0.3562 0.39104 0.92595 0.0
H115 H 0.40448 0.42898 0.86925 0.0
H116 H 0.38225 0.39578 0.51176 0.0
H117 H 0.34557 0.36176 0.40605 0.0
H118 H 0.3874 0.39951 0.43295 0.0
H119 H 0.34096 0.35779 0.48432 0.0
Eu120 Eu 0.87246 0.12257 0.80377 0.0
Eu121 Eu 0.86796 0.14137 0.90252 0.0
C122 C 0.83596 0.13249 0.84104 0.0
C123 C 0.87722 0.11332 0.67873 0.0
C124 C 0.87303 0.13087 0.66223 0.0
C125 C 0.88428 0.10334 0.60497 0.0
C126 C 0.87422 0.13453 0.61727 0.0
C127 C 0.88306 0.0997 0.64982 0.0
C128 C 0.87965 0.12072 0.58793 0.0
C129 C 0.87422 0.10836 0.72499 0.0
O130 O 0.86375 0.11107 0.91235 0.0
O131 O 0.8768 0.09889 0.85131 0.0
C132 C 0.87059 0.09713 0.89121 0.0
O133 O 0.89843 0.13379 0.82329 0.0
O134 O 0.85166 0.1461 0.95971 0.0
O135 O 0.8773 0.15787 0.95739 0.0
O136 O 0.89551 0.13123 0.89761 0.0
C137 C 0.90527 0.13265 0.86256 0.0
O138 O 0.86814 0.15312 0.79136 0.0
O139 O 0.87571 0.16479 0.85876 0.0
O140 O 0.84322 0.14567 0.86406 0.0
O141 O 0.88728 0.10893 0.75187 0.0
O142 O 0.86012 0.11458 0.74273 0.0
O143 O 0.84529 0.11864 0.82721 0.0
C144 C 0.86592 0.15028 0.02787 0.0
C145 C 0.88192 0.1446 0.04488 0.0
C146 C 0.85386 0.1487 0.10127 0.0
C147 C 0.88388 0.14118 0.08979 0.0
C148 C 0.85194 0.1522 0.05651 0.0
C149 C 0.86988 0.14327 0.11862 0.0
C150 C 0.86357 0.15505 0.98106 0.0
C151 C 0.87251 0.16699 0.81689 0.0
H152 H 0.86849 0.14161 0.68394 0.0
H153 H 0.8883 0.09229 0.58349 0.0
H154 H 0.87078 0.14814 0.60547 0.0
H155 H 0.88622 0.08603 0.6618 0.0
H156 H 0.89295 0.14294 0.02362 0.0
H157 H 0.84285 0.1507 0.12245 0.0
H158 H 0.89635 0.13681 0.10191 0.0
H159 H 0.8395 0.15668 0.04429 0.0
Eu160 Eu 0.12224 0.40297 0.80593 0.0
Eu161 Eu 0.12661 0.38385 0.90463 0.0
C162 C 0.15863 0.39398 0.84508 0.0
C163 C 0.11828 0.41154 0.68029 0.0
C164 C 0.12762 0.39685 0.66191 0.0
C165 C 0.10698 0.41888 0.60793 0.0
C166 C 0.12689 0.39346 0.61683 0.0
C167 C 0.10778 0.42233 0.65296 0.0
C168 C 0.11677 0.40461 0.58912 0.0
C169 C 0.12049 0.41691 0.72673 0.0
O170 O 0.13006 0.41423 0.91532 0.0
O171 O 0.11763 0.42655 0.85322 0.0
C172 C 0.12342 0.42818 0.8936 0.0
O173 O 0.09618 0.39196 0.82541 0.0
O174 O 0.14308 0.37871 0.96142 0.0
O175 O 0.11736 0.36714 0.95934 0.0
O176 O 0.09909 0.39402 0.89986 0.0
C177 C 0.08936 0.39297 0.86466 0.0
O178 O 0.12729 0.37256 0.79389 0.0
O179 O 0.11868 0.36075 0.86026 0.0
O180 O 0.15141 0.38027 0.86638 0.0
O181 O 0.10722 0.41559 0.75266 0.0
O182 O 0.13476 0.41192 0.74594 0.0
O183 O 0.14913 0.40768 0.831 0.0
C184 C 0.12924 0.37372 0.02942 0.0
C185 C 0.11783 0.38741 0.04411 0.0
C186 C 0.13733 0.36736 0.10483 0.0
C187 C 0.11614 0.39098 0.08903 0.0
C188 C 0.13896 0.36378 0.06011 0.0
C189 C 0.1259 0.381 0.12 0.0
C190 C 0.13132 0.36944 0.98253 0.0
C191 C 0.12247 0.35862 0.81875 0.0
H192 H 0.13579 0.38823 0.68218 0.0
H193 H 0.09916 0.42786 0.58764 0.0
H194 H 0.1344 0.38218 0.6036 0.0
H195 H 0.10056 0.43381 0.66627 0.0
H196 H 0.11027 0.39532 0.02091 0.0
H197 H 0.14486 0.3592 0.12759 0.0
H198 H 0.10735 0.4017 0.09945 0.0
H199 H 0.14781 0.35314 0.04945 0.0
Eu200 Eu 0.87133 0.90206 0.2245 0.0
Eu201 Eu 0.86691 0.88273 0.12596 0.0
C202 C 0.83487 0.89203 0.1869 0.0
C203 C 0.87554 0.91111 0.34992 0.0
C204 C 0.86674 0.89611 0.36873 0.0
C205 C 0.88659 0.91914 0.42204 0.0
C206 C 0.86762 0.89287 0.4139 0.0
C207 C 0.88565 0.92241 0.37693 0.0
C208 C 0.87734 0.90453 0.44135 0.0
C209 C 0.87317 0.91624 0.30335 0.0
O210 O 0.86339 0.91303 0.11471 0.0
O211 O 0.8757 0.9256 0.17661 0.0
C212 C 0.87004 0.92705 0.13605 0.0
O213 O 0.89737 0.89099 0.20514 0.0
O214 O 0.8506 0.87771 0.06884 0.0
O215 O 0.87614 0.86573 0.07187 0.0
O216 O 0.89446 0.89288 0.13062 0.0
C217 C 0.90419 0.89188 0.16587 0.0
O218 O 0.86667 0.87159 0.23723 0.0
O219 O 0.87496 0.85973 0.17069 0.0
O220 O 0.84215 0.87877 0.16427 0.0
O221 O 0.88638 0.91495 0.27724 0.0
O222 O 0.8589 0.91102 0.28454 0.0
O223 O 0.84417 0.90594 0.2006 0.0
C224 C 0.86462 0.87216 1.00133 0.0
C225 C 0.87537 0.88645 0.98653 0.0
C226 C 0.85781 0.86452 0.92585 0.0
C227 C 0.8774 0.88967 0.94152 0.0
C228 C 0.85583 0.86132 0.97066 0.0
C229 C 0.86871 0.87866 0.91052 0.0
C230 C 0.86229 0.86816 0.04831 0.0
C231 C 0.87139 0.85765 0.21236 0.0
H232 H 0.8588 0.88717 0.34873 0.0
H233 H 0.89447 0.92821 0.44183 0.0
H234 H 0.86019 0.88158 0.42746 0.0
H235 H 0.89254 0.93406 0.36324 0.0
H236 H 0.88225 0.89502 1.00973 0.0
H237 H 0.85063 0.856 0.90319 0.0
H238 H 0.88598 0.90059 0.93103 0.0
H239 H 0.84737 0.85032 0.98141 0.0
Eu240 Eu 0.37303 0.62256 0.30142 0.0
Eu241 Eu 0.366 0.6411 0.39947 0.0
C242 C 0.3352 0.63441 0.33124 0.0
C243 C 0.37636 0.61334 0.17593 0.0
C244 C 0.36289 0.60541 0.15156 0.0
C245 C 0.38734 0.62717 0.10867 0.0
C246 C 0.36168 0.60827 0.10631 0.0
C247 C 0.38852 0.62435 0.1539 0.0
C248 C 0.37401 0.61902 0.08415 0.0
C249 C 0.37848 0.60882 0.22314 0.0
O250 O 0.35999 0.61097 0.40532 0.0
O251 O 0.37707 0.59943 0.35069 0.0
C252 C 0.36849 0.59727 0.3875 0.0
O253 O 0.39842 0.63282 0.32729 0.0
O254 O 0.34876 0.6456 0.4549 0.0
O255 O 0.37428 0.65762 0.45543 0.0
O256 O 0.39343 0.6303 0.40074 0.0
C257 C 0.40414 0.63148 0.36757 0.0
O258 O 0.36719 0.65273 0.28859 0.0
O259 O 0.37495 0.66418 0.35591 0.0
O260 O 0.34201 0.64633 0.35871 0.0
O261 O 0.38987 0.61813 0.24534 0.0
O262 O 0.36468 0.60552 0.24609 0.0
O263 O 0.34454 0.62117 0.31423 0.0
C264 C 0.3617 0.65038 0.52417 0.0
C265 C 0.37251 0.63616 0.53915 0.0
C266 C 0.35334 0.6567 0.59927 0.0
C267 C 0.37378 0.6323 0.58406 0.0
C268 C 0.35214 0.66056 0.55455 0.0
C269 C 0.36417 0.64251 0.61472 0.0
C270 C 0.36008 0.65494 0.47728 0.0
C271 C 0.37166 0.66655 0.3141 0.0
H272 H 0.35346 0.59663 0.16734 0.0
H273 H 0.39694 0.63572 0.09287 0.0
H274 H 0.35136 0.60158 0.0885 0.0
H275 H 0.39917 0.63057 0.17142 0.0
H276 H 0.37994 0.62807 0.51617 0.0
H277 H 0.34596 0.66504 0.62182 0.0
H278 H 0.38211 0.62117 0.59472 0.0
H279 H 0.34375 0.67162 0.54366 0.0
Eu280 Eu 0.62342 0.12122 0.72258 0.0
Eu281 Eu 0.62843 0.1402 0.62398 0.0
C282 C 0.66018 0.13153 0.68678 0.0
C283 C 0.61931 0.11262 0.84797 0.0
C284 C 0.63028 0.12593 0.86658 0.0
C285 C 0.60704 0.10694 0.92003 0.0
C286 C 0.62984 0.12944 0.91162 0.0
C287 C 0.60756 0.10336 0.87505 0.0
C288 C 0.61838 0.1198 0.93905 0.0
C289 C 0.62085 0.10712 0.80148 0.0
O290 O 0.63269 0.1099 0.61456 0.0
O291 O 0.61888 0.09779 0.6747 0.0
C292 C 0.62538 0.09605 0.63512 0.0
O293 O 0.5976 0.13242 0.70173 0.0
O294 O 0.64507 0.1453 0.5676 0.0
O295 O 0.61927 0.15671 0.56879 0.0
O296 O 0.60087 0.12998 0.62754 0.0
C297 C 0.59095 0.13124 0.66228 0.0
O298 O 0.6283 0.15162 0.73513 0.0
O299 O 0.62041 0.16337 0.668 0.0
O300 O 0.65298 0.14456 0.66306 0.0
O301 O 0.60765 0.10986 0.77587 0.0
O302 O 0.6354 0.11066 0.78199 0.0
O303 O 0.65088 0.11767 0.70088 0.0
C304 C 0.63141 0.15003 0.49908 0.0
C305 C 0.61863 0.13795 0.48357 0.0
C306 C 0.64109 0.15487 0.42434 0.0
C307 C 0.61705 0.13446 0.43859 0.0
C308 C 0.64262 0.15838 0.46912 0.0
C309 C 0.62827 0.14289 0.40837 0.0
C310 C 0.63331 0.1544 0.54601 0.0
C311 C 0.62383 0.16554 0.70975 0.0
H312 H 0.63944 0.13337 0.84652 0.0
H313 H 0.59816 0.09914 0.94014 0.0
H314 H 0.63856 0.13964 0.92501 0.0
H315 H 0.59905 0.09295 0.86156 0.0
H316 H 0.60989 0.13125 0.50617 0.0
H317 H 0.6498 0.16183 0.40213 0.0
H318 H 0.60715 0.12501 0.42754 0.0
H319 H 0.65254 0.16778 0.48038 0.0
Eu320 Eu 0.86648 0.38295 0.9047 0.0
Eu321 Eu 0.87076 0.40198 0.80627 0.0
C322 C 0.9036 0.39225 0.86453 0.0
C323 C 0.86578 0.37383 0.03015 0.0
C324 C 0.87796 0.36386 0.05466 0.0
C325 C 0.85774 0.3904 0.09642 0.0
C326 C 0.87997 0.36704 0.09952 0.0
C327 C 0.85578 0.38726 0.05148 0.0
C328 C 0.86974 0.38019 0.1212 0.0
C329 C 0.86291 0.36911 0.98346 0.0
O330 O 0.86666 0.37146 0.79329 0.0
O331 O 0.87414 0.35965 0.86072 0.0
C332 C 0.87098 0.35752 0.81882 0.0
O333 O 0.84173 0.37824 0.86664 0.0
O334 O 0.88564 0.41561 0.75435 0.0
O335 O 0.85832 0.4107 0.74589 0.0
O336 O 0.8435 0.40532 0.82954 0.0
C337 C 0.83435 0.3913 0.84335 0.0
O338 O 0.8612 0.41309 0.91394 0.0
O339 O 0.87513 0.4254 0.85437 0.0
O340 O 0.89673 0.39076 0.82542 0.0
O341 O 0.85071 0.37782 0.96244 0.0
O342 O 0.87648 0.36644 0.95916 0.0
O343 O 0.89384 0.39373 0.89952 0.0
C344 C 0.8752 0.41174 0.6814 0.0
C345 C 0.86877 0.39526 0.66355 0.0
C346 C 0.88409 0.4214 0.60861 0.0
C347 C 0.86971 0.39204 0.61842 0.0
C348 C 0.88311 0.42461 0.65365 0.0
C349 C 0.87711 0.40524 0.59021 0.0
C350 C 0.87249 0.41659 0.72782 0.0
C351 C 0.86828 0.42712 0.89357 0.0
H352 H 0.88579 0.35336 0.03921 0.0
H353 H 0.84948 0.40048 0.11194 0.0
H354 H 0.88954 0.35911 0.11723 0.0
H355 H 0.84618 0.39513 0.03372 0.0
H356 H 0.86258 0.3851 0.68429 0.0
H357 H 0.89018 0.43171 0.58815 0.0
H358 H 0.86408 0.3795 0.6055 0.0
H359 H 0.88816 0.43742 0.66669 0.0
Eu360 Eu 0.36823 0.14097 0.62399 0.0
Eu361 Eu 0.37234 0.12188 0.72233 0.0
C362 C 0.40527 0.13076 0.66332 0.0
C363 C 0.36718 0.15051 0.49881 0.0
C364 C 0.37764 0.16194 0.47295 0.0
C365 C 0.36038 0.13238 0.43393 0.0
C366 C 0.37939 0.15872 0.42807 0.0
C367 C 0.35869 0.13556 0.47892 0.0
C368 C 0.37061 0.14404 0.40775 0.0
C369 C 0.36457 0.15515 0.54556 0.0
O370 O 0.36862 0.15252 0.73468 0.0
O371 O 0.37749 0.16365 0.66785 0.0
C372 C 0.37406 0.16605 0.70944 0.0
O373 O 0.34364 0.14612 0.66231 0.0
O374 O 0.38716 0.1085 0.77487 0.0
O375 O 0.35979 0.11317 0.78246 0.0
O376 O 0.34503 0.11893 0.69897 0.0
C377 C 0.33605 0.1331 0.68521 0.0
O378 O 0.36274 0.1109 0.61435 0.0
O379 O 0.37615 0.09827 0.67451 0.0
O380 O 0.39858 0.13223 0.7026 0.0
O381 O 0.35233 0.14658 0.56661 0.0
O382 O 0.37829 0.15745 0.56961 0.0
O383 O 0.39535 0.1295 0.62847 0.0
C384 C 0.37651 0.11248 0.84752 0.0
C385 C 0.3689 0.1283 0.86571 0.0
C386 C 0.38653 0.10359 0.92001 0.0
C387 C 0.36984 0.13154 0.91083 0.0
C388 C 0.38554 0.10033 0.87498 0.0
C389 C 0.37842 0.11905 0.93874 0.0
C390 C 0.37395 0.10749 0.80106 0.0
C391 C 0.36942 0.09672 0.63506 0.0
H392 H 0.38431 0.17357 0.48741 0.0
H393 H 0.35327 0.12106 0.41951 0.0
H394 H 0.38764 0.1678 0.40929 0.0
H395 H 0.35049 0.12649 0.49789 0.0
H396 H 0.36183 0.1379 0.84526 0.0
H397 H 0.39354 0.09385 0.94022 0.0
H398 H 0.36331 0.14351 0.92397 0.0
H399 H 0.3915 0.08804 0.8617 0.0
Eu400 Eu 0.62718 0.64054 0.40416 0.0
Eu401 Eu 0.62047 0.62205 0.30529 0.0
C402 C 0.58913 0.63203 0.36912 0.0
C403 C 0.63039 0.65084 0.52885 0.0
C404 C 0.62052 0.63586 0.5437 0.0
C405 C 0.63607 0.65951 0.60428 0.0
C406 C 0.61839 0.63278 0.58874 0.0
C407 C 0.63817 0.66256 0.55945 0.0
C408 C 0.62607 0.64464 0.61967 0.0
C409 C 0.63283 0.65467 0.48185 0.0
O410 O 0.626 0.65229 0.29248 0.0
O411 O 0.61921 0.66394 0.36032 0.0
C412 C 0.62221 0.66621 0.31837 0.0
O413 O 0.65162 0.6444 0.36459 0.0
O414 O 0.60348 0.61249 0.25241 0.0
O415 O 0.63109 0.61 0.24595 0.0
O416 O 0.64836 0.61853 0.32314 0.0
C417 C 0.65809 0.63182 0.33842 0.0
O418 O 0.63112 0.61013 0.41275 0.0
O419 O 0.6164 0.59853 0.35336 0.0
O420 O 0.59517 0.63346 0.32914 0.0
O421 O 0.64388 0.64438 0.46106 0.0
O422 O 0.61905 0.65796 0.45862 0.0
O423 O 0.59957 0.63046 0.40287 0.0
C424 C 0.61504 0.61286 0.18015 0.0
C425 C 0.62411 0.62795 0.16269 0.0
C426 C 0.60557 0.60477 0.10673 0.0
C427 C 0.62409 0.63126 0.11745 0.0
C428 C 0.60561 0.60149 0.15185 0.0
C429 C 0.61503 0.61952 0.08876 0.0
C430 C 0.6162 0.60784 0.22697 0.0
C431 C 0.62342 0.59648 0.39236 0.0
H432 H 0.61443 0.62663 0.52053 0.0
H433 H 0.64247 0.66873 0.62692 0.0
H434 H 0.6105 0.62128 0.59928 0.0
H435 H 0.64593 0.67413 0.54864 0.0
H436 H 0.63153 0.63692 0.18388 0.0
H437 H 0.59818 0.59565 0.08589 0.0
H438 H 0.63162 0.64267 0.10487 0.0
H439 H 0.59851 0.58977 0.16459 0.0
Eu440 Eu 0.12724 0.88378 0.1236 0.0
Eu441 Eu 0.12304 0.90301 0.22226 0.0
C442 C 0.09006 0.89299 0.16374 0.0
C443 C 0.12965 0.87375 0.9988 0.0
C444 C 0.11959 0.88864 0.98414 0.0
C445 C 0.13669 0.86644 0.92333 0.0
C446 C 0.11805 0.89236 0.9392 0.0
C447 C 0.13816 0.86272 0.96807 0.0
C448 C 0.12665 0.88133 0.90819 0.0
C449 C 0.13164 0.86938 0.04572 0.0
O450 O 0.12737 0.87248 0.2349 0.0
O451 O 0.11925 0.86072 0.16802 0.0
C452 C 0.12271 0.85858 0.20977 0.0
O453 O 0.15197 0.8794 0.16207 0.0
O454 O 0.10814 0.91604 0.27495 0.0
O455 O 0.13559 0.9118 0.2824 0.0
O456 O 0.15025 0.90653 0.19867 0.0
C457 C 0.15939 0.89252 0.18493 0.0
O458 O 0.1314 0.91402 0.113 0.0
O459 O 0.11881 0.9266 0.17433 0.0
O460 O 0.09696 0.89202 0.20297 0.0
O461 O 0.14358 0.87835 0.06692 0.0
O462 O 0.11763 0.86742 0.06875 0.0
O463 O 0.09974 0.89409 0.1285 0.0
C464 C 0.11899 0.91192 0.34762 0.0
C465 C 0.12719 0.89638 0.3658 0.0
C466 C 0.10862 0.92013 0.42018 0.0
C467 C 0.12637 0.89296 0.41089 0.0
C468 C 0.10952 0.92359 0.37515 0.0
C469 C 0.11728 0.90495 0.43881 0.0
C470 C 0.12138 0.91715 0.30115 0.0
C471 C 0.12473 0.92806 0.13406 0.0
H472 H 0.11298 0.8974 1.0074 0.0
H473 H 0.14327 0.85747 0.90054 0.0
H474 H 0.11035 0.90404 0.92879 0.0
H475 H 0.14596 0.85114 0.97871 0.0
H476 H 0.13455 0.8871 0.34533 0.0
H477 H 0.10165 0.92976 0.4406 0.0
H478 H 0.13297 0.88099 0.42396 0.0
H479 H 0.10319 0.93572 0.36197 0.0
Eu480 Eu 0.86604 0.64178 0.1245 0.0
Eu481 Eu 0.87196 0.62294 0.22327 0.0
C482 C 0.90379 0.63367 0.16233 0.0
C483 C 0.86331 0.65174 0.99946 0.0
C484 C 0.87514 0.63847 0.98478 0.0
C485 C 0.85557 0.65837 0.92394 0.0
C486 C 0.87723 0.63526 0.93981 0.0
C487 C 0.85351 0.66155 0.96871 0.0
C488 C 0.86755 0.64529 0.90874 0.0
C489 C 0.861 0.65585 0.04636 0.0
O490 O 0.86674 0.65326 0.23614 0.0
O491 O 0.87348 0.66523 0.16842 0.0
C492 C 0.87051 0.66729 0.21041 0.0
O493 O 0.84141 0.64564 0.16337 0.0
O494 O 0.88825 0.61148 0.27561 0.0
O495 O 0.86058 0.61245 0.28337 0.0
O496 O 0.84436 0.61923 0.20308 0.0
C497 C 0.83475 0.63278 0.18856 0.0
O498 O 0.86159 0.61148 0.116 0.0
O499 O 0.87633 0.59957 0.17499 0.0
O500 O 0.89729 0.635 0.20181 0.0
O501 O 0.84952 0.64617 0.06738 0.0
O502 O 0.87484 0.65866 0.06966 0.0
O503 O 0.89373 0.63187 0.12789 0.0
C504 C 0.87731 0.61393 0.34845 0.0
C505 C 0.86741 0.62807 0.36734 0.0
C506 C 0.88907 0.6068 0.42041 0.0
C507 C 0.86812 0.63131 0.41251 0.0
C508 C 0.88831 0.60354 0.37532 0.0
C509 C 0.87876 0.62051 0.43982 0.0
C510 C 0.87529 0.60871 0.3019 0.0
C511 C 0.86922 0.59768 0.13605 0.0
H512 H 0.88281 0.6307 1.00801 0.0
H513 H 0.84764 0.6661 0.90122 0.0
H514 H 0.88666 0.62518 0.9294 0.0
H515 H 0.84424 0.67177 0.97937 0.0
H516 H 0.85877 0.63629 0.34742 0.0
H517 H 0.89767 0.59844 0.44012 0.0
H518 H 0.85987 0.64187 0.42616 0.0
H519 H 0.89607 0.59256 0.36155 0.0
Eu520 Eu 0.12858 0.14255 0.90164 0.0
Eu521 Eu 0.12359 0.12377 0.80295 0.0
C522 C 0.09108 0.13363 0.86287 0.0
C523 C 0.13138 0.1522 0.02651 0.0
C524 C 0.11981 0.13863 0.04114 0.0
C525 C 0.13957 0.15824 0.10193 0.0
C526 C 0.11808 0.13497 0.08603 0.0
C527 C 0.14124 0.16191 0.05723 0.0
C528 C 0.12797 0.14474 0.11703 0.0
C529 C 0.13343 0.15664 0.97968 0.0
O530 O 0.12822 0.15427 0.79052 0.0
O531 O 0.12049 0.16581 0.8578 0.0
C532 C 0.12378 0.16811 0.81604 0.0
O533 O 0.15315 0.14693 0.86278 0.0
O534 O 0.108 0.11182 0.74997 0.0
O535 O 0.13566 0.11401 0.74314 0.0
O536 O 0.15099 0.12006 0.82521 0.0
C537 C 0.16033 0.13389 0.83923 0.0
O538 O 0.13274 0.11223 0.91131 0.0
O539 O 0.11918 0.10018 0.85069 0.0
O540 O 0.09772 0.13486 0.82346 0.0
O541 O 0.14514 0.14743 0.95836 0.0
O542 O 0.11945 0.15906 0.95663 0.0
O543 O 0.10101 0.13233 0.8977 0.0
C544 C 0.1192 0.11503 0.67754 0.0
C545 C 0.12892 0.12942 0.65898 0.0
C546 C 0.10781 0.10788 0.60525 0.0
C547 C 0.12834 0.13275 0.61384 0.0
C548 C 0.10847 0.1045 0.65034 0.0
C549 C 0.11797 0.12184 0.58626 0.0
C550 C 0.12118 0.10971 0.72408 0.0
C551 C 0.12557 0.0984 0.89047 0.0
H552 H 0.11214 0.13089 0.01791 0.0
H553 H 0.1472 0.16624 0.12473 0.0
H554 H 0.10915 0.12435 0.09642 0.0
H555 H 0.15021 0.17246 0.04662 0.0
H556 H 0.13728 0.13783 0.67917 0.0
H557 H 0.0998 0.09909 0.58507 0.0
H558 H 0.13614 0.14379 0.60046 0.0
H559 H 0.10094 0.09325 0.66382 0.0
Eu560 Eu 0.62775 0.38095 0.62119 0.0
Eu561 Eu 0.62269 0.39996 0.71978 0.0
C562 C 0.59039 0.3888 0.66048 0.0
C563 C 0.63003 0.37068 0.49644 0.0
C564 C 0.61955 0.38525 0.48187 0.0
C565 C 0.63627 0.36284 0.42082 0.0
C566 C 0.61736 0.38852 0.4369 0.0
C567 C 0.63841 0.3596 0.46559 0.0
C568 C 0.62563 0.37726 0.40573 0.0
C569 C 0.63249 0.36664 0.54336 0.0
O570 O 0.62784 0.36963 0.73268 0.0
O571 O 0.62018 0.35766 0.66565 0.0
C572 C 0.62354 0.35563 0.7075 0.0
O573 O 0.65243 0.3771 0.66004 0.0
O574 O 0.60714 0.41258 0.77184 0.0
O575 O 0.63465 0.40916 0.78031 0.0
O576 O 0.64997 0.40404 0.69725 0.0
C577 C 0.65946 0.39029 0.68349 0.0
O578 O 0.63138 0.41129 0.61089 0.0
O579 O 0.61809 0.42342 0.67177 0.0
O580 O 0.5972 0.3876 0.69977 0.0
O581 O 0.64406 0.37635 0.56403 0.0
O582 O 0.6187 0.36394 0.56686 0.0
O583 O 0.60014 0.39089 0.62566 0.0
C584 C 0.61773 0.40914 0.84503 0.0
C585 C 0.62653 0.39422 0.86429 0.0
C586 C 0.60662 0.41745 0.91678 0.0
C587 C 0.62563 0.39117 0.90953 0.0
C588 C 0.60757 0.42051 0.87161 0.0
C589 C 0.6159 0.40295 0.93657 0.0
C590 C 0.62022 0.41416 0.79846 0.0
C591 C 0.62426 0.42513 0.6318 0.0
H592 H 0.61299 0.39401 0.50521 0.0
H593 H 0.64312 0.35412 0.39801 0.0
H594 H 0.60898 0.39966 0.42658 0.0
H595 H 0.64666 0.34838 0.47617 0.0
H596 H 0.63451 0.38523 0.84461 0.0
H597 H 0.59872 0.42659 0.93626 0.0
H598 H 0.63308 0.37997 0.92347 0.0
H599 H 0.60068 0.43211 0.85756 0.0
Eu600 Eu 0.36674 0.88236 0.40266 0.0
Eu601 Eu 0.37189 0.90141 0.30409 0.0
C602 C 0.40424 0.89135 0.3645 0.0
C603 C 0.36397 0.87245 0.52767 0.0
C604 C 0.37424 0.88716 0.54235 0.0
C605 C 0.35693 0.86506 0.60317 0.0
C606 C 0.37587 0.89074 0.5873 0.0
C607 C 0.35535 0.86148 0.55841 0.0
C608 C 0.3672 0.87974 0.61833 0.0
C609 C 0.36199 0.86814 0.48075 0.0
O610 O 0.36724 0.87099 0.29126 0.0
O611 O 0.37462 0.85913 0.3587 0.0
C612 C 0.37146 0.85702 0.31679 0.0
O613 O 0.34223 0.87794 0.36342 0.0
O614 O 0.38757 0.91347 0.25144 0.0
O615 O 0.35992 0.91141 0.24415 0.0
O616 O 0.34441 0.90486 0.32569 0.0
C617 C 0.33508 0.89099 0.33964 0.0
O618 O 0.36179 0.91257 0.41142 0.0
O619 O 0.37617 0.92479 0.35237 0.0
O620 O 0.39765 0.8901 0.325 0.0
O621 O 0.35023 0.87729 0.4593 0.0
O622 O 0.37602 0.86593 0.45791 0.0
O623 O 0.39425 0.89276 0.39909 0.0
C624 C 0.3764 0.91051 0.17885 0.0
C625 C 0.36781 0.89516 0.16109 0.0
C626 C 0.38652 0.91852 0.10588 0.0
C627 C 0.36832 0.89174 0.11599 0.0
C628 C 0.38594 0.92197 0.15091 0.0
C629 C 0.37748 0.90353 0.08766 0.0
C630 C 0.37442 0.91574 0.22537 0.0
C631 C 0.36915 0.92652 0.3914 0.0
H632 H 0.38095 0.89586 0.5191 0.0
H633 H 0.35027 0.8561 0.62595 0.0
H634 H 0.38375 0.90227 0.5977 0.0
H635 H 0.3474 0.85004 0.54777 0.0
H636 H 0.36039 0.88604 0.18192 0.0
H637 H 0.39356 0.92801 0.08515 0.0
H638 H 0.36142 0.87991 0.10326 0.0
H639 H 0.39257 0.93396 0.16378 0.0
H640 H 0.09705 0.63794 0.8594 0.0
H641 H 0.09473 0.63281 0.78039 0.0
H642 H 0.1496 0.64005 0.76744 0.0
H643 H 0.1521 0.64466 0.84628 0.0
H644 H 0.10362 0.65675 0.71276 0.0
H645 H 0.1415 0.59211 0.70122 0.0
H646 H 0.13358 0.60092 0.75257 0.0
H647 H 0.15277 0.61042 0.72849 0.0
C648 C 0.10867 0.63814 0.83986 0.0
C649 C 0.12477 0.6417 0.85937 0.0
C650 C 0.1073 0.63533 0.79461 0.0
C651 C 0.12201 0.63581 0.76792 0.0
C652 C 0.13809 0.63928 0.78732 0.0
H653 H 0.14454 0.62992 0.4906 0.0
H654 H 0.14508 0.63359 0.57012 0.0
C655 C 0.13947 0.64213 0.83245 0.0
C656 C 0.12053 0.63337 0.71965 0.0
H657 H 0.13518 0.60744 0.63409 0.0
C658 C 0.1104 0.64587 0.6956 0.0
C659 C 0.12939 0.61919 0.69716 0.0
C660 C 0.13979 0.60478 0.72117 0.0
C661 C 0.10928 0.64489 0.64971 0.0
C662 C 0.11832 0.63086 0.6272 0.0
C663 C 0.12831 0.61825 0.65128 0.0
C664 C 0.11775 0.62911 0.57867 0.0
C665 C 0.09882 0.65921 0.62557 0.0
C666 C 0.10221 0.62529 0.55687 0.0
C667 C 0.10184 0.62324 0.51131 0.0
C668 C 0.11703 0.62495 0.48647 0.0
C669 C 0.13256 0.62881 0.50848 0.0
C670 C 0.13292 0.63077 0.55404 0.0
H671 H 0.09611 0.67146 0.64627 0.0
H672 H 0.1056 0.66385 0.59555 0.0
H673 H 0.08631 0.65309 0.61563 0.0
H674 H 0.09038 0.62367 0.57517 0.0
H675 H 0.08964 0.62037 0.49551 0.0
H676 H 0.64556 0.89755 0.03504 0.0
H677 H 0.64627 0.89396 0.95558 0.0
H678 H 0.59088 0.89787 0.95084 0.0
H679 H 0.59007 0.90158 0.03036 0.0
H680 H 0.63223 0.86768 0.90284 0.0
H681 H 0.60457 0.93606 0.86062 0.0
H682 H 0.61188 0.93043 0.91507 0.0
H683 H 0.59122 0.92249 0.89614 0.0
C684 C 0.6335 0.89752 0.01718 0.0
C685 C 0.61775 0.89991 0.03922 0.0
C686 C 0.63394 0.89556 0.97165 0.0
C687 C 0.61866 0.89598 0.94696 0.0
C688 C 0.60289 0.89801 0.9689 0.0
H689 H 0.59803 0.88354 0.66697 0.0
H690 H 0.59564 0.88763 0.74627 0.0
C691 C 0.60244 0.90007 0.01446 0.0
C692 C 0.61931 0.89391 0.89844 0.0
H693 H 0.60864 0.91512 0.80202 0.0
C694 C 0.62711 0.87809 0.88084 0.0
C695 C 0.61259 0.90746 0.86957 0.0
C696 C 0.60473 0.92515 0.8862 0.0
C697 C 0.62824 0.87536 0.83541 0.0
C698 C 0.62164 0.88895 0.80657 0.0
C699 C 0.61369 0.90469 0.82409 0.0
C700 C 0.62311 0.88717 0.75816 0.0
C701 C 0.63624 0.85775 0.81873 0.0
C702 C 0.63935 0.88602 0.73821 0.0
C703 C 0.64077 0.88375 0.69292 0.0
C704 C 0.62597 0.88268 0.66634 0.0
C705 C 0.60971 0.88441 0.68628 0.0
C706 C 0.60831 0.88667 0.73169 0.0
H707 H 0.63632 0.84676 0.84413 0.0
H708 H 0.62926 0.85254 0.78953 0.0
H709 H 0.64979 0.86049 0.80924 0.0
H710 H 0.65098 0.88687 0.75772 0.0
H711 H 0.65351 0.88288 0.67869 0.0
H712 H 0.3643 0.35497 0.34746 0.0
H713 H 0.36657 0.35963 0.26855 0.0
H714 H 0.37757 0.41727 0.28908 0.0
H715 H 0.37498 0.41286 0.36816 0.0
H716 H 0.34675 0.3838 0.21543 0.0
H717 H 0.41647 0.40048 0.2065 0.0
H718 H 0.40686 0.38965 0.25376 0.0
H719 H 0.40439 0.41403 0.24488 0.0
C720 C 0.36713 0.36869 0.33537 0.0
C721 C 0.36941 0.38354 0.36455 0.0
C722 C 0.36851 0.3713 0.29011 0.0
C723 C 0.3724 0.38875 0.27276 0.0
C724 C 0.37487 0.40359 0.30165 0.0
H725 H 0.38434 0.43237 1.00893 0.0
H726 H 0.38241 0.42774 0.08793 0.0
C727 C 0.37342 0.40102 0.34698 0.0
C728 C 0.37329 0.3915 0.22444 0.0
H729 H 0.40028 0.40412 0.14135 0.0
C730 C 0.35847 0.38817 0.1992 0.0
C731 C 0.38856 0.39727 0.20322 0.0
C732 C 0.40504 0.40043 0.22831 0.0
C733 C 0.35842 0.39075 0.15355 0.0
C734 C 0.37373 0.39642 0.13223 0.0
C735 C 0.38854 0.39977 0.15753 0.0
C736 C 0.37464 0.39913 0.08384 0.0
C737 C 0.34182 0.38784 0.12875 0.0
C738 C 0.37104 0.38456 0.0549 0.0
C739 C 0.37218 0.38715 1.00951 0.0
C740 C 0.3771 0.40434 0.99193 0.0
C741 C 0.38073 0.41887 0.0211 0.0
C742 C 0.37956 0.41628 0.06641 0.0
H743 H 0.33044 0.38862 0.15062 0.0
H744 H 0.3403 0.39825 0.10232 0.0
H745 H 0.34196 0.37394 0.11362 0.0
H746 H 0.36761 0.37106 0.06742 0.0
H747 H 0.36956 0.37555 0.98823 0.0
H748 H 0.90358 0.10904 0.52782 0.0
H749 H 0.90303 0.11319 0.44842 0.0
H750 H 0.85571 0.14399 0.45895 0.0
H751 H 0.85606 0.13978 0.53828 0.0
H752 H 0.87819 0.10168 0.38927 0.0
H753 H 0.88539 0.17781 0.38318 0.0
H754 H 0.88973 0.16453 0.43197 0.0
H755 H 0.86792 0.17008 0.41699 0.0
C756 C 0.89303 0.1167 0.51332 0.0
C757 C 0.87989 0.12411 0.53968 0.0
C758 C 0.89278 0.11912 0.46786 0.0
C759 C 0.87945 0.12911 0.44765 0.0
C760 C 0.86634 0.13659 0.4738 0.0
H761 H 0.8476 0.126 0.17506 0.0
H762 H 0.85044 0.1223 0.25426 0.0
C763 C 0.86658 0.13418 0.51927 0.0
C764 C 0.87893 0.13109 0.39914 0.0
H765 H 0.87794 0.16293 0.31647 0.0
C766 C 0.87821 0.11508 0.37336 0.0
C767 C 0.87916 0.14856 0.37827 0.0
C768 C 0.88075 0.16624 0.40394 0.0
C769 C 0.87734 0.11606 0.32746 0.0
C770 C 0.87697 0.13353 0.30667 0.0
C771 C 0.87807 0.14954 0.33238 0.0
C772 C 0.87539 0.13551 0.25833 0.0
C773 C 0.87704 0.09835 0.30156 0.0
C774 C 0.88833 0.14443 0.2342 0.0
C775 C 0.8867 0.14667 0.18885 0.0
C776 C 0.87198 0.14021 0.16667 0.0
C777 C 0.85904 0.13128 0.19102 0.0
C778 C 0.86072 0.12898 0.23631 0.0
H779 H 0.88192 0.0865 0.32107 0.0
H780 H 0.86358 0.09525 0.29176 0.0
H781 H 0.8849 0.09962 0.27142 0.0
H782 H 0.89972 0.14969 0.25049 0.0
H783 H 0.8968 0.15384 0.17132 0.0
H784 H 0.15158 0.38238 0.18164 0.0
H785 H 0.14878 0.38664 0.26056 0.0
H786 H 0.09382 0.39269 0.24618 0.0
H787 H 0.09644 0.38789 0.1672 0.0
H788 H 0.13575 0.41607 0.30795 0.0
H789 H 0.09764 0.3526 0.33988 0.0
H790 H 0.10871 0.35657 0.28888 0.0
H791 H 0.0885 0.36779 0.29956 0.0
C792 C 0.13886 0.38444 0.19522 0.0
C793 C 0.12422 0.3846 0.16794 0.0
C794 C 0.13729 0.38699 0.2404 0.0
C795 C 0.12106 0.38967 0.25953 0.0
C796 C 0.10645 0.39028 0.23236 0.0
H797 H 0.08953 0.40599 0.53154 0.0
H798 H 0.09029 0.40288 0.45174 0.0
C799 C 0.108 0.38775 0.18708 0.0
C800 C 0.11956 0.39195 0.30783 0.0
H801 H 0.10201 0.37271 0.3998 0.0
C802 C 0.12839 0.40657 0.32801 0.0
C803 C 0.10993 0.37957 0.3341 0.0
C804 C 0.10077 0.36314 0.31468 0.0
C805 C 0.12776 0.40923 0.37354 0.0
C806 C 0.11827 0.39676 0.39983 0.0
C807 C 0.10928 0.38226 0.37965 0.0
C808 C 0.11779 0.39837 0.44837 0.0
C809 C 0.13708 0.42553 0.39308 0.0
C810 C 0.13295 0.39655 0.47316 0.0
C811 C 0.13256 0.39831 0.51874 0.0
C812 C 0.11698 0.40192 0.54067 0.0
C813 C 0.10177 0.40344 0.51575 0.0
C814 C 0.10217 0.40158 0.47013 0.0
H815 H 0.13994 0.43626 0.36811 0.0
H816 H 0.12938 0.43189 0.41965 0.0
H817 H 0.14949 0.4208 0.40725 0.0
H818 H 0.14512 0.39379 0.45721 0.0
H819 H 0.14454 0.39722 0.53673 0.0
H820 H 0.87112 0.85264 0.84566 0.0
H821 H 0.87339 0.85758 0.76687 0.0
H822 H 0.87362 0.91646 0.787 0.0
H823 H 0.87115 0.91166 0.86602 0.0
H824 H 0.85064 0.87618 0.7121 0.0
H825 H 0.91527 0.9089 0.7072 0.0
H826 H 0.9074 0.89668 0.75464 0.0
H827 H 0.90027 0.91983 0.74354 0.0
C828 C 0.87158 0.86668 0.83346 0.0
C829 C 0.8709 0.88175 0.86245 0.0
C830 C 0.87298 0.86947 0.7883 0.0
C831 C 0.87388 0.88738 0.77089 0.0
C832 C 0.87331 0.90249 0.79963 0.0
H833 H 0.87693 0.93111 0.50538 0.0
H834 H 0.87626 0.92681 0.58463 0.0
C835 C 0.8719 0.89971 0.8449 0.0
C836 C 0.87476 0.89015 0.72261 0.0
H837 H 0.89941 0.90857 0.64082 0.0
C838 C 0.86134 0.88319 0.69651 0.0
C839 C 0.8887 0.89936 0.70221 0.0
C840 C 0.90382 0.90649 0.7282 0.0
C841 C 0.86136 0.88539 0.6508 0.0
C842 C 0.87533 0.89451 0.63036 0.0
C843 C 0.88871 0.90155 0.65644 0.0
C844 C 0.87621 0.89698 0.582 0.0
C845 C 0.8462 0.87829 0.62486 0.0
C846 C 0.87673 0.88165 0.55396 0.0
C847 C 0.87724 0.88405 0.50849 0.0
C848 C 0.87735 0.90187 0.48993 0.0
C849 C 0.87711 0.91719 0.51827 0.0
C850 C 0.87662 0.91476 0.56371 0.0
H851 H 0.83473 0.87599 0.64588 0.0
H852 H 0.84265 0.88808 0.59834 0.0
H853 H 0.84968 0.86491 0.60966 0.0
H854 H 0.8768 0.86779 0.56727 0.0
H855 H 0.87773 0.87192 0.4879 0.0
H856 H 0.39308 0.63452 0.6633 0.0
H857 H 0.39504 0.6293 0.74237 0.0
H858 H 0.34019 0.63708 0.75391 0.0
H859 H 0.33804 0.64183 0.67498 0.0
H860 H 0.38569 0.65371 0.80943 0.0
H861 H 0.34799 0.58885 0.8207 0.0
H862 H 0.3563 0.59756 0.76957 0.0
H863 H 0.33701 0.6072 0.79261 0.0
C864 C 0.38139 0.63482 0.68254 0.0
C865 C 0.3654 0.63859 0.66263 0.0
C866 C 0.38255 0.63196 0.72782 0.0
C867 C 0.36774 0.63258 0.75411 0.0
C868 C 0.35176 0.63622 0.73431 0.0
H869 H 0.3455 0.62457 0.03222 0.0
H870 H 0.3444 0.62797 0.95259 0.0
C871 C 0.35059 0.63914 0.68914 0.0
C872 C 0.36903 0.63015 0.80241 0.0
H873 H 0.35452 0.60388 0.88776 0.0
C874 C 0.37898 0.64273 0.82654 0.0
C875 C 0.36022 0.61588 0.82479 0.0
C876 C 0.3499 0.60148 0.80062 0.0
C877 C 0.38003 0.64171 0.87242 0.0
C878 C 0.37115 0.62748 0.89486 0.0
C879 C 0.36129 0.61483 0.87067 0.0
C880 C 0.37192 0.62546 0.94337 0.0
C881 C 0.39023 0.65623 0.89652 0.0
C882 C 0.38773 0.62268 0.96481 0.0
C883 C 0.3884 0.62072 1.01035 0.0
C884 C 0.37325 0.62133 0.03559 0.0
C885 C 0.3574 0.62389 0.01392 0.0
C886 C 0.35676 0.6259 0.96835 0.0
H887 H 0.39217 0.6688 0.87624 0.0
H888 H 0.38372 0.66026 0.92735 0.0
H889 H 0.40311 0.6506 0.90489 0.0
H890 H 0.39957 0.62179 0.94627 0.0
H891 H 0.40079 0.61838 0.02572 0.0
H892 H 0.64655 0.12348 0.99251 0.0
H893 H 0.64714 0.12711 0.07197 0.0
H894 H 0.59162 0.12622 0.07487 0.0
H895 H 0.59092 0.12247 0.99534 0.0
H896 H 0.63414 0.15418 0.12411 0.0
H897 H 0.60319 0.08737 0.16558 0.0
H898 H 0.61095 0.09257 0.11137 0.0
H899 H 0.59063 0.10163 0.12959 0.0
C900 C 0.63444 0.12418 1.00997 0.0
C901 C 0.61868 0.12262 0.98743 0.0
C902 C 0.63481 0.12617 0.05549 0.0
C903 C 0.61944 0.1266 0.07966 0.0
C904 C 0.60367 0.12541 0.05721 0.0
H905 H 0.59869 0.14024 0.35906 0.0
H906 H 0.59627 0.1363 0.27969 0.0
C907 C 0.60329 0.12333 1.01166 0.0
C908 C 0.62001 0.12866 0.12817 0.0
H909 H 0.60809 0.10808 0.22427 0.0
C910 C 0.62848 0.14406 0.14597 0.0
C911 C 0.61259 0.1155 0.15684 0.0
C912 C 0.60396 0.09825 0.13999 0.0
C913 C 0.6296 0.14674 0.19142 0.0
C914 C 0.6223 0.13352 0.22006 0.0
C915 C 0.61368 0.11821 0.20233 0.0
C916 C 0.62376 0.1352 0.26849 0.0
C917 C 0.63837 0.1639 0.20833 0.0
C918 C 0.63999 0.13543 0.28881 0.0
C919 C 0.64141 0.13761 0.33412 0.0
C920 C 0.62663 0.1395 0.36034 0.0
C921 C 0.61035 0.1387 0.34002 0.0
C922 C 0.60894 0.13654 0.29459 0.0
H923 H 0.63904 0.17487 0.18294 0.0
H924 H 0.63155 0.16948 0.23733 0.0
H925 H 0.65175 0.16044 0.21821 0.0
H926 H 0.6516 0.13393 0.26956 0.0
H927 H 0.65414 0.13774 0.34867 0.0
H928 H 0.86778 0.41259 0.1679 0.0
H929 H 0.86955 0.41664 0.24722 0.0
H930 H 0.87695 0.35807 0.26357 0.0
H931 H 0.87488 0.3538 0.18453 0.0
H932 H 0.84844 0.40031 0.31259 0.0
H933 H 0.91708 0.38064 0.33387 0.0
H934 H 0.90801 0.38661 0.28131 0.0
H935 H 0.90423 0.36417 0.30449 0.0
C936 C 0.8697 0.40053 0.18829 0.0
C937 C 0.87126 0.38286 0.16954 0.0
C938 C 0.8708 0.4029 0.23367 0.0
C939 C 0.87364 0.38771 0.26133 0.0
C940 C 0.87514 0.37006 0.24285 0.0
H941 H 0.88249 0.37322 0.54374 0.0
H942 H 0.8812 0.36893 0.46437 0.0
C943 C 0.87399 0.36766 0.19753 0.0
C944 C 0.87448 0.39021 0.30958 0.0
H945 H 0.90074 0.38476 0.39854 0.0
C946 C 0.8599 0.397 0.33138 0.0
C947 C 0.8894 0.38579 0.3341 0.0
C948 C 0.90564 0.37904 0.31233 0.0
C949 C 0.85974 0.3992 0.37705 0.0
C950 C 0.8747 0.39489 0.4016 0.0
C951 C 0.88927 0.38806 0.37978 0.0
C952 C 0.87554 0.39754 0.44986 0.0
C953 C 0.84338 0.40571 0.39868 0.0
C954 C 0.87304 0.41508 0.46819 0.0
C955 C 0.87364 0.41755 0.51353 0.0
C956 C 0.87691 0.40256 0.54174 0.0
C957 C 0.8797 0.38503 0.52319 0.0
C958 C 0.87908 0.38257 0.47775 0.0
H959 H 0.83193 0.40335 0.37755 0.0
H960 H 0.84131 0.39858 0.4304 0.0
H961 H 0.84432 0.42076 0.40498 0.0
H962 H 0.87063 0.42692 0.44739 0.0
H963 H 0.87124 0.43121 0.52649 0.0
H964 H 0.37176 0.17041 0.34311 0.0
H965 H 0.37358 0.16584 0.26413 0.0
H966 H 0.37362 0.10688 0.28314 0.0
H967 H 0.37216 0.11127 0.36236 0.0
H968 H 0.39923 0.14648 0.21506 0.0
H969 H 0.33415 0.11575 0.19433 0.0
H970 H 0.34037 0.12829 0.24283 0.0
H971 H 0.34748 0.10494 0.23508 0.0
C972 C 0.37235 0.15644 0.33069 0.0
C973 C 0.3718 0.14122 0.3594 0.0
C974 C 0.37328 0.15387 0.2854 0.0
C975 C 0.37352 0.13603 0.26765 0.0
C976 C 0.37312 0.12078 0.29605 0.0
H977 H 0.37519 0.09269 1.00278 0.0
H978 H 0.37488 0.09699 0.08193 0.0
C979 C 0.37225 0.12333 0.3414 0.0
C980 C 0.37439 0.13343 0.21944 0.0
H981 H 0.35217 0.11613 0.13208 0.0
C982 C 0.38893 0.13989 0.19685 0.0
C983 C 0.36095 0.1248 0.19576 0.0
C984 C 0.34477 0.11816 0.21804 0.0
C985 C 0.39054 0.13768 0.15135 0.0
C986 C 0.37705 0.12914 0.12756 0.0
C987 C 0.36251 0.12267 0.15023 0.0
C988 C 0.37776 0.12667 0.07921 0.0
C989 C 0.40687 0.14408 0.12939 0.0
C990 C 0.37938 0.14192 0.05107 0.0
C991 C 0.37976 0.13949 1.00563 0.0
C992 C 0.3784 0.12174 0.98722 0.0
C993 C 0.37663 0.10652 0.0156 0.0
C994 C 0.37629 0.10896 0.06098 0.0
H995 H 0.41766 0.1454 0.15311 0.0
H996 H 0.41081 0.13441 0.10311 0.0
H997 H 0.40466 0.15786 0.11449 0.0
H998 H 0.38016 0.15577 0.06421 0.0
H999 H 0.38122 0.15153 0.98495 0.0
H1000 H 0.61745 0.59307 0.0249 0.0
H1001 H 0.61883 0.59744 0.94574 0.0
H1002 H 0.61584 0.65639 0.96308 0.0
H1003 H 0.61435 0.65215 0.04242 0.0
H1004 H 0.59567 0.61385 0.88884 0.0
H1005 H 0.65816 0.65099 0.88555 0.0
H1006 H 0.65061 0.63879 0.93331 0.0
H1007 H 0.64234 0.66136 0.92051 0.0
C1008 C 0.61695 0.60699 1.01198 0.0
C1009 C 0.6158 0.62226 0.04029 0.0
C1010 C 0.61783 0.60946 0.96662 0.0
C1011 C 0.6177 0.62725 0.94834 0.0
C1012 C 0.61637 0.64253 0.97637 0.0
H1013 H 0.62138 0.67077 0.68347 0.0
H1014 H 0.61895 0.66611 0.76234 0.0
C1015 C 0.6155 0.64008 0.02181 0.0
C1016 C 0.61871 0.62972 0.89998 0.0
H1017 H 0.64264 0.6496 0.81877 0.0
C1018 C 0.60598 0.62161 0.87351 0.0
C1019 C 0.63218 0.63981 0.87987 0.0
C1020 C 0.6467 0.6481 0.90617 0.0
C1021 C 0.60616 0.62361 0.82771 0.0
C1022 C 0.61959 0.63377 0.80766 0.0
C1023 C 0.63233 0.64185 0.83411 0.0
C1024 C 0.62062 0.63634 0.75934 0.0
C1025 C 0.59174 0.61521 0.80128 0.0
C1026 C 0.62245 0.62116 0.73118 0.0
C1027 C 0.62396 0.62378 0.68589 0.0
C1028 C 0.62378 0.64166 0.66775 0.0
C1029 C 0.62184 0.65681 0.69616 0.0
C1030 C 0.62035 0.65418 0.74135 0.0
H1031 H 0.58034 0.61201 0.82186 0.0
H1032 H 0.58769 0.62461 0.77445 0.0
H1033 H 0.59629 0.60213 0.78645 0.0
H1034 H 0.62305 0.60728 0.7443 0.0
H1035 H 0.6257 0.61181 0.66523 0.0
H1036 H 0.14444 0.8947 0.49098 0.0
H1037 H 0.14492 0.89103 0.57053 0.0
H1038 H 0.09118 0.90576 0.5764 0.0
H1039 H 0.09048 0.90907 0.49671 0.0
H1040 H 0.13729 0.91804 0.63413 0.0
H1041 H 0.09338 0.85779 0.64839 0.0
H1042 H 0.10325 0.86443 0.59732 0.0
H1043 H 0.08496 0.87692 0.61762 0.0
C1044 C 0.13263 0.89687 0.50905 0.0
C1045 C 0.11739 0.90208 0.48725 0.0
C1046 C 0.13297 0.8949 0.55462 0.0
C1047 C 0.11805 0.89791 0.57949 0.0
C1048 C 0.10279 0.90307 0.55792 0.0
H1049 H 0.0979 0.89139 0.86105 0.0
H1050 H 0.0956 0.89658 0.78199 0.0
C1051 C 0.10246 0.90513 0.51233 0.0
C1052 C 0.11864 0.8962 0.62806 0.0
H1053 H 0.10228 0.87185 0.71444 0.0
C1054 C 0.12966 0.90791 0.65168 0.0
C1055 C 0.1086 0.88307 0.65103 0.0
C1056 C 0.09697 0.86971 0.6274 0.0
C1057 C 0.13083 0.90695 0.69754 0.0
C1058 C 0.12099 0.89364 0.7205 0.0
C1059 C 0.10982 0.88206 0.69692 0.0
C1060 C 0.12249 0.89112 0.76877 0.0
C1061 C 0.14241 0.92041 0.72104 0.0
C1062 C 0.13833 0.88625 0.78776 0.0
C1063 C 0.1397 0.88337 0.8329 0.0
C1064 C 0.12522 0.88516 0.86025 0.0
C1065 C 0.10936 0.89012 0.84115 0.0
C1066 C 0.10799 0.89296 0.79588 0.0
H1067 H 0.14501 0.93286 0.70084 0.0
H1068 H 0.13666 0.92484 0.75253 0.0
H1069 H 0.15494 0.91365 0.72811 0.0
H1070 H 0.14964 0.88442 0.76755 0.0
H1071 H 0.15216 0.87974 0.84639 0.0
H1072 H 0.86778 0.67125 0.84327 0.0
H1073 H 0.87023 0.66632 0.76454 0.0
H1074 H 0.87579 0.60781 0.78618 0.0
H1075 H 0.87273 0.61253 0.86504 0.0
H1076 H 0.89662 0.65113 0.71579 0.0
H1077 H 0.83686 0.6098 0.69669 0.0
H1078 H 0.84155 0.62277 0.7456 0.0
H1079 H 0.85175 0.60084 0.73639 0.0
C1080 C 0.86931 0.65728 0.83137 0.0
C1081 C 0.86985 0.64227 0.86071 0.0
C1082 C 0.87085 0.65451 0.78626 0.0
C1083 C 0.8729 0.63666 0.76924 0.0
C1084 C 0.87386 0.62167 0.79839 0.0
H1085 H 0.88036 0.59385 0.50369 0.0
H1086 H 0.8799 0.59791 0.58294 0.0
C1087 C 0.87231 0.62443 0.8436 0.0
C1088 C 0.87414 0.63387 0.72104 0.0
H1089 H 0.85463 0.61267 0.63428 0.0
C1090 C 0.88741 0.64275 0.69795 0.0
C1091 C 0.86214 0.62293 0.69768 0.0
C1092 C 0.84717 0.61366 0.7202 0.0
C1093 C 0.88916 0.64078 0.65239 0.0
C1094 C 0.8771 0.62993 0.62899 0.0
C1095 C 0.86388 0.62098 0.65212 0.0
C1096 C 0.87791 0.62768 0.58055 0.0
C1097 C 0.90414 0.65005 0.62991 0.0
C1098 C 0.87684 0.64304 0.55254 0.0
C1099 C 0.87728 0.64078 0.50703 0.0
C1100 C 0.87867 0.62308 0.4884 0.0
C1101 C 0.87962 0.60772 0.51666 0.0
C1102 C 0.87921 0.61 0.56211 0.0
H1103 H 0.91468 0.65332 0.65328 0.0
H1104 H 0.90941 0.64123 0.60348 0.0
H1105 H 0.8997 0.66322 0.61511 0.0
H1106 H 0.87547 0.6568 0.56585 0.0
H1107 H 0.87661 0.65295 0.48648 0.0
H1108 H 0.09076 0.12109 0.52858 0.0
H1109 H 0.09166 0.124 0.44874 0.0
H1110 H 0.14668 0.13166 0.45434 0.0
H1111 H 0.14596 0.12839 0.53392 0.0
H1112 H 0.10402 0.15369 0.39635 0.0
H1113 H 0.1407 0.08925 0.366 0.0
H1114 H 0.13024 0.09397 0.41746 0.0
H1115 H 0.15057 0.10455 0.40481 0.0
C1116 C 0.10307 0.12327 0.51281 0.0
C1117 C 0.11829 0.12444 0.53778 0.0
C1118 C 0.10355 0.12503 0.46717 0.0
C1119 C 0.11926 0.12777 0.44544 0.0
C1120 C 0.13443 0.12924 0.47028 0.0
H1121 H 0.15357 0.14284 0.17879 0.0
H1122 H 0.15062 0.13864 0.25774 0.0
C1123 C 0.13397 0.12759 0.51588 0.0
C1124 C 0.11982 0.12929 0.39689 0.0
H1125 H 0.137 0.10945 0.30546 0.0
C1126 C 0.11111 0.14395 0.37641 0.0
C1127 C 0.12908 0.11657 0.37088 0.0
C1128 C 0.13806 0.10009 0.39076 0.0
C1129 C 0.11185 0.14654 0.33082 0.0
C1130 C 0.12126 0.13392 0.30484 0.0
C1131 C 0.1298 0.11914 0.32531 0.0
C1132 C 0.12286 0.13611 0.25654 0.0
C1133 C 0.10301 0.16313 0.31105 0.0
C1134 C 0.10827 0.13574 0.22928 0.0
C1135 C 0.1099 0.13824 0.184 0.0
C1136 C 0.12619 0.14111 0.16495 0.0
C1137 C 0.1408 0.141 0.19232 0.0
C1138 C 0.13915 0.13848 0.2375 0.0
H1139 H 0.10003 0.17377 0.33605 0.0
H1140 H 0.11111 0.16951 0.28523 0.0
H1141 H 0.09069 0.15872 0.29587 0.0
H1142 H 0.09558 0.13357 0.24305 0.0
H1143 H 0.09837 0.13831 0.16404 0.0
H1144 H 0.62374 0.41029 0.36118 0.0
H1145 H 0.62061 0.41512 0.28224 0.0
H1146 H 0.61977 0.35624 0.26232 0.0
H1147 H 0.62225 0.35129 0.34102 0.0
H1148 H 0.6424 0.40402 0.21605 0.0
H1149 H 0.578 0.37254 0.19242 0.0
H1150 H 0.5863 0.37843 0.24575 0.0
H1151 H 0.59304 0.35749 0.21928 0.0
C1152 C 0.62259 0.39836 0.34012 0.0
C1153 C 0.62324 0.38039 0.3577 0.0
C1154 C 0.62092 0.40115 0.2949 0.0
C1155 C 0.61971 0.38605 0.26625 0.0
C1156 C 0.62034 0.36813 0.28369 0.0
H1157 H 0.61555 0.37063 0.98425 0.0
H1158 H 0.61671 0.36699 0.06381 0.0
C1159 C 0.62199 0.36532 0.3288 0.0
C1160 C 0.61849 0.38899 0.21804 0.0
H1161 H 0.59408 0.37897 0.12791 0.0
C1162 C 0.63176 0.39867 0.19683 0.0
C1163 C 0.60465 0.38196 0.19283 0.0
C1164 C 0.5896 0.37218 0.21373 0.0
C1165 C 0.63179 0.40111 0.15116 0.0
C1166 C 0.618 0.39397 0.12592 0.0
C1167 C 0.60468 0.38439 0.14716 0.0
C1168 C 0.61717 0.39628 0.07747 0.0
C1169 C 0.64686 0.41086 0.13026 0.0
C1170 C 0.61679 0.41394 0.05851 0.0
C1171 C 0.61626 0.41607 1.01301 0.0
C1172 C 0.61595 0.40058 0.98522 0.0
C1173 C 0.61603 0.38288 1.00442 0.0
C1174 C 0.61658 0.38077 0.04999 0.0
H1175 H 0.65833 0.41097 0.15206 0.0
H1176 H 0.65046 0.40423 0.09888 0.0
H1177 H 0.64326 0.4254 0.12341 0.0
H1178 H 0.61689 0.42613 0.07894 0.0
H1179 H 0.6164 0.42992 0.99962 0.0
H1180 H 0.40405 0.90714 0.02882 0.0
H1181 H 0.40286 0.90398 0.94911 0.0
H1182 H 0.34897 0.89004 0.95701 0.0
H1183 H 0.34993 0.8936 0.03647 0.0
H1184 H 0.39348 0.87329 0.89738 0.0
H1185 H 0.34964 0.93252 0.8679 0.0
H1186 H 0.36078 0.92911 0.91916 0.0
H1187 H 0.3417 0.91602 0.90687 0.0
C1188 C 0.3919 0.90353 0.01361 0.0
C1189 C 0.37706 0.90071 0.03922 0.0
C1190 C 0.39127 0.90163 0.96801 0.0
C1191 C 0.37576 0.89706 0.94692 0.0
C1192 C 0.36102 0.8939 0.9724 0.0
H1193 H 0.34188 0.8782 0.68073 0.0
H1194 H 0.34473 0.88247 0.75965 0.0
C1195 C 0.36164 0.89572 0.01797 0.0
C1196 C 0.37502 0.89544 0.89836 0.0
H1197 H 0.35519 0.91294 0.80734 0.0
C1198 C 0.3852 0.88204 0.87763 0.0
C1199 C 0.36423 0.90686 0.87256 0.0
C1200 C 0.35357 0.92206 0.89261 0.0
C1201 C 0.38451 0.8794 0.83206 0.0
C1202 C 0.37359 0.89072 0.80629 0.0
C1203 C 0.36355 0.90425 0.82701 0.0
C1204 C 0.37203 0.88843 0.75797 0.0
C1205 C 0.39507 0.86411 0.81208 0.0
C1206 C 0.38635 0.89068 0.73041 0.0
C1207 C 0.38478 0.88814 0.68511 0.0
C1208 C 0.36882 0.88334 0.66632 0.0
C1209 C 0.35443 0.88154 0.69401 0.0
C1210 C 0.35602 0.8841 0.7392 0.0
H1211 H 0.39931 0.85388 0.83699 0.0
H1212 H 0.38766 0.85679 0.78633 0.0
H1213 H 0.40675 0.87011 0.79678 0.0
H1214 H 0.39878 0.89438 0.74394 0.0
H1215 H 0.39615 0.88957 0.66494 0.0
H1216 H 0.13724 0.68204 0.28335 0.0
H1217 H 0.13705 0.71425 0.30889 0.0
H1218 H 0.10428 0.72932 0.20059 0.0
H1219 H 0.10442 0.69755 0.17501 0.0
H1220 H 0.14864 0.74519 0.25742 0.0
H1221 H 0.08067 0.75364 0.30655 0.0
H1222 H 0.09091 0.73129 0.30252 0.0
H1223 H 0.08262 0.74256 0.25437 0.0
C1224 C 0.12979 0.6922 0.26545 0.0
C1225 C 0.12089 0.68726 0.22708 0.0
C1226 C 0.12971 0.71056 0.28004 0.0
C1227 C 0.12044 0.7241 0.25698 0.0
C1228 C 0.11124 0.71904 0.21938 0.0
H1229 H 0.10653 0.82909 0.17361 0.0
H1230 H 0.10663 0.79724 0.19871 0.0
C1231 C 0.11147 0.70087 0.20458 0.0
C1232 C 0.12134 0.74388 0.26906 0.0
H1233 H 0.09528 0.78141 0.28153 0.0
C1234 C 0.13711 0.75313 0.26418 0.0
C1235 C 0.10628 0.75415 0.2781 0.0
C1236 C 0.08919 0.74487 0.28614 0.0
C1237 C 0.13788 0.77252 0.26372 0.0
C1238 C 0.12251 0.7828 0.26873 0.0
C1239 C 0.10703 0.7735 0.27749 0.0
C1240 C 0.12166 0.80262 0.25689 0.0
C1241 C 0.15482 0.78188 0.25412 0.0
C1242 C 0.12984 0.81635 0.28181 0.0
C1243 C 0.1298 0.83478 0.26748 0.0
C1244 C 0.12168 0.83963 0.2279 0.0
C1245 C 0.11307 0.82586 0.20399 0.0
C1246 C 0.11303 0.80761 0.21839 0.0
H1247 H 0.16536 0.77182 0.24817 0.0
H1248 H 0.15353 0.79094 0.22496 0.0
H1249 H 0.15853 0.79072 0.2822 0.0
H1250 H 0.13645 0.81277 0.31186 0.0
H1251 H 0.13651 0.84508 0.28666 0.0
H1252 H 0.57072 0.89353 0.43982 0.0
H1253 H 0.53922 0.89274 0.44663 0.0
H1254 H 0.5345 0.88713 0.30686 0.0
H1255 H 0.56576 0.88774 0.29971 0.0
H1256 H 0.51407 0.91625 0.40872 0.0
H1257 H 0.50548 0.84413 0.35298 0.0
H1258 H 0.52613 0.8532 0.3697 0.0
H1259 H 0.5179 0.85792 0.3158 0.0
C1260 C 0.56298 0.89206 0.41054 0.0
C1261 C 0.57085 0.89058 0.36923 0.0
C1262 C 0.54497 0.89164 0.4145 0.0
C1263 C 0.53449 0.88956 0.37733 0.0
C1264 C 0.54231 0.88834 0.33611 0.0
H1265 H 0.42845 0.88807 0.30018 0.0
H1266 H 0.45972 0.8877 0.3077 0.0
C1267 C 0.56024 0.88879 0.33209 0.0
C1268 C 0.51536 0.889 0.38108 0.0
H1269 H 0.4802 0.8629 0.35451 0.0
C1270 C 0.50664 0.9045 0.39743 0.0
C1271 C 0.50568 0.87364 0.36643 0.0
C1272 C 0.51426 0.8562 0.35063 0.0
C1273 C 0.48851 0.9054 0.39761 0.0
C1274 C 0.47885 0.89025 0.38165 0.0
C1275 C 0.48759 0.87454 0.36654 0.0
C1276 C 0.4597 0.89073 0.37802 0.0
C1277 C 0.47987 0.92284 0.41313 0.0
C1278 C 0.44918 0.89243 0.41515 0.0
C1279 C 0.43116 0.89265 0.41098 0.0
C1280 C 0.42333 0.89112 0.36959 0.0
C1281 C 0.43396 0.88932 0.3326 0.0
C1282 C 0.4519 0.88908 0.33681 0.0
H1283 H 0.48907 0.93454 0.41556 0.0
H1284 H 0.46922 0.92683 0.39074 0.0
H1285 H 0.47429 0.92042 0.44603 0.0
H1286 H 0.45488 0.89339 0.44739 0.0
H1287 H 0.4234 0.89398 0.44019 0.0
H1288 H 0.3935 0.34207 0.75978 0.0
H1289 H 0.39505 0.30868 0.77373 0.0
H1290 H 0.34504 0.30164 0.7145 0.0
H1291 H 0.34354 0.33472 0.69973 0.0
H1292 H 0.37282 0.28077 0.81542 0.0
H1293 H 0.37875 0.27254 0.63566 0.0
H1294 H 0.38114 0.29457 0.66238 0.0
H1295 H 0.36003 0.28523 0.65237 0.0
C1296 C 0.3827 0.33343 0.75057 0.0
C1297 C 0.36854 0.34094 0.72795 0.0
C1298 C 0.38359 0.31438 0.7586 0.0
C1299 C 0.37028 0.30269 0.74442 0.0
C1300 C 0.35557 0.3104 0.72503 0.0
H1301 H 0.35327 0.18422 0.76764 0.0
H1302 H 0.35359 0.21751 0.7831 0.0
C1303 C 0.35475 0.3293 0.71657 0.0
C1304 C 0.37245 0.28236 0.74514 0.0
H1305 H 0.37496 0.24528 0.67702 0.0
C1306 C 0.3734 0.27295 0.78527 0.0
C1307 C 0.37344 0.27225 0.70571 0.0
C1308 C 0.37346 0.28164 0.66157 0.0
C1309 C 0.37496 0.25357 0.78688 0.0
C1310 C 0.37535 0.24345 0.74734 0.0
C1311 C 0.37463 0.25299 0.70738 0.0
C1312 C 0.37671 0.223 0.74564 0.0
C1313 C 0.37643 0.24417 0.83073 0.0
C1314 C 0.38968 0.21495 0.72009 0.0
C1315 C 0.38927 0.19615 0.71052 0.0
C1316 C 0.37601 0.18491 0.72683 0.0
C1317 C 0.3637 0.1926 0.75504 0.0
C1318 C 0.36394 0.2116 0.76401 0.0
H1319 H 0.38076 0.2539 0.85654 0.0
H1320 H 0.36361 0.23874 0.8403 0.0
H1321 H 0.38558 0.23239 0.82937 0.0
H1322 H 0.39969 0.22341 0.70566 0.0
H1323 H 0.39898 0.19052 0.68892 0.0
H1324 H 0.92483 0.12996 0.93756 0.0
H1325 H 0.95634 0.13093 0.94379 0.0
H1326 H 0.96043 0.13694 0.80398 0.0
H1327 H 0.92914 0.13616 0.7974 0.0
H1328 H 0.98143 0.10773 0.90566 0.0
H1329 H 0.98945 0.17997 0.84957 0.0
H1330 H 0.9689 0.17074 0.86645 0.0
H1331 H 0.97703 0.16611 0.81253 0.0
C1332 C 0.93243 0.13156 0.90814 0.0
C1333 C 0.92437 0.13309 0.86699 0.0
C1334 C 0.95045 0.13208 0.91177 0.0
C1335 C 0.96077 0.13432 0.87443 0.0
C1336 C 0.95276 0.1356 0.83336 0.0
H1337 H 0.06693 0.13684 0.79808 0.0
H1338 H 0.03565 0.13693 0.80502 0.0
C1339 C 0.93481 0.13505 0.82967 0.0
C1340 C 0.9799 0.135 0.87791 0.0
H1341 H 0.01485 0.16142 0.85135 0.0
C1342 C 0.98876 0.11955 0.89432 0.0
C1343 C 0.98946 0.15045 0.86319 0.0
C1344 C 0.98074 0.16783 0.84734 0.0
C1345 C 0.00689 0.11881 0.89457 0.0
C1346 C 0.01644 0.13406 0.87865 0.0
C1347 C 0.00756 0.1497 0.86338 0.0
C1348 C 0.03559 0.13379 0.87534 0.0
C1349 C 0.01568 0.10143 0.91021 0.0
C1350 C 0.04607 0.13215 0.91267 0.0
C1351 C 0.0641 0.13209 0.90884 0.0
C1352 C 0.07198 0.13375 0.86759 0.0
C1353 C 0.06139 0.13551 0.8304 0.0
C1354 C 0.04344 0.13558 0.83427 0.0
H1355 H 0.00658 0.08963 0.91244 0.0
H1356 H 0.02639 0.09759 0.888 0.0
H1357 H 0.02119 0.10384 0.94321 0.0
H1358 H 0.04033 0.13108 0.94481 0.0
H1359 H 0.07182 0.13079 0.9382 0.0
H1360 H 0.13798 0.34497 0.74455 0.0
H1361 H 0.13795 0.31274 0.71912 0.0
H1362 H 0.10504 0.29761 0.82678 0.0
H1363 H 0.10501 0.32938 0.85221 0.0
H1364 H 0.14953 0.2818 0.77045 0.0
H1365 H 0.08157 0.27322 0.72072 0.0
H1366 H 0.09174 0.2956 0.72509 0.0
H1367 H 0.08347 0.28421 0.77303 0.0
C1368 C 0.13054 0.33479 0.76233 0.0
C1369 C 0.12154 0.33972 0.80047 0.0
C1370 C 0.13056 0.31642 0.74781 0.0
C1371 C 0.12128 0.30285 0.77071 0.0
C1372 C 0.11201 0.3079 0.80811 0.0
H1373 H 0.10778 0.19749 0.85302 0.0
H1374 H 0.10784 0.22944 0.82862 0.0
C1375 C 0.11213 0.32608 0.82282 0.0
C1376 C 0.12222 0.28306 0.75863 0.0
H1377 H 0.09624 0.24547 0.74576 0.0
C1378 C 0.13801 0.27384 0.76357 0.0
C1379 C 0.10718 0.27275 0.74945 0.0
C1380 C 0.09007 0.28199 0.74131 0.0
C1381 C 0.13883 0.25445 0.76389 0.0
C1382 C 0.12349 0.24414 0.75868 0.0
C1383 C 0.10798 0.2534 0.74994 0.0
C1384 C 0.1227 0.22427 0.77019 0.0
C1385 C 0.1558 0.24511 0.77348 0.0
C1386 C 0.1308 0.21063 0.74491 0.0
C1387 C 0.13077 0.19214 0.75882 0.0
C1388 C 0.12275 0.18714 0.79836 0.0
C1389 C 0.11424 0.20083 0.82267 0.0
C1390 C 0.11418 0.21914 0.80867 0.0
H1391 H 0.16633 0.25519 0.77947 0.0
H1392 H 0.15455 0.23604 0.80261 0.0
H1393 H 0.15948 0.23629 0.74538 0.0
H1394 H 0.13733 0.21432 0.71487 0.0
H1395 H 0.13741 0.18191 0.73935 0.0
H1396 H 0.07035 0.89488 0.08886 0.0
H1397 H 0.03884 0.89421 0.08317 0.0
H1398 H 0.035 0.88995 0.22339 0.0
H1399 H 0.06633 0.8904 0.22944 0.0
H1400 H 0.01417 0.86473 0.17935 0.0
H1401 H 0.0049 0.93564 0.11359 0.0
H1402 H 0.01946 0.92126 0.0833 0.0
H1403 H 0.02493 0.92817 0.13796 0.0
C1404 C 0.06281 0.89386 0.11852 0.0
C1405 C 0.07095 0.89274 0.15963 0.0
C1406 C 0.04477 0.89359 0.1152 0.0
C1407 C 0.03452 0.89228 0.1529 0.0
C1408 C 0.04261 0.89104 0.19385 0.0
H1409 H 0.9281 0.88934 0.23144 0.0
H1410 H 0.95941 0.8889 0.22515 0.0
C1411 C 0.06058 0.89132 0.19722 0.0
C1412 C 0.01536 0.89175 0.1501 0.0
H1413 H 0.97998 0.91726 0.12157 0.0
C1414 C 0.00671 0.8762 0.16659 0.0
C1415 C 0.00559 0.90667 0.13324 0.0
C1416 C 0.01413 0.92397 0.1163 0.0
C1417 C 0.98862 0.87521 0.167 0.0
C1418 C 0.97884 0.89033 0.15123 0.0
C1419 C 0.98747 0.9057 0.13371 0.0
C1420 C 0.9597 0.89076 0.15456 0.0
C1421 C 0.98015 0.85791 0.18413 0.0
C1422 C 0.94936 0.89246 0.11702 0.0
C1423 C 0.93133 0.8928 0.12049 0.0
C1424 C 0.9233 0.8916 0.16165 0.0
C1425 C 0.93376 0.89016 0.19916 0.0
C1426 C 0.95172 0.88981 0.19564 0.0
H1427 H 0.989 0.84588 0.18273 0.0
H1428 H 0.97649 0.86003 0.21882 0.0
H1429 H 0.96831 0.85459 0.1653 0.0
H1430 H 0.95523 0.89335 0.08499 0.0
H1431 H 0.92372 0.894 0.09092 0.0
H1432 H 0.35673 0.68072 0.23945 0.0
H1433 H 0.35708 0.71311 0.21486 0.0
H1434 H 0.38934 0.72738 0.32461 0.0
H1435 H 0.38905 0.69544 0.3492 0.0
H1436 H 0.3453 0.74376 0.2665 0.0
H1437 H 0.41359 0.75235 0.22047 0.0
H1438 H 0.4033 0.72999 0.22362 0.0
H1439 H 0.41133 0.74099 0.27232 0.0
C1440 C 0.3641 0.69075 0.25786 0.0
C1441 C 0.37282 0.68553 0.29633 0.0
C1442 C 0.36427 0.70921 0.24382 0.0
C1443 C 0.37346 0.72257 0.26756 0.0
C1444 C 0.38246 0.71724 0.3053 0.0
H1445 H 0.38672 0.82719 0.35431 0.0
H1446 H 0.3866 0.7954 0.329 0.0
C1447 C 0.38214 0.69897 0.31953 0.0
C1448 C 0.37268 0.74244 0.25602 0.0
H1449 H 0.39891 0.77999 0.24583 0.0
C1450 C 0.3569 0.75171 0.26048 0.0
C1451 C 0.38782 0.75274 0.24796 0.0
C1452 C 0.40494 0.74347 0.24036 0.0
C1453 C 0.35616 0.7711 0.26144 0.0
C1454 C 0.37158 0.78136 0.25741 0.0
C1455 C 0.38711 0.77209 0.24912 0.0
C1456 C 0.37238 0.80112 0.26965 0.0
C1457 C 0.33918 0.78046 0.27047 0.0
C1458 C 0.36464 0.815 0.24419 0.0
C1459 C 0.36471 0.8334 0.25862 0.0
C1460 C 0.3724 0.83806 0.29884 0.0
C1461 C 0.38052 0.82411 0.32341 0.0
C1462 C 0.38055 0.8059 0.3089 0.0
H1463 H 0.32854 0.7704 0.27532 0.0
H1464 H 0.34026 0.78921 0.30012 0.0
H1465 H 0.33578 0.7896 0.24262 0.0
H1466 H 0.35839 0.81158 0.21359 0.0
H1467 H 0.35837 0.84383 0.23894 0.0
H1468 H 0.56685 0.13434 0.7269 0.0
H1469 H 0.53557 0.13444 0.71977 0.0
H1470 H 0.54018 0.12885 0.58 0.0
H1471 H 0.57168 0.12853 0.58681 0.0
H1472 H 0.5148 0.15907 0.67313 0.0
H1473 H 0.50645 0.0873 0.61239 0.0
H1474 H 0.52627 0.09522 0.637 0.0
H1475 H 0.52106 0.10155 0.58175 0.0
C1476 C 0.56129 0.13306 0.69455 0.0
C1477 C 0.57187 0.13137 0.65742 0.0
C1478 C 0.54335 0.13314 0.69057 0.0
C1479 C 0.53548 0.13143 0.64945 0.0
C1480 C 0.54594 0.12985 0.61218 0.0
H1481 H 0.42453 0.12786 0.58807 0.0
H1482 H 0.45603 0.12866 0.5814 0.0
C1483 C 0.56396 0.12979 0.61612 0.0
C1484 C 0.51634 0.13171 0.64605 0.0
H1485 H 0.4813 0.10536 0.6194 0.0
C1486 C 0.50749 0.14734 0.66121 0.0
C1487 C 0.50678 0.11646 0.63026 0.0
C1488 C 0.51555 0.0991 0.6147 0.0
C1489 C 0.4894 0.14807 0.66149 0.0
C1490 C 0.47982 0.13262 0.64697 0.0
C1491 C 0.48864 0.11718 0.63061 0.0
C1492 C 0.46071 0.1319 0.6507 0.0
C1493 C 0.48069 0.16544 0.67728 0.0
C1494 C 0.45287 0.13312 0.6919 0.0
C1495 C 0.43493 0.13266 0.69584 0.0
C1496 C 0.42435 0.13087 0.65864 0.0
C1497 C 0.43225 0.12933 0.61739 0.0
C1498 C 0.45026 0.12977 0.6135 0.0
H1499 H 0.48938 0.17759 0.67491 0.0
H1500 H 0.4688 0.16834 0.65823 0.0
H1501 H 0.47706 0.1637 0.71212 0.0
H1502 H 0.46065 0.13437 0.72117 0.0
H1503 H 0.42938 0.13376 0.72818 0.0
H1504 H 0.85773 0.18098 0.7418 0.0
H1505 H 0.85791 0.21336 0.71709 0.0
H1506 H 0.88981 0.22796 0.82727 0.0
H1507 H 0.88969 0.19605 0.85196 0.0
H1508 H 0.84577 0.24394 0.76829 0.0
H1509 H 0.91412 0.25315 0.72365 0.0
H1510 H 0.90402 0.23069 0.72675 0.0
H1511 H 0.91181 0.24182 0.77553 0.0
C1512 C 0.86499 0.19108 0.76027 0.0
C1513 C 0.87364 0.18596 0.79892 0.0
C1514 C 0.86506 0.20954 0.74617 0.0
C1515 C 0.87409 0.223 0.77 0.0
C1516 C 0.88305 0.21776 0.80788 0.0
H1517 H 0.88641 0.32783 0.8565 0.0
H1518 H 0.88657 0.29604 0.83133 0.0
C1519 C 0.88283 0.19949 0.82217 0.0
C1520 C 0.87318 0.24287 0.75841 0.0
H1521 H 0.89914 0.28067 0.74868 0.0
C1522 C 0.85732 0.252 0.76251 0.0
C1523 C 0.88826 0.25331 0.75066 0.0
C1524 C 0.90549 0.24421 0.74343 0.0
C1525 C 0.85642 0.27138 0.76339 0.0
C1526 C 0.87177 0.28179 0.75967 0.0
C1527 C 0.88739 0.27266 0.75175 0.0
C1528 C 0.87237 0.30158 0.77186 0.0
C1529 C 0.83933 0.28058 0.77202 0.0
C1530 C 0.86455 0.31538 0.7463 0.0
C1531 C 0.86446 0.33379 0.76066 0.0
C1532 C 0.87207 0.33855 0.80091 0.0
C1533 C 0.88027 0.32469 0.82558 0.0
C1534 C 0.88045 0.30647 0.81114 0.0
H1535 H 0.82877 0.27043 0.77677 0.0
H1536 H 0.84024 0.28939 0.8016 0.0
H1537 H 0.83593 0.28964 0.74402 0.0
H1538 H 0.85836 0.31188 0.71566 0.0
H1539 H 0.85806 0.34415 0.74089 0.0
H1540 H 0.63774 0.84271 0.24245 0.0
H1541 H 0.63734 0.8104 0.21751 0.0
H1542 H 0.6046 0.79592 0.32602 0.0
H1543 H 0.60492 0.82776 0.3509 0.0
H1544 H 0.64886 0.77959 0.26872 0.0
H1545 H 0.58063 0.77121 0.22156 0.0
H1546 H 0.5909 0.79356 0.22528 0.0
H1547 H 0.58275 0.78235 0.27362 0.0
C1548 C 0.63024 0.83266 0.26048 0.0
C1549 C 0.62141 0.83778 0.29873 0.0
C1550 C 0.63005 0.81424 0.24626 0.0
C1551 C 0.62072 0.80083 0.26955 0.0
C1552 C 0.61159 0.80608 0.30702 0.0
H1553 H 0.60776 0.69619 0.35692 0.0
H1554 H 0.60804 0.72805 0.33178 0.0
C1555 C 0.61192 0.8243 0.32143 0.0
C1556 C 0.62149 0.78098 0.25793 0.0
H1557 H 0.5952 0.74348 0.24761 0.0
C1558 C 0.63725 0.77168 0.26257 0.0
C1559 C 0.60634 0.77071 0.2497 0.0
C1560 C 0.58923 0.78001 0.24179 0.0
C1561 C 0.63795 0.75228 0.26356 0.0
C1562 C 0.62252 0.74206 0.25946 0.0
C1563 C 0.60701 0.75136 0.25097 0.0
C1564 C 0.62169 0.72229 0.27178 0.0
C1565 C 0.65491 0.74286 0.27271 0.0
C1566 C 0.62907 0.70838 0.24594 0.0
C1567 C 0.6289 0.68995 0.26025 0.0
C1568 C 0.62146 0.68527 0.30074 0.0
C1569 C 0.61375 0.69927 0.32578 0.0
C1570 C 0.61382 0.71752 0.31139 0.0
H1571 H 0.66563 0.75287 0.27699 0.0
H1572 H 0.65388 0.7343 0.30274 0.0
H1573 H 0.65815 0.73352 0.24522 0.0
H1574 H 0.63512 0.71181 0.21509 0.0
H1575 H 0.63493 0.67948 0.2402 0.0
H1576 H 0.8572 0.68045 0.28794 0.0
H1577 H 0.85703 0.71273 0.31322 0.0
H1578 H 0.88535 0.72901 0.19833 0.0
H1579 H 0.88559 0.69721 0.17303 0.0
H1580 H 0.89744 0.74413 0.28372 0.0
H1581 H 0.82747 0.7542 0.24897 0.0
H1582 H 0.83445 0.73466 0.28103 0.0
H1583 H 0.83938 0.73564 0.22386 0.0
C1584 C 0.86351 0.69092 0.26836 0.0
C1585 C 0.87128 0.68628 0.22828 0.0
C1586 C 0.86335 0.70932 0.28275 0.0
C1587 C 0.87108 0.72322 0.25744 0.0
C1588 C 0.87929 0.71848 0.21831 0.0
H1589 H 0.88949 0.82877 0.17984 0.0
H1590 H 0.88941 0.79688 0.20474 0.0
C1591 C 0.87935 0.70027 0.20381 0.0
C1592 C 0.87027 0.74297 0.26975 0.0
H1593 H 0.84435 0.78076 0.25844 0.0
C1594 C 0.88574 0.75212 0.27944 0.0
C1595 C 0.85497 0.75334 0.26442 0.0
C1596 C 0.83806 0.74409 0.25392 0.0
C1597 C 0.88655 0.77146 0.28078 0.0
C1598 C 0.87159 0.78188 0.27139 0.0
C1599 C 0.85582 0.77273 0.26549 0.0
C1600 C 0.87264 0.80176 0.25995 0.0
C1601 C 0.90363 0.7806 0.29004 0.0
C1602 C 0.8631 0.81517 0.28256 0.0
C1603 C 0.86315 0.83362 0.26834 0.0
C1604 C 0.87244 0.83876 0.23076 0.0
C1605 C 0.88214 0.82529 0.20879 0.0
C1606 C 0.88224 0.80704 0.22322 0.0
H1607 H 0.91191 0.77167 0.31088 0.0
H1608 H 0.9105 0.78296 0.25874 0.0
H1609 H 0.90186 0.79412 0.30649 0.0
H1610 H 0.85546 0.81132 0.31072 0.0
H1611 H 0.85547 0.84367 0.28578 0.0
H1612 H 0.60822 0.19526 0.67272 0.0
H1613 H 0.60845 0.22708 0.69774 0.0
H1614 H 0.63748 0.21115 0.81203 0.0
H1615 H 0.6374 0.17886 0.78694 0.0
H1616 H 0.59671 0.24272 0.78085 0.0
H1617 H 0.66693 0.25212 0.74886 0.0
H1618 H 0.65508 0.2332 0.72496 0.0
H1619 H 0.65986 0.23308 0.78232 0.0
C1620 C 0.61462 0.1984 0.70332 0.0
C1621 C 0.62294 0.18451 0.72762 0.0
C1622 C 0.61465 0.21663 0.71767 0.0
C1623 C 0.62308 0.22149 0.7565 0.0
C1624 C 0.63102 0.20766 0.78174 0.0
H1625 H 0.63865 0.34208 0.78257 0.0
H1626 H 0.63845 0.30988 0.80853 0.0
C1627 C 0.63089 0.18925 0.76746 0.0
C1628 C 0.62397 0.24127 0.76844 0.0
H1629 H 0.65022 0.27881 0.75747 0.0
C1630 C 0.6085 0.25059 0.777 0.0
C1631 C 0.63938 0.2515 0.76367 0.0
C1632 C 0.65631 0.24209 0.75434 0.0
C1633 C 0.6078 0.26994 0.7776 0.0
C1634 C 0.6229 0.28018 0.76874 0.0
C1635 C 0.63866 0.27089 0.7641 0.0
C1636 C 0.62205 0.29995 0.75637 0.0
C1637 C 0.59072 0.27927 0.78536 0.0
C1638 C 0.61299 0.30495 0.71847 0.0
C1639 C 0.61323 0.32311 0.70344 0.0
C1640 C 0.62253 0.33676 0.72599 0.0
C1641 C 0.63131 0.33188 0.76463 0.0
C1642 C 0.63122 0.31353 0.77946 0.0
H1643 H 0.58212 0.27051 0.80568 0.0
H1644 H 0.59244 0.29283 0.80169 0.0
H1645 H 0.58422 0.28162 0.75348 0.0
H1646 H 0.60611 0.29464 0.69967 0.0
H1647 H 0.60627 0.32638 0.67369 0.0
H1648 H 0.92323 0.395 0.93935 0.0
H1649 H 0.95478 0.39605 0.94486 0.0
H1650 H 0.95867 0.39089 0.80486 0.0
H1651 H 0.92737 0.39001 0.79893 0.0
H1652 H 0.9797 0.36997 0.91704 0.0
H1653 H 0.98784 0.43673 0.8308 0.0
H1654 H 0.96731 0.42907 0.85174 0.0
H1655 H 0.97526 0.42031 0.80062 0.0
C1656 C 0.9308 0.39414 0.90972 0.0
C1657 C 0.9227 0.39255 0.86867 0.0
C1658 C 0.94883 0.39471 0.91295 0.0
C1659 C 0.95909 0.39387 0.87521 0.0
C1660 C 0.95104 0.39197 0.83436 0.0
H1661 H 0.0654 0.39082 0.79914 0.0
H1662 H 0.03408 0.39108 0.8055 0.0
C1663 C 0.93308 0.39137 0.83109 0.0
C1664 C 0.97822 0.39471 0.87815 0.0
H1665 H 0.01318 0.41855 0.84049 0.0
C1666 C 0.98704 0.3807 0.90077 0.0
C1667 C 0.98779 0.40874 0.85697 0.0
C1668 C 0.97908 0.42467 0.83401 0.0
C1669 C 0.00517 0.37992 0.90119 0.0
C1670 C 0.01472 0.39369 0.87896 0.0
C1671 C 0.00587 0.40795 0.85733 0.0
C1672 C 0.03387 0.39319 0.87602 0.0
C1673 C 0.01393 0.36398 0.92393 0.0
C1674 C 0.04425 0.39441 0.91358 0.0
C1675 C 0.06227 0.39424 0.91009 0.0
C1676 C 0.07026 0.39295 0.8689 0.0
C1677 C 0.05977 0.3918 0.83141 0.0
C1678 C 0.04181 0.39197 0.83496 0.0
H1679 H 0.00483 0.35251 0.93087 0.0
H1680 H 0.02471 0.35856 0.90386 0.0
H1681 H 0.01934 0.3688 0.95551 0.0
H1682 H 0.03844 0.39572 0.94557 0.0
H1683 H 0.06992 0.39525 0.93964 0.0
H1684 H 0.42217 0.62811 0.4452 0.0
H1685 H 0.45362 0.62906 0.45534 0.0
H1686 H 0.46031 0.63613 0.31648 0.0
H1687 H 0.42926 0.6353 0.30601 0.0
H1688 H 0.47989 0.60598 0.41642 0.0
H1689 H 0.48772 0.67937 0.3695 0.0
H1690 H 0.46715 0.66963 0.38465 0.0
H1691 H 0.47552 0.66628 0.33045 0.0
C1692 C 0.43035 0.62991 0.41687 0.0
C1693 C 0.42311 0.63175 0.37483 0.0
C1694 C 0.44831 0.63043 0.42272 0.0
C1695 C 0.4593 0.63298 0.38673 0.0
C1696 C 0.45209 0.63452 0.34483 0.0
H1697 H 0.56408 0.63629 0.30701 0.0
H1698 H 0.53293 0.63652 0.31698 0.0
C1699 C 0.43427 0.63395 0.33893 0.0
C1700 C 0.47834 0.63382 0.39211 0.0
H1701 H 0.51321 0.6608 0.36831 0.0
C1702 C 0.4872 0.61805 0.40666 0.0
C1703 C 0.48786 0.6496 0.3794 0.0
C1704 C 0.47909 0.66725 0.36552 0.0
C1705 C 0.50534 0.61732 0.40653 0.0
C1706 C 0.51484 0.63286 0.39205 0.0
C1707 C 0.50594 0.64885 0.37919 0.0
C1708 C 0.53391 0.63246 0.38701 0.0
C1709 C 0.51419 0.59963 0.4198 0.0
C1710 C 0.54491 0.63023 0.42316 0.0
C1711 C 0.56286 0.6301 0.41759 0.0
C1712 C 0.57013 0.63224 0.37573 0.0
C1713 C 0.55901 0.63457 0.33973 0.0
C1714 C 0.54115 0.63473 0.34535 0.0
H1715 H 0.50502 0.58789 0.42217 0.0
H1716 H 0.52445 0.59601 0.39605 0.0
H1717 H 0.52034 0.60152 0.45226 0.0
H1718 H 0.53964 0.62876 0.45573 0.0
H1719 H 0.57101 0.62834 0.44607 0.0
H1720 H 0.42401 0.36323 0.6353 0.0
H1721 H 0.45557 0.3611 0.63165 0.0
H1722 H 0.45947 0.41933 0.65919 0.0
H1723 H 0.42818 0.42134 0.66462 0.0
H1724 H 0.4807 0.37647 0.58379 0.0
H1725 H 0.48865 0.39883 0.75536 0.0
H1726 H 0.46789 0.39325 0.73248 0.0
H1727 H 0.47726 0.41571 0.72367 0.0
C1728 C 0.43163 0.37558 0.64026 0.0
C1729 C 0.42363 0.39238 0.65092 0.0
C1730 C 0.44967 0.37435 0.63822 0.0
C1731 C 0.45998 0.38995 0.64644 0.0
C1732 C 0.45189 0.40695 0.6543 0.0
H1733 H 0.57025 0.40148 0.59294 0.0
H1734 H 0.53876 0.40099 0.58793 0.0
C1735 C 0.43396 0.40811 0.65709 0.0
C1736 C 0.47915 0.38848 0.64799 0.0
H1737 H 0.51404 0.39861 0.7118 0.0
C1738 C 0.488 0.38119 0.6119 0.0
C1739 C 0.48873 0.39427 0.685 0.0
C1740 C 0.48013 0.40075 0.72647 0.0
C1741 C 0.50612 0.37993 0.6114 0.0
C1742 C 0.51572 0.38668 0.64749 0.0
C1743 C 0.5068 0.39363 0.68384 0.0
C1744 C 0.53496 0.38639 0.64906 0.0
C1745 C 0.51468 0.37099 0.57261 0.0
C1746 C 0.54346 0.37884 0.68557 0.0
C1747 C 0.56141 0.37956 0.68902 0.0
C1748 C 0.57138 0.38767 0.6558 0.0
C1749 C 0.56295 0.39497 0.61889 0.0
C1750 C 0.54492 0.39455 0.61583 0.0
H1751 H 0.50576 0.36145 0.55543 0.0
H1752 H 0.51857 0.38185 0.54897 0.0
H1753 H 0.52634 0.36316 0.58256 0.0
H1754 H 0.53617 0.37247 0.71173 0.0
H1755 H 0.56749 0.37371 0.71779 0.0
H1756 H 0.06523 0.63701 0.22635 0.0
H1757 H 0.03392 0.63733 0.21898 0.0
H1758 H 0.03867 0.63166 0.07926 0.0
H1759 H 0.07013 0.63116 0.08628 0.0
H1760 H 0.01342 0.66225 0.17134 0.0
H1761 H 0.00462 0.59033 0.11199 0.0
H1762 H 0.0244 0.59812 0.13701 0.0
H1763 H 0.0195 0.60432 0.0815 0.0
C1764 C 0.05968 0.63576 0.19397 0.0
C1765 C 0.07027 0.634 0.1569 0.0
C1766 C 0.04174 0.63596 0.18985 0.0
C1767 C 0.03391 0.6343 0.14865 0.0
C1768 C 0.0444 0.63263 0.11148 0.0
H1769 H 0.92291 0.63071 0.08677 0.0
H1770 H 0.95442 0.63169 0.07974 0.0
C1771 C 0.0624 0.63245 0.11555 0.0
C1772 C 0.01479 0.63475 0.145 0.0
H1773 H 0.97961 0.60864 0.11826 0.0
C1774 C 0.00604 0.65055 0.15956 0.0
C1775 C 0.00515 0.61954 0.12933 0.0
C1776 C 0.01382 0.60203 0.11433 0.0
C1777 C 0.98796 0.65147 0.1594 0.0
C1778 C 0.97829 0.63604 0.14508 0.0
C1779 C 0.98702 0.62044 0.12928 0.0
C1780 C 0.95918 0.63546 0.14886 0.0
C1781 C 0.97936 0.66901 0.17455 0.0
C1782 C 0.95139 0.63696 0.19005 0.0
C1783 C 0.93348 0.63641 0.19419 0.0
C1784 C 0.92285 0.63423 0.15721 0.0
C1785 C 0.93067 0.63249 0.11592 0.0
C1786 C 0.94868 0.63302 0.11183 0.0
H1787 H 0.98813 0.68107 0.17163 0.0
H1788 H 0.96747 0.67185 0.15548 0.0
H1789 H 0.97578 0.66754 0.20949 0.0
H1790 H 0.95921 0.63843 0.21921 0.0
H1791 H 0.92799 0.63766 0.22657 0.0
H1792 H 0.12617 0.5937 0.04585 0.0
H1793 H 0.12431 0.56488 1.00552 0.0
H1794 H 0.11764 0.53496 0.1264 0.0
H1795 H 0.11893 0.56407 0.16725 0.0
H1796 H 0.14476 0.53593 1.00743 0.0
H1797 H 0.07908 0.51362 0.05504 0.0
H1798 H 0.08715 0.53647 0.06649 0.0
H1799 H 0.09305 0.51732 0.10097 0.0
C1800 C 0.12426 0.58102 0.06406 0.0
C1801 C 0.12274 0.5812 0.10991 0.0
C1802 C 0.12317 0.56452 0.04082 0.0
C1803 C 0.12062 0.54772 0.06272 0.0
C1804 C 0.11918 0.54778 0.10859 0.0
H1805 H 0.12708 0.43436 0.98095 0.0
H1806 H 0.12571 0.46366 0.0198 0.0
C1807 C 0.12005 0.5644 0.13197 0.0
C1808 C 0.12018 0.53024 0.03724 0.0
H1809 H 0.09608 0.49173 0.01618 0.0
C1810 C 0.13404 0.52636 1.00915 0.0
C1811 C 0.10616 0.51774 0.03926 0.0
C1812 C 0.09044 0.52155 0.06672 0.0
C1813 C 0.13438 0.51026 0.98368 0.0
C1814 C 0.12053 0.49769 0.98631 0.0
C1815 C 0.10666 0.50149 0.01423 0.0
C1816 C 0.12072 0.48002 0.96204 0.0
C1817 C 0.14971 0.50654 0.95474 0.0
C1818 C 0.11821 0.47952 0.91656 0.0
C1819 C 0.1189 0.46269 0.894 0.0
C1820 C 0.12229 0.44616 0.91662 0.0
C1821 C 0.12463 0.44681 0.96229 0.0
C1822 C 0.12377 0.46354 0.98471 0.0
H1823 H 0.16028 0.51663 0.96008 0.0
H1824 H 0.15473 0.49241 0.96078 0.0
H1825 H 0.14566 0.50732 0.91997 0.0
H1826 H 0.11576 0.49215 0.89857 0.0
H1827 H 0.117 0.46267 0.85891 0.0
H1828 H 0.6771 0.91565 0.29069 0.0
H1829 H 0.70668 0.91336 0.26466 0.0
H1830 H 0.71272 0.86158 0.33261 0.0
H1831 H 0.68296 0.8638 0.35927 0.0
H1832 H 0.74086 0.88581 0.34338 0.0
H1833 H 0.72379 0.87865 0.16827 0.0
H1834 H 0.71412 0.89838 0.19377 0.0
H1835 H 0.70826 0.87556 0.21156 0.0
C1836 C 0.68466 0.90375 0.3003 0.0
C1837 C 0.67756 0.88986 0.32702 0.0
C1838 C 0.70159 0.90241 0.28505 0.0
C1839 C 0.71185 0.88713 0.2959 0.0
C1840 C 0.705 0.87344 0.32348 0.0
H1841 H 0.81141 0.8645 0.16908 0.0
H1842 H 0.7817 0.86194 0.19583 0.0
C1843 C 0.68799 0.87474 0.33875 0.0
C1844 C 0.72977 0.88572 0.27884 0.0
H1845 H 0.75324 0.88552 0.18427 0.0
C1846 C 0.74356 0.88558 0.30861 0.0
C1847 C 0.73334 0.88515 0.23345 0.0
C1848 C 0.7191 0.88425 0.19987 0.0
C1849 C 0.76077 0.88561 0.29421 0.0
C1850 C 0.76433 0.88602 0.2488 0.0
C1851 C 0.75055 0.88542 0.21905 0.0
C1852 C 0.78223 0.88766 0.23166 0.0
C1853 C 0.77502 0.88519 0.32782 0.0
C1854 C 0.79228 0.90316 0.24194 0.0
C1855 C 0.80919 0.9047 0.22662 0.0
C1856 C 0.81648 0.89079 0.2004 0.0
C1857 C 0.80624 0.87546 0.18919 0.0
C1858 C 0.78926 0.87396 0.20452 0.0
H1859 H 0.77043 0.87966 0.35964 0.0
H1860 H 0.78602 0.87666 0.31647 0.0
H1861 H 0.77975 0.89945 0.33336 0.0
H1862 H 0.78704 0.91412 0.26196 0.0
H1863 H 0.8166 0.91675 0.23583 0.0
H1864 H 0.38922 0.43749 0.56519 0.0
H1865 H 0.38935 0.46635 0.52447 0.0
H1866 H 0.35875 0.49199 0.62504 0.0
H1867 H 0.35888 0.46298 0.66688 0.0
H1868 H 0.36185 0.48375 0.4904 0.0
H1869 H 0.39576 0.53052 0.60542 0.0
H1870 H 0.39569 0.50577 0.61224 0.0
H1871 H 0.37732 0.51921 0.62853 0.0
C1872 C 0.38264 0.44929 0.57906 0.0
C1873 C 0.37398 0.44791 0.61932 0.0
C1874 C 0.38274 0.46582 0.55561 0.0
C1875 C 0.37416 0.48141 0.57168 0.0
C1876 C 0.36575 0.48025 0.61233 0.0
H1877 H 0.3517 0.58875 0.46312 0.0
H1878 H 0.35333 0.56043 0.50573 0.0
C1879 C 0.36578 0.46366 0.63617 0.0
C1880 C 0.37333 0.49839 0.54434 0.0
H1881 H 0.38312 0.54437 0.54264 0.0
C1882 C 0.36659 0.49699 0.50177 0.0
C1883 C 0.37953 0.51566 0.55912 0.0
C1884 C 0.38763 0.51792 0.60366 0.0
C1885 C 0.36564 0.51238 0.47388 0.0
C1886 C 0.37176 0.52964 0.48874 0.0
C1887 C 0.37848 0.53109 0.53128 0.0
C1888 C 0.37065 0.54655 0.46137 0.0
C1889 C 0.35772 0.51015 0.42911 0.0
C1890 C 0.37983 0.54818 0.42197 0.0
C1891 C 0.37893 0.56448 0.39718 0.0
C1892 C 0.36885 0.57942 0.41151 0.0
C1893 C 0.35958 0.57758 0.45084 0.0
C1894 C 0.36052 0.56138 0.47548 0.0
H1895 H 0.35036 0.49706 0.4262 0.0
H1896 H 0.34898 0.52187 0.42151 0.0
H1897 H 0.3681 0.51001 0.40422 0.0
H1898 H 0.38793 0.53698 0.41079 0.0
H1899 H 0.38632 0.56547 0.36728 0.0
H1900 H 0.81775 0.10775 0.79198 0.0
H1901 H 0.78814 0.11021 0.76592 0.0
H1902 H 0.78262 0.16229 0.8323 0.0
H1903 H 0.8124 0.15991 0.859 0.0
H1904 H 0.7543 0.13849 0.84376 0.0
H1905 H 0.77118 0.14464 0.66845 0.0
H1906 H 0.78071 0.1249 0.69453 0.0
H1907 H 0.7868 0.14773 0.71162 0.0
C1908 C 0.81029 0.11975 0.80125 0.0
C1909 C 0.81755 0.13368 0.82753 0.0
C1910 C 0.79335 0.12118 0.78597 0.0
C1911 C 0.78324 0.13661 0.79635 0.0
C1912 C 0.79023 0.15034 0.82353 0.0
H1913 H 0.68367 0.15891 0.66787 0.0
H1914 H 0.71338 0.16162 0.69482 0.0
C1915 C 0.80726 0.14893 0.83883 0.0
C1916 C 0.7653 0.13812 0.77923 0.0
H1917 H 0.74171 0.13797 0.68465 0.0
C1918 C 0.75156 0.13855 0.80898 0.0
C1919 C 0.76168 0.13848 0.73382 0.0
C1920 C 0.77587 0.1391 0.70021 0.0
C1921 C 0.73432 0.13857 0.79458 0.0
C1922 C 0.73071 0.13791 0.74918 0.0
C1923 C 0.74445 0.13825 0.71942 0.0
C1924 C 0.71278 0.13621 0.7321 0.0
C1925 C 0.72013 0.13931 0.82815 0.0
C1926 C 0.70269 0.12084 0.74317 0.0
C1927 C 0.68578 0.11921 0.72775 0.0
C1928 C 0.67854 0.1329 0.70063 0.0
C1929 C 0.6888 0.14811 0.68869 0.0
C1930 C 0.70579 0.1497 0.70413 0.0
H1931 H 0.72479 0.14508 0.85966 0.0
H1932 H 0.70914 0.14779 0.81636 0.0
H1933 H 0.71537 0.12511 0.83448 0.0
H1934 H 0.7079 0.11003 0.76384 0.0
H1935 H 0.67834 0.10726 0.73754 0.0
H1936 H 0.88213 0.56418 0.16475 0.0
H1937 H 0.88311 0.53502 0.12388 0.0
H1938 H 0.85937 0.56176 1.01306 0.0
H1939 H 0.85807 0.59056 0.05328 0.0
H1940 H 0.84397 0.52908 0.0328 0.0
H1941 H 0.91497 0.52046 0.0229 0.0
H1942 H 0.90662 0.52321 0.07726 0.0
H1943 H 0.905 0.54192 0.03885 0.0
C1944 C 0.87714 0.56383 0.13168 0.0
C1945 C 0.86997 0.57975 0.11251 0.0
C1946 C 0.87783 0.54719 0.10823 0.0
C1947 C 0.8715 0.54626 0.06516 0.0
C1948 C 0.86436 0.56212 0.04616 0.0
H1949 H 0.88355 0.45978 0.86771 0.0
H1950 H 0.88455 0.48898 0.90849 0.0
C1951 C 0.86362 0.57863 0.06942 0.0
C1952 C 0.87158 0.52873 0.03991 0.0
H1953 H 0.89786 0.49597 0.99512 0.0
C1954 C 0.85577 0.52185 0.02461 0.0
C1955 C 0.88699 0.51946 0.02859 0.0
C1956 C 0.90439 0.52668 0.04235 0.0
C1957 C 0.85491 0.5059 0.99873 0.0
C1958 C 0.87026 0.49634 0.98841 0.0
C1959 C 0.88611 0.5033 1.00321 0.0
C1960 C 0.86993 0.47874 0.96361 0.0
C1961 C 0.83757 0.49956 0.98213 0.0
C1962 C 0.86153 0.46332 0.98123 0.0
C1963 C 0.86088 0.44675 0.95812 0.0
C1964 C 0.86871 0.44513 0.91678 0.0
C1965 C 0.87727 0.46057 0.89925 0.0
C1966 C 0.87793 0.47723 0.92259 0.0
H1967 H 0.82792 0.51088 0.98277 0.0
H1968 H 0.83853 0.49424 0.9482 0.0
H1969 H 0.83277 0.48823 1.00332 0.0
H1970 H 0.85552 0.46407 1.01311 0.0
H1971 H 0.85427 0.43517 0.97299 0.0
H1972 H 0.17837 0.10955 0.78878 0.0
H1973 H 0.20803 0.11202 0.76323 0.0
H1974 H 0.21373 0.16362 0.83168 0.0
H1975 H 0.18394 0.16121 0.85787 0.0
H1976 H 0.22291 0.13981 0.71197 0.0
H1977 H 0.25572 0.1336 0.87303 0.0
H1978 H 0.23336 0.12757 0.86526 0.0
H1979 H 0.23963 0.15137 0.86916 0.0
C1980 C 0.18591 0.12139 0.79881 0.0
C1981 C 0.17872 0.13514 0.82568 0.0
C1982 C 0.2029 0.1228 0.78395 0.0
C1983 C 0.2132 0.13792 0.79573 0.0
C1984 C 0.20613 0.15168 0.82266 0.0
H1985 H 0.31308 0.16129 0.66809 0.0
H1986 H 0.28322 0.16399 0.69384 0.0
C1987 C 0.18907 0.1503 0.83755 0.0
C1988 C 0.23122 0.1392 0.77913 0.0
H1989 H 0.2734 0.13851 0.81148 0.0
C1990 C 0.23396 0.13966 0.73372 0.0
C1991 C 0.24564 0.13883 0.8075 0.0
C1992 C 0.24355 0.13767 0.85645 0.0
C1993 C 0.25068 0.13956 0.71594 0.0
C1994 C 0.2651 0.13918 0.74431 0.0
C1995 C 0.26235 0.13893 0.78973 0.0
C1996 C 0.2831 0.13772 0.72768 0.0
C1997 C 0.25277 0.13918 0.66693 0.0
C1998 C 0.29304 0.12218 0.73837 0.0
C1999 C 0.31003 0.12061 0.72379 0.0
C2000 C 0.31762 0.13461 0.69827 0.0
C2001 C 0.30763 0.15019 0.68737 0.0
C2002 C 0.29054 0.15173 0.702 0.0
H2003 H 0.24052 0.13573 0.64998 0.0
H2004 H 0.25703 0.15298 0.65545 0.0
H2005 H 0.26272 0.12896 0.65727 0.0
H2006 H 0.28761 0.11119 0.7581 0.0
H2007 H 0.31728 0.10843 0.73302 0.0
H2008 H 0.61523 0.56224 0.35897 0.0
H2009 H 0.61387 0.5328 0.39917 0.0
H2010 H 0.62739 0.56089 0.51843 0.0
H2011 H 0.62895 0.59011 0.47902 0.0
H2012 H 0.64483 0.519 0.46072 0.0
H2013 H 0.58075 0.52834 0.53918 0.0
H2014 H 0.58613 0.53901 0.48748 0.0
H2015 H 0.59517 0.54782 0.53719 0.0
C2016 C 0.61787 0.56213 0.39375 0.0
C2017 C 0.62231 0.57852 0.41564 0.0
C2018 C 0.61708 0.54534 0.41662 0.0
C2019 C 0.62042 0.54477 0.46176 0.0
C2020 C 0.62467 0.56109 0.48367 0.0
H2021 H 0.61954 0.46009 0.66543 0.0
H2022 H 0.61865 0.48931 0.6244 0.0
C2023 C 0.62565 0.57777 0.46091 0.0
C2024 C 0.62018 0.5271 0.48615 0.0
H2025 H 0.59714 0.50248 0.56132 0.0
C2026 C 0.63436 0.51526 0.48245 0.0
C2027 C 0.60666 0.52255 0.51509 0.0
C2028 C 0.59122 0.53499 0.5201 0.0
C2029 C 0.63549 0.49899 0.50736 0.0
C2030 C 0.62179 0.49417 0.53579 0.0
C2031 C 0.60761 0.50612 0.53953 0.0
C2032 C 0.62179 0.47656 0.56092 0.0
C2033 C 0.65162 0.48744 0.50384 0.0
C2034 C 0.6234 0.4597 0.53891 0.0
C2035 C 0.62414 0.44314 0.56216 0.0
C2036 C 0.62294 0.44296 0.60808 0.0
C2037 C 0.62061 0.45978 0.63014 0.0
C2038 C 0.62009 0.47646 0.60672 0.0
H2039 H 0.66275 0.49579 0.49237 0.0
H2040 H 0.65504 0.48106 0.53572 0.0
H2041 H 0.64947 0.47627 0.47969 0.0
H2042 H 0.62413 0.45932 0.50356 0.0
H2043 H 0.62556 0.43042 0.54395 0.0
H2044 H 0.31138 0.86377 0.35849 0.0
H2045 H 0.28163 0.86136 0.33161 0.0
H2046 H 0.28751 0.91293 0.26274 0.0
H2047 H 0.31708 0.91542 0.28898 0.0
H2048 H 0.25346 0.88549 0.34184 0.0
H2049 H 0.27034 0.87795 0.1669 0.0
H2050 H 0.28593 0.87501 0.21026 0.0
H2051 H 0.28003 0.89778 0.19204 0.0
C2052 C 0.30632 0.87462 0.33771 0.0
C2053 C 0.31671 0.88975 0.32581 0.0
C2054 C 0.28932 0.8732 0.32232 0.0
C2055 C 0.28242 0.88678 0.29442 0.0
C2056 C 0.29264 0.90207 0.28337 0.0
H2057 H 0.17793 0.91698 0.23406 0.0
H2058 H 0.20747 0.914 0.26034 0.0
C2059 C 0.30956 0.90352 0.29875 0.0
C2060 C 0.26448 0.8853 0.27733 0.0
H2061 H 0.24092 0.88506 0.1827 0.0
C2062 C 0.25073 0.88522 0.30706 0.0
C2063 C 0.26087 0.88466 0.23194 0.0
C2064 C 0.27507 0.88366 0.1984 0.0
C2065 C 0.2335 0.88529 0.29262 0.0
C2066 C 0.2299 0.88569 0.24719 0.0
C2067 C 0.24365 0.88498 0.21748 0.0
C2068 C 0.212 0.88751 0.23 0.0
C2069 C 0.21929 0.88496 0.32619 0.0
C2070 C 0.20482 0.8739 0.2028 0.0
C2071 C 0.18784 0.87559 0.18737 0.0
C2072 C 0.17777 0.89104 0.19856 0.0
C2073 C 0.18521 0.90485 0.22487 0.0
C2074 C 0.20211 0.90311 0.24028 0.0
H2075 H 0.22388 0.87936 0.35799 0.0
H2076 H 0.21467 0.89925 0.3318 0.0
H2077 H 0.20822 0.87652 0.31478 0.0
H2078 H 0.21226 0.8618 0.1941 0.0
H2079 H 0.18255 0.86471 0.16719 0.0
H2080 H 0.61885 0.96109 0.3591 0.0
H2081 H 0.61826 0.99019 0.40046 0.0
H2082 H 0.62597 0.95991 0.52043 0.0
H2083 H 0.62703 0.93116 0.47978 0.0
H2084 H 0.59742 1.00266 0.46659 0.0
H2085 H 0.66448 0.99698 0.52729 0.0
H2086 H 0.65618 0.98241 0.48439 0.0
H2087 H 0.65181 0.97709 0.54083 0.0
C2088 C 0.62047 0.96069 0.39426 0.0
C2089 C 0.6233 0.94383 0.41597 0.0
C2090 C 0.62012 0.9773 0.41786 0.0
C2091 C 0.62252 0.97727 0.46348 0.0
C2092 C 0.62466 0.96038 0.48519 0.0
H2093 H 0.61738 0.06159 0.66788 0.0
H2094 H 0.61571 0.03242 0.62691 0.0
C2095 C 0.62521 0.9439 0.46176 0.0
C2096 C 0.62273 0.99478 0.48881 0.0
H2097 H 0.64682 0.01964 0.56164 0.0
C2098 C 0.60826 1.00641 0.48715 0.0
C2099 C 0.63691 0.99973 0.51563 0.0
C2100 C 0.65329 0.9885 0.51685 0.0
C2101 C 0.6075 0.02265 0.51219 0.0
C2102 C 0.6215 0.02731 0.53959 0.0
C2103 C 0.63599 0.0158 0.54111 0.0
C2104 C 0.62189 0.0448 0.56447 0.0
C2105 C 0.59175 0.03479 0.50947 0.0
C2106 C 0.62602 0.06125 0.54287 0.0
C2107 C 0.62717 0.07777 0.56605 0.0
C2108 C 0.62412 0.07823 0.61144 0.0
C2109 C 0.61981 0.0617 0.63303 0.0
C2110 C 0.61883 0.04507 0.60971 0.0
H2111 H 0.58115 0.02821 0.49068 0.0
H2112 H 0.58706 0.03811 0.54282 0.0
H2113 H 0.5952 0.048 0.49326 0.0
H2114 H 0.62851 0.06127 0.50802 0.0
H2115 H 0.63037 0.09022 0.54815 0.0
H2116 H 0.18014 0.36399 0.84039 0.0
H2117 H 0.2101 0.36342 0.81542 0.0
H2118 H 0.20914 0.42263 0.8 0.0
H2119 H 0.17903 0.42314 0.82294 0.0
H2120 H 0.22355 0.40814 0.73207 0.0
H2121 H 0.25339 0.37589 0.8779 0.0
H2122 H 0.23692 0.36168 0.85438 0.0
H2123 H 0.23135 0.38373 0.87755 0.0
C2124 C 0.1864 0.3769 0.83218 0.0
C2125 C 0.17723 0.39362 0.83385 0.0
C2126 C 0.20359 0.37658 0.81808 0.0
C2127 C 0.2121 0.39302 0.80642 0.0
C2128 C 0.20296 0.40974 0.80875 0.0
H2129 H 0.32258 0.40627 0.78025 0.0
H2130 H 0.2925 0.4057 0.80314 0.0
C2131 C 0.18573 0.41002 0.82205 0.0
C2132 C 0.23025 0.39291 0.79022 0.0
H2133 H 0.27113 0.37875 0.81503 0.0
C2134 C 0.23396 0.40177 0.75037 0.0
C2135 C 0.24396 0.38479 0.81414 0.0
C2136 C 0.24126 0.37616 0.85856 0.0
C2137 C 0.25085 0.40282 0.73395 0.0
C2138 C 0.26446 0.39417 0.75714 0.0
C2139 C 0.26075 0.38525 0.79691 0.0
C2140 C 0.28275 0.39486 0.74198 0.0
C2141 C 0.25395 0.41379 0.69269 0.0
C2142 C 0.28748 0.38897 0.69984 0.0
C2143 C 0.30473 0.38964 0.6863 0.0
C2144 C 0.31768 0.39577 0.71501 0.0
C2145 C 0.31295 0.40143 0.75728 0.0
C2146 C 0.29572 0.40107 0.77049 0.0
H2147 H 0.24349 0.42396 0.68673 0.0
H2148 H 0.2664 0.42131 0.69414 0.0
H2149 H 0.25426 0.40425 0.66437 0.0
H2150 H 0.27787 0.3836 0.67756 0.0
H2151 H 0.30797 0.38494 0.65374 0.0
H2152 H 0.87058 0.93179 0.04801 0.0
H2153 H 0.87255 0.96045 1.00683 0.0
H2154 H 0.87433 0.99127 0.12732 0.0
H2155 H 0.87299 0.96231 0.16911 0.0
H2156 H 0.85094 0.9881 1.00287 0.0
H2157 H 0.91359 0.01464 0.06316 0.0
H2158 H 0.90635 0.99144 0.07429 0.0
H2159 H 0.89844 1.01047 0.10626 0.0
C2160 C 0.87146 0.94464 0.06594 0.0
C2161 C 0.87157 0.94476 0.11195 0.0
C2162 C 0.87261 0.96105 0.04223 0.0
C2163 C 0.87379 0.97807 0.06379 0.0
C2164 C 0.87388 0.9783 0.10983 0.0
H2165 H 0.86471 0.09069 0.9777 0.0
H2166 H 0.86619 0.06151 0.01713 0.0
C2167 C 0.87298 0.96176 0.13373 0.0
C2168 C 0.87413 0.99544 0.03763 0.0
H2169 H 0.89667 0.03534 0.02017 0.0
C2170 C 0.86104 0.99833 1.00647 0.0
C2171 C 0.88734 1.00882 0.04207 0.0
C2172 C 0.90232 1.00614 0.07293 0.0
C2173 C 0.86064 0.01428 0.98032 0.0
C2174 C 0.87364 0.02774 0.98538 0.0
C2175 C 0.88675 0.02492 0.01634 0.0
C2176 C 0.87322 0.04535 0.96063 0.0
C2177 C 0.84611 0.0169 0.94809 0.0
C2178 C 0.8768 0.04594 0.91563 0.0
C2179 C 0.87604 0.06273 0.89271 0.0
C2180 C 0.87154 0.07913 0.91446 0.0
C2181 C 0.86807 0.07836 0.95964 0.0
C2182 C 0.86898 0.06169 0.98243 0.0
H2183 H 0.83592 1.00624 0.95181 0.0
H2184 H 0.84021 0.03075 0.9522 0.0
H2185 H 0.85126 0.0161 0.91432 0.0
H2186 H 0.88019 0.03344 0.89831 0.0
H2187 H 0.87884 0.06284 0.85804 0.0
H2188 H 0.17747 0.60957 0.23149 0.0
H2189 H 0.20719 0.61234 0.25658 0.0
H2190 H 0.21137 0.66532 0.19306 0.0
H2191 H 0.18153 0.66258 0.16721 0.0
H2192 H 0.23985 0.64308 0.17892 0.0
H2193 H 0.2244 0.6452 0.35547 0.0
H2194 H 0.21532 0.6255 0.32843 0.0
H2195 H 0.20825 0.64832 0.31355 0.0
C2196 C 0.18466 0.62184 0.22268 0.0
C2197 C 0.17702 0.6359 0.19741 0.0
C2198 C 0.20166 0.62345 0.23742 0.0
C2199 C 0.21143 0.63922 0.22757 0.0
C2200 C 0.20403 0.6531 0.20142 0.0
H2201 H 0.3114 0.66083 0.35486 0.0
H2202 H 0.28151 0.66372 0.32933 0.0
C2203 C 0.18697 0.65149 0.1866 0.0
C2204 C 0.22945 0.64092 0.24392 0.0
H2205 H 0.25388 0.63951 0.33705 0.0
C2206 C 0.2429 0.64248 0.21352 0.0
C2207 C 0.23347 0.64046 0.28912 0.0
C2208 C 0.21959 0.63997 0.32357 0.0
C2209 C 0.26024 0.6428 0.22695 0.0
C2210 C 0.26429 0.64123 0.272 0.0
C2211 C 0.25082 0.64048 0.30252 0.0
C2212 C 0.28238 0.63957 0.28784 0.0
C2213 C 0.27408 0.64481 0.1927 0.0
C2214 C 0.29271 0.62485 0.2738 0.0
C2215 C 0.30972 0.62315 0.2883 0.0
C2216 C 0.31685 0.63608 0.31754 0.0
C2217 C 0.30637 0.65064 0.33232 0.0
C2218 C 0.28928 0.65233 0.31772 0.0
H2219 H 0.269 0.6514 0.16248 0.0
H2220 H 0.28505 0.65315 0.20506 0.0
H2221 H 0.27898 0.63093 0.18382 0.0
H2222 H 0.28758 0.61457 0.25166 0.0
H2223 H 0.3173 0.61167 0.27635 0.0
H2224 H 0.38265 0.95988 0.36389 0.0
H2225 H 0.38366 0.98894 0.40516 0.0
H2226 H 0.35837 0.96243 0.51381 0.0
H2227 H 0.35704 0.93372 0.47317 0.0
H2228 H 0.34385 0.99564 0.49333 0.0
H2229 H 0.41491 1.00219 0.50888 0.0
H2230 H 0.40707 0.99976 0.45387 0.0
H2231 H 0.40457 0.98104 0.49196 0.0
C2232 C 0.37731 0.96027 0.39655 0.0
C2233 C 0.36974 0.94442 0.41503 0.0
C2234 C 0.37802 0.97684 0.42023 0.0
C2235 C 0.37128 0.97779 0.46283 0.0
C2236 C 0.36368 0.96203 0.48109 0.0
H2237 H 0.38361 0.06362 0.66185 0.0
H2238 H 0.38421 0.03441 0.62106 0.0
C2239 C 0.36293 0.94558 0.4576 0.0
C2240 C 0.37152 0.99522 0.48839 0.0
H2241 H 0.39813 0.0271 0.53564 0.0
C2242 C 0.35573 1.00251 0.50254 0.0
C2243 C 0.38703 1.004 0.50104 0.0
C2244 C 0.40439 0.99631 0.48856 0.0
C2245 C 0.355 0.01843 0.52854 0.0
C2246 C 0.37046 0.02752 0.54017 0.0
C2247 C 0.38629 0.02013 0.52655 0.0
C2248 C 0.37033 0.04509 0.56506 0.0
C2249 C 0.33765 0.02524 0.54385 0.0
C2250 C 0.36249 0.06075 0.54693 0.0
C2251 C 0.36207 0.07733 0.57003 0.0
C2252 C 0.36959 0.07871 0.61186 0.0
C2253 C 0.37759 0.06302 0.62992 0.0
C2254 C 0.37801 0.04635 0.60659 0.0
H2255 H 0.32774 0.01418 0.54245 0.0
H2256 H 0.33839 0.03053 0.57785 0.0
H2257 H 0.33334 0.03669 0.52232 0.0
H2258 H 0.35675 0.06019 0.51465 0.0
H2259 H 0.35589 0.0891 0.55475 0.0
H2260 H 0.8078 0.65217 0.1518 0.0
H2261 H 0.7778 0.65317 0.177 0.0
H2262 H 0.79096 0.61752 0.28519 0.0
H2263 H 0.82052 0.6158 0.25914 0.0
H2264 H 0.76272 0.60616 0.25156 0.0
H2265 H 0.7563 0.68168 0.27353 0.0
H2266 H 0.76194 0.6756 0.21859 0.0
H2267 H 0.77674 0.67081 0.2626 0.0
C2268 C 0.80425 0.64459 0.18097 0.0
C2269 C 0.81654 0.63385 0.20329 0.0
C2270 C 0.78712 0.64531 0.19565 0.0
C2271 C 0.78206 0.63569 0.23358 0.0
C2272 C 0.79442 0.62508 0.25589 0.0
H2273 H 0.68491 0.65124 0.37544 0.0
H2274 H 0.71503 0.65219 0.35096 0.0
C2275 C 0.81138 0.62409 0.24086 0.0
C2276 C 0.76384 0.63587 0.2494 0.0
H2277 H 0.73043 0.66405 0.2787 0.0
C2278 C 0.75573 0.61886 0.25766 0.0
C2279 C 0.75469 0.65239 0.2582 0.0
C2280 C 0.76292 0.67114 0.25323 0.0
C2281 C 0.73886 0.61788 0.27404 0.0
C2282 C 0.72941 0.63436 0.28081 0.0
C2283 C 0.73754 0.65139 0.27308 0.0
C2284 C 0.71107 0.63413 0.29549 0.0
C2285 C 0.73157 0.59911 0.28501 0.0
C2286 C 0.69869 0.62398 0.27217 0.0
C2287 C 0.68163 0.62315 0.28654 0.0
C2288 C 0.67635 0.63282 0.32405 0.0
C2289 C 0.68858 0.64353 0.34662 0.0
C2290 C 0.70579 0.64412 0.33256 0.0
H2291 H 0.74196 0.58898 0.2921 0.0
H2292 H 0.72287 0.59974 0.31374 0.0
H2293 H 0.72415 0.59386 0.25659 0.0
H2294 H 0.70221 0.61668 0.24266 0.0
H2295 H 0.6725 0.61507 0.26778 0.0
H2296 H 0.11826 0.06386 0.85728 0.0
H2297 H 0.11662 0.03461 0.89819 0.0
H2298 H 0.1281 0.06349 0.01778 0.0
H2299 H 0.12991 0.0925 0.97772 0.0
H2300 H 0.14604 0.0207 0.95989 0.0
H2301 H 0.08231 0.03136 0.03897 0.0
H2302 H 0.08809 0.04237 0.98797 0.0
H2303 H 0.09704 0.05057 0.03842 0.0
C2304 C 0.12039 0.06397 0.89228 0.0
C2305 C 0.12431 0.08052 0.91409 0.0
C2306 C 0.11944 0.04728 0.91557 0.0
C2307 C 0.12209 0.04698 0.96102 0.0
C2308 C 0.12586 0.06347 0.9828 0.0
H2309 H 0.12092 0.96327 0.16715 0.0
H2310 H 0.12035 0.99235 0.12547 0.0
C2311 C 0.127 0.08003 0.95966 0.0
C2312 C 0.12168 0.02943 0.98593 0.0
H2313 H 0.09866 1.00567 0.0627 0.0
C2314 C 0.13563 0.01729 0.9821 0.0
C2315 C 0.10824 0.02529 0.01547 0.0
C2316 C 0.09297 0.03798 0.02052 0.0
C2317 C 0.13664 1.00115 1.0075 0.0
C2318 C 0.12302 0.99676 0.0366 0.0
C2319 C 0.10907 1.00899 0.04044 0.0
C2320 C 0.12285 0.97927 0.06218 0.0
C2321 C 0.15254 0.98927 1.00378 0.0
C2322 C 0.12398 0.96229 0.04049 0.0
C2323 C 0.12453 0.94582 0.06409 0.0
C2324 C 0.12362 0.94584 0.11006 0.0
C2325 C 0.12176 0.9628 0.13183 0.0
C2326 C 0.12143 0.9794 0.10805 0.0
H2327 H 0.16374 0.99733 0.99166 0.0
H2328 H 0.15603 0.98298 0.03573 0.0
H2329 H 0.15007 0.97801 0.98005 0.0
H2330 H 0.12448 0.96176 1.00514 0.0
H2331 H 0.12557 0.933 0.04609 0.0
H2332 H 0.68321 0.36306 0.66586 0.0
H2333 H 0.71278 0.36061 0.69388 0.0
H2334 H 0.70669 0.41237 0.76135 0.0
H2335 H 0.67726 0.4149 0.73396 0.0
H2336 H 0.74106 0.38447 0.6842 0.0
H2337 H 0.7231 0.37756 0.85867 0.0
H2338 H 0.70775 0.37464 0.8148 0.0
H2339 H 0.71372 0.3974 0.83266 0.0
C2340 C 0.68818 0.37396 0.68654 0.0
C2341 C 0.67778 0.38914 0.69775 0.0
C2342 C 0.70508 0.37251 0.7026 0.0
C2343 C 0.71185 0.38612 0.73047 0.0
C2344 C 0.70164 0.40148 0.74077 0.0
H2345 H 0.81596 0.41585 0.79404 0.0
H2346 H 0.78652 0.41295 0.76717 0.0
C2347 C 0.68481 0.40296 0.72473 0.0
C2348 C 0.72967 0.38456 0.74829 0.0
H2349 H 0.75268 0.38429 0.8438 0.0
C2350 C 0.74359 0.38426 0.71908 0.0
C2351 C 0.73301 0.38399 0.79383 0.0
C2352 C 0.71861 0.38322 0.82685 0.0
C2353 C 0.76073 0.38418 0.73417 0.0
C2354 C 0.76406 0.38464 0.77971 0.0
C2355 C 0.75015 0.38415 0.80892 0.0
C2356 C 0.78187 0.38642 0.79745 0.0
C2357 C 0.77514 0.38365 0.70115 0.0
C2358 C 0.78894 0.37275 0.82482 0.0
C2359 C 0.80587 0.3744 0.84058 0.0
C2360 C 0.81599 0.38984 0.82955 0.0
C2361 C 0.80864 0.40371 0.80312 0.0
C2362 C 0.7918 0.40203 0.78738 0.0
H2363 H 0.77069 0.37807 0.66926 0.0
H2364 H 0.77993 0.39789 0.69552 0.0
H2365 H 0.78605 0.3751 0.71312 0.0
H2366 H 0.78145 0.36065 0.83335 0.0
H2367 H 0.8111 0.36347 0.86085 0.0
loop_
_geom_bond_atom_site_label_1
_geom_bond_atom_site_label_2
_geom_bond_distance
_geom_bond_site_symmetry_2
_ccdc_geom_bond_type
Eu0 C9 2.828 . S
Eu0 O11 2.392 . S
Eu0 O13 2.418 . S
Eu0 O18 2.373 . S
Eu0 O21 2.488 . S
Eu0 O22 2.471 . S
Eu0 O23 2.349 . S
Eu1 O10 2.373 . S
Eu1 O14 2.488 . S
Eu1 O15 2.471 . S
Eu1 O16 2.349 . S
Eu1 O19 2.392 . S
Eu1 O20 2.418 . S
Eu1 C30 2.828 . S
C2 O20 1.244 . S
C2 O23 1.265 . S
C3 C4 1.379 . S
C3 C7 1.373 . S
C3 C9 1.505 . S
C4 C3 1.379 . S
C4 C6 1.369 . S
C4 H32 0.930 . S
C5 C7 1.383 . S
C5 C8 1.382 . S
C5 H33 0.930 . S
C6 C4 1.369 . S
C6 C8 1.392 . S
C6 H34 0.930 . S
C7 C3 1.373 . S
C7 C5 1.383 . S
C7 H35 0.931 . S
C8 C5 1.382 . S
C8 C6 1.392 . S
C9 Eu0 2.828 . S
C9 C3 1.505 . S
C9 O21 1.249 . S
C9 O22 1.244 . S
O10 Eu1 2.373 . S
O10 C12 1.258 . S
O11 Eu0 2.392 . S
O11 C12 1.242 . S
C12 O10 1.258 . S
C12 O11 1.242 . S
O13 Eu0 2.418 . S
O13 C17 1.244 . S
O14 Eu1 2.488 . S
O14 C30 1.249 . S
O15 Eu1 2.471 . S
O15 C30 1.244 . S
O16 Eu1 2.349 . S
O16 C17 1.265 . S
C17 O13 1.244 . S
C17 O16 1.265 . S
O18 Eu0 2.373 . S
O18 C31 1.258 . S
O19 Eu1 2.392 . S
O19 C31 1.242 . S
O20 Eu1 2.418 . S
O20 C2 1.244 . S
O21 Eu0 2.488 . S
O21 C9 1.249 . S
O22 Eu0 2.471 . S
O22 C9 1.244 . S
O23 Eu0 2.349 . S
O23 C2 1.265 . S
C24 C25 1.379 1_554 S
C24 C28 1.373 1_554 S
C24 C30 1.505 . S
C25 C24 1.379 1_556 S
C25 C27 1.369 . S
C25 H36 0.930 1_556 S
C26 C28 1.383 . S
C26 C29 1.382 . S
C26 H37 0.930 . S
C27 C25 1.369 . S
C27 C29 1.392 . S
C27 H38 0.930 . S
C28 C24 1.373 1_556 S
C28 C26 1.383 . S
C28 H39 0.931 . S
C29 C26 1.382 . S
C29 C27 1.392 . S
C30 Eu1 2.828 . S
C30 O14 1.249 . S
C30 O15 1.244 . S
C30 C24 1.505 . S
C31 O18 1.258 . S
C31 O19 1.242 . S
H32 C4 0.930 . S
H33 C5 0.930 . S
H34 C6 0.930 . S
H35 C7 0.931 . S
H36 C25 0.930 1_554 S
H37 C26 0.930 . S
H38 C27 0.930 . S
H39 C28 0.931 . S
Eu40 C49 2.828 . S
Eu40 O51 2.392 . S
Eu40 O53 2.418 . S
Eu40 O58 2.373 . S
Eu40 O61 2.488 . S
Eu40 O62 2.471 . S
Eu40 O63 2.349 . S
Eu41 O50 2.373 . S
Eu41 O54 2.488 . S
Eu41 O55 2.471 . S
Eu41 O56 2.349 . S
Eu41 O59 2.392 . S
Eu41 O60 2.418 . S
Eu41 C70 2.828 . S
C42 O60 1.244 . S
C42 O63 1.265 . S
C43 C44 1.379 . S
C43 C47 1.373 . S
C43 C49 1.505 . S
C44 C43 1.379 . S
C44 C46 1.369 . S
C44 H72 0.930 . S
C45 C47 1.383 . S
C45 C48 1.382 . S
C45 H73 0.930 . S
C46 C44 1.369 . S
C46 C48 1.392 . S
C46 H74 0.930 . S
C47 C43 1.373 . S
C47 C45 1.383 . S
C47 H75 0.931 . S
C48 C45 1.382 . S
C48 C46 1.392 . S
C49 Eu40 2.828 . S
C49 C43 1.505 . S
C49 O61 1.249 . S
C49 O62 1.244 . S
O50 Eu41 2.373 . S
O50 C52 1.258 . S
O51 Eu40 2.392 . S
O51 C52 1.242 . S
C52 O50 1.258 . S
C52 O51 1.242 . S
O53 Eu40 2.418 . S
O53 C57 1.244 . S
O54 Eu41 2.488 . S
O54 C70 1.249 . S
O55 Eu41 2.471 . S
O55 C70 1.244 . S
O56 Eu41 2.349 . S
O56 C57 1.265 . S
C57 O53 1.244 . S
C57 O56 1.265 . S
O58 Eu40 2.373 . S
O58 C71 1.258 . S
O59 Eu41 2.392 . S
O59 C71 1.242 . S
O60 Eu41 2.418 . S
O60 C42 1.244 . S
O61 Eu40 2.488 . S
O61 C49 1.249 . S
O62 Eu40 2.471 . S
O62 C49 1.244 . S
O63 Eu40 2.349 . S
O63 C42 1.265 . S
C64 C65 1.379 . S
C64 C68 1.373 . S
C64 C70 1.505 . S
C65 C64 1.379 . S
C65 C67 1.369 . S
C65 H76 0.930 . S
C66 C68 1.383 . S
C66 C69 1.382 . S
C66 H77 0.930 . S
C67 C65 1.369 . S
C67 C69 1.392 . S
C67 H78 0.930 . S
C68 C64 1.373 . S
C68 C66 1.383 . S
C68 H79 0.931 . S
C69 C66 1.382 . S
C69 C67 1.392 . S
C70 Eu41 2.828 . S
C70 O54 1.249 . S
C70 O55 1.244 . S
C70 C64 1.505 . S
C71 O58 1.258 . S
C71 O59 1.242 . S
H72 C44 0.930 . S
H73 C45 0.930 . S
H74 C46 0.930 . S
H75 C47 0.931 . S
H76 C65 0.930 . S
H77 C66 0.930 . S
H78 C67 0.930 . S
H79 C68 0.931 . S
Eu80 C89 2.828 . S
Eu80 O91 2.392 . S
Eu80 O93 2.418 . S
Eu80 O98 2.373 . S
Eu80 O101 2.488 . S
Eu80 O102 2.471 . S
Eu80 O103 2.349 . S
Eu81 O90 2.373 . S
Eu81 O94 2.488 . S
Eu81 O95 2.471 . S
Eu81 O96 2.349 . S
Eu81 O99 2.392 . S
Eu81 O100 2.418 . S
Eu81 C110 2.828 . S
C82 O100 1.244 . S
C82 O103 1.265 . S
C83 C84 1.379 . S
C83 C87 1.373 . S
C83 C89 1.505 . S
C84 C83 1.379 . S
C84 C86 1.369 . S
C84 H112 0.930 . S
C85 C87 1.383 . S
C85 C88 1.382 . S
C85 H113 0.930 . S
C86 C84 1.369 . S
C86 C88 1.392 . S
C86 H114 0.930 . S
C87 C83 1.373 . S
C87 C85 1.383 . S
C87 H115 0.931 . S
C88 C85 1.382 . S
C88 C86 1.392 . S
C89 Eu80 2.828 . S
C89 C83 1.505 . S
C89 O101 1.249 . S
C89 O102 1.244 . S
O90 Eu81 2.373 . S
O90 C92 1.258 . S
O91 Eu80 2.392 . S
O91 C92 1.242 . S
C92 O90 1.258 . S
C92 O91 1.242 . S
O93 Eu80 2.418 . S
O93 C97 1.244 . S
O94 Eu81 2.488 . S
O94 C110 1.249 . S
O95 Eu81 2.471 . S
O95 C110 1.244 . S
O96 Eu81 2.349 . S
O96 C97 1.265 . S
C97 O93 1.244 . S
C97 O96 1.265 . S
O98 Eu80 2.373 . S
O98 C111 1.258 . S
O99 Eu81 2.392 . S
O99 C111 1.242 . S
O100 Eu81 2.418 . S
O100 C82 1.244 . S
O101 Eu80 2.488 . S
O101 C89 1.249 . S
O102 Eu80 2.471 . S
O102 C89 1.244 . S
O103 Eu80 2.349 . S
O103 C82 1.265 . S
C104 C105 1.379 . S
C104 C108 1.373 . S
C104 C110 1.505 . S
C105 C104 1.379 . S
C105 C107 1.369 . S
C105 H116 0.930 . S
C106 C108 1.383 . S
C106 C109 1.382 . S
C106 H117 0.930 . S
C107 C105 1.369 . S
C107 C109 1.392 . S
C107 H118 0.930 . S
C108 C104 1.373 . S
C108 C106 1.383 . S
C108 H119 0.931 . S
C109 C106 1.382 . S
C109 C107 1.392 . S
C110 Eu81 2.828 . S
C110 O94 1.249 . S
C110 O95 1.244 . S
C110 C104 1.505 . S
C111 O98 1.258 . S
C111 O99 1.242 . S
H112 C84 0.930 . S
H113 C85 0.930 . S
H114 C86 0.930 . S
H115 C87 0.931 . S
H116 C105 0.930 . S
H117 C106 0.930 . S
H118 C107 0.930 . S
H119 C108 0.931 . S
Eu120 C129 2.828 . S
Eu120 O131 2.392 . S
Eu120 O133 2.418 . S
Eu120 O138 2.373 . S
Eu120 O141 2.488 . S
Eu120 O142 2.471 . S
Eu120 O143 2.349 . S
Eu121 O130 2.373 . S
Eu121 O134 2.488 . S
Eu121 O135 2.471 . S
Eu121 O136 2.349 . S
Eu121 O139 2.392 . S
Eu121 O140 2.418 . S
Eu121 C150 2.828 . S
C122 O140 1.244 . S
C122 O143 1.265 . S
C123 C124 1.379 . S
C123 C127 1.373 . S
C123 C129 1.505 . S
C124 C123 1.379 . S
C124 C126 1.369 . S
C124 H152 0.930 . S
C125 C127 1.383 . S
C125 C128 1.382 . S
C125 H153 0.930 . S
C126 C124 1.369 . S
C126 C128 1.392 . S
C126 H154 0.930 . S
C127 C123 1.373 . S
C127 C125 1.383 . S
C127 H155 0.931 . S
C128 C125 1.382 . S
C128 C126 1.392 . S
C129 Eu120 2.828 . S
C129 C123 1.505 . S
C129 O141 1.249 . S
C129 O142 1.244 . S
O130 Eu121 2.373 . S
O130 C132 1.258 . S
O131 Eu120 2.392 . S
O131 C132 1.242 . S
C132 O130 1.258 . S
C132 O131 1.242 . S
O133 Eu120 2.418 . S
O133 C137 1.244 . S
O134 Eu121 2.488 . S
O134 C150 1.249 . S
O135 Eu121 2.471 . S
O135 C150 1.244 . S
O136 Eu121 2.349 . S
O136 C137 1.265 . S
C137 O133 1.244 . S
C137 O136 1.265 . S
O138 Eu120 2.373 . S
O138 C151 1.258 . S
O139 Eu121 2.392 . S
O139 C151 1.242 . S
O140 Eu121 2.418 . S
O140 C122 1.244 . S
O141 Eu120 2.488 . S
O141 C129 1.249 . S
O142 Eu120 2.471 . S
O142 C129 1.244 . S
O143 Eu120 2.349 . S
O143 C122 1.265 . S
C144 C145 1.379 1_556 S
C144 C148 1.373 1_556 S
C144 C150 1.505 . S
C145 C144 1.379 1_554 S
C145 C147 1.369 . S
C145 H156 0.930 1_554 S
C146 C148 1.383 . S
C146 C149 1.382 . S
C146 H157 0.930 . S
C147 C145 1.369 . S
C147 C149 1.392 . S
C147 H158 0.930 . S
C148 C144 1.373 1_554 S
C148 C146 1.383 . S
C148 H159 0.931 . S
C149 C146 1.382 . S
C149 C147 1.392 . S
C150 Eu121 2.828 . S
C150 O134 1.249 . S
C150 O135 1.244 . S
C150 C144 1.505 . S
C151 O138 1.258 . S
C151 O139 1.242 . S
H152 C124 0.930 . S
H153 C125 0.930 . S
H154 C126 0.930 . S
H155 C127 0.931 . S
H156 C145 0.930 1_556 S
H157 C146 0.930 . S
H158 C147 0.930 . S
H159 C148 0.931 . S
Eu160 C169 2.828 . S
Eu160 O171 2.392 . S
Eu160 O173 2.418 . S
Eu160 O178 2.373 . S
Eu160 O181 2.488 . S
Eu160 O182 2.471 . S
Eu160 O183 2.349 . S
Eu161 O170 2.373 . S
Eu161 O174 2.488 . S
Eu161 O175 2.471 . S
Eu161 O176 2.349 . S
Eu161 O179 2.392 . S
Eu161 O180 2.418 . S
Eu161 C190 2.828 . S
C162 O180 1.244 . S
C162 O183 1.265 . S
C163 C164 1.379 . S
C163 C167 1.373 . S
C163 C169 1.505 . S
C164 C163 1.379 . S
C164 C166 1.369 . S
C164 H192 0.930 . S
C165 C167 1.383 . S
C165 C168 1.382 . S
C165 H193 0.930 . S
C166 C164 1.369 . S
C166 C168 1.392 . S
C166 H194 0.930 . S
C167 C163 1.373 . S
C167 C165 1.383 . S
C167 H195 0.931 . S
C168 C165 1.382 . S
C168 C166 1.392 . S
C169 Eu160 2.828 . S
C169 C163 1.505 . S
C169 O181 1.249 . S
C169 O182 1.244 . S
O170 Eu161 2.373 . S
O170 C172 1.258 . S
O171 Eu160 2.392 . S
O171 C172 1.242 . S
C172 O170 1.258 . S
C172 O171 1.242 . S
O173 Eu160 2.418 . S
O173 C177 1.244 . S
O174 Eu161 2.488 . S
O174 C190 1.249 . S
O175 Eu161 2.471 . S
O175 C190 1.244 . S
O176 Eu161 2.349 . S
O176 C177 1.265 . S
C177 O173 1.244 . S
C177 O176 1.265 . S
O178 Eu160 2.373 . S
O178 C191 1.258 . S
O179 Eu161 2.392 . S
O179 C191 1.242 . S
O180 Eu161 2.418 . S
O180 C162 1.244 . S
O181 Eu160 2.488 . S
O181 C169 1.249 . S
O182 Eu160 2.471 . S
O182 C169 1.244 . S
O183 Eu160 2.349 . S
O183 C162 1.265 . S
C184 C185 1.379 1_556 S
C184 C188 1.373 1_556 S
C184 C190 1.505 . S
C185 C184 1.379 1_554 S
C185 C187 1.369 . S
C185 H196 0.930 1_554 S
C186 C188 1.383 . S
C186 C189 1.382 . S
C186 H197 0.930 . S
C187 C185 1.369 . S
C187 C189 1.392 . S
C187 H198 0.930 . S
C188 C184 1.373 1_554 S
C188 C186 1.383 . S
C188 H199 0.931 . S
C189 C186 1.382 . S
C189 C187 1.392 . S
C190 Eu161 2.828 . S
C190 O174 1.249 . S
C190 O175 1.244 . S
C190 C184 1.505 . S
C191 O178 1.258 . S
C191 O179 1.242 . S
H192 C164 0.930 . S
H193 C165 0.930 . S
H194 C166 0.930 . S
H195 C167 0.931 . S
H196 C185 0.930 1_556 S
H197 C186 0.930 . S
H198 C187 0.930 . S
H199 C188 0.931 . S
Eu200 C209 2.828 . S
Eu200 O211 2.392 . S
Eu200 O213 2.418 . S
Eu200 O218 2.373 . S
Eu200 O221 2.488 . S
Eu200 O222 2.471 . S
Eu200 O223 2.349 . S
Eu201 O210 2.373 . S
Eu201 O214 2.488 . S
Eu201 O215 2.471 . S
Eu201 O216 2.349 . S
Eu201 O219 2.392 . S
Eu201 O220 2.418 . S
Eu201 C230 2.828 . S
C202 O220 1.244 . S
C202 O223 1.265 . S
C203 C204 1.379 . S
C203 C207 1.373 . S
C203 C209 1.505 . S
C204 C203 1.379 . S
C204 C206 1.369 . S
C204 H232 0.930 . S
C205 C207 1.383 . S
C205 C208 1.382 . S
C205 H233 0.930 . S
C206 C204 1.369 . S
C206 C208 1.392 . S
C206 H234 0.930 . S
C207 C203 1.373 . S
C207 C205 1.383 . S
C207 H235 0.931 . S
C208 C205 1.382 . S
C208 C206 1.392 . S
C209 Eu200 2.828 . S
C209 C203 1.505 . S
C209 O221 1.249 . S
C209 O222 1.244 . S
O210 Eu201 2.373 . S
O210 C212 1.258 . S
O211 Eu200 2.392 . S
O211 C212 1.242 . S
C212 O210 1.258 . S
C212 O211 1.242 . S
O213 Eu200 2.418 . S
O213 C217 1.244 . S
O214 Eu201 2.488 . S
O214 C230 1.249 . S
O215 Eu201 2.471 . S
O215 C230 1.244 . S
O216 Eu201 2.349 . S
O216 C217 1.265 . S
C217 O213 1.244 . S
C217 O216 1.265 . S
O218 Eu200 2.373 . S
O218 C231 1.258 . S
O219 Eu201 2.392 . S
O219 C231 1.242 . S
O220 Eu201 2.418 . S
O220 C202 1.244 . S
O221 Eu200 2.488 . S
O221 C209 1.249 . S
O222 Eu200 2.471 . S
O222 C209 1.244 . S
O223 Eu200 2.349 . S
O223 C202 1.265 . S
C224 C225 1.379 1_554 S
C224 C228 1.373 1_554 S
C224 C230 1.505 . S
C225 C224 1.379 1_556 S
C225 C227 1.369 . S
C225 H236 0.930 1_556 S
C226 C228 1.383 . S
C226 C229 1.382 . S
C226 H237 0.930 . S
C227 C225 1.369 . S
C227 C229 1.392 . S
C227 H238 0.930 . S
C228 C224 1.373 1_556 S
C228 C226 1.383 . S
C228 H239 0.931 . S
C229 C226 1.382 . S
C229 C227 1.392 . S
C230 Eu201 2.828 . S
C230 O214 1.249 . S
C230 O215 1.244 . S
C230 C224 1.505 . S
C231 O218 1.258 . S
C231 O219 1.242 . S
H232 C204 0.930 . S
H233 C205 0.930 . S
H234 C206 0.930 . S
H235 C207 0.931 . S
H236 C225 0.930 1_554 S
H237 C226 0.930 . S
H238 C227 0.930 . S
H239 C228 0.931 . S
Eu240 C249 2.828 . S
Eu240 O251 2.392 . S
Eu240 O253 2.418 . S
Eu240 O258 2.373 . S
Eu240 O261 2.488 . S
Eu240 O262 2.471 . S
Eu240 O263 2.349 . S
Eu241 O250 2.373 . S
Eu241 O254 2.488 . S
Eu241 O255 2.471 . S
Eu241 O256 2.349 . S
Eu241 O259 2.392 . S
Eu241 O260 2.418 . S
Eu241 C270 2.828 . S
C242 O260 1.244 . S
C242 O263 1.265 . S
C243 C244 1.379 . S
C243 C247 1.373 . S
C243 C249 1.505 . S
C244 C243 1.379 . S
C244 C246 1.369 . S
C244 H272 0.930 . S
C245 C247 1.383 . S
C245 C248 1.382 . S
C245 H273 0.930 . S
C246 C244 1.369 . S
C246 C248 1.392 . S
C246 H274 0.930 . S
C247 C243 1.373 . S
C247 C245 1.383 . S
C247 H275 0.931 . S
C248 C245 1.382 . S
C248 C246 1.392 . S
C249 Eu240 2.828 . S
C249 C243 1.505 . S
C249 O261 1.249 . S
C249 O262 1.244 . S
O250 Eu241 2.373 . S
O250 C252 1.258 . S
O251 Eu240 2.392 . S
O251 C252 1.242 . S
C252 O250 1.258 . S
C252 O251 1.242 . S
O253 Eu240 2.418 . S
O253 C257 1.244 . S
O254 Eu241 2.488 . S
O254 C270 1.249 . S
O255 Eu241 2.471 . S
O255 C270 1.244 . S
O256 Eu241 2.349 . S
O256 C257 1.265 . S
C257 O253 1.244 . S
C257 O256 1.265 . S
O258 Eu240 2.373 . S
O258 C271 1.258 . S
O259 Eu241 2.392 . S
O259 C271 1.242 . S
O260 Eu241 2.418 . S
O260 C242 1.244 . S
O261 Eu240 2.488 . S
O261 C249 1.249 . S
O262 Eu240 2.471 . S
O262 C249 1.244 . S
O263 Eu240 2.349 . S
O263 C242 1.265 . S
C264 C265 1.379 . S
C264 C268 1.373 . S
C264 C270 1.505 . S
C265 C264 1.379 . S
C265 C267 1.369 . S
C265 H276 0.930 . S
C266 C268 1.383 . S
C266 C269 1.382 . S
C266 H277 0.930 . S
C267 C265 1.369 . S
C267 C269 1.392 . S
C267 H278 0.930 . S
C268 C264 1.373 . S
C268 C266 1.383 . S
C268 H279 0.931 . S
C269 C266 1.382 . S
C269 C267 1.392 . S
C270 Eu241 2.828 . S
C270 O254 1.249 . S
C270 O255 1.244 . S
C270 C264 1.505 . S
C271 O258 1.258 . S
C271 O259 1.242 . S
H272 C244 0.930 . S
H273 C245 0.930 . S
H274 C246 0.930 . S
H275 C247 0.931 . S
H276 C265 0.930 . S
H277 C266 0.930 . S
H278 C267 0.930 . S
H279 C268 0.931 . S
Eu280 C289 2.828 . S
Eu280 O291 2.392 . S
Eu280 O293 2.418 . S
Eu280 O298 2.373 . S
Eu280 O301 2.488 . S
Eu280 O302 2.471 . S
Eu280 O303 2.349 . S
Eu281 O290 2.373 . S
Eu281 O294 2.488 . S
Eu281 O295 2.471 . S
Eu281 O296 2.349 . S
Eu281 O299 2.392 . S
Eu281 O300 2.418 . S
Eu281 C310 2.828 . S
C282 O300 1.244 . S
C282 O303 1.265 . S
C283 C284 1.379 . S
C283 C287 1.373 . S
C283 C289 1.505 . S
C284 C283 1.379 . S
C284 C286 1.369 . S
C284 H312 0.930 . S
C285 C287 1.383 . S
C285 C288 1.382 . S
C285 H313 0.930 . S
C286 C284 1.369 . S
C286 C288 1.392 . S
C286 H314 0.930 . S
C287 C283 1.373 . S
C287 C285 1.383 . S
C287 H315 0.931 . S
C288 C285 1.382 . S
C288 C286 1.392 . S
C289 Eu280 2.828 . S
C289 C283 1.505 . S
C289 O301 1.249 . S
C289 O302 1.244 . S
O290 Eu281 2.373 . S
O290 C292 1.258 . S
O291 Eu280 2.392 . S
O291 C292 1.242 . S
C292 O290 1.258 . S
C292 O291 1.242 . S
O293 Eu280 2.418 . S
O293 C297 1.244 . S
O294 Eu281 2.488 . S
O294 C310 1.249 . S
O295 Eu281 2.471 . S
O295 C310 1.244 . S
O296 Eu281 2.349 . S
O296 C297 1.265 . S
C297 O293 1.244 . S
C297 O296 1.265 . S
O298 Eu280 2.373 . S
O298 C311 1.258 . S
O299 Eu281 2.392 . S
O299 C311 1.242 . S
O300 Eu281 2.418 . S
O300 C282 1.244 . S
O301 Eu280 2.488 . S
O301 C289 1.249 . S
O302 Eu280 2.471 . S
O302 C289 1.244 . S
O303 Eu280 2.349 . S
O303 C282 1.265 . S
C304 C305 1.379 . S
C304 C308 1.373 . S
C304 C310 1.505 . S
C305 C304 1.379 . S
C305 C307 1.369 . S
C305 H316 0.930 . S
C306 C308 1.383 . S
C306 C309 1.382 . S
C306 H317 0.930 . S
C307 C305 1.369 . S
C307 C309 1.392 . S
C307 H318 0.930 . S
C308 C304 1.373 . S
C308 C306 1.383 . S
C308 H319 0.931 . S
C309 C306 1.382 . S
C309 C307 1.392 . S
C310 Eu281 2.828 . S
C310 O294 1.249 . S
C310 O295 1.244 . S
C310 C304 1.505 . S
C311 O298 1.258 . S
C311 O299 1.242 . S
H312 C284 0.930 . S
H313 C285 0.930 . S
H314 C286 0.930 . S
H315 C287 0.931 . S
H316 C305 0.930 . S
H317 C306 0.930 . S
H318 C307 0.930 . S
H319 C308 0.931 . S
Eu320 C329 2.828 . S
Eu320 O331 2.392 . S
Eu320 O333 2.418 . S
Eu320 O338 2.373 . S
Eu320 O341 2.488 . S
Eu320 O342 2.471 . S
Eu320 O343 2.349 . S
Eu321 O330 2.373 . S
Eu321 O334 2.488 . S
Eu321 O335 2.471 . S
Eu321 O336 2.349 . S
Eu321 O339 2.392 . S
Eu321 O340 2.418 . S
Eu321 C350 2.828 . S
C322 O340 1.244 . S
C322 O343 1.265 . S
C323 C324 1.379 1_556 S
C323 C327 1.373 1_556 S
C323 C329 1.505 . S
C324 C323 1.379 1_554 S
C324 C326 1.369 . S
C324 H352 0.930 1_554 S
C325 C327 1.383 . S
C325 C328 1.382 . S
C325 H353 0.930 . S
C326 C324 1.369 . S
C326 C328 1.392 . S
C326 H354 0.930 . S
C327 C323 1.373 1_554 S
C327 C325 1.383 . S
C327 H355 0.931 . S
C328 C325 1.382 . S
C328 C326 1.392 . S
C329 Eu320 2.828 . S
C329 C323 1.505 . S
C329 O341 1.249 . S
C329 O342 1.244 . S
O330 Eu321 2.373 . S
O330 C332 1.258 . S
O331 Eu320 2.392 . S
O331 C332 1.242 . S
C332 O330 1.258 . S
C332 O331 1.242 . S
O333 Eu320 2.418 . S
O333 C337 1.244 . S
O334 Eu321 2.488 . S
O334 C350 1.249 . S
O335 Eu321 2.471 . S
O335 C350 1.244 . S
O336 Eu321 2.349 . S
O336 C337 1.265 . S
C337 O333 1.244 . S
C337 O336 1.265 . S
O338 Eu320 2.373 . S
O338 C351 1.258 . S
O339 Eu321 2.392 . S
O339 C351 1.242 . S
O340 Eu321 2.418 . S
O340 C322 1.244 . S
O341 Eu320 2.488 . S
O341 C329 1.249 . S
O342 Eu320 2.471 . S
O342 C329 1.244 . S
O343 Eu320 2.349 . S
O343 C322 1.265 . S
C344 C345 1.379 . S
C344 C348 1.373 . S
C344 C350 1.505 . S
C345 C344 1.379 . S
C345 C347 1.369 . S
C345 H356 0.930 . S
C346 C348 1.383 . S
C346 C349 1.382 . S
C346 H357 0.930 . S
C347 C345 1.369 . S
C347 C349 1.392 . S
C347 H358 0.930 . S
C348 C344 1.373 . S
C348 C346 1.383 . S
C348 H359 0.931 . S
C349 C346 1.382 . S
C349 C347 1.392 . S
C350 Eu321 2.828 . S
C350 O334 1.249 . S
C350 O335 1.244 . S
C350 C344 1.505 . S
C351 O338 1.258 . S
C351 O339 1.242 . S
H352 C324 0.930 1_556 S
H353 C325 0.930 . S
H354 C326 0.930 . S
H355 C327 0.931 . S
H356 C345 0.930 . S
H357 C346 0.930 . S
H358 C347 0.930 . S
H359 C348 0.931 . S
Eu360 C369 2.828 . S
Eu360 O371 2.392 . S
Eu360 O373 2.418 . S
Eu360 O378 2.373 . S
Eu360 O381 2.488 . S
Eu360 O382 2.471 . S
Eu360 O383 2.349 . S
Eu361 O370 2.373 . S
Eu361 O374 2.488 . S
Eu361 O375 2.471 . S
Eu361 O376 2.349 . S
Eu361 O379 2.392 . S
Eu361 O380 2.418 . S
Eu361 C390 2.828 . S
C362 O380 1.244 . S
C362 O383 1.265 . S
C363 C364 1.379 . S
C363 C367 1.373 . S
C363 C369 1.505 . S
C364 C363 1.379 . S
C364 C366 1.369 . S
C364 H392 0.930 . S
C365 C367 1.383 . S
C365 C368 1.382 . S
C365 H393 0.930 . S
C366 C364 1.369 . S
C366 C368 1.392 . S
C366 H394 0.930 . S
C367 C363 1.373 . S
C367 C365 1.383 . S
C367 H395 0.931 . S
C368 C365 1.382 . S
C368 C366 1.392 . S
C369 Eu360 2.828 . S
C369 C363 1.505 . S
C369 O381 1.249 . S
C369 O382 1.244 . S
O370 Eu361 2.373 . S
O370 C372 1.258 . S
O371 Eu360 2.392 . S
O371 C372 1.242 . S
C372 O370 1.258 . S
C372 O371 1.242 . S
O373 Eu360 2.418 . S
O373 C377 1.244 . S
O374 Eu361 2.488 . S
O374 C390 1.249 . S
O375 Eu361 2.471 . S
O375 C390 1.244 . S
O376 Eu361 2.349 . S
O376 C377 1.265 . S
C377 O373 1.244 . S
C377 O376 1.265 . S
O378 Eu360 2.373 . S
O378 C391 1.258 . S
O379 Eu361 2.392 . S
O379 C391 1.242 . S
O380 Eu361 2.418 . S
O380 C362 1.244 . S
O381 Eu360 2.488 . S
O381 C369 1.249 . S
O382 Eu360 2.471 . S
O382 C369 1.244 . S
O383 Eu360 2.349 . S
O383 C362 1.265 . S
C384 C385 1.379 . S
C384 C388 1.373 . S
C384 C390 1.505 . S
C385 C384 1.379 . S
C385 C387 1.369 . S
C385 H396 0.930 . S
C386 C388 1.383 . S
C386 C389 1.382 . S
C386 H397 0.930 . S
C387 C385 1.369 . S
C387 C389 1.392 . S
C387 H398 0.930 . S
C388 C384 1.373 . S
C388 C386 1.383 . S
C388 H399 0.931 . S
C389 C386 1.382 . S
C389 C387 1.392 . S
C390 Eu361 2.828 . S
C390 O374 1.249 . S
C390 O375 1.244 . S
C390 C384 1.505 . S
C391 O378 1.258 . S
C391 O379 1.242 . S
H392 C364 0.930 . S
H393 C365 0.930 . S
H394 C366 0.930 . S
H395 C367 0.931 . S
H396 C385 0.930 . S
H397 C386 0.930 . S
H398 C387 0.930 . S
H399 C388 0.931 . S
Eu400 C409 2.828 . S
Eu400 O411 2.392 . S
Eu400 O413 2.418 . S
Eu400 O418 2.373 . S
Eu400 O421 2.488 . S
Eu400 O422 2.471 . S
Eu400 O423 2.349 . S
Eu401 O410 2.373 . S
Eu401 O414 2.488 . S
Eu401 O415 2.471 . S
Eu401 O416 2.349 . S
Eu401 O419 2.392 . S
Eu401 O420 2.418 . S
Eu401 C430 2.828 . S
C402 O420 1.244 . S
C402 O423 1.265 . S
C403 C404 1.379 . S
C403 C407 1.373 . S
C403 C409 1.505 . S
C404 C403 1.379 . S
C404 C406 1.369 . S
C404 H432 0.930 . S
C405 C407 1.383 . S
C405 C408 1.382 . S
C405 H433 0.930 . S
C406 C404 1.369 . S
C406 C408 1.392 . S
C406 H434 0.930 . S
C407 C403 1.373 . S
C407 C405 1.383 . S
C407 H435 0.931 . S
C408 C405 1.382 . S
C408 C406 1.392 . S
C409 Eu400 2.828 . S
C409 C403 1.505 . S
C409 O421 1.249 . S
C409 O422 1.244 . S
O410 Eu401 2.373 . S
O410 C412 1.258 . S
O411 Eu400 2.392 . S
O411 C412 1.242 . S
C412 O410 1.258 . S
C412 O411 1.242 . S
O413 Eu400 2.418 . S
O413 C417 1.244 . S
O414 Eu401 2.488 . S
O414 C430 1.249 . S
O415 Eu401 2.471 . S
O415 C430 1.244 . S
O416 Eu401 2.349 . S
O416 C417 1.265 . S
C417 O413 1.244 . S
C417 O416 1.265 . S
O418 Eu400 2.373 . S
O418 C431 1.258 . S
O419 Eu401 2.392 . S
O419 C431 1.242 . S
O420 Eu401 2.418 . S
O420 C402 1.244 . S
O421 Eu400 2.488 . S
O421 C409 1.249 . S
O422 Eu400 2.471 . S
O422 C409 1.244 . S
O423 Eu400 2.349 . S
O423 C402 1.265 . S
C424 C425 1.379 . S
C424 C428 1.373 . S
C424 C430 1.505 . S
C425 C424 1.379 . S
C425 C427 1.369 . S
C425 H436 0.930 . S
C426 C428 1.383 . S
C426 C429 1.382 . S
C426 H437 0.930 . S
C427 C425 1.369 . S
C427 C429 1.392 . S
C427 H438 0.930 . S
C428 C424 1.373 . S
C428 C426 1.383 . S
C428 H439 0.931 . S
C429 C426 1.382 . S
C429 C427 1.392 . S
C430 Eu401 2.828 . S
C430 O414 1.249 . S
C430 O415 1.244 . S
C430 C424 1.505 . S
C431 O418 1.258 . S
C431 O419 1.242 . S
H432 C404 0.930 . S
H433 C405 0.930 . S
H434 C406 0.930 . S
H435 C407 0.931 . S
H436 C425 0.930 . S
H437 C426 0.930 . S
H438 C427 0.930 . S
H439 C428 0.931 . S
Eu440 C449 2.828 . S
Eu440 O451 2.392 . S
Eu440 O453 2.418 . S
Eu440 O458 2.373 . S
Eu440 O461 2.488 . S
Eu440 O462 2.471 . S
Eu440 O463 2.349 . S
Eu441 O450 2.373 . S
Eu441 O454 2.488 . S
Eu441 O455 2.471 . S
Eu441 O456 2.349 . S
Eu441 O459 2.392 . S
Eu441 O460 2.418 . S
Eu441 C470 2.828 . S
C442 O460 1.244 . S
C442 O463 1.265 . S
C443 C444 1.379 1_554 S
C443 C447 1.373 1_554 S
C443 C449 1.505 . S
C444 C443 1.379 1_556 S
C444 C446 1.369 . S
C444 H472 0.930 1_556 S
C445 C447 1.383 . S
C445 C448 1.382 . S
C445 H473 0.930 . S
C446 C444 1.369 . S
C446 C448 1.392 . S
C446 H474 0.930 . S
C447 C443 1.373 1_556 S
C447 C445 1.383 . S
C447 H475 0.931 . S
C448 C445 1.382 . S
C448 C446 1.392 . S
C449 Eu440 2.828 . S
C449 C443 1.505 . S
C449 O461 1.249 . S
C449 O462 1.244 . S
O450 Eu441 2.373 . S
O450 C452 1.258 . S
O451 Eu440 2.392 . S
O451 C452 1.242 . S
C452 O450 1.258 . S
C452 O451 1.242 . S
O453 Eu440 2.418 . S
O453 C457 1.244 . S
O454 Eu441 2.488 . S
O454 C470 1.249 . S
O455 Eu441 2.471 . S
O455 C470 1.244 . S
O456 Eu441 2.349 . S
O456 C457 1.265 . S
C457 O453 1.244 . S
C457 O456 1.265 . S
O458 Eu440 2.373 . S
O458 C471 1.258 . S
O459 Eu441 2.392 . S
O459 C471 1.242 . S
O460 Eu441 2.418 . S
O460 C442 1.244 . S
O461 Eu440 2.488 . S
O461 C449 1.249 . S
O462 Eu440 2.471 . S
O462 C449 1.244 . S
O463 Eu440 2.349 . S
O463 C442 1.265 . S
C464 C465 1.379 . S
C464 C468 1.373 . S
C464 C470 1.505 . S
C465 C464 1.379 . S
C465 C467 1.369 . S
C465 H476 0.930 . S
C466 C468 1.383 . S
C466 C469 1.382 . S
C466 H477 0.930 . S
C467 C465 1.369 . S
C467 C469 1.392 . S
C467 H478 0.930 . S
C468 C464 1.373 . S
C468 C466 1.383 . S
C468 H479 0.931 . S
C469 C466 1.382 . S
C469 C467 1.392 . S
C470 Eu441 2.828 . S
C470 O454 1.249 . S
C470 O455 1.244 . S
C470 C464 1.505 . S
C471 O458 1.258 . S
C471 O459 1.242 . S
H472 C444 0.930 1_554 S
H473 C445 0.930 . S
H474 C446 0.930 . S
H475 C447 0.931 . S
H476 C465 0.930 . S
H477 C466 0.930 . S
H478 C467 0.930 . S
H479 C468 0.931 . S
Eu480 C489 2.828 . S
Eu480 O491 2.392 . S
Eu480 O493 2.418 . S
Eu480 O498 2.373 . S
Eu480 O501 2.488 . S
Eu480 O502 2.471 . S
Eu480 O503 2.349 . S
Eu481 O490 2.373 . S
Eu481 O494 2.488 . S
Eu481 O495 2.471 . S
Eu481 O496 2.349 . S
Eu481 O499 2.392 . S
Eu481 O500 2.418 . S
Eu481 C510 2.828 . S
C482 O500 1.244 . S
C482 O503 1.265 . S
C483 C484 1.379 1_554 S
C483 C487 1.373 1_554 S
C483 C489 1.505 . S
C484 C483 1.379 1_556 S
C484 C486 1.369 . S
C484 H512 0.930 1_556 S
C485 C487 1.383 . S
C485 C488 1.382 . S
C485 H513 0.930 . S
C486 C484 1.369 . S
C486 C488 1.392 . S
C486 H514 0.930 . S
C487 C483 1.373 1_556 S
C487 C485 1.383 . S
C487 H515 0.931 . S
C488 C485 1.382 . S
C488 C486 1.392 . S
C489 Eu480 2.828 . S
C489 C483 1.505 . S
C489 O501 1.249 . S
C489 O502 1.244 . S
O490 Eu481 2.373 . S
O490 C492 1.258 . S
O491 Eu480 2.392 . S
O491 C492 1.242 . S
C492 O490 1.258 . S
C492 O491 1.242 . S
O493 Eu480 2.418 . S
O493 C497 1.244 . S
O494 Eu481 2.488 . S
O494 C510 1.249 . S
O495 Eu481 2.471 . S
O495 C510 1.244 . S
O496 Eu481 2.349 . S
O496 C497 1.265 . S
C497 O493 1.244 . S
C497 O496 1.265 . S
O498 Eu480 2.373 . S
O498 C511 1.258 . S
O499 Eu481 2.392 . S
O499 C511 1.242 . S
O500 Eu481 2.418 . S
O500 C482 1.244 . S
O501 Eu480 2.488 . S
O501 C489 1.249 . S
O502 Eu480 2.471 . S
O502 C489 1.244 . S
O503 Eu480 2.349 . S
O503 C482 1.265 . S
C504 C505 1.379 . S
C504 C508 1.373 . S
C504 C510 1.505 . S
C505 C504 1.379 . S
C505 C507 1.369 . S
C505 H516 0.930 . S
C506 C508 1.383 . S
C506 C509 1.382 . S
C506 H517 0.930 . S
C507 C505 1.369 . S
C507 C509 1.392 . S
C507 H518 0.930 . S
C508 C504 1.373 . S
C508 C506 1.383 . S
C508 H519 0.931 . S
C509 C506 1.382 . S
C509 C507 1.392 . S
C510 Eu481 2.828 . S
C510 O494 1.249 . S
C510 O495 1.244 . S
C510 C504 1.505 . S
C511 O498 1.258 . S
C511 O499 1.242 . S
H512 C484 0.930 1_554 S
H513 C485 0.930 . S
H514 C486 0.930 . S
H515 C487 0.931 . S
H516 C505 0.930 . S
H517 C506 0.930 . S
H518 C507 0.930 . S
H519 C508 0.931 . S
Eu520 C529 2.828 . S
Eu520 O531 2.392 . S
Eu520 O533 2.418 . S
Eu520 O538 2.373 . S
Eu520 O541 2.488 . S
Eu520 O542 2.471 . S
Eu520 O543 2.349 . S
Eu521 O530 2.373 . S
Eu521 O534 2.488 . S
Eu521 O535 2.471 . S
Eu521 O536 2.349 . S
Eu521 O539 2.392 . S
Eu521 O540 2.418 . S
Eu521 C550 2.828 . S
C522 O540 1.244 . S
C522 O543 1.265 . S
C523 C524 1.379 1_556 S
C523 C527 1.373 1_556 S
C523 C529 1.505 . S
C524 C523 1.379 1_554 S
C524 C526 1.369 . S
C524 H552 0.930 1_554 S
C525 C527 1.383 . S
C525 C528 1.382 . S
C525 H553 0.930 . S
C526 C524 1.369 . S
C526 C528 1.392 . S
C526 H554 0.930 . S
C527 C523 1.373 1_554 S
C527 C525 1.383 . S
C527 H555 0.931 . S
C528 C525 1.382 . S
C528 C526 1.392 . S
C529 Eu520 2.828 . S
C529 C523 1.505 . S
C529 O541 1.249 . S
C529 O542 1.244 . S
O530 Eu521 2.373 . S
O530 C532 1.258 . S
O531 Eu520 2.392 . S
O531 C532 1.242 . S
C532 O530 1.258 . S
C532 O531 1.242 . S
O533 Eu520 2.418 . S
O533 C537 1.244 . S
O534 Eu521 2.488 . S
O534 C550 1.249 . S
O535 Eu521 2.471 . S
O535 C550 1.244 . S
O536 Eu521 2.349 . S
O536 C537 1.265 . S
C537 O533 1.244 . S
C537 O536 1.265 . S
O538 Eu520 2.373 . S
O538 C551 1.258 . S
O539 Eu521 2.392 . S
O539 C551 1.242 . S
O540 Eu521 2.418 . S
O540 C522 1.244 . S
O541 Eu520 2.488 . S
O541 C529 1.249 . S
O542 Eu520 2.471 . S
O542 C529 1.244 . S
O543 Eu520 2.349 . S
O543 C522 1.265 . S
C544 C545 1.379 . S
C544 C548 1.373 . S
C544 C550 1.505 . S
C545 C544 1.379 . S
C545 C547 1.369 . S
C545 H556 0.930 . S
C546 C548 1.383 . S
C546 C549 1.382 . S
C546 H557 0.930 . S
C547 C545 1.369 . S
C547 C549 1.392 . S
C547 H558 0.930 . S
C548 C544 1.373 . S
C548 C546 1.383 . S
C548 H559 0.931 . S
C549 C546 1.382 . S
C549 C547 1.392 . S
C550 Eu521 2.828 . S
C550 O534 1.249 . S
C550 O535 1.244 . S
C550 C544 1.505 . S
C551 O538 1.258 . S
C551 O539 1.242 . S
H552 C524 0.930 1_556 S
H553 C525 0.930 . S
H554 C526 0.930 . S
H555 C527 0.931 . S
H556 C545 0.930 . S
H557 C546 0.930 . S
H558 C547 0.930 . S
H559 C548 0.931 . S
Eu560 C569 2.828 . S
Eu560 O571 2.392 . S
Eu560 O573 2.418 . S
Eu560 O578 2.373 . S
Eu560 O581 2.488 . S
Eu560 O582 2.471 . S
Eu560 O583 2.349 . S
Eu561 O570 2.373 . S
Eu561 O574 2.488 . S
Eu561 O575 2.471 . S
Eu561 O576 2.349 . S
Eu561 O579 2.392 . S
Eu561 O580 2.418 . S
Eu561 C590 2.828 . S
C562 O580 1.244 . S
C562 O583 1.265 . S
C563 C564 1.379 . S
C563 C567 1.373 . S
C563 C569 1.505 . S
C564 C563 1.379 . S
C564 C566 1.369 . S
C564 H592 0.930 . S
C565 C567 1.383 . S
C565 C568 1.382 . S
C565 H593 0.930 . S
C566 C564 1.369 . S
C566 C568 1.392 . S
C566 H594 0.930 . S
C567 C563 1.373 . S
C567 C565 1.383 . S
C567 H595 0.931 . S
C568 C565 1.382 . S
C568 C566 1.392 . S
C569 Eu560 2.828 . S
C569 C563 1.505 . S
C569 O581 1.249 . S
C569 O582 1.244 . S
O570 Eu561 2.373 . S
O570 C572 1.258 . S
O571 Eu560 2.392 . S
O571 C572 1.242 . S
C572 O570 1.258 . S
C572 O571 1.242 . S
O573 Eu560 2.418 . S
O573 C577 1.244 . S
O574 Eu561 2.488 . S
O574 C590 1.249 . S
O575 Eu561 2.471 . S
O575 C590 1.244 . S
O576 Eu561 2.349 . S
O576 C577 1.265 . S
C577 O573 1.244 . S
C577 O576 1.265 . S
O578 Eu560 2.373 . S
O578 C591 1.258 . S
O579 Eu561 2.392 . S
O579 C591 1.242 . S
O580 Eu561 2.418 . S
O580 C562 1.244 . S
O581 Eu560 2.488 . S
O581 C569 1.249 . S
O582 Eu560 2.471 . S
O582 C569 1.244 . S
O583 Eu560 2.349 . S
O583 C562 1.265 . S
C584 C585 1.379 . S
C584 C588 1.373 . S
C584 C590 1.505 . S
C585 C584 1.379 . S
C585 C587 1.369 . S
C585 H596 0.930 . S
C586 C588 1.383 . S
C586 C589 1.382 . S
C586 H597 0.930 . S
C587 C585 1.369 . S
C587 C589 1.392 . S
C587 H598 0.930 . S
C588 C584 1.373 . S
C588 C586 1.383 . S
C588 H599 0.931 . S
C589 C586 1.382 . S
C589 C587 1.392 . S
C590 Eu561 2.828 . S
C590 O574 1.249 . S
C590 O575 1.244 . S
C590 C584 1.505 . S
C591 O578 1.258 . S
C591 O579 1.242 . S
H592 C564 0.930 . S
H593 C565 0.930 . S
H594 C566 0.930 . S
H595 C567 0.931 . S
H596 C585 0.930 . S
H597 C586 0.930 . S
H598 C587 0.930 . S
H599 C588 0.931 . S
Eu600 C609 2.828 . S
Eu600 O611 2.392 . S
Eu600 O613 2.418 . S
Eu600 O618 2.373 . S
Eu600 O621 2.488 . S
Eu600 O622 2.471 . S
Eu600 O623 2.349 . S
Eu601 O610 2.373 . S
Eu601 O614 2.488 . S
Eu601 O615 2.471 . S
Eu601 O616 2.349 . S
Eu601 O619 2.392 . S
Eu601 O620 2.418 . S
Eu601 C630 2.828 . S
C602 O620 1.244 . S
C602 O623 1.265 . S
C603 C604 1.379 . S
C603 C607 1.373 . S
C603 C609 1.505 . S
C604 C603 1.379 . S
C604 C606 1.369 . S
C604 H632 0.930 . S
C605 C607 1.383 . S
C605 C608 1.382 . S
C605 H633 0.930 . S
C606 C604 1.369 . S
C606 C608 1.392 . S
C606 H634 0.930 . S
C607 C603 1.373 . S
C607 C605 1.383 . S
C607 H635 0.931 . S
C608 C605 1.382 . S
C608 C606 1.392 . S
C609 Eu600 2.828 . S
C609 C603 1.505 . S
C609 O621 1.249 . S
C609 O622 1.244 . S
O610 Eu601 2.373 . S
O610 C612 1.258 . S
O611 Eu600 2.392 . S
O611 C612 1.242 . S
C612 O610 1.258 . S
C612 O611 1.242 . S
O613 Eu600 2.418 . S
O613 C617 1.244 . S
O614 Eu601 2.488 . S
O614 C630 1.249 . S
O615 Eu601 2.471 . S
O615 C630 1.244 . S
O616 Eu601 2.349 . S
O616 C617 1.265 . S
C617 O613 1.244 . S
C617 O616 1.265 . S
O618 Eu600 2.373 . S
O618 C631 1.258 . S
O619 Eu601 2.392 . S
O619 C631 1.242 . S
O620 Eu601 2.418 . S
O620 C602 1.244 . S
O621 Eu600 2.488 . S
O621 C609 1.249 . S
O622 Eu600 2.471 . S
O622 C609 1.244 . S
O623 Eu600 2.349 . S
O623 C602 1.265 . S
C624 C625 1.379 . S
C624 C628 1.373 . S
C624 C630 1.505 . S
C625 C624 1.379 . S
C625 C627 1.369 . S
C625 H636 0.930 . S
C626 C628 1.383 . S
C626 C629 1.382 . S
C626 H637 0.930 . S
C627 C625 1.369 . S
C627 C629 1.392 . S
C627 H638 0.930 . S
C628 C624 1.373 . S
C628 C626 1.383 . S
C628 H639 0.931 . S
C629 C626 1.382 . S
C629 C627 1.392 . S
C630 Eu601 2.828 . S
C630 O614 1.249 . S
C630 O615 1.244 . S
C630 C624 1.505 . S
C631 O618 1.258 . S
C631 O619 1.242 . S
H632 C604 0.930 . S
H633 C605 0.930 . S
H634 C606 0.930 . S
H635 C607 0.931 . S
H636 C625 0.930 . S
H637 C626 0.930 . S
H638 C627 0.930 . S
H639 C628 0.931 . S
H640 C648 0.929 . S
H641 C650 0.930 . S
H642 C652 0.930 . S
H643 C655 0.929 . S
H644 C658 0.930 . S
H645 C660 0.960 . S
H646 C660 0.960 . S
H647 C660 0.960 . S
C648 H640 0.929 . S
C648 C649 1.377 . S
C648 C650 1.384 . S
C649 C648 1.377 . S
C649 C655 1.390 . S
C650 H641 0.930 . S
C650 C648 1.384 . S
C650 C651 1.372 . S
C651 C650 1.372 . S
C651 C652 1.400 . S
C651 C656 1.490 . S
C652 H642 0.930 . S
C652 C651 1.400 . S
C652 C655 1.386 . S
H653 C669 0.930 . S
H654 C670 0.931 . S
C655 H643 0.929 . S
C655 C649 1.390 . S
C655 C652 1.386 . S
C656 C651 1.490 . S
C656 C658 1.395 . S
C656 C659 1.403 . S
H657 C663 0.930 . S
C658 H644 0.930 . S
C658 C656 1.395 . S
C658 C661 1.403 . S
C659 C656 1.403 . S
C659 C660 1.524 . S
C659 C663 1.400 . S
C660 H645 0.960 . S
C660 H646 0.960 . S
C660 H647 0.960 . S
C660 C659 1.524 . S
C661 C658 1.403 . S
C661 C662 1.392 . S
C661 C665 1.495 . S
C662 C661 1.392 . S
C662 C663 1.385 . S
C662 C664 1.478 . S
C663 H657 0.930 . S
C663 C659 1.400 . S
C663 C662 1.385 . S
C664 C662 1.478 . S
C664 C666 1.381 . S
C664 C670 1.383 . S
C665 C661 1.495 . S
C665 H671 0.959 . S
C665 H672 0.961 . S
C665 H673 0.960 . S
C666 C664 1.381 . S
C666 C667 1.394 . S
C666 H674 0.930 . S
C667 C666 1.394 . S
C667 C668 1.383 . S
C667 H675 0.929 . S
C668 C667 1.383 . S
C668 C669 1.377 . S
C669 H653 0.930 . S
C669 C668 1.377 . S
C669 C670 1.379 . S
C670 H654 0.931 . S
C670 C664 1.383 . S
C670 C669 1.379 . S
H671 C665 0.959 . S
H672 C665 0.961 . S
H673 C665 0.960 . S
H674 C666 0.930 . S
H675 C667 0.929 . S
H676 C684 0.929 . S
H677 C686 0.930 . S
H678 C688 0.930 . S
H679 C691 0.929 . S
H680 C694 0.930 . S
H681 C696 0.960 . S
H682 C696 0.960 . S
H683 C696 0.960 . S
C684 H676 0.929 . S
C684 C685 1.377 . S
C684 C686 1.384 . S
C685 C684 1.377 . S
C685 C691 1.390 . S
C686 H677 0.930 . S
C686 C684 1.384 . S
C686 C687 1.372 . S
C687 C686 1.372 . S
C687 C688 1.400 . S
C687 C692 1.490 . S
C688 H678 0.930 . S
C688 C687 1.400 . S
C688 C691 1.386 . S
H689 C705 0.930 . S
H690 C706 0.931 . S
C691 H679 0.929 . S
C691 C685 1.390 . S
C691 C688 1.386 . S
C692 C687 1.490 . S
C692 C694 1.395 . S
C692 C695 1.403 . S
H693 C699 0.930 . S
C694 H680 0.930 . S
C694 C692 1.395 . S
C694 C697 1.403 . S
C695 C692 1.403 . S
C695 C696 1.524 . S
C695 C699 1.400 . S
C696 H681 0.960 . S
C696 H682 0.960 . S
C696 H683 0.960 . S
C696 C695 1.524 . S
C697 C694 1.403 . S
C697 C698 1.392 . S
C697 C701 1.495 . S
C698 C697 1.392 . S
C698 C699 1.385 . S
C698 C700 1.478 . S
C699 H693 0.930 . S
C699 C695 1.400 . S
C699 C698 1.385 . S
C700 C698 1.478 . S
C700 C702 1.381 . S
C700 C706 1.383 . S
C701 C697 1.495 . S
C701 H707 0.959 . S
C701 H708 0.961 . S
C701 H709 0.960 . S
C702 C700 1.381 . S
C702 C703 1.394 . S
C702 H710 0.930 . S
C703 C702 1.394 . S
C703 C704 1.383 . S
C703 H711 0.929 . S
C704 C703 1.383 . S
C704 C705 1.377 . S
C705 H689 0.930 . S
C705 C704 1.377 . S
C705 C706 1.379 . S
C706 H690 0.931 . S
C706 C700 1.383 . S
C706 C705 1.379 . S
H707 C701 0.959 . S
H708 C701 0.961 . S
H709 C701 0.960 . S
H710 C702 0.930 . S
H711 C703 0.929 . S
H712 C720 0.929 . S
H713 C722 0.930 . S
H714 C724 0.930 . S
H715 C727 0.929 . S
H716 C730 0.930 . S
H717 C732 0.960 . S
H718 C732 0.960 . S
H719 C732 0.960 . S
C720 H712 0.929 . S
C720 C721 1.377 . S
C720 C722 1.384 . S
C721 C720 1.377 . S
C721 C727 1.390 . S
C722 H713 0.930 . S
C722 C720 1.384 . S
C722 C723 1.372 . S
C723 C722 1.372 . S
C723 C724 1.400 . S
C723 C728 1.490 . S
C724 H714 0.930 . S
C724 C723 1.400 . S
C724 C727 1.386 . S
H725 C741 0.930 . S
H726 C742 0.931 . S
C727 H715 0.929 . S
C727 C721 1.390 . S
C727 C724 1.386 . S
C728 C723 1.490 . S
C728 C730 1.395 . S
C728 C731 1.403 . S
H729 C735 0.930 . S
C730 H716 0.930 . S
C730 C728 1.395 . S
C730 C733 1.403 . S
C731 C728 1.403 . S
C731 C732 1.524 . S
C731 C735 1.400 . S
C732 H717 0.960 . S
C732 H718 0.960 . S
C732 H719 0.960 . S
C732 C731 1.524 . S
C733 C730 1.403 . S
C733 C734 1.392 . S
C733 C737 1.495 . S
C734 C733 1.392 . S
C734 C735 1.385 . S
C734 C736 1.478 . S
C735 H729 0.930 . S
C735 C731 1.400 . S
C735 C734 1.385 . S
C736 C734 1.478 . S
C736 C738 1.381 . S
C736 C742 1.383 . S
C737 C733 1.495 . S
C737 H743 0.959 . S
C737 H744 0.961 . S
C737 H745 0.960 . S
C738 C736 1.381 . S
C738 C739 1.394 . S
C738 H746 0.930 . S
C739 C738 1.394 . S
C739 C740 1.383 . S
C739 H747 0.929 . S
C740 C739 1.383 . S
C740 C741 1.377 . S
C741 H725 0.930 . S
C741 C740 1.377 . S
C741 C742 1.379 . S
C742 H726 0.931 . S
C742 C736 1.383 . S
C742 C741 1.379 . S
H743 C737 0.959 . S
H744 C737 0.961 . S
H745 C737 0.960 . S
H746 C738 0.930 . S
H747 C739 0.929 . S
H748 C756 0.929 . S
H749 C758 0.930 . S
H750 C760 0.930 . S
H751 C763 0.929 . S
H752 C766 0.930 . S
H753 C768 0.960 . S
H754 C768 0.960 . S
H755 C768 0.960 . S
C756 H748 0.929 . S
C756 C757 1.377 . S
C756 C758 1.384 . S
C757 C756 1.377 . S
C757 C763 1.390 . S
C758 H749 0.930 . S
C758 C756 1.384 . S
C758 C759 1.372 . S
C759 C758 1.372 . S
C759 C760 1.400 . S
C759 C764 1.490 . S
C760 H750 0.930 . S
C760 C759 1.400 . S
C760 C763 1.386 . S
H761 C777 0.930 . S
H762 C778 0.931 . S
C763 H751 0.929 . S
C763 C757 1.390 . S
C763 C760 1.386 . S
C764 C759 1.490 . S
C764 C766 1.395 . S
C764 C767 1.403 . S
H765 C771 0.930 . S
C766 H752 0.930 . S
C766 C764 1.395 . S
C766 C769 1.403 . S
C767 C764 1.403 . S
C767 C768 1.524 . S
C767 C771 1.400 . S
C768 H753 0.960 . S
C768 H754 0.960 . S
C768 H755 0.960 . S
C768 C767 1.524 . S
C769 C766 1.403 . S
C769 C770 1.392 . S
C769 C773 1.495 . S
C770 C769 1.392 . S
C770 C771 1.385 . S
C770 C772 1.478 . S
C771 H765 0.930 . S
C771 C767 1.400 . S
C771 C770 1.385 . S
C772 C770 1.478 . S
C772 C774 1.381 . S
C772 C778 1.383 . S
C773 C769 1.495 . S
C773 H779 0.959 . S
C773 H780 0.961 . S
C773 H781 0.960 . S
C774 C772 1.381 . S
C774 C775 1.394 . S
C774 H782 0.930 . S
C775 C774 1.394 . S
C775 C776 1.383 . S
C775 H783 0.929 . S
C776 C775 1.383 . S
C776 C777 1.377 . S
C777 H761 0.930 . S
C777 C776 1.377 . S
C777 C778 1.379 . S
C778 H762 0.931 . S
C778 C772 1.383 . S
C778 C777 1.379 . S
H779 C773 0.959 . S
H780 C773 0.961 . S
H781 C773 0.960 . S
H782 C774 0.930 . S
H783 C775 0.929 . S
H784 C792 0.929 . S
H785 C794 0.930 . S
H786 C796 0.930 . S
H787 C799 0.929 . S
H788 C802 0.930 . S
H789 C804 0.960 . S
H790 C804 0.960 . S
H791 C804 0.960 . S
C792 H784 0.929 . S
C792 C793 1.377 . S
C792 C794 1.384 . S
C793 C792 1.377 . S
C793 C799 1.390 . S
C794 H785 0.930 . S
C794 C792 1.384 . S
C794 C795 1.372 . S
C795 C794 1.372 . S
C795 C796 1.400 . S
C795 C800 1.490 . S
C796 H786 0.930 . S
C796 C795 1.400 . S
C796 C799 1.386 . S
H797 C813 0.930 . S
H798 C814 0.931 . S
C799 H787 0.929 . S
C799 C793 1.390 . S
C799 C796 1.386 . S
C800 C795 1.490 . S
C800 C802 1.395 . S
C800 C803 1.403 . S
H801 C807 0.930 . S
C802 H788 0.930 . S
C802 C800 1.395 . S
C802 C805 1.403 . S
C803 C800 1.403 . S
C803 C804 1.524 . S
C803 C807 1.400 . S
C804 H789 0.960 . S
C804 H790 0.960 . S
C804 H791 0.960 . S
C804 C803 1.524 . S
C805 C802 1.403 . S
C805 C806 1.392 . S
C805 C809 1.495 . S
C806 C805 1.392 . S
C806 C807 1.385 . S
C806 C808 1.478 . S
C807 H801 0.930 . S
C807 C803 1.400 . S
C807 C806 1.385 . S
C808 C806 1.478 . S
C808 C810 1.381 . S
C808 C814 1.383 . S
C809 C805 1.495 . S
C809 H815 0.959 . S
C809 H816 0.961 . S
C809 H817 0.960 . S
C810 C808 1.381 . S
C810 C811 1.394 . S
C810 H818 0.930 . S
C811 C810 1.394 . S
C811 C812 1.383 . S
C811 H819 0.929 . S
C812 C811 1.383 . S
C812 C813 1.377 . S
C813 H797 0.930 . S
C813 C812 1.377 . S
C813 C814 1.379 . S
C814 H798 0.931 . S
C814 C808 1.383 . S
C814 C813 1.379 . S
H815 C809 0.959 . S
H816 C809 0.961 . S
H817 C809 0.960 . S
H818 C810 0.930 . S
H819 C811 0.929 . S
H820 C828 0.929 . S
H821 C830 0.930 . S
H822 C832 0.930 . S
H823 C835 0.929 . S
H824 C838 0.930 . S
H825 C840 0.960 . S
H826 C840 0.960 . S
H827 C840 0.960 . S
C828 H820 0.929 . S
C828 C829 1.377 . S
C828 C830 1.384 . S
C829 C828 1.377 . S
C829 C835 1.390 . S
C830 H821 0.930 . S
C830 C828 1.384 . S
C830 C831 1.372 . S
C831 C830 1.372 . S
C831 C832 1.400 . S
C831 C836 1.490 . S
C832 H822 0.930 . S
C832 C831 1.400 . S
C832 C835 1.386 . S
H833 C849 0.930 . S
H834 C850 0.931 . S
C835 H823 0.929 . S
C835 C829 1.390 . S
C835 C832 1.386 . S
C836 C831 1.490 . S
C836 C838 1.395 . S
C836 C839 1.403 . S
H837 C843 0.930 . S
C838 H824 0.930 . S
C838 C836 1.395 . S
C838 C841 1.403 . S
C839 C836 1.403 . S
C839 C840 1.524 . S
C839 C843 1.400 . S
C840 H825 0.960 . S
C840 H826 0.960 . S
C840 H827 0.960 . S
C840 C839 1.524 . S
C841 C838 1.403 . S
C841 C842 1.392 . S
C841 C845 1.495 . S
C842 C841 1.392 . S
C842 C843 1.385 . S
C842 C844 1.478 . S
C843 H837 0.930 . S
C843 C839 1.400 . S
C843 C842 1.385 . S
C844 C842 1.478 . S
C844 C846 1.381 . S
C844 C850 1.383 . S
C845 C841 1.495 . S
C845 H851 0.959 . S
C845 H852 0.961 . S
C845 H853 0.960 . S
C846 C844 1.381 . S
C846 C847 1.394 . S
C846 H854 0.930 . S
C847 C846 1.394 . S
C847 C848 1.383 . S
C847 H855 0.929 . S
C848 C847 1.383 . S
C848 C849 1.377 . S
C849 H833 0.930 . S
C849 C848 1.377 . S
C849 C850 1.379 . S
C850 H834 0.931 . S
C850 C844 1.383 . S
C850 C849 1.379 . S
H851 C845 0.959 . S
H852 C845 0.961 . S
H853 C845 0.960 . S
H854 C846 0.930 . S
H855 C847 0.929 . S
H856 C864 0.929 . S
H857 C866 0.930 . S
H858 C868 0.930 . S
H859 C871 0.929 . S
H860 C874 0.930 . S
H861 C876 0.960 . S
H862 C876 0.960 . S
H863 C876 0.960 . S
C864 H856 0.929 . S
C864 C865 1.377 . S
C864 C866 1.384 . S
C865 C864 1.377 . S
C865 C871 1.390 . S
C866 H857 0.930 . S
C866 C864 1.384 . S
C866 C867 1.372 . S
C867 C866 1.372 . S
C867 C868 1.400 . S
C867 C872 1.490 . S
C868 H858 0.930 . S
C868 C867 1.400 . S
C868 C871 1.386 . S
H869 C885 0.930 . S
H870 C886 0.931 . S
C871 H859 0.929 . S
C871 C865 1.390 . S
C871 C868 1.386 . S
C872 C867 1.490 . S
C872 C874 1.395 . S
C872 C875 1.403 . S
H873 C879 0.930 . S
C874 H860 0.930 . S
C874 C872 1.395 . S
C874 C877 1.403 . S
C875 C872 1.403 . S
C875 C876 1.524 . S
C875 C879 1.400 . S
C876 H861 0.960 . S
C876 H862 0.960 . S
C876 H863 0.960 . S
C876 C875 1.524 . S
C877 C874 1.403 . S
C877 C878 1.392 . S
C877 C881 1.495 . S
C878 C877 1.392 . S
C878 C879 1.385 . S
C878 C880 1.478 . S
C879 H873 0.930 . S
C879 C875 1.400 . S
C879 C878 1.385 . S
C880 C878 1.478 . S
C880 C882 1.381 . S
C880 C886 1.383 . S
C881 C877 1.495 . S
C881 H887 0.959 . S
C881 H888 0.961 . S
C881 H889 0.960 . S
C882 C880 1.381 . S
C882 C883 1.394 . S
C882 H890 0.930 . S
C883 C882 1.394 . S
C883 C884 1.383 . S
C883 H891 0.929 . S
C884 C883 1.383 . S
C884 C885 1.377 . S
C885 H869 0.930 . S
C885 C884 1.377 . S
C885 C886 1.379 . S
C886 H870 0.931 . S
C886 C880 1.383 . S
C886 C885 1.379 . S
H887 C881 0.959 . S
H888 C881 0.961 . S
H889 C881 0.960 . S
H890 C882 0.930 . S
H891 C883 0.929 . S
H892 C900 0.929 . S
H893 C902 0.930 . S
H894 C904 0.930 . S
H895 C907 0.929 . S
H896 C910 0.930 . S
H897 C912 0.960 . S
H898 C912 0.960 . S
H899 C912 0.960 . S
C900 H892 0.929 . S
C900 C901 1.377 . S
C900 C902 1.384 . S
C901 C900 1.377 . S
C901 C907 1.390 . S
C902 H893 0.930 . S
C902 C900 1.384 . S
C902 C903 1.372 . S
C903 C902 1.372 . S
C903 C904 1.400 . S
C903 C908 1.490 . S
C904 H894 0.930 . S
C904 C903 1.400 . S
C904 C907 1.386 . S
H905 C921 0.930 . S
H906 C922 0.931 . S
C907 H895 0.929 . S
C907 C901 1.390 . S
C907 C904 1.386 . S
C908 C903 1.490 . S
C908 C910 1.395 . S
C908 C911 1.403 . S
H909 C915 0.930 . S
C910 H896 0.930 . S
C910 C908 1.395 . S
C910 C913 1.403 . S
C911 C908 1.403 . S
C911 C912 1.524 . S
C911 C915 1.400 . S
C912 H897 0.960 . S
C912 H898 0.960 . S
C912 H899 0.960 . S
C912 C911 1.524 . S
C913 C910 1.403 . S
C913 C914 1.392 . S
C913 C917 1.495 . S
C914 C913 1.392 . S
C914 C915 1.385 . S
C914 C916 1.478 . S
C915 H909 0.930 . S
C915 C911 1.400 . S
C915 C914 1.385 . S
C916 C914 1.478 . S
C916 C918 1.381 . S
C916 C922 1.383 . S
C917 C913 1.495 . S
C917 H923 0.959 . S
C917 H924 0.961 . S
C917 H925 0.960 . S
C918 C916 1.381 . S
C918 C919 1.394 . S
C918 H926 0.930 . S
C919 C918 1.394 . S
C919 C920 1.383 . S
C919 H927 0.929 . S
C920 C919 1.383 . S
C920 C921 1.377 . S
C921 H905 0.930 . S
C921 C920 1.377 . S
C921 C922 1.379 . S
C922 H906 0.931 . S
C922 C916 1.383 . S
C922 C921 1.379 . S
H923 C917 0.959 . S
H924 C917 0.961 . S
H925 C917 0.960 . S
H926 C918 0.930 . S
H927 C919 0.929 . S
H928 C936 0.929 . S
H929 C938 0.930 . S
H930 C940 0.930 . S
H931 C943 0.929 . S
H932 C946 0.930 . S
H933 C948 0.960 . S
H934 C948 0.960 . S
H935 C948 0.960 . S
C936 H928 0.929 . S
C936 C937 1.377 . S
C936 C938 1.384 . S
C937 C936 1.377 . S
C937 C943 1.390 . S
C938 H929 0.930 . S
C938 C936 1.384 . S
C938 C939 1.372 . S
C939 C938 1.372 . S
C939 C940 1.400 . S
C939 C944 1.490 . S
C940 H930 0.930 . S
C940 C939 1.400 . S
C940 C943 1.386 . S
H941 C957 0.930 . S
H942 C958 0.931 . S
C943 H931 0.929 . S
C943 C937 1.390 . S
C943 C940 1.386 . S
C944 C939 1.490 . S
C944 C946 1.395 . S
C944 C947 1.403 . S
H945 C951 0.930 . S
C946 H932 0.930 . S
C946 C944 1.395 . S
C946 C949 1.403 . S
C947 C944 1.403 . S
C947 C948 1.524 . S
C947 C951 1.400 . S
C948 H933 0.960 . S
C948 H934 0.960 . S
C948 H935 0.960 . S
C948 C947 1.524 . S
C949 C946 1.403 . S
C949 C950 1.392 . S
C949 C953 1.495 . S
C950 C949 1.392 . S
C950 C951 1.385 . S
C950 C952 1.478 . S
C951 H945 0.930 . S
C951 C947 1.400 . S
C951 C950 1.385 . S
C952 C950 1.478 . S
C952 C954 1.381 . S
C952 C958 1.383 . S
C953 C949 1.495 . S
C953 H959 0.959 . S
C953 H960 0.961 . S
C953 H961 0.960 . S
C954 C952 1.381 . S
C954 C955 1.394 . S
C954 H962 0.930 . S
C955 C954 1.394 . S
C955 C956 1.383 . S
C955 H963 0.929 . S
C956 C955 1.383 . S
C956 C957 1.377 . S
C957 H941 0.930 . S
C957 C956 1.377 . S
C957 C958 1.379 . S
C958 H942 0.931 . S
C958 C952 1.383 . S
C958 C957 1.379 . S
H959 C953 0.959 . S
H960 C953 0.961 . S
H961 C953 0.960 . S
H962 C954 0.930 . S
H963 C955 0.929 . S
H964 C972 0.929 . S
H965 C974 0.930 . S
H966 C976 0.930 . S
H967 C979 0.929 . S
H968 C982 0.930 . S
H969 C984 0.960 . S
H970 C984 0.960 . S
H971 C984 0.960 . S
C972 H964 0.929 . S
C972 C973 1.377 . S
C972 C974 1.384 . S
C973 C972 1.377 . S
C973 C979 1.390 . S
C974 H965 0.930 . S
C974 C972 1.384 . S
C974 C975 1.372 . S
C975 C974 1.372 . S
C975 C976 1.400 . S
C975 C980 1.490 . S
C976 H966 0.930 . S
C976 C975 1.400 . S
C976 C979 1.386 . S
H977 C993 0.930 . S
H978 C994 0.931 . S
C979 H967 0.929 . S
C979 C973 1.390 . S
C979 C976 1.386 . S
C980 C975 1.490 . S
C980 C982 1.395 . S
C980 C983 1.403 . S
H981 C987 0.930 . S
C982 H968 0.930 . S
C982 C980 1.395 . S
C982 C985 1.403 . S
C983 C980 1.403 . S
C983 C984 1.524 . S
C983 C987 1.400 . S
C984 H969 0.960 . S
C984 H970 0.960 . S
C984 H971 0.960 . S
C984 C983 1.524 . S
C985 C982 1.403 . S
C985 C986 1.392 . S
C985 C989 1.495 . S
C986 C985 1.392 . S
C986 C987 1.385 . S
C986 C988 1.478 . S
C987 H981 0.930 . S
C987 C983 1.400 . S
C987 C986 1.385 . S
C988 C986 1.478 . S
C988 C990 1.381 . S
C988 C994 1.383 . S
C989 C985 1.495 . S
C989 H995 0.959 . S
C989 H996 0.961 . S
C989 H997 0.960 . S
C990 C988 1.381 . S
C990 C991 1.394 . S
C990 H998 0.930 . S
C991 C990 1.394 . S
C991 C992 1.383 . S
C991 H999 0.929 . S
C992 C991 1.383 . S
C992 C993 1.377 . S
C993 H977 0.930 . S
C993 C992 1.377 . S
C993 C994 1.379 . S
C994 H978 0.931 . S
C994 C988 1.383 . S
C994 C993 1.379 . S
H995 C989 0.959 . S
H996 C989 0.961 . S
H997 C989 0.960 . S
H998 C990 0.930 . S
H999 C991 0.929 . S
H1000 C1008 0.929 . S
H1001 C1010 0.930 . S
H1002 C1012 0.930 . S
H1003 C1015 0.929 . S
H1004 C1018 0.930 . S
H1005 C1020 0.960 . S
H1006 C1020 0.960 . S
H1007 C1020 0.960 . S
C1008 H1000 0.929 . S
C1008 C1009 1.377 . S
C1008 C1010 1.384 . S
C1009 C1008 1.377 . S
C1009 C1015 1.390 . S
C1010 H1001 0.930 . S
C1010 C1008 1.384 . S
C1010 C1011 1.372 . S
C1011 C1010 1.372 . S
C1011 C1012 1.400 . S
C1011 C1016 1.490 . S
C1012 H1002 0.930 . S
C1012 C1011 1.400 . S
C1012 C1015 1.386 . S
H1013 C1029 0.930 . S
H1014 C1030 0.931 . S
C1015 H1003 0.929 . S
C1015 C1009 1.390 . S
C1015 C1012 1.386 . S
C1016 C1011 1.490 . S
C1016 C1018 1.395 . S
C1016 C1019 1.403 . S
H1017 C1023 0.930 . S
C1018 H1004 0.930 . S
C1018 C1016 1.395 . S
C1018 C1021 1.403 . S
C1019 C1016 1.403 . S
C1019 C1020 1.524 . S
C1019 C1023 1.400 . S
C1020 H1005 0.960 . S
C1020 H1006 0.960 . S
C1020 H1007 0.960 . S
C1020 C1019 1.524 . S
C1021 C1018 1.403 . S
C1021 C1022 1.392 . S
C1021 C1025 1.495 . S
C1022 C1021 1.392 . S
C1022 C1023 1.385 . S
C1022 C1024 1.478 . S
C1023 H1017 0.930 . S
C1023 C1019 1.400 . S
C1023 C1022 1.385 . S
C1024 C1022 1.478 . S
C1024 C1026 1.381 . S
C1024 C1030 1.383 . S
C1025 C1021 1.495 . S
C1025 H1031 0.959 . S
C1025 H1032 0.961 . S
C1025 H1033 0.960 . S
C1026 C1024 1.381 . S
C1026 C1027 1.394 . S
C1026 H1034 0.930 . S
C1027 C1026 1.394 . S
C1027 C1028 1.383 . S
C1027 H1035 0.929 . S
C1028 C1027 1.383 . S
C1028 C1029 1.377 . S
C1029 H1013 0.930 . S
C1029 C1028 1.377 . S
C1029 C1030 1.379 . S
C1030 H1014 0.931 . S
C1030 C1024 1.383 . S
C1030 C1029 1.379 . S
H1031 C1025 0.959 . S
H1032 C1025 0.961 . S
H1033 C1025 0.960 . S
H1034 C1026 0.930 . S
H1035 C1027 0.929 . S
H1036 C1044 0.929 . S
H1037 C1046 0.930 . S
H1038 C1048 0.930 . S
H1039 C1051 0.929 . S
H1040 C1054 0.930 . S
H1041 C1056 0.960 . S
H1042 C1056 0.960 . S
H1043 C1056 0.960 . S
C1044 H1036 0.929 . S
C1044 C1045 1.377 . S
C1044 C1046 1.384 . S
C1045 C1044 1.377 . S
C1045 C1051 1.390 . S
C1046 H1037 0.930 . S
C1046 C1044 1.384 . S
C1046 C1047 1.372 . S
C1047 C1046 1.372 . S
C1047 C1048 1.400 . S
C1047 C1052 1.490 . S
C1048 H1038 0.930 . S
C1048 C1047 1.400 . S
C1048 C1051 1.386 . S
H1049 C1065 0.930 . S
H1050 C1066 0.931 . S
C1051 H1039 0.929 . S
C1051 C1045 1.390 . S
C1051 C1048 1.386 . S
C1052 C1047 1.490 . S
C1052 C1054 1.395 . S
C1052 C1055 1.403 . S
H1053 C1059 0.930 . S
C1054 H1040 0.930 . S
C1054 C1052 1.395 . S
C1054 C1057 1.403 . S
C1055 C1052 1.403 . S
C1055 C1056 1.524 . S
C1055 C1059 1.400 . S
C1056 H1041 0.960 . S
C1056 H1042 0.960 . S
C1056 H1043 0.960 . S
C1056 C1055 1.524 . S
C1057 C1054 1.403 . S
C1057 C1058 1.392 . S
C1057 C1061 1.495 . S
C1058 C1057 1.392 . S
C1058 C1059 1.385 . S
C1058 C1060 1.478 . S
C1059 H1053 0.930 . S
C1059 C1055 1.400 . S
C1059 C1058 1.385 . S
C1060 C1058 1.478 . S
C1060 C1062 1.381 . S
C1060 C1066 1.383 . S
C1061 C1057 1.495 . S
C1061 H1067 0.959 . S
C1061 H1068 0.961 . S
C1061 H1069 0.960 . S
C1062 C1060 1.381 . S
C1062 C1063 1.394 . S
C1062 H1070 0.930 . S
C1063 C1062 1.394 . S
C1063 C1064 1.383 . S
C1063 H1071 0.929 . S
C1064 C1063 1.383 . S
C1064 C1065 1.377 . S
C1065 H1049 0.930 . S
C1065 C1064 1.377 . S
C1065 C1066 1.379 . S
C1066 H1050 0.931 . S
C1066 C1060 1.383 . S
C1066 C1065 1.379 . S
H1067 C1061 0.959 . S
H1068 C1061 0.961 . S
H1069 C1061 0.960 . S
H1070 C1062 0.930 . S
H1071 C1063 0.929 . S
H1072 C1080 0.929 . S
H1073 C1082 0.930 . S
H1074 C1084 0.930 . S
H1075 C1087 0.929 . S
H1076 C1090 0.930 . S
H1077 C1092 0.960 . S
H1078 C1092 0.960 . S
H1079 C1092 0.960 . S
C1080 H1072 0.929 . S
C1080 C1081 1.377 . S
C1080 C1082 1.384 . S
C1081 C1080 1.377 . S
C1081 C1087 1.390 . S
C1082 H1073 0.930 . S
C1082 C1080 1.384 . S
C1082 C1083 1.372 . S
C1083 C1082 1.372 . S
C1083 C1084 1.400 . S
C1083 C1088 1.490 . S
C1084 H1074 0.930 . S
C1084 C1083 1.400 . S
C1084 C1087 1.386 . S
H1085 C1101 0.930 . S
H1086 C1102 0.931 . S
C1087 H1075 0.929 . S
C1087 C1081 1.390 . S
C1087 C1084 1.386 . S
C1088 C1083 1.490 . S
C1088 C1090 1.395 . S
C1088 C1091 1.403 . S
H1089 C1095 0.930 . S
C1090 H1076 0.930 . S
C1090 C1088 1.395 . S
C1090 C1093 1.403 . S
C1091 C1088 1.403 . S
C1091 C1092 1.524 . S
C1091 C1095 1.400 . S
C1092 H1077 0.960 . S
C1092 H1078 0.960 . S
C1092 H1079 0.960 . S
C1092 C1091 1.524 . S
C1093 C1090 1.403 . S
C1093 C1094 1.392 . S
C1093 C1097 1.495 . S
C1094 C1093 1.392 . S
C1094 C1095 1.385 . S
C1094 C1096 1.478 . S
C1095 H1089 0.930 . S
C1095 C1091 1.400 . S
C1095 C1094 1.385 . S
C1096 C1094 1.478 . S
C1096 C1098 1.381 . S
C1096 C1102 1.383 . S
C1097 C1093 1.495 . S
C1097 H1103 0.959 . S
C1097 H1104 0.961 . S
C1097 H1105 0.960 . S
C1098 C1096 1.381 . S
C1098 C1099 1.394 . S
C1098 H1106 0.930 . S
C1099 C1098 1.394 . S
C1099 C1100 1.383 . S
C1099 H1107 0.929 . S
C1100 C1099 1.383 . S
C1100 C1101 1.377 . S
C1101 H1085 0.930 . S
C1101 C1100 1.377 . S
C1101 C1102 1.379 . S
C1102 H1086 0.931 . S
C1102 C1096 1.383 . S
C1102 C1101 1.379 . S
H1103 C1097 0.959 . S
H1104 C1097 0.961 . S
H1105 C1097 0.960 . S
H1106 C1098 0.930 . S
H1107 C1099 0.929 . S
H1108 C1116 0.929 . S
H1109 C1118 0.930 . S
H1110 C1120 0.930 . S
H1111 C1123 0.929 . S
H1112 C1126 0.930 . S
H1113 C1128 0.960 . S
H1114 C1128 0.960 . S
H1115 C1128 0.960 . S
C1116 H1108 0.929 . S
C1116 C1117 1.377 . S
C1116 C1118 1.384 . S
C1117 C1116 1.377 . S
C1117 C1123 1.390 . S
C1118 H1109 0.930 . S
C1118 C1116 1.384 . S
C1118 C1119 1.372 . S
C1119 C1118 1.372 . S
C1119 C1120 1.400 . S
C1119 C1124 1.490 . S
C1120 H1110 0.930 . S
C1120 C1119 1.400 . S
C1120 C1123 1.386 . S
H1121 C1137 0.930 . S
H1122 C1138 0.931 . S
C1123 H1111 0.929 . S
C1123 C1117 1.390 . S
C1123 C1120 1.386 . S
C1124 C1119 1.490 . S
C1124 C1126 1.395 . S
C1124 C1127 1.403 . S
H1125 C1131 0.930 . S
C1126 H1112 0.930 . S
C1126 C1124 1.395 . S
C1126 C1129 1.403 . S
C1127 C1124 1.403 . S
C1127 C1128 1.524 . S
C1127 C1131 1.400 . S
C1128 H1113 0.960 . S
C1128 H1114 0.960 . S
C1128 H1115 0.960 . S
C1128 C1127 1.524 . S
C1129 C1126 1.403 . S
C1129 C1130 1.392 . S
C1129 C1133 1.495 . S
C1130 C1129 1.392 . S
C1130 C1131 1.385 . S
C1130 C1132 1.478 . S
C1131 H1125 0.930 . S
C1131 C1127 1.400 . S
C1131 C1130 1.385 . S
C1132 C1130 1.478 . S
C1132 C1134 1.381 . S
C1132 C1138 1.383 . S
C1133 C1129 1.495 . S
C1133 H1139 0.959 . S
C1133 H1140 0.961 . S
C1133 H1141 0.960 . S
C1134 C1132 1.381 . S
C1134 C1135 1.394 . S
C1134 H1142 0.930 . S
C1135 C1134 1.394 . S
C1135 C1136 1.383 . S
C1135 H1143 0.929 . S
C1136 C1135 1.383 . S
C1136 C1137 1.377 . S
C1137 H1121 0.930 . S
C1137 C1136 1.377 . S
C1137 C1138 1.379 . S
C1138 H1122 0.931 . S
C1138 C1132 1.383 . S
C1138 C1137 1.379 . S
H1139 C1133 0.959 . S
H1140 C1133 0.961 . S
H1141 C1133 0.960 . S
H1142 C1134 0.930 . S
H1143 C1135 0.929 . S
H1144 C1152 0.929 . S
H1145 C1154 0.930 . S
H1146 C1156 0.930 . S
H1147 C1159 0.929 . S
H1148 C1162 0.930 . S
H1149 C1164 0.960 . S
H1150 C1164 0.960 . S
H1151 C1164 0.960 . S
C1152 H1144 0.929 . S
C1152 C1153 1.377 . S
C1152 C1154 1.384 . S
C1153 C1152 1.377 . S
C1153 C1159 1.390 . S
C1154 H1145 0.930 . S
C1154 C1152 1.384 . S
C1154 C1155 1.372 . S
C1155 C1154 1.372 . S
C1155 C1156 1.400 . S
C1155 C1160 1.490 . S
C1156 H1146 0.930 . S
C1156 C1155 1.400 . S
C1156 C1159 1.386 . S
H1157 C1173 0.930 . S
H1158 C1174 0.931 . S
C1159 H1147 0.929 . S
C1159 C1153 1.390 . S
C1159 C1156 1.386 . S
C1160 C1155 1.490 . S
C1160 C1162 1.395 . S
C1160 C1163 1.403 . S
H1161 C1167 0.930 . S
C1162 H1148 0.930 . S
C1162 C1160 1.395 . S
C1162 C1165 1.403 . S
C1163 C1160 1.403 . S
C1163 C1164 1.524 . S
C1163 C1167 1.400 . S
C1164 H1149 0.960 . S
C1164 H1150 0.960 . S
C1164 H1151 0.960 . S
C1164 C1163 1.524 . S
C1165 C1162 1.403 . S
C1165 C1166 1.392 . S
C1165 C1169 1.495 . S
C1166 C1165 1.392 . S
C1166 C1167 1.385 . S
C1166 C1168 1.478 . S
C1167 H1161 0.930 . S
C1167 C1163 1.400 . S
C1167 C1166 1.385 . S
C1168 C1166 1.478 . S
C1168 C1170 1.381 . S
C1168 C1174 1.383 . S
C1169 C1165 1.495 . S
C1169 H1175 0.959 . S
C1169 H1176 0.961 . S
C1169 H1177 0.960 . S
C1170 C1168 1.381 . S
C1170 C1171 1.394 . S
C1170 H1178 0.930 . S
C1171 C1170 1.394 . S
C1171 C1172 1.383 . S
C1171 H1179 0.929 . S
C1172 C1171 1.383 . S
C1172 C1173 1.377 . S
C1173 H1157 0.930 . S
C1173 C1172 1.377 . S
C1173 C1174 1.379 . S
C1174 H1158 0.931 . S
C1174 C1168 1.383 . S
C1174 C1173 1.379 . S
H1175 C1169 0.959 . S
H1176 C1169 0.961 . S
H1177 C1169 0.960 . S
H1178 C1170 0.930 . S
H1179 C1171 0.929 . S
H1180 C1188 0.929 . S
H1181 C1190 0.930 . S
H1182 C1192 0.930 . S
H1183 C1195 0.929 . S
H1184 C1198 0.930 . S
H1185 C1200 0.960 . S
H1186 C1200 0.960 . S
H1187 C1200 0.960 . S
C1188 H1180 0.929 . S
C1188 C1189 1.377 . S
C1188 C1190 1.384 . S
C1189 C1188 1.377 . S
C1189 C1195 1.390 . S
C1190 H1181 0.930 . S
C1190 C1188 1.384 . S
C1190 C1191 1.372 . S
C1191 C1190 1.372 . S
C1191 C1192 1.400 . S
C1191 C1196 1.490 . S
C1192 H1182 0.930 . S
C1192 C1191 1.400 . S
C1192 C1195 1.386 . S
H1193 C1209 0.930 . S
H1194 C1210 0.931 . S
C1195 H1183 0.929 . S
C1195 C1189 1.390 . S
C1195 C1192 1.386 . S
C1196 C1191 1.490 . S
C1196 C1198 1.395 . S
C1196 C1199 1.403 . S
H1197 C1203 0.930 . S
C1198 H1184 0.930 . S
C1198 C1196 1.395 . S
C1198 C1201 1.403 . S
C1199 C1196 1.403 . S
C1199 C1200 1.524 . S
C1199 C1203 1.400 . S
C1200 H1185 0.960 . S
C1200 H1186 0.960 . S
C1200 H1187 0.960 . S
C1200 C1199 1.524 . S
C1201 C1198 1.403 . S
C1201 C1202 1.392 . S
C1201 C1205 1.495 . S
C1202 C1201 1.392 . S
C1202 C1203 1.385 . S
C1202 C1204 1.478 . S
C1203 H1197 0.930 . S
C1203 C1199 1.400 . S
C1203 C1202 1.385 . S
C1204 C1202 1.478 . S
C1204 C1206 1.381 . S
C1204 C1210 1.383 . S
C1205 C1201 1.495 . S
C1205 H1211 0.959 . S
C1205 H1212 0.961 . S
C1205 H1213 0.960 . S
C1206 C1204 1.381 . S
C1206 C1207 1.394 . S
C1206 H1214 0.930 . S
C1207 C1206 1.394 . S
C1207 C1208 1.383 . S
C1207 H1215 0.929 . S
C1208 C1207 1.383 . S
C1208 C1209 1.377 . S
C1209 H1193 0.930 . S
C1209 C1208 1.377 . S
C1209 C1210 1.379 . S
C1210 H1194 0.931 . S
C1210 C1204 1.383 . S
C1210 C1209 1.379 . S
H1211 C1205 0.959 . S
H1212 C1205 0.961 . S
H1213 C1205 0.960 . S
H1214 C1206 0.930 . S
H1215 C1207 0.929 . S
H1216 C1224 0.929 . S
H1217 C1226 0.930 . S
H1218 C1228 0.930 . S
H1219 C1231 0.929 . S
H1220 C1234 0.930 . S
H1221 C1236 0.960 . S
H1222 C1236 0.960 . S
H1223 C1236 0.960 . S
C1224 H1216 0.929 . S
C1224 C1225 1.377 . S
C1224 C1226 1.384 . S
C1225 C1224 1.377 . S
C1225 C1231 1.390 . S
C1226 H1217 0.930 . S
C1226 C1224 1.384 . S
C1226 C1227 1.372 . S
C1227 C1226 1.372 . S
C1227 C1228 1.400 . S
C1227 C1232 1.490 . S
C1228 H1218 0.930 . S
C1228 C1227 1.400 . S
C1228 C1231 1.386 . S
H1229 C1245 0.930 . S
H1230 C1246 0.931 . S
C1231 H1219 0.929 . S
C1231 C1225 1.390 . S
C1231 C1228 1.386 . S
C1232 C1227 1.490 . S
C1232 C1234 1.395 . S
C1232 C1235 1.403 . S
H1233 C1239 0.930 . S
C1234 H1220 0.930 . S
C1234 C1232 1.395 . S
C1234 C1237 1.403 . S
C1235 C1232 1.403 . S
C1235 C1236 1.524 . S
C1235 C1239 1.400 . S
C1236 H1221 0.960 . S
C1236 H1222 0.960 . S
C1236 H1223 0.960 . S
C1236 C1235 1.524 . S
C1237 C1234 1.403 . S
C1237 C1238 1.392 . S
C1237 C1241 1.495 . S
C1238 C1237 1.392 . S
C1238 C1239 1.385 . S
C1238 C1240 1.478 . S
C1239 H1233 0.930 . S
C1239 C1235 1.400 . S
C1239 C1238 1.385 . S
C1240 C1238 1.478 . S
C1240 C1242 1.381 . S
C1240 C1246 1.383 . S
C1241 C1237 1.495 . S
C1241 H1247 0.959 . S
C1241 H1248 0.961 . S
C1241 H1249 0.960 . S
C1242 C1240 1.381 . S
C1242 C1243 1.394 . S
C1242 H1250 0.930 . S
C1243 C1242 1.394 . S
C1243 C1244 1.383 . S
C1243 H1251 0.929 . S
C1244 C1243 1.383 . S
C1244 C1245 1.377 . S
C1245 H1229 0.930 . S
C1245 C1244 1.377 . S
C1245 C1246 1.379 . S
C1246 H1230 0.931 . S
C1246 C1240 1.383 . S
C1246 C1245 1.379 . S
H1247 C1241 0.959 . S
H1248 C1241 0.961 . S
H1249 C1241 0.960 . S
H1250 C1242 0.930 . S
H1251 C1243 0.929 . S
H1252 C1260 0.929 . S
H1253 C1262 0.930 . S
H1254 C1264 0.930 . S
H1255 C1267 0.929 . S
H1256 C1270 0.930 . S
H1257 C1272 0.960 . S
H1258 C1272 0.960 . S
H1259 C1272 0.960 . S
C1260 H1252 0.929 . S
C1260 C1261 1.377 . S
C1260 C1262 1.384 . S
C1261 C1260 1.377 . S
C1261 C1267 1.390 . S
C1262 H1253 0.930 . S
C1262 C1260 1.384 . S
C1262 C1263 1.372 . S
C1263 C1262 1.372 . S
C1263 C1264 1.400 . S
C1263 C1268 1.490 . S
C1264 H1254 0.930 . S
C1264 C1263 1.400 . S
C1264 C1267 1.386 . S
H1265 C1281 0.930 . S
H1266 C1282 0.931 . S
C1267 H1255 0.929 . S
C1267 C1261 1.390 . S
C1267 C1264 1.386 . S
C1268 C1263 1.490 . S
C1268 C1270 1.395 . S
C1268 C1271 1.403 . S
H1269 C1275 0.930 . S
C1270 H1256 0.930 . S
C1270 C1268 1.395 . S
C1270 C1273 1.403 . S
C1271 C1268 1.403 . S
C1271 C1272 1.524 . S
C1271 C1275 1.400 . S
C1272 H1257 0.960 . S
C1272 H1258 0.960 . S
C1272 H1259 0.960 . S
C1272 C1271 1.524 . S
C1273 C1270 1.403 . S
C1273 C1274 1.392 . S
C1273 C1277 1.495 . S
C1274 C1273 1.392 . S
C1274 C1275 1.385 . S
C1274 C1276 1.478 . S
C1275 H1269 0.930 . S
C1275 C1271 1.400 . S
C1275 C1274 1.385 . S
C1276 C1274 1.478 . S
C1276 C1278 1.381 . S
C1276 C1282 1.383 . S
C1277 C1273 1.495 . S
C1277 H1283 0.959 . S
C1277 H1284 0.961 . S
C1277 H1285 0.960 . S
C1278 C1276 1.381 . S
C1278 C1279 1.394 . S
C1278 H1286 0.930 . S
C1279 C1278 1.394 . S
C1279 C1280 1.383 . S
C1279 H1287 0.929 . S
C1280 C1279 1.383 . S
C1280 C1281 1.377 . S
C1281 H1265 0.930 . S
C1281 C1280 1.377 . S
C1281 C1282 1.379 . S
C1282 H1266 0.931 . S
C1282 C1276 1.383 . S
C1282 C1281 1.379 . S
H1283 C1277 0.959 . S
H1284 C1277 0.961 . S
H1285 C1277 0.960 . S
H1286 C1278 0.930 . S
H1287 C1279 0.929 . S
H1288 C1296 0.929 . S
H1289 C1298 0.930 . S
H1290 C1300 0.930 . S
H1291 C1303 0.929 . S
H1292 C1306 0.930 . S
H1293 C1308 0.960 . S
H1294 C1308 0.960 . S
H1295 C1308 0.960 . S
C1296 H1288 0.929 . S
C1296 C1297 1.377 . S
C1296 C1298 1.384 . S
C1297 C1296 1.377 . S
C1297 C1303 1.390 . S
C1298 H1289 0.930 . S
C1298 C1296 1.384 . S
C1298 C1299 1.372 . S
C1299 C1298 1.372 . S
C1299 C1300 1.400 . S
C1299 C1304 1.490 . S
C1300 H1290 0.930 . S
C1300 C1299 1.400 . S
C1300 C1303 1.386 . S
H1301 C1317 0.930 . S
H1302 C1318 0.931 . S
C1303 H1291 0.929 . S
C1303 C1297 1.390 . S
C1303 C1300 1.386 . S
C1304 C1299 1.490 . S
C1304 C1306 1.395 . S
C1304 C1307 1.403 . S
H1305 C1311 0.930 . S
C1306 H1292 0.930 . S
C1306 C1304 1.395 . S
C1306 C1309 1.403 . S
C1307 C1304 1.403 . S
C1307 C1308 1.524 . S
C1307 C1311 1.400 . S
C1308 H1293 0.960 . S
C1308 H1294 0.960 . S
C1308 H1295 0.960 . S
C1308 C1307 1.524 . S
C1309 C1306 1.403 . S
C1309 C1310 1.392 . S
C1309 C1313 1.495 . S
C1310 C1309 1.392 . S
C1310 C1311 1.385 . S
C1310 C1312 1.478 . S
C1311 H1305 0.930 . S
C1311 C1307 1.400 . S
C1311 C1310 1.385 . S
C1312 C1310 1.478 . S
C1312 C1314 1.381 . S
C1312 C1318 1.383 . S
C1313 C1309 1.495 . S
C1313 H1319 0.959 . S
C1313 H1320 0.961 . S
C1313 H1321 0.960 . S
C1314 C1312 1.381 . S
C1314 C1315 1.394 . S
C1314 H1322 0.930 . S
C1315 C1314 1.394 . S
C1315 C1316 1.383 . S
C1315 H1323 0.929 . S
C1316 C1315 1.383 . S
C1316 C1317 1.377 . S
C1317 H1301 0.930 . S
C1317 C1316 1.377 . S
C1317 C1318 1.379 . S
C1318 H1302 0.931 . S
C1318 C1312 1.383 . S
C1318 C1317 1.379 . S
H1319 C1313 0.959 . S
H1320 C1313 0.961 . S
H1321 C1313 0.960 . S
H1322 C1314 0.930 . S
H1323 C1315 0.929 . S
H1324 C1332 0.929 . S
H1325 C1334 0.930 . S
H1326 C1336 0.930 . S
H1327 C1339 0.929 . S
H1328 C1342 0.930 . S
H1329 C1344 0.960 . S
H1330 C1344 0.960 . S
H1331 C1344 0.960 . S
C1332 H1324 0.929 . S
C1332 C1333 1.377 . S
C1332 C1334 1.384 . S
C1333 C1332 1.377 . S
C1333 C1339 1.390 . S
C1334 H1325 0.930 . S
C1334 C1332 1.384 . S
C1334 C1335 1.372 . S
C1335 C1334 1.372 . S
C1335 C1336 1.400 . S
C1335 C1340 1.490 . S
C1336 H1326 0.930 . S
C1336 C1335 1.400 . S
C1336 C1339 1.386 . S
H1337 C1353 0.930 . S
H1338 C1354 0.931 . S
C1339 H1327 0.929 . S
C1339 C1333 1.390 . S
C1339 C1336 1.386 . S
C1340 C1335 1.490 . S
C1340 C1342 1.395 . S
C1340 C1343 1.403 . S
H1341 C1347 0.930 . S
C1342 H1328 0.930 . S
C1342 C1340 1.395 . S
C1342 C1345 1.403 1_655 S
C1343 C1340 1.403 . S
C1343 C1344 1.524 . S
C1343 C1347 1.400 1_655 S
C1344 H1329 0.960 . S
C1344 H1330 0.960 . S
C1344 H1331 0.960 . S
C1344 C1343 1.524 . S
C1345 C1342 1.403 1_455 S
C1345 C1346 1.392 . S
C1345 C1349 1.495 . S
C1346 C1345 1.392 . S
C1346 C1347 1.385 . S
C1346 C1348 1.478 . S
C1347 H1341 0.930 . S
C1347 C1343 1.400 1_455 S
C1347 C1346 1.385 . S
C1348 C1346 1.478 . S
C1348 C1350 1.381 . S
C1348 C1354 1.383 . S
C1349 C1345 1.495 . S
C1349 H1355 0.959 . S
C1349 H1356 0.961 . S
C1349 H1357 0.960 . S
C1350 C1348 1.381 . S
C1350 C1351 1.394 . S
C1350 H1358 0.930 . S
C1351 C1350 1.394 . S
C1351 C1352 1.383 . S
C1351 H1359 0.929 . S
C1352 C1351 1.383 . S
C1352 C1353 1.377 . S
C1353 H1337 0.930 . S
C1353 C1352 1.377 . S
C1353 C1354 1.379 . S
C1354 H1338 0.931 . S
C1354 C1348 1.383 . S
C1354 C1353 1.379 . S
H1355 C1349 0.959 . S
H1356 C1349 0.961 . S
H1357 C1349 0.960 . S
H1358 C1350 0.930 . S
H1359 C1351 0.929 . S
H1360 C1368 0.929 . S
H1361 C1370 0.930 . S
H1362 C1372 0.930 . S
H1363 C1375 0.929 . S
H1364 C1378 0.930 . S
H1365 C1380 0.960 . S
H1366 C1380 0.960 . S
H1367 C1380 0.960 . S
C1368 H1360 0.929 . S
C1368 C1369 1.377 . S
C1368 C1370 1.384 . S
C1369 C1368 1.377 . S
C1369 C1375 1.390 . S
C1370 H1361 0.930 . S
C1370 C1368 1.384 . S
C1370 C1371 1.372 . S
C1371 C1370 1.372 . S
C1371 C1372 1.400 . S
C1371 C1376 1.490 . S
C1372 H1362 0.930 . S
C1372 C1371 1.400 . S
C1372 C1375 1.386 . S
H1373 C1389 0.930 . S
H1374 C1390 0.931 . S
C1375 H1363 0.929 . S
C1375 C1369 1.390 . S
C1375 C1372 1.386 . S
C1376 C1371 1.490 . S
C1376 C1378 1.395 . S
C1376 C1379 1.403 . S
H1377 C1383 0.930 . S
C1378 H1364 0.930 . S
C1378 C1376 1.395 . S
C1378 C1381 1.403 . S
C1379 C1376 1.403 . S
C1379 C1380 1.524 . S
C1379 C1383 1.400 . S
C1380 H1365 0.960 . S
C1380 H1366 0.960 . S
C1380 H1367 0.960 . S
C1380 C1379 1.524 . S
C1381 C1378 1.403 . S
C1381 C1382 1.392 . S
C1381 C1385 1.495 . S
C1382 C1381 1.392 . S
C1382 C1383 1.385 . S
C1382 C1384 1.478 . S
C1383 H1377 0.930 . S
C1383 C1379 1.400 . S
C1383 C1382 1.385 . S
C1384 C1382 1.478 . S
C1384 C1386 1.381 . S
C1384 C1390 1.383 . S
C1385 C1381 1.495 . S
C1385 H1391 0.959 . S
C1385 H1392 0.961 . S
C1385 H1393 0.960 . S
C1386 C1384 1.381 . S
C1386 C1387 1.394 . S
C1386 H1394 0.930 . S
C1387 C1386 1.394 . S
C1387 C1388 1.383 . S
C1387 H1395 0.929 . S
C1388 C1387 1.383 . S
C1388 C1389 1.377 . S
C1389 H1373 0.930 . S
C1389 C1388 1.377 . S
C1389 C1390 1.379 . S
C1390 H1374 0.931 . S
C1390 C1384 1.383 . S
C1390 C1389 1.379 . S
H1391 C1385 0.959 . S
H1392 C1385 0.961 . S
H1393 C1385 0.960 . S
H1394 C1386 0.930 . S
H1395 C1387 0.929 . S
H1396 C1404 0.929 . S
H1397 C1406 0.930 . S
H1398 C1408 0.930 . S
H1399 C1411 0.929 . S
H1400 C1414 0.930 . S
H1401 C1416 0.960 . S
H1402 C1416 0.960 . S
H1403 C1416 0.960 . S
C1404 H1396 0.929 . S
C1404 C1405 1.377 . S
C1404 C1406 1.384 . S
C1405 C1404 1.377 . S
C1405 C1411 1.390 . S
C1406 H1397 0.930 . S
C1406 C1404 1.384 . S
C1406 C1407 1.372 . S
C1407 C1406 1.372 . S
C1407 C1408 1.400 . S
C1407 C1412 1.490 . S
C1408 H1398 0.930 . S
C1408 C1407 1.400 . S
C1408 C1411 1.386 . S
H1409 C1425 0.930 . S
H1410 C1426 0.931 . S
C1411 H1399 0.929 . S
C1411 C1405 1.390 . S
C1411 C1408 1.386 . S
C1412 C1407 1.490 . S
C1412 C1414 1.395 . S
C1412 C1415 1.403 . S
H1413 C1419 0.930 . S
C1414 H1400 0.930 . S
C1414 C1412 1.395 . S
C1414 C1417 1.403 1_455 S
C1415 C1412 1.403 . S
C1415 C1416 1.524 . S
C1415 C1419 1.400 1_455 S
C1416 H1401 0.960 . S
C1416 H1402 0.960 . S
C1416 H1403 0.960 . S
C1416 C1415 1.524 . S
C1417 C1414 1.403 1_655 S
C1417 C1418 1.392 . S
C1417 C1421 1.495 . S
C1418 C1417 1.392 . S
C1418 C1419 1.385 . S
C1418 C1420 1.478 . S
C1419 H1413 0.930 . S
C1419 C1415 1.400 1_655 S
C1419 C1418 1.385 . S
C1420 C1418 1.478 . S
C1420 C1422 1.381 . S
C1420 C1426 1.383 . S
C1421 C1417 1.495 . S
C1421 H1427 0.959 . S
C1421 H1428 0.961 . S
C1421 H1429 0.960 . S
C1422 C1420 1.381 . S
C1422 C1423 1.394 . S
C1422 H1430 0.930 . S
C1423 C1422 1.394 . S
C1423 C1424 1.383 . S
C1423 H1431 0.929 . S
C1424 C1423 1.383 . S
C1424 C1425 1.377 . S
C1425 H1409 0.930 . S
C1425 C1424 1.377 . S
C1425 C1426 1.379 . S
C1426 H1410 0.931 . S
C1426 C1420 1.383 . S
C1426 C1425 1.379 . S
H1427 C1421 0.959 . S
H1428 C1421 0.961 . S
H1429 C1421 0.960 . S
H1430 C1422 0.930 . S
H1431 C1423 0.929 . S
H1432 C1440 0.929 . S
H1433 C1442 0.930 . S
H1434 C1444 0.930 . S
H1435 C1447 0.929 . S
H1436 C1450 0.930 . S
H1437 C1452 0.960 . S
H1438 C1452 0.960 . S
H1439 C1452 0.960 . S
C1440 H1432 0.929 . S
C1440 C1441 1.377 . S
C1440 C1442 1.384 . S
C1441 C1440 1.377 . S
C1441 C1447 1.390 . S
C1442 H1433 0.930 . S
C1442 C1440 1.384 . S
C1442 C1443 1.372 . S
C1443 C1442 1.372 . S
C1443 C1444 1.400 . S
C1443 C1448 1.490 . S
C1444 H1434 0.930 . S
C1444 C1443 1.400 . S
C1444 C1447 1.386 . S
H1445 C1461 0.930 . S
H1446 C1462 0.931 . S
C1447 H1435 0.929 . S
C1447 C1441 1.390 . S
C1447 C1444 1.386 . S
C1448 C1443 1.490 . S
C1448 C1450 1.395 . S
C1448 C1451 1.403 . S
H1449 C1455 0.930 . S
C1450 H1436 0.930 . S
C1450 C1448 1.395 . S
C1450 C1453 1.403 . S
C1451 C1448 1.403 . S
C1451 C1452 1.524 . S
C1451 C1455 1.400 . S
C1452 H1437 0.960 . S
C1452 H1438 0.960 . S
C1452 H1439 0.960 . S
C1452 C1451 1.524 . S
C1453 C1450 1.403 . S
C1453 C1454 1.392 . S
C1453 C1457 1.495 . S
C1454 C1453 1.392 . S
C1454 C1455 1.385 . S
C1454 C1456 1.478 . S
C1455 H1449 0.930 . S
C1455 C1451 1.400 . S
C1455 C1454 1.385 . S
C1456 C1454 1.478 . S
C1456 C1458 1.381 . S
C1456 C1462 1.383 . S
C1457 C1453 1.495 . S
C1457 H1463 0.959 . S
C1457 H1464 0.961 . S
C1457 H1465 0.960 . S
C1458 C1456 1.381 . S
C1458 C1459 1.394 . S
C1458 H1466 0.930 . S
C1459 C1458 1.394 . S
C1459 C1460 1.383 . S
C1459 H1467 0.929 . S
C1460 C1459 1.383 . S
C1460 C1461 1.377 . S
C1461 H1445 0.930 . S
C1461 C1460 1.377 . S
C1461 C1462 1.379 . S
C1462 H1446 0.931 . S
C1462 C1456 1.383 . S
C1462 C1461 1.379 . S
H1463 C1457 0.959 . S
H1464 C1457 0.961 . S
H1465 C1457 0.960 . S
H1466 C1458 0.930 . S
H1467 C1459 0.929 . S
H1468 C1476 0.929 . S
H1469 C1478 0.930 . S
H1470 C1480 0.930 . S
H1471 C1483 0.929 . S
H1472 C1486 0.930 . S
H1473 C1488 0.960 . S
H1474 C1488 0.960 . S
H1475 C1488 0.960 . S
C1476 H1468 0.929 . S
C1476 C1477 1.377 . S
C1476 C1478 1.384 . S
C1477 C1476 1.377 . S
C1477 C1483 1.390 . S
C1478 H1469 0.930 . S
C1478 C1476 1.384 . S
C1478 C1479 1.372 . S
C1479 C1478 1.372 . S
C1479 C1480 1.400 . S
C1479 C1484 1.490 . S
C1480 H1470 0.930 . S
C1480 C1479 1.400 . S
C1480 C1483 1.386 . S
H1481 C1497 0.930 . S
H1482 C1498 0.931 . S
C1483 H1471 0.929 . S
C1483 C1477 1.390 . S
C1483 C1480 1.386 . S
C1484 C1479 1.490 . S
C1484 C1486 1.395 . S
C1484 C1487 1.403 . S
H1485 C1491 0.930 . S
C1486 H1472 0.930 . S
C1486 C1484 1.395 . S
C1486 C1489 1.403 . S
C1487 C1484 1.403 . S
C1487 C1488 1.524 . S
C1487 C1491 1.400 . S
C1488 H1473 0.960 . S
C1488 H1474 0.960 . S
C1488 H1475 0.960 . S
C1488 C1487 1.524 . S
C1489 C1486 1.403 . S
C1489 C1490 1.392 . S
C1489 C1493 1.495 . S
C1490 C1489 1.392 . S
C1490 C1491 1.385 . S
C1490 C1492 1.478 . S
C1491 H1485 0.930 . S
C1491 C1487 1.400 . S
C1491 C1490 1.385 . S
C1492 C1490 1.478 . S
C1492 C1494 1.381 . S
C1492 C1498 1.383 . S
C1493 C1489 1.495 . S
C1493 H1499 0.959 . S
C1493 H1500 0.961 . S
C1493 H1501 0.960 . S
C1494 C1492 1.381 . S
C1494 C1495 1.394 . S
C1494 H1502 0.930 . S
C1495 C1494 1.394 . S
C1495 C1496 1.383 . S
C1495 H1503 0.929 . S
C1496 C1495 1.383 . S
C1496 C1497 1.377 . S
C1497 H1481 0.930 . S
C1497 C1496 1.377 . S
C1497 C1498 1.379 . S
C1498 H1482 0.931 . S
C1498 C1492 1.383 . S
C1498 C1497 1.379 . S
H1499 C1493 0.959 . S
H1500 C1493 0.961 . S
H1501 C1493 0.960 . S
H1502 C1494 0.930 . S
H1503 C1495 0.929 . S
H1504 C1512 0.929 . S
H1505 C1514 0.930 . S
H1506 C1516 0.930 . S
H1507 C1519 0.929 . S
H1508 C1522 0.930 . S
H1509 C1524 0.960 . S
H1510 C1524 0.960 . S
H1511 C1524 0.960 . S
C1512 H1504 0.929 . S
C1512 C1513 1.377 . S
C1512 C1514 1.384 . S
C1513 C1512 1.377 . S
C1513 C1519 1.390 . S
C1514 H1505 0.930 . S
C1514 C1512 1.384 . S
C1514 C1515 1.372 . S
C1515 C1514 1.372 . S
C1515 C1516 1.400 . S
C1515 C1520 1.490 . S
C1516 H1506 0.930 . S
C1516 C1515 1.400 . S
C1516 C1519 1.386 . S
H1517 C1533 0.930 . S
H1518 C1534 0.931 . S
C1519 H1507 0.929 . S
C1519 C1513 1.390 . S
C1519 C1516 1.386 . S
C1520 C1515 1.490 . S
C1520 C1522 1.395 . S
C1520 C1523 1.403 . S
H1521 C1527 0.930 . S
C1522 H1508 0.930 . S
C1522 C1520 1.395 . S
C1522 C1525 1.403 . S
C1523 C1520 1.403 . S
C1523 C1524 1.524 . S
C1523 C1527 1.400 . S
C1524 H1509 0.960 . S
C1524 H1510 0.960 . S
C1524 H1511 0.960 . S
C1524 C1523 1.524 . S
C1525 C1522 1.403 . S
C1525 C1526 1.392 . S
C1525 C1529 1.495 . S
C1526 C1525 1.392 . S
C1526 C1527 1.385 . S
C1526 C1528 1.478 . S
C1527 H1521 0.930 . S
C1527 C1523 1.400 . S
C1527 C1526 1.385 . S
C1528 C1526 1.478 . S
C1528 C1530 1.381 . S
C1528 C1534 1.383 . S
C1529 C1525 1.495 . S
C1529 H1535 0.959 . S
C1529 H1536 0.961 . S
C1529 H1537 0.960 . S
C1530 C1528 1.381 . S
C1530 C1531 1.394 . S
C1530 H1538 0.930 . S
C1531 C1530 1.394 . S
C1531 C1532 1.383 . S
C1531 H1539 0.929 . S
C1532 C1531 1.383 . S
C1532 C1533 1.377 . S
C1533 H1517 0.930 . S
C1533 C1532 1.377 . S
C1533 C1534 1.379 . S
C1534 H1518 0.931 . S
C1534 C1528 1.383 . S
C1534 C1533 1.379 . S
H1535 C1529 0.959 . S
H1536 C1529 0.961 . S
H1537 C1529 0.960 . S
H1538 C1530 0.930 . S
H1539 C1531 0.929 . S
H1540 C1548 0.929 . S
H1541 C1550 0.930 . S
H1542 C1552 0.930 . S
H1543 C1555 0.929 . S
H1544 C1558 0.930 . S
H1545 C1560 0.960 . S
H1546 C1560 0.960 . S
H1547 C1560 0.960 . S
C1548 H1540 0.929 . S
C1548 C1549 1.377 . S
C1548 C1550 1.384 . S
C1549 C1548 1.377 . S
C1549 C1555 1.390 . S
C1550 H1541 0.930 . S
C1550 C1548 1.384 . S
C1550 C1551 1.372 . S
C1551 C1550 1.372 . S
C1551 C1552 1.400 . S
C1551 C1556 1.490 . S
C1552 H1542 0.930 . S
C1552 C1551 1.400 . S
C1552 C1555 1.386 . S
H1553 C1569 0.930 . S
H1554 C1570 0.931 . S
C1555 H1543 0.929 . S
C1555 C1549 1.390 . S
C1555 C1552 1.386 . S
C1556 C1551 1.490 . S
C1556 C1558 1.395 . S
C1556 C1559 1.403 . S
H1557 C1563 0.930 . S
C1558 H1544 0.930 . S
C1558 C1556 1.395 . S
C1558 C1561 1.403 . S
C1559 C1556 1.403 . S
C1559 C1560 1.524 . S
C1559 C1563 1.400 . S
C1560 H1545 0.960 . S
C1560 H1546 0.960 . S
C1560 H1547 0.960 . S
C1560 C1559 1.524 . S
C1561 C1558 1.403 . S
C1561 C1562 1.392 . S
C1561 C1565 1.495 . S
C1562 C1561 1.392 . S
C1562 C1563 1.385 . S
C1562 C1564 1.478 . S
C1563 H1557 0.930 . S
C1563 C1559 1.400 . S
C1563 C1562 1.385 . S
C1564 C1562 1.478 . S
C1564 C1566 1.381 . S
C1564 C1570 1.383 . S
C1565 C1561 1.495 . S
C1565 H1571 0.959 . S
C1565 H1572 0.961 . S
C1565 H1573 0.960 . S
C1566 C1564 1.381 . S
C1566 C1567 1.394 . S
C1566 H1574 0.930 . S
C1567 C1566 1.394 . S
C1567 C1568 1.383 . S
C1567 H1575 0.929 . S
C1568 C1567 1.383 . S
C1568 C1569 1.377 . S
C1569 H1553 0.930 . S
C1569 C1568 1.377 . S
C1569 C1570 1.379 . S
C1570 H1554 0.931 . S
C1570 C1564 1.383 . S
C1570 C1569 1.379 . S
H1571 C1565 0.959 . S
H1572 C1565 0.961 . S
H1573 C1565 0.960 . S
H1574 C1566 0.930 . S
H1575 C1567 0.929 . S
H1576 C1584 0.929 . S
H1577 C1586 0.930 . S
H1578 C1588 0.930 . S
H1579 C1591 0.929 . S
H1580 C1594 0.930 . S
H1581 C1596 0.960 . S
H1582 C1596 0.960 . S
H1583 C1596 0.960 . S
C1584 H1576 0.929 . S
C1584 C1585 1.377 . S
C1584 C1586 1.384 . S
C1585 C1584 1.377 . S
C1585 C1591 1.390 . S
C1586 H1577 0.930 . S
C1586 C1584 1.384 . S
C1586 C1587 1.372 . S
C1587 C1586 1.372 . S
C1587 C1588 1.400 . S
C1587 C1592 1.490 . S
C1588 H1578 0.930 . S
C1588 C1587 1.400 . S
C1588 C1591 1.386 . S
H1589 C1605 0.930 . S
H1590 C1606 0.931 . S
C1591 H1579 0.929 . S
C1591 C1585 1.390 . S
C1591 C1588 1.386 . S
C1592 C1587 1.490 . S
C1592 C1594 1.395 . S
C1592 C1595 1.403 . S
H1593 C1599 0.930 . S
C1594 H1580 0.930 . S
C1594 C1592 1.395 . S
C1594 C1597 1.403 . S
C1595 C1592 1.403 . S
C1595 C1596 1.524 . S
C1595 C1599 1.400 . S
C1596 H1581 0.960 . S
C1596 H1582 0.960 . S
C1596 H1583 0.960 . S
C1596 C1595 1.524 . S
C1597 C1594 1.403 . S
C1597 C1598 1.392 . S
C1597 C1601 1.495 . S
C1598 C1597 1.392 . S
C1598 C1599 1.385 . S
C1598 C1600 1.478 . S
C1599 H1593 0.930 . S
C1599 C1595 1.400 . S
C1599 C1598 1.385 . S
C1600 C1598 1.478 . S
C1600 C1602 1.381 . S
C1600 C1606 1.383 . S
C1601 C1597 1.495 . S
C1601 H1607 0.959 . S
C1601 H1608 0.961 . S
C1601 H1609 0.960 . S
C1602 C1600 1.381 . S
C1602 C1603 1.394 . S
C1602 H1610 0.930 . S
C1603 C1602 1.394 . S
C1603 C1604 1.383 . S
C1603 H1611 0.929 . S
C1604 C1603 1.383 . S
C1604 C1605 1.377 . S
C1605 H1589 0.930 . S
C1605 C1604 1.377 . S
C1605 C1606 1.379 . S
C1606 H1590 0.931 . S
C1606 C1600 1.383 . S
C1606 C1605 1.379 . S
H1607 C1601 0.959 . S
H1608 C1601 0.961 . S
H1609 C1601 0.960 . S
H1610 C1602 0.930 . S
H1611 C1603 0.929 . S
H1612 C1620 0.929 . S
H1613 C1622 0.930 . S
H1614 C1624 0.930 . S
H1615 C1627 0.929 . S
H1616 C1630 0.930 . S
H1617 C1632 0.960 . S
H1618 C1632 0.960 . S
H1619 C1632 0.960 . S
C1620 H1612 0.929 . S
C1620 C1621 1.377 . S
C1620 C1622 1.384 . S
C1621 C1620 1.377 . S
C1621 C1627 1.390 . S
C1622 H1613 0.930 . S
C1622 C1620 1.384 . S
C1622 C1623 1.372 . S
C1623 C1622 1.372 . S
C1623 C1624 1.400 . S
C1623 C1628 1.490 . S
C1624 H1614 0.930 . S
C1624 C1623 1.400 . S
C1624 C1627 1.386 . S
H1625 C1641 0.930 . S
H1626 C1642 0.931 . S
C1627 H1615 0.929 . S
C1627 C1621 1.390 . S
C1627 C1624 1.386 . S
C1628 C1623 1.490 . S
C1628 C1630 1.395 . S
C1628 C1631 1.403 . S
H1629 C1635 0.930 . S
C1630 H1616 0.930 . S
C1630 C1628 1.395 . S
C1630 C1633 1.403 . S
C1631 C1628 1.403 . S
C1631 C1632 1.524 . S
C1631 C1635 1.400 . S
C1632 H1617 0.960 . S
C1632 H1618 0.960 . S
C1632 H1619 0.960 . S
C1632 C1631 1.524 . S
C1633 C1630 1.403 . S
C1633 C1634 1.392 . S
C1633 C1637 1.495 . S
C1634 C1633 1.392 . S
C1634 C1635 1.385 . S
C1634 C1636 1.478 . S
C1635 H1629 0.930 . S
C1635 C1631 1.400 . S
C1635 C1634 1.385 . S
C1636 C1634 1.478 . S
C1636 C1638 1.381 . S
C1636 C1642 1.383 . S
C1637 C1633 1.495 . S
C1637 H1643 0.959 . S
C1637 H1644 0.961 . S
C1637 H1645 0.960 . S
C1638 C1636 1.381 . S
C1638 C1639 1.394 . S
C1638 H1646 0.930 . S
C1639 C1638 1.394 . S
C1639 C1640 1.383 . S
C1639 H1647 0.929 . S
C1640 C1639 1.383 . S
C1640 C1641 1.377 . S
C1641 H1625 0.930 . S
C1641 C1640 1.377 . S
C1641 C1642 1.379 . S
C1642 H1626 0.931 . S
C1642 C1636 1.383 . S
C1642 C1641 1.379 . S
H1643 C1637 0.959 . S
H1644 C1637 0.961 . S
H1645 C1637 0.960 . S
H1646 C1638 0.930 . S
H1647 C1639 0.929 . S
H1648 C1656 0.929 . S
H1649 C1658 0.930 . S
H1650 C1660 0.930 . S
H1651 C1663 0.929 . S
H1652 C1666 0.930 . S
H1653 C1668 0.960 . S
H1654 C1668 0.960 . S
H1655 C1668 0.960 . S
C1656 H1648 0.929 . S
C1656 C1657 1.377 . S
C1656 C1658 1.384 . S
C1657 C1656 1.377 . S
C1657 C1663 1.390 . S
C1658 H1649 0.930 . S
C1658 C1656 1.384 . S
C1658 C1659 1.372 . S
C1659 C1658 1.372 . S
C1659 C1660 1.400 . S
C1659 C1664 1.490 . S
C1660 H1650 0.930 . S
C1660 C1659 1.400 . S
C1660 C1663 1.386 . S
H1661 C1677 0.930 . S
H1662 C1678 0.931 . S
C1663 H1651 0.929 . S
C1663 C1657 1.390 . S
C1663 C1660 1.386 . S
C1664 C1659 1.490 . S
C1664 C1666 1.395 . S
C1664 C1667 1.403 . S
H1665 C1671 0.930 . S
C1666 H1652 0.930 . S
C1666 C1664 1.395 . S
C1666 C1669 1.403 1_655 S
C1667 C1664 1.403 . S
C1667 C1668 1.524 . S
C1667 C1671 1.400 1_655 S
C1668 H1653 0.960 . S
C1668 H1654 0.960 . S
C1668 H1655 0.960 . S
C1668 C1667 1.524 . S
C1669 C1666 1.403 1_455 S
C1669 C1670 1.392 . S
C1669 C1673 1.495 . S
C1670 C1669 1.392 . S
C1670 C1671 1.385 . S
C1670 C1672 1.478 . S
C1671 H1665 0.930 . S
C1671 C1667 1.400 1_455 S
C1671 C1670 1.385 . S
C1672 C1670 1.478 . S
C1672 C1674 1.381 . S
C1672 C1678 1.383 . S
C1673 C1669 1.495 . S
C1673 H1679 0.959 . S
C1673 H1680 0.961 . S
C1673 H1681 0.960 . S
C1674 C1672 1.381 . S
C1674 C1675 1.394 . S
C1674 H1682 0.930 . S
C1675 C1674 1.394 . S
C1675 C1676 1.383 . S
C1675 H1683 0.929 . S
C1676 C1675 1.383 . S
C1676 C1677 1.377 . S
C1677 H1661 0.930 . S
C1677 C1676 1.377 . S
C1677 C1678 1.379 . S
C1678 H1662 0.931 . S
C1678 C1672 1.383 . S
C1678 C1677 1.379 . S
H1679 C1673 0.959 . S
H1680 C1673 0.961 . S
H1681 C1673 0.960 . S
H1682 C1674 0.930 . S
H1683 C1675 0.929 . S
H1684 C1692 0.929 . S
H1685 C1694 0.930 . S
H1686 C1696 0.930 . S
H1687 C1699 0.929 . S
H1688 C1702 0.930 . S
H1689 C1704 0.960 . S
H1690 C1704 0.960 . S
H1691 C1704 0.960 . S
C1692 H1684 0.929 . S
C1692 C1693 1.377 . S
C1692 C1694 1.384 . S
C1693 C1692 1.377 . S
C1693 C1699 1.390 . S
C1694 H1685 0.930 . S
C1694 C1692 1.384 . S
C1694 C1695 1.372 . S
C1695 C1694 1.372 . S
C1695 C1696 1.400 . S
C1695 C1700 1.490 . S
C1696 H1686 0.930 . S
C1696 C1695 1.400 . S
C1696 C1699 1.386 . S
H1697 C1713 0.930 . S
H1698 C1714 0.931 . S
C1699 H1687 0.929 . S
C1699 C1693 1.390 . S
C1699 C1696 1.386 . S
C1700 C1695 1.490 . S
C1700 C1702 1.395 . S
C1700 C1703 1.403 . S
H1701 C1707 0.930 . S
C1702 H1688 0.930 . S
C1702 C1700 1.395 . S
C1702 C1705 1.403 . S
C1703 C1700 1.403 . S
C1703 C1704 1.524 . S
C1703 C1707 1.400 . S
C1704 H1689 0.960 . S
C1704 H1690 0.960 . S
C1704 H1691 0.960 . S
C1704 C1703 1.524 . S
C1705 C1702 1.403 . S
C1705 C1706 1.392 . S
C1705 C1709 1.495 . S
C1706 C1705 1.392 . S
C1706 C1707 1.385 . S
C1706 C1708 1.478 . S
C1707 H1701 0.930 . S
C1707 C1703 1.400 . S
C1707 C1706 1.385 . S
C1708 C1706 1.478 . S
C1708 C1710 1.381 . S
C1708 C1714 1.383 . S
C1709 C1705 1.495 . S
C1709 H1715 0.959 . S
C1709 H1716 0.961 . S
C1709 H1717 0.960 . S
C1710 C1708 1.381 . S
C1710 C1711 1.394 . S
C1710 H1718 0.930 . S
C1711 C1710 1.394 . S
C1711 C1712 1.383 . S
C1711 H1719 0.929 . S
C1712 C1711 1.383 . S
C1712 C1713 1.377 . S
C1713 H1697 0.930 . S
C1713 C1712 1.377 . S
C1713 C1714 1.379 . S
C1714 H1698 0.931 . S
C1714 C1708 1.383 . S
C1714 C1713 1.379 . S
H1715 C1709 0.959 . S
H1716 C1709 0.961 . S
H1717 C1709 0.960 . S
H1718 C1710 0.930 . S
H1719 C1711 0.929 . S
H1720 C1728 0.929 . S
H1721 C1730 0.930 . S
H1722 C1732 0.930 . S
H1723 C1735 0.929 . S
H1724 C1738 0.930 . S
H1725 C1740 0.960 . S
H1726 C1740 0.960 . S
H1727 C1740 0.960 . S
C1728 H1720 0.929 . S
C1728 C1729 1.377 . S
C1728 C1730 1.384 . S
C1729 C1728 1.377 . S
C1729 C1735 1.390 . S
C1730 H1721 0.930 . S
C1730 C1728 1.384 . S
C1730 C1731 1.372 . S
C1731 C1730 1.372 . S
C1731 C1732 1.400 . S
C1731 C1736 1.490 . S
C1732 H1722 0.930 . S
C1732 C1731 1.400 . S
C1732 C1735 1.386 . S
H1733 C1749 0.930 . S
H1734 C1750 0.931 . S
C1735 H1723 0.929 . S
C1735 C1729 1.390 . S
C1735 C1732 1.386 . S
C1736 C1731 1.490 . S
C1736 C1738 1.395 . S
C1736 C1739 1.403 . S
H1737 C1743 0.930 . S
C1738 H1724 0.930 . S
C1738 C1736 1.395 . S
C1738 C1741 1.403 . S
C1739 C1736 1.403 . S
C1739 C1740 1.524 . S
C1739 C1743 1.400 . S
C1740 H1725 0.960 . S
C1740 H1726 0.960 . S
C1740 H1727 0.960 . S
C1740 C1739 1.524 . S
C1741 C1738 1.403 . S
C1741 C1742 1.392 . S
C1741 C1745 1.495 . S
C1742 C1741 1.392 . S
C1742 C1743 1.385 . S
C1742 C1744 1.478 . S
C1743 H1737 0.930 . S
C1743 C1739 1.400 . S
C1743 C1742 1.385 . S
C1744 C1742 1.478 . S
C1744 C1746 1.381 . S
C1744 C1750 1.383 . S
C1745 C1741 1.495 . S
C1745 H1751 0.959 . S
C1745 H1752 0.961 . S
C1745 H1753 0.960 . S
C1746 C1744 1.381 . S
C1746 C1747 1.394 . S
C1746 H1754 0.930 . S
C1747 C1746 1.394 . S
C1747 C1748 1.383 . S
C1747 H1755 0.929 . S
C1748 C1747 1.383 . S
C1748 C1749 1.377 . S
C1749 H1733 0.930 . S
C1749 C1748 1.377 . S
C1749 C1750 1.379 . S
C1750 H1734 0.931 . S
C1750 C1744 1.383 . S
C1750 C1749 1.379 . S
H1751 C1745 0.959 . S
H1752 C1745 0.961 . S
H1753 C1745 0.960 . S
H1754 C1746 0.930 . S
H1755 C1747 0.929 . S
H1756 C1764 0.929 . S
H1757 C1766 0.930 . S
H1758 C1768 0.930 . S
H1759 C1771 0.929 . S
H1760 C1774 0.930 . S
H1761 C1776 0.960 . S
H1762 C1776 0.960 . S
H1763 C1776 0.960 . S
C1764 H1756 0.929 . S
C1764 C1765 1.377 . S
C1764 C1766 1.384 . S
C1765 C1764 1.377 . S
C1765 C1771 1.390 . S
C1766 H1757 0.930 . S
C1766 C1764 1.384 . S
C1766 C1767 1.372 . S
C1767 C1766 1.372 . S
C1767 C1768 1.400 . S
C1767 C1772 1.490 . S
C1768 H1758 0.930 . S
C1768 C1767 1.400 . S
C1768 C1771 1.386 . S
H1769 C1785 0.930 . S
H1770 C1786 0.931 . S
C1771 H1759 0.929 . S
C1771 C1765 1.390 . S
C1771 C1768 1.386 . S
C1772 C1767 1.490 . S
C1772 C1774 1.395 . S
C1772 C1775 1.403 . S
H1773 C1779 0.930 . S
C1774 H1760 0.930 . S
C1774 C1772 1.395 . S
C1774 C1777 1.403 1_455 S
C1775 C1772 1.403 . S
C1775 C1776 1.524 . S
C1775 C1779 1.400 1_455 S
C1776 H1761 0.960 . S
C1776 H1762 0.960 . S
C1776 H1763 0.960 . S
C1776 C1775 1.524 . S
C1777 C1774 1.403 1_655 S
C1777 C1778 1.392 . S
C1777 C1781 1.495 . S
C1778 C1777 1.392 . S
C1778 C1779 1.385 . S
C1778 C1780 1.478 . S
C1779 H1773 0.930 . S
C1779 C1775 1.400 1_655 S
C1779 C1778 1.385 . S
C1780 C1778 1.478 . S
C1780 C1782 1.381 . S
C1780 C1786 1.383 . S
C1781 C1777 1.495 . S
C1781 H1787 0.959 . S
C1781 H1788 0.961 . S
C1781 H1789 0.960 . S
C1782 C1780 1.381 . S
C1782 C1783 1.394 . S
C1782 H1790 0.930 . S
C1783 C1782 1.394 . S
C1783 C1784 1.383 . S
C1783 H1791 0.929 . S
C1784 C1783 1.383 . S
C1784 C1785 1.377 . S
C1785 H1769 0.930 . S
C1785 C1784 1.377 . S
C1785 C1786 1.379 . S
C1786 H1770 0.931 . S
C1786 C1780 1.383 . S
C1786 C1785 1.379 . S
H1787 C1781 0.959 . S
H1788 C1781 0.961 . S
H1789 C1781 0.960 . S
H1790 C1782 0.930 . S
H1791 C1783 0.929 . S
H1792 C1800 0.929 . S
H1793 C1802 0.930 . S
H1794 C1804 0.930 . S
H1795 C1807 0.929 . S
H1796 C1810 0.930 . S
H1797 C1812 0.960 . S
H1798 C1812 0.960 . S
H1799 C1812 0.960 . S
C1800 H1792 0.929 . S
C1800 C1801 1.377 . S
C1800 C1802 1.384 . S
C1801 C1800 1.377 . S
C1801 C1807 1.390 . S
C1802 H1793 0.930 . S
C1802 C1800 1.384 . S
C1802 C1803 1.372 . S
C1803 C1802 1.372 . S
C1803 C1804 1.400 . S
C1803 C1808 1.490 . S
C1804 H1794 0.930 . S
C1804 C1803 1.400 . S
C1804 C1807 1.386 . S
H1805 C1821 0.930 . S
H1806 C1822 0.931 . S
C1807 H1795 0.929 . S
C1807 C1801 1.390 . S
C1807 C1804 1.386 . S
C1808 C1803 1.490 . S
C1808 C1810 1.395 1_554 S
C1808 C1811 1.403 . S
H1809 C1815 0.930 . S
C1810 H1796 0.930 . S
C1810 C1808 1.395 1_556 S
C1810 C1813 1.403 . S
C1811 C1808 1.403 . S
C1811 C1812 1.524 . S
C1811 C1815 1.400 . S
C1812 H1797 0.960 . S
C1812 H1798 0.960 . S
C1812 H1799 0.960 . S
C1812 C1811 1.524 . S
C1813 C1810 1.403 . S
C1813 C1814 1.392 . S
C1813 C1817 1.495 . S
C1814 C1813 1.392 . S
C1814 C1815 1.385 1_556 S
C1814 C1816 1.478 . S
C1815 H1809 0.930 . S
C1815 C1811 1.400 . S
C1815 C1814 1.385 1_554 S
C1816 C1814 1.478 . S
C1816 C1818 1.381 . S
C1816 C1822 1.383 . S
C1817 C1813 1.495 . S
C1817 H1823 0.959 . S
C1817 H1824 0.961 . S
C1817 H1825 0.960 . S
C1818 C1816 1.381 . S
C1818 C1819 1.394 . S
C1818 H1826 0.930 . S
C1819 C1818 1.394 . S
C1819 C1820 1.383 . S
C1819 H1827 0.929 . S
C1820 C1819 1.383 . S
C1820 C1821 1.377 . S
C1821 H1805 0.930 . S
C1821 C1820 1.377 . S
C1821 C1822 1.379 . S
C1822 H1806 0.931 . S
C1822 C1816 1.383 . S
C1822 C1821 1.379 . S
H1823 C1817 0.959 . S
H1824 C1817 0.961 . S
H1825 C1817 0.960 . S
H1826 C1818 0.930 . S
H1827 C1819 0.929 . S
H1828 C1836 0.929 . S
H1829 C1838 0.930 . S
H1830 C1840 0.930 . S
H1831 C1843 0.929 . S
H1832 C1846 0.930 . S
H1833 C1848 0.960 . S
H1834 C1848 0.960 . S
H1835 C1848 0.960 . S
C1836 H1828 0.929 . S
C1836 C1837 1.377 . S
C1836 C1838 1.384 . S
C1837 C1836 1.377 . S
C1837 C1843 1.390 . S
C1838 H1829 0.930 . S
C1838 C1836 1.384 . S
C1838 C1839 1.372 . S
C1839 C1838 1.372 . S
C1839 C1840 1.400 . S
C1839 C1844 1.490 . S
C1840 H1830 0.930 . S
C1840 C1839 1.400 . S
C1840 C1843 1.386 . S
H1841 C1857 0.930 . S
H1842 C1858 0.931 . S
C1843 H1831 0.929 . S
C1843 C1837 1.390 . S
C1843 C1840 1.386 . S
C1844 C1839 1.490 . S
C1844 C1846 1.395 . S
C1844 C1847 1.403 . S
H1845 C1851 0.930 . S
C1846 H1832 0.930 . S
C1846 C1844 1.395 . S
C1846 C1849 1.403 . S
C1847 C1844 1.403 . S
C1847 C1848 1.524 . S
C1847 C1851 1.400 . S
C1848 H1833 0.960 . S
C1848 H1834 0.960 . S
C1848 H1835 0.960 . S
C1848 C1847 1.524 . S
C1849 C1846 1.403 . S
C1849 C1850 1.392 . S
C1849 C1853 1.495 . S
C1850 C1849 1.392 . S
C1850 C1851 1.385 . S
C1850 C1852 1.478 . S
C1851 H1845 0.930 . S
C1851 C1847 1.400 . S
C1851 C1850 1.385 . S
C1852 C1850 1.478 . S
C1852 C1854 1.381 . S
C1852 C1858 1.383 . S
C1853 C1849 1.495 . S
C1853 H1859 0.959 . S
C1853 H1860 0.961 . S
C1853 H1861 0.960 . S
C1854 C1852 1.381 . S
C1854 C1855 1.394 . S
C1854 H1862 0.930 . S
C1855 C1854 1.394 . S
C1855 C1856 1.383 . S
C1855 H1863 0.929 . S
C1856 C1855 1.383 . S
C1856 C1857 1.377 . S
C1857 H1841 0.930 . S
C1857 C1856 1.377 . S
C1857 C1858 1.379 . S
C1858 H1842 0.931 . S
C1858 C1852 1.383 . S
C1858 C1857 1.379 . S
H1859 C1853 0.959 . S
H1860 C1853 0.961 . S
H1861 C1853 0.960 . S
H1862 C1854 0.930 . S
H1863 C1855 0.929 . S
H1864 C1872 0.929 . S
H1865 C1874 0.930 . S
H1866 C1876 0.930 . S
H1867 C1879 0.929 . S
H1868 C1882 0.930 . S
H1869 C1884 0.960 . S
H1870 C1884 0.960 . S
H1871 C1884 0.960 . S
C1872 H1864 0.929 . S
C1872 C1873 1.377 . S
C1872 C1874 1.384 . S
C1873 C1872 1.377 . S
C1873 C1879 1.390 . S
C1874 H1865 0.930 . S
C1874 C1872 1.384 . S
C1874 C1875 1.372 . S
C1875 C1874 1.372 . S
C1875 C1876 1.400 . S
C1875 C1880 1.490 . S
C1876 H1866 0.930 . S
C1876 C1875 1.400 . S
C1876 C1879 1.386 . S
H1877 C1893 0.930 . S
H1878 C1894 0.931 . S
C1879 H1867 0.929 . S
C1879 C1873 1.390 . S
C1879 C1876 1.386 . S
C1880 C1875 1.490 . S
C1880 C1882 1.395 . S
C1880 C1883 1.403 . S
H1881 C1887 0.930 . S
C1882 H1868 0.930 . S
C1882 C1880 1.395 . S
C1882 C1885 1.403 . S
C1883 C1880 1.403 . S
C1883 C1884 1.524 . S
C1883 C1887 1.400 . S
C1884 H1869 0.960 . S
C1884 H1870 0.960 . S
C1884 H1871 0.960 . S
C1884 C1883 1.524 . S
C1885 C1882 1.403 . S
C1885 C1886 1.392 . S
C1885 C1889 1.495 . S
C1886 C1885 1.392 . S
C1886 C1887 1.385 . S
C1886 C1888 1.478 . S
C1887 H1881 0.930 . S
C1887 C1883 1.400 . S
C1887 C1886 1.385 . S
C1888 C1886 1.478 . S
C1888 C1890 1.381 . S
C1888 C1894 1.383 . S
C1889 C1885 1.495 . S
C1889 H1895 0.959 . S
C1889 H1896 0.961 . S
C1889 H1897 0.960 . S
C1890 C1888 1.381 . S
C1890 C1891 1.394 . S
C1890 H1898 0.930 . S
C1891 C1890 1.394 . S
C1891 C1892 1.383 . S
C1891 H1899 0.929 . S
C1892 C1891 1.383 . S
C1892 C1893 1.377 . S
C1893 H1877 0.930 . S
C1893 C1892 1.377 . S
C1893 C1894 1.379 . S
C1894 H1878 0.931 . S
C1894 C1888 1.383 . S
C1894 C1893 1.379 . S
H1895 C1889 0.959 . S
H1896 C1889 0.961 . S
H1897 C1889 0.960 . S
H1898 C1890 0.930 . S
H1899 C1891 0.929 . S
H1900 C1908 0.929 . S
H1901 C1910 0.930 . S
H1902 C1912 0.930 . S
H1903 C1915 0.929 . S
H1904 C1918 0.930 . S
H1905 C1920 0.960 . S
H1906 C1920 0.960 . S
H1907 C1920 0.960 . S
C1908 H1900 0.929 . S
C1908 C1909 1.377 . S
C1908 C1910 1.384 . S
C1909 C1908 1.377 . S
C1909 C1915 1.390 . S
C1910 H1901 0.930 . S
C1910 C1908 1.384 . S
C1910 C1911 1.372 . S
C1911 C1910 1.372 . S
C1911 C1912 1.400 . S
C1911 C1916 1.490 . S
C1912 H1902 0.930 . S
C1912 C1911 1.400 . S
C1912 C1915 1.386 . S
H1913 C1929 0.930 . S
H1914 C1930 0.931 . S
C1915 H1903 0.929 . S
C1915 C1909 1.390 . S
C1915 C1912 1.386 . S
C1916 C1911 1.490 . S
C1916 C1918 1.395 . S
C1916 C1919 1.403 . S
H1917 C1923 0.930 . S
C1918 H1904 0.930 . S
C1918 C1916 1.395 . S
C1918 C1921 1.403 . S
C1919 C1916 1.403 . S
C1919 C1920 1.524 . S
C1919 C1923 1.400 . S
C1920 H1905 0.960 . S
C1920 H1906 0.960 . S
C1920 H1907 0.960 . S
C1920 C1919 1.524 . S
C1921 C1918 1.403 . S
C1921 C1922 1.392 . S
C1921 C1925 1.495 . S
C1922 C1921 1.392 . S
C1922 C1923 1.385 . S
C1922 C1924 1.478 . S
C1923 H1917 0.930 . S
C1923 C1919 1.400 . S
C1923 C1922 1.385 . S
C1924 C1922 1.478 . S
C1924 C1926 1.381 . S
C1924 C1930 1.383 . S
C1925 C1921 1.495 . S
C1925 H1931 0.959 . S
C1925 H1932 0.961 . S
C1925 H1933 0.960 . S
C1926 C1924 1.381 . S
C1926 C1927 1.394 . S
C1926 H1934 0.930 . S
C1927 C1926 1.394 . S
C1927 C1928 1.383 . S
C1927 H1935 0.929 . S
C1928 C1927 1.383 . S
C1928 C1929 1.377 . S
C1929 H1913 0.930 . S
C1929 C1928 1.377 . S
C1929 C1930 1.379 . S
C1930 H1914 0.931 . S
C1930 C1924 1.383 . S
C1930 C1929 1.379 . S
H1931 C1925 0.959 . S
H1932 C1925 0.961 . S
H1933 C1925 0.960 . S
H1934 C1926 0.930 . S
H1935 C1927 0.929 . S
H1936 C1944 0.929 . S
H1937 C1946 0.930 . S
H1938 C1948 0.930 . S
H1939 C1951 0.929 . S
H1940 C1954 0.930 . S
H1941 C1956 0.960 . S
H1942 C1956 0.960 . S
H1943 C1956 0.960 . S
C1944 H1936 0.929 . S
C1944 C1945 1.377 . S
C1944 C1946 1.384 . S
C1945 C1944 1.377 . S
C1945 C1951 1.390 . S
C1946 H1937 0.930 . S
C1946 C1944 1.384 . S
C1946 C1947 1.372 . S
C1947 C1946 1.372 . S
C1947 C1948 1.400 . S
C1947 C1952 1.490 . S
C1948 H1938 0.930 . S
C1948 C1947 1.400 . S
C1948 C1951 1.386 . S
H1949 C1965 0.930 . S
H1950 C1966 0.931 . S
C1951 H1939 0.929 . S
C1951 C1945 1.390 . S
C1951 C1948 1.386 . S
C1952 C1947 1.490 . S
C1952 C1954 1.395 . S
C1952 C1955 1.403 . S
H1953 C1959 0.930 . S
C1954 H1940 0.930 . S
C1954 C1952 1.395 . S
C1954 C1957 1.403 1_554 S
C1955 C1952 1.403 . S
C1955 C1956 1.524 . S
C1955 C1959 1.400 1_554 S
C1956 H1941 0.960 . S
C1956 H1942 0.960 . S
C1956 H1943 0.960 . S
C1956 C1955 1.524 . S
C1957 C1954 1.403 1_556 S
C1957 C1958 1.392 . S
C1957 C1961 1.495 . S
C1958 C1957 1.392 . S
C1958 C1959 1.385 . S
C1958 C1960 1.478 . S
C1959 H1953 0.930 . S
C1959 C1955 1.400 1_556 S
C1959 C1958 1.385 . S
C1960 C1958 1.478 . S
C1960 C1962 1.381 . S
C1960 C1966 1.383 . S
C1961 C1957 1.495 . S
C1961 H1967 0.959 . S
C1961 H1968 0.961 . S
C1961 H1969 0.960 . S
C1962 C1960 1.381 . S
C1962 C1963 1.394 . S
C1962 H1970 0.930 . S
C1963 C1962 1.394 . S
C1963 C1964 1.383 . S
C1963 H1971 0.929 . S
C1964 C1963 1.383 . S
C1964 C1965 1.377 . S
C1965 H1949 0.930 . S
C1965 C1964 1.377 . S
C1965 C1966 1.379 . S
C1966 H1950 0.931 . S
C1966 C1960 1.383 . S
C1966 C1965 1.379 . S
H1967 C1961 0.959 . S
H1968 C1961 0.961 . S
H1969 C1961 0.960 . S
H1970 C1962 0.930 . S
H1971 C1963 0.929 . S
H1972 C1980 0.929 . S
H1973 C1982 0.930 . S
H1974 C1984 0.930 . S
H1975 C1987 0.929 . S
H1976 C1990 0.930 . S
H1977 C1992 0.960 . S
H1978 C1992 0.960 . S
H1979 C1992 0.960 . S
C1980 H1972 0.929 . S
C1980 C1981 1.377 . S
C1980 C1982 1.384 . S
C1981 C1980 1.377 . S
C1981 C1987 1.390 . S
C1982 H1973 0.930 . S
C1982 C1980 1.384 . S
C1982 C1983 1.372 . S
C1983 C1982 1.372 . S
C1983 C1984 1.400 . S
C1983 C1988 1.490 . S
C1984 H1974 0.930 . S
C1984 C1983 1.400 . S
C1984 C1987 1.386 . S
H1985 C2001 0.930 . S
H1986 C2002 0.931 . S
C1987 H1975 0.929 . S
C1987 C1981 1.390 . S
C1987 C1984 1.386 . S
C1988 C1983 1.490 . S
C1988 C1990 1.395 . S
C1988 C1991 1.403 . S
H1989 C1995 0.930 . S
C1990 H1976 0.930 . S
C1990 C1988 1.395 . S
C1990 C1993 1.403 . S
C1991 C1988 1.403 . S
C1991 C1992 1.524 . S
C1991 C1995 1.400 . S
C1992 H1977 0.960 . S
C1992 H1978 0.960 . S
C1992 H1979 0.960 . S
C1992 C1991 1.524 . S
C1993 C1990 1.403 . S
C1993 C1994 1.392 . S
C1993 C1997 1.495 . S
C1994 C1993 1.392 . S
C1994 C1995 1.385 . S
C1994 C1996 1.478 . S
C1995 H1989 0.930 . S
C1995 C1991 1.400 . S
C1995 C1994 1.385 . S
C1996 C1994 1.478 . S
C1996 C1998 1.381 . S
C1996 C2002 1.383 . S
C1997 C1993 1.495 . S
C1997 H2003 0.959 . S
C1997 H2004 0.961 . S
C1997 H2005 0.960 . S
C1998 C1996 1.381 . S
C1998 C1999 1.394 . S
C1998 H2006 0.930 . S
C1999 C1998 1.394 . S
C1999 C2000 1.383 . S
C1999 H2007 0.929 . S
C2000 C1999 1.383 . S
C2000 C2001 1.377 . S
C2001 H1985 0.930 . S
C2001 C2000 1.377 . S
C2001 C2002 1.379 . S
C2002 H1986 0.931 . S
C2002 C1996 1.383 . S
C2002 C2001 1.379 . S
H2003 C1997 0.959 . S
H2004 C1997 0.961 . S
H2005 C1997 0.960 . S
H2006 C1998 0.930 . S
H2007 C1999 0.929 . S
H2008 C2016 0.929 . S
H2009 C2018 0.930 . S
H2010 C2020 0.930 . S
H2011 C2023 0.929 . S
H2012 C2026 0.930 . S
H2013 C2028 0.960 . S
H2014 C2028 0.960 . S
H2015 C2028 0.960 . S
C2016 H2008 0.929 . S
C2016 C2017 1.377 . S
C2016 C2018 1.384 . S
C2017 C2016 1.377 . S
C2017 C2023 1.390 . S
C2018 H2009 0.930 . S
C2018 C2016 1.384 . S
C2018 C2019 1.372 . S
C2019 C2018 1.372 . S
C2019 C2020 1.400 . S
C2019 C2024 1.490 . S
C2020 H2010 0.930 . S
C2020 C2019 1.400 . S
C2020 C2023 1.386 . S
H2021 C2037 0.930 . S
H2022 C2038 0.931 . S
C2023 H2011 0.929 . S
C2023 C2017 1.390 . S
C2023 C2020 1.386 . S
C2024 C2019 1.490 . S
C2024 C2026 1.395 . S
C2024 C2027 1.403 . S
H2025 C2031 0.930 . S
C2026 H2012 0.930 . S
C2026 C2024 1.395 . S
C2026 C2029 1.403 . S
C2027 C2024 1.403 . S
C2027 C2028 1.524 . S
C2027 C2031 1.400 . S
C2028 H2013 0.960 . S
C2028 H2014 0.960 . S
C2028 H2015 0.960 . S
C2028 C2027 1.524 . S
C2029 C2026 1.403 . S
C2029 C2030 1.392 . S
C2029 C2033 1.495 . S
C2030 C2029 1.392 . S
C2030 C2031 1.385 . S
C2030 C2032 1.478 . S
C2031 H2025 0.930 . S
C2031 C2027 1.400 . S
C2031 C2030 1.385 . S
C2032 C2030 1.478 . S
C2032 C2034 1.381 . S
C2032 C2038 1.383 . S
C2033 C2029 1.495 . S
C2033 H2039 0.959 . S
C2033 H2040 0.961 . S
C2033 H2041 0.960 . S
C2034 C2032 1.381 . S
C2034 C2035 1.394 . S
C2034 H2042 0.930 . S
C2035 C2034 1.394 . S
C2035 C2036 1.383 . S
C2035 H2043 0.929 . S
C2036 C2035 1.383 . S
C2036 C2037 1.377 . S
C2037 H2021 0.930 . S
C2037 C2036 1.377 . S
C2037 C2038 1.379 . S
C2038 H2022 0.931 . S
C2038 C2032 1.383 . S
C2038 C2037 1.379 . S
H2039 C2033 0.959 . S
H2040 C2033 0.961 . S
H2041 C2033 0.960 . S
H2042 C2034 0.930 . S
H2043 C2035 0.929 . S
H2044 C2052 0.929 . S
H2045 C2054 0.930 . S
H2046 C2056 0.930 . S
H2047 C2059 0.929 . S
H2048 C2062 0.930 . S
H2049 C2064 0.960 . S
H2050 C2064 0.960 . S
H2051 C2064 0.960 . S
C2052 H2044 0.929 . S
C2052 C2053 1.377 . S
C2052 C2054 1.384 . S
C2053 C2052 1.377 . S
C2053 C2059 1.390 . S
C2054 H2045 0.930 . S
C2054 C2052 1.384 . S
C2054 C2055 1.372 . S
C2055 C2054 1.372 . S
C2055 C2056 1.400 . S
C2055 C2060 1.490 . S
C2056 H2046 0.930 . S
C2056 C2055 1.400 . S
C2056 C2059 1.386 . S
H2057 C2073 0.930 . S
H2058 C2074 0.931 . S
C2059 H2047 0.929 . S
C2059 C2053 1.390 . S
C2059 C2056 1.386 . S
C2060 C2055 1.490 . S
C2060 C2062 1.395 . S
C2060 C2063 1.403 . S
H2061 C2067 0.930 . S
C2062 H2048 0.930 . S
C2062 C2060 1.395 . S
C2062 C2065 1.403 . S
C2063 C2060 1.403 . S
C2063 C2064 1.524 . S
C2063 C2067 1.400 . S
C2064 H2049 0.960 . S
C2064 H2050 0.960 . S
C2064 H2051 0.960 . S
C2064 C2063 1.524 . S
C2065 C2062 1.403 . S
C2065 C2066 1.392 . S
C2065 C2069 1.495 . S
C2066 C2065 1.392 . S
C2066 C2067 1.385 . S
C2066 C2068 1.478 . S
C2067 H2061 0.930 . S
C2067 C2063 1.400 . S
C2067 C2066 1.385 . S
C2068 C2066 1.478 . S
C2068 C2070 1.381 . S
C2068 C2074 1.383 . S
C2069 C2065 1.495 . S
C2069 H2075 0.959 . S
C2069 H2076 0.961 . S
C2069 H2077 0.960 . S
C2070 C2068 1.381 . S
C2070 C2071 1.394 . S
C2070 H2078 0.930 . S
C2071 C2070 1.394 . S
C2071 C2072 1.383 . S
C2071 H2079 0.929 . S
C2072 C2071 1.383 . S
C2072 C2073 1.377 . S
C2073 H2057 0.930 . S
C2073 C2072 1.377 . S
C2073 C2074 1.379 . S
C2074 H2058 0.931 . S
C2074 C2068 1.383 . S
C2074 C2073 1.379 . S
H2075 C2069 0.959 . S
H2076 C2069 0.961 . S
H2077 C2069 0.960 . S
H2078 C2070 0.930 . S
H2079 C2071 0.929 . S
H2080 C2088 0.929 . S
H2081 C2090 0.930 . S
H2082 C2092 0.930 . S
H2083 C2095 0.929 . S
H2084 C2098 0.929 1_565 S
H2085 C2100 0.960 . S
H2086 C2100 0.960 . S
H2087 C2100 0.960 . S
C2088 H2080 0.929 . S
C2088 C2089 1.377 . S
C2088 C2090 1.384 . S
C2089 C2088 1.377 . S
C2089 C2095 1.390 . S
C2090 H2081 0.930 . S
C2090 C2088 1.384 . S
C2090 C2091 1.372 . S
C2091 C2090 1.372 . S
C2091 C2092 1.400 . S
C2091 C2096 1.490 . S
C2092 H2082 0.930 . S
C2092 C2091 1.400 . S
C2092 C2095 1.386 . S
H2093 C2109 0.930 . S
H2094 C2110 0.931 . S
C2095 H2083 0.929 . S
C2095 C2089 1.390 . S
C2095 C2092 1.386 . S
C2096 C2091 1.490 . S
C2096 C2098 1.365 1_565 S
C2096 C2099 1.403 . S
H2097 C2103 0.930 . S
C2098 H2084 0.929 1_545 S
C2098 C2096 1.365 1_545 S
C2098 C2101 1.435 . S
C2099 C2096 1.403 . S
C2099 C2100 1.524 . S
C2099 C2103 1.400 1_565 S
C2100 H2085 0.960 . S
C2100 H2086 0.960 . S
C2100 H2087 0.960 . S
C2100 C2099 1.524 . S
C2101 C2098 1.435 . S
C2101 C2102 1.392 . S
C2101 C2105 1.495 . S
C2102 C2101 1.392 . S
C2102 C2103 1.385 . S
C2102 C2104 1.478 . S
C2103 H2097 0.930 . S
C2103 C2099 1.400 1_545 S
C2103 C2102 1.385 . S
C2104 C2102 1.478 . S
C2104 C2106 1.381 . S
C2104 C2110 1.383 . S
C2105 C2101 1.495 . S
C2105 H2111 0.959 . S
C2105 H2112 0.961 . S
C2105 H2113 0.960 . S
C2106 C2104 1.381 . S
C2106 C2107 1.394 . S
C2106 H2114 0.930 . S
C2107 C2106 1.394 . S
C2107 C2108 1.383 . S
C2107 H2115 0.929 . S
C2108 C2107 1.383 . S
C2108 C2109 1.377 . S
C2109 H2093 0.930 . S
C2109 C2108 1.377 . S
C2109 C2110 1.379 . S
C2110 H2094 0.931 . S
C2110 C2104 1.383 . S
C2110 C2109 1.379 . S
H2111 C2105 0.959 . S
H2112 C2105 0.961 . S
H2113 C2105 0.960 . S
H2114 C2106 0.930 . S
H2115 C2107 0.929 . S
H2116 C2124 0.929 . S
H2117 C2126 0.930 . S
H2118 C2128 0.930 . S
H2119 C2131 0.929 . S
H2120 C2134 0.930 . S
H2121 C2136 0.960 . S
H2122 C2136 0.960 . S
H2123 C2136 0.960 . S
C2124 H2116 0.929 . S
C2124 C2125 1.377 . S
C2124 C2126 1.384 . S
C2125 C2124 1.377 . S
C2125 C2131 1.390 . S
C2126 H2117 0.930 . S
C2126 C2124 1.384 . S
C2126 C2127 1.372 . S
C2127 C2126 1.372 . S
C2127 C2128 1.400 . S
C2127 C2132 1.490 . S
C2128 H2118 0.930 . S
C2128 C2127 1.400 . S
C2128 C2131 1.386 . S
H2129 C2145 0.930 . S
H2130 C2146 0.931 . S
C2131 H2119 0.929 . S
C2131 C2125 1.390 . S
C2131 C2128 1.386 . S
C2132 C2127 1.490 . S
C2132 C2134 1.395 . S
C2132 C2135 1.403 . S
H2133 C2139 0.930 . S
C2134 H2120 0.930 . S
C2134 C2132 1.395 . S
C2134 C2137 1.403 . S
C2135 C2132 1.403 . S
C2135 C2136 1.524 . S
C2135 C2139 1.400 . S
C2136 H2121 0.960 . S
C2136 H2122 0.960 . S
C2136 H2123 0.960 . S
C2136 C2135 1.524 . S
C2137 C2134 1.403 . S
C2137 C2138 1.392 . S
C2137 C2141 1.495 . S
C2138 C2137 1.392 . S
C2138 C2139 1.385 . S
C2138 C2140 1.478 . S
C2139 H2133 0.930 . S
C2139 C2135 1.400 . S
C2139 C2138 1.385 . S
C2140 C2138 1.478 . S
C2140 C2142 1.381 . S
C2140 C2146 1.383 . S
C2141 C2137 1.495 . S
C2141 H2147 0.959 . S
C2141 H2148 0.961 . S
C2141 H2149 0.960 . S
C2142 C2140 1.381 . S
C2142 C2143 1.394 . S
C2142 H2150 0.930 . S
C2143 C2142 1.394 . S
C2143 C2144 1.383 . S
C2143 H2151 0.929 . S
C2144 C2143 1.383 . S
C2144 C2145 1.377 . S
C2145 H2129 0.930 . S
C2145 C2144 1.377 . S
C2145 C2146 1.379 . S
C2146 H2130 0.931 . S
C2146 C2140 1.383 . S
C2146 C2145 1.379 . S
H2147 C2141 0.959 . S
H2148 C2141 0.961 . S
H2149 C2141 0.960 . S
H2150 C2142 0.930 . S
H2151 C2143 0.929 . S
H2152 C2160 0.929 . S
H2153 C2162 0.930 . S
H2154 C2164 0.930 . S
H2155 C2167 0.929 . S
H2156 C2170 0.930 . S
H2157 C2172 0.960 . S
H2158 C2172 0.960 . S
H2159 C2172 0.960 . S
C2160 H2152 0.929 . S
C2160 C2161 1.377 . S
C2160 C2162 1.384 . S
C2161 C2160 1.377 . S
C2161 C2167 1.390 . S
C2162 H2153 0.930 . S
C2162 C2160 1.384 . S
C2162 C2163 1.372 . S
C2163 C2162 1.372 . S
C2163 C2164 1.400 . S
C2163 C2168 1.490 . S
C2164 H2154 0.930 . S
C2164 C2163 1.400 . S
C2164 C2167 1.386 . S
H2165 C2181 0.930 . S
H2166 C2182 0.931 . S
C2167 H2155 0.929 . S
C2167 C2161 1.390 . S
C2167 C2164 1.386 . S
C2168 C2163 1.490 . S
C2168 C2170 1.395 1_554 S
C2168 C2171 1.403 1_565 S
H2169 C2175 0.930 . S
C2170 H2156 0.930 . S
C2170 C2168 1.395 1_556 S
C2170 C2173 1.403 . S
C2171 C2168 1.403 1_545 S
C2171 C2172 1.524 . S
C2171 C2175 1.400 . S
C2172 H2157 0.960 . S
C2172 H2158 0.960 . S
C2172 H2159 0.960 . S
C2172 C2171 1.524 . S
C2173 C2170 1.403 . S
C2173 C2174 1.392 1_565 S
C2173 C2177 1.495 . S
C2174 C2173 1.392 1_545 S
C2174 C2175 1.385 1_556 S
C2174 C2176 1.478 . S
C2175 H2169 0.930 . S
C2175 C2171 1.400 . S
C2175 C2174 1.385 1_554 S
C2176 C2174 1.478 . S
C2176 C2178 1.381 . S
C2176 C2182 1.383 . S
C2177 C2173 1.495 . S
C2177 H2183 0.959 . S
C2177 H2184 0.961 . S
C2177 H2185 0.960 . S
C2178 C2176 1.381 . S
C2178 C2179 1.394 . S
C2178 H2186 0.930 . S
C2179 C2178 1.394 . S
C2179 C2180 1.383 . S
C2179 H2187 0.929 . S
C2180 C2179 1.383 . S
C2180 C2181 1.377 . S
C2181 H2165 0.930 . S
C2181 C2180 1.377 . S
C2181 C2182 1.379 . S
C2182 H2166 0.931 . S
C2182 C2176 1.383 . S
C2182 C2181 1.379 . S
H2183 C2177 0.959 . S
H2184 C2177 0.961 . S
H2185 C2177 0.960 . S
H2186 C2178 0.930 . S
H2187 C2179 0.929 . S
H2188 C2196 0.929 . S
H2189 C2198 0.930 . S
H2190 C2200 0.930 . S
H2191 C2203 0.929 . S
H2192 C2206 0.930 . S
H2193 C2208 0.960 . S
H2194 C2208 0.960 . S
H2195 C2208 0.960 . S
C2196 H2188 0.929 . S
C2196 C2197 1.377 . S
C2196 C2198 1.384 . S
C2197 C2196 1.377 . S
C2197 C2203 1.390 . S
C2198 H2189 0.930 . S
C2198 C2196 1.384 . S
C2198 C2199 1.372 . S
C2199 C2198 1.372 . S
C2199 C2200 1.400 . S
C2199 C2204 1.490 . S
C2200 H2190 0.930 . S
C2200 C2199 1.400 . S
C2200 C2203 1.386 . S
H2201 C2217 0.930 . S
H2202 C2218 0.931 . S
C2203 H2191 0.929 . S
C2203 C2197 1.390 . S
C2203 C2200 1.386 . S
C2204 C2199 1.490 . S
C2204 C2206 1.395 . S
C2204 C2207 1.403 . S
H2205 C2211 0.930 . S
C2206 H2192 0.930 . S
C2206 C2204 1.395 . S
C2206 C2209 1.403 . S
C2207 C2204 1.403 . S
C2207 C2208 1.524 . S
C2207 C2211 1.400 . S
C2208 H2193 0.960 . S
C2208 H2194 0.960 . S
C2208 H2195 0.960 . S
C2208 C2207 1.524 . S
C2209 C2206 1.403 . S
C2209 C2210 1.392 . S
C2209 C2213 1.495 . S
C2210 C2209 1.392 . S
C2210 C2211 1.385 . S
C2210 C2212 1.478 . S
C2211 H2205 0.930 . S
C2211 C2207 1.400 . S
C2211 C2210 1.385 . S
C2212 C2210 1.478 . S
C2212 C2214 1.381 . S
C2212 C2218 1.383 . S
C2213 C2209 1.495 . S
C2213 H2219 0.959 . S
C2213 H2220 0.961 . S
C2213 H2221 0.960 . S
C2214 C2212 1.381 . S
C2214 C2215 1.394 . S
C2214 H2222 0.930 . S
C2215 C2214 1.394 . S
C2215 C2216 1.383 . S
C2215 H2223 0.929 . S
C2216 C2215 1.383 . S
C2216 C2217 1.377 . S
C2217 H2201 0.930 . S
C2217 C2216 1.377 . S
C2217 C2218 1.379 . S
C2218 H2202 0.931 . S
C2218 C2212 1.383 . S
C2218 C2217 1.379 . S
H2219 C2213 0.959 . S
H2220 C2213 0.961 . S
H2221 C2213 0.960 . S
H2222 C2214 0.930 . S
H2223 C2215 0.929 . S
H2224 C2232 0.929 . S
H2225 C2234 0.930 . S
H2226 C2236 0.930 . S
H2227 C2239 0.929 . S
H2228 C2242 0.930 . S
H2229 C2244 0.960 . S
H2230 C2244 0.960 . S
H2231 C2244 0.960 . S
C2232 H2224 0.929 . S
C2232 C2233 1.377 . S
C2232 C2234 1.384 . S
C2233 C2232 1.377 . S
C2233 C2239 1.390 . S
C2234 H2225 0.930 . S
C2234 C2232 1.384 . S
C2234 C2235 1.372 . S
C2235 C2234 1.372 . S
C2235 C2236 1.400 . S
C2235 C2240 1.490 . S
C2236 H2226 0.930 . S
C2236 C2235 1.400 . S
C2236 C2239 1.386 . S
H2237 C2253 0.930 . S
H2238 C2254 0.931 . S
C2239 H2227 0.929 . S
C2239 C2233 1.390 . S
C2239 C2236 1.386 . S
C2240 C2235 1.490 . S
C2240 C2242 1.395 . S
C2240 C2243 1.403 . S
H2241 C2247 0.930 . S
C2242 H2228 0.930 . S
C2242 C2240 1.395 . S
C2242 C2245 1.403 1_565 S
C2243 C2240 1.403 . S
C2243 C2244 1.524 . S
C2243 C2247 1.400 1_565 S
C2244 H2229 0.960 . S
C2244 H2230 0.960 . S
C2244 H2231 0.960 . S
C2244 C2243 1.524 . S
C2245 C2242 1.403 1_545 S
C2245 C2246 1.392 . S
C2245 C2249 1.495 . S
C2246 C2245 1.392 . S
C2246 C2247 1.385 . S
C2246 C2248 1.478 . S
C2247 H2241 0.930 . S
C2247 C2243 1.400 1_545 S
C2247 C2246 1.385 . S
C2248 C2246 1.478 . S
C2248 C2250 1.381 . S
C2248 C2254 1.383 . S
C2249 C2245 1.495 . S
C2249 H2255 0.959 . S
C2249 H2256 0.961 . S
C2249 H2257 0.960 . S
C2250 C2248 1.381 . S
C2250 C2251 1.394 . S
C2250 H2258 0.930 . S
C2251 C2250 1.394 . S
C2251 C2252 1.383 . S
C2251 H2259 0.929 . S
C2252 C2251 1.383 . S
C2252 C2253 1.377 . S
C2253 H2237 0.930 . S
C2253 C2252 1.377 . S
C2253 C2254 1.379 . S
C2254 H2238 0.931 . S
C2254 C2248 1.383 . S
C2254 C2253 1.379 . S
H2255 C2249 0.959 . S
H2256 C2249 0.961 . S
H2257 C2249 0.960 . S
H2258 C2250 0.930 . S
H2259 C2251 0.929 . S
H2260 C2268 0.929 . S
H2261 C2270 0.930 . S
H2262 C2272 0.930 . S
H2263 C2275 0.929 . S
H2264 C2278 0.930 . S
H2265 C2280 0.960 . S
H2266 C2280 0.960 . S
H2267 C2280 0.960 . S
C2268 H2260 0.929 . S
C2268 C2269 1.377 . S
C2268 C2270 1.384 . S
C2269 C2268 1.377 . S
C2269 C2275 1.390 . S
C2270 H2261 0.930 . S
C2270 C2268 1.384 . S
C2270 C2271 1.372 . S
C2271 C2270 1.372 . S
C2271 C2272 1.400 . S
C2271 C2276 1.490 . S
C2272 H2262 0.930 . S
C2272 C2271 1.400 . S
C2272 C2275 1.386 . S
H2273 C2289 0.930 . S
H2274 C2290 0.931 . S
C2275 H2263 0.929 . S
C2275 C2269 1.390 . S
C2275 C2272 1.386 . S
C2276 C2271 1.490 . S
C2276 C2278 1.395 . S
C2276 C2279 1.403 . S
H2277 C2283 0.930 . S
C2278 H2264 0.930 . S
C2278 C2276 1.395 . S
C2278 C2281 1.403 . S
C2279 C2276 1.403 . S
C2279 C2280 1.524 . S
C2279 C2283 1.400 . S
C2280 H2265 0.960 . S
C2280 H2266 0.960 . S
C2280 H2267 0.960 . S
C2280 C2279 1.524 . S
C2281 C2278 1.403 . S
C2281 C2282 1.392 . S
C2281 C2285 1.495 . S
C2282 C2281 1.392 . S
C2282 C2283 1.385 . S
C2282 C2284 1.478 . S
C2283 H2277 0.930 . S
C2283 C2279 1.400 . S
C2283 C2282 1.385 . S
C2284 C2282 1.478 . S
C2284 C2286 1.381 . S
C2284 C2290 1.383 . S
C2285 C2281 1.495 . S
C2285 H2291 0.959 . S
C2285 H2292 0.961 . S
C2285 H2293 0.960 . S
C2286 C2284 1.381 . S
C2286 C2287 1.394 . S
C2286 H2294 0.930 . S
C2287 C2286 1.394 . S
C2287 C2288 1.383 . S
C2287 H2295 0.929 . S
C2288 C2287 1.383 . S
C2288 C2289 1.377 . S
C2289 H2273 0.930 . S
C2289 C2288 1.377 . S
C2289 C2290 1.379 . S
C2290 H2274 0.931 . S
C2290 C2284 1.383 . S
C2290 C2289 1.379 . S
H2291 C2285 0.959 . S
H2292 C2285 0.961 . S
H2293 C2285 0.960 . S
H2294 C2286 0.930 . S
H2295 C2287 0.929 . S
H2296 C2304 0.929 . S
H2297 C2306 0.930 . S
H2298 C2308 0.930 . S
H2299 C2311 0.929 . S
H2300 C2314 0.930 . S
H2301 C2316 0.960 . S
H2302 C2316 0.960 . S
H2303 C2316 0.960 . S
C2304 H2296 0.929 . S
C2304 C2305 1.377 . S
C2304 C2306 1.384 . S
C2305 C2304 1.377 . S
C2305 C2311 1.390 . S
C2306 H2297 0.930 . S
C2306 C2304 1.384 . S
C2306 C2307 1.372 . S
C2307 C2306 1.372 . S
C2307 C2308 1.400 . S
C2307 C2312 1.490 . S
C2308 H2298 0.930 . S
C2308 C2307 1.400 . S
C2308 C2311 1.386 . S
H2309 C2325 0.930 . S
H2310 C2326 0.931 . S
C2311 H2299 0.929 . S
C2311 C2305 1.390 . S
C2311 C2308 1.386 . S
C2312 C2307 1.490 . S
C2312 C2314 1.395 1_545 S
C2312 C2315 1.403 1_556 S
H2313 C2319 0.928 1_545 S
C2314 H2300 0.930 . S
C2314 C2312 1.395 1_565 S
C2314 C2317 1.403 . S
C2315 C2312 1.403 1_554 S
C2315 C2316 1.524 . S
C2315 C2319 1.380 1_545 S
C2316 H2301 0.960 . S
C2316 H2302 0.960 . S
C2316 H2303 0.960 . S
C2316 C2315 1.524 . S
C2317 C2314 1.403 . S
C2317 C2318 1.392 1_556 S
C2317 C2321 1.495 . S
C2318 C2317 1.392 1_554 S
C2318 C2319 1.407 . S
C2318 C2320 1.478 . S
C2319 H2313 0.928 1_565 S
C2319 C2315 1.380 1_565 S
C2319 C2318 1.407 . S
C2320 C2318 1.478 . S
C2320 C2322 1.381 . S
C2320 C2326 1.383 . S
C2321 C2317 1.495 . S
C2321 H2327 0.959 . S
C2321 H2328 0.961 . S
C2321 H2329 0.960 . S
C2322 C2320 1.381 . S
C2322 C2323 1.394 . S
C2322 H2330 0.930 . S
C2323 C2322 1.394 . S
C2323 C2324 1.383 . S
C2323 H2331 0.929 . S
C2324 C2323 1.383 . S
C2324 C2325 1.377 . S
C2325 H2309 0.930 . S
C2325 C2324 1.377 . S
C2325 C2326 1.379 . S
C2326 H2310 0.931 . S
C2326 C2320 1.383 . S
C2326 C2325 1.379 . S
H2327 C2321 0.959 . S
H2328 C2321 0.961 . S
H2329 C2321 0.960 . S
H2330 C2322 0.930 . S
H2331 C2323 0.929 . S
H2332 C2340 0.929 . S
H2333 C2342 0.930 . S
H2334 C2344 0.930 . S
H2335 C2347 0.929 . S
H2336 C2350 0.930 . S
H2337 C2352 0.960 . S
H2338 C2352 0.960 . S
H2339 C2352 0.960 . S
C2340 H2332 0.929 . S
C2340 C2341 1.377 . S
C2340 C2342 1.384 . S
C2341 C2340 1.377 . S
C2341 C2347 1.390 . S
C2342 H2333 0.930 . S
C2342 C2340 1.384 . S
C2342 C2343 1.372 . S
C2343 C2342 1.372 . S
C2343 C2344 1.400 . S
C2343 C2348 1.490 . S
C2344 H2334 0.930 . S
C2344 C2343 1.400 . S
C2344 C2347 1.386 . S
H2345 C2361 0.930 . S
H2346 C2362 0.931 . S
C2347 H2335 0.929 . S
C2347 C2341 1.390 . S
C2347 C2344 1.386 . S
C2348 C2343 1.490 . S
C2348 C2350 1.395 . S
C2348 C2351 1.403 . S
H2349 C2355 0.930 . S
C2350 H2336 0.930 . S
C2350 C2348 1.395 . S
C2350 C2353 1.403 . S
C2351 C2348 1.403 . S
C2351 C2352 1.524 . S
C2351 C2355 1.400 . S
C2352 H2337 0.960 . S
C2352 H2338 0.960 . S
C2352 H2339 0.960 . S
C2352 C2351 1.524 . S
C2353 C2350 1.403 . S
C2353 C2354 1.392 . S
C2353 C2357 1.495 . S
C2354 C2353 1.392 . S
C2354 C2355 1.385 . S
C2354 C2356 1.478 . S
C2355 H2349 0.930 . S
C2355 C2351 1.400 . S
C2355 C2354 1.385 . S
C2356 C2354 1.478 . S
C2356 C2358 1.381 . S
C2356 C2362 1.383 . S
C2357 C2353 1.495 . S
C2357 H2363 0.959 . S
C2357 H2364 0.961 . S
C2357 H2365 0.960 . S
C2358 C2356 1.381 . S
C2358 C2359 1.394 . S
C2358 H2366 0.930 . S
C2359 C2358 1.394 . S
C2359 C2360 1.383 . S
C2359 H2367 0.929 . S
C2360 C2359 1.383 . S
C2360 C2361 1.377 . S
C2361 H2345 0.930 . S
C2361 C2360 1.377 . S
C2361 C2362 1.379 . S
C2362 H2346 0.931 . S
C2362 C2356 1.383 . S
C2362 C2361 1.379 . S
H2363 C2357 0.959 . S
H2364 C2357 0.961 . S
H2365 C2357 0.960 . S
H2366 C2358 0.930 . S
H2367 C2359 0.929 . S
C649 C29 1.623 . S
C668 C8 1.638 . S
C685 C48 1.614 1_556 S
C704 C69 1.595 . S
C721 C109 1.615 . S
C740 C88 1.619 1_554 S
C757 C128 1.620 . S
C776 C149 1.640 . S
C793 C189 1.615 . S
C812 C168 1.591 . S
C829 C229 1.615 . S
C848 C208 1.621 . S
C865 C269 1.624 . S
C884 C248 1.629 1_556 S
C901 C288 1.614 1_554 S
C920 C309 1.596 . S
C937 C328 1.623 . S
C956 C349 1.616 . S
C973 C368 1.614 . S
C992 C389 1.613 1_554 S
C1009 C429 1.616 1_556 S
C1028 C408 1.629 . S
C1045 C469 1.623 . S
C1064 C448 1.636 . S
C1081 C488 1.615 . S
C1100 C509 1.625 . S
C1117 C549 1.615 . S
C1136 C528 1.591 . S
C1153 C568 1.621 . S
C1172 C589 1.603 1_554 S
C1189 C629 1.614 1_556 S
C1208 C608 1.594 . S
C1225 C31 2.083 . S
C1244 C452 2.081 . S
C1261 C57 1.498 . S
C1280 C602 1.479 . S
C1297 C111 2.079 . S
C1316 C372 2.094 . S
C1333 C137 1.498 . S
C1352 C522 1.478 . S
C1369 C191 2.084 . S
C1388 C532 2.066 . S
C1405 C442 1.498 . S
C1424 C217 1.476 . S
C1441 C271 2.084 . S
C1460 C612 2.069 . S
C1477 C297 1.487 . S
C1496 C362 1.496 . S
C1513 C151 2.083 . S
C1532 C332 2.082 . S
C1549 C71 2.084 . S
C1568 C412 2.063 . S
C1585 C492 2.079 . S
C1604 C231 2.094 . S
C1621 C311 2.077 . S
C1640 C572 2.091 . S
C1657 C322 1.490 . S
C1676 C177 1.515 . S
C1693 C257 1.498 . S
C1712 C402 1.469 . S
C1729 C97 1.489 . S
C1748 C562 1.515 . S
C1765 C17 1.494 . S
C1784 C482 1.464 . S
C1801 C12 1.965 . S
C1820 C172 1.969 . S
C1837 C42 1.523 . S
C1856 C202 1.531 . S
C1873 C92 1.966 . S
C1892 C252 1.968 . S
C1909 C122 1.523 . S
C1928 C282 1.531 . S
C1945 C511 1.967 . S
C1964 C351 1.964 . S
C1981 C537 1.519 . S
C2000 C377 1.504 . S
C2017 C431 1.965 . S
C2036 C591 1.954 . S
C2053 C617 1.519 . S
C2072 C457 1.530 . S
C2089 C52 1.966 . S
C2108 C292 1.955 . S
C2125 C162 1.517 . S
C2144 C82 1.507 . S
C2161 C212 1.966 . S
C2180 C132 1.969 . S
C2197 C2 1.523 . S
C2216 C242 1.532 . S
C2233 C631 1.966 . S
C2252 C391 1.962 . S
C2269 C497 1.516 . S
C2288 C417 1.525 . S
C2305 C551 1.965 . S
C2324 C471 1.955 . S
C2341 C577 1.520 . S
C2360 C337 1.529 . S
