# Generated by pormake.
# Topology lcs, (4)-cn, num edge types: 1
# Building blocks:
#     Node 0, Type 0, BuildingBlock: QUQFOY_clean_sbu_3, # of connection points: 4
#     Node 1, Type 0, BuildingBlock: QUQFOY_clean_sbu_3, # of connection points: 4
#     Node 2, Type 0, BuildingBlock: QUQFOY_clean_sbu_3, # of connection points: 4
#     Node 3, Type 0, BuildingBlock: QUQFOY_clean_sbu_3, # of connection points: 4
#     Node 4, Type 0, BuildingBlock: QUQFOY_clean_sbu_3, # of connection points: 4
#     Node 5, Type 0, BuildingBlock: QUQFOY_clean_sbu_3, # of connection points: 4
#     Node 6, Type 0, BuildingBlock: QUQFOY_clean_sbu_3, # of connection points: 4
#     Node 7, Type 0, BuildingBlock: QUQFOY_clean_sbu_3, # of connection points: 4
#     Node 8, Type 0, BuildingBlock: QUQFOY_clean_sbu_3, # of connection points: 4
#     Node 9, Type 0, BuildingBlock: QUQFOY_clean_sbu_3, # of connection points: 4
#     Node 10, Type 0, BuildingBlock: QUQFOY_clean_sbu_3, # of connection points: 4
#     Node 11, Type 0, BuildingBlock: QUQFOY_clean_sbu_3, # of connection points: 4
#     Node 12, Type 0, BuildingBlock: QUQFOY_clean_sbu_3, # of connection points: 4
#     Node 13, Type 0, BuildingBlock: QUQFOY_clean_sbu_3, # of connection points: 4
#     Node 14, Type 0, BuildingBlock: QUQFOY_clean_sbu_3, # of connection points: 4
#     Node 15, Type 0, BuildingBlock: QUQFOY_clean_sbu_3, # of connection points: 4
#     Node 16, Type 0, BuildingBlock: QUQFOY_clean_sbu_3, # of connection points: 4
#     Node 17, Type 0, BuildingBlock: QUQFOY_clean_sbu_3, # of connection points: 4
#     Node 18, Type 0, BuildingBlock: QUQFOY_clean_sbu_3, # of connection points: 4
#     Node 19, Type 0, BuildingBlock: QUQFOY_clean_sbu_3, # of connection points: 4
#     Node 20, Type 0, BuildingBlock: QUQFOY_clean_sbu_3, # of connection points: 4
#     Node 21, Type 0, BuildingBlock: QUQFOY_clean_sbu_3, # of connection points: 4
#     Node 22, Type 0, BuildingBlock: QUQFOY_clean_sbu_3, # of connection points: 4
#     Node 23, Type 0, BuildingBlock: QUQFOY_clean_sbu_3, # of connection points: 4
#     Edge 24, Type (0, 0), BuildingBlock: ZUJKAS_clean_linker_0, # of connection points: 2
#     Edge 25, Type (0, 0), BuildingBlock: ZUJKAS_clean_linker_0, # of connection points: 2
#     Edge 26, Type (0, 0), BuildingBlock: ZUJKAS_clean_linker_0, # of connection points: 2
#     Edge 27, Type (0, 0), BuildingBlock: ZUJKAS_clean_linker_0, # of connection points: 2
#     Edge 28, Type (0, 0), BuildingBlock: ZUJKAS_clean_linker_0, # of connection points: 2
#     Edge 29, Type (0, 0), BuildingBlock: ZUJKAS_clean_linker_0, # of connection points: 2
#     Edge 30, Type (0, 0), BuildingBlock: ZUJKAS_clean_linker_0, # of connection points: 2
#     Edge 31, Type (0, 0), BuildingBlock: ZUJKAS_clean_linker_0, # of connection points: 2
#     Edge 32, Type (0, 0), BuildingBlock: ZUJKAS_clean_linker_0, # of connection points: 2
#     Edge 33, Type (0, 0), BuildingBlock: ZUJKAS_clean_linker_0, # of connection points: 2
#     Edge 34, Type (0, 0), BuildingBlock: ZUJKAS_clean_linker_0, # of connection points: 2
#     Edge 35, Type (0, 0), BuildingBlock: ZUJKAS_clean_linker_0, # of connection points: 2
#     Edge 36, Type (0, 0), BuildingBlock: ZUJKAS_clean_linker_0, # of connection points: 2
#     Edge 37, Type (0, 0), BuildingBlock: ZUJKAS_clean_linker_0, # of connection points: 2
#     Edge 38, Type (0, 0), BuildingBlock: ZUJKAS_clean_linker_0, # of connection points: 2
#     Edge 39, Type (0, 0), BuildingBlock: ZUJKAS_clean_linker_0, # of connection points: 2
#     Edge 40, Type (0, 0), BuildingBlock: ZUJKAS_clean_linker_0, # of connection points: 2
#     Edge 41, Type (0, 0), BuildingBlock: ZUJKAS_clean_linker_0, # of connection points: 2
#     Edge 42, Type (0, 0), BuildingBlock: ZUJKAS_clean_linker_0, # of connection points: 2
#     Edge 43, Type (0, 0), BuildingBlock: ZUJKAS_clean_linker_0, # of connection points: 2
#     Edge 44, Type (0, 0), BuildingBlock: ZUJKAS_clean_linker_0, # of connection points: 2
#     Edge 45, Type (0, 0), BuildingBlock: ZUJKAS_clean_linker_0, # of connection points: 2
#     Edge 46, Type (0, 0), BuildingBlock: ZUJKAS_clean_linker_0, # of connection points: 2
#     Edge 47, Type (0, 0), BuildingBlock: ZUJKAS_clean_linker_0, # of connection points: 2
#     Edge 48, Type (0, 0), BuildingBlock: ZUJKAS_clean_linker_0, # of connection points: 2
#     Edge 49, Type (0, 0), BuildingBlock: ZUJKAS_clean_linker_0, # of connection points: 2
#     Edge 50, Type (0, 0), BuildingBlock: ZUJKAS_clean_linker_0, # of connection points: 2
#     Edge 51, Type (0, 0), BuildingBlock: ZUJKAS_clean_linker_0, # of connection points: 2
#     Edge 52, Type (0, 0), BuildingBlock: ZUJKAS_clean_linker_0, # of connection points: 2
#     Edge 53, Type (0, 0), BuildingBlock: ZUJKAS_clean_linker_0, # of connection points: 2
#     Edge 54, Type (0, 0), BuildingBlock: ZUJKAS_clean_linker_0, # of connection points: 2
#     Edge 55, Type (0, 0), BuildingBlock: ZUJKAS_clean_linker_0, # of connection points: 2
#     Edge 56, Type (0, 0), BuildingBlock: ZUJKAS_clean_linker_0, # of connection points: 2
#     Edge 57, Type (0, 0), BuildingBlock: ZUJKAS_clean_linker_0, # of connection points: 2
#     Edge 58, Type (0, 0), BuildingBlock: ZUJKAS_clean_linker_0, # of connection points: 2
#     Edge 59, Type (0, 0), BuildingBlock: ZUJKAS_clean_linker_0, # of connection points: 2
#     Edge 60, Type (0, 0), BuildingBlock: ZUJKAS_clean_linker_0, # of connection points: 2
#     Edge 61, Type (0, 0), BuildingBlock: ZUJKAS_clean_linker_0, # of connection points: 2
#     Edge 62, Type (0, 0), BuildingBlock: ZUJKAS_clean_linker_0, # of connection points: 2
#     Edge 63, Type (0, 0), BuildingBlock: ZUJKAS_clean_linker_0, # of connection points: 2
#     Edge 64, Type (0, 0), BuildingBlock: ZUJKAS_clean_linker_0, # of connection points: 2
#     Edge 65, Type (0, 0), BuildingBlock: ZUJKAS_clean_linker_0, # of connection points: 2
#     Edge 66, Type (0, 0), BuildingBlock: ZUJKAS_clean_linker_0, # of connection points: 2
#     Edge 67, Type (0, 0), BuildingBlock: ZUJKAS_clean_linker_0, # of connection points: 2
#     Edge 68, Type (0, 0), BuildingBlock: ZUJKAS_clean_linker_0, # of connection points: 2
#     Edge 69, Type (0, 0), BuildingBlock: ZUJKAS_clean_linker_0, # of connection points: 2
#     Edge 70, Type (0, 0), BuildingBlock: ZUJKAS_clean_linker_0, # of connection points: 2
#     Edge 71, Type (0, 0), BuildingBlock: ZUJKAS_clean_linker_0, # of connection points: 2
# Relax obj value: 0.004
# Max RMSD: 0.036
# Mean RMSD: 0.028
data_MOF--net-lcs--node1-QUQFOY_clean_sbu_3--edge1-ZUJKAS_clean_linker_0
_symmetry_space_group_name_H-M    P1
_symmetry_Int_Tables_number       1
_symmetry_cell_setting            triclinic
loop_
_symmetry_equiv_pos_as_xyz
'x, y, z'
_cell_length_a     64.867028
_cell_length_b     65.971591
_cell_length_c     65.959676
_cell_angle_alpha  91.319485
_cell_angle_beta   90.04611
_cell_angle_gamma 91.150532
loop_
_atom_site_label
_atom_site_type_symbol
_atom_site_fract_x
_atom_site_fract_y
_atom_site_fract_z
_atom_type_partial_charge
C0 C 0.96682 0.25051 0.4131 0.0
O1 O 0.97382 0.23581 0.42296 0.0
Cd2 Cd 0.00464 0.21788 0.41447 0.0
O3 O 0.9762 0.25696 0.39748 0.0
Cd4 Cd 0.00731 0.24996 0.37715 0.0
C5 C 0.99187 0.20121 0.36622 0.0
O6 O 0.02901 0.24372 0.4059 0.0
O7 O 0.04342 0.23905 0.37677 0.0
O8 O 0.01311 0.28604 0.37279 0.0
C9 C 0.04491 0.23892 0.39593 0.0
O10 O -0.0043 0.19713 0.38461 0.0
C11 C 0.0123 0.28529 0.35355 0.0
O12 O -0.00616 0.21926 0.35992 0.0
O13 O 0.00881 0.26803 0.34518 0.0
C14 C 0.96881 0.76033 0.58545 0.0
O15 O 0.98585 0.76169 0.57606 0.0
Cd16 Cd 0.0179 0.75115 0.59006 0.0
O17 O 0.96769 0.75197 0.60265 0.0
Cd18 Cd 0.99 0.73399 0.62652 0.0
C19 C 0.01752 0.77711 0.63606 0.0
O20 O 0.0111 0.71741 0.60097 0.0
O21 O 0.02139 0.71484 0.63188 0.0
O22 O 0.96171 0.70978 0.63071 0.0
C23 C 0.02379 0.71013 0.61332 0.0
O24 O 0.0254 0.77472 0.61849 0.0
C25 C 0.96226 0.71021 0.64996 0.0
O26 O 0.00358 0.76496 0.64234 0.0
O27 O 0.97543 0.72218 0.65837 0.0
C28 C 0.46497 0.7546 0.91832 0.0
O29 O 0.47204 0.74046 0.92887 0.0
Cd30 Cd 0.50178 0.72142 0.91963 0.0
O31 O 0.47399 0.75987 0.90206 0.0
Cd32 Cd 0.50465 0.75116 0.88166 0.0
C33 C 0.48657 0.70316 0.87268 0.0
O34 O 0.52772 0.74557 0.90979 0.0
O35 O 0.53939 0.73728 0.8802 0.0
O36 O 0.51207 0.78681 0.87597 0.0
C37 C 0.54251 0.73898 0.89915 0.0
O38 O 0.4903 0.69971 0.89122 0.0
C39 C 0.51045 0.78555 0.8568 0.0
O40 O 0.48971 0.72069 0.86547 0.0
O41 O 0.50595 0.7682 0.84909 0.0
C42 C 0.47061 0.2603 0.08393 0.0
O43 O 0.48714 0.26141 0.07367 0.0
Cd44 Cd 0.51985 0.25127 0.08665 0.0
O45 O 0.4704 0.25237 0.10136 0.0
Cd46 Cd 0.49375 0.23493 0.12451 0.0
C47 C 0.52172 0.27808 0.13215 0.0
O48 O 0.51412 0.21774 0.09867 0.0
O49 O 0.52539 0.21625 0.12938 0.0
O50 O 0.46608 0.21039 0.12993 0.0
C51 C 0.52724 0.21095 0.1109 0.0
O52 O 0.52878 0.27532 0.1143 0.0
C53 C 0.46697 0.21137 0.14916 0.0
O54 O 0.50801 0.26614 0.13924 0.0
O55 O 0.48004 0.22384 0.15701 0.0
C56 C 0.96454 0.73508 0.09833 0.0
O57 O 0.96944 0.75051 0.08808 0.0
Cd58 Cd -0.00201 0.77275 0.0957 0.0
O59 O 0.975 0.73048 0.11387 0.0
Cd60 Cd 0.00582 0.74306 0.13297 0.0
C61 C 0.98444 0.7884 0.14392 0.0
O62 O 0.02552 0.75066 0.10299 0.0
O63 O 0.03956 0.76101 0.131 0.0
O64 O 0.01351 0.70764 0.1376 0.0
C65 C 0.0408 0.75908 0.11187 0.0
O66 O 0.98754 0.79262 0.12541 0.0
C67 C 0.01653 0.70918 0.15658 0.0
O68 O 0.98855 0.77095 0.15052 0.0
O69 O 0.01439 0.72662 0.16479 0.0
C70 C 0.46422 0.73546 0.40905 0.0
O71 O 0.48051 0.73157 0.41878 0.0
Cd72 Cd 0.51443 0.73811 0.40578 0.0
O73 O 0.4653 0.74367 0.39178 0.0
Cd74 Cd 0.4916 0.7567 0.36807 0.0
C75 C 0.51096 0.71009 0.36119 0.0
O76 O 0.51503 0.77186 0.39329 0.0
O77 O 0.52672 0.76929 0.36274 0.0
O78 O 0.46822 0.78432 0.3632 0.0
C79 C 0.52934 0.77576 0.38081 0.0
O80 O 0.5191 0.71286 0.37864 0.0
C81 C 0.46951 0.78425 0.34401 0.0
O82 O 0.49891 0.72311 0.35395 0.0
O83 O 0.48074 0.77082 0.33577 0.0
C84 C 0.4655 0.23541 0.59784 0.0
O85 O 0.47049 0.25025 0.58679 0.0
Cd86 Cd 0.49929 0.27269 0.59282 0.0
O87 O 0.4762 0.23124 0.61338 0.0
Cd88 Cd 0.50798 0.24252 0.63175 0.0
C89 C 0.48846 0.28908 0.64197 0.0
O90 O 0.5255 0.24963 0.60073 0.0
O91 O 0.54347 0.25646 0.6275 0.0
O92 O 0.51211 0.20648 0.63586 0.0
C93 C 0.54223 0.25633 0.60832 0.0
O94 O 0.49 0.29236 0.62306 0.0
C95 C 0.51683 0.20754 0.65453 0.0
O96 O 0.49327 0.27205 0.64919 0.0
O97 O 0.51731 0.2251 0.6629 0.0
C98 C 0.96246 0.23233 0.90341 0.0
O99 O 0.97874 0.228 0.91298 0.0
Cd100 Cd 0.01295 0.23659 0.90186 0.0
O101 O 0.96353 0.24187 0.88685 0.0
Cd102 Cd 0.98995 0.25674 0.86435 0.0
C103 C 0.01225 0.21141 0.85573 0.0
O104 O 0.01167 0.27096 0.89142 0.0
O105 O 0.02399 0.27282 0.86114 0.0
O106 O 0.96535 0.28335 0.8587 0.0
C107 C 0.02594 0.27713 0.87986 0.0
O108 O 0.01982 0.21337 0.8735 0.0
C109 C 0.96758 0.28344 0.83958 0.0
O110 O -0.00026 0.22432 0.84905 0.0
O111 O 0.97984 0.27063 0.83186 0.0
C112 C 0.39936 0.96456 0.2522 0.0
O113 O 0.41006 0.97365 0.23896 0.0
Cd114 Cd 0.39941 0.00443 0.22359 0.0
O115 O 0.38243 0.9719 0.25843 0.0
Cd116 Cd 0.3604 0.00145 0.25336 0.0
C117 C 0.35279 0.98744 0.20422 0.0
O118 O 0.38778 0.02681 0.25011 0.0
O119 O 0.35719 0.03626 0.24223 0.0
O120 O 0.3553 0.00395 0.28964 0.0
C121 C 0.37608 0.04092 0.24481 0.0
O122 O 0.3712 -0.00632 0.2011 0.0
C123 C 0.33575 0.003 0.28905 0.0
O124 O 0.34525 0.98752 0.22205 0.0
O125 O 0.32743 0.00084 0.27166 0.0
C126 C 0.21822 0.15648 0.49898 0.0
O127 O 0.22671 0.16651 0.5135 0.0
Cd128 Cd 0.25297 0.15331 0.53468 0.0
O129 O 0.22422 0.13877 0.494 0.0
Cd130 Cd 0.25119 0.1144 0.50297 0.0
C131 C 0.22946 0.10839 0.54914 0.0
O132 O 0.27712 0.13968 0.51124 0.0
O133 O 0.28522 0.1093 0.51886 0.0
O134 O 0.25804 0.10873 0.46724 0.0
C135 C 0.29034 0.12794 0.51838 0.0
O136 O 0.23611 0.12622 0.55377 0.0
C137 C 0.25494 0.08967 0.46725 0.0
O138 O 0.23212 0.1008 0.53144 0.0
O139 O 0.24982 0.08193 0.48402 0.0
C140 C 0.07168 0.02832 0.7534 0.0
O141 O 0.06105 0.01905 0.73978 0.0
Cd142 Cd 0.07149 0.98809 0.72336 0.0
O143 O 0.08867 0.02117 0.75943 0.0
Cd144 Cd 0.11091 0.99173 0.75318 0.0
C145 C 0.11783 0.00488 0.70424 0.0
O146 O 0.08308 0.96671 0.74973 0.0
O147 O 0.11337 0.9562 0.7421 0.0
O148 O 0.11805 0.99257 0.7894 0.0
C149 C 0.09434 0.95212 0.74426 0.0
O150 O 0.09948 -0.00158 0.70089 0.0
C151 C 0.13747 0.99128 0.78762 0.0
O152 O 0.12536 0.00517 0.72208 0.0
O153 O 0.14464 0.99066 0.7697 0.0
C154 C 0.27509 0.8393 0.98721 0.0
O155 O 0.26572 0.82903 0.00055 0.0
Cd156 Cd 0.23475 0.83842 0.01752 0.0
O157 O 0.26795 0.85606 0.98135 0.0
Cd158 Cd 0.23767 0.87765 0.98825 0.0
C159 C 0.25182 0.88453 0.03745 0.0
O160 O 0.21289 0.85019 0.99162 0.0
O161 O 0.20197 0.87949 0.00084 0.0
O162 O 0.23569 0.88439 0.95226 0.0
C163 C 0.19817 0.86069 -0.00169 0.0
O164 O 0.24544 0.86641 0.04021 0.0
C165 C 0.23468 0.90352 0.95443 0.0
O166 O 0.25191 0.89203 0.01981 0.0
O167 O 0.23571 0.91074 0.97243 0.0
C168 C 0.27719 0.33196 0.01145 0.0
O169 O 0.26113 0.32104 0.01408 0.0
Cd170 Cd 0.22716 0.33293 0.00779 0.0
O171 O 0.27601 0.34941 0.0037 0.0
Cd172 Cd 0.24959 0.37092 0.98838 0.0
C173 C 0.2278 0.37882 0.03399 0.0
O174 O 0.22726 0.34416 0.97357 0.0
O175 O 0.21546 0.37455 0.9739 0.0
O176 O 0.27367 0.37628 0.9608 0.0
C177 C 0.21323 0.35612 0.9684 0.0
O178 O 0.22125 0.36051 0.03242 0.0
C179 C 0.27194 0.3954 0.9607 0.0
O180 O 0.23928 0.38644 0.02039 0.0
O181 O 0.26036 0.40331 0.9741 0.0
C182 C 0.7681 0.15671 0.97607 0.0
O183 O 0.75109 0.16512 0.97246 0.0
Cd184 Cd 0.71828 0.15136 0.98278 0.0
O185 O 0.76851 0.14021 0.9857 0.0
Cd186 Cd 0.74447 0.11607 0.00189 0.0
C187 C 0.71958 0.10529 0.95775 0.0
O188 O 0.72228 0.14147 0.01725 0.0
O189 O 0.71189 0.11032 0.01946 0.0
O190 O 0.77096 0.11246 0.02751 0.0
C191 C 0.70925 0.12881 0.02412 0.0
O192 O 0.7112 0.1225 0.95985 0.0
C193 C 0.7702 0.09321 0.02739 0.0
O194 O 0.73323 0.09971 0.97021 0.0
O195 O 0.75778 0.0845 0.01493 0.0
C196 C 0.16175 0.49595 0.28239 0.0
O197 O 0.17189 0.48131 0.27489 0.0
Cd198 Cd 0.16198 0.46381 0.24399 0.0
O199 O 0.14585 0.50234 0.27336 0.0
Cd200 Cd 0.125 0.49642 0.24235 0.0
C201 C 0.11251 0.44866 0.2566 0.0
O202 O 0.15448 0.48996 0.22074 0.0
O203 O 0.12475 0.48627 0.20636 0.0
O204 O 0.12225 0.53308 0.24277 0.0
C205 C 0.1442 0.48578 0.20481 0.0
O206 O 0.13121 0.44429 0.25304 0.0
C207 C 0.10294 0.53318 0.23966 0.0
O208 O 0.10619 0.46666 0.25461 0.0
O209 O 0.0937 0.51605 0.23809 0.0
C210 C 0.78087 0.83541 0.5034 0.0
O211 O 0.76498 0.82391 0.50427 0.0
Cd212 Cd 0.73095 0.83485 0.49682 0.0
O213 O 0.77963 0.85346 0.49709 0.0
Cd214 Cd 0.75299 0.87541 0.48266 0.0
C215 C 0.72842 0.87778 0.52744 0.0
O216 O 0.73304 0.84941 0.46406 0.0
O217 O 0.71866 0.87841 0.46791 0.0
O218 O 0.77767 0.8854 0.45691 0.0
C219 C 0.71816 0.86075 0.45993 0.0
O220 O 0.72194 0.85978 0.52334 0.0
C221 C 0.77472 0.9043 0.45894 0.0
O222 O 0.74104 0.88673 0.51572 0.0
O223 O 0.76216 0.90987 0.47263 0.0
C224 C 0.83742 0.0015 0.27975 0.0
O225 O 0.82711 0.01471 0.27066 0.0
Cd226 Cd 0.83771 0.02791 0.23849 0.0
O227 O 0.85344 -0.00596 0.27157 0.0
Cd228 Cd 0.87419 -0.00414 0.2404 0.0
C229 C 0.88638 0.04466 0.25257 0.0
O230 O 0.84608 -0.00011 0.21643 0.0
O231 O 0.87685 0.00519 0.20502 0.0
O232 O 0.87608 0.95921 0.24184 0.0
C233 C 0.85766 0.00383 0.20148 0.0
O234 O 0.86815 0.04878 0.24703 0.0
C235 C 0.89547 0.95853 0.23945 0.0
O236 O 0.89238 0.02639 0.25272 0.0
O237 O 0.90514 0.97537 0.2379 0.0
C238 C 0.26827 0.66377 0.48115 0.0
O239 O 0.25138 0.67216 0.47703 0.0
Cd240 Cd 0.21848 0.65731 0.48573 0.0
O241 O 0.26835 0.64702 0.49037 0.0
Cd242 Cd 0.2443 0.6221 0.50514 0.0
C243 C 0.22175 0.61184 0.45975 0.0
O244 O 0.22096 0.64668 0.52018 0.0
O245 O 0.21125 0.61521 0.52134 0.0
O246 O 0.27004 0.61914 0.53152 0.0
C247 C 0.20801 0.63354 0.52632 0.0
O248 O 0.2131 0.62893 0.46181 0.0
C249 C 0.27006 0.5999 0.53118 0.0
O250 O 0.2348 0.6061 0.47274 0.0
O251 O 0.25832 0.59085 0.51831 0.0
C252 C 0.3356 0.49406 0.77965 0.0
O253 O 0.32479 0.50772 0.77187 0.0
Cd254 Cd 0.3357 0.52573 0.74241 0.0
O255 O 0.35242 0.48869 0.77138 0.0
Cd256 Cd 0.37421 0.49573 0.74162 0.0
C257 C 0.38298 0.5434 0.75991 0.0
O258 O 0.3468 0.50135 0.7174 0.0
O259 O 0.37765 0.50956 0.70786 0.0
O260 O 0.37788 0.45961 0.73592 0.0
C261 C 0.35865 0.50769 0.70352 0.0
O262 O 0.36438 0.54686 0.75511 0.0
C263 C 0.39742 0.45974 0.73687 0.0
O264 O 0.39052 0.52585 0.75728 0.0
O265 O 0.40639 0.47676 0.7404 0.0
C266 C 0.65941 0.99142 0.77922 0.0
O267 O 0.66953 0.97667 0.77195 0.0
Cd268 Cd 0.65964 0.95856 0.74145 0.0
O269 O 0.64358 -0.00226 0.77001 0.0
Cd270 Cd 0.62321 0.99116 0.73875 0.0
C271 C 0.60997 0.94422 0.75439 0.0
O272 O 0.65243 0.98367 0.717 0.0
O273 O 0.62236 0.97762 0.70397 0.0
O274 O 0.62126 0.02772 0.73612 0.0
C275 C 0.64177 0.97797 0.70173 0.0
O276 O 0.62857 0.93949 0.75072 0.0
C277 C 0.60185 0.02806 0.73375 0.0
O278 O 0.60396 0.9623 0.7522 0.0
O279 O 0.5922 0.01111 0.73396 0.0
C280 C 0.71629 0.6549 -0.00094 0.0
O281 O 0.72472 0.66497 0.01359 0.0
Cd282 Cd 0.75219 0.65227 0.03348 0.0
O283 O 0.72269 0.63735 -0.006 0.0
Cd284 Cd 0.7498 0.6132 0.00314 0.0
C285 C 0.72914 0.60799 0.04978 0.0
O286 O 0.77599 0.63902 0.00923 0.0
O287 O 0.78429 0.60916 0.01832 0.0
O288 O 0.75231 0.60713 0.96688 0.0
C289 C 0.78952 0.62763 0.01638 0.0
O290 O 0.73632 0.62573 0.05389 0.0
C291 C 0.75262 0.58794 0.96763 0.0
O292 O 0.73094 0.60012 0.03207 0.0
O293 O 0.7514 0.58026 0.9851 0.0
C294 C 0.89446 0.46237 0.74841 0.0
O295 O 0.90493 0.47199 0.73538 0.0
Cd296 Cd 0.89409 0.50329 0.72122 0.0
O297 O 0.87754 0.46935 0.75511 0.0
Cd298 Cd 0.85517 0.4989 0.75138 0.0
C299 C 0.84726 0.48641 0.70194 0.0
O300 O 0.88253 0.52447 0.74864 0.0
O301 O 0.85179 0.53417 0.74185 0.0
O302 O 0.85062 0.4977 0.78778 0.0
C303 C 0.87074 0.53875 0.744 0.0
O304 O 0.86553 0.49312 0.69894 0.0
C305 C 0.83114 0.49911 0.7875 0.0
O306 O 0.83987 0.48559 0.7198 0.0
O307 O 0.82259 0.49985 0.77019 0.0
C308 C 0.77786 0.33521 0.48496 0.0
O309 O 0.76859 0.32515 0.49853 0.0
Cd310 Cd 0.73688 0.33344 0.51487 0.0
O311 O 0.77039 0.35157 0.4784 0.0
Cd312 Cd 0.73972 0.37299 0.48414 0.0
C313 C 0.75172 0.38054 0.53423 0.0
O314 O 0.71638 0.34484 0.48791 0.0
O315 O 0.70282 0.3738 0.49381 0.0
O316 O 0.73723 0.37987 0.44819 0.0
C317 C 0.7006 0.35466 0.49296 0.0
O318 O 0.74623 0.36218 0.53717 0.0
C319 C 0.7381 0.39905 0.45036 0.0
O320 O 0.75175 0.38779 0.51648 0.0
O321 O 0.74028 0.40616 0.46832 0.0
C322 C 0.57163 0.52682 0.25921 0.0
O323 O 0.56124 0.51793 0.24518 0.0
Cd324 Cd 0.57263 0.48848 0.22667 0.0
O325 O 0.58901 0.52006 0.26461 0.0
Cd326 Cd 0.61232 0.49193 0.25615 0.0
C327 C 0.61807 0.5078 0.20785 0.0
O328 O 0.58596 0.4657 0.25088 0.0
O329 O 0.61674 0.45773 0.24192 0.0
O330 O 0.62019 0.48751 0.29177 0.0
C331 C 0.598 0.45235 0.24394 0.0
O332 O 0.59985 0.50099 0.20444 0.0
C333 C 0.63956 0.49 0.28996 0.0
O334 O 0.62588 0.5074 0.22556 0.0
O335 O 0.64631 0.49388 0.27237 0.0
H336 H 0.07019 0.44807 0.25605 0.0
H337 H 0.04699 0.42121 0.26826 0.0
H338 H 0.09957 0.38675 0.28619 0.0
H339 H 0.12268 0.41295 0.27332 0.0
H340 H 0.07182 0.36303 0.26778 0.0
H341 H 0.03291 0.41069 0.32629 0.0
H342 H 0.03047 0.41924 0.30077 0.0
H343 H 0.05539 0.41948 0.31277 0.0
C344 C 0.07675 0.43474 0.2626 0.0
C345 C 0.09825 0.43263 0.26378 0.0
C346 C 0.06348 0.41947 0.26967 0.0
C347 C 0.07154 0.40211 0.27844 0.0
C348 C 0.09299 0.39999 0.27946 0.0
H349 H 0.03071 0.3206 0.36654 0.0
H350 H 0.0415 0.3492 0.34608 0.0
C351 C 0.1062 0.41501 0.27211 0.0
C352 C 0.05796 0.38597 0.28674 0.0
H353 H 0.02293 0.37629 0.32404 0.0
C354 C 0.06098 0.36592 0.27998 0.0
C355 C 0.04387 0.38982 0.30267 0.0
C356 C 0.04053 0.41093 0.31121 0.0
C357 C 0.05125 0.3495 0.28943 0.0
C358 C 0.03738 0.35331 0.30558 0.0
C359 C 0.03349 0.37343 0.31161 0.0
C360 C 0.02877 0.33671 0.31799 0.0
C361 C 0.057 0.32828 0.28284 0.0
C362 C 0.0175 0.32038 0.30915 0.0
C363 C 0.01171 0.30374 0.32078 0.0
C364 C 0.01661 0.30346 0.34153 0.0
C365 C 0.02675 0.32037 0.35057 0.0
C366 C 0.03288 0.33676 0.33889 0.0
H367 H 0.07134 0.32816 0.27364 0.0
H368 H 0.05929 0.31857 0.29615 0.0
H369 H 0.04441 0.32144 0.27339 0.0
H370 H 0.01361 0.32028 0.29319 0.0
H371 H 0.00365 0.29101 0.31349 0.0
H372 H 0.93448 0.77374 0.60487 0.0
H373 H 0.90321 0.78669 0.58958 0.0
H374 H 0.92903 0.77686 0.52995 0.0
H375 H 0.96082 0.76495 0.54524 0.0
H376 H 0.91063 0.81123 0.53119 0.0
H377 H 0.85766 0.75424 0.56419 0.0
H378 H 0.87134 0.76834 0.58364 0.0
H379 H 0.88528 0.75243 0.56603 0.0
C380 C 0.93345 0.77432 0.5885 0.0
C381 C 0.94999 0.76823 0.57622 0.0
C382 C 0.91551 0.78157 0.57977 0.0
C383 C 0.91352 0.78223 0.55859 0.0
C384 C 0.93016 0.77638 0.54632 0.0
H385 H 0.79339 0.79628 0.50274 0.0
H386 H 0.82639 0.78348 0.51426 0.0
C387 C 0.9483 0.76957 0.55506 0.0
C388 C 0.89426 0.78937 0.54924 0.0
H389 H 0.84196 0.78305 0.54979 0.0
C390 C 0.89562 0.80494 0.53511 0.0
C391 C 0.87469 0.78088 0.55402 0.0
C392 C 0.87216 0.7629 0.56762 0.0
C393 C 0.87794 0.81252 0.52592 0.0
C394 C 0.85829 0.80491 0.53168 0.0
C395 C 0.85698 0.78909 0.54554 0.0
C396 C 0.83884 0.81298 0.52356 0.0
C397 C 0.88064 0.82825 0.50982 0.0
C398 C 0.83482 0.83381 0.52491 0.0
C399 C 0.81616 0.84119 0.51786 0.0
C400 C 0.80094 0.82778 0.50996 0.0
C401 C 0.80485 0.80693 0.50883 0.0
C402 C 0.82369 0.79962 0.51541 0.0
H403 H 0.89596 0.82716 0.50239 0.0
H404 H 0.86852 0.82664 0.49796 0.0
H405 H 0.87972 0.8436 0.51696 0.0
H406 H 0.84593 0.84435 0.53176 0.0
H407 H 0.81341 0.85731 0.51915 0.0
H408 H 0.4251 0.54686 0.76168 0.0
H409 H 0.44567 0.5742 0.77798 0.0
H410 H 0.38984 0.60387 0.79658 0.0
H411 H 0.36932 0.57722 0.77955 0.0
H412 H 0.4165 0.63058 0.78328 0.0
H413 H 0.45624 0.58124 0.83732 0.0
H414 H 0.46076 0.57444 0.81124 0.0
H415 H 0.43517 0.57211 0.82157 0.0
C416 C 0.41726 0.55925 0.76924 0.0
C417 C 0.39562 0.55988 0.76942 0.0
C418 C 0.42902 0.57478 0.77866 0.0
C419 C 0.4193 0.59088 0.78887 0.0
C420 C 0.3977 0.5916 0.78882 0.0
H421 H 0.46553 0.66928 0.88432 0.0
H422 H 0.45039 0.64248 0.8626 0.0
C423 C 0.38598 0.57633 0.7791 0.0
C424 C 0.4314 0.6071 0.79968 0.0
H425 H 0.46646 0.6158 0.83764 0.0
C426 C 0.42745 0.62736 0.79516 0.0
C427 C 0.44554 0.60286 0.8153 0.0
C428 C 0.44956 0.58151 0.82181 0.0
C429 C 0.4368 0.6435 0.80615 0.0
C430 C 0.45119 0.63927 0.82156 0.0
C431 C 0.45553 0.61902 0.82574 0.0
C432 C 0.46086 0.65551 0.83449 0.0
C433 C 0.4304 0.66484 0.80173 0.0
C434 C 0.472 0.67166 0.82594 0.0
C435 C 0.48029 0.68726 0.83833 0.0
C436 C 0.47808 0.68665 0.8595 0.0
C437 C 0.46751 0.67014 0.86805 0.0
C438 C 0.45888 0.6548 0.85565 0.0
H439 H 0.41531 0.66502 0.79374 0.0
H440 H 0.42921 0.67417 0.81589 0.0
H441 H 0.44207 0.67203 0.79177 0.0
H442 H 0.47427 0.67223 0.80971 0.0
H443 H 0.48862 0.69967 0.83136 0.0
H444 H 0.53935 0.20427 0.0718 0.0
H445 H 0.57002 0.18672 0.06 0.0
H446 H 0.58575 0.17329 0.12177 0.0
H447 H 0.55536 0.19138 0.13376 0.0
H448 H 0.61811 0.18844 0.102 0.0
H449 H 0.58182 0.12726 0.05481 0.0
H450 H 0.57329 0.15173 0.04752 0.0
H451 H 0.56726 0.14265 0.07242 0.0
C452 C 0.54921 0.19738 0.08286 0.0
C453 C 0.54498 0.19917 0.1037 0.0
C454 C 0.56665 0.18722 0.07608 0.0
C455 C 0.57995 0.17837 0.08998 0.0
C456 C 0.5756 0.17991 0.11079 0.0
H457 H 0.6814 0.10507 0.04412 0.0
H458 H 0.65072 0.11604 0.0626 0.0
C459 C 0.55825 0.19024 0.1176 0.0
C460 C 0.59914 0.16881 0.08284 0.0
H461 H 0.6177 0.13458 0.04827 0.0
C462 C 0.61802 0.17646 0.09046 0.0
C463 C 0.599 0.15294 0.06806 0.0
C464 C 0.57923 0.14302 0.0604 0.0
C465 C 0.63681 0.16928 0.08302 0.0
C466 C 0.63665 0.15447 0.06717 0.0
C467 C 0.61778 0.14616 0.06022 0.0
C468 C 0.65581 0.14796 0.05701 0.0
C469 C 0.65661 0.17767 0.09222 0.0
C470 C 0.66875 0.16226 0.04768 0.0
C471 C 0.68635 0.15607 0.0373 0.0
C472 C 0.6911 0.13541 0.03576 0.0
C473 C 0.6781 0.1211 0.04506 0.0
C474 C 0.66059 0.12733 0.05561 0.0
H475 H 0.65419 0.1833 0.10803 0.0
H476 H 0.66876 0.16606 0.09227 0.0
H477 H 0.66221 0.19067 0.08321 0.0
H478 H 0.66504 0.1782 0.04809 0.0
H479 H 0.69598 0.16742 0.03013 0.0
H480 H 0.11829 0.57167 0.24524 0.0
H481 H 0.10174 0.60328 0.23663 0.0
H482 H 0.04688 0.56969 0.21817 0.0
H483 H 0.06318 0.53801 0.22713 0.0
H484 H 0.09 0.6116 0.19854 0.0
H485 H 0.02274 0.61707 0.24994 0.0
H486 H 0.04385 0.60031 0.25447 0.0
H487 H 0.02388 0.59308 0.23664 0.0
C488 C 0.10256 0.57104 0.23971 0.0
C489 C 0.09206 0.55235 0.23675 0.0
C490 C 0.09312 0.58911 0.23483 0.0
C491 C 0.07302 0.58886 0.22695 0.0
C492 C 0.06223 0.57029 0.22465 0.0
H493 H 0.02177 0.67047 0.14258 0.0
H494 H 0.03492 0.64189 0.16121 0.0
C495 C 0.07163 0.55218 0.22964 0.0
C496 C 0.06435 0.60764 0.2189 0.0
H497 H 0.0224 0.63811 0.22069 0.0
C498 C 0.07533 0.61752 0.20357 0.0
C499 C 0.04529 0.61542 0.22558 0.0
C500 C 0.03334 0.60604 0.24271 0.0
C501 C 0.06748 0.63459 0.19426 0.0
C502 C 0.04797 0.64176 0.20021 0.0
C503 C 0.03726 0.63238 0.21603 0.0
C504 C 0.03833 0.65864 0.18963 0.0
C505 C 0.0801 0.64477 0.17803 0.0
C506 C 0.03528 0.67729 0.19969 0.0
C507 C 0.02772 0.6937 0.18909 0.0
C508 C 0.02303 0.6916 0.16831 0.0
C509 C 0.02539 0.67263 0.15853 0.0
C510 C 0.03293 0.65629 0.16912 0.0
H511 H 0.09662 0.64071 0.17886 0.0
H512 H 0.07414 0.63982 0.1629 0.0
H513 H 0.07896 0.66153 0.17932 0.0
H514 H 0.03931 0.67931 0.21556 0.0
H515 H 0.02598 0.70811 0.19704 0.0
H516 H 0.56401 0.78212 0.35821 0.0
H517 H 0.59706 0.79675 0.36972 0.0
H518 H 0.5719 0.80641 0.4296 0.0
H519 H 0.53893 0.79146 0.41835 0.0
H520 H 0.60695 0.83469 0.38625 0.0
H521 H 0.62355 0.77393 0.44032 0.0
H522 H 0.6035 0.77142 0.42139 0.0
H523 H 0.5991 0.78557 0.44456 0.0
C524 C 0.56551 0.78737 0.37383 0.0
C525 C 0.54895 0.78548 0.38744 0.0
C526 C 0.58438 0.79573 0.38036 0.0
C527 C 0.58698 0.8023 0.40058 0.0
C528 C 0.5703 0.80099 0.41405 0.0
H529 H 0.68173 0.87977 0.45404 0.0
H530 H 0.65059 0.86565 0.43782 0.0
C531 C 0.55146 0.79255 0.40756 0.0
C532 C 0.60716 0.8105 0.40762 0.0
H533 H 0.64518 0.80346 0.44232 0.0
C534 C 0.6154 0.82783 0.39843 0.0
C535 C 0.61828 0.80126 0.42325 0.0
C536 C 0.61078 0.7819 0.43283 0.0
C537 C 0.63428 0.83652 0.40485 0.0
C538 C 0.6449 0.82782 0.42113 0.0
C539 C 0.6369 0.81019 0.42995 0.0
C540 C 0.66416 0.8369 0.42959 0.0
C541 C 0.64273 0.8548 0.39404 0.0
C542 C 0.68201 0.82531 0.43059 0.0
C543 C 0.69974 0.83323 0.44007 0.0
C544 C 0.69989 0.85288 0.44876 0.0
C545 C 0.68211 0.86461 0.44739 0.0
C546 C 0.66435 0.85663 0.43801 0.0
H547 H 0.6362 0.85578 0.37852 0.0
H548 H 0.63852 0.86875 0.40266 0.0
H549 H 0.6598 0.85443 0.39292 0.0
H550 H 0.68212 0.81 0.42426 0.0
H551 H 0.71322 0.82385 0.44087 0.0
H552 H 0.49217 0.29269 0.68339 0.0
H553 H 0.48066 0.32082 0.70526 0.0
H554 H 0.45596 0.35021 0.65302 0.0
H555 H 0.46792 0.32268 0.63114 0.0
H556 H 0.47805 0.37621 0.67654 0.0
H557 H 0.42268 0.33255 0.72383 0.0
H558 H 0.44875 0.32389 0.72403 0.0
H559 H 0.43391 0.32199 0.70102 0.0
C560 C 0.48418 0.30512 0.67662 0.0
C561 C 0.48095 0.30547 0.65554 0.0
C562 C 0.47755 0.32113 0.68914 0.0
C563 C 0.46726 0.33751 0.6808 0.0
C564 C 0.46392 0.33775 0.65979 0.0
H565 H 0.38245 0.42374 0.72167 0.0
H566 H 0.40192 0.39401 0.7115 0.0
C567 C 0.47075 0.32197 0.64729 0.0
C568 C 0.4601 0.35474 0.69357 0.0
H569 H 0.42563 0.36765 0.7305 0.0
C570 C 0.46672 0.37436 0.68849 0.0
C571 C 0.44533 0.35223 0.70912 0.0
C572 C 0.43708 0.33157 0.71478 0.0
C573 C 0.4582 0.3916 0.69773 0.0
C574 C 0.44313 0.38912 0.71303 0.0
C575 C 0.43726 0.36948 0.71884 0.0
C576 C 0.43147 0.40653 0.72133 0.0
C577 C 0.46449 0.41222 0.69006 0.0
C578 C 0.44153 0.4233 0.73075 0.0
C579 C 0.43044 0.44055 0.73626 0.0
C580 C 0.40907 0.44108 0.73282 0.0
C581 C 0.39891 0.42383 0.72446 0.0
C582 C 0.41002 0.40678 0.7187 0.0
H583 H 0.47271 0.41115 0.67531 0.0
H584 H 0.45084 0.42188 0.68815 0.0
H585 H 0.47504 0.41986 0.7012 0.0
H586 H 0.458 0.42323 0.73341 0.0
H587 H 0.43862 0.45354 0.74291 0.0
H588 H 0.92445 0.24282 0.88962 0.0
H589 H 0.89081 0.23223 0.90275 0.0
H590 H 0.92063 0.19678 0.94799 0.0
H591 H 0.95433 0.20764 0.93529 0.0
H592 H 0.87446 0.19408 0.90475 0.0
H593 H 0.88013 0.22871 0.98196 0.0
H594 H 0.89779 0.23526 0.9619 0.0
H595 H 0.90126 0.21251 0.97595 0.0
C596 C 0.92387 0.23288 0.90245 0.0
C597 C 0.94208 0.22614 0.91147 0.0
C598 C 0.90463 0.22686 0.90994 0.0
C599 C 0.90324 0.21401 0.92655 0.0
C600 C 0.92137 0.20713 0.93548 0.0
H601 H 0.80733 0.14547 0.985 0.0
H602 H 0.83962 0.16038 0.97268 0.0
C603 C 0.94062 0.21325 0.92811 0.0
C604 C 0.88283 0.20705 0.93395 0.0
H605 H 0.85273 0.20445 0.97629 0.0
C606 C 0.86961 0.19653 0.92033 0.0
C607 C 0.87656 0.21032 0.95429 0.0
C608 C 0.88959 0.22249 0.96932 0.0
C609 C 0.8505 0.18867 0.92666 0.0
C610 C 0.84449 0.19154 0.94708 0.0
C611 C 0.85753 0.20227 0.96065 0.0
C612 C 0.8249 0.18299 0.95474 0.0
C613 C 0.83707 0.1769 0.91166 0.0
C614 C 0.80602 0.19099 0.94884 0.0
C615 C 0.78751 0.18259 0.95591 0.0
C616 C 0.78764 0.16599 0.96893 0.0
C617 C 0.80667 0.15818 0.97493 0.0
C618 C 0.82514 0.16668 0.96796 0.0
H619 H 0.84532 0.17341 0.89729 0.0
H620 H 0.83154 0.16245 0.9183 0.0
H621 H 0.82333 0.18592 0.90807 0.0
H622 H 0.80562 0.20372 0.93876 0.0
H623 H 0.77313 0.18898 0.95102 0.0
H624 H 0.24407 0.04968 0.46051 0.0
H625 H 0.25071 0.02895 0.42994 0.0
H626 H 0.27994 0.0806 0.40206 0.0
H627 H 0.2727 0.10145 0.43204 0.0
H628 H 0.2557 0.06001 0.37566 0.0
H629 H 0.30625 0.00661 0.41561 0.0
H630 H 0.28024 0.00796 0.42476 0.0
H631 H 0.29731 0.02965 0.42757 0.0
C632 C 0.25181 0.05659 0.44778 0.0
C633 C 0.258 0.07715 0.4487 0.0
C634 C 0.25569 0.04471 0.43039 0.0
C635 C 0.26614 0.05313 0.41386 0.0
C636 C 0.27185 0.07376 0.41463 0.0
H637 H 0.34973 0.01462 0.32645 0.0
H638 H 0.3294 0.02304 0.35634 0.0
C639 C 0.26775 0.08567 0.43182 0.0
C640 C 0.27189 0.04067 0.39582 0.0
H641 H 0.30357 0.00266 0.38034 0.0
C642 C 0.26595 0.04728 0.37664 0.0
C643 C 0.28528 0.02408 0.39721 0.0
C644 C 0.29281 0.01669 0.41735 0.0
C645 C 0.27409 0.03868 0.3588 0.0
C646 C 0.288 0.02251 0.3602 0.0
C647 C 0.29286 0.01502 0.37934 0.0
C648 C 0.29996 0.01521 0.34243 0.0
C649 C 0.26883 0.04798 0.33879 0.0
C650 C 0.29023 0.00749 0.32477 0.0
C651 C 0.30186 0.00297 0.30744 0.0
C652 C 0.32341 0.00574 0.30768 0.0
C653 C 0.33315 0.01237 0.32574 0.0
C654 C 0.32154 0.01714 0.34289 0.0
H655 H 0.26124 0.06284 0.34083 0.0
H656 H 0.28289 0.05024 0.32946 0.0
H657 H 0.25806 0.03766 0.33025 0.0
H658 H 0.27364 0.00539 0.32425 0.0
H659 H 0.29397 -0.00234 0.29379 0.0
H660 H 0.10648 0.00728 0.66445 0.0
H661 H 0.12619 0.02227 0.63684 0.0
H662 H 0.17664 0.03586 0.67788 0.0
H663 H 0.15717 0.02073 0.7056 0.0
H664 H 0.14031 0.06252 0.63623 0.0
H665 H 0.20493 0.00897 0.62862 0.0
H666 H 0.18131 0.00271 0.64177 0.0
H667 H 0.20078 0.01843 0.65402 0.0
C668 C 0.12186 0.01325 0.6676 0.0
C669 C 0.13024 0.01283 0.68726 0.0
C670 C 0.13308 0.0218 0.65179 0.0
C671 C 0.15292 0.02995 0.6553 0.0
C672 C 0.16149 0.0293 0.6748 0.0
H673 H 0.21937 0.12028 0.58781 0.0
H674 H 0.20062 0.10065 0.61303 0.0
C675 C 0.15028 0.02075 0.69064 0.0
C676 C 0.16406 0.04038 0.63889 0.0
H677 H 0.20847 0.04011 0.6112 0.0
C678 C 0.15515 0.05756 0.63065 0.0
C679 C 0.1833 0.03372 0.63157 0.0
C680 C 0.1931 0.01484 0.63929 0.0
C681 C 0.16523 0.06858 0.61556 0.0
C682 C 0.18482 0.06237 0.60878 0.0
C683 C 0.19352 0.0449 0.61663 0.0
C684 C 0.19657 0.07398 0.59363 0.0
C685 C 0.15481 0.08673 0.60693 0.0
C686 C 0.20085 0.06526 0.57456 0.0
C687 C 0.21159 0.07641 0.56009 0.0
C688 C 0.21835 0.09643 0.56453 0.0
C689 C 0.2143 0.10495 0.58383 0.0
C690 C 0.20353 0.0938 0.59825 0.0
H691 H 0.13799 0.08655 0.61012 0.0
H692 H 0.16164 0.10079 0.61389 0.0
H693 H 0.15713 0.08731 0.59027 0.0
H694 H 0.19565 0.04992 0.5708 0.0
H695 H 0.21452 0.06936 0.54541 0.0
H696 H 0.12674 -0.0047 0.82744 0.0
H697 H 0.14724 0.98646 0.85691 0.0
H698 H 0.19847 0.97222 0.81779 0.0
H699 H 0.1782 0.98145 0.78826 0.0
H700 H 0.16045 0.94828 0.86138 0.0
H701 H 0.22732 0.0019 0.86495 0.0
H702 H 0.20438 0.00672 0.85042 0.0
H703 H 0.22365 0.99004 0.84041 0.0
C704 C 0.14253 0.99073 0.82514 0.0
C705 C 0.15082 0.98891 0.80553 0.0
C706 C 0.15423 0.98573 0.842 0.0
C707 C 0.17442 0.97882 0.83956 0.0
C708 C 0.18308 0.97792 0.82008 0.0
H709 H 0.23263 0.89204 0.9145 0.0
H710 H 0.22016 0.91201 0.88643 0.0
C711 C 0.17142 0.98306 0.8032 0.0
C712 C 0.18523 0.96996 0.85693 0.0
H713 H 0.22994 0.97175 0.88441 0.0
C714 C 0.17555 0.95357 0.86653 0.0
C715 C 0.20491 0.9769 0.86365 0.0
C716 C 0.21561 -0.00501 0.85446 0.0
C717 C 0.18517 0.94365 0.88237 0.0
C718 C 0.20516 0.95005 0.88855 0.0
C719 C 0.21471 0.96675 0.87938 0.0
C720 C 0.21612 0.93934 0.90461 0.0
C721 C 0.17384 0.92635 0.89239 0.0
C722 C 0.2188 0.94845 0.92386 0.0
C723 C 0.22596 0.93708 0.93997 0.0
C724 C 0.23051 0.91647 0.93698 0.0
C725 C 0.22908 0.90783 0.91733 0.0
C726 C 0.22197 0.9192 0.90128 0.0
H727 H 0.15707 0.92625 0.88894 0.0
H728 H 0.18017 0.91176 0.88679 0.0
H729 H 0.17592 0.92723 0.9091 0.0
H730 H 0.21436 0.964 0.92666 0.0
H731 H 0.22698 0.94418 0.95492 0.0
H732 H 0.25418 0.87318 0.07693 0.0
H733 H 0.26867 0.89264 0.10562 0.0
H734 H 0.28203 0.94278 0.06663 0.0
H735 H 0.2674 0.9235 0.03773 0.0
H736 H 0.30957 0.9074 0.10767 0.0
H737 H 0.25323 0.96938 0.11623 0.0
H738 H 0.24746 0.94606 0.10227 0.0
H739 H 0.26317 0.9655 0.09103 0.0
C740 C 0.26001 0.88841 0.07442 0.0
C741 C 0.25968 0.89676 0.05499 0.0
C742 C 0.26826 0.8995 0.09087 0.0
C743 C 0.2762 0.91918 0.08825 0.0
C744 C 0.27564 0.92773 0.06899 0.0
H745 H 0.36456 0.98373 0.16458 0.0
H746 H 0.34513 0.96794 0.1365 0.0
C747 C 0.26739 0.91663 0.05248 0.0
C748 C 0.28635 0.93012 0.10543 0.0
H749 H 0.28396 0.97259 0.13585 0.0
C750 C 0.30394 0.92162 0.11388 0.0
C751 C 0.27883 0.94856 0.11354 0.0
C752 C 0.25953 0.95789 0.10546 0.0
C753 C 0.31444 0.93123 0.1301 0.0
C754 C 0.30725 0.94994 0.13786 0.0
C755 C 0.28946 0.95831 0.12968 0.0
C756 C 0.31818 0.96094 0.1545 0.0
C757 C 0.33305 0.92125 0.13892 0.0
C758 C 0.30915 0.96269 0.17374 0.0
C759 C 0.3202 0.9717 0.18989 0.0
C760 C 0.34043 0.97918 0.18696 0.0
C761 C 0.34908 0.97801 0.16742 0.0
C762 C 0.33804 0.96898 0.15135 0.0
H763 H 0.33389 0.90502 0.13419 0.0
H764 H 0.34724 0.92914 0.13361 0.0
H765 H 0.33283 0.92234 0.15575 0.0
H766 H 0.29378 0.95659 0.17638 0.0
H767 H 0.31305 0.97245 0.20471 0.0
H768 H 0.311 0.35411 0.02371 0.0
H769 H 0.34425 0.3414 0.03459 0.0
H770 H 0.32266 0.27998 0.02241 0.0
H771 H 0.28896 0.29262 0.01271 0.0
H772 H 0.34152 0.28122 0.05625 0.0
H773 H 0.39123 0.32193 0.00206 0.0
H774 H 0.37653 0.33944 0.017 0.0
H775 H 0.36351 0.32155 4e-05 0.0
C776 C 0.31342 0.33791 0.02326 0.0
C777 C 0.29747 0.32433 0.01734 0.0
C778 C 0.3325 0.33066 0.02929 0.0
C779 C 0.33618 0.30974 0.02885 0.0
C780 C 0.32024 0.29619 0.02281 0.0
H781 H 0.45996 0.26289 0.04406 0.0
H782 H 0.42707 0.27386 0.03027 0.0
C783 C 0.301 0.30341 0.01727 0.0
C784 C 0.35624 0.3019 0.03569 0.0
H785 H 0.40835 0.30792 0.03066 0.0
C786 C 0.35612 0.28691 0.05046 0.0
C787 C 0.37533 0.30901 0.02791 0.0
C788 C 0.37666 0.32369 0.01072 0.0
C789 C 0.37449 0.27913 0.05795 0.0
C790 C 0.39358 0.28727 0.05121 0.0
C791 C 0.39373 0.30192 0.0361 0.0
C792 C 0.41356 0.28078 0.05959 0.0
C793 C 0.37313 0.26196 0.07268 0.0
C794 C 0.41706 0.28137 0.0806 0.0
C795 C 0.43561 0.27465 0.0885 0.0
C796 C 0.45127 0.26787 0.07549 0.0
C797 C 0.44812 0.26806 0.05442 0.0
C798 C 0.42936 0.27431 0.04655 0.0
H799 H 0.3585 0.25308 0.07073 0.0
H800 H 0.3862 0.25148 0.07077 0.0
H801 H 0.3734 0.26829 0.08841 0.0
H802 H 0.40545 0.28702 0.09094 0.0
H803 H 0.43778 0.27497 0.1048 0.0
H804 H 0.97579 0.78553 0.18455 0.0
H805 H 0.9603 0.81137 0.20677 0.0
H806 H 0.95804 0.85225 0.15679 0.0
H807 H 0.9733 0.82671 0.13452 0.0
H808 H 0.97437 0.8527 0.21579 0.0
H809 H 0.89795 0.84869 0.17812 0.0
H810 H 0.91677 0.82904 0.17505 0.0
H811 H 0.91898 0.85184 0.16071 0.0
C812 C 0.97199 0.80002 0.17829 0.0
C813 C 0.97564 0.80399 0.1577 0.0
C814 C 0.96319 0.81474 0.19101 0.0
C815 C 0.95779 0.83354 0.18329 0.0
C816 C 0.9618 0.83768 0.16292 0.0
H817 H 0.93512 0.95218 0.22736 0.0
H818 H 0.95047 0.91978 0.21808 0.0
C819 C 0.97059 0.82306 0.15023 0.0
C820 C 0.94784 0.84901 0.19629 0.0
H821 H 0.90521 0.87826 0.19876 0.0
C822 C 0.95912 0.85813 0.21234 0.0
C823 C 0.92782 0.85575 0.19196 0.0
C824 C 0.91457 0.8457 0.17565 0.0
C825 C 0.95129 0.87469 0.22343 0.0
C826 C 0.93188 0.8824 0.21806 0.0
C827 C 0.92017 0.87247 0.20278 0.0
C828 C 0.92393 0.90156 0.22685 0.0
C829 C 0.96397 0.8839 0.2406 0.0
C830 C 0.90393 0.90213 0.23491 0.0
C831 C 0.89501 0.92065 0.23992 0.0
C832 C 0.90594 0.93896 0.23696 0.0
C833 C 0.92635 0.93832 0.22989 0.0
C834 C 0.93521 0.91978 0.22473 0.0
H835 H 0.9743 0.87254 0.24721 0.0
H836 H 0.97383 0.89638 0.23471 0.0
H837 H 0.95403 0.89019 0.2528 0.0
H838 H 0.89493 0.88825 0.23659 0.0
H839 H 0.87928 0.92066 0.24543 0.0
H840 H 0.19371 0.67164 0.53324 0.0
H841 H 0.16241 0.68118 0.55132 0.0
H842 H 0.14945 0.6183 0.56387 0.0
H843 H 0.18048 0.60857 0.54527 0.0
H844 H 0.11604 0.63649 0.5501 0.0
H845 H 0.15128 0.68425 0.6113 0.0
H846 H 0.15921 0.69254 0.58677 0.0
H847 H 0.16629 0.66781 0.5951 0.0
C848 C 0.18428 0.65986 0.53999 0.0
C849 C 0.18954 0.63937 0.53788 0.0
C850 C 0.16649 0.66535 0.55045 0.0
C851 C 0.15384 0.65048 0.5593 0.0
C852 C 0.15909 0.63001 0.55728 0.0
H853 H 0.0518 0.69037 0.63621 0.0
H854 H 0.08261 0.67289 0.62429 0.0
C855 C 0.1768 0.62449 0.54664 0.0
C856 C 0.13451 0.65627 0.56959 0.0
H857 H 0.1151 0.6889 0.60522 0.0
C858 C 0.11584 0.64774 0.56235 0.0
C859 C 0.13429 0.67062 0.58584 0.0
C860 C 0.15387 0.67915 0.59535 0.0
C861 C 0.09688 0.65393 0.57028 0.0
C862 C 0.09662 0.66942 0.58545 0.0
C863 C 0.11531 0.67722 0.59338 0.0
C864 C 0.0772 0.67857 0.59256 0.0
C865 C 0.07734 0.64384 0.56226 0.0
C866 C 0.064 0.68756 0.57866 0.0
C867 C 0.04635 0.69737 0.58539 0.0
C868 C 0.04178 0.69868 0.60619 0.0
C869 C 0.05495 0.6896 0.62009 0.0
C870 C 0.07253 0.67961 0.61332 0.0
H871 H 0.08026 0.62824 0.55638 0.0
H872 H 0.06527 0.64302 0.57415 0.0
H873 H 0.07137 0.6527 0.5495 0.0
H874 H 0.06761 0.68744 0.56263 0.0
H875 H 0.03659 0.70438 0.57434 0.0
H876 H 0.93155 0.68473 0.63603 0.0
H877 H 0.91323 0.65851 0.65487 0.0
H878 H 0.94586 0.67725 0.70937 0.0
H879 H 0.96401 0.70378 0.69072 0.0
H880 H 0.93331 0.62752 0.67282 0.0
H881 H 0.88671 0.66968 0.72966 0.0
H882 H 0.89756 0.68148 0.70754 0.0
H883 H 0.91349 0.67714 0.72925 0.0
C884 C 0.93454 0.68354 0.65212 0.0
C885 C 0.94929 0.69624 0.66188 0.0
C886 C 0.92406 0.66856 0.66285 0.0
C887 C 0.92809 0.66604 0.68353 0.0
C888 C 0.94223 0.67919 0.69351 0.0
H889 H 0.91092 0.55193 0.74469 0.0
H890 H 0.92491 0.58383 0.73173 0.0
C891 C 0.95267 0.69426 0.6828 0.0
C892 C 0.91918 0.64833 0.69398 0.0
H893 H 0.88949 0.63408 0.73414 0.0
C894 C 0.92366 0.62896 0.68618 0.0
C895 C 0.90655 0.65029 0.71135 0.0
C896 C 0.9006 0.67077 0.71987 0.0
C897 C 0.91596 0.61144 0.69533 0.0
C898 C 0.90378 0.61336 0.713 0.0
C899 C 0.89907 0.63272 0.72073 0.0
C900 C 0.89522 0.59532 0.72312 0.0
C901 C 0.92061 0.59102 0.68576 0.0
C902 C 0.87386 0.59168 0.7233 0.0
C903 C 0.86582 0.57354 0.73077 0.0
C904 C 0.87904 0.55878 0.73819 0.0
C905 C 0.90037 0.56293 0.7389 0.0
C906 C 0.90839 0.5811 0.73147 0.0
H907 H 0.92601 0.59237 0.66986 0.0
H908 H 0.93297 0.58382 0.69456 0.0
H909 H 0.90678 0.58083 0.6859 0.0
H910 H 0.86348 0.60254 0.71698 0.0
H911 H 0.8493 0.57083 0.73015 0.0
H912 H 0.21101 0.19658 0.49378 0.0
H913 H 0.18257 0.21138 0.47525 0.0
H914 H 0.15796 0.15141 0.46117 0.0
H915 H 0.18702 0.13654 0.47872 0.0
H916 H 0.15538 0.17362 0.42949 0.0
H917 H 0.12531 0.21796 0.4949 0.0
H918 H 0.1515 0.22489 0.48928 0.0
H919 H 0.14532 0.19966 0.49759 0.0
C920 C 0.1995 0.18658 0.48674 0.0
C921 C 0.2011 0.16543 0.48779 0.0
C922 C 0.18317 0.19505 0.47629 0.0
C923 C 0.16782 0.18253 0.46727 0.0
C924 C 0.16957 0.16138 0.4681 0.0
H925 H 0.047 0.22265 0.4333 0.0
H926 H 0.07715 0.20873 0.44974 0.0
C927 C 0.18615 0.1529 0.47814 0.0
C928 C 0.15005 0.19139 0.45672 0.0
H929 H 0.11118 0.22508 0.46262 0.0
C930 C 0.14563 0.18479 0.43677 0.0
C931 C 0.13715 0.20575 0.46633 0.0
C932 C 0.13991 0.21231 0.48827 0.0
C933 C 0.12868 0.19211 0.42616 0.0
C934 C 0.11633 0.20712 0.43546 0.0
C935 C 0.12078 0.21374 0.4554 0.0
C936 C 0.09817 0.21559 0.42521 0.0
C937 C 0.12386 0.18311 0.4054 0.0
C938 C 0.09995 0.22428 0.40602 0.0
C939 C 0.0826 0.23181 0.39639 0.0
C940 C 0.06335 0.23135 0.40609 0.0
C941 C 0.0617 0.22325 0.42553 0.0
C942 C 0.07892 0.2153 0.43492 0.0
H943 H 0.13058 0.16785 0.4033 0.0
H944 H 0.10697 0.18176 0.40279 0.0
H945 H 0.13065 0.19303 0.39368 0.0
H946 H 0.11475 0.22529 0.3985 0.0
H947 H 0.08429 0.2382 0.38149 0.0
H948 H 0.62014 0.42173 0.2267 0.0
H949 H 0.60664 0.39093 0.20962 0.0
H950 H 0.54464 0.40799 0.22491 0.0
H951 H 0.55795 0.43892 0.24192 0.0
H952 H 0.58006 0.35848 0.22405 0.0
H953 H 0.54554 0.4022 0.16185 0.0
H954 H 0.56457 0.41307 0.17911 0.0
H955 H 0.53828 0.40992 0.18712 0.0
C956 C 0.60364 0.41885 0.22658 0.0
C957 C 0.59007 0.43283 0.23546 0.0
C958 C 0.59598 0.40125 0.21686 0.0
C959 C 0.57467 0.39742 0.2158 0.0
C960 C 0.56113 0.4109 0.22536 0.0
H961 H 0.51137 0.28783 0.17135 0.0
H962 H 0.52443 0.31641 0.19219 0.0
C963 C 0.56877 0.42849 0.23511 0.0
C964 C 0.56661 0.37978 0.20391 0.0
H965 H 0.53923 0.3668 0.16122 0.0
C966 C 0.57109 0.36024 0.21034 0.0
C967 C 0.55518 0.38225 0.18591 0.0
C968 C 0.5507 0.40297 0.17792 0.0
C969 C 0.56422 0.34299 0.19925 0.0
C970 C 0.55247 0.34547 0.18145 0.0
C971 C 0.54814 0.36502 0.17497 0.0
C972 C 0.54484 0.32798 0.16905 0.0
C973 C 0.56992 0.32228 0.20642 0.0
C974 C 0.55174 0.32531 0.14906 0.0
C975 C 0.54427 0.30907 0.13707 0.0
C976 C 0.52964 0.29529 0.14485 0.0
C977 C 0.52267 0.29812 0.1649 0.0
C978 C 0.5302 0.31436 0.17688 0.0
H979 H 0.58269 0.32312 0.21766 0.0
H980 H 0.55632 0.31508 0.21373 0.0
H981 H 0.57458 0.31236 0.19345 0.0
H982 H 0.56297 0.33578 0.14275 0.0
H983 H 0.54994 0.30737 0.12169 0.0
H984 H 0.29592 0.80576 -0.00173 0.0
H985 H 0.32833 0.79337 0.98461 0.0
H986 H 0.33085 0.84276 0.94292 0.0
H987 H 0.29847 0.85557 0.95675 0.0
H988 H 0.33712 0.78119 0.9451 0.0
H989 H 0.38757 0.8462 0.97022 0.0
H990 H 0.36184 0.8423 0.97997 0.0
H991 H 0.36559 0.85268 0.95528 0.0
C992 C 0.30334 0.81407 0.98623 0.0
C993 C 0.29463 0.83172 0.97866 0.0
C994 C 0.32187 0.80694 0.97844 0.0
C995 C 0.33209 0.8173 0.96296 0.0
C996 C 0.32338 0.83478 0.95516 0.0
H997 H 0.44685 0.78715 0.90107 0.0
H998 H 0.41438 0.8029 0.91089 0.0
C999 C 0.30483 0.842 0.963 0.0
C1000 C 0.35166 0.80939 0.95486 0.0
H1001 H 0.40318 0.82016 0.95081 0.0
C1002 C 0.35156 0.78972 0.94629 0.0
C1003 C 0.37043 0.82063 0.95641 0.0
C1004 C 0.37152 0.84156 0.96611 0.0
C1005 C 0.36978 0.78088 0.9394 0.0
C1006 C 0.38858 0.79193 0.94134 0.0
C1007 C 0.38867 0.81178 0.94941 0.0
C1008 C 0.40841 0.78279 0.93573 0.0
C1009 C 0.36883 0.75976 0.9301 0.0
C1010 C 0.41586 0.76655 0.94673 0.0
C1011 C 0.43439 0.75756 0.94125 0.0
C1012 C 0.44578 0.76468 0.92464 0.0
C1013 C 0.43841 0.78124 0.91388 0.0
C1014 C 0.4199 0.79027 0.91946 0.0
H1015 H 0.35291 0.75526 0.9254 0.0
H1016 H 0.37913 0.75861 0.9167 0.0
H1017 H 0.3741 0.7488 0.94143 0.0
H1018 H 0.40729 0.76079 0.95953 0.0
H1019 H 0.43965 0.74489 0.9499 0.0
H1020 H 0.87998 0.44124 0.78072 0.0
H1021 H 0.89213 0.40899 0.79309 0.0
H1022 H 0.93697 0.40647 0.74488 0.0
H1023 H 0.92532 0.43906 0.73272 0.0
H1024 H 0.89293 0.37175 0.77474 0.0
H1025 H 0.97254 0.39819 0.79413 0.0
H1026 H 0.95234 0.41547 0.78813 0.0
H1027 H 0.9655 0.40191 0.76819 0.0
C1028 C 0.89249 0.43389 0.77278 0.0
C1029 C 0.9018 0.4428 0.75583 0.0
C1030 C 0.89938 0.41543 0.77985 0.0
C1031 C 0.91565 0.40549 0.77009 0.0
C1032 C 0.92473 0.41413 0.75293 0.0
H1033 H 0.97567 0.29263 0.80016 0.0
H1034 H 0.96188 0.3208 0.7811 0.0
C1035 C 0.91799 0.43271 0.74596 0.0
C1036 C 0.92296 0.38605 0.77793 0.0
H1037 H 0.96504 0.36324 0.79766 0.0
C1038 C 0.9087 0.36987 0.77971 0.0
C1039 C 0.94356 0.38365 0.78441 0.0
C1040 C 0.95934 0.40076 0.78382 0.0
C1041 C 0.91447 0.35141 0.78796 0.0
C1042 C 0.93497 0.34914 0.79458 0.0
C1043 C 0.94935 0.36509 0.7924 0.0
C1044 C 0.94155 0.33087 0.8051 0.0
C1045 C 0.89865 0.33448 0.78967 0.0
C1046 C 0.9345 0.32721 0.82479 0.0
C1047 C 0.94244 0.3113 0.83576 0.0
C1048 C 0.95752 0.29875 0.82717 0.0
C1049 C 0.964 0.302 0.80715 0.0
C1050 C 0.95619 0.31807 0.79625 0.0
H1051 H 0.88487 0.33703 0.78011 0.0
H1052 H 0.9054 0.31971 0.78517 0.0
H1053 H 0.89355 0.33349 0.80568 0.0
H1054 H 0.92338 0.33712 0.83192 0.0
H1055 H 0.93716 0.30916 0.85115 0.0
H1056 H 0.32234 0.10674 0.53406 0.0
H1057 H 0.35335 0.12082 0.55106 0.0
H1058 H 0.33198 0.18136 0.54168 0.0
H1059 H 0.30118 0.16757 0.52472 0.0
H1060 H 0.38313 0.15018 0.53391 0.0
H1061 H 0.34484 0.17848 0.60393 0.0
H1062 H 0.33348 0.159 0.58748 0.0
H1063 H 0.33225 0.18521 0.58083 0.0
C1064 C 0.32428 0.12304 0.53565 0.0
C1065 C 0.30933 0.13606 0.52812 0.0
C1066 C 0.34194 0.13102 0.54535 0.0
C1067 C 0.34468 0.15207 0.54786 0.0
C1068 C 0.3299 0.16506 0.54017 0.0
H1069 H 0.44216 0.23713 0.56349 0.0
H1070 H 0.4139 0.21433 0.55288 0.0
C1071 C 0.3124 0.15714 0.53037 0.0
C1072 C 0.36326 0.1608 0.55785 0.0
H1073 H 0.37845 0.19235 0.59699 0.0
C1074 C 0.38224 0.15912 0.54788 0.0
C1075 C 0.36199 0.17223 0.57618 0.0
C1076 C 0.34208 0.17373 0.58787 0.0
C1077 C 0.39982 0.16962 0.55518 0.0
C1078 C 0.39821 0.18216 0.57276 0.0
C1079 C 0.37953 0.18286 0.5834 0.0
C1080 C 0.4153 0.19579 0.57945 0.0
C1081 C 0.41986 0.16766 0.54379 0.0
C1082 C 0.42502 0.19316 0.59816 0.0
C1083 C 0.44121 0.20619 0.60432 0.0
C1084 C 0.44773 0.22217 0.59193 0.0
C1085 C 0.43757 0.22497 0.57339 0.0
C1086 C 0.42152 0.21188 0.56722 0.0
H1087 H 0.41996 0.15371 0.53404 0.0
H1088 H 0.422 0.18091 0.53389 0.0
H1089 H 0.43313 0.16741 0.55443 0.0
H1090 H 0.42023 0.1809 0.60786 0.0
H1091 H 0.44867 0.20365 0.61871 0.0
H1092 H 0.49368 0.69658 0.32523 0.0
H1093 H 0.50203 0.66574 0.30573 0.0
H1094 H 0.54735 0.6509 0.35056 0.0
H1095 H 0.53919 0.68151 0.37016 0.0
H1096 H 0.56018 0.65019 0.30688 0.0
H1097 H 0.48876 0.60529 0.32368 0.0
H1098 H 0.48609 0.63103 0.31567 0.0
H1099 H 0.49753 0.62624 0.3398 0.0
C1100 C 0.50539 0.68674 0.33096 0.0
C1101 C 0.51574 0.69149 0.34928 0.0
C1102 C 0.51007 0.66912 0.31984 0.0
C1103 C 0.52517 0.65608 0.32685 0.0
C1104 C 0.53559 0.66081 0.345 0.0
H1105 H 0.58815 0.548 0.29161 0.0
H1106 H 0.57611 0.57967 0.30684 0.0
C1107 C 0.53087 0.6783 0.35617 0.0
C1108 C 0.53058 0.63762 0.31515 0.0
H1109 H 0.51382 0.58945 0.30334 0.0
C1110 C 0.55003 0.63692 0.30597 0.0
C1111 C 0.51718 0.6205 0.31395 0.0
C1112 C 0.49623 0.62059 0.32385 0.0
C1113 C 0.5566 0.61936 0.29575 0.0
C1114 C 0.54353 0.60192 0.2952 0.0
C1115 C 0.52382 0.60283 0.3039 0.0
C1116 C 0.55036 0.58242 0.28627 0.0
C1117 C 0.57743 0.61968 0.28557 0.0
C1118 C 0.53938 0.57309 0.27016 0.0
C1119 C 0.54609 0.55483 0.26153 0.0
C1120 C 0.56387 0.5456 0.26893 0.0
C1121 C 0.57452 0.55479 0.28541 0.0
C1122 C 0.56774 0.57296 0.29406 0.0
H1123 H 0.58259 0.63538 0.28211 0.0
H1124 H 0.58899 0.61323 0.29589 0.0
H1125 H 0.57717 0.61048 0.27126 0.0
H1126 H 0.52582 0.58009 0.26406 0.0
H1127 H 0.53751 0.54814 0.24889 0.0
H1128 H 0.07248 0.78333 0.12634 0.0
H1129 H 0.09848 0.80153 0.10643 0.0
H1130 H 0.07275 0.77512 0.05134 0.0
H1131 H 0.04658 0.75718 0.07102 0.0
H1132 H 0.12798 0.78684 0.07985 0.0
H1133 H 0.07307 0.83585 0.04032 0.0
H1134 H 0.06595 0.82147 0.06229 0.0
H1135 H 0.06694 0.80926 0.03765 0.0
C1136 C 0.07241 0.78137 0.10999 0.0
C1137 C 0.05741 0.76897 0.10022 0.0
C1138 C 0.08722 0.79178 0.09866 0.0
C1139 C 0.08721 0.78997 0.07742 0.0
C1140 C 0.07267 0.7771 0.06769 0.0
H1141 H 0.18728 0.82059 -0.00336 0.0
H1142 H 0.15955 0.80376 0.01533 0.0
C1143 C 0.05784 0.76676 0.07897 0.0
C1144 C 0.10259 0.80131 0.0654 0.0
H1145 H 0.10753 0.8358 0.02783 0.0
C1146 C 0.12355 0.79762 0.06854 0.0
C1147 C 0.0967 0.81555 0.05087 0.0
C1148 C 0.07445 0.82095 0.04768 0.0
C1149 C 0.13882 0.80748 0.05719 0.0
C1150 C 0.13289 0.82107 0.04206 0.0
C1151 C 0.11196 0.82514 0.03925 0.0
C1152 C 0.14829 0.83142 0.02923 0.0
C1153 C 0.16118 0.80347 0.06168 0.0
C1154 C 0.1504 0.85262 0.03009 0.0
C1155 C 0.16609 0.86231 0.01927 0.0
C1156 C 0.17988 0.85091 0.00743 0.0
C1157 C 0.17701 0.82976 0.00579 0.0
C1158 C 0.16129 0.82011 0.01655 0.0
H1159 H 0.16319 0.79699 0.07694 0.0
H1160 H 0.16708 0.7924 0.05029 0.0
H1161 H 0.1707 0.8176 0.06082 0.0
H1162 H 0.14037 0.8616 0.03969 0.0
H1163 H 0.16787 0.87864 0.02077 0.0
H1164 H 0.70048 0.86399 0.55522 0.0
H1165 H 0.68682 0.88245 0.58463 0.0
H1166 H 0.72541 0.93427 0.57074 0.0
H1167 H 0.73902 0.91608 0.54112 0.0
H1168 H 0.70782 0.89949 0.61828 0.0
H1169 H 0.66725 0.95779 0.5747 0.0
H1170 H 0.6766 0.93471 0.56306 0.0
H1171 H 0.69416 0.95544 0.56888 0.0
C1172 C 0.7061 0.87931 0.55839 0.0
C1173 C 0.72076 0.8886 0.54573 0.0
C1174 C 0.69828 0.88981 0.57521 0.0
C1175 C 0.70489 0.90979 0.57963 0.0
C1176 C 0.71983 0.91898 0.56732 0.0
H1177 H 0.6829 0.97477 0.69379 0.0
H1178 H 0.69888 0.95902 0.66392 0.0
C1179 C 0.72766 0.90851 0.55048 0.0
C1180 C 0.69618 0.92093 0.59721 0.0
H1181 H 0.66766 0.96207 0.61045 0.0
C1182 C 0.69907 0.91319 0.61661 0.0
C1183 C 0.68459 0.93865 0.59487 0.0
C1184 C 0.68026 0.94709 0.57426 0.0
C1185 C 0.6907 0.92277 0.63382 0.0
C1186 C 0.67945 0.94072 0.63153 0.0
C1187 C 0.67648 0.94841 0.61212 0.0
C1188 C 0.66994 0.95128 0.64904 0.0
C1189 C 0.69353 0.91335 0.65425 0.0
C1190 C 0.64844 0.95272 0.65018 0.0
C1191 C 0.63927 0.9618 0.66714 0.0
C1192 C 0.65149 0.96965 0.6832 0.0
C1193 C 0.67308 0.96874 0.68171 0.0
C1194 C 0.68223 0.95967 0.66473 0.0
H1195 H 0.69834 0.89731 0.6528 0.0
H1196 H 0.70568 0.92196 0.66283 0.0
H1197 H 0.67906 0.91392 0.66322 0.0
H1198 H 0.63873 0.94641 0.63814 0.0
H1199 H 0.6226 0.96235 0.66781 0.0
H1200 H 0.80715 0.01707 0.30423 0.0
H1201 H 0.79764 0.00634 0.33835 0.0
H1202 H 0.84375 0.96017 0.33526 0.0
H1203 H 0.85362 0.97097 0.30151 0.0
H1204 H 0.7828 0.96976 0.34999 0.0
H1205 H 0.85639 0.98676 0.38975 0.0
H1206 H 0.85074 -0.00352 0.36503 0.0
H1207 H 0.86013 0.97114 0.36751 0.0
C1208 C 0.81533 0.0047 0.31087 0.0
C1209 C 0.8312 -0.00507 0.30018 0.0
C1210 C 0.80992 -0.00136 0.33037 0.0
C1211 C 0.82033 0.98279 0.33951 0.0
C1212 C 0.83595 0.97286 0.32876 0.0
H1213 H 0.80442 0.89701 0.43067 0.0
H1214 H 0.81593 0.91949 0.4038 0.0
C1215 C 0.84144 0.97894 0.30936 0.0
C1216 C 0.81408 0.97563 0.35975 0.0
H1217 H 0.83335 0.96276 0.40579 0.0
C1218 C 0.79372 0.96862 0.36235 0.0
C1219 C 0.82836 0.97426 0.37588 0.0
C1220 C 0.85006 0.98277 0.37449 0.0
C1221 C 0.78757 0.95914 0.38023 0.0
C1222 C 0.80217 0.95678 0.39588 0.0
C1223 C 0.82227 0.96456 0.39367 0.0
C1224 C 0.79722 0.94458 0.41375 0.0
C1225 C 0.76583 0.95077 0.3819 0.0
C1226 C 0.78342 0.95159 0.42855 0.0
C1227 C 0.77687 0.93882 0.44399 0.0
C1228 C 0.78397 0.91884 0.44472 0.0
C1229 C 0.79861 0.91228 0.43044 0.0
C1230 C 0.80523 0.92509 0.41512 0.0
H1231 H 0.75708 0.95192 0.3675 0.0
H1232 H 0.76602 0.93461 0.38625 0.0
H1233 H 0.75753 0.9593 0.39396 0.0
H1234 H 0.77721 0.96667 0.42774 0.0
H1235 H 0.7656 0.94429 0.4548 0.0
H1236 H 0.7999 0.10774 0.05342 0.0
H1237 H 0.81662 0.08955 0.08054 0.0
H1238 H 0.78352 0.0347 0.06246 0.0
H1239 H 0.76701 0.0527 0.03499 0.0
H1240 H 0.79546 0.07235 0.11169 0.0
H1241 H 0.84186 0.01451 0.07102 0.0
H1242 H 0.83167 0.0363 0.05863 0.0
H1243 H 0.81524 0.01471 0.06353 0.0
C1244 C 0.79645 0.09172 0.05497 0.0
C1245 C 0.7821 0.08165 0.04213 0.0
C1246 C 0.80601 0.08136 0.07047 0.0
C1247 C 0.80141 0.06076 0.07341 0.0
C1248 C 0.78759 0.05049 0.06021 0.0
H1249 H 0.81719 0.00356 0.18988 0.0
H1250 H 0.80304 0.01557 0.15801 0.0
C1251 C 0.77809 0.06083 0.04459 0.0
C1252 C 0.80961 0.05068 0.09143 0.0
H1253 H 0.83849 0.01111 0.10672 0.0
C1254 C 0.80491 0.05898 0.11061 0.0
C1255 C 0.82199 0.03331 0.08992 0.0
C1256 C 0.82817 0.02426 0.06967 0.0
C1257 C 0.81227 0.05042 0.12837 0.0
C1258 C 0.82426 0.03279 0.12691 0.0
C1259 C 0.82906 0.02449 0.10774 0.0
C1260 C 0.83276 0.02342 0.14517 0.0
C1261 C 0.80755 0.06063 0.14851 0.0
C1262 C 0.85416 0.02309 0.14809 0.0
C1263 C 0.86228 0.01612 0.16618 0.0
C1264 C 0.84911 0.00936 0.18165 0.0
C1265 C 0.82771 0.00886 0.17832 0.0
C1266 C 0.8196 0.01577 0.16017 0.0
H1267 H 0.80247 0.07647 0.14668 0.0
H1268 H 0.79494 0.05209 0.15608 0.0
H1269 H 0.82126 0.06085 0.15862 0.0
H1270 H 0.86455 0.02887 0.13663 0.0
H1271 H 0.87885 0.01657 0.16825 0.0
H1272 H 0.64304 0.02492 0.79765 0.0
H1273 H 0.65431 0.04187 0.82914 0.0
H1274 H 0.70167 -0.0024 0.83614 0.0
H1275 H 0.69075 0.98067 0.80443 0.0
H1276 H 0.6563 0.02634 0.86805 0.0
H1277 H 0.73366 0.05159 0.84109 0.0
H1278 H 0.71363 0.04248 0.82399 0.0
H1279 H 0.72823 0.02487 0.83827 0.0
C1280 C 0.65589 0.01878 0.80583 0.0
C1281 C 0.66608 0.0015 0.79845 0.0
C1282 C 0.66228 0.02848 0.82384 0.0
C1283 C 0.67898 0.02113 0.83478 0.0
C1284 C 0.689 0.00372 0.82768 0.0
H1285 H 0.73639 0.06902 0.94628 0.0
H1286 H 0.7264 0.04704 0.91735 0.0
C1287 C 0.68267 -0.00597 0.8096 0.0
C1288 C 0.68568 0.03169 0.85374 0.0
H1289 H 0.72574 0.0586 0.87546 0.0
C1290 C 0.67149 0.03336 0.86971 0.0
C1291 C 0.70554 0.04074 0.85582 0.0
C1292 C 0.72113 0.04003 0.83885 0.0
C1293 C 0.6766 0.044 0.88771 0.0
C1294 C 0.6963 0.05338 0.88962 0.0
C1295 C 0.71066 0.05132 0.87387 0.0
C1296 C 0.70193 0.06628 0.90743 0.0
C1297 C 0.6609 0.04514 0.90455 0.0
C1298 C 0.69156 0.08441 0.91121 0.0
C1299 C 0.69724 0.09702 0.92762 0.0
C1300 C 0.71344 0.09173 0.94053 0.0
C1301 C 0.7238 0.07351 0.93667 0.0
C1302 C 0.71815 0.06094 0.92017 0.0
H1303 H 0.64884 0.03302 0.90288 0.0
H1304 H 0.66841 0.04388 0.9196 0.0
H1305 H 0.65321 0.06 0.90417 0.0
H1306 H 0.67923 0.08893 0.9013 0.0
H1307 H 0.68897 0.11096 0.93011 0.0
H1308 H 0.57642 0.72365 0.88016 0.0
H1309 H 0.60683 0.70933 0.89607 0.0
H1310 H 0.58169 0.72294 0.95522 0.0
H1311 H 0.55122 0.73719 0.93952 0.0
H1312 H 0.63533 0.7281 0.92505 0.0
H1313 H 0.59322 0.66101 0.95503 0.0
H1314 H 0.58287 0.67639 0.93529 0.0
H1315 H 0.58202 0.68506 0.96129 0.0
C1316 C 0.5774 0.72365 0.89656 0.0
C1317 C 0.56139 0.73141 0.90861 0.0
C1318 C 0.59477 0.7155 0.90559 0.0
C1319 C 0.59628 0.71485 0.92677 0.0
C1320 C 0.58059 0.72304 0.93883 0.0
H1321 H 0.69986 0.6925 0.00445 0.0
H1322 H 0.67131 0.70695 0.98583 0.0
C1323 C 0.56326 0.73125 0.92983 0.0
C1324 C 0.61419 0.70545 0.93631 0.0
H1325 H 0.62773 0.66637 0.96622 0.0
C1326 C 0.63374 0.71456 0.93399 0.0
C1327 C 0.612 0.68765 0.94769 0.0
C1328 C 0.59144 0.6768 0.94988 0.0
C1329 C 0.65117 0.70658 0.94326 0.0
C1330 C 0.64884 0.68919 0.95525 0.0
C1331 C 0.62938 0.6798 0.95713 0.0
C1332 C 0.66638 0.68059 0.96617 0.0
C1333 C 0.67194 0.7167 0.94006 0.0
C1334 C 0.67275 0.66085 0.9615 0.0
C1335 C 0.68901 0.6525 0.97215 0.0
C1336 C 0.69906 0.66372 0.98777 0.0
C1337 C 0.69251 0.68347 0.99247 0.0
C1338 C 0.67628 0.69181 0.98178 0.0
H1339 H 0.67192 0.72662 0.92667 0.0
H1340 H 0.67595 0.72625 0.95362 0.0
H1341 H 0.68412 0.70525 0.93798 0.0
H1342 H 0.66516 0.65194 0.94957 0.0
H1343 H 0.69364 0.63723 0.96816 0.0
H1344 H 0.08839 0.05012 0.78526 0.0
H1345 H 0.07663 0.08223 0.79977 0.0
H1346 H 0.02736 0.08289 0.75585 0.0
H1347 H 0.03875 0.05051 0.74144 0.0
H1348 H 0.07322 0.11912 0.78117 0.0
H1349 H -0.00295 0.09175 0.80935 0.0
H1350 H 0.01702 0.07467 0.80138 0.0
H1351 H 0.00163 0.08697 0.78283 0.0
C1352 C 0.07499 0.05702 0.77872 0.0
C1353 C 0.06443 0.04769 0.76226 0.0
C1354 C 0.06832 0.07538 0.78701 0.0
C1355 C 0.05099 0.08478 0.77904 0.0
C1356 C 0.04052 0.07566 0.76249 0.0
H1357 H -0.00494 0.19861 0.81953 0.0
H1358 H 0.00427 0.16877 0.79889 0.0
C1359 C 0.04711 0.0572 0.75423 0.0
C1360 C 0.04423 0.1043 0.78796 0.0
H1361 H 0.00472 0.12673 0.81357 0.0
C1362 C 0.05821 0.12081 0.78818 0.0
C1363 C 0.0246 0.10645 0.79701 0.0
C1364 C 0.00924 0.089 0.79783 0.0
C1365 C 0.05322 0.13937 0.79751 0.0
C1366 C 0.03381 0.14134 0.80696 0.0
C1367 C 0.01957 0.12508 0.80623 0.0
C1368 C 0.02861 0.15968 0.81895 0.0
C1369 C 0.06876 0.15668 0.79736 0.0
C1370 C 0.03918 0.16422 0.83707 0.0
C1371 C 0.03392 0.18109 0.84893 0.0
C1372 C 0.01797 0.19376 0.84286 0.0
C1373 C 0.00746 0.1892 0.82459 0.0
C1374 C 0.01266 0.17218 0.8128 0.0
H1375 H 0.08066 0.15442 0.78546 0.0
H1376 H 0.06105 0.1713 0.79485 0.0
H1377 H 0.07667 0.15777 0.81229 0.0
H1378 H 0.05135 0.15454 0.84217 0.0
H1379 H 0.04233 0.18416 0.8629 0.0
H1380 H 0.94174 0.23987 0.44461 0.0
H1381 H 0.90992 0.25603 0.45552 0.0
H1382 H 0.91671 0.29958 0.4081 0.0
H1383 H 0.9484 0.28339 0.39685 0.0
H1384 H 0.90467 0.29628 0.46861 0.0
H1385 H 0.85769 0.27753 0.39991 0.0
H1386 H 0.88164 0.26521 0.40522 0.0
H1387 H 0.88187 0.2903 0.39518 0.0
C1388 C 0.93645 0.25284 0.43643 0.0
C1389 C 0.94757 0.26028 0.41979 0.0
C1390 C 0.91828 0.26205 0.4427 0.0
C1391 C 0.91086 0.2788 0.43243 0.0
C1392 C 0.92199 0.28641 0.41596 0.0
H1393 H 0.8013 0.35109 0.45433 0.0
H1394 H 0.83426 0.33868 0.44141 0.0
C1395 C 0.94015 0.27719 0.40964 0.0
C1396 C 0.89169 0.28852 0.43932 0.0
H1397 H 0.84243 0.29859 0.42497 0.0
C1398 C 0.89106 0.2968 0.45908 0.0
C1399 C 0.87404 0.28925 0.42677 0.0
C1400 C 0.87368 0.27996 0.40564 0.0
C1401 C 0.87316 0.30575 0.4667 0.0
C1402 C 0.85541 0.30615 0.45429 0.0
C1403 C 0.85614 0.29825 0.43439 0.0
C1404 C 0.83563 0.31376 0.46208 0.0
C1405 C 0.87338 0.31476 0.48794 0.0
C1406 C 0.82546 0.30364 0.47773 0.0
C1407 C 0.80669 0.3106 0.4851 0.0
C1408 C 0.79769 0.32783 0.47689 0.0
C1409 C 0.80785 0.33784 0.46103 0.0
C1410 C 0.82664 0.33079 0.45362 0.0
H1411 H 0.88934 0.31795 0.49341 0.0
H1412 H 0.8646 0.32903 0.48871 0.0
H1413 H 0.86598 0.30384 0.49837 0.0
H1414 H 0.83201 0.29025 0.48419 0.0
H1415 H 0.79927 0.30247 0.49726 0.0
H1416 H 0.61932 0.90735 0.7692 0.0
H1417 H 0.59571 0.8816 0.78206 0.0
H1418 H 0.54402 0.91921 0.76862 0.0
H1419 H 0.56776 0.94555 0.7563 0.0
H1420 H 0.53987 0.90402 0.80488 0.0
H1421 H 0.55962 0.84138 0.7523 0.0
H1422 H 0.58263 0.85125 0.76423 0.0
H1423 H 0.56788 0.86722 0.74804 0.0
C1424 C 0.60293 0.91012 0.76879 0.0
C1425 C 0.59541 0.92846 0.76163 0.0
C1426 C 0.58941 0.89528 0.77599 0.0
C1427 C 0.56805 0.89821 0.77578 0.0
C1428 C 0.56044 0.91653 0.7687 0.0
H1429 H 0.50113 0.78982 0.81668 0.0
H1430 H 0.50997 0.81862 0.79533 0.0
C1431 C 0.57401 0.93156 0.7617 0.0
C1432 C 0.554 0.88259 0.78428 0.0
H1433 H 0.54598 0.83141 0.78508 0.0
C1434 C 0.54086 0.88817 0.80027 0.0
C1435 C 0.55474 0.86199 0.7779 0.0
C1436 C 0.56681 0.85518 0.75951 0.0
C1437 C 0.52973 0.87352 0.81107 0.0
C1438 C 0.5324 0.85273 0.80618 0.0
C1439 C 0.54424 0.8473 0.78917 0.0
C1440 C 0.52474 0.83638 0.81947 0.0
C1441 C 0.5155 0.88053 0.82778 0.0
C1442 C 0.53001 0.83679 0.84013 0.0
C1443 C 0.52472 0.82054 0.85237 0.0
C1444 C 0.5145 0.8033 0.84409 0.0
C1445 C 0.50905 0.80291 0.82346 0.0
C1446 C 0.51406 0.81935 0.81127 0.0
H1447 H 0.50886 0.89545 0.82427 0.0
H1448 H 0.50267 0.86947 0.83022 0.0
H1449 H 0.52439 0.88252 0.84209 0.0
H1450 H 0.53889 0.84937 0.84669 0.0
H1451 H 0.52931 0.82119 0.86817 0.0
H1452 H 0.98615 0.16113 0.37454 0.0
H1453 H 0.97162 0.13444 0.35232 0.0
H1454 H 0.96571 0.17719 0.30428 0.0
H1455 H 0.98043 0.20409 0.32635 0.0
H1456 H 0.93202 0.13599 0.33533 0.0
H1457 H -0.00767 0.12741 0.2761 0.0
H1458 H -0.00259 0.13953 0.30049 0.0
H1459 H 0.98423 0.15294 0.28113 0.0
C1460 C 0.98199 0.16488 0.35918 0.0
C1461 C 0.98437 0.1848 0.35225 0.0
C1462 C 0.97372 0.14957 0.34651 0.0
C1463 C 0.9678 0.15383 0.32664 0.0
C1464 C 0.97054 0.17355 0.31947 0.0
H1465 H 0.87845 0.08517 0.25473 0.0
H1466 H 0.89937 0.11198 0.27118 0.0
C1467 C 0.97882 0.18892 0.33216 0.0
C1468 C 0.95715 0.13798 0.31412 0.0
H1469 H 0.96052 0.10965 0.2703 0.0
C1470 C 0.93826 0.1302 0.32113 0.0
C1471 C 0.96546 0.13043 0.2957 0.0
C1472 C 0.98606 0.13784 0.28792 0.0
C1473 C 0.9273 0.11515 0.3101 0.0
C1474 C 0.93535 0.10789 0.29147 0.0
C1475 C 0.95437 0.11545 0.28453 0.0
C1476 C 0.92414 0.09224 0.27925 0.0
C1477 C 0.90727 0.10693 0.31856 0.0
C1478 C 0.93156 0.07246 0.27778 0.0
C1479 C 0.91965 0.05704 0.2684 0.0
C1480 C 0.90014 0.06124 0.26032 0.0
C1481 C 0.8933 0.08135 0.26094 0.0
C1482 C 0.90521 0.09671 0.27032 0.0
H1483 H 0.90535 0.11113 0.33486 0.0
H1484 H 0.8942 0.11322 0.31004 0.0
H1485 H 0.9064 0.09015 0.31684 0.0
H1486 H 0.94619 0.0688 0.28459 0.0
H1487 H 0.92542 0.04175 0.26809 0.0
H1488 H 0.5611 0.03314 0.72476 0.0
H1489 H 0.54468 0.06446 0.7146 0.0
H1490 H 0.60212 0.09743 0.72374 0.0
H1491 H 0.61872 0.06625 0.7337 0.0
H1492 H 0.54125 0.10431 0.73418 0.0
H1493 H 0.58729 0.10477 0.66312 0.0
H1494 H 0.58501 0.08276 0.67877 0.0
H1495 H 0.60211 0.10343 0.68606 0.0
C1496 C 0.57018 0.0471 0.72482 0.0
C1497 C 0.59127 0.04719 0.72978 0.0
C1498 C 0.56076 0.06496 0.71907 0.0
C1499 C 0.5723 0.08313 0.71817 0.0
C1500 C 0.59306 0.08347 0.72408 0.0
H1501 H 0.53184 0.2052 0.69325 0.0
H1502 H 0.54381 0.17483 0.71006 0.0
C1503 C 0.6025 0.06564 0.72978 0.0
C1504 C 0.56304 0.10141 0.70974 0.0
H1505 H 0.56649 0.13312 0.66973 0.0
C1506 C 0.54671 0.11066 0.7201 0.0
C1507 C 0.57009 0.10941 0.69123 0.0
C1508 C 0.58697 0.09952 0.67901 0.0
C1509 C 0.53737 0.12796 0.71249 0.0
C1510 C 0.54474 0.13619 0.6942 0.0
C1511 C 0.56096 0.12681 0.68382 0.0
C1512 C 0.53568 0.15428 0.68513 0.0
C1513 C 0.51949 0.13706 0.72383 0.0
C1514 C 0.52722 0.15277 0.66558 0.0
C1515 C 0.52057 0.17004 0.65591 0.0
C1516 C 0.52231 0.18919 0.6656 0.0
C1517 C 0.53025 0.19063 0.68543 0.0
C1518 C 0.53698 0.1733 0.6951 0.0
H1519 H 0.51268 0.12634 0.73485 0.0
H1520 H 0.52494 0.15083 0.73237 0.0
H1521 H 0.50725 0.14161 0.71317 0.0
H1522 H 0.52614 0.13823 0.65763 0.0
H1523 H 0.51445 0.1684 0.64066 0.0
H1524 H 0.19987 0.31695 0.96238 0.0
H1525 H 0.16818 0.30512 0.94542 0.0
H1526 H 0.15319 0.36691 0.93237 0.0
H1527 H 0.18449 0.37889 0.94992 0.0
H1528 H 0.12084 0.34716 0.94723 0.0
H1529 H 0.15525 0.30024 0.88594 0.0
H1530 H 0.16355 0.2928 0.91056 0.0
H1531 H 0.17043 0.31762 0.90164 0.0
C1532 C 0.18989 0.32799 0.95575 0.0
C1533 C 0.19463 0.34882 0.95743 0.0
C1534 C 0.17187 0.3212 0.94594 0.0
C1535 C 0.15853 0.33512 0.9373 0.0
C1536 C 0.16333 0.35592 0.93886 0.0
H1537 H 0.0564 0.29631 0.8587 0.0
H1538 H 0.08812 0.31215 0.87222 0.0
C1539 C 0.1812 0.36273 0.94887 0.0
C1540 C 0.13903 0.32807 0.92758 0.0
H1541 H 0.1191 0.29514 0.89173 0.0
C1542 C 0.12046 0.33593 0.93496 0.0
C1543 C 0.13859 0.31368 0.91135 0.0
C1544 C 0.15804 0.30576 0.90176 0.0
C1545 C 0.1014 0.32936 0.92692 0.0
C1546 C 0.10092 0.31409 0.91152 0.0
C1547 C 0.1195 0.30667 0.90373 0.0
C1548 C 0.08131 0.30532 0.90349 0.0
C1549 C 0.08204 0.33903 0.93489 0.0
C1550 C 0.06704 0.29617 0.91658 0.0
C1551 C 0.04883 0.28735 0.90893 0.0
C1552 C 0.04478 0.28719 0.88801 0.0
C1553 C 0.05913 0.29623 0.8749 0.0
C1554 C 0.07724 0.30526 0.88259 0.0
H1555 H 0.08532 0.35443 0.94144 0.0
H1556 H 0.07027 0.34022 0.92277 0.0
H1557 H 0.07547 0.32962 0.94713 0.0
H1558 H 0.07013 0.29555 0.93269 0.0
H1559 H 0.03814 0.2803 0.91937 0.0
H1560 H 0.45605 0.7133 0.44275 0.0
H1561 H 0.42225 0.70287 0.45574 0.0
H1562 H 0.39253 0.73466 0.40779 0.0
H1563 H 0.42623 0.74517 0.39456 0.0
H1564 H 0.37668 0.74024 0.45138 0.0
H1565 H 0.38334 0.66055 0.42281 0.0
H1566 H 0.40511 0.6714 0.43642 0.0
H1567 H 0.39815 0.68127 0.4123 0.0
C1568 C 0.44234 0.71819 0.43501 0.0
C1569 C 0.44383 0.72997 0.41755 0.0
C1570 C 0.42308 0.71218 0.44244 0.0
C1571 C 0.40503 0.71792 0.43259 0.0
C1572 C 0.40637 0.73009 0.41551 0.0
H1573 H 0.27446 0.6956 0.45573 0.0
H1574 H 0.30748 0.70976 0.44426 0.0
C1575 C 0.42563 0.73601 0.40798 0.0
C1576 C 0.38475 0.71069 0.43982 0.0
H1577 H 0.35426 0.6682 0.44274 0.0
C1578 C 0.37167 0.72452 0.44949 0.0
C1579 C 0.37844 0.69019 0.43727 0.0
C1580 C 0.39187 0.67493 0.42652 0.0
C1581 C 0.35245 0.71823 0.45713 0.0
C1582 C 0.34609 0.69768 0.45456 0.0
C1583 C 0.35919 0.68393 0.44472 0.0
C1584 C 0.32605 0.68992 0.46214 0.0
C1585 C 0.33941 0.73348 0.46835 0.0
C1586 C 0.32557 0.67386 0.4757 0.0
C1587 C 0.30678 0.66557 0.48205 0.0
C1588 C 0.28809 0.6732 0.47497 0.0
C1589 C 0.28859 0.68948 0.46157 0.0
C1590 C 0.30744 0.69767 0.4551 0.0
H1591 H 0.34873 0.74685 0.47377 0.0
H1592 H 0.32736 0.73895 0.45798 0.0
H1593 H 0.33164 0.72656 0.48158 0.0
H1594 H 0.33977 0.66763 0.48126 0.0
H1595 H 0.30695 0.65308 0.49243 0.0
H1596 H 0.79073 0.50954 0.79184 0.0
H1597 H 0.77352 0.51999 0.82334 0.0
H1598 H 0.8277 0.50523 0.85746 0.0
H1599 H 0.84509 0.49499 0.82613 0.0
H1600 H 0.76611 0.50139 0.86337 0.0
H1601 H 0.82031 0.56782 0.86485 0.0
H1602 H 0.81662 0.55171 0.84261 0.0
H1603 H 0.83225 0.54349 0.86324 0.0
C1604 C 0.79881 0.50811 0.8061 0.0
C1605 C 0.81937 0.50177 0.8065 0.0
C1606 C 0.78895 0.51404 0.82406 0.0
C1607 C 0.7995 0.51364 0.8426 0.0
C1608 C 0.81943 0.50585 0.84321 0.0
H1609 H 0.76069 0.54737 0.9647 0.0
H1610 H 0.76965 0.52794 0.93396 0.0
C1611 C 0.82933 0.50003 0.8253 0.0
C1612 C 0.79073 0.52355 0.86086 0.0
H1613 H 0.79806 0.5644 0.89282 0.0
C1614 C 0.77302 0.51516 0.86987 0.0
C1615 C 0.79968 0.54167 0.86902 0.0
C1616 C 0.81816 0.55186 0.85938 0.0
C1617 C 0.76418 0.52436 0.88713 0.0
C1618 C 0.77344 0.54224 0.89554 0.0
C1619 C 0.79103 0.55065 0.88636 0.0
C1620 C 0.76524 0.55285 0.91372 0.0
C1621 C 0.74485 0.51513 0.89603 0.0
C1622 C 0.75973 0.57323 0.91249 0.0
C1623 C 0.75488 0.5844 0.92998 0.0
C1624 C 0.75544 0.57538 0.94906 0.0
C1625 C 0.76008 0.55471 0.9502 0.0
C1626 C 0.76507 0.54355 0.93264 0.0
H1627 H 0.73696 0.5045 0.88511 0.0
H1628 H 0.74896 0.50652 0.90966 0.0
H1629 H 0.73392 0.52709 0.90075 0.0
H1630 H 0.75983 0.5807 0.89803 0.0
H1631 H 0.75125 0.60026 0.92859 0.0
H1632 H 0.60602 0.51178 0.16845 0.0
H1633 H 0.62561 0.52694 0.14086 0.0
H1634 H 0.6768 0.53898 0.18142 0.0
H1635 H 0.65742 0.52368 0.20914 0.0
H1636 H 0.64118 0.5669 0.14016 0.0
H1637 H 0.70346 0.51076 0.1318 0.0
H1638 H 0.67973 0.5054 0.14515 0.0
H1639 H 0.69983 0.52046 0.1572 0.0
C1640 C 0.6215 0.51751 0.17152 0.0
C1641 C 0.63016 0.5165 0.19102 0.0
C1642 C 0.63265 0.52616 0.15572 0.0
C1643 C 0.6527 0.53383 0.15908 0.0
C1644 C 0.66147 0.53279 0.17846 0.0
H1645 H 0.72107 0.6207 0.08865 0.0
H1646 H 0.70247 0.60219 0.11479 0.0
C1647 C 0.65032 0.52415 0.1943 0.0
C1648 C 0.66402 0.54382 0.14252 0.0
H1649 H 0.70764 0.54137 0.11374 0.0
C1650 C 0.65566 0.56129 0.13431 0.0
C1651 C 0.68278 0.5363 0.13483 0.0
C1652 C 0.69194 0.51709 0.14254 0.0
C1653 C 0.66581 0.5717 0.11883 0.0
C1654 C 0.68491 0.56456 0.1116 0.0
C1655 C 0.69306 0.54686 0.11949 0.0
C1656 C 0.69668 0.57543 0.09592 0.0
C1657 C 0.65596 0.59017 0.11022 0.0
C1658 C 0.69997 0.56625 0.07685 0.0
C1659 C 0.71063 0.57676 0.06184 0.0
C1660 C 0.71829 0.59657 0.06575 0.0
C1661 C 0.71529 0.60552 0.08507 0.0
C1662 C 0.7046 0.59501 0.10002 0.0
H1663 H 0.63927 0.59078 0.1139 0.0
H1664 H 0.66361 0.60402 0.11675 0.0
H1665 H 0.65779 0.5904 0.09348 0.0
H1666 H 0.69402 0.55108 0.07349 0.0
H1667 H 0.71274 0.5694 0.04717 0.0
H1668 H 0.7252 0.38804 0.41237 0.0
H1669 H 0.71595 0.41023 0.38501 0.0
H1670 H 0.73526 0.46247 0.42132 0.0
H1671 H 0.74379 0.44025 0.44924 0.0
H1672 H 0.69916 0.4685 0.4066 0.0
H1673 H 0.74654 0.44067 0.3432 0.0
H1674 H 0.73269 0.41962 0.35361 0.0
H1675 H 0.75138 0.43357 0.36901 0.0
C1676 C 0.72786 0.40422 0.41443 0.0
C1677 C 0.73518 0.41241 0.43297 0.0
C1678 C 0.72274 0.41691 0.39865 0.0
C1679 C 0.72529 0.43804 0.40089 0.0
C1680 C 0.7333 0.44622 0.41918 0.0
H1681 H 0.68113 0.49808 0.29196 0.0
H1682 H 0.70456 0.4906 0.31986 0.0
C1683 C 0.73816 0.43351 0.43511 0.0
C1684 C 0.71728 0.45143 0.38504 0.0
H1685 H 0.71352 0.4553 0.33372 0.0
C1686 C 0.70269 0.46595 0.39069 0.0
C1687 C 0.72222 0.44863 0.36428 0.0
C1688 C 0.73926 0.43493 0.35724 0.0
C1689 C 0.6917 0.47645 0.37608 0.0
C1690 C 0.69486 0.47177 0.35529 0.0
C1691 C 0.7107 0.45858 0.34965 0.0
C1692 C 0.68062 0.47862 0.33934 0.0
C1693 C 0.6765 0.49211 0.38316 0.0
C1694 C 0.65938 0.47446 0.34102 0.0
C1695 C 0.64598 0.47893 0.32527 0.0
C1696 C 0.6536 0.48725 0.30729 0.0
C1697 C 0.67482 0.49168 0.30566 0.0
C1698 C 0.68822 0.48742 0.32158 0.0
H1699 H 0.68173 0.49962 0.39756 0.0
H1700 H 0.67427 0.50391 0.37167 0.0
H1701 H 0.66142 0.48453 0.38617 0.0
H1702 H 0.65319 0.46706 0.35424 0.0
H1703 H 0.62975 0.47515 0.32692 0.0
H1704 H 0.85829 0.48616 0.66201 0.0
H1705 H 0.8394 0.47094 0.63334 0.0
H1706 H 0.78981 0.45348 0.6732 0.0
H1707 H 0.80855 0.46882 0.70212 0.0
H1708 H 0.82797 0.42947 0.63108 0.0
H1709 H 0.76029 0.47929 0.6245 0.0
H1710 H 0.78352 0.4871 0.63792 0.0
H1711 H 0.76527 0.47012 0.64946 0.0
C1712 C 0.84326 0.47931 0.66472 0.0
C1713 C 0.83498 0.47862 0.68441 0.0
C1714 C 0.83249 0.47065 0.64829 0.0
C1715 C 0.81319 0.46126 0.65116 0.0
C1716 C 0.80457 0.46096 0.67066 0.0
H1717 H 0.75535 0.3695 0.57373 0.0
H1718 H 0.76926 0.38984 0.60215 0.0
C1719 C 0.81535 0.46963 0.68716 0.0
C1720 C 0.80298 0.45033 0.634 0.0
H1721 H 0.75998 0.44912 0.60408 0.0
C1722 C 0.81313 0.43378 0.62513 0.0
C1723 C 0.78371 0.45614 0.62626 0.0
C1724 C 0.77257 0.47423 0.63487 0.0
C1725 C 0.8044 0.42269 0.60882 0.0
C1726 C 0.78492 0.4282 0.60137 0.0
C1727 C 0.77486 0.44491 0.61001 0.0
C1728 C 0.77491 0.41662 0.58455 0.0
C1729 C 0.81613 0.40526 0.59955 0.0
C1730 C 0.77304 0.42521 0.56541 0.0
C1731 C 0.76514 0.41363 0.54907 0.0
C1732 C 0.75888 0.39331 0.55169 0.0
C1733 C 0.76014 0.38505 0.57112 0.0
C1734 C 0.76808 0.39661 0.58739 0.0
H1735 H 0.83257 0.40561 0.60429 0.0
H1736 H 0.80903 0.39074 0.60447 0.0
H1737 H 0.81538 0.40552 0.58274 0.0
H1738 H 0.77823 0.44068 0.56301 0.0
H1739 H 0.76428 0.42049 0.53434 0.0
H1740 H 0.41589 0.05471 0.24826 0.0
H1741 H 0.43033 0.08686 0.23646 0.0
H1742 H 0.36995 0.10437 0.21674 0.0
H1743 H 0.35531 0.07244 0.22883 0.0
H1744 H 0.42949 0.09793 0.19698 0.0
H1745 H 0.39151 0.15606 0.24523 0.0
H1746 H 0.39189 0.1296 0.25167 0.0
H1747 H 0.37371 0.13828 0.23336 0.0
C1748 C 0.40563 0.06555 0.24171 0.0
C1749 C 0.38449 0.06103 0.23938 0.0
C1750 C 0.41389 0.0839 0.23501 0.0
C1751 C 0.40117 0.09807 0.22595 0.0
C1752 C 0.37996 0.09384 0.2241 0.0
H1753 H 0.43748 0.18402 0.13626 0.0
H1754 H 0.42052 0.15774 0.15615 0.0
C1755 C 0.37166 0.07551 0.23086 0.0
C1756 C 0.4104 0.11622 0.21651 0.0
H1757 H 0.40839 0.16788 0.2153 0.0
C1758 C 0.42501 0.11323 0.20112 0.0
C1759 C 0.40461 0.13616 0.22204 0.0
C1760 C 0.38972 0.14028 0.23912 0.0
C1761 C 0.43364 0.12959 0.19075 0.0
C1762 C 0.4272 0.14945 0.19566 0.0
C1763 C 0.41304 0.15257 0.21143 0.0
C1764 C 0.43517 0.16703 0.18443 0.0
C1765 C 0.44964 0.12551 0.17462 0.0
C1766 C 0.44827 0.18144 0.19401 0.0
C1767 C 0.45795 0.19655 0.1827 0.0
C1768 C 0.4546 0.19742 0.16167 0.0
C1769 C 0.44052 0.18364 0.15239 0.0
C1770 C 0.43084 0.1686 0.16371 0.0
H1771 H 0.45639 0.11026 0.17606 0.0
H1772 H 0.44232 0.1262 0.15945 0.0
H1773 H 0.46229 0.1371 0.17541 0.0
H1774 H 0.4517 0.18046 0.21003 0.0
H1775 H 0.46867 0.20701 0.19028 0.0
H1776 H 0.00581 0.78581 0.67512 0.0
H1777 H 0.01702 0.81469 0.69661 0.0
H1778 H 0.0563 0.83606 0.64858 0.0
H1779 H 0.04518 0.80736 0.62692 0.0
H1780 H 0.05848 0.82645 0.70866 0.0
H1781 H 0.01958 0.88499 0.66405 0.0
H1782 H 0.01299 0.85831 0.66165 0.0
H1783 H 0.03557 0.8683 0.64933 0.0
C1784 C 0.01682 0.79665 0.66909 0.0
C1785 C 0.02451 0.79434 0.64924 0.0
C1786 C 0.02322 0.8131 0.68141 0.0
C1787 C 0.03725 0.82756 0.67404 0.0
C1788 C 0.0452 0.82517 0.65439 0.0
H1789 H 0.11472 0.91902 0.72984 0.0
H1790 H 0.09959 0.8877 0.7154 0.0
C1791 C 0.03888 0.80872 0.64208 0.0
C1792 C 0.04372 0.84518 0.68686 0.0
H1793 H 0.04383 0.89685 0.6889 0.0
C1794 C 0.05515 0.84186 0.70449 0.0
C1795 C 0.03904 0.86517 0.68147 0.0
C1796 C 0.02596 0.86948 0.6632 0.0
C1797 C 0.06274 0.85817 0.71652 0.0
C1798 C 0.05892 0.87819 0.71057 0.0
C1799 C 0.04683 0.88145 0.69335 0.0
C1800 C 0.06804 0.89608 0.72136 0.0
C1801 C 0.07482 0.85385 0.73544 0.0
C1802 C 0.05529 0.91116 0.72943 0.0
C1803 C 0.06388 0.92913 0.73758 0.0
C1804 C 0.08536 0.93235 0.73761 0.0
C1805 C 0.09811 0.91696 0.73005 0.0
C1806 C 0.08951 0.899 0.72193 0.0
H1807 H 0.07138 0.83835 0.74094 0.0
H1808 H 0.09155 0.8549 0.73202 0.0
H1809 H 0.07143 0.86504 0.74777 0.0
H1810 H 0.03867 0.90919 0.729 0.0
H1811 H 0.05366 0.94072 0.7433 0.0
H1812 H 0.44057 0.81084 0.357 0.0
H1813 H 0.42729 0.83966 0.33885 0.0
H1814 H 0.46359 0.82298 0.28651 0.0
H1815 H 0.47655 0.79374 0.30443 0.0
H1816 H 0.45119 0.87081 0.3258 0.0
H1817 H 0.40857 0.83516 0.26076 0.0
H1818 H 0.41624 0.82103 0.28254 0.0
H1819 H 0.43468 0.82698 0.26311 0.0
C1820 C 0.44543 0.81308 0.34148 0.0
C1821 C 0.45963 0.80006 0.33213 0.0
C1822 C 0.43785 0.82956 0.33115 0.0
C1823 C 0.44434 0.83339 0.3113 0.0
C1824 C 0.45804 0.82007 0.30167 0.0
H1825 H 0.43162 0.94151 0.23904 0.0
H1826 H 0.44295 0.90933 0.25272 0.0
C1827 C 0.46551 0.80343 0.31196 0.0
C1828 C 0.43814 0.85229 0.30149 0.0
H1829 H 0.4138 0.87096 0.26016 0.0
C1830 C 0.44295 0.87081 0.31148 0.0
C1831 C 0.4275 0.85225 0.28275 0.0
C1832 C 0.42126 0.83279 0.27173 0.0
C1833 C 0.43736 0.8893 0.30328 0.0
C1834 C 0.42667 0.88924 0.28464 0.0
C1835 C 0.42208 0.87082 0.27445 0.0
C1836 C 0.41952 0.90826 0.27598 0.0
C1837 C 0.44288 0.90884 0.31452 0.0
C1838 C 0.40257 0.91808 0.28455 0.0
C1839 C 0.39602 0.93637 0.2768 0.0
C1840 C 0.4064 0.94518 0.26037 0.0
C1841 C 0.42336 0.93518 0.25176 0.0
C1842 C 0.42981 0.91679 0.25947 0.0
H1843 H 0.45382 0.90647 0.32717 0.0
H1844 H 0.44984 0.91995 0.30399 0.0
H1845 H 0.42866 0.91556 0.32089 0.0
H1846 H 0.39446 0.91161 0.2973 0.0
H1847 H 0.3829 0.94364 0.28377 0.0
H1848 H 0.81843 0.60842 0.03893 0.0
H1849 H 0.84888 0.62391 0.05563 0.0
H1850 H 0.83469 0.68147 0.02981 0.0
H1851 H 0.80422 0.6663 0.0134 0.0
H1852 H 0.88335 0.6447 0.03961 0.0
H1853 H 0.83816 0.69464 0.09069 0.0
H1854 H 0.82668 0.67339 0.07678 0.0
H1855 H 0.83138 0.69713 0.0645 0.0
C1856 C 0.82188 0.62435 0.03675 0.0
C1857 C 0.80884 0.63622 0.02505 0.0
C1858 C 0.83923 0.63316 0.0463 0.0
C1859 C 0.84369 0.65391 0.0443 0.0
C1860 C 0.83118 0.66554 0.03195 0.0
H1861 H 0.93615 0.74287 0.06913 0.0
H1862 H 0.90721 0.72121 0.05781 0.0
C1863 C 0.81385 0.65681 0.02249 0.0
C1864 C 0.8614 0.66362 0.05505 0.0
H1865 H 0.87408 0.70324 0.08714 0.0
C1866 C 0.88136 0.65727 0.05027 0.0
C1867 C 0.85867 0.6799 0.06907 0.0
C1868 C 0.83755 0.68654 0.07574 0.0
C1869 C 0.89876 0.66756 0.05834 0.0
C1870 C 0.89597 0.68447 0.07149 0.0
C1871 C 0.87605 0.6903 0.07692 0.0
C1872 C 0.91351 0.69724 0.0786 0.0
C1873 C 0.92001 0.66094 0.05217 0.0
C1874 C 0.9264 0.69088 0.09417 0.0
C1875 C 0.94291 0.70327 0.1008 0.0
C1876 C 0.94677 0.72214 0.09184 0.0
C1877 C 0.93366 0.72842 0.0763 0.0
C1878 C 0.91713 0.7161 0.06981 0.0
H1879 H 0.91951 0.6482 0.04085 0.0
H1880 H 0.92877 0.67388 0.04567 0.0
H1881 H 0.92855 0.65605 0.06574 0.0
H1882 H 0.92366 0.67638 0.10117 0.0
H1883 H 0.95274 0.69799 0.11277 0.0
H1884 H 0.53854 0.26766 0.56913 0.0
H1885 H 0.56452 0.28441 0.54827 0.0
H1886 H 0.60815 0.28268 0.5976 0.0
H1887 H 0.58188 0.26659 0.61889 0.0
H1888 H 0.60864 0.31885 0.58068 0.0
H1889 H 0.61277 0.25962 0.52002 0.0
H1890 H 0.58713 0.26873 0.52351 0.0
H1891 H 0.59948 0.25549 0.54361 0.0
C1892 C 0.55372 0.27071 0.5755 0.0
C1893 C 0.55827 0.26573 0.59559 0.0
C1894 C 0.56858 0.28018 0.56351 0.0
C1895 C 0.58839 0.2844 0.57123 0.0
C1896 C 0.59297 0.27945 0.59131 0.0
H1897 H 0.69692 0.31494 0.50277 0.0
H1898 H 0.66886 0.2986 0.5212 0.0
C1899 C 0.578 0.27024 0.60344 0.0
C1900 C 0.60412 0.29462 0.55859 0.0
H1901 H 0.62932 0.2913 0.51329 0.0
C1902 C 0.61324 0.31279 0.56598 0.0
C1903 C 0.61024 0.28656 0.5395 0.0
C1904 C 0.60205 0.26643 0.53128 0.0
C1905 C 0.62832 0.32317 0.55482 0.0
C1906 C 0.63389 0.3155 0.53541 0.0
C1907 C 0.62479 0.29731 0.52803 0.0
C1908 C 0.65012 0.32537 0.52309 0.0
C1909 C 0.63854 0.34188 0.56422 0.0
C1910 C 0.64864 0.34571 0.51753 0.0
C1911 C 0.66483 0.35521 0.50721 0.0
C1912 C 0.68255 0.34436 0.50197 0.0
C1913 C 0.68348 0.32372 0.50663 0.0
C1914 C 0.66746 0.31435 0.51717 0.0
H1915 H 0.6366 0.34249 0.58096 0.0
H1916 H 0.65528 0.34248 0.56074 0.0
H1917 H 0.6314 0.35557 0.55802 0.0
H1918 H 0.63512 0.35432 0.52144 0.0
H1919 H 0.66363 0.37108 0.50361 0.0
H1920 H 0.21315 0.3662 0.07041 0.0
H1921 H 0.20026 0.38721 0.09842 0.0
H1922 H 0.21385 0.4411 0.06466 0.0
H1923 H 0.22756 0.4202 0.03688 0.0
H1924 H 0.22388 0.44682 0.10342 0.0
H1925 H 0.14511 0.41337 0.09867 0.0
H1926 H 0.16394 0.39438 0.10278 0.0
H1927 H 0.16441 0.40839 0.07965 0.0
C1928 C 0.21346 0.38253 0.06899 0.0
C1929 C 0.22118 0.39156 0.05139 0.0
C1930 C 0.20596 0.39451 0.08494 0.0
C1931 C 0.20555 0.41568 0.08338 0.0
C1932 C 0.21386 0.42477 0.0661 0.0
H1933 H 0.12807 0.48444 0.16667 0.0
H1934 H 0.1438 0.47029 0.1359 0.0
C1935 C 0.22169 0.41282 0.05025 0.0
C1936 C 0.19634 0.42827 0.09976 0.0
H1937 H 0.15309 0.43301 0.12865 0.0
C1938 C 0.20833 0.44395 0.10883 0.0
C1939 C 0.17588 0.42486 0.10646 0.0
C1940 C 0.16153 0.40949 0.09622 0.0
C1941 C 0.20063 0.45586 0.12491 0.0
C1942 C 0.18067 0.45149 0.13252 0.0
C1943 C 0.16848 0.43624 0.12299 0.0
C1944 C 0.17219 0.46205 0.15066 0.0
C1945 C 0.2139 0.47311 0.13335 0.0
C1946 C 0.18297 0.46232 0.16913 0.0
C1947 C 0.17416 0.47074 0.18662 0.0
C1948 C 0.15419 0.47855 0.18603 0.0
C1949 C 0.14347 0.47845 0.16753 0.0
C1950 C 0.15244 0.47038 0.14997 0.0
H1951 H 0.22483 0.47884 0.12175 0.0
H1952 H 0.20442 0.48591 0.1389 0.0
H1953 H 0.22316 0.46762 0.14619 0.0
H1954 H 0.19792 0.45542 0.17022 0.0
H1955 H 0.18267 0.47042 0.20074 0.0
H1956 H 0.30451 0.50584 0.80515 0.0
H1957 H 0.29451 0.49066 0.83734 0.0
H1958 H 0.34162 0.446 0.82957 0.0
H1959 H 0.35186 0.46104 0.79749 0.0
H1960 H 0.2972 0.43236 0.83945 0.0
H1961 H 0.33228 0.4914 0.8913 0.0
H1962 H 0.31758 0.4995 0.86986 0.0
H1963 H 0.34159 0.48707 0.86578 0.0
C1964 C 0.31273 0.49277 0.81026 0.0
C1965 C 0.329 0.48465 0.79877 0.0
C1966 C 0.30706 0.48421 0.82868 0.0
C1967 C 0.3175 0.4674 0.83579 0.0
C1968 C 0.33352 0.45908 0.82429 0.0
H1969 H 0.30079 0.38336 0.93317 0.0
H1970 H 0.31284 0.40175 0.90356 0.0
C1971 C 0.33931 0.4677 0.80599 0.0
C1972 C 0.31138 0.45804 0.855 0.0
H1973 H 0.31425 0.46428 0.90642 0.0
C1974 C 0.30089 0.43928 0.85412 0.0
C1975 C 0.31615 0.4673 0.87398 0.0
C1976 C 0.32761 0.4874 0.87548 0.0
C1977 C 0.29492 0.42948 0.87185 0.0
C1978 C 0.30015 0.43846 0.89093 0.0
C1979 C 0.31043 0.45738 0.89178 0.0
C1980 C 0.29487 0.4284 0.9101 0.0
C1981 C 0.28269 0.4098 0.86997 0.0
C1982 C 0.28175 0.43781 0.92418 0.0
C1983 C 0.27509 0.42745 0.9413 0.0
C1984 C 0.28141 0.40752 0.94452 0.0
C1985 C 0.29547 0.39861 0.93097 0.0
C1986 C 0.30226 0.40904 0.91399 0.0
H1987 H 0.27511 0.40803 0.85491 0.0
H1988 H 0.29324 0.39692 0.87171 0.0
H1989 H 0.27067 0.40884 0.88191 0.0
H1990 H 0.27603 0.45283 0.92152 0.0
H1991 H 0.26428 0.43472 0.95151 0.0
H1992 H 0.29826 0.61544 0.55824 0.0
H1993 H 0.31561 0.59757 0.58518 0.0
H1994 H 0.2862 0.5414 0.56512 0.0
H1995 H 0.26902 0.55912 0.53785 0.0
H1996 H 0.295 0.57804 0.61553 0.0
H1997 H 0.34593 0.52483 0.57386 0.0
H1998 H 0.33456 0.54638 0.56206 0.0
H1999 H 0.31944 0.52366 0.56585 0.0
C2000 C 0.29574 0.59922 0.55934 0.0
C2001 C 0.28223 0.58868 0.54598 0.0
C2002 C 0.30567 0.58904 0.57474 0.0
C2003 C 0.3023 0.56816 0.57704 0.0
C2004 C 0.28931 0.55745 0.56336 0.0
H2005 H 0.31864 0.50635 0.69058 0.0
H2006 H 0.3049 0.51976 0.65915 0.0
C2007 C 0.27942 0.56762 0.54786 0.0
C2008 C 0.31093 0.55807 0.59485 0.0
H2009 H 0.34217 0.51995 0.60933 0.0
C2010 C 0.30537 0.56537 0.61418 0.0
C2011 C 0.32452 0.54164 0.59299 0.0
C2012 C 0.33165 0.53374 0.57258 0.0
C2013 C 0.31295 0.55664 0.63177 0.0
C2014 C 0.32612 0.53989 0.62994 0.0
C2015 C 0.33186 0.53266 0.61062 0.0
C2016 C 0.33456 0.53016 0.64801 0.0
C2017 C 0.30711 0.56569 0.65215 0.0
C2018 C 0.35584 0.53095 0.65175 0.0
C2019 C 0.36375 0.52322 0.66962 0.0
C2020 C 0.35047 0.51454 0.68401 0.0
C2021 C 0.32923 0.51311 0.67986 0.0
C2022 C 0.32135 0.5208 0.66196 0.0
H2023 H 0.30107 0.58124 0.65081 0.0
H2024 H 0.29488 0.55608 0.65904 0.0
H2025 H 0.32055 0.56631 0.6626 0.0
H2026 H 0.36626 0.53806 0.6411 0.0
H2027 H 0.3802 0.52444 0.67233 0.0
H2028 H 0.19365 0.48551 0.30713 0.0
H2029 H 0.20566 0.50332 0.33806 0.0
H2030 H 0.15776 0.54709 0.33169 0.0
H2031 H 0.14563 0.52953 0.30083 0.0
H2032 H 0.19997 0.56311 0.33754 0.0
H2033 H 0.17578 0.50645 0.39465 0.0
H2034 H 0.18987 0.49735 0.37289 0.0
H2035 H 0.16444 0.50695 0.36965 0.0
C2036 C 0.18559 0.49885 0.31237 0.0
C2037 C 0.16868 0.5061 0.3015 0.0
C2038 C 0.19242 0.50893 0.33007 0.0
C2039 C 0.18247 0.52638 0.33715 0.0
C2040 C 0.16557 0.53359 0.32644 0.0
H2041 H 0.19319 0.61838 0.43029 0.0
H2042 H 0.18507 0.59698 0.40061 0.0
C2043 C 0.15867 0.52351 0.30882 0.0
C2044 C 0.19008 0.53772 0.35527 0.0
H2045 H 0.19301 0.53609 0.40685 0.0
C2046 C 0.19855 0.55721 0.3527 0.0
C2047 C 0.18831 0.52982 0.37493 0.0
C2048 C 0.17901 0.50904 0.37836 0.0
C2049 C 0.20513 0.56918 0.36938 0.0
C2050 C 0.2027 0.56158 0.38913 0.0
C2051 C 0.19475 0.54186 0.39167 0.0
C2052 C 0.20752 0.57425 0.40736 0.0
C2053 C 0.21468 0.58981 0.36569 0.0
C2054 C 0.22238 0.56821 0.42132 0.0
C2055 C 0.22697 0.58035 0.43844 0.0
C2056 C 0.21669 0.59869 0.4419 0.0
C2057 C 0.20154 0.60446 0.42802 0.0
C2058 C 0.19694 0.5923 0.41098 0.0
H2059 H 0.22096 0.59083 0.35007 0.0
H2060 H 0.20271 0.6015 0.36753 0.0
H2061 H 0.22729 0.5934 0.37668 0.0
H2062 H 0.23058 0.55423 0.41883 0.0
H2063 H 0.23867 0.57543 0.44886 0.0
loop_
_geom_bond_atom_site_label_1
_geom_bond_atom_site_label_2
_geom_bond_distance
_geom_bond_site_symmetry_2
_ccdc_geom_bond_type
C0 O1 1.306 . S
C0 O3 1.160 . S
O1 C0 1.306 . S
O1 Cd2 2.228 . S
Cd2 O1 2.228 . S
Cd2 O6 2.273 1_655 S
Cd2 O10 2.277 . S
O3 C0 1.160 . S
O3 Cd4 2.203 1_655 S
Cd4 O3 2.203 1_455 S
Cd4 O6 2.411 . S
Cd4 O7 2.333 . S
Cd4 O8 2.352 . S
Cd4 O12 2.277 1_455 S
Cd4 O13 2.356 . S
C5 O10 1.209 . S
C5 O12 1.226 . S
O6 Cd2 2.273 1_455 S
O6 Cd4 2.411 . S
O6 C9 1.320 . S
O7 Cd4 2.333 . S
O7 C9 1.214 . S
O8 Cd4 2.352 . S
O8 C11 1.258 . S
C9 O6 1.320 . S
C9 O7 1.214 . S
O10 Cd2 2.277 . S
O10 C5 1.209 . S
C11 O8 1.258 . S
C11 O13 1.282 . S
O12 Cd4 2.277 1_655 S
O12 C5 1.226 . S
O13 Cd4 2.356 . S
O13 C11 1.282 . S
C14 O15 1.306 . S
C14 O17 1.160 . S
O15 C14 1.306 . S
O15 Cd16 2.228 1_655 S
Cd16 O15 2.228 1_455 S
Cd16 O20 2.273 . S
Cd16 O24 2.277 . S
O17 C14 1.160 . S
O17 Cd18 2.184 1_655 S
Cd18 O17 2.184 1_455 S
Cd18 O20 2.422 . S
Cd18 O21 2.353 . S
Cd18 O22 2.341 1_455 S
Cd18 O26 2.283 . S
Cd18 O27 2.352 1_455 S
C19 O24 1.209 . S
C19 O26 1.226 . S
O20 Cd16 2.273 . S
O20 Cd18 2.422 . S
O20 C23 1.320 . S
O21 Cd18 2.353 . S
O21 C23 1.214 . S
O22 Cd18 2.341 1_655 S
O22 C25 1.258 . S
C23 O20 1.320 . S
C23 O21 1.214 . S
O24 Cd16 2.277 . S
O24 C19 1.209 . S
C25 O22 1.258 . S
C25 O27 1.282 . S
O26 Cd18 2.283 . S
O26 C19 1.226 . S
O27 Cd18 2.352 1_655 S
O27 C25 1.282 . S
C28 O29 1.306 . S
C28 O31 1.160 . S
O29 C28 1.306 . S
O29 Cd30 2.228 . S
Cd30 O29 2.228 . S
Cd30 O34 2.273 . S
Cd30 O38 2.277 . S
O31 C28 1.160 . S
O31 Cd32 2.203 . S
Cd32 O31 2.203 . S
Cd32 O34 2.411 . S
Cd32 O35 2.333 . S
Cd32 O36 2.352 . S
Cd32 O40 2.277 . S
Cd32 O41 2.356 . S
C33 O38 1.209 . S
C33 O40 1.226 . S
O34 Cd30 2.273 . S
O34 Cd32 2.411 . S
O34 C37 1.320 . S
O35 Cd32 2.333 . S
O35 C37 1.214 . S
O36 Cd32 2.352 . S
O36 C39 1.258 . S
C37 O34 1.320 . S
C37 O35 1.214 . S
O38 Cd30 2.277 . S
O38 C33 1.209 . S
C39 O36 1.258 . S
C39 O41 1.282 . S
O40 Cd32 2.277 . S
O40 C33 1.226 . S
O41 Cd32 2.356 . S
O41 C39 1.282 . S
C42 O43 1.306 . S
C42 O45 1.160 . S
O43 C42 1.306 . S
O43 Cd44 2.228 . S
Cd44 O43 2.228 . S
Cd44 O48 2.273 . S
Cd44 O52 2.277 . S
O45 C42 1.160 . S
O45 Cd46 2.203 . S
Cd46 O45 2.203 . S
Cd46 O48 2.411 . S
Cd46 O49 2.333 . S
Cd46 O50 2.352 . S
Cd46 O54 2.277 . S
Cd46 O55 2.356 . S
C47 O52 1.209 . S
C47 O54 1.226 . S
O48 Cd44 2.273 . S
O48 Cd46 2.411 . S
O48 C51 1.320 . S
O49 Cd46 2.333 . S
O49 C51 1.214 . S
O50 Cd46 2.352 . S
O50 C53 1.258 . S
C51 O48 1.320 . S
C51 O49 1.214 . S
O52 Cd44 2.277 . S
O52 C47 1.209 . S
C53 O50 1.258 . S
C53 O55 1.282 . S
O54 Cd46 2.277 . S
O54 C47 1.226 . S
O55 Cd46 2.356 . S
O55 C53 1.282 . S
C56 O57 1.306 . S
C56 O59 1.160 . S
O57 C56 1.306 . S
O57 Cd58 2.228 . S
Cd58 O57 2.228 . S
Cd58 O62 2.273 1_655 S
Cd58 O66 2.277 . S
O59 C56 1.160 . S
O59 Cd60 2.203 1_655 S
Cd60 O59 2.203 1_455 S
Cd60 O62 2.411 . S
Cd60 O63 2.333 . S
Cd60 O64 2.352 . S
Cd60 O68 2.277 1_455 S
Cd60 O69 2.356 . S
C61 O66 1.209 . S
C61 O68 1.226 . S
O62 Cd58 2.273 1_455 S
O62 Cd60 2.411 . S
O62 C65 1.320 . S
O63 Cd60 2.333 . S
O63 C65 1.214 . S
O64 Cd60 2.352 . S
O64 C67 1.258 . S
C65 O62 1.320 . S
C65 O63 1.214 . S
O66 Cd58 2.277 . S
O66 C61 1.209 . S
C67 O64 1.258 . S
C67 O69 1.282 . S
O68 Cd60 2.277 1_655 S
O68 C61 1.226 . S
O69 Cd60 2.356 . S
O69 C67 1.282 . S
C70 O71 1.306 . S
C70 O73 1.160 . S
O71 C70 1.306 . S
O71 Cd72 2.228 . S
Cd72 O71 2.228 . S
Cd72 O76 2.273 . S
Cd72 O80 2.277 . S
O73 C70 1.160 . S
O73 Cd74 2.203 . S
Cd74 O73 2.203 . S
Cd74 O76 2.411 . S
Cd74 O77 2.333 . S
Cd74 O78 2.352 . S
Cd74 O82 2.277 . S
Cd74 O83 2.356 . S
C75 O80 1.209 . S
C75 O82 1.226 . S
O76 Cd72 2.273 . S
O76 Cd74 2.411 . S
O76 C79 1.320 . S
O77 Cd74 2.333 . S
O77 C79 1.214 . S
O78 Cd74 2.352 . S
O78 C81 1.258 . S
C79 O76 1.320 . S
C79 O77 1.214 . S
O80 Cd72 2.277 . S
O80 C75 1.209 . S
C81 O78 1.258 . S
C81 O83 1.282 . S
O82 Cd74 2.277 . S
O82 C75 1.226 . S
O83 Cd74 2.356 . S
O83 C81 1.282 . S
C84 O85 1.306 . S
C84 O87 1.160 . S
O85 C84 1.306 . S
O85 Cd86 2.228 . S
Cd86 O85 2.228 . S
Cd86 O90 2.273 . S
Cd86 O94 2.277 . S
O87 C84 1.160 . S
O87 Cd88 2.203 . S
Cd88 O87 2.203 . S
Cd88 O90 2.411 . S
Cd88 O91 2.333 . S
Cd88 O92 2.352 . S
Cd88 O96 2.277 . S
Cd88 O97 2.356 . S
C89 O94 1.209 . S
C89 O96 1.226 . S
O90 Cd86 2.273 . S
O90 Cd88 2.411 . S
O90 C93 1.320 . S
O91 Cd88 2.333 . S
O91 C93 1.214 . S
O92 Cd88 2.352 . S
O92 C95 1.258 . S
C93 O90 1.320 . S
C93 O91 1.214 . S
O94 Cd86 2.277 . S
O94 C89 1.209 . S
C95 O92 1.258 . S
C95 O97 1.282 . S
O96 Cd88 2.277 . S
O96 C89 1.226 . S
O97 Cd88 2.356 . S
O97 C95 1.282 . S
C98 O99 1.306 . S
C98 O101 1.160 . S
O99 C98 1.306 . S
O99 Cd100 2.228 1_655 S
Cd100 O99 2.228 1_455 S
Cd100 O104 2.273 . S
Cd100 O108 2.277 . S
O101 C98 1.160 . S
O101 Cd102 2.178 1_655 S
Cd102 O101 2.178 1_455 S
Cd102 O104 2.426 . S
Cd102 O105 2.359 . S
Cd102 O106 2.337 1_455 S
Cd102 O110 2.286 . S
Cd102 O111 2.350 1_455 S
C103 O108 1.209 . S
C103 O110 1.226 . S
O104 Cd100 2.273 . S
O104 Cd102 2.426 . S
O104 C107 1.320 . S
O105 Cd102 2.359 . S
O105 C107 1.214 . S
O106 Cd102 2.337 1_655 S
O106 C109 1.258 . S
C107 O104 1.320 . S
C107 O105 1.214 . S
O108 Cd100 2.277 . S
O108 C103 1.209 . S
C109 O106 1.258 . S
C109 O111 1.282 . S
O110 Cd102 2.286 . S
O110 C103 1.226 . S
O111 Cd102 2.350 1_655 S
O111 C109 1.282 . S
C112 O113 1.306 . S
C112 O115 1.160 . S
O113 C112 1.306 . S
O113 Cd114 2.228 . S
Cd114 O113 2.228 . S
Cd114 O118 2.273 1_565 S
Cd114 O122 2.277 . S
O115 C112 1.160 . S
O115 Cd116 2.203 1_565 S
Cd116 O115 2.203 1_545 S
Cd116 O118 2.411 . S
Cd116 O119 2.333 . S
Cd116 O120 2.352 . S
Cd116 O124 2.277 1_545 S
Cd116 O125 2.356 . S
C117 O122 1.209 . S
C117 O124 1.226 . S
O118 Cd114 2.273 1_545 S
O118 Cd116 2.411 . S
O118 C121 1.320 . S
O119 Cd116 2.333 . S
O119 C121 1.214 . S
O120 Cd116 2.352 . S
O120 C123 1.258 . S
C121 O118 1.320 . S
C121 O119 1.214 . S
O122 Cd114 2.277 . S
O122 C117 1.209 . S
C123 O120 1.258 . S
C123 O125 1.282 . S
O124 Cd116 2.277 1_565 S
O124 C117 1.226 . S
O125 Cd116 2.356 . S
O125 C123 1.282 . S
C126 O127 1.306 . S
C126 O129 1.160 . S
O127 C126 1.306 . S
O127 Cd128 2.228 . S
Cd128 O127 2.228 . S
Cd128 O132 2.273 . S
Cd128 O136 2.277 . S
O129 C126 1.160 . S
O129 Cd130 2.203 . S
Cd130 O129 2.203 . S
Cd130 O132 2.411 . S
Cd130 O133 2.333 . S
Cd130 O134 2.352 . S
Cd130 O138 2.277 . S
Cd130 O139 2.356 . S
C131 O136 1.209 . S
C131 O138 1.226 . S
O132 Cd128 2.273 . S
O132 Cd130 2.411 . S
O132 C135 1.320 . S
O133 Cd130 2.333 . S
O133 C135 1.214 . S
O134 Cd130 2.352 . S
O134 C137 1.258 . S
C135 O132 1.320 . S
C135 O133 1.214 . S
O136 Cd128 2.277 . S
O136 C131 1.209 . S
C137 O134 1.258 . S
C137 O139 1.282 . S
O138 Cd130 2.277 . S
O138 C131 1.226 . S
O139 Cd130 2.356 . S
O139 C137 1.282 . S
C140 O141 1.306 . S
C140 O143 1.160 . S
O141 C140 1.306 . S
O141 Cd142 2.228 . S
Cd142 O141 2.228 . S
Cd142 O146 2.273 1_545 S
Cd142 O150 2.277 . S
O143 C140 1.160 . S
O143 Cd144 2.203 . S
Cd144 O143 2.203 . S
Cd144 O146 2.411 1_545 S
Cd144 O147 2.333 1_545 S
Cd144 O148 2.352 1_545 S
Cd144 O152 2.277 . S
Cd144 O153 2.356 1_545 S
C145 O150 1.209 . S
C145 O152 1.226 . S
O146 Cd142 2.273 1_565 S
O146 Cd144 2.411 1_565 S
O146 C149 1.320 . S
O147 Cd144 2.333 1_565 S
O147 C149 1.214 . S
O148 Cd144 2.352 1_565 S
O148 C151 1.258 . S
C149 O146 1.320 . S
C149 O147 1.214 . S
O150 Cd142 2.277 . S
O150 C145 1.209 . S
C151 O148 1.258 . S
C151 O153 1.282 . S
O152 Cd144 2.277 . S
O152 C145 1.226 . S
O153 Cd144 2.356 1_565 S
O153 C151 1.282 . S
C154 O155 1.306 1_556 S
C154 O157 1.160 . S
O155 C154 1.306 1_554 S
O155 Cd156 2.228 . S
Cd156 O155 2.228 . S
Cd156 O160 2.273 . S
Cd156 O164 2.277 . S
O157 C154 1.160 . S
O157 Cd158 2.203 1_556 S
Cd158 O157 2.203 1_554 S
Cd158 O160 2.411 . S
Cd158 O161 2.333 . S
Cd158 O162 2.352 1_554 S
Cd158 O166 2.277 . S
Cd158 O167 2.356 1_554 S
C159 O164 1.209 . S
C159 O166 1.226 . S
O160 Cd156 2.273 . S
O160 Cd158 2.411 . S
O160 C163 1.320 . S
O161 Cd158 2.333 . S
O161 C163 1.214 . S
O162 Cd158 2.352 1_556 S
O162 C165 1.258 . S
C163 O160 1.320 . S
C163 O161 1.214 . S
O164 Cd156 2.277 . S
O164 C159 1.209 . S
C165 O162 1.258 . S
C165 O167 1.282 . S
O166 Cd158 2.277 . S
O166 C159 1.226 . S
O167 Cd158 2.356 1_556 S
O167 C165 1.282 . S
C168 O169 1.306 . S
C168 O171 1.160 . S
O169 C168 1.306 . S
O169 Cd170 2.228 . S
Cd170 O169 2.228 . S
Cd170 O174 2.273 1_554 S
Cd170 O178 2.277 . S
O171 C168 1.160 . S
O171 Cd172 2.203 . S
Cd172 O171 2.203 . S
Cd172 O174 2.411 1_554 S
Cd172 O175 2.333 1_554 S
Cd172 O176 2.352 1_554 S
Cd172 O180 2.277 . S
Cd172 O181 2.356 1_554 S
C173 O178 1.209 . S
C173 O180 1.226 . S
O174 Cd170 2.273 1_556 S
O174 Cd172 2.411 1_556 S
O174 C177 1.320 . S
O175 Cd172 2.333 1_556 S
O175 C177 1.214 . S
O176 Cd172 2.352 1_556 S
O176 C179 1.258 . S
C177 O174 1.320 . S
C177 O175 1.214 . S
O178 Cd170 2.277 . S
O178 C173 1.209 . S
C179 O176 1.258 . S
C179 O181 1.282 . S
O180 Cd172 2.277 . S
O180 C173 1.226 . S
O181 Cd172 2.356 1_556 S
O181 C179 1.282 . S
C182 O183 1.306 . S
C182 O185 1.160 . S
O183 C182 1.306 . S
O183 Cd184 2.228 . S
Cd184 O183 2.228 . S
Cd184 O188 2.273 1_556 S
Cd184 O192 2.277 . S
O185 C182 1.160 . S
O185 Cd186 2.203 1_556 S
Cd186 O185 2.203 1_554 S
Cd186 O188 2.411 . S
Cd186 O189 2.333 . S
Cd186 O190 2.352 . S
Cd186 O194 2.277 1_554 S
Cd186 O195 2.356 . S
C187 O192 1.209 . S
C187 O194 1.226 . S
O188 Cd184 2.273 1_554 S
O188 Cd186 2.411 . S
O188 C191 1.320 . S
O189 Cd186 2.333 . S
O189 C191 1.214 . S
O190 Cd186 2.352 . S
O190 C193 1.258 . S
C191 O188 1.320 . S
C191 O189 1.214 . S
O192 Cd184 2.277 . S
O192 C187 1.209 . S
C193 O190 1.258 . S
C193 O195 1.282 . S
O194 Cd186 2.277 1_556 S
O194 C187 1.226 . S
O195 Cd186 2.356 . S
O195 C193 1.282 . S
C196 O197 1.306 . S
C196 O199 1.160 . S
O197 C196 1.306 . S
O197 Cd198 2.228 . S
Cd198 O197 2.228 . S
Cd198 O202 2.273 . S
Cd198 O206 2.277 . S
O199 C196 1.160 . S
O199 Cd200 2.203 . S
Cd200 O199 2.203 . S
Cd200 O202 2.411 . S
Cd200 O203 2.333 . S
Cd200 O204 2.352 . S
Cd200 O208 2.277 . S
Cd200 O209 2.356 . S
C201 O206 1.209 . S
C201 O208 1.226 . S
O202 Cd198 2.273 . S
O202 Cd200 2.411 . S
O202 C205 1.320 . S
O203 Cd200 2.333 . S
O203 C205 1.214 . S
O204 Cd200 2.352 . S
O204 C207 1.258 . S
C205 O202 1.320 . S
C205 O203 1.214 . S
O206 Cd198 2.277 . S
O206 C201 1.209 . S
C207 O204 1.258 . S
C207 O209 1.282 . S
O208 Cd200 2.277 . S
O208 C201 1.226 . S
O209 Cd200 2.356 . S
O209 C207 1.282 . S
C210 O211 1.306 . S
C210 O213 1.160 . S
O211 C210 1.306 . S
O211 Cd212 2.228 . S
Cd212 O211 2.228 . S
Cd212 O216 2.273 . S
Cd212 O220 2.277 . S
O213 C210 1.160 . S
O213 Cd214 2.203 . S
Cd214 O213 2.203 . S
Cd214 O216 2.411 . S
Cd214 O217 2.333 . S
Cd214 O218 2.352 . S
Cd214 O222 2.277 . S
Cd214 O223 2.356 . S
C215 O220 1.209 . S
C215 O222 1.226 . S
O216 Cd212 2.273 . S
O216 Cd214 2.411 . S
O216 C219 1.320 . S
O217 Cd214 2.333 . S
O217 C219 1.214 . S
O218 Cd214 2.352 . S
O218 C221 1.258 . S
C219 O216 1.320 . S
C219 O217 1.214 . S
O220 Cd212 2.277 . S
O220 C215 1.209 . S
C221 O218 1.258 . S
C221 O223 1.282 . S
O222 Cd214 2.277 . S
O222 C215 1.226 . S
O223 Cd214 2.356 . S
O223 C221 1.282 . S
C224 O225 1.306 1_565 S
C224 O227 1.160 . S
O225 C224 1.306 1_545 S
O225 Cd226 2.228 . S
Cd226 O225 2.228 . S
Cd226 O230 2.273 . S
Cd226 O234 2.277 . S
O227 C224 1.160 . S
O227 Cd228 2.203 . S
Cd228 O227 2.203 . S
Cd228 O230 2.411 1_565 S
Cd228 O231 2.333 1_565 S
Cd228 O232 2.352 . S
Cd228 O236 2.277 1_565 S
Cd228 O237 2.356 . S
C229 O234 1.209 . S
C229 O236 1.226 . S
O230 Cd226 2.273 . S
O230 Cd228 2.411 1_545 S
O230 C233 1.320 . S
O231 Cd228 2.333 1_545 S
O231 C233 1.214 . S
O232 Cd228 2.352 . S
O232 C235 1.258 . S
C233 O230 1.320 . S
C233 O231 1.214 . S
O234 Cd226 2.277 . S
O234 C229 1.209 . S
C235 O232 1.258 . S
C235 O237 1.282 . S
O236 Cd228 2.277 1_545 S
O236 C229 1.226 . S
O237 Cd228 2.356 . S
O237 C235 1.282 . S
C238 O239 1.306 . S
C238 O241 1.160 . S
O239 C238 1.306 . S
O239 Cd240 2.228 . S
Cd240 O239 2.228 . S
Cd240 O244 2.273 . S
Cd240 O248 2.277 . S
O241 C238 1.160 . S
O241 Cd242 2.203 . S
Cd242 O241 2.203 . S
Cd242 O244 2.411 . S
Cd242 O245 2.333 . S
Cd242 O246 2.352 . S
Cd242 O250 2.277 . S
Cd242 O251 2.356 . S
C243 O248 1.209 . S
C243 O250 1.226 . S
O244 Cd240 2.273 . S
O244 Cd242 2.411 . S
O244 C247 1.320 . S
O245 Cd242 2.333 . S
O245 C247 1.214 . S
O246 Cd242 2.352 . S
O246 C249 1.258 . S
C247 O244 1.320 . S
C247 O245 1.214 . S
O248 Cd240 2.277 . S
O248 C243 1.209 . S
C249 O246 1.258 . S
C249 O251 1.282 . S
O250 Cd242 2.277 . S
O250 C243 1.226 . S
O251 Cd242 2.356 . S
O251 C249 1.282 . S
C252 O253 1.306 . S
C252 O255 1.160 . S
O253 C252 1.306 . S
O253 Cd254 2.228 . S
Cd254 O253 2.228 . S
Cd254 O258 2.273 . S
Cd254 O262 2.277 . S
O255 C252 1.160 . S
O255 Cd256 2.203 . S
Cd256 O255 2.203 . S
Cd256 O258 2.411 . S
Cd256 O259 2.333 . S
Cd256 O260 2.352 . S
Cd256 O264 2.277 . S
Cd256 O265 2.356 . S
C257 O262 1.209 . S
C257 O264 1.226 . S
O258 Cd254 2.273 . S
O258 Cd256 2.411 . S
O258 C261 1.320 . S
O259 Cd256 2.333 . S
O259 C261 1.214 . S
O260 Cd256 2.352 . S
O260 C263 1.258 . S
C261 O258 1.320 . S
C261 O259 1.214 . S
O262 Cd254 2.277 . S
O262 C257 1.209 . S
C263 O260 1.258 . S
C263 O265 1.282 . S
O264 Cd256 2.277 . S
O264 C257 1.226 . S
O265 Cd256 2.356 . S
O265 C263 1.282 . S
C266 O267 1.306 . S
C266 O269 1.160 . S
O267 C266 1.306 . S
O267 Cd268 2.228 1_545 S
Cd268 O267 2.228 1_565 S
Cd268 O272 2.273 . S
Cd268 O276 2.277 . S
O269 C266 1.160 . S
O269 Cd270 2.203 . S
Cd270 O269 2.203 . S
Cd270 O272 2.411 1_545 S
Cd270 O273 2.333 1_545 S
Cd270 O274 2.352 . S
Cd270 O278 2.277 1_545 S
Cd270 O279 2.356 . S
C271 O276 1.209 . S
C271 O278 1.226 . S
O272 Cd268 2.273 . S
O272 Cd270 2.411 1_565 S
O272 C275 1.320 . S
O273 Cd270 2.333 1_565 S
O273 C275 1.214 . S
O274 Cd270 2.352 . S
O274 C277 1.258 . S
C275 O272 1.320 . S
C275 O273 1.214 . S
O276 Cd268 2.277 . S
O276 C271 1.209 . S
C277 O274 1.258 . S
C277 O279 1.282 . S
O278 Cd270 2.277 1_565 S
O278 C271 1.226 . S
O279 Cd270 2.356 . S
O279 C277 1.282 . S
C280 O281 1.306 1_556 S
C280 O283 1.160 . S
O281 C280 1.306 1_554 S
O281 Cd282 2.228 . S
Cd282 O281 2.228 . S
Cd282 O286 2.273 . S
Cd282 O290 2.277 . S
O283 C280 1.160 . S
O283 Cd284 2.203 1_556 S
Cd284 O283 2.203 1_554 S
Cd284 O286 2.411 . S
Cd284 O287 2.333 . S
Cd284 O288 2.352 1_554 S
Cd284 O292 2.277 . S
Cd284 O293 2.356 1_554 S
C285 O290 1.209 . S
C285 O292 1.226 . S
O286 Cd282 2.273 . S
O286 Cd284 2.411 . S
O286 C289 1.320 . S
O287 Cd284 2.333 . S
O287 C289 1.214 . S
O288 Cd284 2.352 1_556 S
O288 C291 1.258 . S
C289 O286 1.320 . S
C289 O287 1.214 . S
O290 Cd282 2.277 . S
O290 C285 1.209 . S
C291 O288 1.258 . S
C291 O293 1.282 . S
O292 Cd284 2.277 . S
O292 C285 1.226 . S
O293 Cd284 2.356 1_556 S
O293 C291 1.282 . S
C294 O295 1.306 . S
C294 O297 1.160 . S
O295 C294 1.306 . S
O295 Cd296 2.228 . S
Cd296 O295 2.228 . S
Cd296 O300 2.273 . S
Cd296 O304 2.277 . S
O297 C294 1.160 . S
O297 Cd298 2.203 . S
Cd298 O297 2.203 . S
Cd298 O300 2.411 . S
Cd298 O301 2.333 . S
Cd298 O302 2.352 . S
Cd298 O306 2.277 . S
Cd298 O307 2.356 . S
C299 O304 1.209 . S
C299 O306 1.226 . S
O300 Cd296 2.273 . S
O300 Cd298 2.411 . S
O300 C303 1.320 . S
O301 Cd298 2.333 . S
O301 C303 1.214 . S
O302 Cd298 2.352 . S
O302 C305 1.258 . S
C303 O300 1.320 . S
C303 O301 1.214 . S
O304 Cd296 2.277 . S
O304 C299 1.209 . S
C305 O302 1.258 . S
C305 O307 1.282 . S
O306 Cd298 2.277 . S
O306 C299 1.226 . S
O307 Cd298 2.356 . S
O307 C305 1.282 . S
C308 O309 1.306 . S
C308 O311 1.160 . S
O309 C308 1.306 . S
O309 Cd310 2.228 . S
Cd310 O309 2.228 . S
Cd310 O314 2.273 . S
Cd310 O318 2.277 . S
O311 C308 1.160 . S
O311 Cd312 2.203 . S
Cd312 O311 2.203 . S
Cd312 O314 2.411 . S
Cd312 O315 2.333 . S
Cd312 O316 2.352 . S
Cd312 O320 2.277 . S
Cd312 O321 2.356 . S
C313 O318 1.209 . S
C313 O320 1.226 . S
O314 Cd310 2.273 . S
O314 Cd312 2.411 . S
O314 C317 1.320 . S
O315 Cd312 2.333 . S
O315 C317 1.214 . S
O316 Cd312 2.352 . S
O316 C319 1.258 . S
C317 O314 1.320 . S
C317 O315 1.214 . S
O318 Cd310 2.277 . S
O318 C313 1.209 . S
C319 O316 1.258 . S
C319 O321 1.282 . S
O320 Cd312 2.277 . S
O320 C313 1.226 . S
O321 Cd312 2.356 . S
O321 C319 1.282 . S
C322 O323 1.306 . S
C322 O325 1.160 . S
O323 C322 1.306 . S
O323 Cd324 2.228 . S
Cd324 O323 2.228 . S
Cd324 O328 2.273 . S
Cd324 O332 2.277 . S
O325 C322 1.160 . S
O325 Cd326 2.203 . S
Cd326 O325 2.203 . S
Cd326 O328 2.411 . S
Cd326 O329 2.333 . S
Cd326 O330 2.352 . S
Cd326 O334 2.277 . S
Cd326 O335 2.356 . S
C327 O332 1.209 . S
C327 O334 1.226 . S
O328 Cd324 2.273 . S
O328 Cd326 2.411 . S
O328 C331 1.320 . S
O329 Cd326 2.333 . S
O329 C331 1.214 . S
O330 Cd326 2.352 . S
O330 C333 1.258 . S
C331 O328 1.320 . S
C331 O329 1.214 . S
O332 Cd324 2.277 . S
O332 C327 1.209 . S
C333 O330 1.258 . S
C333 O335 1.282 . S
O334 Cd326 2.277 . S
O334 C327 1.226 . S
O335 Cd326 2.356 . S
O335 C333 1.282 . S
H336 C344 0.929 . S
H337 C346 0.930 . S
H338 C348 0.930 . S
H339 C351 0.929 . S
H340 C354 0.930 . S
H341 C356 0.960 . S
H342 C356 0.960 . S
H343 C356 0.960 . S
C344 H336 0.929 . S
C344 C345 1.377 . S
C344 C346 1.384 . S
C345 C344 1.377 . S
C345 C351 1.390 . S
C346 H337 0.930 . S
C346 C344 1.384 . S
C346 C347 1.372 . S
C347 C346 1.372 . S
C347 C348 1.400 . S
C347 C352 1.490 . S
C348 H338 0.930 . S
C348 C347 1.400 . S
C348 C351 1.386 . S
H349 C365 0.930 . S
H350 C366 0.931 . S
C351 H339 0.929 . S
C351 C345 1.390 . S
C351 C348 1.386 . S
C352 C347 1.490 . S
C352 C354 1.395 . S
C352 C355 1.403 . S
H353 C359 0.930 . S
C354 H340 0.930 . S
C354 C352 1.395 . S
C354 C357 1.403 . S
C355 C352 1.403 . S
C355 C356 1.524 . S
C355 C359 1.400 . S
C356 H341 0.960 . S
C356 H342 0.960 . S
C356 H343 0.960 . S
C356 C355 1.524 . S
C357 C354 1.403 . S
C357 C358 1.392 . S
C357 C361 1.495 . S
C358 C357 1.392 . S
C358 C359 1.385 . S
C358 C360 1.478 . S
C359 H353 0.930 . S
C359 C355 1.400 . S
C359 C358 1.385 . S
C360 C358 1.478 . S
C360 C362 1.381 . S
C360 C366 1.383 . S
C361 C357 1.495 . S
C361 H367 0.959 . S
C361 H368 0.961 . S
C361 H369 0.960 . S
C362 C360 1.381 . S
C362 C363 1.394 . S
C362 H370 0.930 . S
C363 C362 1.394 . S
C363 C364 1.383 . S
C363 H371 0.929 . S
C364 C363 1.383 . S
C364 C365 1.377 . S
C365 H349 0.930 . S
C365 C364 1.377 . S
C365 C366 1.379 . S
C366 H350 0.931 . S
C366 C360 1.383 . S
C366 C365 1.379 . S
H367 C361 0.959 . S
H368 C361 0.961 . S
H369 C361 0.960 . S
H370 C362 0.930 . S
H371 C363 0.929 . S
H372 C380 0.929 . S
H373 C382 0.930 . S
H374 C384 0.930 . S
H375 C387 0.929 . S
H376 C390 0.930 . S
H377 C392 0.960 . S
H378 C392 0.960 . S
H379 C392 0.960 . S
C380 H372 0.929 . S
C380 C381 1.377 . S
C380 C382 1.384 . S
C381 C380 1.377 . S
C381 C387 1.390 . S
C382 H373 0.930 . S
C382 C380 1.384 . S
C382 C383 1.372 . S
C383 C382 1.372 . S
C383 C384 1.400 . S
C383 C388 1.490 . S
C384 H374 0.930 . S
C384 C383 1.400 . S
C384 C387 1.386 . S
H385 C401 0.930 . S
H386 C402 0.931 . S
C387 H375 0.929 . S
C387 C381 1.390 . S
C387 C384 1.386 . S
C388 C383 1.490 . S
C388 C390 1.395 . S
C388 C391 1.403 . S
H389 C395 0.930 . S
C390 H376 0.930 . S
C390 C388 1.395 . S
C390 C393 1.403 . S
C391 C388 1.403 . S
C391 C392 1.524 . S
C391 C395 1.400 . S
C392 H377 0.960 . S
C392 H378 0.960 . S
C392 H379 0.960 . S
C392 C391 1.524 . S
C393 C390 1.403 . S
C393 C394 1.392 . S
C393 C397 1.495 . S
C394 C393 1.392 . S
C394 C395 1.385 . S
C394 C396 1.478 . S
C395 H389 0.930 . S
C395 C391 1.400 . S
C395 C394 1.385 . S
C396 C394 1.478 . S
C396 C398 1.381 . S
C396 C402 1.383 . S
C397 C393 1.495 . S
C397 H403 0.959 . S
C397 H404 0.961 . S
C397 H405 0.960 . S
C398 C396 1.381 . S
C398 C399 1.394 . S
C398 H406 0.930 . S
C399 C398 1.394 . S
C399 C400 1.383 . S
C399 H407 0.929 . S
C400 C399 1.383 . S
C400 C401 1.377 . S
C401 H385 0.930 . S
C401 C400 1.377 . S
C401 C402 1.379 . S
C402 H386 0.931 . S
C402 C396 1.383 . S
C402 C401 1.379 . S
H403 C397 0.959 . S
H404 C397 0.961 . S
H405 C397 0.960 . S
H406 C398 0.930 . S
H407 C399 0.929 . S
H408 C416 0.929 . S
H409 C418 0.930 . S
H410 C420 0.930 . S
H411 C423 0.929 . S
H412 C426 0.930 . S
H413 C428 0.960 . S
H414 C428 0.960 . S
H415 C428 0.960 . S
C416 H408 0.929 . S
C416 C417 1.377 . S
C416 C418 1.384 . S
C417 C416 1.377 . S
C417 C423 1.390 . S
C418 H409 0.930 . S
C418 C416 1.384 . S
C418 C419 1.372 . S
C419 C418 1.372 . S
C419 C420 1.400 . S
C419 C424 1.490 . S
C420 H410 0.930 . S
C420 C419 1.400 . S
C420 C423 1.386 . S
H421 C437 0.930 . S
H422 C438 0.931 . S
C423 H411 0.929 . S
C423 C417 1.390 . S
C423 C420 1.386 . S
C424 C419 1.490 . S
C424 C426 1.395 . S
C424 C427 1.403 . S
H425 C431 0.930 . S
C426 H412 0.930 . S
C426 C424 1.395 . S
C426 C429 1.403 . S
C427 C424 1.403 . S
C427 C428 1.524 . S
C427 C431 1.400 . S
C428 H413 0.960 . S
C428 H414 0.960 . S
C428 H415 0.960 . S
C428 C427 1.524 . S
C429 C426 1.403 . S
C429 C430 1.392 . S
C429 C433 1.495 . S
C430 C429 1.392 . S
C430 C431 1.385 . S
C430 C432 1.478 . S
C431 H425 0.930 . S
C431 C427 1.400 . S
C431 C430 1.385 . S
C432 C430 1.478 . S
C432 C434 1.381 . S
C432 C438 1.383 . S
C433 C429 1.495 . S
C433 H439 0.959 . S
C433 H440 0.961 . S
C433 H441 0.960 . S
C434 C432 1.381 . S
C434 C435 1.394 . S
C434 H442 0.930 . S
C435 C434 1.394 . S
C435 C436 1.383 . S
C435 H443 0.929 . S
C436 C435 1.383 . S
C436 C437 1.377 . S
C437 H421 0.930 . S
C437 C436 1.377 . S
C437 C438 1.379 . S
C438 H422 0.931 . S
C438 C432 1.383 . S
C438 C437 1.379 . S
H439 C433 0.959 . S
H440 C433 0.961 . S
H441 C433 0.960 . S
H442 C434 0.930 . S
H443 C435 0.929 . S
H444 C452 0.929 . S
H445 C454 0.930 . S
H446 C456 0.930 . S
H447 C459 0.929 . S
H448 C462 0.930 . S
H449 C464 0.960 . S
H450 C464 0.960 . S
H451 C464 0.960 . S
C452 H444 0.929 . S
C452 C453 1.377 . S
C452 C454 1.384 . S
C453 C452 1.377 . S
C453 C459 1.390 . S
C454 H445 0.930 . S
C454 C452 1.384 . S
C454 C455 1.372 . S
C455 C454 1.372 . S
C455 C456 1.400 . S
C455 C460 1.490 . S
C456 H446 0.930 . S
C456 C455 1.400 . S
C456 C459 1.386 . S
H457 C473 0.930 . S
H458 C474 0.931 . S
C459 H447 0.929 . S
C459 C453 1.390 . S
C459 C456 1.386 . S
C460 C455 1.490 . S
C460 C462 1.395 . S
C460 C463 1.403 . S
H461 C467 0.930 . S
C462 H448 0.930 . S
C462 C460 1.395 . S
C462 C465 1.403 . S
C463 C460 1.403 . S
C463 C464 1.524 . S
C463 C467 1.400 . S
C464 H449 0.960 . S
C464 H450 0.960 . S
C464 H451 0.960 . S
C464 C463 1.524 . S
C465 C462 1.403 . S
C465 C466 1.392 . S
C465 C469 1.495 . S
C466 C465 1.392 . S
C466 C467 1.385 . S
C466 C468 1.478 . S
C467 H461 0.930 . S
C467 C463 1.400 . S
C467 C466 1.385 . S
C468 C466 1.478 . S
C468 C470 1.381 . S
C468 C474 1.383 . S
C469 C465 1.495 . S
C469 H475 0.959 . S
C469 H476 0.961 . S
C469 H477 0.960 . S
C470 C468 1.381 . S
C470 C471 1.394 . S
C470 H478 0.930 . S
C471 C470 1.394 . S
C471 C472 1.383 . S
C471 H479 0.929 . S
C472 C471 1.383 . S
C472 C473 1.377 . S
C473 H457 0.930 . S
C473 C472 1.377 . S
C473 C474 1.379 . S
C474 H458 0.931 . S
C474 C468 1.383 . S
C474 C473 1.379 . S
H475 C469 0.959 . S
H476 C469 0.961 . S
H477 C469 0.960 . S
H478 C470 0.930 . S
H479 C471 0.929 . S
H480 C488 0.929 . S
H481 C490 0.930 . S
H482 C492 0.930 . S
H483 C495 0.929 . S
H484 C498 0.930 . S
H485 C500 0.960 . S
H486 C500 0.960 . S
H487 C500 0.960 . S
C488 H480 0.929 . S
C488 C489 1.377 . S
C488 C490 1.384 . S
C489 C488 1.377 . S
C489 C495 1.390 . S
C490 H481 0.930 . S
C490 C488 1.384 . S
C490 C491 1.372 . S
C491 C490 1.372 . S
C491 C492 1.400 . S
C491 C496 1.490 . S
C492 H482 0.930 . S
C492 C491 1.400 . S
C492 C495 1.386 . S
H493 C509 0.930 . S
H494 C510 0.931 . S
C495 H483 0.929 . S
C495 C489 1.390 . S
C495 C492 1.386 . S
C496 C491 1.490 . S
C496 C498 1.395 . S
C496 C499 1.403 . S
H497 C503 0.930 . S
C498 H484 0.930 . S
C498 C496 1.395 . S
C498 C501 1.403 . S
C499 C496 1.403 . S
C499 C500 1.524 . S
C499 C503 1.400 . S
C500 H485 0.960 . S
C500 H486 0.960 . S
C500 H487 0.960 . S
C500 C499 1.524 . S
C501 C498 1.403 . S
C501 C502 1.392 . S
C501 C505 1.495 . S
C502 C501 1.392 . S
C502 C503 1.385 . S
C502 C504 1.478 . S
C503 H497 0.930 . S
C503 C499 1.400 . S
C503 C502 1.385 . S
C504 C502 1.478 . S
C504 C506 1.381 . S
C504 C510 1.383 . S
C505 C501 1.495 . S
C505 H511 0.959 . S
C505 H512 0.961 . S
C505 H513 0.960 . S
C506 C504 1.381 . S
C506 C507 1.394 . S
C506 H514 0.930 . S
C507 C506 1.394 . S
C507 C508 1.383 . S
C507 H515 0.929 . S
C508 C507 1.383 . S
C508 C509 1.377 . S
C509 H493 0.930 . S
C509 C508 1.377 . S
C509 C510 1.379 . S
C510 H494 0.931 . S
C510 C504 1.383 . S
C510 C509 1.379 . S
H511 C505 0.959 . S
H512 C505 0.961 . S
H513 C505 0.960 . S
H514 C506 0.930 . S
H515 C507 0.929 . S
H516 C524 0.929 . S
H517 C526 0.930 . S
H518 C528 0.930 . S
H519 C531 0.929 . S
H520 C534 0.930 . S
H521 C536 0.960 . S
H522 C536 0.960 . S
H523 C536 0.960 . S
C524 H516 0.929 . S
C524 C525 1.377 . S
C524 C526 1.384 . S
C525 C524 1.377 . S
C525 C531 1.390 . S
C526 H517 0.930 . S
C526 C524 1.384 . S
C526 C527 1.372 . S
C527 C526 1.372 . S
C527 C528 1.400 . S
C527 C532 1.490 . S
C528 H518 0.930 . S
C528 C527 1.400 . S
C528 C531 1.386 . S
H529 C545 0.930 . S
H530 C546 0.931 . S
C531 H519 0.929 . S
C531 C525 1.390 . S
C531 C528 1.386 . S
C532 C527 1.490 . S
C532 C534 1.395 . S
C532 C535 1.403 . S
H533 C539 0.930 . S
C534 H520 0.930 . S
C534 C532 1.395 . S
C534 C537 1.403 . S
C535 C532 1.403 . S
C535 C536 1.524 . S
C535 C539 1.400 . S
C536 H521 0.960 . S
C536 H522 0.960 . S
C536 H523 0.960 . S
C536 C535 1.524 . S
C537 C534 1.403 . S
C537 C538 1.392 . S
C537 C541 1.495 . S
C538 C537 1.392 . S
C538 C539 1.385 . S
C538 C540 1.478 . S
C539 H533 0.930 . S
C539 C535 1.400 . S
C539 C538 1.385 . S
C540 C538 1.478 . S
C540 C542 1.381 . S
C540 C546 1.383 . S
C541 C537 1.495 . S
C541 H547 0.959 . S
C541 H548 0.961 . S
C541 H549 0.960 . S
C542 C540 1.381 . S
C542 C543 1.394 . S
C542 H550 0.930 . S
C543 C542 1.394 . S
C543 C544 1.383 . S
C543 H551 0.929 . S
C544 C543 1.383 . S
C544 C545 1.377 . S
C545 H529 0.930 . S
C545 C544 1.377 . S
C545 C546 1.379 . S
C546 H530 0.931 . S
C546 C540 1.383 . S
C546 C545 1.379 . S
H547 C541 0.959 . S
H548 C541 0.961 . S
H549 C541 0.960 . S
H550 C542 0.930 . S
H551 C543 0.929 . S
H552 C560 0.929 . S
H553 C562 0.930 . S
H554 C564 0.930 . S
H555 C567 0.929 . S
H556 C570 0.930 . S
H557 C572 0.960 . S
H558 C572 0.960 . S
H559 C572 0.960 . S
C560 H552 0.929 . S
C560 C561 1.377 . S
C560 C562 1.384 . S
C561 C560 1.377 . S
C561 C567 1.390 . S
C562 H553 0.930 . S
C562 C560 1.384 . S
C562 C563 1.372 . S
C563 C562 1.372 . S
C563 C564 1.400 . S
C563 C568 1.490 . S
C564 H554 0.930 . S
C564 C563 1.400 . S
C564 C567 1.386 . S
H565 C581 0.930 . S
H566 C582 0.931 . S
C567 H555 0.929 . S
C567 C561 1.390 . S
C567 C564 1.386 . S
C568 C563 1.490 . S
C568 C570 1.395 . S
C568 C571 1.403 . S
H569 C575 0.930 . S
C570 H556 0.930 . S
C570 C568 1.395 . S
C570 C573 1.403 . S
C571 C568 1.403 . S
C571 C572 1.524 . S
C571 C575 1.400 . S
C572 H557 0.960 . S
C572 H558 0.960 . S
C572 H559 0.960 . S
C572 C571 1.524 . S
C573 C570 1.403 . S
C573 C574 1.392 . S
C573 C577 1.495 . S
C574 C573 1.392 . S
C574 C575 1.385 . S
C574 C576 1.478 . S
C575 H569 0.930 . S
C575 C571 1.400 . S
C575 C574 1.385 . S
C576 C574 1.478 . S
C576 C578 1.381 . S
C576 C582 1.383 . S
C577 C573 1.495 . S
C577 H583 0.959 . S
C577 H584 0.961 . S
C577 H585 0.960 . S
C578 C576 1.381 . S
C578 C579 1.394 . S
C578 H586 0.930 . S
C579 C578 1.394 . S
C579 C580 1.383 . S
C579 H587 0.929 . S
C580 C579 1.383 . S
C580 C581 1.377 . S
C581 H565 0.930 . S
C581 C580 1.377 . S
C581 C582 1.379 . S
C582 H566 0.931 . S
C582 C576 1.383 . S
C582 C581 1.379 . S
H583 C577 0.959 . S
H584 C577 0.961 . S
H585 C577 0.960 . S
H586 C578 0.930 . S
H587 C579 0.929 . S
H588 C596 0.929 . S
H589 C598 0.930 . S
H590 C600 0.930 . S
H591 C603 0.929 . S
H592 C606 0.930 . S
H593 C608 0.960 . S
H594 C608 0.960 . S
H595 C608 0.960 . S
C596 H588 0.929 . S
C596 C597 1.377 . S
C596 C598 1.384 . S
C597 C596 1.377 . S
C597 C603 1.390 . S
C598 H589 0.930 . S
C598 C596 1.384 . S
C598 C599 1.372 . S
C599 C598 1.372 . S
C599 C600 1.400 . S
C599 C604 1.490 . S
C600 H590 0.930 . S
C600 C599 1.400 . S
C600 C603 1.386 . S
H601 C617 0.930 . S
H602 C618 0.931 . S
C603 H591 0.929 . S
C603 C597 1.390 . S
C603 C600 1.386 . S
C604 C599 1.490 . S
C604 C606 1.395 . S
C604 C607 1.403 . S
H605 C611 0.930 . S
C606 H592 0.930 . S
C606 C604 1.395 . S
C606 C609 1.403 . S
C607 C604 1.403 . S
C607 C608 1.524 . S
C607 C611 1.400 . S
C608 H593 0.960 . S
C608 H594 0.960 . S
C608 H595 0.960 . S
C608 C607 1.524 . S
C609 C606 1.403 . S
C609 C610 1.392 . S
C609 C613 1.495 . S
C610 C609 1.392 . S
C610 C611 1.385 . S
C610 C612 1.478 . S
C611 H605 0.930 . S
C611 C607 1.400 . S
C611 C610 1.385 . S
C612 C610 1.478 . S
C612 C614 1.381 . S
C612 C618 1.383 . S
C613 C609 1.495 . S
C613 H619 0.959 . S
C613 H620 0.961 . S
C613 H621 0.960 . S
C614 C612 1.381 . S
C614 C615 1.394 . S
C614 H622 0.930 . S
C615 C614 1.394 . S
C615 C616 1.383 . S
C615 H623 0.929 . S
C616 C615 1.383 . S
C616 C617 1.377 . S
C617 H601 0.930 . S
C617 C616 1.377 . S
C617 C618 1.379 . S
C618 H602 0.931 . S
C618 C612 1.383 . S
C618 C617 1.379 . S
H619 C613 0.959 . S
H620 C613 0.961 . S
H621 C613 0.960 . S
H622 C614 0.930 . S
H623 C615 0.929 . S
H624 C632 0.929 . S
H625 C634 0.930 . S
H626 C636 0.930 . S
H627 C639 0.929 . S
H628 C642 0.930 . S
H629 C644 0.960 . S
H630 C644 0.960 . S
H631 C644 0.960 . S
C632 H624 0.929 . S
C632 C633 1.377 . S
C632 C634 1.384 . S
C633 C632 1.377 . S
C633 C639 1.390 . S
C634 H625 0.930 . S
C634 C632 1.384 . S
C634 C635 1.372 . S
C635 C634 1.372 . S
C635 C636 1.400 . S
C635 C640 1.490 . S
C636 H626 0.930 . S
C636 C635 1.400 . S
C636 C639 1.386 . S
H637 C653 0.930 . S
H638 C654 0.931 . S
C639 H627 0.929 . S
C639 C633 1.390 . S
C639 C636 1.386 . S
C640 C635 1.490 . S
C640 C642 1.395 . S
C640 C643 1.403 . S
H641 C647 0.930 . S
C642 H628 0.930 . S
C642 C640 1.395 . S
C642 C645 1.403 . S
C643 C640 1.403 . S
C643 C644 1.524 . S
C643 C647 1.400 . S
C644 H629 0.960 . S
C644 H630 0.960 . S
C644 H631 0.960 . S
C644 C643 1.524 . S
C645 C642 1.403 . S
C645 C646 1.392 . S
C645 C649 1.495 . S
C646 C645 1.392 . S
C646 C647 1.385 . S
C646 C648 1.478 . S
C647 H641 0.930 . S
C647 C643 1.400 . S
C647 C646 1.385 . S
C648 C646 1.478 . S
C648 C650 1.381 . S
C648 C654 1.383 . S
C649 C645 1.495 . S
C649 H655 0.959 . S
C649 H656 0.961 . S
C649 H657 0.960 . S
C650 C648 1.381 . S
C650 C651 1.394 . S
C650 H658 0.930 . S
C651 C650 1.394 . S
C651 C652 1.383 . S
C651 H659 0.929 . S
C652 C651 1.383 . S
C652 C653 1.377 . S
C653 H637 0.930 . S
C653 C652 1.377 . S
C653 C654 1.379 . S
C654 H638 0.931 . S
C654 C648 1.383 . S
C654 C653 1.379 . S
H655 C649 0.959 . S
H656 C649 0.961 . S
H657 C649 0.960 . S
H658 C650 0.930 . S
H659 C651 0.929 . S
H660 C668 0.929 . S
H661 C670 0.930 . S
H662 C672 0.930 . S
H663 C675 0.929 . S
H664 C678 0.930 . S
H665 C680 0.960 . S
H666 C680 0.960 . S
H667 C680 0.960 . S
C668 H660 0.929 . S
C668 C669 1.377 . S
C668 C670 1.384 . S
C669 C668 1.377 . S
C669 C675 1.390 . S
C670 H661 0.930 . S
C670 C668 1.384 . S
C670 C671 1.372 . S
C671 C670 1.372 . S
C671 C672 1.400 . S
C671 C676 1.490 . S
C672 H662 0.930 . S
C672 C671 1.400 . S
C672 C675 1.386 . S
H673 C689 0.930 . S
H674 C690 0.931 . S
C675 H663 0.929 . S
C675 C669 1.390 . S
C675 C672 1.386 . S
C676 C671 1.490 . S
C676 C678 1.395 . S
C676 C679 1.403 . S
H677 C683 0.930 . S
C678 H664 0.930 . S
C678 C676 1.395 . S
C678 C681 1.403 . S
C679 C676 1.403 . S
C679 C680 1.524 . S
C679 C683 1.400 . S
C680 H665 0.960 . S
C680 H666 0.960 . S
C680 H667 0.960 . S
C680 C679 1.524 . S
C681 C678 1.403 . S
C681 C682 1.392 . S
C681 C685 1.495 . S
C682 C681 1.392 . S
C682 C683 1.385 . S
C682 C684 1.478 . S
C683 H677 0.930 . S
C683 C679 1.400 . S
C683 C682 1.385 . S
C684 C682 1.478 . S
C684 C686 1.381 . S
C684 C690 1.383 . S
C685 C681 1.495 . S
C685 H691 0.959 . S
C685 H692 0.961 . S
C685 H693 0.960 . S
C686 C684 1.381 . S
C686 C687 1.394 . S
C686 H694 0.930 . S
C687 C686 1.394 . S
C687 C688 1.383 . S
C687 H695 0.929 . S
C688 C687 1.383 . S
C688 C689 1.377 . S
C689 H673 0.930 . S
C689 C688 1.377 . S
C689 C690 1.379 . S
C690 H674 0.931 . S
C690 C684 1.383 . S
C690 C689 1.379 . S
H691 C685 0.959 . S
H692 C685 0.961 . S
H693 C685 0.960 . S
H694 C686 0.930 . S
H695 C687 0.929 . S
H696 C704 0.929 1_545 S
H697 C706 0.930 . S
H698 C708 0.930 . S
H699 C711 0.929 . S
H700 C714 0.930 . S
H701 C716 0.960 . S
H702 C716 0.960 . S
H703 C716 0.960 . S
C704 H696 0.929 1_565 S
C704 C705 1.377 . S
C704 C706 1.384 . S
C705 C704 1.377 . S
C705 C711 1.390 . S
C706 H697 0.930 . S
C706 C704 1.384 . S
C706 C707 1.372 . S
C707 C706 1.372 . S
C707 C708 1.400 . S
C707 C712 1.490 . S
C708 H698 0.930 . S
C708 C707 1.400 . S
C708 C711 1.386 . S
H709 C725 0.930 . S
H710 C726 0.931 . S
C711 H699 0.929 . S
C711 C705 1.390 . S
C711 C708 1.386 . S
C712 C707 1.490 . S
C712 C714 1.395 . S
C712 C715 1.403 . S
H713 C719 0.930 . S
C714 H700 0.930 . S
C714 C712 1.395 . S
C714 C717 1.403 . S
C715 C712 1.403 . S
C715 C716 1.524 . S
C715 C719 1.400 . S
C716 H701 0.960 . S
C716 H702 0.960 . S
C716 H703 0.960 . S
C716 C715 1.524 . S
C717 C714 1.403 . S
C717 C718 1.392 . S
C717 C721 1.495 . S
C718 C717 1.392 . S
C718 C719 1.385 . S
C718 C720 1.478 . S
C719 H713 0.930 . S
C719 C715 1.400 . S
C719 C718 1.385 . S
C720 C718 1.478 . S
C720 C722 1.381 . S
C720 C726 1.383 . S
C721 C717 1.495 . S
C721 H727 0.959 . S
C721 H728 0.961 . S
C721 H729 0.960 . S
C722 C720 1.381 . S
C722 C723 1.394 . S
C722 H730 0.930 . S
C723 C722 1.394 . S
C723 C724 1.383 . S
C723 H731 0.929 . S
C724 C723 1.383 . S
C724 C725 1.377 . S
C725 H709 0.930 . S
C725 C724 1.377 . S
C725 C726 1.379 . S
C726 H710 0.931 . S
C726 C720 1.383 . S
C726 C725 1.379 . S
H727 C721 0.959 . S
H728 C721 0.961 . S
H729 C721 0.960 . S
H730 C722 0.930 . S
H731 C723 0.929 . S
H732 C740 0.929 . S
H733 C742 0.930 . S
H734 C744 0.930 . S
H735 C747 0.929 . S
H736 C750 0.930 . S
H737 C752 0.960 . S
H738 C752 0.960 . S
H739 C752 0.960 . S
C740 H732 0.929 . S
C740 C741 1.377 . S
C740 C742 1.384 . S
C741 C740 1.377 . S
C741 C747 1.390 . S
C742 H733 0.930 . S
C742 C740 1.384 . S
C742 C743 1.372 . S
C743 C742 1.372 . S
C743 C744 1.400 . S
C743 C748 1.490 . S
C744 H734 0.930 . S
C744 C743 1.400 . S
C744 C747 1.386 . S
H745 C761 0.930 . S
H746 C762 0.931 . S
C747 H735 0.929 . S
C747 C741 1.390 . S
C747 C744 1.386 . S
C748 C743 1.490 . S
C748 C750 1.395 . S
C748 C751 1.403 . S
H749 C755 0.930 . S
C750 H736 0.930 . S
C750 C748 1.395 . S
C750 C753 1.403 . S
C751 C748 1.403 . S
C751 C752 1.524 . S
C751 C755 1.400 . S
C752 H737 0.960 . S
C752 H738 0.960 . S
C752 H739 0.960 . S
C752 C751 1.524 . S
C753 C750 1.403 . S
C753 C754 1.392 . S
C753 C757 1.495 . S
C754 C753 1.392 . S
C754 C755 1.385 . S
C754 C756 1.478 . S
C755 H749 0.930 . S
C755 C751 1.400 . S
C755 C754 1.385 . S
C756 C754 1.478 . S
C756 C758 1.381 . S
C756 C762 1.383 . S
C757 C753 1.495 . S
C757 H763 0.959 . S
C757 H764 0.961 . S
C757 H765 0.960 . S
C758 C756 1.381 . S
C758 C759 1.394 . S
C758 H766 0.930 . S
C759 C758 1.394 . S
C759 C760 1.383 . S
C759 H767 0.929 . S
C760 C759 1.383 . S
C760 C761 1.377 . S
C761 H745 0.930 . S
C761 C760 1.377 . S
C761 C762 1.379 . S
C762 H746 0.931 . S
C762 C756 1.383 . S
C762 C761 1.379 . S
H763 C757 0.959 . S
H764 C757 0.961 . S
H765 C757 0.960 . S
H766 C758 0.930 . S
H767 C759 0.929 . S
H768 C776 0.929 . S
H769 C778 0.930 . S
H770 C780 0.930 . S
H771 C783 0.929 . S
H772 C786 0.930 . S
H773 C788 0.960 . S
H774 C788 0.960 . S
H775 C788 0.960 . S
C776 H768 0.929 . S
C776 C777 1.377 . S
C776 C778 1.384 . S
C777 C776 1.377 . S
C777 C783 1.390 . S
C778 H769 0.930 . S
C778 C776 1.384 . S
C778 C779 1.372 . S
C779 C778 1.372 . S
C779 C780 1.400 . S
C779 C784 1.490 . S
C780 H770 0.930 . S
C780 C779 1.400 . S
C780 C783 1.386 . S
H781 C797 0.930 . S
H782 C798 0.931 . S
C783 H771 0.929 . S
C783 C777 1.390 . S
C783 C780 1.386 . S
C784 C779 1.490 . S
C784 C786 1.395 . S
C784 C787 1.403 . S
H785 C791 0.930 . S
C786 H772 0.930 . S
C786 C784 1.395 . S
C786 C789 1.403 . S
C787 C784 1.403 . S
C787 C788 1.524 . S
C787 C791 1.400 . S
C788 H773 0.960 . S
C788 H774 0.960 . S
C788 H775 0.960 . S
C788 C787 1.524 . S
C789 C786 1.403 . S
C789 C790 1.392 . S
C789 C793 1.495 . S
C790 C789 1.392 . S
C790 C791 1.385 . S
C790 C792 1.478 . S
C791 H785 0.930 . S
C791 C787 1.400 . S
C791 C790 1.385 . S
C792 C790 1.478 . S
C792 C794 1.381 . S
C792 C798 1.383 . S
C793 C789 1.495 . S
C793 H799 0.959 . S
C793 H800 0.961 . S
C793 H801 0.960 . S
C794 C792 1.381 . S
C794 C795 1.394 . S
C794 H802 0.930 . S
C795 C794 1.394 . S
C795 C796 1.383 . S
C795 H803 0.929 . S
C796 C795 1.383 . S
C796 C797 1.377 . S
C797 H781 0.930 . S
C797 C796 1.377 . S
C797 C798 1.379 . S
C798 H782 0.931 . S
C798 C792 1.383 . S
C798 C797 1.379 . S
H799 C793 0.959 . S
H800 C793 0.961 . S
H801 C793 0.960 . S
H802 C794 0.930 . S
H803 C795 0.929 . S
H804 C812 0.929 . S
H805 C814 0.930 . S
H806 C816 0.930 . S
H807 C819 0.929 1_455 S
H808 C822 0.930 . S
H809 C824 0.960 . S
H810 C824 0.960 . S
H811 C824 0.960 . S
C812 H804 0.929 . S
C812 C813 1.377 . S
C812 C814 1.384 . S
C813 C812 1.377 . S
C813 C819 1.390 . S
C814 H805 0.930 . S
C814 C812 1.384 . S
C814 C815 1.372 . S
C815 C814 1.372 . S
C815 C816 1.400 . S
C815 C820 1.490 . S
C816 H806 0.930 . S
C816 C815 1.400 . S
C816 C819 1.386 . S
H817 C833 0.930 . S
H818 C834 0.931 . S
C819 H807 0.929 1_655 S
C819 C813 1.390 . S
C819 C816 1.386 . S
C820 C815 1.490 . S
C820 C822 1.395 . S
C820 C823 1.403 . S
H821 C827 0.930 . S
C822 H808 0.930 . S
C822 C820 1.395 . S
C822 C825 1.403 . S
C823 C820 1.403 . S
C823 C824 1.524 . S
C823 C827 1.400 . S
C824 H809 0.960 . S
C824 H810 0.960 . S
C824 H811 0.960 . S
C824 C823 1.524 . S
C825 C822 1.403 . S
C825 C826 1.392 . S
C825 C829 1.495 . S
C826 C825 1.392 . S
C826 C827 1.385 . S
C826 C828 1.478 . S
C827 H821 0.930 . S
C827 C823 1.400 . S
C827 C826 1.385 . S
C828 C826 1.478 . S
C828 C830 1.381 . S
C828 C834 1.383 . S
C829 C825 1.495 . S
C829 H835 0.959 . S
C829 H836 0.961 . S
C829 H837 0.960 . S
C830 C828 1.381 . S
C830 C831 1.394 . S
C830 H838 0.930 . S
C831 C830 1.394 . S
C831 C832 1.383 . S
C831 H839 0.929 . S
C832 C831 1.383 . S
C832 C833 1.377 . S
C833 H817 0.930 . S
C833 C832 1.377 . S
C833 C834 1.379 . S
C834 H818 0.931 . S
C834 C828 1.383 . S
C834 C833 1.379 . S
H835 C829 0.959 . S
H836 C829 0.961 . S
H837 C829 0.960 . S
H838 C830 0.930 . S
H839 C831 0.929 . S
H840 C848 0.929 . S
H841 C850 0.930 . S
H842 C852 0.930 . S
H843 C855 0.929 . S
H844 C858 0.930 . S
H845 C860 0.960 . S
H846 C860 0.960 . S
H847 C860 0.960 . S
C848 H840 0.929 . S
C848 C849 1.377 . S
C848 C850 1.384 . S
C849 C848 1.377 . S
C849 C855 1.390 . S
C850 H841 0.930 . S
C850 C848 1.384 . S
C850 C851 1.372 . S
C851 C850 1.372 . S
C851 C852 1.400 . S
C851 C856 1.490 . S
C852 H842 0.930 . S
C852 C851 1.400 . S
C852 C855 1.386 . S
H853 C869 0.930 . S
H854 C870 0.931 . S
C855 H843 0.929 . S
C855 C849 1.390 . S
C855 C852 1.386 . S
C856 C851 1.490 . S
C856 C858 1.395 . S
C856 C859 1.403 . S
H857 C863 0.930 . S
C858 H844 0.930 . S
C858 C856 1.395 . S
C858 C861 1.403 . S
C859 C856 1.403 . S
C859 C860 1.524 . S
C859 C863 1.400 . S
C860 H845 0.960 . S
C860 H846 0.960 . S
C860 H847 0.960 . S
C860 C859 1.524 . S
C861 C858 1.403 . S
C861 C862 1.392 . S
C861 C865 1.495 . S
C862 C861 1.392 . S
C862 C863 1.385 . S
C862 C864 1.478 . S
C863 H857 0.930 . S
C863 C859 1.400 . S
C863 C862 1.385 . S
C864 C862 1.478 . S
C864 C866 1.381 . S
C864 C870 1.383 . S
C865 C861 1.495 . S
C865 H871 0.959 . S
C865 H872 0.961 . S
C865 H873 0.960 . S
C866 C864 1.381 . S
C866 C867 1.394 . S
C866 H874 0.930 . S
C867 C866 1.394 . S
C867 C868 1.383 . S
C867 H875 0.929 . S
C868 C867 1.383 . S
C868 C869 1.377 . S
C869 H853 0.930 . S
C869 C868 1.377 . S
C869 C870 1.379 . S
C870 H854 0.931 . S
C870 C864 1.383 . S
C870 C869 1.379 . S
H871 C865 0.959 . S
H872 C865 0.961 . S
H873 C865 0.960 . S
H874 C866 0.930 . S
H875 C867 0.929 . S
H876 C884 0.929 . S
H877 C886 0.930 . S
H878 C888 0.930 . S
H879 C891 0.929 . S
H880 C894 0.930 . S
H881 C896 0.960 . S
H882 C896 0.960 . S
H883 C896 0.960 . S
C884 H876 0.929 . S
C884 C885 1.377 . S
C884 C886 1.384 . S
C885 C884 1.377 . S
C885 C891 1.390 . S
C886 H877 0.930 . S
C886 C884 1.384 . S
C886 C887 1.372 . S
C887 C886 1.372 . S
C887 C888 1.400 . S
C887 C892 1.490 . S
C888 H878 0.930 . S
C888 C887 1.400 . S
C888 C891 1.386 . S
H889 C905 0.930 . S
H890 C906 0.931 . S
C891 H879 0.929 . S
C891 C885 1.390 . S
C891 C888 1.386 . S
C892 C887 1.490 . S
C892 C894 1.395 . S
C892 C895 1.403 . S
H893 C899 0.930 . S
C894 H880 0.930 . S
C894 C892 1.395 . S
C894 C897 1.403 . S
C895 C892 1.403 . S
C895 C896 1.524 . S
C895 C899 1.400 . S
C896 H881 0.960 . S
C896 H882 0.960 . S
C896 H883 0.960 . S
C896 C895 1.524 . S
C897 C894 1.403 . S
C897 C898 1.392 . S
C897 C901 1.495 . S
C898 C897 1.392 . S
C898 C899 1.385 . S
C898 C900 1.478 . S
C899 H893 0.930 . S
C899 C895 1.400 . S
C899 C898 1.385 . S
C900 C898 1.478 . S
C900 C902 1.381 . S
C900 C906 1.383 . S
C901 C897 1.495 . S
C901 H907 0.959 . S
C901 H908 0.961 . S
C901 H909 0.960 . S
C902 C900 1.381 . S
C902 C903 1.394 . S
C902 H910 0.930 . S
C903 C902 1.394 . S
C903 C904 1.383 . S
C903 H911 0.929 . S
C904 C903 1.383 . S
C904 C905 1.377 . S
C905 H889 0.930 . S
C905 C904 1.377 . S
C905 C906 1.379 . S
C906 H890 0.931 . S
C906 C900 1.383 . S
C906 C905 1.379 . S
H907 C901 0.959 . S
H908 C901 0.961 . S
H909 C901 0.960 . S
H910 C902 0.930 . S
H911 C903 0.929 . S
H912 C920 0.929 . S
H913 C922 0.930 . S
H914 C924 0.930 . S
H915 C927 0.929 . S
H916 C930 0.930 . S
H917 C932 0.960 . S
H918 C932 0.960 . S
H919 C932 0.960 . S
C920 H912 0.929 . S
C920 C921 1.377 . S
C920 C922 1.384 . S
C921 C920 1.377 . S
C921 C927 1.390 . S
C922 H913 0.930 . S
C922 C920 1.384 . S
C922 C923 1.372 . S
C923 C922 1.372 . S
C923 C924 1.400 . S
C923 C928 1.490 . S
C924 H914 0.930 . S
C924 C923 1.400 . S
C924 C927 1.386 . S
H925 C941 0.930 . S
H926 C942 0.931 . S
C927 H915 0.929 . S
C927 C921 1.390 . S
C927 C924 1.386 . S
C928 C923 1.490 . S
C928 C930 1.395 . S
C928 C931 1.403 . S
H929 C935 0.930 . S
C930 H916 0.930 . S
C930 C928 1.395 . S
C930 C933 1.403 . S
C931 C928 1.403 . S
C931 C932 1.524 . S
C931 C935 1.400 . S
C932 H917 0.960 . S
C932 H918 0.960 . S
C932 H919 0.960 . S
C932 C931 1.524 . S
C933 C930 1.403 . S
C933 C934 1.392 . S
C933 C937 1.495 . S
C934 C933 1.392 . S
C934 C935 1.385 . S
C934 C936 1.478 . S
C935 H929 0.930 . S
C935 C931 1.400 . S
C935 C934 1.385 . S
C936 C934 1.478 . S
C936 C938 1.381 . S
C936 C942 1.383 . S
C937 C933 1.495 . S
C937 H943 0.959 . S
C937 H944 0.961 . S
C937 H945 0.960 . S
C938 C936 1.381 . S
C938 C939 1.394 . S
C938 H946 0.930 . S
C939 C938 1.394 . S
C939 C940 1.383 . S
C939 H947 0.929 . S
C940 C939 1.383 . S
C940 C941 1.377 . S
C941 H925 0.930 . S
C941 C940 1.377 . S
C941 C942 1.379 . S
C942 H926 0.931 . S
C942 C936 1.383 . S
C942 C941 1.379 . S
H943 C937 0.959 . S
H944 C937 0.961 . S
H945 C937 0.960 . S
H946 C938 0.930 . S
H947 C939 0.929 . S
H948 C956 0.929 . S
H949 C958 0.930 . S
H950 C960 0.930 . S
H951 C963 0.929 . S
H952 C966 0.930 . S
H953 C968 0.960 . S
H954 C968 0.960 . S
H955 C968 0.960 . S
C956 H948 0.929 . S
C956 C957 1.377 . S
C956 C958 1.384 . S
C957 C956 1.377 . S
C957 C963 1.390 . S
C958 H949 0.930 . S
C958 C956 1.384 . S
C958 C959 1.372 . S
C959 C958 1.372 . S
C959 C960 1.400 . S
C959 C964 1.490 . S
C960 H950 0.930 . S
C960 C959 1.400 . S
C960 C963 1.386 . S
H961 C977 0.930 . S
H962 C978 0.931 . S
C963 H951 0.929 . S
C963 C957 1.390 . S
C963 C960 1.386 . S
C964 C959 1.490 . S
C964 C966 1.395 . S
C964 C967 1.403 . S
H965 C971 0.930 . S
C966 H952 0.930 . S
C966 C964 1.395 . S
C966 C969 1.403 . S
C967 C964 1.403 . S
C967 C968 1.524 . S
C967 C971 1.400 . S
C968 H953 0.960 . S
C968 H954 0.960 . S
C968 H955 0.960 . S
C968 C967 1.524 . S
C969 C966 1.403 . S
C969 C970 1.392 . S
C969 C973 1.495 . S
C970 C969 1.392 . S
C970 C971 1.385 . S
C970 C972 1.478 . S
C971 H965 0.930 . S
C971 C967 1.400 . S
C971 C970 1.385 . S
C972 C970 1.478 . S
C972 C974 1.381 . S
C972 C978 1.383 . S
C973 C969 1.495 . S
C973 H979 0.959 . S
C973 H980 0.961 . S
C973 H981 0.960 . S
C974 C972 1.381 . S
C974 C975 1.394 . S
C974 H982 0.930 . S
C975 C974 1.394 . S
C975 C976 1.383 . S
C975 H983 0.929 . S
C976 C975 1.383 . S
C976 C977 1.377 . S
C977 H961 0.930 . S
C977 C976 1.377 . S
C977 C978 1.379 . S
C978 H962 0.931 . S
C978 C972 1.383 . S
C978 C977 1.379 . S
H979 C973 0.959 . S
H980 C973 0.961 . S
H981 C973 0.960 . S
H982 C974 0.930 . S
H983 C975 0.929 . S
H984 C992 0.929 1_554 S
H985 C994 0.930 . S
H986 C996 0.930 . S
H987 C999 0.929 . S
H988 C1002 0.930 . S
H989 C1004 0.960 . S
H990 C1004 0.960 . S
H991 C1004 0.960 . S
C992 H984 0.929 1_556 S
C992 C993 1.377 . S
C992 C994 1.384 . S
C993 C992 1.377 . S
C993 C999 1.390 . S
C994 H985 0.930 . S
C994 C992 1.384 . S
C994 C995 1.372 . S
C995 C994 1.372 . S
C995 C996 1.400 . S
C995 C1000 1.490 . S
C996 H986 0.930 . S
C996 C995 1.400 . S
C996 C999 1.386 . S
H997 C1013 0.930 . S
H998 C1014 0.931 . S
C999 H987 0.929 . S
C999 C993 1.390 . S
C999 C996 1.386 . S
C1000 C995 1.490 . S
C1000 C1002 1.395 . S
C1000 C1003 1.403 . S
H1001 C1007 0.930 . S
C1002 H988 0.930 . S
C1002 C1000 1.395 . S
C1002 C1005 1.403 . S
C1003 C1000 1.403 . S
C1003 C1004 1.524 . S
C1003 C1007 1.400 . S
C1004 H989 0.960 . S
C1004 H990 0.960 . S
C1004 H991 0.960 . S
C1004 C1003 1.524 . S
C1005 C1002 1.403 . S
C1005 C1006 1.392 . S
C1005 C1009 1.495 . S
C1006 C1005 1.392 . S
C1006 C1007 1.385 . S
C1006 C1008 1.478 . S
C1007 H1001 0.930 . S
C1007 C1003 1.400 . S
C1007 C1006 1.385 . S
C1008 C1006 1.478 . S
C1008 C1010 1.381 . S
C1008 C1014 1.383 . S
C1009 C1005 1.495 . S
C1009 H1015 0.959 . S
C1009 H1016 0.961 . S
C1009 H1017 0.960 . S
C1010 C1008 1.381 . S
C1010 C1011 1.394 . S
C1010 H1018 0.930 . S
C1011 C1010 1.394 . S
C1011 C1012 1.383 . S
C1011 H1019 0.929 . S
C1012 C1011 1.383 . S
C1012 C1013 1.377 . S
C1013 H997 0.930 . S
C1013 C1012 1.377 . S
C1013 C1014 1.379 . S
C1014 H998 0.931 . S
C1014 C1008 1.383 . S
C1014 C1013 1.379 . S
H1015 C1009 0.959 . S
H1016 C1009 0.961 . S
H1017 C1009 0.960 . S
H1018 C1010 0.930 . S
H1019 C1011 0.929 . S
H1020 C1028 0.929 . S
H1021 C1030 0.930 . S
H1022 C1032 0.930 . S
H1023 C1035 0.929 . S
H1024 C1038 0.930 . S
H1025 C1040 0.960 . S
H1026 C1040 0.960 . S
H1027 C1040 0.960 . S
C1028 H1020 0.929 . S
C1028 C1029 1.377 . S
C1028 C1030 1.384 . S
C1029 C1028 1.377 . S
C1029 C1035 1.390 . S
C1030 H1021 0.930 . S
C1030 C1028 1.384 . S
C1030 C1031 1.372 . S
C1031 C1030 1.372 . S
C1031 C1032 1.400 . S
C1031 C1036 1.490 . S
C1032 H1022 0.930 . S
C1032 C1031 1.400 . S
C1032 C1035 1.386 . S
H1033 C1049 0.930 . S
H1034 C1050 0.931 . S
C1035 H1023 0.929 . S
C1035 C1029 1.390 . S
C1035 C1032 1.386 . S
C1036 C1031 1.490 . S
C1036 C1038 1.395 . S
C1036 C1039 1.403 . S
H1037 C1043 0.930 . S
C1038 H1024 0.930 . S
C1038 C1036 1.395 . S
C1038 C1041 1.403 . S
C1039 C1036 1.403 . S
C1039 C1040 1.524 . S
C1039 C1043 1.400 . S
C1040 H1025 0.960 . S
C1040 H1026 0.960 . S
C1040 H1027 0.960 . S
C1040 C1039 1.524 . S
C1041 C1038 1.403 . S
C1041 C1042 1.392 . S
C1041 C1045 1.495 . S
C1042 C1041 1.392 . S
C1042 C1043 1.385 . S
C1042 C1044 1.478 . S
C1043 H1037 0.930 . S
C1043 C1039 1.400 . S
C1043 C1042 1.385 . S
C1044 C1042 1.478 . S
C1044 C1046 1.381 . S
C1044 C1050 1.383 . S
C1045 C1041 1.495 . S
C1045 H1051 0.959 . S
C1045 H1052 0.961 . S
C1045 H1053 0.960 . S
C1046 C1044 1.381 . S
C1046 C1047 1.394 . S
C1046 H1054 0.930 . S
C1047 C1046 1.394 . S
C1047 C1048 1.383 . S
C1047 H1055 0.929 . S
C1048 C1047 1.383 . S
C1048 C1049 1.377 . S
C1049 H1033 0.930 . S
C1049 C1048 1.377 . S
C1049 C1050 1.379 . S
C1050 H1034 0.931 . S
C1050 C1044 1.383 . S
C1050 C1049 1.379 . S
H1051 C1045 0.959 . S
H1052 C1045 0.961 . S
H1053 C1045 0.960 . S
H1054 C1046 0.930 . S
H1055 C1047 0.929 . S
H1056 C1064 0.929 . S
H1057 C1066 0.930 . S
H1058 C1068 0.930 . S
H1059 C1071 0.929 . S
H1060 C1074 0.930 . S
H1061 C1076 0.960 . S
H1062 C1076 0.960 . S
H1063 C1076 0.960 . S
C1064 H1056 0.929 . S
C1064 C1065 1.377 . S
C1064 C1066 1.384 . S
C1065 C1064 1.377 . S
C1065 C1071 1.390 . S
C1066 H1057 0.930 . S
C1066 C1064 1.384 . S
C1066 C1067 1.372 . S
C1067 C1066 1.372 . S
C1067 C1068 1.400 . S
C1067 C1072 1.490 . S
C1068 H1058 0.930 . S
C1068 C1067 1.400 . S
C1068 C1071 1.386 . S
H1069 C1085 0.930 . S
H1070 C1086 0.931 . S
C1071 H1059 0.929 . S
C1071 C1065 1.390 . S
C1071 C1068 1.386 . S
C1072 C1067 1.490 . S
C1072 C1074 1.395 . S
C1072 C1075 1.403 . S
H1073 C1079 0.930 . S
C1074 H1060 0.930 . S
C1074 C1072 1.395 . S
C1074 C1077 1.403 . S
C1075 C1072 1.403 . S
C1075 C1076 1.524 . S
C1075 C1079 1.400 . S
C1076 H1061 0.960 . S
C1076 H1062 0.960 . S
C1076 H1063 0.960 . S
C1076 C1075 1.524 . S
C1077 C1074 1.403 . S
C1077 C1078 1.392 . S
C1077 C1081 1.495 . S
C1078 C1077 1.392 . S
C1078 C1079 1.385 . S
C1078 C1080 1.478 . S
C1079 H1073 0.930 . S
C1079 C1075 1.400 . S
C1079 C1078 1.385 . S
C1080 C1078 1.478 . S
C1080 C1082 1.381 . S
C1080 C1086 1.383 . S
C1081 C1077 1.495 . S
C1081 H1087 0.959 . S
C1081 H1088 0.961 . S
C1081 H1089 0.960 . S
C1082 C1080 1.381 . S
C1082 C1083 1.394 . S
C1082 H1090 0.930 . S
C1083 C1082 1.394 . S
C1083 C1084 1.383 . S
C1083 H1091 0.929 . S
C1084 C1083 1.383 . S
C1084 C1085 1.377 . S
C1085 H1069 0.930 . S
C1085 C1084 1.377 . S
C1085 C1086 1.379 . S
C1086 H1070 0.931 . S
C1086 C1080 1.383 . S
C1086 C1085 1.379 . S
H1087 C1081 0.959 . S
H1088 C1081 0.961 . S
H1089 C1081 0.960 . S
H1090 C1082 0.930 . S
H1091 C1083 0.929 . S
H1092 C1100 0.929 . S
H1093 C1102 0.930 . S
H1094 C1104 0.930 . S
H1095 C1107 0.929 . S
H1096 C1110 0.930 . S
H1097 C1112 0.960 . S
H1098 C1112 0.960 . S
H1099 C1112 0.960 . S
C1100 H1092 0.929 . S
C1100 C1101 1.377 . S
C1100 C1102 1.384 . S
C1101 C1100 1.377 . S
C1101 C1107 1.390 . S
C1102 H1093 0.930 . S
C1102 C1100 1.384 . S
C1102 C1103 1.372 . S
C1103 C1102 1.372 . S
C1103 C1104 1.400 . S
C1103 C1108 1.490 . S
C1104 H1094 0.930 . S
C1104 C1103 1.400 . S
C1104 C1107 1.386 . S
H1105 C1121 0.930 . S
H1106 C1122 0.931 . S
C1107 H1095 0.929 . S
C1107 C1101 1.390 . S
C1107 C1104 1.386 . S
C1108 C1103 1.490 . S
C1108 C1110 1.395 . S
C1108 C1111 1.403 . S
H1109 C1115 0.930 . S
C1110 H1096 0.930 . S
C1110 C1108 1.395 . S
C1110 C1113 1.403 . S
C1111 C1108 1.403 . S
C1111 C1112 1.524 . S
C1111 C1115 1.400 . S
C1112 H1097 0.960 . S
C1112 H1098 0.960 . S
C1112 H1099 0.960 . S
C1112 C1111 1.524 . S
C1113 C1110 1.403 . S
C1113 C1114 1.392 . S
C1113 C1117 1.495 . S
C1114 C1113 1.392 . S
C1114 C1115 1.385 . S
C1114 C1116 1.478 . S
C1115 H1109 0.930 . S
C1115 C1111 1.400 . S
C1115 C1114 1.385 . S
C1116 C1114 1.478 . S
C1116 C1118 1.381 . S
C1116 C1122 1.383 . S
C1117 C1113 1.495 . S
C1117 H1123 0.959 . S
C1117 H1124 0.961 . S
C1117 H1125 0.960 . S
C1118 C1116 1.381 . S
C1118 C1119 1.394 . S
C1118 H1126 0.930 . S
C1119 C1118 1.394 . S
C1119 C1120 1.383 . S
C1119 H1127 0.929 . S
C1120 C1119 1.383 . S
C1120 C1121 1.377 . S
C1121 H1105 0.930 . S
C1121 C1120 1.377 . S
C1121 C1122 1.379 . S
C1122 H1106 0.931 . S
C1122 C1116 1.383 . S
C1122 C1121 1.379 . S
H1123 C1117 0.959 . S
H1124 C1117 0.961 . S
H1125 C1117 0.960 . S
H1126 C1118 0.930 . S
H1127 C1119 0.929 . S
H1128 C1136 0.929 . S
H1129 C1138 0.930 . S
H1130 C1140 0.930 . S
H1131 C1143 0.929 . S
H1132 C1146 0.930 . S
H1133 C1148 0.960 . S
H1134 C1148 0.960 . S
H1135 C1148 0.960 . S
C1136 H1128 0.929 . S
C1136 C1137 1.377 . S
C1136 C1138 1.384 . S
C1137 C1136 1.377 . S
C1137 C1143 1.390 . S
C1138 H1129 0.930 . S
C1138 C1136 1.384 . S
C1138 C1139 1.372 . S
C1139 C1138 1.372 . S
C1139 C1140 1.400 . S
C1139 C1144 1.490 . S
C1140 H1130 0.930 . S
C1140 C1139 1.400 . S
C1140 C1143 1.386 . S
H1141 C1157 0.930 . S
H1142 C1158 0.931 . S
C1143 H1131 0.929 . S
C1143 C1137 1.390 . S
C1143 C1140 1.386 . S
C1144 C1139 1.490 . S
C1144 C1146 1.395 . S
C1144 C1147 1.403 . S
H1145 C1151 0.930 . S
C1146 H1132 0.930 . S
C1146 C1144 1.395 . S
C1146 C1149 1.403 . S
C1147 C1144 1.403 . S
C1147 C1148 1.524 . S
C1147 C1151 1.400 . S
C1148 H1133 0.960 . S
C1148 H1134 0.960 . S
C1148 H1135 0.960 . S
C1148 C1147 1.524 . S
C1149 C1146 1.403 . S
C1149 C1150 1.392 . S
C1149 C1153 1.495 . S
C1150 C1149 1.392 . S
C1150 C1151 1.385 . S
C1150 C1152 1.478 . S
C1151 H1145 0.930 . S
C1151 C1147 1.400 . S
C1151 C1150 1.385 . S
C1152 C1150 1.478 . S
C1152 C1154 1.381 . S
C1152 C1158 1.383 . S
C1153 C1149 1.495 . S
C1153 H1159 0.959 . S
C1153 H1160 0.961 . S
C1153 H1161 0.960 . S
C1154 C1152 1.381 . S
C1154 C1155 1.394 . S
C1154 H1162 0.930 . S
C1155 C1154 1.394 . S
C1155 C1156 1.383 . S
C1155 H1163 0.929 . S
C1156 C1155 1.383 . S
C1156 C1157 1.377 . S
C1157 H1141 0.930 . S
C1157 C1156 1.377 . S
C1157 C1158 1.379 . S
C1158 H1142 0.931 . S
C1158 C1152 1.383 . S
C1158 C1157 1.379 . S
H1159 C1153 0.959 . S
H1160 C1153 0.961 . S
H1161 C1153 0.960 . S
H1162 C1154 0.930 . S
H1163 C1155 0.929 . S
H1164 C1172 0.929 . S
H1165 C1174 0.930 . S
H1166 C1176 0.930 . S
H1167 C1179 0.929 . S
H1168 C1182 0.930 . S
H1169 C1184 0.960 . S
H1170 C1184 0.960 . S
H1171 C1184 0.960 . S
C1172 H1164 0.929 . S
C1172 C1173 1.377 . S
C1172 C1174 1.384 . S
C1173 C1172 1.377 . S
C1173 C1179 1.390 . S
C1174 H1165 0.930 . S
C1174 C1172 1.384 . S
C1174 C1175 1.372 . S
C1175 C1174 1.372 . S
C1175 C1176 1.400 . S
C1175 C1180 1.490 . S
C1176 H1166 0.930 . S
C1176 C1175 1.400 . S
C1176 C1179 1.386 . S
H1177 C1193 0.930 . S
H1178 C1194 0.931 . S
C1179 H1167 0.929 . S
C1179 C1173 1.390 . S
C1179 C1176 1.386 . S
C1180 C1175 1.490 . S
C1180 C1182 1.395 . S
C1180 C1183 1.403 . S
H1181 C1187 0.930 . S
C1182 H1168 0.930 . S
C1182 C1180 1.395 . S
C1182 C1185 1.403 . S
C1183 C1180 1.403 . S
C1183 C1184 1.524 . S
C1183 C1187 1.400 . S
C1184 H1169 0.960 . S
C1184 H1170 0.960 . S
C1184 H1171 0.960 . S
C1184 C1183 1.524 . S
C1185 C1182 1.403 . S
C1185 C1186 1.392 . S
C1185 C1189 1.495 . S
C1186 C1185 1.392 . S
C1186 C1187 1.385 . S
C1186 C1188 1.478 . S
C1187 H1181 0.930 . S
C1187 C1183 1.400 . S
C1187 C1186 1.385 . S
C1188 C1186 1.478 . S
C1188 C1190 1.381 . S
C1188 C1194 1.383 . S
C1189 C1185 1.495 . S
C1189 H1195 0.959 . S
C1189 H1196 0.961 . S
C1189 H1197 0.960 . S
C1190 C1188 1.381 . S
C1190 C1191 1.394 . S
C1190 H1198 0.930 . S
C1191 C1190 1.394 . S
C1191 C1192 1.383 . S
C1191 H1199 0.929 . S
C1192 C1191 1.383 . S
C1192 C1193 1.377 . S
C1193 H1177 0.930 . S
C1193 C1192 1.377 . S
C1193 C1194 1.379 . S
C1194 H1178 0.931 . S
C1194 C1188 1.383 . S
C1194 C1193 1.379 . S
H1195 C1189 0.959 . S
H1196 C1189 0.961 . S
H1197 C1189 0.960 . S
H1198 C1190 0.930 . S
H1199 C1191 0.929 . S
H1200 C1208 0.929 1_545 S
H1201 C1210 0.930 . S
H1202 C1212 0.930 . S
H1203 C1215 0.929 . S
H1204 C1218 0.930 . S
H1205 C1220 0.960 . S
H1206 C1220 0.960 . S
H1207 C1220 0.960 . S
C1208 H1200 0.929 1_565 S
C1208 C1209 1.377 . S
C1208 C1210 1.384 . S
C1209 C1208 1.377 . S
C1209 C1215 1.390 . S
C1210 H1201 0.930 . S
C1210 C1208 1.384 . S
C1210 C1211 1.372 . S
C1211 C1210 1.372 . S
C1211 C1212 1.400 . S
C1211 C1216 1.490 . S
C1212 H1202 0.930 . S
C1212 C1211 1.400 . S
C1212 C1215 1.386 . S
H1213 C1229 0.930 . S
H1214 C1230 0.931 . S
C1215 H1203 0.929 . S
C1215 C1209 1.390 . S
C1215 C1212 1.386 . S
C1216 C1211 1.490 . S
C1216 C1218 1.395 . S
C1216 C1219 1.403 . S
H1217 C1223 0.930 . S
C1218 H1204 0.930 . S
C1218 C1216 1.395 . S
C1218 C1221 1.403 . S
C1219 C1216 1.403 . S
C1219 C1220 1.524 . S
C1219 C1223 1.400 . S
C1220 H1205 0.960 . S
C1220 H1206 0.960 . S
C1220 H1207 0.960 . S
C1220 C1219 1.524 . S
C1221 C1218 1.403 . S
C1221 C1222 1.392 . S
C1221 C1225 1.495 . S
C1222 C1221 1.392 . S
C1222 C1223 1.385 . S
C1222 C1224 1.478 . S
C1223 H1217 0.930 . S
C1223 C1219 1.400 . S
C1223 C1222 1.385 . S
C1224 C1222 1.478 . S
C1224 C1226 1.381 . S
C1224 C1230 1.383 . S
C1225 C1221 1.495 . S
C1225 H1231 0.959 . S
C1225 H1232 0.961 . S
C1225 H1233 0.960 . S
C1226 C1224 1.381 . S
C1226 C1227 1.394 . S
C1226 H1234 0.930 . S
C1227 C1226 1.394 . S
C1227 C1228 1.383 . S
C1227 H1235 0.929 . S
C1228 C1227 1.383 . S
C1228 C1229 1.377 . S
C1229 H1213 0.930 . S
C1229 C1228 1.377 . S
C1229 C1230 1.379 . S
C1230 H1214 0.931 . S
C1230 C1224 1.383 . S
C1230 C1229 1.379 . S
H1231 C1225 0.959 . S
H1232 C1225 0.961 . S
H1233 C1225 0.960 . S
H1234 C1226 0.930 . S
H1235 C1227 0.929 . S
H1236 C1244 0.929 . S
H1237 C1246 0.930 . S
H1238 C1248 0.930 . S
H1239 C1251 0.929 . S
H1240 C1254 0.930 . S
H1241 C1256 0.960 . S
H1242 C1256 0.960 . S
H1243 C1256 0.960 . S
C1244 H1236 0.929 . S
C1244 C1245 1.377 . S
C1244 C1246 1.384 . S
C1245 C1244 1.377 . S
C1245 C1251 1.390 . S
C1246 H1237 0.930 . S
C1246 C1244 1.384 . S
C1246 C1247 1.372 . S
C1247 C1246 1.372 . S
C1247 C1248 1.400 . S
C1247 C1252 1.490 . S
C1248 H1238 0.930 . S
C1248 C1247 1.400 . S
C1248 C1251 1.386 . S
H1249 C1265 0.930 . S
H1250 C1266 0.931 . S
C1251 H1239 0.929 . S
C1251 C1245 1.390 . S
C1251 C1248 1.386 . S
C1252 C1247 1.490 . S
C1252 C1254 1.395 . S
C1252 C1255 1.403 . S
H1253 C1259 0.930 . S
C1254 H1240 0.930 . S
C1254 C1252 1.395 . S
C1254 C1257 1.403 . S
C1255 C1252 1.403 . S
C1255 C1256 1.524 . S
C1255 C1259 1.400 . S
C1256 H1241 0.960 . S
C1256 H1242 0.960 . S
C1256 H1243 0.960 . S
C1256 C1255 1.524 . S
C1257 C1254 1.403 . S
C1257 C1258 1.392 . S
C1257 C1261 1.495 . S
C1258 C1257 1.392 . S
C1258 C1259 1.385 . S
C1258 C1260 1.478 . S
C1259 H1253 0.930 . S
C1259 C1255 1.400 . S
C1259 C1258 1.385 . S
C1260 C1258 1.478 . S
C1260 C1262 1.381 . S
C1260 C1266 1.383 . S
C1261 C1257 1.495 . S
C1261 H1267 0.959 . S
C1261 H1268 0.961 . S
C1261 H1269 0.960 . S
C1262 C1260 1.381 . S
C1262 C1263 1.394 . S
C1262 H1270 0.930 . S
C1263 C1262 1.394 . S
C1263 C1264 1.383 . S
C1263 H1271 0.929 . S
C1264 C1263 1.383 . S
C1264 C1265 1.377 . S
C1265 H1249 0.930 . S
C1265 C1264 1.377 . S
C1265 C1266 1.379 . S
C1266 H1250 0.931 . S
C1266 C1260 1.383 . S
C1266 C1265 1.379 . S
H1267 C1261 0.959 . S
H1268 C1261 0.961 . S
H1269 C1261 0.960 . S
H1270 C1262 0.930 . S
H1271 C1263 0.929 . S
H1272 C1280 0.929 . S
H1273 C1282 0.930 . S
H1274 C1284 0.930 . S
H1275 C1287 0.929 . S
H1276 C1290 0.930 . S
H1277 C1292 0.960 . S
H1278 C1292 0.960 . S
H1279 C1292 0.960 . S
C1280 H1272 0.929 . S
C1280 C1281 1.377 . S
C1280 C1282 1.384 . S
C1281 C1280 1.377 . S
C1281 C1287 1.390 . S
C1282 H1273 0.930 . S
C1282 C1280 1.384 . S
C1282 C1283 1.372 . S
C1283 C1282 1.372 . S
C1283 C1284 1.400 . S
C1283 C1288 1.490 . S
C1284 H1274 0.930 . S
C1284 C1283 1.400 . S
C1284 C1287 1.386 . S
H1285 C1301 0.930 . S
H1286 C1302 0.931 . S
C1287 H1275 0.929 . S
C1287 C1281 1.390 . S
C1287 C1284 1.386 . S
C1288 C1283 1.490 . S
C1288 C1290 1.395 . S
C1288 C1291 1.403 . S
H1289 C1295 0.930 . S
C1290 H1276 0.930 . S
C1290 C1288 1.395 . S
C1290 C1293 1.403 . S
C1291 C1288 1.403 . S
C1291 C1292 1.524 . S
C1291 C1295 1.400 . S
C1292 H1277 0.960 . S
C1292 H1278 0.960 . S
C1292 H1279 0.960 . S
C1292 C1291 1.524 . S
C1293 C1290 1.403 . S
C1293 C1294 1.392 . S
C1293 C1297 1.495 . S
C1294 C1293 1.392 . S
C1294 C1295 1.385 . S
C1294 C1296 1.478 . S
C1295 H1289 0.930 . S
C1295 C1291 1.400 . S
C1295 C1294 1.385 . S
C1296 C1294 1.478 . S
C1296 C1298 1.381 . S
C1296 C1302 1.383 . S
C1297 C1293 1.495 . S
C1297 H1303 0.959 . S
C1297 H1304 0.961 . S
C1297 H1305 0.960 . S
C1298 C1296 1.381 . S
C1298 C1299 1.394 . S
C1298 H1306 0.930 . S
C1299 C1298 1.394 . S
C1299 C1300 1.383 . S
C1299 H1307 0.929 . S
C1300 C1299 1.383 . S
C1300 C1301 1.377 . S
C1301 H1285 0.930 . S
C1301 C1300 1.377 . S
C1301 C1302 1.379 . S
C1302 H1286 0.931 . S
C1302 C1296 1.383 . S
C1302 C1301 1.379 . S
H1303 C1297 0.959 . S
H1304 C1297 0.961 . S
H1305 C1297 0.960 . S
H1306 C1298 0.930 . S
H1307 C1299 0.929 . S
H1308 C1316 0.929 . S
H1309 C1318 0.930 . S
H1310 C1320 0.930 . S
H1311 C1323 0.929 . S
H1312 C1326 0.930 . S
H1313 C1328 0.960 . S
H1314 C1328 0.960 . S
H1315 C1328 0.960 . S
C1316 H1308 0.929 . S
C1316 C1317 1.377 . S
C1316 C1318 1.384 . S
C1317 C1316 1.377 . S
C1317 C1323 1.390 . S
C1318 H1309 0.930 . S
C1318 C1316 1.384 . S
C1318 C1319 1.372 . S
C1319 C1318 1.372 . S
C1319 C1320 1.400 . S
C1319 C1324 1.490 . S
C1320 H1310 0.930 . S
C1320 C1319 1.400 . S
C1320 C1323 1.386 . S
H1321 C1337 0.930 1_554 S
H1322 C1338 0.931 . S
C1323 H1311 0.929 . S
C1323 C1317 1.390 . S
C1323 C1320 1.386 . S
C1324 C1319 1.490 . S
C1324 C1326 1.395 . S
C1324 C1327 1.403 . S
H1325 C1331 0.930 . S
C1326 H1312 0.930 . S
C1326 C1324 1.395 . S
C1326 C1329 1.403 . S
C1327 C1324 1.403 . S
C1327 C1328 1.524 . S
C1327 C1331 1.400 . S
C1328 H1313 0.960 . S
C1328 H1314 0.960 . S
C1328 H1315 0.960 . S
C1328 C1327 1.524 . S
C1329 C1326 1.403 . S
C1329 C1330 1.392 . S
C1329 C1333 1.495 . S
C1330 C1329 1.392 . S
C1330 C1331 1.385 . S
C1330 C1332 1.478 . S
C1331 H1325 0.930 . S
C1331 C1327 1.400 . S
C1331 C1330 1.385 . S
C1332 C1330 1.478 . S
C1332 C1334 1.381 . S
C1332 C1338 1.383 . S
C1333 C1329 1.495 . S
C1333 H1339 0.959 . S
C1333 H1340 0.961 . S
C1333 H1341 0.960 . S
C1334 C1332 1.381 . S
C1334 C1335 1.394 . S
C1334 H1342 0.930 . S
C1335 C1334 1.394 . S
C1335 C1336 1.383 . S
C1335 H1343 0.929 . S
C1336 C1335 1.383 . S
C1336 C1337 1.377 . S
C1337 H1321 0.930 1_556 S
C1337 C1336 1.377 . S
C1337 C1338 1.379 . S
C1338 H1322 0.931 . S
C1338 C1332 1.383 . S
C1338 C1337 1.379 . S
H1339 C1333 0.959 . S
H1340 C1333 0.961 . S
H1341 C1333 0.960 . S
H1342 C1334 0.930 . S
H1343 C1335 0.929 . S
H1344 C1352 0.929 . S
H1345 C1354 0.930 . S
H1346 C1356 0.930 . S
H1347 C1359 0.929 . S
H1348 C1362 0.930 . S
H1349 C1364 0.960 . S
H1350 C1364 0.960 . S
H1351 C1364 0.960 . S
C1352 H1344 0.929 . S
C1352 C1353 1.377 . S
C1352 C1354 1.384 . S
C1353 C1352 1.377 . S
C1353 C1359 1.390 . S
C1354 H1345 0.930 . S
C1354 C1352 1.384 . S
C1354 C1355 1.372 . S
C1355 C1354 1.372 . S
C1355 C1356 1.400 . S
C1355 C1360 1.490 . S
C1356 H1346 0.930 . S
C1356 C1355 1.400 . S
C1356 C1359 1.386 . S
H1357 C1373 0.930 . S
H1358 C1374 0.931 . S
C1359 H1347 0.929 . S
C1359 C1353 1.390 . S
C1359 C1356 1.386 . S
C1360 C1355 1.490 . S
C1360 C1362 1.395 . S
C1360 C1363 1.403 . S
H1361 C1367 0.930 . S
C1362 H1348 0.930 . S
C1362 C1360 1.395 . S
C1362 C1365 1.403 . S
C1363 C1360 1.403 . S
C1363 C1364 1.524 . S
C1363 C1367 1.400 . S
C1364 H1349 0.960 . S
C1364 H1350 0.960 . S
C1364 H1351 0.960 . S
C1364 C1363 1.524 . S
C1365 C1362 1.403 . S
C1365 C1366 1.392 . S
C1365 C1369 1.495 . S
C1366 C1365 1.392 . S
C1366 C1367 1.385 . S
C1366 C1368 1.478 . S
C1367 H1361 0.930 . S
C1367 C1363 1.400 . S
C1367 C1366 1.385 . S
C1368 C1366 1.478 . S
C1368 C1370 1.381 . S
C1368 C1374 1.383 . S
C1369 C1365 1.495 . S
C1369 H1375 0.959 . S
C1369 H1376 0.961 . S
C1369 H1377 0.960 . S
C1370 C1368 1.381 . S
C1370 C1371 1.394 . S
C1370 H1378 0.930 . S
C1371 C1370 1.394 . S
C1371 C1372 1.383 . S
C1371 H1379 0.929 . S
C1372 C1371 1.383 . S
C1372 C1373 1.377 . S
C1373 H1357 0.930 . S
C1373 C1372 1.377 . S
C1373 C1374 1.379 . S
C1374 H1358 0.931 . S
C1374 C1368 1.383 . S
C1374 C1373 1.379 . S
H1375 C1369 0.959 . S
H1376 C1369 0.961 . S
H1377 C1369 0.960 . S
H1378 C1370 0.930 . S
H1379 C1371 0.929 . S
H1380 C1388 0.929 . S
H1381 C1390 0.930 . S
H1382 C1392 0.930 . S
H1383 C1395 0.929 . S
H1384 C1398 0.930 . S
H1385 C1400 0.960 . S
H1386 C1400 0.960 . S
H1387 C1400 0.960 . S
C1388 H1380 0.929 . S
C1388 C1389 1.377 . S
C1388 C1390 1.384 . S
C1389 C1388 1.377 . S
C1389 C1395 1.390 . S
C1390 H1381 0.930 . S
C1390 C1388 1.384 . S
C1390 C1391 1.372 . S
C1391 C1390 1.372 . S
C1391 C1392 1.400 . S
C1391 C1396 1.490 . S
C1392 H1382 0.930 . S
C1392 C1391 1.400 . S
C1392 C1395 1.386 . S
H1393 C1409 0.930 . S
H1394 C1410 0.931 . S
C1395 H1383 0.929 . S
C1395 C1389 1.390 . S
C1395 C1392 1.386 . S
C1396 C1391 1.490 . S
C1396 C1398 1.395 . S
C1396 C1399 1.403 . S
H1397 C1403 0.930 . S
C1398 H1384 0.930 . S
C1398 C1396 1.395 . S
C1398 C1401 1.403 . S
C1399 C1396 1.403 . S
C1399 C1400 1.524 . S
C1399 C1403 1.400 . S
C1400 H1385 0.960 . S
C1400 H1386 0.960 . S
C1400 H1387 0.960 . S
C1400 C1399 1.524 . S
C1401 C1398 1.403 . S
C1401 C1402 1.392 . S
C1401 C1405 1.495 . S
C1402 C1401 1.392 . S
C1402 C1403 1.385 . S
C1402 C1404 1.478 . S
C1403 H1397 0.930 . S
C1403 C1399 1.400 . S
C1403 C1402 1.385 . S
C1404 C1402 1.478 . S
C1404 C1406 1.381 . S
C1404 C1410 1.383 . S
C1405 C1401 1.495 . S
C1405 H1411 0.959 . S
C1405 H1412 0.961 . S
C1405 H1413 0.960 . S
C1406 C1404 1.381 . S
C1406 C1407 1.394 . S
C1406 H1414 0.930 . S
C1407 C1406 1.394 . S
C1407 C1408 1.383 . S
C1407 H1415 0.929 . S
C1408 C1407 1.383 . S
C1408 C1409 1.377 . S
C1409 H1393 0.930 . S
C1409 C1408 1.377 . S
C1409 C1410 1.379 . S
C1410 H1394 0.931 . S
C1410 C1404 1.383 . S
C1410 C1409 1.379 . S
H1411 C1405 0.959 . S
H1412 C1405 0.961 . S
H1413 C1405 0.960 . S
H1414 C1406 0.930 . S
H1415 C1407 0.929 . S
H1416 C1424 0.929 . S
H1417 C1426 0.930 . S
H1418 C1428 0.930 . S
H1419 C1431 0.929 . S
H1420 C1434 0.930 . S
H1421 C1436 0.960 . S
H1422 C1436 0.960 . S
H1423 C1436 0.960 . S
C1424 H1416 0.929 . S
C1424 C1425 1.377 . S
C1424 C1426 1.384 . S
C1425 C1424 1.377 . S
C1425 C1431 1.390 . S
C1426 H1417 0.930 . S
C1426 C1424 1.384 . S
C1426 C1427 1.372 . S
C1427 C1426 1.372 . S
C1427 C1428 1.400 . S
C1427 C1432 1.490 . S
C1428 H1418 0.930 . S
C1428 C1427 1.400 . S
C1428 C1431 1.386 . S
H1429 C1445 0.930 . S
H1430 C1446 0.931 . S
C1431 H1419 0.929 . S
C1431 C1425 1.390 . S
C1431 C1428 1.386 . S
C1432 C1427 1.490 . S
C1432 C1434 1.395 . S
C1432 C1435 1.403 . S
H1433 C1439 0.930 . S
C1434 H1420 0.930 . S
C1434 C1432 1.395 . S
C1434 C1437 1.403 . S
C1435 C1432 1.403 . S
C1435 C1436 1.524 . S
C1435 C1439 1.400 . S
C1436 H1421 0.960 . S
C1436 H1422 0.960 . S
C1436 H1423 0.960 . S
C1436 C1435 1.524 . S
C1437 C1434 1.403 . S
C1437 C1438 1.392 . S
C1437 C1441 1.495 . S
C1438 C1437 1.392 . S
C1438 C1439 1.385 . S
C1438 C1440 1.478 . S
C1439 H1433 0.930 . S
C1439 C1435 1.400 . S
C1439 C1438 1.385 . S
C1440 C1438 1.478 . S
C1440 C1442 1.381 . S
C1440 C1446 1.383 . S
C1441 C1437 1.495 . S
C1441 H1447 0.959 . S
C1441 H1448 0.961 . S
C1441 H1449 0.960 . S
C1442 C1440 1.381 . S
C1442 C1443 1.394 . S
C1442 H1450 0.930 . S
C1443 C1442 1.394 . S
C1443 C1444 1.383 . S
C1443 H1451 0.929 . S
C1444 C1443 1.383 . S
C1444 C1445 1.377 . S
C1445 H1429 0.930 . S
C1445 C1444 1.377 . S
C1445 C1446 1.379 . S
C1446 H1430 0.931 . S
C1446 C1440 1.383 . S
C1446 C1445 1.379 . S
H1447 C1441 0.959 . S
H1448 C1441 0.961 . S
H1449 C1441 0.960 . S
H1450 C1442 0.930 . S
H1451 C1443 0.929 . S
H1452 C1460 0.929 . S
H1453 C1462 0.930 . S
H1454 C1464 0.930 . S
H1455 C1467 0.929 . S
H1456 C1470 0.930 . S
H1457 C1472 0.960 . S
H1458 C1472 0.960 . S
H1459 C1472 0.960 . S
C1460 H1452 0.929 . S
C1460 C1461 1.377 . S
C1460 C1462 1.384 . S
C1461 C1460 1.377 . S
C1461 C1467 1.390 . S
C1462 H1453 0.930 . S
C1462 C1460 1.384 . S
C1462 C1463 1.372 . S
C1463 C1462 1.372 . S
C1463 C1464 1.400 . S
C1463 C1468 1.490 . S
C1464 H1454 0.930 . S
C1464 C1463 1.400 . S
C1464 C1467 1.386 . S
H1465 C1481 0.930 . S
H1466 C1482 0.931 . S
C1467 H1455 0.929 . S
C1467 C1461 1.390 . S
C1467 C1464 1.386 . S
C1468 C1463 1.490 . S
C1468 C1470 1.395 . S
C1468 C1471 1.403 . S
H1469 C1475 0.930 . S
C1470 H1456 0.930 . S
C1470 C1468 1.395 . S
C1470 C1473 1.403 . S
C1471 C1468 1.403 . S
C1471 C1472 1.524 . S
C1471 C1475 1.400 . S
C1472 H1457 0.960 . S
C1472 H1458 0.960 . S
C1472 H1459 0.960 . S
C1472 C1471 1.524 . S
C1473 C1470 1.403 . S
C1473 C1474 1.392 . S
C1473 C1477 1.495 . S
C1474 C1473 1.392 . S
C1474 C1475 1.385 . S
C1474 C1476 1.478 . S
C1475 H1469 0.930 . S
C1475 C1471 1.400 . S
C1475 C1474 1.385 . S
C1476 C1474 1.478 . S
C1476 C1478 1.381 . S
C1476 C1482 1.383 . S
C1477 C1473 1.495 . S
C1477 H1483 0.959 . S
C1477 H1484 0.961 . S
C1477 H1485 0.960 . S
C1478 C1476 1.381 . S
C1478 C1479 1.394 . S
C1478 H1486 0.930 . S
C1479 C1478 1.394 . S
C1479 C1480 1.383 . S
C1479 H1487 0.929 . S
C1480 C1479 1.383 . S
C1480 C1481 1.377 . S
C1481 H1465 0.930 . S
C1481 C1480 1.377 . S
C1481 C1482 1.379 . S
C1482 H1466 0.931 . S
C1482 C1476 1.383 . S
C1482 C1481 1.379 . S
H1483 C1477 0.959 . S
H1484 C1477 0.961 . S
H1485 C1477 0.960 . S
H1486 C1478 0.930 . S
H1487 C1479 0.929 . S
H1488 C1496 0.929 . S
H1489 C1498 0.930 . S
H1490 C1500 0.930 . S
H1491 C1503 0.929 . S
H1492 C1506 0.930 . S
H1493 C1508 0.960 . S
H1494 C1508 0.960 . S
H1495 C1508 0.960 . S
C1496 H1488 0.929 . S
C1496 C1497 1.377 . S
C1496 C1498 1.384 . S
C1497 C1496 1.377 . S
C1497 C1503 1.390 . S
C1498 H1489 0.930 . S
C1498 C1496 1.384 . S
C1498 C1499 1.372 . S
C1499 C1498 1.372 . S
C1499 C1500 1.400 . S
C1499 C1504 1.490 . S
C1500 H1490 0.930 . S
C1500 C1499 1.400 . S
C1500 C1503 1.386 . S
H1501 C1517 0.930 . S
H1502 C1518 0.931 . S
C1503 H1491 0.929 . S
C1503 C1497 1.390 . S
C1503 C1500 1.386 . S
C1504 C1499 1.490 . S
C1504 C1506 1.395 . S
C1504 C1507 1.403 . S
H1505 C1511 0.930 . S
C1506 H1492 0.930 . S
C1506 C1504 1.395 . S
C1506 C1509 1.403 . S
C1507 C1504 1.403 . S
C1507 C1508 1.524 . S
C1507 C1511 1.400 . S
C1508 H1493 0.960 . S
C1508 H1494 0.960 . S
C1508 H1495 0.960 . S
C1508 C1507 1.524 . S
C1509 C1506 1.403 . S
C1509 C1510 1.392 . S
C1509 C1513 1.495 . S
C1510 C1509 1.392 . S
C1510 C1511 1.385 . S
C1510 C1512 1.478 . S
C1511 H1505 0.930 . S
C1511 C1507 1.400 . S
C1511 C1510 1.385 . S
C1512 C1510 1.478 . S
C1512 C1514 1.381 . S
C1512 C1518 1.383 . S
C1513 C1509 1.495 . S
C1513 H1519 0.959 . S
C1513 H1520 0.961 . S
C1513 H1521 0.960 . S
C1514 C1512 1.381 . S
C1514 C1515 1.394 . S
C1514 H1522 0.930 . S
C1515 C1514 1.394 . S
C1515 C1516 1.383 . S
C1515 H1523 0.929 . S
C1516 C1515 1.383 . S
C1516 C1517 1.377 . S
C1517 H1501 0.930 . S
C1517 C1516 1.377 . S
C1517 C1518 1.379 . S
C1518 H1502 0.931 . S
C1518 C1512 1.383 . S
C1518 C1517 1.379 . S
H1519 C1513 0.959 . S
H1520 C1513 0.961 . S
H1521 C1513 0.960 . S
H1522 C1514 0.930 . S
H1523 C1515 0.929 . S
H1524 C1532 0.929 . S
H1525 C1534 0.930 . S
H1526 C1536 0.930 . S
H1527 C1539 0.929 . S
H1528 C1542 0.930 . S
H1529 C1544 0.960 . S
H1530 C1544 0.960 . S
H1531 C1544 0.960 . S
C1532 H1524 0.929 . S
C1532 C1533 1.377 . S
C1532 C1534 1.384 . S
C1533 C1532 1.377 . S
C1533 C1539 1.390 . S
C1534 H1525 0.930 . S
C1534 C1532 1.384 . S
C1534 C1535 1.372 . S
C1535 C1534 1.372 . S
C1535 C1536 1.400 . S
C1535 C1540 1.490 . S
C1536 H1526 0.930 . S
C1536 C1535 1.400 . S
C1536 C1539 1.386 . S
H1537 C1553 0.930 . S
H1538 C1554 0.931 . S
C1539 H1527 0.929 . S
C1539 C1533 1.390 . S
C1539 C1536 1.386 . S
C1540 C1535 1.490 . S
C1540 C1542 1.395 . S
C1540 C1543 1.403 . S
H1541 C1547 0.930 . S
C1542 H1528 0.930 . S
C1542 C1540 1.395 . S
C1542 C1545 1.403 . S
C1543 C1540 1.403 . S
C1543 C1544 1.524 . S
C1543 C1547 1.400 . S
C1544 H1529 0.960 . S
C1544 H1530 0.960 . S
C1544 H1531 0.960 . S
C1544 C1543 1.524 . S
C1545 C1542 1.403 . S
C1545 C1546 1.392 . S
C1545 C1549 1.495 . S
C1546 C1545 1.392 . S
C1546 C1547 1.385 . S
C1546 C1548 1.478 . S
C1547 H1541 0.930 . S
C1547 C1543 1.400 . S
C1547 C1546 1.385 . S
C1548 C1546 1.478 . S
C1548 C1550 1.381 . S
C1548 C1554 1.383 . S
C1549 C1545 1.495 . S
C1549 H1555 0.959 . S
C1549 H1556 0.961 . S
C1549 H1557 0.960 . S
C1550 C1548 1.381 . S
C1550 C1551 1.394 . S
C1550 H1558 0.930 . S
C1551 C1550 1.394 . S
C1551 C1552 1.383 . S
C1551 H1559 0.929 . S
C1552 C1551 1.383 . S
C1552 C1553 1.377 . S
C1553 H1537 0.930 . S
C1553 C1552 1.377 . S
C1553 C1554 1.379 . S
C1554 H1538 0.931 . S
C1554 C1548 1.383 . S
C1554 C1553 1.379 . S
H1555 C1549 0.959 . S
H1556 C1549 0.961 . S
H1557 C1549 0.960 . S
H1558 C1550 0.930 . S
H1559 C1551 0.929 . S
H1560 C1568 0.929 . S
H1561 C1570 0.930 . S
H1562 C1572 0.930 . S
H1563 C1575 0.929 . S
H1564 C1578 0.930 . S
H1565 C1580 0.960 . S
H1566 C1580 0.960 . S
H1567 C1580 0.960 . S
C1568 H1560 0.929 . S
C1568 C1569 1.377 . S
C1568 C1570 1.384 . S
C1569 C1568 1.377 . S
C1569 C1575 1.390 . S
C1570 H1561 0.930 . S
C1570 C1568 1.384 . S
C1570 C1571 1.372 . S
C1571 C1570 1.372 . S
C1571 C1572 1.400 . S
C1571 C1576 1.490 . S
C1572 H1562 0.930 . S
C1572 C1571 1.400 . S
C1572 C1575 1.386 . S
H1573 C1589 0.930 . S
H1574 C1590 0.931 . S
C1575 H1563 0.929 . S
C1575 C1569 1.390 . S
C1575 C1572 1.386 . S
C1576 C1571 1.490 . S
C1576 C1578 1.395 . S
C1576 C1579 1.403 . S
H1577 C1583 0.930 . S
C1578 H1564 0.930 . S
C1578 C1576 1.395 . S
C1578 C1581 1.403 . S
C1579 C1576 1.403 . S
C1579 C1580 1.524 . S
C1579 C1583 1.400 . S
C1580 H1565 0.960 . S
C1580 H1566 0.960 . S
C1580 H1567 0.960 . S
C1580 C1579 1.524 . S
C1581 C1578 1.403 . S
C1581 C1582 1.392 . S
C1581 C1585 1.495 . S
C1582 C1581 1.392 . S
C1582 C1583 1.385 . S
C1582 C1584 1.478 . S
C1583 H1577 0.930 . S
C1583 C1579 1.400 . S
C1583 C1582 1.385 . S
C1584 C1582 1.478 . S
C1584 C1586 1.381 . S
C1584 C1590 1.383 . S
C1585 C1581 1.495 . S
C1585 H1591 0.959 . S
C1585 H1592 0.961 . S
C1585 H1593 0.960 . S
C1586 C1584 1.381 . S
C1586 C1587 1.394 . S
C1586 H1594 0.930 . S
C1587 C1586 1.394 . S
C1587 C1588 1.383 . S
C1587 H1595 0.929 . S
C1588 C1587 1.383 . S
C1588 C1589 1.377 . S
C1589 H1573 0.930 . S
C1589 C1588 1.377 . S
C1589 C1590 1.379 . S
C1590 H1574 0.931 . S
C1590 C1584 1.383 . S
C1590 C1589 1.379 . S
H1591 C1585 0.959 . S
H1592 C1585 0.961 . S
H1593 C1585 0.960 . S
H1594 C1586 0.930 . S
H1595 C1587 0.929 . S
H1596 C1604 0.929 . S
H1597 C1606 0.930 . S
H1598 C1608 0.930 . S
H1599 C1611 0.929 . S
H1600 C1614 0.930 . S
H1601 C1616 0.960 . S
H1602 C1616 0.960 . S
H1603 C1616 0.960 . S
C1604 H1596 0.929 . S
C1604 C1605 1.377 . S
C1604 C1606 1.384 . S
C1605 C1604 1.377 . S
C1605 C1611 1.390 . S
C1606 H1597 0.930 . S
C1606 C1604 1.384 . S
C1606 C1607 1.372 . S
C1607 C1606 1.372 . S
C1607 C1608 1.400 . S
C1607 C1612 1.490 . S
C1608 H1598 0.930 . S
C1608 C1607 1.400 . S
C1608 C1611 1.386 . S
H1609 C1625 0.930 . S
H1610 C1626 0.931 . S
C1611 H1599 0.929 . S
C1611 C1605 1.390 . S
C1611 C1608 1.386 . S
C1612 C1607 1.490 . S
C1612 C1614 1.395 . S
C1612 C1615 1.403 . S
H1613 C1619 0.930 . S
C1614 H1600 0.930 . S
C1614 C1612 1.395 . S
C1614 C1617 1.403 . S
C1615 C1612 1.403 . S
C1615 C1616 1.524 . S
C1615 C1619 1.400 . S
C1616 H1601 0.960 . S
C1616 H1602 0.960 . S
C1616 H1603 0.960 . S
C1616 C1615 1.524 . S
C1617 C1614 1.403 . S
C1617 C1618 1.392 . S
C1617 C1621 1.495 . S
C1618 C1617 1.392 . S
C1618 C1619 1.385 . S
C1618 C1620 1.478 . S
C1619 H1613 0.930 . S
C1619 C1615 1.400 . S
C1619 C1618 1.385 . S
C1620 C1618 1.478 . S
C1620 C1622 1.381 . S
C1620 C1626 1.383 . S
C1621 C1617 1.495 . S
C1621 H1627 0.959 . S
C1621 H1628 0.961 . S
C1621 H1629 0.960 . S
C1622 C1620 1.381 . S
C1622 C1623 1.394 . S
C1622 H1630 0.930 . S
C1623 C1622 1.394 . S
C1623 C1624 1.383 . S
C1623 H1631 0.929 . S
C1624 C1623 1.383 . S
C1624 C1625 1.377 . S
C1625 H1609 0.930 . S
C1625 C1624 1.377 . S
C1625 C1626 1.379 . S
C1626 H1610 0.931 . S
C1626 C1620 1.383 . S
C1626 C1625 1.379 . S
H1627 C1621 0.959 . S
H1628 C1621 0.961 . S
H1629 C1621 0.960 . S
H1630 C1622 0.930 . S
H1631 C1623 0.929 . S
H1632 C1640 0.929 . S
H1633 C1642 0.930 . S
H1634 C1644 0.930 . S
H1635 C1647 0.929 . S
H1636 C1650 0.930 . S
H1637 C1652 0.960 . S
H1638 C1652 0.960 . S
H1639 C1652 0.960 . S
C1640 H1632 0.929 . S
C1640 C1641 1.377 . S
C1640 C1642 1.384 . S
C1641 C1640 1.377 . S
C1641 C1647 1.390 . S
C1642 H1633 0.930 . S
C1642 C1640 1.384 . S
C1642 C1643 1.372 . S
C1643 C1642 1.372 . S
C1643 C1644 1.400 . S
C1643 C1648 1.490 . S
C1644 H1634 0.930 . S
C1644 C1643 1.400 . S
C1644 C1647 1.386 . S
H1645 C1661 0.930 . S
H1646 C1662 0.931 . S
C1647 H1635 0.929 . S
C1647 C1641 1.390 . S
C1647 C1644 1.386 . S
C1648 C1643 1.490 . S
C1648 C1650 1.395 . S
C1648 C1651 1.403 . S
H1649 C1655 0.930 . S
C1650 H1636 0.930 . S
C1650 C1648 1.395 . S
C1650 C1653 1.403 . S
C1651 C1648 1.403 . S
C1651 C1652 1.524 . S
C1651 C1655 1.400 . S
C1652 H1637 0.960 . S
C1652 H1638 0.960 . S
C1652 H1639 0.960 . S
C1652 C1651 1.524 . S
C1653 C1650 1.403 . S
C1653 C1654 1.392 . S
C1653 C1657 1.495 . S
C1654 C1653 1.392 . S
C1654 C1655 1.385 . S
C1654 C1656 1.478 . S
C1655 H1649 0.930 . S
C1655 C1651 1.400 . S
C1655 C1654 1.385 . S
C1656 C1654 1.478 . S
C1656 C1658 1.381 . S
C1656 C1662 1.383 . S
C1657 C1653 1.495 . S
C1657 H1663 0.959 . S
C1657 H1664 0.961 . S
C1657 H1665 0.960 . S
C1658 C1656 1.381 . S
C1658 C1659 1.394 . S
C1658 H1666 0.930 . S
C1659 C1658 1.394 . S
C1659 C1660 1.383 . S
C1659 H1667 0.929 . S
C1660 C1659 1.383 . S
C1660 C1661 1.377 . S
C1661 H1645 0.930 . S
C1661 C1660 1.377 . S
C1661 C1662 1.379 . S
C1662 H1646 0.931 . S
C1662 C1656 1.383 . S
C1662 C1661 1.379 . S
H1663 C1657 0.959 . S
H1664 C1657 0.961 . S
H1665 C1657 0.960 . S
H1666 C1658 0.930 . S
H1667 C1659 0.929 . S
H1668 C1676 0.929 . S
H1669 C1678 0.930 . S
H1670 C1680 0.930 . S
H1671 C1683 0.929 . S
H1672 C1686 0.930 . S
H1673 C1688 0.960 . S
H1674 C1688 0.960 . S
H1675 C1688 0.960 . S
C1676 H1668 0.929 . S
C1676 C1677 1.377 . S
C1676 C1678 1.384 . S
C1677 C1676 1.377 . S
C1677 C1683 1.390 . S
C1678 H1669 0.930 . S
C1678 C1676 1.384 . S
C1678 C1679 1.372 . S
C1679 C1678 1.372 . S
C1679 C1680 1.400 . S
C1679 C1684 1.490 . S
C1680 H1670 0.930 . S
C1680 C1679 1.400 . S
C1680 C1683 1.386 . S
H1681 C1697 0.930 . S
H1682 C1698 0.931 . S
C1683 H1671 0.929 . S
C1683 C1677 1.390 . S
C1683 C1680 1.386 . S
C1684 C1679 1.490 . S
C1684 C1686 1.395 . S
C1684 C1687 1.403 . S
H1685 C1691 0.930 . S
C1686 H1672 0.930 . S
C1686 C1684 1.395 . S
C1686 C1689 1.403 . S
C1687 C1684 1.403 . S
C1687 C1688 1.524 . S
C1687 C1691 1.400 . S
C1688 H1673 0.960 . S
C1688 H1674 0.960 . S
C1688 H1675 0.960 . S
C1688 C1687 1.524 . S
C1689 C1686 1.403 . S
C1689 C1690 1.392 . S
C1689 C1693 1.495 . S
C1690 C1689 1.392 . S
C1690 C1691 1.385 . S
C1690 C1692 1.478 . S
C1691 H1685 0.930 . S
C1691 C1687 1.400 . S
C1691 C1690 1.385 . S
C1692 C1690 1.478 . S
C1692 C1694 1.381 . S
C1692 C1698 1.383 . S
C1693 C1689 1.495 . S
C1693 H1699 0.959 . S
C1693 H1700 0.961 . S
C1693 H1701 0.960 . S
C1694 C1692 1.381 . S
C1694 C1695 1.394 . S
C1694 H1702 0.930 . S
C1695 C1694 1.394 . S
C1695 C1696 1.383 . S
C1695 H1703 0.929 . S
C1696 C1695 1.383 . S
C1696 C1697 1.377 . S
C1697 H1681 0.930 . S
C1697 C1696 1.377 . S
C1697 C1698 1.379 . S
C1698 H1682 0.931 . S
C1698 C1692 1.383 . S
C1698 C1697 1.379 . S
H1699 C1693 0.959 . S
H1700 C1693 0.961 . S
H1701 C1693 0.960 . S
H1702 C1694 0.930 . S
H1703 C1695 0.929 . S
H1704 C1712 0.929 . S
H1705 C1714 0.930 . S
H1706 C1716 0.930 . S
H1707 C1719 0.929 . S
H1708 C1722 0.930 . S
H1709 C1724 0.960 . S
H1710 C1724 0.960 . S
H1711 C1724 0.960 . S
C1712 H1704 0.929 . S
C1712 C1713 1.377 . S
C1712 C1714 1.384 . S
C1713 C1712 1.377 . S
C1713 C1719 1.390 . S
C1714 H1705 0.930 . S
C1714 C1712 1.384 . S
C1714 C1715 1.372 . S
C1715 C1714 1.372 . S
C1715 C1716 1.400 . S
C1715 C1720 1.490 . S
C1716 H1706 0.930 . S
C1716 C1715 1.400 . S
C1716 C1719 1.386 . S
H1717 C1733 0.930 . S
H1718 C1734 0.931 . S
C1719 H1707 0.929 . S
C1719 C1713 1.390 . S
C1719 C1716 1.386 . S
C1720 C1715 1.490 . S
C1720 C1722 1.395 . S
C1720 C1723 1.403 . S
H1721 C1727 0.930 . S
C1722 H1708 0.930 . S
C1722 C1720 1.395 . S
C1722 C1725 1.403 . S
C1723 C1720 1.403 . S
C1723 C1724 1.524 . S
C1723 C1727 1.400 . S
C1724 H1709 0.960 . S
C1724 H1710 0.960 . S
C1724 H1711 0.960 . S
C1724 C1723 1.524 . S
C1725 C1722 1.403 . S
C1725 C1726 1.392 . S
C1725 C1729 1.495 . S
C1726 C1725 1.392 . S
C1726 C1727 1.385 . S
C1726 C1728 1.478 . S
C1727 H1721 0.930 . S
C1727 C1723 1.400 . S
C1727 C1726 1.385 . S
C1728 C1726 1.478 . S
C1728 C1730 1.381 . S
C1728 C1734 1.383 . S
C1729 C1725 1.495 . S
C1729 H1735 0.959 . S
C1729 H1736 0.961 . S
C1729 H1737 0.960 . S
C1730 C1728 1.381 . S
C1730 C1731 1.394 . S
C1730 H1738 0.930 . S
C1731 C1730 1.394 . S
C1731 C1732 1.383 . S
C1731 H1739 0.929 . S
C1732 C1731 1.383 . S
C1732 C1733 1.377 . S
C1733 H1717 0.930 . S
C1733 C1732 1.377 . S
C1733 C1734 1.379 . S
C1734 H1718 0.931 . S
C1734 C1728 1.383 . S
C1734 C1733 1.379 . S
H1735 C1729 0.959 . S
H1736 C1729 0.961 . S
H1737 C1729 0.960 . S
H1738 C1730 0.930 . S
H1739 C1731 0.929 . S
H1740 C1748 0.929 . S
H1741 C1750 0.930 . S
H1742 C1752 0.930 . S
H1743 C1755 0.929 . S
H1744 C1758 0.930 . S
H1745 C1760 0.960 . S
H1746 C1760 0.960 . S
H1747 C1760 0.960 . S
C1748 H1740 0.929 . S
C1748 C1749 1.377 . S
C1748 C1750 1.384 . S
C1749 C1748 1.377 . S
C1749 C1755 1.390 . S
C1750 H1741 0.930 . S
C1750 C1748 1.384 . S
C1750 C1751 1.372 . S
C1751 C1750 1.372 . S
C1751 C1752 1.400 . S
C1751 C1756 1.490 . S
C1752 H1742 0.930 . S
C1752 C1751 1.400 . S
C1752 C1755 1.386 . S
H1753 C1769 0.930 . S
H1754 C1770 0.931 . S
C1755 H1743 0.929 . S
C1755 C1749 1.390 . S
C1755 C1752 1.386 . S
C1756 C1751 1.490 . S
C1756 C1758 1.395 . S
C1756 C1759 1.403 . S
H1757 C1763 0.930 . S
C1758 H1744 0.930 . S
C1758 C1756 1.395 . S
C1758 C1761 1.403 . S
C1759 C1756 1.403 . S
C1759 C1760 1.524 . S
C1759 C1763 1.400 . S
C1760 H1745 0.960 . S
C1760 H1746 0.960 . S
C1760 H1747 0.960 . S
C1760 C1759 1.524 . S
C1761 C1758 1.403 . S
C1761 C1762 1.392 . S
C1761 C1765 1.495 . S
C1762 C1761 1.392 . S
C1762 C1763 1.385 . S
C1762 C1764 1.478 . S
C1763 H1757 0.930 . S
C1763 C1759 1.400 . S
C1763 C1762 1.385 . S
C1764 C1762 1.478 . S
C1764 C1766 1.381 . S
C1764 C1770 1.383 . S
C1765 C1761 1.495 . S
C1765 H1771 0.959 . S
C1765 H1772 0.961 . S
C1765 H1773 0.960 . S
C1766 C1764 1.381 . S
C1766 C1767 1.394 . S
C1766 H1774 0.930 . S
C1767 C1766 1.394 . S
C1767 C1768 1.383 . S
C1767 H1775 0.929 . S
C1768 C1767 1.383 . S
C1768 C1769 1.377 . S
C1769 H1753 0.930 . S
C1769 C1768 1.377 . S
C1769 C1770 1.379 . S
C1770 H1754 0.931 . S
C1770 C1764 1.383 . S
C1770 C1769 1.379 . S
H1771 C1765 0.959 . S
H1772 C1765 0.961 . S
H1773 C1765 0.960 . S
H1774 C1766 0.930 . S
H1775 C1767 0.929 . S
H1776 C1784 0.929 . S
H1777 C1786 0.930 . S
H1778 C1788 0.930 . S
H1779 C1791 0.929 . S
H1780 C1794 0.930 . S
H1781 C1796 0.960 . S
H1782 C1796 0.960 . S
H1783 C1796 0.960 . S
C1784 H1776 0.929 . S
C1784 C1785 1.377 . S
C1784 C1786 1.384 . S
C1785 C1784 1.377 . S
C1785 C1791 1.390 . S
C1786 H1777 0.930 . S
C1786 C1784 1.384 . S
C1786 C1787 1.372 . S
C1787 C1786 1.372 . S
C1787 C1788 1.400 . S
C1787 C1792 1.490 . S
C1788 H1778 0.930 . S
C1788 C1787 1.400 . S
C1788 C1791 1.386 . S
H1789 C1805 0.930 . S
H1790 C1806 0.931 . S
C1791 H1779 0.929 . S
C1791 C1785 1.390 . S
C1791 C1788 1.386 . S
C1792 C1787 1.490 . S
C1792 C1794 1.395 . S
C1792 C1795 1.403 . S
H1793 C1799 0.930 . S
C1794 H1780 0.930 . S
C1794 C1792 1.395 . S
C1794 C1797 1.403 . S
C1795 C1792 1.403 . S
C1795 C1796 1.524 . S
C1795 C1799 1.400 . S
C1796 H1781 0.960 . S
C1796 H1782 0.960 . S
C1796 H1783 0.960 . S
C1796 C1795 1.524 . S
C1797 C1794 1.403 . S
C1797 C1798 1.392 . S
C1797 C1801 1.495 . S
C1798 C1797 1.392 . S
C1798 C1799 1.385 . S
C1798 C1800 1.478 . S
C1799 H1793 0.930 . S
C1799 C1795 1.400 . S
C1799 C1798 1.385 . S
C1800 C1798 1.478 . S
C1800 C1802 1.381 . S
C1800 C1806 1.383 . S
C1801 C1797 1.495 . S
C1801 H1807 0.959 . S
C1801 H1808 0.961 . S
C1801 H1809 0.960 . S
C1802 C1800 1.381 . S
C1802 C1803 1.394 . S
C1802 H1810 0.930 . S
C1803 C1802 1.394 . S
C1803 C1804 1.383 . S
C1803 H1811 0.929 . S
C1804 C1803 1.383 . S
C1804 C1805 1.377 . S
C1805 H1789 0.930 . S
C1805 C1804 1.377 . S
C1805 C1806 1.379 . S
C1806 H1790 0.931 . S
C1806 C1800 1.383 . S
C1806 C1805 1.379 . S
H1807 C1801 0.959 . S
H1808 C1801 0.961 . S
H1809 C1801 0.960 . S
H1810 C1802 0.930 . S
H1811 C1803 0.929 . S
H1812 C1820 0.929 . S
H1813 C1822 0.930 . S
H1814 C1824 0.930 . S
H1815 C1827 0.929 . S
H1816 C1830 0.930 . S
H1817 C1832 0.960 . S
H1818 C1832 0.960 . S
H1819 C1832 0.960 . S
C1820 H1812 0.929 . S
C1820 C1821 1.377 . S
C1820 C1822 1.384 . S
C1821 C1820 1.377 . S
C1821 C1827 1.390 . S
C1822 H1813 0.930 . S
C1822 C1820 1.384 . S
C1822 C1823 1.372 . S
C1823 C1822 1.372 . S
C1823 C1824 1.400 . S
C1823 C1828 1.490 . S
C1824 H1814 0.930 . S
C1824 C1823 1.400 . S
C1824 C1827 1.386 . S
H1825 C1841 0.930 . S
H1826 C1842 0.931 . S
C1827 H1815 0.929 . S
C1827 C1821 1.390 . S
C1827 C1824 1.386 . S
C1828 C1823 1.490 . S
C1828 C1830 1.395 . S
C1828 C1831 1.403 . S
H1829 C1835 0.930 . S
C1830 H1816 0.930 . S
C1830 C1828 1.395 . S
C1830 C1833 1.403 . S
C1831 C1828 1.403 . S
C1831 C1832 1.524 . S
C1831 C1835 1.400 . S
C1832 H1817 0.960 . S
C1832 H1818 0.960 . S
C1832 H1819 0.960 . S
C1832 C1831 1.524 . S
C1833 C1830 1.403 . S
C1833 C1834 1.392 . S
C1833 C1837 1.495 . S
C1834 C1833 1.392 . S
C1834 C1835 1.385 . S
C1834 C1836 1.478 . S
C1835 H1829 0.930 . S
C1835 C1831 1.400 . S
C1835 C1834 1.385 . S
C1836 C1834 1.478 . S
C1836 C1838 1.381 . S
C1836 C1842 1.383 . S
C1837 C1833 1.495 . S
C1837 H1843 0.959 . S
C1837 H1844 0.961 . S
C1837 H1845 0.960 . S
C1838 C1836 1.381 . S
C1838 C1839 1.394 . S
C1838 H1846 0.930 . S
C1839 C1838 1.394 . S
C1839 C1840 1.383 . S
C1839 H1847 0.929 . S
C1840 C1839 1.383 . S
C1840 C1841 1.377 . S
C1841 H1825 0.930 . S
C1841 C1840 1.377 . S
C1841 C1842 1.379 . S
C1842 H1826 0.931 . S
C1842 C1836 1.383 . S
C1842 C1841 1.379 . S
H1843 C1837 0.959 . S
H1844 C1837 0.961 . S
H1845 C1837 0.960 . S
H1846 C1838 0.930 . S
H1847 C1839 0.929 . S
H1848 C1856 0.929 . S
H1849 C1858 0.930 . S
H1850 C1860 0.930 . S
H1851 C1863 0.929 . S
H1852 C1866 0.930 . S
H1853 C1868 0.960 . S
H1854 C1868 0.960 . S
H1855 C1868 0.960 . S
C1856 H1848 0.929 . S
C1856 C1857 1.377 . S
C1856 C1858 1.384 . S
C1857 C1856 1.377 . S
C1857 C1863 1.390 . S
C1858 H1849 0.930 . S
C1858 C1856 1.384 . S
C1858 C1859 1.372 . S
C1859 C1858 1.372 . S
C1859 C1860 1.400 . S
C1859 C1864 1.490 . S
C1860 H1850 0.930 . S
C1860 C1859 1.400 . S
C1860 C1863 1.386 . S
H1861 C1877 0.930 . S
H1862 C1878 0.931 . S
C1863 H1851 0.929 . S
C1863 C1857 1.390 . S
C1863 C1860 1.386 . S
C1864 C1859 1.490 . S
C1864 C1866 1.395 . S
C1864 C1867 1.403 . S
H1865 C1871 0.930 . S
C1866 H1852 0.930 . S
C1866 C1864 1.395 . S
C1866 C1869 1.403 . S
C1867 C1864 1.403 . S
C1867 C1868 1.524 . S
C1867 C1871 1.400 . S
C1868 H1853 0.960 . S
C1868 H1854 0.960 . S
C1868 H1855 0.960 . S
C1868 C1867 1.524 . S
C1869 C1866 1.403 . S
C1869 C1870 1.392 . S
C1869 C1873 1.495 . S
C1870 C1869 1.392 . S
C1870 C1871 1.385 . S
C1870 C1872 1.478 . S
C1871 H1865 0.930 . S
C1871 C1867 1.400 . S
C1871 C1870 1.385 . S
C1872 C1870 1.478 . S
C1872 C1874 1.381 . S
C1872 C1878 1.383 . S
C1873 C1869 1.495 . S
C1873 H1879 0.959 . S
C1873 H1880 0.961 . S
C1873 H1881 0.960 . S
C1874 C1872 1.381 . S
C1874 C1875 1.394 . S
C1874 H1882 0.930 . S
C1875 C1874 1.394 . S
C1875 C1876 1.383 . S
C1875 H1883 0.929 . S
C1876 C1875 1.383 . S
C1876 C1877 1.377 . S
C1877 H1861 0.930 . S
C1877 C1876 1.377 . S
C1877 C1878 1.379 . S
C1878 H1862 0.931 . S
C1878 C1872 1.383 . S
C1878 C1877 1.379 . S
H1879 C1873 0.959 . S
H1880 C1873 0.961 . S
H1881 C1873 0.960 . S
H1882 C1874 0.930 . S
H1883 C1875 0.929 . S
H1884 C1892 0.929 . S
H1885 C1894 0.930 . S
H1886 C1896 0.930 . S
H1887 C1899 0.929 . S
H1888 C1902 0.930 . S
H1889 C1904 0.960 . S
H1890 C1904 0.960 . S
H1891 C1904 0.960 . S
C1892 H1884 0.929 . S
C1892 C1893 1.377 . S
C1892 C1894 1.384 . S
C1893 C1892 1.377 . S
C1893 C1899 1.390 . S
C1894 H1885 0.930 . S
C1894 C1892 1.384 . S
C1894 C1895 1.372 . S
C1895 C1894 1.372 . S
C1895 C1896 1.400 . S
C1895 C1900 1.490 . S
C1896 H1886 0.930 . S
C1896 C1895 1.400 . S
C1896 C1899 1.386 . S
H1897 C1913 0.930 . S
H1898 C1914 0.931 . S
C1899 H1887 0.929 . S
C1899 C1893 1.390 . S
C1899 C1896 1.386 . S
C1900 C1895 1.490 . S
C1900 C1902 1.395 . S
C1900 C1903 1.403 . S
H1901 C1907 0.930 . S
C1902 H1888 0.930 . S
C1902 C1900 1.395 . S
C1902 C1905 1.403 . S
C1903 C1900 1.403 . S
C1903 C1904 1.524 . S
C1903 C1907 1.400 . S
C1904 H1889 0.960 . S
C1904 H1890 0.960 . S
C1904 H1891 0.960 . S
C1904 C1903 1.524 . S
C1905 C1902 1.403 . S
C1905 C1906 1.392 . S
C1905 C1909 1.495 . S
C1906 C1905 1.392 . S
C1906 C1907 1.385 . S
C1906 C1908 1.478 . S
C1907 H1901 0.930 . S
C1907 C1903 1.400 . S
C1907 C1906 1.385 . S
C1908 C1906 1.478 . S
C1908 C1910 1.381 . S
C1908 C1914 1.383 . S
C1909 C1905 1.495 . S
C1909 H1915 0.959 . S
C1909 H1916 0.961 . S
C1909 H1917 0.960 . S
C1910 C1908 1.381 . S
C1910 C1911 1.394 . S
C1910 H1918 0.930 . S
C1911 C1910 1.394 . S
C1911 C1912 1.383 . S
C1911 H1919 0.929 . S
C1912 C1911 1.383 . S
C1912 C1913 1.377 . S
C1913 H1897 0.930 . S
C1913 C1912 1.377 . S
C1913 C1914 1.379 . S
C1914 H1898 0.931 . S
C1914 C1908 1.383 . S
C1914 C1913 1.379 . S
H1915 C1909 0.959 . S
H1916 C1909 0.961 . S
H1917 C1909 0.960 . S
H1918 C1910 0.930 . S
H1919 C1911 0.929 . S
H1920 C1928 0.929 . S
H1921 C1930 0.930 . S
H1922 C1932 0.930 . S
H1923 C1935 0.929 . S
H1924 C1938 0.930 . S
H1925 C1940 0.960 . S
H1926 C1940 0.960 . S
H1927 C1940 0.960 . S
C1928 H1920 0.929 . S
C1928 C1929 1.377 . S
C1928 C1930 1.384 . S
C1929 C1928 1.377 . S
C1929 C1935 1.390 . S
C1930 H1921 0.930 . S
C1930 C1928 1.384 . S
C1930 C1931 1.372 . S
C1931 C1930 1.372 . S
C1931 C1932 1.400 . S
C1931 C1936 1.490 . S
C1932 H1922 0.930 . S
C1932 C1931 1.400 . S
C1932 C1935 1.386 . S
H1933 C1949 0.930 . S
H1934 C1950 0.931 . S
C1935 H1923 0.929 . S
C1935 C1929 1.390 . S
C1935 C1932 1.386 . S
C1936 C1931 1.490 . S
C1936 C1938 1.395 . S
C1936 C1939 1.403 . S
H1937 C1943 0.930 . S
C1938 H1924 0.930 . S
C1938 C1936 1.395 . S
C1938 C1941 1.403 . S
C1939 C1936 1.403 . S
C1939 C1940 1.524 . S
C1939 C1943 1.400 . S
C1940 H1925 0.960 . S
C1940 H1926 0.960 . S
C1940 H1927 0.960 . S
C1940 C1939 1.524 . S
C1941 C1938 1.403 . S
C1941 C1942 1.392 . S
C1941 C1945 1.495 . S
C1942 C1941 1.392 . S
C1942 C1943 1.385 . S
C1942 C1944 1.478 . S
C1943 H1937 0.930 . S
C1943 C1939 1.400 . S
C1943 C1942 1.385 . S
C1944 C1942 1.478 . S
C1944 C1946 1.381 . S
C1944 C1950 1.383 . S
C1945 C1941 1.495 . S
C1945 H1951 0.959 . S
C1945 H1952 0.961 . S
C1945 H1953 0.960 . S
C1946 C1944 1.381 . S
C1946 C1947 1.394 . S
C1946 H1954 0.930 . S
C1947 C1946 1.394 . S
C1947 C1948 1.383 . S
C1947 H1955 0.929 . S
C1948 C1947 1.383 . S
C1948 C1949 1.377 . S
C1949 H1933 0.930 . S
C1949 C1948 1.377 . S
C1949 C1950 1.379 . S
C1950 H1934 0.931 . S
C1950 C1944 1.383 . S
C1950 C1949 1.379 . S
H1951 C1945 0.959 . S
H1952 C1945 0.961 . S
H1953 C1945 0.960 . S
H1954 C1946 0.930 . S
H1955 C1947 0.929 . S
H1956 C1964 0.929 . S
H1957 C1966 0.930 . S
H1958 C1968 0.930 . S
H1959 C1971 0.929 . S
H1960 C1974 0.930 . S
H1961 C1976 0.960 . S
H1962 C1976 0.960 . S
H1963 C1976 0.960 . S
C1964 H1956 0.929 . S
C1964 C1965 1.377 . S
C1964 C1966 1.384 . S
C1965 C1964 1.377 . S
C1965 C1971 1.390 . S
C1966 H1957 0.930 . S
C1966 C1964 1.384 . S
C1966 C1967 1.372 . S
C1967 C1966 1.372 . S
C1967 C1968 1.400 . S
C1967 C1972 1.490 . S
C1968 H1958 0.930 . S
C1968 C1967 1.400 . S
C1968 C1971 1.386 . S
H1969 C1985 0.930 . S
H1970 C1986 0.931 . S
C1971 H1959 0.929 . S
C1971 C1965 1.390 . S
C1971 C1968 1.386 . S
C1972 C1967 1.490 . S
C1972 C1974 1.395 . S
C1972 C1975 1.403 . S
H1973 C1979 0.930 . S
C1974 H1960 0.930 . S
C1974 C1972 1.395 . S
C1974 C1977 1.403 . S
C1975 C1972 1.403 . S
C1975 C1976 1.524 . S
C1975 C1979 1.400 . S
C1976 H1961 0.960 . S
C1976 H1962 0.960 . S
C1976 H1963 0.960 . S
C1976 C1975 1.524 . S
C1977 C1974 1.403 . S
C1977 C1978 1.392 . S
C1977 C1981 1.495 . S
C1978 C1977 1.392 . S
C1978 C1979 1.385 . S
C1978 C1980 1.478 . S
C1979 H1973 0.930 . S
C1979 C1975 1.400 . S
C1979 C1978 1.385 . S
C1980 C1978 1.478 . S
C1980 C1982 1.381 . S
C1980 C1986 1.383 . S
C1981 C1977 1.495 . S
C1981 H1987 0.959 . S
C1981 H1988 0.961 . S
C1981 H1989 0.960 . S
C1982 C1980 1.381 . S
C1982 C1983 1.394 . S
C1982 H1990 0.930 . S
C1983 C1982 1.394 . S
C1983 C1984 1.383 . S
C1983 H1991 0.929 . S
C1984 C1983 1.383 . S
C1984 C1985 1.377 . S
C1985 H1969 0.930 . S
C1985 C1984 1.377 . S
C1985 C1986 1.379 . S
C1986 H1970 0.931 . S
C1986 C1980 1.383 . S
C1986 C1985 1.379 . S
H1987 C1981 0.959 . S
H1988 C1981 0.961 . S
H1989 C1981 0.960 . S
H1990 C1982 0.930 . S
H1991 C1983 0.929 . S
H1992 C2000 0.929 . S
H1993 C2002 0.930 . S
H1994 C2004 0.930 . S
H1995 C2007 0.929 . S
H1996 C2010 0.930 . S
H1997 C2012 0.960 . S
H1998 C2012 0.960 . S
H1999 C2012 0.960 . S
C2000 H1992 0.929 . S
C2000 C2001 1.377 . S
C2000 C2002 1.384 . S
C2001 C2000 1.377 . S
C2001 C2007 1.390 . S
C2002 H1993 0.930 . S
C2002 C2000 1.384 . S
C2002 C2003 1.372 . S
C2003 C2002 1.372 . S
C2003 C2004 1.400 . S
C2003 C2008 1.490 . S
C2004 H1994 0.930 . S
C2004 C2003 1.400 . S
C2004 C2007 1.386 . S
H2005 C2021 0.930 . S
H2006 C2022 0.931 . S
C2007 H1995 0.929 . S
C2007 C2001 1.390 . S
C2007 C2004 1.386 . S
C2008 C2003 1.490 . S
C2008 C2010 1.395 . S
C2008 C2011 1.403 . S
H2009 C2015 0.930 . S
C2010 H1996 0.930 . S
C2010 C2008 1.395 . S
C2010 C2013 1.403 . S
C2011 C2008 1.403 . S
C2011 C2012 1.524 . S
C2011 C2015 1.400 . S
C2012 H1997 0.960 . S
C2012 H1998 0.960 . S
C2012 H1999 0.960 . S
C2012 C2011 1.524 . S
C2013 C2010 1.403 . S
C2013 C2014 1.392 . S
C2013 C2017 1.495 . S
C2014 C2013 1.392 . S
C2014 C2015 1.385 . S
C2014 C2016 1.478 . S
C2015 H2009 0.930 . S
C2015 C2011 1.400 . S
C2015 C2014 1.385 . S
C2016 C2014 1.478 . S
C2016 C2018 1.381 . S
C2016 C2022 1.383 . S
C2017 C2013 1.495 . S
C2017 H2023 0.959 . S
C2017 H2024 0.961 . S
C2017 H2025 0.960 . S
C2018 C2016 1.381 . S
C2018 C2019 1.394 . S
C2018 H2026 0.930 . S
C2019 C2018 1.394 . S
C2019 C2020 1.383 . S
C2019 H2027 0.929 . S
C2020 C2019 1.383 . S
C2020 C2021 1.377 . S
C2021 H2005 0.930 . S
C2021 C2020 1.377 . S
C2021 C2022 1.379 . S
C2022 H2006 0.931 . S
C2022 C2016 1.383 . S
C2022 C2021 1.379 . S
H2023 C2017 0.959 . S
H2024 C2017 0.961 . S
H2025 C2017 0.960 . S
H2026 C2018 0.930 . S
H2027 C2019 0.929 . S
H2028 C2036 0.929 . S
H2029 C2038 0.930 . S
H2030 C2040 0.930 . S
H2031 C2043 0.929 . S
H2032 C2046 0.930 . S
H2033 C2048 0.960 . S
H2034 C2048 0.960 . S
H2035 C2048 0.960 . S
C2036 H2028 0.929 . S
C2036 C2037 1.377 . S
C2036 C2038 1.384 . S
C2037 C2036 1.377 . S
C2037 C2043 1.390 . S
C2038 H2029 0.930 . S
C2038 C2036 1.384 . S
C2038 C2039 1.372 . S
C2039 C2038 1.372 . S
C2039 C2040 1.400 . S
C2039 C2044 1.490 . S
C2040 H2030 0.930 . S
C2040 C2039 1.400 . S
C2040 C2043 1.386 . S
H2041 C2057 0.930 . S
H2042 C2058 0.931 . S
C2043 H2031 0.929 . S
C2043 C2037 1.390 . S
C2043 C2040 1.386 . S
C2044 C2039 1.490 . S
C2044 C2046 1.395 . S
C2044 C2047 1.403 . S
H2045 C2051 0.930 . S
C2046 H2032 0.930 . S
C2046 C2044 1.395 . S
C2046 C2049 1.403 . S
C2047 C2044 1.403 . S
C2047 C2048 1.524 . S
C2047 C2051 1.400 . S
C2048 H2033 0.960 . S
C2048 H2034 0.960 . S
C2048 H2035 0.960 . S
C2048 C2047 1.524 . S
C2049 C2046 1.403 . S
C2049 C2050 1.392 . S
C2049 C2053 1.495 . S
C2050 C2049 1.392 . S
C2050 C2051 1.385 . S
C2050 C2052 1.478 . S
C2051 H2045 0.930 . S
C2051 C2047 1.400 . S
C2051 C2050 1.385 . S
C2052 C2050 1.478 . S
C2052 C2054 1.381 . S
C2052 C2058 1.383 . S
C2053 C2049 1.495 . S
C2053 H2059 0.959 . S
C2053 H2060 0.961 . S
C2053 H2061 0.960 . S
C2054 C2052 1.381 . S
C2054 C2055 1.394 . S
C2054 H2062 0.930 . S
C2055 C2054 1.394 . S
C2055 C2056 1.383 . S
C2055 H2063 0.929 . S
C2056 C2055 1.383 . S
C2056 C2057 1.377 . S
C2057 H2041 0.930 . S
C2057 C2056 1.377 . S
C2057 C2058 1.379 . S
C2058 H2042 0.931 . S
C2058 C2052 1.383 . S
C2058 C2057 1.379 . S
H2059 C2053 0.959 . S
H2060 C2053 0.961 . S
H2061 C2053 0.960 . S
H2062 C2054 0.930 . S
H2063 C2055 0.929 . S
C345 C201 1.504 . S
C364 C11 1.492 . S
C381 C14 1.531 . S
C400 C210 1.533 . S
C417 C257 1.507 . S
C436 C33 1.505 . S
C453 C51 1.612 . S
C472 C191 1.609 . S
C489 C207 1.440 . S
C508 C67 1.437 . S
C525 C79 1.591 . S
C544 C219 1.575 . S
C561 C89 1.445 . S
C580 C263 1.436 . S
C597 C98 1.506 . S
C616 C182 1.494 . S
C633 C137 1.380 . S
C652 C123 1.373 . S
C669 C145 1.565 . S
C688 C131 1.562 . S
C705 C151 1.462 . S
C724 C165 1.454 . S
C741 C159 1.482 . S
C760 C117 1.479 . S
C777 C168 1.532 . S
C796 C42 1.533 . S
C813 C61 1.444 . S
C832 C235 1.443 . S
C849 C247 1.614 . S
C868 C23 1.610 . S
C885 C25 1.462 . S
C904 C303 1.458 . S
C921 C126 1.409 . S
C940 C9 1.396 . S
C957 C331 1.518 . S
C976 C47 1.521 . S
C993 C154 1.402 . S
C1012 C28 1.394 . S
C1029 C294 1.421 . S
C1048 C109 1.422 . S
C1065 C135 1.433 . S
C1084 C84 1.435 . S
C1101 C75 1.482 . S
C1120 C322 1.476 . S
C1137 C65 1.441 . S
C1156 C163 1.444 . S
C1173 C215 1.530 . S
C1192 C275 1.523 . S
C1209 C224 1.414 . S
C1228 C221 1.406 . S
C1245 C193 1.473 . S
C1264 C233 1.473 . S
C1281 C266 1.468 . S
C1300 C187 1.467 . S
C1317 C37 1.406 . S
C1336 C280 1.408 . S
C1353 C140 1.480 . S
C1372 C103 1.480 . S
C1389 C0 1.402 . S
C1408 C308 1.391 . S
C1425 C271 1.503 . S
C1444 C39 1.504 . S
C1461 C5 1.507 . S
C1480 C229 1.502 . S
C1497 C277 1.439 . S
C1516 C95 1.437 . S
C1533 C177 1.588 . S
C1552 C107 1.593 . S
C1569 C70 1.505 . S
C1588 C238 1.498 . S
C1605 C305 1.381 . S
C1624 C291 1.379 . S
C1641 C327 1.564 . S
C1660 C285 1.562 . S
C1677 C319 1.462 . S
C1696 C333 1.464 . S
C1713 C299 1.481 . S
C1732 C313 1.477 . S
C1749 C121 1.457 . S
C1768 C53 1.462 . S
C1785 C19 1.524 . S
C1804 C149 1.515 . S
C1821 C81 1.422 . S
C1840 C112 1.424 . S
C1857 C289 1.435 . S
C1876 C56 1.440 . S
C1893 C93 1.441 . S
C1912 C317 1.429 . S
C1929 C173 1.529 . S
C1948 C205 1.521 . S
C1965 C252 1.414 . S
C1984 C179 1.416 . S
C2001 C249 1.473 . S
C2020 C261 1.471 . S
C2037 C196 1.466 . S
C2056 C243 1.466 . S
