# Generated by pormake.
# Topology mdf, (4)-cn, num edge types: 1
# Building blocks:
#     Node 0, Type 0, BuildingBlock: AZAVOO_clean_sbu_0, # of connection points: 4
#     Node 1, Type 0, BuildingBlock: AZAVOO_clean_sbu_0, # of connection points: 4
#     Node 2, Type 0, BuildingBlock: AZAVOO_clean_sbu_0, # of connection points: 4
#     Node 3, Type 0, BuildingBlock: AZAVOO_clean_sbu_0, # of connection points: 4
#     Node 4, Type 0, BuildingBlock: AZAVOO_clean_sbu_0, # of connection points: 4
#     Node 5, Type 0, BuildingBlock: AZAVOO_clean_sbu_0, # of connection points: 4
#     Node 6, Type 0, BuildingBlock: AZAVOO_clean_sbu_0, # of connection points: 4
#     Node 7, Type 0, BuildingBlock: AZAVOO_clean_sbu_0, # of connection points: 4
#     Edge 8, Type (0, 0), BuildingBlock: XUDNAN_clean_linker_2, # of connection points: 2
#     Edge 9, Type (0, 0), BuildingBlock: XUDNAN_clean_linker_2, # of connection points: 2
#     Edge 10, Type (0, 0), BuildingBlock: XUDNAN_clean_linker_2, # of connection points: 2
#     Edge 11, Type (0, 0), BuildingBlock: XUDNAN_clean_linker_2, # of connection points: 2
#     Edge 12, Type (0, 0), BuildingBlock: XUDNAN_clean_linker_2, # of connection points: 2
#     Edge 13, Type (0, 0), BuildingBlock: XUDNAN_clean_linker_2, # of connection points: 2
#     Edge 14, Type (0, 0), BuildingBlock: XUDNAN_clean_linker_2, # of connection points: 2
#     Edge 15, Type (0, 0), BuildingBlock: XUDNAN_clean_linker_2, # of connection points: 2
#     Edge 16, Type (0, 0), BuildingBlock: XUDNAN_clean_linker_2, # of connection points: 2
#     Edge 17, Type (0, 0), BuildingBlock: XUDNAN_clean_linker_2, # of connection points: 2
#     Edge 18, Type (0, 0), BuildingBlock: XUDNAN_clean_linker_2, # of connection points: 2
#     Edge 19, Type (0, 0), BuildingBlock: XUDNAN_clean_linker_2, # of connection points: 2
#     Edge 20, Type (0, 0), BuildingBlock: XUDNAN_clean_linker_2, # of connection points: 2
#     Edge 21, Type (0, 0), BuildingBlock: XUDNAN_clean_linker_2, # of connection points: 2
#     Edge 22, Type (0, 0), BuildingBlock: XUDNAN_clean_linker_2, # of connection points: 2
#     Edge 23, Type (0, 0), BuildingBlock: XUDNAN_clean_linker_2, # of connection points: 2
# Relax obj value: 0.038
# Max RMSD: 0.047
# Mean RMSD: 0.047
data_MOF--net-mdf--node1-AZAVOO_clean_sbu_0--edge1-XUDNAN_clean_linker_2
_symmetry_space_group_name_H-M    P1
_symmetry_Int_Tables_number       1
_symmetry_cell_setting            triclinic
loop_
_symmetry_equiv_pos_as_xyz
'x, y, z'
_cell_length_a     34.411467
_cell_length_b     34.381816
_cell_length_c     15.999318
_cell_angle_alpha  90.082427
_cell_angle_beta   89.975211
_cell_angle_gamma 95.41271
loop_
_atom_site_label
_atom_site_type_symbol
_atom_site_fract_x
_atom_site_fract_y
_atom_site_fract_z
_atom_type_partial_charge
Mg0 Mg 0.26615 0.53873 0.41031 0.0
O1 O 0.21309 0.49882 0.36331 0.0
O2 O 0.23553 0.45634 0.27353 0.0
Mg3 Mg 0.3017 0.46796 0.26438 0.0
C4 C 0.20746 0.47021 0.31227 0.0
C5 C 0.2325 0.58739 0.54703 0.0
O6 O 0.26129 0.57208 0.58494 0.0
O7 O 0.26892 0.5717 0.28561 0.0
O8 O 0.29303 0.52694 0.20405 0.0
O9 O 0.27543 0.49704 0.51319 0.0
O10 O 0.30279 0.49474 0.38877 0.0
C11 C 0.28118 0.56074 0.21476 0.0
C12 C 0.29718 0.47968 0.46191 0.0
O13 O 0.22635 0.57991 0.46999 0.0
Mg14 Mg 0.44368 0.71847 0.57398 0.0
O15 O 0.48038 0.7686 0.64123 0.0
O16 O 0.51532 0.74106 0.7389 0.0
Mg17 Mg 0.50276 0.67464 0.73276 0.0
C18 C 0.50515 0.77119 0.70104 0.0
C19 C 0.39995 0.75904 0.43555 0.0
O20 O 0.41685 0.73302 0.39171 0.0
O21 O 0.40274 0.71063 0.68677 0.0
O22 O 0.43959 0.67908 0.77444 0.0
O23 O 0.49199 0.71236 0.48156 0.0
O24 O 0.48587 0.68131 0.60234 0.0
C25 C 0.40762 0.69298 0.75552 0.0
C26 C 0.50595 0.68958 0.5359 0.0
O27 O 0.4056 0.76098 0.514 0.0
Mg28 Mg 0.21718 0.95414 0.92516 0.0
O29 O 0.27277 0.99072 0.8807 0.0
O30 O 0.25394 0.03258 0.78484 0.0
Mg31 Mg 0.18827 0.02147 0.76483 0.0
C32 C 0.28022 0.01852 0.82862 0.0
C33 C 0.23933 0.90866 0.07149 0.0
O34 O 0.20724 0.92453 0.0908 0.0
O35 O 0.21639 0.91755 0.80649 0.0
O36 O 0.19698 0.9602 0.713 0.0
O37 O 0.2073 -0.00074 0.01995 0.0
O38 O 0.18239 -0.00125 0.89281 0.0
C39 C 0.20735 0.92662 0.73217 0.0
C40 C 0.18705 0.01574 0.96448 0.0
O41 O 0.25305 0.91339 -0.00198 0.0
Mg42 Mg 0.05131 0.76951 0.0857 0.0
O43 O 0.01655 0.7171 0.14991 0.0
O44 O 0.97881 0.74256 0.24611 0.0
Mg45 Mg 0.98656 0.809 0.23898 0.0
C46 C 0.99166 0.7134 0.2094 0.0
C47 C 0.09502 0.74367 0.94438 0.0
O48 O 0.08012 0.77643 0.92621 0.0
O49 O 0.09062 0.77958 0.20075 0.0
O50 O 0.04885 0.80543 0.28729 0.0
O51 O 0.00448 0.77165 0.99111 0.0
O52 O 0.0062 0.80494 0.10915 0.0
C53 C 0.08254 0.7945 0.27114 0.0
C54 C 0.98836 0.79524 0.0403 0.0
O55 O 0.09138 0.73056 0.01857 0.0
Mg56 Mg 0.77085 0.04547 0.89436 0.0
O57 O 0.71452 0.00695 0.85876 0.0
O58 O 0.72964 0.97021 0.7496 0.0
Mg59 Mg 0.79276 0.98652 0.71225 0.0
C60 C 0.70546 0.98072 0.80361 0.0
C61 C 0.74742 0.07893 0.05976 0.0
O62 O 0.77682 0.05882 0.07837 0.0
O63 O 0.76254 0.08609 0.78461 0.0
O64 O 0.77673 0.04803 0.67723 0.0
O65 O 0.78917 -0.00153 0.9761 0.0
O66 O 0.80483 0.00397 0.84248 0.0
C67 C 0.76646 0.08012 0.70646 0.0
C68 C 0.80558 0.98463 0.91137 0.0
O69 O 0.73694 0.08116 0.98384 0.0
Mg70 Mg 0.92555 0.2227 0.09003 0.0
O71 O 0.96348 0.27676 0.14063 0.0
O72 O -0.00388 0.25602 0.25094 0.0
Mg73 Mg 0.98113 0.1908 0.2687 0.0
C74 C 0.98733 0.28292 0.20155 0.0
C75 C 0.85704 0.24572 0.98216 0.0
O76 O 0.84401 0.2102 0.0053 0.0
O77 O 0.88324 0.22459 0.19974 0.0
O78 O 0.91874 0.20298 0.30393 0.0
O79 O 0.97373 0.2086 0.00524 0.0
O80 O 0.96655 0.18723 0.13514 0.0
C81 C 0.88725 0.2151 0.27612 0.0
C82 C 0.98706 0.18998 0.06762 0.0
O83 O 0.88975 0.2605 0.00998 0.0
Mg84 Mg 0.72315 0.44432 0.38729 0.0
O85 O 0.78138 0.4813 0.35891 0.0
O86 O 0.76673 0.52265 0.25789 0.0
Mg87 Mg 0.702 0.51498 0.22712 0.0
C88 C 0.79123 0.5087 0.3068 0.0
C89 C 0.77373 0.40758 0.52355 0.0
O90 O 0.78486 0.44455 0.53835 0.0
O91 O 0.72829 0.41111 0.26518 0.0
O92 O 0.71215 0.45496 0.17154 0.0
O93 O 0.70956 0.4865 0.48501 0.0
O94 O 0.69196 0.49084 0.3528 0.0
C95 C 0.72205 0.42108 0.1899 0.0
C96 C 0.69365 0.50576 0.42684 0.0
O97 O 0.75178 0.39848 0.46139 0.0
Mg98 Mg 0.55192 0.26555 0.58494 0.0
O99 O 0.51565 0.21654 0.65552 0.0
O100 O 0.48707 0.24402 0.76319 0.0
Mg101 Mg 0.50451 0.30979 0.76133 0.0
C102 C 0.49349 0.21407 0.7198 0.0
C103 C 0.59206 0.22634 0.43889 0.0
O104 O 0.58141 0.25755 0.40112 0.0
O105 O 0.59851 0.26932 0.68625 0.0
O106 O 0.56846 0.29994 0.78762 0.0
O107 O 0.50041 0.27544 0.50544 0.0
O108 O 0.51402 0.30504 0.62622 0.0
C109 C 0.59818 0.2849 0.75845 0.0
C110 C 0.49047 0.29843 0.56425 0.0
O111 O 0.58364 0.22093 0.51548 0.0
H112 H 0.37259 0.62161 0.78317 0.0
H113 H 0.37091 0.74236 0.85771 0.0
H114 H 0.32583 0.7219 0.9744 0.0
H115 H 0.26935 0.58644 0.84875 0.0
H116 H 0.28497 0.54067 0.88371 0.0
H117 H 0.30889 0.56586 0.79624 0.0
H118 H 0.37554 0.56479 0.87084 0.0
H119 H 0.35211 0.53995 0.95838 0.0
H120 H 0.38178 0.58542 0.9742 0.0
H121 H 0.29281 0.68636 0.09879 0.0
H122 H 0.27485 0.64039 0.21458 0.0
H123 H 0.29737 0.54341 0.0535 0.0
C124 C 0.36125 0.64377 0.82205 0.0
C125 C 0.37436 0.6834 0.81148 0.0
C126 C 0.36027 0.71186 0.8644 0.0
C127 C 0.33479 0.70044 0.93067 0.0
C128 C 0.32355 0.66062 0.94178 0.0
C129 C 0.33591 0.63283 0.88765 0.0
C130 C 0.32444 0.59183 0.91816 0.0
C131 C 0.29516 0.5699 0.85815 0.0
C132 C 0.36061 0.56923 0.9312 0.0
C133 C 0.30544 0.60065 0.00021 0.0
C134 C 0.30448 0.64036 0.01261 0.0
C135 C 0.29254 0.65521 0.08878 0.0
C136 C 0.28243 0.62888 0.15431 0.0
C137 C 0.28475 0.58826 0.14326 0.0
C138 C 0.29503 0.57422 0.0641 0.0
H139 H 0.38499 0.76536 0.26769 0.0
H140 H 0.35605 0.81145 0.51057 0.0
H141 H 0.31193 0.85424 0.44274 0.0
H142 H 0.38543 0.85609 0.15514 0.0
H143 H 0.36404 0.8337 0.06191 0.0
H144 H 0.39331 0.80637 0.12935 0.0
H145 H 0.33617 0.75217 0.14239 0.0
H146 H 0.30648 0.77935 0.07561 0.0
H147 H 0.28919 0.76456 0.17814 0.0
H148 H 0.27101 0.89141 0.35019 0.0
H149 H 0.23497 0.92118 0.23823 0.0
H150 H 0.29169 0.85319 0.05339 0.0
C151 C 0.36941 0.78447 0.30664 0.0
C152 C 0.37398 0.78506 0.39451 0.0
C153 C 0.35309 0.81053 0.44319 0.0
C154 C 0.32791 0.83491 0.40528 0.0
C155 C 0.32407 0.83356 0.31866 0.0
C156 C 0.34426 0.80914 0.26977 0.0
C157 C 0.33487 0.81363 0.17785 0.0
C158 C 0.37161 0.82834 0.12816 0.0
C159 C 0.31552 0.77514 0.14139 0.0
C160 C 0.30627 0.84447 0.18288 0.0
C161 C 0.30041 0.85531 0.26483 0.0
C162 C 0.27506 0.88293 0.28595 0.0
C163 C 0.25474 0.89967 0.2218 0.0
C164 C 0.26056 0.88944 0.13726 0.0
C165 C 0.28683 0.86161 0.11754 0.0
H166 H 0.07119 0.79625 0.43846 0.0
H167 H 0.16188 0.8102 0.24992 0.0
H168 H 0.20941 0.8349 0.35831 0.0
H169 H 0.09331 0.88069 0.53744 0.0
H170 H 0.08295 0.86343 0.64219 0.0
H171 H 0.05912 0.83844 0.55513 0.0
H172 H 0.08493 0.77366 0.60252 0.0
H173 H 0.10897 0.79851 0.69033 0.0
H174 H 0.13659 0.77157 0.61833 0.0
H175 H 0.24198 0.87226 0.47989 0.0
H176 H 0.25704 0.91478 0.60338 0.0
H177 H 0.14599 0.87333 0.71317 0.0
C178 C 0.10137 0.80335 0.42043 0.0
C179 C 0.11293 0.80143 0.33605 0.0
C180 C 0.15255 0.81113 0.3145 0.0
C181 C 0.17969 0.82526 0.37565 0.0
C182 C 0.1668 0.82866 0.45794 0.0
C183 C 0.12865 0.81713 0.4805 0.0
C184 C 0.12064 0.82756 0.57029 0.0
C185 C 0.08706 0.85412 0.57652 0.0
C186 C 0.11229 0.79061 0.6235 0.0
C187 C 0.15938 0.84913 0.59345 0.0
C188 C 0.18599 0.84897 0.52855 0.0
C189 C 0.22189 0.87154 0.53186 0.0
C190 C 0.23026 0.89551 0.60206 0.0
C191 C 0.20301 0.89613 0.66796 0.0
C192 C 0.16775 0.87198 0.66455 0.0
H193 H 0.15369 0.69404 0.95022 0.0
H194 H 0.07035 0.7416 0.7844 0.0
H195 H 0.09525 0.70525 0.66636 0.0
H196 H 0.23296 0.70007 0.80517 0.0
H197 H 0.25129 0.65475 0.8348 0.0
H198 H 0.22593 0.68188 0.91028 0.0
H199 H 0.17678 0.6222 0.93819 0.0
H200 H 0.2013 0.59366 0.86388 0.0
H201 H 0.14998 0.59853 0.85244 0.0
H202 H 0.13043 0.66726 0.56497 0.0
H203 H 0.17292 0.62644 0.48602 0.0
H204 H 0.235 0.60414 0.71484 0.0
C205 C 0.14075 0.69662 0.88902 0.0
C206 C 0.1103 0.72074 0.87608 0.0
C207 C 0.09405 0.72361 0.79529 0.0
C208 C 0.10792 0.70309 0.72787 0.0
C209 C 0.13855 0.68036 0.74184 0.0
C210 C 0.15486 0.67687 0.82018 0.0
C211 C 0.18795 0.65075 0.81705 0.0
C212 C 0.22681 0.67322 0.84341 0.0
C213 C 0.17844 0.61413 0.87108 0.0
C214 C 0.1878 0.64067 0.72465 0.0
C215 C 0.15892 0.65795 0.6827 0.0
C216 C 0.1531 0.65334 0.59697 0.0
C217 C 0.1774 0.63017 0.55266 0.0
C218 C 0.20724 0.6121 0.59417 0.0
C219 C 0.21244 0.61756 0.68131 0.0
H220 H 0.81105 0.14883 0.70751 0.0
H221 H 0.72068 0.08116 0.5683 0.0
H222 H 0.73107 0.12673 0.44958 0.0
H223 H 0.80231 0.24988 0.59878 0.0
H224 H 0.85471 0.25935 0.59816 0.0
H225 H 0.83064 0.23287 0.68373 0.0
H226 H 0.87299 0.17576 0.66039 0.0
H227 H 0.89752 0.20165 0.57579 0.0
H228 H 0.8739 0.15321 0.55858 0.0
H229 H 0.76024 0.16774 0.33684 0.0
H230 H 0.81134 0.19226 0.23693 0.0
H231 H 0.88757 0.22943 0.44297 0.0
C232 C 0.79182 0.14538 0.65389 0.0
C233 C 0.76426 0.11254 0.64746 0.0
C234 C 0.74112 0.10696 0.57485 0.0
C235 C 0.74663 0.13288 0.50744 0.0
C236 C 0.77564 0.16397 0.51328 0.0
C237 C 0.79799 0.17033 0.58501 0.0
C238 C 0.83351 0.19885 0.56861 0.0
C239 C 0.83006 0.23754 0.61505 0.0
C240 C 0.87167 0.18127 0.59212 0.0
C241 C 0.82981 0.20421 0.47505 0.0
C242 C 0.79503 0.18586 0.4452 0.0
C243 C 0.78713 0.18294 0.35965 0.0
C244 C 0.81631 0.19702 0.30318 0.0
C245 C 0.85326 0.21263 0.33271 0.0
C246 C 0.85929 0.21797 0.41935 0.0
H247 H 0.8808 0.31551 0.90699 0.0
H248 H 0.78651 0.22219 0.90971 0.0
H249 H 0.75494 0.25357 0.79231 0.0
H250 H 0.82257 0.39436 0.85753 0.0
H251 H 0.85862 0.41872 0.78906 0.0
H252 H 0.8736 0.38987 0.87505 0.0
H253 H 0.91147 0.34847 0.7746 0.0
H254 H 0.89725 0.37705 0.68749 0.0
H255 H 0.88665 0.3247 0.6865 0.0
H256 H 0.73654 0.29228 0.66779 0.0
H257 H 0.7287 0.33946 0.55423 0.0
H258 H 0.83383 0.40864 0.63607 0.0
C259 C 0.85325 0.30188 0.88375 0.0
C260 C 0.83617 0.26634 0.91748 0.0
C261 C 0.80019 0.24939 0.88483 0.0
C262 C 0.78206 0.26695 0.81808 0.0
C263 C 0.80031 0.30139 0.78481 0.0
C264 C 0.83484 0.31893 0.81717 0.0
C265 C 0.84884 0.3555 0.76913 0.0
C266 C 0.85098 0.39175 0.82604 0.0
C267 C 0.88839 0.35115 0.72694 0.0
C268 C 0.81662 0.35599 0.70497 0.0
C269 C 0.78926 0.32416 0.71424 0.0
C270 C 0.75763 0.31743 0.6602 0.0
C271 C 0.75362 0.34423 0.59555 0.0
C272 C 0.78071 0.37765 0.58646 0.0
C273 C 0.81263 0.38343 0.64184 0.0
H274 H 0.71931 0.43403 0.022 0.0
H275 H 0.72556 0.3418 0.20464 0.0
H276 H 0.71234 0.29266 0.09352 0.0
H277 H 0.64114 0.39985 0.92823 0.0
H278 H 0.65416 0.41271 0.82193 0.0
H279 H 0.67774 0.43964 0.90636 0.0
H280 H 0.74533 0.4242 0.85 0.0
H281 H 0.72171 0.39689 0.76466 0.0
H282 H 0.75457 0.37414 0.83253 0.0
H283 H 0.67695 0.25575 0.97932 0.0
H284 H 0.6279 0.23577 0.8706 0.0
H285 H 0.64641 0.35028 0.75872 0.0
C286 C 0.71928 0.40346 0.03809 0.0
C287 C 0.72299 0.39179 0.12207 0.0
C288 C 0.72271 0.35154 0.14078 0.0
C289 C 0.7153 0.32333 0.07792 0.0
C290 C 0.70885 0.33576 -0.00342 0.0
C291 C 0.71186 0.37503 0.97609 0.0
C292 C 0.69761 0.38124 0.88807 0.0
C293 C 0.66577 0.40999 0.88619 0.0
C294 C 0.73184 0.39498 0.83036 0.0
C295 C 0.68154 0.34002 0.86635 0.0
C296 C 0.68968 0.31379 0.92815 0.0
C297 C 0.67191 0.2755 0.92877 0.0
C298 C 0.64407 0.26432 0.86699 0.0
C299 C 0.63454 0.2914 0.80592 0.0
C300 C 0.65462 0.32891 0.80349 0.0
H301 H 0.70484 0.14242 0.05191 0.0
H302 H 0.74096 0.05377 0.22034 0.0
H303 H 0.70325 0.08054 0.33441 0.0
H304 H 0.71263 0.21975 0.20707 0.0
H305 H 0.67148 0.24251 0.16648 0.0
H306 H 0.70059 0.21547 0.09764 0.0
H307 H 0.63798 0.17278 0.05206 0.0
H308 H 0.60907 0.19947 0.12172 0.0
H309 H 0.60786 0.14709 0.13036 0.0
H310 H 0.66045 0.11562 0.42883 0.0
H311 H 0.62083 0.16102 0.50214 0.0
H312 H 0.61475 0.22886 0.27438 0.0
C313 C 0.70458 0.12861 0.11275 0.0
C314 C 0.72543 0.09589 0.12739 0.0
C315 C 0.72513 0.07893 0.20803 0.0
C316 C 0.70372 0.09381 0.27308 0.0
C317 C 0.68334 0.12602 0.2567 0.0
C318 C 0.68401 0.1436 0.17898 0.0
C319 C 0.66118 0.17911 0.17939 0.0
C320 C 0.6881 0.21642 0.16158 0.0
C321 C 0.62699 0.17429 0.1172 0.0
C322 C 0.64697 0.17827 0.26896 0.0
C323 C 0.65998 0.14731 0.31233 0.0
C324 C 0.65056 0.14032 0.39591 0.0
C325 C 0.62789 0.16619 0.43688 0.0
C326 C 0.61481 0.19857 0.39407 0.0
C327 C 0.62435 0.20443 0.30886 0.0
H328 H 0.34562 0.43791 0.36862 0.0
H329 H 0.2928 0.44357 0.61423 0.0
H330 H 0.33127 0.39095 0.66285 0.0
H331 H 0.35308 0.32981 0.36822 0.0
H332 H 0.39926 0.33556 0.31427 0.0
H333 H 0.36335 0.36949 0.29557 0.0
H334 H 0.41427 0.42703 0.33442 0.0
H335 H 0.45017 0.39341 0.35386 0.0
H336 H 0.43835 0.42702 0.4345 0.0
H337 H 0.38242 0.34574 0.69054 0.0
H338 H 0.44041 0.30852 0.69305 0.0
H339 H 0.45813 0.33004 0.42836 0.0
C340 C 0.3412 0.42732 0.43187 0.0
C341 C 0.31603 0.44471 0.48747 0.0
C342 C 0.31175 0.43052 0.57034 0.0
C343 C 0.33341 0.40058 0.59851 0.0
C344 C 0.35876 0.38479 0.54268 0.0
C345 C 0.36235 0.39727 0.46073 0.0
C346 C 0.39387 0.37773 0.41524 0.0
C347 C 0.37633 0.35159 0.34412 0.0
C348 C 0.42605 0.40811 0.38265 0.0
C349 C 0.40862 0.3536 0.48541 0.0
C350 C 0.38777 0.35784 0.55826 0.0
C351 C 0.39845 0.34152 0.63353 0.0
C352 C 0.43159 0.32077 0.63459 0.0
C353 C 0.45343 0.31644 0.56085 0.0
C354 C 0.44128 0.33227 0.48508 0.0
H355 H 0.6841 0.90999 0.87014 0.0
H356 H 0.64055 0.00385 0.7288 0.0
H357 H 0.57881 0.96241 0.7017 0.0
H358 H 0.65223 0.83642 0.73971 0.0
H359 H 0.63896 0.80011 0.81842 0.0
H360 H 0.67577 0.83934 0.8405 0.0
H361 H 0.63694 0.85912 0.97015 0.0
H362 H 0.60006 0.81951 0.9491 0.0
H363 H 0.58662 0.86874 0.95861 0.0
H364 H 0.52732 0.90695 0.67085 0.0
H365 H 0.48938 0.84354 0.64348 0.0
H366 H 0.56674 0.78653 0.8079 0.0
C367 C 0.66076 0.92219 0.83658 0.0
C368 C 0.66622 0.96012 0.80309 0.0
C369 C 0.6361 0.97505 0.75654 0.0
C370 C 0.60112 0.9517 0.74079 0.0
C371 C 0.5969 0.91377 0.77276 0.0
C372 C 0.62573 0.89935 0.82086 0.0
C373 C 0.61593 0.85657 0.84093 0.0
C374 C 0.64759 0.83167 0.80787 0.0
C375 C 0.6095 0.85065 0.93531 0.0
C376 C 0.57811 0.84857 0.79317 0.0
C377 C 0.56723 0.88195 0.75518 0.0
C378 C 0.53509 0.88082 0.70183 0.0
C379 C 0.5138 0.84461 0.68638 0.0
C380 C 0.52488 0.80998 0.72384 0.0
C381 C 0.55704 0.81242 0.77913 0.0
H382 H 0.01609 0.15418 0.93258 0.0
H383 H 0.04201 0.18656 0.18987 0.0
H384 H 0.10225 0.15292 0.18322 0.0
H385 H 0.04218 0.05981 0.9493 0.0
H386 H 0.06269 0.05725 0.84597 0.0
H387 H 0.02547 0.08938 0.8661 0.0
H388 H 0.07111 0.14798 0.81069 0.0
H389 H 0.10861 0.11591 0.79052 0.0
H390 H 0.11899 0.15842 0.8557 0.0
H391 H 0.15544 0.11063 0.15379 0.0
H392 H 0.19533 0.05874 0.10781 0.0
H393 H 0.13397 0.05154 0.87046 0.0
C394 C 0.03507 0.15499 0.98667 0.0
C395 C 0.02465 0.17297 0.06171 0.0
C396 C 0.04942 0.17265 0.13211 0.0
C397 C 0.08388 0.15399 0.12855 0.0
C398 C 0.09297 0.13571 0.05419 0.0
C399 C 0.06923 0.13591 0.98452 0.0
C400 C 0.08316 0.1102 0.91577 0.0
C401 C 0.0515 0.07721 0.89302 0.0
C402 C 0.09625 0.1346 0.8386 0.0
C403 C 0.11762 0.09447 0.95873 0.0
C404 C 0.12328 0.11028 0.0378 0.0
C405 C 0.15165 0.09842 0.09162 0.0
C406 C 0.17413 0.06886 0.06492 0.0
C407 C 0.16783 0.05115 0.98546 0.0
C408 C 0.13986 0.0649 0.93102 0.0
H409 H 0.95183 0.65868 0.11225 0.0
H410 H 0.99145 0.6825 0.36536 0.0
H411 H 0.95325 0.62216 0.41394 0.0
H412 H 0.85801 0.63521 0.16529 0.0
H413 H 0.8469 0.59769 0.08783 0.0
H414 H 0.88535 0.63565 0.06906 0.0
H415 H 0.93423 0.58373 0.04554 0.0
H416 H 0.89569 0.54542 0.06403 0.0
H417 H 0.93992 0.5475 0.12482 0.0
H418 H 0.90324 0.56552 0.43831 0.0
H419 H 0.84156 0.52212 0.43856 0.0
H420 H 0.83092 0.53861 0.17135 0.0
C421 C 0.95378 0.65 0.17706 0.0
C422 C 0.97524 0.67425 0.23493 0.0
C423 C 0.97569 0.66355 0.32016 0.0
C424 C 0.95424 0.62932 0.34809 0.0
C425 C 0.93213 0.60647 0.29 0.0
C426 C 0.93167 0.61646 0.20614 0.0
C427 C 0.90038 0.59135 0.15929 0.0
C428 C 0.87094 0.61648 0.11804 0.0
C429 C 0.91866 0.56546 0.0946 0.0
C430 C 0.88203 0.56715 0.23044 0.0
C431 C 0.90157 0.57522 0.30482 0.0
C432 C 0.88812 0.55845 0.38018 0.0
C433 C 0.85314 0.53379 0.37982 0.0
C434 C 0.83168 0.52714 0.30499 0.0
C435 C 0.84699 0.54311 0.22931 0.0
H436 H 0.31141 0.08478 0.90268 0.0
H437 H 0.33739 0.99372 0.73018 0.0
H438 H 0.40109 0.03045 0.69696 0.0
H439 H 0.34524 0.16203 0.78292 0.0
H440 H 0.36575 0.19271 0.86636 0.0
H441 H 0.3262 0.15616 0.88765 0.0
H442 H 0.36765 0.12574 0.00127 0.0
H443 H 0.40739 0.16251 0.9807 0.0
H444 H 0.41521 0.11148 0.97479 0.0
H445 H 0.45646 0.08189 0.66721 0.0
H446 H 0.49926 0.14276 0.64473 0.0
H447 H 0.43717 0.19956 0.83952 0.0
C448 C 0.3313 0.0721 0.86028 0.0
C449 C 0.32034 0.03637 0.81991 0.0
C450 C 0.34605 0.02082 0.76268 0.0
C451 C 0.38213 0.04146 0.7436 0.0
C452 C 0.39192 0.07728 0.78311 0.0
C453 C 0.36741 0.0922 0.84115 0.0
C454 C 0.3828 0.13283 0.86888 0.0
C455 C 0.35325 0.16267 0.85027 0.0
C456 C 0.39393 0.13315 0.96193 0.0
C457 C 0.41864 0.13937 0.81412 0.0
C458 C 0.42386 0.10682 0.76611 0.0
C459 C 0.45314 0.10726 0.70575 0.0
C460 C 0.47726 0.14204 0.69326 0.0
C461 C 0.47175 0.176 0.74054 0.0
C462 C 0.44259 0.17409 0.80301 0.0
H463 H 0.84059 0.95835 0.04912 0.0
H464 H 0.81634 0.93062 0.78877 0.0
H465 H 0.85349 0.87269 0.80066 0.0
H466 H 0.93732 0.93809 0.04292 0.0
H467 H 0.93835 0.91847 0.14724 0.0
H468 H 0.90473 0.95365 0.1219 0.0
H469 H 0.84705 0.90549 0.1725 0.0
H470 H 0.88058 0.87002 0.19782 0.0
H471 H 0.8402 0.85706 0.12831 0.0
H472 H 0.8972 0.82116 0.8381 0.0
H473 H 0.94935 0.78385 0.89262 0.0
H474 H 0.948 0.8476 0.12687 0.0
C475 C 0.8423 0.9395 0.99518 0.0
C476 C 0.82534 0.9486 0.9182 0.0
C477 C 0.82914 0.92409 0.84824 0.0
C478 C 0.84988 0.89098 0.8547 0.0
C479 C 0.86679 0.88313 0.93136 0.0
C480 C 0.86347 0.90689 0.00021 0.0
C481 C 0.88815 0.89487 0.07236 0.0
C482 C 0.91896 0.92825 0.09751 0.0
C483 C 0.86245 0.88103 0.14717 0.0
C484 C 0.90676 0.86124 0.03268 0.0
C485 C 0.89332 0.85435 0.95204 0.0
C486 C 0.90767 0.82604 0.90138 0.0
C487 C 0.93731 0.80498 0.93303 0.0
C488 C 0.95274 0.81279 0.01412 0.0
C489 C 0.93654 0.84066 0.06509 0.0
H490 H 0.05134 0.31171 0.11695 0.0
H491 H 0.97332 0.33784 0.31707 0.0
H492 H 0.0182 0.39564 0.35645 0.0
H493 H 0.13443 0.32811 0.22974 0.0
H494 H 0.1652 0.34913 0.14709 0.0
H495 H 0.12334 0.31591 0.12217 0.0
H496 H 0.0966 0.36772 0.02583 0.0
H497 H 0.1388 0.40106 0.04943 0.0
H498 H 0.09048 0.41568 0.06658 0.0
H499 H 0.07588 0.4444 0.38595 0.0
H500 H 0.14144 0.4794 0.40449 0.0
H501 H 0.18273 0.41892 0.18822 0.0
C502 C 0.04301 0.33083 0.16639 0.0
C503 C 0.00855 0.32153 0.21245 0.0
C504 C -0.00081 0.34555 0.27981 0.0
C505 C 0.02452 0.37826 0.30255 0.0
C506 C 0.05911 0.38612 0.25752 0.0
C507 C 0.06824 0.36318 0.19041 0.0
C508 C 0.1093 0.37447 0.15942 0.0
C509 C 0.13453 0.33985 0.16501 0.0
C510 C 0.10875 0.39071 0.07001 0.0
C511 C 0.12244 0.40621 0.22155 0.0
C512 C 0.0929 0.41314 0.27656 0.0
C513 C 0.09904 0.43965 0.3424 0.0
C514 C 0.13641 0.45932 0.35258 0.0
C515 C 0.16729 0.45187 0.29798 0.0
C516 C 0.15981 0.42534 0.23107 0.0
H517 H 0.53152 0.6537 0.39725 0.0
H518 H 0.56441 0.68879 0.64953 0.0
H519 H 0.62331 0.65332 0.63866 0.0
H520 H 0.55338 0.55958 0.41685 0.0
H521 H 0.57183 0.55379 0.31254 0.0
H522 H 0.53721 0.5887 0.3323 0.0
H523 H 0.58497 0.6438 0.26962 0.0
H524 H 0.6198 0.60891 0.24917 0.0
H525 H 0.63392 0.65203 0.31026 0.0
H526 H 0.6719 0.6066 0.60989 0.0
H527 H 0.70651 0.55036 0.56665 0.0
H528 H 0.64225 0.54369 0.33294 0.0
C529 C 0.55204 0.65503 0.44872 0.0
C530 C 0.54389 0.67407 0.52397 0.0
C531 C 0.57032 0.67421 0.59153 0.0
C532 C 0.60397 0.65446 0.58559 0.0
C533 C 0.61062 0.63466 0.51165 0.0
C534 C 0.58551 0.63486 0.44415 0.0
C535 C 0.59652 0.60695 0.37654 0.0
C536 C 0.56273 0.5754 0.35858 0.0
C537 C 0.60959 0.62926 0.29666 0.0
C538 C 0.63055 0.58978 0.41821 0.0
C539 C 0.63868 0.60683 0.49533 0.0
C540 C 0.6664 0.59355 0.54894 0.0
C541 C 0.68579 0.56146 0.52396 0.0
C542 C 0.67721 0.54285 0.44626 0.0
C543 C 0.64994 0.55786 0.39193 0.0
loop_
_geom_bond_atom_site_label_1
_geom_bond_atom_site_label_2
_geom_bond_distance
_geom_bond_site_symmetry_2
_ccdc_geom_bond_type
Mg0 O1 2.028 . S
Mg0 O7 1.986 . S
Mg0 O9 2.114 . S
Mg0 O10 2.251 . S
Mg0 O13 2.010 . S
O1 Mg0 2.028 . S
O1 C4 1.250 . S
O2 Mg3 2.028 . S
O2 C4 1.248 . S
Mg3 O2 2.028 . S
Mg3 O8 2.032 . S
Mg3 O10 2.079 . S
C4 O1 1.250 . S
C4 O2 1.248 . S
C5 O6 1.264 . S
C5 O13 1.249 . S
O6 C5 1.264 . S
O7 Mg0 1.986 . S
O7 C11 1.246 . S
O8 Mg3 2.032 . S
O8 C11 1.259 . S
O9 Mg0 2.114 . S
O9 C12 1.252 . S
O10 Mg0 2.251 . S
O10 Mg3 2.079 . S
O10 C12 1.273 . S
C11 O7 1.246 . S
C11 O8 1.259 . S
C12 O9 1.252 . S
C12 O10 1.273 . S
O13 Mg0 2.010 . S
O13 C5 1.249 . S
Mg14 O15 2.028 . S
Mg14 O21 1.986 . S
Mg14 O23 2.114 . S
Mg14 O24 2.251 . S
Mg14 O27 2.010 . S
O15 Mg14 2.028 . S
O15 C18 1.250 . S
O16 Mg17 2.028 . S
O16 C18 1.248 . S
Mg17 O16 2.028 . S
Mg17 O22 2.032 . S
Mg17 O24 2.079 . S
C18 O15 1.250 . S
C18 O16 1.248 . S
C19 O20 1.264 . S
C19 O27 1.249 . S
O20 C19 1.264 . S
O21 Mg14 1.986 . S
O21 C25 1.246 . S
O22 Mg17 2.032 . S
O22 C25 1.259 . S
O23 Mg14 2.114 . S
O23 C26 1.252 . S
O24 Mg14 2.251 . S
O24 Mg17 2.079 . S
O24 C26 1.273 . S
C25 O21 1.246 . S
C25 O22 1.259 . S
C26 O23 1.252 . S
C26 O24 1.273 . S
O27 Mg14 2.010 . S
O27 C19 1.249 . S
Mg28 O29 2.028 . S
Mg28 O35 1.986 . S
Mg28 O37 2.114 . S
Mg28 O38 2.251 . S
Mg28 O41 2.010 . S
O29 Mg28 2.028 . S
O29 C32 1.250 1_565 S
O30 Mg31 2.028 . S
O30 C32 1.248 . S
Mg31 O30 2.028 . S
Mg31 O36 2.032 1_545 S
Mg31 O38 2.079 1_545 S
C32 O29 1.250 1_545 S
C32 O30 1.248 . S
C33 O34 1.264 . S
C33 O41 1.249 1_554 S
O34 C33 1.264 . S
O35 Mg28 1.986 . S
O35 C39 1.246 . S
O36 Mg31 2.032 1_565 S
O36 C39 1.259 . S
O37 Mg28 2.114 . S
O37 C40 1.252 1_565 S
O38 Mg28 2.251 . S
O38 Mg31 2.079 1_565 S
O38 C40 1.273 1_565 S
C39 O35 1.246 . S
C39 O36 1.259 . S
C40 O37 1.252 1_545 S
C40 O38 1.273 1_545 S
O41 Mg28 2.010 . S
O41 C33 1.249 1_556 S
Mg42 O43 2.028 . S
Mg42 O49 1.986 . S
Mg42 O51 2.114 . S
Mg42 O52 2.251 . S
Mg42 O55 2.010 . S
O43 Mg42 2.028 . S
O43 C46 1.250 1_455 S
O44 Mg45 2.028 . S
O44 C46 1.248 . S
Mg45 O44 2.028 . S
Mg45 O50 2.032 1_655 S
Mg45 O52 2.079 1_655 S
C46 O43 1.250 1_655 S
C46 O44 1.248 . S
C47 O48 1.264 . S
C47 O55 1.249 1_556 S
O48 C47 1.264 . S
O49 Mg42 1.986 . S
O49 C53 1.246 . S
O50 Mg45 2.032 1_455 S
O50 C53 1.259 . S
O51 Mg42 2.114 . S
O51 C54 1.252 1_455 S
O52 Mg42 2.251 . S
O52 Mg45 2.079 1_455 S
O52 C54 1.273 1_455 S
C53 O49 1.246 . S
C53 O50 1.259 . S
C54 O51 1.252 1_655 S
C54 O52 1.273 1_655 S
O55 Mg42 2.010 . S
O55 C47 1.249 1_554 S
Mg56 O57 2.028 . S
Mg56 O63 1.986 . S
Mg56 O65 2.114 . S
Mg56 O66 2.251 . S
Mg56 O69 2.010 . S
O57 Mg56 2.028 . S
O57 C60 1.250 1_545 S
O58 Mg59 2.028 . S
O58 C60 1.248 . S
Mg59 O58 2.028 . S
Mg59 O64 2.032 1_565 S
Mg59 O66 2.079 1_565 S
C60 O57 1.250 1_565 S
C60 O58 1.248 . S
C61 O62 1.264 . S
C61 O69 1.249 1_554 S
O62 C61 1.264 . S
O63 Mg56 1.986 . S
O63 C67 1.246 . S
O64 Mg59 2.032 1_545 S
O64 C67 1.259 . S
O65 Mg56 2.114 . S
O65 C68 1.252 1_545 S
O66 Mg56 2.251 . S
O66 Mg59 2.079 1_545 S
O66 C68 1.273 1_545 S
C67 O63 1.246 . S
C67 O64 1.259 . S
C68 O65 1.252 1_565 S
C68 O66 1.273 1_565 S
O69 Mg56 2.010 . S
O69 C61 1.249 1_556 S
Mg70 O71 2.028 . S
Mg70 O77 1.986 . S
Mg70 O79 2.114 . S
Mg70 O80 2.251 . S
Mg70 O83 2.010 . S
O71 Mg70 2.028 . S
O71 C74 1.250 1_655 S
O72 Mg73 2.028 . S
O72 C74 1.248 . S
Mg73 O72 2.028 . S
Mg73 O78 2.032 1_455 S
Mg73 O80 2.079 1_455 S
C74 O71 1.250 1_455 S
C74 O72 1.248 . S
C75 O76 1.264 . S
C75 O83 1.249 1_556 S
O76 C75 1.264 . S
O77 Mg70 1.986 . S
O77 C81 1.246 . S
O78 Mg73 2.032 1_655 S
O78 C81 1.259 . S
O79 Mg70 2.114 . S
O79 C82 1.252 1_655 S
O80 Mg70 2.251 . S
O80 Mg73 2.079 1_655 S
O80 C82 1.273 1_655 S
C81 O77 1.246 . S
C81 O78 1.259 . S
C82 O79 1.252 1_455 S
C82 O80 1.273 1_455 S
O83 Mg70 2.010 . S
O83 C75 1.249 1_554 S
Mg84 O85 2.028 . S
Mg84 O91 1.986 . S
Mg84 O93 2.114 . S
Mg84 O94 2.251 . S
Mg84 O97 2.010 . S
O85 Mg84 2.028 . S
O85 C88 1.250 . S
O86 Mg87 2.028 . S
O86 C88 1.248 . S
Mg87 O86 2.028 . S
Mg87 O92 2.032 . S
Mg87 O94 2.079 . S
C88 O85 1.250 . S
C88 O86 1.248 . S
C89 O90 1.264 . S
C89 O97 1.249 . S
O90 C89 1.264 . S
O91 Mg84 1.986 . S
O91 C95 1.246 . S
O92 Mg87 2.032 . S
O92 C95 1.259 . S
O93 Mg84 2.114 . S
O93 C96 1.252 . S
O94 Mg84 2.251 . S
O94 Mg87 2.079 . S
O94 C96 1.273 . S
C95 O91 1.246 . S
C95 O92 1.259 . S
C96 O93 1.252 . S
C96 O94 1.273 . S
O97 Mg84 2.010 . S
O97 C89 1.249 . S
Mg98 O99 2.028 . S
Mg98 O105 1.986 . S
Mg98 O107 2.114 . S
Mg98 O108 2.251 . S
Mg98 O111 2.010 . S
O99 Mg98 2.028 . S
O99 C102 1.250 . S
O100 Mg101 2.028 . S
O100 C102 1.248 . S
Mg101 O100 2.028 . S
Mg101 O106 2.032 . S
Mg101 O108 2.079 . S
C102 O99 1.250 . S
C102 O100 1.248 . S
C103 O104 1.264 . S
C103 O111 1.249 . S
O104 C103 1.264 . S
O105 Mg98 1.986 . S
O105 C109 1.246 . S
O106 Mg101 2.032 . S
O106 C109 1.259 . S
O107 Mg98 2.114 . S
O107 C110 1.252 . S
O108 Mg98 2.251 . S
O108 Mg101 2.079 . S
O108 C110 1.273 . S
C109 O105 1.246 . S
C109 O106 1.259 . S
C110 O107 1.252 . S
C110 O108 1.273 . S
O111 Mg98 2.010 . S
O111 C103 1.249 . S
H112 C124 0.930 . S
H113 C126 0.930 . S
H114 C127 0.930 1_554 S
H115 C131 0.959 . S
H116 C131 0.959 . S
H117 C131 0.961 . S
H118 C132 0.960 . S
H119 C132 0.961 . S
H120 C132 0.959 1_554 S
H121 C135 0.929 . S
H122 C136 0.931 . S
H123 C138 0.930 . S
C124 H112 0.930 . S
C124 C125 1.399 . S
C124 C129 1.399 . S
C125 C124 1.399 . S
C125 C126 1.376 . S
C126 H113 0.930 . S
C126 C125 1.376 . S
C126 C127 1.388 . S
C127 H114 0.930 1_556 S
C127 C126 1.388 . S
C127 C128 1.390 . S
C128 C127 1.390 . S
C128 C129 1.394 . S
C128 C134 1.465 1_556 S
C129 C124 1.399 . S
C129 C128 1.394 . S
C129 C130 1.516 . S
C130 C129 1.516 . S
C130 C131 1.502 . S
C130 C132 1.561 . S
C130 C133 1.526 1_556 S
C131 H115 0.959 . S
C131 H116 0.959 . S
C131 H117 0.961 . S
C131 C130 1.502 . S
C132 H118 0.960 . S
C132 H119 0.961 . S
C132 H120 0.959 1_556 S
C132 C130 1.561 . S
C133 C130 1.526 1_554 S
C133 C134 1.396 . S
C133 C138 1.390 . S
C134 C128 1.465 1_554 S
C134 C133 1.396 . S
C134 C135 1.399 . S
C135 H121 0.929 . S
C135 C134 1.399 . S
C135 C136 1.385 . S
C136 H122 0.931 . S
C136 C135 1.385 . S
C136 C137 1.389 . S
C137 C136 1.389 . S
C137 C138 1.387 . S
C138 H123 0.930 . S
C138 C133 1.390 . S
C138 C137 1.387 . S
H139 C151 0.930 . S
H140 C153 0.930 . S
H141 C154 0.930 . S
H142 C158 0.959 . S
H143 C158 0.959 . S
H144 C158 0.961 . S
H145 C159 0.960 . S
H146 C159 0.961 . S
H147 C159 0.959 . S
H148 C162 0.929 . S
H149 C163 0.931 . S
H150 C165 0.930 . S
C151 H139 0.930 . S
C151 C152 1.399 . S
C151 C156 1.399 . S
C152 C151 1.399 . S
C152 C153 1.376 . S
C153 H140 0.930 . S
C153 C152 1.376 . S
C153 C154 1.388 . S
C154 H141 0.930 . S
C154 C153 1.388 . S
C154 C155 1.390 . S
C155 C154 1.390 . S
C155 C156 1.394 . S
C155 C161 1.465 . S
C156 C151 1.399 . S
C156 C155 1.394 . S
C156 C157 1.516 . S
C157 C156 1.516 . S
C157 C158 1.502 . S
C157 C159 1.561 . S
C157 C160 1.526 . S
C158 H142 0.959 . S
C158 H143 0.959 . S
C158 H144 0.961 . S
C158 C157 1.502 . S
C159 H145 0.960 . S
C159 H146 0.961 . S
C159 H147 0.959 . S
C159 C157 1.561 . S
C160 C157 1.526 . S
C160 C161 1.396 . S
C160 C165 1.390 . S
C161 C155 1.465 . S
C161 C160 1.396 . S
C161 C162 1.399 . S
C162 H148 0.929 . S
C162 C161 1.399 . S
C162 C163 1.385 . S
C163 H149 0.931 . S
C163 C162 1.385 . S
C163 C164 1.389 . S
C164 C163 1.389 . S
C164 C165 1.387 . S
C165 H150 0.930 . S
C165 C160 1.390 . S
C165 C164 1.387 . S
H166 C178 0.930 . S
H167 C180 0.930 . S
H168 C181 0.930 . S
H169 C185 0.959 . S
H170 C185 0.959 . S
H171 C185 0.961 . S
H172 C186 0.960 . S
H173 C186 0.961 . S
H174 C186 0.959 . S
H175 C189 0.929 . S
H176 C190 0.931 . S
H177 C192 0.930 . S
C178 H166 0.930 . S
C178 C179 1.399 . S
C178 C183 1.399 . S
C179 C178 1.399 . S
C179 C180 1.376 . S
C180 H167 0.930 . S
C180 C179 1.376 . S
C180 C181 1.388 . S
C181 H168 0.930 . S
C181 C180 1.388 . S
C181 C182 1.390 . S
C182 C181 1.390 . S
C182 C183 1.394 . S
C182 C188 1.465 . S
C183 C178 1.399 . S
C183 C182 1.394 . S
C183 C184 1.516 . S
C184 C183 1.516 . S
C184 C185 1.502 . S
C184 C186 1.561 . S
C184 C187 1.526 . S
C185 H169 0.959 . S
C185 H170 0.959 . S
C185 H171 0.961 . S
C185 C184 1.502 . S
C186 H172 0.960 . S
C186 H173 0.961 . S
C186 H174 0.959 . S
C186 C184 1.561 . S
C187 C184 1.526 . S
C187 C188 1.396 . S
C187 C192 1.390 . S
C188 C182 1.465 . S
C188 C187 1.396 . S
C188 C189 1.399 . S
C189 H175 0.929 . S
C189 C188 1.399 . S
C189 C190 1.385 . S
C190 H176 0.931 . S
C190 C189 1.385 . S
C190 C191 1.389 . S
C191 C190 1.389 . S
C191 C192 1.387 . S
C192 H177 0.930 . S
C192 C187 1.390 . S
C192 C191 1.387 . S
H193 C205 0.930 . S
H194 C207 0.930 . S
H195 C208 0.930 . S
H196 C212 0.959 . S
H197 C212 0.959 . S
H198 C212 0.961 . S
H199 C213 0.960 . S
H200 C213 0.961 . S
H201 C213 0.959 . S
H202 C216 0.929 . S
H203 C217 0.931 . S
H204 C219 0.930 . S
C205 H193 0.930 . S
C205 C206 1.399 . S
C205 C210 1.399 . S
C206 C205 1.399 . S
C206 C207 1.376 . S
C207 H194 0.930 . S
C207 C206 1.376 . S
C207 C208 1.388 . S
C208 H195 0.930 . S
C208 C207 1.388 . S
C208 C209 1.390 . S
C209 C208 1.390 . S
C209 C210 1.394 . S
C209 C215 1.465 . S
C210 C205 1.399 . S
C210 C209 1.394 . S
C210 C211 1.516 . S
C211 C210 1.516 . S
C211 C212 1.502 . S
C211 C213 1.561 . S
C211 C214 1.526 . S
C212 H196 0.959 . S
C212 H197 0.959 . S
C212 H198 0.961 . S
C212 C211 1.502 . S
C213 H199 0.960 . S
C213 H200 0.961 . S
C213 H201 0.959 . S
C213 C211 1.561 . S
C214 C211 1.526 . S
C214 C215 1.396 . S
C214 C219 1.390 . S
C215 C209 1.465 . S
C215 C214 1.396 . S
C215 C216 1.399 . S
C216 H202 0.929 . S
C216 C215 1.399 . S
C216 C217 1.385 . S
C217 H203 0.931 . S
C217 C216 1.385 . S
C217 C218 1.389 . S
C218 C217 1.389 . S
C218 C219 1.387 . S
C219 H204 0.930 . S
C219 C214 1.390 . S
C219 C218 1.387 . S
H220 C232 0.930 . S
H221 C234 0.930 . S
H222 C235 0.930 . S
H223 C239 0.959 . S
H224 C239 0.959 . S
H225 C239 0.961 . S
H226 C240 0.960 . S
H227 C240 0.961 . S
H228 C240 0.959 . S
H229 C243 0.929 . S
H230 C244 0.931 . S
H231 C246 0.930 . S
C232 H220 0.930 . S
C232 C233 1.399 . S
C232 C237 1.399 . S
C233 C232 1.399 . S
C233 C234 1.376 . S
C234 H221 0.930 . S
C234 C233 1.376 . S
C234 C235 1.388 . S
C235 H222 0.930 . S
C235 C234 1.388 . S
C235 C236 1.390 . S
C236 C235 1.390 . S
C236 C237 1.394 . S
C236 C242 1.465 . S
C237 C232 1.399 . S
C237 C236 1.394 . S
C237 C238 1.516 . S
C238 C237 1.516 . S
C238 C239 1.502 . S
C238 C240 1.561 . S
C238 C241 1.526 . S
C239 H223 0.959 . S
C239 H224 0.959 . S
C239 H225 0.961 . S
C239 C238 1.502 . S
C240 H226 0.960 . S
C240 H227 0.961 . S
C240 H228 0.959 . S
C240 C238 1.561 . S
C241 C238 1.526 . S
C241 C242 1.396 . S
C241 C246 1.390 . S
C242 C236 1.465 . S
C242 C241 1.396 . S
C242 C243 1.399 . S
C243 H229 0.929 . S
C243 C242 1.399 . S
C243 C244 1.385 . S
C244 H230 0.931 . S
C244 C243 1.385 . S
C244 C245 1.389 . S
C245 C244 1.389 . S
C245 C246 1.387 . S
C246 H231 0.930 . S
C246 C241 1.390 . S
C246 C245 1.387 . S
H247 C259 0.930 . S
H248 C261 0.930 . S
H249 C262 0.930 . S
H250 C266 0.959 . S
H251 C266 0.959 . S
H252 C266 0.961 . S
H253 C267 0.960 . S
H254 C267 0.961 . S
H255 C267 0.959 . S
H256 C270 0.929 . S
H257 C271 0.931 . S
H258 C273 0.930 . S
C259 H247 0.930 . S
C259 C260 1.399 . S
C259 C264 1.399 . S
C260 C259 1.399 . S
C260 C261 1.376 . S
C261 H248 0.930 . S
C261 C260 1.376 . S
C261 C262 1.388 . S
C262 H249 0.930 . S
C262 C261 1.388 . S
C262 C263 1.390 . S
C263 C262 1.390 . S
C263 C264 1.394 . S
C263 C269 1.465 . S
C264 C259 1.399 . S
C264 C263 1.394 . S
C264 C265 1.516 . S
C265 C264 1.516 . S
C265 C266 1.502 . S
C265 C267 1.561 . S
C265 C268 1.526 . S
C266 H250 0.959 . S
C266 H251 0.959 . S
C266 H252 0.961 . S
C266 C265 1.502 . S
C267 H253 0.960 . S
C267 H254 0.961 . S
C267 H255 0.959 . S
C267 C265 1.561 . S
C268 C265 1.526 . S
C268 C269 1.396 . S
C268 C273 1.390 . S
C269 C263 1.465 . S
C269 C268 1.396 . S
C269 C270 1.399 . S
C270 H256 0.929 . S
C270 C269 1.399 . S
C270 C271 1.385 . S
C271 H257 0.931 . S
C271 C270 1.385 . S
C271 C272 1.389 . S
C272 C271 1.389 . S
C272 C273 1.387 . S
C273 H258 0.930 . S
C273 C268 1.390 . S
C273 C272 1.387 . S
H274 C286 0.930 . S
H275 C288 0.930 . S
H276 C289 0.930 . S
H277 C293 0.959 1_554 S
H278 C293 0.959 . S
H279 C293 0.961 1_554 S
H280 C294 0.960 . S
H281 C294 0.961 . S
H282 C294 0.959 . S
H283 C297 0.929 . S
H284 C298 0.931 . S
H285 C300 0.930 . S
C286 H274 0.930 . S
C286 C287 1.399 . S
C286 C291 1.399 . S
C287 C286 1.399 . S
C287 C288 1.376 . S
C288 H275 0.930 . S
C288 C287 1.376 . S
C288 C289 1.388 . S
C289 H276 0.930 . S
C289 C288 1.388 . S
C289 C290 1.390 . S
C290 C289 1.390 . S
C290 C291 1.394 . S
C290 C296 1.465 1_554 S
C291 C286 1.399 . S
C291 C290 1.394 . S
C291 C292 1.516 1_554 S
C292 C291 1.516 1_556 S
C292 C293 1.502 . S
C292 C294 1.561 . S
C292 C295 1.526 . S
C293 H277 0.959 1_556 S
C293 H278 0.959 . S
C293 H279 0.961 1_556 S
C293 C292 1.502 . S
C294 H280 0.960 . S
C294 H281 0.961 . S
C294 H282 0.959 . S
C294 C292 1.561 . S
C295 C292 1.526 . S
C295 C296 1.396 . S
C295 C300 1.390 . S
C296 C290 1.465 1_556 S
C296 C295 1.396 . S
C296 C297 1.399 . S
C297 H283 0.929 . S
C297 C296 1.399 . S
C297 C298 1.385 . S
C298 H284 0.931 . S
C298 C297 1.385 . S
C298 C299 1.389 . S
C299 C298 1.389 . S
C299 C300 1.387 . S
C300 H285 0.930 . S
C300 C295 1.390 . S
C300 C299 1.387 . S
H301 C313 0.930 . S
H302 C315 0.930 . S
H303 C316 0.930 . S
H304 C320 0.959 . S
H305 C320 0.959 . S
H306 C320 0.961 . S
H307 C321 0.960 . S
H308 C321 0.961 . S
H309 C321 0.959 . S
H310 C324 0.929 . S
H311 C325 0.931 . S
H312 C327 0.930 . S
C313 H301 0.930 . S
C313 C314 1.399 . S
C313 C318 1.399 . S
C314 C313 1.399 . S
C314 C315 1.376 . S
C315 H302 0.930 . S
C315 C314 1.376 . S
C315 C316 1.388 . S
C316 H303 0.930 . S
C316 C315 1.388 . S
C316 C317 1.390 . S
C317 C316 1.390 . S
C317 C318 1.394 . S
C317 C323 1.465 . S
C318 C313 1.399 . S
C318 C317 1.394 . S
C318 C319 1.516 . S
C319 C318 1.516 . S
C319 C320 1.502 . S
C319 C321 1.561 . S
C319 C322 1.526 . S
C320 H304 0.959 . S
C320 H305 0.959 . S
C320 H306 0.961 . S
C320 C319 1.502 . S
C321 H307 0.960 . S
C321 H308 0.961 . S
C321 H309 0.959 . S
C321 C319 1.561 . S
C322 C319 1.526 . S
C322 C323 1.396 . S
C322 C327 1.390 . S
C323 C317 1.465 . S
C323 C322 1.396 . S
C323 C324 1.399 . S
C324 H310 0.929 . S
C324 C323 1.399 . S
C324 C325 1.385 . S
C325 H311 0.931 . S
C325 C324 1.385 . S
C325 C326 1.389 . S
C326 C325 1.389 . S
C326 C327 1.387 . S
C327 H312 0.930 . S
C327 C322 1.390 . S
C327 C326 1.387 . S
H328 C340 0.930 . S
H329 C342 0.930 . S
H330 C343 0.930 . S
H331 C347 0.959 . S
H332 C347 0.959 . S
H333 C347 0.961 . S
H334 C348 0.960 . S
H335 C348 0.961 . S
H336 C348 0.959 . S
H337 C351 0.929 . S
H338 C352 0.931 . S
H339 C354 0.930 . S
C340 H328 0.930 . S
C340 C341 1.399 . S
C340 C345 1.399 . S
C341 C340 1.399 . S
C341 C342 1.376 . S
C342 H329 0.930 . S
C342 C341 1.376 . S
C342 C343 1.388 . S
C343 H330 0.930 . S
C343 C342 1.388 . S
C343 C344 1.390 . S
C344 C343 1.390 . S
C344 C345 1.394 . S
C344 C350 1.465 . S
C345 C340 1.399 . S
C345 C344 1.394 . S
C345 C346 1.516 . S
C346 C345 1.516 . S
C346 C347 1.502 . S
C346 C348 1.561 . S
C346 C349 1.526 . S
C347 H331 0.959 . S
C347 H332 0.959 . S
C347 H333 0.961 . S
C347 C346 1.502 . S
C348 H334 0.960 . S
C348 H335 0.961 . S
C348 H336 0.959 . S
C348 C346 1.561 . S
C349 C346 1.526 . S
C349 C350 1.396 . S
C349 C354 1.390 . S
C350 C344 1.465 . S
C350 C349 1.396 . S
C350 C351 1.399 . S
C351 H337 0.929 . S
C351 C350 1.399 . S
C351 C352 1.385 . S
C352 H338 0.931 . S
C352 C351 1.385 . S
C352 C353 1.389 . S
C353 C352 1.389 . S
C353 C354 1.387 . S
C354 H339 0.930 . S
C354 C349 1.390 . S
C354 C353 1.387 . S
H355 C367 0.930 . S
H356 C369 0.930 1_545 S
H357 C370 0.930 . S
H358 C374 0.959 . S
H359 C374 0.959 . S
H360 C374 0.961 . S
H361 C375 0.960 . S
H362 C375 0.961 . S
H363 C375 0.959 . S
H364 C378 0.929 . S
H365 C379 0.931 . S
H366 C381 0.930 . S
C367 H355 0.930 . S
C367 C368 1.399 . S
C367 C372 1.399 . S
C368 C367 1.399 . S
C368 C369 1.376 . S
C369 H356 0.930 1_565 S
C369 C368 1.376 . S
C369 C370 1.388 . S
C370 H357 0.930 . S
C370 C369 1.388 . S
C370 C371 1.390 . S
C371 C370 1.390 . S
C371 C372 1.394 . S
C371 C377 1.465 . S
C372 C367 1.399 . S
C372 C371 1.394 . S
C372 C373 1.516 . S
C373 C372 1.516 . S
C373 C374 1.502 . S
C373 C375 1.561 . S
C373 C376 1.526 . S
C374 H358 0.959 . S
C374 H359 0.959 . S
C374 H360 0.961 . S
C374 C373 1.502 . S
C375 H361 0.960 . S
C375 H362 0.961 . S
C375 H363 0.959 . S
C375 C373 1.561 . S
C376 C373 1.526 . S
C376 C377 1.396 . S
C376 C381 1.390 . S
C377 C371 1.465 . S
C377 C376 1.396 . S
C377 C378 1.399 . S
C378 H364 0.929 . S
C378 C377 1.399 . S
C378 C379 1.385 . S
C379 H365 0.931 . S
C379 C378 1.385 . S
C379 C380 1.389 . S
C380 C379 1.389 . S
C380 C381 1.387 . S
C381 H366 0.930 . S
C381 C376 1.390 . S
C381 C380 1.387 . S
H382 C394 0.930 . S
H383 C396 0.930 . S
H384 C397 0.930 . S
H385 C401 0.959 . S
H386 C401 0.959 . S
H387 C401 0.961 . S
H388 C402 0.960 . S
H389 C402 0.961 . S
H390 C402 0.959 . S
H391 C405 0.929 . S
H392 C406 0.931 . S
H393 C408 0.930 . S
C394 H382 0.930 . S
C394 C395 1.399 1_556 S
C394 C399 1.399 . S
C395 C394 1.399 1_554 S
C395 C396 1.376 . S
C396 H383 0.930 . S
C396 C395 1.376 . S
C396 C397 1.388 . S
C397 H384 0.930 . S
C397 C396 1.388 . S
C397 C398 1.390 . S
C398 C397 1.390 . S
C398 C399 1.394 1_554 S
C398 C404 1.465 . S
C399 C394 1.399 . S
C399 C398 1.394 1_556 S
C399 C400 1.516 . S
C400 C399 1.516 . S
C400 C401 1.502 . S
C400 C402 1.561 . S
C400 C403 1.526 . S
C401 H385 0.959 . S
C401 H386 0.959 . S
C401 H387 0.961 . S
C401 C400 1.502 . S
C402 H388 0.960 . S
C402 H389 0.961 . S
C402 H390 0.959 . S
C402 C400 1.561 . S
C403 C400 1.526 . S
C403 C404 1.396 1_556 S
C403 C408 1.390 . S
C404 C398 1.465 . S
C404 C403 1.396 1_554 S
C404 C405 1.399 . S
C405 H391 0.929 . S
C405 C404 1.399 . S
C405 C406 1.385 . S
C406 H392 0.931 . S
C406 C405 1.385 . S
C406 C407 1.389 1_554 S
C407 C406 1.389 1_556 S
C407 C408 1.387 . S
C408 H393 0.930 . S
C408 C403 1.390 . S
C408 C407 1.387 . S
H409 C421 0.930 . S
H410 C423 0.930 . S
H411 C424 0.930 . S
H412 C428 0.959 . S
H413 C428 0.959 . S
H414 C428 0.961 . S
H415 C429 0.960 . S
H416 C429 0.961 . S
H417 C429 0.959 . S
H418 C432 0.929 . S
H419 C433 0.931 . S
H420 C435 0.930 . S
C421 H409 0.930 . S
C421 C422 1.399 . S
C421 C426 1.399 . S
C422 C421 1.399 . S
C422 C423 1.376 . S
C423 H410 0.930 . S
C423 C422 1.376 . S
C423 C424 1.388 . S
C424 H411 0.930 . S
C424 C423 1.388 . S
C424 C425 1.390 . S
C425 C424 1.390 . S
C425 C426 1.394 . S
C425 C431 1.465 . S
C426 C421 1.399 . S
C426 C425 1.394 . S
C426 C427 1.516 . S
C427 C426 1.516 . S
C427 C428 1.502 . S
C427 C429 1.561 . S
C427 C430 1.526 . S
C428 H412 0.959 . S
C428 H413 0.959 . S
C428 H414 0.961 . S
C428 C427 1.502 . S
C429 H415 0.960 . S
C429 H416 0.961 . S
C429 H417 0.959 . S
C429 C427 1.561 . S
C430 C427 1.526 . S
C430 C431 1.396 . S
C430 C435 1.390 . S
C431 C425 1.465 . S
C431 C430 1.396 . S
C431 C432 1.399 . S
C432 H418 0.929 . S
C432 C431 1.399 . S
C432 C433 1.385 . S
C433 H419 0.931 . S
C433 C432 1.385 . S
C433 C434 1.389 . S
C434 C433 1.389 . S
C434 C435 1.387 . S
C435 H420 0.930 . S
C435 C430 1.390 . S
C435 C434 1.387 . S
H436 C448 0.930 . S
H437 C450 0.930 1_565 S
H438 C451 0.930 . S
H439 C455 0.959 . S
H440 C455 0.959 . S
H441 C455 0.961 . S
H442 C456 0.960 . S
H443 C456 0.961 . S
H444 C456 0.959 . S
H445 C459 0.929 . S
H446 C460 0.931 . S
H447 C462 0.930 . S
C448 H436 0.930 . S
C448 C449 1.399 . S
C448 C453 1.399 . S
C449 C448 1.399 . S
C449 C450 1.376 . S
C450 H437 0.930 1_545 S
C450 C449 1.376 . S
C450 C451 1.388 . S
C451 H438 0.930 . S
C451 C450 1.388 . S
C451 C452 1.390 . S
C452 C451 1.390 . S
C452 C453 1.394 . S
C452 C458 1.465 . S
C453 C448 1.399 . S
C453 C452 1.394 . S
C453 C454 1.516 . S
C454 C453 1.516 . S
C454 C455 1.502 . S
C454 C456 1.561 . S
C454 C457 1.526 . S
C455 H439 0.959 . S
C455 H440 0.959 . S
C455 H441 0.961 . S
C455 C454 1.502 . S
C456 H442 0.960 . S
C456 H443 0.961 . S
C456 H444 0.959 . S
C456 C454 1.561 . S
C457 C454 1.526 . S
C457 C458 1.396 . S
C457 C462 1.390 . S
C458 C452 1.465 . S
C458 C457 1.396 . S
C458 C459 1.399 . S
C459 H445 0.929 . S
C459 C458 1.399 . S
C459 C460 1.385 . S
C460 H446 0.931 . S
C460 C459 1.385 . S
C460 C461 1.389 . S
C461 C460 1.389 . S
C461 C462 1.387 . S
C462 H447 0.930 . S
C462 C457 1.390 . S
C462 C461 1.387 . S
H463 C475 0.930 . S
H464 C477 0.930 . S
H465 C478 0.930 . S
H466 C482 0.959 . S
H467 C482 0.959 . S
H468 C482 0.961 . S
H469 C483 0.960 . S
H470 C483 0.961 . S
H471 C483 0.959 . S
H472 C486 0.929 . S
H473 C487 0.931 . S
H474 C489 0.930 . S
C475 H463 0.930 . S
C475 C476 1.399 1_554 S
C475 C480 1.399 . S
C476 C475 1.399 1_556 S
C476 C477 1.376 . S
C477 H464 0.930 . S
C477 C476 1.376 . S
C477 C478 1.388 . S
C478 H465 0.930 . S
C478 C477 1.388 . S
C478 C479 1.390 . S
C479 C478 1.390 . S
C479 C480 1.394 1_556 S
C479 C485 1.465 . S
C480 C475 1.399 . S
C480 C479 1.394 1_554 S
C480 C481 1.516 . S
C481 C480 1.516 . S
C481 C482 1.502 . S
C481 C483 1.561 . S
C481 C484 1.526 . S
C482 H466 0.959 . S
C482 H467 0.959 . S
C482 H468 0.961 . S
C482 C481 1.502 . S
C483 H469 0.960 . S
C483 H470 0.961 . S
C483 H471 0.959 . S
C483 C481 1.561 . S
C484 C481 1.526 . S
C484 C485 1.396 1_554 S
C484 C489 1.390 . S
C485 C479 1.465 . S
C485 C484 1.396 1_556 S
C485 C486 1.399 . S
C486 H472 0.929 . S
C486 C485 1.399 . S
C486 C487 1.385 . S
C487 H473 0.931 . S
C487 C486 1.385 . S
C487 C488 1.389 1_556 S
C488 C487 1.389 1_554 S
C488 C489 1.387 . S
C489 H474 0.930 . S
C489 C484 1.390 . S
C489 C488 1.387 . S
H490 C502 0.930 . S
H491 C504 0.917 1_655 S
H492 C505 0.930 . S
H493 C509 0.959 . S
H494 C509 0.959 . S
H495 C509 0.961 . S
H496 C510 0.960 . S
H497 C510 0.961 . S
H498 C510 0.959 . S
H499 C513 0.929 . S
H500 C514 0.931 . S
H501 C516 0.930 . S
C502 H490 0.930 . S
C502 C503 1.399 . S
C502 C507 1.399 . S
C503 C502 1.399 . S
C503 C504 1.376 . S
C504 H491 0.917 1_455 S
C504 C503 1.376 . S
C504 C505 1.388 . S
C505 H492 0.930 . S
C505 C504 1.388 . S
C505 C506 1.390 . S
C506 C505 1.390 . S
C506 C507 1.394 . S
C506 C512 1.465 . S
C507 C502 1.399 . S
C507 C506 1.394 . S
C507 C508 1.516 . S
C508 C507 1.516 . S
C508 C509 1.502 . S
C508 C510 1.561 . S
C508 C511 1.526 . S
C509 H493 0.959 . S
C509 H494 0.959 . S
C509 H495 0.961 . S
C509 C508 1.502 . S
C510 H496 0.960 . S
C510 H497 0.961 . S
C510 H498 0.959 . S
C510 C508 1.561 . S
C511 C508 1.526 . S
C511 C512 1.396 . S
C511 C516 1.390 . S
C512 C506 1.465 . S
C512 C511 1.396 . S
C512 C513 1.399 . S
C513 H499 0.929 . S
C513 C512 1.399 . S
C513 C514 1.385 . S
C514 H500 0.931 . S
C514 C513 1.385 . S
C514 C515 1.389 . S
C515 C514 1.389 . S
C515 C516 1.387 . S
C516 H501 0.930 . S
C516 C511 1.390 . S
C516 C515 1.387 . S
H517 C529 0.930 . S
H518 C531 0.930 . S
H519 C532 0.930 . S
H520 C536 0.959 . S
H521 C536 0.959 . S
H522 C536 0.961 . S
H523 C537 0.960 . S
H524 C537 0.961 . S
H525 C537 0.959 . S
H526 C540 0.929 . S
H527 C541 0.931 . S
H528 C543 0.930 . S
C529 H517 0.930 . S
C529 C530 1.399 . S
C529 C534 1.399 . S
C530 C529 1.399 . S
C530 C531 1.376 . S
C531 H518 0.930 . S
C531 C530 1.376 . S
C531 C532 1.388 . S
C532 H519 0.930 . S
C532 C531 1.388 . S
C532 C533 1.390 . S
C533 C532 1.390 . S
C533 C534 1.394 . S
C533 C539 1.465 . S
C534 C529 1.399 . S
C534 C533 1.394 . S
C534 C535 1.516 . S
C535 C534 1.516 . S
C535 C536 1.502 . S
C535 C537 1.561 . S
C535 C538 1.526 . S
C536 H520 0.959 . S
C536 H521 0.959 . S
C536 H522 0.961 . S
C536 C535 1.502 . S
C537 H523 0.960 . S
C537 H524 0.961 . S
C537 H525 0.959 . S
C537 C535 1.561 . S
C538 C535 1.526 . S
C538 C539 1.396 . S
C538 C543 1.390 . S
C539 C533 1.465 . S
C539 C538 1.396 . S
C539 C540 1.399 . S
C540 H526 0.929 . S
C540 C539 1.399 . S
C540 C541 1.385 . S
C541 H527 0.931 . S
C541 C540 1.385 . S
C541 C542 1.389 . S
C542 C541 1.389 . S
C542 C543 1.387 . S
C543 H528 0.930 . S
C543 C538 1.390 . S
C543 C542 1.387 . S
C125 C25 1.342 . S
C137 C11 1.389 . S
C152 C19 1.277 . S
C164 C33 1.237 . S
C179 C53 1.393 . S
C191 C39 1.363 . S
C206 C47 1.221 . S
C218 C5 1.263 . S
C233 C67 1.320 . S
C245 C81 1.343 . S
C260 C75 1.159 . S
C272 C89 1.193 . S
C287 C95 1.388 . S
C299 C109 1.378 . S
C314 C61 1.273 . S
C326 C103 1.299 . S
C341 C12 1.475 . S
C353 C110 1.472 . S
C368 C60 1.422 . S
C380 C18 1.436 . S
C395 C82 1.464 . S
C407 C40 1.477 . S
C422 C46 1.371 . S
C434 C88 1.381 . S
C449 C32 1.424 . S
C461 C102 1.437 . S
C476 C68 1.464 . S
C488 C54 1.477 . S
C503 C74 1.415 . S
C515 C4 1.432 . S
C530 C26 1.464 . S
C542 C96 1.475 . S
