# Generated by pormake.
# Topology yfh, (5)-cn, num edge types: 1
# Building blocks:
#     Node 0, Type 0, BuildingBlock: XOMCOT_clean_sbu_0, # of connection points: 5
#     Node 1, Type 0, BuildingBlock: XOMCOT_clean_sbu_0, # of connection points: 5
#     Node 2, Type 0, BuildingBlock: XOMCOT_clean_sbu_0, # of connection points: 5
#     Node 3, Type 0, BuildingBlock: XOMCOT_clean_sbu_0, # of connection points: 5
#     Node 4, Type 0, BuildingBlock: XOMCOT_clean_sbu_0, # of connection points: 5
#     Node 5, Type 0, BuildingBlock: XOMCOT_clean_sbu_0, # of connection points: 5
#     Node 6, Type 0, BuildingBlock: XOMCOT_clean_sbu_0, # of connection points: 5
#     Node 7, Type 0, BuildingBlock: XOMCOT_clean_sbu_0, # of connection points: 5
#     Edge 8, Type (0, 0), BuildingBlock: KIFKEQ_clean_linker_1, # of connection points: 2
#     Edge 9, Type (0, 0), BuildingBlock: KIFKEQ_clean_linker_1, # of connection points: 2
#     Edge 10, Type (0, 0), BuildingBlock: KIFKEQ_clean_linker_1, # of connection points: 2
#     Edge 11, Type (0, 0), BuildingBlock: KIFKEQ_clean_linker_1, # of connection points: 2
#     Edge 12, Type (0, 0), BuildingBlock: KIFKEQ_clean_linker_1, # of connection points: 2
#     Edge 13, Type (0, 0), BuildingBlock: KIFKEQ_clean_linker_1, # of connection points: 2
#     Edge 14, Type (0, 0), BuildingBlock: KIFKEQ_clean_linker_1, # of connection points: 2
#     Edge 15, Type (0, 0), BuildingBlock: KIFKEQ_clean_linker_1, # of connection points: 2
#     Edge 16, Type (0, 0), BuildingBlock: KIFKEQ_clean_linker_1, # of connection points: 2
#     Edge 17, Type (0, 0), BuildingBlock: KIFKEQ_clean_linker_1, # of connection points: 2
#     Edge 18, Type (0, 0), BuildingBlock: KIFKEQ_clean_linker_1, # of connection points: 2
#     Edge 19, Type (0, 0), BuildingBlock: KIFKEQ_clean_linker_1, # of connection points: 2
#     Edge 20, Type (0, 0), BuildingBlock: KIFKEQ_clean_linker_1, # of connection points: 2
#     Edge 21, Type (0, 0), BuildingBlock: KIFKEQ_clean_linker_1, # of connection points: 2
#     Edge 22, Type (0, 0), BuildingBlock: KIFKEQ_clean_linker_1, # of connection points: 2
#     Edge 23, Type (0, 0), BuildingBlock: KIFKEQ_clean_linker_1, # of connection points: 2
#     Edge 24, Type (0, 0), BuildingBlock: KIFKEQ_clean_linker_1, # of connection points: 2
#     Edge 25, Type (0, 0), BuildingBlock: KIFKEQ_clean_linker_1, # of connection points: 2
#     Edge 26, Type (0, 0), BuildingBlock: KIFKEQ_clean_linker_1, # of connection points: 2
#     Edge 27, Type (0, 0), BuildingBlock: KIFKEQ_clean_linker_1, # of connection points: 2
# Relax obj value: 0.376
# Max RMSD: 0.266
# Mean RMSD: 0.266
data_MOF--net-yfh--node1-XOMCOT_clean_sbu_0--edge1-KIFKEQ_clean_linker_1
_symmetry_space_group_name_H-M    P1
_symmetry_Int_Tables_number       1
_symmetry_cell_setting            triclinic
loop_
_symmetry_equiv_pos_as_xyz
'x, y, z'
_cell_length_a     27.871432
_cell_length_b     27.916133
_cell_length_c     61.26887
_cell_angle_alpha  90.130567
_cell_angle_beta   89.965474
_cell_angle_gamma 89.939709
loop_
_atom_site_label
_atom_site_type_symbol
_atom_site_fract_x
_atom_site_fract_y
_atom_site_fract_z
_atom_type_partial_charge
Co0 Co 0.34706 0.20188 0.12192 0.0
C1 C 0.31292 0.22734 0.07815 0.0
C2 C 0.25872 0.19172 0.09705 0.0
C3 C 0.24017 0.2017 0.07682 0.0
N4 N 0.30436 0.20724 0.09763 0.0
N5 N 0.2744 0.2239 0.06497 0.0
H6 H 0.34686 0.24339 0.07369 0.0
H7 H 0.24052 0.17381 0.11031 0.0
C8 C 0.34557 0.09505 0.12772 0.0
O9 O 0.39237 0.09612 0.13033 0.0
N10 N 0.38821 0.19714 0.14747 0.0
C11 C 0.42222 0.22842 0.15418 0.0
C12 C 0.43642 0.21671 0.17503 0.0
C13 C 0.38109 0.16816 0.16477 0.0
N14 N 0.41068 0.17858 0.18149 0.0
C15 C 0.43929 0.20339 0.10079 0.0
C16 C 0.41818 0.13428 0.06988 0.0
C17 C 0.46085 0.16032 0.06786 0.0
C18 C 0.4717 0.1946 0.08384 0.0
C19 C 0.38667 0.14438 0.08698 0.0
N20 N 0.39723 0.17861 0.10227 0.0
H21 H 0.44682 0.23246 0.11177 0.0
H22 H 0.35215 0.12686 0.08694 0.0
H23 H 0.43401 0.25963 0.14529 0.0
H24 H 0.35277 0.14186 0.16582 0.0
O25 O 0.36083 0.26917 0.11964 0.0
O26 O 0.30074 0.2388 0.13886 0.0
O27 O 0.32191 0.1343 0.12623 0.0
C28 C 0.32309 0.27665 0.13156 0.0
H29 H 0.20488 0.19173 0.07104 0.0
H30 H 0.46263 0.23546 0.18489 0.0
H31 H 0.40766 0.10844 0.05757 0.0
H32 H 0.50418 0.21576 0.08282 0.0
Co33 Co 0.34269 0.86075 0.36421 0.0
C34 C 0.2911 0.82681 0.32459 0.0
C35 C 0.34294 0.77658 0.33646 0.0
C36 C 0.31658 0.7546 0.32046 0.0
N37 N 0.32779 0.82228 0.3388 0.0
N38 N 0.2839 0.78621 0.31315 0.0
H39 H 0.26752 0.8573 0.32364 0.0
H40 H 0.36952 0.7594 0.34664 0.0
C41 C 0.4368 0.83549 0.34458 0.0
O42 O 0.41713 0.84847 0.32601 0.0
N43 N 0.35692 0.89652 0.39018 0.0
C44 C 0.34385 0.94183 0.39498 0.0
C45 C 0.36279 0.95379 0.41504 0.0
C46 C 0.38271 0.88117 0.40733 0.0
N47 N 0.38693 0.9155 0.42272 0.0
C48 C 0.3217 0.93863 0.33507 0.0
C49 C 0.41356 0.97555 0.33337 0.0
C50 C 0.37862 0.99355 0.31917 0.0
C51 C 0.33168 0.97621 0.32083 0.0
C52 C 0.40165 0.93856 0.3477 0.0
N53 N 0.35734 0.91757 0.34692 0.0
H54 H 0.28519 0.92661 0.3365 0.0
H55 H 0.42862 0.92584 0.35894 0.0
H56 H 0.32241 0.9646 0.38457 0.0
H57 H 0.39872 0.84589 0.40833 0.0
O58 O 0.27515 0.87204 0.36864 0.0
O59 O 0.31481 0.80919 0.38127 0.0
O60 O 0.41221 0.838 0.36231 0.0
C61 C 0.27372 0.83068 0.37825 0.0
H62 H 0.32071 0.71803 0.31485 0.0
H63 H 0.35875 0.98773 0.42343 0.0
H64 H 0.44983 0.98947 0.33317 0.0
H65 H 0.30326 0.99027 0.31062 0.0
Co66 Co 0.69075 0.84631 0.61643 0.0
C67 C 0.73026 0.81533 0.57406 0.0
C68 C 0.78161 0.85375 0.59353 0.0
C69 C 0.80358 0.8396 0.57453 0.0
N70 N 0.7358 0.83869 0.5931 0.0
N71 N 0.77124 0.81551 0.56236 0.0
H72 H 0.69721 0.79824 0.56903 0.0
H73 H 0.79789 0.8734 0.60683 0.0
C74 C 0.68811 0.95228 0.62233 0.0
O75 O 0.64153 0.94782 0.62497 0.0
N76 N 0.64761 0.85428 0.64105 0.0
C77 C 0.60253 0.8384 0.64467 0.0
C78 C 0.58917 0.85057 0.66565 0.0
C79 C 0.66123 0.87449 0.66005 0.0
N80 N 0.62627 0.87314 0.67528 0.0
C81 C 0.60492 0.8357 0.59117 0.0
C82 C 0.62012 0.91249 0.56367 0.0
C83 C 0.58098 0.88233 0.55989 0.0
C84 C 0.57346 0.84359 0.57388 0.0
C85 C 0.65122 0.9028 0.58096 0.0
N86 N 0.64246 0.86591 0.59513 0.0
H87 H 0.60072 0.80319 0.60036 0.0
H88 H 0.68391 0.9233 0.582 0.0
H89 H 0.58078 0.81808 0.63353 0.0
H90 H 0.69631 0.89011 0.66258 0.0
O91 O 0.67771 0.77876 0.61578 0.0
O92 O 0.73582 0.81204 0.6352 0.0
O93 O 0.71416 0.91475 0.62008 0.0
C94 C 0.71407 0.77316 0.62865 0.0
H95 H 0.84022 0.84727 0.56984 0.0
H96 H 0.55531 0.84216 0.6734 0.0
H97 H 0.62828 0.94151 0.55256 0.0
H98 H 0.54444 0.81856 0.57101 0.0
Co99 Co 0.69131 0.17131 0.86768 0.0
C100 C 0.73623 0.19278 0.8244 0.0
C101 C 0.71101 0.25539 0.84119 0.0
C102 C 0.73125 0.26948 0.82182 0.0
N103 N 0.71354 0.20723 0.84269 0.0
N104 N 0.74678 0.22996 0.81133 0.0
H105 H 0.74517 0.15636 0.82041 0.0
H106 H 0.69466 0.27861 0.85324 0.0
C107 C 0.60423 0.20904 0.84515 0.0
O108 O 0.62665 0.19848 0.8269 0.0
N109 N 0.67019 0.13739 0.89319 0.0
C110 C 0.68069 0.09184 0.89852 0.0
C111 C 0.66145 0.08235 0.91873 0.0
C112 C 0.64512 0.15522 0.91016 0.0
N113 N 0.63923 0.12227 0.9261 0.0
C114 C 0.71225 0.08792 0.8421 0.0
C115 C 0.61956 0.06702 0.82947 0.0
C116 C 0.65791 0.04482 0.81857 0.0
C117 C 0.70448 0.05324 0.82618 0.0
C118 C 0.62914 0.10124 0.84567 0.0
N119 N 0.67529 0.11514 0.84991 0.0
H120 H 0.74877 0.09523 0.84681 0.0
H121 H 0.5993 0.11759 0.85408 0.0
H122 H 0.70154 0.06745 0.88858 0.0
H123 H 0.63287 0.19196 0.91105 0.0
O124 O 0.75681 0.15474 0.87422 0.0
O125 O 0.7213 0.22092 0.8857 0.0
O126 O 0.62414 0.19976 0.86362 0.0
C127 C 0.76061 0.1957 0.88399 0.0
H128 H 0.73273 0.30567 0.81556 0.0
H129 H 0.66378 0.04858 0.92729 0.0
H130 H 0.58276 0.05993 0.82484 0.0
H131 H 0.73505 0.03485 0.81913 0.0
Co132 Co 0.85941 0.34023 0.60138 0.0
C133 C 0.83259 0.29391 0.64335 0.0
C134 C 0.77275 0.32721 0.6275 0.0
C135 C 0.75662 0.30578 0.64628 0.0
N136 N 0.82061 0.32065 0.62594 0.0
N137 N 0.79446 0.28511 0.6562 0.0
H138 H 0.86785 0.28009 0.64659 0.0
H139 H 0.7512 0.34668 0.61582 0.0
C140 C 0.82317 0.42975 0.62249 0.0
O141 O 0.8313 0.4082 0.64117 0.0
N142 N 0.89658 0.3585 0.5764 0.0
C143 C 0.9419 0.34514 0.57184 0.0
C144 C 0.95446 0.36384 0.5519 0.0
C145 C 0.88191 0.38474 0.55927 0.0
N146 N 0.91667 0.38863 0.54397 0.0
C147 C 0.94027 0.31712 0.62836 0.0
C148 C 0.96195 0.40934 0.64123 0.0
C149 C 0.98219 0.37083 0.65273 0.0
C150 C 0.97368 0.32439 0.64491 0.0
C151 C 0.92956 0.40025 0.62428 0.0
N152 N 0.91475 0.35452 0.61996 0.0
H153 H 0.93287 0.28082 0.62335 0.0
H154 H 0.91517 0.43026 0.61538 0.0
H155 H 0.96405 0.32284 0.58214 0.0
H156 H 0.8461 0.39939 0.55783 0.0
O157 O 0.873 0.27369 0.59551 0.0
O158 O 0.8098 0.31262 0.58288 0.0
O159 O 0.8336 0.40855 0.60443 0.0
C160 C 0.8323 0.27196 0.58531 0.0
H161 H 0.72026 0.30666 0.65248 0.0
H162 H 0.98882 0.35949 0.54391 0.0
H163 H 0.96897 0.4461 0.64587 0.0
H164 H 0.99104 0.29354 0.65213 0.0
Co165 Co 0.19384 0.3421 0.85276 0.0
C166 C 0.23278 0.30281 0.89491 0.0
C167 C 0.20714 0.24913 0.87274 0.0
C168 C 0.22236 0.22676 0.89137 0.0
N169 N 0.213 0.29688 0.87502 0.0
N170 N 0.23821 0.26063 0.90525 0.0
H171 H 0.24044 0.33676 0.90245 0.0
H172 H 0.19116 0.23187 0.8587 0.0
C173 C 0.10437 0.30526 0.87308 0.0
O174 O 0.12707 0.31185 0.89162 0.0
N175 N 0.17539 0.38475 0.82971 0.0
C176 C 0.19435 0.42798 0.82519 0.0
C177 C 0.17593 0.44355 0.80557 0.0
C178 C 0.14572 0.37458 0.81304 0.0
N179 N 0.14538 0.40991 0.79806 0.0
C180 C 0.21815 0.41441 0.88401 0.0
C181 C 0.12607 0.44461 0.89339 0.0
C182 C 0.16423 0.46207 0.90608 0.0
C183 C 0.21095 0.44837 0.90034 0.0
C184 C 0.13516 0.41126 0.87679 0.0
N185 N 0.18029 0.39317 0.87374 0.0
H186 H 0.25448 0.40365 0.88041 0.0
H187 H 0.10559 0.39931 0.86681 0.0
H188 H 0.22103 0.446 0.83503 0.0
H189 H 0.12682 0.34092 0.81133 0.0
O190 O 0.26018 0.35727 0.84765 0.0
O191 O 0.22203 0.29738 0.83166 0.0
O192 O 0.12507 0.31644 0.85501 0.0
C193 C 0.2623 0.32008 0.83507 0.0
H194 H 0.22032 0.18879 0.89478 0.0
H195 H 0.185 0.47649 0.79724 0.0
H196 H 0.0894 0.4553 0.8966 0.0
H197 H 0.24191 0.46296 0.90869 0.0
Co198 Co 0.16258 0.70602 0.10188 0.0
C199 C 0.17626 0.73113 0.14914 0.0
C200 C 0.24192 0.71506 0.13228 0.0
C201 C 0.2523 0.72221 0.1539 0.0
N202 N 0.19415 0.71972 0.12932 0.0
N203 N 0.21096 0.73194 0.16438 0.0
H204 H 0.13885 0.73562 0.15295 0.0
H205 H 0.26718 0.70458 0.11974 0.0
C206 C 0.19428 0.6128 0.12092 0.0
O207 O 0.1788 0.62946 0.13969 0.0
N208 N 0.13279 0.69323 0.07421 0.0
C209 C 0.09471 0.71622 0.06564 0.0
C210 C 0.08581 0.69765 0.04519 0.0
C211 C 0.14643 0.66092 0.0591 0.0
N212 N 0.11826 0.66285 0.04122 0.0
C213 C 0.07466 0.72426 0.12451 0.0
C214 C 0.0506 0.63013 0.13275 0.0
C215 C 0.02784 0.66669 0.14463 0.0
C216 C 0.03741 0.71426 0.1389 0.0
C217 C 0.08697 0.642 0.11793 0.0
N218 N 0.10249 0.6883 0.11622 0.0
H219 H 0.0838 0.7613 0.12188 0.0
H220 H 0.10417 0.61358 0.10889 0.0
H221 H 0.07502 0.74469 0.07363 0.0
H222 H 0.17694 0.63724 0.06091 0.0
O223 O 0.15007 0.77344 0.09855 0.0
O224 O 0.21647 0.73785 0.08746 0.0
O225 O 0.18862 0.63739 0.10336 0.0
C226 C 0.19281 0.77769 0.0905 0.0
H227 H 0.28721 0.71889 0.1615 0.0
H228 H 0.05747 0.70854 0.03418 0.0
H229 H 0.04283 0.59277 0.13586 0.0
H230 H 0.01874 0.74374 0.14671 0.0
Co231 Co 0.85089 0.68047 0.34876 0.0
C232 C 0.83079 0.71681 0.39303 0.0
C233 C 0.86803 0.76833 0.37326 0.0
C234 C 0.86148 0.78756 0.3937 0.0
N235 N 0.84937 0.7239 0.37304 0.0
N236 N 0.83829 0.75501 0.40606 0.0
H237 H 0.81401 0.68371 0.39813 0.0
H238 H 0.88568 0.78527 0.35959 0.0
C239 C 0.95683 0.67715 0.34141 0.0
O240 O 0.95287 0.63035 0.33979 0.0
N241 N 0.85192 0.63877 0.32323 0.0
C242 C 0.81893 0.60605 0.31689 0.0
C243 C 0.82902 0.5913 0.29588 0.0
C244 C 0.88009 0.64477 0.30553 0.0
N245 N 0.86778 0.61555 0.28892 0.0
C246 C 0.84895 0.58834 0.36943 0.0
C247 C 0.9194 0.60773 0.39993 0.0
C248 C 0.8925 0.56563 0.40192 0.0
C249 C 0.85778 0.55551 0.38607 0.0
C250 C 0.90936 0.63966 0.38306 0.0
N251 N 0.87427 0.63002 0.36804 0.0
H252 H 0.81935 0.5815 0.35868 0.0
H253 H 0.92776 0.6737 0.38299 0.0
H254 H 0.78767 0.59563 0.32616 0.0
H255 H 0.90703 0.67238 0.30412 0.0
O256 O 0.7837 0.66872 0.35268 0.0
O257 O 0.81329 0.7271 0.33231 0.0
O258 O 0.91898 0.70308 0.34281 0.0
C259 C 0.77563 0.70593 0.3406 0.0
H260 H 0.87308 0.82264 0.39907 0.0
H261 H 0.80859 0.56596 0.28626 0.0
H262 H 0.94577 0.61754 0.41212 0.0
H263 H 0.83605 0.52343 0.38706 0.0
H264 H 0.19463 0.24488 0.04191 0.0
H265 H 0.34868 0.22993 0.03648 0.0
H266 H 0.18923 0.25518 0.00251 0.0
H267 H 0.34309 0.24167 -0.00285 0.0
H268 H 0.30213 0.3111 0.929 0.0
H269 H 0.31349 0.30667 0.96866 0.0
H270 H 0.20891 0.19287 0.97195 0.0
H271 H 0.19741 0.19747 0.93262 0.0
C272 C 0.22729 0.2441 0.03236 0.0
C273 C 0.27194 0.23597 0.04227 0.0
C274 C 0.2242 0.25014 0.00989 0.0
C275 C 0.26574 0.24861 -0.003 0.0
C276 C 0.31067 0.2431 0.0069 0.0
C277 C 0.31377 0.2366 0.0294 0.0
C278 C 0.28202 0.28497 0.93828 0.0
C279 C 0.249 0.25459 0.92789 0.0
C280 C 0.28856 0.28239 0.96081 0.0
C281 C 0.26157 0.24986 0.97315 0.0
C282 C 0.22961 0.21863 0.96269 0.0
C283 C 0.22352 0.22082 0.94021 0.0
H284 H 0.25497 0.67864 0.19465 0.0
H285 H 0.1514 0.79188 0.18593 0.0
H286 H 0.25087 0.68914 0.23395 0.0
H287 H 0.1469 0.80271 0.22571 0.0
H288 H 0.25185 0.8522 0.28461 0.0
H289 H 0.21295 0.83524 0.24993 0.0
H290 H 0.20068 0.68611 0.26775 0.0
H291 H 0.23982 0.70323 0.30254 0.0
C292 C 0.23093 0.70548 0.20129 0.0
C293 C 0.2044 0.73529 0.18747 0.0
C294 C 0.22783 0.71094 0.22377 0.0
C295 C 0.1984 0.74668 0.23285 0.0
C296 C 0.16977 0.77488 0.21905 0.0
C297 C 0.17243 0.76886 0.19644 0.0
C298 C 0.23916 0.8162 0.28148 0.0
C299 C 0.25026 0.77866 0.29582 0.0
C300 C 0.2166 0.80651 0.26167 0.0
C301 C 0.20485 0.75917 0.25604 0.0
C302 C 0.21031 0.72276 0.27161 0.0
C303 C 0.23302 0.73244 0.29137 0.0
H304 H 0.76405 0.7141 0.4275 0.0
H305 H 0.88871 0.80388 0.43626 0.0
H306 H 0.74649 0.7204 0.46658 0.0
H307 H 0.87069 0.8111 0.47494 0.0
H308 H 0.8539 0.78087 0.54579 0.0
H309 H 0.86936 0.75934 0.50785 0.0
H310 H 0.72071 0.78654 0.49217 0.0
H311 H 0.70528 0.80817 0.53017 0.0
C312 C 0.7877 0.73498 0.43779 0.0
C313 C 0.82756 0.75874 0.42889 0.0
C314 C 0.77754 0.73878 0.46005 0.0
C315 C 0.80742 0.76597 0.47372 0.0
C316 C 0.84744 0.78934 0.46481 0.0
C317 C 0.85737 0.7858 0.44262 0.0
C318 C 0.82453 0.78196 0.53425 0.0
C319 C 0.77862 0.7969 0.54079 0.0
C320 C 0.83332 0.76957 0.5126 0.0
C321 C 0.79635 0.77195 0.4971 0.0
C322 C 0.74976 0.78415 0.50386 0.0
C323 C 0.74095 0.79653 0.52557 0.0
H324 H 0.86903 0.28399 0.6844 0.0
H325 H 0.72202 0.23823 0.67618 0.0
H326 H 0.86704 0.25827 0.72226 0.0
H327 H 0.71958 0.21393 0.71436 0.0
H328 H 0.73168 0.15898 0.7821 0.0
H329 H 0.75254 0.16027 0.74343 0.0
H330 H 0.82168 0.29741 0.75242 0.0
H331 H 0.80174 0.29552 0.79113 0.0
C332 C 0.83664 0.26739 0.69051 0.0
C333 C 0.79537 0.26365 0.67743 0.0
C334 C 0.83548 0.253 0.71222 0.0
C335 C 0.79309 0.23461 0.72121 0.0
C336 C 0.75286 0.22775 0.70777 0.0
C337 C 0.754 0.24222 0.68603 0.0
C338 C 0.75254 0.18869 0.77591 0.0
C339 C 0.76479 0.22747 0.78947 0.0
C340 C 0.76414 0.18954 0.7538 0.0
C341 C 0.78844 0.22899 0.745 0.0
C342 C 0.8033 0.26631 0.75885 0.0
C343 C 0.79145 0.26558 0.7809 0.0
H344 H 0.57016 0.18726 0.93638 0.0
H345 H 0.65461 0.07167 0.96326 0.0
H346 H 0.52971 0.19701 0.9714 0.0
H347 H 0.6138 0.08116 -0.00189 0.0
H348 H 0.48843 0.07719 0.04766 0.0
H349 H 0.53288 0.06864 0.01349 0.0
H350 H 0.54637 0.22248 0.00932 0.0
H351 H 0.50099 0.23106 0.04317 0.0
C352 C 0.58045 0.1642 0.94975 0.0
C353 C 0.61559 0.12854 0.94689 0.0
C354 C 0.55723 0.1698 0.96984 0.0
C355 C 0.56851 0.13978 -0.01249 0.0
C356 C 0.60381 0.10437 0.98471 0.0
C357 C 0.62713 0.09888 0.96467 0.0
C358 C 0.50104 0.10913 0.03946 0.0
C359 C 0.49132 0.15476 0.04813 0.0
C360 C 0.52675 0.10425 0.01998 0.0
C361 C 0.54301 0.14492 0.00868 0.0
C362 C 0.5339 0.19051 0.01753 0.0
C363 C 0.50845 0.19537 0.03707 0.0
H364 H 0.45104 0.98462 0.28985 0.0
H365 H 0.33392 0.0775 0.30845 0.0
H366 H 0.46456 0.033 0.25716 0.0
H367 H 0.34798 0.12635 0.27584 0.0
H368 H 0.41982 0.21998 0.22123 0.0
H369 H 0.41801 0.17913 0.25674 0.0
H370 H 0.40356 0.04306 0.2238 0.0
H371 H 0.40443 0.08391 0.1885 0.0
C372 C 0.42906 1.01612 0.28722 0.0
C373 C 0.3914 0.02739 0.30158 0.0
C374 C 0.4366 0.04352 0.2685 0.0
C375 C 0.40718 0.08314 0.26405 0.0
C376 C 0.37128 0.09608 0.27904 0.0
C377 C 0.36313 0.06812 0.29757 0.0
C378 C 0.41672 0.18134 0.22169 0.0
C379 C 0.41215 0.15493 0.20226 0.0
C380 C 0.41549 0.15811 0.2419 0.0
C381 C 0.41091 0.10807 0.24288 0.0
C382 C 0.40757 0.08166 0.22342 0.0
C383 C 0.40772 0.10493 0.2033 0.0
H384 H 0.39171 0.8386 0.44905 0.0
H385 H 0.43974 0.98449 0.44206 0.0
H386 H 0.43618 0.83164 0.48311 0.0
H387 H 0.48637 0.97732 0.4756 0.0
H388 H 0.53369 0.96258 0.54635 0.0
H389 H 0.48383 0.97149 0.51378 0.0
H390 H 0.51434 0.82442 0.49605 0.0
H391 H 0.56183 0.81534 0.52906 0.0
C392 C 0.41227 0.86901 0.45478 0.0
C393 C 0.41252 0.91198 0.44299 0.0
C394 C 0.43797 0.86508 0.47423 0.0
C395 C 0.46535 0.90379 0.4821 0.0
C396 C 0.46517 0.94699 0.47029 0.0
C397 C 0.43868 0.95113 0.45103 0.0
C398 C 0.52934 0.93229 0.53544 0.0
C399 C 0.55102 0.88819 0.54022 0.0
C400 C 0.50109 0.93736 0.51673 0.0
C401 C 0.49475 0.89861 0.50224 0.0
C402 C 0.51724 0.85471 0.50703 0.0
C403 C 0.5447 0.84948 0.52588 0.0
H404 H 0.71079 0.0495 0.78152 0.0
H405 H 0.58796 0.97772 0.80939 0.0
H406 H 0.70124 1.00411 0.74806 0.0
H407 H 0.5782 0.93189 0.77542 0.0
H408 H 0.55229 0.90597 0.70001 0.0
H409 H 0.55771 0.94425 0.73589 0.0
H410 H 0.71095 0.92109 0.73594 0.0
H411 H 0.70554 0.88302 0.70031 0.0
C412 C 0.68211 0.0234 0.78062 0.0
C413 C 0.6507 0.01652 0.7983 0.0
C414 C 0.67661 0.99741 0.76139 0.0
C415 C 0.63944 0.96386 0.75921 0.0
C416 C 0.60718 0.95756 0.77665 0.0
C417 C 0.61277 0.98371 0.79606 0.0
C418 C 0.58698 0.90846 0.70785 0.0
C419 C 0.6286 0.89214 0.69714 0.0
C420 C 0.59006 0.93032 0.72839 0.0
C421 C 0.63483 0.93624 0.73859 0.0
C422 C 0.67606 0.91802 0.72828 0.0
C423 C 0.67299 0.8963 0.70782 0.0
H424 H 0.17943 0.44151 0.7594 0.0
H425 H 0.0567 0.37633 0.79014 0.0
H426 H 0.14084 0.43376 0.7238 0.0
H427 H 1.01676 0.37049 0.75487 0.0
H428 H 0.98111 0.31335 0.6887 0.0
H429 H 0.02137 0.32491 0.72314 0.0
H430 H 0.07916 0.45926 0.70006 0.0
H431 H 0.04189 0.44559 0.66461 0.0
C432 C 0.14373 0.42638 0.75852 0.0
C433 C 0.12106 0.40917 0.7774 0.0
C434 C 0.1215 0.42203 0.73816 0.0
C435 C 0.0758 0.40099 0.73634 0.0
C436 C 0.05249 0.38561 0.75548 0.0
C437 C 0.0751 0.38919 0.77573 0.0
C438 C 1.00337 0.34484 0.69062 0.0
C439 C 1.00856 0.37823 0.67361 0.0
C440 C 0.0257 0.35203 0.71069 0.0
C441 C 0.05312 0.39336 0.7146 0.0
C442 C 0.05861 0.42681 0.69761 0.0
C443 C 0.03673 0.41924 0.67732 0.0
H444 H 0.21375 0.46075 0.94451 0.0
H445 H 0.09541 0.53197 0.91246 0.0
H446 H 0.2021 0.5103 0.97644 0.0
H447 H 0.08119 0.5792 0.94535 0.0
H448 H 0.10218 0.69088 -0.0003 0.0
H449 H 0.11205 0.64277 0.96667 0.0
H450 H 0.15132 0.52079 0.00628 0.0
H451 H 0.14337 0.56977 0.03903 0.0
C452 C 0.18524 0.48711 0.94419 0.0
C453 C 0.15589 0.49259 0.92569 0.0
C454 C 0.17793 0.515 0.96278 0.0
C455 C 0.14043 0.54863 0.96365 0.0
C456 C 0.11077 0.55403 0.94522 0.0
C457 C 0.11852 0.52645 0.92642 0.0
C458 C 0.11271 0.65371 0.00123 0.0
C459 C 0.12238 0.63404 0.02184 0.0
C460 C 0.11817 0.62602 0.98235 0.0
C461 C 0.13277 0.57784 0.98372 0.0
C462 C 0.14122 0.55803 0.00448 0.0
C463 C 0.13652 0.58594 0.02329 0.0
H464 H 0.03188 0.71511 0.18296 0.0
H465 H 0.96253 0.59395 0.15229 0.0
H466 H 0.99142 0.69755 0.21687 0.0
H467 H 0.92286 0.57513 0.18707 0.0
H468 H 0.8243 0.60067 0.2498 0.0
H469 H 0.86143 0.60861 0.21367 0.0
H470 H 0.99848 0.63486 0.24432 0.0
H471 H 0.96138 0.62756 0.28012 0.0
C472 C 1.0074 0.685 0.18334 0.0
C473 C 1.00002 0.65628 0.16476 0.0
C474 C 0.98481 0.67445 0.20297 0.0
C475 C 0.95449 0.63457 0.20474 0.0
C476 C 0.9461 0.60613 0.18614 0.0
C477 C 0.96895 0.61673 0.16631 0.0
C478 C 0.86247 0.60735 0.24872 0.0
C479 C 0.8899 0.61436 0.26771 0.0
C480 C 0.8837 0.61184 0.22808 0.0
C481 C 0.93265 0.62323 0.2262 0.0
C482 C 0.96042 0.6273 0.24525 0.0
C483 C 0.93925 0.62311 0.26574 0.0
H484 H 0.82006 0.52809 0.4263 0.0
H485 H 0.97463 0.53615 0.42248 0.0
H486 H 0.82632 0.48336 0.46026 0.0
H487 H 0.98086 0.49224 0.45687 0.0
H488 H 0.96944 0.37065 0.50758 0.0
H489 H 0.9643 0.41157 0.4726 0.0
H490 H 0.85164 0.50212 0.49807 0.0
H491 H 0.85711 0.46174 0.53317 0.0
C492 C 0.85541 0.51973 0.43257 0.0
C493 C 0.8969 0.53542 0.42167 0.0
C494 C 0.85895 0.49467 0.45216 0.0
C495 C 0.90404 0.48462 0.46128 0.0
C496 C 0.94562 0.49927 0.45015 0.0
C497 C 0.94208 0.52463 0.43057 0.0
C498 C 0.94392 0.3996 0.50585 0.0
C499 C 0.91367 0.41285 0.52326 0.0
C500 C 0.94095 0.42296 0.48577 0.0
C501 C 0.90749 0.4599 0.4826 0.0
C502 C 0.87727 0.47322 0.49995 0.0
C503 C 0.88038 0.45003 0.52006 0.0
H504 H 0.28864 0.79998 0.08622 0.0
H505 H 0.14887 0.86382 0.09519 0.0
H506 H 0.32609 0.87754 0.09373 0.0
H507 H 0.18569 0.93994 0.10373 0.0
H508 H 0.26117 0.08198 0.10586 0.0
H509 H 0.22681 1.00735 0.09282 0.0
H510 H 0.34205 0.92862 0.12353 0.0
H511 H 0.37768 1.00395 0.13563 0.0
C512 C 0.26589 0.83073 0.08933 0.0
C513 C 0.21577 0.82564 0.09006 0.0
C514 C 0.28733 0.8751 0.09405 0.0
C515 C 0.25913 0.91528 0.09972 0.0
C516 C 0.2089 0.9104 0.09925 0.0
C517 C 0.18761 0.8664 0.09438 0.0
C518 C 0.27894 0.04874 0.11005 0.0
C519 C 0.32197 0.049 0.122 0.0
C520 C 0.25921 1.0057 0.10252 0.0
C521 C 0.28146 0.96146 0.10703 0.0
C522 C 0.32424 0.96179 0.11929 0.0
C523 C 0.34439 1.005 0.12652 0.0
H524 H 0.74519 0.79092 0.32233 0.0
H525 H 0.6941 0.66484 0.35582 0.0
H526 H 0.66406 0.82506 0.3239 0.0
H527 H 0.61389 0.69861 0.35731 0.0
H528 H 0.48848 0.7936 0.37776 0.0
H529 H 0.57127 0.76421 0.37617 0.0
H530 H 0.58232 0.81156 0.30932 0.0
H531 H 0.50033 0.84113 0.3109 0.0
C532 C 0.71664 0.77027 0.32973 0.0
C533 C 0.72617 0.72521 0.33892 0.0
C534 C 0.67023 0.78983 0.33072 0.0
C535 C 0.63263 0.76481 0.34103 0.0
C536 C 0.64215 0.7193 0.3497 0.0
C537 C 0.68818 0.69975 0.34861 0.0
C538 C 0.50871 0.79795 0.36279 0.0
C539 C 0.48759 0.81938 0.34444 0.0
C540 C 0.55604 0.78093 0.36182 0.0
C541 C 0.58335 0.78535 0.34255 0.0
C542 C 0.56253 0.80792 0.32444 0.0
C543 C 0.51527 0.82455 0.32535 0.0
H544 H 0.78141 0.98292 0.62485 0.0
H545 H 0.63995 0.02821 0.6051 0.0
H546 H 0.81411 0.05935 0.61273 0.0
H547 H 0.67256 0.10297 0.59157 0.0
H548 H 0.73747 0.25372 0.59136 0.0
H549 H 0.70206 0.17667 0.59997 0.0
H550 H 0.83627 0.10677 0.58397 0.0
H551 H 0.87229 0.18474 0.57697 0.0
C552 C 0.75734 1.00925 0.61787 0.0
C553 C 0.70804 0.99975 0.61627 0.0
C554 C 0.77613 0.05297 0.61056 0.0
C555 C 0.74627 0.08791 0.6009 0.0
C556 C 0.69687 0.07791 0.59925 0.0
C557 C 0.67802 0.03476 0.60703 0.0
C558 C 0.75892 0.22173 0.58902 0.0
C559 C 0.80759 0.22527 0.58336 0.0
C560 C 0.73866 0.1772 0.59409 0.0
C561 C 0.7663 0.13485 0.59314 0.0
C562 C 0.81404 0.13836 0.58568 0.0
C563 C 0.83456 0.18303 0.58116 0.0
H564 H 0.56577 0.25958 0.81184 0.0
H565 H 0.52925 0.19733 0.8741 0.0
H566 H 0.4824 0.28295 0.80639 0.0
H567 H 0.44495 0.22062 0.86849 0.0
H568 H 0.29155 0.22722 0.83893 0.0
H569 H 0.37504 0.1995 0.84151 0.0
H570 H 0.42434 0.34102 0.82435 0.0
H571 H 0.34129 0.36868 0.82223 0.0
C572 C 0.53989 0.25111 0.82445 0.0
C573 C 0.55416 0.22679 0.84347 0.0
C574 C 0.4921 0.26449 0.82129 0.0
C575 C 0.45701 0.25328 0.83689 0.0
C576 C 0.47116 0.2292 0.85604 0.0
C577 C 0.51941 0.21644 0.8594 0.0
C578 C 0.32026 0.25181 0.83492 0.0
C579 C 0.31001 0.29987 0.82997 0.0
C580 C 0.36801 0.23624 0.83683 0.0
C581 C 0.40625 0.26824 0.83338 0.0
C582 C 0.39574 0.31547 0.82705 0.0
C583 C 0.3482 0.33122 0.82562 0.0
H584 H 0.76849 0.47065 0.65389 0.0
H585 H 0.84029 0.5026 0.59319 0.0
H586 H 0.74467 0.55435 0.65751 0.0
H587 H 0.81682 0.58728 0.59706 0.0
H588 H 0.80716 0.74238 0.62746 0.0
H589 H 0.83457 0.65861 0.62553 0.0
H590 H 0.68901 0.61055 0.63522 0.0
H591 H 0.66174 0.69374 0.63662 0.0
C592 C 0.77907 0.49561 0.64126 0.0
C593 C 0.80608 0.48002 0.6232 0.0
C594 C 0.76544 0.54354 0.64338 0.0
C595 C 0.77921 0.57737 0.62769 0.0
C596 C 0.80618 0.56196 0.60953 0.0
C597 C 0.8191 0.51353 0.60717 0.0
C598 C 0.78141 0.7138 0.62979 0.0
C599 C 0.73248 0.72436 0.63255 0.0
C600 C 0.7969 0.666 0.62831 0.0
C601 C 0.76383 0.62814 0.63006 0.0
C602 C 0.71531 0.63895 0.63387 0.0
C603 C 0.69975 0.6865 0.63483 0.0
H604 H 0.84067 0.14726 0.89577 0.0
H605 H 0.79057 0.28814 0.8781 0.0
H606 H 0.92354 0.17438 0.8927 0.0
H607 H 0.87404 0.31549 0.8748 0.0
H608 H 0.02982 0.3202 0.84399 0.0
H609 H 0.9452 0.29707 0.84891 0.0
H610 H 0.9811 0.23025 0.91024 0.0
H611 H 0.06452 0.25294 0.90538 0.0
C612 C 0.84745 0.18447 0.89185 0.0
C613 C 0.80912 0.21578 0.88759 0.0
C614 C 0.89495 0.19996 0.88991 0.0
C615 C 0.90546 0.247 0.88328 0.0
C616 C 0.86711 0.2789 0.8797 0.0
C617 C 0.81936 0.26353 0.88202 0.0
C618 C 0.01954 0.30012 0.85835 0.0
C619 C 0.05392 0.28828 0.87424 0.0
C620 C 0.97109 0.28742 0.86133 0.0
C621 C 0.95638 0.262 0.88005 0.0
C622 C 0.99112 0.24956 0.89561 0.0
C623 C 0.03903 0.26267 0.8928 0.0
H624 H 0.25533 0.57823 0.15101 0.0
H625 H 0.18219 0.53882 0.09158 0.0
H626 H 0.28586 0.49665 0.15464 0.0
H627 H 0.21205 0.45605 0.09555 0.0
H628 H 0.22909 0.30468 0.13088 0.0
H629 H 0.19866 0.38693 0.12675 0.0
H630 H 0.34328 0.44104 0.13118 0.0
H631 H 0.37364 0.35916 0.13471 0.0
C632 C 0.24618 0.55207 0.1386 0.0
C633 C 0.21671 0.56481 0.12093 0.0
C634 C 0.26356 0.50541 0.14073 0.0
C635 C 0.25098 0.47001 0.1255 0.0
C636 C 0.22191 0.4827 0.10761 0.0
C637 C 0.20534 0.52999 0.10519 0.0
C638 C 0.25413 0.33431 0.13145 0.0
C639 C 0.30363 0.32573 0.13343 0.0
C640 C 0.23685 0.38118 0.12872 0.0
C641 C 0.26872 0.42022 0.12843 0.0
C642 C 0.31796 0.41162 0.13131 0.0
C643 C 0.33527 0.36486 0.13349 0.0
H644 H 0.25866 0.73625 0.37014 0.0
H645 H 0.18481 0.86746 0.38614 0.0
H646 H 0.18276 0.69872 0.36089 0.0
H647 H 0.10805 0.82923 0.37843 0.0
H648 H 0.9848 0.77109 0.33817 0.0
H649 H 0.06096 0.8061 0.34946 0.0
H650 H 0.11028 0.66625 0.36997 0.0
H651 H 0.03566 0.63134 0.35734 0.0
C652 C 0.22585 0.75638 0.37266 0.0
C653 C 0.22762 0.80462 0.37912 0.0
C654 C 0.18204 0.73492 0.36722 0.0
C655 C 0.13866 0.76088 0.36855 0.0
C656 C 0.14047 0.80828 0.3765 0.0
C657 C 0.18443 0.83004 0.3814 0.0
C658 C 1.01231 0.74786 0.34479 0.0
C659 C 1.00432 0.69838 0.34658 0.0
C660 C 0.05589 0.76798 0.35162 0.0
C661 C 0.09225 0.73931 0.36092 0.0
C662 C 0.08398 0.68969 0.36259 0.0
C663 C 0.0409 0.66951 0.35533 0.0
loop_
_geom_bond_atom_site_label_1
_geom_bond_atom_site_label_2
_geom_bond_distance
_geom_bond_site_symmetry_2
_ccdc_geom_bond_type
Co0 N4 2.148 . S
Co0 N10 2.128 . S
Co0 N20 2.194 . S
Co0 O25 2.351 . S
Co0 O26 2.155 . S
Co0 O27 2.096 . S
C1 N4 1.301 . S
C1 N5 1.328 . S
C1 H6 0.930 . S
C2 C3 1.333 . S
C2 N4 1.317 . S
C2 H7 0.930 . S
C3 C2 1.333 . S
C3 N5 1.350 . S
C3 H29 0.931 . S
N4 Co0 2.148 . S
N4 C1 1.301 . S
N4 C2 1.317 . S
N5 C1 1.328 . S
N5 C3 1.350 . S
H6 C1 0.930 . S
H7 C2 0.930 . S
C8 O9 1.224 . S
C8 O27 1.247 . S
O9 C8 1.224 . S
N10 Co0 2.128 . S
N10 C11 1.355 . S
N10 C13 1.311 . S
C11 N10 1.355 . S
C11 C12 1.363 . S
C11 H23 0.929 . S
C12 C11 1.363 . S
C12 N14 1.375 . S
C12 H30 0.931 . S
C13 N10 1.311 . S
C13 N14 1.347 . S
C13 H24 0.929 . S
N14 C12 1.375 . S
N14 C13 1.347 . S
C15 C18 1.365 . S
C15 N20 1.328 . S
C15 H21 0.929 . S
C16 C17 1.362 . S
C16 C19 1.378 . S
C16 H31 0.929 . S
C17 C16 1.362 . S
C17 C18 1.366 . S
C18 C15 1.365 . S
C18 C17 1.366 . S
C18 H32 0.930 . S
C19 C16 1.378 . S
C19 N20 1.315 . S
C19 H22 0.930 . S
N20 Co0 2.194 . S
N20 C15 1.328 . S
N20 C19 1.315 . S
H21 C15 0.929 . S
H22 C19 0.930 . S
H23 C11 0.929 . S
H24 C13 0.929 . S
O25 Co0 2.351 . S
O25 C28 1.244 . S
O26 Co0 2.155 . S
O26 C28 1.240 . S
O27 Co0 2.096 . S
O27 C8 1.247 . S
C28 O25 1.244 . S
C28 O26 1.240 . S
H29 C3 0.931 . S
H30 C12 0.931 . S
H31 C16 0.929 . S
H32 C18 0.930 . S
Co33 N37 2.148 . S
Co33 N43 2.128 . S
Co33 N53 2.194 . S
Co33 O58 2.351 . S
Co33 O59 2.155 . S
Co33 O60 2.096 . S
C34 N37 1.301 . S
C34 N38 1.328 . S
C34 H39 0.930 . S
C35 C36 1.333 . S
C35 N37 1.317 . S
C35 H40 0.930 . S
C36 C35 1.333 . S
C36 N38 1.350 . S
C36 H62 0.931 . S
N37 Co33 2.148 . S
N37 C34 1.301 . S
N37 C35 1.317 . S
N38 C34 1.328 . S
N38 C36 1.350 . S
H39 C34 0.930 . S
H40 C35 0.930 . S
C41 O42 1.224 . S
C41 O60 1.247 . S
O42 C41 1.224 . S
N43 Co33 2.128 . S
N43 C44 1.355 . S
N43 C46 1.311 . S
C44 N43 1.355 . S
C44 C45 1.363 . S
C44 H56 0.929 . S
C45 C44 1.363 . S
C45 N47 1.375 . S
C45 H63 0.931 1_565 S
C46 N43 1.311 . S
C46 N47 1.347 . S
C46 H57 0.929 . S
N47 C45 1.375 . S
N47 C46 1.347 . S
C48 C51 1.365 1_565 S
C48 N53 1.328 . S
C48 H54 0.929 . S
C49 C50 1.362 1_565 S
C49 C52 1.378 . S
C49 H64 0.929 1_565 S
C50 C49 1.362 1_545 S
C50 C51 1.366 . S
C51 C48 1.365 1_545 S
C51 C50 1.366 . S
C51 H65 0.930 . S
C52 C49 1.378 . S
C52 N53 1.315 . S
C52 H55 0.930 . S
N53 Co33 2.194 . S
N53 C48 1.328 . S
N53 C52 1.315 . S
H54 C48 0.929 . S
H55 C52 0.930 . S
H56 C44 0.929 . S
H57 C46 0.929 . S
O58 Co33 2.351 . S
O58 C61 1.244 . S
O59 Co33 2.155 . S
O59 C61 1.240 . S
O60 Co33 2.096 . S
O60 C41 1.247 . S
C61 O58 1.244 . S
C61 O59 1.240 . S
H62 C36 0.931 . S
H63 C45 0.931 1_545 S
H64 C49 0.929 1_545 S
H65 C51 0.930 . S
Co66 N70 2.148 . S
Co66 N76 2.128 . S
Co66 N86 2.194 . S
Co66 O91 2.351 . S
Co66 O92 2.155 . S
Co66 O93 2.096 . S
C67 N70 1.301 . S
C67 N71 1.328 . S
C67 H72 0.930 . S
C68 C69 1.333 . S
C68 N70 1.317 . S
C68 H73 0.930 . S
C69 C68 1.333 . S
C69 N71 1.350 . S
C69 H95 0.931 . S
N70 Co66 2.148 . S
N70 C67 1.301 . S
N70 C68 1.317 . S
N71 C67 1.328 . S
N71 C69 1.350 . S
H72 C67 0.930 . S
H73 C68 0.930 . S
C74 O75 1.224 . S
C74 O93 1.247 . S
O75 C74 1.224 . S
N76 Co66 2.128 . S
N76 C77 1.355 . S
N76 C79 1.311 . S
C77 N76 1.355 . S
C77 C78 1.363 . S
C77 H89 0.929 . S
C78 C77 1.363 . S
C78 N80 1.375 . S
C78 H96 0.931 . S
C79 N76 1.311 . S
C79 N80 1.347 . S
C79 H90 0.929 . S
N80 C78 1.375 . S
N80 C79 1.347 . S
C81 C84 1.365 . S
C81 N86 1.328 . S
C81 H87 0.929 . S
C82 C83 1.362 . S
C82 C85 1.378 . S
C82 H97 0.929 . S
C83 C82 1.362 . S
C83 C84 1.366 . S
C84 C81 1.365 . S
C84 C83 1.366 . S
C84 H98 0.930 . S
C85 C82 1.378 . S
C85 N86 1.315 . S
C85 H88 0.930 . S
N86 Co66 2.194 . S
N86 C81 1.328 . S
N86 C85 1.315 . S
H87 C81 0.929 . S
H88 C85 0.930 . S
H89 C77 0.929 . S
H90 C79 0.929 . S
O91 Co66 2.351 . S
O91 C94 1.244 . S
O92 Co66 2.155 . S
O92 C94 1.240 . S
O93 Co66 2.096 . S
O93 C74 1.247 . S
C94 O91 1.244 . S
C94 O92 1.240 . S
H95 C69 0.931 . S
H96 C78 0.931 . S
H97 C82 0.929 . S
H98 C84 0.930 . S
Co99 N103 2.148 . S
Co99 N109 2.128 . S
Co99 N119 2.194 . S
Co99 O124 2.351 . S
Co99 O125 2.155 . S
Co99 O126 2.096 . S
C100 N103 1.301 . S
C100 N104 1.328 . S
C100 H105 0.930 . S
C101 C102 1.333 . S
C101 N103 1.317 . S
C101 H106 0.930 . S
C102 C101 1.333 . S
C102 N104 1.350 . S
C102 H128 0.931 . S
N103 Co99 2.148 . S
N103 C100 1.301 . S
N103 C101 1.317 . S
N104 C100 1.328 . S
N104 C102 1.350 . S
H105 C100 0.930 . S
H106 C101 0.930 . S
C107 O108 1.224 . S
C107 O126 1.247 . S
O108 C107 1.224 . S
N109 Co99 2.128 . S
N109 C110 1.355 . S
N109 C112 1.311 . S
C110 N109 1.355 . S
C110 C111 1.363 . S
C110 H122 0.929 . S
C111 C110 1.363 . S
C111 N113 1.375 . S
C111 H129 0.931 1_545 S
C112 N109 1.311 . S
C112 N113 1.347 . S
C112 H123 0.929 . S
N113 C111 1.375 . S
N113 C112 1.347 . S
C114 C117 1.365 1_545 S
C114 N119 1.328 . S
C114 H120 0.929 . S
C115 C116 1.362 1_545 S
C115 C118 1.378 . S
C115 H130 0.929 1_545 S
C116 C115 1.362 1_565 S
C116 C117 1.366 . S
C117 C114 1.365 1_565 S
C117 C116 1.366 . S
C117 H131 0.930 . S
C118 C115 1.378 . S
C118 N119 1.315 . S
C118 H121 0.930 . S
N119 Co99 2.194 . S
N119 C114 1.328 . S
N119 C118 1.315 . S
H120 C114 0.929 . S
H121 C118 0.930 . S
H122 C110 0.929 . S
H123 C112 0.929 . S
O124 Co99 2.351 . S
O124 C127 1.244 . S
O125 Co99 2.155 . S
O125 C127 1.240 . S
O126 Co99 2.096 . S
O126 C107 1.247 . S
C127 O124 1.244 . S
C127 O125 1.240 . S
H128 C102 0.931 . S
H129 C111 0.931 1_565 S
H130 C115 0.929 1_565 S
H131 C117 0.930 . S
Co132 N136 2.148 . S
Co132 N142 2.128 . S
Co132 N152 2.194 . S
Co132 O157 2.351 . S
Co132 O158 2.155 . S
Co132 O159 2.096 . S
C133 N136 1.301 . S
C133 N137 1.328 . S
C133 H138 0.930 . S
C134 C135 1.333 . S
C134 N136 1.317 . S
C134 H139 0.930 . S
C135 C134 1.333 . S
C135 N137 1.350 . S
C135 H161 0.931 . S
N136 Co132 2.148 . S
N136 C133 1.301 . S
N136 C134 1.317 . S
N137 C133 1.328 . S
N137 C135 1.350 . S
H138 C133 0.930 . S
H139 C134 0.930 . S
C140 O141 1.224 . S
C140 O159 1.247 . S
O141 C140 1.224 . S
N142 Co132 2.128 . S
N142 C143 1.355 . S
N142 C145 1.311 . S
C143 N142 1.355 . S
C143 C144 1.363 . S
C143 H155 0.929 . S
C144 C143 1.363 . S
C144 N146 1.375 . S
C144 H162 0.931 1_655 S
C145 N142 1.311 . S
C145 N146 1.347 . S
C145 H156 0.929 . S
N146 C144 1.375 . S
N146 C145 1.347 . S
C147 C150 1.365 1_655 S
C147 N152 1.328 . S
C147 H153 0.929 . S
C148 C149 1.362 1_655 S
C148 C151 1.378 . S
C148 H163 0.929 1_655 S
C149 C148 1.362 1_455 S
C149 C150 1.366 . S
C150 C147 1.365 1_455 S
C150 C149 1.366 . S
C150 H164 0.930 . S
C151 C148 1.378 . S
C151 N152 1.315 . S
C151 H154 0.930 . S
N152 Co132 2.194 . S
N152 C147 1.328 . S
N152 C151 1.315 . S
H153 C147 0.929 . S
H154 C151 0.930 . S
H155 C143 0.929 . S
H156 C145 0.929 . S
O157 Co132 2.351 . S
O157 C160 1.244 . S
O158 Co132 2.155 . S
O158 C160 1.240 . S
O159 Co132 2.096 . S
O159 C140 1.247 . S
C160 O157 1.244 . S
C160 O158 1.240 . S
H161 C135 0.931 . S
H162 C144 0.931 1_455 S
H163 C148 0.929 1_455 S
H164 C150 0.930 . S
Co165 N169 2.148 . S
Co165 N175 2.128 . S
Co165 N185 2.194 . S
Co165 O190 2.351 . S
Co165 O191 2.155 . S
Co165 O192 2.096 . S
C166 N169 1.301 . S
C166 N170 1.328 . S
C166 H171 0.930 . S
C167 C168 1.333 . S
C167 N169 1.317 . S
C167 H172 0.930 . S
C168 C167 1.333 . S
C168 N170 1.350 . S
C168 H194 0.931 . S
N169 Co165 2.148 . S
N169 C166 1.301 . S
N169 C167 1.317 . S
N170 C166 1.328 . S
N170 C168 1.350 . S
H171 C166 0.930 . S
H172 C167 0.930 . S
C173 O174 1.224 . S
C173 O192 1.247 . S
O174 C173 1.224 . S
N175 Co165 2.128 . S
N175 C176 1.355 . S
N175 C178 1.311 . S
C176 N175 1.355 . S
C176 C177 1.363 . S
C176 H188 0.929 . S
C177 C176 1.363 . S
C177 N179 1.375 . S
C177 H195 0.931 . S
C178 N175 1.311 . S
C178 N179 1.347 . S
C178 H189 0.929 . S
N179 C177 1.375 . S
N179 C178 1.347 . S
C180 C183 1.365 . S
C180 N185 1.328 . S
C180 H186 0.929 . S
C181 C182 1.362 . S
C181 C184 1.378 . S
C181 H196 0.929 . S
C182 C181 1.362 . S
C182 C183 1.366 . S
C183 C180 1.365 . S
C183 C182 1.366 . S
C183 H197 0.930 . S
C184 C181 1.378 . S
C184 N185 1.315 . S
C184 H187 0.930 . S
N185 Co165 2.194 . S
N185 C180 1.328 . S
N185 C184 1.315 . S
H186 C180 0.929 . S
H187 C184 0.930 . S
H188 C176 0.929 . S
H189 C178 0.929 . S
O190 Co165 2.351 . S
O190 C193 1.244 . S
O191 Co165 2.155 . S
O191 C193 1.240 . S
O192 Co165 2.096 . S
O192 C173 1.247 . S
C193 O190 1.244 . S
C193 O191 1.240 . S
H194 C168 0.931 . S
H195 C177 0.931 . S
H196 C181 0.929 . S
H197 C183 0.930 . S
Co198 N202 2.148 . S
Co198 N208 2.128 . S
Co198 N218 2.194 . S
Co198 O223 2.351 . S
Co198 O224 2.155 . S
Co198 O225 2.096 . S
C199 N202 1.301 . S
C199 N203 1.328 . S
C199 H204 0.930 . S
C200 C201 1.333 . S
C200 N202 1.317 . S
C200 H205 0.930 . S
C201 C200 1.333 . S
C201 N203 1.350 . S
C201 H227 0.931 . S
N202 Co198 2.148 . S
N202 C199 1.301 . S
N202 C200 1.317 . S
N203 C199 1.328 . S
N203 C201 1.350 . S
H204 C199 0.930 . S
H205 C200 0.930 . S
C206 O207 1.224 . S
C206 O225 1.247 . S
O207 C206 1.224 . S
N208 Co198 2.128 . S
N208 C209 1.355 . S
N208 C211 1.311 . S
C209 N208 1.355 . S
C209 C210 1.363 . S
C209 H221 0.929 . S
C210 C209 1.363 . S
C210 N212 1.375 . S
C210 H228 0.931 1_455 S
C211 N208 1.311 . S
C211 N212 1.347 . S
C211 H222 0.929 . S
N212 C210 1.375 . S
N212 C211 1.347 . S
C213 C216 1.365 1_455 S
C213 N218 1.328 . S
C213 H219 0.929 . S
C214 C215 1.362 1_455 S
C214 C217 1.378 . S
C214 H229 0.929 1_455 S
C215 C214 1.362 1_655 S
C215 C216 1.366 . S
C216 C213 1.365 1_655 S
C216 C215 1.366 . S
C216 H230 0.930 . S
C217 C214 1.378 . S
C217 N218 1.315 . S
C217 H220 0.930 . S
N218 Co198 2.194 . S
N218 C213 1.328 . S
N218 C217 1.315 . S
H219 C213 0.929 . S
H220 C217 0.930 . S
H221 C209 0.929 . S
H222 C211 0.929 . S
O223 Co198 2.351 . S
O223 C226 1.244 . S
O224 Co198 2.155 . S
O224 C226 1.240 . S
O225 Co198 2.096 . S
O225 C206 1.247 . S
C226 O223 1.244 . S
C226 O224 1.240 . S
H227 C201 0.931 . S
H228 C210 0.931 1_655 S
H229 C214 0.929 1_655 S
H230 C216 0.930 . S
Co231 N235 2.148 . S
Co231 N241 2.128 . S
Co231 N251 2.194 . S
Co231 O256 2.351 . S
Co231 O257 2.155 . S
Co231 O258 2.096 . S
C232 N235 1.301 . S
C232 N236 1.328 . S
C232 H237 0.930 . S
C233 C234 1.333 . S
C233 N235 1.317 . S
C233 H238 0.930 . S
C234 C233 1.333 . S
C234 N236 1.350 . S
C234 H260 0.931 . S
N235 Co231 2.148 . S
N235 C232 1.301 . S
N235 C233 1.317 . S
N236 C232 1.328 . S
N236 C234 1.350 . S
H237 C232 0.930 . S
H238 C233 0.930 . S
C239 O240 1.224 . S
C239 O258 1.247 . S
O240 C239 1.224 . S
N241 Co231 2.128 . S
N241 C242 1.355 . S
N241 C244 1.311 . S
C242 N241 1.355 . S
C242 C243 1.363 . S
C242 H254 0.929 . S
C243 C242 1.363 . S
C243 N245 1.375 . S
C243 H261 0.931 . S
C244 N241 1.311 . S
C244 N245 1.347 . S
C244 H255 0.929 . S
N245 C243 1.375 . S
N245 C244 1.347 . S
C246 C249 1.365 . S
C246 N251 1.328 . S
C246 H252 0.929 . S
C247 C248 1.362 . S
C247 C250 1.378 . S
C247 H262 0.929 . S
C248 C247 1.362 . S
C248 C249 1.366 . S
C249 C246 1.365 . S
C249 C248 1.366 . S
C249 H263 0.930 . S
C250 C247 1.378 . S
C250 N251 1.315 . S
C250 H253 0.930 . S
N251 Co231 2.194 . S
N251 C246 1.328 . S
N251 C250 1.315 . S
H252 C246 0.929 . S
H253 C250 0.930 . S
H254 C242 0.929 . S
H255 C244 0.929 . S
O256 Co231 2.351 . S
O256 C259 1.244 . S
O257 Co231 2.155 . S
O257 C259 1.240 . S
O258 Co231 2.096 . S
O258 C239 1.247 . S
C259 O256 1.244 . S
C259 O257 1.240 . S
H260 C234 0.931 . S
H261 C243 0.931 . S
H262 C247 0.929 . S
H263 C249 0.930 . S
H264 C272 0.950 . S
H265 C277 0.950 . S
H266 C274 0.950 . S
H267 C276 0.950 . S
H268 C278 0.950 . S
H269 C280 0.950 . S
H270 C282 0.950 . S
H271 C283 0.950 . S
C272 H264 0.950 . S
C272 C273 1.386 . S
C272 C274 1.391 . S
C273 C272 1.386 . S
C273 C277 1.393 . S
C274 H266 0.950 . S
C274 C272 1.391 . S
C274 C275 1.400 . S
C275 C274 1.400 . S
C275 C276 1.398 . S
C275 C281 1.491 1_554 S
C276 H267 0.950 . S
C276 C275 1.398 . S
C276 C277 1.391 . S
C277 H265 0.950 . S
C277 C273 1.393 . S
C277 C276 1.391 . S
C278 H268 0.950 . S
C278 C279 1.386 . S
C278 C280 1.391 . S
C279 C278 1.386 . S
C279 C283 1.393 . S
C280 H269 0.950 . S
C280 C278 1.391 . S
C280 C281 1.400 . S
C281 C275 1.491 1_556 S
C281 C280 1.400 . S
C281 C282 1.398 . S
C282 H270 0.950 . S
C282 C281 1.398 . S
C282 C283 1.391 . S
C283 H271 0.950 . S
C283 C279 1.393 . S
C283 C282 1.391 . S
H284 C292 0.950 . S
H285 C297 0.950 . S
H286 C294 0.950 . S
H287 C296 0.950 . S
H288 C298 0.950 . S
H289 C300 0.950 . S
H290 C302 0.950 . S
H291 C303 0.950 . S
C292 H284 0.950 . S
C292 C293 1.386 . S
C292 C294 1.391 . S
C293 C292 1.386 . S
C293 C297 1.393 . S
C294 H286 0.950 . S
C294 C292 1.391 . S
C294 C295 1.400 . S
C295 C294 1.400 . S
C295 C296 1.398 . S
C295 C301 1.491 . S
C296 H287 0.950 . S
C296 C295 1.398 . S
C296 C297 1.391 . S
C297 H285 0.950 . S
C297 C293 1.393 . S
C297 C296 1.391 . S
C298 H288 0.950 . S
C298 C299 1.386 . S
C298 C300 1.391 . S
C299 C298 1.386 . S
C299 C303 1.393 . S
C300 H289 0.950 . S
C300 C298 1.391 . S
C300 C301 1.400 . S
C301 C295 1.491 . S
C301 C300 1.400 . S
C301 C302 1.398 . S
C302 H290 0.950 . S
C302 C301 1.398 . S
C302 C303 1.391 . S
C303 H291 0.950 . S
C303 C299 1.393 . S
C303 C302 1.391 . S
H304 C312 0.950 . S
H305 C317 0.950 . S
H306 C314 0.950 . S
H307 C316 0.950 . S
H308 C318 0.950 . S
H309 C320 0.950 . S
H310 C322 0.950 . S
H311 C323 0.950 . S
C312 H304 0.950 . S
C312 C313 1.386 . S
C312 C314 1.391 . S
C313 C312 1.386 . S
C313 C317 1.393 . S
C314 H306 0.950 . S
C314 C312 1.391 . S
C314 C315 1.400 . S
C315 C314 1.400 . S
C315 C316 1.398 . S
C315 C321 1.491 . S
C316 H307 0.950 . S
C316 C315 1.398 . S
C316 C317 1.391 . S
C317 H305 0.950 . S
C317 C313 1.393 . S
C317 C316 1.391 . S
C318 H308 0.950 . S
C318 C319 1.386 . S
C318 C320 1.391 . S
C319 C318 1.386 . S
C319 C323 1.393 . S
C320 H309 0.950 . S
C320 C318 1.391 . S
C320 C321 1.400 . S
C321 C315 1.491 . S
C321 C320 1.400 . S
C321 C322 1.398 . S
C322 H310 0.950 . S
C322 C321 1.398 . S
C322 C323 1.391 . S
C323 H311 0.950 . S
C323 C319 1.393 . S
C323 C322 1.391 . S
H324 C332 0.950 . S
H325 C337 0.950 . S
H326 C334 0.950 . S
H327 C336 0.950 . S
H328 C338 0.950 . S
H329 C340 0.950 . S
H330 C342 0.950 . S
H331 C343 0.950 . S
C332 H324 0.950 . S
C332 C333 1.386 . S
C332 C334 1.391 . S
C333 C332 1.386 . S
C333 C337 1.393 . S
C334 H326 0.950 . S
C334 C332 1.391 . S
C334 C335 1.400 . S
C335 C334 1.400 . S
C335 C336 1.398 . S
C335 C341 1.491 . S
C336 H327 0.950 . S
C336 C335 1.398 . S
C336 C337 1.391 . S
C337 H325 0.950 . S
C337 C333 1.393 . S
C337 C336 1.391 . S
C338 H328 0.950 . S
C338 C339 1.386 . S
C338 C340 1.391 . S
C339 C338 1.386 . S
C339 C343 1.393 . S
C340 H329 0.950 . S
C340 C338 1.391 . S
C340 C341 1.400 . S
C341 C335 1.491 . S
C341 C340 1.400 . S
C341 C342 1.398 . S
C342 H330 0.950 . S
C342 C341 1.398 . S
C342 C343 1.391 . S
C343 H331 0.950 . S
C343 C339 1.393 . S
C343 C342 1.391 . S
H344 C352 0.950 . S
H345 C357 0.950 1_565 S
H346 C354 0.950 . S
H347 C356 0.950 . S
H348 C358 0.950 . S
H349 C360 0.950 . S
H350 C362 0.950 . S
H351 C363 0.950 . S
C352 H344 0.950 . S
C352 C353 1.386 . S
C352 C354 1.391 . S
C353 C352 1.386 . S
C353 C357 1.393 . S
C354 H346 0.950 . S
C354 C352 1.391 . S
C354 C355 1.400 . S
C355 C354 1.400 . S
C355 C356 1.398 . S
C355 C361 1.491 1_556 S
C356 H347 0.950 . S
C356 C355 1.398 . S
C356 C357 1.391 . S
C357 H345 0.950 1_545 S
C357 C353 1.393 . S
C357 C356 1.391 . S
C358 H348 0.950 . S
C358 C359 1.386 . S
C358 C360 1.391 . S
C359 C358 1.386 . S
C359 C363 1.393 . S
C360 H349 0.950 . S
C360 C358 1.391 . S
C360 C361 1.400 . S
C361 C355 1.491 1_554 S
C361 C360 1.400 . S
C361 C362 1.398 . S
C362 H350 0.950 . S
C362 C361 1.398 . S
C362 C363 1.391 . S
C363 H351 0.950 . S
C363 C359 1.393 . S
C363 C362 1.391 . S
H364 C372 0.950 1_565 S
H365 C377 0.950 . S
H366 C374 0.950 . S
H367 C376 0.950 . S
H368 C378 0.950 . S
H369 C380 0.950 . S
H370 C382 0.950 . S
H371 C383 0.950 . S
C372 H364 0.950 1_545 S
C372 C373 1.386 . S
C372 C374 1.391 . S
C373 C372 1.386 . S
C373 C377 1.393 . S
C374 H366 0.950 . S
C374 C372 1.391 . S
C374 C375 1.400 . S
C375 C374 1.400 . S
C375 C376 1.398 . S
C375 C381 1.491 . S
C376 H367 0.950 . S
C376 C375 1.398 . S
C376 C377 1.391 . S
C377 H365 0.950 . S
C377 C373 1.393 . S
C377 C376 1.391 . S
C378 H368 0.950 . S
C378 C379 1.386 . S
C378 C380 1.391 . S
C379 C378 1.386 . S
C379 C383 1.393 . S
C380 H369 0.950 . S
C380 C378 1.391 . S
C380 C381 1.400 . S
C381 C375 1.491 . S
C381 C380 1.400 . S
C381 C382 1.398 . S
C382 H370 0.950 . S
C382 C381 1.398 . S
C382 C383 1.391 . S
C383 H371 0.950 . S
C383 C379 1.393 . S
C383 C382 1.391 . S
H384 C392 0.950 . S
H385 C397 0.950 1_545 S
H386 C394 0.950 . S
H387 C396 0.950 . S
H388 C398 0.950 . S
H389 C400 0.950 . S
H390 C402 0.950 . S
H391 C403 0.950 . S
C392 H384 0.950 . S
C392 C393 1.386 . S
C392 C394 1.391 . S
C393 C392 1.386 . S
C393 C397 1.393 . S
C394 H386 0.950 . S
C394 C392 1.391 . S
C394 C395 1.400 . S
C395 C394 1.400 . S
C395 C396 1.398 . S
C395 C401 1.491 . S
C396 H387 0.950 . S
C396 C395 1.398 . S
C396 C397 1.391 . S
C397 H385 0.950 1_565 S
C397 C393 1.393 . S
C397 C396 1.391 . S
C398 H388 0.950 . S
C398 C399 1.386 . S
C398 C400 1.391 . S
C399 C398 1.386 . S
C399 C403 1.393 . S
C400 H389 0.950 . S
C400 C398 1.391 . S
C400 C401 1.400 . S
C401 C395 1.491 . S
C401 C400 1.400 . S
C401 C402 1.398 . S
C402 H390 0.950 . S
C402 C401 1.398 . S
C402 C403 1.391 . S
C403 H391 0.950 . S
C403 C399 1.393 . S
C403 C402 1.391 . S
H404 C412 0.950 . S
H405 C417 0.950 . S
H406 C414 0.950 . S
H407 C416 0.950 . S
H408 C418 0.950 . S
H409 C420 0.950 . S
H410 C422 0.950 . S
H411 C423 0.950 . S
C412 H404 0.950 . S
C412 C413 1.386 . S
C412 C414 1.391 . S
C413 C412 1.386 . S
C413 C417 1.393 . S
C414 H406 0.950 . S
C414 C412 1.391 . S
C414 C415 1.400 . S
C415 C414 1.400 . S
C415 C416 1.398 . S
C415 C421 1.491 . S
C416 H407 0.950 . S
C416 C415 1.398 . S
C416 C417 1.391 . S
C417 H405 0.950 . S
C417 C413 1.393 . S
C417 C416 1.391 . S
C418 H408 0.950 . S
C418 C419 1.386 . S
C418 C420 1.391 . S
C419 C418 1.386 . S
C419 C423 1.393 . S
C420 H409 0.950 . S
C420 C418 1.391 . S
C420 C421 1.400 . S
C421 C415 1.491 . S
C421 C420 1.400 . S
C421 C422 1.398 . S
C422 H410 0.950 . S
C422 C421 1.398 . S
C422 C423 1.391 . S
C423 H411 0.950 . S
C423 C419 1.393 . S
C423 C422 1.391 . S
H424 C432 0.950 . S
H425 C437 0.950 . S
H426 C434 0.950 . S
H427 C436 0.950 . S
H428 C438 0.950 1_655 S
H429 C440 0.950 1_655 S
H430 C442 0.950 . S
H431 C443 0.950 . S
C432 H424 0.950 . S
C432 C433 1.386 . S
C432 C434 1.391 . S
C433 C432 1.386 . S
C433 C437 1.393 . S
C434 H426 0.950 . S
C434 C432 1.391 . S
C434 C435 1.400 . S
C435 C434 1.400 . S
C435 C436 1.398 . S
C435 C441 1.491 . S
C436 H427 0.950 . S
C436 C435 1.398 . S
C436 C437 1.391 . S
C437 H425 0.950 . S
C437 C433 1.393 . S
C437 C436 1.391 . S
C438 H428 0.950 1_455 S
C438 C439 1.386 . S
C438 C440 1.391 . S
C439 C438 1.386 . S
C439 C443 1.393 . S
C440 H429 0.950 1_455 S
C440 C438 1.391 . S
C440 C441 1.400 . S
C441 C435 1.491 . S
C441 C440 1.400 . S
C441 C442 1.398 . S
C442 H430 0.950 . S
C442 C441 1.398 . S
C442 C443 1.391 . S
C443 H431 0.950 . S
C443 C439 1.393 . S
C443 C442 1.391 . S
H444 C452 0.950 . S
H445 C457 0.950 . S
H446 C454 0.950 . S
H447 C456 0.950 . S
H448 C458 0.950 . S
H449 C460 0.950 . S
H450 C462 0.950 . S
H451 C463 0.950 . S
C452 H444 0.950 . S
C452 C453 1.386 . S
C452 C454 1.391 . S
C453 C452 1.386 . S
C453 C457 1.393 . S
C454 H446 0.950 . S
C454 C452 1.391 . S
C454 C455 1.400 . S
C455 C454 1.400 . S
C455 C456 1.398 . S
C455 C461 1.491 1_556 S
C456 H447 0.950 . S
C456 C455 1.398 . S
C456 C457 1.391 . S
C457 H445 0.950 . S
C457 C453 1.393 . S
C457 C456 1.391 . S
C458 H448 0.950 . S
C458 C459 1.386 . S
C458 C460 1.391 . S
C459 C458 1.386 . S
C459 C463 1.393 . S
C460 H449 0.950 . S
C460 C458 1.391 . S
C460 C461 1.400 . S
C461 C455 1.491 1_554 S
C461 C460 1.400 . S
C461 C462 1.398 . S
C462 H450 0.950 . S
C462 C461 1.398 . S
C462 C463 1.391 . S
C463 H451 0.950 . S
C463 C459 1.393 . S
C463 C462 1.391 . S
H464 C472 0.950 1_455 S
H465 C477 0.950 . S
H466 C474 0.950 1_455 S
H467 C476 0.950 . S
H468 C478 0.950 . S
H469 C480 0.950 . S
H470 C482 0.950 . S
H471 C483 0.950 . S
C472 H464 0.950 1_655 S
C472 C473 1.386 . S
C472 C474 1.391 . S
C473 C472 1.386 . S
C473 C477 1.393 . S
C474 H466 0.950 1_655 S
C474 C472 1.391 . S
C474 C475 1.400 . S
C475 C474 1.400 . S
C475 C476 1.398 . S
C475 C481 1.491 . S
C476 H467 0.950 . S
C476 C475 1.398 . S
C476 C477 1.391 . S
C477 H465 0.950 . S
C477 C473 1.393 . S
C477 C476 1.391 . S
C478 H468 0.950 . S
C478 C479 1.386 . S
C478 C480 1.391 . S
C479 C478 1.386 . S
C479 C483 1.393 . S
C480 H469 0.950 . S
C480 C478 1.391 . S
C480 C481 1.400 . S
C481 C475 1.491 . S
C481 C480 1.400 . S
C481 C482 1.398 . S
C482 H470 0.950 . S
C482 C481 1.398 . S
C482 C483 1.391 . S
C483 H471 0.950 . S
C483 C479 1.393 . S
C483 C482 1.391 . S
H484 C492 0.950 . S
H485 C497 0.950 . S
H486 C494 0.950 . S
H487 C496 0.950 . S
H488 C498 0.950 . S
H489 C500 0.950 . S
H490 C502 0.950 . S
H491 C503 0.950 . S
C492 H484 0.950 . S
C492 C493 1.386 . S
C492 C494 1.391 . S
C493 C492 1.386 . S
C493 C497 1.393 . S
C494 H486 0.950 . S
C494 C492 1.391 . S
C494 C495 1.400 . S
C495 C494 1.400 . S
C495 C496 1.398 . S
C495 C501 1.491 . S
C496 H487 0.950 . S
C496 C495 1.398 . S
C496 C497 1.391 . S
C497 H485 0.950 . S
C497 C493 1.393 . S
C497 C496 1.391 . S
C498 H488 0.950 . S
C498 C499 1.386 . S
C498 C500 1.391 . S
C499 C498 1.386 . S
C499 C503 1.393 . S
C500 H489 0.950 . S
C500 C498 1.391 . S
C500 C501 1.400 . S
C501 C495 1.491 . S
C501 C500 1.400 . S
C501 C502 1.398 . S
C502 H490 0.950 . S
C502 C501 1.398 . S
C502 C503 1.391 . S
C503 H491 0.950 . S
C503 C499 1.393 . S
C503 C502 1.391 . S
H504 C512 0.950 . S
H505 C517 0.950 . S
H506 C514 0.950 . S
H507 C516 0.950 . S
H508 C518 0.950 . S
H509 C520 0.950 . S
H510 C522 0.950 . S
H511 C523 0.950 . S
C512 H504 0.950 . S
C512 C513 1.386 . S
C512 C514 1.391 . S
C513 C512 1.386 . S
C513 C517 1.393 . S
C514 H506 0.950 . S
C514 C512 1.391 . S
C514 C515 1.400 . S
C515 C514 1.400 . S
C515 C516 1.398 . S
C515 C521 1.491 . S
C516 H507 0.950 . S
C516 C515 1.398 . S
C516 C517 1.391 . S
C517 H505 0.950 . S
C517 C513 1.393 . S
C517 C516 1.391 . S
C518 H508 0.950 . S
C518 C519 1.386 . S
C518 C520 1.391 1_545 S
C519 C518 1.386 . S
C519 C523 1.393 1_545 S
C520 H509 0.950 . S
C520 C518 1.391 1_565 S
C520 C521 1.400 . S
C521 C515 1.491 . S
C521 C520 1.400 . S
C521 C522 1.398 . S
C522 H510 0.950 . S
C522 C521 1.398 . S
C522 C523 1.391 . S
C523 H511 0.950 . S
C523 C519 1.393 1_565 S
C523 C522 1.391 . S
H524 C532 0.950 . S
H525 C537 0.950 . S
H526 C534 0.950 . S
H527 C536 0.950 . S
H528 C538 0.950 . S
H529 C540 0.950 . S
H530 C542 0.950 . S
H531 C543 0.950 . S
C532 H524 0.950 . S
C532 C533 1.386 . S
C532 C534 1.391 . S
C533 C532 1.386 . S
C533 C537 1.393 . S
C534 H526 0.950 . S
C534 C532 1.391 . S
C534 C535 1.400 . S
C535 C534 1.400 . S
C535 C536 1.398 . S
C535 C541 1.491 . S
C536 H527 0.950 . S
C536 C535 1.398 . S
C536 C537 1.391 . S
C537 H525 0.950 . S
C537 C533 1.393 . S
C537 C536 1.391 . S
C538 H528 0.950 . S
C538 C539 1.386 . S
C538 C540 1.391 . S
C539 C538 1.386 . S
C539 C543 1.393 . S
C540 H529 0.950 . S
C540 C538 1.391 . S
C540 C541 1.400 . S
C541 C535 1.491 . S
C541 C540 1.400 . S
C541 C542 1.398 . S
C542 H530 0.950 . S
C542 C541 1.398 . S
C542 C543 1.391 . S
C543 H531 0.950 . S
C543 C539 1.393 . S
C543 C542 1.391 . S
H544 C552 0.950 . S
H545 C557 0.950 1_565 S
H546 C554 0.950 . S
H547 C556 0.950 . S
H548 C558 0.950 . S
H549 C560 0.950 . S
H550 C562 0.950 . S
H551 C563 0.950 . S
C552 H544 0.950 . S
C552 C553 1.386 . S
C552 C554 1.391 1_565 S
C553 C552 1.386 . S
C553 C557 1.393 1_565 S
C554 H546 0.950 . S
C554 C552 1.391 1_545 S
C554 C555 1.400 . S
C555 C554 1.400 . S
C555 C556 1.398 . S
C555 C561 1.491 . S
C556 H547 0.950 . S
C556 C555 1.398 . S
C556 C557 1.391 . S
C557 H545 0.950 1_545 S
C557 C553 1.393 1_545 S
C557 C556 1.391 . S
C558 H548 0.950 . S
C558 C559 1.386 . S
C558 C560 1.391 . S
C559 C558 1.386 . S
C559 C563 1.393 . S
C560 H549 0.950 . S
C560 C558 1.391 . S
C560 C561 1.400 . S
C561 C555 1.491 . S
C561 C560 1.400 . S
C561 C562 1.398 . S
C562 H550 0.950 . S
C562 C561 1.398 . S
C562 C563 1.391 . S
C563 H551 0.950 . S
C563 C559 1.393 . S
C563 C562 1.391 . S
H564 C572 0.950 . S
H565 C577 0.950 . S
H566 C574 0.950 . S
H567 C576 0.950 . S
H568 C578 0.950 . S
H569 C580 0.950 . S
H570 C582 0.950 . S
H571 C583 0.950 . S
C572 H564 0.950 . S
C572 C573 1.386 . S
C572 C574 1.391 . S
C573 C572 1.386 . S
C573 C577 1.393 . S
C574 H566 0.950 . S
C574 C572 1.391 . S
C574 C575 1.400 . S
C575 C574 1.400 . S
C575 C576 1.398 . S
C575 C581 1.491 . S
C576 H567 0.950 . S
C576 C575 1.398 . S
C576 C577 1.391 . S
C577 H565 0.950 . S
C577 C573 1.393 . S
C577 C576 1.391 . S
C578 H568 0.950 . S
C578 C579 1.386 . S
C578 C580 1.391 . S
C579 C578 1.386 . S
C579 C583 1.393 . S
C580 H569 0.950 . S
C580 C578 1.391 . S
C580 C581 1.400 . S
C581 C575 1.491 . S
C581 C580 1.400 . S
C581 C582 1.398 . S
C582 H570 0.950 . S
C582 C581 1.398 . S
C582 C583 1.391 . S
C583 H571 0.950 . S
C583 C579 1.393 . S
C583 C582 1.391 . S
H584 C592 0.950 . S
H585 C597 0.950 . S
H586 C594 0.950 . S
H587 C596 0.950 . S
H588 C598 0.950 . S
H589 C600 0.950 . S
H590 C602 0.950 . S
H591 C603 0.950 . S
C592 H584 0.950 . S
C592 C593 1.386 . S
C592 C594 1.391 . S
C593 C592 1.386 . S
C593 C597 1.393 . S
C594 H586 0.950 . S
C594 C592 1.391 . S
C594 C595 1.400 . S
C595 C594 1.400 . S
C595 C596 1.398 . S
C595 C601 1.491 . S
C596 H587 0.950 . S
C596 C595 1.398 . S
C596 C597 1.391 . S
C597 H585 0.950 . S
C597 C593 1.393 . S
C597 C596 1.391 . S
C598 H588 0.950 . S
C598 C599 1.386 . S
C598 C600 1.391 . S
C599 C598 1.386 . S
C599 C603 1.393 . S
C600 H589 0.950 . S
C600 C598 1.391 . S
C600 C601 1.400 . S
C601 C595 1.491 . S
C601 C600 1.400 . S
C601 C602 1.398 . S
C602 H590 0.950 . S
C602 C601 1.398 . S
C602 C603 1.391 . S
C603 H591 0.950 . S
C603 C599 1.393 . S
C603 C602 1.391 . S
H604 C612 0.950 . S
H605 C617 0.950 . S
H606 C614 0.950 . S
H607 C616 0.950 . S
H608 C618 0.950 . S
H609 C620 0.950 . S
H610 C622 0.950 . S
H611 C623 0.950 . S
C612 H604 0.950 . S
C612 C613 1.386 . S
C612 C614 1.391 . S
C613 C612 1.386 . S
C613 C617 1.393 . S
C614 H606 0.950 . S
C614 C612 1.391 . S
C614 C615 1.400 . S
C615 C614 1.400 . S
C615 C616 1.398 . S
C615 C621 1.491 . S
C616 H607 0.950 . S
C616 C615 1.398 . S
C616 C617 1.391 . S
C617 H605 0.950 . S
C617 C613 1.393 . S
C617 C616 1.391 . S
C618 H608 0.950 . S
C618 C619 1.386 1_655 S
C618 C620 1.391 . S
C619 C618 1.386 1_455 S
C619 C623 1.393 . S
C620 H609 0.950 . S
C620 C618 1.391 . S
C620 C621 1.400 . S
C621 C615 1.491 . S
C621 C620 1.400 . S
C621 C622 1.398 . S
C622 H610 0.950 . S
C622 C621 1.398 . S
C622 C623 1.391 1_655 S
C623 H611 0.950 . S
C623 C619 1.393 . S
C623 C622 1.391 1_455 S
H624 C632 0.950 . S
H625 C637 0.950 . S
H626 C634 0.950 . S
H627 C636 0.950 . S
H628 C638 0.950 . S
H629 C640 0.950 . S
H630 C642 0.950 . S
H631 C643 0.950 . S
C632 H624 0.950 . S
C632 C633 1.386 . S
C632 C634 1.391 . S
C633 C632 1.386 . S
C633 C637 1.393 . S
C634 H626 0.950 . S
C634 C632 1.391 . S
C634 C635 1.400 . S
C635 C634 1.400 . S
C635 C636 1.398 . S
C635 C641 1.491 . S
C636 H627 0.950 . S
C636 C635 1.398 . S
C636 C637 1.391 . S
C637 H625 0.950 . S
C637 C633 1.393 . S
C637 C636 1.391 . S
C638 H628 0.950 . S
C638 C639 1.386 . S
C638 C640 1.391 . S
C639 C638 1.386 . S
C639 C643 1.393 . S
C640 H629 0.950 . S
C640 C638 1.391 . S
C640 C641 1.400 . S
C641 C635 1.491 . S
C641 C640 1.400 . S
C641 C642 1.398 . S
C642 H630 0.950 . S
C642 C641 1.398 . S
C642 C643 1.391 . S
C643 H631 0.950 . S
C643 C639 1.393 . S
C643 C642 1.391 . S
H644 C652 0.950 . S
H645 C657 0.950 . S
H646 C654 0.950 . S
H647 C656 0.950 . S
H648 C658 0.950 . S
H649 C660 0.950 . S
H650 C662 0.950 . S
H651 C663 0.950 1_655 S
C652 H644 0.950 . S
C652 C653 1.386 . S
C652 C654 1.391 . S
C653 C652 1.386 . S
C653 C657 1.393 . S
C654 H646 0.950 . S
C654 C652 1.391 . S
C654 C655 1.400 . S
C655 C654 1.400 . S
C655 C656 1.398 . S
C655 C661 1.491 . S
C656 H647 0.950 . S
C656 C655 1.398 . S
C656 C657 1.391 . S
C657 H645 0.950 . S
C657 C653 1.393 . S
C657 C656 1.391 . S
C658 H648 0.950 . S
C658 C659 1.386 . S
C658 C660 1.391 1_655 S
C659 C658 1.386 . S
C659 C663 1.393 1_655 S
C660 H649 0.950 . S
C660 C658 1.391 1_455 S
C660 C661 1.400 . S
C661 C655 1.491 . S
C661 C660 1.400 . S
C661 C662 1.398 . S
C662 H650 0.950 . S
C662 C661 1.398 . S
C662 C663 1.391 . S
C663 H651 0.950 1_455 S
C663 C659 1.393 1_455 S
C663 C662 1.391 . S
C273 N5 0.339 . S
C279 N170 0.277 . S
C293 N203 0.278 . S
C299 N38 0.339 . S
C313 N236 0.329 . S
C319 N71 0.269 . S
C333 N137 0.273 . S
C339 N104 0.324 . S
C353 N113 1.411 . S
C359 C17 1.329 . S
C373 C50 1.296 . S
C379 N14 1.398 . S
C393 N47 1.409 . S
C399 C83 1.329 . S
C413 C116 1.327 . S
C419 N80 1.404 . S
C433 N179 1.390 . S
C439 C149 1.311 . S
C453 C182 1.306 . S
C459 N212 1.404 . S
C473 C215 1.311 . S
C479 N245 1.407 . S
C493 C248 1.324 . S
C499 N146 1.412 . S
C513 C226 1.957 . S
C519 C8 1.976 . S
C533 C259 1.955 . S
C539 C41 1.974 . S
C553 C74 1.976 . S
C559 C160 1.943 . S
C573 C107 1.972 . S
C579 C193 1.946 . S
C593 C140 1.972 . S
C599 C94 1.948 . S
C613 C127 1.946 . S
C619 C173 1.972 . S
C633 C206 1.972 . S
C639 C28 1.948 . S
C653 C61 1.956 . S
C659 C239 1.974 . S
