# Generated by pormake.
# Topology wjv, (5)-cn, num edge types: 1
# Building blocks:
#     Node 0, Type 0, BuildingBlock: XOMCOT_clean_sbu_0, # of connection points: 5
#     Node 1, Type 0, BuildingBlock: XOMCOT_clean_sbu_0, # of connection points: 5
#     Node 2, Type 0, BuildingBlock: XOMCOT_clean_sbu_0, # of connection points: 5
#     Node 3, Type 0, BuildingBlock: XOMCOT_clean_sbu_0, # of connection points: 5
#     Node 4, Type 0, BuildingBlock: XOMCOT_clean_sbu_0, # of connection points: 5
#     Node 5, Type 0, BuildingBlock: XOMCOT_clean_sbu_0, # of connection points: 5
#     Node 6, Type 0, BuildingBlock: XOMCOT_clean_sbu_0, # of connection points: 5
#     Node 7, Type 0, BuildingBlock: XOMCOT_clean_sbu_0, # of connection points: 5
#     Node 8, Type 0, BuildingBlock: XOMCOT_clean_sbu_0, # of connection points: 5
#     Node 9, Type 0, BuildingBlock: XOMCOT_clean_sbu_0, # of connection points: 5
#     Node 10, Type 0, BuildingBlock: XOMCOT_clean_sbu_0, # of connection points: 5
#     Node 11, Type 0, BuildingBlock: XOMCOT_clean_sbu_0, # of connection points: 5
#     Edge 12, Type (0, 0), BuildingBlock: XUDNAN_clean_linker_2, # of connection points: 2
#     Edge 13, Type (0, 0), BuildingBlock: XUDNAN_clean_linker_2, # of connection points: 2
#     Edge 14, Type (0, 0), BuildingBlock: XUDNAN_clean_linker_2, # of connection points: 2
#     Edge 15, Type (0, 0), BuildingBlock: XUDNAN_clean_linker_2, # of connection points: 2
#     Edge 16, Type (0, 0), BuildingBlock: XUDNAN_clean_linker_2, # of connection points: 2
#     Edge 17, Type (0, 0), BuildingBlock: XUDNAN_clean_linker_2, # of connection points: 2
#     Edge 18, Type (0, 0), BuildingBlock: XUDNAN_clean_linker_2, # of connection points: 2
#     Edge 19, Type (0, 0), BuildingBlock: XUDNAN_clean_linker_2, # of connection points: 2
#     Edge 20, Type (0, 0), BuildingBlock: XUDNAN_clean_linker_2, # of connection points: 2
#     Edge 21, Type (0, 0), BuildingBlock: XUDNAN_clean_linker_2, # of connection points: 2
#     Edge 22, Type (0, 0), BuildingBlock: XUDNAN_clean_linker_2, # of connection points: 2
#     Edge 23, Type (0, 0), BuildingBlock: XUDNAN_clean_linker_2, # of connection points: 2
#     Edge 24, Type (0, 0), BuildingBlock: XUDNAN_clean_linker_2, # of connection points: 2
#     Edge 25, Type (0, 0), BuildingBlock: XUDNAN_clean_linker_2, # of connection points: 2
#     Edge 26, Type (0, 0), BuildingBlock: XUDNAN_clean_linker_2, # of connection points: 2
#     Edge 27, Type (0, 0), BuildingBlock: XUDNAN_clean_linker_2, # of connection points: 2
#     Edge 28, Type (0, 0), BuildingBlock: XUDNAN_clean_linker_2, # of connection points: 2
#     Edge 29, Type (0, 0), BuildingBlock: XUDNAN_clean_linker_2, # of connection points: 2
#     Edge 30, Type (0, 0), BuildingBlock: XUDNAN_clean_linker_2, # of connection points: 2
#     Edge 31, Type (0, 0), BuildingBlock: XUDNAN_clean_linker_2, # of connection points: 2
#     Edge 32, Type (0, 0), BuildingBlock: XUDNAN_clean_linker_2, # of connection points: 2
#     Edge 33, Type (0, 0), BuildingBlock: XUDNAN_clean_linker_2, # of connection points: 2
#     Edge 34, Type (0, 0), BuildingBlock: XUDNAN_clean_linker_2, # of connection points: 2
#     Edge 35, Type (0, 0), BuildingBlock: XUDNAN_clean_linker_2, # of connection points: 2
#     Edge 36, Type (0, 0), BuildingBlock: XUDNAN_clean_linker_2, # of connection points: 2
#     Edge 37, Type (0, 0), BuildingBlock: XUDNAN_clean_linker_2, # of connection points: 2
#     Edge 38, Type (0, 0), BuildingBlock: XUDNAN_clean_linker_2, # of connection points: 2
#     Edge 39, Type (0, 0), BuildingBlock: XUDNAN_clean_linker_2, # of connection points: 2
#     Edge 40, Type (0, 0), BuildingBlock: XUDNAN_clean_linker_2, # of connection points: 2
#     Edge 41, Type (0, 0), BuildingBlock: XUDNAN_clean_linker_2, # of connection points: 2
# Relax obj value: 0.158
# Max RMSD: 0.187
# Mean RMSD: 0.187
data_MOF--net-wjv--node1-XOMCOT_clean_sbu_0--edge1-XUDNAN_clean_linker_2
_symmetry_space_group_name_H-M    P1
_symmetry_Int_Tables_number       1
_symmetry_cell_setting            triclinic
loop_
_symmetry_equiv_pos_as_xyz
'x, y, z'
_cell_length_a     37.299343
_cell_length_b     37.32993
_cell_length_c     50.705826
_cell_angle_alpha  90.061245
_cell_angle_beta   90.047851
_cell_angle_gamma 119.90255
loop_
_atom_site_label
_atom_site_type_symbol
_atom_site_fract_x
_atom_site_fract_y
_atom_site_fract_z
_atom_type_partial_charge
Co0 Co 0.2262 0.30178 0.18753 0.0
C1 C 0.19173 0.2935 0.13308 0.0
C2 C 0.2485 0.29225 0.13308 0.0
C3 C 0.23525 0.28941 0.10738 0.0
N4 N 0.22106 0.29452 0.1493 0.0
N5 N 0.19946 0.29014 0.10741 0.0
H6 H 0.16584 0.29647 0.13966 0.0
H7 H 0.27687 0.29371 0.13936 0.0
C8 C 0.27162 0.25503 0.2039 0.0
O9 O 0.27599 0.26626 0.22871 0.0
N10 N 0.23061 0.30991 0.22555 0.0
C11 C 0.24396 0.34677 0.23745 0.0
C12 C 0.24 0.34108 0.26427 0.0
C13 C 0.21672 0.28193 0.24538 0.0
N14 N 0.22337 0.30045 0.26922 0.0
C15 C 0.28331 0.38072 0.16434 0.0
C16 C 0.352 0.38972 0.19109 0.0
C17 C 0.35766 0.41808 0.17123 0.0
C18 C 0.32255 0.41381 0.15806 0.0
C19 C 0.31264 0.35736 0.1966 0.0
N20 N 0.27904 0.35215 0.18273 0.0
H21 H 0.2565 0.3771 0.15379 0.0
H22 H 0.30946 0.33627 0.21196 0.0
H23 H 0.2557 0.37593 0.22727 0.0
H24 H 0.20259 0.24887 0.2425 0.0
O25 O 0.18824 0.32332 0.18751 0.0
O26 O 0.17057 0.25737 0.19173 0.0
O27 O 0.25451 0.2674 0.18715 0.0
C28 C 0.15904 0.28495 0.19061 0.0
H29 H 0.25081 0.28689 0.09008 0.0
H30 H 0.24958 0.36505 0.27909 0.0
H31 H 0.37796 0.39138 0.20176 0.0
H32 H 0.3254 0.43542 0.14286 0.0
Co33 Co 0.92042 0.21051 0.52077 0.0
C34 C 0.89524 0.19987 0.46311 0.0
C35 C 0.9352 0.17613 0.47357 0.0
C36 C 0.92386 0.1664 0.4477 0.0
N37 N 0.91761 0.19732 0.48338 0.0
N38 N 0.89884 0.18131 0.44114 0.0
H39 H 0.87518 0.21284 0.4644 0.0
H40 H 0.95415 0.16723 0.48483 0.0
C41 C 0.00604 0.25752 0.50097 0.0
O42 O 0.99079 0.26894 0.48144 0.0
N43 N 0.92319 0.22191 0.5582 0.0
C44 C 0.90192 0.2371 0.57095 0.0
C45 C 0.91468 0.24436 0.59685 0.0
C46 C 0.94798 0.21922 0.5766 0.0
N47 N 0.94346 0.23302 0.60034 0.0
C48 C 0.89517 0.26964 0.50461 0.0
C49 C 0.96568 0.33734 0.52418 0.0
C50 C 0.93435 0.34302 0.51375 0.0
C51 C 0.89862 0.30889 0.50373 0.0
C52 C 0.96069 0.29813 0.52514 0.0
N53 N 0.92663 0.26485 0.51452 0.0
H54 H 0.86626 0.24297 0.49899 0.0
H55 H 0.98347 0.29445 0.53604 0.0
H56 H 0.87938 0.24337 0.56187 0.0
H57 H 0.96956 0.20848 0.57257 0.0
O58 O 0.86058 0.17661 0.52306 0.0
O59 O 0.90548 0.15458 0.52829 0.0
O60 O 0.98225 0.23422 0.5193 0.0
C61 C 0.86715 0.14589 0.52732 0.0
H62 H 0.93275 0.14908 0.43475 0.0
H63 H 0.90359 0.25685 0.61202 0.0
H64 H 0.99287 0.3628 0.53315 0.0
H65 H 0.87297 0.31214 0.4967 0.0
Co66 Co 0.69219 0.90811 0.85414 0.0
C67 C 0.69135 0.88938 0.79726 0.0
C68 C 0.74966 0.94055 0.80946 0.0
C69 C 0.75196 0.93317 0.78311 0.0
N70 N 0.71162 0.91326 0.81824 0.0
N71 N 0.71534 0.90089 0.77541 0.0
H72 H 0.66005 0.86363 0.79822 0.0
H73 H 0.77419 0.96395 0.82143 0.0
C74 C 0.72061 -0.00277 0.86663 0.0
O75 O 0.68344 0.98761 0.87477 0.0
N76 N 0.67431 0.90256 0.89083 0.0
C77 C 0.64421 0.86796 0.90232 0.0
C78 C 0.64635 0.87322 0.9292 0.0
C79 C 0.69538 0.92776 0.9113 0.0
N80 N 0.67858 0.9108 0.93485 0.0
C81 C 0.60701 0.89195 0.85054 0.0
C82 C 0.62578 0.95676 0.81646 0.0
C83 C 0.58613 0.93534 0.82731 0.0
C84 C 0.5765 0.90198 0.84414 0.0
C85 C 0.65543 0.94638 0.82381 0.0
N86 N 0.6466 0.91554 0.84163 0.0
H87 H 0.5986 0.86558 0.86286 0.0
H88 H 0.68634 0.96484 0.8161 0.0
H89 H 0.62367 0.83949 0.89218 0.0
H90 H 0.72427 0.95645 0.90931 0.0
O91 O 0.66836 0.84834 0.85126 0.0
O92 O 0.732 0.89287 0.86461 0.0
O93 O 0.72839 0.96936 0.85866 0.0
C94 C 0.70457 0.85493 0.85904 0.0
H95 H 0.77867 0.95048 0.77064 0.0
H96 H 0.62664 0.85042 0.94353 0.0
H97 H 0.63445 0.98266 0.80332 0.0
H98 H 0.54573 0.88394 0.85232 0.0
Co99 Co 0.78821 0.70812 0.18776 0.0
C100 C 0.8084 0.70354 0.13116 0.0
C101 C 0.82396 0.76462 0.14364 0.0
C102 C 0.83535 0.76633 0.11777 0.0
N103 N 0.8069 0.72536 0.15201 0.0
N104 N 0.82543 0.72792 0.10969 0.0
H105 H 0.79706 0.67066 0.1318 0.0
H106 H 0.82847 0.79042 0.15575 0.0
C107 C 0.7258 0.73525 0.19441 0.0
O108 O 0.70022 0.69877 0.20441 0.0
N109 N 0.77171 0.69389 0.22465 0.0
C110 C 0.76918 0.66273 0.23954 0.0
C111 C 0.76 0.6677 0.26524 0.0
C112 C 0.76716 0.71874 0.24212 0.0
N113 N 0.75833 0.70291 0.26676 0.0
C114 C 0.7209 0.62272 0.18385 0.0
C115 C 0.67662 0.63958 0.14697 0.0
C116 C 0.65764 0.60092 0.15919 0.0
C117 C 0.68073 0.59201 0.17717 0.0
C118 C 0.71633 0.66944 0.15458 0.0
N119 N 0.73699 0.66178 0.1741 0.0
H120 H 0.73849 0.61511 0.19715 0.0
H121 H 0.72944 0.69977 0.14583 0.0
H122 H 0.77545 0.63896 0.2328 0.0
H123 H 0.77201 0.74893 0.23709 0.0
O124 O 0.82335 0.68348 0.18973 0.0
O125 O 0.84203 0.74836 0.1999 0.0
O126 O 0.76218 0.74414 0.18725 0.0
C127 C 0.85244 0.72012 0.19702 0.0
H128 H 0.8507 0.79426 0.10616 0.0
H129 H 0.75536 0.64707 0.28148 0.0
H130 H 0.66003 0.64764 0.13282 0.0
H131 H 0.66754 0.56187 0.18633 0.0
Co132 Co 0.05705 0.77335 0.51744 0.0
C133 C 0.08466 0.78261 0.46102 0.0
C134 C 0.02462 0.77602 0.46542 0.0
C135 C 0.03662 0.78608 0.43977 0.0
N136 N 0.05398 0.77251 0.47891 0.0
N137 N 0.07462 0.79086 0.43697 0.0
H138 H 0.11514 0.78793 0.46599 0.0
H139 H -0.00211 0.77554 0.47397 0.0
C140 C 0.9688 0.71278 0.50677 0.0
O141 O 0.98217 0.69377 0.49119 0.0
N142 N 0.06041 0.77669 0.55568 0.0
C143 C 0.08964 0.77558 0.57066 0.0
C144 C 0.07792 0.77201 0.5967 0.0
C145 C 0.03172 0.77461 0.5728 0.0
N146 N 0.04122 0.77096 0.59812 0.0
C147 C 0.07508 0.70738 0.5038 0.0
C148 C 0.01933 0.6527 0.54008 0.0
C149 C 0.04028 0.63914 0.52374 0.0
C150 C 0.06864 0.66692 0.50534 0.0
C151 C 0.02643 0.69254 0.53787 0.0
N152 N 0.05312 0.7193 0.51951 0.0
H153 H 0.09739 0.72873 0.48998 0.0
H154 H 0.00857 0.70112 0.55037 0.0
H155 H 0.11633 0.77482 0.56305 0.0
H156 H 0.00355 0.77373 0.56664 0.0
O157 O 0.11645 0.80917 0.51574 0.0
O158 O 0.06996 0.82986 0.51618 0.0
O159 O 0.99467 0.74567 0.51909 0.0
C160 C 0.10864 0.83954 0.51524 0.0
H161 H 0.01969 0.79212 0.42475 0.0
H162 H 0.09408 0.76781 0.61306 0.0
H163 H -0.00361 0.63224 0.55414 0.0
H164 H 0.0857 0.65759 0.49247 0.0
Co165 Co 0.2896 0.07138 0.85555 0.0
C166 C 0.2985 0.09822 0.79944 0.0
C167 C 0.23578 0.05412 0.80986 0.0
C168 C 0.23632 0.06615 0.78419 0.0
N169 N 0.27465 0.07417 0.81939 0.0
N170 N 0.27567 0.0937 0.77767 0.0
H171 H 0.33148 0.11918 0.80101 0.0
H172 H 0.20878 0.03287 0.82104 0.0
C173 C 0.2592 0.98018 0.85991 0.0
O174 O 0.29511 0.98786 0.86947 0.0
N175 N 0.30243 0.06849 0.89263 0.0
C176 C 0.33157 0.09881 0.90779 0.0
C177 C 0.32661 0.08552 0.93358 0.0
C178 C 0.27873 0.03829 0.90992 0.0
N179 N 0.29335 0.04725 0.93493 0.0
C180 C 0.3749 0.08793 0.85426 0.0
C181 C 0.36051 0.02991 0.81561 0.0
C182 C 0.39863 0.0489 0.82865 0.0
C183 C 0.40613 0.07899 0.84779 0.0
C184 C 0.33002 0.03905 0.82306 0.0
N185 N 0.33653 0.06621 0.84313 0.0
H186 H 0.38168 0.11191 0.8684 0.0
H187 H 0.30022 0.02249 0.81348 0.0
H188 H 0.35389 0.12937 0.90102 0.0
H189 H 0.24991 0.01125 0.90462 0.0
O190 O 0.31403 0.13123 0.85798 0.0
O191 O 0.24884 0.08482 0.86678 0.0
O192 O 0.25253 0.00968 0.85417 0.0
C193 C 0.27695 0.12346 0.86451 0.0
H194 H 0.20981 0.05552 0.77125 0.0
H195 H 0.3458 0.10316 0.95004 0.0
H196 H 0.35354 0.00666 0.80059 0.0
H197 H 0.43577 0.09529 0.85771 0.0
Co198 Co 0.6865 0.77811 0.51637 0.0
C199 C 0.68371 0.7905 0.57423 0.0
C200 C 0.74022 0.79351 0.56197 0.0
C201 C 0.74296 0.80226 0.58842 0.0
N202 N 0.70303 0.78575 0.5531 0.0
N203 N 0.70763 0.80079 0.59618 0.0
H204 H 0.65377 0.78844 0.57322 0.0
H205 H 0.76456 0.79473 0.54983 0.0
C206 C 0.71058 0.71536 0.50002 0.0
O207 O 0.67461 0.69257 0.48845 0.0
N208 N 0.67201 0.77265 0.47887 0.0
C209 C 0.64445 0.78139 0.46757 0.0
C210 C 0.64725 0.7801 0.44063 0.0
C211 C 0.69264 0.76824 0.45821 0.0
N212 N 0.67756 0.77181 0.43469 0.0
C213 C 0.5999 0.71359 0.51425 0.0
C214 C 0.61173 0.65666 0.54213 0.0
C215 C 0.57516 0.6429 0.52774 0.0
C216 C 0.56847 0.67221 0.51477 0.0
C217 C 0.64253 0.69808 0.54066 0.0
N218 N 0.63768 0.72528 0.52505 0.0
H219 H 0.59418 0.73556 0.50423 0.0
H220 H 0.67177 0.70732 0.55022 0.0
H221 H 0.62487 0.79031 0.47801 0.0
H222 H 0.71983 0.76517 0.46013 0.0
O223 O 0.66575 0.81629 0.52124 0.0
O224 O 0.72975 0.83324 0.50975 0.0
O225 O 0.71958 0.74979 0.51076 0.0
C226 C 0.70345 0.84514 0.51575 0.0
H227 H 0.76951 0.81001 0.60078 0.0
H228 H 0.62895 0.78585 0.42649 0.0
H229 H 0.61795 0.63508 0.55265 0.0
H230 H 0.53988 0.66292 0.50422 0.0
Co231 Co 0.91047 0.69323 0.84979 0.0
C232 C 0.89739 0.69349 0.90755 0.0
C233 C 0.94403 0.75278 0.89319 0.0
C234 C 0.93781 0.75646 0.91954 0.0
N235 N 0.91876 0.71337 0.88571 0.0
N236 N 0.90848 0.71925 0.92853 0.0
H237 H 0.87312 0.66143 0.90778 0.0
H238 H 0.96454 0.77746 0.88016 0.0
C239 C -0.00164 0.72252 0.83365 0.0
O240 O 0.98803 0.6854 0.82502 0.0
N241 N 0.90169 0.67488 0.81308 0.0
C242 C 0.86632 0.64415 0.80265 0.0
C243 C 0.86865 0.64636 0.77562 0.0
C244 C 0.92431 0.6964 0.79188 0.0
N245 N 0.90507 0.67932 0.76882 0.0
C246 C 0.89523 0.60837 0.85305 0.0
C247 C 0.96268 0.62811 0.88508 0.0
C248 C 0.93973 0.58787 0.87529 0.0
C249 C 0.90529 0.57786 0.85934 0.0
C250 C 0.95225 0.65777 0.8778 0.0
N251 N 0.91976 0.64831 0.86116 0.0
H252 H 0.8678 0.59956 0.84168 0.0
H253 H 0.97146 0.68897 0.88492 0.0
H254 H 0.83911 0.62319 0.81371 0.0
H255 H 0.95268 0.72575 0.79316 0.0
O256 O 0.85093 0.66861 0.8549 0.0
O257 O 0.89356 0.73235 0.84088 0.0
O258 O 0.97119 0.73007 0.84326 0.0
C259 C 0.85639 0.70461 0.84776 0.0
H260 H 0.95327 0.78453 0.93114 0.0
H261 H 0.84457 0.62617 0.76205 0.0
H262 H 0.98936 0.63696 0.89761 0.0
H263 H 0.88615 0.54667 0.85201 0.0
Co264 Co 0.22022 0.91705 0.18798 0.0
C265 C 0.20592 0.90171 0.24524 0.0
C266 C 0.19953 0.9533 0.23294 0.0
C267 C 0.19057 0.94666 0.25941 0.0
N268 N 0.20928 0.9252 0.22414 0.0
N269 N 0.19437 0.91408 0.26714 0.0
H270 H 0.21025 0.87515 0.24426 0.0
H271 H 0.19802 0.97635 0.22084 0.0
C272 C 0.27934 0.00396 0.17074 0.0
O273 O 0.30318 0.9921 0.15914 0.0
N274 N 0.22905 0.90785 0.15116 0.0
C275 C 0.22462 0.87235 0.14107 0.0
C276 C 0.22597 0.87463 0.11406 0.0
C277 C 0.23093 0.9304 0.12968 0.0
N278 N 0.22995 0.91113 0.10685 0.0
C279 C 0.28918 0.90034 0.19093 0.0
C280 C 0.3384 0.96968 0.22108 0.0
C281 C 0.35566 0.94697 0.21079 0.0
C282 C 0.33036 0.9113 0.19604 0.0
C283 C 0.29771 0.95825 0.21505 0.0
N284 N 0.27404 0.92513 0.19906 0.0
H285 H 0.27007 0.87235 0.18022 0.0
H286 H 0.28593 0.97758 0.22233 0.0
H287 H 0.21808 0.84522 0.15234 0.0
H288 H 0.23036 0.95905 0.13054 0.0
O289 O 0.18398 0.85769 0.19285 0.0
O290 O 0.16479 0.9021 0.17922 0.0
O291 O 0.24567 0.97799 0.18192 0.0
C292 C 0.15419 0.86454 0.18587 0.0
H293 H 0.18142 0.96426 0.27188 0.0
H294 H 0.22303 0.85065 0.10072 0.0
H295 H 0.35682 -0.0026 0.23262 0.0
H296 H 0.34242 0.89233 0.18835 0.0
Co297 Co 0.29359 0.20813 0.51792 0.0
C298 C 0.30353 0.19585 0.5755 0.0
C299 C 0.24355 0.18627 0.56501 0.0
C300 C 0.24357 0.17853 0.59137 0.0
N301 N 0.28101 0.19732 0.55503 0.0
N302 N 0.28128 0.1847 0.59821 0.0
H303 H 0.33521 0.20262 0.57372 0.0
H304 H 0.21751 0.18295 0.55365 0.0
C305 C 0.2724 0.27456 0.50815 0.0
O306 O 0.3074 0.29614 0.49535 0.0
N307 N 0.30251 0.21681 0.47986 0.0
C308 C 0.32909 0.21247 0.46389 0.0
C309 C 0.32073 0.21728 0.43798 0.0
C310 C 0.2766 0.22094 0.46309 0.0
N311 N 0.28778 0.223 0.43757 0.0
C312 C 0.38094 0.2689 0.51391 0.0
C313 C 0.37594 0.32701 0.54516 0.0
C314 C 0.41031 0.3397 0.52873 0.0
C315 C 0.41379 0.30961 0.51417 0.0
C316 C 0.34365 0.28617 0.54395 0.0
N317 N 0.34486 0.25878 0.52653 0.0
H318 H 0.38398 0.24619 0.50265 0.0
H319 H 0.31596 0.27776 0.55519 0.0
H320 H 0.35171 0.20426 0.47019 0.0
H321 H 0.24869 0.22042 0.46934 0.0
O322 O 0.31251 0.16823 0.51724 0.0
O323 O 0.24805 0.15447 0.51032 0.0
O324 O 0.2626 0.2393 0.51787 0.0
C325 C 0.274 0.14094 0.51228 0.0
H326 H 0.21705 0.16771 0.60421 0.0
H327 H 0.33745 0.21618 0.42086 0.0
H328 H 0.37229 0.34909 0.55706 0.0
H329 H 0.44078 0.3179 0.50211 0.0
Co330 Co 0.07 0.28432 0.85667 0.0
C331 C 0.08475 0.28508 0.91471 0.0
C332 C 0.03397 0.22751 0.90101 0.0
C333 C 0.03759 0.22491 0.92777 0.0
N334 N 0.06302 0.26535 0.89285 0.0
N335 N 0.06943 0.26095 0.93634 0.0
H336 H 0.11053 0.31642 0.91488 0.0
H337 H 0.01162 0.20331 0.88836 0.0
C338 C 0.98125 0.25502 0.84207 0.0
O339 O 0.99121 0.29162 0.83268 0.0
N340 N 0.07643 0.30074 0.81962 0.0
C341 C 0.10891 0.33292 0.80769 0.0
C342 C 0.10232 0.33014 0.78081 0.0
C343 C 0.05212 0.2774 0.79946 0.0
N344 N 0.06667 0.29513 0.77578 0.0
C345 C 0.08732 0.36983 0.85983 0.0
C346 C 0.01945 0.35181 0.89085 0.0
C347 C 0.04276 0.39161 0.88051 0.0
C348 C 0.07761 0.40085 0.86526 0.0
C349 C 0.02959 0.32162 0.8844 0.0
N350 N 0.06191 0.33009 0.86789 0.0
H351 H 0.11522 0.37807 0.84923 0.0
H352 H 0.01017 0.29077 0.89191 0.0
H353 H 0.13697 0.35549 0.81736 0.0
H354 H 0.02499 0.24728 0.80185 0.0
O355 O 0.12969 0.30882 0.86055 0.0
O356 O 0.08604 0.24453 0.8478 0.0
O357 O 0.00889 0.24785 0.85133 0.0
C358 C 0.12363 0.27242 0.85386 0.0
H359 H 0.0186 0.19836 0.94003 0.0
H360 H 0.12323 0.35089 0.766 0.0
H361 H 0.99261 0.34363 0.90303 0.0
H362 H 0.09726 0.43178 0.85775 0.0
Co363 Co 0.789 0.08493 0.18036 0.0
C364 C 0.79954 0.10786 0.23855 0.0
C365 C 0.80522 0.05502 0.22915 0.0
C366 C 0.81294 0.0631 0.25548 0.0
N367 N 0.79538 0.08204 0.21842 0.0
N368 N 0.80916 0.0962 0.26161 0.0
H369 H 0.79782 0.13564 0.23636 0.0
H370 H 0.80852 0.03191 0.21827 0.0
C371 C 0.73104 -0.00287 0.1939 0.0
O372 O 0.71612 0.01066 0.21243 0.0
N373 N 0.78453 0.08671 0.14242 0.0
C374 C 0.77775 0.11299 0.12798 0.0
C375 C 0.77009 0.09898 0.10222 0.0
C376 C 0.78165 0.05767 0.12536 0.0
N377 N 0.77215 0.06389 0.10066 0.0
C378 C 0.73044 0.1098 0.19897 0.0
C379 C 0.66308 0.04579 0.17385 0.0
C380 C 0.65612 0.06963 0.19226 0.0
C381 C 0.69064 0.10318 0.20411 0.0
C382 C 0.70307 0.0535 0.16939 0.0
N383 N 0.73579 0.08288 0.18355 0.0
H384 H 0.75667 0.13638 0.20739 0.0
H385 H 0.70729 0.03392 0.15554 0.0
H386 H 0.77616 0.13908 0.13589 0.0
H387 H 0.78501 0.03167 0.13122 0.0
O388 O 0.82704 0.14419 0.18123 0.0
O389 O 0.84462 0.09582 0.17658 0.0
O390 O 0.76012 0.02267 0.17888 0.0
C391 C 0.85624 0.13482 0.1787 0.0
H392 H 0.82278 0.04696 0.26873 0.0
H393 H 0.76128 0.11231 0.0863 0.0
H394 H 0.63776 0.01985 0.16386 0.0
H395 H 0.68693 0.1238 0.21742 0.0
H396 H 0.29414 0.20775 0.38523 0.0
H397 H 0.23968 0.25881 0.43841 0.0
H398 H 0.20977 0.27566 0.40066 0.0
H399 H 0.3241 0.28499 0.33677 0.0
H400 H 0.3132 0.25084 0.309 0.0
H401 H 0.32665 0.23826 0.34037 0.0
H402 H 0.25886 0.16749 0.33972 0.0
H403 H 0.24514 0.18009 0.30837 0.0
H404 H 0.20999 0.16581 0.33583 0.0
H405 H 0.19164 0.29388 0.35759 0.0
H406 H 0.18788 0.31331 0.31145 0.0
H407 H 0.2527 0.2506 0.28529 0.0
C408 C 0.27562 0.22208 0.38902 0.0
C409 C 0.26894 0.23123 0.4151 0.0
C410 C 0.24458 0.25032 0.41891 0.0
C411 C 0.22748 0.26026 0.39748 0.0
C412 C 0.23476 0.25096 0.37217 0.0
C413 C 0.25822 0.2323 0.36776 0.0
C414 C 0.2636 0.22834 0.33838 0.0
C415 C 0.30961 0.25203 0.33069 0.0
C416 C 0.24317 0.18271 0.33009 0.0
C417 C 0.24045 0.24872 0.32709 0.0
C418 C 0.22376 0.26117 0.347 0.0
C419 C 0.20386 0.28361 0.34179 0.0
C420 C 0.20178 0.29446 0.31561 0.0
C421 C 0.21919 0.28268 0.29495 0.0
C422 C 0.23797 0.25874 0.30071 0.0
H423 H 0.97905 0.29845 0.63342 0.0
H424 H 0.9549 0.17341 0.62217 0.0
H425 H 0.98503 0.17559 0.66627 0.0
H426 H 0.07864 0.3359 0.6672 0.0
H427 H 0.07052 0.36966 0.68873 0.0
H428 H 0.0479 0.35802 0.65623 0.0
H429 H 0.97551 0.33249 0.67666 0.0
H430 H -0.00219 0.34372 0.70921 0.0
H431 H 0.9565 0.29249 0.70136 0.0
H432 H 0.0114 0.18973 0.71367 0.0
H433 H 0.04052 0.21771 0.75793 0.0
H434 H 0.05317 0.33558 0.73634 0.0
C435 C 0.98055 0.27175 0.64024 0.0
C436 C 0.96461 0.23565 0.62464 0.0
C437 C 0.96724 0.20133 0.63391 0.0
C438 C 0.98407 0.20229 0.65892 0.0
C439 C -0.00108 0.2382 0.67408 0.0
C440 C -0.00185 0.27263 0.66481 0.0
C441 C 0.0167 0.30764 0.68469 0.0
C442 C 0.05576 0.34501 0.67354 0.0
C443 C 0.98471 0.31978 0.69349 0.0
C444 C 0.02723 0.28733 0.70688 0.0
C445 C 0.01633 0.2471 0.70053 0.0
C446 C 0.0207 0.22139 0.71863 0.0
C447 C 0.03699 0.23736 0.7437 0.0
C448 C 0.04938 0.27879 0.75024 0.0
C449 C 0.04453 0.30402 0.73153 0.0
H450 H 0.71604 0.9914 0.9505 0.0
H451 H 0.67596 0.86715 0.9781 0.0
H452 H 0.69888 0.89384 0.02309 0.0
H453 H 0.80751 0.04432 0.9933 0.0
H454 H 0.80044 0.08806 0.99904 0.0
H455 H 0.7832 0.05968 0.96851 0.0
H456 H 0.70948 0.04768 0.97666 0.0
H457 H 0.72642 0.07588 1.00723 0.0
H458 H 0.68323 0.02384 1.00698 0.0
H459 H 0.72292 0.9328 0.06523 0.0
H460 H 0.74551 0.98138 0.10235 0.0
H461 H 0.77131 0.0817 0.04831 0.0
C462 C 0.7127 0.97001 0.96598 0.0
C463 C 0.69407 0.92714 0.9608 0.0
C464 C 0.68962 0.89998 0.98165 0.0
C465 C 0.70282 0.9149 1.00725 0.0
C466 C 0.72046 0.95714 1.0118 0.0
C467 C 0.72548 0.98441 0.99182 0.0
C468 C 0.74373 0.02813 1.00246 0.0
C469 C 0.78625 0.05673 0.99009 0.0
C470 C 0.71393 0.04485 0.99807 0.0
C471 C 0.74765 0.02096 0.03154 0.0
C472 C 0.73433 0.97981 0.03637 0.0
C473 C 0.73387 0.96522 0.06168 0.0
C474 C 0.74711 0.99332 0.08271 0.0
C475 C 0.76071 0.03579 0.07848 0.0
C476 C 0.76109 0.04959 0.05238 0.0
H477 H 0.75817 0.68381 0.31926 0.0
H478 H 0.73306 0.7599 0.26596 0.0
H479 H 0.71438 0.78838 0.30358 0.0
H480 H 0.67251 0.65839 0.36214 0.0
H481 H 0.69957 0.65967 0.39191 0.0
H482 H 0.71398 0.64679 0.36094 0.0
H483 H 0.78945 0.70572 0.36778 0.0
H484 H 0.77519 0.71883 0.39875 0.0
H485 H 0.79965 0.75764 0.37357 0.0
H486 H 0.69586 0.80733 0.34621 0.0
H487 H 0.67663 0.81406 0.39159 0.0
H488 H 0.71078 0.7247 0.41832 0.0
C489 C 0.74891 0.70653 0.31541 0.0
C490 C 0.74798 0.71992 0.28934 0.0
C491 C 0.73536 0.7497 0.28552 0.0
C492 C 0.72432 0.76601 0.30685 0.0
C493 C 0.7257 0.75226 0.33212 0.0
C494 C 0.7375 0.72312 0.33659 0.0
C495 C 0.73452 0.71259 0.36578 0.0
C496 C 0.70328 0.66663 0.37046 0.0
C497 C 0.77725 0.72441 0.37714 0.0
C498 C 0.71883 0.74011 0.37684 0.0
C499 C 0.71423 0.76283 0.35699 0.0
C500 C 0.69931 0.78971 0.36194 0.0
C501 C 0.68821 0.79314 0.38781 0.0
C502 C 0.6919 0.76976 0.40856 0.0
C503 C 0.708 0.74329 0.40296 0.0
H504 H 0.06422 0.77636 0.64999 0.0
H505 H 0.95788 0.742 0.59923 0.0
H506 H 0.91269 0.71976 0.63805 0.0
H507 H 0.01482 0.69024 0.69214 0.0
H508 H 0.04036 0.71802 0.72177 0.0
H509 H 0.06544 0.73555 0.69033 0.0
H510 H 0.07346 0.80765 0.6987 0.0
H511 H 0.04844 0.79035 0.73024 0.0
H512 H 0.02841 0.81168 0.70639 0.0
H513 H 0.87784 0.69577 0.68176 0.0
H514 H 0.8561 0.67298 0.72745 0.0
H515 H 0.98414 0.72084 0.75026 0.0
C516 C 0.03152 0.76444 0.64689 0.0
C517 C 0.01503 0.76121 0.6212 0.0
C518 C 0.97186 0.74559 0.61844 0.0
C519 C 0.94569 0.73258 0.64048 0.0
C520 C 0.96293 0.73538 0.6653 0.0
C521 C 0.00487 0.7511 0.66868 0.0
C522 C 0.01518 0.74876 0.6974 0.0
C523 C 0.03512 0.72152 0.70058 0.0
C524 C 0.04302 0.7922 0.70885 0.0
C525 C 0.97234 0.72852 0.70952 0.0
C526 C 0.94273 0.72132 0.69064 0.0
C527 C 0.90078 0.70147 0.69674 0.0
C528 C 0.8887 0.68833 0.72274 0.0
C529 C 0.91837 0.69495 0.74246 0.0
C530 C 0.96081 0.71581 0.73571 0.0
H531 H 0.30912 0.07034 0.98708 0.0
H532 H 0.24027 0.96412 0.93574 0.0
H533 H 0.21304 0.91931 0.97454 0.0
H534 H 0.33921 0.0185 0.0334 0.0
H535 H 0.33479 0.04509 0.06182 0.0
H536 H 0.34675 0.06989 0.03006 0.0
H537 H 0.28375 0.08104 0.03402 0.0
H538 H 0.27157 0.05613 0.06579 0.0
H539 H 0.23314 0.0373 0.03999 0.0
H540 H 0.19555 0.88497 1.01838 0.0
H541 H 0.1902 0.86308 0.06469 0.0
H542 H 0.27149 0.99031 0.08839 0.0
C543 C 0.28828 0.03774 0.98385 0.0
C544 C 0.27667 0.02119 0.95801 0.0
C545 C 0.24915 0.97812 0.95506 0.0
C546 C 0.23357 0.95218 0.97708 0.0
C547 C 0.24574 0.96951 1.00209 0.0
C548 C 0.27251 0.01124 1.00567 0.0
C549 C 0.28199 0.02151 0.03477 0.0
C550 C 0.32844 0.03982 0.04033 0.0
C551 C 0.26669 0.05073 0.04419 0.0
C552 C 0.25675 0.97889 0.04689 0.0
C553 C 0.23593 0.94947 0.02761 0.0
C554 C 0.21163 0.90773 0.03365 0.0
C555 C 0.20898 0.89556 0.06003 0.0
C556 C 0.23056 0.92491 0.08018 0.0
C557 C 0.25426 0.96725 0.07347 0.0
H558 H 0.14812 0.29484 0.9549 0.0
H559 H 0.02065 0.24613 0.97853 0.0
H560 H 0.04126 0.253 0.02541 0.0
H561 H 0.17155 0.24143 1.00235 0.0
H562 H 0.22371 0.28214 1.00871 0.0
H563 H 0.20027 0.27882 0.97709 0.0
H564 H 0.21464 0.35389 0.98216 0.0
H565 H 0.23856 0.35762 1.01371 0.0
H566 H 0.19645 0.36809 1.01108 0.0
H567 H 0.0741 0.25897 0.0691 0.0
H568 H 0.11722 0.26448 0.10728 0.0
H569 H 0.22434 0.30923 0.05604 0.0
C570 C 0.12495 0.28686 0.97006 0.0
C571 C 0.08288 0.27041 0.9633 0.0
C572 C 0.05301 0.25895 0.9835 0.0
C573 C 0.06444 0.26281 1.0101 0.0
C574 C 0.10596 0.27802 1.01621 0.0
C575 C 0.13587 0.29006 0.99684 0.0
C576 C 0.17775 0.30238 1.00886 0.0
C577 C 0.19427 0.27452 0.99864 0.0
C578 C 0.20868 0.34823 1.00364 0.0
C579 C 0.16646 0.29465 0.03787 0.0
C580 C 0.12496 0.28097 0.04163 0.0
C581 C 0.1068 0.27027 0.06648 0.0
C582 C 0.1317 0.27369 0.08813 0.0
C583 C 0.17444 0.28764 0.08491 0.0
C584 C 0.19186 0.29833 0.05931 0.0
H585 H 0.80642 0.06063 0.3088 0.0
H586 H 0.82921 0.17588 0.27334 0.0
H587 H 0.84693 0.20907 0.31733 0.0
H588 H 0.76599 0.07135 0.37198 0.0
H589 H 0.79193 0.04912 0.38988 0.0
H590 H 0.77551 0.03349 0.35634 0.0
H591 H 0.85042 0.05329 0.34345 0.0
H592 H 0.86699 0.06881 0.37688 0.0
H593 H 0.89212 0.10477 0.3503 0.0
H594 H 0.86768 0.2308 0.36576 0.0
H595 H 0.89314 0.2392 0.41201 0.0
H596 H 0.86035 0.11056 0.41347 0.0
C597 C 0.81503 0.09284 0.31004 0.0
C598 C 0.81656 0.11552 0.28733 0.0
C599 C 0.82734 0.15752 0.29031 0.0
C600 C 0.83755 0.17671 0.31529 0.0
C601 C 0.83673 0.15349 0.3371 0.0
C602 C 0.82574 0.11241 0.33456 0.0
C603 C 0.83051 0.09475 0.36026 0.0
C604 C 0.78848 0.06014 0.3702 0.0
C605 C 0.86188 0.07954 0.35755 0.0
C606 C 0.84697 0.13254 0.37767 0.0
C607 C 0.84963 0.16604 0.36427 0.0
C608 C 0.86538 0.20464 0.37642 0.0
C609 C 0.87957 0.20916 0.40264 0.0
C610 C 0.87861 0.1755 0.41608 0.0
C611 C 0.86136 0.1367 0.40353 0.0
H612 H 0.76889 0.90509 0.73745 0.0
H613 H 0.63824 0.85377 0.7542 0.0
H614 H 0.62121 0.82198 0.70983 0.0
H615 H 0.76418 0.93077 0.66973 0.0
H616 H 0.80259 0.918 0.65918 0.0
H617 H 0.80386 0.93597 0.69232 0.0
H618 H 0.80175 0.87014 0.71071 0.0
H619 H 0.80032 0.85191 0.67763 0.0
H620 H 0.76048 0.81999 0.7008 0.0
H621 H 0.6191 0.79572 0.66271 0.0
H622 H 0.63231 0.77745 0.6182 0.0
H623 H 0.76437 0.84917 0.63305 0.0
C624 C 0.73665 0.88762 0.73186 0.0
C625 C 0.70497 0.88214 0.7495 0.0
C626 C 0.66315 0.85816 0.74127 0.0
C627 C 0.65316 0.84015 0.716 0.0
C628 C 0.68531 0.84642 0.69914 0.0
C629 C 0.7262 0.86967 0.70681 0.0
C630 C 0.75518 0.87197 0.68521 0.0
C631 C 0.78309 0.91684 0.67607 0.0
C632 C 0.78093 0.85232 0.69413 0.0
C633 C 0.72429 0.84628 0.66413 0.0
C634 C 0.68411 0.83173 0.67239 0.0
C635 C 0.65051 0.80709 0.65607 0.0
C636 C 0.65831 0.79702 0.63074 0.0
C637 C 0.69938 0.81155 0.62199 0.0
C638 C 0.73256 0.83674 0.63906 0.0
H639 H 0.8956 0.77019 0.96003 0.0
H640 H 0.8821 0.64814 0.95619 0.0
H641 H 0.85619 0.6349 1.00229 0.0
H642 H 0.93182 0.79369 0.02553 0.0
H643 H 0.90414 0.82053 0.0331 0.0
H644 H 0.91953 0.81897 0.99969 0.0
H645 H 0.84346 0.78768 0.98415 0.0
H646 H 0.82786 0.78932 1.01753 0.0
H647 H 0.80375 0.74125 0.99952 0.0
H648 H 0.83635 0.63798 0.0505 0.0
H649 H 0.82172 0.65544 0.09469 0.0
H650 H 0.84549 0.77435 0.06475 0.0
C651 C 0.88718 0.74066 0.96888 0.0
C652 C 0.89113 0.71027 0.95469 0.0
C653 C 0.87909 0.67172 0.96676 0.0
C654 C 0.86452 0.66405 0.99292 0.0
C655 C 0.86161 0.69506 1.00651 0.0
C656 C 0.8722 0.7324 0.9947 0.0
C657 C 0.86666 0.76089 1.01333 0.0
C658 C 0.908 0.80087 1.0182 0.0
C659 C 0.83345 0.77032 1.00302 0.0
C660 C 0.85215 0.73421 0.03776 0.0
C661 C 0.84935 0.69634 0.03358 0.0
C662 C 0.83804 0.66742 0.05384 0.0
C663 C 0.82964 0.67764 0.07896 0.0
C664 C 0.83249 0.71649 0.08367 0.0
C665 C 0.84342 0.74463 0.06242 0.0
H666 H 0.07451 0.84654 0.40287 0.0
H667 H 0.13386 0.77442 0.41922 0.0
H668 H 0.17439 0.80047 0.37779 0.0
H669 H 0.06219 0.82793 0.33449 0.0
H670 H 0.0717 0.87894 0.3264 0.0
H671 H 0.05028 0.85676 0.358 0.0
H672 H 0.11016 0.92025 0.3814 0.0
H673 H 0.13176 0.94269 0.34984 0.0
H674 H 0.16293 0.93492 0.37382 0.0
H675 H 0.20478 0.83187 0.33234 0.0
H676 H 0.22373 0.86688 0.28898 0.0
H677 H 0.14205 0.91623 0.30356 0.0
C678 C 0.09592 0.83603 0.39781 0.0
C679 C 0.10071 0.80802 0.41412 0.0
C680 C 0.12986 0.79595 0.40701 0.0
C681 C 0.15282 0.81049 0.38351 0.0
C682 C 0.14646 0.83736 0.36756 0.0
C683 C 0.11888 0.85018 0.37464 0.0
C684 C 0.11652 0.87823 0.35409 0.0
C685 C 0.07257 0.85932 0.34257 0.0
C686 C 0.13123 0.92159 0.36547 0.0
C687 C 0.14665 0.87887 0.33396 0.0
C688 C 0.16382 0.85531 0.34199 0.0
C689 C 0.19163 0.85056 0.32602 0.0
C690 C 0.20202 0.87036 0.30132 0.0
C691 C 0.18461 0.89459 0.29278 0.0
C692 C 0.15667 0.89876 0.30954 0.0
H693 H 0.238 0.12575 0.74876 0.0
H694 H 0.34325 0.10664 0.74987 0.0
H695 H 0.36099 0.1339 0.70413 0.0
H696 H 0.20668 0.09425 0.68455 0.0
H697 H 0.19173 0.13234 0.67758 0.0
H698 H 0.19046 0.11538 0.71091 0.0
H699 H 0.23868 0.19114 0.72581 0.0
H700 H 0.23986 0.20841 0.69249 0.0
H701 H 0.28751 0.22197 0.70938 0.0
H702 H 0.36095 0.15545 0.65576 0.0
H703 H 0.34575 0.17254 0.61148 0.0
H704 H 0.24347 0.18192 0.64466 0.0
C705 C 0.26516 0.12797 0.73947 0.0
C706 C 0.28927 0.11412 0.75263 0.0
C707 C 0.32469 0.11751 0.74005 0.0
C708 C 0.33482 0.13279 0.71411 0.0
C709 C 0.30966 0.1453 0.70138 0.0
C710 C 0.27598 0.14371 0.71394 0.0
C711 C 0.25285 0.15752 0.696 0.0
C712 C 0.20779 0.1228 0.69203 0.0
C713 C 0.25487 0.19712 0.70655 0.0
C714 C 0.27779 0.16581 0.67101 0.0
C715 C 0.31051 0.15877 0.67431 0.0
C716 C 0.33581 0.16174 0.65315 0.0
C717 C 0.327 0.1716 0.62801 0.0
C718 C 0.29315 0.17838 0.62425 0.0
C719 C 0.26916 0.17637 0.64639 0.0
H720 H 0.59879 0.56163 0.19679 0.0
H721 H 0.61575 0.57671 0.11213 0.0
H722 H 0.53994 0.5343 0.10571 0.0
H723 H 0.51424 0.45632 0.19634 0.0
H724 H 0.48821 0.46464 0.22357 0.0
H725 H 0.54364 0.49485 0.22096 0.0
H726 H 0.53922 0.56196 0.22296 0.0
H727 H 0.4837 0.53192 0.22517 0.0
H728 H 0.50756 0.5697 0.19935 0.0
H729 H 0.46179 0.48981 0.10893 0.0
H730 H 0.38858 0.44444 0.12139 0.0
H731 H 0.42374 0.46294 0.20405 0.0
C732 C 0.58659 0.55532 0.17688 0.0
C733 C 0.61301 0.57195 0.15492 0.0
C734 C 0.59589 0.56402 0.12918 0.0
C735 C 0.55296 0.54013 0.12538 0.0
C736 C 0.52767 0.52484 0.14753 0.0
C737 C 0.54392 0.53206 0.17276 0.0
C738 C 0.51022 0.51286 0.19331 0.0
C739 C 0.51433 0.48023 0.20949 0.0
C740 C 0.51019 0.5461 0.21125 0.0
C741 C 0.47244 0.49322 0.17572 0.0
C742 C 0.483 0.50049 0.14938 0.0
C743 C 0.45316 0.48415 0.12952 0.0
C744 C 0.41159 0.45874 0.13679 0.0
C745 C 0.40033 0.45001 0.16369 0.0
C746 C 0.43126 0.46857 0.18329 0.0
H747 H 0.95339 0.40465 0.47744 0.0
H748 H 0.92715 0.37304 0.56012 0.0
H749 H 0.95534 0.44653 0.57125 0.0
H750 H 0.04669 0.49496 0.48497 0.0
H751 H 0.03937 0.52506 0.45999 0.0
H752 H 0.01313 0.46959 0.45725 0.0
H753 H 0.9421 0.46608 0.45459 0.0
H754 H 0.96823 0.52168 0.4563 0.0
H755 H 0.92809 0.49113 0.47967 0.0
H756 H -0.00273 0.52181 0.57448 0.0
H757 H 0.03201 0.59714 0.56911 0.0
H758 H 0.02511 0.58241 0.48394 0.0
C759 C 0.95191 0.41327 0.49765 0.0
C760 C 0.93781 0.38354 0.51799 0.0
C761 C 0.93731 0.39561 0.54436 0.0
C762 C 0.95372 0.4372 0.55087 0.0
C763 C 0.9697 0.46612 0.53066 0.0
C764 C 0.96744 0.45488 0.50447 0.0
C765 C 0.9869 0.49281 0.48685 0.0
C766 C 0.0237 0.49575 0.47135 0.0
C767 C 0.95439 0.49294 0.46826 0.0
C768 C 0.00125 0.52688 0.50738 0.0
C769 C 0.99169 0.51047 0.53249 0.0
C770 C 0.00374 0.53514 0.55492 0.0
C771 C 0.02365 0.57787 0.55164 0.0
C772 C 0.0302 0.59554 0.52613 0.0
C773 C 0.02033 0.56978 0.50367 0.0
H774 H 0.43817 0.02544 0.86423 0.0
H775 H 0.42647 0.04059 0.78045 0.0
H776 H 0.47225 0.01189 0.77086 0.0
H777 H 0.54585 0.05041 0.86352 0.0
H778 H 0.53779 0.01208 0.88796 0.0
H779 H 0.506 0.03587 0.88805 0.0
H780 H 0.4404 0.96343 0.88567 0.0
H781 H 0.472 0.93944 0.8852 0.0
H782 H 0.435 0.92878 0.8592 0.0
H783 H 0.51887 0.98118 0.77047 0.0
H784 H 0.56366 0.95109 0.77932 0.0
H785 H 0.5425 0.95308 0.86324 0.0
C786 C 0.44592 0.0234 0.84391 0.0
C787 C 0.4292 0.03555 0.82305 0.0
C788 C 0.43913 0.03151 0.79667 0.0
C789 C 0.46503 0.01524 0.79106 0.0
C790 C 0.4804 0.00281 0.81205 0.0
C791 C 0.47129 0.00672 0.83795 0.0
C792 C 0.49078 0.98984 0.85682 0.0
C793 C 0.52196 0.0241 0.87516 0.0
C794 C 0.45755 0.9532 0.87265 0.0
C795 C 0.51232 0.97589 0.83749 0.0
C796 C 0.50609 0.98382 0.81178 0.0
C797 C 0.52383 0.97468 0.79051 0.0
C798 C 0.54913 0.95758 0.7957 0.0
C799 C 0.55609 0.94942 0.8219 0.0
C800 C 0.53701 0.95828 0.84299 0.0
H801 H 0.44849 0.4026 0.56526 0.0
H802 H 0.43425 0.37752 0.48117 0.0
H803 H 0.4731 0.45233 0.47208 0.0
H804 H 0.43694 0.49131 0.5643 0.0
H805 H 0.47587 0.51959 0.58894 0.0
H806 H 0.44827 0.46393 0.58921 0.0
H807 H 0.51747 0.4635 0.58721 0.0
H808 H 0.54532 0.51917 0.58736 0.0
H809 H 0.55388 0.49141 0.56131 0.0
H810 H 0.50831 0.52921 0.47197 0.0
H811 H 0.54717 0.60425 0.48067 0.0
H812 H 0.54201 0.58054 0.56472 0.0
C813 C 0.45412 0.41296 0.54497 0.0
C814 C 0.43865 0.38431 0.5239 0.0
C815 C 0.44647 0.39893 0.49759 0.0
C816 C 0.46812 0.44135 0.49223 0.0
C817 C 0.48217 0.46879 0.5134 0.0
C818 C 0.4763 0.45531 0.53924 0.0
C819 C 0.49527 0.49152 0.55827 0.0
C820 C 0.4621 0.49157 0.57624 0.0
C821 C 0.53006 0.49139 0.57449 0.0
C822 C 0.51224 0.52737 0.53906 0.0
C823 C 0.50383 0.51345 0.5133 0.0
C824 C 0.51535 0.54053 0.49204 0.0
C825 C 0.53702 0.58306 0.49719 0.0
C826 C 0.54732 0.5981 0.52335 0.0
C827 C 0.53447 0.56981 0.54454 0.0
H828 H 0.9592 0.54412 0.8405 0.0
H829 H 0.95066 0.56385 0.92396 0.0
H830 H 0.9767 0.5161 0.93453 0.0
H831 H 0.92998 0.43575 0.84407 0.0
H832 H 0.96651 0.44017 0.81922 0.0
H833 H 0.94509 0.47403 0.81844 0.0
H834 H 0.01911 0.5375 0.81874 0.0
H835 H 0.04075 0.50384 0.81979 0.0
H836 H 0.05442 0.54292 0.84479 0.0
H837 H 0.00286 0.4656 0.93589 0.0
H838 H 0.02932 0.41743 0.92794 0.0
H839 H 0.0254 0.43424 0.84364 0.0
C840 C 0.96227 0.5378 0.86097 0.0
C841 C 0.9525 0.55709 0.88148 0.0
C842 C 0.95779 0.54904 0.90804 0.0
C843 C 0.97257 0.52206 0.91419 0.0
C844 C 0.98246 0.50388 0.89352 0.0
C845 C 0.97771 0.51152 0.86744 0.0
C846 C 0.99216 0.4893 0.84898 0.0
C847 C 0.95629 0.45795 0.83166 0.0
C848 C 0.02879 0.52024 0.83208 0.0
C849 C 0.00555 0.4678 0.86873 0.0
C850 C -0.0006 0.47638 0.89432 0.0
C851 C 0.0081 0.45892 0.91595 0.0
C852 C 0.02312 0.43169 0.91129 0.0
C853 C 0.02983 0.42269 0.88525 0.0
C854 C 0.02126 0.4413 0.86375 0.0
H855 H 0.58697 0.03869 0.16053 0.0
H856 H 0.6273 0.07149 0.24175 0.0
H857 H 0.55462 0.04261 0.25558 0.0
H858 H 0.50077 0.0579 0.16288 0.0
H859 H 0.46865 0.01435 0.14202 0.0
H860 H 0.52404 0.04068 0.13851 0.0
H861 H 0.52269 0.97121 0.14538 0.0
H862 H 0.46736 0.94479 0.14935 0.0
H863 H 0.49941 0.94147 0.17476 0.0
H864 H 0.47708 0.00741 0.26076 0.0
H865 H 0.40089 0.97227 0.25638 0.0
H866 H 0.41162 0.9592 0.17223 0.0
C867 C 0.58068 0.03999 0.18124 0.0
C868 C 0.61304 0.05743 0.20004 0.0
C869 C 0.60324 0.05896 0.22688 0.0
C870 C 0.56198 0.04222 0.23498 0.0
C871 C 0.53086 0.02398 0.21603 0.0
C872 C 0.53976 0.02307 0.18969 0.0
C873 C 0.50069 0.00083 0.17331 0.0
C874 C 0.49841 0.0302 0.15299 0.0
C875 C 0.49736 0.96229 0.15992 0.0
C876 C 0.46832 0.9891 0.19458 0.0
C877 C 0.48633 0.00283 0.21909 0.0
C878 C 0.46266 -0.00352 0.24168 0.0
C879 C 0.4195 0.97643 0.23903 0.0
C880 C 0.40052 0.96271 0.21403 0.0
C881 C 0.42531 0.9686 0.19165 0.0
H882 H 0.09459 0.20634 0.18892 0.0
H883 H 0.12282 0.33397 0.19044 0.0
H884 H 0.04776 0.31031 0.18744 0.0
H885 H 0.01379 0.17125 0.14156 0.0
H886 H 0.98345 0.12134 0.15678 0.0
H887 H 0.03888 0.14874 0.16011 0.0
H888 H 0.03191 0.14423 0.21106 0.0
H889 H 0.97645 0.11655 0.2079 0.0
H890 H 0.00167 0.16324 0.22728 0.0
H891 H 0.96782 0.27068 0.18425 0.0
H892 H 0.89272 0.21992 0.18072 0.0
H893 H 0.92048 0.12007 0.17977 0.0
C894 C 0.08516 0.22948 0.18887 0.0
C895 C 0.11452 0.27202 0.19013 0.0
C896 C 0.10077 0.30118 0.18965 0.0
C897 C 0.05824 0.28801 0.18791 0.0
C898 C 0.0301 0.24564 0.18648 0.0
C899 C 0.04325 0.21696 0.1869 0.0
C900 C 0.00753 0.17333 0.18449 0.0
C901 C 0.01114 0.15246 0.15923 0.0
C902 C 0.0042 0.14786 0.20915 0.0
C903 C 0.97193 0.18164 0.18277 0.0
C904 C 0.98523 0.22341 0.18401 0.0
C905 C 0.95722 0.23794 0.18317 0.0
C906 C 0.91467 0.20896 0.18113 0.0
C907 C 0.90077 0.16608 0.1798 0.0
C908 C 0.93001 0.15261 0.18053 0.0
H909 H 0.78205 0.90568 0.52365 0.0
H910 H 0.65746 0.88479 0.51471 0.0
H911 H 0.68456 0.96046 0.51904 0.0
H912 H 0.81522 0.9864 0.57257 0.0
H913 H 0.86714 0.01404 0.55974 0.0
H914 H 0.8371 0.95869 0.5564 0.0
H915 H 0.84824 0.96532 0.50573 0.0
H916 H 0.87842 0.02059 0.50893 0.0
H917 H 0.8341 -0.00227 0.48733 0.0
H918 H 0.7283 0.04059 0.52174 0.0
H919 H 0.78267 0.11469 0.52366 0.0
H920 H 0.87596 0.07862 0.53301 0.0
C921 C 0.76031 0.91688 0.52252 0.0
C922 C 0.71776 0.8896 0.51852 0.0
C923 C 0.69027 0.90539 0.51766 0.0
C924 C 0.7054 0.94822 0.52013 0.0
C925 C 0.74786 0.97437 0.52392 0.0
C926 C 0.77468 0.95895 0.52535 0.0
C927 C 0.81883 0.99269 0.52947 0.0
C928 C 0.83554 0.98765 0.55613 0.0
C929 C 0.8465 0.99416 0.5065 0.0
C930 C 0.81316 0.02993 0.52952 0.0
C931 C 0.77216 0.01915 0.52636 0.0
C932 C 0.76037 0.0492 0.52454 0.0
C933 C 0.79138 0.09116 0.52569 0.0
C934 C 0.83348 0.1024 0.52866 0.0
C935 C 0.84407 0.07119 0.53099 0.0
H936 H 0.78116 0.86634 0.86754 0.0
H937 H 0.65541 0.77066 0.85029 0.0
H938 H 0.67899 0.71905 0.84766 0.0
H939 H 0.82896 0.83331 0.82234 0.0
H940 H 0.87365 0.84736 0.84275 0.0
H941 H 0.84561 0.87476 0.84595 0.0
H942 H 0.83524 0.85764 0.8959 0.0
H943 H 0.86352 0.83036 0.8929 0.0
H944 H 0.81201 0.80458 0.90642 0.0
H945 H 0.71926 0.67836 0.846 0.0
H946 H 0.77131 0.65518 0.843 0.0
H947 H 0.86892 0.78051 0.85856 0.0
C948 C 0.75822 0.83443 0.86364 0.0
C949 C 0.71633 0.82243 0.85938 0.0
C950 C 0.68764 0.78045 0.85385 0.0
C951 C 0.70079 0.75099 0.85232 0.0
C952 C 0.7427 0.76421 0.85625 0.0
C953 C 0.77082 0.80513 0.86173 0.0
C954 C 0.81447 0.8128 0.86347 0.0
C955 C 0.84228 0.84388 0.84237 0.0
C956 C 0.83234 0.82718 0.89133 0.0
C957 C 0.80695 0.76996 0.85778 0.0
C958 C 0.76545 0.74191 0.85406 0.0
C959 C 0.75179 0.70024 0.84881 0.0
C960 C 0.78142 0.6873 0.84715 0.0
C961 C 0.82403 0.71621 0.85016 0.0
C962 C 0.83658 0.75782 0.8557 0.0
H963 H 0.91802 0.79749 0.19685 0.0
H964 H 0.88635 0.6689 0.19896 0.0
H965 H 0.96118 0.69072 0.19742 0.0
H966 H -0.00285 0.82833 0.14992 0.0
H967 H 0.02868 0.87886 0.16419 0.0
H968 H 0.97338 0.85267 0.16794 0.0
H969 H 0.98156 0.85958 0.21883 0.0
H970 H 0.03692 0.88619 0.21522 0.0
H971 H 0.01148 0.84059 0.23549 0.0
H972 H 0.04199 0.72932 0.19516 0.0
H973 H 0.11736 0.77926 0.19055 0.0
H974 H 0.09083 0.8798 0.1868 0.0
C975 C 0.92662 0.77374 0.19751 0.0
C976 C 0.89645 0.73152 0.19845 0.0
C977 C 0.90912 0.7015 0.19853 0.0
C978 C 0.95149 0.71364 0.19762 0.0
C979 C 0.98049 0.7558 0.19629 0.0
C980 C 0.96824 0.7852 0.1961 0.0
C981 C 0.00437 0.8283 0.1929 0.0
C982 C 0.00066 0.84818 0.16721 0.0
C983 C 0.00884 0.85523 0.21705 0.0
C984 C 0.03921 0.81894 0.19143 0.0
C985 C 0.02536 0.77715 0.19364 0.0
C986 C 0.05297 0.76205 0.19327 0.0
C987 C 0.09563 0.79051 0.19062 0.0
C988 C 0.10986 0.83329 0.18798 0.0
C989 C 0.08104 0.84726 0.18836 0.0
H990 H 0.09903 0.90602 0.50651 0.0
H991 H 0.19271 0.87148 0.5198 0.0
H992 H 0.24709 0.94539 0.51809 0.0
H993 H 0.15865 0.98995 0.461 0.0
H994 H 0.13791 0.02101 0.47368 0.0
H995 H 0.10732 0.96548 0.47481 0.0
H996 H 0.09819 0.96869 0.52532 0.0
H997 H 0.12866 0.02416 0.52434 0.0
H998 H 0.14335 0.99538 0.546 0.0
H999 H 0.29068 0.02466 0.51745 0.0
H1000 H 0.31865 0.10054 0.51745 0.0
H1001 H 0.19505 0.08016 0.50354 0.0
C1002 C 0.13099 0.91386 0.50893 0.0
C1003 C 0.14171 0.88312 0.51338 0.0
C1004 C 0.18389 0.89467 0.51635 0.0
C1005 C 0.21493 0.93651 0.51539 0.0
C1006 C 0.20315 0.96615 0.51117 0.0
C1007 C 0.16212 0.95514 0.50784 0.0
C1008 C 0.15702 0.99247 0.50421 0.0
C1009 C 0.13918 0.9922 0.47679 0.0
C1010 C 0.13024 0.99533 0.52629 0.0
C1011 C 0.20151 0.02644 0.5065 0.0
C1012 C 0.22788 0.01094 0.51041 0.0
C1013 C 0.2703 0.03706 0.51413 0.0
C1014 C 0.28592 0.08005 0.5141 0.0
C1015 C 0.25907 0.09621 0.51039 0.0
C1016 C 0.21651 0.06887 0.50624 0.0
H1017 H 0.11105 0.19553 0.86112 0.0
H1018 H 0.20895 0.32262 0.85216 0.0
H1019 H 0.26123 0.29988 0.85597 0.0
H1020 H 0.16281 0.16762 0.90985 0.0
H1021 H 0.14149 0.11577 0.89726 0.0
H1022 H 0.1131 0.14285 0.8937 0.0
H1023 H 0.10913 0.13112 0.84308 0.0
H1024 H 0.1372 0.10378 0.8465 0.0
H1025 H 0.15616 0.1476 0.82471 0.0
H1026 H 0.30221 0.25987 0.85821 0.0
H1027 H 0.32633 0.20864 0.86032 0.0
H1028 H 0.19947 0.11065 0.8709 0.0
C1029 C 0.14348 0.21873 0.85979 0.0
C1030 C 0.15603 0.26074 0.85595 0.0
C1031 C 0.19877 0.29017 0.85494 0.0
C1032 C 0.22856 0.2775 0.85711 0.0
C1033 C 0.21492 0.2355 0.86083 0.0
C1034 C 0.17323 0.20681 0.86243 0.0
C1035 C 0.16573 0.16367 0.86679 0.0
C1036 C 0.14454 0.14649 0.89349 0.0
C1037 C 0.14059 0.13487 0.84391 0.0
C1038 C 0.20967 0.17204 0.86688 0.0
C1039 C 0.2379 0.21348 0.86336 0.0
C1040 C 0.28026 0.22748 0.86134 0.0
C1041 C 0.29373 0.19824 0.86262 0.0
C1042 C 0.26489 0.1557 0.86607 0.0
C1043 C 0.22253 0.14295 0.86864 0.0
H1044 H 0.26784 0.19181 0.23243 0.0
H1045 H 0.30256 0.25066 0.15583 0.0
H1046 H 0.3177 0.19667 0.14045 0.0
H1047 H 0.34116 0.1519 0.2349 0.0
H1048 H 0.30334 0.1042 0.25003 0.0
H1049 H 0.30217 0.15116 0.25625 0.0
H1050 H 0.22593 0.11557 0.24046 0.0
H1051 H 0.22689 0.06866 0.23416 0.0
H1052 H 0.21287 0.09226 0.20815 0.0
H1053 H 0.32362 0.13285 0.13248 0.0
H1054 H 0.31348 0.06185 0.13154 0.0
H1055 H 0.27072 0.04384 0.21246 0.0
C1056 C 0.27977 0.19394 0.21267 0.0
C1057 C 0.28453 0.22549 0.19536 0.0
C1058 C 0.29882 0.22665 0.16936 0.0
C1059 C 0.30778 0.19633 0.16054 0.0
C1060 C 0.30193 0.165 0.17795 0.0
C1061 C 0.28799 0.16351 0.20344 0.0
C1062 C 0.27928 0.12413 0.21723 0.0
C1063 C 0.30823 0.13342 0.24101 0.0
C1064 C 0.23354 0.09867 0.22546 0.0
C1065 C 0.28943 0.10319 0.19533 0.0
C1066 C 0.30343 0.12754 0.17301 0.0
C1067 C 0.31309 0.11369 0.14993 0.0
C1068 C 0.30739 0.07352 0.14955 0.0
C1069 C 0.29132 0.04778 0.1719 0.0
C1070 C 0.28303 0.06311 0.19512 0.0
H1071 H 0.20432 0.24478 0.53928 0.0
H1072 H 0.26895 0.3321 0.4763 0.0
H1073 H 0.20991 0.34425 0.47157 0.0
H1074 H 0.11013 0.19688 0.51018 0.0
H1075 H 0.08005 0.18878 0.53965 0.0
H1076 H 0.13015 0.19314 0.54181 0.0
H1077 H 0.15398 0.25335 0.57525 0.0
H1078 H 0.10363 0.24889 0.57349 0.0
H1079 H 0.14932 0.29777 0.56684 0.0
H1080 H 0.14009 0.33791 0.46883 0.0
H1081 H 0.06588 0.31608 0.46941 0.0
H1082 H 0.04713 0.23272 0.5343 0.0
C1083 C 0.20658 0.26735 0.52498 0.0
C1084 C 0.24111 0.28757 0.50817 0.0
C1085 C 0.24288 0.31662 0.48956 0.0
C1086 C 0.20951 0.32368 0.48674 0.0
C1087 C 0.17513 0.3019 0.50296 0.0
C1088 C 0.17372 0.27476 0.52199 0.0
C1089 C 0.13179 0.25205 0.53508 0.0
C1090 C 0.11188 0.20495 0.53144 0.0
C1091 C 0.13488 0.26373 0.56441 0.0
C1092 C 0.10912 0.26914 0.51956 0.0
C1093 C 0.13478 0.2983 0.50141 0.0
C1094 C 0.11991 0.3158 0.48333 0.0
C1095 C 0.07766 0.30297 0.48371 0.0
C1096 C 0.05082 0.27278 0.50197 0.0
C1097 C 0.067 0.25624 0.52036 0.0
H1098 H 0.80293 0.02506 0.86629 0.0
H1099 H 0.71354 0.06706 0.86312 0.0
H1100 H 0.77059 0.13886 0.85578 0.0
H1101 H 0.88318 0.11458 0.90056 0.0
H1102 H 0.92401 0.11288 0.88263 0.0
H1103 H 0.87605 0.06592 0.88866 0.0
H1104 H 0.86775 0.05053 0.83842 0.0
H1105 H 0.91541 0.09766 0.8322 0.0
H1106 H 0.86846 0.08839 0.81607 0.0
H1107 H 0.83868 0.20582 0.84599 0.0
H1108 H 0.91108 0.26186 0.83905 0.0
H1109 H 0.95316 0.17335 0.84941 0.0
C1110 C 0.79528 0.04937 0.86428 0.0
C1111 C 0.75394 0.04066 0.86517 0.0
C1112 C 0.74517 0.07328 0.86265 0.0
C1113 C 0.7773 0.11401 0.85832 0.0
C1114 C 0.81779 0.12133 0.85691 0.0
C1115 C 0.82672 0.08986 0.86022 0.0
C1116 C 0.87242 0.1052 0.8579 0.0
C1117 C 0.88994 0.0993 0.88399 0.0
C1118 C 0.88152 0.0842 0.83477 0.0
C1119 C 0.888 0.15027 0.85238 0.0
C1120 C 0.85626 0.15923 0.85176 0.0
C1121 C 0.86374 0.19911 0.8466 0.0
C1122 C 0.90484 0.23065 0.84251 0.0
C1123 C 0.93766 0.22193 0.84378 0.0
C1124 C 0.9288 0.18111 0.84849 0.0
H1125 H 0.76675 0.96057 0.166 0.0
H1126 H 0.66463 0.93359 0.21863 0.0
H1127 H 0.64655 0.86036 0.22 0.0
H1128 H 0.71675 0.85942 0.13034 0.0
H1129 H 0.76482 0.859 0.12881 0.0
H1130 H 0.76506 0.90742 0.12837 0.0
H1131 H 0.81463 0.93245 0.16863 0.0
H1132 H 0.81422 0.88412 0.16935 0.0
H1133 H 0.79972 0.90189 0.19833 0.0
H1134 H 0.6449 0.79244 0.21996 0.0
H1135 H 0.66056 0.73545 0.21903 0.0
H1136 H 0.7647 0.8078 0.16726 0.0
C1137 C 0.73988 0.93907 0.17724 0.0
C1138 C 0.71699 0.95266 0.19214 0.0
C1139 C 0.68255 0.92376 0.20703 0.0
C1140 C 0.67193 0.88209 0.20783 0.0
C1141 C 0.69596 0.86992 0.19355 0.0
C1142 C 0.7291 0.89754 0.17841 0.0
C1143 C 0.75258 0.87776 0.16713 0.0
C1144 C 0.74961 0.87578 0.13686 0.0
C1145 C 0.79795 0.9004 0.17643 0.0
C1146 C 0.72851 0.8352 0.17916 0.0
C1147 C 0.69547 0.83096 0.1939 0.0
C1148 C 0.67028 0.79514 0.20814 0.0
C1149 C 0.67943 0.76299 0.20753 0.0
C1150 C 0.71382 0.76729 0.19309 0.0
C1151 C 0.73815 0.80362 0.17844 0.0
H1152 H 0.78039 0.7484 0.52978 0.0
H1153 H 0.71173 0.65292 0.47162 0.0
H1154 H 0.76772 0.63543 0.4712 0.0
H1155 H 0.8763 0.78546 0.50215 0.0
H1156 H 0.90392 0.79624 0.53298 0.0
H1157 H 0.85608 0.79679 0.5313 0.0
H1158 H 0.826 0.74267 0.56888 0.0
H1159 H 0.87389 0.7419 0.57069 0.0
H1160 H 0.82583 0.6945 0.56552 0.0
H1161 H 0.83472 0.63404 0.47394 0.0
H1162 H 0.90699 0.64974 0.47838 0.0
H1163 H 0.93049 0.7467 0.53476 0.0
C1164 C 0.77661 0.72338 0.5172 0.0
C1165 C 0.74173 0.70206 0.5007 0.0
C1166 C 0.73817 0.66953 0.48452 0.0
C1167 C 0.76971 0.65934 0.48423 0.0
C1168 C 0.8041 0.68167 0.50048 0.0
C1169 C 0.80749 0.71287 0.51677 0.0
C1170 C 0.84875 0.73467 0.53077 0.0
C1171 C 0.87265 0.781 0.52386 0.0
C1172 C 0.84327 0.72802 0.56074 0.0
C1173 C 0.86894 0.71198 0.51903 0.0
C1174 C 0.84254 0.68104 0.50197 0.0
C1175 C 0.85542 0.65777 0.48752 0.0
C1176 C 0.89657 0.667 0.49017 0.0
C1177 C 0.92438 0.69953 0.5069 0.0
C1178 C 0.90994 0.72151 0.52195 0.0
H1179 H 0.17743 0.95381 0.85332 0.0
H1180 H 0.26525 0.90978 0.8568 0.0
H1181 H 0.20842 0.83849 0.84786 0.0
H1182 H 0.09545 0.86772 0.88628 0.0
H1183 H 0.05561 0.8685 0.86657 0.0
H1184 H 0.10358 0.9156 0.87232 0.0
H1185 H 0.11421 0.92722 0.82183 0.0
H1186 H 0.06637 0.87998 0.81593 0.0
H1187 H 0.11368 0.88744 0.80136 0.0
H1188 H 0.14074 0.77168 0.83799 0.0
H1189 H 0.06821 0.71525 0.83225 0.0
H1190 H 0.02672 0.80495 0.83667 0.0
C1191 C 0.18487 0.92926 0.85212 0.0
C1192 C 0.22574 0.93727 0.8556 0.0
C1193 C 0.23405 0.90421 0.85423 0.0
C1194 C 0.20205 0.86374 0.84902 0.0
C1195 C 0.16206 0.85702 0.84545 0.0
C1196 C 0.15346 0.88893 0.84723 0.0
C1197 C 0.10792 0.87379 0.84374 0.0
C1198 C 0.08957 0.88187 0.86871 0.0
C1199 C 0.10011 0.89327 0.81926 0.0
C1200 C 0.09201 0.82825 0.83974 0.0
C1201 C 0.12357 0.81902 0.84048 0.0
C1202 C 0.11582 0.77861 0.83739 0.0
C1203 C 0.07464 0.74683 0.834 0.0
C1204 C 0.04196 0.75579 0.83408 0.0
C1205 C 0.05105 0.79711 0.83662 0.0
loop_
_geom_bond_atom_site_label_1
_geom_bond_atom_site_label_2
_geom_bond_distance
_geom_bond_site_symmetry_2
_ccdc_geom_bond_type
Co0 N4 2.148 . S
Co0 N10 2.128 . S
Co0 N20 2.194 . S
Co0 O25 2.351 . S
Co0 O26 2.155 . S
Co0 O27 2.096 . S
C1 N4 1.301 . S
C1 N5 1.328 . S
C1 H6 0.930 . S
C2 C3 1.333 . S
C2 N4 1.317 . S
C2 H7 0.930 . S
C3 C2 1.333 . S
C3 N5 1.350 . S
C3 H29 0.931 . S
N4 Co0 2.148 . S
N4 C1 1.301 . S
N4 C2 1.317 . S
N5 C1 1.328 . S
N5 C3 1.350 . S
H6 C1 0.930 . S
H7 C2 0.930 . S
C8 O9 1.224 . S
C8 O27 1.247 . S
O9 C8 1.224 . S
N10 Co0 2.128 . S
N10 C11 1.355 . S
N10 C13 1.311 . S
C11 N10 1.355 . S
C11 C12 1.363 . S
C11 H23 0.929 . S
C12 C11 1.363 . S
C12 N14 1.375 . S
C12 H30 0.931 . S
C13 N10 1.311 . S
C13 N14 1.347 . S
C13 H24 0.929 . S
N14 C12 1.375 . S
N14 C13 1.347 . S
C15 C18 1.365 . S
C15 N20 1.328 . S
C15 H21 0.929 . S
C16 C17 1.362 . S
C16 C19 1.378 . S
C16 H31 0.929 . S
C17 C16 1.362 . S
C17 C18 1.366 . S
C18 C15 1.365 . S
C18 C17 1.366 . S
C18 H32 0.930 . S
C19 C16 1.378 . S
C19 N20 1.315 . S
C19 H22 0.930 . S
N20 Co0 2.194 . S
N20 C15 1.328 . S
N20 C19 1.315 . S
H21 C15 0.929 . S
H22 C19 0.930 . S
H23 C11 0.929 . S
H24 C13 0.929 . S
O25 Co0 2.351 . S
O25 C28 1.244 . S
O26 Co0 2.155 . S
O26 C28 1.240 . S
O27 Co0 2.096 . S
O27 C8 1.247 . S
C28 O25 1.244 . S
C28 O26 1.240 . S
H29 C3 0.931 . S
H30 C12 0.931 . S
H31 C16 0.929 . S
H32 C18 0.930 . S
Co33 N37 2.148 . S
Co33 N43 2.128 . S
Co33 N53 2.194 . S
Co33 O58 2.351 . S
Co33 O59 2.155 . S
Co33 O60 2.096 . S
C34 N37 1.301 . S
C34 N38 1.328 . S
C34 H39 0.930 . S
C35 C36 1.333 . S
C35 N37 1.317 . S
C35 H40 0.930 . S
C36 C35 1.333 . S
C36 N38 1.350 . S
C36 H62 0.931 . S
N37 Co33 2.148 . S
N37 C34 1.301 . S
N37 C35 1.317 . S
N38 C34 1.328 . S
N38 C36 1.350 . S
H39 C34 0.930 . S
H40 C35 0.930 . S
C41 O42 1.224 . S
C41 O60 1.247 1_455 S
O42 C41 1.224 . S
N43 Co33 2.128 . S
N43 C44 1.355 . S
N43 C46 1.311 . S
C44 N43 1.355 . S
C44 C45 1.363 . S
C44 H56 0.929 . S
C45 C44 1.363 . S
C45 N47 1.375 . S
C45 H63 0.931 . S
C46 N43 1.311 . S
C46 N47 1.347 . S
C46 H57 0.929 . S
N47 C45 1.375 . S
N47 C46 1.347 . S
C48 C51 1.365 . S
C48 N53 1.328 . S
C48 H54 0.929 . S
C49 C50 1.362 . S
C49 C52 1.378 . S
C49 H64 0.929 . S
C50 C49 1.362 . S
C50 C51 1.366 . S
C51 C48 1.365 . S
C51 C50 1.366 . S
C51 H65 0.930 . S
C52 C49 1.378 . S
C52 N53 1.315 . S
C52 H55 0.930 . S
N53 Co33 2.194 . S
N53 C48 1.328 . S
N53 C52 1.315 . S
H54 C48 0.929 . S
H55 C52 0.930 . S
H56 C44 0.929 . S
H57 C46 0.929 . S
O58 Co33 2.351 . S
O58 C61 1.244 . S
O59 Co33 2.155 . S
O59 C61 1.240 . S
O60 Co33 2.096 . S
O60 C41 1.247 1_655 S
C61 O58 1.244 . S
C61 O59 1.240 . S
H62 C36 0.931 . S
H63 C45 0.931 . S
H64 C49 0.929 . S
H65 C51 0.930 . S
Co66 N70 2.148 . S
Co66 N76 2.128 . S
Co66 N86 2.194 . S
Co66 O91 2.351 . S
Co66 O92 2.155 . S
Co66 O93 2.096 . S
C67 N70 1.301 . S
C67 N71 1.328 . S
C67 H72 0.930 . S
C68 C69 1.333 . S
C68 N70 1.317 . S
C68 H73 0.930 . S
C69 C68 1.333 . S
C69 N71 1.350 . S
C69 H95 0.931 . S
N70 Co66 2.148 . S
N70 C67 1.301 . S
N70 C68 1.317 . S
N71 C67 1.328 . S
N71 C69 1.350 . S
H72 C67 0.930 . S
H73 C68 0.930 . S
C74 O75 1.224 . S
C74 O93 1.247 1_545 S
O75 C74 1.224 . S
N76 Co66 2.128 . S
N76 C77 1.355 . S
N76 C79 1.311 . S
C77 N76 1.355 . S
C77 C78 1.363 . S
C77 H89 0.929 . S
C78 C77 1.363 . S
C78 N80 1.375 . S
C78 H96 0.931 . S
C79 N76 1.311 . S
C79 N80 1.347 . S
C79 H90 0.929 . S
N80 C78 1.375 . S
N80 C79 1.347 . S
C81 C84 1.365 . S
C81 N86 1.328 . S
C81 H87 0.929 . S
C82 C83 1.362 . S
C82 C85 1.378 . S
C82 H97 0.929 . S
C83 C82 1.362 . S
C83 C84 1.366 . S
C84 C81 1.365 . S
C84 C83 1.366 . S
C84 H98 0.930 . S
C85 C82 1.378 . S
C85 N86 1.315 . S
C85 H88 0.930 . S
N86 Co66 2.194 . S
N86 C81 1.328 . S
N86 C85 1.315 . S
H87 C81 0.929 . S
H88 C85 0.930 . S
H89 C77 0.929 . S
H90 C79 0.929 . S
O91 Co66 2.351 . S
O91 C94 1.244 . S
O92 Co66 2.155 . S
O92 C94 1.240 . S
O93 Co66 2.096 . S
O93 C74 1.247 1_565 S
C94 O91 1.244 . S
C94 O92 1.240 . S
H95 C69 0.931 . S
H96 C78 0.931 . S
H97 C82 0.929 . S
H98 C84 0.930 . S
Co99 N103 2.148 . S
Co99 N109 2.128 . S
Co99 N119 2.194 . S
Co99 O124 2.351 . S
Co99 O125 2.155 . S
Co99 O126 2.096 . S
C100 N103 1.301 . S
C100 N104 1.328 . S
C100 H105 0.930 . S
C101 C102 1.333 . S
C101 N103 1.317 . S
C101 H106 0.930 . S
C102 C101 1.333 . S
C102 N104 1.350 . S
C102 H128 0.931 . S
N103 Co99 2.148 . S
N103 C100 1.301 . S
N103 C101 1.317 . S
N104 C100 1.328 . S
N104 C102 1.350 . S
H105 C100 0.930 . S
H106 C101 0.930 . S
C107 O108 1.224 . S
C107 O126 1.247 . S
O108 C107 1.224 . S
N109 Co99 2.128 . S
N109 C110 1.355 . S
N109 C112 1.311 . S
C110 N109 1.355 . S
C110 C111 1.363 . S
C110 H122 0.929 . S
C111 C110 1.363 . S
C111 N113 1.375 . S
C111 H129 0.931 . S
C112 N109 1.311 . S
C112 N113 1.347 . S
C112 H123 0.929 . S
N113 C111 1.375 . S
N113 C112 1.347 . S
C114 C117 1.365 . S
C114 N119 1.328 . S
C114 H120 0.929 . S
C115 C116 1.362 . S
C115 C118 1.378 . S
C115 H130 0.929 . S
C116 C115 1.362 . S
C116 C117 1.366 . S
C117 C114 1.365 . S
C117 C116 1.366 . S
C117 H131 0.930 . S
C118 C115 1.378 . S
C118 N119 1.315 . S
C118 H121 0.930 . S
N119 Co99 2.194 . S
N119 C114 1.328 . S
N119 C118 1.315 . S
H120 C114 0.929 . S
H121 C118 0.930 . S
H122 C110 0.929 . S
H123 C112 0.929 . S
O124 Co99 2.351 . S
O124 C127 1.244 . S
O125 Co99 2.155 . S
O125 C127 1.240 . S
O126 Co99 2.096 . S
O126 C107 1.247 . S
C127 O124 1.244 . S
C127 O125 1.240 . S
H128 C102 0.931 . S
H129 C111 0.931 . S
H130 C115 0.929 . S
H131 C117 0.930 . S
Co132 N136 2.148 . S
Co132 N142 2.128 . S
Co132 N152 2.194 . S
Co132 O157 2.351 . S
Co132 O158 2.155 . S
Co132 O159 2.096 . S
C133 N136 1.301 . S
C133 N137 1.328 . S
C133 H138 0.930 . S
C134 C135 1.333 . S
C134 N136 1.317 . S
C134 H139 0.930 . S
C135 C134 1.333 . S
C135 N137 1.350 . S
C135 H161 0.931 . S
N136 Co132 2.148 . S
N136 C133 1.301 . S
N136 C134 1.317 . S
N137 C133 1.328 . S
N137 C135 1.350 . S
H138 C133 0.930 . S
H139 C134 0.930 . S
C140 O141 1.224 . S
C140 O159 1.247 1_655 S
O141 C140 1.224 . S
N142 Co132 2.128 . S
N142 C143 1.355 . S
N142 C145 1.311 . S
C143 N142 1.355 . S
C143 C144 1.363 . S
C143 H155 0.929 . S
C144 C143 1.363 . S
C144 N146 1.375 . S
C144 H162 0.931 . S
C145 N142 1.311 . S
C145 N146 1.347 . S
C145 H156 0.929 . S
N146 C144 1.375 . S
N146 C145 1.347 . S
C147 C150 1.365 . S
C147 N152 1.328 . S
C147 H153 0.929 . S
C148 C149 1.362 . S
C148 C151 1.378 . S
C148 H163 0.929 . S
C149 C148 1.362 . S
C149 C150 1.366 . S
C150 C147 1.365 . S
C150 C149 1.366 . S
C150 H164 0.930 . S
C151 C148 1.378 . S
C151 N152 1.315 . S
C151 H154 0.930 . S
N152 Co132 2.194 . S
N152 C147 1.328 . S
N152 C151 1.315 . S
H153 C147 0.929 . S
H154 C151 0.930 . S
H155 C143 0.929 . S
H156 C145 0.929 . S
O157 Co132 2.351 . S
O157 C160 1.244 . S
O158 Co132 2.155 . S
O158 C160 1.240 . S
O159 Co132 2.096 . S
O159 C140 1.247 1_455 S
C160 O157 1.244 . S
C160 O158 1.240 . S
H161 C135 0.931 . S
H162 C144 0.931 . S
H163 C148 0.929 . S
H164 C150 0.930 . S
Co165 N169 2.148 . S
Co165 N175 2.128 . S
Co165 N185 2.194 . S
Co165 O190 2.351 . S
Co165 O191 2.155 . S
Co165 O192 2.096 . S
C166 N169 1.301 . S
C166 N170 1.328 . S
C166 H171 0.930 . S
C167 C168 1.333 . S
C167 N169 1.317 . S
C167 H172 0.930 . S
C168 C167 1.333 . S
C168 N170 1.350 . S
C168 H194 0.931 . S
N169 Co165 2.148 . S
N169 C166 1.301 . S
N169 C167 1.317 . S
N170 C166 1.328 . S
N170 C168 1.350 . S
H171 C166 0.930 . S
H172 C167 0.930 . S
C173 O174 1.224 . S
C173 O192 1.247 1_565 S
O174 C173 1.224 . S
N175 Co165 2.128 . S
N175 C176 1.355 . S
N175 C178 1.311 . S
C176 N175 1.355 . S
C176 C177 1.363 . S
C176 H188 0.929 . S
C177 C176 1.363 . S
C177 N179 1.375 . S
C177 H195 0.931 . S
C178 N175 1.311 . S
C178 N179 1.347 . S
C178 H189 0.929 . S
N179 C177 1.375 . S
N179 C178 1.347 . S
C180 C183 1.365 . S
C180 N185 1.328 . S
C180 H186 0.929 . S
C181 C182 1.362 . S
C181 C184 1.378 . S
C181 H196 0.929 . S
C182 C181 1.362 . S
C182 C183 1.366 . S
C183 C180 1.365 . S
C183 C182 1.366 . S
C183 H197 0.930 . S
C184 C181 1.378 . S
C184 N185 1.315 . S
C184 H187 0.930 . S
N185 Co165 2.194 . S
N185 C180 1.328 . S
N185 C184 1.315 . S
H186 C180 0.929 . S
H187 C184 0.930 . S
H188 C176 0.929 . S
H189 C178 0.929 . S
O190 Co165 2.351 . S
O190 C193 1.244 . S
O191 Co165 2.155 . S
O191 C193 1.240 . S
O192 Co165 2.096 . S
O192 C173 1.247 1_545 S
C193 O190 1.244 . S
C193 O191 1.240 . S
H194 C168 0.931 . S
H195 C177 0.931 . S
H196 C181 0.929 . S
H197 C183 0.930 . S
Co198 N202 2.148 . S
Co198 N208 2.128 . S
Co198 N218 2.194 . S
Co198 O223 2.351 . S
Co198 O224 2.155 . S
Co198 O225 2.096 . S
C199 N202 1.301 . S
C199 N203 1.328 . S
C199 H204 0.930 . S
C200 C201 1.333 . S
C200 N202 1.317 . S
C200 H205 0.930 . S
C201 C200 1.333 . S
C201 N203 1.350 . S
C201 H227 0.931 . S
N202 Co198 2.148 . S
N202 C199 1.301 . S
N202 C200 1.317 . S
N203 C199 1.328 . S
N203 C201 1.350 . S
H204 C199 0.930 . S
H205 C200 0.930 . S
C206 O207 1.224 . S
C206 O225 1.247 . S
O207 C206 1.224 . S
N208 Co198 2.128 . S
N208 C209 1.355 . S
N208 C211 1.311 . S
C209 N208 1.355 . S
C209 C210 1.363 . S
C209 H221 0.929 . S
C210 C209 1.363 . S
C210 N212 1.375 . S
C210 H228 0.931 . S
C211 N208 1.311 . S
C211 N212 1.347 . S
C211 H222 0.929 . S
N212 C210 1.375 . S
N212 C211 1.347 . S
C213 C216 1.365 . S
C213 N218 1.328 . S
C213 H219 0.929 . S
C214 C215 1.362 . S
C214 C217 1.378 . S
C214 H229 0.929 . S
C215 C214 1.362 . S
C215 C216 1.366 . S
C216 C213 1.365 . S
C216 C215 1.366 . S
C216 H230 0.930 . S
C217 C214 1.378 . S
C217 N218 1.315 . S
C217 H220 0.930 . S
N218 Co198 2.194 . S
N218 C213 1.328 . S
N218 C217 1.315 . S
H219 C213 0.929 . S
H220 C217 0.930 . S
H221 C209 0.929 . S
H222 C211 0.929 . S
O223 Co198 2.351 . S
O223 C226 1.244 . S
O224 Co198 2.155 . S
O224 C226 1.240 . S
O225 Co198 2.096 . S
O225 C206 1.247 . S
C226 O223 1.244 . S
C226 O224 1.240 . S
H227 C201 0.931 . S
H228 C210 0.931 . S
H229 C214 0.929 . S
H230 C216 0.930 . S
Co231 N235 2.148 . S
Co231 N241 2.128 . S
Co231 N251 2.194 . S
Co231 O256 2.351 . S
Co231 O257 2.155 . S
Co231 O258 2.096 . S
C232 N235 1.301 . S
C232 N236 1.328 . S
C232 H237 0.930 . S
C233 C234 1.333 . S
C233 N235 1.317 . S
C233 H238 0.930 . S
C234 C233 1.333 . S
C234 N236 1.350 . S
C234 H260 0.931 . S
N235 Co231 2.148 . S
N235 C232 1.301 . S
N235 C233 1.317 . S
N236 C232 1.328 . S
N236 C234 1.350 . S
H237 C232 0.930 . S
H238 C233 0.930 . S
C239 O240 1.224 . S
C239 O258 1.247 1_455 S
O240 C239 1.224 . S
N241 Co231 2.128 . S
N241 C242 1.355 . S
N241 C244 1.311 . S
C242 N241 1.355 . S
C242 C243 1.363 . S
C242 H254 0.929 . S
C243 C242 1.363 . S
C243 N245 1.375 . S
C243 H261 0.931 . S
C244 N241 1.311 . S
C244 N245 1.347 . S
C244 H255 0.929 . S
N245 C243 1.375 . S
N245 C244 1.347 . S
C246 C249 1.365 . S
C246 N251 1.328 . S
C246 H252 0.929 . S
C247 C248 1.362 . S
C247 C250 1.378 . S
C247 H262 0.929 . S
C248 C247 1.362 . S
C248 C249 1.366 . S
C249 C246 1.365 . S
C249 C248 1.366 . S
C249 H263 0.930 . S
C250 C247 1.378 . S
C250 N251 1.315 . S
C250 H253 0.930 . S
N251 Co231 2.194 . S
N251 C246 1.328 . S
N251 C250 1.315 . S
H252 C246 0.929 . S
H253 C250 0.930 . S
H254 C242 0.929 . S
H255 C244 0.929 . S
O256 Co231 2.351 . S
O256 C259 1.244 . S
O257 Co231 2.155 . S
O257 C259 1.240 . S
O258 Co231 2.096 . S
O258 C239 1.247 1_655 S
C259 O256 1.244 . S
C259 O257 1.240 . S
H260 C234 0.931 . S
H261 C243 0.931 . S
H262 C247 0.929 . S
H263 C249 0.930 . S
Co264 N268 2.148 . S
Co264 N274 2.128 . S
Co264 N284 2.194 . S
Co264 O289 2.351 . S
Co264 O290 2.155 . S
Co264 O291 2.096 . S
C265 N268 1.301 . S
C265 N269 1.328 . S
C265 H270 0.930 . S
C266 C267 1.333 . S
C266 N268 1.317 . S
C266 H271 0.930 . S
C267 C266 1.333 . S
C267 N269 1.350 . S
C267 H293 0.931 . S
N268 Co264 2.148 . S
N268 C265 1.301 . S
N268 C266 1.317 . S
N269 C265 1.328 . S
N269 C267 1.350 . S
H270 C265 0.930 . S
H271 C266 0.930 . S
C272 O273 1.224 . S
C272 O291 1.247 1_545 S
O273 C272 1.224 . S
N274 Co264 2.128 . S
N274 C275 1.355 . S
N274 C277 1.311 . S
C275 N274 1.355 . S
C275 C276 1.363 . S
C275 H287 0.929 . S
C276 C275 1.363 . S
C276 N278 1.375 . S
C276 H294 0.931 . S
C277 N274 1.311 . S
C277 N278 1.347 . S
C277 H288 0.929 . S
N278 C276 1.375 . S
N278 C277 1.347 . S
C279 C282 1.365 . S
C279 N284 1.328 . S
C279 H285 0.929 . S
C280 C281 1.362 . S
C280 C283 1.378 . S
C280 H295 0.929 . S
C281 C280 1.362 . S
C281 C282 1.366 . S
C282 C279 1.365 . S
C282 C281 1.366 . S
C282 H296 0.930 . S
C283 C280 1.378 . S
C283 N284 1.315 . S
C283 H286 0.930 . S
N284 Co264 2.194 . S
N284 C279 1.328 . S
N284 C283 1.315 . S
H285 C279 0.929 . S
H286 C283 0.930 . S
H287 C275 0.929 . S
H288 C277 0.929 . S
O289 Co264 2.351 . S
O289 C292 1.244 . S
O290 Co264 2.155 . S
O290 C292 1.240 . S
O291 Co264 2.096 . S
O291 C272 1.247 1_565 S
C292 O289 1.244 . S
C292 O290 1.240 . S
H293 C267 0.931 . S
H294 C276 0.931 . S
H295 C280 0.929 . S
H296 C282 0.930 . S
Co297 N301 2.148 . S
Co297 N307 2.128 . S
Co297 N317 2.194 . S
Co297 O322 2.351 . S
Co297 O323 2.155 . S
Co297 O324 2.096 . S
C298 N301 1.301 . S
C298 N302 1.328 . S
C298 H303 0.930 . S
C299 C300 1.333 . S
C299 N301 1.317 . S
C299 H304 0.930 . S
C300 C299 1.333 . S
C300 N302 1.350 . S
C300 H326 0.931 . S
N301 Co297 2.148 . S
N301 C298 1.301 . S
N301 C299 1.317 . S
N302 C298 1.328 . S
N302 C300 1.350 . S
H303 C298 0.930 . S
H304 C299 0.930 . S
C305 O306 1.224 . S
C305 O324 1.247 . S
O306 C305 1.224 . S
N307 Co297 2.128 . S
N307 C308 1.355 . S
N307 C310 1.311 . S
C308 N307 1.355 . S
C308 C309 1.363 . S
C308 H320 0.929 . S
C309 C308 1.363 . S
C309 N311 1.375 . S
C309 H327 0.931 . S
C310 N307 1.311 . S
C310 N311 1.347 . S
C310 H321 0.929 . S
N311 C309 1.375 . S
N311 C310 1.347 . S
C312 C315 1.365 . S
C312 N317 1.328 . S
C312 H318 0.929 . S
C313 C314 1.362 . S
C313 C316 1.378 . S
C313 H328 0.929 . S
C314 C313 1.362 . S
C314 C315 1.366 . S
C315 C312 1.365 . S
C315 C314 1.366 . S
C315 H329 0.930 . S
C316 C313 1.378 . S
C316 N317 1.315 . S
C316 H319 0.930 . S
N317 Co297 2.194 . S
N317 C312 1.328 . S
N317 C316 1.315 . S
H318 C312 0.929 . S
H319 C316 0.930 . S
H320 C308 0.929 . S
H321 C310 0.929 . S
O322 Co297 2.351 . S
O322 C325 1.244 . S
O323 Co297 2.155 . S
O323 C325 1.240 . S
O324 Co297 2.096 . S
O324 C305 1.247 . S
C325 O322 1.244 . S
C325 O323 1.240 . S
H326 C300 0.931 . S
H327 C309 0.931 . S
H328 C313 0.929 . S
H329 C315 0.930 . S
Co330 N334 2.148 . S
Co330 N340 2.128 . S
Co330 N350 2.194 . S
Co330 O355 2.351 . S
Co330 O356 2.155 . S
Co330 O357 2.096 . S
C331 N334 1.301 . S
C331 N335 1.328 . S
C331 H336 0.930 . S
C332 C333 1.333 . S
C332 N334 1.317 . S
C332 H337 0.930 . S
C333 C332 1.333 . S
C333 N335 1.350 . S
C333 H359 0.931 . S
N334 Co330 2.148 . S
N334 C331 1.301 . S
N334 C332 1.317 . S
N335 C331 1.328 . S
N335 C333 1.350 . S
H336 C331 0.930 . S
H337 C332 0.930 . S
C338 O339 1.224 . S
C338 O357 1.247 1_655 S
O339 C338 1.224 . S
N340 Co330 2.128 . S
N340 C341 1.355 . S
N340 C343 1.311 . S
C341 N340 1.355 . S
C341 C342 1.363 . S
C341 H353 0.929 . S
C342 C341 1.363 . S
C342 N344 1.375 . S
C342 H360 0.931 . S
C343 N340 1.311 . S
C343 N344 1.347 . S
C343 H354 0.929 . S
N344 C342 1.375 . S
N344 C343 1.347 . S
C345 C348 1.365 . S
C345 N350 1.328 . S
C345 H351 0.929 . S
C346 C347 1.362 . S
C346 C349 1.378 . S
C346 H361 0.929 . S
C347 C346 1.362 . S
C347 C348 1.366 . S
C348 C345 1.365 . S
C348 C347 1.366 . S
C348 H362 0.930 . S
C349 C346 1.378 . S
C349 N350 1.315 . S
C349 H352 0.930 . S
N350 Co330 2.194 . S
N350 C345 1.328 . S
N350 C349 1.315 . S
H351 C345 0.929 . S
H352 C349 0.930 . S
H353 C341 0.929 . S
H354 C343 0.929 . S
O355 Co330 2.351 . S
O355 C358 1.244 . S
O356 Co330 2.155 . S
O356 C358 1.240 . S
O357 Co330 2.096 . S
O357 C338 1.247 1_455 S
C358 O355 1.244 . S
C358 O356 1.240 . S
H359 C333 0.931 . S
H360 C342 0.931 . S
H361 C346 0.929 . S
H362 C348 0.930 . S
Co363 N367 2.148 . S
Co363 N373 2.128 . S
Co363 N383 2.194 . S
Co363 O388 2.351 . S
Co363 O389 2.155 . S
Co363 O390 2.096 . S
C364 N367 1.301 . S
C364 N368 1.328 . S
C364 H369 0.930 . S
C365 C366 1.333 . S
C365 N367 1.317 . S
C365 H370 0.930 . S
C366 C365 1.333 . S
C366 N368 1.350 . S
C366 H392 0.931 . S
N367 Co363 2.148 . S
N367 C364 1.301 . S
N367 C365 1.317 . S
N368 C364 1.328 . S
N368 C366 1.350 . S
H369 C364 0.930 . S
H370 C365 0.930 . S
C371 O372 1.224 . S
C371 O390 1.247 1_565 S
O372 C371 1.224 . S
N373 Co363 2.128 . S
N373 C374 1.355 . S
N373 C376 1.311 . S
C374 N373 1.355 . S
C374 C375 1.363 . S
C374 H386 0.929 . S
C375 C374 1.363 . S
C375 N377 1.375 . S
C375 H393 0.931 . S
C376 N373 1.311 . S
C376 N377 1.347 . S
C376 H387 0.929 . S
N377 C375 1.375 . S
N377 C376 1.347 . S
C378 C381 1.365 . S
C378 N383 1.328 . S
C378 H384 0.929 . S
C379 C380 1.362 . S
C379 C382 1.378 . S
C379 H394 0.929 . S
C380 C379 1.362 . S
C380 C381 1.366 . S
C381 C378 1.365 . S
C381 C380 1.366 . S
C381 H395 0.930 . S
C382 C379 1.378 . S
C382 N383 1.315 . S
C382 H385 0.930 . S
N383 Co363 2.194 . S
N383 C378 1.328 . S
N383 C382 1.315 . S
H384 C378 0.929 . S
H385 C382 0.930 . S
H386 C374 0.929 . S
H387 C376 0.929 . S
O388 Co363 2.351 . S
O388 C391 1.244 . S
O389 Co363 2.155 . S
O389 C391 1.240 . S
O390 Co363 2.096 . S
O390 C371 1.247 1_545 S
C391 O388 1.244 . S
C391 O389 1.240 . S
H392 C366 0.931 . S
H393 C375 0.931 . S
H394 C379 0.929 . S
H395 C381 0.930 . S
H396 C408 0.930 . S
H397 C410 0.930 . S
H398 C411 0.930 . S
H399 C415 0.959 . S
H400 C415 0.959 . S
H401 C415 0.961 . S
H402 C416 0.960 . S
H403 C416 0.961 . S
H404 C416 0.959 . S
H405 C419 0.929 . S
H406 C420 0.931 . S
H407 C422 0.930 . S
C408 H396 0.930 . S
C408 C409 1.399 . S
C408 C413 1.399 . S
C409 C408 1.399 . S
C409 C410 1.376 . S
C410 H397 0.930 . S
C410 C409 1.376 . S
C410 C411 1.388 . S
C411 H398 0.930 . S
C411 C410 1.388 . S
C411 C412 1.390 . S
C412 C411 1.390 . S
C412 C413 1.394 . S
C412 C418 1.465 . S
C413 C408 1.399 . S
C413 C412 1.394 . S
C413 C414 1.516 . S
C414 C413 1.516 . S
C414 C415 1.502 . S
C414 C416 1.561 . S
C414 C417 1.526 . S
C415 H399 0.959 . S
C415 H400 0.959 . S
C415 H401 0.961 . S
C415 C414 1.502 . S
C416 H402 0.960 . S
C416 H403 0.961 . S
C416 H404 0.959 . S
C416 C414 1.561 . S
C417 C414 1.526 . S
C417 C418 1.396 . S
C417 C422 1.390 . S
C418 C412 1.465 . S
C418 C417 1.396 . S
C418 C419 1.399 . S
C419 H405 0.929 . S
C419 C418 1.399 . S
C419 C420 1.385 . S
C420 H406 0.931 . S
C420 C419 1.385 . S
C420 C421 1.389 . S
C421 C420 1.389 . S
C421 C422 1.387 . S
C422 H407 0.930 . S
C422 C417 1.390 . S
C422 C421 1.387 . S
H423 C435 0.926 1_455 S
H424 C437 0.930 . S
H425 C438 0.930 . S
H426 C442 0.959 . S
H427 C442 0.959 . S
H428 C442 0.961 . S
H429 C443 0.960 . S
H430 C443 0.961 . S
H431 C443 0.976 . S
H432 C446 0.929 . S
H433 C447 0.931 . S
H434 C449 0.930 . S
C435 H423 0.926 1_655 S
C435 C436 1.404 . S
C435 C440 1.398 1_655 S
C436 C435 1.404 . S
C436 C437 1.376 . S
C437 H424 0.930 . S
C437 C436 1.376 . S
C437 C438 1.388 . S
C438 H425 0.930 . S
C438 C437 1.388 . S
C438 C439 1.390 . S
C439 C438 1.390 . S
C439 C440 1.394 1_655 S
C439 C445 1.465 . S
C440 C435 1.398 1_455 S
C440 C439 1.394 1_455 S
C440 C441 1.516 . S
C441 C440 1.516 . S
C441 C442 1.502 . S
C441 C443 1.561 . S
C441 C444 1.526 . S
C442 H426 0.959 . S
C442 H427 0.959 . S
C442 H428 0.961 . S
C442 C441 1.502 . S
C443 H429 0.960 . S
C443 H430 0.961 . S
C443 H431 0.976 . S
C443 C441 1.561 . S
C444 C441 1.526 . S
C444 C445 1.396 1_455 S
C444 C449 1.390 . S
C445 C439 1.465 . S
C445 C444 1.396 1_655 S
C445 C446 1.399 . S
C446 H432 0.929 . S
C446 C445 1.399 . S
C446 C447 1.385 . S
C447 H433 0.931 . S
C447 C446 1.385 . S
C447 C448 1.389 1_655 S
C448 C447 1.389 1_455 S
C448 C449 1.387 . S
C449 H434 0.930 . S
C449 C444 1.390 . S
C449 C448 1.387 . S
H450 C462 0.930 . S
H451 C464 0.930 . S
H452 C465 0.930 . S
H453 C469 0.959 . S
H454 C469 0.961 1_554 S
H455 C469 0.961 . S
H456 C470 0.960 . S
H457 C470 0.961 . S
H458 C470 0.959 . S
H459 C473 0.929 . S
H460 C474 0.931 . S
H461 C476 0.930 . S
C462 H450 0.930 . S
C462 C463 1.399 1_545 S
C462 C467 1.399 . S
C463 C462 1.399 1_565 S
C463 C464 1.376 . S
C464 H451 0.930 . S
C464 C463 1.376 . S
C464 C465 1.388 . S
C465 H452 0.930 . S
C465 C464 1.388 . S
C465 C466 1.390 . S
C466 C465 1.390 . S
C466 C467 1.394 1_565 S
C466 C472 1.465 1_556 S
C467 C462 1.399 . S
C467 C466 1.394 1_545 S
C467 C468 1.516 . S
C468 C467 1.516 . S
C468 C469 1.502 . S
C468 C470 1.561 . S
C468 C471 1.526 1_556 S
C469 H453 0.959 . S
C469 H454 0.961 1_556 S
C469 H455 0.961 . S
C469 C468 1.502 . S
C470 H456 0.960 . S
C470 H457 0.961 . S
C470 H458 0.959 . S
C470 C468 1.561 . S
C471 C468 1.526 1_554 S
C471 C472 1.396 1_545 S
C471 C476 1.390 . S
C472 C466 1.465 1_554 S
C472 C471 1.396 1_565 S
C472 C473 1.399 . S
C473 H459 0.929 . S
C473 C472 1.399 . S
C473 C474 1.385 . S
C474 H460 0.931 . S
C474 C473 1.385 . S
C474 C475 1.389 1_565 S
C475 C474 1.389 1_545 S
C475 C476 1.387 . S
C476 H461 0.930 . S
C476 C471 1.390 . S
C476 C475 1.387 . S
H477 C489 0.930 . S
H478 C491 0.930 . S
H479 C492 0.930 . S
H480 C496 0.959 . S
H481 C496 0.959 . S
H482 C496 0.961 . S
H483 C497 0.960 . S
H484 C497 0.961 . S
H485 C497 0.959 . S
H486 C500 0.929 . S
H487 C501 0.931 . S
H488 C503 0.930 . S
C489 H477 0.930 . S
C489 C490 1.399 . S
C489 C494 1.399 . S
C490 C489 1.399 . S
C490 C491 1.376 . S
C491 H478 0.930 . S
C491 C490 1.376 . S
C491 C492 1.388 . S
C492 H479 0.930 . S
C492 C491 1.388 . S
C492 C493 1.390 . S
C493 C492 1.390 . S
C493 C494 1.394 . S
C493 C499 1.465 . S
C494 C489 1.399 . S
C494 C493 1.394 . S
C494 C495 1.516 . S
C495 C494 1.516 . S
C495 C496 1.502 . S
C495 C497 1.561 . S
C495 C498 1.526 . S
C496 H480 0.959 . S
C496 H481 0.959 . S
C496 H482 0.961 . S
C496 C495 1.502 . S
C497 H483 0.960 . S
C497 H484 0.961 . S
C497 H485 0.959 . S
C497 C495 1.561 . S
C498 C495 1.526 . S
C498 C499 1.396 . S
C498 C503 1.390 . S
C499 C493 1.465 . S
C499 C498 1.396 . S
C499 C500 1.399 . S
C500 H486 0.929 . S
C500 C499 1.399 . S
C500 C501 1.385 . S
C501 H487 0.931 . S
C501 C500 1.385 . S
C501 C502 1.389 . S
C502 C501 1.389 . S
C502 C503 1.387 . S
C503 H488 0.930 . S
C503 C498 1.390 . S
C503 C502 1.387 . S
H504 C516 0.930 . S
H505 C518 0.930 . S
H506 C519 0.930 . S
H507 C523 0.959 . S
H508 C523 0.959 . S
H509 C523 0.961 . S
H510 C524 0.960 . S
H511 C524 0.961 . S
H512 C524 0.959 . S
H513 C527 0.929 . S
H514 C528 0.931 . S
H515 C530 0.926 1_455 S
C516 H504 0.930 . S
C516 C517 1.399 . S
C516 C521 1.399 . S
C517 C516 1.399 . S
C517 C518 1.376 1_455 S
C518 H505 0.930 . S
C518 C517 1.376 1_655 S
C518 C519 1.388 . S
C519 H506 0.930 . S
C519 C518 1.388 . S
C519 C520 1.390 . S
C520 C519 1.390 . S
C520 C521 1.394 1_655 S
C520 C526 1.465 . S
C521 C516 1.399 . S
C521 C520 1.394 1_455 S
C521 C522 1.516 . S
C522 C521 1.516 . S
C522 C523 1.502 . S
C522 C524 1.561 . S
C522 C525 1.526 . S
C523 H507 0.959 . S
C523 H508 0.959 . S
C523 H509 0.961 . S
C523 C522 1.502 . S
C524 H510 0.960 . S
C524 H511 0.961 . S
C524 H512 0.959 . S
C524 C522 1.561 . S
C525 C522 1.526 . S
C525 C526 1.396 1_455 S
C525 C530 1.388 1_455 S
C526 C520 1.465 . S
C526 C525 1.396 1_655 S
C526 C527 1.399 . S
C527 H513 0.929 . S
C527 C526 1.399 . S
C527 C528 1.385 . S
C528 H514 0.931 . S
C528 C527 1.385 . S
C528 C529 1.389 . S
C529 C528 1.389 . S
C529 C530 1.393 . S
C530 H515 0.926 1_655 S
C530 C525 1.388 1_655 S
C530 C529 1.393 . S
H531 C543 0.930 . S
H532 C545 0.930 . S
H533 C546 0.930 . S
H534 C550 0.959 . S
H535 C550 0.959 . S
H536 C550 0.971 . S
H537 C551 0.960 . S
H538 C551 0.961 . S
H539 C551 0.959 . S
H540 C554 0.929 . S
H541 C555 0.931 . S
H542 C557 0.930 . S
C543 H531 0.930 . S
C543 C544 1.399 . S
C543 C548 1.399 . S
C544 C543 1.399 . S
C544 C545 1.376 1_545 S
C545 H532 0.930 . S
C545 C544 1.376 1_565 S
C545 C546 1.388 . S
C546 H533 0.930 . S
C546 C545 1.388 . S
C546 C547 1.390 . S
C547 C546 1.390 . S
C547 C548 1.394 1_565 S
C547 C553 1.465 1_556 S
C548 C543 1.399 . S
C548 C547 1.394 1_545 S
C548 C549 1.516 1_556 S
C549 C548 1.516 1_554 S
C549 C550 1.502 . S
C549 C551 1.561 . S
C549 C552 1.526 . S
C550 H534 0.959 . S
C550 H535 0.959 . S
C550 H536 0.971 . S
C550 C549 1.502 . S
C551 H537 0.960 . S
C551 H538 0.961 . S
C551 H539 0.959 . S
C551 C549 1.561 . S
C552 C549 1.526 . S
C552 C553 1.396 1_545 S
C552 C557 1.390 . S
C553 C547 1.465 1_554 S
C553 C552 1.396 1_565 S
C553 C554 1.399 . S
C554 H540 0.929 . S
C554 C553 1.399 . S
C554 C555 1.385 . S
C555 H541 0.931 . S
C555 C554 1.385 . S
C555 C556 1.389 . S
C556 C555 1.389 . S
C556 C557 1.387 1_565 S
C557 H542 0.930 . S
C557 C552 1.390 . S
C557 C556 1.387 1_545 S
H558 C570 0.930 . S
H559 C572 0.930 . S
H560 C573 0.930 . S
H561 C577 0.959 . S
H562 C577 0.959 1_554 S
H563 C577 0.961 . S
H564 C578 0.960 1_556 S
H565 C578 0.961 . S
H566 C578 0.959 . S
H567 C581 0.929 . S
H568 C582 0.931 . S
H569 C584 0.930 . S
C570 H558 0.930 . S
C570 C571 1.399 . S
C570 C575 1.399 . S
C571 C570 1.399 . S
C571 C572 1.376 . S
C572 H559 0.930 . S
C572 C571 1.376 . S
C572 C573 1.388 . S
C573 H560 0.930 . S
C573 C572 1.388 . S
C573 C574 1.390 . S
C574 C573 1.390 . S
C574 C575 1.394 . S
C574 C580 1.465 1_556 S
C575 C570 1.399 . S
C575 C574 1.394 . S
C575 C576 1.491 1_556 S
C576 C575 1.491 1_554 S
C576 C577 1.493 1_554 S
C576 C578 1.572 . S
C576 C579 1.551 . S
C577 H561 0.959 . S
C577 H562 0.959 1_556 S
C577 H563 0.961 . S
C577 C576 1.493 1_556 S
C578 H564 0.960 1_554 S
C578 H565 0.961 . S
C578 H566 0.959 . S
C578 C576 1.572 . S
C579 C576 1.551 . S
C579 C580 1.396 . S
C579 C584 1.390 . S
C580 C574 1.465 1_554 S
C580 C579 1.396 . S
C580 C581 1.399 . S
C581 H567 0.929 . S
C581 C580 1.399 . S
C581 C582 1.385 . S
C582 H568 0.931 . S
C582 C581 1.385 . S
C582 C583 1.389 . S
C583 C582 1.389 . S
C583 C584 1.387 . S
C584 H569 0.930 . S
C584 C579 1.390 . S
C584 C583 1.387 . S
H585 C597 0.930 . S
H586 C599 0.930 . S
H587 C600 0.930 . S
H588 C604 0.959 . S
H589 C604 0.959 . S
H590 C604 0.961 . S
H591 C605 0.960 . S
H592 C605 0.961 . S
H593 C605 0.959 . S
H594 C608 0.929 . S
H595 C609 0.931 . S
H596 C611 0.930 . S
C597 H585 0.930 . S
C597 C598 1.399 . S
C597 C602 1.399 . S
C598 C597 1.399 . S
C598 C599 1.376 . S
C599 H586 0.930 . S
C599 C598 1.376 . S
C599 C600 1.388 . S
C600 H587 0.930 . S
C600 C599 1.388 . S
C600 C601 1.390 . S
C601 C600 1.390 . S
C601 C602 1.394 . S
C601 C607 1.465 . S
C602 C597 1.399 . S
C602 C601 1.394 . S
C602 C603 1.516 . S
C603 C602 1.516 . S
C603 C604 1.502 . S
C603 C605 1.561 . S
C603 C606 1.526 . S
C604 H588 0.959 . S
C604 H589 0.959 . S
C604 H590 0.961 . S
C604 C603 1.502 . S
C605 H591 0.960 . S
C605 H592 0.961 . S
C605 H593 0.959 . S
C605 C603 1.561 . S
C606 C603 1.526 . S
C606 C607 1.396 . S
C606 C611 1.390 . S
C607 C601 1.465 . S
C607 C606 1.396 . S
C607 C608 1.399 . S
C608 H594 0.929 . S
C608 C607 1.399 . S
C608 C609 1.385 . S
C609 H595 0.931 . S
C609 C608 1.385 . S
C609 C610 1.389 . S
C610 C609 1.389 . S
C610 C611 1.387 . S
C611 H596 0.930 . S
C611 C606 1.390 . S
C611 C610 1.387 . S
H612 C624 0.930 . S
H613 C626 0.930 . S
H614 C627 0.930 . S
H615 C631 0.959 . S
H616 C631 0.959 . S
H617 C631 0.961 . S
H618 C632 0.960 . S
H619 C632 0.961 . S
H620 C632 0.959 . S
H621 C635 0.929 . S
H622 C636 0.931 . S
H623 C638 0.930 . S
C624 H612 0.930 . S
C624 C625 1.399 . S
C624 C629 1.399 . S
C625 C624 1.399 . S
C625 C626 1.376 . S
C626 H613 0.930 . S
C626 C625 1.376 . S
C626 C627 1.388 . S
C627 H614 0.930 . S
C627 C626 1.388 . S
C627 C628 1.390 . S
C628 C627 1.390 . S
C628 C629 1.394 . S
C628 C634 1.465 . S
C629 C624 1.399 . S
C629 C628 1.394 . S
C629 C630 1.516 . S
C630 C629 1.516 . S
C630 C631 1.502 . S
C630 C632 1.561 . S
C630 C633 1.526 . S
C631 H615 0.959 . S
C631 H616 0.959 . S
C631 H617 0.961 . S
C631 C630 1.502 . S
C632 H618 0.960 . S
C632 H619 0.961 . S
C632 H620 0.959 . S
C632 C630 1.561 . S
C633 C630 1.526 . S
C633 C634 1.396 . S
C633 C638 1.390 . S
C634 C628 1.465 . S
C634 C633 1.396 . S
C634 C635 1.399 . S
C635 H621 0.929 . S
C635 C634 1.399 . S
C635 C636 1.385 . S
C636 H622 0.931 . S
C636 C635 1.385 . S
C636 C637 1.389 . S
C637 C636 1.389 . S
C637 C638 1.387 . S
C638 H623 0.930 . S
C638 C633 1.390 . S
C638 C637 1.387 . S
H639 C651 0.930 . S
H640 C653 0.930 . S
H641 C654 0.930 . S
H642 C658 0.959 . S
H643 C658 0.959 1_554 S
H644 C658 0.961 . S
H645 C659 0.960 1_556 S
H646 C659 0.961 . S
H647 C659 0.959 . S
H648 C662 0.929 . S
H649 C663 0.931 . S
H650 C665 0.930 . S
C651 H639 0.930 . S
C651 C652 1.399 . S
C651 C656 1.399 . S
C652 C651 1.399 . S
C652 C653 1.376 . S
C653 H640 0.930 . S
C653 C652 1.376 . S
C653 C654 1.388 . S
C654 H641 0.930 . S
C654 C653 1.388 . S
C654 C655 1.390 . S
C655 C654 1.390 . S
C655 C656 1.394 . S
C655 C661 1.465 1_556 S
C656 C651 1.399 . S
C656 C655 1.394 . S
C656 C657 1.516 . S
C657 C656 1.516 . S
C657 C658 1.502 . S
C657 C659 1.561 1_556 S
C657 C660 1.526 1_556 S
C658 H642 0.959 . S
C658 H643 0.959 1_556 S
C658 H644 0.961 . S
C658 C657 1.502 . S
C659 H645 0.960 1_554 S
C659 H646 0.961 . S
C659 H647 0.959 . S
C659 C657 1.561 1_554 S
C660 C657 1.526 1_554 S
C660 C661 1.396 . S
C660 C665 1.390 . S
C661 C655 1.465 1_554 S
C661 C660 1.396 . S
C661 C662 1.399 . S
C662 H648 0.929 . S
C662 C661 1.399 . S
C662 C663 1.385 . S
C663 H649 0.931 . S
C663 C662 1.385 . S
C663 C664 1.389 . S
C664 C663 1.389 . S
C664 C665 1.387 . S
C665 H650 0.930 . S
C665 C660 1.390 . S
C665 C664 1.387 . S
H666 C678 0.930 . S
H667 C680 0.930 . S
H668 C681 0.930 . S
H669 C685 0.959 . S
H670 C685 0.959 . S
H671 C685 0.961 . S
H672 C686 0.960 . S
H673 C686 0.961 . S
H674 C686 0.959 . S
H675 C689 0.929 . S
H676 C690 0.931 . S
H677 C692 0.930 . S
C678 H666 0.930 . S
C678 C679 1.399 . S
C678 C683 1.399 . S
C679 C678 1.399 . S
C679 C680 1.376 . S
C680 H667 0.930 . S
C680 C679 1.376 . S
C680 C681 1.388 . S
C681 H668 0.930 . S
C681 C680 1.388 . S
C681 C682 1.390 . S
C682 C681 1.390 . S
C682 C683 1.394 . S
C682 C688 1.465 . S
C683 C678 1.399 . S
C683 C682 1.394 . S
C683 C684 1.516 . S
C684 C683 1.516 . S
C684 C685 1.502 . S
C684 C686 1.561 . S
C684 C687 1.526 . S
C685 H669 0.959 . S
C685 H670 0.959 . S
C685 H671 0.961 . S
C685 C684 1.502 . S
C686 H672 0.960 . S
C686 H673 0.961 . S
C686 H674 0.959 . S
C686 C684 1.561 . S
C687 C684 1.526 . S
C687 C688 1.396 . S
C687 C692 1.390 . S
C688 C682 1.465 . S
C688 C687 1.396 . S
C688 C689 1.399 . S
C689 H675 0.929 . S
C689 C688 1.399 . S
C689 C690 1.385 . S
C690 H676 0.931 . S
C690 C689 1.385 . S
C690 C691 1.389 . S
C691 C690 1.389 . S
C691 C692 1.387 . S
C692 H677 0.930 . S
C692 C687 1.390 . S
C692 C691 1.387 . S
H693 C705 0.930 . S
H694 C707 0.930 . S
H695 C708 0.930 . S
H696 C712 0.959 . S
H697 C712 0.959 . S
H698 C712 0.961 . S
H699 C713 0.960 . S
H700 C713 0.961 . S
H701 C713 0.959 . S
H702 C716 0.929 . S
H703 C717 0.931 . S
H704 C719 0.930 . S
C705 H693 0.930 . S
C705 C706 1.399 . S
C705 C710 1.399 . S
C706 C705 1.399 . S
C706 C707 1.376 . S
C707 H694 0.930 . S
C707 C706 1.376 . S
C707 C708 1.388 . S
C708 H695 0.930 . S
C708 C707 1.388 . S
C708 C709 1.390 . S
C709 C708 1.390 . S
C709 C710 1.394 . S
C709 C715 1.465 . S
C710 C705 1.399 . S
C710 C709 1.394 . S
C710 C711 1.516 . S
C711 C710 1.516 . S
C711 C712 1.502 . S
C711 C713 1.561 . S
C711 C714 1.526 . S
C712 H696 0.959 . S
C712 H697 0.959 . S
C712 H698 0.961 . S
C712 C711 1.502 . S
C713 H699 0.960 . S
C713 H700 0.961 . S
C713 H701 0.959 . S
C713 C711 1.561 . S
C714 C711 1.526 . S
C714 C715 1.396 . S
C714 C719 1.390 . S
C715 C709 1.465 . S
C715 C714 1.396 . S
C715 C716 1.399 . S
C716 H702 0.929 . S
C716 C715 1.399 . S
C716 C717 1.385 . S
C717 H703 0.931 . S
C717 C716 1.385 . S
C717 C718 1.389 . S
C718 C717 1.389 . S
C718 C719 1.387 . S
C719 H704 0.930 . S
C719 C714 1.390 . S
C719 C718 1.387 . S
H720 C732 0.930 . S
H721 C734 0.930 . S
H722 C735 0.930 . S
H723 C739 0.959 . S
H724 C739 0.959 . S
H725 C739 0.961 . S
H726 C740 0.960 . S
H727 C740 0.961 . S
H728 C740 0.959 . S
H729 C743 0.929 . S
H730 C744 0.931 . S
H731 C746 0.930 . S
C732 H720 0.930 . S
C732 C733 1.399 . S
C732 C737 1.399 . S
C733 C732 1.399 . S
C733 C734 1.376 . S
C734 H721 0.930 . S
C734 C733 1.376 . S
C734 C735 1.388 . S
C735 H722 0.930 . S
C735 C734 1.388 . S
C735 C736 1.390 . S
C736 C735 1.390 . S
C736 C737 1.394 . S
C736 C742 1.465 . S
C737 C732 1.399 . S
C737 C736 1.394 . S
C737 C738 1.516 . S
C738 C737 1.516 . S
C738 C739 1.502 . S
C738 C740 1.561 . S
C738 C741 1.526 . S
C739 H723 0.959 . S
C739 H724 0.959 . S
C739 H725 0.961 . S
C739 C738 1.502 . S
C740 H726 0.960 . S
C740 H727 0.961 . S
C740 H728 0.959 . S
C740 C738 1.561 . S
C741 C738 1.526 . S
C741 C742 1.396 . S
C741 C746 1.390 . S
C742 C736 1.465 . S
C742 C741 1.396 . S
C742 C743 1.399 . S
C743 H729 0.929 . S
C743 C742 1.399 . S
C743 C744 1.385 . S
C744 H730 0.931 . S
C744 C743 1.385 . S
C744 C745 1.389 . S
C745 C744 1.389 . S
C745 C746 1.387 . S
C746 H731 0.930 . S
C746 C741 1.390 . S
C746 C745 1.387 . S
H747 C759 0.930 . S
H748 C761 0.930 . S
H749 C762 0.930 . S
H750 C766 0.959 . S
H751 C766 0.959 . S
H752 C766 0.961 . S
H753 C767 0.960 . S
H754 C767 0.961 . S
H755 C767 0.959 . S
H756 C770 0.929 . S
H757 C771 0.931 . S
H758 C773 0.930 . S
C759 H747 0.930 . S
C759 C760 1.399 . S
C759 C764 1.399 . S
C760 C759 1.399 . S
C760 C761 1.376 . S
C761 H748 0.930 . S
C761 C760 1.376 . S
C761 C762 1.388 . S
C762 H749 0.930 . S
C762 C761 1.388 . S
C762 C763 1.390 . S
C763 C762 1.390 . S
C763 C764 1.394 . S
C763 C769 1.465 1_655 S
C764 C759 1.399 . S
C764 C763 1.394 . S
C764 C765 1.516 1_655 S
C765 C764 1.516 1_455 S
C765 C766 1.502 . S
C765 C767 1.561 1_455 S
C765 C768 1.526 . S
C766 H750 0.959 . S
C766 H751 0.959 . S
C766 H752 0.961 . S
C766 C765 1.502 . S
C767 H753 0.960 . S
C767 H754 0.961 . S
C767 H755 0.959 . S
C767 C765 1.561 1_655 S
C768 C765 1.526 . S
C768 C769 1.396 . S
C768 C773 1.390 . S
C769 C763 1.465 1_455 S
C769 C768 1.396 . S
C769 C770 1.399 . S
C770 H756 0.929 . S
C770 C769 1.399 . S
C770 C771 1.385 . S
C771 H757 0.931 . S
C771 C770 1.385 . S
C771 C772 1.389 . S
C772 C771 1.389 . S
C772 C773 1.387 . S
C773 H758 0.930 . S
C773 C768 1.390 . S
C773 C772 1.387 . S
H774 C786 0.930 . S
H775 C788 0.930 . S
H776 C789 0.930 1_565 S
H777 C793 0.959 . S
H778 C793 0.959 . S
H779 C793 0.961 . S
H780 C794 0.960 1_545 S
H781 C794 0.961 . S
H782 C794 0.959 . S
H783 C797 0.929 . S
H784 C798 0.931 . S
H785 C800 0.930 . S
C786 H774 0.930 . S
C786 C787 1.399 . S
C786 C791 1.399 . S
C787 C786 1.399 . S
C787 C788 1.376 . S
C788 H775 0.930 . S
C788 C787 1.376 . S
C788 C789 1.388 . S
C789 H776 0.930 1_545 S
C789 C788 1.388 . S
C789 C790 1.390 . S
C790 C789 1.390 . S
C790 C791 1.394 . S
C790 C796 1.465 1_545 S
C791 C786 1.399 . S
C791 C790 1.394 . S
C791 C792 1.516 . S
C792 C791 1.516 . S
C792 C793 1.502 . S
C792 C794 1.561 1_545 S
C792 C795 1.526 1_545 S
C793 H777 0.959 . S
C793 H778 0.959 . S
C793 H779 0.961 . S
C793 C792 1.502 . S
C794 H780 0.960 1_565 S
C794 H781 0.961 . S
C794 H782 0.959 . S
C794 C792 1.561 1_565 S
C795 C792 1.526 1_565 S
C795 C796 1.396 . S
C795 C800 1.390 . S
C796 C790 1.465 1_565 S
C796 C795 1.396 . S
C796 C797 1.399 . S
C797 H783 0.929 . S
C797 C796 1.399 . S
C797 C798 1.385 . S
C798 H784 0.931 . S
C798 C797 1.385 . S
C798 C799 1.389 . S
C799 C798 1.389 . S
C799 C800 1.387 . S
C800 H785 0.930 . S
C800 C795 1.390 . S
C800 C799 1.387 . S
H801 C813 0.930 . S
H802 C815 0.930 . S
H803 C816 0.930 . S
H804 C820 0.959 . S
H805 C820 0.959 . S
H806 C820 0.961 . S
H807 C821 0.960 . S
H808 C821 0.961 . S
H809 C821 0.959 . S
H810 C824 0.929 . S
H811 C825 0.931 . S
H812 C827 0.930 . S
C813 H801 0.930 . S
C813 C814 1.399 . S
C813 C818 1.399 . S
C814 C813 1.399 . S
C814 C815 1.376 . S
C815 H802 0.930 . S
C815 C814 1.376 . S
C815 C816 1.388 . S
C816 H803 0.930 . S
C816 C815 1.388 . S
C816 C817 1.390 . S
C817 C816 1.390 . S
C817 C818 1.394 . S
C817 C823 1.465 . S
C818 C813 1.399 . S
C818 C817 1.394 . S
C818 C819 1.516 . S
C819 C818 1.516 . S
C819 C820 1.502 . S
C819 C821 1.561 . S
C819 C822 1.526 . S
C820 H804 0.959 . S
C820 H805 0.959 . S
C820 H806 0.961 . S
C820 C819 1.502 . S
C821 H807 0.960 . S
C821 H808 0.961 . S
C821 H809 0.959 . S
C821 C819 1.561 . S
C822 C819 1.526 . S
C822 C823 1.396 . S
C822 C827 1.390 . S
C823 C817 1.465 . S
C823 C822 1.396 . S
C823 C824 1.399 . S
C824 H810 0.929 . S
C824 C823 1.399 . S
C824 C825 1.385 . S
C825 H811 0.931 . S
C825 C824 1.385 . S
C825 C826 1.389 . S
C826 C825 1.389 . S
C826 C827 1.387 . S
C827 H812 0.930 . S
C827 C822 1.390 . S
C827 C826 1.387 . S
H828 C840 0.930 . S
H829 C842 0.930 . S
H830 C843 0.930 . S
H831 C847 0.959 . S
H832 C847 0.959 . S
H833 C847 0.961 . S
H834 C848 0.960 . S
H835 C848 0.961 . S
H836 C848 0.959 . S
H837 C851 0.929 . S
H838 C852 0.931 . S
H839 C854 0.930 . S
C840 H828 0.930 . S
C840 C841 1.399 . S
C840 C845 1.399 . S
C841 C840 1.399 . S
C841 C842 1.376 . S
C842 H829 0.930 . S
C842 C841 1.376 . S
C842 C843 1.388 . S
C843 H830 0.930 . S
C843 C842 1.388 . S
C843 C844 1.390 . S
C844 C843 1.390 . S
C844 C845 1.394 . S
C844 C850 1.465 1_655 S
C845 C840 1.399 . S
C845 C844 1.394 . S
C845 C846 1.516 . S
C846 C845 1.516 . S
C846 C847 1.502 . S
C846 C848 1.561 1_655 S
C846 C849 1.526 1_655 S
C847 H831 0.959 . S
C847 H832 0.959 . S
C847 H833 0.961 . S
C847 C846 1.502 . S
C848 H834 0.960 . S
C848 H835 0.961 . S
C848 H836 0.959 . S
C848 C846 1.561 1_455 S
C849 C846 1.526 1_455 S
C849 C850 1.396 . S
C849 C854 1.390 . S
C850 C844 1.465 1_455 S
C850 C849 1.396 . S
C850 C851 1.399 . S
C851 H837 0.929 . S
C851 C850 1.399 . S
C851 C852 1.385 . S
C852 H838 0.931 . S
C852 C851 1.385 . S
C852 C853 1.389 . S
C853 C852 1.389 . S
C853 C854 1.387 . S
C854 H839 0.930 . S
C854 C849 1.390 . S
C854 C853 1.387 . S
H855 C867 0.930 . S
H856 C869 0.930 . S
H857 C870 0.930 . S
H858 C874 0.959 1_545 S
H859 C874 0.959 . S
H860 C874 0.961 1_545 S
H861 C875 0.960 . S
H862 C875 0.961 . S
H863 C875 0.959 . S
H864 C878 0.929 . S
H865 C879 0.931 . S
H866 C881 0.930 . S
C867 H855 0.930 . S
C867 C868 1.399 . S
C867 C872 1.399 . S
C868 C867 1.399 . S
C868 C869 1.376 . S
C869 H856 0.930 . S
C869 C868 1.376 . S
C869 C870 1.388 . S
C870 H857 0.930 . S
C870 C869 1.388 . S
C870 C871 1.390 . S
C871 C870 1.390 . S
C871 C872 1.394 . S
C871 C877 1.465 1_545 S
C872 C867 1.399 . S
C872 C871 1.394 . S
C872 C873 1.516 1_545 S
C873 C872 1.516 1_565 S
C873 C874 1.502 . S
C873 C875 1.561 . S
C873 C876 1.526 . S
C874 H858 0.959 1_565 S
C874 H859 0.959 . S
C874 H860 0.961 1_565 S
C874 C873 1.502 . S
C875 H861 0.960 . S
C875 H862 0.961 . S
C875 H863 0.959 . S
C875 C873 1.561 . S
C876 C873 1.526 . S
C876 C877 1.396 . S
C876 C881 1.390 . S
C877 C871 1.465 1_565 S
C877 C876 1.396 . S
C877 C878 1.399 . S
C878 H864 0.929 . S
C878 C877 1.399 . S
C878 C879 1.385 . S
C879 H865 0.931 . S
C879 C878 1.385 . S
C879 C880 1.389 . S
C880 C879 1.389 . S
C880 C881 1.387 . S
C881 H866 0.930 . S
C881 C876 1.390 . S
C881 C880 1.387 . S
H882 C894 0.930 . S
H883 C896 0.930 . S
H884 C897 0.930 . S
H885 C901 0.950 1_655 S
H886 C901 0.951 1_655 S
H887 C901 0.982 . S
H888 C902 0.942 1_455 S
H889 C902 0.968 . S
H890 C902 0.963 . S
H891 C905 0.929 . S
H892 C906 0.931 . S
H893 C908 0.930 . S
C894 H882 0.930 . S
C894 C895 1.399 . S
C894 C899 1.399 . S
C895 C894 1.399 . S
C895 C896 1.376 . S
C896 H883 0.930 . S
C896 C895 1.376 . S
C896 C897 1.388 . S
C897 H884 0.930 . S
C897 C896 1.388 . S
C897 C898 1.390 . S
C898 C897 1.390 . S
C898 C899 1.394 . S
C898 C904 1.465 1_455 S
C899 C894 1.399 . S
C899 C898 1.394 . S
C899 C900 1.519 . S
C900 C899 1.519 . S
C900 C901 1.500 . S
C900 C902 1.571 1_455 S
C900 C903 1.518 1_455 S
C901 H885 0.950 1_455 S
C901 H886 0.951 1_455 S
C901 H887 0.982 . S
C901 C900 1.500 . S
C902 H888 0.942 1_655 S
C902 H889 0.968 . S
C902 H890 0.963 . S
C902 C900 1.571 1_655 S
C903 C900 1.518 1_655 S
C903 C904 1.396 . S
C903 C908 1.390 . S
C904 C898 1.465 1_655 S
C904 C903 1.396 . S
C904 C905 1.399 . S
C905 H891 0.929 . S
C905 C904 1.399 . S
C905 C906 1.385 . S
C906 H892 0.931 . S
C906 C905 1.385 . S
C906 C907 1.389 . S
C907 C906 1.389 . S
C907 C908 1.387 . S
C908 H893 0.930 . S
C908 C903 1.390 . S
C908 C907 1.387 . S
H909 C921 0.930 . S
H910 C923 0.930 . S
H911 C924 0.930 . S
H912 C928 0.953 1_545 S
H913 C928 0.945 1_545 S
H914 C928 0.972 . S
H915 C929 0.960 . S
H916 C929 0.961 1_545 S
H917 C929 0.967 1_545 S
H918 C932 0.929 . S
H919 C933 0.931 . S
H920 C935 0.930 . S
C921 H909 0.930 . S
C921 C922 1.399 . S
C921 C926 1.399 . S
C922 C921 1.399 . S
C922 C923 1.376 . S
C923 H910 0.930 . S
C923 C922 1.376 . S
C923 C924 1.388 . S
C924 H911 0.930 . S
C924 C923 1.388 . S
C924 C925 1.390 . S
C925 C924 1.390 . S
C925 C926 1.394 . S
C925 C931 1.465 1_565 S
C926 C921 1.399 . S
C926 C925 1.394 . S
C926 C927 1.516 . S
C927 C926 1.516 . S
C927 C928 1.511 . S
C927 C929 1.561 . S
C927 C930 1.526 1_565 S
C928 H912 0.953 1_565 S
C928 H913 0.945 1_565 S
C928 H914 0.972 . S
C928 C927 1.511 . S
C929 H915 0.960 . S
C929 H916 0.961 1_565 S
C929 H917 0.967 1_565 S
C929 C927 1.561 . S
C930 C927 1.526 1_545 S
C930 C931 1.396 . S
C930 C935 1.390 . S
C931 C925 1.465 1_545 S
C931 C930 1.396 . S
C931 C932 1.399 . S
C932 H918 0.929 . S
C932 C931 1.399 . S
C932 C933 1.385 . S
C933 H919 0.931 . S
C933 C932 1.385 . S
C933 C934 1.389 . S
C934 C933 1.389 . S
C934 C935 1.387 . S
C935 H920 0.930 . S
C935 C930 1.390 . S
C935 C934 1.387 . S
H936 C948 0.930 . S
H937 C950 0.930 . S
H938 C951 0.930 . S
H939 C955 0.959 . S
H940 C955 0.959 . S
H941 C955 0.961 . S
H942 C956 0.960 . S
H943 C956 0.961 . S
H944 C956 0.959 . S
H945 C959 0.929 . S
H946 C960 0.931 . S
H947 C962 0.930 . S
C948 H936 0.930 . S
C948 C949 1.399 . S
C948 C953 1.399 . S
C949 C948 1.399 . S
C949 C950 1.376 . S
C950 H937 0.930 . S
C950 C949 1.376 . S
C950 C951 1.388 . S
C951 H938 0.930 . S
C951 C950 1.388 . S
C951 C952 1.390 . S
C952 C951 1.390 . S
C952 C953 1.394 . S
C952 C958 1.465 . S
C953 C948 1.399 . S
C953 C952 1.394 . S
C953 C954 1.516 . S
C954 C953 1.516 . S
C954 C955 1.502 . S
C954 C956 1.561 . S
C954 C957 1.526 . S
C955 H939 0.959 . S
C955 H940 0.959 . S
C955 H941 0.961 . S
C955 C954 1.502 . S
C956 H942 0.960 . S
C956 H943 0.961 . S
C956 H944 0.959 . S
C956 C954 1.561 . S
C957 C954 1.526 . S
C957 C958 1.396 . S
C957 C962 1.390 . S
C958 C952 1.465 . S
C958 C957 1.396 . S
C958 C959 1.399 . S
C959 H945 0.929 . S
C959 C958 1.399 . S
C959 C960 1.385 . S
C960 H946 0.931 . S
C960 C959 1.385 . S
C960 C961 1.389 . S
C961 C960 1.389 . S
C961 C962 1.387 . S
C962 H947 0.930 . S
C962 C957 1.390 . S
C962 C961 1.387 . S
H963 C975 0.930 . S
H964 C977 0.930 . S
H965 C978 0.930 . S
H966 C982 0.946 1_455 S
H967 C982 0.938 1_455 S
H968 C982 0.982 . S
H969 C983 0.960 . S
H970 C983 0.961 1_455 S
H971 C983 0.970 1_455 S
H972 C986 0.929 . S
H973 C987 0.931 . S
H974 C989 0.930 . S
C975 H963 0.930 . S
C975 C976 1.399 . S
C975 C980 1.399 . S
C976 C975 1.399 . S
C976 C977 1.376 . S
C977 H964 0.930 . S
C977 C976 1.376 . S
C977 C978 1.388 . S
C978 H965 0.930 . S
C978 C977 1.388 . S
C978 C979 1.390 . S
C979 C978 1.390 . S
C979 C980 1.394 . S
C979 C985 1.465 1_655 S
C980 C975 1.399 . S
C980 C979 1.394 . S
C980 C981 1.516 . S
C981 C980 1.516 . S
C981 C982 1.516 . S
C981 C983 1.561 . S
C981 C984 1.526 1_655 S
C982 H966 0.946 1_655 S
C982 H967 0.938 1_655 S
C982 H968 0.982 . S
C982 C981 1.516 . S
C983 H969 0.960 . S
C983 H970 0.961 1_655 S
C983 H971 0.970 1_655 S
C983 C981 1.561 . S
C984 C981 1.526 1_455 S
C984 C985 1.396 . S
C984 C989 1.390 . S
C985 C979 1.465 1_455 S
C985 C984 1.396 . S
C985 C986 1.399 . S
C986 H972 0.929 . S
C986 C985 1.399 . S
C986 C987 1.385 . S
C987 H973 0.931 . S
C987 C986 1.385 . S
C987 C988 1.389 . S
C988 C987 1.389 . S
C988 C989 1.387 . S
C989 H974 0.930 . S
C989 C984 1.390 . S
C989 C988 1.387 . S
H990 C1002 0.930 . S
H991 C1004 0.930 . S
H992 C1005 0.930 . S
H993 C1009 0.959 . S
H994 C1009 0.959 . S
H995 C1009 0.961 1_565 S
H996 C1010 0.960 1_565 S
H997 C1010 0.961 . S
H998 C1010 0.959 . S
H999 C1013 0.929 . S
H1000 C1014 0.931 . S
H1001 C1016 0.930 . S
C1002 H990 0.930 . S
C1002 C1003 1.399 . S
C1002 C1007 1.399 . S
C1003 C1002 1.399 . S
C1003 C1004 1.376 . S
C1004 H991 0.930 . S
C1004 C1003 1.376 . S
C1004 C1005 1.388 . S
C1005 H992 0.930 . S
C1005 C1004 1.388 . S
C1005 C1006 1.390 . S
C1006 C1005 1.390 . S
C1006 C1007 1.394 . S
C1006 C1012 1.465 1_565 S
C1007 C1002 1.399 . S
C1007 C1006 1.394 . S
C1007 C1008 1.516 1_565 S
C1008 C1007 1.516 1_545 S
C1008 C1009 1.502 . S
C1008 C1010 1.561 . S
C1008 C1011 1.526 . S
C1009 H993 0.959 . S
C1009 H994 0.959 . S
C1009 H995 0.961 1_545 S
C1009 C1008 1.502 . S
C1010 H996 0.960 1_545 S
C1010 H997 0.961 . S
C1010 H998 0.959 . S
C1010 C1008 1.561 . S
C1011 C1008 1.526 . S
C1011 C1012 1.396 . S
C1011 C1016 1.390 . S
C1012 C1006 1.465 1_545 S
C1012 C1011 1.396 . S
C1012 C1013 1.399 . S
C1013 H999 0.929 . S
C1013 C1012 1.399 . S
C1013 C1014 1.385 . S
C1014 H1000 0.931 . S
C1014 C1013 1.385 . S
C1014 C1015 1.389 . S
C1015 C1014 1.389 . S
C1015 C1016 1.387 . S
C1016 H1001 0.930 . S
C1016 C1011 1.390 . S
C1016 C1015 1.387 . S
H1017 C1029 0.930 . S
H1018 C1031 0.930 . S
H1019 C1032 0.930 . S
H1020 C1036 0.959 . S
H1021 C1036 0.959 . S
H1022 C1036 0.961 . S
H1023 C1037 0.960 . S
H1024 C1037 0.961 . S
H1025 C1037 0.959 . S
H1026 C1040 0.929 . S
H1027 C1041 0.931 . S
H1028 C1043 0.930 . S
C1029 H1017 0.930 . S
C1029 C1030 1.399 . S
C1029 C1034 1.399 . S
C1030 C1029 1.399 . S
C1030 C1031 1.376 . S
C1031 H1018 0.930 . S
C1031 C1030 1.376 . S
C1031 C1032 1.388 . S
C1032 H1019 0.930 . S
C1032 C1031 1.388 . S
C1032 C1033 1.390 . S
C1033 C1032 1.390 . S
C1033 C1034 1.394 . S
C1033 C1039 1.465 . S
C1034 C1029 1.399 . S
C1034 C1033 1.394 . S
C1034 C1035 1.516 . S
C1035 C1034 1.516 . S
C1035 C1036 1.502 . S
C1035 C1037 1.561 . S
C1035 C1038 1.526 . S
C1036 H1020 0.959 . S
C1036 H1021 0.959 . S
C1036 H1022 0.961 . S
C1036 C1035 1.502 . S
C1037 H1023 0.960 . S
C1037 H1024 0.961 . S
C1037 H1025 0.959 . S
C1037 C1035 1.561 . S
C1038 C1035 1.526 . S
C1038 C1039 1.396 . S
C1038 C1043 1.390 . S
C1039 C1033 1.465 . S
C1039 C1038 1.396 . S
C1039 C1040 1.399 . S
C1040 H1026 0.929 . S
C1040 C1039 1.399 . S
C1040 C1041 1.385 . S
C1041 H1027 0.931 . S
C1041 C1040 1.385 . S
C1041 C1042 1.389 . S
C1042 C1041 1.389 . S
C1042 C1043 1.387 . S
C1043 H1028 0.930 . S
C1043 C1038 1.390 . S
C1043 C1042 1.387 . S
H1044 C1056 0.930 . S
H1045 C1058 0.930 . S
H1046 C1059 0.930 . S
H1047 C1063 0.959 . S
H1048 C1063 0.959 . S
H1049 C1063 0.961 . S
H1050 C1064 0.960 . S
H1051 C1064 0.961 . S
H1052 C1064 0.959 . S
H1053 C1067 0.929 . S
H1054 C1068 0.931 . S
H1055 C1070 0.930 . S
C1056 H1044 0.930 . S
C1056 C1057 1.399 . S
C1056 C1061 1.399 . S
C1057 C1056 1.399 . S
C1057 C1058 1.376 . S
C1058 H1045 0.930 . S
C1058 C1057 1.376 . S
C1058 C1059 1.388 . S
C1059 H1046 0.930 . S
C1059 C1058 1.388 . S
C1059 C1060 1.390 . S
C1060 C1059 1.390 . S
C1060 C1061 1.394 . S
C1060 C1066 1.465 . S
C1061 C1056 1.399 . S
C1061 C1060 1.394 . S
C1061 C1062 1.516 . S
C1062 C1061 1.516 . S
C1062 C1063 1.502 . S
C1062 C1064 1.561 . S
C1062 C1065 1.526 . S
C1063 H1047 0.959 . S
C1063 H1048 0.959 . S
C1063 H1049 0.961 . S
C1063 C1062 1.502 . S
C1064 H1050 0.960 . S
C1064 H1051 0.961 . S
C1064 H1052 0.959 . S
C1064 C1062 1.561 . S
C1065 C1062 1.526 . S
C1065 C1066 1.396 . S
C1065 C1070 1.390 . S
C1066 C1060 1.465 . S
C1066 C1065 1.396 . S
C1066 C1067 1.399 . S
C1067 H1053 0.929 . S
C1067 C1066 1.399 . S
C1067 C1068 1.385 . S
C1068 H1054 0.931 . S
C1068 C1067 1.385 . S
C1068 C1069 1.389 . S
C1069 C1068 1.389 . S
C1069 C1070 1.387 . S
C1070 H1055 0.930 . S
C1070 C1065 1.390 . S
C1070 C1069 1.387 . S
H1071 C1083 0.930 . S
H1072 C1085 0.930 . S
H1073 C1086 0.930 . S
H1074 C1090 0.959 . S
H1075 C1090 0.959 . S
H1076 C1090 0.961 . S
H1077 C1091 0.960 . S
H1078 C1091 0.961 . S
H1079 C1091 0.959 . S
H1080 C1094 0.929 . S
H1081 C1095 0.931 . S
H1082 C1097 0.930 . S
C1083 H1071 0.930 . S
C1083 C1084 1.399 . S
C1083 C1088 1.399 . S
C1084 C1083 1.399 . S
C1084 C1085 1.376 . S
C1085 H1072 0.930 . S
C1085 C1084 1.376 . S
C1085 C1086 1.388 . S
C1086 H1073 0.930 . S
C1086 C1085 1.388 . S
C1086 C1087 1.390 . S
C1087 C1086 1.390 . S
C1087 C1088 1.394 . S
C1087 C1093 1.465 . S
C1088 C1083 1.399 . S
C1088 C1087 1.394 . S
C1088 C1089 1.516 . S
C1089 C1088 1.516 . S
C1089 C1090 1.502 . S
C1089 C1091 1.561 . S
C1089 C1092 1.526 . S
C1090 H1074 0.959 . S
C1090 H1075 0.959 . S
C1090 H1076 0.961 . S
C1090 C1089 1.502 . S
C1091 H1077 0.960 . S
C1091 H1078 0.961 . S
C1091 H1079 0.959 . S
C1091 C1089 1.561 . S
C1092 C1089 1.526 . S
C1092 C1093 1.396 . S
C1092 C1097 1.390 . S
C1093 C1087 1.465 . S
C1093 C1092 1.396 . S
C1093 C1094 1.399 . S
C1094 H1080 0.929 . S
C1094 C1093 1.399 . S
C1094 C1095 1.385 . S
C1095 H1081 0.931 . S
C1095 C1094 1.385 . S
C1095 C1096 1.389 . S
C1096 C1095 1.389 . S
C1096 C1097 1.387 . S
C1097 H1082 0.930 . S
C1097 C1092 1.390 . S
C1097 C1096 1.387 . S
H1098 C1110 0.930 . S
H1099 C1112 0.930 . S
H1100 C1113 0.930 . S
H1101 C1117 0.959 . S
H1102 C1117 0.959 . S
H1103 C1117 0.961 . S
H1104 C1118 0.960 . S
H1105 C1118 0.961 . S
H1106 C1118 0.959 . S
H1107 C1121 0.929 . S
H1108 C1122 0.931 . S
H1109 C1124 0.930 . S
C1110 H1098 0.930 . S
C1110 C1111 1.399 . S
C1110 C1115 1.399 . S
C1111 C1110 1.399 . S
C1111 C1112 1.376 . S
C1112 H1099 0.930 . S
C1112 C1111 1.376 . S
C1112 C1113 1.388 . S
C1113 H1100 0.930 . S
C1113 C1112 1.388 . S
C1113 C1114 1.390 . S
C1114 C1113 1.390 . S
C1114 C1115 1.394 . S
C1114 C1120 1.465 . S
C1115 C1110 1.399 . S
C1115 C1114 1.394 . S
C1115 C1116 1.516 . S
C1116 C1115 1.516 . S
C1116 C1117 1.502 . S
C1116 C1118 1.561 . S
C1116 C1119 1.526 . S
C1117 H1101 0.959 . S
C1117 H1102 0.959 . S
C1117 H1103 0.961 . S
C1117 C1116 1.502 . S
C1118 H1104 0.960 . S
C1118 H1105 0.961 . S
C1118 H1106 0.959 . S
C1118 C1116 1.561 . S
C1119 C1116 1.526 . S
C1119 C1120 1.396 . S
C1119 C1124 1.390 . S
C1120 C1114 1.465 . S
C1120 C1119 1.396 . S
C1120 C1121 1.399 . S
C1121 H1107 0.929 . S
C1121 C1120 1.399 . S
C1121 C1122 1.385 . S
C1122 H1108 0.931 . S
C1122 C1121 1.385 . S
C1122 C1123 1.389 . S
C1123 C1122 1.389 . S
C1123 C1124 1.387 . S
C1124 H1109 0.930 . S
C1124 C1119 1.390 . S
C1124 C1123 1.387 . S
H1125 C1137 0.930 . S
H1126 C1139 0.930 . S
H1127 C1140 0.930 . S
H1128 C1144 0.959 . S
H1129 C1144 0.959 . S
H1130 C1144 0.961 . S
H1131 C1145 0.960 . S
H1132 C1145 0.961 . S
H1133 C1145 0.959 . S
H1134 C1148 0.929 . S
H1135 C1149 0.931 . S
H1136 C1151 0.930 . S
C1137 H1125 0.930 . S
C1137 C1138 1.399 . S
C1137 C1142 1.399 . S
C1138 C1137 1.399 . S
C1138 C1139 1.376 . S
C1139 H1126 0.930 . S
C1139 C1138 1.376 . S
C1139 C1140 1.388 . S
C1140 H1127 0.930 . S
C1140 C1139 1.388 . S
C1140 C1141 1.390 . S
C1141 C1140 1.390 . S
C1141 C1142 1.394 . S
C1141 C1147 1.465 . S
C1142 C1137 1.399 . S
C1142 C1141 1.394 . S
C1142 C1143 1.516 . S
C1143 C1142 1.516 . S
C1143 C1144 1.502 . S
C1143 C1145 1.561 . S
C1143 C1146 1.526 . S
C1144 H1128 0.959 . S
C1144 H1129 0.959 . S
C1144 H1130 0.961 . S
C1144 C1143 1.502 . S
C1145 H1131 0.960 . S
C1145 H1132 0.961 . S
C1145 H1133 0.959 . S
C1145 C1143 1.561 . S
C1146 C1143 1.526 . S
C1146 C1147 1.396 . S
C1146 C1151 1.390 . S
C1147 C1141 1.465 . S
C1147 C1146 1.396 . S
C1147 C1148 1.399 . S
C1148 H1134 0.929 . S
C1148 C1147 1.399 . S
C1148 C1149 1.385 . S
C1149 H1135 0.931 . S
C1149 C1148 1.385 . S
C1149 C1150 1.389 . S
C1150 C1149 1.389 . S
C1150 C1151 1.387 . S
C1151 H1136 0.930 . S
C1151 C1146 1.390 . S
C1151 C1150 1.387 . S
H1152 C1164 0.930 . S
H1153 C1166 0.930 . S
H1154 C1167 0.930 . S
H1155 C1171 0.959 . S
H1156 C1171 0.959 . S
H1157 C1171 0.961 . S
H1158 C1172 0.960 . S
H1159 C1172 0.961 . S
H1160 C1172 0.959 . S
H1161 C1175 0.929 . S
H1162 C1176 0.931 . S
H1163 C1178 0.930 . S
C1164 H1152 0.930 . S
C1164 C1165 1.399 . S
C1164 C1169 1.399 . S
C1165 C1164 1.399 . S
C1165 C1166 1.376 . S
C1166 H1153 0.930 . S
C1166 C1165 1.376 . S
C1166 C1167 1.388 . S
C1167 H1154 0.930 . S
C1167 C1166 1.388 . S
C1167 C1168 1.390 . S
C1168 C1167 1.390 . S
C1168 C1169 1.394 . S
C1168 C1174 1.465 . S
C1169 C1164 1.399 . S
C1169 C1168 1.394 . S
C1169 C1170 1.516 . S
C1170 C1169 1.516 . S
C1170 C1171 1.502 . S
C1170 C1172 1.561 . S
C1170 C1173 1.526 . S
C1171 H1155 0.959 . S
C1171 H1156 0.959 . S
C1171 H1157 0.961 . S
C1171 C1170 1.502 . S
C1172 H1158 0.960 . S
C1172 H1159 0.961 . S
C1172 H1160 0.959 . S
C1172 C1170 1.561 . S
C1173 C1170 1.526 . S
C1173 C1174 1.396 . S
C1173 C1178 1.390 . S
C1174 C1168 1.465 . S
C1174 C1173 1.396 . S
C1174 C1175 1.399 . S
C1175 H1161 0.929 . S
C1175 C1174 1.399 . S
C1175 C1176 1.385 . S
C1176 H1162 0.931 . S
C1176 C1175 1.385 . S
C1176 C1177 1.389 . S
C1177 C1176 1.389 . S
C1177 C1178 1.387 . S
C1178 H1163 0.930 . S
C1178 C1173 1.390 . S
C1178 C1177 1.387 . S
H1179 C1191 0.930 . S
H1180 C1193 0.930 . S
H1181 C1194 0.930 . S
H1182 C1198 0.959 . S
H1183 C1198 0.959 . S
H1184 C1198 0.961 . S
H1185 C1199 0.960 . S
H1186 C1199 0.961 . S
H1187 C1199 0.959 . S
H1188 C1202 0.929 . S
H1189 C1203 0.931 . S
H1190 C1205 0.930 . S
C1191 H1179 0.930 . S
C1191 C1192 1.399 . S
C1191 C1196 1.399 . S
C1192 C1191 1.399 . S
C1192 C1193 1.376 . S
C1193 H1180 0.930 . S
C1193 C1192 1.376 . S
C1193 C1194 1.388 . S
C1194 H1181 0.930 . S
C1194 C1193 1.388 . S
C1194 C1195 1.390 . S
C1195 C1194 1.390 . S
C1195 C1196 1.394 . S
C1195 C1201 1.465 . S
C1196 C1191 1.399 . S
C1196 C1195 1.394 . S
C1196 C1197 1.516 . S
C1197 C1196 1.516 . S
C1197 C1198 1.502 . S
C1197 C1199 1.561 . S
C1197 C1200 1.526 . S
C1198 H1182 0.959 . S
C1198 H1183 0.959 . S
C1198 H1184 0.961 . S
C1198 C1197 1.502 . S
C1199 H1185 0.960 . S
C1199 H1186 0.961 . S
C1199 H1187 0.959 . S
C1199 C1197 1.561 . S
C1200 C1197 1.526 . S
C1200 C1201 1.396 . S
C1200 C1205 1.390 . S
C1201 C1195 1.465 . S
C1201 C1200 1.396 . S
C1201 C1202 1.399 . S
C1202 H1188 0.929 . S
C1202 C1201 1.399 . S
C1202 C1203 1.385 . S
C1203 H1189 0.931 . S
C1203 C1202 1.385 . S
C1203 C1204 1.389 . S
C1204 C1203 1.389 . S
C1204 C1205 1.387 . S
C1205 H1190 0.930 . S
C1205 C1200 1.390 . S
C1205 C1204 1.387 . S
C409 N311 1.555 . S
C421 N14 1.506 . S
C436 N47 1.510 . S
C448 N344 1.558 . S
C463 N80 1.506 . S
C475 N377 1.547 . S
C490 N113 1.555 . S
C502 N212 1.519 . S
C517 N146 1.553 . S
C529 N245 1.505 . S
C544 N179 1.557 . S
C556 N278 1.515 . S
C571 N335 1.348 . S
C583 N5 1.352 . S
C598 N368 1.382 . S
C610 N38 1.372 . S
C625 N71 1.382 . S
C637 N203 1.391 . S
C652 N236 1.351 . S
C664 N104 1.358 . S
C679 N137 1.404 . S
C691 N269 1.397 . S
C706 N170 1.397 . S
C718 N302 1.404 . S
C733 C116 1.662 . S
C745 C17 1.724 . S
C760 C50 1.724 . S
C772 C149 1.692 . S
C787 C182 1.664 . S
C799 C83 1.719 . S
C814 C314 1.725 . S
C826 C215 1.691 . S
C841 C248 1.670 . S
C853 C347 1.711 . S
C868 C380 1.695 . S
C880 C281 1.685 . S
C895 C28 1.264 . S
C907 C391 1.269 . S
C922 C226 1.199 . S
C934 C61 1.206 . S
C949 C94 1.199 . S
C961 C259 1.195 . S
C976 C127 1.207 . S
C988 C292 1.215 . S
C1003 C160 1.268 . S
C1015 C325 1.261 . S
C1030 C358 1.227 . S
C1042 C193 1.236 . S
C1057 C8 0.720 . S
C1069 C272 0.711 . S
C1084 C305 0.726 . S
C1096 C41 0.719 . S
C1111 C74 0.720 . S
C1123 C338 0.711 . S
C1138 C371 0.721 . S
C1150 C107 0.726 . S
C1165 C206 0.726 . S
C1177 C140 0.719 . S
C1192 C173 0.720 . S
C1204 C239 0.711 . S
