# Generated by pormake.
# Topology whz, (6)-cn, num edge types: 1
# Building blocks:
#     Node 0, Type 0, BuildingBlock: KUMBUR_clean_sbu_1, # of connection points: 6
#     Node 1, Type 0, BuildingBlock: KUMBUR_clean_sbu_1, # of connection points: 6
#     Node 2, Type 0, BuildingBlock: KUMBUR_clean_sbu_1, # of connection points: 6
#     Node 3, Type 0, BuildingBlock: KUMBUR_clean_sbu_1, # of connection points: 6
#     Node 4, Type 0, BuildingBlock: KUMBUR_clean_sbu_1, # of connection points: 6
#     Node 5, Type 0, BuildingBlock: KUMBUR_clean_sbu_1, # of connection points: 6
#     Node 6, Type 0, BuildingBlock: KUMBUR_clean_sbu_1, # of connection points: 6
#     Node 7, Type 0, BuildingBlock: KUMBUR_clean_sbu_1, # of connection points: 6
#     Node 8, Type 0, BuildingBlock: KUMBUR_clean_sbu_1, # of connection points: 6
#     Node 9, Type 0, BuildingBlock: KUMBUR_clean_sbu_1, # of connection points: 6
#     Node 10, Type 0, BuildingBlock: KUMBUR_clean_sbu_1, # of connection points: 6
#     Node 11, Type 0, BuildingBlock: KUMBUR_clean_sbu_1, # of connection points: 6
#     Node 12, Type 0, BuildingBlock: KUMBUR_clean_sbu_1, # of connection points: 6
#     Node 13, Type 0, BuildingBlock: KUMBUR_clean_sbu_1, # of connection points: 6
#     Node 14, Type 0, BuildingBlock: KUMBUR_clean_sbu_1, # of connection points: 6
#     Node 15, Type 0, BuildingBlock: KUMBUR_clean_sbu_1, # of connection points: 6
#     Edge 16, Type (0, 0), BuildingBlock: XUDNAN_clean_linker_2, # of connection points: 2
#     Edge 17, Type (0, 0), BuildingBlock: XUDNAN_clean_linker_2, # of connection points: 2
#     Edge 18, Type (0, 0), BuildingBlock: XUDNAN_clean_linker_2, # of connection points: 2
#     Edge 19, Type (0, 0), BuildingBlock: XUDNAN_clean_linker_2, # of connection points: 2
#     Edge 20, Type (0, 0), BuildingBlock: XUDNAN_clean_linker_2, # of connection points: 2
#     Edge 21, Type (0, 0), BuildingBlock: XUDNAN_clean_linker_2, # of connection points: 2
#     Edge 22, Type (0, 0), BuildingBlock: XUDNAN_clean_linker_2, # of connection points: 2
#     Edge 23, Type (0, 0), BuildingBlock: XUDNAN_clean_linker_2, # of connection points: 2
#     Edge 24, Type (0, 0), BuildingBlock: XUDNAN_clean_linker_2, # of connection points: 2
#     Edge 25, Type (0, 0), BuildingBlock: XUDNAN_clean_linker_2, # of connection points: 2
#     Edge 26, Type (0, 0), BuildingBlock: XUDNAN_clean_linker_2, # of connection points: 2
#     Edge 27, Type (0, 0), BuildingBlock: XUDNAN_clean_linker_2, # of connection points: 2
#     Edge 28, Type (0, 0), BuildingBlock: XUDNAN_clean_linker_2, # of connection points: 2
#     Edge 29, Type (0, 0), BuildingBlock: XUDNAN_clean_linker_2, # of connection points: 2
#     Edge 30, Type (0, 0), BuildingBlock: XUDNAN_clean_linker_2, # of connection points: 2
#     Edge 31, Type (0, 0), BuildingBlock: XUDNAN_clean_linker_2, # of connection points: 2
#     Edge 32, Type (0, 0), BuildingBlock: XUDNAN_clean_linker_2, # of connection points: 2
#     Edge 33, Type (0, 0), BuildingBlock: XUDNAN_clean_linker_2, # of connection points: 2
#     Edge 34, Type (0, 0), BuildingBlock: XUDNAN_clean_linker_2, # of connection points: 2
#     Edge 35, Type (0, 0), BuildingBlock: XUDNAN_clean_linker_2, # of connection points: 2
#     Edge 36, Type (0, 0), BuildingBlock: XUDNAN_clean_linker_2, # of connection points: 2
#     Edge 37, Type (0, 0), BuildingBlock: XUDNAN_clean_linker_2, # of connection points: 2
#     Edge 38, Type (0, 0), BuildingBlock: XUDNAN_clean_linker_2, # of connection points: 2
#     Edge 39, Type (0, 0), BuildingBlock: XUDNAN_clean_linker_2, # of connection points: 2
#     Edge 40, Type (0, 0), BuildingBlock: XUDNAN_clean_linker_2, # of connection points: 2
#     Edge 41, Type (0, 0), BuildingBlock: XUDNAN_clean_linker_2, # of connection points: 2
#     Edge 42, Type (0, 0), BuildingBlock: XUDNAN_clean_linker_2, # of connection points: 2
#     Edge 43, Type (0, 0), BuildingBlock: XUDNAN_clean_linker_2, # of connection points: 2
#     Edge 44, Type (0, 0), BuildingBlock: XUDNAN_clean_linker_2, # of connection points: 2
#     Edge 45, Type (0, 0), BuildingBlock: XUDNAN_clean_linker_2, # of connection points: 2
#     Edge 46, Type (0, 0), BuildingBlock: XUDNAN_clean_linker_2, # of connection points: 2
#     Edge 47, Type (0, 0), BuildingBlock: XUDNAN_clean_linker_2, # of connection points: 2
#     Edge 48, Type (0, 0), BuildingBlock: XUDNAN_clean_linker_2, # of connection points: 2
#     Edge 49, Type (0, 0), BuildingBlock: XUDNAN_clean_linker_2, # of connection points: 2
#     Edge 50, Type (0, 0), BuildingBlock: XUDNAN_clean_linker_2, # of connection points: 2
#     Edge 51, Type (0, 0), BuildingBlock: XUDNAN_clean_linker_2, # of connection points: 2
#     Edge 52, Type (0, 0), BuildingBlock: XUDNAN_clean_linker_2, # of connection points: 2
#     Edge 53, Type (0, 0), BuildingBlock: XUDNAN_clean_linker_2, # of connection points: 2
#     Edge 54, Type (0, 0), BuildingBlock: XUDNAN_clean_linker_2, # of connection points: 2
#     Edge 55, Type (0, 0), BuildingBlock: XUDNAN_clean_linker_2, # of connection points: 2
#     Edge 56, Type (0, 0), BuildingBlock: XUDNAN_clean_linker_2, # of connection points: 2
#     Edge 57, Type (0, 0), BuildingBlock: XUDNAN_clean_linker_2, # of connection points: 2
#     Edge 58, Type (0, 0), BuildingBlock: XUDNAN_clean_linker_2, # of connection points: 2
#     Edge 59, Type (0, 0), BuildingBlock: XUDNAN_clean_linker_2, # of connection points: 2
#     Edge 60, Type (0, 0), BuildingBlock: XUDNAN_clean_linker_2, # of connection points: 2
#     Edge 61, Type (0, 0), BuildingBlock: XUDNAN_clean_linker_2, # of connection points: 2
#     Edge 62, Type (0, 0), BuildingBlock: XUDNAN_clean_linker_2, # of connection points: 2
#     Edge 63, Type (0, 0), BuildingBlock: XUDNAN_clean_linker_2, # of connection points: 2
# Relax obj value: 0.432
# Max RMSD: 0.279
# Mean RMSD: 0.276
data_MOF--net-whz--node1-KUMBUR_clean_sbu_1--edge1-XUDNAN_clean_linker_2
_symmetry_space_group_name_H-M    P1
_symmetry_Int_Tables_number       1
_symmetry_cell_setting            triclinic
loop_
_symmetry_equiv_pos_as_xyz
'x, y, z'
_cell_length_a     33.214108
_cell_length_b     33.130689
_cell_length_c     73.813239
_cell_angle_alpha  89.909293
_cell_angle_beta   90.15413
_cell_angle_gamma 90.578436
loop_
_atom_site_label
_atom_site_type_symbol
_atom_site_fract_x
_atom_site_fract_y
_atom_site_fract_z
_atom_type_partial_charge
Tb0 Tb 0.28699 0.18976 0.21445 0.0
C1 C 0.38032 0.06972 0.16701 0.0
N2 N 0.37212 0.10846 0.16218 0.0
C3 C 0.44027 0.11683 0.15172 0.0
C4 C 0.41953 0.05405 0.16559 0.0
C5 C 0.40072 0.1306 0.15305 0.0
C6 C 0.45 0.0788 0.1585 0.0
C7 C 0.35479 1.00302 0.17485 0.0
C8 C 0.34848 0.04433 0.17142 0.0
C9 C 0.39418 0.98806 0.17487 0.0
C10 C 0.42653 0.01354 0.17025 0.0
Tb11 Tb 0.30649 0.12818 0.16692 0.0
N12 N 0.3108 0.05994 0.17144 0.0
C13 C 0.32117 0.97781 0.17743 0.0
C14 C 0.27786 0.03487 0.17219 0.0
C15 C 0.2825 0.99366 0.17567 0.0
H16 H 0.3932 0.15909 0.1468 0.0
H17 H 0.25631 0.97418 0.17697 0.0
H18 H 0.18687 0.17202 0.21372 0.0
H19 H 0.36434 0.33528 0.2118 0.0
H20 H 0.24818 0.04702 0.17066 0.0
H21 H 0.32472 0.94587 0.1801 0.0
H22 H 0.35637 0.26475 0.20438 0.0
H23 H 0.46305 0.13527 0.14517 0.0
H24 H 0.39978 0.95652 0.17774 0.0
H25 H 0.45656 1.00118 0.16953 0.0
H26 H 0.12691 0.20556 0.22521 0.0
H27 H 0.48051 0.06794 0.15718 0.0
H28 H 0.31023 0.3716 0.22717 0.0
N29 N 0.22693 0.22053 0.21972 0.0
C30 C 0.23019 0.25885 0.22589 0.0
C31 C 0.15585 0.22086 0.22564 0.0
C32 C 0.19659 0.27938 0.23278 0.0
C33 C 0.19019 0.2017 0.21911 0.0
C34 C 0.15918 0.25962 0.23286 0.0
N35 N 0.29677 0.2586 0.21521 0.0
C36 C 0.3317 0.27883 0.21102 0.0
C37 C 0.27116 0.31905 0.22923 0.0
C38 C 0.26671 0.27847 0.2238 0.0
C39 C 0.30656 0.33966 0.22459 0.0
C40 C 0.33683 0.31949 0.21545 0.0
H41 H 0.13259 0.2744 0.23799 0.0
H42 H 0.17581 0.33549 0.24431 0.0
H43 H 0.24112 0.3701 0.2415 0.0
O44 O 0.32729 0.1967 0.23543 0.0
O45 O 0.25478 0.20569 0.18965 0.0
O46 O 0.29639 0.1952 0.16522 0.0
O47 O 0.26588 0.18095 0.24164 0.0
O48 O 0.34664 0.19685 0.20221 0.0
O49 O 0.35308 0.17698 0.17209 0.0
O50 O 0.26029 0.12901 0.14682 0.0
O51 O 0.30738 0.093 0.19321 0.0
O52 O 0.33161 0.14295 0.21021 0.0
O53 O 0.31783 0.1072 0.14033 0.0
O54 O 0.24536 0.12645 0.17947 0.0
O55 O 0.24945 0.13492 0.21095 0.0
C56 C 0.27048 0.21808 0.17428 0.0
C57 C 0.30503 0.22181 0.26261 0.0
C58 C 0.37171 0.275 0.28529 0.0
C59 C 0.33777 0.26889 0.30727 0.0
C60 C 0.27622 0.21471 0.28376 0.0
C61 C 0.29161 0.23815 0.30537 0.0
C62 C 0.35187 0.25224 0.26211 0.0
C63 C 0.36762 0.19428 0.18705 0.0
C64 C 0.30081 0.19212 0.24803 0.0
C65 C 0.2012 0.31922 0.23889 0.0
C66 C 0.23864 0.33877 0.23748 0.0
C67 C 0.32298 0.10478 0.20875 0.0
C68 C 0.28064 0.13381 0.11563 0.0
C69 C 0.26602 0.13305 0.08244 0.0
C70 C 0.28144 0.17274 0.08162 0.0
C71 C 0.29551 0.17328 0.11386 0.0
C72 C 0.26619 0.1133 0.09973 0.0
C73 C 0.29596 0.19241 0.09705 0.0
C74 C 0.23183 0.11987 0.19622 0.0
C75 C 0.2823 0.11421 0.13396 0.0
H76 H 0.34852 0.27874 0.32041 0.0
H77 H 0.25141 0.19326 0.28391 0.0
H78 H 0.27405 0.23209 0.3174 0.0
H79 H 0.37149 0.25147 0.25043 0.0
H80 H 0.28296 0.18867 0.0688 0.0
H81 H 0.3073 0.18925 0.12556 0.0
H82 H 0.25498 0.08259 0.10084 0.0
H83 H 0.30792 0.22282 0.09592 0.0
Tb84 Tb 0.58737 0.53513 0.45987 0.0
C85 C 0.71291 0.62503 0.41864 0.0
N86 N 0.67339 0.62333 0.41374 0.0
C87 C 0.67454 0.69476 0.40806 0.0
C88 C 0.73415 0.66207 0.41938 0.0
C89 C 0.65494 0.65722 0.40744 0.0
C90 C 0.71409 0.69734 0.41442 0.0
C91 C 0.77401 0.58927 0.42643 0.0
C92 C 0.73279 0.58921 0.42191 0.0
C93 C 0.79487 0.6262 0.42797 0.0
C94 C 0.775 0.66253 0.42442 0.0
Tb95 Tb 0.64447 0.56009 0.41367 0.0
N96 N 0.71131 0.5541 0.42074 0.0
C97 C 0.79308 0.55217 0.42894 0.0
C98 C 0.73048 0.51787 0.42168 0.0
C99 C 0.77136 0.51631 0.42623 0.0
H100 H 0.62591 0.65518 0.40112 0.0
H101 H 0.78619 0.48749 0.42746 0.0
H102 H 0.59012 0.43652 0.4559 0.0
H103 H 0.47797 0.63113 0.49151 0.0
H104 H 0.71437 0.49022 0.41887 0.0
H105 H 0.82475 0.55088 0.43242 0.0
H106 H 0.54452 0.61357 0.47907 0.0
H107 H 0.65942 0.72152 0.40325 0.0
H108 H 0.82653 0.62695 0.43154 0.0
H109 H 0.79171 0.69073 0.42522 0.0
H110 H 0.54491 0.3781 0.45971 0.0
H111 H 0.72937 0.72638 0.41471 0.0
H112 H 0.42496 0.57848 0.49417 0.0
N113 N 0.5453 0.4801 0.46102 0.0
C114 C 0.50807 0.48616 0.46793 0.0
C115 C 0.53376 0.40835 0.4617 0.0
C116 C 0.48187 0.45342 0.47175 0.0
C117 C 0.55915 0.44167 0.45899 0.0
C118 C 0.49466 0.41427 0.4679 0.0
N119 N 0.52674 0.5542 0.47152 0.0
C120 C 0.52032 0.59161 0.47861 0.0
C121 C 0.46117 0.53223 0.48174 0.0
C122 C 0.49822 0.52477 0.47314 0.0
C123 C 0.45323 0.57141 0.48767 0.0
C124 C 0.48308 0.6012 0.48619 0.0
H125 H 0.47546 0.38835 0.47064 0.0
H126 H 0.42482 0.43576 0.48375 0.0
H127 H 0.40606 0.50503 0.49197 0.0
O128 O 0.581 0.53355 0.48803 0.0
O129 O 0.56137 0.5074 0.43563 0.0
O130 O 0.57828 0.54833 0.41105 0.0
O131 O 0.63444 0.5101 0.47525 0.0
O132 O 0.57467 0.59777 0.44955 0.0
O133 O 0.59386 0.60261 0.41896 0.0
O134 O 0.65603 0.5192 0.39214 0.0
O135 O 0.6735 0.56045 0.44163 0.0
O136 O 0.62486 0.5887 0.45797 0.0
O137 O 0.65713 0.58209 0.3873 0.0
O138 O 0.63521 0.49619 0.4197 0.0
O139 O 0.63668 0.49561 0.4508 0.0
C140 C 0.55356 0.52278 0.41959 0.0
C141 C 0.6397 0.52752 0.50647 0.0
C142 C 0.62825 0.53885 0.53816 0.0
C143 C 0.66596 0.52174 0.54227 0.0
C144 C 0.67349 0.50427 0.51078 0.0
C145 C 0.68851 0.5043 0.52845 0.0
C146 C 0.62213 0.55071 0.52009 0.0
C147 C 0.57425 0.61645 0.43346 0.0
C148 C 0.61585 0.51672 0.49041 0.0
C149 C 0.44508 0.46054 0.48048 0.0
C150 C 0.43444 0.49999 0.48518 0.0
C151 C 0.6631 0.58244 0.45587 0.0
C152 C 0.63847 0.54071 0.36216 0.0
C153 C 0.63544 0.52237 0.32934 0.0
C154 C 0.5947 0.53383 0.32949 0.0
C155 C 0.59764 0.55064 0.3614 0.0
C156 C 0.6576 0.52651 0.34597 0.0
C157 C 0.57618 0.54747 0.34524 0.0
C158 C 0.64286 0.47816 0.4351 0.0
C159 C 0.66037 0.54686 0.3798 0.0
H160 H 0.67526 0.51606 0.55607 0.0
H161 H 0.68751 0.48538 0.50067 0.0
H162 H 0.71531 0.48743 0.53171 0.0
H163 H 0.59631 0.56907 0.51679 0.0
H164 H 0.57681 0.53292 0.31722 0.0
H165 H 0.58234 0.56156 0.37335 0.0
H166 H 0.68915 0.5186 0.34638 0.0
H167 H 0.54482 0.55601 0.34486 0.0
Tb168 Tb 0.22432 0.834 0.71359 0.0
C169 C 0.13961 0.9545 0.66885 0.0
N170 N 0.1441 0.91502 0.66427 0.0
C171 C 0.07353 0.91042 0.65723 0.0
C172 C 0.10145 0.97275 0.66885 0.0
C173 C 0.11217 0.89399 0.65719 0.0
C174 C 0.06798 0.9497 0.6635 0.0
C175 C 0.171 0.01885 0.67631 0.0
C176 C 0.1738 0.97743 0.67234 0.0
C177 C 0.1329 0.03674 0.67721 0.0
C178 C 0.09817 0.01372 0.6735 0.0
Tb179 Tb 0.20867 0.89096 0.66608 0.0
N180 N 0.21006 0.95874 0.67192 0.0
C181 C 0.20664 0.04105 0.67895 0.0
C182 C 0.245 0.98076 0.67316 0.0
C183 C 0.2438 0.02205 0.67706 0.0
H184 H 0.11648 0.86503 0.65095 0.0
H185 H 0.27151 0.03921 0.67855 0.0
H186 H 0.32368 0.84316 0.71381 0.0
H187 H 0.12545 0.70622 0.72732 0.0
H188 H 0.27372 0.96634 0.67142 0.0
H189 H 0.20582 0.07301 0.682 0.0
H190 H 0.14135 0.77669 0.72056 0.0
H191 H 0.04823 0.89308 0.65205 0.0
H192 H 0.13001 0.06849 0.6804 0.0
H193 H 0.06905 0.02815 0.67377 0.0
H194 H 0.38136 0.80265 0.72312 0.0
H195 H 0.03811 0.96255 0.6633 0.0
H196 H 0.18024 0.65842 0.73387 0.0
N197 N 0.28053 0.79576 0.71719 0.0
C198 C 0.27425 0.75745 0.72308 0.0
C199 C 0.35142 0.78943 0.7231 0.0
C200 C 0.30635 0.73373 0.72951 0.0
C201 C 0.31849 0.81219 0.71745 0.0
C202 C 0.34531 0.75012 0.72934 0.0
N203 N 0.20485 0.76836 0.71928 0.0
C204 C 0.16576 0.75585 0.72138 0.0
C205 C 0.22741 0.70263 0.72904 0.0
C206 C 0.23525 0.74263 0.72331 0.0
C207 C 0.18751 0.68892 0.72958 0.0
C208 C 0.15654 0.71581 0.72589 0.0
H209 H 0.37077 0.73279 0.73406 0.0
H210 H 0.32265 0.67618 0.7413 0.0
H211 H 0.25363 0.64827 0.7402 0.0
O212 O 0.21642 0.82107 0.74114 0.0
O213 O 0.25783 0.81308 0.6898 0.0
O214 O 0.21837 0.82428 0.66458 0.0
O215 O 0.24873 0.87447 0.73264 0.0
O216 O 0.16155 0.82969 0.70217 0.0
O217 O 0.16678 0.83848 0.67086 0.0
O218 O 0.25263 0.89777 0.6453 0.0
O219 O 0.20684 0.92264 0.69329 0.0
O220 O 0.17518 0.87666 0.71064 0.0
O221 O 0.1912 0.90649 0.63931 0.0
O222 O 0.27145 0.88853 0.67604 0.0
O223 O 0.26482 0.88465 0.70719 0.0
C224 C 0.24352 0.80128 0.674 0.0
C225 C 0.21472 0.87774 0.76033 0.0
C226 C 0.15627 0.88201 0.77981 0.0
C227 C 0.17888 0.90668 0.79179 0.0
C228 C 0.23796 0.89873 0.77309 0.0
C229 C 0.21956 0.91485 0.78836 0.0
C230 C 0.17324 0.87409 0.76272 0.0
C231 C 0.14694 0.82507 0.68544 0.0
C232 C 0.23452 0.85424 0.74627 0.0
C233 C 0.2985 0.69467 0.73609 0.0
C234 C 0.25921 0.67869 0.73535 0.0
C235 C 0.18449 0.91448 0.70773 0.0
C236 C 0.23203 0.88593 0.61447 0.0
C237 C 0.24764 0.8856 0.58128 0.0
C238 C 0.23721 0.84423 0.58127 0.0
C239 C 0.22289 0.8447 0.61344 0.0
C240 C 0.24434 0.90669 0.59821 0.0
C241 C 0.22531 0.82423 0.59704 0.0
C242 C 0.28506 0.89522 0.69263 0.0
C243 C 0.22715 0.90645 0.63251 0.0
H244 H 0.16652 0.91585 0.80468 0.0
H245 H 0.27022 0.90199 0.77139 0.0
H246 H 0.23753 0.93096 0.79829 0.0
H247 H 0.15605 0.85861 0.75231 0.0
H248 H 0.23767 0.82692 0.56885 0.0
H249 H 0.21327 0.82829 0.6254 0.0
H250 H 0.25159 0.9386 0.59879 0.0
H251 H 0.21761 0.79243 0.59651 0.0
Tb252 Tb 0.88205 0.45098 0.91221 0.0
C253 C 0.99009 0.5637 0.95778 0.0
N254 N 1.00178 0.52782 0.9507 0.0
C255 C 0.06819 0.55524 0.94629 0.0
C256 C 0.01544 0.59805 0.95727 0.0
C257 C 0.04095 0.52267 0.94576 0.0
C258 C 0.05491 0.59348 0.95123 0.0
C259 C 0.94042 0.60173 0.97435 0.0
C260 C 0.95419 0.56502 0.96711 0.0
C261 C 0.96358 0.63705 0.97214 0.0
C262 C 1.00145 0.63507 0.9639 0.0
Tb263 Tb 0.95629 0.47575 0.953 0.0
N264 N 0.93327 0.52988 0.96942 0.0
C265 C 0.90405 0.60169 0.98376 0.0
C266 C 0.90046 0.52911 0.98042 0.0
C267 C 0.88414 0.56518 0.98693 0.0
H268 H 0.05143 0.49341 0.94155 0.0
H269 H 0.85617 0.56525 0.99432 0.0
H270 H 0.78748 0.43861 0.9272 0.0
H271 H 0.9588 0.36523 0.86149 0.0
H272 H 0.88718 0.50094 0.98422 0.0
H273 H 0.89172 0.6294 0.98908 0.0
H274 H 0.94368 0.42615 0.87976 0.0
H275 H 0.09932 0.55121 0.94261 0.0
H276 H 0.95326 0.66563 0.97742 0.0
H277 H 0.02012 0.66203 0.9632 0.0
H278 H 0.73958 0.38192 0.93125 0.0
H279 H 0.07583 0.61878 0.95111 0.0
H280 H 0.92162 0.30131 0.86729 0.0
N281 N 0.83334 0.40206 0.9157 0.0
C282 C 0.84223 0.36553 0.90855 0.0
C283 C 0.76858 0.37674 0.92507 0.0
C284 C 0.81516 0.33263 0.90994 0.0
C285 C 0.79602 0.40866 0.92293 0.0
C286 C 0.77851 0.33832 0.91886 0.0
N287 N 0.90002 0.39591 0.89596 0.0
C288 C 0.92749 0.39818 0.88223 0.0
C289 C 0.88398 0.32713 0.88811 0.0
C290 C 0.87642 0.36254 0.89799 0.0
C291 C 0.91498 0.32783 0.87527 0.0
C292 C 0.93596 0.3639 0.8719 0.0
H293 H 0.75688 0.31381 0.92021 0.0
H294 H 0.8043 0.27015 0.90256 0.0
H295 H 0.86444 0.26546 0.88326 0.0
O296 O 0.88714 0.48947 0.8886 0.0
O297 O 0.93257 0.40905 0.91817 0.0
O298 O 0.93976 0.41095 0.94894 0.0
O299 O 0.83397 0.45352 0.89352 0.0
O300 O 0.93397 0.49371 0.9079 0.0
O301 O 0.9816 0.46669 0.92626 0.0
O302 O 0.98204 0.47681 0.9786 0.0
O303 O 0.9205 0.5246 0.93917 0.0
O304 O 0.85954 0.49789 0.93011 0.0
O305 O 1.00856 0.44121 0.9573 0.0
O306 O 0.90265 0.4466 0.96396 0.0
O307 O 0.8542 0.4472 0.94067 0.0
C308 C 0.94365 0.39136 0.93349 0.0
C309 C 0.83175 0.49296 0.86548 0.0
C310 C 0.82559 0.50685 0.83214 0.0
C311 C 0.78511 0.517 0.83524 0.0
C312 C 0.7911 0.50303 0.86736 0.0
C313 C 0.7683 0.5151 0.8525 0.0
C314 C 0.84934 0.49543 0.84768 0.0
C315 C 0.97223 0.48918 0.91245 0.0
C316 C 0.85279 0.47685 0.88216 0.0
C317 C 0.82447 0.29594 0.90147 0.0
C318 C 0.85876 0.29325 0.89049 0.0
C319 C 0.88086 0.52757 0.93714 0.0
C320 C 0.01389 0.41638 0.98752 0.0
C321 C 0.01938 0.40527 1.01986 0.0
C322 C 0.04613 0.37341 1.01678 0.0
C323 C 0.04088 0.38486 0.98435 0.0
C324 C 0.99931 0.42203 1.00498 0.0
C325 C 0.05539 0.36212 0.99897 0.0
C326 C 0.86542 0.44182 0.95808 0.0
C327 C 0.00876 0.44975 0.9745 0.0
H328 H 0.76611 0.52724 0.82425 0.0
H329 H 0.77664 0.50137 0.88049 0.0
H330 H 0.73703 0.52296 0.85437 0.0
H331 H 0.88056 0.48729 0.84589 0.0
H332 H 0.06202 0.35958 1.02797 0.0
H333 H 0.05235 0.37932 0.97086 0.0
H334 H 0.97808 0.44608 1.00714 0.0
H335 H 0.07683 0.33833 0.99659 0.0
Tb336 Tb 0.70777 0.88261 0.93577 0.0
C337 C 0.80088 0.7589 0.88119 0.0
N338 N 0.80341 0.79612 0.88855 0.0
C339 C 0.87457 0.79774 0.88299 0.0
C340 C 0.83475 0.74009 0.87363 0.0
C341 C 0.83982 0.81518 0.89004 0.0
C342 C 0.87184 0.76045 0.87427 0.0
C343 C 0.75995 0.70027 0.87447 0.0
C344 C 0.76394 0.73997 0.88118 0.0
C345 C 0.79335 0.68128 0.86669 0.0
C346 C 0.83064 0.70133 0.86612 0.0
Tb347 Tb 0.74426 0.82997 0.89049 0.0
N348 N 0.73189 0.76098 0.88745 0.0
C349 C 0.72248 0.68109 0.87552 0.0
C350 C 0.69518 0.74182 0.88845 0.0
C351 C 0.69015 0.70176 0.88285 0.0
H352 H 0.84193 0.84402 0.89643 0.0
H353 H 0.66084 0.68728 0.8837 0.0
H354 H 0.6214 0.84419 0.95176 0.0
H355 H 0.74848 0.03982 0.92534 0.0
H356 H 0.66882 0.75643 0.89298 0.0
H357 H 0.71817 0.65048 0.87068 0.0
H358 H 0.76037 0.96773 0.93066 0.0
H359 H 0.90325 0.81336 0.884 0.0
H360 H 0.79066 0.65112 0.86113 0.0
H361 H 0.85626 0.68635 0.86018 0.0
H362 H 0.55001 0.86361 0.95303 0.0
H363 H 0.89866 0.74708 0.86863 0.0
H364 H 0.67859 0.06472 0.92347 0.0
N365 N 0.64083 0.89896 0.93933 0.0
C366 C 0.6304 0.93748 0.93533 0.0
C367 C 0.57218 0.88437 0.94759 0.0
C368 C 0.59012 0.95041 0.93634 0.0
C369 C 0.6126 0.87317 0.94647 0.0
C370 C 0.5607 0.92286 0.94208 0.0
N371 N 0.69901 0.95115 0.93165 0.0
C372 C 0.73028 0.97813 0.93026 0.0
C373 C 0.65196 1.00585 0.92855 0.0
C374 C 0.66066 0.96479 0.93163 0.0
C375 C 0.68396 0.03299 0.92598 0.0
C376 C 0.72337 0.01909 0.92706 0.0
H377 H 0.52944 0.93158 0.94314 0.0
H378 H 0.55002 1.00114 0.93286 0.0
H379 H 0.60438 0.04977 0.92589 0.0
O380 O 0.74969 0.89467 0.95706 0.0
O381 O 0.70574 0.91827 0.90897 0.0
O382 O 0.69208 0.86857 0.88889 0.0
O383 O 0.68901 0.88028 0.96307 0.0
O384 O 0.77267 0.8889 0.92982 0.0
O385 O 0.77898 0.88497 0.89868 0.0
O386 O 0.73814 0.81263 0.86329 0.0
O387 O 0.77379 0.81503 0.91574 0.0
O388 O 0.72179 0.81592 0.93551 0.0
O389 O 0.77207 0.86723 0.87102 0.0
O390 O 0.67808 0.82477 0.89685 0.0
O391 O 0.66958 0.82971 0.92792 0.0
C392 C 0.69427 0.90709 0.89237 0.0
C393 C 0.72395 0.91804 0.98559 0.0
C394 C 0.73898 0.93466 1.01799 0.0
C395 C 0.71958 0.97192 1.01496 0.0
C396 C 0.70429 0.95489 0.98372 0.0
C397 C 0.70216 0.98144 0.99826 0.0
C398 C 0.74102 0.90778 1.00279 0.0
C399 C 0.79187 0.89791 0.91467 0.0
C400 C 0.72378 0.88923 0.97 0.0
C401 C 0.58083 0.99078 0.93238 0.0
C402 C 0.61176 0.01849 0.92847 0.0
C403 C 0.75435 0.79801 0.92899 0.0
C404 C 0.77178 0.84925 0.83943 0.0
C405 C 0.75503 0.83908 0.80768 0.0
C406 C 0.79129 0.85955 0.80302 0.0
C407 C 0.80817 0.86813 0.83466 0.0
C408 C 0.74514 0.83584 0.82607 0.0
C409 C 0.81738 0.87403 0.81644 0.0
C410 C 0.65576 0.81935 0.91175 0.0
C411 C 0.76167 0.84216 0.85825 0.0
H412 H 0.71786 0.99475 1.02531 0.0
H413 H 0.69023 0.96306 0.97099 0.0
H414 H 0.6869 0.00993 0.99656 0.0
H415 H 0.75494 0.87859 1.00421 0.0
H416 H 0.80093 0.86259 0.7891 0.0
H417 H 0.82919 0.87839 0.84496 0.0
H418 H 0.71784 0.82 0.83003 0.0
H419 H 0.84541 0.88867 0.81268 0.0
Tb420 Tb 0.38104 0.45166 0.68113 0.0
C421 C 0.50282 0.54465 0.62539 0.0
N422 N 0.46515 0.54524 0.63246 0.0
C423 C 0.46477 0.61759 0.63019 0.0
C424 C 0.5225 0.58056 0.61986 0.0
C425 C 0.44572 0.58106 0.63458 0.0
C426 C 0.50318 0.61734 0.62259 0.0
C427 C 0.5611 0.50601 0.61673 0.0
C428 C 0.52145 0.50779 0.62347 0.0
C429 C 0.58006 0.54133 0.61029 0.0
C430 C 0.56059 0.57854 0.61169 0.0
Tb431 Tb 0.43322 0.48405 0.634 0.0
N432 N 0.50016 0.47366 0.62751 0.0
C433 C 0.58032 0.46876 0.61651 0.0
C434 C 0.51774 0.43681 0.62521 0.0
C435 C 0.55834 0.43391 0.62055 0.0
H436 H 0.41522 0.58181 0.63924 0.0
H437 H 0.57212 0.40459 0.61923 0.0
H438 H 0.40674 0.35555 0.69083 0.0
H439 H 0.23401 0.51949 0.67812 0.0
H440 H 0.50102 0.40919 0.62626 0.0
H441 H 0.61137 0.46632 0.61221 0.0
H442 H 0.30748 0.51905 0.68236 0.0
H443 H 0.44928 0.64584 0.63212 0.0
H444 H 0.61019 0.54038 0.60474 0.0
H445 H 0.57589 0.60569 0.60708 0.0
H446 H 0.37469 0.28869 0.68926 0.0
H447 H 0.51751 0.64561 0.61879 0.0
H448 H 0.19653 0.45516 0.67413 0.0
N449 N 0.35433 0.38735 0.68238 0.0
C450 C 0.31385 0.38448 0.67974 0.0
C451 C 0.35733 0.31534 0.68621 0.0
C452 C 0.29385 0.34673 0.67934 0.0
C453 C 0.37572 0.35351 0.68662 0.0
C454 C 0.31636 0.31185 0.68222 0.0
N455 N 0.31244 0.45542 0.67918 0.0
C456 C 0.29192 0.49091 0.67991 0.0
C457 C 0.24989 0.41839 0.67625 0.0
C458 C 0.29207 0.41971 0.67834 0.0
C459 C 0.22897 0.45483 0.67571 0.0
C460 C 0.25004 0.49121 0.67787 0.0
H461 H 0.30214 0.28227 0.68204 0.0
H462 H 0.23614 0.31636 0.67608 0.0
H463 H 0.19766 0.37919 0.67329 0.0
O464 O 0.38053 0.49224 0.70345 0.0
O465 O 0.34665 0.44692 0.65424 0.0
O466 O 0.39809 0.42933 0.63595 0.0
O467 O 0.37803 0.42914 0.70806 0.0
O468 O 0.37791 0.5163 0.67299 0.0
O469 O 0.37802 0.51524 0.64173 0.0
O470 O 0.44768 0.48576 0.60651 0.0
O471 O 0.45116 0.5139 0.65917 0.0
O472 O 0.4468 0.46337 0.68026 0.0
O473 O 0.38801 0.5007 0.61534 0.0
O474 O 0.44439 0.42007 0.64283 0.0
O475 O 0.43155 0.40995 0.6737 0.0
C476 C 0.35955 0.43124 0.63871 0.0
C477 C 0.35285 0.47065 0.73212 0.0
C478 C 0.34306 0.48398 0.76512 0.0
C479 C 0.30133 0.48174 0.76213 0.0
C480 C 0.31095 0.46833 0.73007 0.0
C481 C 0.28558 0.47391 0.74489 0.0
C482 C 0.369 0.47843 0.74988 0.0
C483 C 0.36719 0.5316 0.65712 0.0
C484 C 0.37926 0.46426 0.71583 0.0
C485 C 0.25196 0.3451 0.67662 0.0
C486 C 0.23003 0.38087 0.67506 0.0
C487 C 0.46564 0.49511 0.6734 0.0
C488 C 0.39493 0.47005 0.58677 0.0
C489 C 0.40529 0.41167 0.56746 0.0
C490 C 0.37781 0.42815 0.55488 0.0
C491 C 0.37163 0.48801 0.57331 0.0
C492 C 0.40861 0.4307 0.58446 0.0
C493 C 0.36116 0.46616 0.55783 0.0
C494 C 0.44729 0.39799 0.65802 0.0
C495 C 0.4113 0.49461 0.60152 0.0
H496 H 0.28066 0.48596 0.77328 0.0
H497 H 0.29773 0.46201 0.71696 0.0
H498 H 0.25328 0.47209 0.74301 0.0
H499 H 0.40131 0.48023 0.75178 0.0
H500 H 0.37234 0.4137 0.54196 0.0
H501 H 0.36236 0.51911 0.57464 0.0
H502 H 0.42725 0.41807 0.59505 0.0
H503 H 0.34231 0.47973 0.54756 0.0
Tb504 Tb 0.81221 0.13034 0.43408 0.0
C505 C 0.73272 0.25777 0.38508 0.0
N506 N 0.7334 0.21735 0.38226 0.0
C507 C 0.6626 0.21743 0.37563 0.0
C508 C 0.69679 0.27975 0.38336 0.0
C509 C 0.69915 0.19712 0.37723 0.0
C510 C 0.66133 0.25893 0.37882 0.0
C511 C 0.76969 0.31924 0.39161 0.0
C512 C 0.76833 0.27691 0.38976 0.0
C513 C 0.734 0.34145 0.39001 0.0
C514 C 0.69752 0.32167 0.38613 0.0
Tb515 Tb 0.79354 0.18596 0.38707 0.0
N516 N 0.80198 0.25417 0.39161 0.0
C517 C 0.80708 0.33803 0.39437 0.0
C518 C 0.83868 0.27284 0.39312 0.0
C519 C 0.84174 0.31473 0.39496 0.0
H520 H 0.70003 0.16543 0.37419 0.0
H521 H 0.87101 0.32911 0.39628 0.0
H522 H 0.90647 0.15078 0.44624 0.0
H523 H 0.73552 0.98639 0.42436 0.0
H524 H 0.866 0.25623 0.3919 0.0
H525 H 0.80974 0.37056 0.39533 0.0
H526 H 0.73966 0.05853 0.43135 0.0
H527 H 0.6355 0.2011 0.3718 0.0
H528 H 0.73434 0.37396 0.39156 0.0
H529 H 0.67022 0.33912 0.38497 0.0
H530 H 0.9716 0.11578 0.44665 0.0
H531 H 0.63303 0.27465 0.3775 0.0
H532 H 0.79787 0.94674 0.42134 0.0
N533 N 0.87313 0.09958 0.43743 0.0
C534 C 0.87385 0.05931 0.43402 0.0
C535 C 0.94438 0.09958 0.44289 0.0
C536 C 0.91022 0.03777 0.43431 0.0
C537 C 0.90752 0.1196 0.44236 0.0
C538 C 0.94584 0.05856 0.43864 0.0
N539 N 0.80355 0.06202 0.42977 0.0
C540 C 0.76707 0.04271 0.42886 0.0
C541 C 0.83707 0.998 0.42663 0.0
C542 C 0.83786 0.03989 0.42998 0.0
C543 C 0.79983 0.9789 0.42391 0.0
C544 C 0.76462 1.00122 0.42546 0.0
H545 H 0.97445 0.04314 0.43899 0.0
H546 H 0.9375 0.97929 0.43032 0.0
H547 H 0.87334 0.94434 0.42377 0.0
O548 O 0.7703 0.1229 0.45547 0.0
O549 O 0.84363 0.1089 0.40811 0.0
O550 O 0.79695 0.12116 0.38634 0.0
O551 O 0.83253 0.13014 0.46142 0.0
O552 O 0.74941 0.12716 0.42323 0.0
O553 O 0.75429 0.13289 0.39192 0.0
O554 O 0.83799 0.19506 0.36749 0.0
O555 O 0.75779 0.20133 0.41031 0.0
O556 O 0.79836 0.19616 0.43514 0.0
O557 O 0.77577 0.18576 0.35971 0.0
O558 O 0.85628 0.1864 0.39847 0.0
O559 O 0.85004 0.1844 0.42958 0.0
C560 C 0.82851 0.10185 0.39162 0.0
C561 C 0.79199 0.09827 0.48441 0.0
C562 C 0.77461 0.08568 0.51683 0.0
C563 C 0.78134 0.04437 0.51366 0.0
C564 C 0.7981 0.05686 0.48214 0.0
C565 C 0.79293 0.03031 0.49664 0.0
C566 C 0.78046 0.11282 0.50194 0.0
C567 C 0.73445 0.12179 0.40671 0.0
C568 C 0.79687 0.12581 0.46839 0.0
C569 C 0.90982 0.99633 0.43031 0.0
C570 C 0.87331 0.97646 0.42651 0.0
C571 C 0.77 0.21483 0.42591 0.0
C572 C 0.82656 0.16341 0.33945 0.0
C573 C 0.86469 0.1703 0.31186 0.0
C574 C 0.84358 0.13684 0.30454 0.0
C575 C 0.80185 0.13393 0.33138 0.0
C576 C 0.86188 0.17551 0.33072 0.0
C577 C 0.81198 0.11898 0.3143 0.0
C578 C 0.87066 0.19418 0.41489 0.0
C579 C 0.81275 0.18936 0.35422 0.0
H580 H 0.77808 0.02259 0.52453 0.0
H581 H 0.80687 0.04499 0.46909 0.0
H582 H 0.79794 0.99838 0.49467 0.0
H583 H 0.77539 0.14477 0.50385 0.0
H584 H 0.84728 0.12844 0.29048 0.0
H585 H 0.7745 0.12355 0.33793 0.0
H586 H 0.88083 0.19762 0.3375 0.0
H587 H 0.79334 0.09614 0.3079 0.0
Tb588 Tb 0.0732 0.53737 0.13829 0.0
C589 C 0.17533 0.65089 0.18487 0.0
N590 N 0.1861 0.61446 0.17816 0.0
C591 C 0.24988 0.64238 0.16888 0.0
C592 C 0.20093 0.68493 0.18333 0.0
C593 C 0.22386 0.60934 0.17117 0.0
C594 C 0.23807 0.68055 0.17468 0.0
C595 C 0.13081 0.68845 0.20437 0.0
C596 C 0.14047 0.65293 0.19496 0.0
C597 C 0.15476 0.72323 0.20197 0.0
C598 C 0.18964 0.72155 0.19134 0.0
Tb599 Tb 0.14 0.56312 0.18189 0.0
N600 N 0.11804 0.61875 0.19693 0.0
C601 C 0.09883 0.68718 0.21669 0.0
C602 C 0.08808 0.61667 0.20962 0.0
C603 C 0.07764 0.65103 0.21947 0.0
H604 H 0.23426 0.57968 0.16743 0.0
H605 H 0.05353 0.64955 0.22928 0.0
H606 H 0.01947 0.45828 0.15036 0.0
H607 H 0.14687 0.55766 0.07332 0.0
H608 H 0.0722 0.58847 0.2119 0.0
H609 H 0.09121 0.71353 0.22459 0.0
H610 H 0.10811 0.58011 0.10018 0.0
H611 H 0.27932 0.63825 0.16295 0.0
H612 H 0.14741 0.75111 0.2088 0.0
H613 H 0.20866 0.74817 0.19013 0.0
H614 H 0.02537 0.38282 0.14803 0.0
H615 H 0.2586 0.70595 0.17321 0.0
H616 H 0.1645 0.48638 0.06963 0.0
N617 N 0.06901 0.46934 0.13348 0.0
C618 C 0.09281 0.45432 0.12033 0.0
C619 C 0.04464 0.40275 0.14024 0.0
C620 C 0.09557 0.41246 0.11736 0.0
C621 C 0.04195 0.44479 0.142 0.0
C622 C 0.07233 0.38647 0.12813 0.0
N623 N 0.10537 0.52136 0.11179 0.0
C624 C 0.11578 0.54864 0.0987 0.0
C625 C 0.13372 0.46748 0.09403 0.0
C626 C 0.11182 0.48142 0.10904 0.0
C627 C 0.14759 0.49571 0.08141 0.0
C628 C 0.13748 0.5362 0.08346 0.0
H629 H 0.07401 0.35403 0.12655 0.0
H630 H 0.12346 0.36614 0.10108 0.0
H631 H 0.15667 0.41451 0.0804 0.0
O632 O 0.03293 0.53264 0.11656 0.0
O633 O 0.10169 0.48972 0.1552 0.0
O634 O 0.16245 0.51323 0.16516 0.0
O635 O 0.01482 0.56127 0.14117 0.0
O636 O 0.12385 0.57902 0.13397 0.0
O637 O 0.17154 0.55827 0.15455 0.0
O638 O 0.13589 0.52454 0.20501 0.0
O639 O 0.08838 0.60453 0.17425 0.0
O640 O 0.08754 0.60161 0.1433 0.0
O641 O 0.1878 0.56077 0.20095 0.0
O642 O 0.08551 0.52492 0.18717 0.0
O643 O 0.04076 0.53739 0.16366 0.0
C644 C 0.14064 0.48461 0.15752 0.0
C645 C 0.99414 0.59159 0.11382 0.0
C646 C 0.99815 0.62969 0.08558 0.0
C647 C 0.9668 0.65448 0.09143 0.0
C648 C 0.96329 0.61693 0.11978 0.0
C649 C 0.95019 0.6487 0.10871 0.0
C650 C 0.01238 0.59955 0.09719 0.0
C651 C 0.16153 0.57186 0.13811 0.0
C652 C 1.00645 0.55565 0.1242 0.0
C653 C 0.12023 0.39824 0.10338 0.0
C654 C 0.1392 0.42578 0.09166 0.0
C655 C 0.07901 0.62114 0.1584 0.0
C656 C 0.16994 0.5482 0.23195 0.0
C657 C 0.17501 0.53343 0.26511 0.0
C658 C 0.16934 0.57471 0.2684 0.0
C659 C 0.16606 0.58917 0.2363 0.0
C660 C 0.17539 0.52009 0.2466 0.0
C661 C 0.16524 0.60211 0.25422 0.0
C662 C 0.04906 0.52383 0.17985 0.0
C663 C 0.1698 0.53633 0.21215 0.0
H664 H 0.95415 0.67684 0.08241 0.0
H665 H 0.94885 0.61163 0.13272 0.0
H666 H 0.92582 0.66766 0.11319 0.0
H667 H 0.03529 0.57931 0.0923 0.0
H668 H 0.16942 0.58624 0.28214 0.0
H669 H 0.16429 0.61171 0.2258 0.0
H670 H 0.17984 0.48844 0.24364 0.0
H671 H 0.16199 0.63391 0.25715 0.0
Tb672 Tb 0.7885 0.68594 0.71236 0.0
C673 C 0.8768 0.56395 0.66811 0.0
N674 N 0.87277 0.60364 0.66372 0.0
C675 C 0.94324 0.6074 0.65656 0.0
C676 C 0.9147 0.54514 0.66796 0.0
C677 C 0.90489 0.62447 0.65677 0.0
C678 C 0.94835 0.56782 0.66258 0.0
C679 C 0.84475 0.49985 0.6755 0.0
C680 C 0.84239 0.54139 0.67159 0.0
C681 C 0.88261 0.48143 0.67627 0.0
C682 C 0.91752 0.50402 0.67248 0.0
Tb683 Tb 0.80855 0.62856 0.66547 0.0
N684 N 0.80635 0.56055 0.67119 0.0
C685 C 0.80894 0.47804 0.67819 0.0
C686 C 0.77126 0.53878 0.67231 0.0
C687 C 0.77202 0.49746 0.67625 0.0
H688 H 0.90079 0.65352 0.65064 0.0
H689 H 0.74413 0.48056 0.67762 0.0
H690 H 0.6897 0.66802 0.71323 0.0
H691 H 0.87304 0.82366 0.72441 0.0
H692 H 0.74265 0.55304 0.67012 0.0
H693 H 0.80943 0.44604 0.68122 0.0
H694 H 0.86347 0.75021 0.7219 0.0
H695 H 0.96864 0.62447 0.65134 0.0
H696 H 0.88515 0.44959 0.67939 0.0
H697 H 0.94644 0.48917 0.67262 0.0
H698 H 0.62734 0.70707 0.71179 0.0
H699 H 0.97799 0.5545 0.66221 0.0
H700 H 0.81436 0.86882 0.72223 0.0
N701 N 0.72852 0.71947 0.71163 0.0
C702 C 0.73078 0.76024 0.71284 0.0
C703 C 0.65624 0.72248 0.71184 0.0
C704 C 0.69572 0.78393 0.71306 0.0
C705 C 0.69183 0.70032 0.71227 0.0
C706 C 0.65818 0.76455 0.71198 0.0
N707 N 0.80105 0.75363 0.71557 0.0
C708 C 0.83812 0.76956 0.71955 0.0
C709 C 0.77194 0.81996 0.71741 0.0
C710 C 0.76836 0.77793 0.71483 0.0
C711 C 0.81027 0.83663 0.7203 0.0
C712 C 0.84347 0.81126 0.72148 0.0
H713 H 0.63057 0.78169 0.71196 0.0
H714 H 0.67262 0.84463 0.71535 0.0
H715 H 0.73919 0.876 0.71993 0.0
O716 O 0.79282 0.70412 0.73949 0.0
O717 O 0.75492 0.69854 0.68792 0.0
O718 O 0.79537 0.69526 0.66337 0.0
O719 O 0.77042 0.6449 0.73254 0.0
O720 O 0.85095 0.69666 0.70113 0.0
O721 O 0.85011 0.68138 0.67008 0.0
O722 O 0.76495 0.62114 0.64448 0.0
O723 O 0.81406 0.59728 0.69301 0.0
O724 O 0.84079 0.64822 0.70928 0.0
O725 O 0.82669 0.61369 0.63879 0.0
O726 O 0.74627 0.6276 0.67557 0.0
O727 O 0.75229 0.63105 0.70683 0.0
C728 C 0.77011 0.71599 0.67365 0.0
C729 C 0.80898 0.65018 0.75886 0.0
C730 C 0.87169 0.65574 0.77558 0.0
C731 C 0.85705 0.62644 0.78791 0.0
C732 C 0.79275 0.62593 0.77248 0.0
C733 C 0.81744 0.61204 0.78643 0.0
C734 C 0.84989 0.66035 0.75928 0.0
C735 C 0.86717 0.69886 0.68455 0.0
C736 C 0.7823 0.66858 0.74549 0.0
C737 C 0.69917 0.82589 0.71513 0.0
C738 C 0.73712 0.84375 0.71765 0.0
C739 C 0.83482 0.60958 0.70741 0.0
C740 C 0.78586 0.63414 0.61382 0.0
C741 C 0.76963 0.63505 0.5807 0.0
C742 C 0.78003 0.67635 0.58067 0.0
C743 C 0.79532 0.67534 0.61281 0.0
C744 C 0.77321 0.61367 0.59756 0.0
C745 C 0.79261 0.69605 0.59642 0.0
C746 C 0.73328 0.61903 0.69206 0.0
C747 C 0.79082 0.61327 0.63181 0.0
H748 H 0.87352 0.62005 0.80024 0.0
H749 H 0.76083 0.61909 0.77261 0.0
H750 H 0.8049 0.59305 0.79698 0.0
H751 H 0.86177 0.67895 0.74841 0.0
H752 H 0.77902 0.69372 0.56824 0.0
H753 H 0.80533 0.69155 0.62476 0.0
H754 H 0.76591 0.58176 0.59808 0.0
H755 H 0.80053 0.72779 0.59589 0.0
Tb756 Tb 0.08192 0.03064 0.95885 0.0
C757 C 0.20186 0.139 0.91825 0.0
N758 N 0.16628 0.12703 0.91086 0.0
C759 C 0.15568 0.19414 0.89964 0.0
C760 C 0.21489 0.17958 0.91746 0.0
C761 C 0.14469 0.15329 0.90048 0.0
C762 C 0.1905 0.20755 0.90855 0.0
C763 C 0.26633 0.11969 0.93077 0.0
C764 C 0.22722 0.10961 0.92472 0.0
C765 C 0.27846 0.16041 0.93129 0.0
C766 C 0.25275 0.19036 0.92464 0.0
Tb767 Tb 0.14877 0.06059 0.91499 0.0
N768 N 0.21467 0.07066 0.92353 0.0
C769 C 0.29261 0.08843 0.93524 0.0
C770 C 0.24139 0.04006 0.92634 0.0
C771 C 0.28032 0.04841 0.93267 0.0
H772 H 0.11885 0.14261 0.89292 0.0
H773 H 0.30085 0.02399 0.93544 0.0
H774 H 0.06965 0.93579 0.94381 0.0
H775 H 0.97996 0.13062 0.99279 0.0
H776 H 0.23247 0.00918 0.92423 0.0
H777 H 0.32293 0.09486 0.93994 0.0
H778 H 0.04571 0.10826 0.98109 0.0
H779 H 0.13764 0.21509 0.89192 0.0
H780 H 0.30822 0.16887 0.93609 0.0
H781 H 0.26312 0.22146 0.92437 0.0
H782 H 0.01565 0.88523 0.94207 0.0
H783 H 0.19935 0.23905 0.90764 0.0
H784 H 0.92004 0.08604 0.98995 0.0
N785 N 0.0326 0.9821 0.95476 0.0
C786 C 0.99559 0.99093 0.96122 0.0
C787 C 0.00947 0.9149 0.94744 0.0
C788 C 0.96389 0.96227 0.96093 0.0
C789 C 0.04014 0.94401 0.94844 0.0
C790 C 0.97108 0.92409 0.95366 0.0
N791 N 0.02223 0.05373 0.9699 0.0
C792 C 0.01929 0.0895 0.97897 0.0
C793 C 0.9523 0.03902 0.97597 0.0
C794 C 0.98998 0.02847 0.96872 0.0
C795 C 0.94847 0.07676 0.98421 0.0
C796 C 0.98224 0.10198 0.98586 0.0
H797 H 0.94745 0.90134 0.95307 0.0
H798 H 0.90177 0.95063 0.96831 0.0
H799 H 0.89134 0.01817 0.98123 0.0
O800 O 0.0715 0.0153 0.9859 0.0
O801 O 0.07602 1.00693 0.93151 0.0
O802 O 0.08253 0.05557 0.91076 0.0
O803 O 0.13037 0.00872 0.9744 0.0
O804 O 0.07246 0.09531 0.95039 0.0
O805 O 0.09869 0.10386 0.92107 0.0
O806 O 0.14359 0.01768 0.89374 0.0
O807 O 0.17241 0.05617 0.94368 0.0
O808 O 0.12217 0.08289 0.96001 0.0
O809 O 0.17693 0.07188 0.88973 0.0
O810 O 0.16006 0.99771 0.92414 0.0
O811 O 0.12322 0.98364 0.95033 0.0
C812 C 0.06009 0.02748 0.91839 0.0
C813 C 0.12738 0.0203 1.00579 0.0
C814 C 0.11561 0.05181 1.03491 0.0
C815 C 0.15176 0.03466 1.04139 0.0
C816 C 0.15958 0.99885 1.01319 0.0
C817 C 0.17316 1.00779 1.03061 0.0
C818 C 0.10883 0.05015 1.01606 0.0
C819 C 0.07658 0.11652 0.93508 0.0
C820 C 0.10885 1.006 0.98894 0.0
C821 C 0.92635 0.97238 0.96823 0.0
C822 C 0.9204 0.01085 0.97555 0.0
C823 C 0.16072 0.07738 0.95795 0.0
C824 C 0.14457 0.04459 0.86358 0.0
C825 C 0.1421 0.035 0.83 0.0
C826 C 0.10701 0.05854 0.82984 0.0
C827 C 0.10931 0.06723 0.86241 0.0
C828 C 0.16126 0.02848 0.84721 0.0
C829 C 0.09093 0.0742 0.84575 0.0
C830 C 0.15 0.9741 0.93797 0.0
C831 C 0.16345 0.0393 0.88194 0.0
H832 H 0.16141 0.03828 0.05529 0.0
H833 H 0.17412 0.97529 1.00551 0.0
H834 H 0.19882 0.99208 1.03615 0.0
H835 H 0.08454 0.06674 1.0099 0.0
H836 H 0.092 0.06569 0.81722 0.0
H837 H 0.09606 0.07997 0.87449 0.0
H838 H 0.18852 0.01087 0.84791 0.0
H839 H 0.06396 0.09223 0.84512 0.0
Tb840 Tb 0.73401 0.33548 0.20901 0.0
C841 C 0.63212 0.45297 0.16469 0.0
N842 N 0.63602 0.41307 0.16096 0.0
C843 C 0.56455 0.40774 0.15614 0.0
C844 C 0.59411 0.47146 0.16518 0.0
C845 C 0.60302 0.39092 0.15573 0.0
C846 C 0.55997 0.448 0.16124 0.0
C847 C 0.66462 0.51766 0.17007 0.0
C848 C 0.66665 0.47581 0.16693 0.0
C849 C 0.62681 0.53597 0.17154 0.0
C850 C 0.59158 0.51291 0.16906 0.0
Tb851 Tb 0.70024 0.38793 0.16289 0.0
N852 N 0.7025 0.45679 0.16566 0.0
C853 C 0.70063 0.53981 0.17127 0.0
C854 C 0.73751 0.47876 0.16525 0.0
C855 C 0.73722 0.52037 0.16848 0.0
H856 H 0.60616 0.3604 0.15092 0.0
H857 H 0.76518 0.53743 0.16869 0.0
H858 H 0.83159 0.34997 0.20413 0.0
H859 H 0.65071 0.20349 0.23141 0.0
H860 H 0.76575 0.46446 0.1624 0.0
H861 H 0.70045 0.57204 0.17373 0.0
H862 H 0.66199 0.27617 0.22623 0.0
H863 H 0.53852 0.38973 0.15234 0.0
H864 H 0.62452 0.56804 0.17414 0.0
H865 H 0.56262 0.52758 0.16973 0.0
H866 H 0.89267 0.30866 0.20131 0.0
H867 H 0.53018 0.46102 0.16144 0.0
H868 H 0.70561 0.15526 0.22566 0.0
N869 N 0.79181 0.29954 0.20573 0.0
C870 C 0.78871 0.25908 0.20817 0.0
C871 C 0.86351 0.29426 0.20287 0.0
C872 C 0.82276 0.23417 0.20708 0.0
C873 C 0.82882 0.31759 0.20419 0.0
C874 C 0.86042 0.25229 0.20408 0.0
N875 N 0.72065 0.26898 0.21535 0.0
C876 C 0.6852 0.25531 0.22255 0.0
C877 C 0.74745 0.20157 0.21666 0.0
C878 C 0.75173 0.24318 0.21302 0.0
C879 C 0.7102 0.18704 0.22276 0.0
C880 C 0.67911 0.21415 0.22595 0.0
H881 H 0.88745 0.23433 0.2034 0.0
H882 H 0.84401 0.17263 0.20878 0.0
H883 H 0.77792 0.14398 0.21711 0.0
O884 O 0.73877 0.32063 0.23635 0.0
O885 O 0.76109 0.32044 0.183 0.0
O886 O 0.70811 0.32174 0.16387 0.0
O887 O 0.75882 0.37881 0.22679 0.0
O888 O 0.66908 0.32426 0.20169 0.0
O889 O 0.65755 0.33782 0.17097 0.0
O890 O 0.74265 0.39031 0.14128 0.0
O891 O 0.6991 0.42161 0.18988 0.0
O892 O 0.68004 0.37168 0.20899 0.0
O893 O 0.67991 0.38932 0.13577 0.0
O894 O 0.76523 0.39194 0.16999 0.0
O895 O 0.7659 0.39099 0.20124 0.0
C896 C 0.74028 0.30356 0.17006 0.0
C897 C 0.73506 0.37527 0.25684 0.0
C898 C 0.70188 0.36048 0.28524 0.0
C899 C 0.7178 0.3969 0.29243 0.0
C900 C 0.75544 0.40781 0.26489 0.0
C901 C 0.74495 0.42006 0.28228 0.0
C902 C 0.70399 0.35585 0.26632 0.0
C903 C 0.64607 0.32197 0.18677 0.0
C904 C 0.75253 0.3561 0.24084 0.0
C905 C 0.81835 0.19241 0.20983 0.0
C906 C 0.78072 0.17611 0.2146 0.0
C907 C 0.68312 0.41017 0.20565 0.0
C908 C 0.72119 0.41914 0.11289 0.0
C909 C 0.73995 0.43369 0.08069 0.0
C910 C 0.72123 0.47154 0.08284 0.0
C911 C 0.70519 0.4579 0.11424 0.0
C912 C 0.73914 0.40712 0.09608 0.0
C913 C 0.70499 0.48358 0.09935 0.0
C914 C 0.78166 0.40188 0.1857 0.0
C915 C 0.71554 0.39073 0.12855 0.0
H916 H 0.71372 0.40499 0.30647 0.0
H917 H 0.77985 0.42313 0.2579 0.0
H918 H 0.76023 0.4456 0.28842 0.0
H919 H 0.68776 0.33147 0.25976 0.0
H920 H 0.71807 0.49231 0.07164 0.0
H921 H 0.69143 0.4679 0.12673 0.0
H922 H 0.75198 0.37732 0.09508 0.0
H923 H 0.69127 0.51297 0.10048 0.0
Tb924 Tb 0.37997 0.94639 0.41366 0.0
C925 C 0.45621 0.06415 0.46847 0.0
N926 N 0.45907 0.04207 0.45292 0.0
C927 C 0.48042 0.10218 0.43696 0.0
C928 C 0.46665 0.1057 0.46881 0.0
C929 C 0.46756 0.06194 0.43703 0.0
C930 C 0.48141 0.1238 0.45307 0.0
C931 C 0.42014 0.07261 0.49667 0.0
C932 C 0.43462 0.04736 0.48277 0.0
C933 C 0.43361 0.11277 0.49782 0.0
C934 C 0.45768 0.12904 0.48409 0.0
Tb935 Tb 0.44563 0.97345 0.45712 0.0
N936 N 0.42142 0.00844 0.48124 0.0
C937 C 0.3892 0.05815 0.50773 0.0
C938 C 0.39358 0.99343 0.49297 0.0
C939 C 0.37558 0.01848 0.50577 0.0
H940 H 0.46153 0.04863 0.42419 0.0
H941 H 0.35249 1.00668 0.5147 0.0
H942 H 0.28312 0.94242 0.42661 0.0
H943 H 0.45606 0.84144 0.37038 0.0
H944 H 0.38593 0.96196 0.4928 0.0
H945 H 0.37566 0.0773 0.51788 0.0
H946 H 0.44108 0.90874 0.38336 0.0
H947 H 0.4879 0.11698 0.42431 0.0
H948 H 0.42354 0.13218 0.50868 0.0
H949 H 0.46586 0.16077 0.48461 0.0
H950 H 0.233 0.8892 0.43378 0.0
H951 H 0.48982 0.15549 0.45281 0.0
H952 H 0.41749 0.78129 0.38065 0.0
N953 N 0.32902 0.90085 0.41945 0.0
C954 C 0.33732 0.8619 0.41526 0.0
C955 C 0.26247 0.88104 0.42884 0.0
C956 C 0.30916 0.83063 0.41855 0.0
C957 C 0.29109 0.91106 0.42493 0.0
C958 C 0.27189 0.84053 0.42604 0.0
N959 N 0.39627 0.88588 0.40126 0.0
C960 C 0.42417 0.88242 0.38775 0.0
C961 C 0.37922 0.81541 0.39861 0.0
C962 C 0.37195 0.85421 0.40556 0.0
C963 C 0.41093 0.8106 0.38634 0.0
C964 C 0.43267 0.84451 0.38044 0.0
H965 H 0.24941 0.8174 0.42877 0.0
H966 H 0.29712 0.76647 0.41582 0.0
H967 H 0.35849 0.75318 0.39826 0.0
O968 O 0.3902 0.97728 0.38883 0.0
O969 O 0.42976 0.9061 0.42189 0.0
O970 O 0.43453 0.90734 0.45292 0.0
O971 O 0.33681 0.94229 0.39254 0.0
O972 O 0.4368 0.98268 0.40961 0.0
O973 O 0.47773 0.96124 0.43245 0.0
O974 O 0.47491 0.96919 0.48219 0.0
O975 O 0.40219 0.01975 0.44794 0.0
O976 O 0.35806 1.00371 0.42434 0.0
O977 O 0.50797 0.96244 0.45747 0.0
O978 O 0.39572 0.9319 0.4624 0.0
O979 O 0.34892 0.95252 0.44124 0.0
C980 C 0.43971 0.88835 0.43731 0.0
C981 C 0.33663 0.98869 0.36756 0.0
C982 C 0.32337 0.00918 0.33579 0.0
C983 C 0.29435 0.03611 0.34238 0.0
C984 C 0.30762 0.01606 0.37343 0.0
C985 C 0.28662 0.03945 0.36091 0.0
C986 C 0.34438 0.98508 0.34859 0.0
C987 C 0.47321 0.97791 0.4167 0.0
C988 C 0.35803 0.96302 0.38101 0.0
C989 C 0.31809 0.79102 0.41317 0.0
C990 C 0.35306 0.78344 0.40317 0.0
C991 C 0.37217 0.02863 0.43683 0.0
C992 C 0.52761 0.92286 0.48241 0.0
C993 C 0.51188 0.8792 0.50721 0.0
C994 C 0.55343 0.87474 0.5109 0.0
C995 C 0.56853 0.92265 0.48701 0.0
C996 C 0.50234 0.89323 0.48979 0.0
C997 C 0.58187 0.89582 0.50037 0.0
C998 C 0.35816 0.93834 0.45774 0.0
C999 C 0.50917 0.95942 0.47496 0.0
H1000 H 0.27752 0.05491 0.33309 0.0
H1001 H 0.30105 0.01916 0.38773 0.0
H1002 H 0.26419 0.06046 0.36561 0.0
H1003 H 0.36699 0.96422 0.34391 0.0
H1004 H 0.56378 0.85948 0.52298 0.0
H1005 H 0.58932 0.94433 0.48111 0.0
H1006 H 0.47177 0.89165 0.48483 0.0
H1007 H 0.61345 0.89502 0.50398 0.0
Tb1008 Tb 0.21533 0.38835 0.43108 0.0
C1009 C 0.2821 0.25839 0.37475 0.0
N1010 N 0.28223 0.29076 0.38594 0.0
C1011 C 0.35347 0.28247 0.3904 0.0
C1012 C 0.31792 0.23981 0.36919 0.0
C1013 C 0.31684 0.29993 0.39529 0.0
C1014 C 0.35429 0.25361 0.37663 0.0
C1015 C 0.24305 0.20346 0.36194 0.0
C1016 C 0.24551 0.24019 0.37137 0.0
C1017 C 0.27809 0.18787 0.35397 0.0
C1018 C 0.31569 0.20608 0.35765 0.0
Tb1019 Tb 0.22094 0.32397 0.38511 0.0
N1020 N 0.2128 0.25676 0.37918 0.0
C1021 C 0.20622 0.18249 0.36199 0.0
C1022 C 0.17741 0.23546 0.38038 0.0
C1023 C 0.17365 0.19793 0.37175 0.0
H1024 H 0.31684 0.31953 0.40683 0.0
H1025 H 0.14537 0.18147 0.37222 0.0
H1026 H 0.13511 0.36168 0.45567 0.0
H1027 H 0.2599 0.54294 0.41655 0.0
H1028 H 0.15157 0.24866 0.38688 0.0
H1029 H 0.20311 0.15367 0.35519 0.0
H1030 H 0.27102 0.47171 0.4248 0.0
H1031 H 0.38093 0.29095 0.39742 0.0
H1032 H 0.27689 0.16017 0.3462 0.0
H1033 H 0.34286 0.19205 0.35271 0.0
H1034 H 0.06429 0.38304 0.45874 0.0
H1035 H 0.3826 0.23992 0.37296 0.0
H1036 H 0.1904 0.56849 0.41361 0.0
N1037 N 0.15028 0.40784 0.43682 0.0
C1038 C 0.14014 0.44521 0.43092 0.0
C1039 C 0.08495 0.40032 0.4504 0.0
C1040 C 0.10074 0.46001 0.43299 0.0
C1041 C 0.12472 0.38766 0.44824 0.0
C1042 C 0.07246 0.43603 0.44214 0.0
N1043 N 0.20884 0.45657 0.4259 0.0
C1044 C 0.24079 0.48259 0.42366 0.0
C1045 C 0.16273 0.51126 0.42089 0.0
C1046 C 0.17069 0.47073 0.42538 0.0
C1047 C 0.19523 0.53715 0.41716 0.0
C1048 C 0.23449 0.52291 0.41889 0.0
H1049 H 0.0419 0.44626 0.44409 0.0
H1050 H 0.06161 0.51105 0.42838 0.0
H1051 H 0.11598 0.55585 0.41746 0.0
O1052 O 0.21584 0.36701 0.45824 0.0
O1053 O 0.21784 0.42046 0.4038 0.0
O1054 O 0.18199 0.37572 0.38811 0.0
O1055 O 0.24555 0.42156 0.45181 0.0
O1056 O 0.27593 0.38884 0.41953 0.0
O1057 O 0.27218 0.36771 0.38925 0.0
O1058 O 0.1912 0.30311 0.36215 0.0
O1059 O 0.21805 0.28983 0.40999 0.0
O1060 O 0.25163 0.33169 0.4298 0.0
O1061 O 0.2374 0.3485 0.35966 0.0
O1062 O 0.15901 0.32755 0.3958 0.0
O1063 O 0.16707 0.34074 0.42659 0.0
C1064 C 0.19762 0.41169 0.38886 0.0
C1065 C 0.22353 0.41405 0.48258 0.0
C1066 C 0.23132 0.42325 0.51611 0.0
C1067 C 0.19459 0.44429 0.51576 0.0
C1068 C 0.18801 0.43626 0.48319 0.0
C1069 C 0.1737 0.45099 0.4996 0.0
C1070 C 0.24548 0.40789 0.49909 0.0
C1071 C 0.29036 0.3873 0.40286 0.0
C1072 C 0.23685 0.39675 0.4648 0.0
C1073 C 0.09186 0.49939 0.42723 0.0
C1074 C 0.12286 0.52498 0.42111 0.0
C1075 C 0.24229 0.29502 0.42374 0.0
C1076 C 0.18537 0.34512 0.33739 0.0
C1077 C 0.1726 0.34656 0.30511 0.0
C1078 C 0.13328 0.35972 0.30813 0.0
C1079 C 0.14615 0.3587 0.34063 0.0
C1080 C 0.19819 0.33952 0.31981 0.0
C1081 C 0.12014 0.36569 0.32598 0.0
C1082 C 0.14544 0.32655 0.41263 0.0
C1083 C 0.21031 0.32684 0.35132 0.0
H1084 H 0.18094 0.45519 0.52806 0.0
H1085 H 0.171 0.44195 0.47095 0.0
H1086 H 0.14572 0.46745 0.49984 0.0
H1087 H 0.27337 0.39137 0.49853 0.0
H1088 H 0.11296 0.36483 0.29688 0.0
H1089 H 0.13517 0.36193 0.35436 0.0
H1090 H 0.2279 0.32707 0.31754 0.0
H1091 H 0.08953 0.37498 0.3285 0.0
Tb1092 Tb 0.87734 0.94689 0.18559 0.0
C1093 C 0.99638 0.05173 0.13437 0.0
N1094 N 0.96476 0.04492 0.14556 0.0
C1095 C 0.97242 0.11257 0.15701 0.0
C1096 C 0.01495 0.08995 0.13274 0.0
C1097 C 0.95528 0.0738 0.15808 0.0
C1098 C 1.00134 0.12114 0.1438 0.0
C1099 C 0.04973 0.02199 0.11691 0.0
C1100 C 0.01344 0.01867 0.12657 0.0
C1101 C 0.06573 0.06059 0.11318 0.0
C1102 C 0.04824 0.09473 0.12113 0.0
Tb1103 Tb 0.93225 0.98331 0.14075 0.0
N1104 N 0.99657 0.98251 0.13039 0.0
C1105 C 0.07017 0.9865 0.11273 0.0
C1106 C 0.01556 0.94767 0.12587 0.0
C1107 C 0.053 0.94909 0.11723 0.0
H1108 H 0.93484 0.06751 0.16902 0.0
H1109 H 0.06828 0.92143 0.11384 0.0
H1110 H 0.91874 0.87 0.20819 0.0
H1111 H 0.72582 0.96909 0.1591 0.0
H1112 H 1.00169 0.91885 0.12878 0.0
H1113 H 0.09935 0.98765 0.10621 0.0
H1114 H 0.79408 0.99028 0.16677 0.0
H1115 H 0.96357 0.1357 0.16651 0.0
H1116 H 0.0932 0.06407 0.10544 0.0
H1117 H 0.06243 0.12403 0.11931 0.0
H1118 H 0.90024 0.79913 0.21494 0.0
H1119 H 0.01485 0.151 0.14312 0.0
H1120 H 0.70363 0.89887 0.1647 0.0
N1121 N 0.86433 0.88198 0.19401 0.0
C1122 C 0.8268 0.86828 0.18942 0.0
C1123 C 0.87956 0.8181 0.20755 0.0
C1124 C 0.81499 0.82808 0.19313 0.0
C1125 C 0.89007 0.8581 0.20356 0.0
C1126 C 0.84215 0.80284 0.20207 0.0
N1127 N 0.81129 0.93369 0.17814 0.0
C1128 C 0.78496 0.96029 0.1704 0.0
C1129 C 0.76044 0.88115 0.17664 0.0
C1130 C 0.79948 0.8948 0.18142 0.0
C1131 C 0.73374 0.90831 0.16863 0.0
C1132 C 0.74606 0.94802 0.16554 0.0
H1133 H 0.83415 0.77181 0.20518 0.0
H1134 H 0.76699 0.78357 0.19074 0.0
H1135 H 0.71949 0.82987 0.17619 0.0
O1136 O 0.89935 0.97142 0.21032 0.0
O1137 O 0.85826 0.92405 0.15774 0.0
O1138 O 0.86768 0.98003 0.14114 0.0
O1139 O 0.83971 0.94866 0.20893 0.0
O1140 O 0.85854 1.00758 0.17767 0.0
O1141 O 0.88854 0.02931 0.15066 0.0
O1142 O 0.9267 0.94319 0.11925 0.0
O1143 O 0.97185 0.96679 0.16256 0.0
O1144 O 0.93429 0.98397 0.18718 0.0
O1145 O 0.92843 1.00771 0.11431 0.0
O1146 O 0.93545 0.91716 0.14781 0.0
O1147 O 0.92681 0.90446 0.17864 0.0
C1148 C 0.85047 0.94523 0.14291 0.0
C1149 C 0.8681 0.95667 0.23893 0.0
C1150 C 0.86599 0.97502 0.27169 0.0
C1151 C 0.87175 0.93409 0.27581 0.0
C1152 C 0.87356 0.91642 0.24401 0.0
C1153 C 0.87568 0.90535 0.26219 0.0
C1154 C 0.8647 0.98642 0.25297 0.0
C1155 C 0.86495 0.03509 0.16503 0.0
C1156 C 0.86584 0.96723 0.21913 0.0
C1157 C 0.77636 0.81445 0.18813 0.0
C1158 C 0.74924 0.84085 0.17989 0.0
C1159 C 0.96949 0.98134 0.17887 0.0
C1160 C 0.89958 0.96449 0.09142 0.0
C1161 C 0.90043 0.92698 0.06319 0.0
C1162 C 0.87288 0.95483 0.05579 0.0
C1163 C 0.87633 0.99456 0.08332 0.0
C1164 C 0.90685 0.92881 0.082 0.0
C1165 C 0.86129 0.98855 0.0658 0.0
C1166 C 0.9389 0.893 0.16228 0.0
C1167 C 0.92542 0.97183 0.10722 0.0
H1168 H 0.87379 0.92421 0.28978 0.0
H1169 H 0.87601 0.89323 0.23393 0.0
H1170 H 0.8803 0.87405 0.26577 0.0
H1171 H 0.86054 0.01782 0.24937 0.0
H1172 H 0.86409 0.95333 1.04168 0.0
H1173 H 0.87071 0.02272 0.09025 0.0
H1174 H 0.92483 0.90612 0.0887 0.0
H1175 H 0.84327 0.01156 0.05937 0.0
Tb1176 Tb 0.32067 0.62184 0.9323 0.0
C1177 C 0.23417 0.74621 0.87855 0.0
N1178 N 0.23365 0.70611 0.88214 0.0
C1179 C 0.16211 0.70402 0.87734 0.0
C1180 C 0.19823 0.76725 0.87505 0.0
C1181 C 0.19871 0.6845 0.88016 0.0
C1182 C 0.16174 0.74583 0.87522 0.0
C1183 C 0.27321 0.80552 0.87061 0.0
C1184 C 0.27108 0.76531 0.87683 0.0
C1185 C 0.23759 0.82671 0.86718 0.0
C1186 C 0.20015 0.80803 0.86996 0.0
Tb1187 Tb 0.29469 0.67612 0.88573 0.0
N1188 N 0.30491 0.74358 0.87993 0.0
C1189 C 0.31106 0.82341 0.86806 0.0
C1190 C 0.34192 0.76107 0.87731 0.0
C1191 C 0.34555 0.80122 0.87167 0.0
H1192 H 0.1989 0.65207 0.88 0.0
H1193 H 0.37503 0.81467 0.86964 0.0
H1194 H 0.41621 0.64603 0.94456 0.0
H1195 H 0.25024 0.47628 0.92213 0.0
H1196 H 0.36893 0.74406 0.8786 0.0
H1197 H 0.31394 0.85432 0.86339 0.0
H1198 H 0.252 0.54963 0.92807 0.0
H1199 H 0.13445 0.68666 0.87619 0.0
H1200 H 0.23869 0.85781 0.86263 0.0
H1201 H 0.17294 0.82472 0.86715 0.0
H1202 H 0.48224 0.61388 0.94353 0.0
H1203 H 0.13352 0.76081 0.87248 0.0
H1204 H 0.31402 0.43869 0.91947 0.0
N1205 N 0.3843 0.59516 0.93373 0.0
C1206 C 0.38648 0.55491 0.93014 0.0
C1207 C 0.45564 0.59712 0.93937 0.0
C1208 C 0.42365 0.53471 0.93016 0.0
C1209 C 0.41801 0.61567 0.93942 0.0
C1210 C 0.4586 0.55666 0.93439 0.0
N1211 N 0.31583 0.55401 0.92716 0.0
C1212 C 0.27985 0.53373 0.92634 0.0
C1213 C 0.35162 0.49146 0.9242 0.0
C1214 C 0.35105 0.53339 0.92727 0.0
C1215 C 0.31488 0.47092 0.92191 0.0
C1216 C 0.27882 0.49207 0.92328 0.0
H1217 H 0.48775 0.54228 0.93454 0.0
H1218 H 0.45295 0.4772 0.92624 0.0
H1219 H 0.38984 0.43937 0.92096 0.0
O1220 O 0.27865 0.61024 0.95338 0.0
O1221 O 0.3229 0.58815 0.90513 0.0
O1222 O 0.34687 0.63774 0.8876 0.0
O1223 O 0.34095 0.61256 0.95926 0.0
O1224 O 0.25628 0.62857 0.92565 0.0
O1225 O 0.25775 0.62385 0.89473 0.0
O1226 O 0.30837 0.68974 0.85886 0.0
O1227 O 0.2667 0.70155 0.90966 0.0
O1228 O 0.3101 0.68856 0.93358 0.0
O1229 O 0.27446 0.63543 0.86604 0.0
O1230 O 0.35741 0.68569 0.89569 0.0
O1231 O 0.36481 0.67237 0.92658 0.0
C1232 C 0.34143 0.59921 0.88993 0.0
C1233 C 0.29672 0.62881 0.98363 0.0
C1234 C 0.27613 0.62976 1.01616 0.0
C1235 C 0.28402 0.67169 1.01602 0.0
C1236 C 0.30274 0.67063 0.98432 0.0
C1237 C 0.29669 0.69169 1.00036 0.0
C1238 C 0.28324 0.60819 0.99966 0.0
C1239 C 0.23851 0.61991 0.91019 0.0
C1240 C 0.30535 0.60747 0.96617 0.0
C1241 C 0.42462 0.49312 0.92647 0.0
C1242 C 0.38868 0.47152 0.92352 0.0
C1243 C 0.28434 0.71229 0.92484 0.0
C1244 C 0.26375 0.66394 0.83707 0.0
C1245 C 0.26151 0.6865 0.80601 0.0
C1246 C 0.22427 0.66587 0.80387 0.0
C1247 C 0.2256 0.64577 0.83523 0.0
C1248 C 0.28201 0.68297 0.82235 0.0
C1249 C 0.20649 0.64586 0.81845 0.0
C1250 C 0.37852 0.68784 0.91106 0.0
C1251 C 0.28829 0.65839 0.85307 0.0
H1252 H 0.28102 0.68951 1.0282 0.0
H1253 H 0.31273 0.68706 0.97243 0.0
H1254 H 0.3022 0.72393 1.00073 0.0
H1255 H 0.27806 0.57588 0.99921 0.0
H1256 H 0.20697 0.66804 0.79147 0.0
H1257 H 0.21146 0.63008 0.84645 0.0
H1258 H 0.31103 0.69795 0.82397 0.0
H1259 H 0.17734 0.63141 0.81685 0.0
Tb1260 Tb 0.58764 0.03699 0.64242 0.0
C1261 C 0.68577 0.15569 0.68797 0.0
N1262 N 0.69387 0.11658 0.684 0.0
C1263 C 0.76279 0.13426 0.67791 0.0
C1264 C 0.71564 0.186 0.68632 0.0
C1265 C 0.73259 0.10511 0.68049 0.0
C1266 C 0.754 0.17504 0.68039 0.0
C1267 C 0.64333 0.20214 0.70429 0.0
C1268 C 0.64952 0.16411 0.69635 0.0
C1269 C 0.67132 0.23343 0.70122 0.0
C1270 C 0.70727 0.22548 0.69202 0.0
Tb1271 Tb 0.64037 0.07292 0.68696 0.0
N1272 N 0.62332 0.13314 0.69924 0.0
C1273 C 0.61126 0.20646 0.7164 0.0
C1274 C 0.5936 0.13632 0.71196 0.0
C1275 C 0.58666 0.17322 0.72048 0.0
H1276 H 0.73961 0.07348 0.6789 0.0
H1277 H 0.56262 0.17594 0.73025 0.0
H1278 H 0.49978 0.99101 0.6383 0.0
H1279 H 0.73925 0.97764 0.6277 0.0
H1280 H 0.57508 0.11028 0.71526 0.0
H1281 H 0.60648 0.23476 0.72336 0.0
H1282 H 0.69252 0.01989 0.64291 0.0
H1283 H 0.79291 0.12524 0.67424 0.0
H1284 H 0.66655 0.26324 0.70679 0.0
H1285 H 0.72957 0.24935 0.69059 0.0
H1286 H 0.47296 0.92499 0.62906 0.0
H1287 H 0.7777 0.19747 0.67882 0.0
H1288 H 0.71499 0.91943 0.60996 0.0
N1289 N 0.56048 0.97756 0.63192 0.0
C1290 C 0.58521 0.95089 0.62384 0.0
C1291 C 0.50482 0.93154 0.62788 0.0
C1292 C 0.57056 0.91331 0.61741 0.0
C1293 C 0.52029 0.96903 0.63316 0.0
C1294 C 0.53013 0.90337 0.62007 0.0
N1295 N 0.63882 0.99484 0.63105 0.0
C1296 C 0.67968 0.99868 0.63384 0.0
C1297 C 0.65234 0.93227 0.61501 0.0
C1298 C 0.6255 0.96035 0.62282 0.0
C1299 C 0.69353 0.93997 0.61587 0.0
C1300 C 0.70726 0.9729 0.62571 0.0
H1301 H 0.51793 0.87452 0.6157 0.0
H1302 H 0.58577 0.85793 0.60357 0.0
H1303 H 0.65773 0.87469 0.60136 0.0
O1304 O 0.57045 0.04388 0.6152 0.0
O1305 O 0.60433 0.99265 0.66352 0.0
O1306 O 0.66393 0.01644 0.67502 0.0
O1307 O 0.52912 0.05571 0.63759 0.0
O1308 O 0.62948 0.0858 0.63766 0.0
O1309 O 0.6761 0.07573 0.65993 0.0
O1310 O 0.63555 0.03032 0.70862 0.0
O1311 O 0.58759 0.10993 0.67828 0.0
O1312 O 0.59106 0.10295 0.64768 0.0
O1313 O 0.67286 0.08258 0.71132 0.0
O1314 O 0.58076 0.04259 0.69208 0.0
O1315 O 0.54645 0.03486 0.66478 0.0
C1316 C 0.64092 0.98582 0.66973 0.0
C1317 C 0.52028 0.09481 0.61105 0.0
C1318 C 0.48522 0.09635 0.58311 0.0
C1319 C 0.45492 0.12053 0.5906 0.0
C1320 C 0.49 0.11801 0.61926 0.0
C1321 C 0.45884 0.13358 0.60858 0.0
C1322 C 0.5221 0.09439 0.59224 0.0
C1323 C 0.66658 0.08812 0.64302 0.0
C1324 C 0.53557 0.05844 0.6202 0.0
C1325 C 0.5967 0.88652 0.60886 0.0
C1326 C 0.63755 0.89616 0.60751 0.0
C1327 C 0.57942 0.12368 0.66194 0.0
C1328 C 0.67907 0.03358 0.73514 0.0
C1329 C 0.68667 0.01769 0.76793 0.0
C1330 C 0.72474 1.00165 0.76385 0.0
C1331 C 0.71689 0.01694 0.73188 0.0
C1332 C 0.66388 0.03408 0.75331 0.0
C1333 C 0.73949 1.00123 0.74613 0.0
C1334 C 0.54844 0.03227 0.68245 0.0
C1335 C 0.65653 0.05238 0.71982 0.0
H1336 H 0.42659 0.12493 0.58363 0.0
H1337 H 0.48807 0.12058 0.63385 0.0
H1338 H 0.43489 0.15047 0.61484 0.0
H1339 H 0.54655 0.0782 0.58588 0.0
H1340 H 0.74319 0.98881 0.77448 0.0
H1341 H 0.72911 0.01645 0.71828 0.0
H1342 H 0.63446 0.04655 0.75596 0.0
H1343 H 0.76875 0.98849 0.74343 0.0
H1344 H 0.38796 0.34435 0.2826 0.0
H1345 H 0.41298 0.20893 0.293 0.0
H1346 H 0.33762 0.1843 0.29123 0.0
H1347 H 0.30144 0.34335 0.31248 0.0
H1348 H 0.28698 0.39364 0.30692 0.0
H1349 H 0.33887 0.37942 0.30508 0.0
H1350 H 0.34102 0.40125 0.2713 0.0
H1351 H 0.28985 0.41792 0.27367 0.0
H1352 H 0.30266 0.38314 0.25618 0.0
H1353 H 0.21758 0.24612 0.27196 0.0
H1354 H 0.15908 0.27998 0.28328 0.0
H1355 H 0.22604 0.39088 0.28674 0.0
C1356 C 0.3726 0.31444 0.28264 0.0
C1357 C 0.40457 0.27672 0.2872 0.0
C1358 C 0.39029 0.23123 0.28975 0.0
C1359 C 0.34455 0.21574 0.28809 0.0
C1360 C 0.30413 0.27909 0.28057 0.0
C1361 C 0.32413 0.32039 0.27888 0.0
C1362 C 0.3002 0.3563 0.28314 0.0
C1363 C 0.30733 0.36885 0.30303 0.0
C1364 C 0.30894 0.39167 0.27028 0.0
C1365 C 0.25982 0.33792 0.28077 0.0
C1366 C 0.2603 0.29554 0.27919 0.0
C1367 C 0.22205 0.27635 0.27689 0.0
C1368 C 0.18693 0.29692 0.28172 0.0
C1369 C 0.18923 0.3374 0.28721 0.0
C1370 C 0.22422 0.35923 0.28321 0.0
H1371 H 0.43582 0.40546 0.53256 0.0
H1372 H 0.46147 0.36141 0.58617 0.0
H1373 H 0.52663 0.39787 0.586 0.0
H1374 H 0.54545 0.4259 0.51678 0.0
H1375 H 0.5264 0.46961 0.50525 0.0
H1376 H 0.49538 0.42464 0.50753 0.0
H1377 H 0.44052 0.47247 0.52172 0.0
H1378 H 0.47431 0.51525 0.52124 0.0
H1379 H 0.45268 0.49873 0.54236 0.0
H1380 H 0.5792 0.45451 0.58243 0.0
H1381 H 0.62231 0.51244 0.57407 0.0
H1382 H 0.54994 0.52696 0.5252 0.0
C1383 C 0.45561 0.40207 0.5441 0.0
C1384 C 0.4408 0.38814 0.56089 0.0
C1385 C 0.47035 0.37744 0.57399 0.0
C1386 C 0.50719 0.39881 0.57423 0.0
C1387 C 0.51498 0.42515 0.55987 0.0
C1388 C 0.4907 0.42541 0.54462 0.0
C1389 C 0.50109 0.46018 0.53226 0.0
C1390 C 0.51807 0.44421 0.51436 0.0
C1391 C 0.46501 0.48829 0.5292 0.0
C1392 C 0.53338 0.48071 0.54332 0.0
C1393 C 0.54191 0.45964 0.5589 0.0
C1394 C 0.57245 0.47198 0.57056 0.0
C1395 C 0.597 0.50477 0.56547 0.0
C1396 C 0.59213 0.52328 0.54825 0.0
C1397 C 0.55678 0.51362 0.53818 0.0
H1398 H 0.13846 0.85661 0.81582 0.0
H1399 H 0.09325 0.83131 0.76322 0.0
H1400 H 0.1372 0.77177 0.76056 0.0
H1401 H 0.23106 0.85485 0.81105 0.0
H1402 H 0.24797 0.82651 0.83001 0.0
H1403 H 0.20023 0.85169 0.83116 0.0
H1404 H 0.16473 0.78042 0.83823 0.0
H1405 H 0.21487 0.75907 0.83785 0.0
H1406 H 0.17569 0.7385 0.82376 0.0
H1407 H 0.20483 0.73527 0.75998 0.0
H1408 H 0.26349 0.69383 0.76906 0.0
H1409 H 0.27629 0.76249 0.81773 0.0
C1410 C 0.13708 0.83734 0.80401 0.0
C1411 C 0.12464 0.85319 0.78717 0.0
C1412 C 0.11172 0.823 0.77472 0.0
C1413 C 0.13689 0.78923 0.77294 0.0
C1414 C 0.16579 0.78387 0.78651 0.0
C1415 C 0.16369 0.80495 0.80274 0.0
C1416 C 0.2001 0.79685 0.81444 0.0
C1417 C 0.22078 0.83486 0.82213 0.0
C1418 C 0.18821 0.76702 0.82951 0.0
C1419 C 0.22645 0.7763 0.80086 0.0
C1420 C 0.20542 0.76697 0.78522 0.0
C1421 C 0.22158 0.74194 0.77209 0.0
C1422 C 0.25612 0.72016 0.77679 0.0
C1423 C 0.27021 0.72228 0.79473 0.0
C1424 C 0.26302 0.75793 0.80445 0.0
H1425 H 0.95924 0.44511 1.03751 0.0
H1426 H 0.08865 0.4294 1.03705 0.0
H1427 H 0.09798 0.49979 1.04702 0.0
H1428 H 0.97041 0.54145 1.01476 0.0
H1429 H 0.92582 0.56196 1.0249 0.0
H1430 H 0.92915 0.50848 1.02075 0.0
H1431 H 0.9154 0.49269 0.05484 0.0
H1432 H 0.9094 0.54581 0.05837 0.0
H1433 H 0.94516 0.51818 0.0719 0.0
H1434 H 0.09297 0.57468 0.05343 0.0
H1435 H 0.07232 0.63657 0.06922 0.0
H1436 H 0.94751 0.60671 0.05915 0.0
C1437 C 0.98952 0.45593 1.04033 0.0
C1438 C 0.02316 0.43211 1.03587 0.0
C1439 C 0.06225 0.44708 1.04005 0.0
C1440 C 0.06795 0.48756 1.0451 0.0
C1441 C 0.03431 0.51232 1.04574 0.0
C1442 C 0.99578 0.49685 1.04383 0.0
C1443 C 0.96473 0.52987 1.044 0.0
C1444 C 0.94645 0.53575 1.02499 0.0
C1445 C 0.9318 0.52114 0.05815 0.0
C1446 C 0.99126 0.56561 1.04889 0.0
C1447 C 0.03159 0.5554 1.04868 0.0
C1448 C 0.06154 0.5827 0.05396 0.0
C1449 C 0.04959 0.61865 0.06232 0.0
C1450 C 1.00832 0.62462 0.06629 0.0
C1451 C 0.97924 0.60191 0.0567 0.0
H1452 H 0.726 0.76229 0.81417 0.0
H1453 H 0.73688 0.84394 0.76943 0.0
H1454 H 0.7919 0.80298 0.75676 0.0
H1455 H 0.82246 0.78465 0.82255 0.0
H1456 H 0.83699 0.73899 0.83356 0.0
H1457 H 0.78556 0.75559 0.83506 0.0
H1458 H 0.7588 0.69096 0.82309 0.0
H1459 H 0.80738 0.66842 0.82027 0.0
H1460 H 0.77287 0.67236 0.80135 0.0
H1461 H 0.86343 0.77151 0.75667 0.0
H1462 H 0.91871 0.72195 0.75942 0.0
H1463 H 0.87603 0.68611 0.81147 0.0
C1464 C 0.73897 0.77077 0.80125 0.0
C1465 C 0.73533 0.81051 0.79469 0.0
C1466 C 0.74508 0.81617 0.77619 0.0
C1467 C 0.77722 0.79376 0.76916 0.0
C1468 C 0.79388 0.7644 0.78048 0.0
C1469 C 0.77444 0.75198 0.79621 0.0
C1470 C 0.80234 0.7294 0.80879 0.0
C1471 C 0.81218 0.75363 0.82603 0.0
C1472 C 0.78453 0.68773 0.81361 0.0
C1473 C 0.83919 0.72771 0.79697 0.0
C1474 C 0.83439 0.74942 0.78107 0.0
C1475 C 0.86559 0.75223 0.76844 0.0
C1476 C 0.89778 0.72504 0.77054 0.0
C1477 C 0.89243 0.69282 0.78312 0.0
C1478 C 0.87368 0.70455 0.79941 0.0
H1479 H 0.69329 0.27722 0.27551 0.0
H1480 H 0.70834 0.35009 0.32349 0.0
H1481 H 0.77177 0.31523 0.3304 0.0
H1482 H 0.74469 0.18421 0.29407 0.0
H1483 H 0.76527 0.17332 0.27206 0.0
H1484 H 0.71711 0.19736 0.27383 0.0
H1485 H 0.7443 0.25343 0.25317 0.0
H1486 H 0.79379 0.23207 0.25238 0.0
H1487 H 0.78767 0.28322 0.26004 0.0
H1488 H 0.84584 0.29341 0.32401 0.0
H1489 H 0.90294 0.24731 0.31913 0.0
H1490 H 0.83834 0.18843 0.27605 0.0
C1491 C 0.70951 0.28595 0.28762 0.0
C1492 C 0.70169 0.32284 0.29676 0.0
C1493 C 0.71825 0.32658 0.31443 0.0
C1494 C 0.75468 0.30737 0.31839 0.0
C1495 C 0.76952 0.28052 0.30559 0.0
C1496 C 0.74603 0.26709 0.29131 0.0
C1497 C 0.76848 0.23722 0.27963 0.0
C1498 C 0.74766 0.19555 0.27995 0.0
C1499 C 0.77387 0.2525 0.26013 0.0
C1500 C 0.8084 0.23684 0.28937 0.0
C1501 C 0.80886 0.26301 0.30393 0.0
C1502 C 0.84414 0.27023 0.31371 0.0
C1503 C 0.87676 0.24453 0.31043 0.0
C1504 C 0.86935 0.20816 0.30062 0.0
C1505 C 0.841 0.21143 0.28638 0.0
H1506 H 0.92165 0.94296 1.02656 0.0
H1507 H 0.96445 0.8699 0.07029 0.0
H1508 H 0.0235 0.9153 0.07429 0.0
H1509 H 0.02735 0.97455 1.0116 0.0
H1510 H 1.00832 0.02271 1.00452 0.0
H1511 H 0.97695 0.97791 1.00276 0.0
H1512 H 0.92281 0.01575 1.02092 0.0
H1513 H 0.95469 0.05945 1.02394 0.0
H1514 H 0.93454 0.03348 1.04344 0.0
H1515 H 0.06566 0.9796 0.07805 0.0
H1516 H 0.10882 0.0391 0.07285 0.0
H1517 H 0.03392 0.07247 1.02741 0.0
C1518 C 0.94374 0.93607 1.03687 0.0
C1519 C 0.93404 0.91074 0.05165 0.0
C1520 C 0.96795 0.89545 0.06124 0.0
C1521 C 1.00123 0.92142 0.06394 0.0
C1522 C 1.00241 0.95685 0.05373 0.0
C1523 C 0.97605 0.96271 1.0395 0.0
C1524 C 0.98412 1.00223 1.03006 0.0
C1525 C 1.0001 0.99377 1.01104 0.0
C1526 C 0.94679 0.0293 1.02957 0.0
C1527 C 0.0169 0.01949 1.04208 0.0
C1528 C 0.02731 0.99249 0.05549 0.0
C1529 C 0.0584 1.00074 0.06752 0.0
C1530 C 0.08287 0.0346 0.06419 0.0
C1531 C 0.07966 0.05467 1.04725 0.0
C1532 C 0.0411 0.05348 1.03887 0.0
H1533 H 0.52569 0.88326 0.54483 0.0
H1534 H 0.43011 0.90277 0.50548 0.0
H1535 H 0.40534 0.95794 0.52405 0.0
H1536 H 0.44612 0.91865 0.58069 0.0
H1537 H 0.48078 0.94259 0.59565 0.0
H1538 H 0.49341 0.89456 0.58524 0.0
H1539 H 0.55709 0.91767 0.56929 0.0
H1540 H 0.55426 0.96349 0.58201 0.0
H1541 H 0.55816 0.96565 0.55765 0.0
H1542 H 0.41168 0.02889 0.53797 0.0
H1543 H 0.4315 0.09137 0.55429 0.0
H1544 H 0.51106 0.01877 0.58769 0.0
C1545 C 0.49925 0.89843 0.53987 0.0
C1546 C 0.4838 0.89146 0.52221 0.0
C1547 C 0.44646 0.90996 0.51772 0.0
C1548 C 0.43207 0.94223 0.52789 0.0
C1549 C 0.45307 0.95364 0.54314 0.0
C1550 C 0.48345 0.93009 0.55005 0.0
C1551 C 0.49844 0.94752 0.56761 0.0
C1552 C 0.47875 0.92421 0.58324 0.0
C1553 C 0.54472 0.94868 0.56919 0.0
C1554 C 0.4803 0.98898 0.56643 0.0
C1555 C 0.45199 0.99132 0.55296 0.0
C1556 C 0.43368 0.02772 0.54852 0.0
C1557 C 0.44504 0.06288 0.55793 0.0
C1558 C 0.47403 0.06081 0.5719 0.0
C1559 C 0.49043 0.02271 0.57651 0.0
H1560 H 0.15977 0.13714 0.98396 0.0
H1561 H 0.219 0.02508 0.97098 0.0
H1562 H 0.25099 0.02502 1.00145 0.0
H1563 H 0.25274 0.17461 1.00962 0.0
H1564 H 0.22279 0.2048 1.02461 0.0
H1565 H 0.20657 0.19652 1.00156 0.0
H1566 H 0.13807 0.16793 1.0131 0.0
H1567 H 0.15482 0.17779 1.03589 0.0
H1568 H 0.13804 0.12812 1.0297 0.0
H1569 H 0.26844 0.03333 1.03651 0.0
H1570 H 0.28277 0.05739 0.06782 0.0
H1571 H 0.21683 0.16667 0.05639 0.0
C1572 C 0.17984 0.11276 0.98744 0.0
C1573 C 0.18622 0.08077 0.97497 0.0
C1574 C 0.21354 0.05005 0.98007 0.0
C1575 C 0.23173 0.04969 0.9975 0.0
C1576 C 0.2232 0.08072 1.00978 0.0
C1577 C 0.19916 0.11259 1.00457 0.0
C1578 C 0.19792 0.14437 1.01947 0.0
C1579 C 0.22138 0.18232 1.01345 0.0
C1580 C 0.15464 0.15509 1.02483 0.0
C1581 C 0.22023 0.12316 1.03474 0.0
C1582 C 0.23552 0.08682 1.02891 0.0
C1583 C 0.2572 0.06223 1.04092 0.0
C1584 C 0.26477 0.07588 0.05887 0.0
C1585 C 0.25124 0.11414 0.06482 0.0
C1586 C 0.2279 0.13734 0.05247 0.0
H1587 H 0.59898 0.47339 0.30355 0.0
H1588 H 0.71095 0.53776 0.31382 0.0
H1589 H 0.73345 0.52149 0.28258 0.0
H1590 H 0.63132 0.39392 0.27765 0.0
H1591 H 0.59161 0.39452 0.26106 0.0
H1592 H 0.58287 0.41302 0.2836 0.0
H1593 H 0.5603 0.48158 0.27175 0.0
H1594 H 0.56685 0.46398 0.24884 0.0
H1595 H 0.59185 0.50957 0.25629 0.0
H1596 H 0.74111 0.50036 0.24799 0.0
H1597 H 0.73851 0.46685 0.21797 0.0
H1598 H 0.62314 0.4138 0.23142 0.0
C1599 C 0.62837 0.48422 0.29937 0.0
C1600 C 0.65282 0.50751 0.31144 0.0
C1601 C 0.69137 0.51998 0.30514 0.0
C1602 C 0.70417 0.5113 0.2872 0.0
C1603 C 0.67839 0.48972 0.2755 0.0
C1604 C 0.64146 0.47592 0.28158 0.0
C1605 C 0.61877 0.45379 0.26656 0.0
C1606 C 0.60544 0.41128 0.27255 0.0
C1607 C 0.58228 0.47869 0.26051 0.0
C1608 C 0.6503 0.45306 0.25162 0.0
C1609 C 0.68356 0.47608 0.25654 0.0
C1610 C 0.7151 0.48227 0.24422 0.0
C1611 C 0.71334 0.46332 0.227 0.0
C1612 C 0.68079 0.43758 0.22206 0.0
C1613 C 0.64866 0.4331 0.23464 0.0
H1614 H 0.29627 0.85198 0.55513 0.0
H1615 H 0.23017 0.96135 0.56582 0.0
H1616 H 0.24556 0.98522 0.53451 0.0
H1617 H 0.37108 0.89209 0.53092 0.0
H1618 H 0.377 0.85447 0.51331 0.0
H1619 H 0.35822 0.84063 0.53532 0.0
H1620 H 0.2923 0.81208 0.52446 0.0
H1621 H 0.30959 0.81886 0.50153 0.0
H1622 H 0.262 0.83952 0.50844 0.0
H1623 H 0.26624 0.99384 0.49922 0.0
H1624 H 0.29936 0.99211 0.46902 0.0
H1625 H 0.35163 0.87688 0.48271 0.0
C1626 C 0.28446 0.8809 0.551 0.0
C1627 C 0.26125 0.90424 0.56326 0.0
C1628 C 0.24803 0.94255 0.55703 0.0
C1629 C 0.25626 0.95614 0.53903 0.0
C1630 C 0.2777 0.93119 0.52712 0.0
C1631 C 0.29169 0.89439 0.53314 0.0
C1632 C 0.3149 0.87293 0.51835 0.0
C1633 C 0.35798 0.86455 0.52476 0.0
C1634 C 0.29339 0.83352 0.51287 0.0
C1635 C 0.3134 0.90374 0.503 0.0
C1636 C 0.2907 0.93672 0.50796 0.0
C1637 C 0.28408 0.96804 0.49545 0.0
C1638 C 0.30248 0.96652 0.47804 0.0
C1639 C 0.3279 0.93413 0.47309 0.0
C1640 C 0.33212 0.90194 0.48578 0.0
H1641 H 0.78826 0.54983 0.72614 0.0
H1642 H 0.90383 0.61157 0.72662 0.0
H1643 H 0.91944 0.58149 0.75631 0.0
H1644 H 0.75763 0.55225 0.77321 0.0
H1645 H 0.7408 0.50138 0.77185 0.0
H1646 H 0.74392 0.53116 0.75151 0.0
H1647 H 0.78633 0.46666 0.74118 0.0
H1648 H 0.78766 0.44649 0.7639 0.0
H1649 H 0.83392 0.45743 0.75215 0.0
H1650 H 0.91865 0.55456 0.78864 0.0
H1651 H 0.89951 0.53573 0.81992 0.0
H1652 H 0.78622 0.48764 0.79957 0.0
C1653 C 0.81731 0.55594 0.73227 0.0
C1654 C 0.84504 0.58315 0.72366 0.0
C1655 C 0.88229 0.59066 0.73255 0.0
C1656 C 0.89152 0.57355 0.74955 0.0
C1657 C 0.8634 0.54825 0.75799 0.0
C1658 C 0.82709 0.53892 0.74958 0.0
C1659 C 0.80238 0.51096 0.76203 0.0
C1660 C 0.75875 0.52498 0.76471 0.0
C1661 C 0.80258 0.46784 0.75436 0.0
C1662 C 0.82698 0.51271 0.77966 0.0
C1663 C 0.86341 0.53191 0.77665 0.0
C1664 C 0.89051 0.53868 0.79099 0.0
C1665 C 0.87935 0.52786 0.8089 0.0
C1666 C 0.84118 0.51032 0.81268 0.0
C1667 C 0.81553 0.50139 0.7975 0.0
H1668 H 0.78843 0.979 0.12357 0.0
H1669 H 0.86723 0.87578 0.12397 0.0
H1670 H 0.84541 0.85893 0.09264 0.0
H1671 H 0.70804 0.91969 0.09544 0.0
H1672 H 0.69074 0.96577 0.08517 0.0
H1673 H 0.70938 0.9661 0.10814 0.0
H1674 H 0.75779 0.02242 0.09932 0.0
H1675 H 0.74278 0.02111 0.07589 0.0
H1676 H 0.79458 0.0149 0.08208 0.0
H1677 H 0.82367 0.86199 0.05849 0.0
H1678 H 0.79551 0.876 1.02828 0.0
H1679 H 0.72275 0.97082 0.05195 0.0
C1680 C 0.80015 0.95209 0.11726 0.0
C1681 C 0.82955 0.92857 0.12638 0.0
C1682 C 0.84422 0.8938 0.11753 0.0
C1683 C 0.83216 0.88424 0.0996 0.0
C1684 C 0.80458 0.90917 0.09067 0.0
C1685 C 0.78729 0.9413 0.09961 0.0
C1686 C 0.75632 0.96175 0.08747 0.0
C1687 C 0.7136 0.95278 0.09447 0.0
C1688 C 0.76338 1.00765 0.08607 0.0
C1689 C 0.76318 0.94002 0.06955 0.0
C1690 C 0.79018 0.90901 0.07173 0.0
C1691 C 0.80159 0.88553 0.05688 0.0
C1692 C 0.78505 0.89379 1.03954 0.0
C1693 C 0.75643 0.92501 1.03684 0.0
C1694 C 0.74526 0.94764 0.05253 0.0
H1695 H 0.35239 0.62086 0.8541 0.0
H1696 H 0.34813 0.5139 0.88744 0.0
H1697 H 0.35941 0.47227 0.85977 0.0
H1698 H 0.28253 0.55299 0.81433 0.0
H1699 H 0.29218 0.60295 0.80603 0.0
H1700 H 0.28392 0.5925 0.82991 0.0
H1701 H 0.3599 0.64039 0.8229 0.0
H1702 H 0.36388 0.62075 0.8003 0.0
H1703 H 0.40144 0.60837 0.81705 0.0
H1704 H 0.37079 0.44298 0.8251 0.0
H1705 H 0.36667 0.4303 0.79188 0.0
H1706 H 0.34449 0.55681 0.78266 0.0
C1707 C 0.35064 0.58869 0.85576 0.0
C1708 C 0.34732 0.57151 0.8734 0.0
C1709 C 0.35002 0.5287 0.87442 0.0
C1710 C 0.3564 0.50466 0.85858 0.0
C1711 C 0.3574 0.5232 0.84137 0.0
C1712 C 0.35171 0.56418 0.84009 0.0
C1713 C 0.344 0.57634 0.82047 0.0
C1714 C 0.29832 0.58198 0.81743 0.0
C1715 C 0.36881 0.61368 0.81485 0.0
C1716 C 0.35607 0.53876 0.8104 0.0
C1717 C 0.36135 0.50719 0.82251 0.0
C1718 C 0.36669 0.46796 0.81584 0.0
C1719 C 0.36467 0.46098 0.7968 0.0
C1720 C 0.3571 0.4928 0.78433 0.0
C1721 C 0.35299 0.53214 0.79149 0.0
H1722 H 0.71707 0.05006 0.53855 0.0
H1723 H 0.80313 0.14897 0.53869 0.0
H1724 H 0.78917 0.16042 0.57145 0.0
H1725 H 0.64396 0.09316 0.56901 0.0
H1726 H 0.63279 0.04474 0.57909 0.0
H1727 H 0.6498 0.04751 0.55603 0.0
H1728 H 0.70834 0.99866 0.56408 0.0
H1729 H 0.69029 0.9968 0.58699 0.0
H1730 H 0.74177 0.01135 0.58254 0.0
H1731 H 0.76784 0.15443 0.60747 0.0
H1732 H 0.73436 0.1401 0.6372 0.0
H1733 H 0.65818 0.05244 0.61 0.0
C1734 C 0.7329 0.07448 0.54534 0.0
C1735 C 0.76169 0.09824 0.5358 0.0
C1736 C 0.78096 0.13016 0.54546 0.0
C1737 C 0.77345 0.13658 0.56424 0.0
C1738 C 0.74615 0.11116 0.57342 0.0
C1739 C 0.72552 0.08141 0.56389 0.0
C1740 C 0.69731 0.05797 0.5762 0.0
C1741 C 0.65338 0.0611 0.5697 0.0
C1742 C 0.71025 0.01359 0.57753 0.0
C1743 C 0.70409 0.07959 0.5941 0.0
C1744 C 0.73327 0.10928 0.59275 0.0
C1745 C 0.745 0.13101 0.60839 0.0
C1746 C 0.72613 0.12237 0.62543 0.0
C1747 C 0.69491 0.0929 0.6268 0.0
C1748 C 0.68377 0.07267 0.61044 0.0
H1749 H 0.14199 0.45647 0.36867 0.0
H1750 H 0.26744 0.42233 0.36839 0.0
H1751 H 0.27233 0.44049 0.33624 0.0
H1752 H 0.10591 0.44402 0.32288 0.0
H1753 H 0.08444 0.49321 0.3226 0.0
H1754 H 0.09152 0.46763 0.34391 0.0
H1755 H 0.13088 0.53508 0.35297 0.0
H1756 H 0.12652 0.5544 0.33019 0.0
H1757 H 0.17543 0.54877 0.34039 0.0
H1758 H 0.26088 0.45658 0.30193 0.0
H1759 H 0.24067 0.48544 0.2723 0.0
H1760 H 0.12884 0.52501 0.29614 0.0
C1761 C 0.1706 0.45309 0.36188 0.0
C1762 C 0.2035 0.4347 0.37112 0.0
C1763 C 0.24086 0.4335 0.3618 0.0
C1764 C 0.24407 0.44407 0.34329 0.0
C1765 C 0.21055 0.45956 0.33431 0.0
C1766 C 0.17535 0.46681 0.34368 0.0
C1767 C 0.147 0.49177 0.33184 0.0
C1768 C 0.10475 0.47292 0.3303 0.0
C1769 C 0.14481 0.53505 0.33929 0.0
C1770 C 0.16891 0.49162 0.31366 0.0
C1771 C 0.20593 0.47348 0.31542 0.0
C1772 C 0.23175 0.47042 0.3005 0.0
C1773 C 0.21986 0.48666 0.28356 0.0
C1774 C 0.18277 0.50699 0.28154 0.0
C1775 C 0.15702 0.50896 0.29696 0.0
H1776 H 0.71648 0.66626 0.55559 0.0
H1777 H 0.79279 0.56276 0.56427 0.0
H1778 H 0.77926 0.54058 0.53259 0.0
H1779 H 0.64211 0.62449 0.53094 0.0
H1780 H 0.63501 0.66178 0.51342 0.0
H1781 H 0.65366 0.67628 0.5354 0.0
H1782 H 0.71823 0.70789 0.52444 0.0
H1783 H 0.70048 0.70056 0.50156 0.0
H1784 H 0.74916 0.68206 0.50826 0.0
H1785 H 0.7613 0.53466 0.49717 0.0
H1786 H 0.72695 0.53431 0.46719 0.0
H1787 H 0.6586 0.63888 0.48323 0.0
C1788 C 0.73028 0.63868 0.55096 0.0
C1789 C 0.75614 0.61658 0.56271 0.0
C1790 C 0.77286 0.58041 0.55584 0.0
C1791 C 0.76576 0.56792 0.53765 0.0
C1792 C 0.7415 0.59159 0.52627 0.0
C1793 C 0.72342 0.62583 0.53296 0.0
C1794 C 0.6981 0.64611 0.5184 0.0
C1795 C 0.65463 0.65242 0.52485 0.0
C1796 C 0.71764 0.68655 0.51284 0.0
C1797 C 0.70109 0.61588 0.50291 0.0
C1798 C 0.72858 0.58618 0.50713 0.0
C1799 C 0.73935 0.55757 0.49402 0.0
C1800 C 0.71975 0.55767 0.47687 0.0
C1801 C 0.68925 0.58603 0.47275 0.0
C1802 C 0.68092 0.61606 0.48597 0.0
H1803 H 0.09778 1.00571 0.80074 0.0
H1804 H 0.22111 0.02874 0.81751 0.0
H1805 H 0.24425 0.00989 0.78671 0.0
H1806 H 0.09831 0.9311 0.77935 0.0
H1807 H 0.07859 0.93378 0.75659 0.0
H1808 H 0.0598 0.96554 0.7743 0.0
H1809 H 0.07652 0.03442 0.76513 0.0
H1810 H 0.08178 0.01221 0.74296 0.0
H1811 H 0.12071 0.04496 0.75184 0.0
H1812 H 0.25305 0.98971 0.75238 0.0
H1813 H 0.24842 0.95688 0.72231 0.0
H1814 H 0.12071 0.93765 0.72988 0.0
C1815 C 0.12974 1.0074 0.798 0.0
C1816 C 0.15745 0.0193 0.81188 0.0
C1817 C 0.19902 0.01982 0.80743 0.0
C1818 C 0.21239 0.00994 0.78974 0.0
C1819 C 0.18405 0.99911 0.7764 0.0
C1820 C 0.14349 0.99783 0.78044 0.0
C1821 C 0.11904 0.98428 0.76394 0.0
C1822 C 0.08741 0.95161 0.76871 0.0
C1823 C 0.09829 0.02113 0.75546 0.0
C1824 C 0.15242 0.97013 0.75128 0.0
C1825 C 0.18947 0.98293 0.7579 0.0
C1826 C 0.22423 0.97889 0.7474 0.0
C1827 C 0.22143 0.9599 0.73027 0.0
C1828 C 0.18478 0.94252 0.72399 0.0
C1829 C 0.14956 0.94903 0.73454 0.0
H1830 H 0.7704 0.48633 0.05441 0.0
H1831 H 0.75473 0.35799 0.06429 0.0
H1832 H 0.78102 0.34445 1.03342 0.0
H1833 H 0.73546 0.48947 1.00877 0.0
H1834 H 0.77242 0.52712 1.00241 0.0
H1835 H 0.75455 0.52461 1.0254 0.0
H1836 H 0.82759 0.51877 1.03667 0.0
H1837 H 0.84752 0.51808 1.01415 0.0
H1838 H 0.85814 0.47734 1.02919 0.0
H1839 H 0.81295 0.34732 0.99961 0.0
H1840 H 0.84416 0.36579 0.9701 0.0
H1841 H 0.82229 0.49173 0.98122 0.0
C1842 C 0.77061 0.45512 0.05021 0.0
C1843 C 0.75863 0.42352 0.06223 0.0
C1844 C 0.76319 0.38329 0.05579 0.0
C1845 C 0.77787 0.37525 1.03801 0.0
C1846 C 0.78746 0.40761 1.0264 0.0
C1847 C 0.78345 0.4467 1.03245 0.0
C1848 C 0.7967 0.47681 1.01813 0.0
C1849 C 0.76276 0.50625 1.0134 0.0
C1850 C 0.83464 0.49911 1.02493 0.0
C1851 C 0.80632 0.44923 1.00229 0.0
C1852 C 0.80262 0.40919 1.00744 0.0
C1853 C 0.81475 0.37867 0.99553 0.0
C1854 C 0.83192 0.3894 0.97852 0.0
C1855 C 0.8356 0.43032 0.97286 0.0
C1856 C 0.82061 0.46017 0.98485 0.0
H1857 H 0.34353 0.12699 0.24318 0.0
H1858 H 0.30909 0.02084 0.21286 0.0
H1859 H 0.31309 0.98017 0.24133 0.0
H1860 H 0.40484 0.09459 0.27662 0.0
H1861 H 0.38136 0.12278 0.2945 0.0
H1862 H 0.37835 0.14035 0.27144 0.0
H1863 H 0.29776 0.13812 0.27326 0.0
H1864 H 0.303 0.12345 0.29664 0.0
H1865 H 0.27373 0.09319 0.28116 0.0
H1866 H 0.31927 0.95258 0.27676 0.0
H1867 H 0.31936 0.94597 0.3105 0.0
H1868 H 0.34332 0.07391 0.31523 0.0
C1869 C 0.33551 0.09563 0.24233 0.0
C1870 C 0.32525 0.07798 0.22549 0.0
C1871 C 0.31703 0.03572 0.22541 0.0
C1872 C 0.31923 0.0123 0.24166 0.0
C1873 C 0.32857 0.03157 0.25816 0.0
C1874 C 0.33528 0.07273 0.25835 0.0
C1875 C 0.33916 0.08845 0.27747 0.0
C1876 C 0.37822 0.11302 0.28017 0.0
C1877 C 0.30132 0.11232 0.28246 0.0
C1878 C 0.33918 0.0499 0.2882 0.0
C1879 C 0.33143 0.0169 0.27722 0.0
C1880 C 0.32549 0.97869 0.28514 0.0
C1881 C 0.32587 0.97505 0.30441 0.0
C1882 C 0.33184 0.00942 0.31567 0.0
C1883 C 0.33956 0.04683 0.30716 0.0
H1884 H 0.29466 0.47158 0.62115 0.0
H1885 H 0.36833 0.36445 0.6188 0.0
H1886 H 0.34254 0.34955 0.58827 0.0
H1887 H 0.20999 0.41641 0.59399 0.0
H1888 H 0.19319 0.46205 0.58323 0.0
H1889 H 0.21346 0.46376 0.60593 0.0
H1890 H 0.27074 0.51643 0.59633 0.0
H1891 H 0.24204 0.517 0.57562 0.0
H1892 H 0.29461 0.50784 0.5748 0.0
H1893 H 0.31635 0.35043 0.55597 0.0
H1894 H 0.2849 0.36267 0.52624 0.0
H1895 H 0.22741 0.46914 0.54838 0.0
C1896 C 0.30422 0.4443 0.61444 0.0
C1897 C 0.33353 0.41895 0.62273 0.0
C1898 C 0.34563 0.38405 0.61309 0.0
C1899 C 0.33128 0.37537 0.59556 0.0
C1900 C 0.30411 0.40158 0.58743 0.0
C1901 C 0.28972 0.43485 0.59666 0.0
C1902 C 0.25879 0.45649 0.58472 0.0
C1903 C 0.21635 0.44926 0.59243 0.0
C1904 C 0.26724 0.50203 0.58283 0.0
C1905 C 0.26327 0.43406 0.56669 0.0
C1906 C 0.28799 0.40128 0.56885 0.0
C1907 C 0.29631 0.37571 0.55426 0.0
C1908 C 0.27866 0.38342 0.53715 0.0
C1909 C 0.25272 0.41672 0.53434 0.0
C1910 C 0.24579 0.44256 0.54959 0.0
H1911 H 0.81352 0.97153 0.30058 0.0
H1912 H 0.91376 0.04171 0.27966 0.0
H1913 H 0.91989 0.0768 0.3093 0.0
H1914 H 0.76742 0.05023 0.32917 0.0
H1915 H 0.75446 0.01383 0.34625 0.0
H1916 H 0.75795 0.99857 0.32292 0.0
H1917 H 0.80783 0.94343 0.33323 0.0
H1918 H 0.80602 0.96106 0.35629 0.0
H1919 H 0.85364 0.95793 0.34475 0.0
H1920 H 0.91762 0.10108 0.343 0.0
H1921 H 0.89913 0.1211 0.37425 0.0
H1922 H 0.79903 0.03665 0.37283 0.0
C1923 C 0.8361 0.9951 0.30205 0.0
C1924 C 0.86309 1.00382 0.28757 0.0
C1925 C 0.89245 0.0346 0.2903 0.0
C1926 C 0.89653 0.05424 0.30728 0.0
C1927 C 0.87069 0.0434 0.32153 0.0
C1928 C 0.84017 0.01536 0.31883 0.0
C1929 C 0.81627 0.00877 0.33623 0.0
C1930 C 0.77144 0.01848 0.33346 0.0
C1931 C 0.82125 0.96521 0.34303 0.0
C1932 C 0.83698 0.03864 0.34904 0.0
C1933 C 0.86907 0.05751 0.3405 0.0
C1934 C 0.8928 0.08603 0.34976 0.0
C1935 C 0.88258 0.09677 0.36775 0.0
C1936 C 0.84872 0.07934 0.37654 0.0
C1937 C 0.82614 0.04942 0.36692 0.0
H1938 H 0.16885 0.63451 0.114 0.0
H1939 H 0.21908 0.51777 0.12636 0.0
H1940 H 0.25227 0.51698 0.09618 0.0
H1941 H 0.14712 0.62356 0.06726 0.0
H1942 H 0.16314 0.67398 0.06215 0.0
H1943 H 0.14543 0.66181 0.08454 0.0
H1944 H 0.21388 0.69257 0.09633 0.0
H1945 H 0.23069 0.70066 0.0734 0.0
H1946 H 0.26049 0.67094 0.08875 0.0
H1947 H 0.2751 0.52799 0.06179 0.0
H1948 H 0.29251 0.55349 1.03104 0.0
H1949 H 0.22578 0.6625 1.04211 0.0
C1950 C 0.1879 0.6093 0.1106 0.0
C1951 C 0.19117 0.57608 0.12271 0.0
C1952 C 0.21611 0.54361 0.11751 0.0
C1953 C 0.23491 0.54289 0.10024 0.0
C1954 C 0.22941 0.57537 0.08827 0.0
C1955 C 0.20725 0.60849 0.09357 0.0
C1956 C 0.20622 0.6401 0.0786 0.0
C1957 C 0.16293 0.65036 0.07285 0.0
C1958 C 0.22918 0.67833 0.08463 0.0
C1959 C 0.22873 0.61874 0.06355 0.0
C1960 C 0.24254 0.58165 0.06929 0.0
C1961 C 0.26464 0.55728 0.05743 0.0
C1962 C 0.27409 0.57187 1.03978 0.0
C1963 C 0.26146 0.61062 1.03386 0.0
C1964 C 0.23729 0.63331 1.04601 0.0
H1965 H 0.68067 0.94842 0.78655 0.0
H1966 H 0.6638 0.07613 0.79389 0.0
H1967 H 0.65736 0.06522 0.82734 0.0
H1968 H 0.63093 0.89899 0.81859 0.0
H1969 H 0.67043 0.86919 0.82778 0.0
H1970 H 0.67232 0.88445 0.80437 0.0
H1971 H 0.73813 0.91904 0.80625 0.0
H1972 H 0.74822 0.91746 0.83065 0.0
H1973 H 0.74542 0.96352 0.81949 0.0
H1974 H 0.66214 0.03363 0.86357 0.0
H1975 H 0.67616 0.99157 0.89104 0.0
H1976 H 0.69542 0.88874 0.85641 0.0
C1977 C 0.67307 0.97403 0.79496 0.0
C1978 C 0.67157 0.01283 0.78726 0.0
C1979 C 0.66426 0.04568 0.79922 0.0
C1980 C 0.66077 0.03962 0.81841 0.0
C1981 C 0.66483 1.00046 0.82566 0.0
C1982 C 0.67059 0.96871 0.81381 0.0
C1983 C 0.68671 0.93296 0.82367 0.0
C1984 C 0.66398 0.89408 0.81826 0.0
C1985 C 0.73213 0.93251 0.81968 0.0
C1986 C 0.68036 0.94431 0.84322 0.0
C1987 C 0.67045 0.98449 0.84465 0.0
C1988 C 0.66919 1.002 0.86208 0.0
C1989 C 0.67747 0.97776 0.87782 0.0
C1990 C 0.68668 0.93592 0.87636 0.0
C1991 C 0.688 0.91999 0.85854 0.0
H1992 H 0.42542 0.22024 0.15982 0.0
H1993 H 0.40936 0.20777 0.21806 0.0
H1994 H 0.4748 0.23915 0.22323 0.0
H1995 H 0.53443 0.19765 0.16081 0.0
H1996 H 0.54793 0.23376 0.14351 0.0
H1997 H 0.49846 0.21081 0.1435 0.0
H1998 H 0.46637 0.28152 0.14381 0.0
H1999 H 0.51572 0.30476 0.14394 0.0
H2000 H 0.48005 0.31674 0.16143 0.0
H2001 H 0.53978 0.27583 0.22338 0.0
H2002 H 0.60486 0.30885 0.21819 0.0
H2003 H 0.58943 0.29348 0.16015 0.0
C2004 C 0.43579 0.22368 0.17364 0.0
C2005 C 0.41058 0.21145 0.18846 0.0
C2006 C 0.42645 0.21704 0.20626 0.0
C2007 C 0.46418 0.23502 0.20948 0.0
C2008 C 0.48757 0.2473 0.19486 0.0
C2009 C 0.47461 0.24148 0.17723 0.0
C2010 C 0.50747 0.25718 0.16425 0.0
C2011 C 0.523 0.2228 0.1523 0.0
C2012 C 0.49144 0.29211 0.15266 0.0
C2013 C 0.54043 0.27227 0.1774 0.0
C2014 C 0.52747 0.26659 0.19497 0.0
C2015 C 0.55068 0.27944 0.20967 0.0
C2016 C 0.58834 0.29788 0.20653 0.0
C2017 C 0.60417 0.30291 0.1888 0.0
C2018 C 0.57913 0.29009 0.17395 0.0
H2019 H 0.53459 0.66517 0.45987 0.0
H2020 H 0.56061 0.66032 0.40237 0.0
H2021 H 0.53646 0.7295 0.39893 0.0
H2022 H 0.43702 0.71635 0.45096 0.0
H2023 H 0.43828 0.74487 0.47173 0.0
H2024 H 0.46206 0.69624 0.47065 0.0
H2025 H 0.52904 0.72862 0.48143 0.0
H2026 H 0.50558 0.77742 0.48235 0.0
H2027 H 0.55027 0.77053 0.46896 0.0
H2028 H 0.51791 0.80234 0.40226 0.0
H2029 H 0.48707 0.86706 0.40925 0.0
H2030 H 0.45221 0.82262 0.46229 0.0
C2031 C 0.53523 0.67827 0.44653 0.0
C2032 C 0.55298 0.65711 0.43164 0.0
C2033 C 0.55103 0.67606 0.41439 0.0
C2034 C 0.53647 0.71553 0.41219 0.0
C2035 C 0.52104 0.73582 0.42714 0.0
C2036 C 0.51835 0.71731 0.44383 0.0
C2037 C 0.49538 0.74479 0.45697 0.0
C2038 C 0.45583 0.72435 0.46294 0.0
C2039 C 0.52165 0.75598 0.47341 0.0
C2040 C 0.48706 0.78206 0.44517 0.0
C2041 C 0.50326 0.77602 0.42816 0.0
C2042 C 0.50336 0.80652 0.41521 0.0
C2043 C 0.48495 0.84333 0.41927 0.0
C2044 C 0.46415 0.84981 0.43577 0.0
C2045 C 0.46646 0.81875 0.44924 0.0
H2046 H 0.92446 0.72818 0.71052 0.0
H2047 H 0.90411 0.72057 0.65253 0.0
H2048 H 0.97277 0.74588 0.64712 0.0
H2049 H 0.9775 0.8273 0.70594 0.0
H2050 H 0.01098 0.81831 0.72474 0.0
H2051 H 0.96145 0.7955 0.72445 0.0
H2052 H 0.99323 0.72522 0.72851 0.0
H2053 H 0.04287 0.74776 0.72859 0.0
H2054 H 0.03059 0.70845 0.7126 0.0
H2055 H 0.04714 0.76666 0.64777 0.0
H2056 H 0.11459 0.79493 0.65381 0.0
H2057 H 0.08405 0.80719 0.71067 0.0
C2058 C 0.93403 0.73217 0.69665 0.0
C2059 C 0.90831 0.7198 0.68197 0.0
C2060 C 0.92304 0.7268 0.66416 0.0
C2061 C 0.96228 0.7419 0.66088 0.0
C2062 C 0.98695 0.75251 0.6755 0.0
C2063 C 0.9729 0.74945 0.69305 0.0
C2064 C 1.00455 0.76725 0.70611 0.0
C2065 C 0.98762 0.80429 0.7159 0.0
C2066 C 0.01863 0.73525 0.71977 0.0
C2067 C 0.03885 0.77949 0.6932 0.0
C2068 C 0.02807 0.76981 0.67565 0.0
C2069 C 0.05526 0.77542 0.66142 0.0
C2070 C 0.09383 0.79197 0.66502 0.0
C2071 C 0.1056 0.80469 0.68266 0.0
C2072 C 0.0771 0.79794 0.69697 0.0
H2073 H 0.96529 0.33229 0.96088 0.0
H2074 H 0.97622 0.3579 0.90356 0.0
H2075 H 1.00426 0.29141 0.89836 0.0
H2076 H 0.06402 0.28155 0.96232 0.0
H2077 H 0.05014 0.24356 0.97874 0.0
H2078 H 0.02576 0.29189 0.97891 0.0
H2079 H 0.95626 0.25818 0.97629 0.0
H2080 H 0.97964 0.20929 0.97649 0.0
H2081 H 0.94639 0.22294 0.95819 0.0
H2082 H 0.02758 0.22068 0.89815 0.0
H2083 H 0.05594 0.15384 0.90351 0.0
H2084 H 0.04502 0.17149 0.96152 0.0
C2085 C 0.97333 0.32377 0.94722 0.0
C2086 C 0.96515 0.35053 0.9323 0.0
C2087 C 0.97827 0.33788 0.91496 0.0
C2088 C 0.99531 0.2999 0.9119 0.0
C2089 C 1.00151 0.274 0.92646 0.0
C2090 C 0.99216 0.2855 0.94393 0.0
C2091 C 1.00587 0.25194 0.95705 0.0
C2092 C 0.03842 0.2682 0.97002 0.0
C2093 C 0.96988 0.23457 0.96764 0.0
C2094 C 0.02337 0.22006 0.94411 0.0
C2095 C 0.01979 0.23382 0.92653 0.0
C2096 C 0.03162 0.21014 0.91191 0.0
C2097 C 0.04842 0.17197 0.91515 0.0
C2098 C 0.05498 0.15698 0.93292 0.0
C2099 C 0.04132 0.18159 0.94768 0.0
H2100 H 0.59993 0.78718 0.93793 0.0
H2101 H 0.61417 0.80783 0.88016 0.0
H2102 H 0.54858 0.77537 0.87468 0.0
H2103 H 0.54599 0.69215 0.93535 0.0
H2104 H 0.51092 0.70255 0.95329 0.0
H2105 H 0.56008 0.72616 0.95338 0.0
H2106 H 0.52704 0.79531 0.95546 0.0
H2107 H 0.47732 0.7733 0.95468 0.0
H2108 H 0.49175 0.81111 0.93827 0.0
H2109 H 0.48479 0.73464 0.87464 0.0
H2110 H 0.42088 0.69988 0.8799 0.0
H2111 H 0.43612 0.71508 0.93799 0.0
C2112 C 0.58901 0.78602 0.92416 0.0
C2113 C 0.61346 0.8008 0.90951 0.0
C2114 C 0.59729 0.79692 0.89173 0.0
C2115 C 0.55964 0.77834 0.88842 0.0
C2116 C 0.5368 0.76414 0.90299 0.0
C2117 C 0.55021 0.76854 0.92058 0.0
C2118 C 0.51801 0.75163 0.93364 0.0
C2119 C 0.53476 0.71601 0.94457 0.0
C2120 C 0.50261 0.78486 0.94625 0.0
C2121 C 0.48468 0.73725 0.92059 0.0
C2122 C 0.49716 0.74404 0.90299 0.0
C2123 C 0.47413 0.73069 0.88837 0.0
C2124 C 0.43708 0.71118 0.89161 0.0
C2125 C 0.42101 0.70619 0.90936 0.0
C2126 C 0.44615 0.71893 0.92416 0.0
H2127 H 0.47728 0.34349 0.68478 0.0
H2128 H 0.457 0.35432 0.62686 0.0
H2129 H 0.48962 0.28915 0.62207 0.0
H2130 H 0.57311 0.29174 0.68279 0.0
H2131 H 0.56099 0.25955 0.7017 0.0
H2132 H 0.53826 0.30823 0.69991 0.0
H2133 H 0.46849 0.27213 0.70248 0.0
H2134 H 0.4925 0.22359 0.70339 0.0
H2135 H 0.45511 0.2336 0.68626 0.0
H2136 H 0.52934 0.22408 0.6229 0.0
H2137 H 0.56377 0.16049 0.6295 0.0
H2138 H 0.55083 0.18265 0.68705 0.0
C2139 C 0.47933 0.33211 0.67109 0.0
C2140 C 0.46542 0.35588 0.65617 0.0
C2141 C 0.46871 0.33862 0.63859 0.0
C2142 C 0.48699 0.30096 0.63567 0.0
C2143 C 0.50122 0.27905 0.65048 0.0
C2144 C 0.49667 0.29342 0.6679 0.0
C2145 C 0.51363 0.26264 0.68137 0.0
C2146 C 0.54862 0.28172 0.69206 0.0
C2147 C 0.48044 0.24707 0.69414 0.0
C2148 C 0.52843 0.22888 0.66883 0.0
C2149 C 0.52141 0.23966 0.65103 0.0
C2150 C 0.53408 0.21509 0.63684 0.0
C2151 C 0.55364 0.17848 0.64079 0.0
C2152 C 0.55976 0.16488 0.65887 0.0
C2153 C 0.5469 0.19118 0.67308 0.0
H2154 H 0.08694 0.29901 0.38761 0.0
H2155 H 0.11169 0.30354 0.44527 0.0
H2156 H 0.04443 0.27564 0.45151 0.0
H2157 H 0.97902 0.31744 0.38868 0.0
H2158 H 0.96638 0.2802 0.37177 0.0
H2159 H 0.01509 0.30469 0.37145 0.0
H2160 H 0.04967 0.23513 0.3725 0.0
H2161 H 1.00103 0.21048 0.37275 0.0
H2162 H 0.03715 0.20014 0.39039 0.0
H2163 H 0.9719 0.25139 0.45182 0.0
H2164 H 0.90515 0.22118 0.44654 0.0
H2165 H 0.92938 0.21715 0.38878 0.0
C2166 C 0.07819 0.29447 0.40159 0.0
C2167 C 0.1046 0.30651 0.41602 0.0
C2168 C 0.09179 0.29805 0.43396 0.0
C2169 C 0.05351 0.28127 0.43765 0.0
C2170 C 0.02808 0.27094 0.42327 0.0
C2171 C 0.04024 0.27609 0.40554 0.0
C2172 C 1.00797 0.25893 0.39269 0.0
C2173 C 0.99113 0.29231 0.38042 0.0
C2174 C 0.02497 0.2241 0.38141 0.0
C2175 C 0.97583 0.24369 0.40599 0.0
C2176 C 0.98795 0.25195 0.42353 0.0
C2177 C 0.96269 0.24376 0.43817 0.0
C2178 C 0.92456 0.22615 0.43497 0.0
C2179 C 0.9116 0.21493 0.4173 0.0
C2180 C 0.93804 0.22432 0.40257 0.0
H2181 H 0.04345 0.67279 0.18523 0.0
H2182 H 0.06672 0.66494 0.12751 0.0
H2183 H 0.03389 0.73014 0.12292 0.0
H2184 H 0.94457 0.72129 0.18047 0.0
H2185 H 0.95082 0.75366 0.19989 0.0
H2186 H 0.97599 0.70575 0.19912 0.0
H2187 H 0.04243 0.74269 0.20504 0.0
H2188 H 0.01924 0.79139 0.20471 0.0
H2189 H 0.06036 0.78092 0.18955 0.0
H2190 H 0.99684 0.79637 0.12371 0.0
H2191 H 0.96129 0.85923 0.13 0.0
H2192 H 0.96293 0.83129 0.18749 0.0
C2193 C 0.04221 0.68494 0.17166 0.0
C2194 C 0.0587 0.66262 0.15679 0.0
C2195 C 0.05497 0.68028 0.13928 0.0
C2196 C 0.03613 0.71781 0.13647 0.0
C2197 C 0.02044 0.73874 0.15122 0.0
C2198 C 0.02325 0.72315 0.16855 0.0
C2199 C 1.00299 0.75249 0.18185 0.0
C2200 C 0.96642 0.73208 0.19087 0.0
C2201 C 0.03312 0.76782 0.19612 0.0
C2202 C 0.98952 0.78711 0.16936 0.0
C2203 C 0.99953 0.77789 0.15172 0.0
C2204 C 0.98943 0.80392 0.13756 0.0
C2205 C 0.96919 0.84021 0.14137 0.0
C2206 C 0.95925 0.85195 0.15934 0.0
C2207 C 0.96965 0.82423 0.17355 0.0
H2208 H 0.22039 0.27174 0.19085 0.0
H2209 H 0.28278 0.2546 0.14014 0.0
H2210 H 0.25381 0.31912 0.12881 0.0
H2211 H 0.13124 0.31505 0.17799 0.0
H2212 H 0.13105 0.35226 0.1958 0.0
H2213 H 0.15704 0.30546 0.19904 0.0
H2214 H 0.22828 0.34425 0.20362 0.0
H2215 H 0.19562 0.38722 0.20506 0.0
H2216 H 0.23852 0.38719 0.19001 0.0
H2217 H 0.21872 0.39192 0.12465 0.0
H2218 H 0.18314 0.45706 0.128 0.0
H2219 H 0.14417 0.42217 0.18157 0.0
C2220 C 0.22859 0.28119 0.17742 0.0
C2221 C 0.25437 0.25735 0.16659 0.0
C2222 C 0.26334 0.2718 0.1489 0.0
C2223 C 0.24685 0.30862 0.14234 0.0
C2224 C 0.22159 0.33122 0.15364 0.0
C2225 C 0.21313 0.3178 0.1709 0.0
C2226 C 0.18816 0.34824 0.18118 0.0
C2227 C 0.14957 0.3291 0.18895 0.0
C2228 C 0.21397 0.36824 0.1959 0.0
C2229 C 0.17954 0.37889 0.16671 0.0
C2230 C 0.20063 0.37011 0.15104 0.0
C2231 C 0.20176 0.39805 0.13682 0.0
C2232 C 0.18143 0.4352 0.13885 0.0
C2233 C 0.15944 0.44417 0.15479 0.0
C2234 C 0.15888 0.41547 0.16886 0.0
H2235 H 0.32936 0.44178 0.42491 0.0
H2236 H 0.34498 0.37759 0.37441 0.0
H2237 H 0.41283 0.40936 0.37116 0.0
H2238 H 0.37888 0.53695 0.4072 0.0
H2239 H 0.39725 0.54916 0.42954 0.0
H2240 H 0.35009 0.52239 0.42687 0.0
H2241 H 0.37598 0.46532 0.44767 0.0
H2242 H 0.42213 0.49344 0.44973 0.0
H2243 H 0.42314 0.44136 0.4423 0.0
H2244 H 0.48359 0.44702 0.37553 0.0
H2245 H 0.54466 0.48346 0.38677 0.0
H2246 H 0.47734 0.52558 0.43297 0.0
C2247 C 0.34596 0.43527 0.41275 0.0
C2248 C 0.3309 0.4073 0.39984 0.0
C2249 C 0.35532 0.3989 0.38455 0.0
C2250 C 0.39399 0.41706 0.38255 0.0
C2251 C 0.40746 0.44494 0.39556 0.0
C2252 C 0.38329 0.45458 0.41007 0.0
C2253 C 0.40346 0.48548 0.4222 0.0
C2254 C 0.38108 0.52588 0.42139 0.0
C2255 C 0.40629 0.47016 0.44167 0.0
C2256 C 0.44461 0.48914 0.4135 0.0
C2257 C 0.44629 0.4666 0.39776 0.0
C2258 C 0.48204 0.46498 0.38773 0.0
C2259 C 0.51666 0.48599 0.39415 0.0
C2260 C 0.51574 0.50775 0.41066 0.0
C2261 C 0.47893 0.50955 0.42022 0.0
H2262 H 0.29942 0.75043 0.68897 0.0
H2263 H 0.22263 0.761 0.64181 0.0
H2264 H 0.24719 0.69442 0.63103 0.0
H2265 H 0.38235 0.69955 0.67373 0.0
H2266 H 0.38494 0.66534 0.6927 0.0
H2267 H 0.36255 0.71415 0.69542 0.0
H2268 H 0.28412 0.67967 0.70277 0.0
H2269 H 0.32148 0.64118 0.70736 0.0
H2270 H 0.27834 0.63148 0.69311 0.0
H2271 H 0.28136 0.62185 0.62668 0.0
H2272 H 0.3171 0.55677 0.62964 0.0
H2273 H 0.36498 0.59449 0.6816 0.0
C2274 C 0.28714 0.73911 0.67646 0.0
C2275 C 0.25865 0.76169 0.66646 0.0
C2276 C 0.24455 0.74494 0.64986 0.0
C2277 C 0.25839 0.70688 0.64363 0.0
C2278 C 0.28602 0.68531 0.65423 0.0
C2279 C 0.29951 0.70099 0.67043 0.0
C2280 C 0.32482 0.67064 0.68067 0.0
C2281 C 0.36611 0.68848 0.68594 0.0
C2282 C 0.30123 0.65465 0.69703 0.0
C2283 C 0.32815 0.63726 0.66704 0.0
C2284 C 0.30434 0.6451 0.65203 0.0
C2285 C 0.29998 0.6161 0.63844 0.0
C2286 C 0.32029 0.57896 0.64032 0.0
C2287 C 0.34415 0.57031 0.65588 0.0
C2288 C 0.3475 0.59999 0.66945 0.0
H2289 H 0.04828 0.46872 0.90208 0.0
H2290 H 0.97122 0.5718 0.90988 0.0
H2291 H 0.03098 0.61714 0.90863 0.0
H2292 H 0.12754 0.49704 0.92868 0.0
H2293 H 0.16717 0.48015 0.91416 0.0
H2294 H 0.11811 0.45678 0.9129 0.0
H2295 H 0.11497 0.47234 0.87863 0.0
H2296 H 0.16431 0.49533 0.87994 0.0
H2297 H 0.1227 0.52338 0.87076 0.0
H2298 H 0.10092 0.64815 0.9148 0.0
H2299 H 0.17327 0.66577 0.91839 0.0
H2300 H 0.20533 0.54497 0.90186 0.0
C2301 C 0.04384 0.50103 0.90259 0.0
C2302 C 1.00486 0.51675 0.90577 0.0
C2303 C 1.00041 0.55912 0.90693 0.0
C2304 C 0.0344 0.58508 0.90641 0.0
C2305 C 0.0727 0.56838 0.90432 0.0
C2306 C 0.07741 0.52737 0.90172 0.0
C2307 C 0.12189 0.51681 0.90031 0.0
C2308 C 0.13432 0.48594 0.91488 0.0
C2309 C 0.13154 0.50106 0.88127 0.0
C2310 C 0.14162 0.55782 0.90362 0.0
C2311 C 0.11273 0.58703 0.90626 0.0
C2312 C 0.12364 0.62589 0.91193 0.0
C2313 C 0.16484 0.63555 0.91415 0.0
C2314 C 0.19506 0.60717 0.91001 0.0
C2315 C 0.18305 0.56766 0.90477 0.0
H2316 H 0.82643 0.76056 0.92121 0.0
H2317 H 0.71435 0.74027 0.94997 0.0
H2318 H 0.73629 0.67056 0.95725 0.0
H2319 H 0.83123 0.6655 0.90154 0.0
H2320 H 0.88444 0.6561 0.90349 0.0
H2321 H 0.86736 0.7069 0.90188 0.0
H2322 H 0.89788 0.7318 0.93068 0.0
H2323 H 0.92172 0.68338 0.93273 0.0
H2324 H 0.89199 0.70256 0.95116 0.0
H2325 H 0.76884 0.59891 0.9583 0.0
H2326 H 0.80908 0.53686 0.95459 0.0
H2327 H 0.90209 0.60575 0.92726 0.0
C2328 C 0.8063 0.74174 0.92912 0.0
C2329 C 0.76818 0.75648 0.93489 0.0
C2330 C 0.74352 0.73026 0.94536 0.0
C2331 C 0.75583 0.6904 0.94952 0.0
C2332 C 0.79326 0.67684 0.94334 0.0
C2333 C 0.8183 0.70209 0.93351 0.0
C2334 C 0.85667 0.68016 0.92809 0.0
C2335 C 0.85997 0.67688 0.90747 0.0
C2336 C 0.89429 0.70071 0.93617 0.0
C2337 C 0.84965 0.63875 0.93628 0.0
C2338 C 0.81264 0.63705 0.94485 0.0
C2339 C 0.79801 0.60053 0.95183 0.0
C2340 C 0.82114 0.56527 0.94964 0.0
C2341 C 0.85919 0.56635 0.94089 0.0
C2342 C 0.87374 0.60396 0.93444 0.0
H2343 H 0.66841 0.62317 0.66975 0.0
H2344 H 0.70979 0.56594 0.71905 0.0
H2345 H 0.64458 0.52858 0.72141 0.0
H2346 H 0.56416 0.63729 0.68069 0.0
H2347 H 0.54821 0.62368 0.65812 0.0
H2348 H 0.59706 0.64628 0.66168 0.0
H2349 H 0.6247 0.58741 0.64409 0.0
H2350 H 0.58025 0.55566 0.64442 0.0
H2351 H 0.62547 0.53767 0.65425 0.0
H2352 H 0.57322 0.49244 0.71566 0.0
H2353 H 0.50691 0.46787 0.70403 0.0
H2354 H 0.51376 0.55626 0.66089 0.0
C2355 C 0.66364 0.60331 0.68124 0.0
C2356 C 0.69414 0.59739 0.69415 0.0
C2357 C 0.68667 0.57089 0.70894 0.0
C2358 C 0.64966 0.54964 0.71041 0.0
C2359 C 0.62003 0.55608 0.69726 0.0
C2360 C 0.62678 0.58309 0.68324 0.0
C2361 C 0.59251 0.58286 0.67 0.0
C2362 C 0.57441 0.62504 0.66749 0.0
C2363 C 0.60693 0.56507 0.65208 0.0
C2364 C 0.56355 0.55405 0.67915 0.0
C2365 C 0.58017 0.53727 0.69452 0.0
C2366 C 0.55995 0.5062 0.70378 0.0
C2367 C 0.52222 0.49233 0.69706 0.0
C2368 C 0.50474 0.50985 0.68134 0.0
C2369 C 0.52583 0.54162 0.67271 0.0
H2370 H 0.7927 0.28852 0.44218 0.0
H2371 H 0.68978 0.21578 0.42539 0.0
H2372 H 0.64672 0.27521 0.4266 0.0
H2373 H 0.72746 0.35073 0.4747 0.0
H2374 H 0.75635 0.39635 0.47109 0.0
H2375 H 0.78063 0.34797 0.47003 0.0
H2376 H 0.80584 0.3623 0.43639 0.0
H2377 H 0.78558 0.41173 0.44038 0.0
H2378 H 0.76952 0.38373 0.42095 0.0
H2379 H 0.61961 0.34301 0.42159 0.0
H2380 H 0.60148 0.41511 0.42115 0.0
H2381 H 0.71422 0.4454 0.44782 0.0
C2382 C 0.76075 0.28489 0.43965 0.0
C2383 C 0.74469 0.24733 0.4336 0.0
C2384 C 0.70281 0.24406 0.43006 0.0
C2385 C 0.67805 0.27778 0.43053 0.0
C2386 C 0.69496 0.3147 0.43536 0.0
C2387 C 0.73473 0.31847 0.44079 0.0
C2388 C 0.7436 0.36212 0.44636 0.0
C2389 C 0.75252 0.36443 0.46676 0.0
C2390 C 0.77828 0.3809 0.43536 0.0
C2391 C 0.70365 0.38218 0.44173 0.0
C2392 C 0.67649 0.35404 0.43509 0.0
C2393 C 0.63979 0.36525 0.42748 0.0
C2394 C 0.62993 0.40623 0.42708 0.0
C2395 C 0.65588 0.43549 0.43484 0.0
C2396 C 0.69331 0.42335 0.44229 0.0
H2397 H 0.85735 0.38246 0.17355 0.0
H2398 H 0.79106 0.47691 0.20021 0.0
H2399 H 0.85421 0.51503 0.20558 0.0
H2400 H 0.9452 0.38292 0.20147 0.0
H2401 H 0.98017 0.37714 0.18301 0.0
H2402 H 0.92966 0.35743 0.18098 0.0
H2403 H 0.91463 0.40021 0.15189 0.0
H2404 H 0.96649 0.41389 0.15296 0.0
H2405 H 0.92926 0.45279 0.15184 0.0
H2406 H 0.92518 0.54504 0.20616 0.0
H2407 H 0.99638 0.56467 0.20088 0.0
H2408 H 0.01934 0.44611 0.17903 0.0
C2409 C 0.85623 0.41128 0.18043 0.0
C2410 C 0.81922 0.42666 0.18655 0.0
C2411 C 0.81902 0.46429 0.19562 0.0
C2412 C 0.85486 0.48619 0.19873 0.0
C2413 C 0.89109 0.46977 0.19295 0.0
C2414 C 0.89198 0.43311 0.18404 0.0
C2415 C 0.93448 0.4231 0.17838 0.0
C2416 C 0.94816 0.38274 0.18647 0.0
C2417 C 0.93637 0.4226 0.15756 0.0
C2418 C 0.9579 0.45875 0.18635 0.0
C2419 C 0.93204 0.48598 0.19421 0.0
C2420 C 0.94585 0.52347 0.20046 0.0
C2421 C 0.98659 0.53414 0.19779 0.0
C2422 C 0.01359 0.50695 0.1896 0.0
C2423 C 0.99927 0.46789 0.18491 0.0
H2424 H 0.79714 0.79577 0.66613 0.0
H2425 H 0.69043 0.71941 0.66801 0.0
H2426 H 0.64762 0.7794 0.66681 0.0
H2427 H 0.76817 0.88448 0.69069 0.0
H2428 H 0.78948 0.91767 0.67424 0.0
H2429 H 0.8082 0.86703 0.67636 0.0
H2430 H 0.7933 0.86426 0.64111 0.0
H2431 H 0.76951 0.91291 0.64162 0.0
H2432 H 0.74212 0.86941 0.63339 0.0
H2433 H 0.61552 0.84652 0.66924 0.0
H2434 H 0.59522 0.91752 0.67117 0.0
H2435 H 0.72036 0.95531 0.66687 0.0
C2436 C 0.76478 0.79176 0.66558 0.0
C2437 C 0.74732 0.75228 0.66696 0.0
C2438 C 0.70473 0.74881 0.66664 0.0
C2439 C 0.68001 0.78294 0.66615 0.0
C2440 C 0.69782 0.82119 0.66561 0.0
C2441 C 0.73917 0.8261 0.6647 0.0
C2442 C 0.74939 0.87131 0.66293 0.0
C2443 C 0.78067 0.88576 0.67689 0.0
C2444 C 0.76446 0.88001 0.64362 0.0
C2445 C 0.70807 0.89065 0.6659 0.0
C2446 C 0.67878 0.86079 0.66658 0.0
C2447 C 0.6382 0.87016 0.66863 0.0
C2448 C 0.62694 0.91086 0.66985 0.0
C2449 C 0.65587 0.94266 0.66945 0.0
C2450 C 0.6973 0.93205 0.66755 0.0
H2451 H 0.8581 0.90598 0.89058 0.0
H2452 H 0.81548 0.94764 0.94283 0.0
H2453 H 0.86938 0.9986 0.94339 0.0
H2454 H 0.95789 0.89891 0.9117 0.0
H2455 H 0.98479 0.90664 0.89079 0.0
H2456 H 0.93562 0.88327 0.89052 0.0
H2457 H 0.91108 0.93734 0.86784 0.0
H2458 H 0.96003 0.96141 0.86822 0.0
H2459 H 0.91581 0.99004 0.87363 0.0
H2460 H 0.92858 0.04838 0.93691 0.0
H2461 H 0.99985 0.07007 0.9341 0.0
H2462 H 0.02011 0.97428 0.89548 0.0
C2463 C 0.86014 0.92486 0.90245 0.0
C2464 C 0.82946 0.92433 0.91594 0.0
C2465 C 0.83544 0.94952 0.93131 0.0
C2466 C 0.86691 0.9782 0.93202 0.0
C2467 C 0.89608 0.97806 0.91851 0.0
C2468 C 0.8947 0.94975 0.90483 0.0
C2469 C 0.93511 0.94859 0.89504 0.0
C2470 C 0.95451 0.90688 0.89714 0.0
C2471 C 0.93019 0.96001 0.87498 0.0
C2472 C 0.95895 0.98102 0.90523 0.0
C2473 C 0.93472 0.99949 0.91783 0.0
C2474 C 0.94835 0.03296 0.92764 0.0
C2475 C 0.98887 0.04531 0.92587 0.0
C2476 C 0.01588 0.02325 0.91503 0.0
C2477 C 1.00028 0.99152 0.90406 0.0
H2478 H 0.87827 0.11121 0.14948 0.0
H2479 H 0.79481 0.04554 0.18412 0.0
H2480 H 0.74973 0.10352 0.18425 0.0
H2481 H 0.87083 0.19796 0.17535 0.0
H2482 H 0.87417 0.23567 0.15774 0.0
H2483 H 0.89787 0.18742 0.15492 0.0
H2484 H 0.85976 0.17096 0.12585 0.0
H2485 H 0.83732 0.22026 0.12671 0.0
H2486 H 0.80578 0.17582 0.12502 0.0
H2487 H 0.71032 0.1676 0.17878 0.0
H2488 H 0.69141 0.23972 0.17809 0.0
H2489 H 0.80691 0.27001 0.15428 0.0
C2490 C 0.85024 0.10873 0.15684 0.0
C2491 C 0.8394 0.07232 0.16587 0.0
C2492 C 0.80324 0.07166 0.17615 0.0
C2493 C 0.77717 0.10473 0.17638 0.0
C2494 C 0.78816 0.13953 0.16699 0.0
C2495 C 0.82465 0.14248 0.15808 0.0
C2496 C 0.83224 0.18578 0.15191 0.0
C2497 C 0.87104 0.20281 0.16049 0.0
C2498 C 0.83388 0.18834 0.13113 0.0
C2499 C 0.79477 0.20654 0.1591 0.0
C2500 C 0.7687 0.17871 0.16676 0.0
C2501 C 0.73077 0.18981 0.17307 0.0
C2502 C 0.72007 0.23076 0.17248 0.0
C2503 C 0.74776 0.26031 0.16628 0.0
C2504 C 0.78528 0.24791 0.15918 0.0
H2505 H 0.53267 0.01153 0.43721 0.0
H2506 H 0.49835 0.99458 0.38103 0.0
H2507 H 0.56258 0.02897 0.37191 0.0
H2508 H 0.57181 0.11033 0.43227 0.0
H2509 H 0.61011 0.1032 0.44927 0.0
H2510 H 0.56334 0.07555 0.45073 0.0
H2511 H 0.60199 0.00832 0.45173 0.0
H2512 H 0.64909 0.03551 0.4503 0.0
H2513 H 0.6372 0.99675 0.43398 0.0
H2514 H 0.63525 0.0607 0.37009 0.0
H2515 H 0.70089 0.09441 0.3748 0.0
H2516 H 0.67886 0.09821 0.43271 0.0
C2517 C 0.53831 0.01384 0.42292 0.0
C2518 C 0.51032 0.99919 0.40987 0.0
C2519 C 0.5191 1.00532 0.39133 0.0
C2520 C 0.55558 0.02472 0.3861 0.0
C2521 C 0.58218 0.03865 0.39961 0.0
C2522 C 0.57313 0.03408 0.41766 0.0
C2523 C 0.60452 0.05336 0.42992 0.0
C2524 C 0.58634 0.08765 0.4412 0.0
C2525 C 0.62437 0.02159 0.44219 0.0
C2526 C 0.63368 0.06945 0.41596 0.0
C2527 C 0.62086 0.06001 0.39857 0.0
C2528 C 0.64475 0.06911 0.38362 0.0
C2529 C 0.68206 0.08862 0.38648 0.0
C2530 C 0.69497 0.10023 0.40414 0.0
C2531 C 0.67004 0.09039 0.41901 0.0
H2532 H 0.24187 0.21999 0.40812 0.0
H2533 H 0.29132 0.2851 0.45412 0.0
H2534 H 0.32618 0.22247 0.46384 0.0
H2535 H 0.22733 0.12334 0.42738 0.0
H2536 H 0.24452 0.09652 0.40766 0.0
H2537 H 0.22188 0.14538 0.40516 0.0
H2538 H 0.28478 0.17192 0.38898 0.0
H2539 H 0.30709 0.12295 0.39034 0.0
H2540 H 0.334 0.16686 0.39874 0.0
H2541 H 0.35325 0.14971 0.46864 0.0
H2542 H 0.37695 0.08024 0.46592 0.0
H2543 H 0.31842 0.06776 0.41398 0.0
C2544 C 0.26005 0.22169 0.4202 0.0
C2545 C 0.26358 0.258 0.43032 0.0
C2546 C 0.28785 0.2579 0.44613 0.0
C2547 C 0.30769 0.22236 0.45175 0.0
C2548 C 0.30353 0.18733 0.44124 0.0
C2549 C 0.28085 0.1872 0.42561 0.0
C2550 C 0.28353 0.14704 0.41579 0.0
C2551 C 0.24183 0.12687 0.4139 0.0
C2552 C 0.30378 0.15239 0.39735 0.0
C2553 C 0.3105 0.12386 0.42842 0.0
C2554 C 0.32146 0.14739 0.44315 0.0
C2555 C 0.34573 0.13194 0.45679 0.0
C2556 C 0.36008 0.0924 0.45495 0.0
C2557 C 0.35221 0.0688 0.43929 0.0
C2558 C 0.32599 0.08478 0.42604 0.0
H2559 H 0.04171 0.99275 0.1617 0.0
H2560 H 0.98484 0.00978 0.21388 0.0
H2561 H 0.04837 0.041 0.22545 0.0
H2562 H 0.14443 0.97416 0.17732 0.0
H2563 H 0.16626 1.00247 0.15887 0.0
H2564 H 0.11872 0.97662 0.1558 0.0
H2565 H 0.08525 0.04294 0.14672 0.0
H2566 H 0.13285 0.06855 0.14834 0.0
H2567 H 0.08964 0.08733 0.16049 0.0
H2568 H 0.12138 0.0721 0.23062 0.0
H2569 H 0.1877 0.1062 0.22765 0.0
H2570 H 0.18819 0.07819 0.17029 0.0
C2571 C 0.04224 1.00265 0.17563 0.0
C2572 C 1.00771 0.99866 0.18681 0.0
C2573 C 0.01057 0.01236 0.20497 0.0
C2574 C 0.04675 0.02998 0.21167 0.0
C2575 C 0.07988 0.03403 0.20005 0.0
C2576 C 0.07749 0.02091 0.18235 0.0
C2577 C 0.11521 0.03206 0.17187 0.0
C2578 C 0.13746 0.99406 0.1656 0.0
C2579 C 0.10528 0.05965 0.15591 0.0
C2580 C 0.13896 0.05466 0.18606 0.0
C2581 C 0.11911 0.05438 0.20249 0.0
C2582 C 0.1365 0.07277 0.21766 0.0
C2583 C 0.17427 0.0924 0.21577 0.0
C2584 C 0.19354 0.09569 0.19861 0.0
C2585 C 0.17517 0.07621 0.18367 0.0
H2586 H 0.21808 0.94278 0.92112 0.0
H2587 H 0.12647 0.91236 0.96076 0.0
H2588 H 0.15592 0.84511 0.96452 0.0
H2589 H 0.226 0.85424 0.9001 0.0
H2590 H 0.28073 0.85554 0.89815 0.0
H2591 H 0.25339 0.90147 0.90002 0.0
H2592 H 0.29801 0.91901 0.92761 0.0
H2593 H 0.32404 0.87173 0.9255 0.0
H2594 H 0.30009 0.8847 0.94656 0.0
H2595 H 0.19285 0.77793 0.96217 0.0
H2596 H 0.23116 0.71769 0.95272 0.0
H2597 H 0.29944 0.79148 0.91507 0.0
C2598 C 0.2046 0.9225 0.93089 0.0
C2599 C 0.16935 0.93345 0.94035 0.0
C2600 C 0.15292 0.90515 0.95293 0.0
C2601 C 0.16983 0.8667 0.9554 0.0
C2602 C 0.20438 0.8569 0.94577 0.0
C2603 C 0.22212 0.88447 0.93413 0.0
C2604 C 0.25836 0.86609 0.92499 0.0
C2605 C 0.25426 0.86947 0.9045 0.0
C2606 C 0.29744 0.88661 0.93157 0.0
C2607 C 0.25573 0.82248 0.93164 0.0
C2608 C 0.22547 0.81837 0.94434 0.0
C2609 C 0.2169 0.78101 0.95239 0.0
C2610 C 0.23898 0.74689 0.94703 0.0
C2611 C 0.26887 0.74986 0.93346 0.0
C2612 C 0.27744 0.78838 0.92579 0.0
H2613 H 0.3471 0.90703 0.66847 0.0
H2614 H 0.31273 0.93175 0.72392 0.0
H2615 H 0.37631 0.96932 0.72876 0.0
H2616 H 0.44625 0.8856 0.67931 0.0
H2617 H 0.47066 0.90801 0.66016 0.0
H2618 H 0.42026 0.888 0.65786 0.0
H2619 H 0.38763 0.95357 0.64767 0.0
H2620 H 0.4367 0.97623 0.64643 0.0
H2621 H 0.39837 0.99983 0.65964 0.0
H2622 H 0.44592 0.00964 0.72627 0.0
H2623 H 0.5119 0.04041 0.71695 0.0
H2624 H 0.50377 0.97431 0.66679 0.0
C2625 C 0.35268 0.92057 0.68159 0.0
C2626 C 0.32402 0.91735 0.69554 0.0
C2627 C 0.33341 0.9347 0.7127 0.0
C2628 C 0.36976 0.95604 0.71568 0.0
C2629 C 0.39732 0.95897 0.70154 0.0
C2630 C 0.38927 0.9408 0.685 0.0
C2631 C 0.42417 0.94582 0.67225 0.0
C2632 C 0.44128 0.90445 0.66705 0.0
C2633 C 0.411 0.97027 0.65552 0.0
C2634 C 0.45322 0.9696 0.68408 0.0
C2635 C 0.43733 0.97814 0.70081 0.0
C2636 C 0.45863 1.0027 0.71318 0.0
C2637 C 0.49629 0.01983 0.7079 0.0
C2638 C 0.51247 0.01137 0.6906 0.0
C2639 C 0.49121 0.98399 0.67934 0.0
loop_
_geom_bond_atom_site_label_1
_geom_bond_atom_site_label_2
_geom_bond_distance
_geom_bond_site_symmetry_2
_ccdc_geom_bond_type
Tb0 N29 2.617 . S
Tb0 N35 2.572 . S
Tb0 O44 2.465 . S
Tb0 O45 2.387 . S
Tb0 O47 2.428 . S
Tb0 O48 2.308 . S
Tb0 O52 2.349 . S
Tb0 O55 2.393 . S
Tb0 C64 2.802 . S
C1 N2 1.379 . S
C1 C4 1.416 . S
C1 C8 1.424 . S
N2 C1 1.379 . S
N2 C5 1.334 . S
N2 Tb11 2.617 . S
C3 C5 1.390 . S
C3 C6 1.339 . S
C3 H23 0.930 . S
C4 C1 1.416 . S
C4 C6 1.416 . S
C4 C10 1.448 1_545 S
C5 N2 1.334 . S
C5 C3 1.390 . S
C5 H16 0.930 . S
C6 C3 1.339 . S
C6 C4 1.416 . S
C6 H27 0.930 . S
C7 C8 1.413 1_565 S
C7 C9 1.427 . S
C7 C13 1.416 . S
C8 C1 1.424 . S
C8 C7 1.413 1_545 S
C8 N12 1.361 . S
C9 C7 1.427 . S
C9 C10 1.328 . S
C9 H24 0.929 . S
C10 C4 1.448 1_565 S
C10 C9 1.328 . S
C10 H25 0.930 . S
Tb11 N2 2.617 . S
Tb11 N12 2.572 . S
Tb11 O46 2.349 . S
Tb11 O49 2.393 . S
Tb11 O50 2.465 . S
Tb11 O51 2.387 . S
Tb11 O53 2.428 . S
Tb11 O54 2.308 . S
Tb11 C75 2.802 . S
N12 C8 1.361 . S
N12 Tb11 2.572 . S
N12 C14 1.340 . S
C13 C7 1.416 . S
C13 C15 1.332 . S
C13 H21 0.931 . S
C14 N12 1.340 . S
C14 C15 1.407 1_545 S
C14 H20 0.930 . S
C15 C13 1.332 . S
C15 C14 1.407 1_565 S
C15 H17 0.929 . S
H16 C5 0.930 . S
H17 C15 0.929 . S
H18 C33 0.930 . S
H19 C40 0.929 . S
H20 C14 0.930 . S
H21 C13 0.931 . S
H22 C36 0.930 . S
H23 C3 0.930 . S
H24 C9 0.929 . S
H25 C10 0.930 . S
H26 C31 0.930 . S
H27 C6 0.930 . S
H28 C39 0.931 . S
N29 Tb0 2.617 . S
N29 C30 1.379 . S
N29 C33 1.334 . S
C30 N29 1.379 . S
C30 C32 1.416 . S
C30 C38 1.424 . S
C31 H26 0.930 . S
C31 C33 1.390 . S
C31 C34 1.339 . S
C32 C30 1.416 . S
C32 C34 1.416 . S
C32 C65 1.448 . S
C33 H18 0.930 . S
C33 N29 1.334 . S
C33 C31 1.390 . S
C34 C31 1.339 . S
C34 C32 1.416 . S
C34 H41 0.930 . S
N35 Tb0 2.572 . S
N35 C36 1.340 . S
N35 C38 1.361 . S
C36 H22 0.930 . S
C36 N35 1.340 . S
C36 C40 1.407 . S
C37 C38 1.413 . S
C37 C39 1.416 . S
C37 C66 1.427 . S
C38 C30 1.424 . S
C38 N35 1.361 . S
C38 C37 1.413 . S
C39 H28 0.931 . S
C39 C37 1.416 . S
C39 C40 1.332 . S
C40 H19 0.929 . S
C40 C36 1.407 . S
C40 C39 1.332 . S
H41 C34 0.930 . S
H42 C65 0.930 . S
H43 C66 0.929 . S
O44 Tb0 2.465 . S
O44 C64 1.264 . S
O45 Tb0 2.387 . S
O45 C56 1.264 . S
O46 Tb11 2.349 . S
O46 C56 1.243 . S
O47 Tb0 2.428 . S
O47 C64 1.256 . S
O48 Tb0 2.308 . S
O48 C63 1.266 . S
O49 Tb11 2.393 . S
O49 C63 1.248 . S
O50 Tb11 2.465 . S
O50 C75 1.264 . S
O51 Tb11 2.387 . S
O51 C67 1.264 . S
O52 Tb0 2.349 . S
O52 C67 1.243 . S
O53 Tb11 2.428 . S
O53 C75 1.256 . S
O54 Tb11 2.308 . S
O54 C74 1.266 . S
O55 Tb0 2.393 . S
O55 C74 1.248 . S
C56 O45 1.264 . S
C56 O46 1.243 . S
C57 C60 1.399 . S
C57 C62 1.383 . S
C57 C64 1.496 . S
C58 C59 1.399 . S
C58 C62 1.389 . S
C59 C58 1.399 . S
C59 C61 1.380 . S
C59 H76 0.929 . S
C60 C57 1.399 . S
C60 C61 1.392 . S
C60 H77 0.929 . S
C61 C59 1.380 . S
C61 C60 1.392 . S
C61 H78 0.929 . S
C62 C57 1.383 . S
C62 C58 1.389 . S
C62 H79 0.931 . S
C63 O48 1.266 . S
C63 O49 1.248 . S
C64 Tb0 2.802 . S
C64 O44 1.264 . S
C64 O47 1.256 . S
C64 C57 1.496 . S
C65 C32 1.448 . S
C65 H42 0.930 . S
C65 C66 1.328 . S
C66 C37 1.427 . S
C66 H43 0.929 . S
C66 C65 1.328 . S
C67 O51 1.264 . S
C67 O52 1.243 . S
C68 C71 1.399 . S
C68 C72 1.383 . S
C68 C75 1.496 . S
C69 C70 1.399 . S
C69 C72 1.389 . S
C70 C69 1.399 . S
C70 C73 1.380 . S
C70 H80 0.929 . S
C71 C68 1.399 . S
C71 C73 1.392 . S
C71 H81 0.929 . S
C72 C68 1.383 . S
C72 C69 1.389 . S
C72 H82 0.931 . S
C73 C70 1.380 . S
C73 C71 1.392 . S
C73 H83 0.929 . S
C74 O54 1.266 . S
C74 O55 1.248 . S
C75 Tb11 2.802 . S
C75 O50 1.264 . S
C75 O53 1.256 . S
C75 C68 1.496 . S
H76 C59 0.929 . S
H77 C60 0.929 . S
H78 C61 0.929 . S
H79 C62 0.931 . S
H80 C70 0.929 . S
H81 C71 0.929 . S
H82 C72 0.931 . S
H83 C73 0.929 . S
Tb84 N113 2.617 . S
Tb84 N119 2.572 . S
Tb84 O128 2.465 . S
Tb84 O129 2.387 . S
Tb84 O131 2.428 . S
Tb84 O132 2.308 . S
Tb84 O136 2.349 . S
Tb84 O139 2.393 . S
Tb84 C148 2.802 . S
C85 N86 1.379 . S
C85 C88 1.416 . S
C85 C92 1.424 . S
N86 C85 1.379 . S
N86 C89 1.334 . S
N86 Tb95 2.617 . S
C87 C89 1.390 . S
C87 C90 1.339 . S
C87 H107 0.930 . S
C88 C85 1.416 . S
C88 C90 1.416 . S
C88 C94 1.448 . S
C89 N86 1.334 . S
C89 C87 1.390 . S
C89 H100 0.930 . S
C90 C87 1.339 . S
C90 C88 1.416 . S
C90 H111 0.930 . S
C91 C92 1.413 . S
C91 C93 1.427 . S
C91 C97 1.416 . S
C92 C85 1.424 . S
C92 C91 1.413 . S
C92 N96 1.361 . S
C93 C91 1.427 . S
C93 C94 1.328 . S
C93 H108 0.929 . S
C94 C88 1.448 . S
C94 C93 1.328 . S
C94 H109 0.930 . S
Tb95 N86 2.617 . S
Tb95 N96 2.572 . S
Tb95 O130 2.349 . S
Tb95 O133 2.393 . S
Tb95 O134 2.465 . S
Tb95 O135 2.387 . S
Tb95 O137 2.428 . S
Tb95 O138 2.308 . S
Tb95 C159 2.802 . S
N96 C92 1.361 . S
N96 Tb95 2.572 . S
N96 C98 1.340 . S
C97 C91 1.416 . S
C97 C99 1.332 . S
C97 H105 0.931 . S
C98 N96 1.340 . S
C98 C99 1.407 . S
C98 H104 0.930 . S
C99 C97 1.332 . S
C99 C98 1.407 . S
C99 H101 0.929 . S
H100 C89 0.930 . S
H101 C99 0.929 . S
H102 C117 0.930 . S
H103 C124 0.929 . S
H104 C98 0.930 . S
H105 C97 0.931 . S
H106 C120 0.930 . S
H107 C87 0.930 . S
H108 C93 0.929 . S
H109 C94 0.930 . S
H110 C115 0.930 . S
H111 C90 0.930 . S
H112 C123 0.931 . S
N113 Tb84 2.617 . S
N113 C114 1.379 . S
N113 C117 1.334 . S
C114 N113 1.379 . S
C114 C116 1.416 . S
C114 C122 1.424 . S
C115 H110 0.930 . S
C115 C117 1.390 . S
C115 C118 1.339 . S
C116 C114 1.416 . S
C116 C118 1.416 . S
C116 C149 1.448 . S
C117 H102 0.930 . S
C117 N113 1.334 . S
C117 C115 1.390 . S
C118 C115 1.339 . S
C118 C116 1.416 . S
C118 H125 0.930 . S
N119 Tb84 2.572 . S
N119 C120 1.340 . S
N119 C122 1.361 . S
C120 H106 0.930 . S
C120 N119 1.340 . S
C120 C124 1.407 . S
C121 C122 1.413 . S
C121 C123 1.416 . S
C121 C150 1.427 . S
C122 C114 1.424 . S
C122 N119 1.361 . S
C122 C121 1.413 . S
C123 H112 0.931 . S
C123 C121 1.416 . S
C123 C124 1.332 . S
C124 H103 0.929 . S
C124 C120 1.407 . S
C124 C123 1.332 . S
H125 C118 0.930 . S
H126 C149 0.930 . S
H127 C150 0.929 . S
O128 Tb84 2.465 . S
O128 C148 1.264 . S
O129 Tb84 2.387 . S
O129 C140 1.264 . S
O130 Tb95 2.349 . S
O130 C140 1.243 . S
O131 Tb84 2.428 . S
O131 C148 1.256 . S
O132 Tb84 2.308 . S
O132 C147 1.266 . S
O133 Tb95 2.393 . S
O133 C147 1.248 . S
O134 Tb95 2.465 . S
O134 C159 1.264 . S
O135 Tb95 2.387 . S
O135 C151 1.264 . S
O136 Tb84 2.349 . S
O136 C151 1.243 . S
O137 Tb95 2.428 . S
O137 C159 1.256 . S
O138 Tb95 2.308 . S
O138 C158 1.266 . S
O139 Tb84 2.393 . S
O139 C158 1.248 . S
C140 O129 1.264 . S
C140 O130 1.243 . S
C141 C144 1.399 . S
C141 C146 1.383 . S
C141 C148 1.496 . S
C142 C143 1.399 . S
C142 C146 1.389 . S
C143 C142 1.399 . S
C143 C145 1.380 . S
C143 H160 0.929 . S
C144 C141 1.399 . S
C144 C145 1.392 . S
C144 H161 0.929 . S
C145 C143 1.380 . S
C145 C144 1.392 . S
C145 H162 0.929 . S
C146 C141 1.383 . S
C146 C142 1.389 . S
C146 H163 0.931 . S
C147 O132 1.266 . S
C147 O133 1.248 . S
C148 Tb84 2.802 . S
C148 O128 1.264 . S
C148 O131 1.256 . S
C148 C141 1.496 . S
C149 C116 1.448 . S
C149 H126 0.930 . S
C149 C150 1.328 . S
C150 C121 1.427 . S
C150 H127 0.929 . S
C150 C149 1.328 . S
C151 O135 1.264 . S
C151 O136 1.243 . S
C152 C155 1.399 . S
C152 C156 1.383 . S
C152 C159 1.496 . S
C153 C154 1.399 . S
C153 C156 1.389 . S
C154 C153 1.399 . S
C154 C157 1.380 . S
C154 H164 0.929 . S
C155 C152 1.399 . S
C155 C157 1.392 . S
C155 H165 0.929 . S
C156 C152 1.383 . S
C156 C153 1.389 . S
C156 H166 0.931 . S
C157 C154 1.380 . S
C157 C155 1.392 . S
C157 H167 0.929 . S
C158 O138 1.266 . S
C158 O139 1.248 . S
C159 Tb95 2.802 . S
C159 O134 1.264 . S
C159 O137 1.256 . S
C159 C152 1.496 . S
H160 C143 0.929 . S
H161 C144 0.929 . S
H162 C145 0.929 . S
H163 C146 0.931 . S
H164 C154 0.929 . S
H165 C155 0.929 . S
H166 C156 0.931 . S
H167 C157 0.929 . S
Tb168 N197 2.617 . S
Tb168 N203 2.572 . S
Tb168 O212 2.465 . S
Tb168 O213 2.387 . S
Tb168 O215 2.428 . S
Tb168 O216 2.308 . S
Tb168 O220 2.349 . S
Tb168 O223 2.393 . S
Tb168 C232 2.802 . S
C169 N170 1.379 . S
C169 C172 1.416 . S
C169 C176 1.424 . S
N170 C169 1.379 . S
N170 C173 1.334 . S
N170 Tb179 2.617 . S
C171 C173 1.390 . S
C171 C174 1.339 . S
C171 H191 0.930 . S
C172 C169 1.416 . S
C172 C174 1.416 . S
C172 C178 1.448 1_565 S
C173 N170 1.334 . S
C173 C171 1.390 . S
C173 H184 0.930 . S
C174 C171 1.339 . S
C174 C172 1.416 . S
C174 H195 0.930 . S
C175 C176 1.413 1_545 S
C175 C177 1.427 . S
C175 C181 1.416 . S
C176 C169 1.424 . S
C176 C175 1.413 1_565 S
C176 N180 1.361 . S
C177 C175 1.427 . S
C177 C178 1.328 . S
C177 H192 0.929 . S
C178 C172 1.448 1_545 S
C178 C177 1.328 . S
C178 H193 0.930 . S
Tb179 N170 2.617 . S
Tb179 N180 2.572 . S
Tb179 O214 2.349 . S
Tb179 O217 2.393 . S
Tb179 O218 2.465 . S
Tb179 O219 2.387 . S
Tb179 O221 2.428 . S
Tb179 O222 2.308 . S
Tb179 C243 2.802 . S
N180 C176 1.361 . S
N180 Tb179 2.572 . S
N180 C182 1.340 . S
C181 C175 1.416 . S
C181 C183 1.332 . S
C181 H189 0.931 . S
C182 N180 1.340 . S
C182 C183 1.407 1_565 S
C182 H188 0.930 . S
C183 C181 1.332 . S
C183 C182 1.407 1_545 S
C183 H185 0.929 . S
H184 C173 0.930 . S
H185 C183 0.929 . S
H186 C201 0.930 . S
H187 C208 0.929 . S
H188 C182 0.930 . S
H189 C181 0.931 . S
H190 C204 0.930 . S
H191 C171 0.930 . S
H192 C177 0.929 . S
H193 C178 0.930 . S
H194 C199 0.930 . S
H195 C174 0.930 . S
H196 C207 0.931 . S
N197 Tb168 2.617 . S
N197 C198 1.379 . S
N197 C201 1.334 . S
C198 N197 1.379 . S
C198 C200 1.416 . S
C198 C206 1.424 . S
C199 H194 0.930 . S
C199 C201 1.390 . S
C199 C202 1.339 . S
C200 C198 1.416 . S
C200 C202 1.416 . S
C200 C233 1.448 . S
C201 H186 0.930 . S
C201 N197 1.334 . S
C201 C199 1.390 . S
C202 C199 1.339 . S
C202 C200 1.416 . S
C202 H209 0.930 . S
N203 Tb168 2.572 . S
N203 C204 1.340 . S
N203 C206 1.361 . S
C204 H190 0.930 . S
C204 N203 1.340 . S
C204 C208 1.407 . S
C205 C206 1.413 . S
C205 C207 1.416 . S
C205 C234 1.427 . S
C206 C198 1.424 . S
C206 N203 1.361 . S
C206 C205 1.413 . S
C207 H196 0.931 . S
C207 C205 1.416 . S
C207 C208 1.332 . S
C208 H187 0.929 . S
C208 C204 1.407 . S
C208 C207 1.332 . S
H209 C202 0.930 . S
H210 C233 0.930 . S
H211 C234 0.929 . S
O212 Tb168 2.465 . S
O212 C232 1.264 . S
O213 Tb168 2.387 . S
O213 C224 1.264 . S
O214 Tb179 2.349 . S
O214 C224 1.243 . S
O215 Tb168 2.428 . S
O215 C232 1.256 . S
O216 Tb168 2.308 . S
O216 C231 1.266 . S
O217 Tb179 2.393 . S
O217 C231 1.248 . S
O218 Tb179 2.465 . S
O218 C243 1.264 . S
O219 Tb179 2.387 . S
O219 C235 1.264 . S
O220 Tb168 2.349 . S
O220 C235 1.243 . S
O221 Tb179 2.428 . S
O221 C243 1.256 . S
O222 Tb179 2.308 . S
O222 C242 1.266 . S
O223 Tb168 2.393 . S
O223 C242 1.248 . S
C224 O213 1.264 . S
C224 O214 1.243 . S
C225 C228 1.399 . S
C225 C230 1.383 . S
C225 C232 1.496 . S
C226 C227 1.399 . S
C226 C230 1.389 . S
C227 C226 1.399 . S
C227 C229 1.380 . S
C227 H244 0.929 . S
C228 C225 1.399 . S
C228 C229 1.392 . S
C228 H245 0.929 . S
C229 C227 1.380 . S
C229 C228 1.392 . S
C229 H246 0.929 . S
C230 C225 1.383 . S
C230 C226 1.389 . S
C230 H247 0.931 . S
C231 O216 1.266 . S
C231 O217 1.248 . S
C232 Tb168 2.802 . S
C232 O212 1.264 . S
C232 O215 1.256 . S
C232 C225 1.496 . S
C233 C200 1.448 . S
C233 H210 0.930 . S
C233 C234 1.328 . S
C234 C205 1.427 . S
C234 H211 0.929 . S
C234 C233 1.328 . S
C235 O219 1.264 . S
C235 O220 1.243 . S
C236 C239 1.399 . S
C236 C240 1.383 . S
C236 C243 1.496 . S
C237 C238 1.399 . S
C237 C240 1.389 . S
C238 C237 1.399 . S
C238 C241 1.380 . S
C238 H248 0.929 . S
C239 C236 1.399 . S
C239 C241 1.392 . S
C239 H249 0.929 . S
C240 C236 1.383 . S
C240 C237 1.389 . S
C240 H250 0.931 . S
C241 C238 1.380 . S
C241 C239 1.392 . S
C241 H251 0.929 . S
C242 O222 1.266 . S
C242 O223 1.248 . S
C243 Tb179 2.802 . S
C243 O218 1.264 . S
C243 O221 1.256 . S
C243 C236 1.496 . S
H244 C227 0.929 . S
H245 C228 0.929 . S
H246 C229 0.929 . S
H247 C230 0.931 . S
H248 C238 0.929 . S
H249 C239 0.929 . S
H250 C240 0.931 . S
H251 C241 0.929 . S
Tb252 N281 2.617 . S
Tb252 N287 2.572 . S
Tb252 O296 2.465 . S
Tb252 O297 2.387 . S
Tb252 O299 2.428 . S
Tb252 O300 2.308 . S
Tb252 O304 2.349 . S
Tb252 O307 2.393 . S
Tb252 C316 2.802 . S
C253 N254 1.379 . S
C253 C256 1.416 . S
C253 C260 1.424 . S
N254 C253 1.379 . S
N254 C257 1.334 . S
N254 Tb263 2.617 . S
C255 C257 1.390 1_455 S
C255 C258 1.339 1_455 S
C255 H275 0.930 . S
C256 C253 1.416 . S
C256 C258 1.416 . S
C256 C262 1.448 . S
C257 N254 1.334 . S
C257 C255 1.390 1_655 S
C257 H268 0.930 1_655 S
C258 C255 1.339 1_655 S
C258 C256 1.416 . S
C258 H279 0.930 1_655 S
C259 C260 1.413 . S
C259 C261 1.427 . S
C259 C265 1.416 . S
C260 C253 1.424 . S
C260 C259 1.413 . S
C260 N264 1.361 . S
C261 C259 1.427 . S
C261 C262 1.328 . S
C261 H276 0.929 . S
C262 C256 1.448 . S
C262 C261 1.328 . S
C262 H277 0.930 . S
Tb263 N254 2.617 . S
Tb263 N264 2.572 . S
Tb263 O298 2.349 . S
Tb263 O301 2.393 . S
Tb263 O302 2.465 . S
Tb263 O303 2.387 . S
Tb263 O305 2.428 . S
Tb263 O306 2.308 . S
Tb263 C327 2.802 . S
N264 C260 1.361 . S
N264 Tb263 2.572 . S
N264 C266 1.340 . S
C265 C259 1.416 . S
C265 C267 1.332 . S
C265 H273 0.931 . S
C266 N264 1.340 . S
C266 C267 1.407 . S
C266 H272 0.930 . S
C267 C265 1.332 . S
C267 C266 1.407 . S
C267 H269 0.929 . S
H268 C257 0.930 1_455 S
H269 C267 0.929 . S
H270 C285 0.930 . S
H271 C292 0.929 . S
H272 C266 0.930 . S
H273 C265 0.931 . S
H274 C288 0.930 . S
H275 C255 0.930 . S
H276 C261 0.929 . S
H277 C262 0.930 . S
H278 C283 0.930 . S
H279 C258 0.930 1_455 S
H280 C291 0.931 . S
N281 Tb252 2.617 . S
N281 C282 1.379 . S
N281 C285 1.334 . S
C282 N281 1.379 . S
C282 C284 1.416 . S
C282 C290 1.424 . S
C283 H278 0.930 . S
C283 C285 1.390 . S
C283 C286 1.339 . S
C284 C282 1.416 . S
C284 C286 1.416 . S
C284 C317 1.448 . S
C285 H270 0.930 . S
C285 N281 1.334 . S
C285 C283 1.390 . S
C286 C283 1.339 . S
C286 C284 1.416 . S
C286 H293 0.930 . S
N287 Tb252 2.572 . S
N287 C288 1.340 . S
N287 C290 1.361 . S
C288 H274 0.930 . S
C288 N287 1.340 . S
C288 C292 1.407 . S
C289 C290 1.413 . S
C289 C291 1.416 . S
C289 C318 1.427 . S
C290 C282 1.424 . S
C290 N287 1.361 . S
C290 C289 1.413 . S
C291 H280 0.931 . S
C291 C289 1.416 . S
C291 C292 1.332 . S
C292 H271 0.929 . S
C292 C288 1.407 . S
C292 C291 1.332 . S
H293 C286 0.930 . S
H294 C317 0.930 . S
H295 C318 0.929 . S
O296 Tb252 2.465 . S
O296 C316 1.264 . S
O297 Tb252 2.387 . S
O297 C308 1.264 . S
O298 Tb263 2.349 . S
O298 C308 1.243 . S
O299 Tb252 2.428 . S
O299 C316 1.256 . S
O300 Tb252 2.308 . S
O300 C315 1.266 . S
O301 Tb263 2.393 . S
O301 C315 1.248 . S
O302 Tb263 2.465 . S
O302 C327 1.264 . S
O303 Tb263 2.387 . S
O303 C319 1.264 . S
O304 Tb252 2.349 . S
O304 C319 1.243 . S
O305 Tb263 2.428 . S
O305 C327 1.256 . S
O306 Tb263 2.308 . S
O306 C326 1.266 . S
O307 Tb252 2.393 . S
O307 C326 1.248 . S
C308 O297 1.264 . S
C308 O298 1.243 . S
C309 C312 1.399 . S
C309 C314 1.383 . S
C309 C316 1.496 . S
C310 C311 1.399 . S
C310 C314 1.389 . S
C311 C310 1.399 . S
C311 C313 1.380 . S
C311 H328 0.929 . S
C312 C309 1.399 . S
C312 C313 1.392 . S
C312 H329 0.929 . S
C313 C311 1.380 . S
C313 C312 1.392 . S
C313 H330 0.929 . S
C314 C309 1.383 . S
C314 C310 1.389 . S
C314 H331 0.931 . S
C315 O300 1.266 . S
C315 O301 1.248 . S
C316 Tb252 2.802 . S
C316 O296 1.264 . S
C316 O299 1.256 . S
C316 C309 1.496 . S
C317 C284 1.448 . S
C317 H294 0.930 . S
C317 C318 1.328 . S
C318 C289 1.427 . S
C318 H295 0.929 . S
C318 C317 1.328 . S
C319 O303 1.264 . S
C319 O304 1.243 . S
C320 C323 1.399 1_655 S
C320 C324 1.383 . S
C320 C327 1.496 . S
C321 C322 1.399 1_655 S
C321 C324 1.389 . S
C322 C321 1.399 1_455 S
C322 C325 1.380 . S
C322 H332 0.929 . S
C323 C320 1.399 1_455 S
C323 C325 1.392 . S
C323 H333 0.929 . S
C324 C320 1.383 . S
C324 C321 1.389 . S
C324 H334 0.931 . S
C325 C322 1.380 . S
C325 C323 1.392 . S
C325 H335 0.929 . S
C326 O306 1.266 . S
C326 O307 1.248 . S
C327 Tb263 2.802 . S
C327 O302 1.264 . S
C327 O305 1.256 . S
C327 C320 1.496 . S
H328 C311 0.929 . S
H329 C312 0.929 . S
H330 C313 0.929 . S
H331 C314 0.931 . S
H332 C322 0.929 . S
H333 C323 0.929 . S
H334 C324 0.931 . S
H335 C325 0.929 . S
Tb336 N365 2.617 . S
Tb336 N371 2.572 . S
Tb336 O380 2.465 . S
Tb336 O381 2.387 . S
Tb336 O383 2.428 . S
Tb336 O384 2.308 . S
Tb336 O388 2.349 . S
Tb336 O391 2.393 . S
Tb336 C400 2.802 . S
C337 N338 1.379 . S
C337 C340 1.416 . S
C337 C344 1.424 . S
N338 C337 1.379 . S
N338 C341 1.334 . S
N338 Tb347 2.617 . S
C339 C341 1.390 . S
C339 C342 1.339 . S
C339 H359 0.930 . S
C340 C337 1.416 . S
C340 C342 1.416 . S
C340 C346 1.448 . S
C341 N338 1.334 . S
C341 C339 1.390 . S
C341 H352 0.930 . S
C342 C339 1.339 . S
C342 C340 1.416 . S
C342 H363 0.930 . S
C343 C344 1.413 . S
C343 C345 1.427 . S
C343 C349 1.416 . S
C344 C337 1.424 . S
C344 C343 1.413 . S
C344 N348 1.361 . S
C345 C343 1.427 . S
C345 C346 1.328 . S
C345 H360 0.929 . S
C346 C340 1.448 . S
C346 C345 1.328 . S
C346 H361 0.930 . S
Tb347 N338 2.617 . S
Tb347 N348 2.572 . S
Tb347 O382 2.349 . S
Tb347 O385 2.393 . S
Tb347 O386 2.465 . S
Tb347 O387 2.387 . S
Tb347 O389 2.428 . S
Tb347 O390 2.308 . S
Tb347 C411 2.802 . S
N348 C344 1.361 . S
N348 Tb347 2.572 . S
N348 C350 1.340 . S
C349 C343 1.416 . S
C349 C351 1.332 . S
C349 H357 0.931 . S
C350 N348 1.340 . S
C350 C351 1.407 . S
C350 H356 0.930 . S
C351 C349 1.332 . S
C351 C350 1.407 . S
C351 H353 0.929 . S
H352 C341 0.930 . S
H353 C351 0.929 . S
H354 C369 0.930 . S
H355 C376 0.929 . S
H356 C350 0.930 . S
H357 C349 0.931 . S
H358 C372 0.930 . S
H359 C339 0.930 . S
H360 C345 0.929 . S
H361 C346 0.930 . S
H362 C367 0.930 . S
H363 C342 0.930 . S
H364 C375 0.931 . S
N365 Tb336 2.617 . S
N365 C366 1.379 . S
N365 C369 1.334 . S
C366 N365 1.379 . S
C366 C368 1.416 . S
C366 C374 1.424 . S
C367 H362 0.930 . S
C367 C369 1.390 . S
C367 C370 1.339 . S
C368 C366 1.416 . S
C368 C370 1.416 . S
C368 C401 1.448 1_565 S
C369 H354 0.930 . S
C369 N365 1.334 . S
C369 C367 1.390 . S
C370 C367 1.339 . S
C370 C368 1.416 . S
C370 H377 0.930 . S
N371 Tb336 2.572 . S
N371 C372 1.340 . S
N371 C374 1.361 . S
C372 H358 0.930 . S
C372 N371 1.340 . S
C372 C376 1.407 1_565 S
C373 C374 1.413 1_545 S
C373 C375 1.416 . S
C373 C402 1.427 . S
C374 C366 1.424 . S
C374 N371 1.361 . S
C374 C373 1.413 1_565 S
C375 H364 0.931 . S
C375 C373 1.416 . S
C375 C376 1.332 . S
C376 H355 0.929 . S
C376 C372 1.407 1_545 S
C376 C375 1.332 . S
H377 C370 0.930 . S
H378 C401 0.930 . S
H379 C402 0.929 . S
O380 Tb336 2.465 . S
O380 C400 1.264 . S
O381 Tb336 2.387 . S
O381 C392 1.264 . S
O382 Tb347 2.349 . S
O382 C392 1.243 . S
O383 Tb336 2.428 . S
O383 C400 1.256 . S
O384 Tb336 2.308 . S
O384 C399 1.266 . S
O385 Tb347 2.393 . S
O385 C399 1.248 . S
O386 Tb347 2.465 . S
O386 C411 1.264 . S
O387 Tb347 2.387 . S
O387 C403 1.264 . S
O388 Tb336 2.349 . S
O388 C403 1.243 . S
O389 Tb347 2.428 . S
O389 C411 1.256 . S
O390 Tb347 2.308 . S
O390 C410 1.266 . S
O391 Tb336 2.393 . S
O391 C410 1.248 . S
C392 O381 1.264 . S
C392 O382 1.243 . S
C393 C396 1.399 . S
C393 C398 1.383 . S
C393 C400 1.496 . S
C394 C395 1.399 . S
C394 C398 1.389 . S
C395 C394 1.399 . S
C395 C397 1.380 . S
C395 H412 0.929 . S
C396 C393 1.399 . S
C396 C397 1.392 . S
C396 H413 0.929 . S
C397 C395 1.380 . S
C397 C396 1.392 . S
C397 H414 0.929 . S
C398 C393 1.383 . S
C398 C394 1.389 . S
C398 H415 0.931 . S
C399 O384 1.266 . S
C399 O385 1.248 . S
C400 Tb336 2.802 . S
C400 O380 1.264 . S
C400 O383 1.256 . S
C400 C393 1.496 . S
C401 C368 1.448 1_545 S
C401 H378 0.930 . S
C401 C402 1.328 . S
C402 C373 1.427 . S
C402 H379 0.929 . S
C402 C401 1.328 . S
C403 O387 1.264 . S
C403 O388 1.243 . S
C404 C407 1.399 . S
C404 C408 1.383 . S
C404 C411 1.496 . S
C405 C406 1.399 . S
C405 C408 1.389 . S
C406 C405 1.399 . S
C406 C409 1.380 . S
C406 H416 0.929 . S
C407 C404 1.399 . S
C407 C409 1.392 . S
C407 H417 0.929 . S
C408 C404 1.383 . S
C408 C405 1.389 . S
C408 H418 0.931 . S
C409 C406 1.380 . S
C409 C407 1.392 . S
C409 H419 0.929 . S
C410 O390 1.266 . S
C410 O391 1.248 . S
C411 Tb347 2.802 . S
C411 O386 1.264 . S
C411 O389 1.256 . S
C411 C404 1.496 . S
H412 C395 0.929 . S
H413 C396 0.929 . S
H414 C397 0.929 . S
H415 C398 0.931 . S
H416 C406 0.929 . S
H417 C407 0.929 . S
H418 C408 0.931 . S
H419 C409 0.929 . S
Tb420 N449 2.617 . S
Tb420 N455 2.572 . S
Tb420 O464 2.465 . S
Tb420 O465 2.387 . S
Tb420 O467 2.428 . S
Tb420 O468 2.308 . S
Tb420 O472 2.349 . S
Tb420 O475 2.393 . S
Tb420 C484 2.802 . S
C421 N422 1.379 . S
C421 C424 1.416 . S
C421 C428 1.424 . S
N422 C421 1.379 . S
N422 C425 1.334 . S
N422 Tb431 2.617 . S
C423 C425 1.390 . S
C423 C426 1.339 . S
C423 H443 0.930 . S
C424 C421 1.416 . S
C424 C426 1.416 . S
C424 C430 1.448 . S
C425 N422 1.334 . S
C425 C423 1.390 . S
C425 H436 0.930 . S
C426 C423 1.339 . S
C426 C424 1.416 . S
C426 H447 0.930 . S
C427 C428 1.413 . S
C427 C429 1.427 . S
C427 C433 1.416 . S
C428 C421 1.424 . S
C428 C427 1.413 . S
C428 N432 1.361 . S
C429 C427 1.427 . S
C429 C430 1.328 . S
C429 H444 0.929 . S
C430 C424 1.448 . S
C430 C429 1.328 . S
C430 H445 0.930 . S
Tb431 N422 2.617 . S
Tb431 N432 2.572 . S
Tb431 O466 2.349 . S
Tb431 O469 2.393 . S
Tb431 O470 2.465 . S
Tb431 O471 2.387 . S
Tb431 O473 2.428 . S
Tb431 O474 2.308 . S
Tb431 C495 2.802 . S
N432 C428 1.361 . S
N432 Tb431 2.572 . S
N432 C434 1.340 . S
C433 C427 1.416 . S
C433 C435 1.332 . S
C433 H441 0.931 . S
C434 N432 1.340 . S
C434 C435 1.407 . S
C434 H440 0.930 . S
C435 C433 1.332 . S
C435 C434 1.407 . S
C435 H437 0.929 . S
H436 C425 0.930 . S
H437 C435 0.929 . S
H438 C453 0.930 . S
H439 C460 0.929 . S
H440 C434 0.930 . S
H441 C433 0.931 . S
H442 C456 0.930 . S
H443 C423 0.930 . S
H444 C429 0.929 . S
H445 C430 0.930 . S
H446 C451 0.930 . S
H447 C426 0.930 . S
H448 C459 0.931 . S
N449 Tb420 2.617 . S
N449 C450 1.379 . S
N449 C453 1.334 . S
C450 N449 1.379 . S
C450 C452 1.416 . S
C450 C458 1.424 . S
C451 H446 0.930 . S
C451 C453 1.390 . S
C451 C454 1.339 . S
C452 C450 1.416 . S
C452 C454 1.416 . S
C452 C485 1.448 . S
C453 H438 0.930 . S
C453 N449 1.334 . S
C453 C451 1.390 . S
C454 C451 1.339 . S
C454 C452 1.416 . S
C454 H461 0.930 . S
N455 Tb420 2.572 . S
N455 C456 1.340 . S
N455 C458 1.361 . S
C456 H442 0.930 . S
C456 N455 1.340 . S
C456 C460 1.407 . S
C457 C458 1.413 . S
C457 C459 1.416 . S
C457 C486 1.427 . S
C458 C450 1.424 . S
C458 N455 1.361 . S
C458 C457 1.413 . S
C459 H448 0.931 . S
C459 C457 1.416 . S
C459 C460 1.332 . S
C460 H439 0.929 . S
C460 C456 1.407 . S
C460 C459 1.332 . S
H461 C454 0.930 . S
H462 C485 0.930 . S
H463 C486 0.929 . S
O464 Tb420 2.465 . S
O464 C484 1.264 . S
O465 Tb420 2.387 . S
O465 C476 1.264 . S
O466 Tb431 2.349 . S
O466 C476 1.243 . S
O467 Tb420 2.428 . S
O467 C484 1.256 . S
O468 Tb420 2.308 . S
O468 C483 1.266 . S
O469 Tb431 2.393 . S
O469 C483 1.248 . S
O470 Tb431 2.465 . S
O470 C495 1.264 . S
O471 Tb431 2.387 . S
O471 C487 1.264 . S
O472 Tb420 2.349 . S
O472 C487 1.243 . S
O473 Tb431 2.428 . S
O473 C495 1.256 . S
O474 Tb431 2.308 . S
O474 C494 1.266 . S
O475 Tb420 2.393 . S
O475 C494 1.248 . S
C476 O465 1.264 . S
C476 O466 1.243 . S
C477 C480 1.399 . S
C477 C482 1.383 . S
C477 C484 1.496 . S
C478 C479 1.399 . S
C478 C482 1.389 . S
C479 C478 1.399 . S
C479 C481 1.380 . S
C479 H496 0.929 . S
C480 C477 1.399 . S
C480 C481 1.392 . S
C480 H497 0.929 . S
C481 C479 1.380 . S
C481 C480 1.392 . S
C481 H498 0.929 . S
C482 C477 1.383 . S
C482 C478 1.389 . S
C482 H499 0.931 . S
C483 O468 1.266 . S
C483 O469 1.248 . S
C484 Tb420 2.802 . S
C484 O464 1.264 . S
C484 O467 1.256 . S
C484 C477 1.496 . S
C485 C452 1.448 . S
C485 H462 0.930 . S
C485 C486 1.328 . S
C486 C457 1.427 . S
C486 H463 0.929 . S
C486 C485 1.328 . S
C487 O471 1.264 . S
C487 O472 1.243 . S
C488 C491 1.399 . S
C488 C492 1.383 . S
C488 C495 1.496 . S
C489 C490 1.399 . S
C489 C492 1.389 . S
C490 C489 1.399 . S
C490 C493 1.380 . S
C490 H500 0.929 . S
C491 C488 1.399 . S
C491 C493 1.392 . S
C491 H501 0.929 . S
C492 C488 1.383 . S
C492 C489 1.389 . S
C492 H502 0.931 . S
C493 C490 1.380 . S
C493 C491 1.392 . S
C493 H503 0.929 . S
C494 O474 1.266 . S
C494 O475 1.248 . S
C495 Tb431 2.802 . S
C495 O470 1.264 . S
C495 O473 1.256 . S
C495 C488 1.496 . S
H496 C479 0.929 . S
H497 C480 0.929 . S
H498 C481 0.929 . S
H499 C482 0.931 . S
H500 C490 0.929 . S
H501 C491 0.929 . S
H502 C492 0.931 . S
H503 C493 0.929 . S
Tb504 N533 2.617 . S
Tb504 N539 2.572 . S
Tb504 O548 2.465 . S
Tb504 O549 2.387 . S
Tb504 O551 2.428 . S
Tb504 O552 2.308 . S
Tb504 O556 2.349 . S
Tb504 O559 2.393 . S
Tb504 C568 2.802 . S
C505 N506 1.379 . S
C505 C508 1.416 . S
C505 C512 1.424 . S
N506 C505 1.379 . S
N506 C509 1.334 . S
N506 Tb515 2.617 . S
C507 C509 1.390 . S
C507 C510 1.339 . S
C507 H527 0.930 . S
C508 C505 1.416 . S
C508 C510 1.416 . S
C508 C514 1.448 . S
C509 N506 1.334 . S
C509 C507 1.390 . S
C509 H520 0.930 . S
C510 C507 1.339 . S
C510 C508 1.416 . S
C510 H531 0.930 . S
C511 C512 1.413 . S
C511 C513 1.427 . S
C511 C517 1.416 . S
C512 C505 1.424 . S
C512 C511 1.413 . S
C512 N516 1.361 . S
C513 C511 1.427 . S
C513 C514 1.328 . S
C513 H528 0.929 . S
C514 C508 1.448 . S
C514 C513 1.328 . S
C514 H529 0.930 . S
Tb515 N506 2.617 . S
Tb515 N516 2.572 . S
Tb515 O550 2.349 . S
Tb515 O553 2.393 . S
Tb515 O554 2.465 . S
Tb515 O555 2.387 . S
Tb515 O557 2.428 . S
Tb515 O558 2.308 . S
Tb515 C579 2.802 . S
N516 C512 1.361 . S
N516 Tb515 2.572 . S
N516 C518 1.340 . S
C517 C511 1.416 . S
C517 C519 1.332 . S
C517 H525 0.931 . S
C518 N516 1.340 . S
C518 C519 1.407 . S
C518 H524 0.930 . S
C519 C517 1.332 . S
C519 C518 1.407 . S
C519 H521 0.929 . S
H520 C509 0.930 . S
H521 C519 0.929 . S
H522 C537 0.930 . S
H523 C544 0.929 . S
H524 C518 0.930 . S
H525 C517 0.931 . S
H526 C540 0.930 . S
H527 C507 0.930 . S
H528 C513 0.929 . S
H529 C514 0.930 . S
H530 C535 0.930 . S
H531 C510 0.930 . S
H532 C543 0.931 . S
N533 Tb504 2.617 . S
N533 C534 1.379 . S
N533 C537 1.334 . S
C534 N533 1.379 . S
C534 C536 1.416 . S
C534 C542 1.424 . S
C535 H530 0.930 . S
C535 C537 1.390 . S
C535 C538 1.339 . S
C536 C534 1.416 . S
C536 C538 1.416 . S
C536 C569 1.448 1_545 S
C537 H522 0.930 . S
C537 N533 1.334 . S
C537 C535 1.390 . S
C538 C535 1.339 . S
C538 C536 1.416 . S
C538 H545 0.930 . S
N539 Tb504 2.572 . S
N539 C540 1.340 . S
N539 C542 1.361 . S
C540 H526 0.930 . S
C540 N539 1.340 . S
C540 C544 1.407 1_545 S
C541 C542 1.413 1_565 S
C541 C543 1.416 . S
C541 C570 1.427 . S
C542 C534 1.424 . S
C542 N539 1.361 . S
C542 C541 1.413 1_545 S
C543 H532 0.931 . S
C543 C541 1.416 . S
C543 C544 1.332 . S
C544 H523 0.929 . S
C544 C540 1.407 1_565 S
C544 C543 1.332 . S
H545 C538 0.930 . S
H546 C569 0.930 . S
H547 C570 0.929 . S
O548 Tb504 2.465 . S
O548 C568 1.264 . S
O549 Tb504 2.387 . S
O549 C560 1.264 . S
O550 Tb515 2.349 . S
O550 C560 1.243 . S
O551 Tb504 2.428 . S
O551 C568 1.256 . S
O552 Tb504 2.308 . S
O552 C567 1.266 . S
O553 Tb515 2.393 . S
O553 C567 1.248 . S
O554 Tb515 2.465 . S
O554 C579 1.264 . S
O555 Tb515 2.387 . S
O555 C571 1.264 . S
O556 Tb504 2.349 . S
O556 C571 1.243 . S
O557 Tb515 2.428 . S
O557 C579 1.256 . S
O558 Tb515 2.308 . S
O558 C578 1.266 . S
O559 Tb504 2.393 . S
O559 C578 1.248 . S
C560 O549 1.264 . S
C560 O550 1.243 . S
C561 C564 1.399 . S
C561 C566 1.383 . S
C561 C568 1.496 . S
C562 C563 1.399 . S
C562 C566 1.389 . S
C563 C562 1.399 . S
C563 C565 1.380 . S
C563 H580 0.929 . S
C564 C561 1.399 . S
C564 C565 1.392 . S
C564 H581 0.929 . S
C565 C563 1.380 . S
C565 C564 1.392 . S
C565 H582 0.929 . S
C566 C561 1.383 . S
C566 C562 1.389 . S
C566 H583 0.931 . S
C567 O552 1.266 . S
C567 O553 1.248 . S
C568 Tb504 2.802 . S
C568 O548 1.264 . S
C568 O551 1.256 . S
C568 C561 1.496 . S
C569 C536 1.448 1_565 S
C569 H546 0.930 . S
C569 C570 1.328 . S
C570 C541 1.427 . S
C570 H547 0.929 . S
C570 C569 1.328 . S
C571 O555 1.264 . S
C571 O556 1.243 . S
C572 C575 1.399 . S
C572 C576 1.383 . S
C572 C579 1.496 . S
C573 C574 1.399 . S
C573 C576 1.389 . S
C574 C573 1.399 . S
C574 C577 1.380 . S
C574 H584 0.929 . S
C575 C572 1.399 . S
C575 C577 1.392 . S
C575 H585 0.929 . S
C576 C572 1.383 . S
C576 C573 1.389 . S
C576 H586 0.931 . S
C577 C574 1.380 . S
C577 C575 1.392 . S
C577 H587 0.929 . S
C578 O558 1.266 . S
C578 O559 1.248 . S
C579 Tb515 2.802 . S
C579 O554 1.264 . S
C579 O557 1.256 . S
C579 C572 1.496 . S
H580 C563 0.929 . S
H581 C564 0.929 . S
H582 C565 0.929 . S
H583 C566 0.931 . S
H584 C574 0.929 . S
H585 C575 0.929 . S
H586 C576 0.931 . S
H587 C577 0.929 . S
Tb588 N617 2.617 . S
Tb588 N623 2.572 . S
Tb588 O632 2.465 . S
Tb588 O633 2.387 . S
Tb588 O635 2.428 . S
Tb588 O636 2.308 . S
Tb588 O640 2.349 . S
Tb588 O643 2.393 . S
Tb588 C652 2.802 . S
C589 N590 1.379 . S
C589 C592 1.416 . S
C589 C596 1.424 . S
N590 C589 1.379 . S
N590 C593 1.334 . S
N590 Tb599 2.617 . S
C591 C593 1.390 . S
C591 C594 1.339 . S
C591 H611 0.930 . S
C592 C589 1.416 . S
C592 C594 1.416 . S
C592 C598 1.448 . S
C593 N590 1.334 . S
C593 C591 1.390 . S
C593 H604 0.930 . S
C594 C591 1.339 . S
C594 C592 1.416 . S
C594 H615 0.930 . S
C595 C596 1.413 . S
C595 C597 1.427 . S
C595 C601 1.416 . S
C596 C589 1.424 . S
C596 C595 1.413 . S
C596 N600 1.361 . S
C597 C595 1.427 . S
C597 C598 1.328 . S
C597 H612 0.929 . S
C598 C592 1.448 . S
C598 C597 1.328 . S
C598 H613 0.930 . S
Tb599 N590 2.617 . S
Tb599 N600 2.572 . S
Tb599 O634 2.349 . S
Tb599 O637 2.393 . S
Tb599 O638 2.465 . S
Tb599 O639 2.387 . S
Tb599 O641 2.428 . S
Tb599 O642 2.308 . S
Tb599 C663 2.802 . S
N600 C596 1.361 . S
N600 Tb599 2.572 . S
N600 C602 1.340 . S
C601 C595 1.416 . S
C601 C603 1.332 . S
C601 H609 0.931 . S
C602 N600 1.340 . S
C602 C603 1.407 . S
C602 H608 0.930 . S
C603 C601 1.332 . S
C603 C602 1.407 . S
C603 H605 0.929 . S
H604 C593 0.930 . S
H605 C603 0.929 . S
H606 C621 0.930 1_655 S
H607 C628 0.929 . S
H608 C602 0.930 . S
H609 C601 0.931 . S
H610 C624 0.930 . S
H611 C591 0.930 . S
H612 C597 0.929 . S
H613 C598 0.930 . S
H614 C619 0.930 . S
H615 C594 0.930 . S
H616 C627 0.931 . S
N617 Tb588 2.617 . S
N617 C618 1.379 . S
N617 C621 1.334 . S
C618 N617 1.379 . S
C618 C620 1.416 . S
C618 C626 1.424 . S
C619 H614 0.930 . S
C619 C621 1.390 1_655 S
C619 C622 1.339 1_655 S
C620 C618 1.416 . S
C620 C622 1.416 . S
C620 C653 1.448 . S
C621 H606 0.930 1_455 S
C621 N617 1.334 . S
C621 C619 1.390 1_455 S
C622 C619 1.339 1_455 S
C622 C620 1.416 . S
C622 H629 0.930 1_455 S
N623 Tb588 2.572 . S
N623 C624 1.340 . S
N623 C626 1.361 . S
C624 H610 0.930 . S
C624 N623 1.340 . S
C624 C628 1.407 . S
C625 C626 1.413 . S
C625 C627 1.416 . S
C625 C654 1.427 . S
C626 C618 1.424 . S
C626 N623 1.361 . S
C626 C625 1.413 . S
C627 H616 0.931 . S
C627 C625 1.416 . S
C627 C628 1.332 . S
C628 H607 0.929 . S
C628 C624 1.407 . S
C628 C627 1.332 . S
H629 C622 0.930 1_655 S
H630 C653 0.930 . S
H631 C654 0.929 . S
O632 Tb588 2.465 . S
O632 C652 1.264 . S
O633 Tb588 2.387 . S
O633 C644 1.264 . S
O634 Tb599 2.349 . S
O634 C644 1.243 . S
O635 Tb588 2.428 . S
O635 C652 1.256 . S
O636 Tb588 2.308 . S
O636 C651 1.266 . S
O637 Tb599 2.393 . S
O637 C651 1.248 . S
O638 Tb599 2.465 . S
O638 C663 1.264 . S
O639 Tb599 2.387 . S
O639 C655 1.264 . S
O640 Tb588 2.349 . S
O640 C655 1.243 . S
O641 Tb599 2.428 . S
O641 C663 1.256 . S
O642 Tb599 2.308 . S
O642 C662 1.266 . S
O643 Tb588 2.393 . S
O643 C662 1.248 . S
C644 O633 1.264 . S
C644 O634 1.243 . S
C645 C648 1.399 1_455 S
C645 C650 1.383 . S
C645 C652 1.496 . S
C646 C647 1.399 1_455 S
C646 C650 1.389 . S
C647 C646 1.399 1_655 S
C647 C649 1.380 . S
C647 H664 0.929 . S
C648 C645 1.399 1_655 S
C648 C649 1.392 . S
C648 H665 0.929 . S
C649 C647 1.380 . S
C649 C648 1.392 . S
C649 H666 0.929 . S
C650 C645 1.383 . S
C650 C646 1.389 . S
C650 H667 0.931 . S
C651 O636 1.266 . S
C651 O637 1.248 . S
C652 Tb588 2.802 . S
C652 O632 1.264 . S
C652 O635 1.256 . S
C652 C645 1.496 . S
C653 C620 1.448 . S
C653 H630 0.930 . S
C653 C654 1.328 . S
C654 C625 1.427 . S
C654 H631 0.929 . S
C654 C653 1.328 . S
C655 O639 1.264 . S
C655 O640 1.243 . S
C656 C659 1.399 . S
C656 C660 1.383 . S
C656 C663 1.496 . S
C657 C658 1.399 . S
C657 C660 1.389 . S
C658 C657 1.399 . S
C658 C661 1.380 . S
C658 H668 0.929 . S
C659 C656 1.399 . S
C659 C661 1.392 . S
C659 H669 0.929 . S
C660 C656 1.383 . S
C660 C657 1.389 . S
C660 H670 0.931 . S
C661 C658 1.380 . S
C661 C659 1.392 . S
C661 H671 0.929 . S
C662 O642 1.266 . S
C662 O643 1.248 . S
C663 Tb599 2.802 . S
C663 O638 1.264 . S
C663 O641 1.256 . S
C663 C656 1.496 . S
H664 C647 0.929 . S
H665 C648 0.929 . S
H666 C649 0.929 . S
H667 C650 0.931 . S
H668 C658 0.929 . S
H669 C659 0.929 . S
H670 C660 0.931 . S
H671 C661 0.929 . S
Tb672 N701 2.617 . S
Tb672 N707 2.572 . S
Tb672 O716 2.465 . S
Tb672 O717 2.387 . S
Tb672 O719 2.428 . S
Tb672 O720 2.308 . S
Tb672 O724 2.349 . S
Tb672 O727 2.393 . S
Tb672 C736 2.802 . S
C673 N674 1.379 . S
C673 C676 1.416 . S
C673 C680 1.424 . S
N674 C673 1.379 . S
N674 C677 1.334 . S
N674 Tb683 2.617 . S
C675 C677 1.390 . S
C675 C678 1.339 . S
C675 H695 0.930 . S
C676 C673 1.416 . S
C676 C678 1.416 . S
C676 C682 1.448 . S
C677 N674 1.334 . S
C677 C675 1.390 . S
C677 H688 0.930 . S
C678 C675 1.339 . S
C678 C676 1.416 . S
C678 H699 0.930 . S
C679 C680 1.413 . S
C679 C681 1.427 . S
C679 C685 1.416 . S
C680 C673 1.424 . S
C680 C679 1.413 . S
C680 N684 1.361 . S
C681 C679 1.427 . S
C681 C682 1.328 . S
C681 H696 0.929 . S
C682 C676 1.448 . S
C682 C681 1.328 . S
C682 H697 0.930 . S
Tb683 N674 2.617 . S
Tb683 N684 2.572 . S
Tb683 O718 2.349 . S
Tb683 O721 2.393 . S
Tb683 O722 2.465 . S
Tb683 O723 2.387 . S
Tb683 O725 2.428 . S
Tb683 O726 2.308 . S
Tb683 C747 2.802 . S
N684 C680 1.361 . S
N684 Tb683 2.572 . S
N684 C686 1.340 . S
C685 C679 1.416 . S
C685 C687 1.332 . S
C685 H693 0.931 . S
C686 N684 1.340 . S
C686 C687 1.407 . S
C686 H692 0.930 . S
C687 C685 1.332 . S
C687 C686 1.407 . S
C687 H689 0.929 . S
H688 C677 0.930 . S
H689 C687 0.929 . S
H690 C705 0.930 . S
H691 C712 0.929 . S
H692 C686 0.930 . S
H693 C685 0.931 . S
H694 C708 0.930 . S
H695 C675 0.930 . S
H696 C681 0.929 . S
H697 C682 0.930 . S
H698 C703 0.930 . S
H699 C678 0.930 . S
H700 C711 0.931 . S
N701 Tb672 2.617 . S
N701 C702 1.379 . S
N701 C705 1.334 . S
C702 N701 1.379 . S
C702 C704 1.416 . S
C702 C710 1.424 . S
C703 H698 0.930 . S
C703 C705 1.390 . S
C703 C706 1.339 . S
C704 C702 1.416 . S
C704 C706 1.416 . S
C704 C737 1.448 . S
C705 H690 0.930 . S
C705 N701 1.334 . S
C705 C703 1.390 . S
C706 C703 1.339 . S
C706 C704 1.416 . S
C706 H713 0.930 . S
N707 Tb672 2.572 . S
N707 C708 1.340 . S
N707 C710 1.361 . S
C708 H694 0.930 . S
C708 N707 1.340 . S
C708 C712 1.407 . S
C709 C710 1.413 . S
C709 C711 1.416 . S
C709 C738 1.427 . S
C710 C702 1.424 . S
C710 N707 1.361 . S
C710 C709 1.413 . S
C711 H700 0.931 . S
C711 C709 1.416 . S
C711 C712 1.332 . S
C712 H691 0.929 . S
C712 C708 1.407 . S
C712 C711 1.332 . S
H713 C706 0.930 . S
H714 C737 0.930 . S
H715 C738 0.929 . S
O716 Tb672 2.465 . S
O716 C736 1.264 . S
O717 Tb672 2.387 . S
O717 C728 1.264 . S
O718 Tb683 2.349 . S
O718 C728 1.243 . S
O719 Tb672 2.428 . S
O719 C736 1.256 . S
O720 Tb672 2.308 . S
O720 C735 1.266 . S
O721 Tb683 2.393 . S
O721 C735 1.248 . S
O722 Tb683 2.465 . S
O722 C747 1.264 . S
O723 Tb683 2.387 . S
O723 C739 1.264 . S
O724 Tb672 2.349 . S
O724 C739 1.243 . S
O725 Tb683 2.428 . S
O725 C747 1.256 . S
O726 Tb683 2.308 . S
O726 C746 1.266 . S
O727 Tb672 2.393 . S
O727 C746 1.248 . S
C728 O717 1.264 . S
C728 O718 1.243 . S
C729 C732 1.399 . S
C729 C734 1.383 . S
C729 C736 1.496 . S
C730 C731 1.399 . S
C730 C734 1.389 . S
C731 C730 1.399 . S
C731 C733 1.380 . S
C731 H748 0.929 . S
C732 C729 1.399 . S
C732 C733 1.392 . S
C732 H749 0.929 . S
C733 C731 1.380 . S
C733 C732 1.392 . S
C733 H750 0.929 . S
C734 C729 1.383 . S
C734 C730 1.389 . S
C734 H751 0.931 . S
C735 O720 1.266 . S
C735 O721 1.248 . S
C736 Tb672 2.802 . S
C736 O716 1.264 . S
C736 O719 1.256 . S
C736 C729 1.496 . S
C737 C704 1.448 . S
C737 H714 0.930 . S
C737 C738 1.328 . S
C738 C709 1.427 . S
C738 H715 0.929 . S
C738 C737 1.328 . S
C739 O723 1.264 . S
C739 O724 1.243 . S
C740 C743 1.399 . S
C740 C744 1.383 . S
C740 C747 1.496 . S
C741 C742 1.399 . S
C741 C744 1.389 . S
C742 C741 1.399 . S
C742 C745 1.380 . S
C742 H752 0.929 . S
C743 C740 1.399 . S
C743 C745 1.392 . S
C743 H753 0.929 . S
C744 C740 1.383 . S
C744 C741 1.389 . S
C744 H754 0.931 . S
C745 C742 1.380 . S
C745 C743 1.392 . S
C745 H755 0.929 . S
C746 O726 1.266 . S
C746 O727 1.248 . S
C747 Tb683 2.802 . S
C747 O722 1.264 . S
C747 O725 1.256 . S
C747 C740 1.496 . S
H748 C731 0.929 . S
H749 C732 0.929 . S
H750 C733 0.929 . S
H751 C734 0.931 . S
H752 C742 0.929 . S
H753 C743 0.929 . S
H754 C744 0.931 . S
H755 C745 0.929 . S
Tb756 N785 2.617 1_545 S
Tb756 N791 2.572 1_545 S
Tb756 O800 2.465 . S
Tb756 O801 2.387 1_545 S
Tb756 O803 2.428 1_545 S
Tb756 O804 2.308 . S
Tb756 O808 2.349 . S
Tb756 O811 2.393 1_545 S
Tb756 C820 2.802 . S
C757 N758 1.379 . S
C757 C760 1.416 . S
C757 C764 1.424 . S
N758 C757 1.379 . S
N758 C761 1.334 . S
N758 Tb767 2.617 . S
C759 C761 1.390 . S
C759 C762 1.339 . S
C759 H779 0.930 . S
C760 C757 1.416 . S
C760 C762 1.416 . S
C760 C766 1.448 . S
C761 N758 1.334 . S
C761 C759 1.390 . S
C761 H772 0.930 . S
C762 C759 1.339 . S
C762 C760 1.416 . S
C762 H783 0.930 . S
C763 C764 1.413 . S
C763 C765 1.427 . S
C763 C769 1.416 . S
C764 C757 1.424 . S
C764 C763 1.413 . S
C764 N768 1.361 . S
C765 C763 1.427 . S
C765 C766 1.328 . S
C765 H780 0.929 . S
C766 C760 1.448 . S
C766 C765 1.328 . S
C766 H781 0.930 . S
Tb767 N758 2.617 . S
Tb767 N768 2.572 . S
Tb767 O802 2.349 . S
Tb767 O805 2.393 . S
Tb767 O806 2.465 . S
Tb767 O807 2.387 . S
Tb767 O809 2.428 . S
Tb767 O810 2.308 1_545 S
Tb767 C831 2.802 . S
N768 C764 1.361 . S
N768 Tb767 2.572 . S
N768 C770 1.340 . S
C769 C763 1.416 . S
C769 C771 1.332 . S
C769 H777 0.931 . S
C770 N768 1.340 . S
C770 C771 1.407 . S
C770 H776 0.930 . S
C771 C769 1.332 . S
C771 C770 1.407 . S
C771 H773 0.929 . S
H772 C761 0.930 . S
H773 C771 0.929 . S
H774 C789 0.930 . S
H775 C796 0.929 . S
H776 C770 0.930 . S
H777 C769 0.931 . S
H778 C792 0.930 . S
H779 C759 0.930 . S
H780 C765 0.929 . S
H781 C766 0.930 . S
H782 C787 0.930 . S
H783 C762 0.930 . S
H784 C795 0.931 . S
N785 Tb756 2.617 1_565 S
N785 C786 1.379 . S
N785 C789 1.334 . S
C786 N785 1.379 . S
C786 C788 1.416 1_455 S
C786 C794 1.424 1_455 S
C787 H782 0.930 . S
C787 C789 1.390 . S
C787 C790 1.339 . S
C788 C786 1.416 1_655 S
C788 C790 1.416 1_655 S
C788 C821 1.448 . S
C789 H774 0.930 . S
C789 N785 1.334 . S
C789 C787 1.390 . S
C790 C787 1.339 . S
C790 C788 1.416 1_455 S
C790 H797 0.930 . S
N791 Tb756 2.572 1_565 S
N791 C792 1.340 1_465 S
N791 C794 1.361 1_455 S
C792 H778 0.930 . S
C792 N791 1.340 1_645 S
C792 C796 1.407 . S
C793 C794 1.413 . S
C793 C795 1.416 . S
C793 C822 1.427 . S
C794 C786 1.424 1_655 S
C794 N791 1.361 1_655 S
C794 C793 1.413 . S
C795 H784 0.931 . S
C795 C793 1.416 . S
C795 C796 1.332 1_565 S
C796 H775 0.929 . S
C796 C792 1.407 . S
C796 C795 1.332 1_545 S
H797 C790 0.930 . S
H798 C821 0.930 . S
H799 C822 0.929 . S
O800 Tb756 2.465 . S
O800 C820 1.264 . S
O801 Tb756 2.387 1_565 S
O801 C812 1.264 1_565 S
O802 Tb767 2.349 . S
O802 C812 1.243 . S
O803 Tb756 2.428 1_565 S
O803 C820 1.256 1_565 S
O804 Tb756 2.308 . S
O804 C819 1.266 . S
O805 Tb767 2.393 . S
O805 C819 1.248 . S
O806 Tb767 2.465 . S
O806 C831 1.264 . S
O807 Tb767 2.387 . S
O807 C823 1.264 . S
O808 Tb756 2.349 . S
O808 C823 1.243 . S
O809 Tb767 2.428 . S
O809 C831 1.256 . S
O810 Tb767 2.308 1_565 S
O810 C830 1.266 . S
O811 Tb756 2.393 1_565 S
O811 C830 1.248 . S
C812 O801 1.264 1_545 S
C812 O802 1.243 . S
C813 C816 1.399 1_545 S
C813 C818 1.383 . S
C813 C820 1.496 . S
C814 C815 1.399 . S
C814 C818 1.389 . S
C815 C814 1.399 . S
C815 C817 1.380 1_545 S
C815 H832 0.929 1_556 S
C816 C813 1.399 1_565 S
C816 C817 1.392 . S
C816 H833 0.929 . S
C817 C815 1.380 1_565 S
C817 C816 1.392 . S
C817 H834 0.929 . S
C818 C813 1.383 . S
C818 C814 1.389 . S
C818 H835 0.931 . S
C819 O804 1.266 . S
C819 O805 1.248 . S
C820 Tb756 2.802 . S
C820 O800 1.264 . S
C820 O803 1.256 1_545 S
C820 C813 1.496 . S
C821 C788 1.448 . S
C821 H798 0.930 . S
C821 C822 1.328 . S
C822 C793 1.427 . S
C822 H799 0.929 . S
C822 C821 1.328 . S
C823 O807 1.264 . S
C823 O808 1.243 . S
C824 C827 1.399 . S
C824 C828 1.383 . S
C824 C831 1.496 . S
C825 C826 1.399 . S
C825 C828 1.389 . S
C826 C825 1.399 . S
C826 C829 1.380 . S
C826 H836 0.929 . S
C827 C824 1.399 . S
C827 C829 1.392 . S
C827 H837 0.929 . S
C828 C824 1.383 . S
C828 C825 1.389 . S
C828 H838 0.931 1_545 S
C829 C826 1.380 . S
C829 C827 1.392 . S
C829 H839 0.929 . S
C830 O810 1.266 . S
C830 O811 1.248 . S
C831 Tb767 2.802 . S
C831 O806 1.264 . S
C831 O809 1.256 . S
C831 C824 1.496 . S
H832 C815 0.929 1_554 S
H833 C816 0.929 . S
H834 C817 0.929 . S
H835 C818 0.931 . S
H836 C826 0.929 . S
H837 C827 0.929 . S
H838 C828 0.931 1_565 S
H839 C829 0.929 . S
Tb840 N869 2.617 . S
Tb840 N875 2.572 . S
Tb840 O884 2.465 . S
Tb840 O885 2.387 . S
Tb840 O887 2.428 . S
Tb840 O888 2.308 . S
Tb840 O892 2.349 . S
Tb840 O895 2.393 . S
Tb840 C904 2.802 . S
C841 N842 1.379 . S
C841 C844 1.416 . S
C841 C848 1.424 . S
N842 C841 1.379 . S
N842 C845 1.334 . S
N842 Tb851 2.617 . S
C843 C845 1.390 . S
C843 C846 1.339 . S
C843 H863 0.930 . S
C844 C841 1.416 . S
C844 C846 1.416 . S
C844 C850 1.448 . S
C845 N842 1.334 . S
C845 C843 1.390 . S
C845 H856 0.930 . S
C846 C843 1.339 . S
C846 C844 1.416 . S
C846 H867 0.930 . S
C847 C848 1.413 . S
C847 C849 1.427 . S
C847 C853 1.416 . S
C848 C841 1.424 . S
C848 C847 1.413 . S
C848 N852 1.361 . S
C849 C847 1.427 . S
C849 C850 1.328 . S
C849 H864 0.929 . S
C850 C844 1.448 . S
C850 C849 1.328 . S
C850 H865 0.930 . S
Tb851 N842 2.617 . S
Tb851 N852 2.572 . S
Tb851 O886 2.349 . S
Tb851 O889 2.393 . S
Tb851 O890 2.465 . S
Tb851 O891 2.387 . S
Tb851 O893 2.428 . S
Tb851 O894 2.308 . S
Tb851 C915 2.802 . S
N852 C848 1.361 . S
N852 Tb851 2.572 . S
N852 C854 1.340 . S
C853 C847 1.416 . S
C853 C855 1.332 . S
C853 H861 0.931 . S
C854 N852 1.340 . S
C854 C855 1.407 . S
C854 H860 0.930 . S
C855 C853 1.332 . S
C855 C854 1.407 . S
C855 H857 0.929 . S
H856 C845 0.930 . S
H857 C855 0.929 . S
H858 C873 0.930 . S
H859 C880 0.929 . S
H860 C854 0.930 . S
H861 C853 0.931 . S
H862 C876 0.930 . S
H863 C843 0.930 . S
H864 C849 0.929 . S
H865 C850 0.930 . S
H866 C871 0.930 . S
H867 C846 0.930 . S
H868 C879 0.931 . S
N869 Tb840 2.617 . S
N869 C870 1.379 . S
N869 C873 1.334 . S
C870 N869 1.379 . S
C870 C872 1.416 . S
C870 C878 1.424 . S
C871 H866 0.930 . S
C871 C873 1.390 . S
C871 C874 1.339 . S
C872 C870 1.416 . S
C872 C874 1.416 . S
C872 C905 1.448 . S
C873 H858 0.930 . S
C873 N869 1.334 . S
C873 C871 1.390 . S
C874 C871 1.339 . S
C874 C872 1.416 . S
C874 H881 0.930 . S
N875 Tb840 2.572 . S
N875 C876 1.340 . S
N875 C878 1.361 . S
C876 H862 0.930 . S
C876 N875 1.340 . S
C876 C880 1.407 . S
C877 C878 1.413 . S
C877 C879 1.416 . S
C877 C906 1.427 . S
C878 C870 1.424 . S
C878 N875 1.361 . S
C878 C877 1.413 . S
C879 H868 0.931 . S
C879 C877 1.416 . S
C879 C880 1.332 . S
C880 H859 0.929 . S
C880 C876 1.407 . S
C880 C879 1.332 . S
H881 C874 0.930 . S
H882 C905 0.930 . S
H883 C906 0.929 . S
O884 Tb840 2.465 . S
O884 C904 1.264 . S
O885 Tb840 2.387 . S
O885 C896 1.264 . S
O886 Tb851 2.349 . S
O886 C896 1.243 . S
O887 Tb840 2.428 . S
O887 C904 1.256 . S
O888 Tb840 2.308 . S
O888 C903 1.266 . S
O889 Tb851 2.393 . S
O889 C903 1.248 . S
O890 Tb851 2.465 . S
O890 C915 1.264 . S
O891 Tb851 2.387 . S
O891 C907 1.264 . S
O892 Tb840 2.349 . S
O892 C907 1.243 . S
O893 Tb851 2.428 . S
O893 C915 1.256 . S
O894 Tb851 2.308 . S
O894 C914 1.266 . S
O895 Tb840 2.393 . S
O895 C914 1.248 . S
C896 O885 1.264 . S
C896 O886 1.243 . S
C897 C900 1.399 . S
C897 C902 1.383 . S
C897 C904 1.496 . S
C898 C899 1.399 . S
C898 C902 1.389 . S
C899 C898 1.399 . S
C899 C901 1.380 . S
C899 H916 0.929 . S
C900 C897 1.399 . S
C900 C901 1.392 . S
C900 H917 0.929 . S
C901 C899 1.380 . S
C901 C900 1.392 . S
C901 H918 0.929 . S
C902 C897 1.383 . S
C902 C898 1.389 . S
C902 H919 0.931 . S
C903 O888 1.266 . S
C903 O889 1.248 . S
C904 Tb840 2.802 . S
C904 O884 1.264 . S
C904 O887 1.256 . S
C904 C897 1.496 . S
C905 C872 1.448 . S
C905 H882 0.930 . S
C905 C906 1.328 . S
C906 C877 1.427 . S
C906 H883 0.929 . S
C906 C905 1.328 . S
C907 O891 1.264 . S
C907 O892 1.243 . S
C908 C911 1.399 . S
C908 C912 1.383 . S
C908 C915 1.496 . S
C909 C910 1.399 . S
C909 C912 1.389 . S
C910 C909 1.399 . S
C910 C913 1.380 . S
C910 H920 0.929 . S
C911 C908 1.399 . S
C911 C913 1.392 . S
C911 H921 0.929 . S
C912 C908 1.383 . S
C912 C909 1.389 . S
C912 H922 0.931 . S
C913 C910 1.380 . S
C913 C911 1.392 . S
C913 H923 0.929 . S
C914 O894 1.266 . S
C914 O895 1.248 . S
C915 Tb851 2.802 . S
C915 O890 1.264 . S
C915 O893 1.256 . S
C915 C908 1.496 . S
H916 C899 0.929 . S
H917 C900 0.929 . S
H918 C901 0.929 . S
H919 C902 0.931 . S
H920 C910 0.929 . S
H921 C911 0.929 . S
H922 C912 0.931 . S
H923 C913 0.929 . S
Tb924 N953 2.617 . S
Tb924 N959 2.572 . S
Tb924 O968 2.465 . S
Tb924 O969 2.387 . S
Tb924 O971 2.428 . S
Tb924 O972 2.308 . S
Tb924 O976 2.349 1_565 S
Tb924 O979 2.393 . S
Tb924 C988 2.802 . S
C925 N926 1.379 . S
C925 C928 1.416 . S
C925 C932 1.424 . S
N926 C925 1.379 . S
N926 C929 1.334 . S
N926 Tb935 2.617 1_545 S
C927 C929 1.390 . S
C927 C930 1.339 . S
C927 H947 0.930 . S
C928 C925 1.416 . S
C928 C930 1.416 . S
C928 C934 1.448 . S
C929 N926 1.334 . S
C929 C927 1.390 . S
C929 H940 0.930 . S
C930 C927 1.339 . S
C930 C928 1.416 . S
C930 H951 0.930 . S
C931 C932 1.413 . S
C931 C933 1.427 . S
C931 C937 1.416 . S
C932 C925 1.424 . S
C932 C931 1.413 . S
C932 N936 1.361 . S
C933 C931 1.427 . S
C933 C934 1.328 . S
C933 H948 0.929 . S
C934 C928 1.448 . S
C934 C933 1.328 . S
C934 H949 0.930 . S
Tb935 N926 2.617 1_565 S
Tb935 N936 2.572 1_565 S
Tb935 O970 2.349 . S
Tb935 O973 2.393 . S
Tb935 O974 2.465 . S
Tb935 O975 2.387 1_565 S
Tb935 O977 2.428 . S
Tb935 O978 2.308 . S
Tb935 C999 2.802 . S
N936 C932 1.361 . S
N936 Tb935 2.572 1_545 S
N936 C938 1.340 . S
C937 C931 1.416 . S
C937 C939 1.332 . S
C937 H945 0.931 . S
C938 N936 1.340 . S
C938 C939 1.407 . S
C938 H944 0.930 . S
C939 C937 1.332 . S
C939 C938 1.407 . S
C939 H941 0.929 . S
H940 C929 0.930 . S
H941 C939 0.929 . S
H942 C957 0.930 . S
H943 C964 0.929 . S
H944 C938 0.930 . S
H945 C937 0.931 . S
H946 C960 0.930 . S
H947 C927 0.930 . S
H948 C933 0.929 . S
H949 C934 0.930 . S
H950 C955 0.930 . S
H951 C930 0.930 . S
H952 C963 0.931 . S
N953 Tb924 2.617 . S
N953 C954 1.379 . S
N953 C957 1.334 . S
C954 N953 1.379 . S
C954 C956 1.416 . S
C954 C962 1.424 . S
C955 H950 0.930 . S
C955 C957 1.390 . S
C955 C958 1.339 . S
C956 C954 1.416 . S
C956 C958 1.416 . S
C956 C989 1.448 . S
C957 H942 0.930 . S
C957 N953 1.334 . S
C957 C955 1.390 . S
C958 C955 1.339 . S
C958 C956 1.416 . S
C958 H965 0.930 . S
N959 Tb924 2.572 . S
N959 C960 1.340 . S
N959 C962 1.361 . S
C960 H946 0.930 . S
C960 N959 1.340 . S
C960 C964 1.407 . S
C961 C962 1.413 . S
C961 C963 1.416 . S
C961 C990 1.427 . S
C962 C954 1.424 . S
C962 N959 1.361 . S
C962 C961 1.413 . S
C963 H952 0.931 . S
C963 C961 1.416 . S
C963 C964 1.332 . S
C964 H943 0.929 . S
C964 C960 1.407 . S
C964 C963 1.332 . S
H965 C958 0.930 . S
H966 C989 0.930 . S
H967 C990 0.929 . S
O968 Tb924 2.465 . S
O968 C988 1.264 . S
O969 Tb924 2.387 . S
O969 C980 1.264 . S
O970 Tb935 2.349 . S
O970 C980 1.243 . S
O971 Tb924 2.428 . S
O971 C988 1.256 . S
O972 Tb924 2.308 . S
O972 C987 1.266 . S
O973 Tb935 2.393 . S
O973 C987 1.253 . S
O974 Tb935 2.465 . S
O974 C999 1.264 . S
O975 Tb935 2.387 1_545 S
O975 C991 1.264 . S
O976 Tb924 2.349 1_545 S
O976 C991 1.243 . S
O977 Tb935 2.428 . S
O977 C999 1.256 . S
O978 Tb935 2.308 . S
O978 C998 1.266 . S
O979 Tb924 2.393 . S
O979 C998 1.248 . S
C980 O969 1.264 . S
C980 O970 1.243 . S
C981 C984 1.399 . S
C981 C986 1.383 . S
C981 C988 1.496 . S
C982 C983 1.399 1_545 S
C982 C986 1.389 1_545 S
C983 C982 1.399 1_565 S
C983 C985 1.380 . S
C983 H1000 0.929 . S
C984 C981 1.399 . S
C984 C985 1.392 . S
C984 H1001 0.929 . S
C985 C983 1.380 . S
C985 C984 1.392 . S
C985 H1002 0.929 . S
C986 C981 1.383 . S
C986 C982 1.389 1_565 S
C986 H1003 0.933 . S
C987 O972 1.266 . S
C987 O973 1.253 . S
C988 Tb924 2.802 . S
C988 O968 1.264 . S
C988 O971 1.256 . S
C988 C981 1.496 . S
C989 C956 1.448 . S
C989 H966 0.930 . S
C989 C990 1.328 . S
C990 C961 1.427 . S
C990 H967 0.929 . S
C990 C989 1.328 . S
C991 O975 1.264 . S
C991 O976 1.243 . S
C992 C995 1.399 . S
C992 C996 1.383 . S
C992 C999 1.496 . S
C993 C994 1.399 . S
C993 C996 1.389 . S
C994 C993 1.399 . S
C994 C997 1.380 . S
C994 H1004 0.929 . S
C995 C992 1.399 . S
C995 C997 1.392 . S
C995 H1005 0.929 . S
C996 C992 1.383 . S
C996 C993 1.389 . S
C996 H1006 0.931 . S
C997 C994 1.380 . S
C997 C995 1.392 . S
C997 H1007 0.929 . S
C998 O978 1.266 . S
C998 O979 1.248 . S
C999 Tb935 2.802 . S
C999 O974 1.264 . S
C999 O977 1.256 . S
C999 C992 1.496 . S
H1000 C983 0.929 . S
H1001 C984 0.929 . S
H1002 C985 0.929 . S
H1003 C986 0.933 . S
H1004 C994 0.929 . S
H1005 C995 0.929 . S
H1006 C996 0.931 . S
H1007 C997 0.929 . S
Tb1008 N1037 2.617 . S
Tb1008 N1043 2.572 . S
Tb1008 O1052 2.465 . S
Tb1008 O1053 2.387 . S
Tb1008 O1055 2.428 . S
Tb1008 O1056 2.308 . S
Tb1008 O1060 2.349 . S
Tb1008 O1063 2.393 . S
Tb1008 C1072 2.802 . S
C1009 N1010 1.379 . S
C1009 C1012 1.416 . S
C1009 C1016 1.424 . S
N1010 C1009 1.379 . S
N1010 C1013 1.334 . S
N1010 Tb1019 2.617 . S
C1011 C1013 1.390 . S
C1011 C1014 1.339 . S
C1011 H1031 0.930 . S
C1012 C1009 1.416 . S
C1012 C1014 1.416 . S
C1012 C1018 1.448 . S
C1013 N1010 1.334 . S
C1013 C1011 1.390 . S
C1013 H1024 0.930 . S
C1014 C1011 1.339 . S
C1014 C1012 1.416 . S
C1014 H1035 0.930 . S
C1015 C1016 1.413 . S
C1015 C1017 1.427 . S
C1015 C1021 1.416 . S
C1016 C1009 1.424 . S
C1016 C1015 1.413 . S
C1016 N1020 1.361 . S
C1017 C1015 1.427 . S
C1017 C1018 1.328 . S
C1017 H1032 0.929 . S
C1018 C1012 1.448 . S
C1018 C1017 1.328 . S
C1018 H1033 0.930 . S
Tb1019 N1010 2.617 . S
Tb1019 N1020 2.572 . S
Tb1019 O1054 2.349 . S
Tb1019 O1057 2.393 . S
Tb1019 O1058 2.465 . S
Tb1019 O1059 2.387 . S
Tb1019 O1061 2.428 . S
Tb1019 O1062 2.308 . S
Tb1019 C1083 2.802 . S
N1020 C1016 1.361 . S
N1020 Tb1019 2.572 . S
N1020 C1022 1.340 . S
C1021 C1015 1.416 . S
C1021 C1023 1.332 . S
C1021 H1029 0.931 . S
C1022 N1020 1.340 . S
C1022 C1023 1.407 . S
C1022 H1028 0.930 . S
C1023 C1021 1.332 . S
C1023 C1022 1.407 . S
C1023 H1025 0.929 . S
H1024 C1013 0.930 . S
H1025 C1023 0.929 . S
H1026 C1041 0.930 . S
H1027 C1048 0.929 . S
H1028 C1022 0.930 . S
H1029 C1021 0.931 . S
H1030 C1044 0.930 . S
H1031 C1011 0.930 . S
H1032 C1017 0.929 . S
H1033 C1018 0.930 . S
H1034 C1039 0.930 . S
H1035 C1014 0.930 . S
H1036 C1047 0.931 . S
N1037 Tb1008 2.617 . S
N1037 C1038 1.379 . S
N1037 C1041 1.334 . S
C1038 N1037 1.379 . S
C1038 C1040 1.416 . S
C1038 C1046 1.424 . S
C1039 H1034 0.930 . S
C1039 C1041 1.390 . S
C1039 C1042 1.339 . S
C1040 C1038 1.416 . S
C1040 C1042 1.416 . S
C1040 C1073 1.448 . S
C1041 H1026 0.930 . S
C1041 N1037 1.334 . S
C1041 C1039 1.390 . S
C1042 C1039 1.339 . S
C1042 C1040 1.416 . S
C1042 H1049 0.930 . S
N1043 Tb1008 2.572 . S
N1043 C1044 1.340 . S
N1043 C1046 1.361 . S
C1044 H1030 0.930 . S
C1044 N1043 1.340 . S
C1044 C1048 1.407 . S
C1045 C1046 1.413 . S
C1045 C1047 1.416 . S
C1045 C1074 1.427 . S
C1046 C1038 1.424 . S
C1046 N1043 1.361 . S
C1046 C1045 1.413 . S
C1047 H1036 0.931 . S
C1047 C1045 1.416 . S
C1047 C1048 1.332 . S
C1048 H1027 0.929 . S
C1048 C1044 1.407 . S
C1048 C1047 1.332 . S
H1049 C1042 0.930 . S
H1050 C1073 0.930 . S
H1051 C1074 0.929 . S
O1052 Tb1008 2.465 . S
O1052 C1072 1.264 . S
O1053 Tb1008 2.387 . S
O1053 C1064 1.264 . S
O1054 Tb1019 2.349 . S
O1054 C1064 1.243 . S
O1055 Tb1008 2.428 . S
O1055 C1072 1.256 . S
O1056 Tb1008 2.308 . S
O1056 C1071 1.266 . S
O1057 Tb1019 2.393 . S
O1057 C1071 1.248 . S
O1058 Tb1019 2.465 . S
O1058 C1083 1.264 . S
O1059 Tb1019 2.387 . S
O1059 C1075 1.264 . S
O1060 Tb1008 2.349 . S
O1060 C1075 1.243 . S
O1061 Tb1019 2.428 . S
O1061 C1083 1.256 . S
O1062 Tb1019 2.308 . S
O1062 C1082 1.266 . S
O1063 Tb1008 2.393 . S
O1063 C1082 1.248 . S
C1064 O1053 1.264 . S
C1064 O1054 1.243 . S
C1065 C1068 1.399 . S
C1065 C1070 1.383 . S
C1065 C1072 1.496 . S
C1066 C1067 1.399 . S
C1066 C1070 1.389 . S
C1067 C1066 1.399 . S
C1067 C1069 1.380 . S
C1067 H1084 0.929 . S
C1068 C1065 1.399 . S
C1068 C1069 1.392 . S
C1068 H1085 0.929 . S
C1069 C1067 1.380 . S
C1069 C1068 1.392 . S
C1069 H1086 0.929 . S
C1070 C1065 1.383 . S
C1070 C1066 1.389 . S
C1070 H1087 0.931 . S
C1071 O1056 1.266 . S
C1071 O1057 1.248 . S
C1072 Tb1008 2.802 . S
C1072 O1052 1.264 . S
C1072 O1055 1.256 . S
C1072 C1065 1.496 . S
C1073 C1040 1.448 . S
C1073 H1050 0.930 . S
C1073 C1074 1.328 . S
C1074 C1045 1.427 . S
C1074 H1051 0.929 . S
C1074 C1073 1.328 . S
C1075 O1059 1.264 . S
C1075 O1060 1.243 . S
C1076 C1079 1.399 . S
C1076 C1080 1.383 . S
C1076 C1083 1.496 . S
C1077 C1078 1.399 . S
C1077 C1080 1.389 . S
C1078 C1077 1.399 . S
C1078 C1081 1.380 . S
C1078 H1088 0.929 . S
C1079 C1076 1.399 . S
C1079 C1081 1.392 . S
C1079 H1089 0.929 . S
C1080 C1076 1.383 . S
C1080 C1077 1.389 . S
C1080 H1090 0.931 . S
C1081 C1078 1.380 . S
C1081 C1079 1.392 . S
C1081 H1091 0.929 . S
C1082 O1062 1.266 . S
C1082 O1063 1.248 . S
C1083 Tb1019 2.802 . S
C1083 O1058 1.264 . S
C1083 O1061 1.256 . S
C1083 C1076 1.496 . S
H1084 C1067 0.929 . S
H1085 C1068 0.929 . S
H1086 C1069 0.929 . S
H1087 C1070 0.931 . S
H1088 C1078 0.929 . S
H1089 C1079 0.929 . S
H1090 C1080 0.931 . S
H1091 C1081 0.929 . S
Tb1092 N1121 2.617 . S
Tb1092 N1127 2.572 . S
Tb1092 O1136 2.465 . S
Tb1092 O1137 2.387 . S
Tb1092 O1139 2.428 . S
Tb1092 O1140 2.308 1_565 S
Tb1092 O1144 2.349 . S
Tb1092 O1147 2.393 . S
Tb1092 C1156 2.802 . S
C1093 N1094 1.379 . S
C1093 C1096 1.416 1_655 S
C1093 C1100 1.424 1_655 S
N1094 C1093 1.379 . S
N1094 C1097 1.334 . S
N1094 Tb1103 2.617 1_545 S
C1095 C1097 1.390 . S
C1095 C1098 1.339 . S
C1095 H1115 0.930 . S
C1096 C1093 1.416 1_455 S
C1096 C1098 1.416 1_455 S
C1096 C1102 1.448 . S
C1097 N1094 1.334 . S
C1097 C1095 1.390 . S
C1097 H1108 0.930 . S
C1098 C1095 1.339 . S
C1098 C1096 1.416 1_655 S
C1098 H1119 0.930 . S
C1099 C1100 1.413 . S
C1099 C1101 1.427 . S
C1099 C1105 1.416 . S
C1100 C1093 1.424 1_455 S
C1100 C1099 1.413 . S
C1100 N1104 1.361 1_455 S
C1101 C1099 1.427 . S
C1101 C1102 1.328 . S
C1101 H1116 0.929 . S
C1102 C1096 1.448 . S
C1102 C1101 1.328 . S
C1102 H1117 0.930 . S
Tb1103 N1094 2.617 1_565 S
Tb1103 N1104 2.572 1_565 S
Tb1103 O1138 2.349 . S
Tb1103 O1141 2.393 1_565 S
Tb1103 O1142 2.465 . S
Tb1103 O1143 2.387 1_565 S
Tb1103 O1145 2.428 1_565 S
Tb1103 O1146 2.308 . S
Tb1103 C1167 2.802 . S
N1104 C1100 1.361 1_655 S
N1104 Tb1103 2.572 1_545 S
N1104 C1106 1.340 1_645 S
C1105 C1099 1.416 . S
C1105 C1107 1.332 1_545 S
C1105 H1113 0.931 . S
C1106 N1104 1.340 1_465 S
C1106 C1107 1.407 . S
C1106 H1112 0.930 . S
C1107 C1105 1.332 1_565 S
C1107 C1106 1.407 . S
C1107 H1109 0.929 . S
H1108 C1097 0.930 . S
H1109 C1107 0.929 . S
H1110 C1125 0.930 . S
H1111 C1132 0.929 . S
H1112 C1106 0.930 . S
H1113 C1105 0.931 . S
H1114 C1128 0.930 . S
H1115 C1095 0.930 . S
H1116 C1101 0.929 . S
H1117 C1102 0.930 . S
H1118 C1123 0.930 . S
H1119 C1098 0.930 . S
H1120 C1131 0.931 . S
N1121 Tb1092 2.617 . S
N1121 C1122 1.379 . S
N1121 C1125 1.334 . S
C1122 N1121 1.379 . S
C1122 C1124 1.416 . S
C1122 C1130 1.424 . S
C1123 H1118 0.930 . S
C1123 C1125 1.390 . S
C1123 C1126 1.339 . S
C1124 C1122 1.416 . S
C1124 C1126 1.416 . S
C1124 C1157 1.448 . S
C1125 H1110 0.930 . S
C1125 N1121 1.334 . S
C1125 C1123 1.390 . S
C1126 C1123 1.339 . S
C1126 C1124 1.416 . S
C1126 H1133 0.930 . S
N1127 Tb1092 2.572 . S
N1127 C1128 1.340 . S
N1127 C1130 1.361 . S
C1128 H1114 0.930 . S
C1128 N1127 1.340 . S
C1128 C1132 1.407 . S
C1129 C1130 1.413 . S
C1129 C1131 1.416 . S
C1129 C1158 1.427 . S
C1130 C1122 1.424 . S
C1130 N1127 1.361 . S
C1130 C1129 1.413 . S
C1131 H1120 0.931 . S
C1131 C1129 1.416 . S
C1131 C1132 1.332 . S
C1132 H1111 0.929 . S
C1132 C1128 1.407 . S
C1132 C1131 1.332 . S
H1133 C1126 0.930 . S
H1134 C1157 0.930 . S
H1135 C1158 0.929 . S
O1136 Tb1092 2.465 . S
O1136 C1156 1.264 . S
O1137 Tb1092 2.387 . S
O1137 C1148 1.264 . S
O1138 Tb1103 2.349 . S
O1138 C1148 1.243 . S
O1139 Tb1092 2.428 . S
O1139 C1156 1.256 . S
O1140 Tb1092 2.308 1_545 S
O1140 C1155 1.266 . S
O1141 Tb1103 2.393 1_545 S
O1141 C1155 1.248 . S
O1142 Tb1103 2.465 . S
O1142 C1167 1.264 . S
O1143 Tb1103 2.387 1_545 S
O1143 C1159 1.264 1_545 S
O1144 Tb1092 2.349 . S
O1144 C1159 1.243 . S
O1145 Tb1103 2.428 1_545 S
O1145 C1167 1.256 1_545 S
O1146 Tb1103 2.308 . S
O1146 C1166 1.266 . S
O1147 Tb1092 2.393 . S
O1147 C1166 1.248 . S
C1148 O1137 1.264 . S
C1148 O1138 1.243 . S
C1149 C1152 1.399 . S
C1149 C1154 1.383 . S
C1149 C1156 1.496 . S
C1150 C1151 1.399 . S
C1150 C1154 1.389 . S
C1151 C1150 1.399 . S
C1151 C1153 1.380 . S
C1151 H1168 0.929 . S
C1152 C1149 1.399 . S
C1152 C1153 1.392 . S
C1152 H1169 0.929 . S
C1153 C1151 1.380 . S
C1153 C1152 1.392 . S
C1153 H1170 0.929 . S
C1154 C1149 1.383 . S
C1154 C1150 1.389 . S
C1154 H1171 0.931 1_565 S
C1155 O1140 1.266 . S
C1155 O1141 1.248 . S
C1156 Tb1092 2.802 . S
C1156 O1136 1.264 . S
C1156 O1139 1.256 . S
C1156 C1149 1.496 . S
C1157 C1124 1.448 . S
C1157 H1134 0.930 . S
C1157 C1158 1.328 . S
C1158 C1129 1.427 . S
C1158 H1135 0.929 . S
C1158 C1157 1.328 . S
C1159 O1143 1.264 1_565 S
C1159 O1144 1.243 . S
C1160 C1163 1.399 1_565 S
C1160 C1164 1.383 . S
C1160 C1167 1.496 . S
C1161 C1162 1.399 . S
C1161 C1164 1.389 . S
C1162 C1161 1.399 . S
C1162 C1165 1.380 1_565 S
C1162 H1172 0.929 1_554 S
C1163 C1160 1.399 1_545 S
C1163 C1165 1.392 . S
C1163 H1173 0.929 . S
C1164 C1160 1.383 . S
C1164 C1161 1.389 . S
C1164 H1174 0.931 . S
C1165 C1162 1.380 1_545 S
C1165 C1163 1.392 . S
C1165 H1175 0.929 . S
C1166 O1146 1.266 . S
C1166 O1147 1.248 . S
C1167 Tb1103 2.802 . S
C1167 O1142 1.264 . S
C1167 O1145 1.256 1_565 S
C1167 C1160 1.496 . S
H1168 C1151 0.929 . S
H1169 C1152 0.929 . S
H1170 C1153 0.929 . S
H1171 C1154 0.931 1_545 S
H1172 C1162 0.929 1_556 S
H1173 C1163 0.929 . S
H1174 C1164 0.931 . S
H1175 C1165 0.929 . S
Tb1176 N1205 2.617 . S
Tb1176 N1211 2.572 . S
Tb1176 O1220 2.465 . S
Tb1176 O1221 2.387 . S
Tb1176 O1223 2.428 . S
Tb1176 O1224 2.308 . S
Tb1176 O1228 2.349 . S
Tb1176 O1231 2.393 . S
Tb1176 C1240 2.802 . S
C1177 N1178 1.379 . S
C1177 C1180 1.416 . S
C1177 C1184 1.424 . S
N1178 C1177 1.379 . S
N1178 C1181 1.334 . S
N1178 Tb1187 2.617 . S
C1179 C1181 1.390 . S
C1179 C1182 1.339 . S
C1179 H1199 0.930 . S
C1180 C1177 1.416 . S
C1180 C1182 1.416 . S
C1180 C1186 1.448 . S
C1181 N1178 1.334 . S
C1181 C1179 1.390 . S
C1181 H1192 0.930 . S
C1182 C1179 1.339 . S
C1182 C1180 1.416 . S
C1182 H1203 0.930 . S
C1183 C1184 1.413 . S
C1183 C1185 1.427 . S
C1183 C1189 1.416 . S
C1184 C1177 1.424 . S
C1184 C1183 1.413 . S
C1184 N1188 1.361 . S
C1185 C1183 1.427 . S
C1185 C1186 1.328 . S
C1185 H1200 0.929 . S
C1186 C1180 1.448 . S
C1186 C1185 1.328 . S
C1186 H1201 0.930 . S
Tb1187 N1178 2.617 . S
Tb1187 N1188 2.572 . S
Tb1187 O1222 2.349 . S
Tb1187 O1225 2.393 . S
Tb1187 O1226 2.465 . S
Tb1187 O1227 2.387 . S
Tb1187 O1229 2.428 . S
Tb1187 O1230 2.308 . S
Tb1187 C1251 2.802 . S
N1188 C1184 1.361 . S
N1188 Tb1187 2.572 . S
N1188 C1190 1.340 . S
C1189 C1183 1.416 . S
C1189 C1191 1.332 . S
C1189 H1197 0.931 . S
C1190 N1188 1.340 . S
C1190 C1191 1.407 . S
C1190 H1196 0.930 . S
C1191 C1189 1.332 . S
C1191 C1190 1.407 . S
C1191 H1193 0.929 . S
H1192 C1181 0.930 . S
H1193 C1191 0.929 . S
H1194 C1209 0.930 . S
H1195 C1216 0.929 . S
H1196 C1190 0.930 . S
H1197 C1189 0.931 . S
H1198 C1212 0.930 . S
H1199 C1179 0.930 . S
H1200 C1185 0.929 . S
H1201 C1186 0.930 . S
H1202 C1207 0.930 . S
H1203 C1182 0.930 . S
H1204 C1215 0.931 . S
N1205 Tb1176 2.617 . S
N1205 C1206 1.379 . S
N1205 C1209 1.334 . S
C1206 N1205 1.379 . S
C1206 C1208 1.416 . S
C1206 C1214 1.424 . S
C1207 H1202 0.930 . S
C1207 C1209 1.390 . S
C1207 C1210 1.339 . S
C1208 C1206 1.416 . S
C1208 C1210 1.416 . S
C1208 C1241 1.448 . S
C1209 H1194 0.930 . S
C1209 N1205 1.334 . S
C1209 C1207 1.390 . S
C1210 C1207 1.339 . S
C1210 C1208 1.416 . S
C1210 H1217 0.930 . S
N1211 Tb1176 2.572 . S
N1211 C1212 1.340 . S
N1211 C1214 1.361 . S
C1212 H1198 0.930 . S
C1212 N1211 1.340 . S
C1212 C1216 1.407 . S
C1213 C1214 1.413 . S
C1213 C1215 1.416 . S
C1213 C1242 1.427 . S
C1214 C1206 1.424 . S
C1214 N1211 1.361 . S
C1214 C1213 1.413 . S
C1215 H1204 0.931 . S
C1215 C1213 1.416 . S
C1215 C1216 1.332 . S
C1216 H1195 0.929 . S
C1216 C1212 1.407 . S
C1216 C1215 1.332 . S
H1217 C1210 0.930 . S
H1218 C1241 0.930 . S
H1219 C1242 0.929 . S
O1220 Tb1176 2.465 . S
O1220 C1240 1.264 . S
O1221 Tb1176 2.387 . S
O1221 C1232 1.264 . S
O1222 Tb1187 2.349 . S
O1222 C1232 1.243 . S
O1223 Tb1176 2.428 . S
O1223 C1240 1.256 . S
O1224 Tb1176 2.308 . S
O1224 C1239 1.266 . S
O1225 Tb1187 2.393 . S
O1225 C1239 1.248 . S
O1226 Tb1187 2.465 . S
O1226 C1251 1.264 . S
O1227 Tb1187 2.387 . S
O1227 C1243 1.264 . S
O1228 Tb1176 2.349 . S
O1228 C1243 1.243 . S
O1229 Tb1187 2.428 . S
O1229 C1251 1.256 . S
O1230 Tb1187 2.308 . S
O1230 C1250 1.266 . S
O1231 Tb1176 2.393 . S
O1231 C1250 1.248 . S
C1232 O1221 1.264 . S
C1232 O1222 1.243 . S
C1233 C1236 1.399 . S
C1233 C1238 1.383 . S
C1233 C1240 1.496 . S
C1234 C1235 1.399 . S
C1234 C1238 1.389 . S
C1235 C1234 1.399 . S
C1235 C1237 1.380 . S
C1235 H1252 0.929 . S
C1236 C1233 1.399 . S
C1236 C1237 1.392 . S
C1236 H1253 0.929 . S
C1237 C1235 1.380 . S
C1237 C1236 1.392 . S
C1237 H1254 0.929 . S
C1238 C1233 1.383 . S
C1238 C1234 1.389 . S
C1238 H1255 0.931 . S
C1239 O1224 1.266 . S
C1239 O1225 1.248 . S
C1240 Tb1176 2.802 . S
C1240 O1220 1.264 . S
C1240 O1223 1.256 . S
C1240 C1233 1.496 . S
C1241 C1208 1.448 . S
C1241 H1218 0.930 . S
C1241 C1242 1.328 . S
C1242 C1213 1.427 . S
C1242 H1219 0.929 . S
C1242 C1241 1.328 . S
C1243 O1227 1.264 . S
C1243 O1228 1.243 . S
C1244 C1247 1.399 . S
C1244 C1248 1.383 . S
C1244 C1251 1.496 . S
C1245 C1246 1.399 . S
C1245 C1248 1.389 . S
C1246 C1245 1.399 . S
C1246 C1249 1.380 . S
C1246 H1256 0.929 . S
C1247 C1244 1.399 . S
C1247 C1249 1.392 . S
C1247 H1257 0.929 . S
C1248 C1244 1.383 . S
C1248 C1245 1.389 . S
C1248 H1258 0.931 . S
C1249 C1246 1.380 . S
C1249 C1247 1.392 . S
C1249 H1259 0.929 . S
C1250 O1230 1.266 . S
C1250 O1231 1.248 . S
C1251 Tb1187 2.802 . S
C1251 O1226 1.264 . S
C1251 O1229 1.256 . S
C1251 C1244 1.496 . S
H1252 C1235 0.929 . S
H1253 C1236 0.929 . S
H1254 C1237 0.929 . S
H1255 C1238 0.931 . S
H1256 C1246 0.929 . S
H1257 C1247 0.929 . S
H1258 C1248 0.931 . S
H1259 C1249 0.929 . S
Tb1260 N1289 2.617 1_545 S
Tb1260 N1295 2.572 1_545 S
Tb1260 O1304 2.465 . S
Tb1260 O1305 2.387 1_545 S
Tb1260 O1307 2.428 . S
Tb1260 O1308 2.308 . S
Tb1260 O1312 2.349 . S
Tb1260 O1315 2.393 . S
Tb1260 C1324 2.802 . S
C1261 N1262 1.379 . S
C1261 C1264 1.416 . S
C1261 C1268 1.424 . S
N1262 C1261 1.379 . S
N1262 C1265 1.334 . S
N1262 Tb1271 2.617 . S
C1263 C1265 1.390 . S
C1263 C1266 1.339 . S
C1263 H1283 0.930 . S
C1264 C1261 1.416 . S
C1264 C1266 1.416 . S
C1264 C1270 1.448 . S
C1265 N1262 1.334 . S
C1265 C1263 1.390 . S
C1265 H1276 0.930 . S
C1266 C1263 1.339 . S
C1266 C1264 1.416 . S
C1266 H1287 0.930 . S
C1267 C1268 1.413 . S
C1267 C1269 1.427 . S
C1267 C1273 1.416 . S
C1268 C1261 1.424 . S
C1268 C1267 1.413 . S
C1268 N1272 1.361 . S
C1269 C1267 1.427 . S
C1269 C1270 1.328 . S
C1269 H1284 0.929 . S
C1270 C1264 1.448 . S
C1270 C1269 1.328 . S
C1270 H1285 0.930 . S
Tb1271 N1262 2.617 . S
Tb1271 N1272 2.572 . S
Tb1271 O1306 2.349 1_545 S
Tb1271 O1309 2.393 . S
Tb1271 O1310 2.465 . S
Tb1271 O1311 2.387 . S
Tb1271 O1313 2.428 . S
Tb1271 O1314 2.308 . S
Tb1271 C1335 2.802 . S
N1272 C1268 1.361 . S
N1272 Tb1271 2.572 . S
N1272 C1274 1.340 . S
C1273 C1267 1.416 . S
C1273 C1275 1.332 . S
C1273 H1281 0.931 . S
C1274 N1272 1.340 . S
C1274 C1275 1.407 . S
C1274 H1280 0.930 . S
C1275 C1273 1.332 . S
C1275 C1274 1.407 . S
C1275 H1277 0.929 . S
H1276 C1265 0.930 . S
H1277 C1275 0.929 . S
H1278 C1293 0.930 . S
H1279 C1300 0.929 . S
H1280 C1274 0.930 . S
H1281 C1273 0.931 . S
H1282 C1296 0.930 . S
H1283 C1263 0.930 . S
H1284 C1269 0.929 . S
H1285 C1270 0.930 . S
H1286 C1291 0.930 . S
H1287 C1266 0.930 . S
H1288 C1299 0.931 . S
N1289 Tb1260 2.617 1_565 S
N1289 C1290 1.379 . S
N1289 C1293 1.334 . S
C1290 N1289 1.379 . S
C1290 C1292 1.416 . S
C1290 C1298 1.424 . S
C1291 H1286 0.930 . S
C1291 C1293 1.390 . S
C1291 C1294 1.339 . S
C1292 C1290 1.416 . S
C1292 C1294 1.416 . S
C1292 C1325 1.448 . S
C1293 H1278 0.930 . S
C1293 N1289 1.334 . S
C1293 C1291 1.390 . S
C1294 C1291 1.339 . S
C1294 C1292 1.416 . S
C1294 H1301 0.930 . S
N1295 Tb1260 2.572 1_565 S
N1295 C1296 1.340 . S
N1295 C1298 1.361 . S
C1296 H1282 0.930 . S
C1296 N1295 1.340 . S
C1296 C1300 1.407 . S
C1297 C1298 1.413 . S
C1297 C1299 1.416 . S
C1297 C1326 1.427 . S
C1298 C1290 1.424 . S
C1298 N1295 1.361 . S
C1298 C1297 1.413 . S
C1299 H1288 0.931 . S
C1299 C1297 1.416 . S
C1299 C1300 1.332 . S
C1300 H1279 0.929 . S
C1300 C1296 1.407 . S
C1300 C1299 1.332 . S
H1301 C1294 0.930 . S
H1302 C1325 0.930 . S
H1303 C1326 0.929 . S
O1304 Tb1260 2.465 . S
O1304 C1324 1.264 . S
O1305 Tb1260 2.387 1_565 S
O1305 C1316 1.264 . S
O1306 Tb1271 2.349 1_565 S
O1306 C1316 1.243 . S
O1307 Tb1260 2.428 . S
O1307 C1324 1.256 . S
O1308 Tb1260 2.308 . S
O1308 C1323 1.266 . S
O1309 Tb1271 2.393 . S
O1309 C1323 1.248 . S
O1310 Tb1271 2.465 . S
O1310 C1335 1.264 . S
O1311 Tb1271 2.387 . S
O1311 C1327 1.264 . S
O1312 Tb1260 2.349 . S
O1312 C1327 1.243 . S
O1313 Tb1271 2.428 . S
O1313 C1335 1.256 . S
O1314 Tb1271 2.308 . S
O1314 C1334 1.266 . S
O1315 Tb1260 2.393 . S
O1315 C1334 1.253 . S
C1316 O1305 1.264 . S
C1316 O1306 1.243 . S
C1317 C1320 1.399 . S
C1317 C1322 1.383 . S
C1317 C1324 1.496 . S
C1318 C1319 1.399 . S
C1318 C1322 1.389 . S
C1319 C1318 1.399 . S
C1319 C1321 1.380 . S
C1319 H1336 0.929 . S
C1320 C1317 1.399 . S
C1320 C1321 1.392 . S
C1320 H1337 0.929 . S
C1321 C1319 1.380 . S
C1321 C1320 1.392 . S
C1321 H1338 0.929 . S
C1322 C1317 1.383 . S
C1322 C1318 1.389 . S
C1322 H1339 0.931 . S
C1323 O1308 1.266 . S
C1323 O1309 1.248 . S
C1324 Tb1260 2.802 . S
C1324 O1304 1.264 . S
C1324 O1307 1.256 . S
C1324 C1317 1.496 . S
C1325 C1292 1.448 . S
C1325 H1302 0.930 . S
C1325 C1326 1.328 . S
C1326 C1297 1.427 . S
C1326 H1303 0.929 . S
C1326 C1325 1.328 . S
C1327 O1311 1.264 . S
C1327 O1312 1.243 . S
C1328 C1331 1.399 . S
C1328 C1332 1.383 . S
C1328 C1335 1.496 . S
C1329 C1330 1.399 1_565 S
C1329 C1332 1.389 1_565 S
C1330 C1329 1.399 1_545 S
C1330 C1333 1.380 . S
C1330 H1340 0.929 . S
C1331 C1328 1.399 . S
C1331 C1333 1.392 . S
C1331 H1341 0.929 . S
C1332 C1328 1.383 . S
C1332 C1329 1.389 1_545 S
C1332 H1342 0.933 . S
C1333 C1330 1.380 . S
C1333 C1331 1.392 . S
C1333 H1343 0.929 . S
C1334 O1314 1.266 . S
C1334 O1315 1.253 . S
C1335 Tb1271 2.802 . S
C1335 O1310 1.264 . S
C1335 O1313 1.256 . S
C1335 C1328 1.496 . S
H1336 C1319 0.929 . S
H1337 C1320 0.929 . S
H1338 C1321 0.929 . S
H1339 C1322 0.931 . S
H1340 C1330 0.929 . S
H1341 C1331 0.929 . S
H1342 C1332 0.933 . S
H1343 C1333 0.929 . S
H1344 C1356 0.930 . S
H1345 C1358 0.930 . S
H1346 C1359 0.930 . S
H1347 C1363 0.959 . S
H1348 C1363 0.959 . S
H1349 C1363 0.961 . S
H1350 C1364 0.960 . S
H1351 C1364 0.961 . S
H1352 C1364 0.959 . S
H1353 C1367 0.929 . S
H1354 C1368 0.931 . S
H1355 C1370 0.930 . S
C1356 H1344 0.930 . S
C1356 C1357 1.399 . S
C1356 C1361 1.399 . S
C1357 C1356 1.399 . S
C1357 C1358 1.376 . S
C1358 H1345 0.930 . S
C1358 C1357 1.376 . S
C1358 C1359 1.388 . S
C1359 H1346 0.930 . S
C1359 C1358 1.388 . S
C1359 C1360 1.390 . S
C1360 C1359 1.390 . S
C1360 C1361 1.394 . S
C1360 C1366 1.465 . S
C1361 C1356 1.399 . S
C1361 C1360 1.394 . S
C1361 C1362 1.516 . S
C1362 C1361 1.516 . S
C1362 C1363 1.502 . S
C1362 C1364 1.561 . S
C1362 C1365 1.526 . S
C1363 H1347 0.959 . S
C1363 H1348 0.959 . S
C1363 H1349 0.961 . S
C1363 C1362 1.502 . S
C1364 H1350 0.960 . S
C1364 H1351 0.961 . S
C1364 H1352 0.959 . S
C1364 C1362 1.561 . S
C1365 C1362 1.526 . S
C1365 C1366 1.396 . S
C1365 C1370 1.390 . S
C1366 C1360 1.465 . S
C1366 C1365 1.396 . S
C1366 C1367 1.399 . S
C1367 H1353 0.929 . S
C1367 C1366 1.399 . S
C1367 C1368 1.385 . S
C1368 H1354 0.931 . S
C1368 C1367 1.385 . S
C1368 C1369 1.389 . S
C1369 C1368 1.389 . S
C1369 C1370 1.387 . S
C1370 H1355 0.930 . S
C1370 C1365 1.390 . S
C1370 C1369 1.387 . S
H1371 C1383 0.930 . S
H1372 C1385 0.930 . S
H1373 C1386 0.930 . S
H1374 C1390 0.959 . S
H1375 C1390 0.959 . S
H1376 C1390 0.961 . S
H1377 C1391 0.960 . S
H1378 C1391 0.961 . S
H1379 C1391 0.959 . S
H1380 C1394 0.929 . S
H1381 C1395 0.931 . S
H1382 C1397 0.930 . S
C1383 H1371 0.930 . S
C1383 C1384 1.399 . S
C1383 C1388 1.399 . S
C1384 C1383 1.399 . S
C1384 C1385 1.376 . S
C1385 H1372 0.930 . S
C1385 C1384 1.376 . S
C1385 C1386 1.388 . S
C1386 H1373 0.930 . S
C1386 C1385 1.388 . S
C1386 C1387 1.390 . S
C1387 C1386 1.390 . S
C1387 C1388 1.394 . S
C1387 C1393 1.465 . S
C1388 C1383 1.399 . S
C1388 C1387 1.394 . S
C1388 C1389 1.516 . S
C1389 C1388 1.516 . S
C1389 C1390 1.502 . S
C1389 C1391 1.561 . S
C1389 C1392 1.526 . S
C1390 H1374 0.959 . S
C1390 H1375 0.959 . S
C1390 H1376 0.961 . S
C1390 C1389 1.502 . S
C1391 H1377 0.960 . S
C1391 H1378 0.961 . S
C1391 H1379 0.959 . S
C1391 C1389 1.561 . S
C1392 C1389 1.526 . S
C1392 C1393 1.396 . S
C1392 C1397 1.390 . S
C1393 C1387 1.465 . S
C1393 C1392 1.396 . S
C1393 C1394 1.399 . S
C1394 H1380 0.929 . S
C1394 C1393 1.399 . S
C1394 C1395 1.385 . S
C1395 H1381 0.931 . S
C1395 C1394 1.385 . S
C1395 C1396 1.389 . S
C1396 C1395 1.389 . S
C1396 C1397 1.387 . S
C1397 H1382 0.930 . S
C1397 C1392 1.390 . S
C1397 C1396 1.387 . S
H1398 C1410 0.930 . S
H1399 C1412 0.930 . S
H1400 C1413 0.930 . S
H1401 C1417 0.959 . S
H1402 C1417 0.959 . S
H1403 C1417 0.961 . S
H1404 C1418 0.960 . S
H1405 C1418 0.961 . S
H1406 C1418 0.959 . S
H1407 C1421 0.929 . S
H1408 C1422 0.931 . S
H1409 C1424 0.930 . S
C1410 H1398 0.930 . S
C1410 C1411 1.399 . S
C1410 C1415 1.399 . S
C1411 C1410 1.399 . S
C1411 C1412 1.376 . S
C1412 H1399 0.930 . S
C1412 C1411 1.376 . S
C1412 C1413 1.388 . S
C1413 H1400 0.930 . S
C1413 C1412 1.388 . S
C1413 C1414 1.390 . S
C1414 C1413 1.390 . S
C1414 C1415 1.394 . S
C1414 C1420 1.465 . S
C1415 C1410 1.399 . S
C1415 C1414 1.394 . S
C1415 C1416 1.516 . S
C1416 C1415 1.516 . S
C1416 C1417 1.502 . S
C1416 C1418 1.561 . S
C1416 C1419 1.526 . S
C1417 H1401 0.959 . S
C1417 H1402 0.959 . S
C1417 H1403 0.961 . S
C1417 C1416 1.502 . S
C1418 H1404 0.960 . S
C1418 H1405 0.961 . S
C1418 H1406 0.959 . S
C1418 C1416 1.561 . S
C1419 C1416 1.526 . S
C1419 C1420 1.396 . S
C1419 C1424 1.390 . S
C1420 C1414 1.465 . S
C1420 C1419 1.396 . S
C1420 C1421 1.399 . S
C1421 H1407 0.929 . S
C1421 C1420 1.399 . S
C1421 C1422 1.385 . S
C1422 H1408 0.931 . S
C1422 C1421 1.385 . S
C1422 C1423 1.389 . S
C1423 C1422 1.389 . S
C1423 C1424 1.387 . S
C1424 H1409 0.930 . S
C1424 C1419 1.390 . S
C1424 C1423 1.387 . S
H1425 C1437 0.930 . S
H1426 C1439 0.930 . S
H1427 C1440 0.930 . S
H1428 C1444 0.959 . S
H1429 C1444 0.959 . S
H1430 C1444 0.961 . S
H1431 C1445 0.960 . S
H1432 C1445 0.961 . S
H1433 C1445 0.959 . S
H1434 C1448 0.929 . S
H1435 C1449 0.931 . S
H1436 C1451 0.930 1_556 S
C1437 H1425 0.930 . S
C1437 C1438 1.399 . S
C1437 C1442 1.399 . S
C1438 C1437 1.399 . S
C1438 C1439 1.376 1_556 S
C1439 H1426 0.930 . S
C1439 C1438 1.376 1_554 S
C1439 C1440 1.388 . S
C1440 H1427 0.930 . S
C1440 C1439 1.388 . S
C1440 C1441 1.390 . S
C1441 C1440 1.390 . S
C1441 C1442 1.394 1_554 S
C1441 C1447 1.465 1_655 S
C1442 C1437 1.399 . S
C1442 C1441 1.394 1_556 S
C1442 C1443 1.516 . S
C1443 C1442 1.516 . S
C1443 C1444 1.502 1_655 S
C1443 C1445 1.561 . S
C1443 C1446 1.526 1_655 S
C1444 H1428 0.959 . S
C1444 H1429 0.959 . S
C1444 H1430 0.961 . S
C1444 C1443 1.502 1_455 S
C1445 H1431 0.960 . S
C1445 H1432 0.961 . S
C1445 H1433 0.959 . S
C1445 C1443 1.561 . S
C1446 C1443 1.526 1_455 S
C1446 C1447 1.396 1_556 S
C1446 C1451 1.390 1_556 S
C1447 C1441 1.465 1_455 S
C1447 C1446 1.396 1_554 S
C1447 C1448 1.399 . S
C1448 H1434 0.929 . S
C1448 C1447 1.399 . S
C1448 C1449 1.385 . S
C1449 H1435 0.931 . S
C1449 C1448 1.385 . S
C1449 C1450 1.389 . S
C1450 C1449 1.389 . S
C1450 C1451 1.387 . S
C1451 H1436 0.930 1_554 S
C1451 C1446 1.390 1_554 S
C1451 C1450 1.387 . S
H1452 C1464 0.930 . S
H1453 C1466 0.930 . S
H1454 C1467 0.930 . S
H1455 C1471 0.959 . S
H1456 C1471 0.959 . S
H1457 C1471 0.961 . S
H1458 C1472 0.960 . S
H1459 C1472 0.961 . S
H1460 C1472 0.959 . S
H1461 C1475 0.929 . S
H1462 C1476 0.931 . S
H1463 C1478 0.930 . S
C1464 H1452 0.930 . S
C1464 C1465 1.399 . S
C1464 C1469 1.399 . S
C1465 C1464 1.399 . S
C1465 C1466 1.376 . S
C1466 H1453 0.930 . S
C1466 C1465 1.376 . S
C1466 C1467 1.388 . S
C1467 H1454 0.930 . S
C1467 C1466 1.388 . S
C1467 C1468 1.390 . S
C1468 C1467 1.390 . S
C1468 C1469 1.394 . S
C1468 C1474 1.465 . S
C1469 C1464 1.399 . S
C1469 C1468 1.394 . S
C1469 C1470 1.516 . S
C1470 C1469 1.516 . S
C1470 C1471 1.502 . S
C1470 C1472 1.561 . S
C1470 C1473 1.526 . S
C1471 H1455 0.959 . S
C1471 H1456 0.959 . S
C1471 H1457 0.961 . S
C1471 C1470 1.502 . S
C1472 H1458 0.960 . S
C1472 H1459 0.961 . S
C1472 H1460 0.959 . S
C1472 C1470 1.561 . S
C1473 C1470 1.526 . S
C1473 C1474 1.396 . S
C1473 C1478 1.390 . S
C1474 C1468 1.465 . S
C1474 C1473 1.396 . S
C1474 C1475 1.399 . S
C1475 H1461 0.929 . S
C1475 C1474 1.399 . S
C1475 C1476 1.385 . S
C1476 H1462 0.931 . S
C1476 C1475 1.385 . S
C1476 C1477 1.389 . S
C1477 C1476 1.389 . S
C1477 C1478 1.387 . S
C1478 H1463 0.930 . S
C1478 C1473 1.390 . S
C1478 C1477 1.387 . S
H1479 C1491 0.930 . S
H1480 C1493 0.930 . S
H1481 C1494 0.930 . S
H1482 C1498 0.959 . S
H1483 C1498 0.959 . S
H1484 C1498 0.961 . S
H1485 C1499 0.960 . S
H1486 C1499 0.961 . S
H1487 C1499 0.959 . S
H1488 C1502 0.929 . S
H1489 C1503 0.931 . S
H1490 C1505 0.930 . S
C1491 H1479 0.930 . S
C1491 C1492 1.399 . S
C1491 C1496 1.399 . S
C1492 C1491 1.399 . S
C1492 C1493 1.376 . S
C1493 H1480 0.930 . S
C1493 C1492 1.376 . S
C1493 C1494 1.388 . S
C1494 H1481 0.930 . S
C1494 C1493 1.388 . S
C1494 C1495 1.390 . S
C1495 C1494 1.390 . S
C1495 C1496 1.394 . S
C1495 C1501 1.465 . S
C1496 C1491 1.399 . S
C1496 C1495 1.394 . S
C1496 C1497 1.516 . S
C1497 C1496 1.516 . S
C1497 C1498 1.502 . S
C1497 C1499 1.561 . S
C1497 C1500 1.526 . S
C1498 H1482 0.959 . S
C1498 H1483 0.959 . S
C1498 H1484 0.961 . S
C1498 C1497 1.502 . S
C1499 H1485 0.960 . S
C1499 H1486 0.961 . S
C1499 H1487 0.959 . S
C1499 C1497 1.561 . S
C1500 C1497 1.526 . S
C1500 C1501 1.396 . S
C1500 C1505 1.390 . S
C1501 C1495 1.465 . S
C1501 C1500 1.396 . S
C1501 C1502 1.399 . S
C1502 H1488 0.929 . S
C1502 C1501 1.399 . S
C1502 C1503 1.385 . S
C1503 H1489 0.931 . S
C1503 C1502 1.385 . S
C1503 C1504 1.389 . S
C1504 C1503 1.389 . S
C1504 C1505 1.387 . S
C1505 H1490 0.930 . S
C1505 C1500 1.390 . S
C1505 C1504 1.387 . S
H1506 C1518 0.930 1_556 S
H1507 C1520 0.930 . S
H1508 C1521 0.930 1_545 S
H1509 C1525 0.959 . S
H1510 C1525 0.959 . S
H1511 C1525 0.961 . S
H1512 C1526 0.960 . S
H1513 C1526 0.960 . S
H1514 C1526 0.959 . S
H1515 C1529 0.930 . S
H1516 C1530 0.930 1_554 S
H1517 C1532 0.930 . S
C1518 H1506 0.930 1_554 S
C1518 C1519 1.399 . S
C1518 C1523 1.399 1_554 S
C1519 C1518 1.399 . S
C1519 C1520 1.376 . S
C1520 H1507 0.930 . S
C1520 C1519 1.376 . S
C1520 C1521 1.388 . S
C1521 H1508 0.930 1_565 S
C1521 C1520 1.388 . S
C1521 C1522 1.390 . S
C1522 C1521 1.390 . S
C1522 C1523 1.394 1_554 S
C1522 C1528 1.478 1_565 S
C1523 C1518 1.399 1_556 S
C1523 C1522 1.394 1_556 S
C1523 C1524 1.516 1_655 S
C1524 C1523 1.516 1_455 S
C1524 C1525 1.502 . S
C1524 C1526 1.561 1_455 S
C1524 C1527 1.526 1_565 S
C1525 H1509 0.959 . S
C1525 H1510 0.959 . S
C1525 H1511 0.961 . S
C1525 C1524 1.502 . S
C1526 H1512 0.960 . S
C1526 H1513 0.960 . S
C1526 H1514 0.959 . S
C1526 C1524 1.561 1_655 S
C1527 C1524 1.526 1_545 S
C1527 C1528 1.382 1_456 S
C1527 C1532 1.390 . S
C1528 C1522 1.478 1_545 S
C1528 C1527 1.382 1_654 S
C1528 C1529 1.399 . S
C1529 H1515 0.930 . S
C1529 C1528 1.399 . S
C1529 C1530 1.384 1_654 S
C1530 H1516 0.930 1_556 S
C1530 C1529 1.384 1_456 S
C1530 C1531 1.392 . S
C1531 C1530 1.392 . S
C1531 C1532 1.387 . S
C1532 H1517 0.930 . S
C1532 C1527 1.390 . S
C1532 C1531 1.387 . S
H1533 C1545 0.930 . S
H1534 C1547 0.930 . S
H1535 C1548 0.930 . S
H1536 C1552 0.959 . S
H1537 C1552 0.959 . S
H1538 C1552 0.961 1_565 S
H1539 C1553 0.960 . S
H1540 C1553 0.961 . S
H1541 C1553 0.959 . S
H1542 C1556 0.929 . S
H1543 C1557 0.931 . S
H1544 C1559 0.930 . S
C1545 H1533 0.930 . S
C1545 C1546 1.399 . S
C1545 C1550 1.399 . S
C1546 C1545 1.399 . S
C1546 C1547 1.376 . S
C1547 H1534 0.930 . S
C1547 C1546 1.376 . S
C1547 C1548 1.388 . S
C1548 H1535 0.930 . S
C1548 C1547 1.388 . S
C1548 C1549 1.390 . S
C1549 C1548 1.390 . S
C1549 C1550 1.394 . S
C1549 C1555 1.465 1_565 S
C1550 C1545 1.399 . S
C1550 C1549 1.394 . S
C1550 C1551 1.516 . S
C1551 C1550 1.516 . S
C1551 C1552 1.502 1_565 S
C1551 C1553 1.561 . S
C1551 C1554 1.526 1_565 S
C1552 H1536 0.959 . S
C1552 H1537 0.959 . S
C1552 H1538 0.961 1_545 S
C1552 C1551 1.502 1_545 S
C1553 H1539 0.960 . S
C1553 H1540 0.961 . S
C1553 H1541 0.959 . S
C1553 C1551 1.561 . S
C1554 C1551 1.526 1_545 S
C1554 C1555 1.396 . S
C1554 C1559 1.390 . S
C1555 C1549 1.465 1_545 S
C1555 C1554 1.396 . S
C1555 C1556 1.399 . S
C1556 H1542 0.929 . S
C1556 C1555 1.399 . S
C1556 C1557 1.385 . S
C1557 H1543 0.931 . S
C1557 C1556 1.385 . S
C1557 C1558 1.389 . S
C1558 C1557 1.389 . S
C1558 C1559 1.387 . S
C1559 H1544 0.930 . S
C1559 C1554 1.390 . S
C1559 C1558 1.387 . S
H1560 C1572 0.930 . S
H1561 C1574 0.930 . S
H1562 C1575 0.930 1_565 S
H1563 C1579 0.959 . S
H1564 C1579 0.959 . S
H1565 C1579 0.961 . S
H1566 C1580 0.960 . S
H1567 C1580 0.961 . S
H1568 C1580 0.959 . S
H1569 C1583 0.929 1_565 S
H1570 C1584 0.931 1_565 S
H1571 C1586 0.930 . S
C1572 H1560 0.930 . S
C1572 C1573 1.399 . S
C1572 C1577 1.399 . S
C1573 C1572 1.399 . S
C1573 C1574 1.376 . S
C1574 H1561 0.930 . S
C1574 C1573 1.376 . S
C1574 C1575 1.388 . S
C1575 H1562 0.930 1_545 S
C1575 C1574 1.388 . S
C1575 C1576 1.390 . S
C1576 C1575 1.390 . S
C1576 C1577 1.394 . S
C1576 C1582 1.465 . S
C1577 C1572 1.399 . S
C1577 C1576 1.394 . S
C1577 C1578 1.516 . S
C1578 C1577 1.516 . S
C1578 C1579 1.502 . S
C1578 C1580 1.561 . S
C1578 C1581 1.526 . S
C1579 H1563 0.959 . S
C1579 H1564 0.959 . S
C1579 H1565 0.961 . S
C1579 C1578 1.502 . S
C1580 H1566 0.960 . S
C1580 H1567 0.961 . S
C1580 H1568 0.959 . S
C1580 C1578 1.561 . S
C1581 C1578 1.526 . S
C1581 C1582 1.396 . S
C1581 C1586 1.390 1_556 S
C1582 C1576 1.465 . S
C1582 C1581 1.396 . S
C1582 C1583 1.399 . S
C1583 H1569 0.929 1_545 S
C1583 C1582 1.399 . S
C1583 C1584 1.385 1_556 S
C1584 H1570 0.931 1_545 S
C1584 C1583 1.385 1_554 S
C1584 C1585 1.389 . S
C1585 C1584 1.389 . S
C1585 C1586 1.387 . S
C1586 H1571 0.930 . S
C1586 C1581 1.390 1_554 S
C1586 C1585 1.387 . S
H1587 C1599 0.930 . S
H1588 C1601 0.930 . S
H1589 C1602 0.930 . S
H1590 C1606 0.959 . S
H1591 C1606 0.959 . S
H1592 C1606 0.961 . S
H1593 C1607 0.960 . S
H1594 C1607 0.961 . S
H1595 C1607 0.959 . S
H1596 C1610 0.929 . S
H1597 C1611 0.931 . S
H1598 C1613 0.930 . S
C1599 H1587 0.930 . S
C1599 C1600 1.399 . S
C1599 C1604 1.399 . S
C1600 C1599 1.399 . S
C1600 C1601 1.376 . S
C1601 H1588 0.930 . S
C1601 C1600 1.376 . S
C1601 C1602 1.388 . S
C1602 H1589 0.930 . S
C1602 C1601 1.388 . S
C1602 C1603 1.390 . S
C1603 C1602 1.390 . S
C1603 C1604 1.394 . S
C1603 C1609 1.465 . S
C1604 C1599 1.399 . S
C1604 C1603 1.394 . S
C1604 C1605 1.516 . S
C1605 C1604 1.516 . S
C1605 C1606 1.502 . S
C1605 C1607 1.561 . S
C1605 C1608 1.526 . S
C1606 H1590 0.959 . S
C1606 H1591 0.959 . S
C1606 H1592 0.961 . S
C1606 C1605 1.502 . S
C1607 H1593 0.960 . S
C1607 H1594 0.961 . S
C1607 H1595 0.959 . S
C1607 C1605 1.561 . S
C1608 C1605 1.526 . S
C1608 C1609 1.396 . S
C1608 C1613 1.390 . S
C1609 C1603 1.465 . S
C1609 C1608 1.396 . S
C1609 C1610 1.399 . S
C1610 H1596 0.929 . S
C1610 C1609 1.399 . S
C1610 C1611 1.385 . S
C1611 H1597 0.931 . S
C1611 C1610 1.385 . S
C1611 C1612 1.389 . S
C1612 C1611 1.389 . S
C1612 C1613 1.387 . S
C1613 H1598 0.930 . S
C1613 C1608 1.390 . S
C1613 C1612 1.387 . S
H1614 C1626 0.930 . S
H1615 C1628 0.930 1_545 S
H1616 C1629 0.930 1_545 S
H1617 C1633 0.959 . S
H1618 C1633 0.959 . S
H1619 C1633 0.961 . S
H1620 C1634 0.960 . S
H1621 C1634 0.961 . S
H1622 C1634 0.959 . S
H1623 C1637 0.929 1_545 S
H1624 C1638 0.931 1_545 S
H1625 C1640 0.930 . S
C1626 H1614 0.930 . S
C1626 C1627 1.399 . S
C1626 C1631 1.399 . S
C1627 C1626 1.399 . S
C1627 C1628 1.376 . S
C1628 H1615 0.930 1_565 S
C1628 C1627 1.376 . S
C1628 C1629 1.388 . S
C1629 H1616 0.930 1_565 S
C1629 C1628 1.388 . S
C1629 C1630 1.390 . S
C1630 C1629 1.390 . S
C1630 C1631 1.394 . S
C1630 C1636 1.465 . S
C1631 C1626 1.399 . S
C1631 C1630 1.394 . S
C1631 C1632 1.516 . S
C1632 C1631 1.516 . S
C1632 C1633 1.502 . S
C1632 C1634 1.561 . S
C1632 C1635 1.526 . S
C1633 H1617 0.959 . S
C1633 H1618 0.959 . S
C1633 H1619 0.961 . S
C1633 C1632 1.502 . S
C1634 H1620 0.960 . S
C1634 H1621 0.961 . S
C1634 H1622 0.959 . S
C1634 C1632 1.561 . S
C1635 C1632 1.526 . S
C1635 C1636 1.396 . S
C1635 C1640 1.390 . S
C1636 C1630 1.465 . S
C1636 C1635 1.396 . S
C1636 C1637 1.399 . S
C1637 H1623 0.929 1_565 S
C1637 C1636 1.399 . S
C1637 C1638 1.385 . S
C1638 H1624 0.931 1_565 S
C1638 C1637 1.385 . S
C1638 C1639 1.389 . S
C1639 C1638 1.389 . S
C1639 C1640 1.387 . S
C1640 H1625 0.930 . S
C1640 C1635 1.390 . S
C1640 C1639 1.387 . S
H1641 C1653 0.930 . S
H1642 C1655 0.930 . S
H1643 C1656 0.930 . S
H1644 C1660 0.959 . S
H1645 C1660 0.959 . S
H1646 C1660 0.961 . S
H1647 C1661 0.960 . S
H1648 C1661 0.961 . S
H1649 C1661 0.959 . S
H1650 C1664 0.929 . S
H1651 C1665 0.931 . S
H1652 C1667 0.930 . S
C1653 H1641 0.930 . S
C1653 C1654 1.399 . S
C1653 C1658 1.399 . S
C1654 C1653 1.399 . S
C1654 C1655 1.376 . S
C1655 H1642 0.930 . S
C1655 C1654 1.376 . S
C1655 C1656 1.388 . S
C1656 H1643 0.930 . S
C1656 C1655 1.388 . S
C1656 C1657 1.390 . S
C1657 C1656 1.390 . S
C1657 C1658 1.394 . S
C1657 C1663 1.465 . S
C1658 C1653 1.399 . S
C1658 C1657 1.394 . S
C1658 C1659 1.516 . S
C1659 C1658 1.516 . S
C1659 C1660 1.502 . S
C1659 C1661 1.561 . S
C1659 C1662 1.526 . S
C1660 H1644 0.959 . S
C1660 H1645 0.959 . S
C1660 H1646 0.961 . S
C1660 C1659 1.502 . S
C1661 H1647 0.960 . S
C1661 H1648 0.961 . S
C1661 H1649 0.959 . S
C1661 C1659 1.561 . S
C1662 C1659 1.526 . S
C1662 C1663 1.396 . S
C1662 C1667 1.390 . S
C1663 C1657 1.465 . S
C1663 C1662 1.396 . S
C1663 C1664 1.399 . S
C1664 H1650 0.929 . S
C1664 C1663 1.399 . S
C1664 C1665 1.385 . S
C1665 H1651 0.931 . S
C1665 C1664 1.385 . S
C1665 C1666 1.389 . S
C1666 C1665 1.389 . S
C1666 C1667 1.387 . S
C1667 H1652 0.930 . S
C1667 C1662 1.390 . S
C1667 C1666 1.387 . S
H1668 C1680 0.930 . S
H1669 C1682 0.930 . S
H1670 C1683 0.930 . S
H1671 C1687 0.959 . S
H1672 C1687 0.959 1_545 S
H1673 C1687 0.961 1_545 S
H1674 C1688 0.960 . S
H1675 C1688 0.961 . S
H1676 C1688 0.959 . S
H1677 C1691 0.929 1_554 S
H1678 C1692 0.931 . S
H1679 C1694 0.930 . S
C1680 H1668 0.930 . S
C1680 C1681 1.399 . S
C1680 C1685 1.399 . S
C1681 C1680 1.399 . S
C1681 C1682 1.376 . S
C1682 H1669 0.930 . S
C1682 C1681 1.376 . S
C1682 C1683 1.388 . S
C1683 H1670 0.930 . S
C1683 C1682 1.388 . S
C1683 C1684 1.390 . S
C1684 C1683 1.390 . S
C1684 C1685 1.394 . S
C1684 C1690 1.465 . S
C1685 C1680 1.399 . S
C1685 C1684 1.394 . S
C1685 C1686 1.516 . S
C1686 C1685 1.516 . S
C1686 C1687 1.502 . S
C1686 C1688 1.561 1_565 S
C1686 C1689 1.526 . S
C1687 H1671 0.959 . S
C1687 H1672 0.959 1_565 S
C1687 H1673 0.961 1_565 S
C1687 C1686 1.502 . S
C1688 H1674 0.960 . S
C1688 H1675 0.961 . S
C1688 H1676 0.959 . S
C1688 C1686 1.561 1_545 S
C1689 C1686 1.526 . S
C1689 C1690 1.396 . S
C1689 C1694 1.390 1_554 S
C1690 C1684 1.465 . S
C1690 C1689 1.396 . S
C1690 C1691 1.397 1_554 S
C1691 H1677 0.929 1_556 S
C1691 C1690 1.397 1_556 S
C1691 C1692 1.387 . S
C1692 H1678 0.931 . S
C1692 C1691 1.387 . S
C1692 C1693 1.389 . S
C1693 C1692 1.389 . S
C1693 C1694 1.387 . S
C1694 H1679 0.930 . S
C1694 C1689 1.390 1_556 S
C1694 C1693 1.387 . S
H1695 C1707 0.930 . S
H1696 C1709 0.930 . S
H1697 C1710 0.930 . S
H1698 C1714 0.959 . S
H1699 C1714 0.959 . S
H1700 C1714 0.961 . S
H1701 C1715 0.960 . S
H1702 C1715 0.961 . S
H1703 C1715 0.959 . S
H1704 C1718 0.929 . S
H1705 C1719 0.931 . S
H1706 C1721 0.930 . S
C1707 H1695 0.930 . S
C1707 C1708 1.399 . S
C1707 C1712 1.399 . S
C1708 C1707 1.399 . S
C1708 C1709 1.376 . S
C1709 H1696 0.930 . S
C1709 C1708 1.376 . S
C1709 C1710 1.388 . S
C1710 H1697 0.930 . S
C1710 C1709 1.388 . S
C1710 C1711 1.390 . S
C1711 C1710 1.390 . S
C1711 C1712 1.394 . S
C1711 C1717 1.465 . S
C1712 C1707 1.399 . S
C1712 C1711 1.394 . S
C1712 C1713 1.516 . S
C1713 C1712 1.516 . S
C1713 C1714 1.502 . S
C1713 C1715 1.561 . S
C1713 C1716 1.526 . S
C1714 H1698 0.959 . S
C1714 H1699 0.959 . S
C1714 H1700 0.961 . S
C1714 C1713 1.502 . S
C1715 H1701 0.960 . S
C1715 H1702 0.961 . S
C1715 H1703 0.959 . S
C1715 C1713 1.561 . S
C1716 C1713 1.526 . S
C1716 C1717 1.396 . S
C1716 C1721 1.390 . S
C1717 C1711 1.465 . S
C1717 C1716 1.396 . S
C1717 C1718 1.399 . S
C1718 H1704 0.929 . S
C1718 C1717 1.399 . S
C1718 C1719 1.385 . S
C1719 H1705 0.931 . S
C1719 C1718 1.385 . S
C1719 C1720 1.389 . S
C1720 C1719 1.389 . S
C1720 C1721 1.387 . S
C1721 H1706 0.930 . S
C1721 C1716 1.390 . S
C1721 C1720 1.387 . S
H1722 C1734 0.930 . S
H1723 C1736 0.930 . S
H1724 C1737 0.930 . S
H1725 C1741 0.959 1_545 S
H1726 C1741 0.959 . S
H1727 C1741 0.961 . S
H1728 C1742 0.960 . S
H1729 C1742 0.961 . S
H1730 C1742 0.959 . S
H1731 C1745 0.929 . S
H1732 C1746 0.931 . S
H1733 C1748 0.930 . S
C1734 H1722 0.930 . S
C1734 C1735 1.399 . S
C1734 C1739 1.399 . S
C1735 C1734 1.399 . S
C1735 C1736 1.376 . S
C1736 H1723 0.930 . S
C1736 C1735 1.376 . S
C1736 C1737 1.388 . S
C1737 H1724 0.930 . S
C1737 C1736 1.388 . S
C1737 C1738 1.390 . S
C1738 C1737 1.390 . S
C1738 C1739 1.394 . S
C1738 C1744 1.465 . S
C1739 C1734 1.399 . S
C1739 C1738 1.394 . S
C1739 C1740 1.516 . S
C1740 C1739 1.516 . S
C1740 C1741 1.502 1_545 S
C1740 C1742 1.561 1_545 S
C1740 C1743 1.526 . S
C1741 H1725 0.959 1_565 S
C1741 H1726 0.959 . S
C1741 H1727 0.961 . S
C1741 C1740 1.502 1_565 S
C1742 H1728 0.960 . S
C1742 H1729 0.961 . S
C1742 H1730 0.959 . S
C1742 C1740 1.561 1_565 S
C1743 C1740 1.526 . S
C1743 C1744 1.396 . S
C1743 C1748 1.390 . S
C1744 C1738 1.465 . S
C1744 C1743 1.396 . S
C1744 C1745 1.399 . S
C1745 H1731 0.929 . S
C1745 C1744 1.399 . S
C1745 C1746 1.385 . S
C1746 H1732 0.931 . S
C1746 C1745 1.385 . S
C1746 C1747 1.389 . S
C1747 C1746 1.389 . S
C1747 C1748 1.387 . S
C1748 H1733 0.930 . S
C1748 C1743 1.390 . S
C1748 C1747 1.387 . S
H1749 C1761 0.930 . S
H1750 C1763 0.930 . S
H1751 C1764 0.930 . S
H1752 C1768 0.959 . S
H1753 C1768 0.959 . S
H1754 C1768 0.961 . S
H1755 C1769 0.960 . S
H1756 C1769 0.961 . S
H1757 C1769 0.959 . S
H1758 C1772 0.929 . S
H1759 C1773 0.931 . S
H1760 C1775 0.930 . S
C1761 H1749 0.930 . S
C1761 C1762 1.399 . S
C1761 C1766 1.399 . S
C1762 C1761 1.399 . S
C1762 C1763 1.376 . S
C1763 H1750 0.930 . S
C1763 C1762 1.376 . S
C1763 C1764 1.388 . S
C1764 H1751 0.930 . S
C1764 C1763 1.388 . S
C1764 C1765 1.390 . S
C1765 C1764 1.390 . S
C1765 C1766 1.394 . S
C1765 C1771 1.465 . S
C1766 C1761 1.399 . S
C1766 C1765 1.394 . S
C1766 C1767 1.516 . S
C1767 C1766 1.516 . S
C1767 C1768 1.502 . S
C1767 C1769 1.561 . S
C1767 C1770 1.526 . S
C1768 H1752 0.959 . S
C1768 H1753 0.959 . S
C1768 H1754 0.961 . S
C1768 C1767 1.502 . S
C1769 H1755 0.960 . S
C1769 H1756 0.961 . S
C1769 H1757 0.959 . S
C1769 C1767 1.561 . S
C1770 C1767 1.526 . S
C1770 C1771 1.396 . S
C1770 C1775 1.390 . S
C1771 C1765 1.465 . S
C1771 C1770 1.396 . S
C1771 C1772 1.399 . S
C1772 H1758 0.929 . S
C1772 C1771 1.399 . S
C1772 C1773 1.385 . S
C1773 H1759 0.931 . S
C1773 C1772 1.385 . S
C1773 C1774 1.389 . S
C1774 C1773 1.389 . S
C1774 C1775 1.387 . S
C1775 H1760 0.930 . S
C1775 C1770 1.390 . S
C1775 C1774 1.387 . S
H1776 C1788 0.930 . S
H1777 C1790 0.930 . S
H1778 C1791 0.930 . S
H1779 C1795 0.959 . S
H1780 C1795 0.959 . S
H1781 C1795 0.961 . S
H1782 C1796 0.960 . S
H1783 C1796 0.961 . S
H1784 C1796 0.959 . S
H1785 C1799 0.929 . S
H1786 C1800 0.931 . S
H1787 C1802 0.930 . S
C1788 H1776 0.930 . S
C1788 C1789 1.399 . S
C1788 C1793 1.399 . S
C1789 C1788 1.399 . S
C1789 C1790 1.376 . S
C1790 H1777 0.930 . S
C1790 C1789 1.376 . S
C1790 C1791 1.388 . S
C1791 H1778 0.930 . S
C1791 C1790 1.388 . S
C1791 C1792 1.390 . S
C1792 C1791 1.390 . S
C1792 C1793 1.394 . S
C1792 C1798 1.465 . S
C1793 C1788 1.399 . S
C1793 C1792 1.394 . S
C1793 C1794 1.516 . S
C1794 C1793 1.516 . S
C1794 C1795 1.502 . S
C1794 C1796 1.561 . S
C1794 C1797 1.526 . S
C1795 H1779 0.959 . S
C1795 H1780 0.959 . S
C1795 H1781 0.961 . S
C1795 C1794 1.502 . S
C1796 H1782 0.960 . S
C1796 H1783 0.961 . S
C1796 H1784 0.959 . S
C1796 C1794 1.561 . S
C1797 C1794 1.526 . S
C1797 C1798 1.396 . S
C1797 C1802 1.390 . S
C1798 C1792 1.465 . S
C1798 C1797 1.396 . S
C1798 C1799 1.399 . S
C1799 H1785 0.929 . S
C1799 C1798 1.399 . S
C1799 C1800 1.385 . S
C1800 H1786 0.931 . S
C1800 C1799 1.385 . S
C1800 C1801 1.389 . S
C1801 C1800 1.389 . S
C1801 C1802 1.387 . S
C1802 H1787 0.930 . S
C1802 C1797 1.390 . S
C1802 C1801 1.387 . S
H1803 C1815 0.930 . S
H1804 C1817 0.930 . S
H1805 C1818 0.930 . S
H1806 C1822 0.940 1_565 S
H1807 C1822 0.959 . S
H1808 C1822 0.961 . S
H1809 C1823 0.960 . S
H1810 C1823 0.961 . S
H1811 C1823 0.959 . S
H1812 C1826 0.929 . S
H1813 C1827 0.931 . S
H1814 C1829 0.930 . S
C1815 H1803 0.930 . S
C1815 C1816 1.399 1_545 S
C1815 C1820 1.399 1_545 S
C1816 C1815 1.399 1_565 S
C1816 C1817 1.376 . S
C1817 H1804 0.930 . S
C1817 C1816 1.376 . S
C1817 C1818 1.388 . S
C1818 H1805 0.930 . S
C1818 C1817 1.388 . S
C1818 C1819 1.390 . S
C1819 C1818 1.390 . S
C1819 C1820 1.394 . S
C1819 C1825 1.465 . S
C1820 C1815 1.399 1_565 S
C1820 C1819 1.394 . S
C1820 C1821 1.516 1_565 S
C1821 C1820 1.516 1_545 S
C1821 C1822 1.502 . S
C1821 C1823 1.561 . S
C1821 C1824 1.526 1_545 S
C1822 H1806 0.940 1_545 S
C1822 H1807 0.959 . S
C1822 H1808 0.961 . S
C1822 C1821 1.502 . S
C1823 H1809 0.960 . S
C1823 H1810 0.961 . S
C1823 H1811 0.959 . S
C1823 C1821 1.561 . S
C1824 C1821 1.526 1_565 S
C1824 C1825 1.396 . S
C1824 C1829 1.390 . S
C1825 C1819 1.465 . S
C1825 C1824 1.396 . S
C1825 C1826 1.399 . S
C1826 H1812 0.929 . S
C1826 C1825 1.399 . S
C1826 C1827 1.385 . S
C1827 H1813 0.931 . S
C1827 C1826 1.385 . S
C1827 C1828 1.389 . S
C1828 C1827 1.389 . S
C1828 C1829 1.387 . S
C1829 H1814 0.930 . S
C1829 C1824 1.390 . S
C1829 C1828 1.387 . S
H1830 C1842 0.930 . S
H1831 C1844 0.930 . S
H1832 C1845 0.930 . S
H1833 C1849 0.959 . S
H1834 C1849 0.959 . S
H1835 C1849 0.961 . S
H1836 C1850 0.960 . S
H1837 C1850 0.961 . S
H1838 C1850 0.959 . S
H1839 C1853 0.929 . S
H1840 C1854 0.931 . S
H1841 C1856 0.930 . S
C1842 H1830 0.930 . S
C1842 C1843 1.399 . S
C1842 C1847 1.399 1_554 S
C1843 C1842 1.399 . S
C1843 C1844 1.376 . S
C1844 H1831 0.930 . S
C1844 C1843 1.376 . S
C1844 C1845 1.388 1_554 S
C1845 H1832 0.930 . S
C1845 C1844 1.388 1_556 S
C1845 C1846 1.390 . S
C1846 C1845 1.390 . S
C1846 C1847 1.394 . S
C1846 C1852 1.465 . S
C1847 C1842 1.399 1_556 S
C1847 C1846 1.394 . S
C1847 C1848 1.516 . S
C1848 C1847 1.516 . S
C1848 C1849 1.502 . S
C1848 C1850 1.561 . S
C1848 C1851 1.526 . S
C1849 H1833 0.959 . S
C1849 H1834 0.959 . S
C1849 H1835 0.961 . S
C1849 C1848 1.502 . S
C1850 H1836 0.960 . S
C1850 H1837 0.961 . S
C1850 H1838 0.959 . S
C1850 C1848 1.561 . S
C1851 C1848 1.526 . S
C1851 C1852 1.396 . S
C1851 C1856 1.390 . S
C1852 C1846 1.465 . S
C1852 C1851 1.396 . S
C1852 C1853 1.399 . S
C1853 H1839 0.929 . S
C1853 C1852 1.399 . S
C1853 C1854 1.385 . S
C1854 H1840 0.931 . S
C1854 C1853 1.385 . S
C1854 C1855 1.389 . S
C1855 C1854 1.389 . S
C1855 C1856 1.387 . S
C1856 H1841 0.930 . S
C1856 C1851 1.390 . S
C1856 C1855 1.387 . S
H1857 C1869 0.930 . S
H1858 C1871 0.930 1_565 S
H1859 C1872 0.930 . S
H1860 C1876 0.959 . S
H1861 C1876 0.959 . S
H1862 C1876 0.961 . S
H1863 C1877 0.960 . S
H1864 C1877 0.961 . S
H1865 C1877 0.959 . S
H1866 C1880 0.929 . S
H1867 C1881 0.931 . S
H1868 C1883 0.930 . S
C1869 H1857 0.930 . S
C1869 C1870 1.399 . S
C1869 C1874 1.399 . S
C1870 C1869 1.399 . S
C1870 C1871 1.376 . S
C1871 H1858 0.930 1_545 S
C1871 C1870 1.376 . S
C1871 C1872 1.388 1_545 S
C1872 H1859 0.930 . S
C1872 C1871 1.388 1_565 S
C1872 C1873 1.390 1_565 S
C1873 C1872 1.390 1_545 S
C1873 C1874 1.394 . S
C1873 C1879 1.465 . S
C1874 C1869 1.399 . S
C1874 C1873 1.394 . S
C1874 C1875 1.516 . S
C1875 C1874 1.516 . S
C1875 C1876 1.502 . S
C1875 C1877 1.561 . S
C1875 C1878 1.526 . S
C1876 H1860 0.959 . S
C1876 H1861 0.959 . S
C1876 H1862 0.961 . S
C1876 C1875 1.502 . S
C1877 H1863 0.960 . S
C1877 H1864 0.961 . S
C1877 H1865 0.959 . S
C1877 C1875 1.561 . S
C1878 C1875 1.526 . S
C1878 C1879 1.396 . S
C1878 C1883 1.390 . S
C1879 C1873 1.465 . S
C1879 C1878 1.396 . S
C1879 C1880 1.399 1_545 S
C1880 H1866 0.929 . S
C1880 C1879 1.399 1_565 S
C1880 C1881 1.385 . S
C1881 H1867 0.931 . S
C1881 C1880 1.385 . S
C1881 C1882 1.389 1_565 S
C1882 C1881 1.389 1_545 S
C1882 C1883 1.387 . S
C1883 H1868 0.930 . S
C1883 C1878 1.390 . S
C1883 C1882 1.387 . S
H1884 C1896 0.930 . S
H1885 C1898 0.930 . S
H1886 C1899 0.930 . S
H1887 C1903 0.959 . S
H1888 C1903 0.959 . S
H1889 C1903 0.961 . S
H1890 C1904 0.960 . S
H1891 C1904 0.961 . S
H1892 C1904 0.959 . S
H1893 C1907 0.929 . S
H1894 C1908 0.931 . S
H1895 C1910 0.930 . S
C1896 H1884 0.930 . S
C1896 C1897 1.399 . S
C1896 C1901 1.399 . S
C1897 C1896 1.399 . S
C1897 C1898 1.376 . S
C1898 H1885 0.930 . S
C1898 C1897 1.376 . S
C1898 C1899 1.388 . S
C1899 H1886 0.930 . S
C1899 C1898 1.388 . S
C1899 C1900 1.390 . S
C1900 C1899 1.390 . S
C1900 C1901 1.394 . S
C1900 C1906 1.465 . S
C1901 C1896 1.399 . S
C1901 C1900 1.394 . S
C1901 C1902 1.516 . S
C1902 C1901 1.516 . S
C1902 C1903 1.502 . S
C1902 C1904 1.561 . S
C1902 C1905 1.526 . S
C1903 H1887 0.959 . S
C1903 H1888 0.959 . S
C1903 H1889 0.961 . S
C1903 C1902 1.502 . S
C1904 H1890 0.960 . S
C1904 H1891 0.961 . S
C1904 H1892 0.959 . S
C1904 C1902 1.561 . S
C1905 C1902 1.526 . S
C1905 C1906 1.396 . S
C1905 C1910 1.390 . S
C1906 C1900 1.465 . S
C1906 C1905 1.396 . S
C1906 C1907 1.399 . S
C1907 H1893 0.929 . S
C1907 C1906 1.399 . S
C1907 C1908 1.385 . S
C1908 H1894 0.931 . S
C1908 C1907 1.385 . S
C1908 C1909 1.389 . S
C1909 C1908 1.389 . S
C1909 C1910 1.387 . S
C1910 H1895 0.930 . S
C1910 C1905 1.390 . S
C1910 C1909 1.387 . S
H1911 C1923 0.930 . S
H1912 C1925 0.930 . S
H1913 C1926 0.930 . S
H1914 C1930 0.959 . S
H1915 C1930 0.959 . S
H1916 C1930 0.961 . S
H1917 C1931 0.960 . S
H1918 C1931 0.961 . S
H1919 C1931 0.959 . S
H1920 C1934 0.929 . S
H1921 C1935 0.931 . S
H1922 C1937 0.930 . S
C1923 H1911 0.930 . S
C1923 C1924 1.399 1_565 S
C1923 C1928 1.399 1_565 S
C1924 C1923 1.399 1_545 S
C1924 C1925 1.376 . S
C1925 H1912 0.930 . S
C1925 C1924 1.376 . S
C1925 C1926 1.388 . S
C1926 H1913 0.930 . S
C1926 C1925 1.388 . S
C1926 C1927 1.390 . S
C1927 C1926 1.390 . S
C1927 C1928 1.394 . S
C1927 C1933 1.465 . S
C1928 C1923 1.399 1_545 S
C1928 C1927 1.394 . S
C1928 C1929 1.516 1_545 S
C1929 C1928 1.516 1_565 S
C1929 C1930 1.502 . S
C1929 C1931 1.561 . S
C1929 C1932 1.526 1_565 S
C1930 H1914 0.959 . S
C1930 H1915 0.959 . S
C1930 H1916 0.961 . S
C1930 C1929 1.502 . S
C1931 H1917 0.960 . S
C1931 H1918 0.961 . S
C1931 H1919 0.959 . S
C1931 C1929 1.561 . S
C1932 C1929 1.526 1_545 S
C1932 C1933 1.396 . S
C1932 C1937 1.390 . S
C1933 C1927 1.465 . S
C1933 C1932 1.396 . S
C1933 C1934 1.399 . S
C1934 H1920 0.929 . S
C1934 C1933 1.399 . S
C1934 C1935 1.385 . S
C1935 H1921 0.931 . S
C1935 C1934 1.385 . S
C1935 C1936 1.389 . S
C1936 C1935 1.389 . S
C1936 C1937 1.387 . S
C1937 H1922 0.930 . S
C1937 C1932 1.390 . S
C1937 C1936 1.387 . S
H1938 C1950 0.930 . S
H1939 C1952 0.930 . S
H1940 C1953 0.930 . S
H1941 C1957 0.959 . S
H1942 C1957 0.959 . S
H1943 C1957 0.961 . S
H1944 C1958 0.960 . S
H1945 C1958 0.961 . S
H1946 C1958 0.959 . S
H1947 C1961 0.929 . S
H1948 C1962 0.931 . S
H1949 C1964 0.930 . S
C1950 H1938 0.930 . S
C1950 C1951 1.399 . S
C1950 C1955 1.399 . S
C1951 C1950 1.399 . S
C1951 C1952 1.376 . S
C1952 H1939 0.930 . S
C1952 C1951 1.376 . S
C1952 C1953 1.388 . S
C1953 H1940 0.930 . S
C1953 C1952 1.388 . S
C1953 C1954 1.390 . S
C1954 C1953 1.390 . S
C1954 C1955 1.394 . S
C1954 C1960 1.465 . S
C1955 C1950 1.399 . S
C1955 C1954 1.394 . S
C1955 C1956 1.516 . S
C1956 C1955 1.516 . S
C1956 C1957 1.502 . S
C1956 C1958 1.561 . S
C1956 C1959 1.526 . S
C1957 H1941 0.959 . S
C1957 H1942 0.959 . S
C1957 H1943 0.961 . S
C1957 C1956 1.502 . S
C1958 H1944 0.960 . S
C1958 H1945 0.961 . S
C1958 H1946 0.959 . S
C1958 C1956 1.561 . S
C1959 C1956 1.526 . S
C1959 C1960 1.396 . S
C1959 C1964 1.390 1_554 S
C1960 C1954 1.465 . S
C1960 C1959 1.396 . S
C1960 C1961 1.399 . S
C1961 H1947 0.929 . S
C1961 C1960 1.399 . S
C1961 C1962 1.385 1_554 S
C1962 H1948 0.931 . S
C1962 C1961 1.385 1_556 S
C1962 C1963 1.389 . S
C1963 C1962 1.389 . S
C1963 C1964 1.387 . S
C1964 H1949 0.930 . S
C1964 C1959 1.390 1_556 S
C1964 C1963 1.387 . S
H1965 C1977 0.930 . S
H1966 C1979 0.930 . S
H1967 C1980 0.930 . S
H1968 C1984 0.959 . S
H1969 C1984 0.959 . S
H1970 C1984 0.961 . S
H1971 C1985 0.960 . S
H1972 C1985 0.961 . S
H1973 C1985 0.959 . S
H1974 C1988 0.929 . S
H1975 C1989 0.925 1_545 S
H1976 C1991 0.930 . S
C1977 H1965 0.930 . S
C1977 C1978 1.399 . S
C1977 C1982 1.399 . S
C1978 C1977 1.399 . S
C1978 C1979 1.376 1_565 S
C1979 H1966 0.930 . S
C1979 C1978 1.376 1_545 S
C1979 C1980 1.388 . S
C1980 H1967 0.930 . S
C1980 C1979 1.388 . S
C1980 C1981 1.390 1_545 S
C1981 C1980 1.390 1_565 S
C1981 C1982 1.394 . S
C1981 C1987 1.465 . S
C1982 C1977 1.399 . S
C1982 C1981 1.394 . S
C1982 C1983 1.516 . S
C1983 C1982 1.516 . S
C1983 C1984 1.502 . S
C1983 C1985 1.561 . S
C1983 C1986 1.526 . S
C1984 H1968 0.959 . S
C1984 H1969 0.959 . S
C1984 H1970 0.961 . S
C1984 C1983 1.502 . S
C1985 H1971 0.960 . S
C1985 H1972 0.961 . S
C1985 H1973 0.959 . S
C1985 C1983 1.561 . S
C1986 C1983 1.526 . S
C1986 C1987 1.396 . S
C1986 C1991 1.390 . S
C1987 C1981 1.465 . S
C1987 C1986 1.396 . S
C1987 C1988 1.399 1_565 S
C1988 H1974 0.929 . S
C1988 C1987 1.399 1_545 S
C1988 C1989 1.385 1_545 S
C1989 H1975 0.925 1_565 S
C1989 C1988 1.385 1_565 S
C1989 C1990 1.389 . S
C1990 C1989 1.389 . S
C1990 C1991 1.387 . S
C1991 H1976 0.930 . S
C1991 C1986 1.390 . S
C1991 C1990 1.387 . S
H1992 C2004 0.930 . S
H1993 C2006 0.930 . S
H1994 C2007 0.930 . S
H1995 C2011 0.959 . S
H1996 C2011 0.959 . S
H1997 C2011 0.961 . S
H1998 C2012 0.960 . S
H1999 C2012 0.961 . S
H2000 C2012 0.959 . S
H2001 C2015 0.929 . S
H2002 C2016 0.931 . S
H2003 C2018 0.930 . S
C2004 H1992 0.930 . S
C2004 C2005 1.399 . S
C2004 C2009 1.399 . S
C2005 C2004 1.399 . S
C2005 C2006 1.376 . S
C2006 H1993 0.930 . S
C2006 C2005 1.376 . S
C2006 C2007 1.388 . S
C2007 H1994 0.930 . S
C2007 C2006 1.388 . S
C2007 C2008 1.390 . S
C2008 C2007 1.390 . S
C2008 C2009 1.394 . S
C2008 C2014 1.465 . S
C2009 C2004 1.399 . S
C2009 C2008 1.394 . S
C2009 C2010 1.516 . S
C2010 C2009 1.516 . S
C2010 C2011 1.502 . S
C2010 C2012 1.561 . S
C2010 C2013 1.526 . S
C2011 H1995 0.959 . S
C2011 H1996 0.959 . S
C2011 H1997 0.961 . S
C2011 C2010 1.502 . S
C2012 H1998 0.960 . S
C2012 H1999 0.961 . S
C2012 H2000 0.959 . S
C2012 C2010 1.561 . S
C2013 C2010 1.526 . S
C2013 C2014 1.396 . S
C2013 C2018 1.390 . S
C2014 C2008 1.465 . S
C2014 C2013 1.396 . S
C2014 C2015 1.399 . S
C2015 H2001 0.929 . S
C2015 C2014 1.399 . S
C2015 C2016 1.385 . S
C2016 H2002 0.931 . S
C2016 C2015 1.385 . S
C2016 C2017 1.389 . S
C2017 C2016 1.389 . S
C2017 C2018 1.387 . S
C2018 H2003 0.930 . S
C2018 C2013 1.390 . S
C2018 C2017 1.387 . S
H2019 C2031 0.930 . S
H2020 C2033 0.930 . S
H2021 C2034 0.930 . S
H2022 C2038 0.959 . S
H2023 C2038 0.959 . S
H2024 C2038 0.961 . S
H2025 C2039 0.960 . S
H2026 C2039 0.961 . S
H2027 C2039 0.959 . S
H2028 C2042 0.929 . S
H2029 C2043 0.931 . S
H2030 C2045 0.930 . S
C2031 H2019 0.930 . S
C2031 C2032 1.399 . S
C2031 C2036 1.399 . S
C2032 C2031 1.399 . S
C2032 C2033 1.376 . S
C2033 H2020 0.930 . S
C2033 C2032 1.376 . S
C2033 C2034 1.388 . S
C2034 H2021 0.930 . S
C2034 C2033 1.388 . S
C2034 C2035 1.390 . S
C2035 C2034 1.390 . S
C2035 C2036 1.394 . S
C2035 C2041 1.465 . S
C2036 C2031 1.399 . S
C2036 C2035 1.394 . S
C2036 C2037 1.516 . S
C2037 C2036 1.516 . S
C2037 C2038 1.502 . S
C2037 C2039 1.561 . S
C2037 C2040 1.526 . S
C2038 H2022 0.959 . S
C2038 H2023 0.959 . S
C2038 H2024 0.961 . S
C2038 C2037 1.502 . S
C2039 H2025 0.960 . S
C2039 H2026 0.961 . S
C2039 H2027 0.959 . S
C2039 C2037 1.561 . S
C2040 C2037 1.526 . S
C2040 C2041 1.396 . S
C2040 C2045 1.390 . S
C2041 C2035 1.465 . S
C2041 C2040 1.396 . S
C2041 C2042 1.399 . S
C2042 H2028 0.929 . S
C2042 C2041 1.399 . S
C2042 C2043 1.385 . S
C2043 H2029 0.931 . S
C2043 C2042 1.385 . S
C2043 C2044 1.389 . S
C2044 C2043 1.389 . S
C2044 C2045 1.387 . S
C2045 H2030 0.930 . S
C2045 C2040 1.390 . S
C2045 C2044 1.387 . S
H2046 C2058 0.930 . S
H2047 C2060 0.930 . S
H2048 C2061 0.930 . S
H2049 C2065 0.959 . S
H2050 C2065 0.959 . S
H2051 C2065 0.961 . S
H2052 C2066 0.960 . S
H2053 C2066 0.961 1_455 S
H2054 C2066 0.959 1_455 S
H2055 C2069 0.929 . S
H2056 C2070 0.931 . S
H2057 C2072 0.930 . S
C2058 H2046 0.930 . S
C2058 C2059 1.399 . S
C2058 C2063 1.399 . S
C2059 C2058 1.399 . S
C2059 C2060 1.376 . S
C2060 H2047 0.930 . S
C2060 C2059 1.376 . S
C2060 C2061 1.388 . S
C2061 H2048 0.930 . S
C2061 C2060 1.388 . S
C2061 C2062 1.390 . S
C2062 C2061 1.390 . S
C2062 C2063 1.394 . S
C2062 C2068 1.465 1_655 S
C2063 C2058 1.399 . S
C2063 C2062 1.394 . S
C2063 C2064 1.516 . S
C2064 C2063 1.516 . S
C2064 C2065 1.502 . S
C2064 C2066 1.561 . S
C2064 C2067 1.526 1_655 S
C2065 H2049 0.959 . S
C2065 H2050 0.959 . S
C2065 H2051 0.961 . S
C2065 C2064 1.502 . S
C2066 H2052 0.960 . S
C2066 H2053 0.961 1_655 S
C2066 H2054 0.959 1_655 S
C2066 C2064 1.561 . S
C2067 C2064 1.526 1_455 S
C2067 C2068 1.396 . S
C2067 C2072 1.390 . S
C2068 C2062 1.465 1_455 S
C2068 C2067 1.396 . S
C2068 C2069 1.399 . S
C2069 H2055 0.929 . S
C2069 C2068 1.399 . S
C2069 C2070 1.385 . S
C2070 H2056 0.931 . S
C2070 C2069 1.385 . S
C2070 C2071 1.389 . S
C2071 C2070 1.389 . S
C2071 C2072 1.387 . S
C2072 H2057 0.930 . S
C2072 C2067 1.390 . S
C2072 C2071 1.387 . S
H2073 C2085 0.930 . S
H2074 C2087 0.930 . S
H2075 C2088 0.930 . S
H2076 C2092 0.959 . S
H2077 C2092 0.959 . S
H2078 C2092 0.961 . S
H2079 C2093 0.960 . S
H2080 C2093 0.961 . S
H2081 C2093 0.959 . S
H2082 C2096 0.929 1_655 S
H2083 C2097 0.931 . S
H2084 C2099 0.930 . S
C2085 H2073 0.930 . S
C2085 C2086 1.399 . S
C2085 C2090 1.399 . S
C2086 C2085 1.399 . S
C2086 C2087 1.376 . S
C2087 H2074 0.930 . S
C2087 C2086 1.376 . S
C2087 C2088 1.388 . S
C2088 H2075 0.930 . S
C2088 C2087 1.388 . S
C2088 C2089 1.390 . S
C2089 C2088 1.390 . S
C2089 C2090 1.394 . S
C2089 C2095 1.465 1_655 S
C2090 C2085 1.399 . S
C2090 C2089 1.394 . S
C2090 C2091 1.516 1_655 S
C2091 C2090 1.516 1_455 S
C2091 C2092 1.502 . S
C2091 C2093 1.561 1_455 S
C2091 C2094 1.526 . S
C2092 H2076 0.959 . S
C2092 H2077 0.959 . S
C2092 H2078 0.961 . S
C2092 C2091 1.502 . S
C2093 H2079 0.960 . S
C2093 H2080 0.961 . S
C2093 H2081 0.959 . S
C2093 C2091 1.561 1_655 S
C2094 C2091 1.526 . S
C2094 C2095 1.396 . S
C2094 C2099 1.390 . S
C2095 C2089 1.465 1_455 S
C2095 C2094 1.396 . S
C2095 C2096 1.399 . S
C2096 H2082 0.929 1_455 S
C2096 C2095 1.399 . S
C2096 C2097 1.385 . S
C2097 H2083 0.931 . S
C2097 C2096 1.385 . S
C2097 C2098 1.389 . S
C2098 C2097 1.389 . S
C2098 C2099 1.387 . S
C2099 H2084 0.930 . S
C2099 C2094 1.390 . S
C2099 C2098 1.387 . S
H2100 C2112 0.930 . S
H2101 C2114 0.930 . S
H2102 C2115 0.930 . S
H2103 C2119 0.959 . S
H2104 C2119 0.959 . S
H2105 C2119 0.961 . S
H2106 C2120 0.960 . S
H2107 C2120 0.961 . S
H2108 C2120 0.959 . S
H2109 C2123 0.929 . S
H2110 C2124 0.931 . S
H2111 C2126 0.930 . S
C2112 H2100 0.930 . S
C2112 C2113 1.399 . S
C2112 C2117 1.399 . S
C2113 C2112 1.399 . S
C2113 C2114 1.376 . S
C2114 H2101 0.930 . S
C2114 C2113 1.376 . S
C2114 C2115 1.388 . S
C2115 H2102 0.930 . S
C2115 C2114 1.388 . S
C2115 C2116 1.390 . S
C2116 C2115 1.390 . S
C2116 C2117 1.394 . S
C2116 C2122 1.465 . S
C2117 C2112 1.399 . S
C2117 C2116 1.394 . S
C2117 C2118 1.516 . S
C2118 C2117 1.516 . S
C2118 C2119 1.502 . S
C2118 C2120 1.561 . S
C2118 C2121 1.526 . S
C2119 H2103 0.959 . S
C2119 H2104 0.959 . S
C2119 H2105 0.961 . S
C2119 C2118 1.502 . S
C2120 H2106 0.960 . S
C2120 H2107 0.961 . S
C2120 H2108 0.959 . S
C2120 C2118 1.561 . S
C2121 C2118 1.526 . S
C2121 C2122 1.396 . S
C2121 C2126 1.390 . S
C2122 C2116 1.465 . S
C2122 C2121 1.396 . S
C2122 C2123 1.399 . S
C2123 H2109 0.929 . S
C2123 C2122 1.399 . S
C2123 C2124 1.385 . S
C2124 H2110 0.931 . S
C2124 C2123 1.385 . S
C2124 C2125 1.389 . S
C2125 C2124 1.389 . S
C2125 C2126 1.387 . S
C2126 H2111 0.930 . S
C2126 C2121 1.390 . S
C2126 C2125 1.387 . S
H2127 C2139 0.930 . S
H2128 C2141 0.930 . S
H2129 C2142 0.930 . S
H2130 C2146 0.959 . S
H2131 C2146 0.959 . S
H2132 C2146 0.961 . S
H2133 C2147 0.960 . S
H2134 C2147 0.961 . S
H2135 C2147 0.959 . S
H2136 C2150 0.929 . S
H2137 C2151 0.931 . S
H2138 C2153 0.930 . S
C2139 H2127 0.930 . S
C2139 C2140 1.399 . S
C2139 C2144 1.399 . S
C2140 C2139 1.399 . S
C2140 C2141 1.376 . S
C2141 H2128 0.930 . S
C2141 C2140 1.376 . S
C2141 C2142 1.388 . S
C2142 H2129 0.930 . S
C2142 C2141 1.388 . S
C2142 C2143 1.390 . S
C2143 C2142 1.390 . S
C2143 C2144 1.394 . S
C2143 C2149 1.465 . S
C2144 C2139 1.399 . S
C2144 C2143 1.394 . S
C2144 C2145 1.516 . S
C2145 C2144 1.516 . S
C2145 C2146 1.502 . S
C2145 C2147 1.561 . S
C2145 C2148 1.526 . S
C2146 H2130 0.959 . S
C2146 H2131 0.959 . S
C2146 H2132 0.961 . S
C2146 C2145 1.502 . S
C2147 H2133 0.960 . S
C2147 H2134 0.961 . S
C2147 H2135 0.959 . S
C2147 C2145 1.561 . S
C2148 C2145 1.526 . S
C2148 C2149 1.396 . S
C2148 C2153 1.390 . S
C2149 C2143 1.465 . S
C2149 C2148 1.396 . S
C2149 C2150 1.399 . S
C2150 H2136 0.929 . S
C2150 C2149 1.399 . S
C2150 C2151 1.385 . S
C2151 H2137 0.931 . S
C2151 C2150 1.385 . S
C2151 C2152 1.389 . S
C2152 C2151 1.389 . S
C2152 C2153 1.387 . S
C2153 H2138 0.930 . S
C2153 C2148 1.390 . S
C2153 C2152 1.387 . S
H2154 C2166 0.930 . S
H2155 C2168 0.930 . S
H2156 C2169 0.930 . S
H2157 C2173 0.959 . S
H2158 C2173 0.959 . S
H2159 C2173 0.961 . S
H2160 C2174 0.960 . S
H2161 C2174 0.961 1_655 S
H2162 C2174 0.959 . S
H2163 C2177 0.929 . S
H2164 C2178 0.931 . S
H2165 C2180 0.930 . S
C2166 H2154 0.930 . S
C2166 C2167 1.399 . S
C2166 C2171 1.399 . S
C2167 C2166 1.399 . S
C2167 C2168 1.376 . S
C2168 H2155 0.930 . S
C2168 C2167 1.376 . S
C2168 C2169 1.388 . S
C2169 H2156 0.930 . S
C2169 C2168 1.388 . S
C2169 C2170 1.390 . S
C2170 C2169 1.390 . S
C2170 C2171 1.394 . S
C2170 C2176 1.465 1_455 S
C2171 C2166 1.399 . S
C2171 C2170 1.394 . S
C2171 C2172 1.516 1_455 S
C2172 C2171 1.516 1_655 S
C2172 C2173 1.502 . S
C2172 C2174 1.561 1_655 S
C2172 C2175 1.526 . S
C2173 H2157 0.959 . S
C2173 H2158 0.959 . S
C2173 H2159 0.961 . S
C2173 C2172 1.502 . S
C2174 H2160 0.960 . S
C2174 H2161 0.961 1_455 S
C2174 H2162 0.959 . S
C2174 C2172 1.561 1_455 S
C2175 C2172 1.526 . S
C2175 C2176 1.396 . S
C2175 C2180 1.390 . S
C2176 C2170 1.465 1_655 S
C2176 C2175 1.396 . S
C2176 C2177 1.399 . S
C2177 H2163 0.929 . S
C2177 C2176 1.399 . S
C2177 C2178 1.385 . S
C2178 H2164 0.931 . S
C2178 C2177 1.385 . S
C2178 C2179 1.389 . S
C2179 C2178 1.389 . S
C2179 C2180 1.387 . S
C2180 H2165 0.930 . S
C2180 C2175 1.390 . S
C2180 C2179 1.387 . S
H2181 C2193 0.930 . S
H2182 C2195 0.930 . S
H2183 C2196 0.930 . S
H2184 C2200 0.959 . S
H2185 C2200 0.959 . S
H2186 C2200 0.961 . S
H2187 C2201 0.960 . S
H2188 C2201 0.961 1_655 S
H2189 C2201 0.959 . S
H2190 C2204 0.929 . S
H2191 C2205 0.931 . S
H2192 C2207 0.930 . S
C2193 H2181 0.930 . S
C2193 C2194 1.399 . S
C2193 C2198 1.399 . S
C2194 C2193 1.399 . S
C2194 C2195 1.376 . S
C2195 H2182 0.930 . S
C2195 C2194 1.376 . S
C2195 C2196 1.388 . S
C2196 H2183 0.930 . S
C2196 C2195 1.388 . S
C2196 C2197 1.390 . S
C2197 C2196 1.390 . S
C2197 C2198 1.394 . S
C2197 C2203 1.465 . S
C2198 C2193 1.399 . S
C2198 C2197 1.394 . S
C2198 C2199 1.516 1_455 S
C2199 C2198 1.516 1_655 S
C2199 C2200 1.502 . S
C2199 C2201 1.561 1_655 S
C2199 C2202 1.526 . S
C2200 H2184 0.959 . S
C2200 H2185 0.959 . S
C2200 H2186 0.961 . S
C2200 C2199 1.502 . S
C2201 H2187 0.960 . S
C2201 H2188 0.961 1_455 S
C2201 H2189 0.959 . S
C2201 C2199 1.561 1_455 S
C2202 C2199 1.526 . S
C2202 C2203 1.396 1_655 S
C2202 C2207 1.390 . S
C2203 C2197 1.465 . S
C2203 C2202 1.396 1_455 S
C2203 C2204 1.399 . S
C2204 H2190 0.929 . S
C2204 C2203 1.399 . S
C2204 C2205 1.385 1_455 S
C2205 H2191 0.931 . S
C2205 C2204 1.385 1_655 S
C2205 C2206 1.389 . S
C2206 C2205 1.389 . S
C2206 C2207 1.387 . S
C2207 H2192 0.930 . S
C2207 C2202 1.390 . S
C2207 C2206 1.387 . S
H2208 C2220 0.930 . S
H2209 C2222 0.930 . S
H2210 C2223 0.930 . S
H2211 C2227 0.959 . S
H2212 C2227 0.959 . S
H2213 C2227 0.961 . S
H2214 C2228 0.960 . S
H2215 C2228 0.961 . S
H2216 C2228 0.959 . S
H2217 C2231 0.929 . S
H2218 C2232 0.931 . S
H2219 C2234 0.930 . S
C2220 H2208 0.930 . S
C2220 C2221 1.399 . S
C2220 C2225 1.399 . S
C2221 C2220 1.399 . S
C2221 C2222 1.376 . S
C2222 H2209 0.930 . S
C2222 C2221 1.376 . S
C2222 C2223 1.388 . S
C2223 H2210 0.930 . S
C2223 C2222 1.388 . S
C2223 C2224 1.390 . S
C2224 C2223 1.390 . S
C2224 C2225 1.394 . S
C2224 C2230 1.465 . S
C2225 C2220 1.399 . S
C2225 C2224 1.394 . S
C2225 C2226 1.516 . S
C2226 C2225 1.516 . S
C2226 C2227 1.502 . S
C2226 C2228 1.561 . S
C2226 C2229 1.526 . S
C2227 H2211 0.959 . S
C2227 H2212 0.959 . S
C2227 H2213 0.961 . S
C2227 C2226 1.502 . S
C2228 H2214 0.960 . S
C2228 H2215 0.961 . S
C2228 H2216 0.959 . S
C2228 C2226 1.561 . S
C2229 C2226 1.526 . S
C2229 C2230 1.396 . S
C2229 C2234 1.390 . S
C2230 C2224 1.465 . S
C2230 C2229 1.396 . S
C2230 C2231 1.399 . S
C2231 H2217 0.929 . S
C2231 C2230 1.399 . S
C2231 C2232 1.385 . S
C2232 H2218 0.931 . S
C2232 C2231 1.385 . S
C2232 C2233 1.389 . S
C2233 C2232 1.389 . S
C2233 C2234 1.387 . S
C2234 H2219 0.930 . S
C2234 C2229 1.390 . S
C2234 C2233 1.387 . S
H2235 C2247 0.930 . S
H2236 C2249 0.930 . S
H2237 C2250 0.930 . S
H2238 C2254 0.959 . S
H2239 C2254 0.959 . S
H2240 C2254 0.961 . S
H2241 C2255 0.960 . S
H2242 C2255 0.961 . S
H2243 C2255 0.959 . S
H2244 C2258 0.929 . S
H2245 C2259 0.931 . S
H2246 C2261 0.930 . S
C2247 H2235 0.930 . S
C2247 C2248 1.399 . S
C2247 C2252 1.399 . S
C2248 C2247 1.399 . S
C2248 C2249 1.376 . S
C2249 H2236 0.930 . S
C2249 C2248 1.376 . S
C2249 C2250 1.388 . S
C2250 H2237 0.930 . S
C2250 C2249 1.388 . S
C2250 C2251 1.390 . S
C2251 C2250 1.390 . S
C2251 C2252 1.394 . S
C2251 C2257 1.465 . S
C2252 C2247 1.399 . S
C2252 C2251 1.394 . S
C2252 C2253 1.516 . S
C2253 C2252 1.516 . S
C2253 C2254 1.502 . S
C2253 C2255 1.561 . S
C2253 C2256 1.526 . S
C2254 H2238 0.959 . S
C2254 H2239 0.959 . S
C2254 H2240 0.961 . S
C2254 C2253 1.502 . S
C2255 H2241 0.960 . S
C2255 H2242 0.961 . S
C2255 H2243 0.959 . S
C2255 C2253 1.561 . S
C2256 C2253 1.526 . S
C2256 C2257 1.396 . S
C2256 C2261 1.390 . S
C2257 C2251 1.465 . S
C2257 C2256 1.396 . S
C2257 C2258 1.399 . S
C2258 H2244 0.929 . S
C2258 C2257 1.399 . S
C2258 C2259 1.385 . S
C2259 H2245 0.931 . S
C2259 C2258 1.385 . S
C2259 C2260 1.389 . S
C2260 C2259 1.389 . S
C2260 C2261 1.387 . S
C2261 H2246 0.930 . S
C2261 C2256 1.390 . S
C2261 C2260 1.387 . S
H2262 C2274 0.930 . S
H2263 C2276 0.930 . S
H2264 C2277 0.930 . S
H2265 C2281 0.959 . S
H2266 C2281 0.959 . S
H2267 C2281 0.961 . S
H2268 C2282 0.960 . S
H2269 C2282 0.961 . S
H2270 C2282 0.959 . S
H2271 C2285 0.929 . S
H2272 C2286 0.931 . S
H2273 C2288 0.930 . S
C2274 H2262 0.930 . S
C2274 C2275 1.399 . S
C2274 C2279 1.399 . S
C2275 C2274 1.399 . S
C2275 C2276 1.376 . S
C2276 H2263 0.930 . S
C2276 C2275 1.376 . S
C2276 C2277 1.388 . S
C2277 H2264 0.930 . S
C2277 C2276 1.388 . S
C2277 C2278 1.390 . S
C2278 C2277 1.390 . S
C2278 C2279 1.394 . S
C2278 C2284 1.465 . S
C2279 C2274 1.399 . S
C2279 C2278 1.394 . S
C2279 C2280 1.516 . S
C2280 C2279 1.516 . S
C2280 C2281 1.502 . S
C2280 C2282 1.561 . S
C2280 C2283 1.526 . S
C2281 H2265 0.959 . S
C2281 H2266 0.959 . S
C2281 H2267 0.961 . S
C2281 C2280 1.502 . S
C2282 H2268 0.960 . S
C2282 H2269 0.961 . S
C2282 H2270 0.959 . S
C2282 C2280 1.561 . S
C2283 C2280 1.526 . S
C2283 C2284 1.396 . S
C2283 C2288 1.390 . S
C2284 C2278 1.465 . S
C2284 C2283 1.396 . S
C2284 C2285 1.399 . S
C2285 H2271 0.929 . S
C2285 C2284 1.399 . S
C2285 C2286 1.385 . S
C2286 H2272 0.931 . S
C2286 C2285 1.385 . S
C2286 C2287 1.389 . S
C2287 C2286 1.389 . S
C2287 C2288 1.387 . S
C2288 H2273 0.930 . S
C2288 C2283 1.390 . S
C2288 C2287 1.387 . S
H2289 C2301 0.930 . S
H2290 C2303 0.930 . S
H2291 C2304 0.930 . S
H2292 C2308 0.959 . S
H2293 C2308 0.959 . S
H2294 C2308 0.961 . S
H2295 C2309 0.960 . S
H2296 C2309 0.961 . S
H2297 C2309 0.959 . S
H2298 C2312 0.929 . S
H2299 C2313 0.931 . S
H2300 C2315 0.930 . S
C2301 H2289 0.930 . S
C2301 C2302 1.399 1_455 S
C2301 C2306 1.399 . S
C2302 C2301 1.399 1_655 S
C2302 C2303 1.376 . S
C2303 H2290 0.930 . S
C2303 C2302 1.376 . S
C2303 C2304 1.388 1_655 S
C2304 H2291 0.930 . S
C2304 C2303 1.388 1_455 S
C2304 C2305 1.390 . S
C2305 C2304 1.390 . S
C2305 C2306 1.394 . S
C2305 C2311 1.465 . S
C2306 C2301 1.399 . S
C2306 C2305 1.394 . S
C2306 C2307 1.516 . S
C2307 C2306 1.516 . S
C2307 C2308 1.502 . S
C2307 C2309 1.561 . S
C2307 C2310 1.526 . S
C2308 H2292 0.959 . S
C2308 H2293 0.959 . S
C2308 H2294 0.961 . S
C2308 C2307 1.502 . S
C2309 H2295 0.960 . S
C2309 H2296 0.961 . S
C2309 H2297 0.959 . S
C2309 C2307 1.561 . S
C2310 C2307 1.526 . S
C2310 C2311 1.396 . S
C2310 C2315 1.390 . S
C2311 C2305 1.465 . S
C2311 C2310 1.396 . S
C2311 C2312 1.399 . S
C2312 H2298 0.929 . S
C2312 C2311 1.399 . S
C2312 C2313 1.385 . S
C2313 H2299 0.931 . S
C2313 C2312 1.385 . S
C2313 C2314 1.389 . S
C2314 C2313 1.389 . S
C2314 C2315 1.387 . S
C2315 H2300 0.930 . S
C2315 C2310 1.390 . S
C2315 C2314 1.387 . S
H2316 C2328 0.930 . S
H2317 C2330 0.930 . S
H2318 C2331 0.930 . S
H2319 C2335 0.959 . S
H2320 C2335 0.959 . S
H2321 C2335 0.961 . S
H2322 C2336 0.960 . S
H2323 C2336 0.961 . S
H2324 C2336 0.959 . S
H2325 C2339 0.929 . S
H2326 C2340 0.931 . S
H2327 C2342 0.930 . S
C2328 H2316 0.930 . S
C2328 C2329 1.399 . S
C2328 C2333 1.399 . S
C2329 C2328 1.399 . S
C2329 C2330 1.376 . S
C2330 H2317 0.930 . S
C2330 C2329 1.376 . S
C2330 C2331 1.388 . S
C2331 H2318 0.930 . S
C2331 C2330 1.388 . S
C2331 C2332 1.390 . S
C2332 C2331 1.390 . S
C2332 C2333 1.394 . S
C2332 C2338 1.465 . S
C2333 C2328 1.399 . S
C2333 C2332 1.394 . S
C2333 C2334 1.516 . S
C2334 C2333 1.516 . S
C2334 C2335 1.502 . S
C2334 C2336 1.561 . S
C2334 C2337 1.526 . S
C2335 H2319 0.959 . S
C2335 H2320 0.959 . S
C2335 H2321 0.961 . S
C2335 C2334 1.502 . S
C2336 H2322 0.960 . S
C2336 H2323 0.961 . S
C2336 H2324 0.959 . S
C2336 C2334 1.561 . S
C2337 C2334 1.526 . S
C2337 C2338 1.396 . S
C2337 C2342 1.390 . S
C2338 C2332 1.465 . S
C2338 C2337 1.396 . S
C2338 C2339 1.399 . S
C2339 H2325 0.929 . S
C2339 C2338 1.399 . S
C2339 C2340 1.385 . S
C2340 H2326 0.931 . S
C2340 C2339 1.385 . S
C2340 C2341 1.389 . S
C2341 C2340 1.389 . S
C2341 C2342 1.387 . S
C2342 H2327 0.930 . S
C2342 C2337 1.390 . S
C2342 C2341 1.387 . S
H2343 C2355 0.930 . S
H2344 C2357 0.930 . S
H2345 C2358 0.930 . S
H2346 C2362 0.959 . S
H2347 C2362 0.959 . S
H2348 C2362 0.961 . S
H2349 C2363 0.960 . S
H2350 C2363 0.961 . S
H2351 C2363 0.959 . S
H2352 C2366 0.929 . S
H2353 C2367 0.931 . S
H2354 C2369 0.930 . S
C2355 H2343 0.930 . S
C2355 C2356 1.399 . S
C2355 C2360 1.399 . S
C2356 C2355 1.399 . S
C2356 C2357 1.376 . S
C2357 H2344 0.930 . S
C2357 C2356 1.376 . S
C2357 C2358 1.388 . S
C2358 H2345 0.930 . S
C2358 C2357 1.388 . S
C2358 C2359 1.390 . S
C2359 C2358 1.390 . S
C2359 C2360 1.394 . S
C2359 C2365 1.465 . S
C2360 C2355 1.399 . S
C2360 C2359 1.394 . S
C2360 C2361 1.516 . S
C2361 C2360 1.516 . S
C2361 C2362 1.502 . S
C2361 C2363 1.561 . S
C2361 C2364 1.526 . S
C2362 H2346 0.959 . S
C2362 H2347 0.959 . S
C2362 H2348 0.961 . S
C2362 C2361 1.502 . S
C2363 H2349 0.960 . S
C2363 H2350 0.961 . S
C2363 H2351 0.959 . S
C2363 C2361 1.561 . S
C2364 C2361 1.526 . S
C2364 C2365 1.396 . S
C2364 C2369 1.390 . S
C2365 C2359 1.465 . S
C2365 C2364 1.396 . S
C2365 C2366 1.399 . S
C2366 H2352 0.929 . S
C2366 C2365 1.399 . S
C2366 C2367 1.385 . S
C2367 H2353 0.931 . S
C2367 C2366 1.385 . S
C2367 C2368 1.389 . S
C2368 C2367 1.389 . S
C2368 C2369 1.387 . S
C2369 H2354 0.930 . S
C2369 C2364 1.390 . S
C2369 C2368 1.387 . S
H2370 C2382 0.930 . S
H2371 C2384 0.930 . S
H2372 C2385 0.930 . S
H2373 C2389 0.959 . S
H2374 C2389 0.959 . S
H2375 C2389 0.961 . S
H2376 C2390 0.960 . S
H2377 C2390 0.961 . S
H2378 C2390 0.959 . S
H2379 C2393 0.929 . S
H2380 C2394 0.931 . S
H2381 C2396 0.930 . S
C2382 H2370 0.930 . S
C2382 C2383 1.399 . S
C2382 C2387 1.399 . S
C2383 C2382 1.399 . S
C2383 C2384 1.376 . S
C2384 H2371 0.930 . S
C2384 C2383 1.376 . S
C2384 C2385 1.388 . S
C2385 H2372 0.930 . S
C2385 C2384 1.388 . S
C2385 C2386 1.390 . S
C2386 C2385 1.390 . S
C2386 C2387 1.394 . S
C2386 C2392 1.465 . S
C2387 C2382 1.399 . S
C2387 C2386 1.394 . S
C2387 C2388 1.516 . S
C2388 C2387 1.516 . S
C2388 C2389 1.502 . S
C2388 C2390 1.561 . S
C2388 C2391 1.526 . S
C2389 H2373 0.959 . S
C2389 H2374 0.959 . S
C2389 H2375 0.961 . S
C2389 C2388 1.502 . S
C2390 H2376 0.960 . S
C2390 H2377 0.961 . S
C2390 H2378 0.959 . S
C2390 C2388 1.561 . S
C2391 C2388 1.526 . S
C2391 C2392 1.396 . S
C2391 C2396 1.390 . S
C2392 C2386 1.465 . S
C2392 C2391 1.396 . S
C2392 C2393 1.399 . S
C2393 H2379 0.929 . S
C2393 C2392 1.399 . S
C2393 C2394 1.385 . S
C2394 H2380 0.931 . S
C2394 C2393 1.385 . S
C2394 C2395 1.389 . S
C2395 C2394 1.389 . S
C2395 C2396 1.387 . S
C2396 H2381 0.930 . S
C2396 C2391 1.390 . S
C2396 C2395 1.387 . S
H2397 C2409 0.930 . S
H2398 C2411 0.930 . S
H2399 C2412 0.930 . S
H2400 C2416 0.959 . S
H2401 C2416 0.959 . S
H2402 C2416 0.961 . S
H2403 C2417 0.960 . S
H2404 C2417 0.961 . S
H2405 C2417 0.959 . S
H2406 C2420 0.929 . S
H2407 C2421 0.940 . S
H2408 C2423 0.930 . S
C2409 H2397 0.930 . S
C2409 C2410 1.399 . S
C2409 C2414 1.399 . S
C2410 C2409 1.399 . S
C2410 C2411 1.376 . S
C2411 H2398 0.930 . S
C2411 C2410 1.376 . S
C2411 C2412 1.388 . S
C2412 H2399 0.930 . S
C2412 C2411 1.388 . S
C2412 C2413 1.390 . S
C2413 C2412 1.390 . S
C2413 C2414 1.394 . S
C2413 C2419 1.465 . S
C2414 C2409 1.399 . S
C2414 C2413 1.394 . S
C2414 C2415 1.516 . S
C2415 C2414 1.516 . S
C2415 C2416 1.502 . S
C2415 C2417 1.561 . S
C2415 C2418 1.526 . S
C2416 H2400 0.959 . S
C2416 H2401 0.959 . S
C2416 H2402 0.961 . S
C2416 C2415 1.502 . S
C2417 H2403 0.960 . S
C2417 H2404 0.961 . S
C2417 H2405 0.959 . S
C2417 C2415 1.561 . S
C2418 C2415 1.526 . S
C2418 C2419 1.396 . S
C2418 C2423 1.390 1_655 S
C2419 C2413 1.465 . S
C2419 C2418 1.396 . S
C2419 C2420 1.399 . S
C2420 H2406 0.929 . S
C2420 C2419 1.399 . S
C2420 C2421 1.367 1_655 S
C2421 H2407 0.940 . S
C2421 C2420 1.367 1_455 S
C2421 C2422 1.399 . S
C2422 C2421 1.399 . S
C2422 C2423 1.387 . S
C2423 H2408 0.930 . S
C2423 C2418 1.390 1_455 S
C2423 C2422 1.387 . S
H2424 C2436 0.930 . S
H2425 C2438 0.930 . S
H2426 C2439 0.930 . S
H2427 C2443 0.959 . S
H2428 C2443 0.959 . S
H2429 C2443 0.961 . S
H2430 C2444 0.960 . S
H2431 C2444 0.961 . S
H2432 C2444 0.959 . S
H2433 C2447 0.929 . S
H2434 C2448 0.931 . S
H2435 C2450 0.930 . S
C2436 H2424 0.930 . S
C2436 C2437 1.399 . S
C2436 C2441 1.399 . S
C2437 C2436 1.399 . S
C2437 C2438 1.376 . S
C2438 H2425 0.930 . S
C2438 C2437 1.376 . S
C2438 C2439 1.388 . S
C2439 H2426 0.930 . S
C2439 C2438 1.388 . S
C2439 C2440 1.390 . S
C2440 C2439 1.390 . S
C2440 C2441 1.394 . S
C2440 C2446 1.465 . S
C2441 C2436 1.399 . S
C2441 C2440 1.394 . S
C2441 C2442 1.516 . S
C2442 C2441 1.516 . S
C2442 C2443 1.502 . S
C2442 C2444 1.561 . S
C2442 C2445 1.526 . S
C2443 H2427 0.959 . S
C2443 H2428 0.959 . S
C2443 H2429 0.961 . S
C2443 C2442 1.502 . S
C2444 H2430 0.960 . S
C2444 H2431 0.961 . S
C2444 H2432 0.959 . S
C2444 C2442 1.561 . S
C2445 C2442 1.526 . S
C2445 C2446 1.396 . S
C2445 C2450 1.390 . S
C2446 C2440 1.465 . S
C2446 C2445 1.396 . S
C2446 C2447 1.399 . S
C2447 H2433 0.929 . S
C2447 C2446 1.399 . S
C2447 C2448 1.385 . S
C2448 H2434 0.931 . S
C2448 C2447 1.385 . S
C2448 C2449 1.389 . S
C2449 C2448 1.389 . S
C2449 C2450 1.387 . S
C2450 H2435 0.930 . S
C2450 C2445 1.390 . S
C2450 C2449 1.387 . S
H2451 C2463 0.930 . S
H2452 C2465 0.930 . S
H2453 C2466 0.930 . S
H2454 C2470 0.959 . S
H2455 C2470 0.959 . S
H2456 C2470 0.961 . S
H2457 C2471 0.960 1_565 S
H2458 C2471 0.961 . S
H2459 C2471 0.959 . S
H2460 C2474 0.929 . S
H2461 C2475 0.931 . S
H2462 C2477 0.930 1_455 S
C2463 H2451 0.930 . S
C2463 C2464 1.399 . S
C2463 C2468 1.399 . S
C2464 C2463 1.399 . S
C2464 C2465 1.376 . S
C2465 H2452 0.930 . S
C2465 C2464 1.376 . S
C2465 C2466 1.388 . S
C2466 H2453 0.930 . S
C2466 C2465 1.388 . S
C2466 C2467 1.390 . S
C2467 C2466 1.390 . S
C2467 C2468 1.394 . S
C2467 C2473 1.465 . S
C2468 C2463 1.399 . S
C2468 C2467 1.394 . S
C2468 C2469 1.516 . S
C2469 C2468 1.516 . S
C2469 C2470 1.502 . S
C2469 C2471 1.561 1_565 S
C2469 C2472 1.526 . S
C2470 H2454 0.959 . S
C2470 H2455 0.959 . S
C2470 H2456 0.961 . S
C2470 C2469 1.502 . S
C2471 H2457 0.960 1_545 S
C2471 H2458 0.961 . S
C2471 H2459 0.959 . S
C2471 C2469 1.561 1_545 S
C2472 C2469 1.526 . S
C2472 C2473 1.396 . S
C2472 C2477 1.390 . S
C2473 C2467 1.465 . S
C2473 C2472 1.396 . S
C2473 C2474 1.399 . S
C2474 H2460 0.929 . S
C2474 C2473 1.399 . S
C2474 C2475 1.385 1_655 S
C2475 H2461 0.931 . S
C2475 C2474 1.385 1_455 S
C2475 C2476 1.389 . S
C2476 C2475 1.389 . S
C2476 C2477 1.387 1_455 S
C2477 H2462 0.930 1_655 S
C2477 C2472 1.390 . S
C2477 C2476 1.387 1_655 S
H2478 C2490 0.930 . S
H2479 C2492 0.930 . S
H2480 C2493 0.930 . S
H2481 C2497 0.959 . S
H2482 C2497 0.959 . S
H2483 C2497 0.961 . S
H2484 C2498 0.960 . S
H2485 C2498 0.961 . S
H2486 C2498 0.959 . S
H2487 C2501 0.929 . S
H2488 C2502 0.931 . S
H2489 C2504 0.930 . S
C2490 H2478 0.930 . S
C2490 C2491 1.399 . S
C2490 C2495 1.399 . S
C2491 C2490 1.399 . S
C2491 C2492 1.376 . S
C2492 H2479 0.930 . S
C2492 C2491 1.376 . S
C2492 C2493 1.388 . S
C2493 H2480 0.930 . S
C2493 C2492 1.388 . S
C2493 C2494 1.390 . S
C2494 C2493 1.390 . S
C2494 C2495 1.394 . S
C2494 C2500 1.465 . S
C2495 C2490 1.399 . S
C2495 C2494 1.394 . S
C2495 C2496 1.516 . S
C2496 C2495 1.516 . S
C2496 C2497 1.502 . S
C2496 C2498 1.561 . S
C2496 C2499 1.526 . S
C2497 H2481 0.959 . S
C2497 H2482 0.959 . S
C2497 H2483 0.961 . S
C2497 C2496 1.502 . S
C2498 H2484 0.960 . S
C2498 H2485 0.961 . S
C2498 H2486 0.959 . S
C2498 C2496 1.561 . S
C2499 C2496 1.526 . S
C2499 C2500 1.396 . S
C2499 C2504 1.390 . S
C2500 C2494 1.465 . S
C2500 C2499 1.396 . S
C2500 C2501 1.399 . S
C2501 H2487 0.929 . S
C2501 C2500 1.399 . S
C2501 C2502 1.385 . S
C2502 H2488 0.931 . S
C2502 C2501 1.385 . S
C2502 C2503 1.389 . S
C2503 C2502 1.389 . S
C2503 C2504 1.387 . S
C2504 H2489 0.930 . S
C2504 C2499 1.390 . S
C2504 C2503 1.387 . S
H2505 C2517 0.930 . S
H2506 C2519 0.930 . S
H2507 C2520 0.930 . S
H2508 C2524 0.959 . S
H2509 C2524 0.959 . S
H2510 C2524 0.961 . S
H2511 C2525 0.960 . S
H2512 C2525 0.961 . S
H2513 C2525 0.959 1_565 S
H2514 C2528 0.929 . S
H2515 C2529 0.931 . S
H2516 C2531 0.930 . S
C2517 H2505 0.930 . S
C2517 C2518 1.399 . S
C2517 C2522 1.399 . S
C2518 C2517 1.399 . S
C2518 C2519 1.376 1_545 S
C2519 H2506 0.930 . S
C2519 C2518 1.376 1_565 S
C2519 C2520 1.388 1_565 S
C2520 H2507 0.930 . S
C2520 C2519 1.388 1_545 S
C2520 C2521 1.390 . S
C2521 C2520 1.390 . S
C2521 C2522 1.394 . S
C2521 C2527 1.465 . S
C2522 C2517 1.399 . S
C2522 C2521 1.394 . S
C2522 C2523 1.516 . S
C2523 C2522 1.516 . S
C2523 C2524 1.502 . S
C2523 C2525 1.561 . S
C2523 C2526 1.526 . S
C2524 H2508 0.959 . S
C2524 H2509 0.959 . S
C2524 H2510 0.961 . S
C2524 C2523 1.502 . S
C2525 H2511 0.960 . S
C2525 H2512 0.961 . S
C2525 H2513 0.959 1_545 S
C2525 C2523 1.561 . S
C2526 C2523 1.526 . S
C2526 C2527 1.396 . S
C2526 C2531 1.390 . S
C2527 C2521 1.465 . S
C2527 C2526 1.396 . S
C2527 C2528 1.399 . S
C2528 H2514 0.929 . S
C2528 C2527 1.399 . S
C2528 C2529 1.385 . S
C2529 H2515 0.931 . S
C2529 C2528 1.385 . S
C2529 C2530 1.389 . S
C2530 C2529 1.389 . S
C2530 C2531 1.387 . S
C2531 H2516 0.930 . S
C2531 C2526 1.390 . S
C2531 C2530 1.387 . S
H2532 C2544 0.930 . S
H2533 C2546 0.930 . S
H2534 C2547 0.930 . S
H2535 C2551 0.959 . S
H2536 C2551 0.959 . S
H2537 C2551 0.961 . S
H2538 C2552 0.960 . S
H2539 C2552 0.961 . S
H2540 C2552 0.959 . S
H2541 C2555 0.929 . S
H2542 C2556 0.931 . S
H2543 C2558 0.930 . S
C2544 H2532 0.930 . S
C2544 C2545 1.399 . S
C2544 C2549 1.399 . S
C2545 C2544 1.399 . S
C2545 C2546 1.376 . S
C2546 H2533 0.930 . S
C2546 C2545 1.376 . S
C2546 C2547 1.388 . S
C2547 H2534 0.930 . S
C2547 C2546 1.388 . S
C2547 C2548 1.390 . S
C2548 C2547 1.390 . S
C2548 C2549 1.394 . S
C2548 C2554 1.465 . S
C2549 C2544 1.399 . S
C2549 C2548 1.394 . S
C2549 C2550 1.516 . S
C2550 C2549 1.516 . S
C2550 C2551 1.502 . S
C2550 C2552 1.561 . S
C2550 C2553 1.526 . S
C2551 H2535 0.959 . S
C2551 H2536 0.959 . S
C2551 H2537 0.961 . S
C2551 C2550 1.502 . S
C2552 H2538 0.960 . S
C2552 H2539 0.961 . S
C2552 H2540 0.959 . S
C2552 C2550 1.561 . S
C2553 C2550 1.526 . S
C2553 C2554 1.396 . S
C2553 C2558 1.390 . S
C2554 C2548 1.465 . S
C2554 C2553 1.396 . S
C2554 C2555 1.399 . S
C2555 H2541 0.929 . S
C2555 C2554 1.399 . S
C2555 C2556 1.385 . S
C2556 H2542 0.931 . S
C2556 C2555 1.385 . S
C2556 C2557 1.389 . S
C2557 C2556 1.389 . S
C2557 C2558 1.387 . S
C2558 H2543 0.930 . S
C2558 C2553 1.390 . S
C2558 C2557 1.387 . S
H2559 C2571 0.930 1_565 S
H2560 C2573 0.930 . S
H2561 C2574 0.930 . S
H2562 C2578 0.959 . S
H2563 C2578 0.959 . S
H2564 C2578 0.961 . S
H2565 C2579 0.960 . S
H2566 C2579 0.961 . S
H2567 C2579 0.959 . S
H2568 C2582 0.929 . S
H2569 C2583 0.931 . S
H2570 C2585 0.930 . S
C2571 H2559 0.930 1_545 S
C2571 C2572 1.399 1_455 S
C2571 C2576 1.399 . S
C2572 C2571 1.399 1_655 S
C2572 C2573 1.376 . S
C2573 H2560 0.930 . S
C2573 C2572 1.376 . S
C2573 C2574 1.388 1_655 S
C2574 H2561 0.930 . S
C2574 C2573 1.388 1_455 S
C2574 C2575 1.390 . S
C2575 C2574 1.390 . S
C2575 C2576 1.394 . S
C2575 C2581 1.465 . S
C2576 C2571 1.399 . S
C2576 C2575 1.394 . S
C2576 C2577 1.516 . S
C2577 C2576 1.516 . S
C2577 C2578 1.502 1_545 S
C2577 C2579 1.561 . S
C2577 C2580 1.526 . S
C2578 H2562 0.959 . S
C2578 H2563 0.959 . S
C2578 H2564 0.961 . S
C2578 C2577 1.502 1_565 S
C2579 H2565 0.960 . S
C2579 H2566 0.961 . S
C2579 H2567 0.959 . S
C2579 C2577 1.561 . S
C2580 C2577 1.526 . S
C2580 C2581 1.396 . S
C2580 C2585 1.390 . S
C2581 C2575 1.465 . S
C2581 C2580 1.396 . S
C2581 C2582 1.399 . S
C2582 H2568 0.929 . S
C2582 C2581 1.399 . S
C2582 C2583 1.385 . S
C2583 H2569 0.931 . S
C2583 C2582 1.385 . S
C2583 C2584 1.389 . S
C2584 C2583 1.389 . S
C2584 C2585 1.387 . S
C2585 H2570 0.930 . S
C2585 C2580 1.390 . S
C2585 C2584 1.387 . S
H2586 C2598 0.930 . S
H2587 C2600 0.930 . S
H2588 C2601 0.930 . S
H2589 C2605 0.959 . S
H2590 C2605 0.959 . S
H2591 C2605 0.961 . S
H2592 C2606 0.960 . S
H2593 C2606 0.961 . S
H2594 C2606 0.959 . S
H2595 C2609 0.929 . S
H2596 C2610 0.931 . S
H2597 C2612 0.930 . S
C2598 H2586 0.930 . S
C2598 C2599 1.399 . S
C2598 C2603 1.399 . S
C2599 C2598 1.399 . S
C2599 C2600 1.376 . S
C2600 H2587 0.930 . S
C2600 C2599 1.376 . S
C2600 C2601 1.388 . S
C2601 H2588 0.930 . S
C2601 C2600 1.388 . S
C2601 C2602 1.390 . S
C2602 C2601 1.390 . S
C2602 C2603 1.394 . S
C2602 C2608 1.465 . S
C2603 C2598 1.399 . S
C2603 C2602 1.394 . S
C2603 C2604 1.516 . S
C2604 C2603 1.516 . S
C2604 C2605 1.502 . S
C2604 C2606 1.561 . S
C2604 C2607 1.526 . S
C2605 H2589 0.959 . S
C2605 H2590 0.959 . S
C2605 H2591 0.961 . S
C2605 C2604 1.502 . S
C2606 H2592 0.960 . S
C2606 H2593 0.961 . S
C2606 H2594 0.959 . S
C2606 C2604 1.561 . S
C2607 C2604 1.526 . S
C2607 C2608 1.396 . S
C2607 C2612 1.390 . S
C2608 C2602 1.465 . S
C2608 C2607 1.396 . S
C2608 C2609 1.399 . S
C2609 H2595 0.929 . S
C2609 C2608 1.399 . S
C2609 C2610 1.385 . S
C2610 H2596 0.931 . S
C2610 C2609 1.385 . S
C2610 C2611 1.389 . S
C2611 C2610 1.389 . S
C2611 C2612 1.387 . S
C2612 H2597 0.930 . S
C2612 C2607 1.390 . S
C2612 C2611 1.387 . S
H2613 C2625 0.930 . S
H2614 C2627 0.930 . S
H2615 C2628 0.930 . S
H2616 C2632 0.959 . S
H2617 C2632 0.959 . S
H2618 C2632 0.961 . S
H2619 C2633 0.960 . S
H2620 C2633 0.961 . S
H2621 C2633 0.959 . S
H2622 C2636 0.928 1_545 S
H2623 C2637 0.931 . S
H2624 C2639 0.930 . S
C2625 H2613 0.930 . S
C2625 C2626 1.399 . S
C2625 C2630 1.399 . S
C2626 C2625 1.399 . S
C2626 C2627 1.376 . S
C2627 H2614 0.930 . S
C2627 C2626 1.376 . S
C2627 C2628 1.388 . S
C2628 H2615 0.930 . S
C2628 C2627 1.388 . S
C2628 C2629 1.390 . S
C2629 C2628 1.390 . S
C2629 C2630 1.394 . S
C2629 C2635 1.465 . S
C2630 C2625 1.399 . S
C2630 C2629 1.394 . S
C2630 C2631 1.516 . S
C2631 C2630 1.516 . S
C2631 C2632 1.502 . S
C2631 C2633 1.561 . S
C2631 C2634 1.526 . S
C2632 H2616 0.959 . S
C2632 H2617 0.959 . S
C2632 H2618 0.961 . S
C2632 C2631 1.502 . S
C2633 H2619 0.960 . S
C2633 H2620 0.961 . S
C2633 H2621 0.959 . S
C2633 C2631 1.561 . S
C2634 C2631 1.526 . S
C2634 C2635 1.396 . S
C2634 C2639 1.390 . S
C2635 C2629 1.465 . S
C2635 C2634 1.396 . S
C2635 C2636 1.399 . S
C2636 H2622 0.928 1_565 S
C2636 C2635 1.399 . S
C2636 C2637 1.385 1_565 S
C2637 H2623 0.931 . S
C2637 C2636 1.385 1_545 S
C2637 C2638 1.389 1_545 S
C2638 C2637 1.389 1_565 S
C2638 C2639 1.387 . S
C2639 H2624 0.930 . S
C2639 C2634 1.390 . S
C2639 C2638 1.387 . S
C1357 C58 1.153 . S
C1369 C1077 1.314 . S
C1384 C489 1.134 . S
C1396 C142 1.295 . S
C1411 C226 1.130 . S
C1423 C1245 1.235 . S
C1438 C321 1.220 . S
C1450 C646 1.034 . S
C1465 C405 1.317 . S
C1477 C730 1.154 . S
C1492 C898 1.246 . S
C1504 C573 1.087 . S
C1519 C1161 1.131 . S
C1531 C814 1.295 . S
C1546 C993 1.050 . S
C1558 C1318 1.213 . S
C1573 C823 2.217 . S
C1585 C69 2.172 . S
C1600 C153 2.174 . S
C1612 C907 2.246 . S
C1627 C237 2.109 . S
C1639 C998 2.279 . S
C1654 C739 2.260 . S
C1666 C310 2.352 . S
C1681 C1148 2.223 . S
C1693 C394 2.146 . S
C1708 C1232 2.289 . S
C1720 C478 2.113 . S
C1735 C562 2.074 . S
C1747 C1323 2.313 . S
C1762 C1064 2.256 . S
C1774 C657 2.326 . S
C1789 C741 2.120 . S
C1801 C151 2.254 . S
C1816 C825 2.193 1_565 S
C1828 C235 2.233 . S
C1843 C909 2.117 . S
C1855 C326 2.306 . S
C1870 C67 2.301 . S
C1882 C982 2.318 . S
C1897 C476 2.237 . S
C1909 C1066 2.123 . S
C1924 C1150 2.166 1_545 S
C1936 C560 2.240 . S
C1951 C651 2.291 . S
C1963 C1234 2.109 . S
C1978 C1329 2.320 . S
C1990 C392 2.308 . S
C2005 C63 2.364 . S
C2017 C903 2.366 . S
C2032 C147 2.352 . S
C2044 C980 2.415 . S
C2059 C735 2.336 . S
C2071 C231 2.332 . S
C2086 C308 2.406 . S
C2098 C819 2.341 . S
C2113 C410 2.360 . S
C2125 C1250 2.364 . S
C2140 C494 2.376 . S
C2152 C1327 2.417 . S
C2167 C1082 2.330 . S
C2179 C578 2.326 . S
C2194 C655 2.408 . S
C2206 C1166 2.377 . S
C2221 C56 1.521 . S
C2233 C644 1.564 . S
C2248 C1071 1.516 . S
C2260 C140 1.520 . S
C2275 C224 1.548 . S
C2287 C483 1.533 . S
C2302 C315 1.452 . S
C2314 C1239 1.547 . S
C2329 C403 1.513 . S
C2341 C319 1.559 . S
C2356 C746 1.521 . S
C2368 C487 1.536 . S
C2383 C571 1.460 . S
C2395 C158 1.577 . S
C2410 C914 1.548 . S
C2422 C662 1.447 . S
C2437 C728 1.442 . S
C2449 C1316 1.562 . S
C2464 C399 1.579 . S
C2476 C812 1.439 1_565 S
C2491 C1155 1.594 . S
C2503 C896 1.466 . S
C2518 C987 1.439 1_545 S
C2530 C567 1.536 . S
C2545 C1075 1.499 . S
C2557 C991 1.554 . S
C2572 C1159 1.505 1_545 S
C2584 C74 1.510 . S
C2599 C830 1.524 . S
C2611 C1243 1.546 . S
C2626 C242 1.546 . S
C2638 C1334 1.450 1_565 S
