# Generated by pormake.
# Topology uol, (4)-cn, num edge types: 1
# Building blocks:
#     Node 0, Type 0, BuildingBlock: ESEHIV_clean_sbu_0, # of connection points: 4
#     Node 1, Type 0, BuildingBlock: ESEHIV_clean_sbu_0, # of connection points: 4
#     Node 2, Type 0, BuildingBlock: ESEHIV_clean_sbu_0, # of connection points: 4
#     Node 3, Type 0, BuildingBlock: ESEHIV_clean_sbu_0, # of connection points: 4
#     Node 4, Type 0, BuildingBlock: ESEHIV_clean_sbu_0, # of connection points: 4
#     Node 5, Type 0, BuildingBlock: ESEHIV_clean_sbu_0, # of connection points: 4
#     Node 6, Type 0, BuildingBlock: ESEHIV_clean_sbu_0, # of connection points: 4
#     Node 7, Type 0, BuildingBlock: ESEHIV_clean_sbu_0, # of connection points: 4
#     Node 8, Type 0, BuildingBlock: ESEHIV_clean_sbu_0, # of connection points: 4
#     Node 9, Type 0, BuildingBlock: ESEHIV_clean_sbu_0, # of connection points: 4
#     Node 10, Type 0, BuildingBlock: ESEHIV_clean_sbu_0, # of connection points: 4
#     Node 11, Type 0, BuildingBlock: ESEHIV_clean_sbu_0, # of connection points: 4
#     Edge 12, Type (0, 0), BuildingBlock: XIVTED_clean_linker_0, # of connection points: 2
#     Edge 13, Type (0, 0), BuildingBlock: XIVTED_clean_linker_0, # of connection points: 2
#     Edge 14, Type (0, 0), BuildingBlock: XIVTED_clean_linker_0, # of connection points: 2
#     Edge 15, Type (0, 0), BuildingBlock: XIVTED_clean_linker_0, # of connection points: 2
#     Edge 16, Type (0, 0), BuildingBlock: XIVTED_clean_linker_0, # of connection points: 2
#     Edge 17, Type (0, 0), BuildingBlock: XIVTED_clean_linker_0, # of connection points: 2
#     Edge 18, Type (0, 0), BuildingBlock: XIVTED_clean_linker_0, # of connection points: 2
#     Edge 19, Type (0, 0), BuildingBlock: XIVTED_clean_linker_0, # of connection points: 2
#     Edge 20, Type (0, 0), BuildingBlock: XIVTED_clean_linker_0, # of connection points: 2
#     Edge 21, Type (0, 0), BuildingBlock: XIVTED_clean_linker_0, # of connection points: 2
#     Edge 22, Type (0, 0), BuildingBlock: XIVTED_clean_linker_0, # of connection points: 2
#     Edge 23, Type (0, 0), BuildingBlock: XIVTED_clean_linker_0, # of connection points: 2
#     Edge 24, Type (0, 0), BuildingBlock: XIVTED_clean_linker_0, # of connection points: 2
#     Edge 25, Type (0, 0), BuildingBlock: XIVTED_clean_linker_0, # of connection points: 2
#     Edge 26, Type (0, 0), BuildingBlock: XIVTED_clean_linker_0, # of connection points: 2
#     Edge 27, Type (0, 0), BuildingBlock: XIVTED_clean_linker_0, # of connection points: 2
#     Edge 28, Type (0, 0), BuildingBlock: XIVTED_clean_linker_0, # of connection points: 2
#     Edge 29, Type (0, 0), BuildingBlock: XIVTED_clean_linker_0, # of connection points: 2
#     Edge 30, Type (0, 0), BuildingBlock: XIVTED_clean_linker_0, # of connection points: 2
#     Edge 31, Type (0, 0), BuildingBlock: XIVTED_clean_linker_0, # of connection points: 2
#     Edge 32, Type (0, 0), BuildingBlock: XIVTED_clean_linker_0, # of connection points: 2
#     Edge 33, Type (0, 0), BuildingBlock: XIVTED_clean_linker_0, # of connection points: 2
#     Edge 34, Type (0, 0), BuildingBlock: XIVTED_clean_linker_0, # of connection points: 2
#     Edge 35, Type (0, 0), BuildingBlock: XIVTED_clean_linker_0, # of connection points: 2
# Relax obj value: 0.152
# Max RMSD: 0.225
# Mean RMSD: 0.225
data_MOF--net-uol--node1-ESEHIV_clean_sbu_0--edge1-XIVTED_clean_linker_0
_symmetry_space_group_name_H-M    P1
_symmetry_Int_Tables_number       1
_symmetry_cell_setting            triclinic
loop_
_symmetry_equiv_pos_as_xyz
'x, y, z'
_cell_length_a     39.197431
_cell_length_b     39.508087
_cell_length_c     56.494941
_cell_angle_alpha  90.282299
_cell_angle_beta   89.925205
_cell_angle_gamma 120.24023
loop_
_atom_site_label
_atom_site_type_symbol
_atom_site_fract_x
_atom_site_fract_y
_atom_site_fract_z
_atom_type_partial_charge
Cu0 Cu 0.15491 0.36417 0.11465 0.0
N1 N 0.1913 0.38048 0.13945 0.0
N2 N 0.23581 0.37996 0.16396 0.0
C3 C 0.21849 0.36959 0.14242 0.0
C4 C 0.219 0.39847 0.17482 0.0
C5 C 0.19143 0.39854 0.15971 0.0
O6 O 0.17729 0.3501 0.08822 0.0
C7 C 0.10358 0.29459 0.1394 0.0
O8 O 0.13619 0.29384 0.14342 0.0
H9 H 0.22313 0.35169 0.12973 0.0
H10 H 0.17127 0.40888 0.1638 0.0
N11 N 0.14676 0.40458 0.10454 0.0
N12 N 0.14558 0.46057 0.10174 0.0
C13 C 0.15714 0.4394 0.11479 0.0
C14 C 0.12822 0.40374 0.08437 0.0
C15 C 0.12745 0.43807 0.08256 0.0
C16 C 0.16473 0.31631 0.07912 0.0
O17 O 0.13245 0.28616 0.0874 0.0
H18 H 0.17257 0.44885 0.13149 0.0
H19 H 0.11626 0.37977 0.07178 0.0
O20 O 0.10495 0.32129 0.1262 0.0
H21 H 0.22493 0.40975 0.19275 0.0
H22 H 0.11502 0.44595 0.06797 0.0
Cu23 Cu 0.80832 0.13348 0.27432 0.0
N24 N 0.83012 0.17313 0.29711 0.0
N25 N 0.87668 0.21983 0.32003 0.0
C26 C 0.86889 0.199 0.29972 0.0
C27 C 0.84122 0.20653 0.33052 0.0
C28 C 0.81262 0.1776 0.31641 0.0
O29 O 0.84597 0.14863 0.24847 0.0
C30 C 0.76815 0.06334 0.30058 0.0
O31 O 0.73949 0.07141 0.30048 0.0
H32 H 0.8912 0.20052 0.28777 0.0
H33 H 0.78163 0.15958 0.32062 0.0
N34 N 0.76082 0.1269 0.26226 0.0
N35 N 0.70511 0.12884 0.25723 0.0
C36 C 0.73787 0.1407 0.27063 0.0
C37 C 0.74215 0.10585 0.24287 0.0
C38 C 0.70788 0.10695 0.23971 0.0
C39 C 0.87574 0.14391 0.24928 0.0
O40 O 0.88037 0.12644 0.2677 0.0
H41 H 0.74471 0.15847 0.28643 0.0
H42 H 0.75275 0.09062 0.23184 0.0
O43 O 0.8 0.08572 0.28953 0.0
H44 H 0.83637 0.21589 0.3476 0.0
H45 H 0.6869 0.09293 0.22546 0.0
Cu46 Cu 0.68494 0.79525 0.44878 0.0
N47 N 0.66631 0.81608 0.47167 0.0
N48 N 0.66794 0.86223 0.49551 0.0
C49 C 0.67936 0.85454 0.47458 0.0
C50 C 0.64664 0.82709 0.50612 0.0
C51 C 0.64592 0.79875 0.49145 0.0
O52 O 0.70057 0.82942 0.42139 0.0
C53 C 0.75151 0.78312 0.4544 0.0
O54 O 0.74819 0.77419 0.43177 0.0
H55 H 0.6997 0.87676 0.46249 0.0
H56 H 0.63402 0.76822 0.49577 0.0
N57 N 0.64614 0.74498 0.43901 0.0
N58 N 0.59054 0.68668 0.43545 0.0
C59 C 0.61027 0.72026 0.44824 0.0
C60 C 0.64914 0.7266 0.41973 0.0
C61 C 0.61512 0.69084 0.41747 0.0
C62 C 0.73421 0.85984 0.4183 0.0
O63 O 0.76236 0.8689 0.43391 0.0
H64 H 0.59889 0.72683 0.46392 0.0
H65 H 0.67423 0.73872 0.40791 0.0
O66 O 0.72831 0.79307 0.46375 0.0
H67 H 0.6342 0.82239 0.52373 0.0
H68 H 0.60888 0.67003 0.40329 0.0
Cu69 Cu 0.91322 0.68266 0.60721 0.0
N70 N 0.87698 0.66785 0.63184 0.0
N71 N 0.8339 0.66993 0.65684 0.0
C72 C 0.85386 0.68324 0.63633 0.0
C73 C 0.84485 0.64504 0.66555 0.0
C74 C 0.87144 0.64379 0.65004 0.0
O75 O 0.89935 0.71127 0.58501 0.0
C76 C 0.97142 0.74751 0.63095 0.0
O77 O 0.94368 0.75686 0.62997 0.0
H78 H 0.85334 0.70536 0.62536 0.0
H79 H 0.88667 0.62756 0.65226 0.0
N80 N 0.90787 0.63766 0.59247 0.0
N81 N 0.90002 0.57809 0.58664 0.0
C82 C 0.91252 0.60879 0.60175 0.0
C83 C 0.8921 0.62471 0.57086 0.0
C84 C 0.88732 0.58817 0.56721 0.0
C85 C 0.91363 0.72236 0.56439 0.0
O86 O 0.94189 0.71629 0.55696 0.0
H87 H 0.9225 0.60921 0.61966 0.0
H88 H 0.88272 0.63987 0.55902 0.0
O89 O 0.9653 0.71604 0.62084 0.0
H90 H 0.83495 0.62943 0.68212 0.0
H91 H 0.87423 0.5698 0.55175 0.0
Cu92 Cu 0.24823 0.88733 0.77987 0.0
N93 N 0.22077 0.8429 0.7987 0.0
N94 N 0.16999 0.79457 0.81813 0.0
C95 C 0.18174 0.82481 0.80305 0.0
C96 C 0.20302 0.79358 0.82352 0.0
C97 C 0.2343 0.82337 0.81143 0.0
O98 O 0.21528 0.87885 0.75221 0.0
C99 C 0.26483 0.96543 0.79081 0.0
O100 O 0.26531 0.97044 0.76782 0.0
H101 H 0.16253 0.83446 0.79585 0.0
H102 H 0.26475 0.83049 0.81216 0.0
N103 N 0.29618 0.89313 0.76942 0.0
N104 N 0.35537 0.89755 0.76767 0.0
C105 C 0.32533 0.89267 0.78184 0.0
C106 C 0.30826 0.8987 0.74676 0.0
C107 C 0.34462 0.90141 0.74561 0.0
C108 C 0.18576 0.884 0.75184 0.0
O109 O 0.17818 0.8991 0.77049 0.0
H110 H 0.32466 0.88912 0.80083 0.0
H111 H 0.29149 0.90028 0.73205 0.0
O112 O 0.25795 0.93255 0.79886 0.0
H113 H 0.20451 0.77291 0.83536 0.0
H114 H 0.36132 0.90491 0.72963 0.0
Cu115 Cu 0.37016 0.23517 0.94349 0.0
N116 N 0.38554 0.21739 0.96956 0.0
N117 N 0.38375 0.17426 0.9957 0.0
C118 C 0.37375 0.17957 0.97376 0.0
C119 C 0.40274 0.21029 1.00568 0.0
C120 C 0.4037 0.23683 0.98952 0.0
O121 O 0.34873 0.19228 0.92065 0.0
C122 C 0.33975 0.27838 0.96576 0.0
O123 O 0.37735 0.30489 0.96755 0.0
H124 H 0.35575 0.1561 0.96152 0.0
H125 H 0.41485 0.26767 0.99261 0.0
N126 N 0.41362 0.27927 0.9301 0.0
N127 N 0.47168 0.33479 0.92537 0.0
C128 C 0.44636 0.3077 0.94089 0.0
C129 C 0.41855 0.28849 0.907 0.0
C130 C 0.45412 0.32254 0.90401 0.0
C131 C 0.32926 0.18964 0.90205 0.0
O132 O 0.3213 0.21743 0.89719 0.0
H133 H 0.45121 0.30869 0.95976 0.0
H134 H 0.39787 0.27145 0.89317 0.0
O135 O 0.3299 0.24654 0.95475 0.0
H136 H 0.41389 0.21684 1.02363 0.0
H137 H 0.46624 0.33667 0.88726 0.0
Cu138 Cu 0.68881 0.86667 0.77834 0.0
N139 N 0.68071 0.83088 0.75438 0.0
N140 N 0.69013 0.79099 0.73063 0.0
C141 C 0.70395 0.81584 0.74929 0.0
C142 C 0.65686 0.79044 0.72377 0.0
C143 C 0.65106 0.81499 0.73853 0.0
O144 O 0.71837 0.85818 0.80311 0.0
C145 C 0.70734 0.92976 0.74767 0.0
O146 O 0.67151 0.90614 0.73966 0.0
H147 H 0.73086 0.82358 0.75883 0.0
H148 H 0.62699 0.82093 0.73776 0.0
N149 N 0.63911 0.85618 0.78902 0.0
N150 N 0.58345 0.85798 0.79458 0.0
C151 C 0.62135 0.87774 0.78697 0.0
C152 C 0.61154 0.82174 0.79813 0.0
C153 C 0.57738 0.82281 0.80171 0.0
C154 C 0.7093 0.8525 0.82497 0.0
O155 O 0.67905 0.85494 0.83279 0.0
H156 H 0.6356 0.90692 0.7796 0.0
H157 H 0.6157 0.79705 0.8012 0.0
O158 O 0.7202 0.91894 0.76502 0.0
H159 H 0.63788 0.77327 0.70928 0.0
H160 H 0.54965 0.79878 0.80797 0.0
Cu161 Cu 0.83651 0.66878 0.94121 0.0
N162 N 0.85655 0.65741 0.91435 0.0
N163 N 0.90112 0.6619 0.88797 0.0
C164 C 0.89509 0.67145 0.90992 0.0
C165 C 0.86481 0.64085 0.87824 0.0
C166 C 0.83732 0.63807 0.89462 0.0
O167 O 0.88057 0.69372 0.96324 0.0
C168 C 0.83822 0.73267 0.91883 0.0
O169 O 0.87431 0.74084 0.91379 0.0
H170 H 0.91838 0.69014 0.92212 0.0
H171 H 0.80573 0.62414 0.89206 0.0
N172 N 0.79608 0.6221 0.95388 0.0
N173 N 0.73855 0.56612 0.9584 0.0
C174 C 0.75929 0.59896 0.94532 0.0
C175 C 0.79885 0.60339 0.97293 0.0
C176 C 0.76354 0.56901 0.9758 0.0
C177 C 0.87994 0.70278 0.98482 0.0
O178 O 0.84676 0.69703 0.9942 0.0
H179 H 0.74825 0.60609 0.92971 0.0
H180 H 0.82508 0.61365 0.98368 0.0
O181 O 0.81678 0.70312 0.93176 0.0
H182 H 0.85859 0.629 0.86044 0.0
H183 H 0.75736 0.54733 0.98929 0.0
Cu184 Cu 0.1877 0.82846 0.11258 0.0
N185 N 0.22455 0.85802 0.08944 0.0
N186 N 0.26491 0.90895 0.06691 0.0
C187 C 0.23731 0.89569 0.08414 0.0
C188 C 0.26963 0.87833 0.06119 0.0
C189 C 0.24483 0.84701 0.07522 0.0
O190 O 0.19584 0.86518 0.1381 0.0
C191 C 0.12814 0.78767 0.07909 0.0
O192 O 0.15607 0.78296 0.06955 0.0
H193 H 0.22631 0.91287 0.09269 0.0
H194 H 0.24194 0.8183 0.0752 0.0
N195 N 0.19871 0.78991 0.12267 0.0
N196 N 0.19798 0.73318 0.1268 0.0
C197 C 0.17849 0.75095 0.11857 0.0
C198 C 0.23203 0.79707 0.13375 0.0
C199 C 0.23164 0.7623 0.1364 0.0
C200 C 0.19626 0.85868 0.16012 0.0
O201 O 0.18718 0.8235 0.16722 0.0
H202 H 0.15047 0.73617 0.10938 0.0
H203 H 0.25553 0.82589 0.13889 0.0
O204 O 0.13503 0.80586 0.09877 0.0
H205 H 0.29006 0.87873 0.04814 0.0
H206 H 0.25521 0.75913 0.14397 0.0
Cu207 Cu 0.37966 0.17694 0.27492 0.0
N208 N 0.39128 0.21658 0.25319 0.0
N209 N 0.38389 0.25947 0.23135 0.0
C210 C 0.3694 0.23349 0.24928 0.0
C211 C 0.4162 0.25879 0.22369 0.0
C212 C 0.42071 0.23231 0.23725 0.0
O213 O 0.35494 0.18655 0.302 0.0
C214 C 0.33661 0.09381 0.26661 0.0
O215 O 0.35121 0.09093 0.28692 0.0
H216 H 0.34258 0.22581 0.25889 0.0
H217 H 0.44338 0.22453 0.23534 0.0
N218 N 0.42628 0.17974 0.28526 0.0
N219 N 0.48217 0.17757 0.28732 0.0
C220 C 0.45032 0.16975 0.27396 0.0
C221 C 0.4433 0.19408 0.30639 0.0
C222 C 0.47765 0.19279 0.30774 0.0
C223 C 0.31812 0.17396 0.30369 0.0
O224 O 0.29426 0.15102 0.28699 0.0
H225 H 0.44493 0.15774 0.2562 0.0
H226 H 0.43152 0.2049 0.31987 0.0
O227 O 0.34503 0.12744 0.2591 0.0
H228 H 0.43512 0.27603 0.20928 0.0
H229 H 0.49753 0.20201 0.32274 0.0
Cu230 Cu 0.21828 0.36149 0.44023 0.0
N231 N 0.19361 0.37044 0.41489 0.0
N232 N 0.1452 0.36287 0.39071 0.0
C233 C 0.15441 0.35182 0.41116 0.0
C234 C 0.18014 0.38959 0.38121 0.0
C235 C 0.21 0.39426 0.39624 0.0
O236 O 0.17649 0.33304 0.46322 0.0
C237 C 0.21778 0.29755 0.41876 0.0
O238 O 0.17955 0.28413 0.41917 0.0
H239 H 0.13319 0.32954 0.42287 0.0
H240 H 0.2414 0.41316 0.3936 0.0
N241 N 0.25689 0.40987 0.45238 0.0
N242 N 0.31397 0.46603 0.45802 0.0
C243 C 0.29582 0.43029 0.44743 0.0
C244 C 0.25003 0.43332 0.46643 0.0
C245 C 0.28501 0.4678 0.47 0.0
C246 C 0.17919 0.33404 0.4857 0.0
O247 O 0.21407 0.35362 0.49579 0.0
H248 H 0.31019 0.41925 0.43598 0.0
H249 H 0.22128 0.42621 0.47306 0.0
O250 O 0.24078 0.33071 0.42826 0.0
H251 H 0.18391 0.40457 0.36459 0.0
H252 H 0.28831 0.49269 0.47999 0.0
Cu253 Cu 0.86711 0.21475 0.60863 0.0
N254 N 0.83048 0.18364 0.58556 0.0
N255 N 0.79098 0.13182 0.56306 0.0
C256 C 0.81822 0.14586 0.58055 0.0
C257 C 0.78595 0.16199 0.55688 0.0
C258 C 0.8102 0.19384 0.57088 0.0
O259 O 0.85465 0.18202 0.6365 0.0
C260 C 0.92721 0.24807 0.57533 0.0
O261 O 0.89927 0.25057 0.56408 0.0
H262 H 0.82933 0.12916 0.58945 0.0
H263 H 0.81281 0.22242 0.57048 0.0
N264 N 0.8578 0.25538 0.61652 0.0
N265 N 0.85643 0.31122 0.61749 0.0
C266 C 0.87531 0.29291 0.60911 0.0
C267 C 0.82733 0.25013 0.63009 0.0
C268 C 0.82631 0.28438 0.63068 0.0
C269 C 0.86533 0.15708 0.64062 0.0
O270 O 0.89029 0.15449 0.62624 0.0
H271 H 0.90013 0.30597 0.59707 0.0
H272 H 0.80654 0.22277 0.6384 0.0
O273 O 0.9203 0.23412 0.59621 0.0
H274 H 0.76567 0.16093 0.54351 0.0
H275 H 0.8047 0.28906 0.63979 0.0
H276 H 0.14605 0.67908 0.09532 0.0
H277 H 0.19916 0.51571 0.1321 0.0
H278 H 0.22509 0.69354 0.15268 0.0
H279 H 0.10578 0.4944 0.08313 0.0
H280 H 0.20963 0.58116 0.13952 0.0
H281 H 0.13123 0.6116 0.09033 0.0
C282 C 0.16008 0.66815 0.10703 0.0
C283 C 0.18716 0.69247 0.12437 0.0
C284 C 0.18677 0.56207 0.1272 0.0
C285 C 0.17065 0.61502 0.11846 0.0
C286 C 0.18062 0.52449 0.123 0.0
C287 C 0.15161 0.49918 0.10683 0.0
C288 C 0.16391 0.57472 0.1151 0.0
C289 C 0.12896 0.51282 0.09542 0.0
C290 C 0.15172 0.62954 0.10407 0.0
C291 C 0.20464 0.67639 0.13877 0.0
N292 N 0.13569 0.5496 0.0997 0.0
N293 N 0.19625 0.63887 0.13542 0.0
H294 H 0.7076 0.18876 0.2828 0.0
H295 H 0.4814 0.1235 0.25687 0.0
H296 H 0.62972 0.0879 0.24027 0.0
H297 H 0.55722 0.21771 0.30419 0.0
H298 H 0.5363 0.11225 0.24853 0.0
H299 H 0.65354 0.20148 0.28929 0.0
C300 C 0.67919 0.16913 0.27488 0.0
C301 C 0.67346 0.13709 0.26098 0.0
C302 C 0.54089 0.1354 0.26073 0.0
C303 C 0.6112 0.15187 0.26816 0.0
C304 C 0.5096 0.14199 0.26538 0.0
C305 C 0.51452 0.17142 0.2814 0.0
C306 C 0.57747 0.15856 0.27206 0.0
C307 C 0.55174 0.19424 0.29206 0.0
C308 C 0.64829 0.17657 0.2785 0.0
C309 C 0.6359 0.11319 0.25088 0.0
N310 N 0.58166 0.18732 0.28722 0.0
N311 N 0.60628 0.12103 0.25469 0.0
H312 H 0.55752 0.61323 0.41618 0.0
H313 H 0.35397 0.53085 0.48614 0.0
H314 H 0.53291 0.68358 0.46433 0.0
H315 H 0.36858 0.47254 0.42536 0.0
H316 H 0.42164 0.58408 0.48125 0.0
H317 H 0.49081 0.55887 0.42222 0.0
C318 C 0.53828 0.61758 0.42794 0.0
C319 C 0.5513 0.65365 0.43956 0.0
C320 C 0.40999 0.55961 0.469 0.0
C321 C 0.47444 0.59058 0.44688 0.0
C322 C 0.37111 0.52908 0.47169 0.0
C323 C 0.35487 0.49691 0.456 0.0
C324 C 0.43326 0.55807 0.45062 0.0
C325 C 0.37944 0.49633 0.43801 0.0
C326 C 0.50005 0.58624 0.43145 0.0
C327 C 0.52472 0.65659 0.45503 0.0
N328 N 0.41728 0.52641 0.43581 0.0
N329 N 0.48767 0.62555 0.4582 0.0
H330 H 0.95016 0.56206 0.61082 0.0
H331 H 0.80206 0.33193 0.60828 0.0
H332 H 0.83954 0.50777 0.57302 0.0
H333 H 0.92746 0.37851 0.6145 0.0
H334 H 0.81405 0.39788 0.60074 0.0
H335 H 0.94146 0.49652 0.61781 0.0
C336 C 0.92409 0.53637 0.60407 0.0
C337 C 0.89562 0.54024 0.59123 0.0
C338 C 0.83902 0.39376 0.60368 0.0
C339 C 0.88532 0.46576 0.59928 0.0
C340 C 0.83216 0.35619 0.60808 0.0
C341 C 0.86383 0.3499 0.61203 0.0
C342 C 0.87784 0.42558 0.60363 0.0
C343 C 0.90235 0.38227 0.61137 0.0
C344 C 0.91929 0.49916 0.6079 0.0
C345 C 0.86243 0.50613 0.58273 0.0
N346 N 0.90834 0.41893 0.60747 0.0
N347 N 0.85806 0.4704 0.58706 0.0
H348 H 0.58097 0.90932 0.76359 0.0
H349 H 0.36544 0.86075 0.80536 0.0
H350 H 0.51795 0.83277 0.8218 0.0
H351 H 0.4259 0.93206 0.74479 0.0
H352 H 0.42374 0.85559 0.81416 0.0
H353 H 0.52742 0.92352 0.75901 0.0
C354 C 0.55618 0.89588 0.77562 0.0
C355 C 0.55391 0.86952 0.79299 0.0
C356 C 0.42433 0.87255 0.79901 0.0
C357 C 0.49209 0.8853 0.78765 0.0
C358 C 0.39108 0.8757 0.79406 0.0
C359 C 0.39052 0.89659 0.77416 0.0
C360 C 0.45739 0.89049 0.78401 0.0
C361 C 0.42463 0.91504 0.76004 0.0
C362 C 0.52541 0.90379 0.77289 0.0
C363 C 0.52069 0.8527 0.80789 0.0
N364 N 0.45652 0.91142 0.76517 0.0
N365 N 0.49107 0.86071 0.80481 0.0
H366 H 0.51306 0.39891 0.89733 0.0
H367 H 0.68994 0.51051 0.98991 0.0
H368 H 0.51752 0.35059 0.96491 0.0
H369 H 0.69563 0.54728 0.91744 0.0
H370 H 0.62448 0.45468 0.98218 0.0
H371 H 0.57743 0.45597 0.90554 0.0
C372 C 0.52746 0.39999 0.91385 0.0
C373 C 0.50951 0.36935 0.93034 0.0
C374 C 0.64007 0.47498 0.96797 0.0
C375 C 0.58353 0.4355 0.94001 0.0
C376 C 0.67768 0.50693 0.97233 0.0
C377 C 0.69889 0.53382 0.95428 0.0
C378 C 0.62313 0.46976 0.94541 0.0
C379 C 0.68062 0.52774 0.93201 0.0
C380 C 0.5643 0.43286 0.91857 0.0
C381 C 0.5297 0.37333 0.95167 0.0
N382 N 0.64392 0.49638 0.92822 0.0
N383 N 0.56554 0.40569 0.95586 0.0
H384 H 0.38948 0.28537 0.18618 0.0
H385 H 0.24472 0.3696 0.21068 0.0
H386 H 0.33914 0.28367 0.25443 0.0
H387 H 0.28606 0.36242 0.14101 0.0
H388 H 0.28473 0.34443 0.22748 0.0
H389 H 0.35723 0.31942 0.16986 0.0
C390 C 0.37199 0.29248 0.1978 0.0
C391 C 0.36682 0.28138 0.2217 0.0
C392 C 0.28523 0.34853 0.20852 0.0
C393 C 0.32956 0.32014 0.20308 0.0
C394 C 0.26256 0.36324 0.19889 0.0
C395 C 0.26175 0.36801 0.17431 0.0
C396 C 0.3074 0.33848 0.19352 0.0
C397 C 0.28524 0.35867 0.15999 0.0
C398 C 0.35338 0.31174 0.18843 0.0
C399 C 0.34343 0.29104 0.23583 0.0
N400 N 0.30696 0.34421 0.16979 0.0
N401 N 0.32563 0.30975 0.22631 0.0
H402 H 0.94539 0.26331 0.29608 0.0
H403 H 0.0756 0.33166 0.41434 0.0
H404 H 0.89651 0.23616 0.36655 0.0
H405 H 0.12553 0.35824 0.34413 0.0
H406 H 1.00963 0.30082 0.39705 0.0
H407 H 1.01131 0.30248 0.31319 0.0
C408 C 0.94845 0.26564 0.31514 0.0
C409 C 0.91524 0.24603 0.32986 0.0
C410 C 0.03499 0.31357 0.3854 0.0
C411 C 0.99075 0.29109 0.34961 0.0
C412 C 0.07273 0.33102 0.39527 0.0
C413 C 0.10625 0.34725 0.38068 0.0
C414 C 0.03056 0.31211 0.36069 0.0
C415 C 0.10062 0.34629 0.35608 0.0
C416 C 0.98612 0.28817 0.32491 0.0
C417 C 0.92103 0.25083 0.35446 0.0
N418 N 0.06351 0.32874 0.34686 0.0
N419 N 0.95804 0.27259 0.36353 0.0
H420 H 0.76231 0.10998 0.51844 0.0
H421 H 0.67992 0.88209 0.54217 0.0
H422 H 0.77419 0.0643 0.58518 0.0
H423 H 0.68817 0.92991 0.47251 0.0
H424 H 0.7078 0.94781 0.55897 0.0
H425 H 0.72908 0.04351 0.50204 0.0
C426 C 0.75773 0.08596 0.52969 0.0
C427 C 0.77117 0.09276 0.55321 0.0
C428 C 0.70337 0.94393 0.54001 0.0
C429 C 0.73322 1.01658 0.53454 0.0
C430 C 0.68709 0.90631 0.53041 0.0
C431 C 0.68171 0.90042 0.50585 0.0
C432 C 0.71418 0.97599 0.525 0.0
C433 C 0.69221 0.93316 0.4915 0.0
C434 C 0.73894 0.04804 0.52028 0.0
C435 C 0.76482 0.06051 0.56688 0.0
N436 N 0.70796 0.96952 0.50127 0.0
N437 N 0.74625 0.02385 0.55737 0.0
H438 H 0.8227 0.6745 0.70396 0.0
H439 H 0.68498 0.76813 0.68475 0.0
H440 H 0.78937 0.6955 0.63524 0.0
H441 H 0.73566 0.7664 0.75215 0.0
H442 H 0.71686 0.73471 0.66682 0.0
H443 H 0.78454 0.701 0.72242 0.0
C444 C 0.807 0.68426 0.69275 0.0
C445 C 0.80941 0.68296 0.668 0.0
C446 C 0.72094 0.74157 0.68555 0.0
C447 C 0.76595 0.71365 0.689 0.0
C448 C 0.70255 0.76044 0.69582 0.0
C449 C 0.7078 0.77026 0.71998 0.0
C450 C 0.74457 0.73215 0.69955 0.0
C451 C 0.73128 0.75994 0.73341 0.0
C452 C 0.78546 0.69966 0.7033 0.0
C453 C 0.78879 0.69648 0.65436 0.0
N454 N 0.74879 0.74147 0.72302 0.0
N455 N 0.768 0.71129 0.66503 0.0
H456 H 0.91848 0.67612 0.84118 0.0
H457 H 0.14972 0.7589 0.86101 0.0
H458 H 0.97007 0.6788 0.90906 0.0
H459 H 0.10052 0.77481 0.79662 0.0
H460 H 0.08305 0.72145 0.8774 0.0
H461 H 0.98386 0.70408 0.8231 0.0
C462 C 0.94345 0.68211 0.85224 0.0
C463 C 0.93882 0.67535 0.87671 0.0
C464 C 0.08684 0.733 0.85964 0.0
C465 C 1.01384 0.70769 0.85617 0.0
C466 C 0.12488 0.75416 0.85022 0.0
C467 C 0.13076 0.77029 0.82747 0.0
C468 C 0.05436 0.72766 0.84616 0.0
C469 C 0.09744 0.7635 0.81438 0.0
C470 C 0.98084 0.69835 0.84194 0.0
C471 C 0.97238 0.68411 0.8902 0.0
N472 N 0.06072 0.7428 0.82392 0.0
N473 N 1.00845 0.69991 0.87978 0.0
H474 H 0.29562 0.92939 1.02269 0.0
H475 H 0.36924 0.15691 0.04247 0.0
H476 H 0.28066 0.9772 0.08811 0.0
H477 H 0.36962 0.1066 0.97459 0.0
H478 H 0.34325 0.09247 0.06051 0.0
H479 H 0.32874 0.99514 1.00574 0.0
C480 C 0.29953 0.95373 0.03355 0.0
C481 C 0.28514 0.94769 0.05683 0.0
C482 C 0.34919 0.09556 0.04168 0.0
C483 C 0.3229 0.02309 0.03751 0.0
C484 C 0.36435 0.13245 0.03139 0.0
C485 C 0.37145 0.13717 1.00693 0.0
C486 C 0.34122 0.06312 0.02744 0.0
C487 C 0.36404 0.1042 0.99344 0.0
C488 C 0.31827 0.99125 1.02383 0.0
C489 C 0.29069 0.98034 0.06999 0.0
N490 N 0.34924 0.06859 1.00385 0.0
N491 N 0.30911 1.0166 0.06015 0.0
H492 H 0.23251 0.37276 0.0582 0.0
H493 H 0.26242 0.22377 0.97593 0.0
H494 H 0.14974 0.24832 0.05632 0.0
H495 H 0.34989 0.34569 0.98599 0.0
H496 H 0.21709 0.23294 1.00158 0.0
H497 H 0.27212 0.36398 0.02822 0.0
C498 C 0.22252 0.34354 0.05143 0.0
C499 C 0.18777 0.31119 0.05997 0.0
C500 C 0.24611 0.25771 0.998 0.0
C501 C 0.23333 0.30089 1.02545 0.0
C502 C 0.27193 0.25256 0.98326 0.0
C503 C 0.31014 0.28397 0.97889 0.0
C504 C 0.25852 0.29458 1.00832 0.0
C505 C 0.32087 0.32056 0.98897 0.0
C506 C 0.24524 0.33854 0.03427 0.0
C507 C 0.17636 0.27409 0.05035 0.0
N508 N 0.29532 0.32478 1.00324 0.0
N509 N 0.19917 0.26992 0.03368 0.0
H510 H 0.94297 0.13926 0.24549 0.0
H511 H 0.0315 0.29058 0.13788 0.0
H512 H 0.87954 0.18828 0.21098 0.0
H513 H 0.09213 0.23735 0.17089 0.0
H514 H 0.97379 0.25023 0.16261 0.0
H515 H 0.99609 0.17188 0.21663 0.0
C516 C 0.94004 0.15666 0.23175 0.0
C517 C 0.90675 0.16114 0.23077 0.0
C518 C 0.99961 0.24715 0.1643 0.0
C519 C 0.96776 0.19888 0.19763 0.0
C520 C 0.03258 0.27015 0.15014 0.0
C521 C 0.06688 0.26757 0.15237 0.0
C522 C 1.00094 0.22145 0.1809 0.0
C523 C 0.06647 0.24051 0.16858 0.0
C524 C 0.97045 0.17532 0.21525 0.0
C525 C 0.90466 0.18403 0.21249 0.0
N526 N 0.0342 0.21877 0.18231 0.0
N527 N 0.93484 0.20222 0.19676 0.0
H528 H 0.82686 0.0501 0.31611 0.0
H529 H 0.6785 0.85652 0.38773 0.0
H530 H 0.70067 1.00186 0.31839 0.0
H531 H 0.80308 0.92452 0.40357 0.0
H532 H 0.68739 0.90348 0.35701 0.0
H533 H 0.81966 0.99825 0.34299 0.0
C534 C 0.79762 0.02838 0.32203 0.0
C535 C 0.76431 0.03042 0.31507 0.0
C536 C 0.71283 0.90804 0.36712 0.0
C537 C 0.75592 0.97109 0.3457 0.0
C538 C 0.70784 0.88114 0.38464 0.0
C539 C 0.74007 0.88666 0.39841 0.0
C540 C 0.7504 0.94065 0.3631 0.0
C541 C 0.77735 0.9192 0.39351 0.0
C542 C 0.79358 0.99896 0.33746 0.0
C543 C 0.72718 1.00159 0.32339 0.0
N544 N 0.7815 0.94501 0.37628 0.0
N545 N 0.724 0.97318 0.33824 0.0
H546 H 0.86282 0.74823 0.57567 0.0
H547 H 0.80543 0.761 0.44164 0.0
H548 H 0.92125 0.7307 0.51604 0.0
H549 H 0.76298 0.79635 0.50204 0.0
H550 H 0.84916 0.75093 0.46802 0.0
H551 H 0.82721 0.76731 0.54855 0.0
C552 C 0.86841 0.74868 0.55685 0.0
C553 C 0.89497 0.73767 0.54813 0.0
C554 C 0.83046 0.76117 0.47543 0.0
C555 C 0.85381 0.75917 0.51681 0.0
C556 C 0.80546 0.7669 0.46038 0.0
C557 C 0.78024 0.7793 0.46961 0.0
C558 C 0.83005 0.76767 0.4999 0.0
C559 C 0.78167 0.78656 0.49407 0.0
C560 C 0.84804 0.75961 0.54134 0.0
C561 C 0.90108 0.73899 0.52355 0.0
N562 N 0.80587 0.78039 0.50831 0.0
N563 N 0.88036 0.74916 0.50873 0.0
H564 H 0.12303 0.89469 0.74321 0.0
H565 H 0.03508 0.73711 0.63825 0.0
H566 H 0.18397 0.83814 0.71465 0.0
H567 H 0.98849 0.81168 0.65796 0.0
H568 H 0.09023 0.77375 0.66574 0.0
H569 H 0.07371 0.86466 0.71181 0.0
C570 C 0.12624 0.87621 0.73024 0.0
C571 C 0.15767 0.86887 0.73166 0.0
C572 C 0.06808 0.78227 0.66387 0.0
C573 C 0.10094 0.83396 0.6957 0.0
C574 C 0.03659 0.76135 0.64817 0.0
C575 C 1.00695 0.77116 0.64583 0.0
C576 C 0.06976 0.81298 0.67748 0.0
C577 C 1.01051 0.8029 0.65918 0.0
C578 C 0.09804 0.85905 0.71228 0.0
C579 C 0.16027 0.84467 0.71428 0.0
N580 N 0.04107 0.8224 0.67452 0.0
N581 N 0.1321 0.82781 0.69717 0.0
H582 H 0.29996 0.18036 0.85679 0.0
H583 H 0.27584 0.96809 0.83878 0.0
H584 H 0.33134 0.12236 0.90974 0.0
H585 H 0.27158 0.03664 0.78081 0.0
H586 H 0.28963 0.02184 0.86587 0.0
H587 H 0.28284 0.12548 0.82961 0.0
C588 C 0.30306 0.15604 0.86276 0.0
C589 C 0.31722 0.15607 0.88559 0.0
C590 C 0.28568 0.02517 0.84723 0.0
C591 C 0.29759 0.09315 0.85458 0.0
C592 C 0.2777 0.99441 0.83172 0.0
C593 C 0.27265 0.99783 0.80741 0.0
C594 C 0.28835 0.05965 0.83849 0.0
C595 C 0.27543 0.03274 0.79937 0.0
C596 C 0.29343 0.1248 0.84719 0.0
C597 C 0.32072 0.12376 0.8923 0.0
N598 N 0.28303 0.06226 0.81487 0.0
N599 N 0.31094 0.09366 0.87691 0.0
H600 H 0.68787 0.82133 0.86949 0.0
H601 H 0.87261 0.78921 0.88496 0.0
H602 H 0.77889 0.85376 0.81682 0.0
H603 H 0.76601 0.72694 0.92628 0.0
H604 H 0.84326 0.82199 0.86375 0.0
H605 H 0.72076 0.79546 0.89421 0.0
C606 C 0.71497 0.8234 0.86321 0.0
C607 C 0.73055 0.83964 0.84097 0.0
C608 C 0.82635 0.80131 0.87754 0.0
C609 C 0.76832 0.81012 0.86923 0.0
C610 C 0.84314 0.78265 0.88976 0.0
C611 C 0.82168 0.75505 0.90738 0.0
C612 C 0.78786 0.79265 0.88305 0.0
C613 C 0.78359 0.74785 0.91276 0.0
C614 C 0.7336 0.80844 0.8773 0.0
C615 C 0.76569 0.84136 0.83376 0.0
N616 N 0.76786 0.76647 0.90061 0.0
N617 N 0.78334 0.82678 0.84783 0.0
H618 H 0.89187 0.72688 0.03154 0.0
H619 H 0.10808 0.75294 0.03558 0.0
H620 H 0.95064 0.71073 0.97154 0.0
H621 H 0.06238 0.79146 0.09274 0.0
H622 H 0.04789 0.73312 1.01326 0.0
H623 H 0.95162 0.74738 0.05535 0.0
C624 C 0.91729 0.72776 1.02334 0.0
C625 C 0.91612 0.71701 0.99947 0.0
C626 C 0.05088 0.74589 0.03068 0.0
C627 C 0.98435 0.74007 1.02666 0.0
C628 C 0.08531 0.75714 0.04353 0.0
C629 C 0.09047 0.77403 0.06611 0.0
C630 C 1.02096 0.7513 0.0404 0.0
C631 C 0.05972 0.77862 0.07539 0.0
C632 C 0.95136 0.73945 0.03695 0.0
C633 C 0.95 0.71872 0.98983 0.0
N634 N 1.02624 0.76731 0.06249 0.0
N635 N 0.9825 0.72983 1.00344 0.0
H636 H 0.21156 0.8583 0.20754 0.0
H637 H 0.30418 0.09013 0.22307 0.0
H638 H 0.21618 0.93478 0.15175 0.0
H639 H 0.31267 1.01686 0.27643 0.0
H640 H 0.26615 0.03233 0.19823 0.0
H641 H 0.24241 0.91465 0.23445 0.0
C642 C 0.21867 0.88683 0.20098 0.0
C643 C 0.21137 0.89175 0.17727 0.0
C644 C 0.27619 0.02882 0.2154 0.0
C645 C 0.24693 0.9565 0.20803 0.0
C646 C 0.29793 0.06187 0.22964 0.0
C647 C 0.3119 0.05848 0.25189 0.0
C648 C 0.26817 0.9919 0.22337 0.0
C649 C 0.30268 0.02096 0.2594 0.0
C650 C 0.23645 0.91904 0.21636 0.0
C651 C 0.22134 0.92952 0.16983 0.0
N652 N 0.28152 0.98918 0.24516 0.0
N653 N 0.2387 0.96038 0.1851 0.0
H654 H 0.24104 0.14971 0.31474 0.0
H655 H 0.29541 0.31855 0.41121 0.0
H656 H 0.36052 0.23084 0.33691 0.0
H657 H 0.17615 0.22828 0.39465 0.0
H658 H 0.3201 0.2857 0.38531 0.0
H659 H 0.21686 0.17687 0.34499 0.0
C660 C 0.26221 0.17307 0.32606 0.0
C661 C 0.3029 0.18809 0.32316 0.0
C662 C 0.28853 0.27293 0.38751 0.0
C663 C 0.27538 0.21965 0.35781 0.0
C664 C 0.27441 0.29165 0.40233 0.0
C665 C 0.23361 0.27632 0.40504 0.0
C666 C 0.26168 0.23872 0.37519 0.0
C667 C 0.20784 0.24135 0.39305 0.0
C668 C 0.24837 0.18859 0.34336 0.0
C669 C 0.32889 0.21833 0.33845 0.0
N670 N 0.22228 0.22396 0.37856 0.0
N671 N 0.31472 0.2333 0.35496 0.0
H672 H 0.17149 0.33054 0.53436 0.0
H673 H 0.94281 0.26338 0.52848 0.0
H674 H 0.10305 0.29937 0.46986 0.0
H675 H 0.99729 0.25821 0.59367 0.0
H676 H 1.00366 0.28123 0.50752 0.0
H677 H 0.11031 0.30765 0.55715 0.0
C678 C 0.14367 0.31861 0.52499 0.0
C679 C 0.14254 0.31709 0.50011 0.0
C680 C 1.00244 0.27612 0.5264 0.0
C681 C 0.07269 0.29139 0.52605 0.0
C682 C 0.96765 0.26609 0.53847 0.0
C683 C 0.96485 0.25931 0.56294 0.0
C684 C 0.0352 0.27994 0.53881 0.0
C685 C 0.99814 0.26313 0.57479 0.0
C686 C 0.1088 0.30557 0.53802 0.0
C687 C 0.10559 0.3013 0.48896 0.0
N688 N 0.0321 0.27344 0.56263 0.0
N689 N 0.07235 0.28944 0.50197 0.0
H690 H 0.78834 0.97083 0.74526 0.0
H691 H 0.79841 0.14109 0.66471 0.0
H692 H 0.68498 0.97306 0.72143 0.0
H693 H 0.88614 0.10594 0.65969 0.0
H694 H 0.76192 0.0887 0.69318 0.0
H695 H 0.82966 0.02933 0.72129 0.0
C696 C 0.77441 0.98394 0.73526 0.0
C697 C 0.73316 0.96704 0.73525 0.0
C698 C 0.78932 0.09266 0.68597 0.0
C699 C 0.78014 0.03385 0.70812 0.0
C700 C 0.81033 0.1227 0.6698 0.0
C701 C 0.84536 0.12784 0.65965 0.0
C702 C 0.80361 0.06783 0.69241 0.0
C703 C 0.85917 0.1029 0.66695 0.0
C704 C 0.79796 1.01708 0.72151 0.0
C705 C 0.71663 0.98501 0.72184 0.0
N706 N 0.83825 0.07393 0.68291 0.0
N707 N 0.74015 0.01748 0.70888 0.0
loop_
_geom_bond_atom_site_label_1
_geom_bond_atom_site_label_2
_geom_bond_distance
_geom_bond_site_symmetry_2
_ccdc_geom_bond_type
Cu0 N1 1.999 . S
Cu0 O6 1.974 . S
Cu0 N11 1.985 . S
Cu0 O20 1.959 . S
N1 Cu0 1.999 . S
N1 C3 1.263 . S
N1 C5 1.389 . S
N2 C3 1.358 . S
N2 C4 1.400 . S
C3 N1 1.263 . S
C3 N2 1.358 . S
C3 H9 0.930 . S
C4 N2 1.400 . S
C4 C5 1.351 . S
C4 H21 0.930 . S
C5 N1 1.389 . S
C5 C4 1.351 . S
C5 H10 0.930 . S
O6 Cu0 1.974 . S
O6 C16 1.282 . S
C7 O8 1.261 . S
C7 O20 1.251 . S
O8 C7 1.261 . S
H9 C3 0.930 . S
H10 C5 0.930 . S
N11 Cu0 1.985 . S
N11 C13 1.335 . S
N11 C14 1.390 . S
N12 C13 1.345 . S
N12 C15 1.336 . S
C13 N11 1.335 . S
C13 N12 1.345 . S
C13 H18 0.930 . S
C14 N11 1.390 . S
C14 C15 1.346 . S
C14 H19 0.930 . S
C15 N12 1.336 . S
C15 C14 1.346 . S
C15 H22 0.929 . S
C16 O6 1.282 . S
C16 O17 1.216 . S
O17 C16 1.216 . S
H18 C13 0.930 . S
H19 C14 0.930 . S
O20 Cu0 1.959 . S
O20 C7 1.251 . S
H21 C4 0.930 . S
H22 C15 0.929 . S
Cu23 N24 1.999 . S
Cu23 O29 1.974 . S
Cu23 N34 1.985 . S
Cu23 O43 1.959 . S
N24 Cu23 1.999 . S
N24 C26 1.263 . S
N24 C28 1.389 . S
N25 C26 1.358 . S
N25 C27 1.400 . S
C26 N24 1.263 . S
C26 N25 1.358 . S
C26 H32 0.930 . S
C27 N25 1.400 . S
C27 C28 1.351 . S
C27 H44 0.930 . S
C28 N24 1.389 . S
C28 C27 1.351 . S
C28 H33 0.930 . S
O29 Cu23 1.974 . S
O29 C39 1.282 . S
C30 O31 1.261 . S
C30 O43 1.251 . S
O31 C30 1.261 . S
H32 C26 0.930 . S
H33 C28 0.930 . S
N34 Cu23 1.985 . S
N34 C36 1.335 . S
N34 C37 1.390 . S
N35 C36 1.345 . S
N35 C38 1.336 . S
C36 N34 1.335 . S
C36 N35 1.345 . S
C36 H41 0.930 . S
C37 N34 1.390 . S
C37 C38 1.346 . S
C37 H42 0.930 . S
C38 N35 1.336 . S
C38 C37 1.346 . S
C38 H45 0.929 . S
C39 O29 1.282 . S
C39 O40 1.216 . S
O40 C39 1.216 . S
H41 C36 0.930 . S
H42 C37 0.930 . S
O43 Cu23 1.959 . S
O43 C30 1.251 . S
H44 C27 0.930 . S
H45 C38 0.929 . S
Cu46 N47 1.999 . S
Cu46 O52 1.974 . S
Cu46 N57 1.985 . S
Cu46 O66 1.959 . S
N47 Cu46 1.999 . S
N47 C49 1.263 . S
N47 C51 1.389 . S
N48 C49 1.358 . S
N48 C50 1.400 . S
C49 N47 1.263 . S
C49 N48 1.358 . S
C49 H55 0.930 . S
C50 N48 1.400 . S
C50 C51 1.351 . S
C50 H67 0.930 . S
C51 N47 1.389 . S
C51 C50 1.351 . S
C51 H56 0.930 . S
O52 Cu46 1.974 . S
O52 C62 1.282 . S
C53 O54 1.261 . S
C53 O66 1.251 . S
O54 C53 1.261 . S
H55 C49 0.930 . S
H56 C51 0.930 . S
N57 Cu46 1.985 . S
N57 C59 1.335 . S
N57 C60 1.390 . S
N58 C59 1.345 . S
N58 C61 1.336 . S
C59 N57 1.335 . S
C59 N58 1.345 . S
C59 H64 0.930 . S
C60 N57 1.390 . S
C60 C61 1.346 . S
C60 H65 0.930 . S
C61 N58 1.336 . S
C61 C60 1.346 . S
C61 H68 0.929 . S
C62 O52 1.282 . S
C62 O63 1.216 . S
O63 C62 1.216 . S
H64 C59 0.930 . S
H65 C60 0.930 . S
O66 Cu46 1.959 . S
O66 C53 1.251 . S
H67 C50 0.930 . S
H68 C61 0.929 . S
Cu69 N70 1.999 . S
Cu69 O75 1.974 . S
Cu69 N80 1.985 . S
Cu69 O89 1.959 . S
N70 Cu69 1.999 . S
N70 C72 1.263 . S
N70 C74 1.389 . S
N71 C72 1.358 . S
N71 C73 1.400 . S
C72 N70 1.263 . S
C72 N71 1.358 . S
C72 H78 0.930 . S
C73 N71 1.400 . S
C73 C74 1.351 . S
C73 H90 0.930 . S
C74 N70 1.389 . S
C74 C73 1.351 . S
C74 H79 0.930 . S
O75 Cu69 1.974 . S
O75 C85 1.282 . S
C76 O77 1.261 . S
C76 O89 1.251 . S
O77 C76 1.261 . S
H78 C72 0.930 . S
H79 C74 0.930 . S
N80 Cu69 1.985 . S
N80 C82 1.335 . S
N80 C83 1.390 . S
N81 C82 1.345 . S
N81 C84 1.336 . S
C82 N80 1.335 . S
C82 N81 1.345 . S
C82 H87 0.930 . S
C83 N80 1.390 . S
C83 C84 1.346 . S
C83 H88 0.930 . S
C84 N81 1.336 . S
C84 C83 1.346 . S
C84 H91 0.929 . S
C85 O75 1.282 . S
C85 O86 1.216 . S
O86 C85 1.216 . S
H87 C82 0.930 . S
H88 C83 0.930 . S
O89 Cu69 1.959 . S
O89 C76 1.251 . S
H90 C73 0.930 . S
H91 C84 0.929 . S
Cu92 N93 1.999 . S
Cu92 O98 1.974 . S
Cu92 N103 1.985 . S
Cu92 O112 1.959 . S
N93 Cu92 1.999 . S
N93 C95 1.263 . S
N93 C97 1.389 . S
N94 C95 1.358 . S
N94 C96 1.400 . S
C95 N93 1.263 . S
C95 N94 1.358 . S
C95 H101 0.930 . S
C96 N94 1.400 . S
C96 C97 1.351 . S
C96 H113 0.930 . S
C97 N93 1.389 . S
C97 C96 1.351 . S
C97 H102 0.930 . S
O98 Cu92 1.974 . S
O98 C108 1.282 . S
C99 O100 1.261 . S
C99 O112 1.251 . S
O100 C99 1.261 . S
H101 C95 0.930 . S
H102 C97 0.930 . S
N103 Cu92 1.985 . S
N103 C105 1.335 . S
N103 C106 1.390 . S
N104 C105 1.345 . S
N104 C107 1.336 . S
C105 N103 1.335 . S
C105 N104 1.345 . S
C105 H110 0.930 . S
C106 N103 1.390 . S
C106 C107 1.346 . S
C106 H111 0.930 . S
C107 N104 1.336 . S
C107 C106 1.346 . S
C107 H114 0.929 . S
C108 O98 1.282 . S
C108 O109 1.216 . S
O109 C108 1.216 . S
H110 C105 0.930 . S
H111 C106 0.930 . S
O112 Cu92 1.959 . S
O112 C99 1.251 . S
H113 C96 0.930 . S
H114 C107 0.929 . S
Cu115 N116 1.999 . S
Cu115 O121 1.974 . S
Cu115 N126 1.985 . S
Cu115 O135 1.959 . S
N116 Cu115 1.999 . S
N116 C118 1.263 . S
N116 C120 1.389 . S
N117 C118 1.358 . S
N117 C119 1.400 . S
C118 N116 1.263 . S
C118 N117 1.358 . S
C118 H124 0.930 . S
C119 N117 1.400 . S
C119 C120 1.351 . S
C119 H136 0.930 . S
C120 N116 1.389 . S
C120 C119 1.351 . S
C120 H125 0.930 . S
O121 Cu115 1.974 . S
O121 C131 1.282 . S
C122 O123 1.261 . S
C122 O135 1.251 . S
O123 C122 1.261 . S
H124 C118 0.930 . S
H125 C120 0.930 . S
N126 Cu115 1.985 . S
N126 C128 1.335 . S
N126 C129 1.390 . S
N127 C128 1.345 . S
N127 C130 1.336 . S
C128 N126 1.335 . S
C128 N127 1.345 . S
C128 H133 0.930 . S
C129 N126 1.390 . S
C129 C130 1.346 . S
C129 H134 0.930 . S
C130 N127 1.336 . S
C130 C129 1.346 . S
C130 H137 0.929 . S
C131 O121 1.282 . S
C131 O132 1.216 . S
O132 C131 1.216 . S
H133 C128 0.930 . S
H134 C129 0.930 . S
O135 Cu115 1.959 . S
O135 C122 1.251 . S
H136 C119 0.930 . S
H137 C130 0.929 . S
Cu138 N139 1.999 . S
Cu138 O144 1.974 . S
Cu138 N149 1.985 . S
Cu138 O158 1.959 . S
N139 Cu138 1.999 . S
N139 C141 1.263 . S
N139 C143 1.389 . S
N140 C141 1.358 . S
N140 C142 1.400 . S
C141 N139 1.263 . S
C141 N140 1.358 . S
C141 H147 0.930 . S
C142 N140 1.400 . S
C142 C143 1.351 . S
C142 H159 0.930 . S
C143 N139 1.389 . S
C143 C142 1.351 . S
C143 H148 0.930 . S
O144 Cu138 1.974 . S
O144 C154 1.282 . S
C145 O146 1.261 . S
C145 O158 1.251 . S
O146 C145 1.261 . S
H147 C141 0.930 . S
H148 C143 0.930 . S
N149 Cu138 1.985 . S
N149 C151 1.335 . S
N149 C152 1.390 . S
N150 C151 1.345 . S
N150 C153 1.336 . S
C151 N149 1.335 . S
C151 N150 1.345 . S
C151 H156 0.930 . S
C152 N149 1.390 . S
C152 C153 1.346 . S
C152 H157 0.930 . S
C153 N150 1.336 . S
C153 C152 1.346 . S
C153 H160 0.929 . S
C154 O144 1.282 . S
C154 O155 1.216 . S
O155 C154 1.216 . S
H156 C151 0.930 . S
H157 C152 0.930 . S
O158 Cu138 1.959 . S
O158 C145 1.251 . S
H159 C142 0.930 . S
H160 C153 0.929 . S
Cu161 N162 1.999 . S
Cu161 O167 1.974 . S
Cu161 N172 1.985 . S
Cu161 O181 1.959 . S
N162 Cu161 1.999 . S
N162 C164 1.263 . S
N162 C166 1.389 . S
N163 C164 1.358 . S
N163 C165 1.400 . S
C164 N162 1.263 . S
C164 N163 1.358 . S
C164 H170 0.930 . S
C165 N163 1.400 . S
C165 C166 1.351 . S
C165 H182 0.930 . S
C166 N162 1.389 . S
C166 C165 1.351 . S
C166 H171 0.930 . S
O167 Cu161 1.974 . S
O167 C177 1.282 . S
C168 O169 1.261 . S
C168 O181 1.251 . S
O169 C168 1.261 . S
H170 C164 0.930 . S
H171 C166 0.930 . S
N172 Cu161 1.985 . S
N172 C174 1.335 . S
N172 C175 1.390 . S
N173 C174 1.345 . S
N173 C176 1.336 . S
C174 N172 1.335 . S
C174 N173 1.345 . S
C174 H179 0.930 . S
C175 N172 1.390 . S
C175 C176 1.346 . S
C175 H180 0.930 . S
C176 N173 1.336 . S
C176 C175 1.346 . S
C176 H183 0.929 . S
C177 O167 1.282 . S
C177 O178 1.216 . S
O178 C177 1.216 . S
H179 C174 0.930 . S
H180 C175 0.930 . S
O181 Cu161 1.959 . S
O181 C168 1.251 . S
H182 C165 0.930 . S
H183 C176 0.929 . S
Cu184 N185 1.999 . S
Cu184 O190 1.974 . S
Cu184 N195 1.985 . S
Cu184 O204 1.959 . S
N185 Cu184 1.999 . S
N185 C187 1.263 . S
N185 C189 1.389 . S
N186 C187 1.358 . S
N186 C188 1.400 . S
C187 N185 1.263 . S
C187 N186 1.358 . S
C187 H193 0.930 . S
C188 N186 1.400 . S
C188 C189 1.351 . S
C188 H205 0.930 . S
C189 N185 1.389 . S
C189 C188 1.351 . S
C189 H194 0.930 . S
O190 Cu184 1.974 . S
O190 C200 1.282 . S
C191 O192 1.261 . S
C191 O204 1.251 . S
O192 C191 1.261 . S
H193 C187 0.930 . S
H194 C189 0.930 . S
N195 Cu184 1.985 . S
N195 C197 1.335 . S
N195 C198 1.390 . S
N196 C197 1.345 . S
N196 C199 1.336 . S
C197 N195 1.335 . S
C197 N196 1.345 . S
C197 H202 0.930 . S
C198 N195 1.390 . S
C198 C199 1.346 . S
C198 H203 0.930 . S
C199 N196 1.336 . S
C199 C198 1.346 . S
C199 H206 0.929 . S
C200 O190 1.282 . S
C200 O201 1.216 . S
O201 C200 1.216 . S
H202 C197 0.930 . S
H203 C198 0.930 . S
O204 Cu184 1.959 . S
O204 C191 1.251 . S
H205 C188 0.930 . S
H206 C199 0.929 . S
Cu207 N208 1.999 . S
Cu207 O213 1.974 . S
Cu207 N218 1.985 . S
Cu207 O227 1.959 . S
N208 Cu207 1.999 . S
N208 C210 1.263 . S
N208 C212 1.389 . S
N209 C210 1.358 . S
N209 C211 1.400 . S
C210 N208 1.263 . S
C210 N209 1.358 . S
C210 H216 0.930 . S
C211 N209 1.400 . S
C211 C212 1.351 . S
C211 H228 0.930 . S
C212 N208 1.389 . S
C212 C211 1.351 . S
C212 H217 0.930 . S
O213 Cu207 1.974 . S
O213 C223 1.282 . S
C214 O215 1.261 . S
C214 O227 1.251 . S
O215 C214 1.261 . S
H216 C210 0.930 . S
H217 C212 0.930 . S
N218 Cu207 1.985 . S
N218 C220 1.335 . S
N218 C221 1.390 . S
N219 C220 1.345 . S
N219 C222 1.336 . S
C220 N218 1.335 . S
C220 N219 1.345 . S
C220 H225 0.930 . S
C221 N218 1.390 . S
C221 C222 1.346 . S
C221 H226 0.930 . S
C222 N219 1.336 . S
C222 C221 1.346 . S
C222 H229 0.929 . S
C223 O213 1.282 . S
C223 O224 1.216 . S
O224 C223 1.216 . S
H225 C220 0.930 . S
H226 C221 0.930 . S
O227 Cu207 1.959 . S
O227 C214 1.251 . S
H228 C211 0.930 . S
H229 C222 0.929 . S
Cu230 N231 1.999 . S
Cu230 O236 1.974 . S
Cu230 N241 1.985 . S
Cu230 O250 1.959 . S
N231 Cu230 1.999 . S
N231 C233 1.263 . S
N231 C235 1.389 . S
N232 C233 1.358 . S
N232 C234 1.400 . S
C233 N231 1.263 . S
C233 N232 1.358 . S
C233 H239 0.930 . S
C234 N232 1.400 . S
C234 C235 1.351 . S
C234 H251 0.930 . S
C235 N231 1.389 . S
C235 C234 1.351 . S
C235 H240 0.930 . S
O236 Cu230 1.974 . S
O236 C246 1.282 . S
C237 O238 1.261 . S
C237 O250 1.251 . S
O238 C237 1.261 . S
H239 C233 0.930 . S
H240 C235 0.930 . S
N241 Cu230 1.985 . S
N241 C243 1.335 . S
N241 C244 1.390 . S
N242 C243 1.345 . S
N242 C245 1.336 . S
C243 N241 1.335 . S
C243 N242 1.345 . S
C243 H248 0.930 . S
C244 N241 1.390 . S
C244 C245 1.346 . S
C244 H249 0.930 . S
C245 N242 1.336 . S
C245 C244 1.346 . S
C245 H252 0.929 . S
C246 O236 1.282 . S
C246 O247 1.216 . S
O247 C246 1.216 . S
H248 C243 0.930 . S
H249 C244 0.930 . S
O250 Cu230 1.959 . S
O250 C237 1.251 . S
H251 C234 0.930 . S
H252 C245 0.929 . S
Cu253 N254 1.999 . S
Cu253 O259 1.974 . S
Cu253 N264 1.985 . S
Cu253 O273 1.959 . S
N254 Cu253 1.999 . S
N254 C256 1.263 . S
N254 C258 1.389 . S
N255 C256 1.358 . S
N255 C257 1.400 . S
C256 N254 1.263 . S
C256 N255 1.358 . S
C256 H262 0.930 . S
C257 N255 1.400 . S
C257 C258 1.351 . S
C257 H274 0.930 . S
C258 N254 1.389 . S
C258 C257 1.351 . S
C258 H263 0.930 . S
O259 Cu253 1.974 . S
O259 C269 1.282 . S
C260 O261 1.261 . S
C260 O273 1.251 . S
O261 C260 1.261 . S
H262 C256 0.930 . S
H263 C258 0.930 . S
N264 Cu253 1.985 . S
N264 C266 1.335 . S
N264 C267 1.390 . S
N265 C266 1.345 . S
N265 C268 1.336 . S
C266 N264 1.335 . S
C266 N265 1.345 . S
C266 H271 0.930 . S
C267 N264 1.390 . S
C267 C268 1.346 . S
C267 H272 0.930 . S
C268 N265 1.336 . S
C268 C267 1.346 . S
C268 H275 0.929 . S
C269 O259 1.282 . S
C269 O270 1.216 . S
O270 C269 1.216 . S
H271 C266 0.930 . S
H272 C267 0.930 . S
O273 Cu253 1.959 . S
O273 C260 1.251 . S
H274 C257 0.930 . S
H275 C268 0.929 . S
H276 C282 0.930 . S
H277 C286 0.930 . S
H278 C291 0.929 . S
H279 C289 0.929 . S
H280 C284 0.929 . S
H281 C290 0.929 . S
C282 H276 0.930 . S
C282 C283 1.367 . S
C282 C290 1.378 . S
C283 C282 1.367 . S
C283 C291 1.433 . S
C284 H280 0.929 . S
C284 C286 1.378 . S
C284 C288 1.350 . S
C285 C288 1.463 . S
C285 C290 1.350 . S
C285 N293 1.427 . S
C286 H277 0.930 . S
C286 C284 1.378 . S
C286 C287 1.367 . S
C287 C286 1.367 . S
C287 C289 1.433 . S
C288 C284 1.350 . S
C288 C285 1.463 . S
C288 N292 1.427 . S
C289 H279 0.929 . S
C289 C287 1.433 . S
C289 N292 1.384 . S
C290 H281 0.929 . S
C290 C282 1.378 . S
C290 C285 1.350 . S
C291 H278 0.929 . S
C291 C283 1.433 . S
C291 N293 1.384 . S
N292 C288 1.427 . S
N292 C289 1.384 . S
N293 C285 1.427 . S
N293 C291 1.384 . S
H294 C300 0.930 . S
H295 C304 0.930 . S
H296 C309 0.929 . S
H297 C307 0.929 . S
H298 C302 0.929 . S
H299 C308 0.929 . S
C300 H294 0.930 . S
C300 C301 1.367 . S
C300 C308 1.378 . S
C301 C300 1.367 . S
C301 C309 1.433 . S
C302 H298 0.929 . S
C302 C304 1.378 . S
C302 C306 1.350 . S
C303 C306 1.463 . S
C303 C308 1.350 . S
C303 N311 1.427 . S
C304 H295 0.930 . S
C304 C302 1.378 . S
C304 C305 1.367 . S
C305 C304 1.367 . S
C305 C307 1.433 . S
C306 C302 1.350 . S
C306 C303 1.463 . S
C306 N310 1.427 . S
C307 H297 0.929 . S
C307 C305 1.433 . S
C307 N310 1.384 . S
C308 H299 0.929 . S
C308 C300 1.378 . S
C308 C303 1.350 . S
C309 H296 0.929 . S
C309 C301 1.433 . S
C309 N311 1.384 . S
N310 C306 1.427 . S
N310 C307 1.384 . S
N311 C303 1.427 . S
N311 C309 1.384 . S
H312 C318 0.930 . S
H313 C322 0.930 . S
H314 C327 0.929 . S
H315 C325 0.929 . S
H316 C320 0.929 . S
H317 C326 0.929 . S
C318 H312 0.930 . S
C318 C319 1.367 . S
C318 C326 1.378 . S
C319 C318 1.367 . S
C319 C327 1.433 . S
C320 H316 0.929 . S
C320 C322 1.378 . S
C320 C324 1.350 . S
C321 C324 1.463 . S
C321 C326 1.350 . S
C321 N329 1.427 . S
C322 H313 0.930 . S
C322 C320 1.378 . S
C322 C323 1.367 . S
C323 C322 1.367 . S
C323 C325 1.433 . S
C324 C320 1.350 . S
C324 C321 1.463 . S
C324 N328 1.427 . S
C325 H315 0.929 . S
C325 C323 1.433 . S
C325 N328 1.384 . S
C326 H317 0.929 . S
C326 C318 1.378 . S
C326 C321 1.350 . S
C327 H314 0.929 . S
C327 C319 1.433 . S
C327 N329 1.384 . S
N328 C324 1.427 . S
N328 C325 1.384 . S
N329 C321 1.427 . S
N329 C327 1.384 . S
H330 C336 0.930 . S
H331 C340 0.930 . S
H332 C345 0.929 . S
H333 C343 0.929 . S
H334 C338 0.929 . S
H335 C344 0.929 . S
C336 H330 0.930 . S
C336 C337 1.367 . S
C336 C344 1.378 . S
C337 C336 1.367 . S
C337 C345 1.433 . S
C338 H334 0.929 . S
C338 C340 1.378 . S
C338 C342 1.350 . S
C339 C342 1.463 . S
C339 C344 1.350 . S
C339 N347 1.427 . S
C340 H331 0.930 . S
C340 C338 1.378 . S
C340 C341 1.367 . S
C341 C340 1.367 . S
C341 C343 1.433 . S
C342 C338 1.350 . S
C342 C339 1.463 . S
C342 N346 1.427 . S
C343 H333 0.929 . S
C343 C341 1.433 . S
C343 N346 1.384 . S
C344 H335 0.929 . S
C344 C336 1.378 . S
C344 C339 1.350 . S
C345 H332 0.929 . S
C345 C337 1.433 . S
C345 N347 1.384 . S
N346 C342 1.427 . S
N346 C343 1.384 . S
N347 C339 1.427 . S
N347 C345 1.384 . S
H348 C354 0.930 . S
H349 C358 0.930 . S
H350 C363 0.929 . S
H351 C361 0.929 . S
H352 C356 0.929 . S
H353 C362 0.929 . S
C354 H348 0.930 . S
C354 C355 1.367 . S
C354 C362 1.378 . S
C355 C354 1.367 . S
C355 C363 1.433 . S
C356 H352 0.929 . S
C356 C358 1.378 . S
C356 C360 1.350 . S
C357 C360 1.463 . S
C357 C362 1.350 . S
C357 N365 1.427 . S
C358 H349 0.930 . S
C358 C356 1.378 . S
C358 C359 1.367 . S
C359 C358 1.367 . S
C359 C361 1.433 . S
C360 C356 1.350 . S
C360 C357 1.463 . S
C360 N364 1.427 . S
C361 H351 0.929 . S
C361 C359 1.433 . S
C361 N364 1.384 . S
C362 H353 0.929 . S
C362 C354 1.378 . S
C362 C357 1.350 . S
C363 H350 0.929 . S
C363 C355 1.433 . S
C363 N365 1.384 . S
N364 C360 1.427 . S
N364 C361 1.384 . S
N365 C357 1.427 . S
N365 C363 1.384 . S
H366 C372 0.930 . S
H367 C376 0.930 . S
H368 C381 0.929 . S
H369 C379 0.929 . S
H370 C374 0.929 . S
H371 C380 0.929 . S
C372 H366 0.930 . S
C372 C373 1.367 . S
C372 C380 1.378 . S
C373 C372 1.367 . S
C373 C381 1.433 . S
C374 H370 0.929 . S
C374 C376 1.378 . S
C374 C378 1.350 . S
C375 C378 1.463 . S
C375 C380 1.350 . S
C375 N383 1.427 . S
C376 H367 0.930 . S
C376 C374 1.378 . S
C376 C377 1.367 . S
C377 C376 1.367 . S
C377 C379 1.433 . S
C378 C374 1.350 . S
C378 C375 1.463 . S
C378 N382 1.427 . S
C379 H369 0.929 . S
C379 C377 1.433 . S
C379 N382 1.384 . S
C380 H371 0.929 . S
C380 C372 1.378 . S
C380 C375 1.350 . S
C381 H368 0.929 . S
C381 C373 1.433 . S
C381 N383 1.384 . S
N382 C378 1.427 . S
N382 C379 1.384 . S
N383 C375 1.427 . S
N383 C381 1.384 . S
H384 C390 0.930 . S
H385 C394 0.930 . S
H386 C399 0.929 . S
H387 C397 0.929 . S
H388 C392 0.929 . S
H389 C398 0.929 . S
C390 H384 0.930 . S
C390 C391 1.367 . S
C390 C398 1.378 . S
C391 C390 1.367 . S
C391 C399 1.433 . S
C392 H388 0.929 . S
C392 C394 1.378 . S
C392 C396 1.350 . S
C393 C396 1.463 . S
C393 C398 1.350 . S
C393 N401 1.427 . S
C394 H385 0.930 . S
C394 C392 1.378 . S
C394 C395 1.367 . S
C395 C394 1.367 . S
C395 C397 1.433 . S
C396 C392 1.350 . S
C396 C393 1.463 . S
C396 N400 1.427 . S
C397 H387 0.929 . S
C397 C395 1.433 . S
C397 N400 1.384 . S
C398 H389 0.929 . S
C398 C390 1.378 . S
C398 C393 1.350 . S
C399 H386 0.929 . S
C399 C391 1.433 . S
C399 N401 1.384 . S
N400 C396 1.427 . S
N400 C397 1.384 . S
N401 C393 1.427 . S
N401 C399 1.384 . S
H402 C408 0.930 . S
H403 C412 0.930 . S
H404 C417 0.929 . S
H405 C415 0.929 . S
H406 C410 0.929 1_655 S
H407 C416 0.929 1_455 S
C408 H402 0.930 . S
C408 C409 1.367 . S
C408 C416 1.378 . S
C409 C408 1.367 . S
C409 C417 1.433 . S
C410 H406 0.929 1_455 S
C410 C412 1.378 . S
C410 C414 1.350 . S
C411 C414 1.463 1_655 S
C411 C416 1.350 . S
C411 N419 1.427 . S
C412 H403 0.930 . S
C412 C410 1.378 . S
C412 C413 1.367 . S
C413 C412 1.367 . S
C413 C415 1.433 . S
C414 C410 1.350 . S
C414 C411 1.463 1_455 S
C414 N418 1.427 . S
C415 H405 0.929 . S
C415 C413 1.433 . S
C415 N418 1.384 . S
C416 H407 0.929 1_655 S
C416 C408 1.378 . S
C416 C411 1.350 . S
C417 H404 0.929 . S
C417 C409 1.433 . S
C417 N419 1.384 . S
N418 C414 1.427 . S
N418 C415 1.384 . S
N419 C411 1.427 . S
N419 C417 1.384 . S
H420 C426 0.930 . S
H421 C430 0.930 . S
H422 C435 0.929 . S
H423 C433 0.929 . S
H424 C428 0.929 . S
H425 C434 0.929 . S
C426 H420 0.930 . S
C426 C427 1.367 . S
C426 C434 1.378 . S
C427 C426 1.367 . S
C427 C435 1.433 . S
C428 H424 0.929 . S
C428 C430 1.378 . S
C428 C432 1.350 . S
C429 C432 1.463 1_545 S
C429 C434 1.350 . S
C429 N437 1.427 . S
C430 H421 0.930 . S
C430 C428 1.378 . S
C430 C431 1.367 . S
C431 C430 1.367 . S
C431 C433 1.433 . S
C432 C428 1.350 . S
C432 C429 1.463 1_565 S
C432 N436 1.427 . S
C433 H423 0.929 . S
C433 C431 1.433 . S
C433 N436 1.384 . S
C434 H425 0.929 . S
C434 C426 1.378 . S
C434 C429 1.350 . S
C435 H422 0.929 . S
C435 C427 1.433 . S
C435 N437 1.384 . S
N436 C432 1.427 . S
N436 C433 1.384 . S
N437 C429 1.427 . S
N437 C435 1.384 . S
H438 C444 0.930 . S
H439 C448 0.930 . S
H440 C453 0.929 . S
H441 C451 0.929 . S
H442 C446 0.929 . S
H443 C452 0.929 . S
C444 H438 0.930 . S
C444 C445 1.367 . S
C444 C452 1.378 . S
C445 C444 1.367 . S
C445 C453 1.433 . S
C446 H442 0.929 . S
C446 C448 1.378 . S
C446 C450 1.350 . S
C447 C450 1.463 . S
C447 C452 1.350 . S
C447 N455 1.427 . S
C448 H439 0.930 . S
C448 C446 1.378 . S
C448 C449 1.367 . S
C449 C448 1.367 . S
C449 C451 1.433 . S
C450 C446 1.350 . S
C450 C447 1.463 . S
C450 N454 1.427 . S
C451 H441 0.929 . S
C451 C449 1.433 . S
C451 N454 1.384 . S
C452 H443 0.929 . S
C452 C444 1.378 . S
C452 C447 1.350 . S
C453 H440 0.929 . S
C453 C445 1.433 . S
C453 N455 1.384 . S
N454 C450 1.427 . S
N454 C451 1.384 . S
N455 C447 1.427 . S
N455 C453 1.384 . S
H456 C462 0.930 . S
H457 C466 0.930 . S
H458 C471 0.929 . S
H459 C469 0.929 . S
H460 C464 0.929 . S
H461 C470 0.929 . S
C462 H456 0.930 . S
C462 C463 1.367 . S
C462 C470 1.378 . S
C463 C462 1.367 . S
C463 C471 1.433 . S
C464 H460 0.929 . S
C464 C466 1.378 . S
C464 C468 1.350 . S
C465 C468 1.463 1_655 S
C465 C470 1.350 . S
C465 N473 1.427 . S
C466 H457 0.930 . S
C466 C464 1.378 . S
C466 C467 1.367 . S
C467 C466 1.367 . S
C467 C469 1.433 . S
C468 C464 1.350 . S
C468 C465 1.463 1_455 S
C468 N472 1.427 . S
C469 H459 0.929 . S
C469 C467 1.433 . S
C469 N472 1.384 . S
C470 H461 0.929 . S
C470 C462 1.378 . S
C470 C465 1.350 . S
C471 H458 0.929 . S
C471 C463 1.433 . S
C471 N473 1.384 . S
N472 C468 1.427 . S
N472 C469 1.384 . S
N473 C465 1.427 . S
N473 C471 1.384 . S
H474 C480 0.930 . S
H475 C484 0.930 . S
H476 C489 0.929 . S
H477 C487 0.929 . S
H478 C482 0.929 1_554 S
H479 C488 0.929 1_556 S
C480 H474 0.930 . S
C480 C481 1.367 . S
C480 C488 1.378 . S
C481 C480 1.367 . S
C481 C489 1.433 . S
C482 H478 0.929 1_556 S
C482 C484 1.378 . S
C482 C486 1.350 . S
C483 C486 1.463 1_564 S
C483 C488 1.350 . S
C483 N491 1.427 . S
C484 H475 0.930 . S
C484 C482 1.378 . S
C484 C485 1.367 . S
C485 C484 1.367 . S
C485 C487 1.433 . S
C486 C482 1.350 . S
C486 C483 1.463 1_546 S
C486 N490 1.427 . S
C487 H477 0.929 . S
C487 C485 1.433 . S
C487 N490 1.384 . S
C488 H479 0.929 1_554 S
C488 C480 1.378 . S
C488 C483 1.350 . S
C489 H476 0.929 . S
C489 C481 1.433 . S
C489 N491 1.384 . S
N490 C486 1.427 . S
N490 C487 1.384 . S
N491 C483 1.427 . S
N491 C489 1.384 . S
H492 C498 0.930 . S
H493 C502 0.930 . S
H494 C507 0.929 . S
H495 C505 0.929 . S
H496 C500 0.929 . S
H497 C506 0.929 . S
C498 H492 0.930 . S
C498 C499 1.367 . S
C498 C506 1.378 . S
C499 C498 1.367 . S
C499 C507 1.433 . S
C500 H496 0.929 . S
C500 C502 1.378 1_554 S
C500 C504 1.350 . S
C501 C504 1.463 . S
C501 C506 1.350 . S
C501 N509 1.427 . S
C502 H493 0.930 . S
C502 C500 1.378 1_556 S
C502 C503 1.367 . S
C503 C502 1.367 . S
C503 C505 1.433 . S
C504 C500 1.350 . S
C504 C501 1.463 . S
C504 N508 1.427 1_554 S
C505 H495 0.929 . S
C505 C503 1.433 . S
C505 N508 1.384 . S
C506 H497 0.929 . S
C506 C498 1.378 . S
C506 C501 1.350 . S
C507 H494 0.929 . S
C507 C499 1.433 . S
C507 N509 1.384 . S
N508 C504 1.427 1_556 S
N508 C505 1.384 . S
N509 C501 1.427 . S
N509 C507 1.384 . S
H510 C516 0.930 . S
H511 C520 0.930 . S
H512 C525 0.929 . S
H513 C523 0.929 . S
H514 C518 0.929 . S
H515 C524 0.929 . S
C516 H510 0.930 . S
C516 C517 1.367 . S
C516 C524 1.378 . S
C517 C516 1.367 . S
C517 C525 1.433 . S
C518 H514 0.929 . S
C518 C520 1.378 1_655 S
C518 C522 1.350 . S
C519 C522 1.463 . S
C519 C524 1.350 . S
C519 N527 1.427 . S
C520 H511 0.930 . S
C520 C518 1.378 1_455 S
C520 C521 1.367 . S
C521 C520 1.367 . S
C521 C523 1.433 . S
C522 C518 1.350 . S
C522 C519 1.463 . S
C522 N526 1.427 . S
C523 H513 0.929 . S
C523 C521 1.433 . S
C523 N526 1.384 1_455 S
C524 H515 0.929 . S
C524 C516 1.378 . S
C524 C519 1.350 . S
C525 H512 0.929 . S
C525 C517 1.433 . S
C525 N527 1.384 . S
N526 C522 1.427 . S
N526 C523 1.384 1_655 S
N527 C519 1.427 . S
N527 C525 1.384 . S
H528 C534 0.930 . S
H529 C538 0.930 . S
H530 C543 0.929 . S
H531 C541 0.929 . S
H532 C536 0.929 . S
H533 C542 0.929 . S
C534 H528 0.930 . S
C534 C535 1.367 . S
C534 C542 1.378 1_545 S
C535 C534 1.367 . S
C535 C543 1.433 . S
C536 H532 0.929 . S
C536 C538 1.378 . S
C536 C540 1.350 . S
C537 C540 1.463 . S
C537 C542 1.350 . S
C537 N545 1.427 . S
C538 H529 0.930 . S
C538 C536 1.378 . S
C538 C539 1.367 . S
C539 C538 1.367 . S
C539 C541 1.433 . S
C540 C536 1.350 . S
C540 C537 1.463 . S
C540 N544 1.427 . S
C541 H531 0.929 . S
C541 C539 1.433 . S
C541 N544 1.384 . S
C542 H533 0.929 . S
C542 C534 1.378 1_565 S
C542 C537 1.350 . S
C543 H530 0.929 . S
C543 C535 1.433 . S
C543 N545 1.384 1_545 S
N544 C540 1.427 . S
N544 C541 1.384 . S
N545 C537 1.427 . S
N545 C543 1.384 1_565 S
H546 C552 0.930 . S
H547 C556 0.930 . S
H548 C561 0.929 . S
H549 C559 0.929 . S
H550 C554 0.929 . S
H551 C560 0.929 . S
C552 H546 0.930 . S
C552 C553 1.367 . S
C552 C560 1.378 . S
C553 C552 1.367 . S
C553 C561 1.433 . S
C554 H550 0.929 . S
C554 C556 1.378 . S
C554 C558 1.350 . S
C555 C558 1.463 . S
C555 C560 1.350 . S
C555 N563 1.427 . S
C556 H547 0.930 . S
C556 C554 1.378 . S
C556 C557 1.367 . S
C557 C556 1.367 . S
C557 C559 1.433 . S
C558 C554 1.350 . S
C558 C555 1.463 . S
C558 N562 1.427 . S
C559 H549 0.929 . S
C559 C557 1.433 . S
C559 N562 1.384 . S
C560 H551 0.929 . S
C560 C552 1.378 . S
C560 C555 1.350 . S
C561 H548 0.929 . S
C561 C553 1.433 . S
C561 N563 1.384 . S
N562 C558 1.427 . S
N562 C559 1.384 . S
N563 C555 1.427 . S
N563 C561 1.384 . S
H564 C570 0.930 . S
H565 C574 0.930 . S
H566 C579 0.929 . S
H567 C577 0.929 . S
H568 C572 0.929 . S
H569 C578 0.929 . S
C570 H564 0.930 . S
C570 C571 1.367 . S
C570 C578 1.378 . S
C571 C570 1.367 . S
C571 C579 1.433 . S
C572 H568 0.929 . S
C572 C574 1.378 1_455 S
C572 C576 1.350 . S
C573 C576 1.463 . S
C573 C578 1.350 . S
C573 N581 1.427 . S
C574 H565 0.930 . S
C574 C572 1.378 1_655 S
C574 C575 1.367 . S
C575 C574 1.367 . S
C575 C577 1.433 1_655 S
C576 C572 1.350 . S
C576 C573 1.463 . S
C576 N580 1.427 . S
C577 H567 0.929 . S
C577 C575 1.433 1_455 S
C577 N580 1.384 . S
C578 H569 0.929 . S
C578 C570 1.378 . S
C578 C573 1.350 . S
C579 H566 0.929 . S
C579 C571 1.433 . S
C579 N581 1.384 . S
N580 C576 1.427 . S
N580 C577 1.384 . S
N581 C573 1.427 . S
N581 C579 1.384 . S
H582 C588 0.930 . S
H583 C592 0.930 . S
H584 C597 0.929 . S
H585 C595 0.929 . S
H586 C590 0.929 . S
H587 C596 0.929 . S
C588 H582 0.930 . S
C588 C589 1.367 . S
C588 C596 1.378 . S
C589 C588 1.367 . S
C589 C597 1.433 . S
C590 H586 0.929 . S
C590 C592 1.378 1_545 S
C590 C594 1.350 . S
C591 C594 1.463 . S
C591 C596 1.350 . S
C591 N599 1.427 . S
C592 H583 0.930 . S
C592 C590 1.378 1_565 S
C592 C593 1.367 . S
C593 C592 1.367 . S
C593 C595 1.433 1_565 S
C594 C590 1.350 . S
C594 C591 1.463 . S
C594 N598 1.427 . S
C595 H585 0.929 . S
C595 C593 1.433 1_545 S
C595 N598 1.384 . S
C596 H587 0.929 . S
C596 C588 1.378 . S
C596 C591 1.350 . S
C597 H584 0.929 . S
C597 C589 1.433 . S
C597 N599 1.384 . S
N598 C594 1.427 . S
N598 C595 1.384 . S
N599 C591 1.427 . S
N599 C597 1.384 . S
H600 C606 0.930 . S
H601 C610 0.930 . S
H602 C615 0.929 . S
H603 C613 0.929 . S
H604 C608 0.929 . S
H605 C614 0.929 . S
C606 H600 0.930 . S
C606 C607 1.367 . S
C606 C614 1.378 . S
C607 C606 1.367 . S
C607 C615 1.433 . S
C608 H604 0.929 . S
C608 C610 1.378 . S
C608 C612 1.350 . S
C609 C612 1.463 . S
C609 C614 1.350 . S
C609 N617 1.427 . S
C610 H601 0.930 . S
C610 C608 1.378 . S
C610 C611 1.367 . S
C611 C610 1.367 . S
C611 C613 1.433 . S
C612 C608 1.350 . S
C612 C609 1.463 . S
C612 N616 1.427 . S
C613 H603 0.929 . S
C613 C611 1.433 . S
C613 N616 1.384 . S
C614 H605 0.929 . S
C614 C606 1.378 . S
C614 C609 1.350 . S
C615 H602 0.929 . S
C615 C607 1.433 . S
C615 N617 1.384 . S
N616 C612 1.427 . S
N616 C613 1.384 . S
N617 C609 1.427 . S
N617 C615 1.384 . S
H618 C624 0.930 . S
H619 C628 0.921 1_455 S
H620 C633 0.929 . S
H621 C631 0.929 . S
H622 C626 0.929 . S
H623 C632 0.929 . S
C624 H618 0.930 . S
C624 C625 1.367 . S
C624 C632 1.378 . S
C625 C624 1.367 . S
C625 C633 1.433 . S
C626 H622 0.929 . S
C626 C628 1.391 . S
C626 C630 1.350 1_554 S
C627 C630 1.463 . S
C627 C632 1.350 . S
C627 N635 1.427 . S
C628 H619 0.921 1_655 S
C628 C626 1.391 . S
C628 C629 1.364 1_655 S
C629 C628 1.364 1_455 S
C629 C631 1.433 . S
C630 C626 1.350 1_556 S
C630 C627 1.463 . S
C630 N634 1.427 . S
C631 H621 0.929 . S
C631 C629 1.433 . S
C631 N634 1.384 1_454 S
C632 H623 0.929 . S
C632 C624 1.378 . S
C632 C627 1.350 . S
C633 H620 0.929 . S
C633 C625 1.433 . S
C633 N635 1.384 . S
N634 C630 1.427 . S
N634 C631 1.384 1_656 S
N635 C627 1.427 . S
N635 C633 1.384 . S
H636 C642 0.930 . S
H637 C646 0.930 . S
H638 C651 0.929 . S
H639 C649 0.929 . S
H640 C644 0.929 . S
H641 C650 0.929 . S
C642 H636 0.930 . S
C642 C643 1.367 . S
C642 C650 1.378 . S
C643 C642 1.367 . S
C643 C651 1.433 . S
C644 H640 0.929 . S
C644 C646 1.378 1_565 S
C644 C648 1.350 . S
C645 C648 1.463 . S
C645 C650 1.350 . S
C645 N653 1.427 . S
C646 H637 0.930 . S
C646 C644 1.378 1_545 S
C646 C647 1.367 . S
C647 C646 1.367 . S
C647 C649 1.433 1_545 S
C648 C644 1.350 . S
C648 C645 1.463 . S
C648 N652 1.427 . S
C649 H639 0.929 . S
C649 C647 1.433 1_565 S
C649 N652 1.384 . S
C650 H641 0.929 . S
C650 C642 1.378 . S
C650 C645 1.350 . S
C651 H638 0.929 . S
C651 C643 1.433 . S
C651 N653 1.384 . S
N652 C648 1.427 . S
N652 C649 1.384 . S
N653 C645 1.427 . S
N653 C651 1.384 . S
H654 C660 0.930 . S
H655 C664 0.930 . S
H656 C669 0.929 . S
H657 C667 0.929 . S
H658 C662 0.929 . S
H659 C668 0.929 . S
C660 H654 0.930 . S
C660 C661 1.367 . S
C660 C668 1.378 . S
C661 C660 1.367 . S
C661 C669 1.433 . S
C662 H658 0.929 . S
C662 C664 1.378 . S
C662 C666 1.350 . S
C663 C666 1.463 . S
C663 C668 1.350 . S
C663 N671 1.427 . S
C664 H655 0.930 . S
C664 C662 1.378 . S
C664 C665 1.367 . S
C665 C664 1.367 . S
C665 C667 1.433 . S
C666 C662 1.350 . S
C666 C663 1.463 . S
C666 N670 1.427 . S
C667 H657 0.929 . S
C667 C665 1.433 . S
C667 N670 1.384 . S
C668 H659 0.929 . S
C668 C660 1.378 . S
C668 C663 1.350 . S
C669 H656 0.929 . S
C669 C661 1.433 . S
C669 N671 1.384 . S
N670 C666 1.427 . S
N670 C667 1.384 . S
N671 C663 1.427 . S
N671 C669 1.384 . S
H672 C678 0.930 . S
H673 C682 0.930 . S
H674 C687 0.929 . S
H675 C685 0.929 . S
H676 C680 0.929 . S
H677 C686 0.929 . S
C678 H672 0.930 . S
C678 C679 1.367 . S
C678 C686 1.378 . S
C679 C678 1.367 . S
C679 C687 1.433 . S
C680 H676 0.929 . S
C680 C682 1.378 1_455 S
C680 C684 1.350 . S
C681 C684 1.463 . S
C681 C686 1.350 . S
C681 N689 1.427 . S
C682 H673 0.930 . S
C682 C680 1.378 1_655 S
C682 C683 1.367 . S
C683 C682 1.367 . S
C683 C685 1.433 1_655 S
C684 C680 1.350 . S
C684 C681 1.463 . S
C684 N688 1.427 . S
C685 H675 0.929 . S
C685 C683 1.433 1_455 S
C685 N688 1.384 . S
C686 H677 0.929 . S
C686 C678 1.378 . S
C686 C681 1.350 . S
C687 H674 0.929 . S
C687 C679 1.433 . S
C687 N689 1.384 . S
N688 C684 1.427 . S
N688 C685 1.384 . S
N689 C681 1.427 . S
N689 C687 1.384 . S
H690 C696 0.930 . S
H691 C700 0.930 . S
H692 C705 0.929 . S
H693 C703 0.929 . S
H694 C698 0.929 . S
H695 C704 0.929 . S
C696 H690 0.930 . S
C696 C697 1.367 . S
C696 C704 1.378 1_565 S
C697 C696 1.367 . S
C697 C705 1.433 1_565 S
C698 H694 0.929 . S
C698 C700 1.378 . S
C698 C702 1.350 . S
C699 C702 1.463 . S
C699 C704 1.350 . S
C699 N707 1.427 . S
C700 H691 0.930 . S
C700 C698 1.378 . S
C700 C701 1.367 . S
C701 C700 1.367 . S
C701 C703 1.433 . S
C702 C698 1.350 . S
C702 C699 1.463 . S
C702 N706 1.427 . S
C703 H693 0.929 . S
C703 C701 1.433 . S
C703 N706 1.384 . S
C704 H695 0.929 . S
C704 C696 1.378 1_545 S
C704 C699 1.350 . S
C705 H692 0.929 . S
C705 C697 1.433 1_545 S
C705 N707 1.384 . S
N706 C702 1.427 . S
N706 C703 1.384 . S
N707 C699 1.427 . S
N707 C705 1.384 . S
C283 N196 1.688 . S
C287 N12 1.686 . S
C301 N35 1.681 . S
C305 N219 1.691 . S
C319 N58 1.686 . S
C323 N242 1.685 . S
C337 N81 1.691 . S
C341 N265 1.681 . S
C355 N150 1.691 . S
C359 N104 1.682 . S
C373 N127 1.685 . S
C377 N173 1.687 . S
C391 N209 1.224 . S
C395 N2 1.219 . S
C409 N25 1.236 . S
C413 N232 1.243 . S
C427 N255 1.224 . S
C431 N48 1.219 . S
C445 N71 1.226 . S
C449 N140 1.219 . S
C463 N163 1.220 . S
C467 N94 1.226 . S
C481 N186 1.227 . S
C485 N117 1.220 . S
C499 C16 1.958 . S
C503 C122 1.925 . S
C517 C39 1.950 . S
C521 C7 1.934 . S
C535 C30 1.924 . S
C539 C62 1.958 . S
C553 C85 1.950 . S
C557 C53 1.932 . S
C571 C108 1.957 . S
C575 C76 1.927 . S
C589 C131 1.957 . S
C593 C99 1.927 . S
C607 C154 1.952 . S
C611 C168 1.933 . S
C625 C177 1.949 . S
C629 C191 1.934 . S
C643 C200 1.957 . S
C647 C214 1.926 . S
C661 C223 1.954 . S
C665 C237 1.931 . S
C679 C246 1.951 . S
C683 C260 1.933 . S
C697 C145 1.926 . S
C701 C269 1.957 . S
