# Generated by pormake.
# Topology qtz-e, (6)-cn, num edge types: 1
# Building blocks:
#     Node 0, Type 0, BuildingBlock: CUKXOW_clean_sbu_0, # of connection points: 6
#     Node 1, Type 0, BuildingBlock: CUKXOW_clean_sbu_0, # of connection points: 6
#     Node 2, Type 0, BuildingBlock: CUKXOW_clean_sbu_0, # of connection points: 6
#     Node 3, Type 0, BuildingBlock: CUKXOW_clean_sbu_0, # of connection points: 6
#     Node 4, Type 0, BuildingBlock: CUKXOW_clean_sbu_0, # of connection points: 6
#     Node 5, Type 0, BuildingBlock: CUKXOW_clean_sbu_0, # of connection points: 6
#     Edge 6, Type (0, 0), BuildingBlock: XIVTED_clean_linker_0, # of connection points: 2
#     Edge 7, Type (0, 0), BuildingBlock: XIVTED_clean_linker_0, # of connection points: 2
#     Edge 8, Type (0, 0), BuildingBlock: XIVTED_clean_linker_0, # of connection points: 2
#     Edge 9, Type (0, 0), BuildingBlock: XIVTED_clean_linker_0, # of connection points: 2
#     Edge 10, Type (0, 0), BuildingBlock: XIVTED_clean_linker_0, # of connection points: 2
#     Edge 11, Type (0, 0), BuildingBlock: XIVTED_clean_linker_0, # of connection points: 2
#     Edge 12, Type (0, 0), BuildingBlock: XIVTED_clean_linker_0, # of connection points: 2
#     Edge 13, Type (0, 0), BuildingBlock: XIVTED_clean_linker_0, # of connection points: 2
#     Edge 14, Type (0, 0), BuildingBlock: XIVTED_clean_linker_0, # of connection points: 2
#     Edge 15, Type (0, 0), BuildingBlock: XIVTED_clean_linker_0, # of connection points: 2
#     Edge 16, Type (0, 0), BuildingBlock: XIVTED_clean_linker_0, # of connection points: 2
#     Edge 17, Type (0, 0), BuildingBlock: XIVTED_clean_linker_0, # of connection points: 2
#     Edge 18, Type (0, 0), BuildingBlock: XIVTED_clean_linker_0, # of connection points: 2
#     Edge 19, Type (0, 0), BuildingBlock: XIVTED_clean_linker_0, # of connection points: 2
#     Edge 20, Type (0, 0), BuildingBlock: XIVTED_clean_linker_0, # of connection points: 2
#     Edge 21, Type (0, 0), BuildingBlock: XIVTED_clean_linker_0, # of connection points: 2
#     Edge 22, Type (0, 0), BuildingBlock: XIVTED_clean_linker_0, # of connection points: 2
#     Edge 23, Type (0, 0), BuildingBlock: XIVTED_clean_linker_0, # of connection points: 2
# Relax obj value: 0.116
# Max RMSD: 0.164
# Mean RMSD: 0.164
data_MOF--net-qtz-e--node1-CUKXOW_clean_sbu_0--edge1-XIVTED_clean_linker_0
_symmetry_space_group_name_H-M    P1
_symmetry_Int_Tables_number       1
_symmetry_cell_setting            triclinic
loop_
_symmetry_equiv_pos_as_xyz
'x, y, z'
_cell_length_a     27.086754
_cell_length_b     27.229179
_cell_length_c     37.35005
_cell_angle_alpha  89.779448
_cell_angle_beta   90.143426
_cell_angle_gamma 120.55629
loop_
_atom_site_label
_atom_site_type_symbol
_atom_site_fract_x
_atom_site_fract_y
_atom_site_fract_z
_atom_type_partial_charge
Tb0 Tb 0.1443 0.34958 0.05955 0.0
C1 C 0.27455 0.39128 0.05958 0.0
Tb2 Tb 0.22085 0.42979 0.99879 0.0
O3 O 0.1476 0.27727 0.03654 0.0
O4 O 0.15529 0.34336 1.00412 0.0
O5 O 0.23012 0.37947 0.08037 0.0
C6 C 0.28901 0.48228 0.94254 0.0
O7 O 0.27497 0.40193 1.02479 0.0
C8 C 0.20214 0.47807 0.0537 0.0
C9 C 0.09186 0.39364 0.9987 0.0
O10 O 0.29573 0.50325 0.97453 0.0
O11 O 0.24443 0.43113 0.9424 0.0
O12 O 0.21157 0.49917 1.02154 0.0
O13 O 0.20868 0.43569 0.0541 0.0
O14 O 0.13937 0.4147 0.97942 0.0
O15 O 0.08513 0.3682 0.03035 0.0
C16 C 0.07707 0.31015 0.11747 0.0
O17 O 0.09991 0.28439 0.10126 0.0
O18 O 0.09169 0.3575 0.10087 0.0
C19 C 0.15898 0.29925 1.00457 0.0
Tb20 Tb 0.76965 0.16163 0.39667 0.0
C21 C 0.80943 0.2929 0.39735 0.0
Tb22 Tb 0.7411 0.21388 0.33245 0.0
O23 O 0.83229 0.15192 0.36421 0.0
O24 O 0.81437 0.21565 0.35298 0.0
O25 O 0.80356 0.24873 0.41628 0.0
C26 C 0.73243 0.25755 0.27045 0.0
O27 O 0.79506 0.28994 0.36306 0.0
C28 C 0.67631 0.19391 0.38849 0.0
C29 C 0.69154 0.083 0.33481 0.0
O30 O 0.78 0.26653 0.28482 0.0
O31 O 0.68973 0.22301 0.29061 0.0
O32 O 0.68653 0.23277 0.36472 0.0
O33 O 0.69656 0.16358 0.37805 0.0
O34 O 0.71291 0.1281 0.31347 0.0
O35 O 0.70061 0.0882 0.36986 0.0
C36 C 0.76948 0.11136 0.45843 0.0
O37 O 0.78244 0.10036 0.42728 0.0
O38 O 0.75808 0.15208 0.45507 0.0
C39 C 0.83999 0.19144 0.34161 0.0
Tb40 Tb 0.6073 0.79323 0.72945 0.0
C41 C 0.57839 0.8891 0.72226 0.0
Tb42 Tb 0.52679 0.7852 0.66818 0.0
O43 O 0.67937 0.86825 0.7044 0.0
O44 O 0.6132 0.80619 0.67324 0.0
O45 O 0.59149 0.8604 0.74534 0.0
C46 C 0.47573 0.79604 0.60967 0.0
O47 O 0.56055 0.87131 0.68905 0.0
C48 C 0.47561 0.72459 0.72584 0.0
C49 C 0.54567 0.68402 0.67929 0.0
O50 O 0.52345 0.7956 0.61005 0.0
O51 O 0.45746 0.79146 0.6423 0.0
O52 O 0.45369 0.71118 0.69394 0.0
O53 O 0.52102 0.77239 0.72438 0.0
O54 O 0.5368 0.71378 0.65469 0.0
O55 O 0.56724 0.70482 0.71141 0.0
C56 C 0.65597 0.77689 0.78686 0.0
O57 O 0.66834 0.77279 0.75386 0.0
O58 O 0.61647 0.79037 0.7875 0.0
C59 C 0.65788 0.8547 0.67241 0.0
Tb60 Tb 0.79996 0.60728 0.05937 0.0
C61 C 0.67451 0.58503 0.06175 0.0
Tb62 Tb 0.70793 0.5263 1.00458 0.0
O63 O 0.79934 0.68111 0.03554 0.0
O64 O 0.78025 0.60968 1.00506 0.0
O65 O 0.71881 0.59255 0.08125 0.0
C66 C 0.64643 0.47135 0.94675 0.0
O67 O 0.6695 0.57203 1.02727 0.0
C68 C 0.70399 0.48364 0.06853 0.0
C69 C 0.82989 0.53739 1.00384 0.0
O70 O 0.64486 0.44821 0.9774 0.0
O71 O 0.68259 0.52582 0.94851 0.0
O72 O 0.65907 0.46759 0.04853 0.0
O73 O 0.74761 0.51865 0.0513 0.0
O74 O 0.77848 0.51514 0.9888 0.0
O75 O 0.84708 0.57289 0.0317 0.0
C76 C 0.86963 0.64939 0.11589 0.0
O77 O 0.88454 0.66522 0.08281 0.0
O78 O 0.81586 0.60996 0.1169 0.0
C79 C 0.78212 0.65663 1.00456 0.0
Tb80 Tb 0.18126 0.80277 0.39066 0.0
C81 C 0.07429 0.68105 0.38695 0.0
Tb82 Tb 0.17724 0.72068 0.33225 0.0
O83 O 0.11123 0.8068 0.36328 0.0
O84 O 0.16921 0.79364 0.33464 0.0
O85 O 0.10674 0.72446 0.40827 0.0
C86 C 0.1561 0.65514 0.27469 0.0
O87 O 0.09036 0.67546 0.35432 0.0
C88 C 0.23569 0.72752 0.39015 0.0
C89 C 0.28814 0.83743 0.33975 0.0
O90 O 0.15994 0.70458 0.27494 0.0
O91 O 0.16357 0.64226 0.30697 0.0
O92 O 0.24651 0.7147 0.3588 0.0
O93 O 0.1909 0.73053 0.38818 0.0
O94 O 0.25478 0.79743 0.31664 0.0
O95 O 0.26994 0.84345 0.37161 0.0
C96 C 0.20296 0.86826 0.44832 0.0
O97 O 0.2057 0.88521 0.41541 0.0
O98 O 0.18828 0.81501 0.44853 0.0
C99 C 0.1241 0.79569 0.33202 0.0
Tb100 Tb 0.32352 0.16576 0.72803 0.0
C101 C 0.38644 0.09817 0.72376 0.0
Tb102 Tb 0.41047 0.19139 0.667 0.0
O103 O 0.26405 0.08216 0.70371 0.0
O104 O 0.3208 0.15103 0.67247 0.0
O105 O 0.36759 0.12224 0.74629 0.0
C106 C 0.46263 0.19291 0.60632 0.0
O107 O 0.39367 0.11088 0.68926 0.0
C108 C 0.45637 0.23589 0.72975 0.0
C109 C 0.35678 0.26899 0.67383 0.0
O110 O 0.42029 0.14784 0.6209 0.0
O111 O 0.47471 0.23748 0.62546 0.0
O112 O 0.48262 0.22452 0.705 0.0
O113 O 0.40992 0.22771 0.71693 0.0
O114 O 0.38232 0.25027 0.65203 0.0
O115 O 0.33509 0.24516 0.70554 0.0
C116 C 0.2684 0.16957 0.78587 0.0
O117 O 0.2533 0.17105 0.75301 0.0
O118 O 0.31395 0.16528 0.78605 0.0
C119 C 0.28448 0.09891 0.67171 0.0
H120 H 0.15652 0.55549 0.27044 0.0
H121 H 0.17648 0.56301 0.05619 0.0
H122 H 0.14776 0.68204 0.20535 0.0
H123 H 0.19837 0.44608 0.12317 0.0
H124 H 0.1568 0.60198 0.10985 0.0
H125 H 0.16111 0.50833 0.21603 0.0
C126 C 0.15495 0.57294 0.24462 0.0
C127 C 0.15219 0.62283 0.24225 0.0
C128 C 0.1656 0.56758 0.11276 0.0
C129 C 0.15807 0.56967 0.17993 0.0
C130 C 0.17694 0.5455 0.08219 0.0
C131 C 0.18901 0.50138 0.08538 0.0
C132 C 0.16648 0.5453 0.14664 0.0
C133 C 0.18898 0.47996 0.11957 0.0
C134 C 0.15779 0.54619 0.21357 0.0
C135 C 0.15018 0.64373 0.20823 0.0
N136 N 0.178 0.50219 0.14886 0.0
N137 N 0.15359 0.61727 0.17835 0.0
H138 H 0.54809 0.28461 0.57156 0.0
H139 H 0.62257 0.10368 0.43608 0.0
H140 H 0.45273 0.10068 0.57076 0.0
H141 H 0.66978 0.27912 0.41962 0.0
H142 H 0.57162 0.10211 0.49129 0.0
H143 H 0.60461 0.28382 0.52092 0.0
C144 C 0.53899 0.24407 0.56058 0.0
C145 C 0.49549 0.1927 0.57503 0.0
C146 C 0.59342 0.14086 0.47552 0.0
C147 C 0.56033 0.19128 0.51743 0.0
C148 C 0.62259 0.1418 0.44429 0.0
C149 C 0.64967 0.19137 0.42326 0.0
C150 C 0.59254 0.19015 0.48574 0.0
C151 C 0.64876 0.23979 0.43488 0.0
C152 C 0.57127 0.24356 0.53175 0.0
C153 C 0.48569 0.14124 0.56007 0.0
N154 N 0.62069 0.23795 0.46525 0.0
N155 N 0.51797 0.14176 0.53203 0.0
H156 H 0.27264 0.44664 0.87287 0.0
H157 H 0.506 0.75424 0.79577 0.0
H158 H 0.37926 0.59165 0.93961 0.0
H159 H 0.3917 0.61254 0.72905 0.0
H160 H 0.46573 0.69326 0.84874 0.0
H161 H 0.32151 0.50421 0.81985 0.0
C162 C 0.30676 0.49046 0.87635 0.0
C163 C 0.32185 0.51453 0.91062 0.0
C164 C 0.44957 0.67535 0.82253 0.0
C165 C 0.37765 0.58086 0.85014 0.0
C166 C 0.47279 0.71011 0.7923 0.0
C167 C 0.45225 0.6883 0.75806 0.0
C168 C 0.40535 0.61832 0.81847 0.0
C169 C 0.40849 0.63108 0.75504 0.0
C170 C 0.33451 0.52339 0.84609 0.0
C171 C 0.36626 0.57149 0.91364 0.0
N172 N 0.38645 0.59809 0.78483 0.0
N173 N 0.39239 0.60278 0.88381 0.0
H174 H 0.81978 0.33917 0.23047 0.0
H175 H 0.61424 0.39826 0.10563 0.0
H176 H 0.63557 0.24684 0.24049 0.0
H177 H 0.79896 0.4988 0.10323 0.0
H178 H 0.62029 0.34163 0.15487 0.0
H179 H 0.81241 0.39618 0.18231 0.0
C180 C 0.77775 0.33063 0.22225 0.0
C181 C 0.7282 0.28836 0.23931 0.0
C182 C 0.65946 0.37629 0.14368 0.0
C183 C 0.71931 0.35359 0.18462 0.0
C184 C 0.65597 0.40863 0.11572 0.0
C185 C 0.70615 0.45295 0.10041 0.0
C186 C 0.71354 0.38839 0.15614 0.0
C187 C 0.75922 0.46491 0.11436 0.0
C188 C 0.77353 0.36335 0.19493 0.0
C189 C 0.67478 0.27906 0.22786 0.0
N190 N 0.76153 0.43259 0.1413 0.0
N191 N 0.67171 0.31153 0.20122 0.0
H192 H 0.37149 0.78858 0.60611 0.0
H193 H 0.3464 0.75168 0.39265 0.0
H194 H 0.50578 0.79757 0.53964 0.0
H195 H 0.20891 0.73298 0.46001 0.0
H196 H 0.40766 0.77438 0.44563 0.0
H197 H 0.31413 0.77567 0.55243 0.0
C198 C 0.38909 0.78837 0.58014 0.0
C199 C 0.44332 0.79394 0.57726 0.0
C200 C 0.36419 0.76562 0.44886 0.0
C201 C 0.37776 0.77864 0.5157 0.0
C202 C 0.32918 0.75246 0.41865 0.0
C203 C 0.27275 0.74102 0.42201 0.0
C204 C 0.34245 0.76693 0.48276 0.0
C205 C 0.25256 0.74274 0.45623 0.0
C206 C 0.35626 0.78079 0.5495 0.0
C207 C 0.46409 0.79332 0.543 0.0
N208 N 0.28732 0.75536 0.48529 0.0
N209 N 0.43117 0.78549 0.51356 0.0
H210 H 0.54374 0.37251 0.94392 0.0
H211 H 0.56968 0.28927 0.7481 0.0
H212 H 0.67966 0.49684 0.87691 0.0
H213 H 0.40652 0.26235 0.78397 0.0
H214 H 0.61549 0.35031 0.8005 0.0
H215 H 0.49568 0.31567 0.89038 0.0
C216 C 0.56322 0.38786 0.91788 0.0
C217 C 0.61542 0.43937 0.91458 0.0
C218 C 0.5696 0.33064 0.79683 0.0
C219 C 0.56206 0.37403 0.85396 0.0
C220 C 0.54342 0.29562 0.7672 0.0
C221 C 0.48408 0.27017 0.76202 0.0
C222 C 0.53591 0.33879 0.82183 0.0
C223 C 0.45212 0.28024 0.78737 0.0
C224 C 0.53586 0.35557 0.88752 0.0
C225 C 0.63917 0.4575 0.88038 0.0
N226 N 0.47831 0.31325 0.8165 0.0
N227 N 0.61274 0.42432 0.85131 0.0
H228 H 0.35596 0.37041 0.03486 0.0
H229 H 0.63031 0.52474 0.12308 0.0
H230 H 0.31972 0.4543 0.11984 0.0
H231 H 0.5973 0.61403 0.03947 0.0
H232 H 0.52746 0.47154 0.13714 0.0
H233 H 0.45765 0.42421 0.05136 0.0
C234 C 0.36922 0.39851 0.05783 0.0
C235 C 0.32996 0.40815 0.07609 0.0
C236 C 0.54349 0.5049 0.11703 0.0
C237 C 0.44504 0.47012 0.09421 0.0
C238 C 0.60197 0.53556 0.10912 0.0
C239 C 0.62178 0.57338 0.07989 0.0
C240 C 0.50577 0.51329 0.09582 0.0
C241 C 0.58335 0.58496 0.06205 0.0
C242 C 0.42686 0.42908 0.06712 0.0
C243 C 0.34904 0.44555 0.10542 0.0
N244 N 0.52667 0.55389 0.06975 0.0
N245 N 0.40601 0.4769 0.11298 0.0
H246 H 0.05767 0.63714 0.45433 0.0
H247 H 0.89861 0.34492 0.44511 0.0
H248 H -0.02641 0.6151 0.35248 0.0
H249 H 0.77423 0.36801 0.38683 0.0
H250 H 0.95262 0.4476 0.45745 0.0
H251 H -0.02071 0.54299 0.4732 0.0
C252 C 0.02179 0.61311 0.43641 0.0
C253 C 0.02208 0.63281 0.4016 0.0
C254 C 0.9122 0.42983 0.44333 0.0
C255 C 0.93363 0.52633 0.42272 0.0
C256 C 0.88167 0.37135 0.43615 0.0
C257 C 0.83331 0.34899 0.41403 0.0
C258 C 0.89373 0.46511 0.42802 0.0
C259 C 0.81261 0.38445 0.40305 0.0
C260 C -0.02242 0.55942 0.44707 0.0
C261 C -0.02491 0.6006 0.37929 0.0
N262 N 0.84378 0.44113 0.40934 0.0
N263 N 0.93283 0.54856 0.39017 0.0
H264 H 0.44471 0.10932 0.78617 0.0
H265 H 0.60182 -0.01606 0.68522 0.0
H266 H 0.38151 0.00894 0.68986 0.0
H267 H 0.53956 0.90024 0.78723 0.0
H268 H 0.5581 0.04164 0.69716 0.0
H269 H 0.50684 0.06848 0.79664 0.0
C270 C 0.44237 0.0772 0.76807 0.0
C271 C 0.40861 0.06252 0.73695 0.0
C272 C 0.55605 0.01212 0.71748 0.0
C273 C 0.47965 0.01836 0.74805 0.0
C274 C 0.58094 -0.02055 0.71074 0.0
C275 C 0.57297 0.93681 0.73498 0.0
C276 C 0.52265 0.0013 0.7483 0.0
C277 C 0.54597 0.93262 0.76783 0.0
C278 C 0.47811 0.0547 0.77385 0.0
C279 C 0.4075 0.02165 0.71392 0.0
N280 N 0.51977 0.96335 0.77318 0.0
N281 N 0.44348 0.00178 0.71957 0.0
H282 H 0.51885 0.62551 0.61586 0.0
H283 H 0.32494 0.33009 0.71585 0.0
H284 H 0.50616 0.60228 0.73064 0.0
H285 H 0.40674 0.33752 0.61509 0.0
H286 H 0.36589 0.43293 0.71299 0.0
H287 H 0.45829 0.52157 0.60866 0.0
C288 C 0.50398 0.59853 0.63945 0.0
C289 C 0.51807 0.62225 0.67388 0.0
C290 C 0.37391 0.41171 0.69123 0.0
C291 C 0.44733 0.50504 0.66581 0.0
C292 C 0.3502 0.35296 0.69263 0.0
C293 C 0.36413 0.32545 0.66628 0.0
C294 C 0.41123 0.44282 0.66319 0.0
C295 C 0.39613 0.35729 0.63647 0.0
C296 C 0.46915 0.53964 0.6353 0.0
C297 C 0.49722 0.58575 0.7036 0.0
N298 N 0.41971 0.41479 0.63603 0.0
N299 N 0.46244 0.52896 0.69886 0.0
H300 H 0.1072 0.4808 0.9557 0.0
H301 H 0.79485 0.43078 0.97995 0.0
H302 H -0.02257 0.33634 1.01509 0.0
H303 H 0.94684 0.59303 1.00162 0.0
H304 H 0.85536 0.38974 0.96801 0.0
H305 H 0.0398 0.51437 0.94696 0.0
C306 C 0.06397 0.45514 0.96594 0.0
C307 C 0.04782 0.40602 0.98653 0.0
C308 C 0.87518 0.43455 0.97465 0.0
C309 C -0.02876 0.44396 0.97619 0.0
C310 C 0.84103 0.45806 0.98134 0.0
C311 C 0.86626 0.51522 0.99198 0.0
C312 C 0.93468 0.46896 0.97772 0.0
C313 C 0.92603 0.54866 0.99377 0.0
C314 C 0.02592 0.4746 0.96107 0.0
C315 C -0.00847 0.37472 0.9994 0.0
N316 N 0.95849 0.52493 0.98671 0.0
N317 N 0.95508 0.3945 0.99421 0.0
H318 H 0.34177 0.86931 0.27464 0.0
H319 H 0.64435 -0.02106 0.36695 0.0
H320 H 0.37385 0.8732 0.38816 0.0
H321 H 0.62712 0.06406 0.2741 0.0
H322 H 0.54376 0.90521 0.36104 0.0
H323 H 0.44547 0.91318 0.26365 0.0
C324 C 0.37068 0.87966 0.29715 0.0
C325 C 0.34978 0.86886 0.33238 0.0
C326 C 0.56263 0.93918 0.34134 0.0
C327 C 0.46635 0.91532 0.31992 0.0
C328 C 0.62003 -0.01899 0.3445 0.0
C329 C 0.64318 0.02885 0.32194 0.0
C330 C 0.52875 0.94546 0.3154 0.0
C331 C 0.61032 0.02862 0.29272 0.0
C332 C 0.42932 0.90388 0.29083 0.0
C333 C 0.38845 0.88204 0.36066 0.0
N334 N 0.55382 -0.0117 0.29087 0.0
N335 N 0.44492 0.90436 0.35379 0.0
H336 H 0.19097 0.20535 0.78885 0.0
H337 H 0.19096 0.21917 1.00279 0.0
H338 H 0.28948 0.1567 0.85549 0.0
H339 H 0.14981 0.32158 0.93461 0.0
H340 H 0.21095 0.17995 0.94933 0.0
H341 H 0.15822 0.23163 0.84274 0.0
C342 C 0.20499 0.19947 0.81488 0.0
C343 C 0.24307 0.17916 0.81791 0.0
C344 C 0.1974 0.21091 0.94614 0.0
C345 C 0.20606 0.20897 0.87931 0.0
C346 C 0.18593 0.23312 0.97654 0.0
C347 C 0.16937 0.27395 0.9729 0.0
C348 C 0.19135 0.22915 0.91203 0.0
C349 C 0.16328 0.29069 0.93843 0.0
C350 C 0.18662 0.21473 0.84553 0.0
C351 C 0.26024 0.17247 0.85214 0.0
N352 N 0.17423 0.26816 0.90926 0.0
N353 N 0.24168 0.18747 0.88159 0.0
H354 H 0.88273 0.29127 0.30506 0.0
H355 H 0.04163 0.21113 0.15525 0.0
H356 H 0.88162 0.13244 0.30558 0.0
H357 H 0.03338 0.36517 0.15451 0.0
H358 H -0.01536 0.18133 0.21056 0.0
H359 H 0.93963 0.31916 0.25031 0.0
C360 C 0.89412 0.26203 0.29339 0.0
C361 C 0.87665 0.20908 0.30942 0.0
C362 C -0.00475 0.22159 0.19825 0.0
C363 C 0.9429 0.24109 0.24698 0.0
C364 C 0.02769 0.23855 0.16672 0.0
C365 C 0.04201 0.29057 0.15034 0.0
C366 C -0.02273 0.25709 0.21346 0.0
C367 C 0.02308 0.32462 0.16624 0.0
C368 C 0.92696 0.2781 0.26223 0.0
C369 C 0.8941 0.17357 0.29387 0.0
N370 N -0.00822 0.30732 0.19688 0.0
N371 N 0.92618 0.19012 0.26338 0.0
H372 H 0.71933 0.97076 0.67344 0.0
H373 H 0.76063 0.00754 0.46244 0.0
H374 H 0.64062 0.82754 0.60142 0.0
H375 H 0.75428 0.1347 0.52753 0.0
H376 H 0.73506 0.94516 0.51496 0.0
H377 H 0.75002 0.03567 0.62172 0.0
C378 C 0.70887 0.95307 0.64669 0.0
C379 C 0.67745 0.89388 0.6415 0.0
C380 C 0.7396 -0.01316 0.51775 0.0
C381 C 0.7129 0.9675 0.58258 0.0
C382 C 0.75457 0.0226 0.48793 0.0
C383 C 0.75957 0.07629 0.49077 0.0
C384 C 0.73064 0.00536 0.5508 0.0
C385 C 0.75084 0.09357 0.52432 0.0
C386 C 0.72609 -0.00996 0.61731 0.0
C387 C 0.66455 0.87299 0.60643 0.0
N388 N 0.737 0.05824 0.55317 0.0
N389 N 0.68273 0.90979 0.57821 0.0
H390 H 0.72573 0.73196 0.78884 0.0
H391 H 0.75183 0.73837 1.00251 0.0
H392 H 0.64096 0.79407 0.85689 0.0
H393 H 0.78206 0.62807 0.93515 0.0
H394 H 0.72514 0.77283 0.94908 0.0
H395 H 0.76127 0.70713 0.84221 0.0
C396 C 0.71501 0.74072 0.81505 0.0
C397 C 0.68029 0.76481 0.81863 0.0
C398 C 0.73773 0.74116 0.94609 0.0
C399 C 0.72075 0.73685 0.87958 0.0
C400 C 0.75312 0.72176 0.97644 0.0
C401 C 0.7685 0.68006 0.97305 0.0
C402 C 0.73878 0.71923 0.91226 0.0
C403 C 0.7696 0.65972 0.93883 0.0
C404 C 0.73508 0.72642 0.84545 0.0
C405 C 0.66751 0.77532 0.85312 0.0
N406 N 0.75498 0.67954 0.90973 0.0
N407 N 0.68778 0.76127 0.88235 0.0
H408 H 0.15741 0.8026 0.26266 0.0
H409 H 0.83816 0.62873 0.18598 0.0
H410 H 0.00811 0.75096 0.32822 0.0
H411 H -0.01415 0.72296 0.11803 0.0
H412 H 0.90003 0.66743 0.23863 0.0
H413 H 0.09582 0.76856 0.20951 0.0
C414 C 0.11157 0.78417 0.26576 0.0
C415 C 0.08761 0.77916 0.29976 0.0
C416 C 0.91893 0.67984 0.21223 0.0
C417 C 0.01693 0.74016 0.23925 0.0
C418 C 0.88369 0.65762 0.18218 0.0
C419 C 0.90702 0.67276 0.14765 0.0
C420 C -0.02188 0.71697 0.20776 0.0
C421 C 0.96622 0.71032 0.14422 0.0
C422 C 0.07651 0.76499 0.23546 0.0
C423 C 0.02818 0.75568 0.30241 0.0
N424 N -0.00016 0.73093 0.17392 0.0
N425 N -0.00525 0.73655 0.27256 0.0
H426 H 0.22392 -0.01764 0.66692 0.0
H427 H 0.24152 -0.01754 0.45259 0.0
H428 H 0.31063 0.1355 0.603 0.0
H429 H 0.18892 0.83255 0.51753 0.0
H430 H 0.25939 0.03863 0.50729 0.0
H431 H 0.20233 0.92542 0.61211 0.0
C432 C 0.23813 0.00386 0.64132 0.0
C433 C 0.26919 0.06348 0.63933 0.0
C434 C 0.24393 -0.00657 0.50956 0.0
C435 C 0.24479 -0.00082 0.57681 0.0
C436 C 0.2337 0.96147 0.47838 0.0
C437 C 0.21385 0.903 0.48069 0.0
C438 C 0.23376 0.96649 0.54317 0.0
C439 C 0.20433 0.87766 0.51468 0.0
C440 C 0.22605 0.9715 0.61012 0.0
C441 C 0.28681 0.0895 0.60562 0.0
N442 N 0.21426 0.90953 0.54461 0.0
N443 N 0.27435 0.05721 0.57568 0.0
loop_
_geom_bond_atom_site_label_1
_geom_bond_atom_site_label_2
_geom_bond_distance
_geom_bond_site_symmetry_2
_ccdc_geom_bond_type
Tb0 O3 2.453 1_554 S
Tb0 O4 2.596 1_554 S
Tb0 O5 2.374 . S
Tb0 O13 2.343 . S
Tb0 O15 2.353 1_554 S
Tb0 O17 2.427 . S
Tb0 O18 2.513 . S
C1 O5 1.251 . S
C1 O7 1.263 . S
Tb2 O4 2.343 . S
Tb2 O7 2.353 1_556 S
Tb2 O10 2.427 . S
Tb2 O11 2.513 . S
Tb2 O12 2.453 1_556 S
Tb2 O13 2.596 1_556 S
Tb2 O14 2.374 . S
O3 Tb0 2.453 1_556 S
O3 C19 1.245 . S
O4 Tb0 2.596 1_556 S
O4 Tb2 2.343 . S
O4 C19 1.259 . S
O5 Tb0 2.374 . S
O5 C1 1.251 . S
C6 O10 1.275 . S
C6 O11 1.246 . S
O7 C1 1.263 . S
O7 Tb2 2.353 1_554 S
C8 O12 1.245 . S
C8 O13 1.259 . S
C9 O14 1.250 . S
C9 O15 1.263 . S
O10 Tb2 2.427 . S
O10 C6 1.275 . S
O11 Tb2 2.513 . S
O11 C6 1.246 . S
O12 Tb2 2.453 1_554 S
O12 C8 1.245 . S
O13 Tb0 2.343 . S
O13 Tb2 2.596 1_554 S
O13 C8 1.259 . S
O14 Tb2 2.374 . S
O14 C9 1.250 . S
O15 Tb0 2.353 1_556 S
O15 C9 1.263 . S
C16 O17 1.275 . S
C16 O18 1.246 . S
O17 Tb0 2.427 . S
O17 C16 1.275 . S
O18 Tb0 2.513 . S
O18 C16 1.246 . S
C19 O3 1.245 . S
C19 O4 1.259 . S
Tb20 O23 2.453 . S
Tb20 O24 2.596 . S
Tb20 O25 2.374 . S
Tb20 O33 2.343 . S
Tb20 O35 2.353 . S
Tb20 O37 2.427 . S
Tb20 O38 2.513 . S
C21 O25 1.251 . S
C21 O27 1.263 . S
Tb22 O24 2.343 . S
Tb22 O27 2.353 . S
Tb22 O30 2.427 . S
Tb22 O31 2.513 . S
Tb22 O32 2.453 . S
Tb22 O33 2.596 . S
Tb22 O34 2.374 . S
O23 Tb20 2.453 . S
O23 C39 1.245 . S
O24 Tb20 2.596 . S
O24 Tb22 2.343 . S
O24 C39 1.259 . S
O25 Tb20 2.374 . S
O25 C21 1.251 . S
C26 O30 1.275 . S
C26 O31 1.246 . S
O27 C21 1.263 . S
O27 Tb22 2.353 . S
C28 O32 1.245 . S
C28 O33 1.259 . S
C29 O34 1.250 . S
C29 O35 1.263 . S
O30 Tb22 2.427 . S
O30 C26 1.275 . S
O31 Tb22 2.513 . S
O31 C26 1.246 . S
O32 Tb22 2.453 . S
O32 C28 1.245 . S
O33 Tb20 2.343 . S
O33 Tb22 2.596 . S
O33 C28 1.259 . S
O34 Tb22 2.374 . S
O34 C29 1.250 . S
O35 Tb20 2.353 . S
O35 C29 1.263 . S
C36 O37 1.275 . S
C36 O38 1.246 . S
O37 Tb20 2.427 . S
O37 C36 1.275 . S
O38 Tb20 2.513 . S
O38 C36 1.246 . S
C39 O23 1.245 . S
C39 O24 1.259 . S
Tb40 O43 2.453 . S
Tb40 O44 2.596 . S
Tb40 O45 2.374 . S
Tb40 O53 2.343 . S
Tb40 O55 2.353 . S
Tb40 O57 2.427 . S
Tb40 O58 2.513 . S
C41 O45 1.251 . S
C41 O47 1.263 . S
Tb42 O44 2.343 . S
Tb42 O47 2.353 . S
Tb42 O50 2.427 . S
Tb42 O51 2.513 . S
Tb42 O52 2.453 . S
Tb42 O53 2.596 . S
Tb42 O54 2.374 . S
O43 Tb40 2.453 . S
O43 C59 1.245 . S
O44 Tb40 2.596 . S
O44 Tb42 2.343 . S
O44 C59 1.259 . S
O45 Tb40 2.374 . S
O45 C41 1.251 . S
C46 O50 1.275 . S
C46 O51 1.246 . S
O47 C41 1.263 . S
O47 Tb42 2.353 . S
C48 O52 1.245 . S
C48 O53 1.259 . S
C49 O54 1.250 . S
C49 O55 1.263 . S
O50 Tb42 2.427 . S
O50 C46 1.275 . S
O51 Tb42 2.513 . S
O51 C46 1.246 . S
O52 Tb42 2.453 . S
O52 C48 1.245 . S
O53 Tb40 2.343 . S
O53 Tb42 2.596 . S
O53 C48 1.259 . S
O54 Tb42 2.374 . S
O54 C49 1.250 . S
O55 Tb40 2.353 . S
O55 C49 1.263 . S
C56 O57 1.275 . S
C56 O58 1.246 . S
O57 Tb40 2.427 . S
O57 C56 1.275 . S
O58 Tb40 2.513 . S
O58 C56 1.246 . S
C59 O43 1.245 . S
C59 O44 1.259 . S
Tb60 O63 2.453 1_554 S
Tb60 O64 2.596 1_554 S
Tb60 O65 2.374 . S
Tb60 O73 2.343 . S
Tb60 O75 2.353 1_554 S
Tb60 O77 2.427 . S
Tb60 O78 2.513 . S
C61 O65 1.251 . S
C61 O67 1.263 . S
Tb62 O64 2.343 . S
Tb62 O67 2.353 1_556 S
Tb62 O70 2.427 . S
Tb62 O71 2.513 . S
Tb62 O72 2.453 1_556 S
Tb62 O73 2.596 1_556 S
Tb62 O74 2.374 . S
O63 Tb60 2.453 1_556 S
O63 C79 1.245 . S
O64 Tb60 2.596 1_556 S
O64 Tb62 2.343 . S
O64 C79 1.259 . S
O65 Tb60 2.374 . S
O65 C61 1.251 . S
C66 O70 1.275 . S
C66 O71 1.246 . S
O67 C61 1.263 . S
O67 Tb62 2.353 1_554 S
C68 O72 1.245 . S
C68 O73 1.259 . S
C69 O74 1.250 . S
C69 O75 1.263 . S
O70 Tb62 2.427 . S
O70 C66 1.275 . S
O71 Tb62 2.513 . S
O71 C66 1.246 . S
O72 Tb62 2.453 1_554 S
O72 C68 1.245 . S
O73 Tb60 2.343 . S
O73 Tb62 2.596 1_554 S
O73 C68 1.259 . S
O74 Tb62 2.374 . S
O74 C69 1.250 . S
O75 Tb60 2.353 1_556 S
O75 C69 1.263 . S
C76 O77 1.275 . S
C76 O78 1.246 . S
O77 Tb60 2.427 . S
O77 C76 1.275 . S
O78 Tb60 2.513 . S
O78 C76 1.246 . S
C79 O63 1.245 . S
C79 O64 1.259 . S
Tb80 O83 2.453 . S
Tb80 O84 2.596 . S
Tb80 O85 2.374 . S
Tb80 O93 2.343 . S
Tb80 O95 2.353 . S
Tb80 O97 2.427 . S
Tb80 O98 2.513 . S
C81 O85 1.251 . S
C81 O87 1.263 . S
Tb82 O84 2.343 . S
Tb82 O87 2.353 . S
Tb82 O90 2.427 . S
Tb82 O91 2.513 . S
Tb82 O92 2.453 . S
Tb82 O93 2.596 . S
Tb82 O94 2.374 . S
O83 Tb80 2.453 . S
O83 C99 1.245 . S
O84 Tb80 2.596 . S
O84 Tb82 2.343 . S
O84 C99 1.259 . S
O85 Tb80 2.374 . S
O85 C81 1.251 . S
C86 O90 1.275 . S
C86 O91 1.246 . S
O87 C81 1.263 . S
O87 Tb82 2.353 . S
C88 O92 1.245 . S
C88 O93 1.259 . S
C89 O94 1.250 . S
C89 O95 1.263 . S
O90 Tb82 2.427 . S
O90 C86 1.275 . S
O91 Tb82 2.513 . S
O91 C86 1.246 . S
O92 Tb82 2.453 . S
O92 C88 1.245 . S
O93 Tb80 2.343 . S
O93 Tb82 2.596 . S
O93 C88 1.259 . S
O94 Tb82 2.374 . S
O94 C89 1.250 . S
O95 Tb80 2.353 . S
O95 C89 1.263 . S
C96 O97 1.275 . S
C96 O98 1.246 . S
O97 Tb80 2.427 . S
O97 C96 1.275 . S
O98 Tb80 2.513 . S
O98 C96 1.246 . S
C99 O83 1.245 . S
C99 O84 1.259 . S
Tb100 O103 2.453 . S
Tb100 O104 2.596 . S
Tb100 O105 2.374 . S
Tb100 O113 2.343 . S
Tb100 O115 2.353 . S
Tb100 O117 2.427 . S
Tb100 O118 2.513 . S
C101 O105 1.251 . S
C101 O107 1.263 . S
Tb102 O104 2.343 . S
Tb102 O107 2.353 . S
Tb102 O110 2.427 . S
Tb102 O111 2.513 . S
Tb102 O112 2.453 . S
Tb102 O113 2.596 . S
Tb102 O114 2.374 . S
O103 Tb100 2.453 . S
O103 C119 1.245 . S
O104 Tb100 2.596 . S
O104 Tb102 2.343 . S
O104 C119 1.259 . S
O105 Tb100 2.374 . S
O105 C101 1.251 . S
C106 O110 1.275 . S
C106 O111 1.246 . S
O107 C101 1.263 . S
O107 Tb102 2.353 . S
C108 O112 1.245 . S
C108 O113 1.259 . S
C109 O114 1.250 . S
C109 O115 1.263 . S
O110 Tb102 2.427 . S
O110 C106 1.275 . S
O111 Tb102 2.513 . S
O111 C106 1.246 . S
O112 Tb102 2.453 . S
O112 C108 1.245 . S
O113 Tb100 2.343 . S
O113 Tb102 2.596 . S
O113 C108 1.259 . S
O114 Tb102 2.374 . S
O114 C109 1.250 . S
O115 Tb100 2.353 . S
O115 C109 1.263 . S
C116 O117 1.275 . S
C116 O118 1.246 . S
O117 Tb100 2.427 . S
O117 C116 1.275 . S
O118 Tb100 2.513 . S
O118 C116 1.246 . S
C119 O103 1.245 . S
C119 O104 1.259 . S
H120 C126 0.930 . S
H121 C130 0.930 . S
H122 C135 0.929 . S
H123 C133 0.929 . S
H124 C128 0.929 . S
H125 C134 0.929 . S
C126 H120 0.930 . S
C126 C127 1.367 . S
C126 C134 1.378 . S
C127 C126 1.367 . S
C127 C135 1.433 . S
C128 H124 0.929 . S
C128 C130 1.378 . S
C128 C132 1.350 . S
C129 C132 1.463 . S
C129 C134 1.350 . S
C129 N137 1.427 . S
C130 H121 0.930 . S
C130 C128 1.378 . S
C130 C131 1.367 . S
C131 C130 1.367 . S
C131 C133 1.433 . S
C132 C128 1.350 . S
C132 C129 1.463 . S
C132 N136 1.427 . S
C133 H123 0.929 . S
C133 C131 1.433 . S
C133 N136 1.384 . S
C134 H125 0.929 . S
C134 C126 1.378 . S
C134 C129 1.350 . S
C135 H122 0.929 . S
C135 C127 1.433 . S
C135 N137 1.384 . S
N136 C132 1.427 . S
N136 C133 1.384 . S
N137 C129 1.427 . S
N137 C135 1.384 . S
H138 C144 0.930 . S
H139 C148 0.930 . S
H140 C153 0.929 . S
H141 C151 0.929 . S
H142 C146 0.929 . S
H143 C152 0.929 . S
C144 H138 0.930 . S
C144 C145 1.367 . S
C144 C152 1.378 . S
C145 C144 1.367 . S
C145 C153 1.433 . S
C146 H142 0.929 . S
C146 C148 1.378 . S
C146 C150 1.350 . S
C147 C150 1.463 . S
C147 C152 1.350 . S
C147 N155 1.427 . S
C148 H139 0.930 . S
C148 C146 1.378 . S
C148 C149 1.367 . S
C149 C148 1.367 . S
C149 C151 1.433 . S
C150 C146 1.350 . S
C150 C147 1.463 . S
C150 N154 1.427 . S
C151 H141 0.929 . S
C151 C149 1.433 . S
C151 N154 1.384 . S
C152 H143 0.929 . S
C152 C144 1.378 . S
C152 C147 1.350 . S
C153 H140 0.929 . S
C153 C145 1.433 . S
C153 N155 1.384 . S
N154 C150 1.427 . S
N154 C151 1.384 . S
N155 C147 1.427 . S
N155 C153 1.384 . S
H156 C162 0.930 . S
H157 C166 0.930 . S
H158 C171 0.929 . S
H159 C169 0.929 . S
H160 C164 0.929 . S
H161 C170 0.929 . S
C162 H156 0.930 . S
C162 C163 1.367 . S
C162 C170 1.378 . S
C163 C162 1.367 . S
C163 C171 1.433 . S
C164 H160 0.929 . S
C164 C166 1.378 . S
C164 C168 1.350 . S
C165 C168 1.463 . S
C165 C170 1.350 . S
C165 N173 1.427 . S
C166 H157 0.930 . S
C166 C164 1.378 . S
C166 C167 1.367 . S
C167 C166 1.367 . S
C167 C169 1.433 . S
C168 C164 1.350 . S
C168 C165 1.463 . S
C168 N172 1.427 . S
C169 H159 0.929 . S
C169 C167 1.433 . S
C169 N172 1.384 . S
C170 H161 0.929 . S
C170 C162 1.378 . S
C170 C165 1.350 . S
C171 H158 0.929 . S
C171 C163 1.433 . S
C171 N173 1.384 . S
N172 C168 1.427 . S
N172 C169 1.384 . S
N173 C165 1.427 . S
N173 C171 1.384 . S
H174 C180 0.930 . S
H175 C184 0.930 . S
H176 C189 0.929 . S
H177 C187 0.929 . S
H178 C182 0.929 . S
H179 C188 0.929 . S
C180 H174 0.930 . S
C180 C181 1.367 . S
C180 C188 1.378 . S
C181 C180 1.367 . S
C181 C189 1.433 . S
C182 H178 0.929 . S
C182 C184 1.378 . S
C182 C186 1.350 . S
C183 C186 1.463 . S
C183 C188 1.350 . S
C183 N191 1.427 . S
C184 H175 0.930 . S
C184 C182 1.378 . S
C184 C185 1.367 . S
C185 C184 1.367 . S
C185 C187 1.433 . S
C186 C182 1.350 . S
C186 C183 1.463 . S
C186 N190 1.427 . S
C187 H177 0.929 . S
C187 C185 1.433 . S
C187 N190 1.384 . S
C188 H179 0.929 . S
C188 C180 1.378 . S
C188 C183 1.350 . S
C189 H176 0.929 . S
C189 C181 1.433 . S
C189 N191 1.384 . S
N190 C186 1.427 . S
N190 C187 1.384 . S
N191 C183 1.427 . S
N191 C189 1.384 . S
H192 C198 0.930 . S
H193 C202 0.930 . S
H194 C207 0.929 . S
H195 C205 0.929 . S
H196 C200 0.929 . S
H197 C206 0.929 . S
C198 H192 0.930 . S
C198 C199 1.367 . S
C198 C206 1.378 . S
C199 C198 1.367 . S
C199 C207 1.433 . S
C200 H196 0.929 . S
C200 C202 1.378 . S
C200 C204 1.350 . S
C201 C204 1.463 . S
C201 C206 1.350 . S
C201 N209 1.427 . S
C202 H193 0.930 . S
C202 C200 1.378 . S
C202 C203 1.367 . S
C203 C202 1.367 . S
C203 C205 1.433 . S
C204 C200 1.350 . S
C204 C201 1.463 . S
C204 N208 1.427 . S
C205 H195 0.929 . S
C205 C203 1.433 . S
C205 N208 1.384 . S
C206 H197 0.929 . S
C206 C198 1.378 . S
C206 C201 1.350 . S
C207 H194 0.929 . S
C207 C199 1.433 . S
C207 N209 1.384 . S
N208 C204 1.427 . S
N208 C205 1.384 . S
N209 C201 1.427 . S
N209 C207 1.384 . S
H210 C216 0.930 . S
H211 C220 0.930 . S
H212 C225 0.929 . S
H213 C223 0.929 . S
H214 C218 0.929 . S
H215 C224 0.929 . S
C216 H210 0.930 . S
C216 C217 1.367 . S
C216 C224 1.378 . S
C217 C216 1.367 . S
C217 C225 1.433 . S
C218 H214 0.929 . S
C218 C220 1.378 . S
C218 C222 1.350 . S
C219 C222 1.463 . S
C219 C224 1.350 . S
C219 N227 1.427 . S
C220 H211 0.930 . S
C220 C218 1.378 . S
C220 C221 1.367 . S
C221 C220 1.367 . S
C221 C223 1.433 . S
C222 C218 1.350 . S
C222 C219 1.463 . S
C222 N226 1.427 . S
C223 H213 0.929 . S
C223 C221 1.433 . S
C223 N226 1.384 . S
C224 H215 0.929 . S
C224 C216 1.378 . S
C224 C219 1.350 . S
C225 H212 0.929 . S
C225 C217 1.433 . S
C225 N227 1.384 . S
N226 C222 1.427 . S
N226 C223 1.384 . S
N227 C219 1.427 . S
N227 C225 1.384 . S
H228 C234 0.930 . S
H229 C238 0.930 . S
H230 C243 0.929 . S
H231 C241 0.929 . S
H232 C236 0.929 . S
H233 C242 0.929 . S
C234 H228 0.930 . S
C234 C235 1.367 1_556 S
C234 C242 1.378 . S
C235 C234 1.367 1_554 S
C235 C243 1.433 . S
C236 H232 0.929 . S
C236 C238 1.378 . S
C236 C240 1.350 . S
C237 C240 1.463 . S
C237 C242 1.350 1_554 S
C237 N245 1.427 . S
C238 H229 0.930 . S
C238 C236 1.378 . S
C238 C239 1.367 . S
C239 C238 1.367 . S
C239 C241 1.433 1_554 S
C240 C236 1.350 . S
C240 C237 1.463 . S
C240 N244 1.427 1_554 S
C241 H231 0.929 . S
C241 C239 1.433 1_556 S
C241 N244 1.384 . S
C242 H233 0.929 . S
C242 C234 1.378 . S
C242 C237 1.350 1_556 S
C243 H230 0.929 . S
C243 C235 1.433 . S
C243 N245 1.384 . S
N244 C240 1.427 1_556 S
N244 C241 1.384 . S
N245 C237 1.427 . S
N245 C243 1.384 . S
H246 C252 0.930 . S
H247 C256 0.930 . S
H248 C261 0.929 . S
H249 C259 0.929 . S
H250 C254 0.929 . S
H251 C260 0.929 . S
C252 H246 0.930 . S
C252 C253 1.367 . S
C252 C260 1.378 1_455 S
C253 C252 1.367 . S
C253 C261 1.433 . S
C254 H250 0.929 . S
C254 C256 1.378 1_455 S
C254 C258 1.350 1_455 S
C255 C258 1.463 1_455 S
C255 C260 1.350 1_455 S
C255 N263 1.427 . S
C256 H247 0.930 . S
C256 C254 1.378 1_655 S
C256 C257 1.367 . S
C257 C256 1.367 . S
C257 C259 1.433 . S
C258 C254 1.350 1_655 S
C258 C255 1.463 1_655 S
C258 N262 1.427 . S
C259 H249 0.929 . S
C259 C257 1.433 . S
C259 N262 1.384 . S
C260 H251 0.929 . S
C260 C252 1.378 1_655 S
C260 C255 1.350 1_655 S
C261 H248 0.929 . S
C261 C253 1.433 . S
C261 N263 1.384 . S
N262 C258 1.427 . S
N262 C259 1.384 . S
N263 C255 1.427 . S
N263 C261 1.384 . S
H264 C270 0.930 . S
H265 C274 0.930 . S
H266 C279 0.929 . S
H267 C277 0.929 . S
H268 C272 0.929 1_545 S
H269 C278 0.929 1_565 S
C270 H264 0.930 . S
C270 C271 1.367 . S
C270 C278 1.378 . S
C271 C270 1.367 . S
C271 C279 1.433 . S
C272 H268 0.929 1_565 S
C272 C274 1.378 . S
C272 C276 1.350 . S
C273 C276 1.463 1_545 S
C273 C278 1.350 . S
C273 N281 1.427 . S
C274 H265 0.930 . S
C274 C272 1.378 . S
C274 C275 1.367 . S
C275 C274 1.367 . S
C275 C277 1.433 . S
C276 C272 1.350 . S
C276 C273 1.463 1_565 S
C276 N280 1.427 . S
C277 H267 0.929 . S
C277 C275 1.433 . S
C277 N280 1.384 . S
C278 H269 0.929 1_545 S
C278 C270 1.378 . S
C278 C273 1.350 . S
C279 H266 0.929 . S
C279 C271 1.433 . S
C279 N281 1.384 . S
N280 C276 1.427 . S
N280 C277 1.384 . S
N281 C273 1.427 . S
N281 C279 1.384 . S
H282 C288 0.930 . S
H283 C292 0.930 . S
H284 C297 0.929 . S
H285 C295 0.929 . S
H286 C290 0.929 . S
H287 C296 0.929 . S
C288 H282 0.930 . S
C288 C289 1.367 . S
C288 C296 1.378 . S
C289 C288 1.367 . S
C289 C297 1.433 . S
C290 H286 0.929 . S
C290 C292 1.378 . S
C290 C294 1.350 . S
C291 C294 1.463 . S
C291 C296 1.350 . S
C291 N299 1.427 . S
C292 H283 0.930 . S
C292 C290 1.378 . S
C292 C293 1.367 . S
C293 C292 1.367 . S
C293 C295 1.433 . S
C294 C290 1.350 . S
C294 C291 1.463 . S
C294 N298 1.427 . S
C295 H285 0.929 . S
C295 C293 1.433 . S
C295 N298 1.384 . S
C296 H287 0.929 . S
C296 C288 1.378 . S
C296 C291 1.350 . S
C297 H284 0.929 . S
C297 C289 1.433 . S
C297 N299 1.384 . S
N298 C294 1.427 . S
N298 C295 1.384 . S
N299 C291 1.427 . S
N299 C297 1.384 . S
H300 C306 0.932 . S
H301 C310 0.930 . S
H302 C315 0.929 . S
H303 C313 0.930 . S
H304 C308 0.929 . S
H305 C314 0.930 . S
C306 H300 0.932 . S
C306 C307 1.367 . S
C306 C314 1.378 . S
C307 C306 1.367 . S
C307 C315 1.433 . S
C308 H304 0.929 . S
C308 C310 1.378 . S
C308 C312 1.350 . S
C309 C312 1.463 1_455 S
C309 C314 1.350 . S
C309 N317 1.427 1_455 S
C310 H301 0.930 . S
C310 C308 1.378 . S
C310 C311 1.367 . S
C311 C310 1.367 . S
C311 C313 1.433 . S
C312 C308 1.350 . S
C312 C309 1.463 1_655 S
C312 N316 1.427 1_655 S
C313 H303 0.930 . S
C313 C311 1.433 . S
C313 N316 1.384 1_655 S
C314 H305 0.930 . S
C314 C306 1.378 . S
C314 C309 1.350 . S
C315 H302 0.929 . S
C315 C307 1.433 . S
C315 N317 1.384 1_455 S
N316 C312 1.427 1_455 S
N316 C313 1.384 1_455 S
N317 C309 1.427 1_655 S
N317 C315 1.384 1_655 S
H318 C324 0.930 . S
H319 C328 0.930 . S
H320 C333 0.929 . S
H321 C331 0.929 . S
H322 C326 0.929 . S
H323 C332 0.929 . S
C324 H318 0.930 . S
C324 C325 1.367 . S
C324 C332 1.378 . S
C325 C324 1.367 . S
C325 C333 1.433 . S
C326 H322 0.929 . S
C326 C328 1.378 . S
C326 C330 1.350 . S
C327 C330 1.463 1_565 S
C327 C332 1.350 . S
C327 N335 1.427 . S
C328 H319 0.930 . S
C328 C326 1.378 . S
C328 C329 1.367 . S
C329 C328 1.367 . S
C329 C331 1.433 . S
C330 C326 1.350 . S
C330 C327 1.463 1_545 S
C330 N334 1.427 . S
C331 H321 0.929 . S
C331 C329 1.433 . S
C331 N334 1.384 . S
C332 H323 0.929 . S
C332 C324 1.378 . S
C332 C327 1.350 . S
C333 H320 0.929 . S
C333 C325 1.433 . S
C333 N335 1.384 . S
N334 C330 1.427 . S
N334 C331 1.384 . S
N335 C327 1.427 . S
N335 C333 1.384 . S
H336 C342 0.930 . S
H337 C346 0.930 . S
H338 C351 0.929 . S
H339 C349 0.929 . S
H340 C344 0.929 . S
H341 C350 0.929 . S
C342 H336 0.930 . S
C342 C343 1.367 . S
C342 C350 1.378 . S
C343 C342 1.367 . S
C343 C351 1.433 . S
C344 H340 0.929 . S
C344 C346 1.378 . S
C344 C348 1.350 . S
C345 C348 1.463 . S
C345 C350 1.350 . S
C345 N353 1.427 . S
C346 H337 0.930 . S
C346 C344 1.378 . S
C346 C347 1.367 . S
C347 C346 1.367 . S
C347 C349 1.433 . S
C348 C344 1.350 . S
C348 C345 1.463 . S
C348 N352 1.427 . S
C349 H339 0.929 . S
C349 C347 1.433 . S
C349 N352 1.384 . S
C350 H341 0.929 . S
C350 C342 1.378 . S
C350 C345 1.350 . S
C351 H338 0.929 . S
C351 C343 1.433 . S
C351 N353 1.384 . S
N352 C348 1.427 . S
N352 C349 1.384 . S
N353 C345 1.427 . S
N353 C351 1.384 . S
H354 C360 0.930 . S
H355 C364 0.930 . S
H356 C369 0.929 . S
H357 C367 0.929 . S
H358 C362 0.929 1_655 S
H359 C368 0.929 . S
C360 H354 0.930 . S
C360 C361 1.367 . S
C360 C368 1.378 . S
C361 C360 1.367 . S
C361 C369 1.433 . S
C362 H358 0.929 1_455 S
C362 C364 1.378 . S
C362 C366 1.350 . S
C363 C366 1.463 1_655 S
C363 C368 1.350 . S
C363 N371 1.427 . S
C364 H355 0.930 . S
C364 C362 1.378 . S
C364 C365 1.367 . S
C365 C364 1.367 . S
C365 C367 1.433 . S
C366 C362 1.350 . S
C366 C363 1.463 1_455 S
C366 N370 1.427 . S
C367 H357 0.929 . S
C367 C365 1.433 . S
C367 N370 1.384 . S
C368 H359 0.929 . S
C368 C360 1.378 . S
C368 C363 1.350 . S
C369 H356 0.929 . S
C369 C361 1.433 . S
C369 N371 1.384 . S
N370 C366 1.427 . S
N370 C367 1.384 . S
N371 C363 1.427 . S
N371 C369 1.384 . S
H372 C378 0.930 . S
H373 C382 0.930 . S
H374 C387 0.929 . S
H375 C385 0.929 . S
H376 C380 0.929 . S
H377 C386 0.929 1_545 S
C378 H372 0.930 . S
C378 C379 1.367 . S
C378 C386 1.378 . S
C379 C378 1.367 . S
C379 C387 1.433 . S
C380 H376 0.929 . S
C380 C382 1.378 1_565 S
C380 C384 1.350 1_565 S
C381 C384 1.463 1_565 S
C381 C386 1.350 . S
C381 N389 1.427 . S
C382 H373 0.930 . S
C382 C380 1.378 1_545 S
C382 C383 1.367 . S
C383 C382 1.367 . S
C383 C385 1.433 . S
C384 C380 1.350 1_545 S
C384 C381 1.463 1_545 S
C384 N388 1.427 . S
C385 H375 0.929 . S
C385 C383 1.433 . S
C385 N388 1.384 . S
C386 H377 0.929 1_565 S
C386 C378 1.378 . S
C386 C381 1.350 . S
C387 H374 0.929 . S
C387 C379 1.433 . S
C387 N389 1.384 . S
N388 C384 1.427 . S
N388 C385 1.384 . S
N389 C381 1.427 . S
N389 C387 1.384 . S
H390 C396 0.930 . S
H391 C400 0.930 . S
H392 C405 0.929 . S
H393 C403 0.929 . S
H394 C398 0.929 . S
H395 C404 0.929 . S
C396 H390 0.930 . S
C396 C397 1.367 . S
C396 C404 1.378 . S
C397 C396 1.367 . S
C397 C405 1.433 . S
C398 H394 0.929 . S
C398 C400 1.378 . S
C398 C402 1.350 . S
C399 C402 1.463 . S
C399 C404 1.350 . S
C399 N407 1.427 . S
C400 H391 0.930 . S
C400 C398 1.378 . S
C400 C401 1.367 . S
C401 C400 1.367 . S
C401 C403 1.433 . S
C402 C398 1.350 . S
C402 C399 1.463 . S
C402 N406 1.427 . S
C403 H393 0.929 . S
C403 C401 1.433 . S
C403 N406 1.384 . S
C404 H395 0.929 . S
C404 C396 1.378 . S
C404 C399 1.350 . S
C405 H392 0.929 . S
C405 C397 1.433 . S
C405 N407 1.384 . S
N406 C402 1.427 . S
N406 C403 1.384 . S
N407 C399 1.427 . S
N407 C405 1.384 . S
H408 C414 0.930 . S
H409 C418 0.930 . S
H410 C423 0.929 . S
H411 C421 0.929 . S
H412 C416 0.929 . S
H413 C422 0.929 . S
C414 H408 0.930 . S
C414 C415 1.367 . S
C414 C422 1.378 . S
C415 C414 1.367 . S
C415 C423 1.433 . S
C416 H412 0.929 . S
C416 C418 1.378 . S
C416 C420 1.350 . S
C417 C420 1.463 1_455 S
C417 C422 1.350 . S
C417 N425 1.427 . S
C418 H409 0.930 . S
C418 C416 1.378 . S
C418 C419 1.367 . S
C419 C418 1.367 . S
C419 C421 1.433 . S
C420 C416 1.350 . S
C420 C417 1.463 1_655 S
C420 N424 1.427 1_655 S
C421 H411 0.929 . S
C421 C419 1.433 . S
C421 N424 1.384 1_655 S
C422 H413 0.929 . S
C422 C414 1.378 . S
C422 C417 1.350 . S
C423 H410 0.929 . S
C423 C415 1.433 . S
C423 N425 1.384 . S
N424 C420 1.427 1_455 S
N424 C421 1.384 1_455 S
N425 C417 1.427 . S
N425 C423 1.384 . S
H426 C432 0.930 . S
H427 C436 0.930 . S
H428 C441 0.929 . S
H429 C439 0.929 . S
H430 C434 0.929 1_545 S
H431 C440 0.929 1_565 S
C432 H426 0.930 . S
C432 C433 1.367 . S
C432 C440 1.378 . S
C433 C432 1.367 . S
C433 C441 1.433 . S
C434 H430 0.929 1_565 S
C434 C436 1.378 . S
C434 C438 1.350 . S
C435 C438 1.463 1_545 S
C435 C440 1.350 . S
C435 N443 1.427 . S
C436 H427 0.930 . S
C436 C434 1.378 . S
C436 C437 1.367 . S
C437 C436 1.367 . S
C437 C439 1.433 . S
C438 C434 1.350 . S
C438 C435 1.463 1_565 S
C438 N442 1.427 . S
C439 H429 0.929 . S
C439 C437 1.433 . S
C439 N442 1.384 . S
C440 H431 0.929 1_545 S
C440 C432 1.378 . S
C440 C435 1.350 . S
C441 H428 0.929 . S
C441 C433 1.433 . S
C441 N443 1.384 . S
N442 C438 1.427 . S
N442 C439 1.384 . S
N443 C435 1.427 . S
N443 C441 1.384 . S
C127 C86 1.367 . S
C131 C8 1.330 . S
C145 C106 1.376 . S
C149 C28 1.332 . S
C163 C6 1.378 . S
C167 C48 1.328 . S
C181 C26 1.371 . S
C185 C68 1.314 . S
C199 C46 1.367 . S
C203 C88 1.329 . S
C217 C66 1.367 . S
C221 C108 1.317 . S
C235 C1 0.821 . S
C239 C61 0.816 . S
C253 C81 0.826 . S
C257 C21 0.830 . S
C271 C101 0.823 . S
C275 C41 0.828 . S
C289 C49 0.835 . S
C293 C109 0.839 . S
C307 C9 0.824 . S
C311 C69 0.824 . S
C325 C89 0.832 . S
C329 C29 0.837 . S
C343 C116 1.536 . S
C347 C19 1.516 . S
C361 C39 1.524 . S
C365 C16 1.539 . S
C379 C59 1.516 . S
C383 C36 1.536 . S
C397 C56 1.536 . S
C401 C79 1.514 . S
C415 C99 1.519 . S
C419 C76 1.544 . S
C433 C119 1.514 . S
C437 C96 1.536 . S
