# Generated by pormake.
# Topology uou, (4)-cn, num edge types: 1
# Building blocks:
#     Node 0, Type 0, BuildingBlock: AZAVOO_clean_sbu_0, # of connection points: 4
#     Node 1, Type 0, BuildingBlock: AZAVOO_clean_sbu_0, # of connection points: 4
#     Node 2, Type 0, BuildingBlock: AZAVOO_clean_sbu_0, # of connection points: 4
#     Node 3, Type 0, BuildingBlock: AZAVOO_clean_sbu_0, # of connection points: 4
#     Node 4, Type 0, BuildingBlock: AZAVOO_clean_sbu_0, # of connection points: 4
#     Node 5, Type 0, BuildingBlock: AZAVOO_clean_sbu_0, # of connection points: 4
#     Node 6, Type 0, BuildingBlock: AZAVOO_clean_sbu_0, # of connection points: 4
#     Node 7, Type 0, BuildingBlock: AZAVOO_clean_sbu_0, # of connection points: 4
#     Node 8, Type 0, BuildingBlock: AZAVOO_clean_sbu_0, # of connection points: 4
#     Node 9, Type 0, BuildingBlock: AZAVOO_clean_sbu_0, # of connection points: 4
#     Node 10, Type 0, BuildingBlock: AZAVOO_clean_sbu_0, # of connection points: 4
#     Node 11, Type 0, BuildingBlock: AZAVOO_clean_sbu_0, # of connection points: 4
#     Node 12, Type 0, BuildingBlock: AZAVOO_clean_sbu_0, # of connection points: 4
#     Node 13, Type 0, BuildingBlock: AZAVOO_clean_sbu_0, # of connection points: 4
#     Node 14, Type 0, BuildingBlock: AZAVOO_clean_sbu_0, # of connection points: 4
#     Node 15, Type 0, BuildingBlock: AZAVOO_clean_sbu_0, # of connection points: 4
#     Edge 16, Type (0, 0), BuildingBlock: TEMPAE_clean_linker_10, # of connection points: 2
#     Edge 17, Type (0, 0), BuildingBlock: TEMPAE_clean_linker_10, # of connection points: 2
#     Edge 18, Type (0, 0), BuildingBlock: TEMPAE_clean_linker_10, # of connection points: 2
#     Edge 19, Type (0, 0), BuildingBlock: TEMPAE_clean_linker_10, # of connection points: 2
#     Edge 20, Type (0, 0), BuildingBlock: TEMPAE_clean_linker_10, # of connection points: 2
#     Edge 21, Type (0, 0), BuildingBlock: TEMPAE_clean_linker_10, # of connection points: 2
#     Edge 22, Type (0, 0), BuildingBlock: TEMPAE_clean_linker_10, # of connection points: 2
#     Edge 23, Type (0, 0), BuildingBlock: TEMPAE_clean_linker_10, # of connection points: 2
#     Edge 24, Type (0, 0), BuildingBlock: TEMPAE_clean_linker_10, # of connection points: 2
#     Edge 25, Type (0, 0), BuildingBlock: TEMPAE_clean_linker_10, # of connection points: 2
#     Edge 26, Type (0, 0), BuildingBlock: TEMPAE_clean_linker_10, # of connection points: 2
#     Edge 27, Type (0, 0), BuildingBlock: TEMPAE_clean_linker_10, # of connection points: 2
#     Edge 28, Type (0, 0), BuildingBlock: TEMPAE_clean_linker_10, # of connection points: 2
#     Edge 29, Type (0, 0), BuildingBlock: TEMPAE_clean_linker_10, # of connection points: 2
#     Edge 30, Type (0, 0), BuildingBlock: TEMPAE_clean_linker_10, # of connection points: 2
#     Edge 31, Type (0, 0), BuildingBlock: TEMPAE_clean_linker_10, # of connection points: 2
#     Edge 32, Type (0, 0), BuildingBlock: TEMPAE_clean_linker_10, # of connection points: 2
#     Edge 33, Type (0, 0), BuildingBlock: TEMPAE_clean_linker_10, # of connection points: 2
#     Edge 34, Type (0, 0), BuildingBlock: TEMPAE_clean_linker_10, # of connection points: 2
#     Edge 35, Type (0, 0), BuildingBlock: TEMPAE_clean_linker_10, # of connection points: 2
#     Edge 36, Type (0, 0), BuildingBlock: TEMPAE_clean_linker_10, # of connection points: 2
#     Edge 37, Type (0, 0), BuildingBlock: TEMPAE_clean_linker_10, # of connection points: 2
#     Edge 38, Type (0, 0), BuildingBlock: TEMPAE_clean_linker_10, # of connection points: 2
#     Edge 39, Type (0, 0), BuildingBlock: TEMPAE_clean_linker_10, # of connection points: 2
#     Edge 40, Type (0, 0), BuildingBlock: TEMPAE_clean_linker_10, # of connection points: 2
#     Edge 41, Type (0, 0), BuildingBlock: TEMPAE_clean_linker_10, # of connection points: 2
#     Edge 42, Type (0, 0), BuildingBlock: TEMPAE_clean_linker_10, # of connection points: 2
#     Edge 43, Type (0, 0), BuildingBlock: TEMPAE_clean_linker_10, # of connection points: 2
#     Edge 44, Type (0, 0), BuildingBlock: TEMPAE_clean_linker_10, # of connection points: 2
#     Edge 45, Type (0, 0), BuildingBlock: TEMPAE_clean_linker_10, # of connection points: 2
#     Edge 46, Type (0, 0), BuildingBlock: TEMPAE_clean_linker_10, # of connection points: 2
#     Edge 47, Type (0, 0), BuildingBlock: TEMPAE_clean_linker_10, # of connection points: 2
# Relax obj value: 0.174
# Max RMSD: 0.206
# Mean RMSD: 0.189
data_MOF--net-uou--node1-AZAVOO_clean_sbu_0--edge1-TEMPAE_clean_linker_10
_symmetry_space_group_name_H-M    P1
_symmetry_Int_Tables_number       1
_symmetry_cell_setting            triclinic
loop_
_symmetry_equiv_pos_as_xyz
'x, y, z'
_cell_length_a     39.360351
_cell_length_b     37.575367
_cell_length_c     52.973823
_cell_angle_alpha  90.038734
_cell_angle_beta   90.096438
_cell_angle_gamma 90.04374
loop_
_atom_site_label
_atom_site_type_symbol
_atom_site_fract_x
_atom_site_fract_y
_atom_site_fract_z
_atom_type_partial_charge
Mg0 Mg 0.08428 0.03523 0.15327 0.0
O1 O 0.04712 0.01278 0.18193 0.0
O2 O 0.06043 0.95615 0.19015 0.0
Mg3 Mg 0.10612 0.94228 0.16514 0.0
C4 C 0.04193 0.98362 0.19361 0.0
C5 C 0.06397 0.11145 0.13912 0.0
O6 O 0.0966 0.11139 0.13391 0.0
O7 O 0.05815 0.005 0.12187 0.0
O8 O 0.0743 0.94879 0.1287 0.0
O9 O 0.11986 0.05071 0.18413 0.0
O10 O 0.12057 0.99896 0.16424 0.0
C11 C 0.05865 0.97221 0.11558 0.0
C12 C 0.13303 0.01933 0.18148 0.0
O13 O 0.05041 0.08321 0.1476 0.0
Mg14 Mg 0.41541 0.96509 0.14453 0.0
O15 O 0.45221 0.98496 0.17448 0.0
O16 O 0.44094 0.04193 0.18314 0.0
Mg17 Mg 0.39798 0.05892 0.15641 0.0
C18 C 0.45789 0.01344 0.18689 0.0
C19 C 0.43272 0.88738 0.13163 0.0
O20 O 0.39983 0.88788 0.12736 0.0
O21 O 0.44437 0.99398 0.11414 0.0
O22 O 0.43169 0.05111 0.12099 0.0
O23 O 0.37885 0.95116 0.1747 0.0
O24 O 0.38035 0.00315 0.15501 0.0
C25 C 0.44647 0.02678 0.10817 0.0
C26 C 0.3673 0.98326 0.17229 0.0
O27 O 0.44727 0.91563 0.13918 0.0
Mg28 Mg 0.60195 0.87317 0.37456 0.0
O29 O 0.58099 0.91631 0.34831 0.0
O30 O 0.61616 0.96303 0.34924 0.0
Mg31 Mg 0.65617 0.95176 0.37946 0.0
C32 C 0.5899 0.94716 0.34063 0.0
C33 C 0.54664 0.81805 0.38637 0.0
O34 O 0.56562 0.81665 0.40678 0.0
O35 O 0.58032 0.90291 0.40866 0.0
O36 O 0.61427 0.95061 0.40931 0.0
O37 O 0.63486 0.85619 0.34226 0.0
O38 O 0.64999 0.89484 0.37183 0.0
C39 C 0.58931 0.93281 0.41809 0.0
C40 C 0.65623 0.87964 0.35058 0.0
O41 O 0.55388 0.8407 0.36943 0.0
Mg42 Mg 0.84024 0.09629 0.3602 0.0
O43 O 0.87443 0.05809 0.33817 0.0
O44 O 0.8526 0.00314 0.34045 0.0
Mg45 Mg 0.80811 0.0059 0.36795 0.0
C46 C 0.87468 0.02514 0.33221 0.0
C47 C 0.88141 0.16151 0.37545 0.0
O48 O 0.86089 0.15697 0.39473 0.0
O49 O 0.86417 0.07735 0.39693 0.0
O50 O 0.84444 0.02178 0.40001 0.0
O51 O 0.80766 0.10036 0.32552 0.0
O52 O 0.80047 0.06141 0.35654 0.0
C53 C 0.86247 0.04751 0.40837 0.0
C54 C 0.79229 0.07263 0.33444 0.0
O55 O 0.87948 0.14014 0.35691 0.0
Mg56 Mg 0.94589 0.92658 0.89699 0.0
O57 O 0.95031 0.86557 0.89526 0.0
O58 O 0.92036 0.8436 0.92739 0.0
Mg59 Mg 0.89867 0.89021 0.9503 0.0
C60 C 0.93943 0.83922 0.90816 0.0
C61 C 0.95387 0.95743 0.84386 0.0
O62 O 0.93481 0.9813 0.85515 0.0
O63 O 0.8907 0.92752 0.88387 0.0
O64 O 0.8633 0.91018 0.91858 0.0
O65 O 0.99222 0.92834 0.92135 0.0
O66 O 0.93985 0.92459 0.93596 0.0
C67 C 0.8632 0.92239 0.89606 0.0
C68 C 0.97196 0.92541 0.9405 0.0
O69 O 0.96393 0.93059 0.85639 0.0
Mg70 Mg 0.57319 0.06461 0.89324 0.0
O71 O 0.57049 0.12564 0.89214 0.0
O72 O 0.59936 0.1467 0.92517 0.0
Mg73 Mg 0.6194 0.09904 0.94785 0.0
C74 C 0.58118 0.15163 0.9055 0.0
C75 C 0.52866 0.04682 0.84608 0.0
O76 O 0.51058 0.03096 0.86361 0.0
O77 O 0.62876 0.06214 0.88116 0.0
O78 O 0.65521 0.079 0.91649 0.0
O79 O 0.5261 0.0643 0.91657 0.0
O80 O 0.57799 0.06567 0.93246 0.0
C81 C 0.65592 0.0669 0.89393 0.0
C82 C 0.54569 0.06626 0.9362 0.0
O83 O 0.55575 0.06297 0.85237 0.0
Mg84 Mg 0.43631 0.04983 0.60932 0.0
O85 O 0.45075 0.10878 0.60382 0.0
O86 O 0.43255 0.12514 0.56569 0.0
Mg87 Mg 0.40886 0.0764 0.54627 0.0
C88 C 0.4473 0.13224 0.58658 0.0
C89 C 0.46401 0.03159 0.66201 0.0
O90 O 0.47558 0.00507 0.64831 0.0
O91 O 0.37993 0.06183 0.61405 0.0
O92 O 0.36417 0.07349 0.57434 0.0
O93 O 0.48579 0.03292 0.5929 0.0
O94 O 0.43891 0.04047 0.5706 0.0
C95 C 0.35703 0.06847 0.59761 0.0
C96 C 0.47071 0.03249 0.57115 0.0
O97 O 0.44609 0.05539 0.6514 0.0
Mg98 Mg 0.03407 0.00365 0.60699 0.0
O99 O 0.02683 0.94312 0.6028 0.0
O100 O 0.04563 0.92686 0.56484 0.0
Mg101 Mg 0.06399 0.97721 0.54452 0.0
C102 C 0.03219 0.9193 0.58609 0.0
C103 C -0.00022 0.98204 0.65741 0.0
O104 O 0.97774 0.96925 0.6411 0.0
O105 O 0.09144 0.9992 0.61168 0.0
O106 O 0.10825 0.98611 0.57248 0.0
O107 O 0.98263 0.01214 0.5906 0.0
O108 O 0.02974 0.01011 0.56802 0.0
C109 C 0.11486 0.99358 0.59553 0.0
C110 C -0.00289 0.01265 0.56866 0.0
O111 O 0.02595 0.99818 0.64927 0.0
Mg112 Mg 0.63908 0.62185 0.11833 0.0
O113 O 0.61326 0.57773 0.14108 0.0
O114 O 0.64611 0.52915 0.14044 0.0
Mg115 Mg 0.68897 0.54052 0.11251 0.0
C116 C 0.61984 0.54593 0.14802 0.0
C117 C 0.584 0.67606 0.10344 0.0
O118 O 0.60209 0.67459 0.08264 0.0
O119 O 0.61949 0.59663 0.08198 0.0
O120 O 0.64985 0.54646 0.08053 0.0
O121 O 0.66932 0.63391 0.15308 0.0
O122 O 0.68531 0.59703 0.12263 0.0
C123 C 0.62709 0.56707 0.0715 0.0
C124 C 0.69019 0.60999 0.14483 0.0
O125 O 0.59213 0.65623 0.12188 0.0
Mg126 Mg 0.87518 0.39495 0.13332 0.0
O127 O 0.90669 0.431 0.15911 0.0
O128 O 0.88487 0.48592 0.15851 0.0
Mg129 Mg 0.84276 0.48561 0.12881 0.0
C130 C 0.90628 0.46322 0.16677 0.0
C131 C 0.91868 0.33022 0.11875 0.0
O132 O 0.90079 0.33512 0.09808 0.0
O133 O 0.9022 0.4177 0.09882 0.0
O134 O 0.88146 0.473 0.09777 0.0
O135 O 0.83933 0.38702 0.16577 0.0
O136 O 0.83452 0.42893 0.1365 0.0
C137 C 0.90062 0.44862 0.08888 0.0
C138 C 0.8243 0.41529 0.15739 0.0
O139 O 0.91443 0.35125 0.13725 0.0
Mg140 Mg 0.08448 0.4343 0.36324 0.0
O141 O 0.05469 0.46069 0.33153 0.0
O142 O 0.078 0.51326 0.32223 0.0
Mg143 Mg 0.122 0.52123 0.35013 0.0
C144 C 0.05569 0.48915 0.31845 0.0
C145 C 0.05145 0.36219 0.37421 0.0
O146 O 0.08356 0.35593 0.37937 0.0
O147 O 0.06007 0.47091 0.39191 0.0
O148 O 0.08493 0.5232 0.3839 0.0
O149 O 0.11949 0.41098 0.33479 0.0
O150 O 0.12724 0.46301 0.35365 0.0
C151 C 0.06454 0.50388 0.39675 0.0
C152 C 0.13704 0.43996 0.33719 0.0
O153 O 0.04277 0.39323 0.36729 0.0
Mg154 Mg 0.41185 0.51749 0.32792 0.0
O155 O 0.45231 0.50325 0.2991 0.0
O156 O 0.45196 0.44448 0.29275 0.0
Mg157 Mg 0.41061 0.42127 0.31854 0.0
C158 C 0.46376 0.47548 0.28821 0.0
C159 C 0.41712 0.59703 0.3423 0.0
O160 O 0.38551 0.59026 0.34863 0.0
O161 O 0.44441 0.49582 0.35947 0.0
O162 O 0.44029 0.43688 0.35469 0.0
O163 O 0.37284 0.52253 0.29765 0.0
O164 O 0.38393 0.47293 0.31842 0.0
C165 C 0.4508 0.46421 0.36685 0.0
C166 C 0.36651 0.48908 0.30133 0.0
O167 O 0.43492 0.57236 0.33262 0.0
Mg168 Mg 0.46046 0.47478 0.87886 0.0
O169 O 0.473 0.41572 0.88535 0.0
O170 O 0.45598 0.40101 0.92408 0.0
Mg171 Mg 0.43447 0.45127 0.94281 0.0
C172 C 0.46968 0.39291 0.90302 0.0
C173 C 0.45084 0.48295 0.82042 0.0
O174 O 0.42808 0.5062 0.82795 0.0
O175 O 0.40352 0.46472 0.87545 0.0
O176 O 0.38879 0.45441 0.9155 0.0
O177 O 0.51135 0.48975 0.89395 0.0
O178 O 0.46518 0.48521 0.9174 0.0
C179 C 0.381 0.45906 0.89229 0.0
C180 C 0.49738 0.49109 0.91606 0.0
O181 O 0.46805 0.4661 0.83681 0.0
Mg182 Mg 0.05718 0.51489 0.88684 0.0
O183 O 0.04715 0.57474 0.89195 0.0
O184 O 0.06756 0.59189 0.92926 0.0
Mg185 Mg 0.09016 0.54241 0.94838 0.0
C186 C 0.0523 0.59876 0.90855 0.0
C187 C 0.01614 0.53531 0.83943 0.0
O188 O 0.99576 0.5455 0.85767 0.0
O189 O 0.11392 0.52287 0.87987 0.0
O190 O 0.13251 0.53644 0.91862 0.0
O191 O 0.00784 0.50273 0.90545 0.0
O192 O 0.05659 0.50729 0.9259 0.0
C193 C 0.13803 0.52967 0.89532 0.0
C194 C 0.02422 0.50242 0.92667 0.0
O195 O 0.04439 0.52099 0.84514 0.0
Mg196 Mg 0.93499 0.58743 0.60321 0.0
O197 O 0.93956 0.6485 0.60239 0.0
O198 O 0.91253 0.66753 0.56792 0.0
Mg199 Mg 0.89299 0.61896 0.54595 0.0
C200 C 0.9298 0.67364 0.58789 0.0
C201 C 0.9426 0.56011 0.65771 0.0
O202 O 0.92518 0.53425 0.64709 0.0
O203 O 0.87869 0.5878 0.61365 0.0
O204 O 0.85494 0.6022 0.57675 0.0
O205 O 0.98323 0.58307 0.5814 0.0
O206 O 0.93234 0.58569 0.56393 0.0
C207 C 0.8525 0.5921 0.59972 0.0
C208 C 0.96477 0.584 0.56114 0.0
O209 O 0.9507 0.58699 0.64449 0.0
Mg210 Mg 0.55908 0.45783 0.58963 0.0
O211 O 0.55476 0.39699 0.59385 0.0
O212 O 0.58623 0.37222 0.56362 0.0
Mg213 Mg 0.60981 0.41689 0.53983 0.0
C214 C 0.5661 0.36954 0.5824 0.0
C215 C 0.51127 0.44972 0.63707 0.0
O216 O 0.49437 0.42864 0.62173 0.0
O217 O 0.61332 0.4603 0.60483 0.0
O218 O 0.64289 0.43918 0.5722 0.0
O219 O 0.51448 0.4567 0.56356 0.0
O220 O 0.56781 0.4524 0.55105 0.0
C221 C 0.64159 0.45355 0.59407 0.0
C222 C 0.53602 0.45216 0.54536 0.0
O223 O 0.53798 0.46512 0.62921 0.0
C224 C 0.31689 0.02208 0.17626 0.0
C225 C 0.33719 0.99511 0.18643 0.0
C226 C 0.28363 0.02712 0.18473 0.0
C227 C 0.27096 0.00547 0.20451 0.0
C228 C 0.29319 0.98212 0.2174 0.0
C229 C 0.32598 0.97651 0.20779 0.0
C230 C 0.26101 0.05264 0.17043 0.0
C231 C 0.28173 0.96083 0.23996 0.0
C232 C 0.17976 0.03205 0.21237 0.0
C233 C 0.1647 0.00927 0.19458 0.0
C234 C 0.21407 0.02792 0.21908 0.0
C235 C 0.23363 0.00145 0.20688 0.0
C236 C 0.21729 0.97566 0.19157 0.0
C237 C 0.1828 0.9796 0.18597 0.0
C238 C 0.22986 0.05387 0.23739 0.0
C239 C 0.23692 0.94645 0.17847 0.0
H240 H 0.32574 0.03698 0.16003 0.0
H241 H 0.34207 0.95634 0.21623 0.0
H242 H 0.24052 0.03764 0.16068 0.0
H243 H 0.24879 0.07157 0.18363 0.0
H244 H 0.2752 0.06821 0.15607 0.0
H245 H 0.27421 0.93373 0.2338 0.0
H246 H 0.30291 0.95783 0.25368 0.0
H247 H 0.25981 0.97341 0.24964 0.0
H248 H 0.16554 0.05443 0.21977 0.0
H249 H 0.17105 0.96131 0.17275 0.0
H250 H 0.23755 0.07833 0.22718 0.0
H251 H 0.25266 0.04247 0.24672 0.0
H252 H 0.21123 0.06178 0.25208 0.0
H253 H 0.25525 0.9583 0.16496 0.0
H254 H 0.22009 0.9279 0.16791 0.0
H255 H 0.25163 0.9308 0.19242 0.0
C256 C 0.71284 0.9057 0.34557 0.0
C257 C 0.68222 0.89565 0.33434 0.0
C258 C 0.73239 0.9332 0.3354 0.0
C259 C 0.72085 0.95108 0.31343 0.0
C260 C 0.69254 0.9374 0.29999 0.0
C261 C 0.67324 0.90976 0.31076 0.0
C262 C 0.7624 0.94639 0.3505 0.0
C263 C 0.68013 0.95464 0.276 0.0
C264 C 0.73607 0.04702 0.32777 0.0
C265 C 0.76936 0.05069 0.31928 0.0
C266 C 0.71763 0.01602 0.32274 0.0
C267 C 0.73318 0.98801 0.30898 0.0
C268 C 0.76487 0.99408 0.29709 0.0
C269 C 0.78292 0.02545 0.30264 0.0
C270 C 0.68392 0.01136 0.33577 0.0
C271 C 0.78169 0.96578 0.2813 0.0
H272 H 0.71965 0.89459 0.36379 0.0
H273 H 0.64935 0.90205 0.30211 0.0
H274 H 0.78405 0.95306 0.33804 0.0
H275 H 0.75484 0.97086 0.3608 0.0
H276 H 0.77111 0.92647 0.36458 0.0
H277 H 0.66598 0.9353 0.26409 0.0
H278 H 0.66254 0.97671 0.28075 0.0
H279 H 0.70153 0.96585 0.26494 0.0
H280 H 0.72585 0.06658 0.34079 0.0
H281 H 0.80893 0.02833 0.29621 0.0
H282 H 0.68811 0.99731 0.35391 0.0
H283 H 0.6663 0.9953 0.32418 0.0
H284 H 0.67176 0.03738 0.33993 0.0
H285 H 0.79671 0.94794 0.29371 0.0
H286 H 0.7994 0.97779 0.26738 0.0
H287 H 0.7626 0.94936 0.27114 0.0
C288 C 0.80038 0.93142 0.89888 0.0
C289 C 0.83101 0.9377 0.88613 0.0
C290 C 0.77166 0.95262 0.89442 0.0
C291 C 0.77351 0.98084 0.87675 0.0
C292 C 0.80325 0.98513 0.86207 0.0
C293 C 0.83167 0.96345 0.86689 0.0
C294 C 0.74024 0.94662 0.9102 0.0
C295 C 0.80614 0.01442 0.84272 0.0
C296 C 0.6882 0.02542 0.86554 0.0
C297 C 0.68835 0.05146 0.88462 0.0
C298 C 0.71676 0.00374 0.8613 0.0
C299 C 0.74614 0.00829 0.87643 0.0
C300 C 0.74753 0.03678 0.89394 0.0
C301 C 0.71867 0.05798 0.89781 0.0
C302 C 0.71441 0.97415 0.84211 0.0
C303 C 0.77856 0.04308 0.91015 0.0
H304 H 0.7994 0.91131 0.91353 0.0
H305 H 0.85511 0.96851 0.85679 0.0
H306 H 0.73724 0.96895 0.92373 0.0
H307 H 0.71726 0.94603 0.89806 0.0
H308 H 0.74151 0.92137 0.92106 0.0
H309 H 0.82755 0.00974 0.82949 0.0
H310 H 0.78229 0.01703 0.83169 0.0
H311 H 0.8106 0.04013 0.85251 0.0
H312 H 0.665 0.02017 0.85512 0.0
H313 H 0.71926 0.07832 0.91233 0.0
H314 H 0.70983 0.94857 0.85199 0.0
H315 H 0.73851 0.97148 0.83145 0.0
H316 H 0.69329 0.97856 0.82854 0.0
H317 H 0.78125 0.02098 0.9239 0.0
H318 H 0.77701 0.06851 0.9208 0.0
H319 H 0.80183 0.04349 0.89838 0.0
C320 C 0.17722 0.98628 0.58842 0.0
C321 C 0.15064 0.00108 0.60251 0.0
C322 C 0.21084 0.99788 0.59173 0.0
C323 C 0.21798 0.02555 0.60915 0.0
C324 C 0.19151 0.0394 0.6243 0.0
C325 C 0.15818 0.02674 0.62098 0.0
C326 C 0.23846 0.98171 0.57564 0.0
C327 C 0.19795 0.06919 0.64284 0.0
C328 C 0.31169 0.0395 0.62344 0.0
C329 C 0.32081 0.06379 0.60448 0.0
C330 C 0.27789 0.02801 0.62611 0.0
C331 C 0.25257 0.04169 0.60978 0.0
C332 C 0.26121 0.06847 0.59209 0.0
C333 C 0.29527 0.0789 0.58946 0.0
C334 C 0.26986 0.99922 0.64504 0.0
C335 C 0.23483 0.0845 0.57478 0.0
H336 H 0.17158 0.96631 0.57423 0.0
H337 H 0.13772 0.03857 0.63178 0.0
H338 H 0.2478 0.00176 0.56194 0.0
H339 H 0.26035 0.97369 0.58757 0.0
H340 H 0.2294 0.95807 0.56497 0.0
H341 H 0.17576 0.07399 0.65532 0.0
H342 H 0.22044 0.06328 0.65475 0.0
H343 H 0.20349 0.09406 0.63233 0.0
H344 H 0.3313 0.02746 0.635 0.0
H345 H 0.30213 0.09783 0.57489 0.0
H346 H 0.26502 0.97386 0.63491 0.0
H347 H 0.24653 0.0058 0.65578 0.0
H348 H 0.29104 0.99497 0.65859 0.0
H349 H 0.2265 0.06429 0.56079 0.0
H350 H 0.24474 0.10798 0.5644 0.0
H351 H 0.2121 0.0927 0.58569 0.0
C352 C 0.76727 0.43991 0.16218 0.0
C353 C 0.79965 0.43529 0.17236 0.0
C354 C 0.74802 0.47001 0.16815 0.0
C355 C 0.76195 0.49621 0.18448 0.0
C356 C 0.7924 0.48876 0.19776 0.0
C357 C 0.81121 0.45829 0.19132 0.0
C358 C 0.71554 0.47622 0.15365 0.0
C359 C 0.80751 0.51505 0.21613 0.0
C360 C 0.74576 0.58255 0.15162 0.0
C361 C 0.71412 0.59157 0.16151 0.0
C362 C 0.76406 0.55381 0.16131 0.0
C363 C 0.75013 0.53356 0.18138 0.0
C364 C 0.72048 0.54581 0.19376 0.0
C365 C 0.70251 0.5748 0.1835 0.0
C366 C 0.79557 0.54218 0.1474 0.0
C367 C 0.70589 0.5261 0.21604 0.0
H368 H 0.75861 0.42205 0.1474 0.0
H369 H 0.83651 0.45471 0.19907 0.0
H370 H 0.69593 0.48863 0.16573 0.0
H371 H 0.72084 0.49454 0.13773 0.0
H372 H 0.70509 0.45108 0.14576 0.0
H373 H 0.82273 0.50115 0.2308 0.0
H374 H 0.82481 0.53333 0.20589 0.0
H375 H 0.78756 0.53123 0.22545 0.0
H376 H 0.75457 0.59571 0.13461 0.0
H377 H 0.67783 0.5818 0.19108 0.0
H378 H 0.78909 0.51899 0.13534 0.0
H379 H 0.81583 0.53404 0.16073 0.0
H380 H 0.80576 0.56356 0.13506 0.0
H381 H 0.69337 0.5013 0.2095 0.0
H382 H 0.68677 0.54237 0.22625 0.0
H383 H 0.7264 0.51835 0.22934 0.0
C384 C 0.31297 0.49215 0.27607 0.0
C385 C 0.33557 0.47229 0.29092 0.0
C386 C 0.27858 0.48247 0.2745 0.0
C387 C 0.26687 0.45303 0.28867 0.0
C388 C 0.29066 0.42966 0.29992 0.0
C389 C 0.32496 0.43941 0.30063 0.0
C390 C 0.2542 0.50651 0.26069 0.0
C391 C 0.27944 0.39748 0.31482 0.0
C392 C 0.19246 0.46994 0.33173 0.0
C393 C 0.16821 0.44605 0.32247 0.0
C394 C 0.22417 0.4733 0.3202 0.0
C395 C 0.23151 0.45293 0.29833 0.0
C396 C 0.20631 0.4304 0.28788 0.0
C397 C 0.17493 0.42687 0.30031 0.0
C398 C 0.25038 0.49736 0.33233 0.0
C399 C 0.21246 0.41003 0.26375 0.0
H400 H 0.32125 0.51703 0.26774 0.0
H401 H 0.34254 0.42328 0.31146 0.0
H402 H 0.2329 0.49103 0.25241 0.0
H403 H 0.24331 0.52606 0.27414 0.0
H404 H 0.26724 0.5215 0.24545 0.0
H405 H 0.30086 0.3789 0.31842 0.0
H406 H 0.26922 0.40635 0.33331 0.0
H407 H 0.25897 0.38285 0.30485 0.0
H408 H 0.18731 0.48484 0.34884 0.0
H409 H 0.15584 0.40888 0.29286 0.0
H410 H 0.25856 0.51813 0.31879 0.0
H411 H 0.27318 0.48171 0.33767 0.0
H412 H 0.24059 0.51081 0.34953 0.0
H413 H 0.21298 0.42899 0.24771 0.0
H414 H 0.19229 0.38998 0.26009 0.0
H415 H 0.23743 0.3964 0.26417 0.0
C416 C 0.20028 0.54031 0.90056 0.0
C417 C 0.17368 0.52381 0.88738 0.0
C418 C 0.2341 0.52962 0.89706 0.0
C419 C 0.24147 0.50116 0.88038 0.0
C420 C 0.21496 0.4858 0.86591 0.0
C421 C 0.18138 0.49757 0.8694 0.0
C422 C 0.26172 0.5474 0.91236 0.0
C423 C 0.22163 0.45519 0.84813 0.0
C424 C 0.33521 0.48709 0.86621 0.0
C425 C 0.34464 0.46389 0.88578 0.0
C426 C 0.30133 0.49829 0.86337 0.0
C427 C 0.27625 0.48544 0.88019 0.0
C428 C 0.28522 0.45983 0.89866 0.0
C429 C 0.31934 0.44966 0.9014 0.0
C430 C 0.29295 0.52584 0.8436 0.0
C431 C 0.25912 0.4447 0.91655 0.0
H432 H 0.1945 0.56073 0.91438 0.0
H433 H 0.16092 0.48444 0.85931 0.0
H434 H 0.27145 0.52855 0.92677 0.0
H435 H 0.28337 0.55484 0.90006 0.0
H436 H 0.25246 0.57167 0.92217 0.0
H437 H 0.19944 0.44953 0.83578 0.0
H438 H 0.24405 0.46073 0.8361 0.0
H439 H 0.22737 0.43093 0.85928 0.0
H440 H 0.35463 0.49843 0.85416 0.0
H441 H 0.32642 0.43155 0.91644 0.0
H442 H 0.2881 0.55177 0.85296 0.0
H443 H 0.26954 0.51845 0.83317 0.0
H444 H 0.31397 0.5294 0.82986 0.0
H445 H 0.25061 0.46577 0.92979 0.0
H446 H 0.26934 0.42214 0.92777 0.0
H447 H 0.23644 0.43539 0.90596 0.0
C448 C 0.67214 0.49577 0.62313 0.0
C449 C 0.67342 0.46884 0.60471 0.0
C450 C 0.70083 0.51685 0.62852 0.0
C451 C 0.73145 0.51083 0.6152 0.0
C452 C 0.73372 0.48155 0.59842 0.0
C453 C 0.70475 0.46092 0.59342 0.0
C454 C 0.69748 0.54729 0.64693 0.0
C455 C 0.76602 0.47373 0.5841 0.0
C456 C 0.78981 0.58504 0.59407 0.0
C457 C 0.81908 0.57836 0.60844 0.0
C458 C 0.76011 0.56498 0.5975 0.0
C459 C 0.75955 0.53752 0.61582 0.0
C460 C 0.7878 0.533 0.63208 0.0
C461 C 0.81728 0.55351 0.62822 0.0
C462 C 0.73035 0.57121 0.58002 0.0
C463 C 0.78804 0.50457 0.65217 0.0
H464 H 0.64817 0.50207 0.63212 0.0
H465 H 0.70621 0.43989 0.57945 0.0
H466 H 0.72062 0.54987 0.65877 0.0
H467 H 0.69438 0.57253 0.63632 0.0
H468 H 0.67509 0.54393 0.65945 0.0
H469 H 0.76475 0.44795 0.57386 0.0
H470 H 0.77068 0.49521 0.57015 0.0
H471 H 0.78808 0.47311 0.59715 0.0
H472 H 0.79074 0.6045 0.57898 0.0
H473 H 0.83966 0.54816 0.63955 0.0
H474 H 0.70638 0.57303 0.59091 0.0
H475 H 0.72787 0.54838 0.56683 0.0
H476 H 0.73335 0.59592 0.56873 0.0
H477 H 0.76317 0.50316 0.66194 0.0
H478 H 0.80831 0.50929 0.66641 0.0
H479 H 0.79264 0.4783 0.64323 0.0
C480 C 0.89216 0.98484 0.29708 0.0
C481 C 0.89998 0.01279 0.31366 0.0
C482 C 0.91439 0.97562 0.27745 0.0
C483 C 0.94536 0.9944 0.27473 0.0
C484 C 0.95406 0.02147 0.2922 0.0
C485 C 0.93108 0.0306 0.3113 0.0
C486 C 0.904 0.94705 0.25893 0.0
C487 C 0.98712 0.04171 0.29018 0.0
C488 C 0.01741 0.96017 0.23384 0.0
C489 C 0.01486 0.98277 0.21286 0.0
C490 C 0.9942 0.9627 0.25386 0.0
C491 C 0.96758 0.98795 0.25257 0.0
C492 C 0.96378 0.00934 0.23076 0.0
C493 C 0.98766 0.00672 0.21128 0.0
C494 C -0.00075 0.93976 0.27694 0.0
C495 C 0.93532 0.0361 0.22844 0.0
H496 H 0.86795 0.97125 0.29872 0.0
H497 H 0.93727 0.05204 0.32422 0.0
H498 H 0.89966 0.95915 0.24009 0.0
H499 H 0.92457 0.92713 0.25679 0.0
H500 H 0.88039 0.93312 0.2648 0.0
H501 H 0.99138 0.05968 0.30654 0.0
H502 H 0.00879 0.02292 0.28888 0.0
H503 H 0.98709 0.05796 0.2727 0.0
H504 H 0.03851 0.94174 0.23518 0.0
H505 H 0.98539 0.02396 0.19496 0.0
H506 H 0.97516 0.92638 0.2822 0.0
H507 H 0.00689 0.95676 0.29313 0.0
H508 H 0.01912 0.91918 0.27403 0.0
H509 H 0.91055 0.02335 0.2327 0.0
H510 H 0.93399 0.04808 0.20929 0.0
H511 H 0.93913 0.0578 0.24238 0.0
C512 C 0.50705 0.98495 0.20859 0.0
C513 C 0.48229 0.01174 0.20808 0.0
C514 C 0.52661 0.9789 0.23028 0.0
C515 C 0.52091 0.99982 0.25208 0.0
C516 C 0.49738 0.02827 0.25122 0.0
C517 C 0.47846 0.03407 0.22911 0.0
C518 C 0.55198 0.94875 0.23029 0.0
C519 C 0.49054 0.05104 0.27414 0.0
C520 C 0.53845 0.95064 0.31307 0.0
C521 C 0.57064 0.96365 0.31967 0.0
C522 C 0.52136 0.96342 0.2917 0.0
C523 C 0.53709 0.98947 0.27633 0.0
C524 C 0.56906 0.0036 0.28332 0.0
C525 C 0.58532 0.99074 0.30506 0.0
C526 C 0.48701 0.94806 0.28505 0.0
C527 C 0.58681 0.03105 0.26724 0.0
H528 H 0.51036 0.96786 0.19228 0.0
H529 H 0.45928 0.05475 0.22886 0.0
H530 H 0.57675 0.95786 0.23796 0.0
H531 H 0.54271 0.92703 0.24268 0.0
H532 H 0.55611 0.93769 0.21108 0.0
H533 H 0.47461 0.07457 0.26955 0.0
H534 H 0.47715 0.03494 0.2886 0.0
H535 H 0.51471 0.06036 0.28268 0.0
H536 H 0.52678 0.92995 0.32439 0.0
H537 H 0.61013 0.00102 0.31001 0.0
H538 H 0.48884 0.93277 0.26718 0.0
H539 H 0.46835 0.96975 0.28198 0.0
H540 H 0.47715 0.93008 0.29999 0.0
H541 H 0.59401 0.01896 0.2489 0.0
H542 H 0.61015 0.04157 0.27643 0.0
H543 H 0.56951 0.0536 0.26309 0.0
C544 C 0.96575 0.95906 0.69374 0.0
C545 C 0.99416 0.97778 0.68487 0.0
C546 C 0.95984 0.95516 0.7197 0.0
C547 C 0.98288 0.97037 0.73719 0.0
C548 C 0.01177 0.98902 0.72838 0.0
C549 C 0.01708 0.99249 0.70231 0.0
C550 C 0.92877 0.93503 0.72841 0.0
C551 C 0.03689 0.00559 0.74649 0.0
C552 C 0.9499 0.99025 0.80295 0.0
C553 C 0.96227 0.96116 0.81676 0.0
C554 C 0.95667 0.9937 0.77709 0.0
C555 C 0.9763 0.96743 0.76473 0.0
C556 C 0.98918 0.93819 0.77858 0.0
C557 C 0.98201 0.93539 0.80445 0.0
C558 C 0.9425 0.02528 0.76294 0.0
C559 C 0.01025 0.90968 0.766 0.0
H560 H 0.94799 0.94749 0.6804 0.0
H561 H 0.03913 0.00695 0.69562 0.0
H562 H 0.93638 0.91269 0.74087 0.0
H563 H 0.91218 0.95286 0.73965 0.0
H564 H 0.91375 0.92416 0.71239 0.0
H565 H 0.05846 0.01855 0.73659 0.0
H566 H 0.02393 0.02581 0.75832 0.0
H567 H 0.04715 0.98501 0.75943 0.0
H568 H 0.93462 0.01029 0.8123 0.0
H569 H 0.99168 0.91283 0.81498 0.0
H570 H 0.92528 0.016 0.74769 0.0
H571 H 0.96343 0.04033 0.75385 0.0
H572 H 0.92818 0.04367 0.77543 0.0
H573 H 0.99522 0.89661 0.75088 0.0
H574 H 0.01891 0.889 0.77954 0.0
H575 H 0.03288 0.92177 0.75695 0.0
C576 C 0.49314 0.0082 0.70054 0.0
C577 C 0.47226 0.03391 0.68924 0.0
C578 C 0.50172 0.0103 0.7262 0.0
C579 C 0.48906 0.03877 0.74094 0.0
C580 C 0.46776 0.06467 0.72973 0.0
C581 C 0.45963 0.06195 0.70399 0.0
C582 C 0.52456 0.9822 0.7375 0.0
C583 C 0.45377 0.09538 0.74488 0.0
C584 C 0.48853 0.02699 0.81214 0.0
C585 C 0.51802 0.04544 0.81926 0.0
C586 C 0.47858 0.02491 0.78672 0.0
C587 C 0.49862 0.04168 0.76801 0.0
C588 C 0.52821 0.06064 0.7751 0.0
C589 C 0.53756 0.06229 0.80063 0.0
C590 C 0.44683 0.00447 0.77985 0.0
C591 C 0.55022 0.07887 0.75567 0.0
H592 H 0.50301 0.98645 0.68929 0.0
H593 H 0.44345 0.08192 0.69541 0.0
H594 H 0.54802 0.99476 0.74501 0.0
H595 H 0.51162 0.96905 0.75357 0.0
H596 H 0.53189 0.96152 0.72354 0.0
H597 H 0.43707 0.11293 0.73344 0.0
H598 H 0.43901 0.08519 0.76118 0.0
H599 H 0.47496 0.11157 0.7526 0.0
H600 H 0.47326 0.01393 0.8264 0.0
H601 H 0.56036 0.07667 0.80596 0.0
H602 H 0.45336 0.98205 0.76712 0.0
H603 H 0.42895 0.02197 0.76945 0.0
H604 H 0.43364 0.99363 0.7967 0.0
H605 H 0.56017 0.05896 0.74209 0.0
H606 H 0.57205 0.09312 0.76434 0.0
H607 H 0.53489 0.09826 0.74472 0.0
C608 C 0.61087 0.50532 0.18469 0.0
C609 C 0.5975 0.52918 0.16694 0.0
C610 C 0.59085 0.4926 0.20466 0.0
C611 C 0.55651 0.50346 0.2065 0.0
C612 C 0.54247 0.52614 0.18786 0.0
C613 C 0.56326 0.53907 0.16847 0.0
C614 C 0.60692 0.46907 0.22443 0.0
C615 C 0.50579 0.53781 0.18891 0.0
C616 C 0.49328 0.45581 0.24876 0.0
C617 C 0.49032 0.48005 0.26878 0.0
C618 C 0.51562 0.4624 0.22864 0.0
C619 C 0.5358 0.49361 0.22886 0.0
C620 C 0.53424 0.51711 0.24972 0.0
C621 C 0.51129 0.51021 0.2693 0.0
C622 C 0.51635 0.43696 0.20658 0.0
C623 C 0.55584 0.55032 0.25091 0.0
H624 H 0.63743 0.4979 0.18368 0.0
H625 H 0.55282 0.55732 0.15465 0.0
H626 H 0.60847 0.48374 0.24258 0.0
H627 H 0.5911 0.44509 0.22771 0.0
H628 H 0.63294 0.4605 0.21905 0.0
H629 H 0.49804 0.55278 0.17176 0.0
H630 H 0.48887 0.51437 0.19101 0.0
H631 H 0.5018 0.55512 0.20562 0.0
H632 H 0.47702 0.43252 0.24823 0.0
H633 H 0.50937 0.52882 0.28489 0.0
H634 H 0.54287 0.42928 0.20211 0.0
H635 H 0.50577 0.45029 0.18962 0.0
H636 H 0.50135 0.41245 0.21026 0.0
H637 H 0.58287 0.54371 0.24729 0.0
H638 H 0.554 0.56393 0.26948 0.0
H639 H 0.54764 0.56921 0.23601 0.0
C640 C 0.0024 0.47136 0.29621 0.0
C641 C 0.03161 0.49272 0.29712 0.0
C642 C 0.98138 0.47103 0.27485 0.0
C643 C 0.98997 0.49229 0.25375 0.0
C644 C 0.01854 0.51514 0.25495 0.0
C645 C 0.03896 0.51524 0.27673 0.0
C646 C 0.95083 0.44667 0.27445 0.0
C647 C 0.02856 0.53803 0.23277 0.0
C648 C 0.95925 0.45371 0.19176 0.0
C649 C 0.92976 0.47363 0.18729 0.0
C650 C 0.97996 0.46074 0.21272 0.0
C651 C 0.97068 0.48802 0.22982 0.0
C652 C 0.9416 0.50908 0.22494 0.0
C653 C 0.92155 0.50176 0.2036 0.0
C654 C 0.01103 0.43798 0.2171 0.0
C655 C 0.93072 0.53813 0.24288 0.0
H656 H -0.00366 0.45419 0.31201 0.0
H657 H 0.06154 0.53177 0.27728 0.0
H658 H 0.92783 0.46153 0.26849 0.0
H659 H 0.95493 0.42506 0.2605 0.0
H660 H 0.94591 0.4344 0.29317 0.0
H661 H 0.04928 0.55695 0.23762 0.0
H662 H 0.03732 0.52079 0.21707 0.0
H663 H 0.00639 0.55334 0.22576 0.0
H664 H 0.96584 0.43213 0.1791 0.0
H665 H 0.89863 0.51708 0.20034 0.0
H666 H 0.0074 0.42156 0.23429 0.0
H667 H 0.03366 0.45501 0.22032 0.0
H668 H 0.01627 0.41992 0.20096 0.0
H669 H 0.92256 0.52613 0.26101 0.0
H670 H 0.90936 0.55416 0.23521 0.0
H671 H 0.95234 0.55615 0.24709 0.0
C672 C 0.47268 0.43535 0.67326 0.0
C673 C 0.49999 0.45494 0.66347 0.0
C674 C 0.46261 0.43936 0.69853 0.0
C675 C 0.48022 0.46361 0.7143 0.0
C676 C 0.50745 0.48385 0.70442 0.0
C677 C 0.51703 0.47923 0.67915 0.0
C678 C 0.43351 0.41726 0.70847 0.0
C679 C 0.52679 0.51006 0.72063 0.0
C680 C 0.44021 0.49749 0.77494 0.0
C681 C 0.45705 0.47696 0.79318 0.0
C682 C 0.44695 0.49293 0.74911 0.0
C683 C 0.47101 0.46716 0.74139 0.0
C684 C 0.48751 0.44581 0.75967 0.0
C685 C 0.48038 0.451 0.78533 0.0
C686 C 0.4289 0.51621 0.73014 0.0
C687 C 0.51324 0.41796 0.75215 0.0
H688 H 0.4594 0.41651 0.66129 0.0
H689 H 0.53809 0.49459 0.67174 0.0
H690 H 0.44265 0.39973 0.7239 0.0
H691 H 0.41367 0.4348 0.71658 0.0
H692 H 0.42177 0.40043 0.69358 0.0
H693 H 0.54666 0.52453 0.70985 0.0
H694 H 0.50906 0.52981 0.72889 0.0
H695 H 0.53916 0.49589 0.73655 0.0
H696 H 0.4221 0.51754 0.78082 0.0
H697 H 0.49338 0.43487 0.79928 0.0
H698 H 0.41599 0.49953 0.71575 0.0
H699 H 0.44768 0.53305 0.72009 0.0
H700 H 0.40976 0.53383 0.73912 0.0
H701 H 0.50193 0.39927 0.73826 0.0
H702 H 0.52262 0.40243 0.76859 0.0
H703 H 0.53529 0.43091 0.7429 0.0
C704 C 0.97542 0.55733 0.80674 0.0
C705 C 0.00605 0.5402 0.81272 0.0
C706 C 0.96506 0.56161 0.78158 0.0
C707 C 0.98583 0.54841 0.76191 0.0
C708 C 0.01697 0.53145 0.76778 0.0
C709 C 0.02672 0.52757 0.79313 0.0
C710 C 0.93173 0.57993 0.77605 0.0
C711 C 0.03979 0.51707 0.74729 0.0
C712 C 0.94432 0.52762 0.69888 0.0
C713 C 0.95329 0.55747 0.68447 0.0
C714 C 0.95472 0.52437 0.72411 0.0
C715 C 0.97459 0.55164 0.73521 0.0
C716 C 0.98362 0.58193 0.72083 0.0
C717 C 0.97285 0.5845 0.69562 0.0
C718 C 0.94453 0.4917 0.73888 0.0
C719 C 0.00474 0.61156 0.73206 0.0
H720 H 0.95935 0.56733 0.82175 0.0
H721 H 0.05046 0.51436 0.79758 0.0
H722 H 0.93596 0.60299 0.76337 0.0
H723 H 0.91437 0.56133 0.76609 0.0
H724 H 0.91896 0.58947 0.79347 0.0
H725 H 0.06353 0.50532 0.75497 0.0
H726 H 0.02613 0.49634 0.73632 0.0
H727 H 0.04663 0.53864 0.73393 0.0
H728 H 0.92919 0.50662 0.69043 0.0
H729 H 0.9799 0.60767 0.68463 0.0
H730 H 0.92977 0.4996 0.7558 0.0
H731 H 0.96753 0.47752 0.74562 0.0
H732 H 0.92895 0.47294 0.72749 0.0
H733 H 0.99174 0.6228 0.74883 0.0
H734 H 0.00948 0.6334 0.71838 0.0
H735 H 0.02955 0.60095 0.73855 0.0
C736 C 0.00882 0.1442 0.14166 0.0
C737 C 0.04346 0.14402 0.1355 0.0
C738 C 0.98914 0.17498 0.1386 0.0
C739 C 0.00448 0.20631 0.12911 0.0
C740 C 0.03938 0.2063 0.12276 0.0
C741 C 0.05847 0.17513 0.12603 0.0
C742 C 0.95196 0.17402 0.14559 0.0
C743 C 0.05655 0.23925 0.11257 0.0
C744 C 0.9457 0.27561 0.1008 0.0
C745 C 0.94206 0.29957 0.12093 0.0
C746 C 0.96642 0.24543 0.10305 0.0
C747 C 0.98391 0.23911 0.12597 0.0
C748 C 0.98094 0.26357 0.14618 0.0
C749 C 0.96004 0.29353 0.14341 0.0
C750 C 0.96909 0.21996 0.08108 0.0
C751 C -0.0007 0.25772 0.17088 0.0
H752 H -0.00298 0.12027 0.14899 0.0
H753 H 0.08522 0.17521 0.12121 0.0
H754 H 0.94669 0.1941 0.16043 0.0
H755 H 0.93617 0.18098 0.12895 0.0
H756 H 0.9439 0.14748 0.15262 0.0
H757 H 0.08385 0.23476 0.10837 0.0
H758 H 0.04365 0.24811 0.09503 0.0
H759 H 0.05445 0.26127 0.12644 0.0
H760 H 0.93197 0.28014 0.08335 0.0
H761 H 0.95745 0.31197 0.15903 0.0
H762 H 0.95898 0.19352 0.08661 0.0
H763 H -0.00389 0.2162 0.07578 0.0
H764 H 0.95487 0.22941 0.06424 0.0
H765 H 0.99033 0.23267 0.17973 0.0
H766 H 0.99527 0.27992 0.18441 0.0
H767 H 0.02697 0.25479 0.16752 0.0
C768 C 0.43679 0.82347 0.11862 0.0
C769 C 0.45266 0.85458 0.12737 0.0
C770 C 0.45559 0.79237 0.11421 0.0
C771 C 0.49104 0.79248 0.11867 0.0
C772 C 0.50715 0.82372 0.12763 0.0
C773 C 0.48777 0.85439 0.13188 0.0
C774 C 0.4376 0.75948 0.10467 0.0
C775 C 0.54494 0.82482 0.13264 0.0
C776 C 0.54035 0.7073 0.12955 0.0
C777 C 0.55714 0.70324 0.10639 0.0
C778 C 0.51765 0.73549 0.13351 0.0
C779 C 0.51159 0.7601 0.11381 0.0
C780 C 0.5272 0.75518 0.09002 0.0
C781 C 0.54981 0.72678 0.08659 0.0
C782 C 0.50133 0.73982 0.15911 0.0
C783 C 0.52117 0.78081 0.06852 0.0
H784 H 0.40965 0.8234 0.11511 0.0
H785 H 0.50023 0.8783 0.13866 0.0
H786 H 0.4483 0.75142 0.08617 0.0
H787 H 0.44176 0.73704 0.11791 0.0
H788 H 0.40982 0.76367 0.10243 0.0
H789 H 0.55349 0.85114 0.13979 0.0
H790 H 0.55191 0.8042 0.1467 0.0
H791 H 0.55902 0.81874 0.11503 0.0
H792 H 0.54572 0.6891 0.14491 0.0
H793 H 0.56249 0.72368 0.06858 0.0
H794 H 0.47345 0.74309 0.15711 0.0
H795 H 0.51126 0.76422 0.16835 0.0
H796 H 0.50639 0.71676 0.17169 0.0
H797 H 0.49353 0.78445 0.06531 0.0
H798 H 0.53301 0.77162 0.05065 0.0
H799 H 0.53191 0.80724 0.07343 0.0
C800 C 0.46679 0.63845 0.34225 0.0
C801 C 0.43247 0.63218 0.34774 0.0
C802 C 0.4823 0.67082 0.34858 0.0
C803 C 0.46301 0.69767 0.36065 0.0
C804 C 0.42815 0.69192 0.3657 0.0
C805 C 0.41328 0.65918 0.35921 0.0
C806 C 0.51957 0.67598 0.34286 0.0
C807 C 0.40679 0.72004 0.37841 0.0
C808 C 0.51632 0.7623 0.39871 0.0
C809 C 0.52097 0.79009 0.38139 0.0
C810 C 0.49606 0.73278 0.39266 0.0
C811 C 0.47997 0.73111 0.36878 0.0
C812 C 0.48283 0.76007 0.35184 0.0
C813 C 0.50334 0.78924 0.35835 0.0
C814 C 0.49348 0.70248 0.41129 0.0
C815 C 0.46576 0.75939 0.3263 0.0
H816 H 0.48179 0.61779 0.33334 0.0
H817 H 0.3867 0.65459 0.36345 0.0
H818 H 0.52324 0.70018 0.33119 0.0
H819 H 0.53389 0.67997 0.3607 0.0
H820 H 0.53069 0.65289 0.3327 0.0
H821 H 0.37962 0.71222 0.37968 0.0
H822 H 0.41651 0.72498 0.39777 0.0
H823 H 0.40861 0.74553 0.36795 0.0
H824 H 0.52964 0.76284 0.41663 0.0
H825 H 0.50657 0.81073 0.34493 0.0
H826 H 0.50684 0.67882 0.40365 0.0
H827 H 0.46653 0.69488 0.41417 0.0
H828 H 0.50483 0.7093 0.42988 0.0
H829 H 0.47824 0.73919 0.31417 0.0
H830 H 0.46716 0.78557 0.31662 0.0
H831 H 0.43869 0.75162 0.32816 0.0
C832 C 0.03563 0.29918 0.3837 0.0
C833 C 0.02612 0.33314 0.3753 0.0
C834 C 0.01219 0.27107 0.38407 0.0
C835 C 0.97849 0.27706 0.37576 0.0
C836 C 0.96864 0.31132 0.36743 0.0
C837 C 0.99257 0.33899 0.36735 0.0
C838 C 0.02353 0.23489 0.39319 0.0
C839 C 0.93291 0.31865 0.35839 0.0
C840 C 0.92669 0.19739 0.35426 0.0
C841 C 0.90629 0.19101 0.37546 0.0
C842 C 0.95027 0.2254 0.35408 0.0
C843 C 0.95357 0.2474 0.37564 0.0
C844 C 0.93314 0.24104 0.39712 0.0
C845 C 0.90969 0.21294 0.39675 0.0
C846 C 0.97161 0.23148 0.33081 0.0
C847 C 0.93608 0.26389 0.42049 0.0
H848 H 0.06149 0.29446 0.38991 0.0
H849 H 0.98504 0.36514 0.36079 0.0
H850 H 0.00743 0.22616 0.40921 0.0
H851 H 0.02037 0.21499 0.37789 0.0
H852 H 0.0505 0.23479 0.3994 0.0
H853 H 0.92928 0.34684 0.35269 0.0
H854 H 0.92683 0.30132 0.34203 0.0
H855 H 0.91445 0.31223 0.37352 0.0
H856 H 0.92419 0.18056 0.33773 0.0
H857 H 0.89408 0.20813 0.41324 0.0
H858 H -0.00103 0.22939 0.33566 0.0
H859 H 0.96726 0.25874 0.32345 0.0
H860 H 0.96583 0.21206 0.31556 0.0
H861 H 0.96242 0.26281 0.42795 0.0
H862 H 0.91837 0.25535 0.43563 0.0
H863 H 0.93065 0.29207 0.41573 0.0
C864 C 0.01449 0.6412 0.8849 0.0
C865 C 0.03767 0.63488 0.90461 0.0
C866 C -0.00219 0.67414 0.88253 0.0
C867 C 0.00463 0.7016 0.90014 0.0
C868 C 0.02893 0.69586 0.91947 0.0
C869 C 0.04502 0.66261 0.92153 0.0
C870 C 0.97202 0.67909 0.8617 0.0
C871 C 0.03728 0.72456 0.93848 0.0
C872 C 0.98154 0.79839 0.88737 0.0
C873 C 0.9529 0.80295 0.90285 0.0
C874 C -0.00206 0.76523 0.88552 0.0
C875 C 0.98528 0.73578 0.89928 0.0
C876 C 0.95529 0.73971 0.91377 0.0
C877 C 0.93958 0.7732 0.91545 0.0
C878 C 0.02985 0.76222 0.86989 0.0
C879 C 0.94064 0.70889 0.92845 0.0
H880 H 0.00853 0.62004 0.8717 0.0
H881 H 0.06298 0.65818 0.93674 0.0
H882 H 0.9464 0.68263 0.87002 0.0
H883 H 0.97781 0.70348 0.85073 0.0
H884 H 0.97124 0.65604 0.84855 0.0
H885 H 0.05816 0.71665 0.95144 0.0
H886 H 0.04476 0.7494 0.92863 0.0
H887 H 0.01443 0.7307 0.94992 0.0
H888 H 0.99217 0.82112 0.87758 0.0
H889 H 0.91738 0.77628 0.92733 0.0
H890 H 0.0283 0.73892 0.85708 0.0
H891 H 0.05199 0.75798 0.88253 0.0
H892 H 0.03455 0.78647 0.85842 0.0
H893 H 0.93748 0.68536 0.91601 0.0
H894 H 0.91566 0.71545 0.937 0.0
H895 H 0.95843 0.70126 0.94379 0.0
C896 C 0.47701 0.32955 0.91703 0.0
C897 C 0.4846 0.35679 0.89981 0.0
C898 C 0.49311 0.29625 0.91557 0.0
C899 C 0.51776 0.29002 0.89661 0.0
C900 C 0.525 0.31707 0.87882 0.0
C901 C 0.50821 0.35003 0.88053 0.0
C902 C 0.48424 0.26796 0.9347 0.0
C903 C 0.55128 0.31162 0.85846 0.0
C904 C 0.58165 0.21765 0.91296 0.0
C905 C 0.56828 0.18808 0.90012 0.0
C906 C 0.56636 0.25134 0.91104 0.0
C907 C 0.53671 0.2556 0.89614 0.0
C908 C 0.52399 0.22629 0.88222 0.0
C909 C 0.54002 0.19298 0.88425 0.0
C910 C 0.5811 0.28204 0.92586 0.0
C911 C 0.49238 0.22961 0.86621 0.0
H912 H 0.45871 0.33438 0.9319 0.0
H913 H 0.51443 0.37089 0.86719 0.0
H914 H 0.47666 0.24304 0.92495 0.0
H915 H 0.50686 0.26177 0.94642 0.0
H916 H 0.46325 0.27629 0.94738 0.0
H917 H 0.55272 0.33455 0.84528 0.0
H918 H 0.57663 0.30775 0.86723 0.0
H919 H 0.54546 0.28724 0.84745 0.0
H920 H 0.60355 0.21428 0.92515 0.0
H921 H 0.52934 0.17037 0.87429 0.0
H922 H 0.56318 0.28992 0.941 0.0
H923 H 0.58468 0.3055 0.91343 0.0
H924 H 0.60589 0.27523 0.93467 0.0
H925 H 0.47012 0.23446 0.87857 0.0
H926 H 0.48745 0.20528 0.85485 0.0
H927 H 0.4945 0.25267 0.85326 0.0
C928 C 0.48613 0.17442 0.60979 0.0
C929 C 0.46303 0.16802 0.59004 0.0
C930 C 0.50363 0.20701 0.61172 0.0
C931 C 0.49777 0.234 0.59359 0.0
C932 C 0.47358 0.2282 0.57418 0.0
C933 C 0.45664 0.19534 0.57259 0.0
C934 C 0.52925 0.21207 0.63266 0.0
C935 C 0.46625 0.25638 0.5546 0.0
C936 C 0.5231 0.33076 0.60422 0.0
C937 C 0.55193 0.33387 0.58875 0.0
C938 C 0.50597 0.29809 0.60687 0.0
C939 C 0.51806 0.26765 0.59391 0.0
C940 C 0.54827 0.27012 0.57953 0.0
C941 C 0.56475 0.30314 0.57706 0.0
C942 C 0.47389 0.29667 0.62241 0.0
C943 C 0.56232 0.23825 0.56566 0.0
H944 H 0.49136 0.15355 0.62337 0.0
H945 H 0.43873 0.19088 0.55735 0.0
H946 H 0.55509 0.2144 0.62449 0.0
H947 H 0.52407 0.23713 0.64304 0.0
H948 H 0.52911 0.18962 0.64629 0.0
H949 H 0.44536 0.24854 0.54161 0.0
H950 H 0.45926 0.28178 0.56393 0.0
H951 H 0.48941 0.26148 0.54324 0.0
H952 H 0.51288 0.35423 0.61336 0.0
H953 H 0.58709 0.30506 0.56521 0.0
H954 H 0.47462 0.27379 0.63562 0.0
H955 H 0.45172 0.29271 0.60975 0.0
H956 H 0.46987 0.32146 0.63345 0.0
H957 H 0.56462 0.21521 0.57863 0.0
H958 H 0.58761 0.24371 0.55723 0.0
H959 H 0.54459 0.23045 0.55032 0.0
C960 C -0.00371 0.8753 0.60988 0.0
C961 C 0.01961 0.88244 0.59047 0.0
C962 C 0.98113 0.84156 0.61234 0.0
C963 C 0.98975 0.81412 0.59518 0.0
C964 C 0.01438 0.82071 0.57626 0.0
C965 C 0.02884 0.85476 0.57406 0.0
C966 C 0.95488 0.83574 0.63267 0.0
C967 C 0.0247 0.79206 0.5578 0.0
C968 C 0.96997 0.7167 0.60867 0.0
C969 C 0.94212 0.71051 0.59262 0.0
C970 C 0.98509 0.75056 0.61038 0.0
C971 C 0.97183 0.77908 0.59595 0.0
C972 C 0.94262 0.77345 0.58079 0.0
C973 C 0.92827 0.73927 0.5792 0.0
C974 C 0.01627 0.75535 0.62666 0.0
C975 C 0.92732 0.80324 0.56541 0.0
H976 H 0.98886 0.89646 0.62264 0.0
H977 H 0.04697 0.85986 0.55911 0.0
H978 H 0.92968 0.83113 0.62384 0.0
H979 H 0.96113 0.81168 0.64387 0.0
H980 H 0.95287 0.85885 0.64568 0.0
H981 H 0.04583 0.80068 0.54534 0.0
H982 H 0.0327 0.76775 0.56809 0.0
H983 H 0.00265 0.78471 0.5458 0.0
H984 H 0.981 0.6947 0.61906 0.0
H985 H 0.90663 0.7349 0.56689 0.0
H986 H 0.01327 0.77874 0.63925 0.0
H987 H 0.03864 0.76052 0.61448 0.0
H988 H 0.02161 0.73154 0.63843 0.0
H989 H 0.92266 0.82683 0.57752 0.0
H990 H 0.90301 0.79534 0.5563 0.0
H991 H 0.9454 0.81144 0.55045 0.0
C992 C 0.96218 0.92204 0.98701 0.0
C993 C 0.98489 0.92493 0.96673 0.0
C994 C 0.97334 0.92595 0.012 0.0
C995 C 0.008 0.93328 0.01679 0.0
C996 C 0.03134 0.93465 0.9965 0.0
C997 C 0.01951 0.93033 0.97168 0.0
C998 C 0.94773 0.92397 0.03315 0.0
C999 C 0.06852 0.94248 0.00091 0.0
C1000 C 0.02986 0.98755 0.0749 0.0
C1001 C 0.04307 0.96157 0.09121 0.0
C1002 C 0.01807 0.97855 0.05076 0.0
C1003 C 0.01925 0.94264 0.04273 0.0
C1004 C 0.03156 0.91608 0.0593 0.0
C1005 C 0.04341 0.92586 0.08334 0.0
C1006 C 0.00509 0.00765 0.03361 0.0
C1007 C 0.03283 0.87747 0.05143 0.0
H1008 H 0.93539 0.9179 0.98341 0.0
H1009 H 0.03722 0.93258 0.95611 0.0
H1010 H 0.95695 0.90605 0.04832 0.0
H1011 H 0.94437 0.95076 0.0416 0.0
H1012 H 0.92256 0.9143 0.02653 0.0
H1013 H 0.08379 0.93974 0.98339 0.0
H1014 H 0.07145 0.97005 0.00811 0.0
H1015 H 0.07904 0.92432 0.01544 0.0
H1016 H 0.02946 0.0152 0.08073 0.0
H1017 H 0.05349 0.90556 0.09579 0.0
H1018 H 0.97873 0.00164 0.02751 0.0
H1019 H 0.02098 0.00903 0.01635 0.0
H1020 H 0.00534 0.03418 0.04288 0.0
H1021 H 0.00732 0.86847 0.04516 0.0
H1022 H 0.04162 0.85985 0.06695 0.0
H1023 H 0.05028 0.87432 0.03516 0.0
C1024 C 0.55348 0.06948 0.98299 0.0
C1025 C 0.53164 0.06772 0.96206 0.0
C1026 C 0.54088 0.0668 0.00765 0.0
C1027 C 0.50564 0.06185 0.01146 0.0
C1028 C 0.48328 0.06161 0.99048 0.0
C1029 C 0.49655 0.06467 0.96601 0.0
C1030 C 0.56549 0.06753 0.02955 0.0
C1031 C 0.44552 0.05626 0.9938 0.0
C1032 C 0.47718 0.00956 0.06875 0.0
C1033 C 0.46429 0.0364 0.08448 0.0
C1034 C 0.49114 0.01764 0.04513 0.0
C1035 C 0.49254 0.05349 0.03706 0.0
C1036 C 0.48068 0.08089 0.05312 0.0
C1037 C 0.46659 0.07202 0.07664 0.0
C1038 C 0.50353 0.98763 0.02853 0.0
C1039 C 0.48218 0.11945 0.04521 0.0
H1040 H 0.58062 0.07181 0.98015 0.0
H1041 H 0.4795 0.06335 0.94995 0.0
H1042 H 0.55649 0.0861 0.04439 0.0
H1043 H 0.56701 0.04066 0.03816 0.0
H1044 H 0.59143 0.07565 0.02366 0.0
H1045 H 0.43132 0.05966 0.97582 0.0
H1046 H 0.44061 0.02906 0.00109 0.0
H1047 H 0.43538 0.07533 0.00788 0.0
H1048 H 0.47562 0.98196 0.07457 0.0
H1049 H 0.45681 0.09298 0.08866 0.0
H1050 H 0.53049 0.99203 0.02331 0.0
H1051 H 0.48858 0.98699 0.01075 0.0
H1052 H 0.50134 0.96126 0.03785 0.0
H1053 H 0.50846 0.12667 0.03964 0.0
H1054 H 0.47379 0.13772 0.06047 0.0
H1055 H 0.46572 0.12368 0.02846 0.0
C1056 C 0.4721 0.02147 0.52459 0.0
C1057 C 0.48868 0.02094 0.54805 0.0
C1058 C 0.48771 0.00761 0.50292 0.0
C1059 C 0.52052 0.99249 0.50483 0.0
C1060 C 0.5376 0.99232 0.52837 0.0
C1061 C 0.52154 0.00672 0.54968 0.0
C1062 C 0.46891 0.00875 0.47805 0.0
C1063 C 0.57261 0.97634 0.53113 0.0
C1064 C 0.54903 0.92669 0.45457 0.0
C1065 C 0.57059 0.9479 0.43985 0.0
C1066 C 0.53242 0.94088 0.47577 0.0
C1067 C 0.5372 0.97718 0.48215 0.0
C1068 C 0.55834 0.99885 0.46705 0.0
C1069 C 0.57488 0.98393 0.44619 0.0
C1070 C 0.51019 0.91693 0.49158 0.0
C1071 C 0.5637 0.03778 0.47302 0.0
H1072 H 0.44666 0.03224 0.52316 0.0
H1073 H 0.53444 0.006 0.56776 0.0
H1074 H 0.4844 0.02284 0.46371 0.0
H1075 H 0.46465 0.98129 0.47101 0.0
H1076 H 0.44394 0.02231 0.47963 0.0
H1077 H 0.58241 0.97827 0.55077 0.0
H1078 H 0.57202 0.94788 0.52554 0.0
H1079 H 0.59069 0.99002 0.51836 0.0
H1080 H 0.54563 0.89885 0.44982 0.0
H1081 H 0.59122 1.00067 0.43479 0.0
H1082 H 0.48407 0.92792 0.4926 0.0
H1083 H 0.52016 0.91576 0.51117 0.0
H1084 H 0.50882 0.88943 0.48394 0.0
H1085 H 0.53889 0.05176 0.47367 0.0
H1086 H 0.58015 0.05123 0.45893 0.0
H1087 H 0.57558 0.04064 0.49192 0.0
C1088 C 0.99305 0.01554 0.52159 0.0
C1089 C 0.97696 0.01609 0.54519 0.0
C1090 C 0.97449 0.02026 0.49922 0.0
C1091 C 0.93903 0.02614 0.50052 0.0
C1092 C 0.92258 0.02661 0.52425 0.0
C1093 C 0.94173 0.02141 0.54631 0.0
C1094 C 0.99286 0.01919 0.47422 0.0
C1095 C 0.88482 0.03303 0.52635 0.0
C1096 C 0.89692 0.07127 0.44449 0.0
C1097 C 0.88202 0.04226 0.432 0.0
C1098 C 0.91531 0.06646 0.46696 0.0
C1099 C 0.91918 0.03177 0.47699 0.0
C1100 C 0.90437 0.00237 0.46441 0.0
C1101 C 0.88584 0.00798 0.44215 0.0
C1102 C 0.93054 0.09848 0.47999 0.0
C1103 C 0.90831 0.96494 0.47438 0.0
H1104 H 0.02027 0.01174 0.52051 0.0
H1105 H 0.92912 0.02205 0.56448 0.0
H1106 H 0.98147 0.99851 0.46187 0.0
H1107 H 0.99 0.04508 0.46439 0.0
H1108 H 0.02039 0.01346 0.47644 0.0
H1109 H 0.8759 0.03264 0.54624 0.0
H1110 H 0.8783 0.05919 0.51794 0.0
H1111 H 0.87071 0.01243 0.51559 0.0
H1112 H 0.894 0.09785 0.43684 0.0
H1113 H 0.8746 0.98535 0.43257 0.0
H1114 H 0.95853 0.09551 0.48128 0.0
H1115 H 0.92072 0.10043 0.49956 0.0
H1116 H 0.92475 0.12372 0.46995 0.0
H1117 H 0.93565 0.95794 0.47557 0.0
H1118 H 0.89527 0.94495 0.46231 0.0
H1119 H 0.8978 0.96315 0.49375 0.0
C1120 C 0.58883 0.57997 0.03471 0.0
C1121 C 0.60874 0.55576 0.04839 0.0
C1122 C 0.57131 0.56927 0.01286 0.0
C1123 C 0.57341 0.53343 0.00473 0.0
C1124 C 0.59336 0.50886 0.01849 0.0
C1125 C 0.61093 0.52036 0.04005 0.0
C1126 C 0.55053 0.59631 -0.0015 0.0
C1127 C 0.59585 0.47031 0.01059 0.0
C1128 C 0.50237 0.49887 0.96284 0.0
C1129 C 0.51746 0.49992 0.93888 0.0
C1130 C 0.52046 0.50922 0.98446 0.0
C1131 C 0.55431 0.52145 0.98203 0.0
C1132 C 0.56981 0.52233 0.95795 0.0
C1133 C 0.55126 0.51134 0.93667 0.0
C1134 C 0.50322 0.50741 0.00989 0.0
C1135 C 0.60579 0.53547 0.95462 0.0
H1136 H 0.58709 0.60739 0.04096 0.0
H1137 H 0.62606 0.50136 0.05057 0.0
H1138 H 0.5593 0.59771 0.97863 0.0
H1139 H 0.52347 0.58804 -0.00187 0.0
H1140 H 0.55221 0.62332 0.00696 0.0
H1141 H 0.61253 0.4546 0.02333 0.0
H1142 H 0.5702 0.45804 0.01049 0.0
H1143 H 0.60595 0.4684 0.9911 0.0
H1144 H 0.47625 0.49029 0.96474 0.0
H1145 H 0.56305 0.51245 0.91821 0.0
H1146 H 0.5016 0.53445 0.01822 0.0
H1147 H 0.51842 0.49082 0.02303 0.0
H1148 H 0.47717 0.49613 0.00864 0.0
H1149 H 0.60785 0.56337 0.96133 0.0
H1150 H 0.61421 0.53433 0.93463 0.0
H1151 H 0.62346 0.51928 0.96621 0.0
C1152 C 0.92355 0.49186 0.05738 0.0
C1153 C 0.92073 0.45663 0.06595 0.0
C1154 C 0.9411 0.50001 0.03513 0.0
C1155 C 0.95602 0.47224 0.02095 0.0
C1156 C 0.95374 0.43667 0.02961 0.0
C1157 C 0.93624 0.42929 0.0521 0.0
C1158 C 0.94332 0.53832 0.02663 0.0
C1159 C 0.96926 0.40636 0.0149 0.0
C1160 C 0.97156 0.4891 0.95126 0.0
C1161 C 0.00653 0.49622 0.9509 0.0
C1162 C 0.95482 0.48111 0.97393 0.0
C1163 C 0.97349 0.48046 -0.00321 0.0
C1164 C 0.00869 0.48807 -0.00339 0.0
C1165 C 0.02482 0.4957 0.97365 0.0
C1166 C 0.91723 0.47305 0.97339 0.0
C1167 C 0.02936 0.48795 0.02066 0.0
H1168 H 0.9119 0.51324 0.06803 0.0
H1169 H 0.93414 0.402 0.05854 0.0
H1170 H 0.97029 0.54616 0.02418 0.0
H1171 H 0.93066 0.54143 0.00804 0.0
H1172 H 0.93126 0.5569 0.04025 0.0
H1173 H 0.96583 0.3803 0.02446 0.0
H1174 H 0.95751 0.40487 0.99587 0.0
H1175 H -0.00316 0.4111 0.01218 0.0
H1176 H 0.95727 0.48929 0.93375 0.0
H1177 H 0.05189 0.50088 0.97355 0.0
H1178 H 0.90339 0.49221 0.98554 0.0
H1179 H 0.91251 0.44606 0.98111 0.0
H1180 H 0.90646 0.47441 0.95401 0.0
H1181 H 0.01853 0.5072 0.03435 0.0
H1182 H 0.05641 0.49493 0.01734 0.0
H1183 H 0.02824 0.46126 0.02957 0.0
C1184 C 0.95947 0.58176 0.51412 0.0
C1185 C 0.98003 0.58038 0.53576 0.0
C1186 C 0.97257 0.57327 0.49026 0.0
C1187 C 0.00693 0.56276 0.48806 0.0
C1188 C 0.02825 0.56304 0.50962 0.0
C1189 C 0.01457 0.57203 0.53322 0.0
C1190 C 0.94916 0.57376 0.46765 0.0
C1191 C 0.06504 0.5519 0.50803 0.0
C1192 C 0.0304 0.49763 0.43629 0.0
C1193 C 0.04743 0.51961 0.41904 0.0
C1194 C 0.01671 0.51151 0.45863 0.0
C1195 C 0.0198 0.54835 0.46377 0.0
C1196 C 0.03593 0.57093 0.4461 0.0
C1197 C 0.04969 0.55627 0.42398 0.0
C1198 C -0.00027 0.48653 0.47706 0.0
C1199 C 0.03925 0.61041 0.45082 0.0
H1200 H 0.93279 0.58824 0.51587 0.0
H1201 H 0.03063 0.57092 0.54984 0.0
H1202 H 0.9612 0.58809 0.45169 0.0
H1203 H 0.94423 0.54609 0.4613 0.0
H1204 H 0.92441 0.58658 0.47196 0.0
H1205 H 0.07887 0.55639 0.52605 0.0
H1206 H 0.06653 0.52319 0.50323 0.0
H1207 H 0.07817 0.56675 0.49281 0.0
H1208 H 0.02852 0.46929 0.43271 0.0
H1209 H 0.06264 0.57352 0.41072 0.0
H1210 H 0.97341 0.49552 0.48092 0.0
H1211 H 0.01368 0.48682 0.49528 0.0
H1212 H -0.00121 0.45871 0.46999 0.0
H1213 H 0.01396 0.62214 0.45481 0.0
H1214 H 0.05067 0.62463 0.43452 0.0
H1215 H 0.05538 0.61509 0.46769 0.0
C1216 C 0.54879 0.44508 0.49943 0.0
C1217 C 0.52475 0.44788 0.51887 0.0
C1218 C 0.53875 0.44454 0.47402 0.0
C1219 C 0.50386 0.44711 0.46791 0.0
C1220 C 0.47937 0.44863 0.48744 0.0
C1221 C 0.49012 0.44894 0.51272 0.0
C1222 C 0.56559 0.44272 0.45372 0.0
C1223 C 0.44189 0.45138 0.48164 0.0
C1224 C 0.47801 0.48906 0.40576 0.0
C1225 C 0.46797 0.45929 0.39155 0.0
C1226 C 0.49042 0.48532 0.43042 0.0
C1227 C 0.49307 0.45096 0.44116 0.0
C1228 C 0.48434 0.42067 0.42664 0.0
C1229 C 0.47187 0.42519 0.40199 0.0
C1230 C 0.49963 0.5183 0.44528 0.0
C1231 C 0.48715 0.38361 0.43743 0.0
H1232 H 0.57561 0.44436 0.50397 0.0
H1233 H 0.4714 0.45105 0.52762 0.0
H1234 H 0.55933 0.42153 0.43988 0.0
H1235 H 0.56635 0.46829 0.44327 0.0
H1236 H 0.59128 0.43747 0.46159 0.0
H1237 H 0.42601 0.4499 0.49892 0.0
H1238 H 0.43663 0.47702 0.47201 0.0
H1239 H 0.43406 0.42976 0.4686 0.0
H1240 H 0.47527 0.51553 0.3979 0.0
H1241 H 0.46427 0.40199 0.3912 0.0
H1242 H 0.52605 0.51626 0.45246 0.0
H1243 H 0.4827 0.52073 0.46192 0.0
H1244 H 0.49739 0.54296 0.43384 0.0
H1245 H 0.51304 0.37911 0.44508 0.0
H1246 H 0.48157 0.36274 0.42314 0.0
H1247 H 0.46908 0.38056 0.45333 0.0
loop_
_geom_bond_atom_site_label_1
_geom_bond_atom_site_label_2
_geom_bond_distance
_geom_bond_site_symmetry_2
_ccdc_geom_bond_type
Mg0 O1 2.028 . S
Mg0 O7 1.986 . S
Mg0 O9 2.114 . S
Mg0 O10 2.251 . S
Mg0 O13 2.010 . S
O1 Mg0 2.028 . S
O1 C4 1.250 . S
O2 Mg3 2.028 . S
O2 C4 1.248 1_565 S
Mg3 O2 2.028 . S
Mg3 O8 2.032 . S
Mg3 O10 2.079 1_565 S
C4 O1 1.250 . S
C4 O2 1.248 1_545 S
C5 O6 1.264 . S
C5 O13 1.249 . S
O6 C5 1.264 . S
O7 Mg0 1.986 . S
O7 C11 1.246 . S
O8 Mg3 2.032 . S
O8 C11 1.259 1_565 S
O9 Mg0 2.114 . S
O9 C12 1.252 . S
O10 Mg0 2.251 . S
O10 Mg3 2.079 1_545 S
O10 C12 1.273 . S
C11 O7 1.246 . S
C11 O8 1.259 1_545 S
C12 O9 1.252 . S
C12 O10 1.273 . S
O13 Mg0 2.010 . S
O13 C5 1.249 . S
Mg14 O15 2.028 . S
Mg14 O21 1.986 . S
Mg14 O23 2.114 . S
Mg14 O24 2.251 . S
Mg14 O27 2.010 . S
O15 Mg14 2.028 . S
O15 C18 1.250 . S
O16 Mg17 2.028 . S
O16 C18 1.248 1_545 S
Mg17 O16 2.028 . S
Mg17 O22 2.032 . S
Mg17 O24 2.079 1_545 S
C18 O15 1.250 . S
C18 O16 1.248 1_565 S
C19 O20 1.264 . S
C19 O27 1.249 . S
O20 C19 1.264 . S
O21 Mg14 1.986 . S
O21 C25 1.246 . S
O22 Mg17 2.032 . S
O22 C25 1.259 1_545 S
O23 Mg14 2.114 . S
O23 C26 1.252 . S
O24 Mg14 2.251 . S
O24 Mg17 2.079 1_565 S
O24 C26 1.273 . S
C25 O21 1.246 . S
C25 O22 1.259 1_565 S
C26 O23 1.252 . S
C26 O24 1.273 . S
O27 Mg14 2.010 . S
O27 C19 1.249 . S
Mg28 O29 2.028 . S
Mg28 O35 1.986 . S
Mg28 O37 2.114 . S
Mg28 O38 2.251 . S
Mg28 O41 2.010 . S
O29 Mg28 2.028 . S
O29 C32 1.250 . S
O30 Mg31 2.028 . S
O30 C32 1.248 1_545 S
Mg31 O30 2.028 . S
Mg31 O36 2.032 . S
Mg31 O38 2.079 1_545 S
C32 O29 1.250 . S
C32 O30 1.248 1_565 S
C33 O34 1.264 . S
C33 O41 1.249 . S
O34 C33 1.264 . S
O35 Mg28 1.986 . S
O35 C39 1.246 . S
O36 Mg31 2.032 . S
O36 C39 1.259 1_545 S
O37 Mg28 2.114 . S
O37 C40 1.252 . S
O38 Mg28 2.251 . S
O38 Mg31 2.079 1_565 S
O38 C40 1.273 . S
C39 O35 1.246 . S
C39 O36 1.259 1_565 S
C40 O37 1.252 . S
C40 O38 1.273 . S
O41 Mg28 2.010 . S
O41 C33 1.249 . S
Mg42 O43 2.028 . S
Mg42 O49 1.986 . S
Mg42 O51 2.114 . S
Mg42 O52 2.251 . S
Mg42 O55 2.010 . S
O43 Mg42 2.028 . S
O43 C46 1.250 . S
O44 Mg45 2.028 . S
O44 C46 1.248 1_565 S
Mg45 O44 2.028 . S
Mg45 O50 2.032 . S
Mg45 O52 2.079 1_565 S
C46 O43 1.250 . S
C46 O44 1.248 1_545 S
C47 O48 1.264 . S
C47 O55 1.249 . S
O48 C47 1.264 . S
O49 Mg42 1.986 . S
O49 C53 1.246 . S
O50 Mg45 2.032 . S
O50 C53 1.259 1_565 S
O51 Mg42 2.114 . S
O51 C54 1.252 . S
O52 Mg42 2.251 . S
O52 Mg45 2.079 1_545 S
O52 C54 1.273 . S
C53 O49 1.246 . S
C53 O50 1.259 1_545 S
C54 O51 1.252 . S
C54 O52 1.273 . S
O55 Mg42 2.010 . S
O55 C47 1.249 . S
Mg56 O57 2.028 . S
Mg56 O63 1.986 . S
Mg56 O65 2.114 . S
Mg56 O66 2.251 . S
Mg56 O69 2.010 . S
O57 Mg56 2.028 . S
O57 C60 1.250 . S
O58 Mg59 2.028 . S
O58 C60 1.248 . S
Mg59 O58 2.028 . S
Mg59 O64 2.032 . S
Mg59 O66 2.079 . S
C60 O57 1.250 . S
C60 O58 1.248 . S
C61 O62 1.238 1_565 S
C61 O69 1.249 . S
O62 C61 1.238 1_545 S
O63 Mg56 1.986 . S
O63 C67 1.246 . S
O64 Mg59 2.032 . S
O64 C67 1.259 . S
O65 Mg56 2.114 . S
O65 C68 1.252 . S
O66 Mg56 2.251 . S
O66 Mg59 2.079 . S
O66 C68 1.273 . S
C67 O63 1.246 . S
C67 O64 1.259 . S
C68 O65 1.252 . S
C68 O66 1.273 . S
O69 Mg56 2.010 . S
O69 C61 1.249 . S
Mg70 O71 2.028 . S
Mg70 O77 1.986 . S
Mg70 O79 2.114 . S
Mg70 O80 2.251 . S
Mg70 O83 2.010 . S
O71 Mg70 2.028 . S
O71 C74 1.250 . S
O72 Mg73 2.028 . S
O72 C74 1.248 . S
Mg73 O72 2.028 . S
Mg73 O78 2.032 . S
Mg73 O80 2.079 . S
C74 O71 1.250 . S
C74 O72 1.248 . S
C75 O76 1.238 1_545 S
C75 O83 1.249 . S
O76 C75 1.238 1_565 S
O77 Mg70 1.986 . S
O77 C81 1.246 . S
O78 Mg73 2.032 . S
O78 C81 1.259 . S
O79 Mg70 2.114 . S
O79 C82 1.252 . S
O80 Mg70 2.251 . S
O80 Mg73 2.079 . S
O80 C82 1.273 . S
C81 O77 1.246 . S
C81 O78 1.259 . S
C82 O79 1.252 . S
C82 O80 1.273 . S
O83 Mg70 2.010 . S
O83 C75 1.249 . S
Mg84 O85 2.028 . S
Mg84 O91 1.986 . S
Mg84 O93 2.114 . S
Mg84 O94 2.251 . S
Mg84 O97 2.010 . S
O85 Mg84 2.028 . S
O85 C88 1.250 . S
O86 Mg87 2.028 . S
O86 C88 1.248 . S
Mg87 O86 2.028 . S
Mg87 O92 2.032 . S
Mg87 O94 2.079 . S
C88 O85 1.250 . S
C88 O86 1.248 . S
C89 O90 1.238 1_545 S
C89 O97 1.249 . S
O90 C89 1.238 1_565 S
O91 Mg84 1.986 . S
O91 C95 1.246 . S
O92 Mg87 2.032 . S
O92 C95 1.259 . S
O93 Mg84 2.114 . S
O93 C96 1.252 . S
O94 Mg84 2.251 . S
O94 Mg87 2.079 . S
O94 C96 1.273 . S
C95 O91 1.246 . S
C95 O92 1.259 . S
C96 O93 1.252 . S
C96 O94 1.273 . S
O97 Mg84 2.010 . S
O97 C89 1.249 . S
Mg98 O99 2.028 . S
Mg98 O105 1.986 . S
Mg98 O107 2.114 . S
Mg98 O108 2.251 . S
Mg98 O111 2.010 . S
O99 Mg98 2.028 . S
O99 C102 1.250 . S
O100 Mg101 2.028 . S
O100 C102 1.248 . S
Mg101 O100 2.028 . S
Mg101 O106 2.032 . S
Mg101 O108 2.079 . S
C102 O99 1.250 . S
C102 O100 1.248 . S
C103 O104 1.238 1_565 S
C103 O111 1.249 . S
O104 C103 1.238 1_545 S
O105 Mg98 1.986 . S
O105 C109 1.246 . S
O106 Mg101 2.032 . S
O106 C109 1.259 . S
O107 Mg98 2.114 . S
O107 C110 1.252 . S
O108 Mg98 2.251 . S
O108 Mg101 2.079 . S
O108 C110 1.273 . S
C109 O105 1.246 . S
C109 O106 1.259 . S
C110 O107 1.252 . S
C110 O108 1.273 . S
O111 Mg98 2.010 . S
O111 C103 1.249 . S
Mg112 O113 2.028 . S
Mg112 O119 1.986 . S
Mg112 O121 2.114 . S
Mg112 O122 2.251 . S
Mg112 O125 2.010 . S
O113 Mg112 2.028 . S
O113 C116 1.250 . S
O114 Mg115 2.028 . S
O114 C116 1.248 . S
Mg115 O114 2.028 . S
Mg115 O120 2.032 . S
Mg115 O122 2.079 . S
C116 O113 1.250 . S
C116 O114 1.248 . S
C117 O118 1.264 . S
C117 O125 1.249 . S
O118 C117 1.264 . S
O119 Mg112 1.986 . S
O119 C123 1.246 . S
O120 Mg115 2.032 . S
O120 C123 1.259 . S
O121 Mg112 2.114 . S
O121 C124 1.252 . S
O122 Mg112 2.251 . S
O122 Mg115 2.079 . S
O122 C124 1.273 . S
C123 O119 1.246 . S
C123 O120 1.259 . S
C124 O121 1.252 . S
C124 O122 1.273 . S
O125 Mg112 2.010 . S
O125 C117 1.249 . S
Mg126 O127 2.028 . S
Mg126 O133 1.986 . S
Mg126 O135 2.114 . S
Mg126 O136 2.251 . S
Mg126 O139 2.010 . S
O127 Mg126 2.028 . S
O127 C130 1.250 . S
O128 Mg129 2.028 . S
O128 C130 1.248 . S
Mg129 O128 2.028 . S
Mg129 O134 2.032 . S
Mg129 O136 2.079 . S
C130 O127 1.250 . S
C130 O128 1.248 . S
C131 O132 1.264 . S
C131 O139 1.249 . S
O132 C131 1.264 . S
O133 Mg126 1.986 . S
O133 C137 1.246 . S
O134 Mg129 2.032 . S
O134 C137 1.259 . S
O135 Mg126 2.114 . S
O135 C138 1.252 . S
O136 Mg126 2.251 . S
O136 Mg129 2.079 . S
O136 C138 1.273 . S
C137 O133 1.246 . S
C137 O134 1.259 . S
C138 O135 1.252 . S
C138 O136 1.273 . S
O139 Mg126 2.010 . S
O139 C131 1.249 . S
Mg140 O141 2.028 . S
Mg140 O147 1.986 . S
Mg140 O149 2.114 . S
Mg140 O150 2.251 . S
Mg140 O153 2.010 . S
O141 Mg140 2.028 . S
O141 C144 1.250 . S
O142 Mg143 2.028 . S
O142 C144 1.248 . S
Mg143 O142 2.028 . S
Mg143 O148 2.032 . S
Mg143 O150 2.079 . S
C144 O141 1.250 . S
C144 O142 1.248 . S
C145 O146 1.264 . S
C145 O153 1.249 . S
O146 C145 1.264 . S
O147 Mg140 1.986 . S
O147 C151 1.246 . S
O148 Mg143 2.032 . S
O148 C151 1.259 . S
O149 Mg140 2.114 . S
O149 C152 1.252 . S
O150 Mg140 2.251 . S
O150 Mg143 2.079 . S
O150 C152 1.273 . S
C151 O147 1.246 . S
C151 O148 1.259 . S
C152 O149 1.252 . S
C152 O150 1.273 . S
O153 Mg140 2.010 . S
O153 C145 1.249 . S
Mg154 O155 2.028 . S
Mg154 O161 1.986 . S
Mg154 O163 2.114 . S
Mg154 O164 2.251 . S
Mg154 O167 2.010 . S
O155 Mg154 2.028 . S
O155 C158 1.250 . S
O156 Mg157 2.028 . S
O156 C158 1.248 . S
Mg157 O156 2.028 . S
Mg157 O162 2.032 . S
Mg157 O164 2.079 . S
C158 O155 1.250 . S
C158 O156 1.248 . S
C159 O160 1.264 . S
C159 O167 1.249 . S
O160 C159 1.264 . S
O161 Mg154 1.986 . S
O161 C165 1.246 . S
O162 Mg157 2.032 . S
O162 C165 1.259 . S
O163 Mg154 2.114 . S
O163 C166 1.252 . S
O164 Mg154 2.251 . S
O164 Mg157 2.079 . S
O164 C166 1.273 . S
C165 O161 1.246 . S
C165 O162 1.259 . S
C166 O163 1.252 . S
C166 O164 1.273 . S
O167 Mg154 2.010 . S
O167 C159 1.249 . S
Mg168 O169 2.028 . S
Mg168 O175 1.986 . S
Mg168 O177 2.114 . S
Mg168 O178 2.251 . S
Mg168 O181 2.010 . S
O169 Mg168 2.028 . S
O169 C172 1.250 . S
O170 Mg171 2.028 . S
O170 C172 1.248 . S
Mg171 O170 2.028 . S
Mg171 O176 2.032 . S
Mg171 O178 2.079 . S
C172 O169 1.250 . S
C172 O170 1.248 . S
C173 O174 1.264 . S
C173 O181 1.249 . S
O174 C173 1.264 . S
O175 Mg168 1.986 . S
O175 C179 1.246 . S
O176 Mg171 2.032 . S
O176 C179 1.259 . S
O177 Mg168 2.114 . S
O177 C180 1.252 . S
O178 Mg168 2.251 . S
O178 Mg171 2.079 . S
O178 C180 1.273 . S
C179 O175 1.246 . S
C179 O176 1.259 . S
C180 O177 1.252 . S
C180 O178 1.273 . S
O181 Mg168 2.010 . S
O181 C173 1.249 . S
Mg182 O183 2.028 . S
Mg182 O189 1.986 . S
Mg182 O191 2.114 . S
Mg182 O192 2.251 . S
Mg182 O195 2.010 . S
O183 Mg182 2.028 . S
O183 C186 1.250 . S
O184 Mg185 2.028 . S
O184 C186 1.248 . S
Mg185 O184 2.028 . S
Mg185 O190 2.032 . S
Mg185 O192 2.079 . S
C186 O183 1.250 . S
C186 O184 1.248 . S
C187 O188 1.264 . S
C187 O195 1.249 . S
O188 C187 1.264 . S
O189 Mg182 1.986 . S
O189 C193 1.246 . S
O190 Mg185 2.032 . S
O190 C193 1.259 . S
O191 Mg182 2.114 . S
O191 C194 1.252 . S
O192 Mg182 2.251 . S
O192 Mg185 2.079 . S
O192 C194 1.273 . S
C193 O189 1.246 . S
C193 O190 1.259 . S
C194 O191 1.252 . S
C194 O192 1.273 . S
O195 Mg182 2.010 . S
O195 C187 1.249 . S
Mg196 O197 2.028 . S
Mg196 O203 1.986 . S
Mg196 O205 2.114 . S
Mg196 O206 2.251 . S
Mg196 O209 2.010 . S
O197 Mg196 2.028 . S
O197 C200 1.250 . S
O198 Mg199 2.028 . S
O198 C200 1.248 . S
Mg199 O198 2.028 . S
Mg199 O204 2.032 . S
Mg199 O206 2.079 . S
C200 O197 1.250 . S
C200 O198 1.248 . S
C201 O202 1.264 . S
C201 O209 1.249 . S
O202 C201 1.264 . S
O203 Mg196 1.986 . S
O203 C207 1.246 . S
O204 Mg199 2.032 . S
O204 C207 1.259 . S
O205 Mg196 2.114 . S
O205 C208 1.252 . S
O206 Mg196 2.251 . S
O206 Mg199 2.079 . S
O206 C208 1.273 . S
C207 O203 1.246 . S
C207 O204 1.259 . S
C208 O205 1.252 . S
C208 O206 1.273 . S
O209 Mg196 2.010 . S
O209 C201 1.249 . S
Mg210 O211 2.028 . S
Mg210 O217 1.986 . S
Mg210 O219 2.114 . S
Mg210 O220 2.251 . S
Mg210 O223 2.010 . S
O211 Mg210 2.028 . S
O211 C214 1.250 . S
O212 Mg213 2.028 . S
O212 C214 1.248 . S
Mg213 O212 2.028 . S
Mg213 O218 2.032 . S
Mg213 O220 2.079 . S
C214 O211 1.250 . S
C214 O212 1.248 . S
C215 O216 1.264 . S
C215 O223 1.249 . S
O216 C215 1.264 . S
O217 Mg210 1.986 . S
O217 C221 1.246 . S
O218 Mg213 2.032 . S
O218 C221 1.259 . S
O219 Mg210 2.114 . S
O219 C222 1.252 . S
O220 Mg210 2.251 . S
O220 Mg213 2.079 . S
O220 C222 1.273 . S
C221 O217 1.246 . S
C221 O218 1.259 . S
C222 O219 1.252 . S
C222 O220 1.273 . S
O223 Mg210 2.010 . S
O223 C215 1.249 . S
C224 C225 1.391 . S
C224 C226 1.394 . S
C224 H240 0.931 . S
C225 C224 1.391 . S
C225 C229 1.376 . S
C226 C224 1.394 . S
C226 C227 1.369 . S
C226 C230 1.531 . S
C227 C226 1.369 . S
C227 C228 1.410 . S
C227 C235 1.503 . S
C228 C227 1.410 . S
C228 C229 1.392 . S
C228 C231 1.511 . S
C229 C225 1.376 . S
C229 C228 1.392 . S
C229 H241 0.929 . S
C230 C226 1.531 . S
C230 H242 0.960 . S
C230 H243 0.962 1_565 S
C230 H244 0.960 . S
C231 C228 1.511 . S
C231 H245 0.961 . S
C231 H246 0.961 1_565 S
C231 H247 0.961 . S
C232 C233 1.370 . S
C232 C234 1.363 . S
C232 H248 0.931 . S
C233 C232 1.370 . S
C233 C237 1.408 1_545 S
C234 C232 1.363 . S
C234 C235 1.370 1_545 S
C234 C238 1.524 . S
C235 C227 1.503 . S
C235 C234 1.370 1_565 S
C235 C236 1.403 . S
C236 C235 1.403 . S
C236 C237 1.404 . S
C236 C239 1.539 . S
C237 C233 1.408 1_565 S
C237 C236 1.404 . S
C237 H249 0.930 . S
C238 C234 1.524 . S
C238 H250 0.956 . S
C238 H251 0.961 . S
C238 H252 0.961 . S
C239 C236 1.539 . S
C239 H253 0.958 . S
C239 H254 0.961 . S
C239 H255 0.960 . S
H240 C224 0.931 . S
H241 C229 0.929 . S
H242 C230 0.960 . S
H243 C230 0.962 1_545 S
H244 C230 0.960 . S
H245 C231 0.961 . S
H246 C231 0.961 1_545 S
H247 C231 0.961 . S
H248 C232 0.931 . S
H249 C237 0.930 . S
H250 C238 0.956 . S
H251 C238 0.961 . S
H252 C238 0.961 . S
H253 C239 0.958 . S
H254 C239 0.961 . S
H255 C239 0.960 . S
C256 C257 1.391 . S
C256 C258 1.394 . S
C256 H272 0.931 . S
C257 C256 1.391 . S
C257 C261 1.376 . S
C258 C256 1.394 . S
C258 C259 1.369 . S
C258 C262 1.531 . S
C259 C258 1.369 . S
C259 C260 1.410 . S
C259 C267 1.503 . S
C260 C259 1.410 . S
C260 C261 1.392 . S
C260 C263 1.511 . S
C261 C257 1.376 . S
C261 C260 1.392 . S
C261 H273 0.929 . S
C262 C258 1.531 . S
C262 H274 0.960 . S
C262 H275 0.962 . S
C262 H276 0.960 . S
C263 C260 1.511 . S
C263 H277 0.961 1_565 S
C263 H278 0.961 1_565 S
C263 H279 0.961 . S
C264 C265 1.370 . S
C264 C266 1.363 . S
C264 H280 0.931 . S
C265 C264 1.370 . S
C265 C269 1.408 1_545 S
C266 C264 1.363 . S
C266 C267 1.370 1_545 S
C266 C270 1.524 . S
C267 C259 1.503 . S
C267 C266 1.370 1_565 S
C267 C268 1.403 . S
C268 C267 1.403 . S
C268 C269 1.404 . S
C268 C271 1.539 . S
C269 C265 1.408 1_565 S
C269 C268 1.404 . S
C269 H281 0.930 . S
C270 C266 1.524 . S
C270 H282 0.956 . S
C270 H283 0.961 . S
C270 H284 0.961 . S
C271 C268 1.539 . S
C271 H285 0.958 . S
C271 H286 0.961 . S
C271 H287 0.960 . S
H272 C256 0.931 . S
H273 C261 0.929 . S
H274 C262 0.960 . S
H275 C262 0.962 . S
H276 C262 0.960 . S
H277 C263 0.961 1_545 S
H278 C263 0.961 1_545 S
H279 C263 0.961 . S
H280 C264 0.931 . S
H281 C269 0.930 . S
H282 C270 0.956 . S
H283 C270 0.961 . S
H284 C270 0.961 . S
H285 C271 0.958 . S
H286 C271 0.961 . S
H287 C271 0.960 . S
C288 C289 1.391 . S
C288 C290 1.389 1_565 S
C288 H304 0.931 . S
C289 C288 1.391 . S
C289 C293 1.376 . S
C290 C288 1.389 1_545 S
C290 C291 1.368 1_545 S
C290 C294 1.536 . S
C291 C290 1.368 1_565 S
C291 C292 1.410 . S
C291 C299 1.503 1_565 S
C292 C291 1.410 . S
C292 C293 1.392 . S
C292 C295 1.511 . S
C293 C289 1.376 . S
C293 C292 1.392 . S
C293 H305 0.929 . S
C294 C290 1.536 . S
C294 H306 0.960 . S
C294 H307 0.962 . S
C294 H308 0.960 . S
C295 C292 1.511 . S
C295 H309 0.961 . S
C295 H310 0.961 . S
C295 H311 0.961 . S
C296 C297 1.370 . S
C296 C298 1.363 1_545 S
C296 H312 0.931 1_545 S
C297 C296 1.370 . S
C297 C301 1.408 . S
C298 C296 1.363 1_565 S
C298 C299 1.370 1_565 S
C298 C302 1.524 . S
C299 C291 1.503 1_545 S
C299 C298 1.370 1_545 S
C299 C300 1.403 . S
C300 C299 1.403 . S
C300 C301 1.404 . S
C300 C303 1.539 . S
C301 C297 1.408 . S
C301 C300 1.404 . S
C301 H313 0.930 . S
C302 C298 1.524 . S
C302 H314 0.956 . S
C302 H315 0.961 . S
C302 H316 0.961 . S
C303 C300 1.539 . S
C303 H317 0.958 . S
C303 H318 0.961 . S
C303 H319 0.960 . S
H304 C288 0.931 . S
H305 C293 0.929 . S
H306 C294 0.960 . S
H307 C294 0.962 . S
H308 C294 0.960 . S
H309 C295 0.961 . S
H310 C295 0.961 . S
H311 C295 0.961 . S
H312 C296 0.931 1_565 S
H313 C301 0.930 . S
H314 C302 0.956 . S
H315 C302 0.961 . S
H316 C302 0.961 . S
H317 C303 0.958 . S
H318 C303 0.961 . S
H319 C303 0.960 . S
C320 C321 1.391 . S
C320 C322 1.394 . S
C320 H336 0.931 . S
C321 C320 1.391 . S
C321 C325 1.376 . S
C322 C320 1.394 . S
C322 C323 1.369 . S
C322 C326 1.531 . S
C323 C322 1.369 . S
C323 C324 1.410 1_565 S
C323 C331 1.503 1_565 S
C324 C323 1.410 1_545 S
C324 C325 1.392 1_545 S
C324 C327 1.511 . S
C325 C321 1.376 . S
C325 C324 1.392 1_565 S
C325 H337 0.929 1_565 S
C326 C322 1.531 . S
C326 H338 0.960 . S
C326 H339 0.962 . S
C326 H340 0.960 . S
C327 C324 1.511 . S
C327 H341 0.961 . S
C327 H342 0.961 . S
C327 H343 0.961 . S
C328 C329 1.370 . S
C328 C330 1.363 . S
C328 H344 0.931 . S
C329 C328 1.370 . S
C329 C333 1.408 . S
C330 C328 1.363 . S
C330 C331 1.370 . S
C330 C334 1.524 1_545 S
C331 C323 1.503 1_545 S
C331 C330 1.370 . S
C331 C332 1.403 . S
C332 C331 1.403 . S
C332 C333 1.404 . S
C332 C335 1.539 . S
C333 C329 1.408 . S
C333 C332 1.404 . S
C333 H345 0.930 . S
C334 C330 1.524 1_565 S
C334 H346 0.956 . S
C334 H347 0.961 . S
C334 H348 0.961 . S
C335 C332 1.539 . S
C335 H349 0.958 . S
C335 H350 0.961 . S
C335 H351 0.960 . S
H336 C320 0.931 . S
H337 C325 0.929 1_545 S
H338 C326 0.960 . S
H339 C326 0.962 . S
H340 C326 0.960 . S
H341 C327 0.961 . S
H342 C327 0.961 . S
H343 C327 0.961 . S
H344 C328 0.931 . S
H345 C333 0.930 . S
H346 C334 0.956 . S
H347 C334 0.961 . S
H348 C334 0.961 . S
H349 C335 0.958 . S
H350 C335 0.961 . S
H351 C335 0.960 . S
C352 C353 1.391 . S
C352 C354 1.394 . S
C352 H368 0.931 . S
C353 C352 1.391 . S
C353 C357 1.376 . S
C354 C352 1.394 . S
C354 C355 1.369 . S
C354 C358 1.531 . S
C355 C354 1.369 . S
C355 C356 1.410 . S
C355 C363 1.503 . S
C356 C355 1.410 . S
C356 C357 1.392 . S
C356 C359 1.511 . S
C357 C353 1.376 . S
C357 C356 1.392 . S
C357 H369 0.929 . S
C358 C354 1.531 . S
C358 H370 0.960 . S
C358 H371 0.962 . S
C358 H372 0.960 . S
C359 C356 1.511 . S
C359 H373 0.961 . S
C359 H374 0.961 . S
C359 H375 0.961 . S
C360 C361 1.370 . S
C360 C362 1.363 . S
C360 H376 0.931 . S
C361 C360 1.370 . S
C361 C365 1.408 . S
C362 C360 1.363 . S
C362 C363 1.370 . S
C362 C366 1.524 . S
C363 C355 1.503 . S
C363 C362 1.370 . S
C363 C364 1.403 . S
C364 C363 1.403 . S
C364 C365 1.404 . S
C364 C367 1.539 . S
C365 C361 1.408 . S
C365 C364 1.404 . S
C365 H377 0.930 . S
C366 C362 1.524 . S
C366 H378 0.956 . S
C366 H379 0.961 . S
C366 H380 0.961 . S
C367 C364 1.539 . S
C367 H381 0.958 . S
C367 H382 0.961 . S
C367 H383 0.960 . S
H368 C352 0.931 . S
H369 C357 0.929 . S
H370 C358 0.960 . S
H371 C358 0.962 . S
H372 C358 0.960 . S
H373 C359 0.961 . S
H374 C359 0.961 . S
H375 C359 0.961 . S
H376 C360 0.931 . S
H377 C365 0.930 . S
H378 C366 0.956 . S
H379 C366 0.961 . S
H380 C366 0.961 . S
H381 C367 0.958 . S
H382 C367 0.961 . S
H383 C367 0.960 . S
C384 C385 1.391 . S
C384 C386 1.394 . S
C384 H400 0.931 . S
C385 C384 1.391 . S
C385 C389 1.376 . S
C386 C384 1.394 . S
C386 C387 1.369 . S
C386 C390 1.531 . S
C387 C386 1.369 . S
C387 C388 1.410 . S
C387 C395 1.503 . S
C388 C387 1.410 . S
C388 C389 1.392 . S
C388 C391 1.511 . S
C389 C385 1.376 . S
C389 C388 1.392 . S
C389 H401 0.929 . S
C390 C386 1.531 . S
C390 H402 0.960 . S
C390 H403 0.962 . S
C390 H404 0.960 . S
C391 C388 1.511 . S
C391 H405 0.961 . S
C391 H406 0.961 . S
C391 H407 0.961 . S
C392 C393 1.370 . S
C392 C394 1.363 . S
C392 H408 0.931 . S
C393 C392 1.370 . S
C393 C397 1.408 . S
C394 C392 1.363 . S
C394 C395 1.370 . S
C394 C398 1.524 . S
C395 C387 1.503 . S
C395 C394 1.370 . S
C395 C396 1.403 . S
C396 C395 1.403 . S
C396 C397 1.404 . S
C396 C399 1.539 . S
C397 C393 1.408 . S
C397 C396 1.404 . S
C397 H409 0.930 . S
C398 C394 1.524 . S
C398 H410 0.956 . S
C398 H411 0.961 . S
C398 H412 0.961 . S
C399 C396 1.539 . S
C399 H413 0.958 . S
C399 H414 0.961 . S
C399 H415 0.960 . S
H400 C384 0.931 . S
H401 C389 0.929 . S
H402 C390 0.960 . S
H403 C390 0.962 . S
H404 C390 0.960 . S
H405 C391 0.961 . S
H406 C391 0.961 . S
H407 C391 0.961 . S
H408 C392 0.931 . S
H409 C397 0.930 . S
H410 C398 0.956 . S
H411 C398 0.961 . S
H412 C398 0.961 . S
H413 C399 0.958 . S
H414 C399 0.961 . S
H415 C399 0.960 . S
C416 C417 1.391 . S
C416 C418 1.394 . S
C416 H432 0.931 . S
C417 C416 1.391 . S
C417 C421 1.376 . S
C418 C416 1.394 . S
C418 C419 1.369 . S
C418 C422 1.531 . S
C419 C418 1.369 . S
C419 C420 1.410 . S
C419 C427 1.503 . S
C420 C419 1.410 . S
C420 C421 1.392 . S
C420 C423 1.511 . S
C421 C417 1.376 . S
C421 C420 1.392 . S
C421 H433 0.929 . S
C422 C418 1.531 . S
C422 H434 0.960 . S
C422 H435 0.962 . S
C422 H436 0.960 . S
C423 C420 1.511 . S
C423 H437 0.961 . S
C423 H438 0.961 . S
C423 H439 0.961 . S
C424 C425 1.370 . S
C424 C426 1.363 . S
C424 H440 0.931 . S
C425 C424 1.370 . S
C425 C429 1.408 . S
C426 C424 1.363 . S
C426 C427 1.370 . S
C426 C430 1.524 . S
C427 C419 1.503 . S
C427 C426 1.370 . S
C427 C428 1.403 . S
C428 C427 1.403 . S
C428 C429 1.404 . S
C428 C431 1.539 . S
C429 C425 1.408 . S
C429 C428 1.404 . S
C429 H441 0.930 . S
C430 C426 1.524 . S
C430 H442 0.956 . S
C430 H443 0.961 . S
C430 H444 0.961 . S
C431 C428 1.539 . S
C431 H445 0.958 . S
C431 H446 0.961 . S
C431 H447 0.960 . S
H432 C416 0.931 . S
H433 C421 0.929 . S
H434 C422 0.960 . S
H435 C422 0.962 . S
H436 C422 0.960 . S
H437 C423 0.961 . S
H438 C423 0.961 . S
H439 C423 0.961 . S
H440 C424 0.931 . S
H441 C429 0.930 . S
H442 C430 0.956 . S
H443 C430 0.961 . S
H444 C430 0.961 . S
H445 C431 0.958 . S
H446 C431 0.961 . S
H447 C431 0.960 . S
C448 C449 1.391 . S
C448 C450 1.394 . S
C448 H464 0.931 . S
C449 C448 1.391 . S
C449 C453 1.376 . S
C450 C448 1.394 . S
C450 C451 1.369 . S
C450 C454 1.531 . S
C451 C450 1.369 . S
C451 C452 1.410 . S
C451 C459 1.503 . S
C452 C451 1.410 . S
C452 C453 1.392 . S
C452 C455 1.511 . S
C453 C449 1.376 . S
C453 C452 1.392 . S
C453 H465 0.929 . S
C454 C450 1.531 . S
C454 H466 0.960 . S
C454 H467 0.962 . S
C454 H468 0.960 . S
C455 C452 1.511 . S
C455 H469 0.961 . S
C455 H470 0.961 . S
C455 H471 0.961 . S
C456 C457 1.370 . S
C456 C458 1.363 . S
C456 H472 0.931 . S
C457 C456 1.370 . S
C457 C461 1.408 . S
C458 C456 1.363 . S
C458 C459 1.370 . S
C458 C462 1.524 . S
C459 C451 1.503 . S
C459 C458 1.370 . S
C459 C460 1.403 . S
C460 C459 1.403 . S
C460 C461 1.404 . S
C460 C463 1.539 . S
C461 C457 1.408 . S
C461 C460 1.404 . S
C461 H473 0.930 . S
C462 C458 1.524 . S
C462 H474 0.956 . S
C462 H475 0.961 . S
C462 H476 0.961 . S
C463 C460 1.539 . S
C463 H477 0.958 . S
C463 H478 0.961 . S
C463 H479 0.960 . S
H464 C448 0.931 . S
H465 C453 0.929 . S
H466 C454 0.960 . S
H467 C454 0.962 . S
H468 C454 0.960 . S
H469 C455 0.961 . S
H470 C455 0.961 . S
H471 C455 0.961 . S
H472 C456 0.931 . S
H473 C461 0.930 . S
H474 C462 0.956 . S
H475 C462 0.961 . S
H476 C462 0.961 . S
H477 C463 0.958 . S
H478 C463 0.961 . S
H479 C463 0.960 . S
C480 C481 1.391 1_565 S
C480 C482 1.394 . S
C480 H496 0.931 . S
C481 C480 1.391 1_545 S
C481 C485 1.376 . S
C482 C480 1.394 . S
C482 C483 1.369 1_565 S
C482 C486 1.531 1_655 S
C483 C482 1.369 1_545 S
C483 C484 1.410 . S
C483 C491 1.497 1_655 S
C484 C483 1.410 . S
C484 C485 1.392 . S
C484 C487 1.511 . S
C485 C481 1.376 . S
C485 C484 1.392 . S
C485 H497 0.929 . S
C486 C482 1.531 1_455 S
C486 H498 0.960 . S
C486 H499 0.962 . S
C486 H500 0.954 1_455 S
C487 C484 1.511 . S
C487 H501 0.961 . S
C487 H502 0.961 . S
C487 H503 0.961 . S
C488 C489 1.370 . S
C488 C490 1.363 . S
C488 H504 0.931 . S
C489 C488 1.370 . S
C489 C493 1.408 1_455 S
C490 C488 1.363 . S
C490 C491 1.389 . S
C490 C494 1.524 . S
C491 C483 1.497 1_455 S
C491 C490 1.389 . S
C491 C492 1.391 1_455 S
C492 C491 1.391 1_655 S
C492 C493 1.404 . S
C492 C495 1.539 1_545 S
C493 C489 1.408 1_655 S
C493 C492 1.404 . S
C493 H505 0.930 . S
C494 C490 1.524 . S
C494 H506 0.956 . S
C494 H507 0.961 . S
C494 H508 0.961 . S
C495 C492 1.539 1_565 S
C495 H509 0.958 . S
C495 H510 0.961 1_565 S
C495 H511 0.960 1_565 S
H496 C480 0.931 . S
H497 C485 0.929 . S
H498 C486 0.960 . S
H499 C486 0.962 . S
H500 C486 0.954 1_655 S
H501 C487 0.961 . S
H502 C487 0.961 . S
H503 C487 0.961 . S
H504 C488 0.931 . S
H505 C493 0.930 . S
H506 C494 0.956 . S
H507 C494 0.961 . S
H508 C494 0.961 . S
H509 C495 0.958 . S
H510 C495 0.961 1_545 S
H511 C495 0.960 1_545 S
C512 C513 1.391 . S
C512 C514 1.394 . S
C512 H528 0.931 . S
C513 C512 1.391 . S
C513 C517 1.376 . S
C514 C512 1.394 . S
C514 C515 1.369 . S
C514 C518 1.531 . S
C515 C514 1.369 . S
C515 C516 1.410 . S
C515 C523 1.503 . S
C516 C515 1.410 . S
C516 C517 1.392 . S
C516 C519 1.511 1_565 S
C517 C513 1.376 . S
C517 C516 1.392 . S
C517 H529 0.929 1_565 S
C518 C514 1.531 . S
C518 H530 0.960 . S
C518 H531 0.962 . S
C518 H532 0.960 . S
C519 C516 1.511 1_545 S
C519 H533 0.961 . S
C519 H534 0.961 . S
C519 H535 0.961 . S
C520 C521 1.370 . S
C520 C522 1.363 . S
C520 H536 0.931 1_565 S
C521 C520 1.370 . S
C521 C525 1.408 . S
C522 C520 1.363 . S
C522 C523 1.370 . S
C522 C526 1.524 1_565 S
C523 C515 1.503 . S
C523 C522 1.370 . S
C523 C524 1.403 . S
C524 C523 1.403 . S
C524 C525 1.404 . S
C524 C527 1.539 . S
C525 C521 1.408 . S
C525 C524 1.404 . S
C525 H537 0.930 . S
C526 C522 1.524 1_545 S
C526 H538 0.956 . S
C526 H539 0.961 . S
C526 H540 0.961 . S
C527 C524 1.539 . S
C527 H541 0.958 . S
C527 H542 0.961 . S
C527 H543 0.960 . S
H528 C512 0.931 . S
H529 C517 0.929 1_545 S
H530 C518 0.960 . S
H531 C518 0.962 . S
H532 C518 0.960 . S
H533 C519 0.961 . S
H534 C519 0.961 . S
H535 C519 0.961 . S
H536 C520 0.931 1_545 S
H537 C525 0.930 . S
H538 C526 0.956 . S
H539 C526 0.961 . S
H540 C526 0.961 . S
H541 C527 0.958 . S
H542 C527 0.961 . S
H543 C527 0.960 . S
C544 C545 1.391 1_655 S
C544 C546 1.394 . S
C544 H560 0.931 . S
C545 C544 1.391 1_455 S
C545 C549 1.376 . S
C546 C544 1.394 . S
C546 C547 1.369 1_655 S
C546 C550 1.531 . S
C547 C546 1.369 1_455 S
C547 C548 1.410 . S
C547 C555 1.503 1_455 S
C548 C547 1.410 . S
C548 C549 1.392 . S
C548 C551 1.511 . S
C549 C545 1.376 . S
C549 C548 1.392 . S
C549 H561 0.929 . S
C550 C546 1.531 . S
C550 H562 0.960 . S
C550 H563 0.962 . S
C550 H564 0.960 . S
C551 C548 1.511 . S
C551 H565 0.961 1_565 S
C551 H566 0.961 . S
C551 H567 0.961 . S
C552 C553 1.370 . S
C552 C554 1.363 . S
C552 H568 0.931 . S
C553 C552 1.370 . S
C553 C557 1.408 1_655 S
C554 C552 1.363 . S
C554 C555 1.370 . S
C554 C558 1.524 1_565 S
C555 C547 1.503 1_655 S
C555 C554 1.370 . S
C555 C556 1.403 1_655 S
C556 C555 1.403 1_455 S
C556 C557 1.404 . S
C556 C559 1.539 . S
C557 C553 1.408 1_455 S
C557 C556 1.404 . S
C557 H569 0.930 . S
C558 C554 1.524 1_545 S
C558 H570 0.956 1_545 S
C558 H571 0.961 . S
C558 H572 0.961 . S
C559 C556 1.539 . S
C559 H573 0.958 . S
C559 H574 0.961 . S
C559 H575 0.960 . S
H560 C544 0.931 . S
H561 C549 0.929 . S
H562 C550 0.960 . S
H563 C550 0.962 . S
H564 C550 0.960 . S
H565 C551 0.961 1_545 S
H566 C551 0.961 . S
H567 C551 0.961 . S
H568 C552 0.931 . S
H569 C557 0.930 . S
H570 C558 0.956 1_565 S
H571 C558 0.961 . S
H572 C558 0.961 . S
H573 C559 0.958 . S
H574 C559 0.961 . S
H575 C559 0.960 . S
C576 C577 1.391 . S
C576 C578 1.394 . S
C576 H592 0.931 . S
C577 C576 1.391 . S
C577 C581 1.376 . S
C578 C576 1.394 . S
C578 C579 1.369 . S
C578 C582 1.531 . S
C579 C578 1.369 . S
C579 C580 1.410 . S
C579 C587 1.503 . S
C580 C579 1.410 . S
C580 C581 1.392 . S
C580 C583 1.511 . S
C581 C577 1.376 . S
C581 C580 1.392 . S
C581 H593 0.929 . S
C582 C578 1.531 . S
C582 H594 0.960 . S
C582 H595 0.962 1_545 S
C582 H596 0.960 . S
C583 C580 1.511 . S
C583 H597 0.961 . S
C583 H598 0.961 . S
C583 H599 0.961 . S
C584 C585 1.370 . S
C584 C586 1.363 . S
C584 H600 0.925 1_545 S
C585 C584 1.370 . S
C585 C589 1.408 . S
C586 C584 1.363 . S
C586 C587 1.370 . S
C586 C590 1.524 1_545 S
C587 C579 1.503 . S
C587 C586 1.370 . S
C587 C588 1.403 . S
C588 C587 1.403 . S
C588 C589 1.404 . S
C588 C591 1.539 . S
C589 C585 1.408 . S
C589 C588 1.404 . S
C589 H601 0.930 . S
C590 C586 1.524 1_565 S
C590 H602 0.956 . S
C590 H603 0.961 1_565 S
C590 H604 0.961 . S
C591 C588 1.539 . S
C591 H605 0.958 . S
C591 H606 0.961 . S
C591 H607 0.960 . S
H592 C576 0.931 . S
H593 C581 0.929 . S
H594 C582 0.960 . S
H595 C582 0.962 1_565 S
H596 C582 0.960 . S
H597 C583 0.961 . S
H598 C583 0.961 . S
H599 C583 0.961 . S
H600 C584 0.925 1_565 S
H601 C589 0.930 . S
H602 C590 0.956 . S
H603 C590 0.961 1_545 S
H604 C590 0.961 . S
H605 C591 0.958 . S
H606 C591 0.961 . S
H607 C591 0.960 . S
C608 C609 1.391 . S
C608 C610 1.394 . S
C608 H624 0.931 . S
C609 C608 1.391 . S
C609 C613 1.376 . S
C610 C608 1.394 . S
C610 C611 1.369 . S
C610 C614 1.531 . S
C611 C610 1.369 . S
C611 C612 1.410 . S
C611 C619 1.503 . S
C612 C611 1.410 . S
C612 C613 1.392 . S
C612 C615 1.511 . S
C613 C609 1.376 . S
C613 C612 1.392 . S
C613 H625 0.929 . S
C614 C610 1.531 . S
C614 H626 0.960 . S
C614 H627 0.962 . S
C614 H628 0.960 . S
C615 C612 1.511 . S
C615 H629 0.961 . S
C615 H630 0.961 . S
C615 H631 0.961 . S
C616 C617 1.370 . S
C616 C618 1.363 . S
C616 H632 0.931 . S
C617 C616 1.370 . S
C617 C621 1.408 . S
C618 C616 1.363 . S
C618 C619 1.370 . S
C618 C622 1.524 . S
C619 C611 1.503 . S
C619 C618 1.370 . S
C619 C620 1.403 . S
C620 C619 1.403 . S
C620 C621 1.404 . S
C620 C623 1.539 . S
C621 C617 1.408 . S
C621 C620 1.404 . S
C621 H633 0.930 . S
C622 C618 1.524 . S
C622 H634 0.956 . S
C622 H635 0.961 . S
C622 H636 0.961 . S
C623 C620 1.539 . S
C623 H637 0.958 . S
C623 H638 0.961 . S
C623 H639 0.960 . S
H624 C608 0.931 . S
H625 C613 0.929 . S
H626 C614 0.960 . S
H627 C614 0.962 . S
H628 C614 0.960 . S
H629 C615 0.961 . S
H630 C615 0.961 . S
H631 C615 0.961 . S
H632 C616 0.931 . S
H633 C621 0.930 . S
H634 C622 0.956 . S
H635 C622 0.961 . S
H636 C622 0.961 . S
H637 C623 0.958 . S
H638 C623 0.961 . S
H639 C623 0.960 . S
C640 C641 1.391 . S
C640 C642 1.394 . S
C640 H656 0.931 . S
C641 C640 1.391 . S
C641 C645 1.376 1_455 S
C642 C640 1.394 . S
C642 C643 1.375 . S
C642 C646 1.531 . S
C643 C642 1.375 . S
C643 C644 1.406 1_455 S
C643 C651 1.501 1_455 S
C644 C643 1.406 1_655 S
C644 C645 1.392 . S
C644 C647 1.511 . S
C645 C641 1.376 1_655 S
C645 C644 1.392 . S
C645 H657 0.929 . S
C646 C642 1.531 . S
C646 H658 0.960 . S
C646 H659 0.962 . S
C646 H660 0.960 . S
C647 C644 1.511 . S
C647 H661 0.961 . S
C647 H662 0.961 . S
C647 H663 0.961 . S
C648 C649 1.396 . S
C648 C650 1.355 1_655 S
C648 H664 0.914 1_655 S
C649 C648 1.396 . S
C649 C653 1.408 . S
C650 C648 1.355 1_455 S
C650 C651 1.370 1_455 S
C650 C654 1.524 . S
C651 C643 1.501 1_655 S
C651 C650 1.370 1_655 S
C651 C652 1.403 . S
C652 C651 1.403 . S
C652 C653 1.404 . S
C652 C655 1.539 . S
C653 C649 1.408 . S
C653 C652 1.404 . S
C653 H665 0.930 . S
C654 C650 1.524 . S
C654 H666 0.956 . S
C654 H667 0.961 . S
C654 H668 0.961 . S
C655 C652 1.539 . S
C655 H669 0.958 . S
C655 H670 0.961 . S
C655 H671 0.960 . S
H656 C640 0.931 . S
H657 C645 0.929 . S
H658 C646 0.960 . S
H659 C646 0.962 . S
H660 C646 0.960 . S
H661 C647 0.961 . S
H662 C647 0.961 . S
H663 C647 0.961 . S
H664 C648 0.914 1_455 S
H665 C653 0.930 . S
H666 C654 0.956 . S
H667 C654 0.961 . S
H668 C654 0.961 . S
H669 C655 0.958 . S
H670 C655 0.961 . S
H671 C655 0.960 . S
C672 C673 1.391 . S
C672 C674 1.394 . S
C672 H688 0.931 . S
C673 C672 1.391 . S
C673 C677 1.376 . S
C674 C672 1.394 . S
C674 C675 1.369 . S
C674 C678 1.531 . S
C675 C674 1.369 . S
C675 C676 1.410 . S
C675 C683 1.503 . S
C676 C675 1.410 . S
C676 C677 1.392 . S
C676 C679 1.511 . S
C677 C673 1.376 . S
C677 C676 1.392 . S
C677 H689 0.929 . S
C678 C674 1.531 . S
C678 H690 0.960 . S
C678 H691 0.962 . S
C678 H692 0.960 . S
C679 C676 1.511 . S
C679 H693 0.961 . S
C679 H694 0.961 . S
C679 H695 0.961 . S
C680 C681 1.370 . S
C680 C682 1.363 . S
C680 H696 0.931 . S
C681 C680 1.370 . S
C681 C685 1.408 . S
C682 C680 1.363 . S
C682 C683 1.370 . S
C682 C686 1.524 . S
C683 C675 1.503 . S
C683 C682 1.370 . S
C683 C684 1.403 . S
C684 C683 1.403 . S
C684 C685 1.404 . S
C684 C687 1.539 . S
C685 C681 1.408 . S
C685 C684 1.404 . S
C685 H697 0.930 . S
C686 C682 1.524 . S
C686 H698 0.956 . S
C686 H699 0.961 . S
C686 H700 0.961 . S
C687 C684 1.539 . S
C687 H701 0.958 . S
C687 H702 0.961 . S
C687 H703 0.960 . S
H688 C672 0.931 . S
H689 C677 0.929 . S
H690 C678 0.960 . S
H691 C678 0.962 . S
H692 C678 0.960 . S
H693 C679 0.961 . S
H694 C679 0.961 . S
H695 C679 0.961 . S
H696 C680 0.931 . S
H697 C685 0.930 . S
H698 C686 0.956 . S
H699 C686 0.961 . S
H700 C686 0.961 . S
H701 C687 0.958 . S
H702 C687 0.961 . S
H703 C687 0.960 . S
C704 C705 1.391 1_655 S
C704 C706 1.394 . S
C704 H720 0.931 . S
C705 C704 1.391 1_455 S
C705 C709 1.376 . S
C706 C704 1.394 . S
C706 C707 1.369 1_655 S
C706 C710 1.531 . S
C707 C706 1.369 1_455 S
C707 C708 1.410 . S
C707 C715 1.501 1_455 S
C708 C707 1.410 . S
C708 C709 1.392 . S
C708 C711 1.511 . S
C709 C705 1.376 . S
C709 C708 1.392 . S
C709 H721 0.929 . S
C710 C706 1.531 . S
C710 H722 0.960 . S
C710 H723 0.962 . S
C710 H724 0.960 . S
C711 C708 1.511 . S
C711 H725 0.961 . S
C711 H726 0.961 . S
C711 H727 0.961 . S
C712 C713 1.370 . S
C712 C714 1.363 . S
C712 H728 0.931 . S
C713 C712 1.370 . S
C713 C717 1.408 1_655 S
C714 C712 1.363 . S
C714 C715 1.377 . S
C714 C718 1.524 . S
C715 C707 1.501 1_655 S
C715 C714 1.377 . S
C715 C716 1.399 1_655 S
C716 C715 1.399 1_455 S
C716 C717 1.404 . S
C716 C719 1.539 . S
C717 C713 1.408 1_455 S
C717 C716 1.404 . S
C717 H729 0.930 . S
C718 C714 1.524 . S
C718 H730 0.956 . S
C718 H731 0.961 . S
C718 H732 0.961 . S
C719 C716 1.539 . S
C719 H733 0.958 . S
C719 H734 0.961 . S
C719 H735 0.960 . S
H720 C704 0.931 . S
H721 C709 0.929 . S
H722 C710 0.960 . S
H723 C710 0.962 . S
H724 C710 0.960 . S
H725 C711 0.961 . S
H726 C711 0.961 . S
H727 C711 0.961 . S
H728 C712 0.931 . S
H729 C717 0.930 . S
H730 C718 0.956 . S
H731 C718 0.961 . S
H732 C718 0.961 . S
H733 C719 0.958 . S
H734 C719 0.961 . S
H735 C719 0.960 . S
C736 C737 1.391 . S
C736 C738 1.396 . S
C736 H752 0.931 . S
C737 C736 1.391 . S
C737 C741 1.376 . S
C738 C736 1.396 . S
C738 C739 1.371 . S
C738 C742 1.526 1_455 S
C739 C738 1.371 . S
C739 C740 1.410 . S
C739 C747 1.503 1_455 S
C740 C739 1.410 . S
C740 C741 1.392 . S
C740 C743 1.511 . S
C741 C737 1.376 . S
C741 C740 1.392 . S
C741 H753 0.929 . S
C742 C738 1.526 1_655 S
C742 H754 0.960 . S
C742 H755 0.962 . S
C742 H756 0.960 . S
C743 C740 1.511 . S
C743 H757 0.961 . S
C743 H758 0.961 . S
C743 H759 0.961 . S
C744 C745 1.370 . S
C744 C746 1.363 . S
C744 H760 0.931 . S
C745 C744 1.370 . S
C745 C749 1.408 . S
C746 C744 1.363 . S
C746 C747 1.370 . S
C746 C750 1.524 . S
C747 C739 1.503 1_655 S
C747 C746 1.370 . S
C747 C748 1.403 1_655 S
C748 C747 1.403 1_455 S
C748 C749 1.404 1_455 S
C748 C751 1.539 . S
C749 C745 1.408 . S
C749 C748 1.404 1_655 S
C749 H761 0.930 1_655 S
C750 C746 1.524 . S
C750 H762 0.956 . S
C750 H763 0.961 . S
C750 H764 0.961 . S
C751 C748 1.539 . S
C751 H765 0.958 . S
C751 H766 0.961 . S
C751 H767 0.960 . S
H752 C736 0.931 . S
H753 C741 0.929 . S
H754 C742 0.960 . S
H755 C742 0.962 . S
H756 C742 0.960 . S
H757 C743 0.961 . S
H758 C743 0.961 . S
H759 C743 0.961 . S
H760 C744 0.931 . S
H761 C749 0.930 1_455 S
H762 C750 0.956 . S
H763 C750 0.961 . S
H764 C750 0.961 . S
H765 C751 0.958 . S
H766 C751 0.961 . S
H767 C751 0.960 . S
C768 C769 1.391 . S
C768 C770 1.394 . S
C768 H784 0.931 . S
C769 C768 1.391 . S
C769 C773 1.376 . S
C770 C768 1.394 . S
C770 C771 1.369 . S
C770 C774 1.531 . S
C771 C770 1.369 . S
C771 C772 1.410 . S
C771 C779 1.503 . S
C772 C771 1.410 . S
C772 C773 1.392 . S
C772 C775 1.511 . S
C773 C769 1.376 . S
C773 C772 1.392 . S
C773 H785 0.929 . S
C774 C770 1.531 . S
C774 H786 0.960 . S
C774 H787 0.962 . S
C774 H788 0.960 . S
C775 C772 1.511 . S
C775 H789 0.961 . S
C775 H790 0.961 . S
C775 H791 0.961 . S
C776 C777 1.370 . S
C776 C778 1.363 . S
C776 H792 0.931 . S
C777 C776 1.370 . S
C777 C781 1.408 . S
C778 C776 1.363 . S
C778 C779 1.370 . S
C778 C782 1.524 . S
C779 C771 1.503 . S
C779 C778 1.370 . S
C779 C780 1.403 . S
C780 C779 1.403 . S
C780 C781 1.404 . S
C780 C783 1.539 . S
C781 C777 1.408 . S
C781 C780 1.404 . S
C781 H793 0.930 . S
C782 C778 1.524 . S
C782 H794 0.956 . S
C782 H795 0.961 . S
C782 H796 0.961 . S
C783 C780 1.539 . S
C783 H797 0.958 . S
C783 H798 0.961 . S
C783 H799 0.960 . S
H784 C768 0.931 . S
H785 C773 0.929 . S
H786 C774 0.960 . S
H787 C774 0.962 . S
H788 C774 0.960 . S
H789 C775 0.961 . S
H790 C775 0.961 . S
H791 C775 0.961 . S
H792 C776 0.931 . S
H793 C781 0.930 . S
H794 C782 0.956 . S
H795 C782 0.961 . S
H796 C782 0.961 . S
H797 C783 0.958 . S
H798 C783 0.961 . S
H799 C783 0.960 . S
C800 C801 1.391 . S
C800 C802 1.394 . S
C800 H816 0.931 . S
C801 C800 1.391 . S
C801 C805 1.376 . S
C802 C800 1.394 . S
C802 C803 1.369 . S
C802 C806 1.531 . S
C803 C802 1.369 . S
C803 C804 1.410 . S
C803 C811 1.503 . S
C804 C803 1.410 . S
C804 C805 1.392 . S
C804 C807 1.511 . S
C805 C801 1.376 . S
C805 C804 1.392 . S
C805 H817 0.929 . S
C806 C802 1.531 . S
C806 H818 0.960 . S
C806 H819 0.962 . S
C806 H820 0.960 . S
C807 C804 1.511 . S
C807 H821 0.961 . S
C807 H822 0.961 . S
C807 H823 0.961 . S
C808 C809 1.370 . S
C808 C810 1.363 . S
C808 H824 0.931 . S
C809 C808 1.370 . S
C809 C813 1.408 . S
C810 C808 1.363 . S
C810 C811 1.370 . S
C810 C814 1.524 . S
C811 C803 1.503 . S
C811 C810 1.370 . S
C811 C812 1.403 . S
C812 C811 1.403 . S
C812 C813 1.404 . S
C812 C815 1.539 . S
C813 C809 1.408 . S
C813 C812 1.404 . S
C813 H825 0.930 . S
C814 C810 1.524 . S
C814 H826 0.956 . S
C814 H827 0.961 . S
C814 H828 0.961 . S
C815 C812 1.539 . S
C815 H829 0.958 . S
C815 H830 0.961 . S
C815 H831 0.960 . S
H816 C800 0.931 . S
H817 C805 0.929 . S
H818 C806 0.960 . S
H819 C806 0.962 . S
H820 C806 0.960 . S
H821 C807 0.961 . S
H822 C807 0.961 . S
H823 C807 0.961 . S
H824 C808 0.931 . S
H825 C813 0.930 . S
H826 C814 0.956 . S
H827 C814 0.961 . S
H828 C814 0.961 . S
H829 C815 0.958 . S
H830 C815 0.961 . S
H831 C815 0.960 . S
C832 C833 1.391 . S
C832 C834 1.394 . S
C832 H848 0.931 . S
C833 C832 1.391 . S
C833 C837 1.353 1_455 S
C834 C832 1.394 . S
C834 C835 1.369 . S
C834 C838 1.531 . S
C835 C834 1.369 . S
C835 C836 1.410 1_455 S
C835 C843 1.503 1_455 S
C836 C835 1.410 1_655 S
C836 C837 1.402 . S
C836 C839 1.511 . S
C837 C833 1.353 1_655 S
C837 C836 1.402 . S
C837 H849 0.942 . S
C838 C834 1.531 . S
C838 H850 0.960 . S
C838 H851 0.962 . S
C838 H852 0.960 . S
C839 C836 1.511 . S
C839 H853 0.961 . S
C839 H854 0.961 . S
C839 H855 0.961 . S
C840 C841 1.370 . S
C840 C842 1.363 . S
C840 H856 0.931 . S
C841 C840 1.370 . S
C841 C845 1.408 . S
C842 C840 1.363 . S
C842 C843 1.370 . S
C842 C846 1.524 1_655 S
C843 C835 1.503 1_655 S
C843 C842 1.370 . S
C843 C844 1.403 . S
C844 C843 1.403 . S
C844 C845 1.404 . S
C844 C847 1.539 . S
C845 C841 1.408 . S
C845 C844 1.404 . S
C845 H857 0.930 . S
C846 C842 1.524 1_455 S
C846 H858 0.956 . S
C846 H859 0.961 1_455 S
C846 H860 0.961 1_455 S
C847 C844 1.539 . S
C847 H861 0.960 . S
C847 H862 0.961 . S
C847 H863 0.960 . S
H848 C832 0.931 . S
H849 C837 0.942 . S
H850 C838 0.960 . S
H851 C838 0.962 . S
H852 C838 0.960 . S
H853 C839 0.961 . S
H854 C839 0.961 . S
H855 C839 0.961 . S
H856 C840 0.931 . S
H857 C845 0.930 . S
H858 C846 0.956 . S
H859 C846 0.961 1_655 S
H860 C846 0.961 1_655 S
H861 C847 0.960 . S
H862 C847 0.961 . S
H863 C847 0.960 . S
C864 C865 1.391 . S
C864 C866 1.394 1_455 S
C864 H880 0.931 1_455 S
C865 C864 1.391 . S
C865 C869 1.376 . S
C866 C864 1.394 1_655 S
C866 C867 1.369 1_655 S
C866 C870 1.531 . S
C867 C866 1.369 1_455 S
C867 C868 1.410 . S
C867 C875 1.503 1_455 S
C868 C867 1.410 . S
C868 C869 1.392 . S
C868 C871 1.511 . S
C869 C865 1.376 . S
C869 C868 1.392 . S
C869 H881 0.929 . S
C870 C866 1.531 . S
C870 H882 0.960 . S
C870 H883 0.962 . S
C870 H884 0.960 . S
C871 C868 1.511 . S
C871 H885 0.961 . S
C871 H886 0.961 . S
C871 H887 0.961 . S
C872 C873 1.370 . S
C872 C874 1.363 . S
C872 H888 0.931 . S
C873 C872 1.370 . S
C873 C877 1.408 . S
C874 C872 1.363 . S
C874 C875 1.370 . S
C874 C878 1.524 . S
C875 C867 1.503 1_655 S
C875 C874 1.370 . S
C875 C876 1.403 . S
C876 C875 1.403 . S
C876 C877 1.404 . S
C876 C879 1.539 1_655 S
C877 C873 1.408 . S
C877 C876 1.404 . S
C877 H889 0.930 . S
C878 C874 1.524 . S
C878 H890 0.956 . S
C878 H891 0.961 1_655 S
C878 H892 0.961 . S
C879 C876 1.539 1_455 S
C879 H893 0.958 1_455 S
C879 H894 0.961 . S
C879 H895 0.960 . S
H880 C864 0.931 1_655 S
H881 C869 0.929 . S
H882 C870 0.960 . S
H883 C870 0.962 . S
H884 C870 0.960 . S
H885 C871 0.961 . S
H886 C871 0.961 . S
H887 C871 0.961 . S
H888 C872 0.931 . S
H889 C877 0.930 . S
H890 C878 0.956 . S
H891 C878 0.961 1_455 S
H892 C878 0.961 . S
H893 C879 0.958 1_655 S
H894 C879 0.961 . S
H895 C879 0.960 . S
C896 C897 1.391 . S
C896 C898 1.394 . S
C896 H912 0.931 . S
C897 C896 1.391 . S
C897 C901 1.376 . S
C898 C896 1.394 . S
C898 C899 1.369 . S
C898 C902 1.531 . S
C899 C898 1.369 . S
C899 C900 1.410 . S
C899 C907 1.503 . S
C900 C899 1.410 . S
C900 C901 1.392 . S
C900 C903 1.511 . S
C901 C897 1.376 . S
C901 C900 1.392 . S
C901 H913 0.929 . S
C902 C898 1.531 . S
C902 H914 0.960 . S
C902 H915 0.962 . S
C902 H916 0.960 . S
C903 C900 1.511 . S
C903 H917 0.961 . S
C903 H918 0.961 . S
C903 H919 0.961 . S
C904 C905 1.370 . S
C904 C906 1.363 . S
C904 H920 0.931 . S
C905 C904 1.370 . S
C905 C909 1.408 . S
C906 C904 1.363 . S
C906 C907 1.370 . S
C906 C910 1.524 . S
C907 C899 1.503 . S
C907 C906 1.370 . S
C907 C908 1.403 . S
C908 C907 1.403 . S
C908 C909 1.404 . S
C908 C911 1.539 . S
C909 C905 1.408 . S
C909 C908 1.404 . S
C909 H921 0.930 . S
C910 C906 1.524 . S
C910 H922 0.956 . S
C910 H923 0.961 . S
C910 H924 0.961 . S
C911 C908 1.539 . S
C911 H925 0.958 . S
C911 H926 0.961 . S
C911 H927 0.960 . S
H912 C896 0.931 . S
H913 C901 0.929 . S
H914 C902 0.960 . S
H915 C902 0.962 . S
H916 C902 0.960 . S
H917 C903 0.961 . S
H918 C903 0.961 . S
H919 C903 0.961 . S
H920 C904 0.931 . S
H921 C909 0.930 . S
H922 C910 0.956 . S
H923 C910 0.961 . S
H924 C910 0.961 . S
H925 C911 0.958 . S
H926 C911 0.961 . S
H927 C911 0.960 . S
C928 C929 1.391 . S
C928 C930 1.394 . S
C928 H944 0.931 . S
C929 C928 1.391 . S
C929 C933 1.376 . S
C930 C928 1.394 . S
C930 C931 1.369 . S
C930 C934 1.531 . S
C931 C930 1.369 . S
C931 C932 1.410 . S
C931 C939 1.503 . S
C932 C931 1.410 . S
C932 C933 1.392 . S
C932 C935 1.511 . S
C933 C929 1.376 . S
C933 C932 1.392 . S
C933 H945 0.929 . S
C934 C930 1.531 . S
C934 H946 0.960 . S
C934 H947 0.962 . S
C934 H948 0.960 . S
C935 C932 1.511 . S
C935 H949 0.961 . S
C935 H950 0.961 . S
C935 H951 0.961 . S
C936 C937 1.370 . S
C936 C938 1.363 . S
C936 H952 0.931 . S
C937 C936 1.370 . S
C937 C941 1.408 . S
C938 C936 1.363 . S
C938 C939 1.370 . S
C938 C942 1.524 . S
C939 C931 1.503 . S
C939 C938 1.370 . S
C939 C940 1.403 . S
C940 C939 1.403 . S
C940 C941 1.404 . S
C940 C943 1.539 . S
C941 C937 1.408 . S
C941 C940 1.404 . S
C941 H953 0.930 . S
C942 C938 1.524 . S
C942 H954 0.956 . S
C942 H955 0.961 . S
C942 H956 0.961 . S
C943 C940 1.539 . S
C943 H957 0.958 . S
C943 H958 0.961 . S
C943 H959 0.960 . S
H944 C928 0.931 . S
H945 C933 0.929 . S
H946 C934 0.960 . S
H947 C934 0.962 . S
H948 C934 0.960 . S
H949 C935 0.961 . S
H950 C935 0.961 . S
H951 C935 0.961 . S
H952 C936 0.931 . S
H953 C941 0.930 . S
H954 C942 0.956 . S
H955 C942 0.961 . S
H956 C942 0.961 . S
H957 C943 0.958 . S
H958 C943 0.961 . S
H959 C943 0.960 . S
C960 C961 1.391 . S
C960 C962 1.394 1_455 S
C960 H976 0.931 1_455 S
C961 C960 1.391 . S
C961 C965 1.376 . S
C962 C960 1.394 1_655 S
C962 C963 1.369 1_655 S
C962 C966 1.531 . S
C963 C962 1.369 1_455 S
C963 C964 1.410 . S
C963 C971 1.503 1_455 S
C964 C963 1.410 . S
C964 C965 1.392 . S
C964 C967 1.511 . S
C965 C961 1.376 . S
C965 C964 1.392 . S
C965 H977 0.929 . S
C966 C962 1.531 . S
C966 H978 0.960 . S
C966 H979 0.962 . S
C966 H980 0.960 . S
C967 C964 1.511 . S
C967 H981 0.961 . S
C967 H982 0.961 . S
C967 H983 0.961 . S
C968 C969 1.370 . S
C968 C970 1.363 . S
C968 H984 0.931 . S
C969 C968 1.370 . S
C969 C973 1.408 . S
C970 C968 1.363 . S
C970 C971 1.370 . S
C970 C974 1.524 . S
C971 C963 1.503 1_655 S
C971 C970 1.370 . S
C971 C972 1.403 . S
C972 C971 1.403 . S
C972 C973 1.404 . S
C972 C975 1.539 1_655 S
C973 C969 1.408 . S
C973 C972 1.404 . S
C973 H985 0.930 . S
C974 C970 1.524 . S
C974 H986 0.956 . S
C974 H987 0.953 1_655 S
C974 H988 0.961 . S
C975 C972 1.539 1_455 S
C975 H989 0.958 1_455 S
C975 H990 0.961 . S
C975 H991 0.960 . S
H976 C960 0.931 1_655 S
H977 C965 0.929 . S
H978 C966 0.960 . S
H979 C966 0.962 . S
H980 C966 0.960 . S
H981 C967 0.961 . S
H982 C967 0.961 . S
H983 C967 0.961 . S
H984 C968 0.931 . S
H985 C973 0.930 . S
H986 C974 0.956 . S
H987 C974 0.953 1_455 S
H988 C974 0.961 . S
H989 C975 0.958 1_655 S
H990 C975 0.961 . S
H991 C975 0.960 . S
C992 C993 1.391 . S
C992 C994 1.394 . S
C992 H1008 0.931 . S
C993 C992 1.391 . S
C993 C997 1.376 1_655 S
C994 C992 1.394 . S
C994 C995 1.383 . S
C994 C998 1.531 1_556 S
C995 C994 1.383 . S
C995 C996 1.399 1_655 S
C995 C1003 1.500 1_656 S
C996 C995 1.399 1_455 S
C996 C997 1.392 . S
C996 C999 1.511 1_565 S
C997 C993 1.376 1_455 S
C997 C996 1.392 . S
C997 H1009 0.929 . S
C998 C994 1.531 1_554 S
C998 H1010 0.960 . S
C998 H1011 0.962 . S
C998 H1012 0.960 . S
C999 C996 1.511 1_545 S
C999 H1013 0.961 . S
C999 H1014 0.961 1_556 S
C999 H1015 0.961 1_545 S
C1000 C1001 1.368 1_645 S
C1000 C1002 1.364 . S
C1000 H1016 0.932 . S
C1001 C1000 1.368 1_465 S
C1001 C1005 1.408 . S
C1002 C1000 1.364 . S
C1002 C1003 1.370 1_645 S
C1002 C1006 1.524 . S
C1003 C995 1.500 1_454 S
C1003 C1002 1.370 1_465 S
C1003 C1004 1.403 . S
C1004 C1003 1.403 . S
C1004 C1005 1.404 . S
C1004 C1007 1.539 . S
C1005 C1001 1.408 . S
C1005 C1004 1.404 . S
C1005 H1017 0.930 . S
C1006 C1002 1.524 . S
C1006 H1018 0.956 . S
C1006 H1019 0.961 . S
C1006 H1020 0.961 . S
C1007 C1004 1.539 . S
C1007 H1021 0.958 . S
C1007 H1022 0.961 . S
C1007 H1023 0.960 . S
H1008 C992 0.931 . S
H1009 C997 0.929 . S
H1010 C998 0.960 . S
H1011 C998 0.962 . S
H1012 C998 0.960 . S
H1013 C999 0.961 . S
H1014 C999 0.961 1_554 S
H1015 C999 0.961 1_565 S
H1016 C1000 0.932 . S
H1017 C1005 0.930 . S
H1018 C1006 0.956 . S
H1019 C1006 0.961 . S
H1020 C1006 0.961 . S
H1021 C1007 0.958 . S
H1022 C1007 0.961 . S
H1023 C1007 0.960 . S
C1024 C1025 1.391 . S
C1024 C1026 1.394 . S
C1024 H1040 0.931 . S
C1025 C1024 1.391 . S
C1025 C1029 1.376 . S
C1026 C1024 1.394 . S
C1026 C1027 1.369 . S
C1026 C1030 1.531 1_556 S
C1027 C1026 1.369 . S
C1027 C1028 1.410 . S
C1027 C1035 1.503 1_556 S
C1028 C1027 1.410 . S
C1028 C1029 1.392 . S
C1028 C1031 1.511 . S
C1029 C1025 1.376 . S
C1029 C1028 1.392 . S
C1029 H1041 0.929 . S
C1030 C1026 1.531 1_554 S
C1030 H1042 0.960 . S
C1030 H1043 0.962 . S
C1030 H1044 0.960 . S
C1031 C1028 1.511 . S
C1031 H1045 0.961 1_545 S
C1031 H1046 0.961 1_546 S
C1031 H1047 0.961 . S
C1032 C1033 1.370 1_565 S
C1032 C1034 1.363 . S
C1032 H1048 0.931 . S
C1033 C1032 1.370 1_545 S
C1033 C1037 1.408 . S
C1034 C1032 1.363 . S
C1034 C1035 1.370 1_565 S
C1034 C1038 1.524 . S
C1035 C1027 1.503 1_554 S
C1035 C1034 1.370 1_545 S
C1035 C1036 1.403 . S
C1036 C1035 1.403 . S
C1036 C1037 1.404 . S
C1036 C1039 1.539 . S
C1037 C1033 1.408 . S
C1037 C1036 1.404 . S
C1037 H1049 0.930 . S
C1038 C1034 1.524 . S
C1038 H1050 0.956 . S
C1038 H1051 0.961 . S
C1038 H1052 0.961 . S
C1039 C1036 1.539 . S
C1039 H1053 0.958 . S
C1039 H1054 0.961 . S
C1039 H1055 0.960 . S
H1040 C1024 0.931 . S
H1041 C1029 0.929 . S
H1042 C1030 0.960 . S
H1043 C1030 0.962 . S
H1044 C1030 0.960 . S
H1045 C1031 0.961 1_565 S
H1046 C1031 0.961 1_564 S
H1047 C1031 0.961 . S
H1048 C1032 0.931 . S
H1049 C1037 0.930 . S
H1050 C1038 0.956 . S
H1051 C1038 0.961 . S
H1052 C1038 0.961 . S
H1053 C1039 0.958 . S
H1054 C1039 0.961 . S
H1055 C1039 0.960 . S
C1056 C1057 1.391 . S
C1056 C1058 1.394 . S
C1056 H1072 0.931 . S
C1057 C1056 1.391 . S
C1057 C1061 1.376 . S
C1058 C1056 1.394 . S
C1058 C1059 1.369 . S
C1058 C1062 1.531 . S
C1059 C1058 1.369 . S
C1059 C1060 1.410 . S
C1059 C1067 1.503 . S
C1060 C1059 1.410 . S
C1060 C1061 1.392 . S
C1060 C1063 1.511 1_545 S
C1061 C1057 1.376 . S
C1061 C1060 1.392 . S
C1061 H1073 0.929 . S
C1062 C1058 1.531 . S
C1062 H1074 0.960 . S
C1062 H1075 0.962 . S
C1062 H1076 0.960 . S
C1063 C1060 1.511 1_565 S
C1063 H1077 0.961 . S
C1063 H1078 0.961 . S
C1063 H1079 0.961 1_565 S
C1064 C1065 1.370 1_565 S
C1064 C1066 1.363 . S
C1064 H1080 0.931 . S
C1065 C1064 1.370 1_545 S
C1065 C1069 1.408 . S
C1066 C1064 1.363 . S
C1066 C1067 1.370 1_565 S
C1066 C1070 1.524 . S
C1067 C1059 1.503 . S
C1067 C1066 1.370 1_545 S
C1067 C1068 1.403 . S
C1068 C1067 1.403 . S
C1068 C1069 1.404 . S
C1068 C1071 1.539 . S
C1069 C1065 1.408 . S
C1069 C1068 1.404 . S
C1069 H1081 0.930 . S
C1070 C1066 1.524 . S
C1070 H1082 0.956 . S
C1070 H1083 0.961 . S
C1070 H1084 0.961 . S
C1071 C1068 1.539 . S
C1071 H1085 0.958 . S
C1071 H1086 0.961 . S
C1071 H1087 0.960 . S
H1072 C1056 0.931 . S
H1073 C1061 0.929 . S
H1074 C1062 0.960 . S
H1075 C1062 0.962 . S
H1076 C1062 0.960 . S
H1077 C1063 0.961 . S
H1078 C1063 0.961 . S
H1079 C1063 0.961 1_545 S
H1080 C1064 0.931 . S
H1081 C1069 0.930 . S
H1082 C1070 0.956 . S
H1083 C1070 0.961 . S
H1084 C1070 0.961 . S
H1085 C1071 0.958 . S
H1086 C1071 0.961 . S
H1087 C1071 0.960 . S
C1088 C1089 1.391 . S
C1088 C1090 1.394 . S
C1088 H1104 0.931 . S
C1089 C1088 1.391 . S
C1089 C1093 1.376 1_455 S
C1090 C1088 1.394 . S
C1090 C1091 1.398 . S
C1090 C1094 1.531 . S
C1091 C1090 1.398 . S
C1091 C1092 1.388 1_455 S
C1091 C1099 1.497 1_455 S
C1092 C1091 1.388 1_655 S
C1092 C1093 1.392 . S
C1092 C1095 1.511 1_565 S
C1093 C1089 1.376 1_655 S
C1093 C1092 1.392 . S
C1093 H1105 0.929 . S
C1094 C1090 1.531 . S
C1094 H1106 0.960 . S
C1094 H1107 0.962 . S
C1094 H1108 0.960 . S
C1095 C1092 1.511 1_545 S
C1095 H1109 0.961 . S
C1095 H1110 0.961 . S
C1095 H1111 0.961 1_545 S
C1096 C1097 1.370 1_545 S
C1096 C1098 1.363 1_655 S
C1096 H1112 0.931 1_655 S
C1097 C1096 1.370 1_565 S
C1097 C1101 1.408 . S
C1098 C1096 1.363 1_455 S
C1098 C1099 1.370 1_445 S
C1098 C1102 1.524 . S
C1099 C1091 1.497 1_655 S
C1099 C1098 1.370 1_665 S
C1099 C1100 1.403 . S
C1100 C1099 1.403 . S
C1100 C1101 1.404 . S
C1100 C1103 1.539 . S
C1101 C1097 1.408 . S
C1101 C1100 1.404 . S
C1101 H1113 0.930 . S
C1102 C1098 1.524 . S
C1102 H1114 0.956 . S
C1102 H1115 0.961 . S
C1102 H1116 0.961 . S
C1103 C1100 1.539 . S
C1103 H1117 0.958 . S
C1103 H1118 0.961 . S
C1103 H1119 0.960 . S
H1104 C1088 0.931 . S
H1105 C1093 0.929 . S
H1106 C1094 0.960 . S
H1107 C1094 0.962 . S
H1108 C1094 0.960 . S
H1109 C1095 0.961 . S
H1110 C1095 0.961 . S
H1111 C1095 0.961 1_565 S
H1112 C1096 0.931 1_455 S
H1113 C1101 0.930 . S
H1114 C1102 0.956 . S
H1115 C1102 0.961 . S
H1116 C1102 0.961 . S
H1117 C1103 0.958 . S
H1118 C1103 0.961 . S
H1119 C1103 0.960 . S
C1120 C1121 1.391 . S
C1120 C1122 1.394 . S
C1120 H1136 0.931 . S
C1121 C1120 1.391 . S
C1121 C1125 1.376 . S
C1122 C1120 1.394 . S
C1122 C1123 1.369 . S
C1122 C1126 1.531 . S
C1123 C1122 1.369 . S
C1123 C1124 1.410 . S
C1123 C1131 1.503 1_554 S
C1124 C1123 1.410 . S
C1124 C1125 1.392 . S
C1124 C1127 1.511 . S
C1125 C1121 1.376 . S
C1125 C1124 1.392 . S
C1125 H1137 0.929 . S
C1126 C1122 1.531 . S
C1126 H1138 0.960 . S
C1126 H1139 0.962 . S
C1126 H1140 0.960 . S
C1127 C1124 1.511 . S
C1127 H1141 0.961 . S
C1127 H1142 0.961 . S
C1127 H1143 0.961 . S
C1128 C1129 1.370 . S
C1128 C1130 1.363 . S
C1128 H1144 0.931 . S
C1129 C1128 1.370 . S
C1129 C1133 1.408 . S
C1130 C1128 1.363 . S
C1130 C1131 1.370 . S
C1130 C1134 1.524 1_556 S
C1131 C1123 1.503 1_556 S
C1131 C1130 1.370 . S
C1131 C1132 1.403 . S
C1132 C1131 1.403 . S
C1132 C1133 1.404 . S
C1132 C1135 1.539 . S
C1133 C1129 1.408 . S
C1133 C1132 1.404 . S
C1133 H1145 0.930 . S
C1134 C1130 1.524 1_554 S
C1134 H1146 0.956 . S
C1134 H1147 0.961 . S
C1134 H1148 0.961 . S
C1135 C1132 1.539 . S
C1135 H1149 0.958 . S
C1135 H1150 0.961 . S
C1135 H1151 0.960 . S
H1136 C1120 0.931 . S
H1137 C1125 0.929 . S
H1138 C1126 0.960 . S
H1139 C1126 0.962 . S
H1140 C1126 0.960 . S
H1141 C1127 0.961 . S
H1142 C1127 0.961 . S
H1143 C1127 0.961 . S
H1144 C1128 0.931 . S
H1145 C1133 0.930 . S
H1146 C1134 0.956 . S
H1147 C1134 0.961 . S
H1148 C1134 0.961 . S
H1149 C1135 0.958 . S
H1150 C1135 0.961 . S
H1151 C1135 0.960 . S
C1152 C1153 1.391 . S
C1152 C1154 1.394 . S
C1152 H1168 0.931 . S
C1153 C1152 1.391 . S
C1153 C1157 1.376 1_655 S
C1154 C1152 1.394 . S
C1154 C1155 1.369 . S
C1154 C1158 1.531 . S
C1155 C1154 1.369 . S
C1155 C1156 1.410 1_655 S
C1155 C1163 1.503 1_654 S
C1156 C1155 1.410 1_455 S
C1156 C1157 1.392 . S
C1156 C1159 1.511 . S
C1157 C1153 1.376 1_455 S
C1157 C1156 1.392 . S
C1157 H1169 0.929 . S
C1158 C1154 1.531 . S
C1158 H1170 0.959 . S
C1158 H1171 0.962 . S
C1158 H1172 0.960 . S
C1159 C1156 1.511 . S
C1159 H1173 0.961 . S
C1159 H1174 0.961 . S
C1159 H1175 0.961 . S
C1160 C1161 1.370 . S
C1160 C1162 1.363 . S
C1160 H1176 0.931 . S
C1161 C1160 1.370 . S
C1161 C1165 1.408 . S
C1162 C1160 1.363 . S
C1162 C1163 1.370 . S
C1162 C1166 1.524 . S
C1163 C1155 1.503 1_456 S
C1163 C1162 1.370 . S
C1163 C1164 1.403 . S
C1164 C1163 1.403 . S
C1164 C1165 1.404 . S
C1164 C1167 1.522 1_456 S
C1165 C1161 1.408 . S
C1165 C1164 1.404 . S
C1165 H1177 0.930 . S
C1166 C1162 1.524 . S
C1166 H1178 0.956 1_456 S
C1166 H1179 0.961 1_556 S
C1166 H1180 0.961 . S
C1167 C1164 1.522 1_654 S
C1167 H1181 0.957 1_554 S
C1167 H1182 0.949 1_654 S
C1167 H1183 0.986 1_655 S
H1168 C1152 0.931 . S
H1169 C1157 0.929 . S
H1170 C1158 0.959 . S
H1171 C1158 0.962 . S
H1172 C1158 0.960 . S
H1173 C1159 0.961 . S
H1174 C1159 0.961 . S
H1175 C1159 0.961 . S
H1176 C1160 0.931 . S
H1177 C1165 0.930 . S
H1178 C1166 0.956 1_654 S
H1179 C1166 0.961 1_554 S
H1180 C1166 0.961 . S
H1181 C1167 0.957 1_556 S
H1182 C1167 0.949 1_456 S
H1183 C1167 0.986 1_455 S
C1184 C1185 1.391 . S
C1184 C1186 1.394 . S
C1184 H1200 0.931 . S
C1185 C1184 1.391 . S
C1185 C1189 1.376 1_655 S
C1186 C1184 1.394 . S
C1186 C1187 1.356 1_655 S
C1186 C1190 1.531 . S
C1187 C1186 1.356 1_455 S
C1187 C1188 1.419 . S
C1187 C1195 1.506 . S
C1188 C1187 1.419 . S
C1188 C1189 1.392 . S
C1188 C1191 1.511 . S
C1189 C1185 1.376 1_455 S
C1189 C1188 1.392 . S
C1189 H1201 0.929 . S
C1190 C1186 1.531 . S
C1190 H1202 0.960 . S
C1190 H1203 0.962 . S
C1190 H1204 0.960 . S
C1191 C1188 1.511 . S
C1191 H1205 0.961 . S
C1191 H1206 0.961 . S
C1191 H1207 0.961 . S
C1192 C1193 1.370 1_655 S
C1192 C1194 1.363 . S
C1192 H1208 0.931 . S
C1193 C1192 1.370 1_455 S
C1193 C1197 1.408 . S
C1194 C1192 1.363 . S
C1194 C1195 1.370 1_655 S
C1194 C1198 1.524 . S
C1195 C1187 1.506 . S
C1195 C1194 1.370 1_455 S
C1195 C1196 1.403 . S
C1196 C1195 1.403 . S
C1196 C1197 1.404 . S
C1196 C1199 1.539 . S
C1197 C1193 1.408 . S
C1197 C1196 1.404 . S
C1197 H1209 0.930 . S
C1198 C1194 1.524 . S
C1198 H1210 0.956 . S
C1198 H1211 0.961 . S
C1198 H1212 0.961 . S
C1199 C1196 1.539 . S
C1199 H1213 0.958 . S
C1199 H1214 0.961 . S
C1199 H1215 0.960 . S
H1200 C1184 0.931 . S
H1201 C1189 0.929 . S
H1202 C1190 0.960 . S
H1203 C1190 0.962 . S
H1204 C1190 0.960 . S
H1205 C1191 0.961 . S
H1206 C1191 0.961 . S
H1207 C1191 0.961 . S
H1208 C1192 0.931 . S
H1209 C1197 0.930 . S
H1210 C1198 0.956 . S
H1211 C1198 0.961 . S
H1212 C1198 0.961 . S
H1213 C1199 0.958 . S
H1214 C1199 0.961 . S
H1215 C1199 0.960 . S
C1216 C1217 1.391 . S
C1216 C1218 1.394 . S
C1216 H1232 0.931 . S
C1217 C1216 1.391 . S
C1217 C1221 1.376 . S
C1218 C1216 1.394 . S
C1218 C1219 1.369 . S
C1218 C1222 1.531 . S
C1219 C1218 1.369 . S
C1219 C1220 1.410 . S
C1219 C1227 1.503 . S
C1220 C1219 1.410 . S
C1220 C1221 1.392 . S
C1220 C1223 1.511 . S
C1221 C1217 1.376 . S
C1221 C1220 1.392 . S
C1221 H1233 0.929 . S
C1222 C1218 1.531 . S
C1222 H1234 0.960 . S
C1222 H1235 0.962 . S
C1222 H1236 0.960 . S
C1223 C1220 1.511 . S
C1223 H1237 0.961 . S
C1223 H1238 0.961 . S
C1223 H1239 0.961 . S
C1224 C1225 1.370 . S
C1224 C1226 1.363 . S
C1224 H1240 0.931 . S
C1225 C1224 1.370 . S
C1225 C1229 1.408 . S
C1226 C1224 1.363 . S
C1226 C1227 1.370 . S
C1226 C1230 1.524 . S
C1227 C1219 1.503 . S
C1227 C1226 1.370 . S
C1227 C1228 1.403 . S
C1228 C1227 1.403 . S
C1228 C1229 1.404 . S
C1228 C1231 1.539 . S
C1229 C1225 1.408 . S
C1229 C1228 1.404 . S
C1229 H1241 0.930 . S
C1230 C1226 1.524 . S
C1230 H1242 0.956 . S
C1230 H1243 0.961 . S
C1230 H1244 0.961 . S
C1231 C1228 1.539 . S
C1231 H1245 0.958 . S
C1231 H1246 0.961 . S
C1231 H1247 0.960 . S
H1232 C1216 0.931 . S
H1233 C1221 0.929 . S
H1234 C1222 0.960 . S
H1235 C1222 0.962 . S
H1236 C1222 0.960 . S
H1237 C1223 0.961 . S
H1238 C1223 0.961 . S
H1239 C1223 0.961 . S
H1240 C1224 0.931 . S
H1241 C1229 0.930 . S
H1242 C1230 0.956 . S
H1243 C1230 0.961 . S
H1244 C1230 0.961 . S
H1245 C1231 0.958 . S
H1246 C1231 0.961 . S
H1247 C1231 0.960 . S
C225 C26 1.476 . S
C233 C12 1.483 . S
C257 C40 1.476 . S
C265 C54 1.484 . S
C289 C67 1.546 . S
C297 C81 1.556 . S
C321 C109 1.528 . S
C329 C95 1.547 . S
C353 C138 1.481 . S
C361 C124 1.484 . S
C385 C166 1.483 . S
C393 C152 1.483 . S
C417 C193 1.528 . S
C425 C179 1.544 . S
C449 C221 1.562 . S
C457 C207 1.551 . S
C481 C46 0.977 . S
C489 C4 1.009 . S
C513 C18 1.020 . S
C521 C32 0.997 . S
C545 C103 1.122 . S
C553 C61 1.112 . S
C577 C89 1.152 . S
C585 C75 1.111 . S
C609 C116 1.022 . S
C617 C158 0.995 . S
C641 C144 1.021 . S
C649 C130 0.996 . S
C673 C215 1.142 . S
C681 C173 1.116 . S
C705 C187 1.126 . S
C713 C201 1.113 . S
C737 C5 1.292 . S
C745 C131 1.299 . S
C769 C19 1.230 . S
C777 C117 1.253 . S
C801 C159 1.281 . S
C809 C33 1.296 . S
C833 C145 1.226 . S
C841 C47 1.253 . S
C865 C186 1.614 . S
C873 C60 1.625 . S
C897 C172 1.645 . S
C905 C74 1.638 . S
C929 C88 1.613 . S
C937 C214 1.625 . S
C961 C102 1.615 . S
C969 C200 1.625 . S
C993 C68 1.108 . S
C1001 C11 1.118 1_565 S
C1025 C82 1.100 . S
C1033 C25 1.120 1_545 S
C1057 C96 1.108 . S
C1065 C39 1.118 1_545 S
C1089 C110 1.106 . S
C1097 C53 1.118 1_565 S
C1121 C123 1.095 . S
C1129 C180 1.128 . S
C1153 C137 1.121 . S
C1161 C194 1.109 . S
C1185 C208 1.113 . S
C1193 C151 1.116 . S
C1217 C222 1.089 . S
C1225 C165 1.127 . S
