# Generated by pormake.
# Topology uoy, (4)-cn, num edge types: 1
# Building blocks:
#     Node 0, Type 0, BuildingBlock: QUQFOY_clean_sbu_3, # of connection points: 4
#     Node 1, Type 0, BuildingBlock: QUQFOY_clean_sbu_3, # of connection points: 4
#     Node 2, Type 0, BuildingBlock: QUQFOY_clean_sbu_3, # of connection points: 4
#     Node 3, Type 0, BuildingBlock: QUQFOY_clean_sbu_3, # of connection points: 4
#     Node 4, Type 0, BuildingBlock: QUQFOY_clean_sbu_3, # of connection points: 4
#     Node 5, Type 0, BuildingBlock: QUQFOY_clean_sbu_3, # of connection points: 4
#     Node 6, Type 0, BuildingBlock: QUQFOY_clean_sbu_3, # of connection points: 4
#     Node 7, Type 0, BuildingBlock: QUQFOY_clean_sbu_3, # of connection points: 4
#     Node 8, Type 0, BuildingBlock: QUQFOY_clean_sbu_3, # of connection points: 4
#     Node 9, Type 0, BuildingBlock: QUQFOY_clean_sbu_3, # of connection points: 4
#     Node 10, Type 0, BuildingBlock: QUQFOY_clean_sbu_3, # of connection points: 4
#     Node 11, Type 0, BuildingBlock: QUQFOY_clean_sbu_3, # of connection points: 4
#     Node 12, Type 0, BuildingBlock: QUQFOY_clean_sbu_3, # of connection points: 4
#     Node 13, Type 0, BuildingBlock: QUQFOY_clean_sbu_3, # of connection points: 4
#     Node 14, Type 0, BuildingBlock: QUQFOY_clean_sbu_3, # of connection points: 4
#     Node 15, Type 0, BuildingBlock: QUQFOY_clean_sbu_3, # of connection points: 4
#     Edge 16, Type (0, 0), BuildingBlock: TEMPAE_clean_linker_10, # of connection points: 2
#     Edge 17, Type (0, 0), BuildingBlock: TEMPAE_clean_linker_10, # of connection points: 2
#     Edge 18, Type (0, 0), BuildingBlock: TEMPAE_clean_linker_10, # of connection points: 2
#     Edge 19, Type (0, 0), BuildingBlock: TEMPAE_clean_linker_10, # of connection points: 2
#     Edge 20, Type (0, 0), BuildingBlock: TEMPAE_clean_linker_10, # of connection points: 2
#     Edge 21, Type (0, 0), BuildingBlock: TEMPAE_clean_linker_10, # of connection points: 2
#     Edge 22, Type (0, 0), BuildingBlock: TEMPAE_clean_linker_10, # of connection points: 2
#     Edge 23, Type (0, 0), BuildingBlock: TEMPAE_clean_linker_10, # of connection points: 2
#     Edge 24, Type (0, 0), BuildingBlock: TEMPAE_clean_linker_10, # of connection points: 2
#     Edge 25, Type (0, 0), BuildingBlock: TEMPAE_clean_linker_10, # of connection points: 2
#     Edge 26, Type (0, 0), BuildingBlock: TEMPAE_clean_linker_10, # of connection points: 2
#     Edge 27, Type (0, 0), BuildingBlock: TEMPAE_clean_linker_10, # of connection points: 2
#     Edge 28, Type (0, 0), BuildingBlock: TEMPAE_clean_linker_10, # of connection points: 2
#     Edge 29, Type (0, 0), BuildingBlock: TEMPAE_clean_linker_10, # of connection points: 2
#     Edge 30, Type (0, 0), BuildingBlock: TEMPAE_clean_linker_10, # of connection points: 2
#     Edge 31, Type (0, 0), BuildingBlock: TEMPAE_clean_linker_10, # of connection points: 2
#     Edge 32, Type (0, 0), BuildingBlock: TEMPAE_clean_linker_10, # of connection points: 2
#     Edge 33, Type (0, 0), BuildingBlock: TEMPAE_clean_linker_10, # of connection points: 2
#     Edge 34, Type (0, 0), BuildingBlock: TEMPAE_clean_linker_10, # of connection points: 2
#     Edge 35, Type (0, 0), BuildingBlock: TEMPAE_clean_linker_10, # of connection points: 2
#     Edge 36, Type (0, 0), BuildingBlock: TEMPAE_clean_linker_10, # of connection points: 2
#     Edge 37, Type (0, 0), BuildingBlock: TEMPAE_clean_linker_10, # of connection points: 2
#     Edge 38, Type (0, 0), BuildingBlock: TEMPAE_clean_linker_10, # of connection points: 2
#     Edge 39, Type (0, 0), BuildingBlock: TEMPAE_clean_linker_10, # of connection points: 2
#     Edge 40, Type (0, 0), BuildingBlock: TEMPAE_clean_linker_10, # of connection points: 2
#     Edge 41, Type (0, 0), BuildingBlock: TEMPAE_clean_linker_10, # of connection points: 2
#     Edge 42, Type (0, 0), BuildingBlock: TEMPAE_clean_linker_10, # of connection points: 2
#     Edge 43, Type (0, 0), BuildingBlock: TEMPAE_clean_linker_10, # of connection points: 2
#     Edge 44, Type (0, 0), BuildingBlock: TEMPAE_clean_linker_10, # of connection points: 2
#     Edge 45, Type (0, 0), BuildingBlock: TEMPAE_clean_linker_10, # of connection points: 2
#     Edge 46, Type (0, 0), BuildingBlock: TEMPAE_clean_linker_10, # of connection points: 2
#     Edge 47, Type (0, 0), BuildingBlock: TEMPAE_clean_linker_10, # of connection points: 2
# Relax obj value: 0.036
# Max RMSD: 0.062
# Mean RMSD: 0.062
data_MOF--net-uoy--node1-QUQFOY_clean_sbu_3--edge1-TEMPAE_clean_linker_10
_symmetry_space_group_name_H-M    P1
_symmetry_Int_Tables_number       1
_symmetry_cell_setting            triclinic
loop_
_symmetry_equiv_pos_as_xyz
'x, y, z'
_cell_length_a     28.588924
_cell_length_b     28.545972
_cell_length_c     112.03019
_cell_angle_alpha  90.00134
_cell_angle_beta   90.000223
_cell_angle_gamma 90.052199
loop_
_atom_site_label
_atom_site_type_symbol
_atom_site_fract_x
_atom_site_fract_y
_atom_site_fract_z
_atom_type_partial_charge
C0 C 0.24495 0.19123 0.20157 0.0
O1 O 0.2657 0.22487 0.19639 0.0
Cd2 Cd 0.27515 0.22474 0.17502 0.0
O3 O 0.22486 0.15944 0.1955 0.0
Cd4 Cd 0.20645 0.13979 0.17482 0.0
C5 C 0.3193 0.11321 0.17121 0.0
O6 O 0.20054 0.21702 0.16555 0.0
O7 O 0.21272 0.15794 0.15386 0.0
O8 O 0.12649 0.13186 0.18146 0.0
C9 C 0.20373 0.20119 0.155 0.0
O10 O 0.3254 0.15735 0.17041 0.0
C11 C 0.11969 0.09196 0.17678 0.0
O12 O 0.27931 0.09619 0.17374 0.0
O13 O 0.15384 0.07361 0.17122 0.0
C14 C 0.81597 0.84076 0.4359 0.0
O15 O 0.79046 0.85907 0.42788 0.0
Cd16 Cd 0.81805 0.86449 0.40758 0.0
O17 O 0.85508 0.82224 0.43328 0.0
Cd18 Cd 0.90527 0.8031 0.41631 0.0
C19 C 0.92473 0.91852 0.41161 0.0
O20 O 0.84107 0.78614 0.40274 0.0
O21 O 0.91076 0.78342 0.39521 0.0
O22 O 0.91279 0.73045 0.42733 0.0
C23 C 0.86719 0.7773 0.39389 0.0
O24 O 0.88314 0.92047 0.40756 0.0
C25 C 0.9562 0.72533 0.4254 0.0
O26 O 0.94102 0.88058 0.4159 0.0
O27 O 0.97668 0.75766 0.41959 0.0
C28 C 0.24611 0.27603 0.70465 0.0
O29 O 0.22152 0.24781 0.69853 0.0
Cd30 Cd 0.21345 0.255 0.67722 0.0
O31 O 0.26787 0.30958 0.69967 0.0
Cd32 Cd 0.28098 0.3432 0.6799 0.0
C33 C 0.16586 0.36567 0.67684 0.0
O34 O 0.28767 0.27134 0.66821 0.0
O35 O 0.27638 0.33582 0.65851 0.0
O36 O 0.36122 0.35249 0.68643 0.0
C37 C 0.28437 0.29219 0.65824 0.0
O38 O 0.16183 0.32214 0.67452 0.0
C39 C 0.3655 0.39454 0.68294 0.0
O40 O 0.20492 0.38293 0.68017 0.0
O41 O 0.32983 0.41345 0.67817 0.0
C42 C 0.68864 0.6653 0.93573 0.0
O43 O 0.70865 0.63601 0.92891 0.0
Cd44 Cd 0.67984 0.62483 0.9088 0.0
O45 O 0.65147 0.68611 0.93254 0.0
Cd46 Cd 0.59567 0.69111 0.9162 0.0
C47 C 0.57431 0.57396 0.91449 0.0
O48 O 0.65861 0.70174 0.9018 0.0
O49 O 0.58793 0.70508 0.89491 0.0
O50 O 0.58809 0.76599 0.92617 0.0
C51 C 0.63145 0.70903 0.89305 0.0
O52 O 0.61478 0.57008 0.90988 0.0
C53 C 0.54472 0.77086 0.9242 0.0
O54 O 0.5598 0.61331 0.91837 0.0
O55 O 0.52423 0.73774 0.91869 0.0
C56 C 0.28951 0.30619 0.0379 0.0
O57 O 0.30408 0.28229 0.04669 0.0
Cd58 Cd 0.30848 0.31926 0.06587 0.0
O59 O 0.27311 0.34717 0.03943 0.0
Cd60 Cd 0.25247 0.40327 0.05515 0.0
C61 C 0.36701 0.42141 0.05844 0.0
O62 O 0.23099 0.34694 0.0702 0.0
O63 O 0.24528 0.41679 0.07669 0.0
O64 O 0.17951 0.4076 0.04431 0.0
C65 C 0.22968 0.37599 0.07874 0.0
O66 O 0.36734 0.38193 0.06376 0.0
C67 C 0.17455 0.45153 0.0454 0.0
O68 O 0.3296 0.43722 0.0538 0.0
O69 O 0.20692 0.47369 0.05076 0.0
C70 C 0.69958 0.7294 0.27689 0.0
O71 O 0.73051 0.75009 0.28311 0.0
Cd72 Cd 0.7311 0.75144 0.30457 0.0
O73 O 0.66797 0.70441 0.28176 0.0
Cd74 Cd 0.64239 0.6748 0.3013 0.0
C75 C 0.61622 0.78759 0.30866 0.0
O76 O 0.71902 0.67234 0.30993 0.0
O77 O 0.66309 0.65673 0.32211 0.0
O78 O 0.6334 0.59974 0.29139 0.0
C79 C 0.70655 0.66271 0.32048 0.0
O80 O 0.66008 0.79496 0.3096 0.0
C81 C 0.59329 0.59109 0.29575 0.0
O82 O 0.6003 0.74806 0.30521 0.0
O83 O 0.57534 0.62226 0.30244 0.0
C84 C 0.18914 0.19259 0.53604 0.0
O85 O 0.17261 0.21937 0.54403 0.0
Cd86 Cd 0.16238 0.18963 0.5639 0.0
O87 O 0.20387 0.15189 0.53869 0.0
Cd88 Cd 0.21713 0.10188 0.55618 0.0
C89 C 0.10171 0.08758 0.55841 0.0
O90 O 0.23748 0.16215 0.57051 0.0
O91 O 0.21756 0.0951 0.57792 0.0
O92 O 0.29314 0.09063 0.54723 0.0
C93 C 0.23515 0.13539 0.57952 0.0
O94 O 0.10163 0.12843 0.563 0.0
C95 C 0.29548 0.04702 0.54929 0.0
O96 O 0.13924 0.0698 0.55433 0.0
O97 O 0.26028 0.0281 0.55428 0.0
C98 C 0.79033 0.76036 0.77501 0.0
O99 O 0.76563 0.73407 0.78166 0.0
Cd100 Cd 0.76366 0.73393 0.80306 0.0
O101 O 0.81912 0.78986 0.77937 0.0
Cd102 Cd 0.84856 0.81475 0.79908 0.0
C103 C 0.87886 0.70158 0.80622 0.0
O104 O 0.77274 0.81366 0.80818 0.0
O105 O 0.82891 0.83156 0.82006 0.0
O106 O 0.85765 0.89223 0.79023 0.0
C107 C 0.78563 0.82377 0.81867 0.0
O108 O 0.8356 0.69316 0.80792 0.0
C109 C 0.89799 0.89958 0.7946 0.0
O110 O 0.89276 0.74123 0.80228 0.0
O111 O 0.916 0.86664 0.8007 0.0
C112 C 0.7985 0.68592 0.68804 0.0
O113 O 0.82459 0.70452 0.68021 0.0
Cd114 Cd 0.82822 0.67245 0.66048 0.0
O115 O 0.77558 0.64873 0.68581 0.0
Cd116 Cd 0.76402 0.59247 0.66945 0.0
C117 C 0.87907 0.56802 0.66752 0.0
O118 O 0.74938 0.65241 0.65472 0.0
O119 O 0.76073 0.5829 0.64767 0.0
O120 O 0.68759 0.58575 0.67875 0.0
C121 C 0.74752 0.62469 0.64592 0.0
O122 O 0.88247 0.60669 0.66193 0.0
C123 C 0.68278 0.54224 0.67685 0.0
O124 O 0.84034 0.55547 0.67214 0.0
O125 O 0.71658 0.52137 0.67177 0.0
C126 C 0.28546 0.21494 0.95199 0.0
O127 O 0.25508 0.23718 0.94595 0.0
Cd128 Cd 0.25641 0.24582 0.92461 0.0
O129 O 0.31838 0.19259 0.94688 0.0
Cd130 Cd 0.34714 0.17152 0.92693 0.0
C131 C 0.3701 0.28727 0.92203 0.0
O132 O 0.2713 0.16901 0.91778 0.0
O133 O 0.32895 0.15879 0.90574 0.0
O134 O 0.35841 0.09402 0.9353 0.0
C135 C 0.28517 0.16266 0.90718 0.0
O136 O 0.32614 0.2934 0.92091 0.0
C137 C 0.39899 0.08823 0.93093 0.0
O138 O 0.38697 0.24735 0.92481 0.0
O139 O 0.41615 0.12206 0.92497 0.0
C140 C 0.68709 0.80584 0.1895 0.0
O141 O 0.66922 0.77869 0.18178 0.0
Cd142 Cd 0.66153 0.80446 0.1615 0.0
O143 O 0.70437 0.84511 0.18643 0.0
Cd144 Cd 0.72061 0.89044 0.16826 0.0
C145 C 0.60624 0.9104 0.16543 0.0
O146 O 0.73839 0.82622 0.15487 0.0
O147 O 0.7213 0.89217 0.14646 0.0
O148 O 0.79756 0.90032 0.17686 0.0
C149 C 0.73745 0.851 0.14549 0.0
O150 O 0.60422 0.8688 0.16133 0.0
C151 C 0.80155 0.94335 0.17424 0.0
O152 O 0.64444 0.92693 0.16946 0.0
O153 O 0.76684 0.96265 0.16915 0.0
C154 C 0.20648 0.27297 0.44906 0.0
O155 O 0.23741 0.25179 0.44295 0.0
Cd156 Cd 0.23746 0.24789 0.42147 0.0
O157 O 0.17441 0.29675 0.44402 0.0
Cd158 Cd 0.14745 0.32292 0.42432 0.0
C159 C 0.1234 0.20879 0.41772 0.0
O160 O 0.22371 0.326 0.4154 0.0
O161 O 0.16668 0.3398 0.4034 0.0
O162 O 0.13719 0.39862 0.43376 0.0
C163 C 0.21031 0.33458 0.40486 0.0
O164 O 0.16737 0.20223 0.41677 0.0
C165 C 0.09675 0.40593 0.42946 0.0
O166 O 0.10681 0.2483 0.42095 0.0
O167 O 0.07923 0.37375 0.42299 0.0
C168 C 0.74235 0.8042 0.52269 0.0
O169 O 0.7632 0.77092 0.52798 0.0
Cd170 Cd 0.77285 0.7725 0.54935 0.0
O171 O 0.72174 0.83592 0.52865 0.0
Cd172 Cd 0.70178 0.85618 0.54919 0.0
C173 C 0.81388 0.8859 0.55259 0.0
O174 O 0.69873 0.77986 0.55902 0.0
O175 O 0.70931 0.84068 0.57024 0.0
O176 O 0.62157 0.86067 0.5425 0.0
C177 C 0.70223 0.79695 0.56944 0.0
O178 O 0.82095 0.84194 0.55351 0.0
C179 C 0.61363 0.90085 0.54689 0.0
O180 O 0.77349 0.9019 0.55006 0.0
O181 O 0.64721 0.92085 0.55233 0.0
C182 C 0.19253 0.32291 0.79119 0.0
O183 O 0.21363 0.34842 0.79876 0.0
Cd184 Cd 0.1834 0.35778 0.81871 0.0
O185 O 0.15376 0.30333 0.79364 0.0
Cd186 Cd 0.0959 0.29514 0.8096 0.0
C187 C 0.07972 0.41302 0.81255 0.0
O188 O 0.15717 0.28084 0.82413 0.0
O189 O 0.08615 0.27792 0.83077 0.0
O190 O 0.0866 0.22171 0.79891 0.0
C191 C 0.12951 0.27337 0.83276 0.0
O192 O 0.12017 0.41452 0.81728 0.0
C193 C 0.04298 0.21782 0.8007 0.0
O194 O 0.06347 0.3748 0.80835 0.0
O195 O 0.02318 0.25101 0.80633 0.0
C196 C 0.73476 0.71182 0.02243 0.0
O197 O 0.71038 0.73834 0.02905 0.0
Cd198 Cd 0.70715 0.72704 0.05038 0.0
O199 O 0.7574 0.67761 0.02677 0.0
Cd200 Cd 0.77338 0.63889 0.04568 0.0
C201 C 0.6591 0.61655 0.05026 0.0
O202 O 0.78363 0.70873 0.05784 0.0
O203 O 0.77614 0.64287 0.06718 0.0
O204 O 0.85064 0.62997 0.03727 0.0
C205 C 0.78365 0.68657 0.06766 0.0
O206 O 0.65583 0.65961 0.05314 0.0
C207 C 0.8555 0.5874 0.04025 0.0
O208 O 0.69715 0.59991 0.04611 0.0
O209 O 0.82149 0.56811 0.04567 0.0
C210 C 0.3131 0.15642 0.28867 0.0
O211 O 0.28688 0.13942 0.29674 0.0
Cd212 Cd 0.31392 0.13504 0.31712 0.0
O213 O 0.35253 0.17435 0.29128 0.0
Cd214 Cd 0.40271 0.19416 0.30819 0.0
C215 C 0.4196 0.07876 0.31345 0.0
O216 O 0.33895 0.21303 0.32173 0.0
O217 O 0.40878 0.21446 0.32922 0.0
O218 O 0.41128 0.26614 0.29695 0.0
C219 C 0.36536 0.22152 0.33056 0.0
O220 O 0.37789 0.07793 0.31745 0.0
C221 C 0.45479 0.27077 0.29883 0.0
O222 O 0.43681 0.11605 0.309 0.0
O223 O 0.47486 0.23841 0.30471 0.0
C224 C 0.24301 0.37703 0.10067 0.0
C225 C 0.21787 0.36031 0.09083 0.0
C226 C 0.23739 0.35645 0.11194 0.0
C227 C 0.2049 0.31937 0.11337 0.0
C228 C 0.1766 0.30529 0.10364 0.0
C229 C 0.18405 0.3254 0.09241 0.0
C230 C 0.26892 0.37169 0.12203 0.0
C231 C 0.1406 0.26686 0.1049 0.0
C232 C 0.23238 0.22106 0.13477 0.0
C233 C 0.20437 0.23245 0.14459 0.0
C234 C 0.23386 0.25004 0.12473 0.0
C235 C 0.20547 0.29061 0.12436 0.0
C236 C 0.17697 0.30231 0.13426 0.0
C237 C 0.17733 0.27332 0.14438 0.0
C238 C 0.26561 0.23697 0.11447 0.0
C239 C 0.1453 0.34458 0.134 0.0
H240 H 0.26926 0.40401 0.09939 0.0
H241 H 0.16423 0.313 0.08478 0.0
H242 H 0.24866 0.37653 0.13038 0.0
H243 H 0.29528 0.34396 0.12374 0.0
H244 H 0.28765 0.40481 0.11996 0.0
H245 H 0.11645 0.26558 0.09714 0.0
H246 H 0.15851 0.23251 0.10561 0.0
H247 H 0.11972 0.2718 0.11316 0.0
H248 H 0.25372 0.18969 0.13501 0.0
H249 H 0.15554 0.28188 0.152 0.0
H250 H 0.2887 0.2669 0.11215 0.0
H251 H 0.24437 0.22873 0.10645 0.0
H252 H 0.28785 0.20614 0.11655 0.0
H253 H 0.16575 0.37664 0.13198 0.0
H254 H 0.12659 0.34973 0.14259 0.0
H255 H 0.11904 0.34044 0.12678 0.0
C256 C 0.8044 0.77377 0.37866 0.0
C257 C 0.84776 0.75808 0.3828 0.0
C258 C 0.78492 0.75532 0.3682 0.0
C259 C 0.80867 0.71907 0.36206 0.0
C260 C 0.8522 0.70255 0.36634 0.0
C261 C 0.87174 0.72299 0.37658 0.0
C262 C 0.73911 0.77485 0.36369 0.0
C263 C 0.87757 0.66279 0.36026 0.0
C264 C 0.72804 0.65053 0.34178 0.0
C265 C 0.7378 0.671 0.3307 0.0
C266 C 0.75328 0.66351 0.35198 0.0
C267 C 0.78775 0.69897 0.3511 0.0
C268 C 0.79906 0.71829 0.33983 0.0
C269 C 0.77448 0.70335 0.3297 0.0
C270 C 0.74152 0.64088 0.36379 0.0
C271 C 0.8347 0.75708 0.33857 0.0
H272 H 0.78611 0.80107 0.38351 0.0
H273 H 0.90507 0.71055 0.37994 0.0
H274 H 0.74309 0.78692 0.35433 0.0
H275 H 0.71196 0.74708 0.36374 0.0
H276 H 0.72647 0.80466 0.36919 0.0
H277 H 0.91059 0.65338 0.36491 0.0
H278 H 0.85467 0.6314 0.35994 0.0
H279 H 0.88592 0.67237 0.35091 0.0
H280 H 0.69994 0.62515 0.34251 0.0
H281 H 0.78212 0.71921 0.32114 0.0
H282 H 0.72271 0.66631 0.36953 0.0
H283 H 0.77394 0.63058 0.36856 0.0
H284 H 0.71907 0.6094 0.36267 0.0
H285 H 0.82179 0.78892 0.34321 0.0
H286 H 0.84166 0.76608 0.32909 0.0
H287 H 0.86816 0.74703 0.34286 0.0
C288 C 0.2232 0.1366 0.60151 0.0
C289 C 0.24771 0.15238 0.59146 0.0
C290 C 0.23184 0.15602 0.61278 0.0
C291 C 0.2668 0.19086 0.61402 0.0
C292 C 0.29356 0.20476 0.604 0.0
C293 C 0.2831 0.18589 0.59277 0.0
C294 C 0.20173 0.1413 0.62321 0.0
C295 C 0.33202 0.24083 0.60505 0.0
C296 C 0.25195 0.28316 0.63788 0.0
C297 C 0.28082 0.26609 0.64698 0.0
C298 C 0.24656 0.25845 0.62719 0.0
C299 C 0.27186 0.21642 0.62545 0.0
C300 C 0.30172 0.19935 0.63454 0.0
C301 C 0.30525 0.2241 0.64534 0.0
C302 C 0.21343 0.27714 0.61782 0.0
C303 C 0.33024 0.1554 0.63281 0.0
H304 H 0.19573 0.11072 0.60045 0.0
H305 H 0.30242 0.19757 0.58499 0.0
H306 H 0.2238 0.13126 0.63093 0.0
H307 H 0.17971 0.17127 0.62607 0.0
H308 H 0.17843 0.11142 0.62094 0.0
H309 H 0.35349 0.24307 0.5968 0.0
H310 H 0.31654 0.27578 0.60679 0.0
H311 H 0.3553 0.2324 0.61268 0.0
H312 H 0.23263 0.3154 0.63922 0.0
H313 H 0.32771 0.21114 0.6524 0.0
H314 H 0.1871 0.25004 0.6155 0.0
H315 H 0.233 0.28566 0.60956 0.0
H316 H 0.19476 0.30914 0.62084 0.0
H317 H 0.30682 0.12513 0.63113 0.0
H318 H 0.35252 0.14739 0.64067 0.0
H319 H 0.35303 0.15926 0.62485 0.0
C320 C 0.76561 0.83464 0.8401 0.0
C321 C 0.75552 0.81423 0.82903 0.0
C322 C 0.74132 0.82094 0.85039 0.0
C323 C 0.70744 0.78488 0.84959 0.0
C324 C 0.6959 0.76545 0.83836 0.0
C325 C 0.71954 0.78105 0.82816 0.0
C326 C 0.75332 0.84362 0.86218 0.0
C327 C 0.66085 0.72607 0.8372 0.0
C328 C 0.69268 0.71103 0.87739 0.0
C329 C 0.64958 0.72685 0.88168 0.0
C330 C 0.71135 0.72893 0.86678 0.0
C331 C 0.68703 0.76473 0.86061 0.0
C332 C 0.64361 0.78113 0.86499 0.0
C333 C 0.62492 0.7613 0.8754 0.0
C334 C 0.75709 0.70956 0.86217 0.0
C335 C 0.61758 0.82036 0.85886 0.0
H336 H 0.79318 0.86064 0.84075 0.0
H337 H 0.71165 0.76522 0.8196 0.0
H338 H 0.72098 0.85385 0.86699 0.0
H339 H 0.7723 0.81825 0.8679 0.0
H340 H 0.77566 0.87517 0.86102 0.0
H341 H 0.65378 0.71681 0.82774 0.0
H342 H 0.67437 0.69451 0.84184 0.0
H343 H 0.62735 0.73567 0.84154 0.0
H344 H 0.71152 0.68425 0.88229 0.0
H345 H 0.59181 0.77388 0.87886 0.0
H346 H 0.78409 0.73747 0.86214 0.0
H347 H 0.75284 0.69736 0.85283 0.0
H348 H 0.77006 0.67989 0.86767 0.0
H349 H 0.63994 0.85213 0.85853 0.0
H350 H 0.58437 0.82926 0.86348 0.0
H351 H 0.60948 0.81056 0.84951 0.0
C352 C 0.68121 0.725 0.5809 0.0
C353 C 0.70659 0.76682 0.58 0.0
C354 C 0.68453 0.69704 0.59118 0.0
C355 C 0.71511 0.71074 0.60049 0.0
C356 C 0.74186 0.75226 0.59941 0.0
C357 C 0.73667 0.78019 0.58925 0.0
C358 C 0.6545 0.65372 0.59222 0.0
C359 C 0.77577 0.76742 0.60902 0.0
C360 C 0.70107 0.67676 0.63282 0.0
C361 C 0.73522 0.642 0.634 0.0
C362 C 0.69158 0.69691 0.6217 0.0
C363 C 0.71822 0.6831 0.61165 0.0
C364 C 0.75165 0.64676 0.61273 0.0
C365 C 0.75924 0.62602 0.62391 0.0
C366 C 0.65465 0.73456 0.62083 0.0
C367 C 0.78161 0.63205 0.60228 0.0
H368 H 0.65786 0.7149 0.57372 0.0
H369 H 0.75676 0.81228 0.58846 0.0
H370 H 0.6766 0.62257 0.59397 0.0
H371 H 0.63033 0.65746 0.59992 0.0
H372 H 0.63348 0.64728 0.58405 0.0
H373 H 0.79643 0.79871 0.60636 0.0
H374 H 0.75641 0.77583 0.61732 0.0
H375 H 0.80033 0.73849 0.61112 0.0
H376 H 0.68215 0.68858 0.64066 0.0
H377 H 0.78578 0.59918 0.62489 0.0
H378 H 0.6317 0.72829 0.613 0.0
H379 H 0.67166 0.76914 0.61955 0.0
H380 H 0.6326 0.7363 0.62898 0.0
H381 H 0.75969 0.62516 0.59431 0.0
H382 H 0.80253 0.60022 0.60428 0.0
H383 H 0.80598 0.66094 0.59996 0.0
C384 C 0.26489 0.15173 0.8858 0.0
C385 C 0.25445 0.17149 0.89691 0.0
C386 C 0.23988 0.16486 0.87558 0.0
C387 C 0.20497 0.19981 0.87649 0.0
C388 C 0.19313 0.21856 0.88778 0.0
C389 C 0.21752 0.20347 0.89792 0.0
C390 C 0.25229 0.14288 0.86373 0.0
C391 C 0.15705 0.25686 0.88906 0.0
C392 C 0.18948 0.27346 0.84871 0.0
C393 C 0.14709 0.25639 0.84426 0.0
C394 C 0.20791 0.25628 0.85942 0.0
C395 C 0.18415 0.21989 0.86552 0.0
C396 C 0.14131 0.2024 0.86102 0.0
C397 C 0.12278 0.22157 0.85051 0.0
C398 C 0.25294 0.27685 0.86416 0.0
C399 C 0.11593 0.16255 0.86708 0.0
H400 H 0.29325 0.12669 0.88506 0.0
H401 H 0.20953 0.21887 0.90652 0.0
H402 H 0.22015 0.13199 0.85892 0.0
H403 H 0.27062 0.16893 0.85806 0.0
H404 H 0.27538 0.11189 0.86481 0.0
H405 H 0.14945 0.26515 0.89856 0.0
H406 H 0.16996 0.28914 0.88462 0.0
H407 H 0.12395 0.24676 0.88459 0.0
H408 H 0.20801 0.30059 0.84384 0.0
H409 H 0.0902 0.20809 0.84693 0.0
H410 H 0.28078 0.24982 0.86412 0.0
H411 H 0.2482 0.28838 0.87354 0.0
H412 H 0.26511 0.30723 0.85879 0.0
H413 H 0.13868 0.13108 0.86724 0.0
H414 H 0.08268 0.15343 0.8625 0.0
H415 H 0.10804 0.17172 0.87648 0.0
C416 C 0.80688 0.75345 0.08067 0.0
C417 C 0.78245 0.71138 0.07913 0.0
C418 C 0.80425 0.77801 0.09149 0.0
C419 C 0.77511 0.76076 0.10072 0.0
C420 C 0.7504 0.71823 0.09916 0.0
C421 C 0.75503 0.69362 0.08844 0.0
C422 C 0.83233 0.82241 0.09304 0.0
C423 C 0.71797 0.69938 0.10868 0.0
C424 C 0.78514 0.79731 0.13305 0.0
C425 C 0.74968 0.83093 0.13386 0.0
C426 C 0.79576 0.77609 0.12211 0.0
C427 C 0.76898 0.78764 0.11191 0.0
C428 C 0.73359 0.82219 0.11266 0.0
C429 C 0.72491 0.84409 0.12363 0.0
C430 C 0.83474 0.74049 0.12154 0.0
C431 C 0.70337 0.83434 0.10204 0.0
H432 H 0.82828 0.76689 0.07344 0.0
H433 H 0.73576 0.66126 0.08718 0.0
H434 H 0.80845 0.85274 0.09405 0.0
H435 H 0.85369 0.82031 0.1013 0.0
H436 H 0.85592 0.82913 0.08535 0.0
H437 H 0.70071 0.66619 0.10594 0.0
H438 H 0.73766 0.69294 0.11705 0.0
H439 H 0.6905 0.72563 0.11072 0.0
H440 H 0.80459 0.78764 0.14099 0.0
H441 H 0.69733 0.87 0.12432 0.0
H442 H 0.85831 0.74822 0.11392 0.0
H443 H 0.81987 0.70506 0.12006 0.0
H444 H 0.85577 0.73976 0.12988 0.0
H445 H 0.72544 0.84483 0.09436 0.0
H446 H 0.67849 0.86318 0.10402 0.0
H447 H 0.68307 0.80302 0.09927 0.0
C448 C 0.23102 0.34779 0.38357 0.0
C449 C 0.24091 0.32637 0.39453 0.0
C450 C 0.25543 0.33502 0.37323 0.0
C451 C 0.28912 0.29879 0.37384 0.0
C452 C 0.30053 0.27842 0.38498 0.0
C453 C 0.27683 0.29316 0.39525 0.0
C454 C 0.24362 0.35876 0.36157 0.0
C455 C 0.3353 0.23878 0.38593 0.0
C456 C 0.30291 0.22573 0.34587 0.0
C457 C 0.34649 0.24077 0.34169 0.0
C458 C 0.28425 0.24385 0.35646 0.0
C459 C 0.30908 0.27912 0.36271 0.0
C460 C 0.35277 0.29507 0.35838 0.0
C461 C 0.37146 0.27495 0.34801 0.0
C462 C 0.2382 0.22493 0.361 0.0
C463 C 0.37929 0.33383 0.36458 0.0
H464 H 0.20345 0.37378 0.38306 0.0
H465 H 0.28444 0.2765 0.40372 0.0
H466 H 0.27604 0.36876 0.35675 0.0
H467 H 0.22398 0.33415 0.35577 0.0
H468 H 0.22194 0.3906 0.36291 0.0
H469 H 0.34246 0.22889 0.39535 0.0
H470 H 0.32144 0.2076 0.38118 0.0
H471 H 0.3688 0.24844 0.38159 0.0
H472 H 0.28387 0.1991 0.34096 0.0
H473 H 0.40497 0.28688 0.34464 0.0
H474 H 0.21171 0.25327 0.36119 0.0
H475 H 0.24234 0.212 0.37029 0.0
H476 H 0.22462 0.19587 0.35539 0.0
H477 H 0.35703 0.36558 0.36519 0.0
H478 H 0.41218 0.3431 0.35985 0.0
H479 H 0.38808 0.32325 0.37384 0.0
C480 C 0.25759 0.22536 0.22188 0.0
C481 C 0.24668 0.18674 0.21468 0.0
C482 C 0.26296 0.22021 0.23425 0.0
C483 C 0.25838 0.17522 0.23945 0.0
C484 C 0.24588 0.13642 0.23228 0.0
C485 C 0.23971 0.14276 0.21999 0.0
C486 C 0.27534 0.26256 0.24169 0.0
C487 C 0.24167 0.08774 0.23746 0.0
C488 C 0.33148 0.15494 0.26707 0.0
C489 C 0.29786 0.15733 0.27614 0.0
C490 C 0.31875 0.15951 0.25507 0.0
C491 C 0.27138 0.16788 0.25212 0.0
C492 C 0.23708 0.16974 0.26122 0.0
C493 C 0.25071 0.16381 0.27317 0.0
C494 C 0.35617 0.15606 0.24559 0.0
C495 C 0.18641 0.17947 0.25837 0.0
H496 H 0.26253 0.25948 0.21782 0.0
H497 H 0.23142 0.1127 0.21446 0.0
H498 H 0.25231 0.26465 0.24964 0.0
H499 H 0.31185 0.25938 0.24494 0.0
H500 H 0.27222 0.29571 0.23655 0.0
H501 H 0.22797 0.06208 0.23087 0.0
H502 H 0.27656 0.07567 0.24052 0.0
H503 H 0.21827 0.08787 0.24535 0.0
H504 H 0.36793 0.1496 0.26937 0.0
H505 H 0.22482 0.16612 0.28022 0.0
H506 H 0.35938 0.18998 0.24082 0.0
H507 H 0.3464 0.12918 0.23888 0.0
H508 H 0.39089 0.14684 0.24936 0.0
H509 H 0.18321 0.21454 0.25418 0.0
H510 H 0.1639 0.17847 0.26645 0.0
H511 H 0.17305 0.15349 0.25185 0.0
C512 C 0.83343 0.8402 0.45756 0.0
C513 C 0.8002 0.839 0.44839 0.0
C514 C 0.82005 0.83511 0.4695 0.0
C515 C 0.77238 0.82738 0.47228 0.0
C516 C 0.73852 0.8265 0.46305 0.0
C517 C 0.75281 0.83299 0.45117 0.0
C518 C 0.85703 0.83756 0.47912 0.0
C519 C 0.68755 0.81738 0.46571 0.0
C520 C 0.7557 0.76989 0.50243 0.0
C521 C 0.74491 0.80862 0.50959 0.0
C522 C 0.76198 0.77502 0.49008 0.0
C523 C 0.75852 0.82012 0.48489 0.0
C524 C 0.74623 0.85906 0.49202 0.0
C525 C 0.73905 0.85273 0.50427 0.0
C526 C 0.77404 0.73253 0.48268 0.0
C527 C 0.74329 0.90786 0.48685 0.0
H528 H 0.87007 0.84515 0.45539 0.0
H529 H 0.72722 0.83156 0.44404 0.0
H530 H 0.8475 0.86449 0.48583 0.0
H531 H 0.85924 0.80349 0.48384 0.0
H532 H 0.89215 0.84616 0.47547 0.0
H533 H 0.66555 0.81852 0.45754 0.0
H534 H 0.68361 0.78242 0.46993 0.0
H535 H 0.67415 0.84362 0.47215 0.0
H536 H 0.75982 0.73568 0.50651 0.0
H537 H 0.73091 0.88288 0.50978 0.0
H538 H 0.81082 0.73509 0.47959 0.0
H539 H 0.75152 0.73092 0.47462 0.0
H540 H 0.76992 0.6994 0.48778 0.0
H541 H 0.77857 0.91925 0.4839 0.0
H542 H 0.72987 0.93374 0.49342 0.0
H543 H 0.72024 0.90824 0.47889 0.0
C544 C 0.20482 0.26093 0.72377 0.0
C545 C 0.24583 0.27354 0.71775 0.0
C546 C 0.20116 0.26671 0.73616 0.0
C547 C 0.23998 0.28417 0.74265 0.0
C548 C 0.28257 0.29369 0.7367 0.0
C549 C 0.28475 0.28903 0.72426 0.0
C550 C 0.15485 0.25697 0.74216 0.0
C551 C 0.32515 0.3107 0.7434 0.0
C552 C 0.20926 0.35089 0.77077 0.0
C553 C 0.21229 0.31549 0.77932 0.0
C554 C 0.21977 0.34152 0.75878 0.0
C555 C 0.23452 0.29594 0.75545 0.0
C556 C 0.24031 0.26091 0.76427 0.0
C557 C 0.22824 0.27093 0.77612 0.0
C558 C 0.21234 0.37952 0.7496 0.0
C559 C 0.25722 0.21239 0.7611 0.0
H560 H 0.17462 0.24935 0.71871 0.0
H561 H 0.3166 0.29847 0.71958 0.0
H562 H 0.15965 0.23246 0.74974 0.0
H563 H 0.14046 0.29004 0.74585 0.0
H564 H 0.12874 0.24176 0.73592 0.0
H565 H 0.35706 0.31038 0.73774 0.0
H566 H 0.31924 0.34704 0.74656 0.0
H567 H 0.33144 0.28861 0.75139 0.0
H568 H 0.19618 0.38508 0.77334 0.0
H569 H 0.23013 0.24365 0.78284 0.0
H570 H 0.18408 0.36888 0.74336 0.0
H571 H 0.24451 0.38466 0.74423 0.0
H572 H 0.2026 0.41353 0.75373 0.0
H573 H 0.22963 0.19354 0.75606 0.0
H574 H 0.26605 0.1915 0.76916 0.0
H575 H 0.28854 0.21441 0.75527 0.0
C576 C 0.69058 0.72074 0.00356 0.0
C577 C 0.73357 0.7169 0.00942 0.0
C578 C 0.68779 0.7154 -0.00885 0.0
C579 C 0.72927 0.70775 0.9845 0.0
C580 C 0.77315 0.70751 -0.00968 0.0
C581 C 0.77468 0.71107 0.00279 0.0
C582 C 0.64023 0.71484 0.98527 0.0
C583 C 0.81821 0.70149 0.98347 0.0
C584 C 0.71363 0.63912 0.95584 0.0
C585 C 0.70715 0.67536 0.94764 0.0
C586 C 0.72232 0.6492 0.96789 0.0
C587 C 0.72609 0.69655 0.97161 0.0
C588 C 0.72296 0.73306 0.96312 0.0
C589 C 0.71249 0.72202 0.95124 0.0
C590 C 0.7244 0.60937 0.97675 0.0
C591 C 0.72861 0.78379 0.96667 0.0
H592 H 0.65883 0.72462 0.00877 0.0
H593 H 0.80791 0.70818 0.0074 0.0
H594 H 0.63887 0.74085 0.97793 0.0
H595 H 0.63374 0.67985 0.98128 0.0
H596 H 0.6116 0.72264 -0.00832 0.0
H597 H 0.84937 0.70903 -0.01092 0.0
H598 H 0.82088 0.66497 0.98017 0.0
H599 H 0.8188 0.72493 0.97557 0.0
H600 H 0.70885 0.60313 0.95299 0.0
H601 H 0.70745 0.74992 0.9448 0.0
H602 H 0.69486 0.61239 0.98314 0.0
H603 H 0.7572 0.61116 0.98201 0.0
H604 H 0.72245 0.57456 0.97234 0.0
H605 H 0.69764 0.79527 0.97186 0.0
H606 H 0.73223 0.80708 0.95877 0.0
H607 H 0.75976 0.78829 0.97247 0.0
C608 C 0.29667 0.3174 0.01606 0.0
C609 C 0.29108 0.28691 0.02574 0.0
C610 C 0.2964 0.30057 0.00435 0.0
C611 C 0.28913 0.25221 0.00228 0.0
C612 C 0.2837 0.22111 0.01202 0.0
C613 C 0.28537 0.23883 0.02371 0.0
C614 C 0.3035 0.33468 -0.00581 0.0
C615 C 0.27491 0.16951 0.01009 0.0
C616 C 0.24357 0.22998 0.97115 0.0
C617 C 0.28478 0.21796 0.96512 0.0
C618 C 0.24384 0.23796 0.98349 0.0
C619 C 0.28654 0.23493 -0.01017 0.0
C620 C 0.32781 0.22074 0.98389 0.0
C621 C 0.32631 0.21193 0.9716 0.0
C622 C 0.19893 0.25198 -0.01039 0.0
C623 C 0.37417 0.21802 -0.00968 0.0
H624 H 0.30153 0.35456 0.01766 0.0
H625 H 0.28071 0.21536 0.03122 0.0
H626 H 0.33279 0.32289 -0.01157 0.0
H627 H 0.27163 0.33592 -0.01145 0.0
H628 H 0.31122 0.37071 -0.00262 0.0
H629 H 0.27264 0.14986 0.01863 0.0
H630 H 0.24171 0.16464 0.00511 0.0
H631 H 0.30322 0.15409 0.00459 0.0
H632 H 0.21129 0.23409 0.96618 0.0
H633 H 0.35829 0.20272 0.96696 0.0
H634 H 0.20056 0.28959 -0.00792 0.0
H635 H 0.19414 0.2317 -0.00203 0.0
H636 H 0.16789 0.24648 0.98381 0.0
H637 H 0.38569 0.25386 -0.0072 0.0
H638 H 0.40182 0.20172 0.98473 0.0
H639 H 0.37071 0.19765 -0.0013 0.0
C640 C 0.73989 0.74594 0.25758 0.0
C641 C 0.69866 0.73616 0.26386 0.0
C642 C 0.73886 0.75418 0.24525 0.0
C643 C 0.69541 0.75397 0.23918 0.0
C644 C 0.65373 0.74378 0.24548 0.0
C645 C 0.65596 0.73435 0.25773 0.0
C646 C 0.78411 0.76382 0.23874 0.0
C647 C 0.60662 0.74449 0.23937 0.0
C648 C 0.68765 0.82669 0.21102 0.0
C649 C 0.68834 0.7921 0.20216 0.0
C650 C 0.68936 0.81464 0.22312 0.0
C651 C 0.69316 0.76691 0.22639 0.0
C652 C 0.69434 0.73181 0.21747 0.0
C653 C 0.69123 0.74482 0.20542 0.0
C654 C 0.68675 0.85295 0.23241 0.0
C655 C 0.69949 0.68067 0.22065 0.0
H656 H 0.77296 0.74697 0.26231 0.0
H657 H 0.62398 0.72717 0.26261 0.0
H658 H 0.78738 0.74027 0.2309 0.0
H659 H 0.78423 0.80032 0.23534 0.0
H660 H 0.81518 0.75896 0.24456 0.0
H661 H 0.57767 0.73477 0.24551 0.0
H662 H 0.59967 0.78006 0.23579 0.0
H663 H 0.60645 0.71997 0.2317 0.0
H664 H 0.68506 0.86326 0.20849 0.0
H665 H 0.69218 0.71812 0.19854 0.0
H666 H 0.71905 0.85309 0.23788 0.0
H667 H 0.65696 0.84634 0.23853 0.0
H668 H 0.68235 0.8882 0.22836 0.0
H669 H 0.73183 0.67542 0.22596 0.0
H670 H 0.70105 0.65786 0.21263 0.0
H671 H 0.66967 0.66926 0.22628 0.0
C672 C 0.24653 0.25606 0.46841 0.0
C673 C 0.20576 0.26779 0.46215 0.0
C674 C 0.24527 0.24817 0.48076 0.0
C675 C 0.20201 0.25088 0.48687 0.0
C676 C 0.16096 0.26373 0.48064 0.0
C677 C 0.16346 0.27259 0.46836 0.0
C678 C 0.28992 0.23561 0.4872 0.0
C679 C 0.11401 0.26589 0.4868 0.0
C680 C 0.18894 0.17503 0.51435 0.0
C681 C 0.19163 0.2082 0.52353 0.0
C682 C 0.19184 0.18864 0.50237 0.0
C683 C 0.19887 0.23644 0.49955 0.0
C684 C 0.2021 0.27011 0.5088 0.0
C685 C 0.19775 0.25562 0.52072 0.0
C686 C 0.187 0.15187 0.49275 0.0
C687 C 0.21069 0.32121 0.50609 0.0
H688 H 0.27935 0.25278 0.46364 0.0
H689 H 0.1318 0.2814 0.46353 0.0
H690 H 0.2942 0.25779 0.49527 0.0
H691 H 0.28827 0.19865 0.49023 0.0
H692 H 0.32125 0.23992 0.48144 0.0
H693 H 0.08591 0.27884 0.4808 0.0
H694 H 0.1042 0.23043 0.49001 0.0
H695 H 0.11584 0.28908 0.49472 0.0
H696 H 0.18387 0.13836 0.51653 0.0
H697 H 0.20026 0.28119 0.52785 0.0
H698 H 0.21935 0.1505 0.48729 0.0
H699 H 0.15781 0.16114 0.48666 0.0
H700 H 0.18032 0.11641 0.49646 0.0
H701 H 0.24347 0.32511 0.50088 0.0
H702 H 0.21349 0.34274 0.51432 0.0
H703 H 0.18186 0.33529 0.50053 0.0
C704 C 0.75261 0.71067 0.70571 0.0
C705 C 0.79599 0.70595 0.70007 0.0
C706 C 0.74984 0.72531 0.71762 0.0
C707 C 0.79159 0.73326 0.72411 0.0
C708 C 0.83549 0.7296 0.71832 0.0
C709 C 0.83709 0.71679 0.70624 0.0
C710 C 0.70237 0.73053 0.72338 0.0
C711 C 0.88079 0.73627 0.72504 0.0
C712 C 0.79067 0.79284 0.75437 0.0
C713 C 0.78826 0.75412 0.76202 0.0
C714 C 0.79032 0.78677 0.74195 0.0
C715 C 0.78953 0.74086 0.73718 0.0
C716 C 0.78744 0.70168 0.74491 0.0
C717 C 0.78593 0.70888 0.75726 0.0
C718 C 0.79072 0.82931 0.73394 0.0
C719 C 0.78798 0.65213 0.74017 0.0
H720 H 0.72089 0.70248 0.70083 0.0
H721 H 0.87058 0.71261 0.70183 0.0
H722 H 0.69673 0.70173 0.72987 0.0
H723 H 0.70035 0.76401 0.72839 0.0
H724 H 0.67361 0.72957 0.71672 0.0
H725 H 0.9118 0.73466 0.71908 0.0
H726 H 0.88092 0.77044 0.72975 0.0
H727 H 0.8842 0.70854 0.73193 0.0
H728 H 0.79224 0.82782 0.75812 0.0
H729 H 0.78464 0.67899 0.76323 0.0
H730 H 0.76091 0.8277 0.72761 0.0
H731 H 0.82323 0.82989 0.72855 0.0
H732 H 0.78849 0.86253 0.73908 0.0
H733 H 0.75697 0.64598 0.73443 0.0
H734 H 0.78799 0.6256 0.74742 0.0
H735 H 0.81948 0.64666 0.73454 0.0
C736 C 0.03995 0.08526 0.18561 0.0
C737 C 0.0735 0.06906 0.17747 0.0
C738 C -0.00496 0.0656 0.18599 0.0
C739 C 0.98329 0.02944 0.1779 0.0
C740 C 0.01718 0.01257 0.16974 0.0
C741 C 0.06209 0.03236 0.16969 0.0
C742 C 0.96003 0.08386 0.19495 0.0
C743 C 0.00569 0.97432 0.1609 0.0
C744 C 0.88031 0.94898 0.18367 0.0
C745 C 0.84607 0.96835 0.17619 0.0
C746 C 0.92473 0.96944 0.18462 0.0
C747 C 0.93526 0.00974 0.17778 0.0
C748 C 0.90042 0.03023 0.17048 0.0
C749 C 0.85601 0.00946 0.16984 0.0
C750 C 0.96076 0.94718 0.19268 0.0
C751 C 0.9106 0.07299 0.16297 0.0
H752 H 0.04875 0.11346 0.19169 0.0
H753 H 0.08789 0.01992 0.16335 0.0
H754 H 0.9298 0.09962 0.19022 0.0
H755 H 0.94634 0.05459 0.20045 0.0
H756 H 0.9754 0.11068 0.20097 0.0
H757 H 0.0361 0.96497 0.15521 0.0
H758 H 0.9938 0.94242 0.16567 0.0
H759 H 0.97655 0.98574 0.15504 0.0
H760 H 0.87263 0.91731 0.18864 0.0
H761 H 0.8297 0.02436 0.16401 0.0
H762 H 0.97566 0.97373 0.19883 0.0
H763 H 0.99003 0.93324 0.18724 0.0
H764 H 0.94591 0.91804 0.19805 0.0
H765 H 0.92391 0.10185 0.16867 0.0
H766 H 0.87919 0.08557 0.15809 0.0
H767 H 0.93832 0.06472 0.15637 0.0
C768 C 0.03616 0.46426 0.42357 0.0
C769 C 0.07298 0.45134 0.43113 0.0
C770 C 0.01719 0.50948 0.42401 0.0
C771 C 0.03498 0.54223 0.43236 0.0
C772 C 0.07041 0.52859 0.44045 0.0
C773 C 0.08933 0.48335 0.43967 0.0
C774 C 0.97961 0.52284 0.41517 0.0
C775 C 0.08944 0.56223 0.44965 0.0
C776 C 0.02219 0.66908 0.42303 0.0
C777 C 0.98026 0.68145 0.42867 0.0
C778 C 0.04139 0.62429 0.42452 0.0
C779 C 0.01849 0.5915 0.432 0.0
C780 C 0.97783 0.60486 0.43834 0.0
C781 C 0.95892 0.64961 0.43651 0.0
C782 C 0.08466 0.61119 0.41755 0.0
C783 C 0.95306 0.5712 0.4466 0.0
H784 H 0.02347 0.43966 0.41694 0.0
H785 H 0.11757 0.47336 0.4456 0.0
H786 H 0.94863 0.53697 0.41991 0.0
H787 H 0.99283 0.5509 0.40919 0.0
H788 H 0.96829 0.49272 0.40959 0.0
H789 H 0.11322 0.5447 0.45609 0.0
H790 H 0.10909 0.59068 0.44513 0.0
H791 H 0.06039 0.57883 0.45467 0.0
H792 H 0.03873 0.69353 0.41694 0.0
H793 H 0.92665 0.65919 0.44097 0.0
H794 H 0.07581 0.58358 0.41095 0.0
H795 H 0.11168 0.59658 0.42359 0.0
H796 H 0.09986 0.64156 0.4127 0.0
H797 H 0.9363 0.54301 0.44128 0.0
H798 H 0.92563 0.58882 0.45199 0.0
H799 H 0.97842 0.55428 0.45273 0.0
C800 C 0.44549 0.40269 0.69157 0.0
C801 C 0.41087 0.41899 0.68374 0.0
C802 C 0.49022 0.42288 0.69171 0.0
C803 C 0.50076 0.45948 0.68363 0.0
C804 C 0.46558 0.47682 0.6759 0.0
C805 C 0.42083 0.45666 0.67615 0.0
C806 C 0.52649 0.4043 0.70028 0.0
C807 C 0.4757 0.51541 0.66704 0.0
C808 C 0.60639 0.53841 0.68758 0.0
C809 C 0.63837 0.51818 0.67961 0.0
C810 C 0.56204 0.51857 0.68936 0.0
C811 C 0.54912 0.47821 0.6828 0.0
C812 C 0.58176 0.45692 0.67499 0.0
C813 C 0.62625 0.47692 0.67359 0.0
C814 C 0.52858 0.54152 0.69799 0.0
C815 C 0.56902 0.41418 0.66774 0.0
H816 H 0.43774 0.37376 0.69753 0.0
H817 H 0.39418 0.46916 0.67004 0.0
H818 H 0.55501 0.38696 0.69523 0.0
H819 H 0.54244 0.43353 0.70539 0.0
H820 H 0.51153 0.37861 0.70668 0.0
H821 H 0.44417 0.52572 0.66188 0.0
H822 H 0.48944 0.54677 0.67173 0.0
H823 H 0.50309 0.5037 0.66069 0.0
H824 H 0.61582 0.57018 0.69231 0.0
H825 H 0.65081 0.46137 0.66738 0.0
H826 H 0.51437 0.51518 0.70431 0.0
H827 H 0.49852 0.55646 0.69302 0.0
H828 H 0.54548 0.57005 0.70318 0.0
H829 H 0.55688 0.3856 0.67368 0.0
H830 H 0.59887 0.40108 0.66234 0.0
H831 H 0.5397 0.42275 0.66162 0.0
C832 C 0.46035 0.0321 0.92422 0.0
C833 C 0.42334 0.04283 0.93195 0.0
C834 C 0.48008 0.98717 0.92406 0.0
C835 C 0.46287 0.95247 0.93197 0.0
C836 C 0.42709 0.96378 0.94019 0.0
C837 C 0.40742 0.00879 0.94001 0.0
C838 C 0.518 0.9763 0.91509 0.0
C839 C 0.40863 0.92798 0.94893 0.0
C840 C 0.47877 0.8271 0.92161 0.0
C841 C 0.52049 0.81476 0.92736 0.0
C842 C 0.45883 0.87147 0.92332 0.0
C843 C 0.48076 0.90379 0.93112 0.0
C844 C 0.52146 0.89052 0.93745 0.0
C845 C 0.54112 0.84626 0.9354 0.0
C846 C 0.41562 0.88456 0.91632 0.0
C847 C 0.54522 0.92367 0.94603 0.0
H848 H 0.47268 0.05826 0.91795 0.0
H849 H 0.379 0.01707 0.94606 0.0
H850 H 0.54933 0.96219 0.91969 0.0
H851 H 0.50553 0.94893 0.90881 0.0
H852 H 0.52854 0.00762 0.90985 0.0
H853 H 0.38387 0.94357 0.95546 0.0
H854 H 0.39027 0.89966 0.94402 0.0
H855 H 0.43794 0.91155 0.95388 0.0
H856 H 0.46284 0.80289 0.91536 0.0
H857 H 0.57323 0.83667 0.93993 0.0
H858 H 0.42402 0.91354 0.91007 0.0
H859 H 0.38788 0.89735 0.92242 0.0
H860 H 0.40154 0.85465 0.91109 0.0
H861 H 0.5607 0.9534 0.94102 0.0
H862 H 0.57345 0.90624 0.95119 0.0
H863 H 0.51938 0.93851 0.95238 0.0
C864 C 0.10044 0.45212 0.03368 0.0
C865 C 0.13077 0.47452 0.0417 0.0
C866 C 0.05558 0.46994 0.03148 0.0
C867 C 0.04053 0.51035 0.03769 0.0
C868 C 0.07186 0.53434 0.04535 0.0
C869 C 0.11689 0.51637 0.04716 0.0
C870 C 0.02361 0.44427 0.02297 0.0
C871 C 0.05689 0.57735 0.05221 0.0
C872 C 0.93221 0.58002 0.02988 0.0
C873 C 0.90026 0.56306 0.03834 0.0
C874 C 0.97735 0.56116 0.02904 0.0
C875 C 0.99099 0.52543 0.03705 0.0
C876 C 0.95813 0.50675 0.04524 0.0
C877 C 0.91288 0.52549 0.04569 0.0
C878 C 0.01098 0.58088 0.01994 0.0
C879 C 0.97155 0.4689 0.05402 0.0
H880 H 0.11132 0.41993 0.02936 0.0
H881 H 0.14024 0.53366 0.05339 0.0
H882 H -0.00419 0.42603 0.02809 0.0
H883 H 0.00613 0.46928 0.01684 0.0
H884 H 0.04273 0.41784 0.01758 0.0
H885 H 0.08619 0.59322 0.05732 0.0
H886 H 0.04257 0.60412 0.04604 0.0
H887 H 0.02862 0.56786 0.05856 0.0
H888 H 0.92227 0.60878 0.02409 0.0
H889 H 0.88822 0.51241 0.05225 0.0
H890 H 0.02919 0.55218 0.01515 0.0
H891 H 0.0381 0.60207 0.02453 0.0
H892 H 0.99307 0.60352 0.0133 0.0
H893 H 0.98683 0.43848 0.04926 0.0
H894 H 0.94125 0.45657 0.05937 0.0
H895 H -0.00131 0.48248 0.06021 0.0
C896 C 0.58749 0.51407 0.28523 0.0
C897 C 0.57037 0.5453 0.29386 0.0
C898 C 0.56928 0.46857 0.28423 0.0
C899 C 0.53375 0.45386 0.29219 0.0
C900 C 0.51522 0.48581 0.30062 0.0
C901 C 0.53351 0.5313 0.30129 0.0
C902 C 0.5891 0.4358 0.27495 0.0
C903 C 0.47747 0.47134 0.30932 0.0
C904 C 0.45832 0.34623 0.28762 0.0
C905 C 0.47935 0.31435 0.29549 0.0
C906 C 0.47733 0.39101 0.28586 0.0
C907 C 0.51777 0.40436 0.29229 0.0
C908 C 0.54055 0.37144 0.29975 0.0
C909 C 0.52124 0.32661 0.30118 0.0
C910 C 0.45271 0.42479 0.27761 0.0
C911 C 0.5836 0.38449 0.30682 0.0
H912 H 0.61577 0.52488 0.2794 0.0
H913 H 0.5202 0.55528 0.30797 0.0
H914 H 0.60898 0.40739 0.2794 0.0
H915 H 0.56046 0.41905 0.2698 0.0
H916 H 0.61286 0.45409 0.26863 0.0
H917 H 0.46571 0.50087 0.31503 0.0
H918 H 0.44678 0.45729 0.30443 0.0
H919 H 0.49074 0.44293 0.31517 0.0
H920 H 0.4261 0.33672 0.28312 0.0
H921 H 0.53757 0.30212 0.30728 0.0
H922 H 0.47824 0.44247 0.27166 0.0
H923 H 0.43519 0.45238 0.28296 0.0
H924 H 0.4259 0.40707 0.27203 0.0
H925 H 0.61055 0.39993 0.30089 0.0
H926 H 0.59904 0.35391 0.31152 0.0
H927 H 0.57436 0.41143 0.31356 0.0
C928 C 0.55431 0.95914 0.55363 0.0
C929 C 0.56687 0.92235 0.54602 0.0
C930 C 0.509 0.97784 0.55339 0.0
C931 C 0.47587 0.95981 0.54518 0.0
C932 C 0.48875 0.92351 0.53725 0.0
C933 C 0.53405 0.90489 0.53784 0.0
C934 C 0.4963 0.01627 0.56207 0.0
C935 C 0.45461 0.90412 0.52822 0.0
C936 C 0.34861 0.97951 0.55317 0.0
C937 C 0.33897 0.02092 0.54694 0.0
C938 C 0.39275 0.95834 0.55241 0.0
C939 C 0.42758 0.97871 0.54506 0.0
C940 C 0.41707 0.01895 0.5382 0.0
C941 C 0.37296 0.03985 0.53931 0.0
C942 C 0.40289 0.91566 0.55994 0.0
C943 C 0.45299 0.04103 0.53007 0.0
H944 H 0.57954 0.97254 0.56 0.0
H945 H 0.54378 0.8766 0.53188 0.0
H946 H 0.4845 0.04782 0.55715 0.0
H947 H 0.46679 0.0047 0.5678 0.0
H948 H 0.52611 0.02625 0.56791 0.0
H949 H 0.47079 0.87725 0.52236 0.0
H950 H 0.42434 0.88809 0.53288 0.0
H951 H 0.4408 0.93284 0.52256 0.0
H952 H 0.32245 0.96494 0.55912 0.0
H953 H 0.36545 0.07171 0.5344 0.0
H954 H 0.42978 0.92443 0.56673 0.0
H955 H 0.41727 0.88709 0.55432 0.0
H956 H 0.37122 0.90248 0.5646 0.0
H957 H 0.48168 0.05629 0.5355 0.0
H958 H 0.43777 0.06921 0.52444 0.0
H959 H 0.46875 0.01416 0.52416 0.0
C960 C 0.97599 0.16254 0.80316 0.0
C961 C 0.01778 0.17453 0.79738 0.0
C962 C 0.95559 0.11829 0.80149 0.0
C963 C 0.97708 0.08572 0.79369 0.0
C964 C 0.01764 0.09879 0.78726 0.0
C965 C 0.0378 0.14292 0.78928 0.0
C966 C 0.91258 0.10546 0.80861 0.0
C967 C 0.04094 0.06545 0.77866 0.0
C968 C 0.95835 0.95742 0.80104 0.0
C969 C 0.92122 0.94565 0.79345 0.0
C970 C 0.97739 0.0027 0.80104 0.0
C971 C 0.9594 0.03678 0.79309 0.0
C972 C 0.92333 0.02453 0.78501 0.0
C973 C 0.90434 0.97916 0.78537 0.0
C974 C 0.01558 0.01452 0.80986 0.0
C975 C 0.90403 0.05964 0.77623 0.0
H976 H 0.9605 0.1868 0.80946 0.0
H977 H 0.06995 0.15222 0.78472 0.0
H978 H 0.8848 0.0919 0.80263 0.0
H979 H 0.92133 0.07711 0.81501 0.0
H980 H 0.89844 0.13571 0.81369 0.0
H981 H 0.06859 0.08292 0.77329 0.0
H982 H 0.05712 0.03618 0.78369 0.0
H983 H 0.01473 0.05 0.7725 0.0
H984 H 0.97143 0.93172 0.80734 0.0
H985 H 0.87579 0.97014 0.77942 0.0
H986 H 0.00327 0.04236 0.81602 0.0
H987 H 0.0467 0.02836 0.80511 0.0
H988 H 0.02642 0.98371 0.81525 0.0
H989 H 0.88579 0.08808 0.78111 0.0
H990 H 0.87897 0.04345 0.76987 0.0
H991 H 0.9329 0.07604 0.77109 0.0
C992 C 0.55941 0.9756 0.17416 0.0
C993 C 0.56357 0.93949 0.16575 0.0
C994 C 0.51873 0.00287 0.1748 0.0
C995 C 0.48184 0.99453 0.16664 0.0
C996 C 0.48612 0.95858 0.15801 0.0
C997 C 0.52676 0.93105 0.15776 0.0
C998 C 0.51507 0.04029 0.18429 0.0
C999 C 0.44794 0.94946 0.14899 0.0
C1000 C 0.36093 0.03794 0.17519 0.0
C1001 C 0.35962 0.08163 0.1695 0.0
C1002 C 0.40037 0.00895 0.17425 0.0
C1003 C 0.43881 0.02358 0.1672 0.0
C1004 C 0.43695 0.06694 0.16109 0.0
C1005 C 0.39759 0.09574 0.16244 0.0
C1006 C 0.40151 0.96339 0.18109 0.0
C1007 C 0.47679 0.08319 0.15326 0.0
H1008 H 0.58765 0.98197 0.18041 0.0
H1009 H 0.53004 0.90335 0.1512 0.0
H1010 H 0.51068 0.07514 0.18006 0.0
H1011 H 0.48374 0.03393 0.18991 0.0
H1012 H 0.54639 0.04143 0.19015 0.0
H1013 H 0.45723 0.92095 0.14267 0.0
H1014 H 0.41505 0.93978 0.15362 0.0
H1015 H 0.44081 0.9818 0.1438 0.0
H1016 H 0.33173 0.02707 0.18071 0.0
H1017 H 0.39646 0.12933 0.15793 0.0
H1018 H 0.43067 0.96408 0.18763 0.0
H1019 H 0.40809 0.93372 0.17493 0.0
H1020 H 0.36836 0.95665 0.18597 0.0
H1021 H 0.50846 0.08913 0.15877 0.0
H1022 H 0.46842 0.11616 0.14844 0.0
H1023 H 0.48556 0.05577 0.1466 0.0
C1024 C 0.99056 0.96597 0.41991 0.0
C1025 C 0.95376 0.96141 0.41172 0.0
C1026 C 0.01701 0.00731 0.42052 0.0
C1027 C 0.00705 0.04456 0.41256 0.0
C1028 C 0.97055 0.0398 0.40412 0.0
C1029 C 0.94396 -0.00155 0.40389 0.0
C1030 C 0.05517 0.01138 0.42978 0.0
C1031 C 0.95965 0.07834 0.39532 0.0
C1032 C 0.04847 0.16607 0.4215 0.0
C1033 C 0.09161 0.1688 0.4156 0.0
C1034 C 0.02019 0.12603 0.42046 0.0
C1035 C 0.03499 0.08843 0.41313 0.0
C1036 C 0.07758 0.0919 0.40676 0.0
C1037 C 0.10565 0.13182 0.40818 0.0
C1038 C 0.97537 0.12324 0.42756 0.0
C1039 C 0.09401 0.05302 0.39864 0.0
H1040 H -0.00198 0.9376 0.42605 0.0
H1041 H 0.91572 0.99495 0.39749 0.0
H1042 H 0.08939 0.01728 0.42537 0.0
H1043 H 0.04843 0.04205 0.43562 0.0
H1044 H 0.05783 0.97958 0.43546 0.0
H1045 H 0.93103 0.06857 0.38908 0.0
H1046 H 0.94933 0.11061 0.40015 0.0
H1047 H 0.99133 0.08691 0.39002 0.0
H1048 H 0.03766 0.19444 0.42731 0.0
H1049 H 0.13882 0.134 0.40352 0.0
H1050 H 0.97754 0.09389 0.43403 0.0
H1051 H 0.9454 0.11585 0.42156 0.0
H1052 H 0.96809 0.15607 0.43255 0.0
H1053 H 0.10156 0.02119 0.40398 0.0
H1054 H 0.12607 0.06274 0.3936 0.0
H1055 H 0.06612 0.04374 0.39216 0.0
C1056 C 0.08652 0.38146 0.66849 0.0
C1057 C 0.12434 0.39616 0.67554 0.0
C1058 C 0.04669 0.40953 0.66713 0.0
C1059 C 0.04422 0.45303 0.67315 0.0
C1060 C 0.08213 0.46802 0.68034 0.0
C1061 C 0.122 0.43957 0.68137 0.0
C1062 C 0.00734 0.39272 0.65921 0.0
C1063 C 0.08039 0.51392 0.68702 0.0
C1064 C 0.95976 0.54454 0.66138 0.0
C1065 C 0.92101 0.53816 0.6689 0.0
C1066 C 8e-05 0.51704 0.66267 0.0
C1067 C 0.00199 0.48289 0.67181 0.0
C1068 C 0.96316 0.47653 0.67949 0.0
C1069 C 0.92294 0.50397 0.67787 0.0
C1070 C 0.04046 0.52423 0.65417 0.0
C1071 C 0.96419 0.44085 0.68944 0.0
H1072 H 0.08825 0.34811 0.66388 0.0
H1073 H 0.15101 0.45096 0.68688 0.0
H1074 H 0.97467 0.38933 0.66448 0.0
H1075 H 0.00062 0.41876 0.65206 0.0
H1076 H 0.01511 0.35837 0.65499 0.0
H1077 H 0.11242 0.5201 0.69242 0.0
H1078 H 0.0762 0.54334 0.68065 0.0
H1079 H 0.04961 0.51442 0.69306 0.0
H1080 H 0.95842 0.57076 0.65439 0.0
H1081 H 0.89326 0.49914 0.68377 0.0
H1082 H 0.04795 0.49113 0.64934 0.0
H1083 H 0.07248 0.53373 0.65921 0.0
H1084 H 0.03333 0.55215 0.6475 0.0
H1085 H 0.96883 0.40521 0.68568 0.0
H1086 H 0.93167 0.44127 0.69487 0.0
H1087 H -0.00558 0.4477 0.6954 0.0
C1088 C 0.38755 0.36587 0.91335 0.0
C1089 C 0.40159 0.32791 0.92044 0.0
C1090 C 0.41595 0.40566 0.91213 0.0
C1091 C 0.45893 0.40798 0.91837 0.0
C1092 C 0.47338 0.36972 0.92552 0.0
C1093 C 0.44474 0.32985 0.92636 0.0
C1094 C 0.39989 0.44526 0.90419 0.0
C1095 C 0.5186 0.37131 0.93247 0.0
C1096 C 0.55174 0.49362 0.90781 0.0
C1097 C 0.54429 0.5319 0.91542 0.0
C1098 C 0.52401 0.4532 0.90861 0.0
C1099 C 0.48864 0.4506 0.91742 0.0
C1100 C 0.4812 0.48895 0.92522 0.0
C1101 C 0.50879 0.52941 0.92403 0.0
C1102 C 0.5323 0.41345 0.89997 0.0
C1103 C 0.44436 0.4871 0.93486 0.0
H1104 H 0.35435 0.36437 0.90869 0.0
H1105 H 0.45551 0.30074 0.93193 0.0
H1106 H 0.39512 0.47756 0.90955 0.0
H1107 H 0.42691 0.45291 0.89735 0.0
H1108 H 0.36642 0.43717 0.89958 0.0
H1109 H 0.52465 0.33877 0.93769 0.0
H1110 H 0.54852 0.37656 0.92631 0.0
H1111 H 0.51818 0.4015 0.93872 0.0
H1112 H 0.57895 0.49549 0.90108 0.0
H1113 H 0.50317 0.55876 0.93 0.0
H1114 H 0.49978 0.40599 0.89491 0.0
H1115 H 0.54155 0.38111 0.90492 0.0
H1116 H 0.56076 0.42132 0.89352 0.0
H1117 H 0.40927 0.48251 0.9308 0.0
H1118 H 0.44397 0.51931 0.94043 0.0
H1119 H 0.45059 0.45647 0.94075 0.0
C1120 C 0.58144 0.59944 0.05943 0.0
C1121 C 0.61784 0.58586 0.05178 0.0
C1122 C 0.5415 0.5715 0.06084 0.0
C1123 C 0.53752 0.52932 0.05429 0.0
C1124 C 0.57424 0.51519 0.04661 0.0
C1125 C 0.61422 0.54348 0.04552 0.0
C1126 C 0.50337 0.58736 0.06925 0.0
C1127 C 0.57085 0.47073 0.03936 0.0
C1128 C 0.44923 0.43872 0.06473 0.0
C1129 C 0.41076 0.44878 0.05739 0.0
C1130 C 0.49084 0.46461 0.06381 0.0
C1131 C 0.49421 0.50082 0.05522 0.0
C1132 C 0.45571 0.51074 0.04769 0.0
C1133 C 0.41434 0.48482 0.04894 0.0
C1134 C 0.53096 0.45361 0.07211 0.0
C1135 C 0.4582 0.54876 0.03834 0.0
H1136 H 0.58421 0.63194 0.06439 0.0
H1137 H 0.64217 0.53292 0.03957 0.0
H1138 H 0.47066 0.5938 0.06419 0.0
H1139 H 0.49579 0.5595 0.07588 0.0
H1140 H 0.51288 0.61994 0.07411 0.0
H1141 H 0.6028 0.46426 0.03397 0.0
H1142 H 0.56506 0.44027 0.04533 0.0
H1143 H 0.54036 0.47275 0.03325 0.0
H1144 H 0.44664 0.41107 0.07131 0.0
H1145 H 0.38484 0.49253 0.04316 0.0
H1146 H 0.53967 0.48499 0.07752 0.0
H1147 H 0.56259 0.44447 0.06688 0.0
H1148 H 0.52281 0.42416 0.07825 0.0
H1149 H 0.46416 0.5832 0.04267 0.0
H1150 H 0.42574 0.55092 0.03291 0.0
H1151 H 0.48819 0.54233 0.03227 0.0
C1152 C 0.43664 -0.00112 0.32153 0.0
C1153 C 0.44774 0.03533 0.31362 0.0
C1154 C 0.46249 0.9571 0.32159 0.0
C1155 C 0.49962 0.95134 0.31337 0.0
C1156 C 0.51086 0.98796 0.30533 0.0
C1157 C 0.4851 0.02972 0.30565 0.0
C1158 C 0.45019 0.91922 0.33046 0.0
C1159 C 0.54977 0.98283 0.29631 0.0
C1160 C 0.5973 0.86385 0.3184 0.0
C1161 C 0.58383 0.82694 0.31088 0.0
C1162 C 0.56911 0.90369 0.31971 0.0
C1163 C 0.52701 0.90712 0.31313 0.0
C1164 C 0.51257 0.8694 0.30578 0.0
C1165 C 0.54095 0.82946 0.30485 0.0
C1166 C 0.58512 0.94269 0.32786 0.0
C1167 C 0.46825 0.87213 0.29849 0.0
H1168 H 0.40795 0.00317 0.32776 0.0
H1169 H 0.49359 0.05763 0.29945 0.0
H1170 H 0.43998 0.88675 0.32568 0.0
H1171 H 0.48119 0.91066 0.336 0.0
H1172 H 0.42105 0.92966 0.33645 0.0
H1173 H 0.55334 0.0142 0.29051 0.0
H1174 H 0.58352 0.97689 0.30095 0.0
H1175 H 0.54316 0.95183 0.29057 0.0
H1176 H 0.63025 0.86181 0.32316 0.0
H1177 H 0.53058 0.80112 0.29897 0.0
H1178 H 0.5566 0.9527 0.33407 0.0
H1179 H 0.59391 0.97413 0.32248 0.0
H1180 H 0.61636 0.93272 0.33317 0.0
H1181 H 0.43801 0.88056 0.3043 0.0
H1182 H 0.46076 0.83891 0.29368 0.0
H1183 H 0.47137 0.90076 0.29183 0.0
C1184 C 0.89212 0.90498 0.56114 0.0
C1185 C 0.85358 0.91841 0.55421 0.0
C1186 C 0.93107 0.93445 0.56236 0.0
C1187 C 0.93191 0.97788 0.55627 0.0
C1188 C 0.89281 0.99194 0.54939 0.0
C1189 C 0.85381 0.96221 0.54856 0.0
C1190 C 0.97168 0.91872 0.57 0.0
C1191 C 0.89284 0.0376 0.54259 0.0
C1192 C 0.02109 0.06935 0.56573 0.0
C1193 C 0.05775 0.0605 0.55773 0.0
C1194 C 0.97977 0.04277 0.56537 0.0
C1195 C 0.97473 0.00734 0.55662 0.0
C1196 C 0.01123 -0.00097 0.54835 0.0
C1197 C 0.05252 0.02536 0.5491 0.0
C1198 C 0.94197 0.05192 0.57448 0.0
C1199 C 0.00676 0.96216 0.53874 0.0
H1200 H 0.89183 0.87134 0.56563 0.0
H1201 H 0.82414 0.97257 0.54314 0.0
H1202 H 0.00297 0.91315 0.56432 0.0
H1203 H 0.98068 0.94626 0.5766 0.0
H1204 H 0.96404 0.88566 0.57485 0.0
H1205 H 0.85903 0.04418 0.538 0.0
H1206 H 0.90013 0.06725 0.54871 0.0
H1207 H 0.92112 0.03716 0.5358 0.0
H1208 H 0.02513 0.09634 0.57246 0.0
H1209 H 0.08062 0.01872 0.54282 0.0
H1210 H 0.93585 0.01986 0.57987 0.0
H1211 H 0.90858 0.06048 0.56995 0.0
H1212 H 0.95112 0.08111 0.58061 0.0
H1213 H 0.00332 0.92703 0.54288 0.0
H1214 H 0.03737 0.96176 0.53263 0.0
H1215 H 0.97469 0.96838 0.53339 0.0
C1216 C 0.90116 0.62646 0.816 0.0
C1217 C 0.91256 0.66306 0.80816 0.0
C1218 C 0.93001 0.58704 0.81709 0.0
C1219 C 0.97085 0.5837 0.81001 0.0
C1220 C 0.98324 0.62106 0.8023 0.0
C1221 C 0.95411 0.66059 0.80155 0.0
C1222 C 0.91612 0.54842 0.82561 0.0
C1223 C 0.02627 0.61847 0.79452 0.0
C1224 C 0.06317 0.49508 0.8191 0.0
C1225 C 0.05181 0.45662 0.81185 0.0
C1226 C 0.0373 0.53677 0.81855 0.0
C1227 C -0.00039 0.54035 0.81043 0.0
C1228 C 0.98831 0.50189 0.80297 0.0
C1229 C 0.01429 0.46031 0.80384 0.0
C1230 C 0.04986 0.5767 0.8268 0.0
C1231 C 0.94867 0.50462 0.79409 0.0
H1232 H 0.86923 0.62839 0.8212 0.0
H1233 H 0.96285 0.68864 0.79542 0.0
H1234 H 0.90813 0.51603 0.82053 0.0
H1235 H 0.94552 0.54026 0.83173 0.0
H1236 H 0.88498 0.55781 0.83103 0.0
H1237 H 0.03202 0.65121 0.78936 0.0
H1238 H 0.05769 0.61158 0.80005 0.0
H1239 H 0.02278 0.58888 0.78816 0.0
H1240 H 0.09199 0.49244 0.82535 0.0
H1241 H 0.00556 0.43087 0.79815 0.0
H1242 H 0.01968 0.58499 0.83266 0.0
H1243 H 0.05773 0.60866 0.82154 0.0
H1244 H 0.08056 0.5685 0.83251 0.0
H1245 H 0.9151 0.5101 0.79885 0.0
H1246 H 0.94569 0.47239 0.78858 0.0
H1247 H 0.95385 0.53504 0.78806 0.0
loop_
_geom_bond_atom_site_label_1
_geom_bond_atom_site_label_2
_geom_bond_distance
_geom_bond_site_symmetry_2
_ccdc_geom_bond_type
C0 O1 1.306 . S
C0 O3 1.160 . S
O1 C0 1.306 . S
O1 Cd2 2.228 . S
Cd2 O1 2.228 . S
Cd2 O6 2.273 . S
Cd2 O10 2.277 . S
O3 C0 1.160 . S
O3 Cd4 2.203 . S
Cd4 O3 2.203 . S
Cd4 O6 2.411 . S
Cd4 O7 2.333 . S
Cd4 O8 2.352 . S
Cd4 O12 2.277 . S
Cd4 O13 2.356 . S
C5 O10 1.209 . S
C5 O12 1.226 . S
O6 Cd2 2.273 . S
O6 Cd4 2.411 . S
O6 C9 1.320 . S
O7 Cd4 2.333 . S
O7 C9 1.214 . S
O8 Cd4 2.352 . S
O8 C11 1.258 . S
C9 O6 1.320 . S
C9 O7 1.214 . S
O10 Cd2 2.277 . S
O10 C5 1.209 . S
C11 O8 1.258 . S
C11 O13 1.282 . S
O12 Cd4 2.277 . S
O12 C5 1.226 . S
O13 Cd4 2.356 . S
O13 C11 1.282 . S
C14 O15 1.306 . S
C14 O17 1.160 . S
O15 C14 1.306 . S
O15 Cd16 2.228 . S
Cd16 O15 2.228 . S
Cd16 O20 2.273 . S
Cd16 O24 2.277 . S
O17 C14 1.160 . S
O17 Cd18 2.203 . S
Cd18 O17 2.203 . S
Cd18 O20 2.411 . S
Cd18 O21 2.333 . S
Cd18 O22 2.352 . S
Cd18 O26 2.277 . S
Cd18 O27 2.356 . S
C19 O24 1.209 . S
C19 O26 1.226 . S
O20 Cd16 2.273 . S
O20 Cd18 2.411 . S
O20 C23 1.320 . S
O21 Cd18 2.333 . S
O21 C23 1.214 . S
O22 Cd18 2.352 . S
O22 C25 1.258 . S
C23 O20 1.320 . S
C23 O21 1.214 . S
O24 Cd16 2.277 . S
O24 C19 1.209 . S
C25 O22 1.258 . S
C25 O27 1.282 . S
O26 Cd18 2.277 . S
O26 C19 1.226 . S
O27 Cd18 2.356 . S
O27 C25 1.282 . S
C28 O29 1.306 . S
C28 O31 1.160 . S
O29 C28 1.306 . S
O29 Cd30 2.228 . S
Cd30 O29 2.228 . S
Cd30 O34 2.273 . S
Cd30 O38 2.277 . S
O31 C28 1.160 . S
O31 Cd32 2.203 . S
Cd32 O31 2.203 . S
Cd32 O34 2.411 . S
Cd32 O35 2.333 . S
Cd32 O36 2.352 . S
Cd32 O40 2.277 . S
Cd32 O41 2.356 . S
C33 O38 1.209 . S
C33 O40 1.226 . S
O34 Cd30 2.273 . S
O34 Cd32 2.411 . S
O34 C37 1.320 . S
O35 Cd32 2.333 . S
O35 C37 1.214 . S
O36 Cd32 2.352 . S
O36 C39 1.258 . S
C37 O34 1.320 . S
C37 O35 1.214 . S
O38 Cd30 2.277 . S
O38 C33 1.209 . S
C39 O36 1.258 . S
C39 O41 1.282 . S
O40 Cd32 2.277 . S
O40 C33 1.226 . S
O41 Cd32 2.356 . S
O41 C39 1.282 . S
C42 O43 1.306 . S
C42 O45 1.160 . S
O43 C42 1.306 . S
O43 Cd44 2.228 . S
Cd44 O43 2.228 . S
Cd44 O48 2.273 . S
Cd44 O52 2.277 . S
O45 C42 1.160 . S
O45 Cd46 2.203 . S
Cd46 O45 2.203 . S
Cd46 O48 2.411 . S
Cd46 O49 2.333 . S
Cd46 O50 2.352 . S
Cd46 O54 2.277 . S
Cd46 O55 2.356 . S
C47 O52 1.209 . S
C47 O54 1.226 . S
O48 Cd44 2.273 . S
O48 Cd46 2.411 . S
O48 C51 1.320 . S
O49 Cd46 2.333 . S
O49 C51 1.214 . S
O50 Cd46 2.352 . S
O50 C53 1.258 . S
C51 O48 1.320 . S
C51 O49 1.214 . S
O52 Cd44 2.277 . S
O52 C47 1.209 . S
C53 O50 1.258 . S
C53 O55 1.282 . S
O54 Cd46 2.277 . S
O54 C47 1.226 . S
O55 Cd46 2.356 . S
O55 C53 1.282 . S
C56 O57 1.306 . S
C56 O59 1.160 . S
O57 C56 1.306 . S
O57 Cd58 2.228 . S
Cd58 O57 2.228 . S
Cd58 O62 2.273 . S
Cd58 O66 2.277 . S
O59 C56 1.160 . S
O59 Cd60 2.203 . S
Cd60 O59 2.203 . S
Cd60 O62 2.411 . S
Cd60 O63 2.333 . S
Cd60 O64 2.352 . S
Cd60 O68 2.277 . S
Cd60 O69 2.356 . S
C61 O66 1.209 . S
C61 O68 1.226 . S
O62 Cd58 2.273 . S
O62 Cd60 2.411 . S
O62 C65 1.320 . S
O63 Cd60 2.333 . S
O63 C65 1.214 . S
O64 Cd60 2.352 . S
O64 C67 1.258 . S
C65 O62 1.320 . S
C65 O63 1.214 . S
O66 Cd58 2.277 . S
O66 C61 1.209 . S
C67 O64 1.258 . S
C67 O69 1.282 . S
O68 Cd60 2.277 . S
O68 C61 1.226 . S
O69 Cd60 2.356 . S
O69 C67 1.282 . S
C70 O71 1.306 . S
C70 O73 1.160 . S
O71 C70 1.306 . S
O71 Cd72 2.228 . S
Cd72 O71 2.228 . S
Cd72 O76 2.273 . S
Cd72 O80 2.277 . S
O73 C70 1.160 . S
O73 Cd74 2.203 . S
Cd74 O73 2.203 . S
Cd74 O76 2.411 . S
Cd74 O77 2.333 . S
Cd74 O78 2.352 . S
Cd74 O82 2.277 . S
Cd74 O83 2.356 . S
C75 O80 1.209 . S
C75 O82 1.226 . S
O76 Cd72 2.273 . S
O76 Cd74 2.411 . S
O76 C79 1.320 . S
O77 Cd74 2.333 . S
O77 C79 1.214 . S
O78 Cd74 2.352 . S
O78 C81 1.258 . S
C79 O76 1.320 . S
C79 O77 1.214 . S
O80 Cd72 2.277 . S
O80 C75 1.209 . S
C81 O78 1.258 . S
C81 O83 1.282 . S
O82 Cd74 2.277 . S
O82 C75 1.226 . S
O83 Cd74 2.356 . S
O83 C81 1.282 . S
C84 O85 1.306 . S
C84 O87 1.160 . S
O85 C84 1.306 . S
O85 Cd86 2.228 . S
Cd86 O85 2.228 . S
Cd86 O90 2.273 . S
Cd86 O94 2.277 . S
O87 C84 1.160 . S
O87 Cd88 2.203 . S
Cd88 O87 2.203 . S
Cd88 O90 2.411 . S
Cd88 O91 2.333 . S
Cd88 O92 2.352 . S
Cd88 O96 2.277 . S
Cd88 O97 2.356 . S
C89 O94 1.209 . S
C89 O96 1.226 . S
O90 Cd86 2.273 . S
O90 Cd88 2.411 . S
O90 C93 1.320 . S
O91 Cd88 2.333 . S
O91 C93 1.214 . S
O92 Cd88 2.352 . S
O92 C95 1.258 . S
C93 O90 1.320 . S
C93 O91 1.214 . S
O94 Cd86 2.277 . S
O94 C89 1.209 . S
C95 O92 1.258 . S
C95 O97 1.282 . S
O96 Cd88 2.277 . S
O96 C89 1.226 . S
O97 Cd88 2.356 . S
O97 C95 1.282 . S
C98 O99 1.306 . S
C98 O101 1.160 . S
O99 C98 1.306 . S
O99 Cd100 2.228 . S
Cd100 O99 2.228 . S
Cd100 O104 2.273 . S
Cd100 O108 2.277 . S
O101 C98 1.160 . S
O101 Cd102 2.203 . S
Cd102 O101 2.203 . S
Cd102 O104 2.411 . S
Cd102 O105 2.333 . S
Cd102 O106 2.352 . S
Cd102 O110 2.277 . S
Cd102 O111 2.356 . S
C103 O108 1.209 . S
C103 O110 1.226 . S
O104 Cd100 2.273 . S
O104 Cd102 2.411 . S
O104 C107 1.320 . S
O105 Cd102 2.333 . S
O105 C107 1.214 . S
O106 Cd102 2.352 . S
O106 C109 1.258 . S
C107 O104 1.320 . S
C107 O105 1.214 . S
O108 Cd100 2.277 . S
O108 C103 1.209 . S
C109 O106 1.258 . S
C109 O111 1.282 . S
O110 Cd102 2.277 . S
O110 C103 1.226 . S
O111 Cd102 2.356 . S
O111 C109 1.282 . S
C112 O113 1.306 . S
C112 O115 1.160 . S
O113 C112 1.306 . S
O113 Cd114 2.228 . S
Cd114 O113 2.228 . S
Cd114 O118 2.273 . S
Cd114 O122 2.277 . S
O115 C112 1.160 . S
O115 Cd116 2.203 . S
Cd116 O115 2.203 . S
Cd116 O118 2.411 . S
Cd116 O119 2.333 . S
Cd116 O120 2.352 . S
Cd116 O124 2.277 . S
Cd116 O125 2.356 . S
C117 O122 1.209 . S
C117 O124 1.226 . S
O118 Cd114 2.273 . S
O118 Cd116 2.411 . S
O118 C121 1.320 . S
O119 Cd116 2.333 . S
O119 C121 1.214 . S
O120 Cd116 2.352 . S
O120 C123 1.258 . S
C121 O118 1.320 . S
C121 O119 1.214 . S
O122 Cd114 2.277 . S
O122 C117 1.209 . S
C123 O120 1.258 . S
C123 O125 1.282 . S
O124 Cd116 2.277 . S
O124 C117 1.226 . S
O125 Cd116 2.356 . S
O125 C123 1.282 . S
C126 O127 1.306 . S
C126 O129 1.160 . S
O127 C126 1.306 . S
O127 Cd128 2.228 . S
Cd128 O127 2.228 . S
Cd128 O132 2.273 . S
Cd128 O136 2.277 . S
O129 C126 1.160 . S
O129 Cd130 2.203 . S
Cd130 O129 2.203 . S
Cd130 O132 2.411 . S
Cd130 O133 2.333 . S
Cd130 O134 2.352 . S
Cd130 O138 2.277 . S
Cd130 O139 2.356 . S
C131 O136 1.209 . S
C131 O138 1.226 . S
O132 Cd128 2.273 . S
O132 Cd130 2.411 . S
O132 C135 1.320 . S
O133 Cd130 2.333 . S
O133 C135 1.214 . S
O134 Cd130 2.352 . S
O134 C137 1.258 . S
C135 O132 1.320 . S
C135 O133 1.214 . S
O136 Cd128 2.277 . S
O136 C131 1.209 . S
C137 O134 1.258 . S
C137 O139 1.282 . S
O138 Cd130 2.277 . S
O138 C131 1.226 . S
O139 Cd130 2.356 . S
O139 C137 1.282 . S
C140 O141 1.306 . S
C140 O143 1.160 . S
O141 C140 1.306 . S
O141 Cd142 2.228 . S
Cd142 O141 2.228 . S
Cd142 O146 2.273 . S
Cd142 O150 2.277 . S
O143 C140 1.160 . S
O143 Cd144 2.203 . S
Cd144 O143 2.203 . S
Cd144 O146 2.411 . S
Cd144 O147 2.333 . S
Cd144 O148 2.352 . S
Cd144 O152 2.277 . S
Cd144 O153 2.356 . S
C145 O150 1.209 . S
C145 O152 1.226 . S
O146 Cd142 2.273 . S
O146 Cd144 2.411 . S
O146 C149 1.320 . S
O147 Cd144 2.333 . S
O147 C149 1.214 . S
O148 Cd144 2.352 . S
O148 C151 1.258 . S
C149 O146 1.320 . S
C149 O147 1.214 . S
O150 Cd142 2.277 . S
O150 C145 1.209 . S
C151 O148 1.258 . S
C151 O153 1.282 . S
O152 Cd144 2.277 . S
O152 C145 1.226 . S
O153 Cd144 2.356 . S
O153 C151 1.282 . S
C154 O155 1.306 . S
C154 O157 1.160 . S
O155 C154 1.306 . S
O155 Cd156 2.228 . S
Cd156 O155 2.228 . S
Cd156 O160 2.273 . S
Cd156 O164 2.277 . S
O157 C154 1.160 . S
O157 Cd158 2.203 . S
Cd158 O157 2.203 . S
Cd158 O160 2.411 . S
Cd158 O161 2.333 . S
Cd158 O162 2.352 . S
Cd158 O166 2.277 . S
Cd158 O167 2.356 . S
C159 O164 1.209 . S
C159 O166 1.226 . S
O160 Cd156 2.273 . S
O160 Cd158 2.411 . S
O160 C163 1.320 . S
O161 Cd158 2.333 . S
O161 C163 1.214 . S
O162 Cd158 2.352 . S
O162 C165 1.258 . S
C163 O160 1.320 . S
C163 O161 1.214 . S
O164 Cd156 2.277 . S
O164 C159 1.209 . S
C165 O162 1.258 . S
C165 O167 1.282 . S
O166 Cd158 2.277 . S
O166 C159 1.226 . S
O167 Cd158 2.356 . S
O167 C165 1.282 . S
C168 O169 1.306 . S
C168 O171 1.160 . S
O169 C168 1.306 . S
O169 Cd170 2.228 . S
Cd170 O169 2.228 . S
Cd170 O174 2.273 . S
Cd170 O178 2.277 . S
O171 C168 1.160 . S
O171 Cd172 2.203 . S
Cd172 O171 2.203 . S
Cd172 O174 2.411 . S
Cd172 O175 2.333 . S
Cd172 O176 2.352 . S
Cd172 O180 2.277 . S
Cd172 O181 2.356 . S
C173 O178 1.209 . S
C173 O180 1.226 . S
O174 Cd170 2.273 . S
O174 Cd172 2.411 . S
O174 C177 1.320 . S
O175 Cd172 2.333 . S
O175 C177 1.214 . S
O176 Cd172 2.352 . S
O176 C179 1.258 . S
C177 O174 1.320 . S
C177 O175 1.214 . S
O178 Cd170 2.277 . S
O178 C173 1.209 . S
C179 O176 1.258 . S
C179 O181 1.282 . S
O180 Cd172 2.277 . S
O180 C173 1.226 . S
O181 Cd172 2.356 . S
O181 C179 1.282 . S
C182 O183 1.306 . S
C182 O185 1.160 . S
O183 C182 1.306 . S
O183 Cd184 2.228 . S
Cd184 O183 2.228 . S
Cd184 O188 2.273 . S
Cd184 O192 2.277 . S
O185 C182 1.160 . S
O185 Cd186 2.203 . S
Cd186 O185 2.203 . S
Cd186 O188 2.411 . S
Cd186 O189 2.333 . S
Cd186 O190 2.352 . S
Cd186 O194 2.277 . S
Cd186 O195 2.356 . S
C187 O192 1.209 . S
C187 O194 1.226 . S
O188 Cd184 2.273 . S
O188 Cd186 2.411 . S
O188 C191 1.320 . S
O189 Cd186 2.333 . S
O189 C191 1.214 . S
O190 Cd186 2.352 . S
O190 C193 1.258 . S
C191 O188 1.320 . S
C191 O189 1.214 . S
O192 Cd184 2.277 . S
O192 C187 1.209 . S
C193 O190 1.258 . S
C193 O195 1.282 . S
O194 Cd186 2.277 . S
O194 C187 1.226 . S
O195 Cd186 2.356 . S
O195 C193 1.282 . S
C196 O197 1.306 . S
C196 O199 1.160 . S
O197 C196 1.306 . S
O197 Cd198 2.228 . S
Cd198 O197 2.228 . S
Cd198 O202 2.273 . S
Cd198 O206 2.277 . S
O199 C196 1.160 . S
O199 Cd200 2.203 . S
Cd200 O199 2.203 . S
Cd200 O202 2.411 . S
Cd200 O203 2.333 . S
Cd200 O204 2.352 . S
Cd200 O208 2.277 . S
Cd200 O209 2.356 . S
C201 O206 1.209 . S
C201 O208 1.226 . S
O202 Cd198 2.273 . S
O202 Cd200 2.411 . S
O202 C205 1.320 . S
O203 Cd200 2.333 . S
O203 C205 1.214 . S
O204 Cd200 2.352 . S
O204 C207 1.258 . S
C205 O202 1.320 . S
C205 O203 1.214 . S
O206 Cd198 2.277 . S
O206 C201 1.209 . S
C207 O204 1.258 . S
C207 O209 1.282 . S
O208 Cd200 2.277 . S
O208 C201 1.226 . S
O209 Cd200 2.356 . S
O209 C207 1.282 . S
C210 O211 1.306 . S
C210 O213 1.160 . S
O211 C210 1.306 . S
O211 Cd212 2.228 . S
Cd212 O211 2.228 . S
Cd212 O216 2.273 . S
Cd212 O220 2.277 . S
O213 C210 1.160 . S
O213 Cd214 2.203 . S
Cd214 O213 2.203 . S
Cd214 O216 2.411 . S
Cd214 O217 2.333 . S
Cd214 O218 2.352 . S
Cd214 O222 2.277 . S
Cd214 O223 2.356 . S
C215 O220 1.209 . S
C215 O222 1.226 . S
O216 Cd212 2.273 . S
O216 Cd214 2.411 . S
O216 C219 1.320 . S
O217 Cd214 2.333 . S
O217 C219 1.214 . S
O218 Cd214 2.352 . S
O218 C221 1.258 . S
C219 O216 1.320 . S
C219 O217 1.214 . S
O220 Cd212 2.277 . S
O220 C215 1.209 . S
C221 O218 1.258 . S
C221 O223 1.282 . S
O222 Cd214 2.277 . S
O222 C215 1.226 . S
O223 Cd214 2.356 . S
O223 C221 1.282 . S
C224 C225 1.391 . S
C224 C226 1.394 . S
C224 H240 0.931 . S
C225 C224 1.391 . S
C225 C229 1.376 . S
C226 C224 1.394 . S
C226 C227 1.369 . S
C226 C230 1.531 . S
C227 C226 1.369 . S
C227 C228 1.410 . S
C227 C235 1.503 . S
C228 C227 1.410 . S
C228 C229 1.392 . S
C228 C231 1.511 . S
C229 C225 1.376 . S
C229 C228 1.392 . S
C229 H241 0.929 . S
C230 C226 1.531 . S
C230 H242 0.960 . S
C230 H243 0.962 . S
C230 H244 0.960 . S
C231 C228 1.511 . S
C231 H245 0.961 . S
C231 H246 0.961 . S
C231 H247 0.961 . S
C232 C233 1.370 . S
C232 C234 1.363 . S
C232 H248 0.931 . S
C233 C232 1.370 . S
C233 C237 1.408 . S
C234 C232 1.363 . S
C234 C235 1.370 . S
C234 C238 1.524 . S
C235 C227 1.503 . S
C235 C234 1.370 . S
C235 C236 1.403 . S
C236 C235 1.403 . S
C236 C237 1.404 . S
C236 C239 1.539 . S
C237 C233 1.408 . S
C237 C236 1.404 . S
C237 H249 0.930 . S
C238 C234 1.524 . S
C238 H250 0.956 . S
C238 H251 0.961 . S
C238 H252 0.961 . S
C239 C236 1.539 . S
C239 H253 0.958 . S
C239 H254 0.961 . S
C239 H255 0.960 . S
H240 C224 0.931 . S
H241 C229 0.929 . S
H242 C230 0.960 . S
H243 C230 0.962 . S
H244 C230 0.960 . S
H245 C231 0.961 . S
H246 C231 0.961 . S
H247 C231 0.961 . S
H248 C232 0.931 . S
H249 C237 0.930 . S
H250 C238 0.956 . S
H251 C238 0.961 . S
H252 C238 0.961 . S
H253 C239 0.958 . S
H254 C239 0.961 . S
H255 C239 0.960 . S
C256 C257 1.391 . S
C256 C258 1.394 . S
C256 H272 0.931 . S
C257 C256 1.391 . S
C257 C261 1.376 . S
C258 C256 1.394 . S
C258 C259 1.369 . S
C258 C262 1.531 . S
C259 C258 1.369 . S
C259 C260 1.410 . S
C259 C267 1.503 . S
C260 C259 1.410 . S
C260 C261 1.392 . S
C260 C263 1.511 . S
C261 C257 1.376 . S
C261 C260 1.392 . S
C261 H273 0.929 . S
C262 C258 1.531 . S
C262 H274 0.960 . S
C262 H275 0.962 . S
C262 H276 0.960 . S
C263 C260 1.511 . S
C263 H277 0.961 . S
C263 H278 0.961 . S
C263 H279 0.961 . S
C264 C265 1.370 . S
C264 C266 1.363 . S
C264 H280 0.931 . S
C265 C264 1.370 . S
C265 C269 1.408 . S
C266 C264 1.363 . S
C266 C267 1.370 . S
C266 C270 1.524 . S
C267 C259 1.503 . S
C267 C266 1.370 . S
C267 C268 1.403 . S
C268 C267 1.403 . S
C268 C269 1.404 . S
C268 C271 1.539 . S
C269 C265 1.408 . S
C269 C268 1.404 . S
C269 H281 0.930 . S
C270 C266 1.524 . S
C270 H282 0.956 . S
C270 H283 0.961 . S
C270 H284 0.961 . S
C271 C268 1.539 . S
C271 H285 0.958 . S
C271 H286 0.961 . S
C271 H287 0.960 . S
H272 C256 0.931 . S
H273 C261 0.929 . S
H274 C262 0.960 . S
H275 C262 0.962 . S
H276 C262 0.960 . S
H277 C263 0.961 . S
H278 C263 0.961 . S
H279 C263 0.961 . S
H280 C264 0.931 . S
H281 C269 0.930 . S
H282 C270 0.956 . S
H283 C270 0.961 . S
H284 C270 0.961 . S
H285 C271 0.958 . S
H286 C271 0.961 . S
H287 C271 0.960 . S
C288 C289 1.391 . S
C288 C290 1.394 . S
C288 H304 0.931 . S
C289 C288 1.391 . S
C289 C293 1.376 . S
C290 C288 1.394 . S
C290 C291 1.369 . S
C290 C294 1.531 . S
C291 C290 1.369 . S
C291 C292 1.410 . S
C291 C299 1.503 . S
C292 C291 1.410 . S
C292 C293 1.392 . S
C292 C295 1.511 . S
C293 C289 1.376 . S
C293 C292 1.392 . S
C293 H305 0.929 . S
C294 C290 1.531 . S
C294 H306 0.960 . S
C294 H307 0.962 . S
C294 H308 0.960 . S
C295 C292 1.511 . S
C295 H309 0.961 . S
C295 H310 0.961 . S
C295 H311 0.961 . S
C296 C297 1.370 . S
C296 C298 1.363 . S
C296 H312 0.931 . S
C297 C296 1.370 . S
C297 C301 1.408 . S
C298 C296 1.363 . S
C298 C299 1.370 . S
C298 C302 1.524 . S
C299 C291 1.503 . S
C299 C298 1.370 . S
C299 C300 1.403 . S
C300 C299 1.403 . S
C300 C301 1.404 . S
C300 C303 1.539 . S
C301 C297 1.408 . S
C301 C300 1.404 . S
C301 H313 0.930 . S
C302 C298 1.524 . S
C302 H314 0.956 . S
C302 H315 0.961 . S
C302 H316 0.961 . S
C303 C300 1.539 . S
C303 H317 0.958 . S
C303 H318 0.961 . S
C303 H319 0.960 . S
H304 C288 0.931 . S
H305 C293 0.929 . S
H306 C294 0.960 . S
H307 C294 0.962 . S
H308 C294 0.960 . S
H309 C295 0.961 . S
H310 C295 0.961 . S
H311 C295 0.961 . S
H312 C296 0.931 . S
H313 C301 0.930 . S
H314 C302 0.956 . S
H315 C302 0.961 . S
H316 C302 0.961 . S
H317 C303 0.958 . S
H318 C303 0.961 . S
H319 C303 0.960 . S
C320 C321 1.391 . S
C320 C322 1.394 . S
C320 H336 0.931 . S
C321 C320 1.391 . S
C321 C325 1.376 . S
C322 C320 1.394 . S
C322 C323 1.369 . S
C322 C326 1.531 . S
C323 C322 1.369 . S
C323 C324 1.410 . S
C323 C331 1.503 . S
C324 C323 1.410 . S
C324 C325 1.392 . S
C324 C327 1.511 . S
C325 C321 1.376 . S
C325 C324 1.392 . S
C325 H337 0.929 . S
C326 C322 1.531 . S
C326 H338 0.960 . S
C326 H339 0.962 . S
C326 H340 0.960 . S
C327 C324 1.511 . S
C327 H341 0.961 . S
C327 H342 0.961 . S
C327 H343 0.961 . S
C328 C329 1.370 . S
C328 C330 1.363 . S
C328 H344 0.931 . S
C329 C328 1.370 . S
C329 C333 1.408 . S
C330 C328 1.363 . S
C330 C331 1.370 . S
C330 C334 1.524 . S
C331 C323 1.503 . S
C331 C330 1.370 . S
C331 C332 1.403 . S
C332 C331 1.403 . S
C332 C333 1.404 . S
C332 C335 1.539 . S
C333 C329 1.408 . S
C333 C332 1.404 . S
C333 H345 0.930 . S
C334 C330 1.524 . S
C334 H346 0.956 . S
C334 H347 0.961 . S
C334 H348 0.961 . S
C335 C332 1.539 . S
C335 H349 0.958 . S
C335 H350 0.961 . S
C335 H351 0.960 . S
H336 C320 0.931 . S
H337 C325 0.929 . S
H338 C326 0.960 . S
H339 C326 0.962 . S
H340 C326 0.960 . S
H341 C327 0.961 . S
H342 C327 0.961 . S
H343 C327 0.961 . S
H344 C328 0.931 . S
H345 C333 0.930 . S
H346 C334 0.956 . S
H347 C334 0.961 . S
H348 C334 0.961 . S
H349 C335 0.958 . S
H350 C335 0.961 . S
H351 C335 0.960 . S
C352 C353 1.391 . S
C352 C354 1.394 . S
C352 H368 0.931 . S
C353 C352 1.391 . S
C353 C357 1.376 . S
C354 C352 1.394 . S
C354 C355 1.369 . S
C354 C358 1.531 . S
C355 C354 1.369 . S
C355 C356 1.410 . S
C355 C363 1.503 . S
C356 C355 1.410 . S
C356 C357 1.392 . S
C356 C359 1.511 . S
C357 C353 1.376 . S
C357 C356 1.392 . S
C357 H369 0.929 . S
C358 C354 1.531 . S
C358 H370 0.960 . S
C358 H371 0.962 . S
C358 H372 0.960 . S
C359 C356 1.511 . S
C359 H373 0.961 . S
C359 H374 0.961 . S
C359 H375 0.961 . S
C360 C361 1.370 . S
C360 C362 1.363 . S
C360 H376 0.931 . S
C361 C360 1.370 . S
C361 C365 1.408 . S
C362 C360 1.363 . S
C362 C363 1.370 . S
C362 C366 1.524 . S
C363 C355 1.503 . S
C363 C362 1.370 . S
C363 C364 1.403 . S
C364 C363 1.403 . S
C364 C365 1.404 . S
C364 C367 1.539 . S
C365 C361 1.408 . S
C365 C364 1.404 . S
C365 H377 0.930 . S
C366 C362 1.524 . S
C366 H378 0.956 . S
C366 H379 0.961 . S
C366 H380 0.961 . S
C367 C364 1.539 . S
C367 H381 0.958 . S
C367 H382 0.961 . S
C367 H383 0.960 . S
H368 C352 0.931 . S
H369 C357 0.929 . S
H370 C358 0.960 . S
H371 C358 0.962 . S
H372 C358 0.960 . S
H373 C359 0.961 . S
H374 C359 0.961 . S
H375 C359 0.961 . S
H376 C360 0.931 . S
H377 C365 0.930 . S
H378 C366 0.956 . S
H379 C366 0.961 . S
H380 C366 0.961 . S
H381 C367 0.958 . S
H382 C367 0.961 . S
H383 C367 0.960 . S
C384 C385 1.391 . S
C384 C386 1.394 . S
C384 H400 0.931 . S
C385 C384 1.391 . S
C385 C389 1.376 . S
C386 C384 1.394 . S
C386 C387 1.369 . S
C386 C390 1.531 . S
C387 C386 1.369 . S
C387 C388 1.410 . S
C387 C395 1.503 . S
C388 C387 1.410 . S
C388 C389 1.392 . S
C388 C391 1.511 . S
C389 C385 1.376 . S
C389 C388 1.392 . S
C389 H401 0.929 . S
C390 C386 1.531 . S
C390 H402 0.960 . S
C390 H403 0.962 . S
C390 H404 0.960 . S
C391 C388 1.511 . S
C391 H405 0.961 . S
C391 H406 0.961 . S
C391 H407 0.961 . S
C392 C393 1.370 . S
C392 C394 1.363 . S
C392 H408 0.931 . S
C393 C392 1.370 . S
C393 C397 1.408 . S
C394 C392 1.363 . S
C394 C395 1.370 . S
C394 C398 1.524 . S
C395 C387 1.503 . S
C395 C394 1.370 . S
C395 C396 1.403 . S
C396 C395 1.403 . S
C396 C397 1.404 . S
C396 C399 1.539 . S
C397 C393 1.408 . S
C397 C396 1.404 . S
C397 H409 0.930 . S
C398 C394 1.524 . S
C398 H410 0.956 . S
C398 H411 0.961 . S
C398 H412 0.961 . S
C399 C396 1.539 . S
C399 H413 0.958 . S
C399 H414 0.961 . S
C399 H415 0.960 . S
H400 C384 0.931 . S
H401 C389 0.929 . S
H402 C390 0.960 . S
H403 C390 0.962 . S
H404 C390 0.960 . S
H405 C391 0.961 . S
H406 C391 0.961 . S
H407 C391 0.961 . S
H408 C392 0.931 . S
H409 C397 0.930 . S
H410 C398 0.956 . S
H411 C398 0.961 . S
H412 C398 0.961 . S
H413 C399 0.958 . S
H414 C399 0.961 . S
H415 C399 0.960 . S
C416 C417 1.391 . S
C416 C418 1.394 . S
C416 H432 0.931 . S
C417 C416 1.391 . S
C417 C421 1.376 . S
C418 C416 1.394 . S
C418 C419 1.369 . S
C418 C422 1.531 . S
C419 C418 1.369 . S
C419 C420 1.410 . S
C419 C427 1.503 . S
C420 C419 1.410 . S
C420 C421 1.392 . S
C420 C423 1.511 . S
C421 C417 1.376 . S
C421 C420 1.392 . S
C421 H433 0.929 . S
C422 C418 1.531 . S
C422 H434 0.960 . S
C422 H435 0.962 . S
C422 H436 0.960 . S
C423 C420 1.511 . S
C423 H437 0.961 . S
C423 H438 0.961 . S
C423 H439 0.961 . S
C424 C425 1.370 . S
C424 C426 1.363 . S
C424 H440 0.931 . S
C425 C424 1.370 . S
C425 C429 1.408 . S
C426 C424 1.363 . S
C426 C427 1.370 . S
C426 C430 1.524 . S
C427 C419 1.503 . S
C427 C426 1.370 . S
C427 C428 1.403 . S
C428 C427 1.403 . S
C428 C429 1.404 . S
C428 C431 1.539 . S
C429 C425 1.408 . S
C429 C428 1.404 . S
C429 H441 0.930 . S
C430 C426 1.524 . S
C430 H442 0.956 . S
C430 H443 0.961 . S
C430 H444 0.961 . S
C431 C428 1.539 . S
C431 H445 0.958 . S
C431 H446 0.961 . S
C431 H447 0.960 . S
H432 C416 0.931 . S
H433 C421 0.929 . S
H434 C422 0.960 . S
H435 C422 0.962 . S
H436 C422 0.960 . S
H437 C423 0.961 . S
H438 C423 0.961 . S
H439 C423 0.961 . S
H440 C424 0.931 . S
H441 C429 0.930 . S
H442 C430 0.956 . S
H443 C430 0.961 . S
H444 C430 0.961 . S
H445 C431 0.958 . S
H446 C431 0.961 . S
H447 C431 0.960 . S
C448 C449 1.391 . S
C448 C450 1.394 . S
C448 H464 0.931 . S
C449 C448 1.391 . S
C449 C453 1.376 . S
C450 C448 1.394 . S
C450 C451 1.369 . S
C450 C454 1.531 . S
C451 C450 1.369 . S
C451 C452 1.410 . S
C451 C459 1.503 . S
C452 C451 1.410 . S
C452 C453 1.392 . S
C452 C455 1.511 . S
C453 C449 1.376 . S
C453 C452 1.392 . S
C453 H465 0.929 . S
C454 C450 1.531 . S
C454 H466 0.960 . S
C454 H467 0.962 . S
C454 H468 0.960 . S
C455 C452 1.511 . S
C455 H469 0.961 . S
C455 H470 0.961 . S
C455 H471 0.961 . S
C456 C457 1.370 . S
C456 C458 1.363 . S
C456 H472 0.931 . S
C457 C456 1.370 . S
C457 C461 1.408 . S
C458 C456 1.363 . S
C458 C459 1.370 . S
C458 C462 1.524 . S
C459 C451 1.503 . S
C459 C458 1.370 . S
C459 C460 1.403 . S
C460 C459 1.403 . S
C460 C461 1.404 . S
C460 C463 1.539 . S
C461 C457 1.408 . S
C461 C460 1.404 . S
C461 H473 0.930 . S
C462 C458 1.524 . S
C462 H474 0.956 . S
C462 H475 0.961 . S
C462 H476 0.961 . S
C463 C460 1.539 . S
C463 H477 0.958 . S
C463 H478 0.961 . S
C463 H479 0.960 . S
H464 C448 0.931 . S
H465 C453 0.929 . S
H466 C454 0.960 . S
H467 C454 0.962 . S
H468 C454 0.960 . S
H469 C455 0.961 . S
H470 C455 0.961 . S
H471 C455 0.961 . S
H472 C456 0.931 . S
H473 C461 0.930 . S
H474 C462 0.956 . S
H475 C462 0.961 . S
H476 C462 0.961 . S
H477 C463 0.958 . S
H478 C463 0.961 . S
H479 C463 0.960 . S
C480 C481 1.391 . S
C480 C482 1.394 . S
C480 H496 0.931 . S
C481 C480 1.391 . S
C481 C485 1.376 . S
C482 C480 1.394 . S
C482 C483 1.369 . S
C482 C486 1.531 . S
C483 C482 1.369 . S
C483 C484 1.410 . S
C483 C491 1.503 . S
C484 C483 1.410 . S
C484 C485 1.392 . S
C484 C487 1.511 . S
C485 C481 1.376 . S
C485 C484 1.392 . S
C485 H497 0.929 . S
C486 C482 1.531 . S
C486 H498 0.960 . S
C486 H499 0.962 . S
C486 H500 0.960 . S
C487 C484 1.511 . S
C487 H501 0.961 . S
C487 H502 0.961 . S
C487 H503 0.961 . S
C488 C489 1.370 . S
C488 C490 1.363 . S
C488 H504 0.931 . S
C489 C488 1.370 . S
C489 C493 1.408 . S
C490 C488 1.363 . S
C490 C491 1.370 . S
C490 C494 1.524 . S
C491 C483 1.503 . S
C491 C490 1.370 . S
C491 C492 1.403 . S
C492 C491 1.403 . S
C492 C493 1.404 . S
C492 C495 1.539 . S
C493 C489 1.408 . S
C493 C492 1.404 . S
C493 H505 0.930 . S
C494 C490 1.524 . S
C494 H506 0.956 . S
C494 H507 0.961 . S
C494 H508 0.961 . S
C495 C492 1.539 . S
C495 H509 0.958 . S
C495 H510 0.961 . S
C495 H511 0.960 . S
H496 C480 0.931 . S
H497 C485 0.929 . S
H498 C486 0.960 . S
H499 C486 0.962 . S
H500 C486 0.960 . S
H501 C487 0.961 . S
H502 C487 0.961 . S
H503 C487 0.961 . S
H504 C488 0.931 . S
H505 C493 0.930 . S
H506 C494 0.956 . S
H507 C494 0.961 . S
H508 C494 0.961 . S
H509 C495 0.958 . S
H510 C495 0.961 . S
H511 C495 0.960 . S
C512 C513 1.391 . S
C512 C514 1.394 . S
C512 H528 0.931 . S
C513 C512 1.391 . S
C513 C517 1.376 . S
C514 C512 1.394 . S
C514 C515 1.369 . S
C514 C518 1.531 . S
C515 C514 1.369 . S
C515 C516 1.410 . S
C515 C523 1.503 . S
C516 C515 1.410 . S
C516 C517 1.392 . S
C516 C519 1.511 . S
C517 C513 1.376 . S
C517 C516 1.392 . S
C517 H529 0.929 . S
C518 C514 1.531 . S
C518 H530 0.960 . S
C518 H531 0.962 . S
C518 H532 0.960 . S
C519 C516 1.511 . S
C519 H533 0.961 . S
C519 H534 0.961 . S
C519 H535 0.961 . S
C520 C521 1.370 . S
C520 C522 1.363 . S
C520 H536 0.931 . S
C521 C520 1.370 . S
C521 C525 1.408 . S
C522 C520 1.363 . S
C522 C523 1.370 . S
C522 C526 1.524 . S
C523 C515 1.503 . S
C523 C522 1.370 . S
C523 C524 1.403 . S
C524 C523 1.403 . S
C524 C525 1.404 . S
C524 C527 1.539 . S
C525 C521 1.408 . S
C525 C524 1.404 . S
C525 H537 0.930 . S
C526 C522 1.524 . S
C526 H538 0.956 . S
C526 H539 0.961 . S
C526 H540 0.961 . S
C527 C524 1.539 . S
C527 H541 0.958 . S
C527 H542 0.961 . S
C527 H543 0.960 . S
H528 C512 0.931 . S
H529 C517 0.929 . S
H530 C518 0.960 . S
H531 C518 0.962 . S
H532 C518 0.960 . S
H533 C519 0.961 . S
H534 C519 0.961 . S
H535 C519 0.961 . S
H536 C520 0.931 . S
H537 C525 0.930 . S
H538 C526 0.956 . S
H539 C526 0.961 . S
H540 C526 0.961 . S
H541 C527 0.958 . S
H542 C527 0.961 . S
H543 C527 0.960 . S
C544 C545 1.391 . S
C544 C546 1.394 . S
C544 H560 0.931 . S
C545 C544 1.391 . S
C545 C549 1.376 . S
C546 C544 1.394 . S
C546 C547 1.369 . S
C546 C550 1.531 . S
C547 C546 1.369 . S
C547 C548 1.410 . S
C547 C555 1.503 . S
C548 C547 1.410 . S
C548 C549 1.392 . S
C548 C551 1.511 . S
C549 C545 1.376 . S
C549 C548 1.392 . S
C549 H561 0.929 . S
C550 C546 1.531 . S
C550 H562 0.960 . S
C550 H563 0.962 . S
C550 H564 0.960 . S
C551 C548 1.511 . S
C551 H565 0.961 . S
C551 H566 0.961 . S
C551 H567 0.961 . S
C552 C553 1.370 . S
C552 C554 1.363 . S
C552 H568 0.931 . S
C553 C552 1.370 . S
C553 C557 1.408 . S
C554 C552 1.363 . S
C554 C555 1.370 . S
C554 C558 1.524 . S
C555 C547 1.503 . S
C555 C554 1.370 . S
C555 C556 1.403 . S
C556 C555 1.403 . S
C556 C557 1.404 . S
C556 C559 1.539 . S
C557 C553 1.408 . S
C557 C556 1.404 . S
C557 H569 0.930 . S
C558 C554 1.524 . S
C558 H570 0.956 . S
C558 H571 0.961 . S
C558 H572 0.961 . S
C559 C556 1.539 . S
C559 H573 0.958 . S
C559 H574 0.961 . S
C559 H575 0.960 . S
H560 C544 0.931 . S
H561 C549 0.929 . S
H562 C550 0.960 . S
H563 C550 0.962 . S
H564 C550 0.960 . S
H565 C551 0.961 . S
H566 C551 0.961 . S
H567 C551 0.961 . S
H568 C552 0.931 . S
H569 C557 0.930 . S
H570 C558 0.956 . S
H571 C558 0.961 . S
H572 C558 0.961 . S
H573 C559 0.958 . S
H574 C559 0.961 . S
H575 C559 0.960 . S
C576 C577 1.391 . S
C576 C578 1.394 . S
C576 H592 0.931 . S
C577 C576 1.391 . S
C577 C581 1.376 . S
C578 C576 1.394 . S
C578 C579 1.369 . S
C578 C582 1.531 . S
C579 C578 1.369 . S
C579 C580 1.410 . S
C579 C587 1.503 1_554 S
C580 C579 1.410 . S
C580 C581 1.392 . S
C580 C583 1.500 1_554 S
C581 C577 1.376 . S
C581 C580 1.392 . S
C581 H593 0.929 . S
C582 C578 1.531 . S
C582 H594 0.960 . S
C582 H595 0.962 . S
C582 H596 0.960 . S
C583 C580 1.500 1_556 S
C583 H597 0.957 1_556 S
C583 H598 0.975 . S
C583 H599 0.962 . S
C584 C585 1.370 . S
C584 C586 1.363 . S
C584 H600 0.931 . S
C585 C584 1.370 . S
C585 C589 1.408 . S
C586 C584 1.363 . S
C586 C587 1.370 . S
C586 C590 1.524 . S
C587 C579 1.503 1_556 S
C587 C586 1.370 . S
C587 C588 1.403 . S
C588 C587 1.403 . S
C588 C589 1.404 . S
C588 C591 1.539 . S
C589 C585 1.408 . S
C589 C588 1.404 . S
C589 H601 0.930 . S
C590 C586 1.524 . S
C590 H602 1.008 . S
C590 H603 0.961 . S
C590 H604 0.961 . S
C591 C588 1.539 . S
C591 H605 0.958 . S
C591 H606 0.961 . S
C591 H607 0.960 1_556 S
H592 C576 0.931 . S
H593 C581 0.929 . S
H594 C582 0.960 . S
H595 C582 0.962 . S
H596 C582 0.960 . S
H597 C583 0.957 1_554 S
H598 C583 0.975 . S
H599 C583 0.962 . S
H600 C584 0.931 . S
H601 C589 0.930 . S
H602 C590 1.008 . S
H603 C590 0.961 . S
H604 C590 0.961 . S
H605 C591 0.958 . S
H606 C591 0.961 . S
H607 C591 0.960 1_554 S
C608 C609 1.391 . S
C608 C610 1.394 . S
C608 H624 0.931 . S
C609 C608 1.391 . S
C609 C613 1.376 . S
C610 C608 1.394 . S
C610 C611 1.369 . S
C610 C614 1.531 1_554 S
C611 C610 1.369 . S
C611 C612 1.410 . S
C611 C619 1.503 1_554 S
C612 C611 1.410 . S
C612 C613 1.392 . S
C612 C615 1.511 . S
C613 C609 1.376 . S
C613 C612 1.392 . S
C613 H625 0.929 . S
C614 C610 1.531 1_556 S
C614 H626 0.960 . S
C614 H627 0.962 . S
C614 H628 0.960 1_556 S
C615 C612 1.511 . S
C615 H629 0.961 . S
C615 H630 0.961 . S
C615 H631 0.961 . S
C616 C617 1.370 . S
C616 C618 1.363 . S
C616 H632 0.931 . S
C617 C616 1.370 . S
C617 C621 1.408 . S
C618 C616 1.363 . S
C618 C619 1.370 . S
C618 C622 1.524 . S
C619 C611 1.503 1_556 S
C619 C618 1.370 . S
C619 C620 1.403 . S
C620 C619 1.403 . S
C620 C621 1.404 . S
C620 C623 1.539 . S
C621 C617 1.408 . S
C621 C620 1.404 . S
C621 H633 0.930 . S
C622 C618 1.524 . S
C622 H634 0.956 . S
C622 H635 0.961 1_556 S
C622 H636 0.961 . S
C623 C620 1.539 . S
C623 H637 0.958 . S
C623 H638 0.961 . S
C623 H639 0.960 1_556 S
H624 C608 0.931 . S
H625 C613 0.929 . S
H626 C614 0.960 . S
H627 C614 0.962 . S
H628 C614 0.960 1_554 S
H629 C615 0.961 . S
H630 C615 0.961 . S
H631 C615 0.961 . S
H632 C616 0.931 . S
H633 C621 0.930 . S
H634 C622 0.956 . S
H635 C622 0.961 1_554 S
H636 C622 0.961 . S
H637 C623 0.958 . S
H638 C623 0.961 . S
H639 C623 0.960 1_554 S
C640 C641 1.391 . S
C640 C642 1.394 . S
C640 H656 0.931 . S
C641 C640 1.391 . S
C641 C645 1.376 . S
C642 C640 1.394 . S
C642 C643 1.369 . S
C642 C646 1.531 . S
C643 C642 1.369 . S
C643 C644 1.410 . S
C643 C651 1.503 . S
C644 C643 1.410 . S
C644 C645 1.392 . S
C644 C647 1.511 . S
C645 C641 1.376 . S
C645 C644 1.392 . S
C645 H657 0.929 . S
C646 C642 1.531 . S
C646 H658 0.960 . S
C646 H659 0.962 . S
C646 H660 0.960 . S
C647 C644 1.511 . S
C647 H661 0.961 . S
C647 H662 0.961 . S
C647 H663 0.961 . S
C648 C649 1.370 . S
C648 C650 1.363 . S
C648 H664 0.931 . S
C649 C648 1.370 . S
C649 C653 1.408 . S
C650 C648 1.363 . S
C650 C651 1.370 . S
C650 C654 1.524 . S
C651 C643 1.503 . S
C651 C650 1.370 . S
C651 C652 1.403 . S
C652 C651 1.403 . S
C652 C653 1.404 . S
C652 C655 1.539 . S
C653 C649 1.408 . S
C653 C652 1.404 . S
C653 H665 0.930 . S
C654 C650 1.524 . S
C654 H666 0.956 . S
C654 H667 0.961 . S
C654 H668 0.961 . S
C655 C652 1.539 . S
C655 H669 0.958 . S
C655 H670 0.961 . S
C655 H671 0.960 . S
H656 C640 0.931 . S
H657 C645 0.929 . S
H658 C646 0.960 . S
H659 C646 0.962 . S
H660 C646 0.960 . S
H661 C647 0.961 . S
H662 C647 0.961 . S
H663 C647 0.961 . S
H664 C648 0.931 . S
H665 C653 0.930 . S
H666 C654 0.956 . S
H667 C654 0.961 . S
H668 C654 0.961 . S
H669 C655 0.958 . S
H670 C655 0.961 . S
H671 C655 0.960 . S
C672 C673 1.391 . S
C672 C674 1.394 . S
C672 H688 0.931 . S
C673 C672 1.391 . S
C673 C677 1.376 . S
C674 C672 1.394 . S
C674 C675 1.369 . S
C674 C678 1.531 . S
C675 C674 1.369 . S
C675 C676 1.410 . S
C675 C683 1.503 . S
C676 C675 1.410 . S
C676 C677 1.392 . S
C676 C679 1.511 . S
C677 C673 1.376 . S
C677 C676 1.392 . S
C677 H689 0.929 . S
C678 C674 1.531 . S
C678 H690 0.960 . S
C678 H691 0.962 . S
C678 H692 0.960 . S
C679 C676 1.511 . S
C679 H693 0.961 . S
C679 H694 0.961 . S
C679 H695 0.961 . S
C680 C681 1.370 . S
C680 C682 1.363 . S
C680 H696 0.931 . S
C681 C680 1.370 . S
C681 C685 1.408 . S
C682 C680 1.363 . S
C682 C683 1.370 . S
C682 C686 1.524 . S
C683 C675 1.503 . S
C683 C682 1.370 . S
C683 C684 1.403 . S
C684 C683 1.403 . S
C684 C685 1.404 . S
C684 C687 1.539 . S
C685 C681 1.408 . S
C685 C684 1.404 . S
C685 H697 0.930 . S
C686 C682 1.524 . S
C686 H698 0.956 . S
C686 H699 0.961 . S
C686 H700 0.961 . S
C687 C684 1.539 . S
C687 H701 0.958 . S
C687 H702 0.961 . S
C687 H703 0.960 . S
H688 C672 0.931 . S
H689 C677 0.929 . S
H690 C678 0.960 . S
H691 C678 0.962 . S
H692 C678 0.960 . S
H693 C679 0.961 . S
H694 C679 0.961 . S
H695 C679 0.961 . S
H696 C680 0.931 . S
H697 C685 0.930 . S
H698 C686 0.956 . S
H699 C686 0.961 . S
H700 C686 0.961 . S
H701 C687 0.958 . S
H702 C687 0.961 . S
H703 C687 0.960 . S
C704 C705 1.391 . S
C704 C706 1.394 . S
C704 H720 0.931 . S
C705 C704 1.391 . S
C705 C709 1.376 . S
C706 C704 1.394 . S
C706 C707 1.369 . S
C706 C710 1.531 . S
C707 C706 1.369 . S
C707 C708 1.410 . S
C707 C715 1.503 . S
C708 C707 1.410 . S
C708 C709 1.392 . S
C708 C711 1.511 . S
C709 C705 1.376 . S
C709 C708 1.392 . S
C709 H721 0.929 . S
C710 C706 1.531 . S
C710 H722 0.960 . S
C710 H723 0.962 . S
C710 H724 0.960 . S
C711 C708 1.511 . S
C711 H725 0.961 . S
C711 H726 0.961 . S
C711 H727 0.961 . S
C712 C713 1.370 . S
C712 C714 1.363 . S
C712 H728 0.931 . S
C713 C712 1.370 . S
C713 C717 1.408 . S
C714 C712 1.363 . S
C714 C715 1.370 . S
C714 C718 1.524 . S
C715 C707 1.503 . S
C715 C714 1.370 . S
C715 C716 1.403 . S
C716 C715 1.403 . S
C716 C717 1.404 . S
C716 C719 1.539 . S
C717 C713 1.408 . S
C717 C716 1.404 . S
C717 H729 0.930 . S
C718 C714 1.524 . S
C718 H730 0.956 . S
C718 H731 0.961 . S
C718 H732 0.961 . S
C719 C716 1.539 . S
C719 H733 0.958 . S
C719 H734 0.961 . S
C719 H735 0.960 . S
H720 C704 0.931 . S
H721 C709 0.929 . S
H722 C710 0.960 . S
H723 C710 0.962 . S
H724 C710 0.960 . S
H725 C711 0.961 . S
H726 C711 0.961 . S
H727 C711 0.961 . S
H728 C712 0.931 . S
H729 C717 0.930 . S
H730 C718 0.956 . S
H731 C718 0.961 . S
H732 C718 0.961 . S
H733 C719 0.958 . S
H734 C719 0.961 . S
H735 C719 0.960 . S
C736 C737 1.391 . S
C736 C738 1.394 . S
C736 H752 0.931 . S
C737 C736 1.391 . S
C737 C741 1.376 . S
C738 C736 1.394 . S
C738 C739 1.369 . S
C738 C742 1.531 1_455 S
C739 C738 1.369 . S
C739 C740 1.410 1_545 S
C739 C747 1.503 1_445 S
C740 C739 1.410 1_565 S
C740 C741 1.392 1_565 S
C740 C743 1.511 . S
C741 C737 1.376 . S
C741 C740 1.392 1_545 S
C741 H753 0.929 1_545 S
C742 C738 1.531 1_655 S
C742 H754 0.960 . S
C742 H755 0.962 . S
C742 H756 0.960 . S
C743 C740 1.511 . S
C743 H757 0.961 . S
C743 H758 0.961 . S
C743 H759 0.961 . S
C744 C745 1.370 . S
C744 C746 1.363 . S
C744 H760 0.931 . S
C745 C744 1.370 . S
C745 C749 1.408 . S
C746 C744 1.363 . S
C746 C747 1.370 . S
C746 C750 1.524 1_565 S
C747 C739 1.503 1_665 S
C747 C746 1.370 . S
C747 C748 1.403 . S
C748 C747 1.403 . S
C748 C749 1.404 . S
C748 C751 1.539 . S
C749 C745 1.408 . S
C749 C748 1.404 . S
C749 H761 0.930 . S
C750 C746 1.524 1_545 S
C750 H762 0.956 . S
C750 H763 0.961 1_645 S
C750 H764 0.961 1_545 S
C751 C748 1.539 . S
C751 H765 0.958 . S
C751 H766 0.961 . S
C751 H767 0.960 1_655 S
H752 C736 0.931 . S
H753 C741 0.929 1_565 S
H754 C742 0.960 . S
H755 C742 0.962 . S
H756 C742 0.960 . S
H757 C743 0.961 . S
H758 C743 0.961 . S
H759 C743 0.961 . S
H760 C744 0.931 . S
H761 C749 0.930 . S
H762 C750 0.956 . S
H763 C750 0.961 1_465 S
H764 C750 0.961 1_565 S
H765 C751 0.958 . S
H766 C751 0.961 . S
H767 C751 0.960 1_455 S
C768 C769 1.391 . S
C768 C770 1.394 . S
C768 H784 0.931 . S
C769 C768 1.391 . S
C769 C773 1.376 . S
C770 C768 1.394 . S
C770 C771 1.369 . S
C770 C774 1.531 . S
C771 C770 1.369 . S
C771 C772 1.410 1_455 S
C771 C779 1.503 1_455 S
C772 C771 1.410 1_655 S
C772 C773 1.392 1_655 S
C772 C775 1.511 . S
C773 C769 1.376 . S
C773 C772 1.392 1_455 S
C773 H785 0.929 . S
C774 C770 1.531 . S
C774 H786 0.960 . S
C774 H787 0.962 . S
C774 H788 0.960 . S
C775 C772 1.511 . S
C775 H789 0.961 . S
C775 H790 0.961 . S
C775 H791 0.961 . S
C776 C777 1.370 . S
C776 C778 1.363 . S
C776 H792 0.931 . S
C777 C776 1.370 . S
C777 C781 1.408 . S
C778 C776 1.363 . S
C778 C779 1.370 . S
C778 C782 1.524 1_655 S
C779 C771 1.503 1_655 S
C779 C778 1.370 . S
C779 C780 1.403 . S
C780 C779 1.403 . S
C780 C781 1.404 . S
C780 C783 1.539 . S
C781 C777 1.408 . S
C781 C780 1.404 . S
C781 H793 0.930 . S
C782 C778 1.524 1_455 S
C782 H794 0.956 . S
C782 H795 0.961 . S
C782 H796 0.961 . S
C783 C780 1.539 . S
C783 H797 0.958 . S
C783 H798 0.961 . S
C783 H799 0.960 . S
H784 C768 0.931 . S
H785 C773 0.929 . S
H786 C774 0.960 . S
H787 C774 0.962 . S
H788 C774 0.960 . S
H789 C775 0.961 . S
H790 C775 0.961 . S
H791 C775 0.961 . S
H792 C776 0.931 . S
H793 C781 0.930 . S
H794 C782 0.956 . S
H795 C782 0.961 . S
H796 C782 0.961 . S
H797 C783 0.958 . S
H798 C783 0.961 . S
H799 C783 0.960 . S
C800 C801 1.391 . S
C800 C802 1.394 . S
C800 H816 0.931 . S
C801 C800 1.391 . S
C801 C805 1.376 . S
C802 C800 1.394 . S
C802 C803 1.369 . S
C802 C806 1.531 . S
C803 C802 1.369 . S
C803 C804 1.410 . S
C803 C811 1.503 . S
C804 C803 1.410 . S
C804 C805 1.392 . S
C804 C807 1.511 . S
C805 C801 1.376 . S
C805 C804 1.392 . S
C805 H817 0.929 . S
C806 C802 1.531 . S
C806 H818 0.960 . S
C806 H819 0.962 . S
C806 H820 0.960 . S
C807 C804 1.511 . S
C807 H821 0.961 . S
C807 H822 0.961 . S
C807 H823 0.961 . S
C808 C809 1.370 . S
C808 C810 1.363 . S
C808 H824 0.931 . S
C809 C808 1.370 . S
C809 C813 1.408 . S
C810 C808 1.363 . S
C810 C811 1.370 . S
C810 C814 1.524 . S
C811 C803 1.503 . S
C811 C810 1.370 . S
C811 C812 1.403 . S
C812 C811 1.403 . S
C812 C813 1.404 . S
C812 C815 1.539 . S
C813 C809 1.408 . S
C813 C812 1.404 . S
C813 H825 0.930 . S
C814 C810 1.524 . S
C814 H826 0.956 . S
C814 H827 0.961 . S
C814 H828 0.961 . S
C815 C812 1.539 . S
C815 H829 0.958 . S
C815 H830 0.961 . S
C815 H831 0.960 . S
H816 C800 0.931 . S
H817 C805 0.929 . S
H818 C806 0.960 . S
H819 C806 0.962 . S
H820 C806 0.960 . S
H821 C807 0.961 . S
H822 C807 0.961 . S
H823 C807 0.961 . S
H824 C808 0.931 . S
H825 C813 0.930 . S
H826 C814 0.956 . S
H827 C814 0.961 . S
H828 C814 0.961 . S
H829 C815 0.958 . S
H830 C815 0.961 . S
H831 C815 0.960 . S
C832 C833 1.391 . S
C832 C834 1.394 . S
C832 H848 0.931 . S
C833 C832 1.391 . S
C833 C837 1.376 . S
C834 C832 1.394 . S
C834 C835 1.369 . S
C834 C838 1.531 . S
C835 C834 1.369 . S
C835 C836 1.410 . S
C835 C843 1.503 1_545 S
C836 C835 1.410 . S
C836 C837 1.392 . S
C836 C839 1.511 1_545 S
C837 C833 1.376 . S
C837 C836 1.392 . S
C837 H849 0.929 . S
C838 C834 1.531 . S
C838 H850 0.960 . S
C838 H851 0.962 . S
C838 H852 0.960 . S
C839 C836 1.511 1_565 S
C839 H853 0.961 . S
C839 H854 0.961 . S
C839 H855 0.961 . S
C840 C841 1.370 . S
C840 C842 1.363 . S
C840 H856 0.931 . S
C841 C840 1.370 . S
C841 C845 1.408 . S
C842 C840 1.363 . S
C842 C843 1.370 . S
C842 C846 1.524 . S
C843 C835 1.503 1_565 S
C843 C842 1.370 . S
C843 C844 1.403 . S
C844 C843 1.403 . S
C844 C845 1.404 . S
C844 C847 1.539 . S
C845 C841 1.408 . S
C845 C844 1.404 . S
C845 H857 0.930 . S
C846 C842 1.524 . S
C846 H858 0.956 1_565 S
C846 H859 0.961 1_565 S
C846 H860 0.961 . S
C847 C844 1.539 . S
C847 H861 0.958 . S
C847 H862 0.961 . S
C847 H863 0.960 . S
H848 C832 0.931 . S
H849 C837 0.929 . S
H850 C838 0.960 . S
H851 C838 0.962 . S
H852 C838 0.960 . S
H853 C839 0.961 . S
H854 C839 0.961 . S
H855 C839 0.961 . S
H856 C840 0.931 . S
H857 C845 0.930 . S
H858 C846 0.956 1_545 S
H859 C846 0.961 1_545 S
H860 C846 0.961 . S
H861 C847 0.958 . S
H862 C847 0.961 . S
H863 C847 0.960 . S
C864 C865 1.391 . S
C864 C866 1.394 . S
C864 H880 0.931 . S
C865 C864 1.391 . S
C865 C869 1.376 . S
C866 C864 1.394 . S
C866 C867 1.369 . S
C866 C870 1.531 . S
C867 C866 1.369 . S
C867 C868 1.410 . S
C867 C875 1.503 1_455 S
C868 C867 1.410 . S
C868 C869 1.392 . S
C868 C871 1.511 . S
C869 C865 1.376 . S
C869 C868 1.392 . S
C869 H881 0.929 . S
C870 C866 1.531 . S
C870 H882 0.960 1_455 S
C870 H883 0.962 . S
C870 H884 0.960 . S
C871 C868 1.511 . S
C871 H885 0.961 . S
C871 H886 0.961 . S
C871 H887 0.961 . S
C872 C873 1.370 . S
C872 C874 1.363 . S
C872 H888 0.931 . S
C873 C872 1.370 . S
C873 C877 1.408 . S
C874 C872 1.363 . S
C874 C875 1.370 . S
C874 C878 1.524 1_655 S
C875 C867 1.503 1_655 S
C875 C874 1.370 . S
C875 C876 1.403 . S
C876 C875 1.403 . S
C876 C877 1.404 . S
C876 C879 1.539 . S
C877 C873 1.408 . S
C877 C876 1.404 . S
C877 H889 0.930 . S
C878 C874 1.524 1_455 S
C878 H890 0.956 . S
C878 H891 0.961 . S
C878 H892 0.961 . S
C879 C876 1.539 . S
C879 H893 0.958 . S
C879 H894 0.961 . S
C879 H895 0.960 . S
H880 C864 0.931 . S
H881 C869 0.929 . S
H882 C870 0.960 1_655 S
H883 C870 0.962 . S
H884 C870 0.960 . S
H885 C871 0.961 . S
H886 C871 0.961 . S
H887 C871 0.961 . S
H888 C872 0.931 . S
H889 C877 0.930 . S
H890 C878 0.956 . S
H891 C878 0.961 . S
H892 C878 0.961 . S
H893 C879 0.958 . S
H894 C879 0.961 . S
H895 C879 0.960 . S
C896 C897 1.391 . S
C896 C898 1.394 . S
C896 H912 0.931 . S
C897 C896 1.391 . S
C897 C901 1.376 . S
C898 C896 1.394 . S
C898 C899 1.369 . S
C898 C902 1.531 . S
C899 C898 1.369 . S
C899 C900 1.410 . S
C899 C907 1.503 . S
C900 C899 1.410 . S
C900 C901 1.392 . S
C900 C903 1.511 . S
C901 C897 1.376 . S
C901 C900 1.392 . S
C901 H913 0.929 . S
C902 C898 1.531 . S
C902 H914 0.960 . S
C902 H915 0.962 . S
C902 H916 0.960 . S
C903 C900 1.511 . S
C903 H917 0.961 . S
C903 H918 0.961 . S
C903 H919 0.961 . S
C904 C905 1.370 . S
C904 C906 1.363 . S
C904 H920 0.931 . S
C905 C904 1.370 . S
C905 C909 1.408 . S
C906 C904 1.363 . S
C906 C907 1.370 . S
C906 C910 1.524 . S
C907 C899 1.503 . S
C907 C906 1.370 . S
C907 C908 1.403 . S
C908 C907 1.403 . S
C908 C909 1.404 . S
C908 C911 1.539 . S
C909 C905 1.408 . S
C909 C908 1.404 . S
C909 H921 0.930 . S
C910 C906 1.524 . S
C910 H922 0.956 . S
C910 H923 0.961 . S
C910 H924 0.961 . S
C911 C908 1.539 . S
C911 H925 0.958 . S
C911 H926 0.961 . S
C911 H927 0.960 . S
H912 C896 0.931 . S
H913 C901 0.929 . S
H914 C902 0.960 . S
H915 C902 0.962 . S
H916 C902 0.960 . S
H917 C903 0.961 . S
H918 C903 0.961 . S
H919 C903 0.961 . S
H920 C904 0.931 . S
H921 C909 0.930 . S
H922 C910 0.956 . S
H923 C910 0.961 . S
H924 C910 0.961 . S
H925 C911 0.958 . S
H926 C911 0.961 . S
H927 C911 0.960 . S
C928 C929 1.391 . S
C928 C930 1.394 1_565 S
C928 H944 0.931 . S
C929 C928 1.391 . S
C929 C933 1.376 . S
C930 C928 1.394 1_545 S
C930 C931 1.369 1_545 S
C930 C934 1.531 . S
C931 C930 1.369 1_565 S
C931 C932 1.410 . S
C931 C939 1.503 1_565 S
C932 C931 1.410 . S
C932 C933 1.392 . S
C932 C935 1.511 . S
C933 C929 1.376 . S
C933 C932 1.392 . S
C933 H945 0.929 . S
C934 C930 1.531 . S
C934 H946 0.960 . S
C934 H947 0.962 . S
C934 H948 0.960 . S
C935 C932 1.511 . S
C935 H949 0.961 . S
C935 H950 0.961 . S
C935 H951 0.961 . S
C936 C937 1.370 . S
C936 C938 1.363 . S
C936 H952 0.931 . S
C937 C936 1.370 . S
C937 C941 1.408 . S
C938 C936 1.363 . S
C938 C939 1.370 . S
C938 C942 1.524 1_545 S
C939 C931 1.503 1_545 S
C939 C938 1.370 . S
C939 C940 1.403 . S
C940 C939 1.403 . S
C940 C941 1.404 . S
C940 C943 1.539 . S
C941 C937 1.408 . S
C941 C940 1.404 . S
C941 H953 0.930 . S
C942 C938 1.524 1_565 S
C942 H954 0.956 . S
C942 H955 0.961 . S
C942 H956 0.961 . S
C943 C940 1.539 . S
C943 H957 0.958 . S
C943 H958 0.961 . S
C943 H959 0.960 . S
H944 C928 0.931 . S
H945 C933 0.929 . S
H946 C934 0.960 . S
H947 C934 0.962 . S
H948 C934 0.960 . S
H949 C935 0.961 . S
H950 C935 0.961 . S
H951 C935 0.961 . S
H952 C936 0.931 . S
H953 C941 0.930 . S
H954 C942 0.956 . S
H955 C942 0.961 . S
H956 C942 0.961 . S
H957 C943 0.958 . S
H958 C943 0.961 . S
H959 C943 0.960 . S
C960 C961 1.391 . S
C960 C962 1.394 . S
C960 H976 0.931 . S
C961 C960 1.391 . S
C961 C965 1.376 . S
C962 C960 1.394 . S
C962 C963 1.369 . S
C962 C966 1.531 . S
C963 C962 1.369 . S
C963 C964 1.410 . S
C963 C971 1.503 1_445 S
C964 C963 1.410 . S
C964 C965 1.392 . S
C964 C967 1.511 1_455 S
C965 C961 1.376 . S
C965 C964 1.392 . S
C965 H977 0.929 . S
C966 C962 1.531 . S
C966 H978 0.952 1_445 S
C966 H979 0.962 1_545 S
C966 H980 0.960 . S
C967 C964 1.511 1_655 S
C967 H981 0.961 . S
C967 H982 0.961 . S
C967 H983 0.961 . S
C968 C969 1.370 . S
C968 C970 1.363 1_655 S
C968 H984 0.931 1_655 S
C969 C968 1.370 . S
C969 C973 1.408 . S
C970 C968 1.363 1_455 S
C970 C971 1.370 1_455 S
C970 C974 1.524 . S
C971 C963 1.503 1_665 S
C971 C970 1.370 1_655 S
C971 C972 1.403 . S
C972 C971 1.403 . S
C972 C973 1.404 . S
C972 C975 1.539 1_565 S
C973 C969 1.408 . S
C973 C972 1.404 . S
C973 H985 0.930 . S
C974 C970 1.524 . S
C974 H986 0.956 . S
C974 H987 0.961 . S
C974 H988 0.961 . S
C975 C972 1.539 1_545 S
C975 H989 0.958 . S
C975 H990 0.961 . S
C975 H991 0.960 . S
H976 C960 0.931 . S
H977 C965 0.929 . S
H978 C966 0.952 1_665 S
H979 C966 0.962 1_565 S
H980 C966 0.960 . S
H981 C967 0.961 . S
H982 C967 0.961 . S
H983 C967 0.961 . S
H984 C968 0.931 1_455 S
H985 C973 0.930 . S
H986 C974 0.956 . S
H987 C974 0.961 . S
H988 C974 0.961 . S
H989 C975 0.958 . S
H990 C975 0.961 . S
H991 C975 0.960 . S
C992 C993 1.391 . S
C992 C994 1.394 1_565 S
C992 H1008 0.931 1_565 S
C993 C992 1.391 . S
C993 C997 1.376 . S
C994 C992 1.394 1_545 S
C994 C995 1.369 1_545 S
C994 C998 1.531 . S
C995 C994 1.369 1_565 S
C995 C996 1.410 . S
C995 C1003 1.503 1_565 S
C996 C995 1.410 . S
C996 C997 1.392 . S
C996 C999 1.511 . S
C997 C993 1.376 . S
C997 C996 1.392 . S
C997 H1009 0.929 . S
C998 C994 1.531 . S
C998 H1010 0.960 . S
C998 H1011 0.962 . S
C998 H1012 0.960 . S
C999 C996 1.511 . S
C999 H1013 0.961 . S
C999 H1014 0.961 . S
C999 H1015 0.961 . S
C1000 C1001 1.370 . S
C1000 C1002 1.363 . S
C1000 H1016 0.931 . S
C1001 C1000 1.370 . S
C1001 C1005 1.408 . S
C1002 C1000 1.363 . S
C1002 C1003 1.370 . S
C1002 C1006 1.524 1_545 S
C1003 C995 1.503 1_545 S
C1003 C1002 1.370 . S
C1003 C1004 1.403 . S
C1004 C1003 1.403 . S
C1004 C1005 1.404 . S
C1004 C1007 1.539 . S
C1005 C1001 1.408 . S
C1005 C1004 1.404 . S
C1005 H1017 0.930 . S
C1006 C1002 1.524 1_565 S
C1006 H1018 0.956 . S
C1006 H1019 0.961 . S
C1006 H1020 0.961 . S
C1007 C1004 1.539 . S
C1007 H1021 0.958 . S
C1007 H1022 0.961 . S
C1007 H1023 0.960 . S
H1008 C992 0.931 1_545 S
H1009 C997 0.929 . S
H1010 C998 0.960 . S
H1011 C998 0.962 . S
H1012 C998 0.960 . S
H1013 C999 0.961 . S
H1014 C999 0.961 . S
H1015 C999 0.961 . S
H1016 C1000 0.931 . S
H1017 C1005 0.930 . S
H1018 C1006 0.956 . S
H1019 C1006 0.961 . S
H1020 C1006 0.961 . S
H1021 C1007 0.958 . S
H1022 C1007 0.961 . S
H1023 C1007 0.960 . S
C1024 C1025 1.391 . S
C1024 C1026 1.394 1_655 S
C1024 H1040 0.931 1_655 S
C1025 C1024 1.391 . S
C1025 C1029 1.376 . S
C1026 C1024 1.394 1_455 S
C1026 C1027 1.369 1_455 S
C1026 C1030 1.531 . S
C1027 C1026 1.369 1_655 S
C1027 C1028 1.410 . S
C1027 C1035 1.503 1_665 S
C1028 C1027 1.410 . S
C1028 C1029 1.392 . S
C1028 C1031 1.511 1_565 S
C1029 C1025 1.376 . S
C1029 C1028 1.392 . S
C1029 H1041 0.929 . S
C1030 C1026 1.531 . S
C1030 H1042 0.960 . S
C1030 H1043 0.962 . S
C1030 H1044 0.960 . S
C1031 C1028 1.511 1_545 S
C1031 H1045 0.961 . S
C1031 H1046 0.961 . S
C1031 H1047 0.961 . S
C1032 C1033 1.370 . S
C1032 C1034 1.363 . S
C1032 H1048 0.931 . S
C1033 C1032 1.370 . S
C1033 C1037 1.408 . S
C1034 C1032 1.363 . S
C1034 C1035 1.370 . S
C1034 C1038 1.524 . S
C1035 C1027 1.503 1_445 S
C1035 C1034 1.370 . S
C1035 C1036 1.403 . S
C1036 C1035 1.403 . S
C1036 C1037 1.404 . S
C1036 C1039 1.539 . S
C1037 C1033 1.408 . S
C1037 C1036 1.404 . S
C1037 H1049 0.930 . S
C1038 C1034 1.524 . S
C1038 H1050 0.956 1_545 S
C1038 H1051 0.961 1_455 S
C1038 H1052 0.961 . S
C1039 C1036 1.539 . S
C1039 H1053 0.958 . S
C1039 H1054 0.961 . S
C1039 H1055 0.960 1_455 S
H1040 C1024 0.931 1_455 S
H1041 C1029 0.929 . S
H1042 C1030 0.960 . S
H1043 C1030 0.962 . S
H1044 C1030 0.960 . S
H1045 C1031 0.961 . S
H1046 C1031 0.961 . S
H1047 C1031 0.961 . S
H1048 C1032 0.931 . S
H1049 C1037 0.930 . S
H1050 C1038 0.956 1_565 S
H1051 C1038 0.961 1_655 S
H1052 C1038 0.961 . S
H1053 C1039 0.958 . S
H1054 C1039 0.961 . S
H1055 C1039 0.960 1_655 S
C1056 C1057 1.391 . S
C1056 C1058 1.394 . S
C1056 H1072 0.931 . S
C1057 C1056 1.391 . S
C1057 C1061 1.376 . S
C1058 C1056 1.394 . S
C1058 C1059 1.369 . S
C1058 C1062 1.531 1_455 S
C1059 C1058 1.369 . S
C1059 C1060 1.410 . S
C1059 C1067 1.503 1_455 S
C1060 C1059 1.410 . S
C1060 C1061 1.392 . S
C1060 C1063 1.511 . S
C1061 C1057 1.376 . S
C1061 C1060 1.392 . S
C1061 H1073 0.929 . S
C1062 C1058 1.531 1_655 S
C1062 H1074 0.960 . S
C1062 H1075 0.962 . S
C1062 H1076 0.960 . S
C1063 C1060 1.511 . S
C1063 H1077 0.961 . S
C1063 H1078 0.961 . S
C1063 H1079 0.961 . S
C1064 C1065 1.370 . S
C1064 C1066 1.363 . S
C1064 H1080 0.931 . S
C1065 C1064 1.370 . S
C1065 C1069 1.408 . S
C1066 C1064 1.363 . S
C1066 C1067 1.370 . S
C1066 C1070 1.524 1_655 S
C1067 C1059 1.503 1_655 S
C1067 C1066 1.370 . S
C1067 C1068 1.403 . S
C1068 C1067 1.403 . S
C1068 C1069 1.404 . S
C1068 C1071 1.539 . S
C1069 C1065 1.408 . S
C1069 C1068 1.404 . S
C1069 H1081 0.930 . S
C1070 C1066 1.524 1_455 S
C1070 H1082 0.956 . S
C1070 H1083 0.961 . S
C1070 H1084 0.961 1_455 S
C1071 C1068 1.539 . S
C1071 H1085 0.958 . S
C1071 H1086 0.961 . S
C1071 H1087 0.960 . S
H1072 C1056 0.931 . S
H1073 C1061 0.929 . S
H1074 C1062 0.960 . S
H1075 C1062 0.962 . S
H1076 C1062 0.960 . S
H1077 C1063 0.961 . S
H1078 C1063 0.961 . S
H1079 C1063 0.961 . S
H1080 C1064 0.931 . S
H1081 C1069 0.930 . S
H1082 C1070 0.956 . S
H1083 C1070 0.961 . S
H1084 C1070 0.961 1_655 S
H1085 C1071 0.958 . S
H1086 C1071 0.961 . S
H1087 C1071 0.960 . S
C1088 C1089 1.391 . S
C1088 C1090 1.394 . S
C1088 H1104 0.931 . S
C1089 C1088 1.391 . S
C1089 C1093 1.376 . S
C1090 C1088 1.394 . S
C1090 C1091 1.369 . S
C1090 C1094 1.531 . S
C1091 C1090 1.369 . S
C1091 C1092 1.410 . S
C1091 C1099 1.503 . S
C1092 C1091 1.410 . S
C1092 C1093 1.392 . S
C1092 C1095 1.511 . S
C1093 C1089 1.376 . S
C1093 C1092 1.392 . S
C1093 H1105 0.929 . S
C1094 C1090 1.531 . S
C1094 H1106 0.960 . S
C1094 H1107 0.962 . S
C1094 H1108 0.960 . S
C1095 C1092 1.511 . S
C1095 H1109 0.961 . S
C1095 H1110 0.961 . S
C1095 H1111 0.961 . S
C1096 C1097 1.370 . S
C1096 C1098 1.363 . S
C1096 H1112 0.931 . S
C1097 C1096 1.370 . S
C1097 C1101 1.408 . S
C1098 C1096 1.363 . S
C1098 C1099 1.370 . S
C1098 C1102 1.524 . S
C1099 C1091 1.503 . S
C1099 C1098 1.370 . S
C1099 C1100 1.403 . S
C1100 C1099 1.403 . S
C1100 C1101 1.404 . S
C1100 C1103 1.539 . S
C1101 C1097 1.408 . S
C1101 C1100 1.404 . S
C1101 H1113 0.930 . S
C1102 C1098 1.524 . S
C1102 H1114 0.956 . S
C1102 H1115 0.961 . S
C1102 H1116 0.961 . S
C1103 C1100 1.539 . S
C1103 H1117 0.958 . S
C1103 H1118 0.961 . S
C1103 H1119 0.960 . S
H1104 C1088 0.931 . S
H1105 C1093 0.929 . S
H1106 C1094 0.960 . S
H1107 C1094 0.962 . S
H1108 C1094 0.960 . S
H1109 C1095 0.961 . S
H1110 C1095 0.961 . S
H1111 C1095 0.961 . S
H1112 C1096 0.931 . S
H1113 C1101 0.930 . S
H1114 C1102 0.956 . S
H1115 C1102 0.961 . S
H1116 C1102 0.961 . S
H1117 C1103 0.958 . S
H1118 C1103 0.961 . S
H1119 C1103 0.960 . S
C1120 C1121 1.391 . S
C1120 C1122 1.394 . S
C1120 H1136 0.931 . S
C1121 C1120 1.391 . S
C1121 C1125 1.376 . S
C1122 C1120 1.394 . S
C1122 C1123 1.369 . S
C1122 C1126 1.531 . S
C1123 C1122 1.369 . S
C1123 C1124 1.410 . S
C1123 C1131 1.503 . S
C1124 C1123 1.410 . S
C1124 C1125 1.392 . S
C1124 C1127 1.511 . S
C1125 C1121 1.376 . S
C1125 C1124 1.392 . S
C1125 H1137 0.929 . S
C1126 C1122 1.531 . S
C1126 H1138 0.960 . S
C1126 H1139 0.962 . S
C1126 H1140 0.960 . S
C1127 C1124 1.511 . S
C1127 H1141 0.961 . S
C1127 H1142 0.961 . S
C1127 H1143 0.961 . S
C1128 C1129 1.370 . S
C1128 C1130 1.363 . S
C1128 H1144 0.931 . S
C1129 C1128 1.370 . S
C1129 C1133 1.408 . S
C1130 C1128 1.363 . S
C1130 C1131 1.370 . S
C1130 C1134 1.524 . S
C1131 C1123 1.503 . S
C1131 C1130 1.370 . S
C1131 C1132 1.403 . S
C1132 C1131 1.403 . S
C1132 C1133 1.404 . S
C1132 C1135 1.539 . S
C1133 C1129 1.408 . S
C1133 C1132 1.404 . S
C1133 H1145 0.930 . S
C1134 C1130 1.524 . S
C1134 H1146 0.956 . S
C1134 H1147 0.961 . S
C1134 H1148 0.961 . S
C1135 C1132 1.539 . S
C1135 H1149 0.958 . S
C1135 H1150 0.961 . S
C1135 H1151 0.960 . S
H1136 C1120 0.931 . S
H1137 C1125 0.929 . S
H1138 C1126 0.960 . S
H1139 C1126 0.962 . S
H1140 C1126 0.960 . S
H1141 C1127 0.961 . S
H1142 C1127 0.961 . S
H1143 C1127 0.961 . S
H1144 C1128 0.931 . S
H1145 C1133 0.930 . S
H1146 C1134 0.956 . S
H1147 C1134 0.961 . S
H1148 C1134 0.961 . S
H1149 C1135 0.958 . S
H1150 C1135 0.961 . S
H1151 C1135 0.960 . S
C1152 C1153 1.391 . S
C1152 C1154 1.394 . S
C1152 H1168 0.931 . S
C1153 C1152 1.391 . S
C1153 C1157 1.376 . S
C1154 C1152 1.394 . S
C1154 C1155 1.369 . S
C1154 C1158 1.531 1_545 S
C1155 C1154 1.369 . S
C1155 C1156 1.410 . S
C1155 C1163 1.503 1_545 S
C1156 C1155 1.410 . S
C1156 C1157 1.392 . S
C1156 C1159 1.511 . S
C1157 C1153 1.376 . S
C1157 C1156 1.392 . S
C1157 H1169 0.929 . S
C1158 C1154 1.531 1_565 S
C1158 H1170 0.960 . S
C1158 H1171 0.962 . S
C1158 H1172 0.960 . S
C1159 C1156 1.511 . S
C1159 H1173 0.961 . S
C1159 H1174 0.961 . S
C1159 H1175 0.961 . S
C1160 C1161 1.370 . S
C1160 C1162 1.363 . S
C1160 H1176 0.931 . S
C1161 C1160 1.370 . S
C1161 C1165 1.408 . S
C1162 C1160 1.363 . S
C1162 C1163 1.370 . S
C1162 C1166 1.524 . S
C1163 C1155 1.503 1_565 S
C1163 C1162 1.370 . S
C1163 C1164 1.403 . S
C1164 C1163 1.403 . S
C1164 C1165 1.404 . S
C1164 C1167 1.539 . S
C1165 C1161 1.408 . S
C1165 C1164 1.404 . S
C1165 H1177 0.930 . S
C1166 C1162 1.524 . S
C1166 H1178 0.956 . S
C1166 H1179 0.961 1_565 S
C1166 H1180 0.961 . S
C1167 C1164 1.539 . S
C1167 H1181 0.958 . S
C1167 H1182 0.961 . S
C1167 H1183 0.960 1_565 S
H1168 C1152 0.931 . S
H1169 C1157 0.929 . S
H1170 C1158 0.960 . S
H1171 C1158 0.962 . S
H1172 C1158 0.960 . S
H1173 C1159 0.961 . S
H1174 C1159 0.961 . S
H1175 C1159 0.961 . S
H1176 C1160 0.931 . S
H1177 C1165 0.930 . S
H1178 C1166 0.956 . S
H1179 C1166 0.961 1_545 S
H1180 C1166 0.961 . S
H1181 C1167 0.958 . S
H1182 C1167 0.961 . S
H1183 C1167 0.960 1_545 S
C1184 C1185 1.391 . S
C1184 C1186 1.394 . S
C1184 H1200 0.931 . S
C1185 C1184 1.391 . S
C1185 C1189 1.376 . S
C1186 C1184 1.394 . S
C1186 C1187 1.369 . S
C1186 C1190 1.531 1_655 S
C1187 C1186 1.369 . S
C1187 C1188 1.410 1_565 S
C1187 C1195 1.503 1_665 S
C1188 C1187 1.410 1_545 S
C1188 C1189 1.392 1_545 S
C1188 C1191 1.511 . S
C1189 C1185 1.376 . S
C1189 C1188 1.392 1_565 S
C1189 H1201 0.929 1_565 S
C1190 C1186 1.531 1_455 S
C1190 H1202 0.960 . S
C1190 H1203 0.962 . S
C1190 H1204 0.969 . S
C1191 C1188 1.511 . S
C1191 H1205 0.961 . S
C1191 H1206 0.961 . S
C1191 H1207 0.961 . S
C1192 C1193 1.370 . S
C1192 C1194 1.363 . S
C1192 H1208 0.931 . S
C1193 C1192 1.370 . S
C1193 C1197 1.408 . S
C1194 C1192 1.363 . S
C1194 C1195 1.370 . S
C1194 C1198 1.524 1_545 S
C1195 C1187 1.503 1_445 S
C1195 C1194 1.370 . S
C1195 C1196 1.403 . S
C1196 C1195 1.403 . S
C1196 C1197 1.404 . S
C1196 C1199 1.539 . S
C1197 C1193 1.408 . S
C1197 C1196 1.404 . S
C1197 H1209 0.930 . S
C1198 C1194 1.524 1_565 S
C1198 H1210 0.956 . S
C1198 H1211 0.961 . S
C1198 H1212 0.961 . S
C1199 C1196 1.539 . S
C1199 H1213 0.958 . S
C1199 H1214 0.961 . S
C1199 H1215 0.960 1_455 S
H1200 C1184 0.931 . S
H1201 C1189 0.929 1_545 S
H1202 C1190 0.960 . S
H1203 C1190 0.962 . S
H1204 C1190 0.969 . S
H1205 C1191 0.961 . S
H1206 C1191 0.961 . S
H1207 C1191 0.961 . S
H1208 C1192 0.931 . S
H1209 C1197 0.930 . S
H1210 C1198 0.956 . S
H1211 C1198 0.961 . S
H1212 C1198 0.961 . S
H1213 C1199 0.958 . S
H1214 C1199 0.961 . S
H1215 C1199 0.960 1_655 S
C1216 C1217 1.391 . S
C1216 C1218 1.394 . S
C1216 H1232 0.931 . S
C1217 C1216 1.391 . S
C1217 C1221 1.376 . S
C1218 C1216 1.394 . S
C1218 C1219 1.369 . S
C1218 C1222 1.531 1_655 S
C1219 C1218 1.369 . S
C1219 C1220 1.410 . S
C1219 C1227 1.503 1_655 S
C1220 C1219 1.410 . S
C1220 C1221 1.392 . S
C1220 C1223 1.511 . S
C1221 C1217 1.376 . S
C1221 C1220 1.392 . S
C1221 H1233 0.929 . S
C1222 C1218 1.531 1_455 S
C1222 H1234 0.960 . S
C1222 H1235 0.962 . S
C1222 H1236 0.960 . S
C1223 C1220 1.511 . S
C1223 H1237 0.961 . S
C1223 H1238 0.961 . S
C1223 H1239 0.961 . S
C1224 C1225 1.370 . S
C1224 C1226 1.363 . S
C1224 H1240 0.931 . S
C1225 C1224 1.370 . S
C1225 C1229 1.408 . S
C1226 C1224 1.363 . S
C1226 C1227 1.370 . S
C1226 C1230 1.524 . S
C1227 C1219 1.503 1_455 S
C1227 C1226 1.370 . S
C1227 C1228 1.403 1_455 S
C1228 C1227 1.403 1_655 S
C1228 C1229 1.404 1_655 S
C1228 C1231 1.539 . S
C1229 C1225 1.408 . S
C1229 C1228 1.404 1_455 S
C1229 H1241 0.930 1_455 S
C1230 C1226 1.524 . S
C1230 H1242 0.956 . S
C1230 H1243 0.961 . S
C1230 H1244 0.961 . S
C1231 C1228 1.539 . S
C1231 H1245 0.958 . S
C1231 H1246 0.961 . S
C1231 H1247 0.960 . S
H1232 C1216 0.931 . S
H1233 C1221 0.929 . S
H1234 C1222 0.960 . S
H1235 C1222 0.962 . S
H1236 C1222 0.960 . S
H1237 C1223 0.961 . S
H1238 C1223 0.961 . S
H1239 C1223 0.961 . S
H1240 C1224 0.931 . S
H1241 C1229 0.930 1_655 S
H1242 C1230 0.956 . S
H1243 C1230 0.961 . S
H1244 C1230 0.961 . S
H1245 C1231 0.958 . S
H1246 C1231 0.961 . S
H1247 C1231 0.960 . S
C225 C65 1.325 . S
C233 C9 1.348 . S
C257 C23 1.333 . S
C265 C79 1.349 . S
C289 C93 1.330 . S
C297 C37 1.341 . S
C321 C107 1.343 . S
C329 C51 1.337 . S
C353 C177 1.354 . S
C361 C121 1.341 . S
C385 C135 1.343 . S
C393 C191 1.337 . S
C417 C205 1.354 . S
C425 C149 1.340 . S
C449 C163 1.345 . S
C457 C219 1.337 . S
C481 C0 1.407 . S
C489 C210 1.404 . S
C513 C14 1.380 . S
C521 C168 1.395 . S
C545 C28 1.401 . S
C553 C182 1.405 . S
C577 C196 1.404 . S
C585 C42 1.405 . S
C609 C56 1.381 . S
C617 C126 1.395 . S
C641 C70 1.407 . S
C649 C140 1.394 . S
C673 C154 1.411 . S
C681 C84 1.397 . S
C705 C112 1.388 . S
C713 C98 1.392 . S
C737 C11 1.582 . S
C745 C151 1.592 . S
C769 C165 1.577 . S
C777 C25 1.594 . S
C801 C39 1.587 . S
C809 C123 1.589 . S
C833 C137 1.594 . S
C841 C53 1.591 . S
C865 C67 1.597 . S
C873 C207 1.587 . S
C897 C81 1.583 . S
C905 C221 1.591 . S
C929 C179 1.584 . S
C937 C95 1.595 . S
C961 C193 1.576 . S
C969 C109 1.596 . S
C993 C145 1.406 . S
C1001 C5 1.406 . S
C1025 C19 1.406 . S
C1033 C159 1.405 . S
C1057 C33 1.393 . S
C1065 C117 1.401 . S
C1089 C131 1.393 . S
C1097 C47 1.400 . S
C1121 C201 1.399 . S
C1129 C61 1.403 . S
C1153 C215 1.393 . S
C1161 C75 1.400 . S
C1185 C173 1.394 . S
C1193 C89 1.400 . S
C1217 C103 1.401 . S
C1225 C187 1.404 . S
