# Generated by pormake.
# Topology crr, (4)-cn, num edge types: 1
# Building blocks:
#     Node 0, Type 0, BuildingBlock: ESEHIV_clean_sbu_0, # of connection points: 4
#     Node 1, Type 0, BuildingBlock: ESEHIV_clean_sbu_0, # of connection points: 4
#     Node 2, Type 0, BuildingBlock: ESEHIV_clean_sbu_0, # of connection points: 4
#     Node 3, Type 0, BuildingBlock: ESEHIV_clean_sbu_0, # of connection points: 4
#     Node 4, Type 0, BuildingBlock: ESEHIV_clean_sbu_0, # of connection points: 4
#     Node 5, Type 0, BuildingBlock: ESEHIV_clean_sbu_0, # of connection points: 4
#     Node 6, Type 0, BuildingBlock: ESEHIV_clean_sbu_0, # of connection points: 4
#     Node 7, Type 0, BuildingBlock: ESEHIV_clean_sbu_0, # of connection points: 4
#     Node 8, Type 0, BuildingBlock: ESEHIV_clean_sbu_0, # of connection points: 4
#     Node 9, Type 0, BuildingBlock: ESEHIV_clean_sbu_0, # of connection points: 4
#     Node 10, Type 0, BuildingBlock: ESEHIV_clean_sbu_0, # of connection points: 4
#     Node 11, Type 0, BuildingBlock: ESEHIV_clean_sbu_0, # of connection points: 4
#     Edge 12, Type (0, 0), BuildingBlock: TEMPAE_clean_linker_10, # of connection points: 2
#     Edge 13, Type (0, 0), BuildingBlock: TEMPAE_clean_linker_10, # of connection points: 2
#     Edge 14, Type (0, 0), BuildingBlock: TEMPAE_clean_linker_10, # of connection points: 2
#     Edge 15, Type (0, 0), BuildingBlock: TEMPAE_clean_linker_10, # of connection points: 2
#     Edge 16, Type (0, 0), BuildingBlock: TEMPAE_clean_linker_10, # of connection points: 2
#     Edge 17, Type (0, 0), BuildingBlock: TEMPAE_clean_linker_10, # of connection points: 2
#     Edge 18, Type (0, 0), BuildingBlock: TEMPAE_clean_linker_10, # of connection points: 2
#     Edge 19, Type (0, 0), BuildingBlock: TEMPAE_clean_linker_10, # of connection points: 2
#     Edge 20, Type (0, 0), BuildingBlock: TEMPAE_clean_linker_10, # of connection points: 2
#     Edge 21, Type (0, 0), BuildingBlock: TEMPAE_clean_linker_10, # of connection points: 2
#     Edge 22, Type (0, 0), BuildingBlock: TEMPAE_clean_linker_10, # of connection points: 2
#     Edge 23, Type (0, 0), BuildingBlock: TEMPAE_clean_linker_10, # of connection points: 2
#     Edge 24, Type (0, 0), BuildingBlock: TEMPAE_clean_linker_10, # of connection points: 2
#     Edge 25, Type (0, 0), BuildingBlock: TEMPAE_clean_linker_10, # of connection points: 2
#     Edge 26, Type (0, 0), BuildingBlock: TEMPAE_clean_linker_10, # of connection points: 2
#     Edge 27, Type (0, 0), BuildingBlock: TEMPAE_clean_linker_10, # of connection points: 2
#     Edge 28, Type (0, 0), BuildingBlock: TEMPAE_clean_linker_10, # of connection points: 2
#     Edge 29, Type (0, 0), BuildingBlock: TEMPAE_clean_linker_10, # of connection points: 2
#     Edge 30, Type (0, 0), BuildingBlock: TEMPAE_clean_linker_10, # of connection points: 2
#     Edge 31, Type (0, 0), BuildingBlock: TEMPAE_clean_linker_10, # of connection points: 2
#     Edge 32, Type (0, 0), BuildingBlock: TEMPAE_clean_linker_10, # of connection points: 2
#     Edge 33, Type (0, 0), BuildingBlock: TEMPAE_clean_linker_10, # of connection points: 2
#     Edge 34, Type (0, 0), BuildingBlock: TEMPAE_clean_linker_10, # of connection points: 2
#     Edge 35, Type (0, 0), BuildingBlock: TEMPAE_clean_linker_10, # of connection points: 2
# Relax obj value: 0.030
# Max RMSD: 0.140
# Mean RMSD: 0.117
data_MOF--net-crr--node1-ESEHIV_clean_sbu_0--edge1-TEMPAE_clean_linker_10
_symmetry_space_group_name_H-M    P1
_symmetry_Int_Tables_number       1
_symmetry_cell_setting            triclinic
loop_
_symmetry_equiv_pos_as_xyz
'x, y, z'
_cell_length_a     43.010268
_cell_length_b     47.75302
_cell_length_c     43.032133
_cell_angle_alpha  91.821541
_cell_angle_beta   85.806962
_cell_angle_gamma 87.929423
loop_
_atom_site_label
_atom_site_type_symbol
_atom_site_fract_x
_atom_site_fract_y
_atom_site_fract_z
_atom_type_partial_charge
Cu0 Cu 0.15745 0.38517 0.40967 0.0
N1 N 0.14304 0.42051 0.42605 0.0
N2 N 0.10889 0.457 0.4343 0.0
C3 C 0.11403 0.43071 0.42217 0.0
C4 C 0.13586 0.46369 0.44644 0.0
C5 C 0.15685 0.441 0.44157 0.0
O6 O 0.12304 0.36104 0.42088 0.0
C7 C 0.18826 0.40726 0.35812 0.0
O8 O 0.19393 0.42602 0.37974 0.0
H9 H 0.09734 0.41932 0.40955 0.0
H10 H 0.18062 0.43984 0.44817 0.0
N11 N 0.19318 0.3695 0.42562 0.0
N12 N 0.22925 0.33497 0.42997 0.0
C13 C 0.19963 0.34169 0.42366 0.0
C14 C 0.21964 0.38114 0.43341 0.0
C15 C 0.24186 0.35989 0.43635 0.0
C16 C 0.12125 0.35368 0.4492 0.0
O17 O 0.14306 0.36106 0.4673 0.0
H18 H 0.18293 0.3269 0.41644 0.0
H19 H 0.22321 0.40342 0.43484 0.0
O20 O 0.16989 0.38768 0.36535 0.0
H21 H 0.1402 0.4836 0.45771 0.0
H22 H 0.26589 0.36287 0.44109 0.0
Cu23 Cu 0.35114 0.88692 0.66258 0.0
N24 N 0.31379 0.87177 0.65085 0.0
N25 N 0.28143 0.83849 0.63695 0.0
C26 C 0.31136 0.84507 0.64037 0.0
C27 C 0.26449 0.86227 0.64546 0.0
C28 C 0.2844 0.88262 0.65401 0.0
O29 O 0.37267 0.85765 0.68449 0.0
C30 C 0.3578 0.9203 0.61209 0.0
O31 O 0.32763 0.92275 0.61946 0.0
H32 H 0.33129 0.83061 0.63636 0.0
H33 H 0.27763 0.90349 0.66288 0.0
N34 N 0.34665 0.91728 0.69105 0.0
N35 N 0.36752 0.95332 0.71551 0.0
C36 C 0.37231 0.92724 0.70276 0.0
C37 C 0.32436 0.93768 0.69686 0.0
C38 C 0.33717 0.95994 0.71209 0.0
C39 C 0.35539 0.84781 0.70662 0.0
O40 O 0.32657 0.85787 0.71175 0.0
H41 H 0.39502 0.91673 0.69851 0.0
H42 H 0.30146 0.93774 0.68818 0.0
O43 O 0.37396 0.90287 0.62676 0.0
H44 H 0.23931 0.86458 0.64701 0.0
H45 H 0.32564 0.98012 0.71802 0.0
Cu46 Cu 0.90469 0.62891 0.35856 0.0
N47 N 0.89663 0.62295 0.31654 0.0
N48 N 0.86789 0.6199 0.27526 0.0
C49 C 0.868 0.61926 0.30661 0.0
C50 C 0.89784 0.6237 0.26502 0.0
C51 C 0.91547 0.62577 0.29054 0.0
O52 O 0.86929 0.65133 0.37835 0.0
C53 C 0.93674 0.57848 0.36265 0.0
O54 O 0.94617 0.5857 0.33441 0.0
H55 H 0.84735 0.61758 0.3223 0.0
H56 H 0.93991 0.63045 0.29027 0.0
N57 N 0.93952 0.65 0.36471 0.0
N58 N 0.97498 0.66682 0.39516 0.0
C59 C 0.95669 0.64534 0.38905 0.0
C60 C 0.9474 0.67539 0.35468 0.0
C61 C 0.96931 0.68589 0.37355 0.0
C62 C 0.86068 0.672 0.36251 0.0
O63 O 0.87552 0.67623 0.33542 0.0
H64 H 0.95332 0.62782 0.40412 0.0
H65 H 0.93627 0.68647 0.33671 0.0
O66 O 0.91505 0.59342 0.37763 0.0
H67 H 0.90606 0.62654 0.24099 0.0
H68 H 0.97888 0.70653 0.37261 0.0
Cu69 Cu 0.60802 0.11642 0.64807 0.0
N70 N 0.64938 0.12522 0.65273 0.0
N71 N 0.69045 0.15272 0.65203 0.0
C72 C 0.66037 0.15045 0.64576 0.0
C73 C 0.69887 0.12764 0.6632 0.0
C74 C 0.67338 0.1107 0.66371 0.0
O75 O 0.58587 0.15302 0.65263 0.0
C76 C 0.61514 0.06952 0.60938 0.0
O77 O 0.62717 0.06087 0.63475 0.0
H78 H 0.6464 0.16683 0.63604 0.0
H79 H 0.67233 0.08952 0.67182 0.0
N80 N 0.59124 0.09375 0.67931 0.0
N81 N 0.55645 0.06669 0.70337 0.0
C82 C 0.56381 0.08135 0.6778 0.0
C83 C 0.60185 0.08654 0.70676 0.0
C84 C 0.58019 0.06997 0.72183 0.0
C85 C 0.58442 0.16326 0.6805 0.0
O86 O 0.59514 0.1479 0.70239 0.0
H87 H 0.54932 0.08336 0.65839 0.0
H88 H 0.62354 0.09312 0.71533 0.0
O89 O 0.60552 0.0951 0.60869 0.0
H90 H 0.72156 0.12209 0.67103 0.0
H91 H 0.5819 0.06078 0.74435 0.0
Cu92 Cu 0.12519 0.62227 0.64623 0.0
N93 N 0.13298 0.62004 0.68853 0.0
N94 N 0.16265 0.61735 0.72909 0.0
C95 C 0.16174 0.61459 0.69786 0.0
C96 C 0.13309 0.62463 0.7399 0.0
C97 C 0.11488 0.62646 0.71482 0.0
O98 O 0.16083 0.64223 0.62832 0.0
C99 C 0.09597 0.57236 0.64626 0.0
O100 O 0.08624 0.58371 0.67359 0.0
H101 H 0.18183 0.60956 0.68177 0.0
H102 H 0.09053 0.63303 0.71572 0.0
N103 N 0.09039 0.64432 0.63753 0.0
N104 N 0.05836 0.66376 0.60484 0.0
C105 C 0.08722 0.65295 0.60847 0.0
C106 C 0.06252 0.64986 0.65321 0.0
C107 C 0.04269 0.66196 0.63307 0.0
C108 C 0.1621 0.6659 0.64281 0.0
O109 O 0.13984 0.67309 0.66445 0.0
H110 H 0.10513 0.64908 0.58967 0.0
H111 H 0.05632 0.64388 0.67679 0.0
O112 O 0.11623 0.58507 0.62933 0.0
H113 H 0.12547 0.6297 0.76402 0.0
H114 H 0.01828 0.66771 0.63846 0.0
Cu115 Cu 0.65927 0.89792 0.37858 0.0
N116 N 0.70029 0.88391 0.37997 0.0
N117 N 0.73902 0.85199 0.38434 0.0
C118 C 0.70784 0.85708 0.38577 0.0
C119 C 0.75151 0.87681 0.37731 0.0
C120 C 0.72757 0.89642 0.37454 0.0
O121 O 0.63732 0.86916 0.35663 0.0
C122 C 0.65895 0.92909 0.43244 0.0
O123 O 0.6854 0.93519 0.41744 0.0
H124 H 0.69057 0.84144 0.38987 0.0
H125 H 0.7299 0.91814 0.36869 0.0
N126 N 0.65539 0.93053 0.35633 0.0
N127 N 0.63126 0.97047 0.34449 0.0
C128 C 0.6306 0.94813 0.3627 0.0
C129 C 0.6726 0.94201 0.33294 0.0
C130 C 0.65751 0.96677 0.3254 0.0
C131 C 0.64937 0.86438 0.3289 0.0
O132 O 0.67368 0.8786 0.31945 0.0
H133 H 0.61214 0.94441 0.38039 0.0
H134 H 0.6944 0.93311 0.32219 0.0
O135 O 0.64266 0.91026 0.42051 0.0
H136 H 0.77617 0.88063 0.37422 0.0
H137 H 0.66545 0.9811 0.30779 0.0
Cu138 Cu 0.89381 0.36479 0.63031 0.0
N139 N 0.85966 0.34905 0.61287 0.0
N140 N 0.82089 0.31942 0.60906 0.0
C141 C 0.84444 0.3277 0.6258 0.0
C142 C 0.82137 0.33634 0.58444 0.0
C143 C 0.8453 0.35472 0.58692 0.0
O144 O 0.88196 0.36633 0.67505 0.0
C145 C 0.93408 0.32687 0.593 0.0
O146 O 0.90851 0.31883 0.58105 0.0
H147 H 0.85115 0.31802 0.64683 0.0
H148 H 0.85192 0.37079 0.57085 0.0
N149 N 0.90259 0.4007 0.61654 0.0
N150 N 0.93172 0.43759 0.60547 0.0
C151 C 0.93107 0.41156 0.61681 0.0
C152 C 0.88447 0.42048 0.60439 0.0
C153 C 0.90234 0.44336 0.59775 0.0
C154 C 0.85786 0.38205 0.68279 0.0
O155 O 0.84619 0.39732 0.66127 0.0
H156 H 0.95083 0.40068 0.62583 0.0
H157 H 0.86002 0.4185 0.60075 0.0
O158 O 0.93195 0.343 0.61733 0.0
H159 H 0.80552 0.33563 0.56604 0.0
H160 H 0.89434 0.46267 0.58789 0.0
Cu161 Cu 0.40725 0.13609 0.42009 0.0
N162 N 0.41936 0.17261 0.41317 0.0
N163 N 0.42122 0.20936 0.38209 0.0
C164 C 0.42467 0.18128 0.38389 0.0
C165 C 0.4136 0.21882 0.4117 0.0
C166 C 0.41225 0.19606 0.43079 0.0
O167 O 0.36357 0.13956 0.41195 0.0
C168 C 0.46216 0.11531 0.39125 0.0
O169 O 0.4716 0.13555 0.40927 0.0
H170 H 0.42703 0.1669 0.36382 0.0
H171 H 0.40329 0.19642 0.45495 0.0
N172 N 0.41279 0.12301 0.46003 0.0
N173 N 0.41566 0.09205 0.49788 0.0
C174 C 0.41063 0.09595 0.46767 0.0
C175 C 0.41969 0.1368 0.48625 0.0
C176 C 0.42126 0.11777 0.50971 0.0
C177 C 0.34441 0.14923 0.434 0.0
O178 O 0.35145 0.14596 0.46288 0.0
H179 H 0.40483 0.07953 0.45141 0.0
H180 H 0.42324 0.15906 0.48823 0.0
O181 O 0.43301 0.11136 0.39128 0.0
H182 H 0.40714 0.24032 0.41877 0.0
H183 H 0.42632 0.1225 0.53354 0.0
Cu184 Cu 0.38821 0.36897 0.12901 0.0
N185 N 0.38677 0.3323 0.14281 0.0
N186 N 0.39016 0.29908 0.1781 0.0
C187 C 0.39572 0.32585 0.17109 0.0
C188 C 0.37707 0.28817 0.153 0.0
C189 C 0.37499 0.30877 0.13121 0.0
O190 O 0.36737 0.39092 0.16426 0.0
C191 C 0.44677 0.35864 0.09857 0.0
O192 O 0.43444 0.33414 0.09463 0.0
H193 H 0.4049 0.3411 0.1868 0.0
H194 H 0.36503 0.30686 0.10893 0.0
N195 N 0.36616 0.37706 0.09435 0.0
N196 N 0.34766 0.40634 0.06004 0.0
C197 C 0.36895 0.40196 0.08095 0.0
C198 C 0.34241 0.36484 0.08108 0.0
C199 C 0.33073 0.38308 0.05999 0.0
C200 C 0.33822 0.38653 0.16807 0.0
O201 O 0.32586 0.3696 0.14819 0.0
H202 H 0.38499 0.41747 0.08812 0.0
H203 H 0.33295 0.34502 0.08764 0.0
O204 O 0.43131 0.37749 0.1156 0.0
H205 H 0.36933 0.26695 0.15061 0.0
H206 H 0.31077 0.37993 0.04654 0.0
Cu207 Cu 0.3823 0.63898 0.90873 0.0
N208 N 0.3856 0.67772 0.90423 0.0
N209 N 0.39072 0.71768 0.87869 0.0
C210 C 0.38831 0.68959 0.87625 0.0
C211 C 0.38949 0.72369 0.9097 0.0
C212 C 0.38645 0.69897 0.92539 0.0
O213 O 0.36172 0.62546 0.87237 0.0
C214 C 0.44661 0.63583 0.92106 0.0
O215 O 0.44776 0.66107 0.90988 0.0
H216 H 0.38784 0.67771 0.85448 0.0
H217 H 0.3852 0.69666 0.95036 0.0
N218 N 0.35636 0.6287 0.94265 0.0
N219 N 0.3351 0.59719 0.97431 0.0
C220 C 0.35046 0.60158 0.94657 0.0
C221 C 0.34423 0.64236 0.96883 0.0
C222 C 0.33107 0.62287 0.98851 0.0
C223 C 0.3353 0.63823 0.87071 0.0
O224 O 0.32602 0.65711 0.89264 0.0
H225 H 0.35935 0.58512 0.93007 0.0
H226 H 0.34603 0.66454 0.97388 0.0
O227 O 0.42251 0.62162 0.91747 0.0
H228 H 0.39092 0.74438 0.92036 0.0
H229 H 0.32034 0.62719 1.01179 0.0
Cu230 Cu 0.63199 0.64903 0.11393 0.0
N231 N 0.64876 0.64957 0.07281 0.0
N232 N 0.65605 0.63081 0.02448 0.0
C233 C 0.65308 0.62581 0.05516 0.0
C234 C 0.65384 0.65896 0.02264 0.0
C235 C 0.64943 0.67053 0.05259 0.0
O236 O 0.59669 0.62513 0.10908 0.0
C237 C 0.68823 0.64934 0.14057 0.0
O238 O 0.68965 0.67181 0.12373 0.0
H239 H 0.65072 0.60514 0.06451 0.0
H240 H 0.64458 0.69242 0.05888 0.0
N241 N 0.61885 0.68487 0.12976 0.0
N242 N 0.60992 0.72129 0.16367 0.0
C243 C 0.6222 0.69493 0.15889 0.0
C244 C 0.60389 0.70553 0.11557 0.0
C245 C 0.59834 0.72801 0.13641 0.0
C246 C 0.56887 0.63526 0.10909 0.0
O247 O 0.56124 0.65859 0.12524 0.0
H248 H 0.63321 0.68296 0.17628 0.0
H249 H 0.59714 0.70423 0.09186 0.0
O250 O 0.66415 0.63458 0.1397 0.0
H251 H 0.65365 0.67023 1.00122 0.0
H252 H 0.58717 0.74792 0.13162 0.0
Cu253 Cu 0.62658 0.38838 0.85737 0.0
N254 N 0.63107 0.42705 0.85582 0.0
N255 N 0.63668 0.47166 0.87099 0.0
C256 C 0.6283 0.44594 0.87984 0.0
C257 C 0.64485 0.46883 0.84013 0.0
C258 C 0.64134 0.44129 0.83086 0.0
O259 O 0.60302 0.37955 0.89632 0.0
C260 C 0.69292 0.38174 0.8563 0.0
O261 O 0.69105 0.40429 0.87473 0.0
H262 H 0.62165 0.44066 0.90359 0.0
H263 H 0.64682 0.43203 0.80775 0.0
N264 N 0.60416 0.37675 0.82401 0.0
N265 N 0.58938 0.35025 0.78422 0.0
C266 C 0.60826 0.35207 0.80797 0.0
C267 C 0.58198 0.39118 0.81005 0.0
C268 C 0.57274 0.37486 0.78556 0.0
C269 C 0.6119 0.38341 0.92371 0.0
O270 O 0.64023 0.39184 0.92707 0.0
H271 H 0.62462 0.33569 0.81389 0.0
H272 H 0.57341 0.41219 0.817 0.0
O273 O 0.66789 0.37023 0.84959 0.0
H274 H 0.65318 0.48535 0.8254 0.0
H275 H 0.55544 0.38089 0.76974 0.0
C276 C 0.27324 0.30235 0.44067 0.0
C277 C 0.24455 0.30729 0.42777 0.0
C278 C 0.28809 0.27555 0.43891 0.0
C279 C 0.27379 0.25287 0.42431 0.0
C280 C 0.24507 0.25762 0.41099 0.0
C281 C 0.23097 0.28469 0.41265 0.0
C282 C 0.319 0.27142 0.45303 0.0
C283 C 0.22895 0.23399 0.39537 0.0
C284 C 0.32664 0.18866 0.40166 0.0
C285 C 0.32183 0.1723 0.42802 0.0
C286 C 0.31032 0.21451 0.39952 0.0
C287 C 0.28842 0.22403 0.42413 0.0
C288 C 0.28196 0.20668 0.44972 0.0
C289 C 0.29885 0.18113 0.45142 0.0
C290 C 0.31771 0.2323 0.37174 0.0
C291 C 0.25844 0.21582 0.47621 0.0
H292 H 0.28404 0.31931 0.45257 0.0
H293 H 0.20927 0.28792 0.40191 0.0
H294 H 0.31658 0.25654 0.47227 0.0
H295 H 0.33674 0.26209 0.43529 0.0
H296 H 0.32772 0.29137 0.46237 0.0
H297 H 0.20702 0.24123 0.38549 0.0
H298 H 0.24468 0.22392 0.37634 0.0
H299 H 0.22333 0.21766 0.41246 0.0
H300 H 0.34461 0.1822 0.38361 0.0
H301 H 0.29503 0.1686 0.47183 0.0
H302 H 0.32698 0.2525 0.37958 0.0
H303 H 0.29615 0.23731 0.36007 0.0
H304 H 0.33506 0.22176 0.35439 0.0
H305 H 0.26711 0.23409 0.4891 0.0
H306 H 0.254 0.19886 0.49286 0.0
H307 H 0.23601 0.22257 0.46706 0.0
C308 C 0.28786 0.78647 0.63239 0.0
C309 C 0.26953 0.81117 0.62972 0.0
C310 C 0.2752 0.75986 0.62918 0.0
C311 C 0.24329 0.75778 0.62377 0.0
C312 C 0.22525 0.78246 0.61901 0.0
C313 C 0.23863 0.80873 0.62172 0.0
C314 C 0.29551 0.73407 0.63364 0.0
C315 C 0.19107 0.7813 0.6133 0.0
C316 C 0.20199 0.68981 0.60788 0.0
C317 C 0.1878 0.68536 0.63758 0.0
C318 C 0.22184 0.71245 0.60306 0.0
C319 C 0.22733 0.73083 0.62851 0.0
C320 C 0.21475 0.725 0.65881 0.0
C321 C 0.1953 0.70237 0.66291 0.0
C322 C 0.23547 0.71757 0.57055 0.0
C323 C 0.22005 0.74375 0.68675 0.0
H324 H 0.31175 0.78771 0.6384 0.0
H325 H 0.22441 0.82742 0.61854 0.0
H326 H 0.2902 0.72629 0.65739 0.0
H327 H 0.2908 0.71702 0.6167 0.0
H328 H 0.32072 0.73856 0.631 0.0
H329 H 0.18109 0.80196 0.60701 0.0
H330 H 0.18756 0.76572 0.59435 0.0
H331 H 0.17784 0.77451 0.6347 0.0
H332 H 0.19625 0.67668 0.58826 0.0
H333 H 0.1848 0.69867 0.68603 0.0
H334 H 0.26016 0.72348 0.57085 0.0
H335 H 0.22232 0.73524 0.5608 0.0
H336 H 0.2342 0.69883 0.55478 0.0
H337 H 0.24535 0.74644 0.68859 0.0
H338 H 0.21009 0.73532 0.70894 0.0
H339 H 0.20911 0.76484 0.68393 0.0
C340 C 0.74022 0.80329 0.40282 0.0
C341 C 0.75517 0.82518 0.38738 0.0
C342 C 0.75467 0.77646 0.4037 0.0
C343 C 0.78494 0.77138 0.38903 0.0
C344 C 0.8007 0.79364 0.37459 0.0
C345 C 0.78562 0.82016 0.37384 0.0
C346 C 0.73708 0.75331 0.41931 0.0
C347 C 0.83312 0.78918 0.35879 0.0
C348 C 0.83774 0.70777 0.40197 0.0
C349 C 0.83581 0.69256 0.37388 0.0
C350 C 0.81977 0.73282 0.40834 0.0
C351 C 0.79932 0.74244 0.38619 0.0
C352 C 0.79544 0.72567 0.35912 0.0
C353 C 0.81401 0.7011 0.35316 0.0
C354 C 0.82464 0.75009 0.43742 0.0
C355 C 0.77352 0.73474 0.33515 0.0
H356 H 0.71701 0.80695 0.414 0.0
H357 H 0.79743 0.83667 0.36165 0.0
H358 H 0.73145 0.73737 0.40146 0.0
H359 H 0.75172 0.74259 0.43584 0.0
H360 H 0.71497 0.76121 0.43212 0.0
H361 H 0.84314 0.80908 0.35086 0.0
H362 H 0.84895 0.77936 0.3749 0.0
H363 H 0.83242 0.77465 0.33823 0.0
H364 H 0.85503 0.70136 0.41771 0.0
H365 H 0.81271 0.68932 0.33134 0.0
H366 H 0.80201 0.75823 0.44882 0.0
H367 H 0.83858 0.76844 0.43104 0.0
H368 H 0.83723 0.73785 0.45445 0.0
H369 H 0.77022 0.71771 0.31763 0.0
H370 H 0.78307 0.75293 0.32275 0.0
H371 H 0.7504 0.74152 0.34657 0.0
C372 C 0.79454 0.28834 0.64673 0.0
C373 C 0.80059 0.29656 0.61588 0.0
C374 C 0.77629 0.26523 0.6537 0.0
C375 C 0.7636 0.24992 0.62926 0.0
C376 C 0.76901 0.25843 0.59814 0.0
C377 C 0.78743 0.28162 0.59183 0.0
C378 C 0.77094 0.25702 0.68722 0.0
C379 C 0.75566 0.2428 0.57144 0.0
C380 C 0.74156 0.17428 0.64175 0.0
C381 C 0.70907 0.1771 0.64766 0.0
C382 C 0.75961 0.19781 0.63603 0.0
C383 C 0.74486 0.22485 0.63619 0.0
C384 C 0.71215 0.22789 0.64269 0.0
C385 C 0.69472 0.20405 0.64845 0.0
C386 C 0.79446 0.19371 0.62941 0.0
C387 C 0.69548 0.25631 0.64337 0.0
H388 H 0.80405 0.30005 0.66555 0.0
H389 H 0.79213 0.28764 0.56794 0.0
H390 H 0.74557 0.25682 0.69402 0.0
H391 H 0.78069 0.23548 0.6899 0.0
H392 H 0.78185 0.2715 0.70358 0.0
H393 H 0.76137 0.25247 0.54869 0.0
H394 H 0.76488 0.22076 0.57004 0.0
H395 H 0.72992 0.24227 0.57552 0.0
H396 H 0.75281 0.15359 0.64089 0.0
H397 H 0.66976 0.20659 0.65373 0.0
H398 H 0.80674 0.20659 0.64622 0.0
H399 H 0.80144 0.20091 0.60573 0.0
H400 H 0.80248 0.17145 0.6309 0.0
H401 H 0.70421 0.27005 0.66182 0.0
H402 H 0.66983 0.25496 0.64785 0.0
H403 H 0.70035 0.26654 0.62083 0.0
C404 C 0.41892 0.29561 0.22561 0.0
C405 C 0.39559 0.28599 0.20718 0.0
C406 C 0.42373 0.28413 0.25459 0.0
C407 C 0.40489 0.26229 0.26552 0.0
C408 C 0.38146 0.25225 0.24698 0.0
C409 C 0.37712 0.26419 0.21804 0.0
C410 C 0.44901 0.2954 0.27355 0.0
C411 C 0.3609 0.22897 0.2578 0.0
C412 C 0.43565 0.21411 0.32596 0.0
C413 C 0.41914 0.22434 0.35358 0.0
C414 C 0.43141 0.22637 0.29727 0.0
C415 C 0.41017 0.24958 0.29604 0.0
C416 C 0.39404 0.26056 0.32394 0.0
C417 C 0.39882 0.24789 0.35237 0.0
C418 C 0.44927 0.21413 0.26816 0.0
C419 C 0.37112 0.28523 0.32366 0.0
H420 H 0.43368 0.3121 0.21728 0.0
H421 H 0.35883 0.25681 0.20422 0.0
H422 H 0.43879 0.30328 0.29674 0.0
H423 H 0.46631 0.27835 0.27758 0.0
H424 H 0.46141 0.31268 0.26194 0.0
H425 H 0.34359 0.22366 0.24081 0.0
H426 H 0.37544 0.20986 0.2615 0.0
H427 H 0.3482 0.23512 0.28051 0.0
H428 H 0.45174 0.19621 0.32674 0.0
H429 H 0.38575 0.25584 0.37345 0.0
H430 H 0.46311 0.2305 0.25654 0.0
H431 H 0.43272 0.20662 0.25142 0.0
H432 H 0.46531 0.19635 0.27315 0.0
H433 H 0.38243 0.30315 0.31227 0.0
H434 H 0.36168 0.29216 0.3475 0.0
H435 H 0.35135 0.27951 0.30986 0.0
C436 C 0.29314 0.65441 0.83844 0.0
C437 C 0.31466 0.63306 0.84518 0.0
C438 C 0.27045 0.64982 0.81732 0.0
C439 C 0.2689 0.62308 0.80255 0.0
C440 C 0.29133 0.60166 0.80824 0.0
C441 C 0.31414 0.60695 0.82945 0.0
C442 C 0.2474 0.67344 0.81169 0.0
C443 C 0.29048 0.57291 0.79284 0.0
C444 C 0.18762 0.60892 0.77811 0.0
C445 C 0.19002 0.61606 0.74669 0.0
C446 C 0.21361 0.60952 0.7961 0.0
C447 C 0.24276 0.61764 0.78243 0.0
C448 C 0.24562 0.62385 0.75042 0.0
C449 C 0.21927 0.62299 0.73297 0.0
C450 C 0.20952 0.60268 0.83013 0.0
C451 C 0.27613 0.63285 0.73497 0.0
H452 H 0.29367 0.67478 0.85022 0.0
H453 H 0.33065 0.59038 0.83467 0.0
H454 H 0.24713 0.67701 0.78637 0.0
H455 H 0.22355 0.66773 0.82016 0.0
H456 H 0.25287 0.69341 0.8237 0.0
H457 H 0.31095 0.5593 0.79766 0.0
H458 H 0.26893 0.56263 0.80144 0.0
H459 H 0.28978 0.57458 0.76725 0.0
H460 H 0.16526 0.60315 0.78875 0.0
H461 H 0.22137 0.62891 0.70885 0.0
H462 H 0.21199 0.62194 0.84473 0.0
H463 H 0.22791 0.58723 0.83595 0.0
H464 H 0.18632 0.59409 0.83646 0.0
H465 H 0.28129 0.65403 0.74411 0.0
H466 H 0.27557 0.63358 0.70924 0.0
H467 H 0.29557 0.61837 0.74046 0.0
C468 C 0.63456 0.73573 0.21151 0.0
C469 C 0.61056 0.73912 0.19137 0.0
C470 C 0.63717 0.75452 0.23688 0.0
C471 C 0.61526 0.77733 0.24232 0.0
C472 C 0.58999 0.77998 0.22316 0.0
C473 C 0.58799 0.7609 0.1979 0.0
C474 C 0.66455 0.75095 0.25664 0.0
C475 C 0.56602 0.80386 0.22825 0.0
C476 C 0.61844 0.82173 0.31748 0.0
C477 C 0.63781 0.84308 0.30717 0.0
C478 C 0.61019 0.80034 0.29658 0.0
C479 C 0.62153 0.80052 0.26478 0.0
C480 C 0.64019 0.82258 0.25423 0.0
C481 C 0.64806 0.84347 0.27547 0.0
C482 C 0.59016 0.77718 0.30864 0.0
C483 C 0.65265 0.8238 0.22053 0.0
H484 H 0.65223 0.71913 0.20663 0.0
H485 H 0.569 0.76333 0.1829 0.0
H486 H 0.68112 0.76783 0.2518 0.0
H487 H 0.65668 0.75281 0.28177 0.0
H488 H 0.67724 0.7304 0.2519 0.0
H489 H 0.54562 0.80082 0.21426 0.0
H490 H 0.55769 0.80623 0.25324 0.0
H491 H 0.57682 0.82375 0.22153 0.0
H492 H 0.61048 0.82128 0.34194 0.0
H493 H 0.66275 0.86005 0.26715 0.0
H494 H 0.60399 0.75705 0.307 0.0
H495 H 0.57012 0.77459 0.2941 0.0
H496 H 0.58114 0.78124 0.33328 0.0
H497 H 0.66816 0.80512 0.21411 0.0
H498 H 0.66603 0.84288 0.21592 0.0
H499 H 0.63315 0.82344 0.20503 0.0
C500 C 0.72264 0.35689 0.81052 0.0
C501 C 0.72267 0.37423 0.83751 0.0
C502 C 0.74856 0.35487 0.78857 0.0
C503 C 0.77534 0.3703 0.79384 0.0
C504 C 0.77663 0.38555 0.82246 0.0
C505 C 0.75023 0.38749 0.84385 0.0
C506 C 0.74611 0.33828 0.75844 0.0
C507 C 0.80497 0.4017 0.82943 0.0
C508 C 0.8454 0.35898 0.73407 0.0
C509 C 0.83995 0.38061 0.71356 0.0
C510 C 0.8253 0.3558 0.76106 0.0
C511 C 0.79908 0.37452 0.76743 0.0
C512 C 0.79434 0.397 0.74742 0.0
C513 C 0.81484 0.39982 0.72097 0.0
C514 C 0.83145 0.33182 0.78204 0.0
C515 C 0.76678 0.41754 0.75319 0.0
H516 H 0.7016 0.34637 0.80541 0.0
H517 H 0.75069 0.40064 0.86481 0.0
H518 H 0.74351 0.35295 0.73922 0.0
H519 H 0.76761 0.32512 0.75246 0.0
H520 H 0.72578 0.32454 0.75961 0.0
H521 H 0.80477 0.40796 0.85454 0.0
H522 H 0.82671 0.38909 0.82258 0.0
H523 H 0.8055 0.42098 0.8157 0.0
H524 H 0.86468 0.34398 0.72852 0.0
H525 H 0.8105 0.41675 0.70547 0.0
H526 H 0.81413 0.31552 0.77879 0.0
H527 H 0.82882 0.33904 0.80689 0.0
H528 H 0.85518 0.32204 0.77688 0.0
H529 H 0.74473 0.40627 0.75226 0.0
H530 H 0.76685 0.43425 0.73581 0.0
H531 H 0.76679 0.42759 0.77678 0.0
C532 C 0.39657 0.82608 0.7379 0.0
C533 C 0.36651 0.82608 0.72736 0.0
C534 C 0.40482 0.80833 0.76182 0.0
C535 C 0.38259 0.78998 0.77498 0.0
C536 C 0.35283 0.78893 0.76304 0.0
C537 C 0.34511 0.80713 0.73964 0.0
C538 C 0.4367 0.81017 0.77402 0.0
C539 C 0.32859 0.76933 0.77581 0.0
C540 C 0.40299 0.72737 0.82298 0.0
C541 C 0.39235 0.73689 0.85329 0.0
C542 C 0.40153 0.74486 0.79743 0.0
C543 C 0.38939 0.77272 0.80219 0.0
C544 C 0.38032 0.78299 0.83291 0.0
C545 C 0.38181 0.76497 0.85803 0.0
C546 C 0.41145 0.73302 0.76512 0.0
C547 C 0.36746 0.81264 0.83908 0.0
H548 H 0.41302 0.84093 0.72865 0.0
H549 H 0.32189 0.80698 0.73137 0.0
H550 H 0.43436 0.81939 0.79811 0.0
H551 H 0.44788 0.78896 0.77511 0.0
H552 H 0.45228 0.82333 0.75938 0.0
H553 H 0.30737 0.76976 0.76255 0.0
H554 H 0.33844 0.74751 0.77518 0.0
H555 H 0.3216 0.77529 0.80054 0.0
H556 H 0.41198 0.706 0.81902 0.0
H557 H 0.37346 0.77262 0.8812 0.0
H558 H 0.42714 0.74745 0.75247 0.0
H559 H 0.3906 0.73087 0.75162 0.0
H560 H 0.42358 0.71212 0.76564 0.0
H561 H 0.38293 0.82769 0.82714 0.0
H562 H 0.36482 0.81841 0.86437 0.0
H563 H 0.34427 0.81494 0.82953 0.0
C564 C 0.73782 0.66159 0.16373 0.0
C565 C 0.7139 0.64261 0.16086 0.0
C566 C 0.76228 0.6563 0.18286 0.0
C567 C 0.76319 0.63126 0.19956 0.0
C568 C 0.73922 0.61189 0.19676 0.0
C569 C 0.71478 0.61784 0.17753 0.0
C570 C 0.78714 0.67767 0.1853 0.0
C571 C 0.73942 0.58492 0.21409 0.0
C572 C 0.8432 0.61038 0.22603 0.0
C573 C 0.84095 0.62071 0.25702 0.0
C574 C 0.81767 0.61258 0.20746 0.0
C575 C 0.78923 0.62574 0.22003 0.0
C576 C 0.78663 0.6357 0.25152 0.0
C577 C 0.81243 0.63296 0.26962 0.0
C578 C 0.82142 0.60155 0.17408 0.0
C579 C 0.75698 0.65027 0.26577 0.0
H580 H 0.7374 0.68087 0.15113 0.0
H581 H 0.69645 0.60305 0.17548 0.0
H582 H 0.78799 0.68504 0.20992 0.0
H583 H 0.81037 0.66794 0.17768 0.0
H584 H 0.78299 0.69616 0.17091 0.0
H585 H 0.71939 0.57186 0.20914 0.0
H586 H 0.7614 0.57255 0.20757 0.0
H587 H 0.73864 0.58961 0.23956 0.0
H588 H 0.86506 0.60068 0.21626 0.0
H589 H 0.81058 0.64141 0.29337 0.0
H590 H 0.81992 0.61926 0.15811 0.0
H591 H 0.80227 0.58743 0.16931 0.0
H592 H 0.8441 0.58992 0.16856 0.0
H593 H 0.75263 0.67008 0.25373 0.0
H594 H 0.75807 0.6553 0.29105 0.0
H595 H 0.73677 0.63694 0.26262 0.0
C596 C 0.58468 0.2144 0.66835 0.0
C597 C 0.57623 0.19307 0.6886 0.0
C598 C 0.58451 0.24255 0.67939 0.0
C599 C 0.57564 0.24927 0.71125 0.0
C600 C 0.56488 0.22796 0.73099 0.0
C601 C 0.56525 0.20022 0.71939 0.0
C602 C 0.5953 0.26486 0.65748 0.0
C603 C 0.55529 0.234 0.7651 0.0
C604 C 0.61218 0.30715 0.75676 0.0
C605 C 0.58705 0.32663 0.7627 0.0
C606 C 0.60936 0.28271 0.73834 0.0
C607 C 0.58073 0.27757 0.72526 0.0
C608 C 0.55593 0.29796 0.72945 0.0
C609 C 0.55932 0.32216 0.74823 0.0
C610 C 0.63655 0.26165 0.73429 0.0
C611 C 0.5252 0.29352 0.71554 0.0
H612 H 0.59341 0.2089 0.64459 0.0
H613 H 0.55858 0.18376 0.73506 0.0
H614 H 0.57641 0.28115 0.65625 0.0
H615 H 0.61558 0.27542 0.66639 0.0
H616 H 0.602 0.25619 0.63356 0.0
H617 H 0.54526 0.21554 0.77666 0.0
H618 H 0.57592 0.24022 0.77737 0.0
H619 H 0.53782 0.25172 0.76792 0.0
H620 H 0.63401 0.31073 0.767 0.0
H621 H 0.53973 0.33699 0.75256 0.0
H622 H 0.64176 0.25566 0.70929 0.0
H623 H 0.63043 0.24231 0.74662 0.0
H624 H 0.65799 0.26981 0.74364 0.0
H625 H 0.52904 0.28553 0.69102 0.0
H626 H 0.51043 0.31314 0.71624 0.0
H627 H 0.51221 0.27756 0.72881 0.0
C628 C 0.28671 0.40374 0.19203 0.0
C629 C 0.31821 0.39697 0.19567 0.0
C630 C 0.265 0.40766 0.21788 0.0
C631 C 0.27487 0.40416 0.2482 0.0
C632 C 0.30697 0.39854 0.25213 0.0
C633 C 0.32838 0.39522 0.22574 0.0
C634 C 0.23121 0.4142 0.21258 0.0
C635 C 0.3184 0.39448 0.28407 0.0
C636 C 0.22204 0.43123 0.31837 0.0
C637 C 0.20736 0.40682 0.32795 0.0
C638 C 0.24372 0.43075 0.2923 0.0
C639 C 0.25132 0.40516 0.27555 0.0
C640 C 0.23607 0.38054 0.28467 0.0
C641 C 0.21408 0.38171 0.31063 0.0
C642 C 0.2589 0.45757 0.28301 0.0
C643 C 0.24359 0.35279 0.26749 0.0
H644 H 0.27881 0.40497 0.16873 0.0
H645 H 0.35259 0.38943 0.22855 0.0
H646 H 0.21699 0.3961 0.21922 0.0
H647 H 0.22212 0.4325 0.22748 0.0
H648 H 0.22786 0.41875 0.18786 0.0
H649 H 0.34422 0.39202 0.28338 0.0
H650 H 0.31063 0.41255 0.29993 0.0
H651 H 0.30816 0.37549 0.29419 0.0
H652 H 0.21693 0.45074 0.33163 0.0
H653 H 0.20315 0.36271 0.31813 0.0
H654 H 0.25516 0.46179 0.25833 0.0
H655 H 0.28445 0.4554 0.28487 0.0
H656 H 0.24963 0.47592 0.2978 0.0
H657 H 0.23895 0.35448 0.24259 0.0
H658 H 0.22977 0.33559 0.2775 0.0
H659 H 0.26876 0.3471 0.26831 0.0
C660 C 0.96715 0.30486 0.5478 0.0
C661 C 0.96399 0.32385 0.57353 0.0
C662 C 0.9928 0.30541 0.52565 0.0
C663 C 0.01557 0.32573 0.52905 0.0
C664 C 0.01324 0.3441 0.55572 0.0
C665 C 0.98762 0.34279 0.57772 0.0
C666 C 0.99488 0.28499 0.49801 0.0
C667 C 0.03688 0.36622 0.56025 0.0
C668 C 0.09638 0.32199 0.48728 0.0
C669 C 0.09309 0.34147 0.46395 0.0
C670 C 0.07077 0.31508 0.50727 0.0
C671 C 0.04136 0.32862 0.50439 0.0
C672 C 0.03756 0.34714 0.47968 0.0
C673 C 0.0635 0.35312 0.45947 0.0
C674 C 0.07572 0.29478 0.53281 0.0
C675 C 1.00669 0.36228 0.47604 0.0
H676 H 0.94901 0.29011 0.54442 0.0
H677 H 0.9853 0.35773 0.59733 0.0
H678 H 0.99147 0.29647 0.47643 0.0
H679 H 0.01838 0.27444 0.4951 0.0
H680 H 0.97708 0.26875 0.50036 0.0
H681 H 0.03344 0.37685 0.58365 0.0
H682 H 0.06093 0.35688 0.55733 0.0
H683 H 0.03486 0.38225 0.54231 0.0
H684 H 0.11937 0.3131 0.4908 0.0
H685 H 0.06109 0.36858 0.44179 0.0
H686 H 0.05689 0.27949 0.53424 0.0
H687 H 0.07489 0.30645 0.55559 0.0
H688 H 0.09858 0.28311 0.52914 0.0
H689 H 0.98767 0.34722 0.47608 0.0
H690 H 1.00688 0.37411 0.4542 0.0
H691 H 1.00122 0.37727 0.49611 0.0
C692 C 0.40317 0.06607 0.54582 0.0
C693 C 0.41373 0.06605 0.51419 0.0
C694 C 0.39841 0.04083 0.56119 0.0
C695 C 0.40462 0.01484 0.54464 0.0
C696 C 0.4169 0.01469 0.51318 0.0
C697 C 0.42111 0.04025 0.4983 0.0
C698 C 0.38513 0.04203 0.5947 0.0
C699 C 0.42436 0.98753 0.4948 0.0
C700 C 0.40309 0.94909 0.59326 0.0
C701 C 0.37219 0.94116 0.59113 0.0
C702 C 0.41452 0.9725 0.57742 0.0
C703 C 0.39456 0.98822 0.55906 0.0
C704 C 0.36388 0.97937 0.55572 0.0
C705 C 0.35317 0.95603 0.57169 0.0
C706 C 0.44745 0.98108 0.58136 0.0
C707 C 0.34172 0.99539 0.53645 0.0
H708 H 0.39728 0.08585 0.55824 0.0
H709 H 0.42989 0.04004 0.47405 0.0
H710 H 0.36118 0.03401 0.596 0.0
H711 H 0.39937 0.02843 0.60904 0.0
H712 H 0.38405 0.06369 0.60505 0.0
H713 H 0.43737 0.99087 0.47204 0.0
H714 H 0.43838 0.97298 0.50831 0.0
H715 H 0.40239 0.97714 0.49034 0.0
H716 H 0.41786 0.93788 0.60845 0.0
H717 H 0.32931 0.95 0.56978 0.0
H718 H 0.44703 1.00168 0.59407 0.0
H719 H 0.46003 0.98361 0.55824 0.0
H720 H 0.46072 0.9656 0.59448 0.0
H721 H 0.33713 0.01689 0.54671 0.0
H722 H 0.31907 0.9851 0.53518 0.0
H723 H 0.35233 0.99745 0.5124 0.0
C724 C 0.01477 0.66645 0.57033 0.0
C725 C 0.04618 0.67047 0.57542 0.0
C726 C 1.00384 0.66903 0.54051 0.0
C727 C 0.02483 0.67566 0.5151 0.0
C728 C 0.05613 0.68119 0.5204 0.0
C729 C 0.06634 0.67869 0.55047 0.0
C730 C 0.97017 0.66325 0.5359 0.0
C731 C 0.07926 0.68834 0.49401 0.0
C732 C 1.0051 0.64672 0.43604 0.0
C733 C 0.99121 0.67022 0.42311 0.0
C734 C 0.01691 0.64845 0.46554 0.0
C735 C 0.01469 0.67434 0.48269 0.0
C736 C 1.00181 0.69845 0.46927 0.0
C737 C 0.99031 0.69612 0.43954 0.0
C738 C 0.0308 0.62229 0.47876 0.0
C739 C 0.99889 0.72638 0.48686 0.0
H740 H 0.99899 0.65997 0.58929 0.0
H741 H 0.09047 0.68244 0.55429 0.0
H742 H 0.95944 0.68032 0.52288 0.0
H743 H 0.96894 0.64352 0.5218 0.0
H744 H 0.95616 0.66117 0.55839 0.0
H745 H 0.10194 0.6945 0.50242 0.0
H746 H 0.08354 0.66989 0.47771 0.0
H747 H 0.06974 0.7057 0.48057 0.0
H748 H 1.00602 0.62674 0.42327 0.0
H749 H 0.97922 0.71424 0.42983 0.0
H750 H 0.01629 0.61647 0.49978 0.0
H751 H 0.05451 0.62619 0.48606 0.0
H752 H 0.03235 0.60422 0.46175 0.0
H753 H 0.98213 0.72501 0.50756 0.0
H754 H 0.99066 0.74352 0.47227 0.0
H755 H 0.02165 0.7319 0.49546 0.0
C756 C 0.61426 0.0203 0.58875 0.0
C757 C 0.61312 0.04908 0.58293 0.0
C758 C 0.61642 1.0 0.56435 0.0
C759 C 0.6178 1.00856 0.53313 0.0
C760 C 0.61459 0.03754 0.52706 0.0
C761 C 0.61215 0.05752 0.5521 0.0
C762 C 0.61935 0.96942 0.57203 0.0
C763 C 0.61577 0.04753 0.4941 0.0
C764 C 0.66924 0.96199 0.47597 0.0
C765 C 0.64752 0.94702 0.46001 0.0
C766 C 0.65972 0.9821 0.49946 0.0
C767 C 0.62751 0.98758 0.50742 0.0
C768 C 0.60531 0.97222 0.4918 0.0
C769 C 0.61559 0.95203 0.46824 0.0
C770 C 0.6843 0.99769 0.51561 0.0
C771 C 0.57078 0.97752 0.49954 0.0
H772 H 0.61438 0.01353 0.61256 0.0
H773 H 0.61106 0.07969 0.54744 0.0
H774 H 0.60368 0.95681 0.5583 0.0
H775 H 0.6436 0.9614 0.56572 0.0
H776 H 0.61371 0.96602 0.59721 0.0
H777 H 0.60858 0.07005 0.49323 0.0
H778 H 0.63993 0.04456 0.48327 0.0
H779 H 0.60047 0.03503 0.47983 0.0
H780 H 0.69396 0.95826 0.46974 0.0
H781 H 0.59868 0.9409 0.4556 0.0
H782 H 0.68216 0.99382 0.54095 0.0
H783 H 0.68079 0.02059 0.51289 0.0
H784 H 0.70836 0.99131 0.50626 0.0
H785 H 0.565 0.97562 0.52492 0.0
H786 H 0.55658 0.96274 0.48664 0.0
H787 H 0.56404 0.99924 0.4936 0.0
C788 C 0.47855 0.06842 0.36624 0.0
C789 C 0.48576 0.09589 0.37463 0.0
C790 C 0.50234 0.04851 0.35614 0.0
C791 C 0.53386 0.05642 0.35431 0.0
C792 C 0.54087 0.08471 0.36025 0.0
C793 C 0.51674 0.10407 0.3704 0.0
C794 C 0.49393 0.01856 0.34982 0.0
C795 C 0.57409 0.0941 0.35838 0.0
C796 C 0.59417 1.0021 0.37565 0.0
C797 C 0.60842 0.99333 0.34647 0.0
C798 C 0.56994 0.02255 0.37837 0.0
C799 C 0.5596 0.03464 0.35114 0.0
C800 C 0.57428 0.02633 0.32156 0.0
C801 C 0.59872 1.00578 0.31957 0.0
C802 C 0.55535 0.03107 0.41046 0.0
C803 C 0.56383 0.03879 0.29209 0.0
H804 H 0.45463 0.06202 0.36938 0.0
H805 H 0.52239 0.12542 0.37639 0.0
H806 H 0.50686 1.00986 0.3282 0.0
H807 H 0.5007 1.00553 0.36932 0.0
H808 H 0.46852 0.01668 0.34755 0.0
H809 H 0.57526 0.11732 0.35919 0.0
H810 H 0.58615 0.08581 0.3783 0.0
H811 H 0.58708 0.08571 0.33667 0.0
H812 H 0.60203 0.99281 0.39649 0.0
H813 H 0.6096 0.99881 0.29701 0.0
H814 H 0.52999 0.0273 0.4118 0.0
H815 H 0.55799 0.05383 0.41504 0.0
H816 H 0.56601 0.0194 0.4292 0.0
H817 H 0.53912 0.03395 0.28938 0.0
H818 H 0.57821 0.03065 0.27101 0.0
H819 H 0.56508 0.06195 0.2935 0.0
C820 C 0.07398 0.54397 0.60313 0.0
C821 C 0.07931 0.54787 0.63473 0.0
C822 C 0.05233 0.52447 0.59364 0.0
C823 C 0.03576 0.50863 0.61631 0.0
C824 C 0.04272 0.51127 0.64789 0.0
C825 C 0.06432 0.53078 0.65663 0.0
C826 C 0.04597 0.52193 0.55968 0.0
C827 C 0.02599 0.49468 0.67286 0.0
C828 C 0.95319 0.48491 0.60834 0.0
C829 C 0.95793 0.45579 0.60405 0.0
C830 C 0.97848 0.50256 0.61049 0.0
C831 C 1.0094 0.4909 0.60802 0.0
C832 C 0.0144 0.46173 0.60169 0.0
C833 C 0.98865 0.44452 0.60002 0.0
C834 C 0.97198 0.53351 0.61728 0.0
C835 C 0.04688 0.4484 0.59835 0.0
H836 H 0.08529 0.55724 0.5861 0.0
H837 H 0.0685 0.53355 0.68107 0.0
H838 H 0.04569 0.49955 0.55194 0.0
H839 H 0.02262 0.53153 0.55637 0.0
H840 H 0.0636 0.53257 0.54453 0.0
H841 H 0.03542 0.49794 0.69601 0.0
H842 H 1.00081 0.50097 0.67496 0.0
H843 H 0.02791 0.47197 0.66646 0.0
H844 H 0.9296 0.49379 0.61158 0.0
H845 H 0.99257 0.42212 0.59604 0.0
H846 H 0.98647 0.546 0.6009 0.0
H847 H 0.97833 0.53901 0.6412 0.0
H848 H 0.94704 0.53971 0.61553 0.0
H849 H 0.06329 0.46179 0.58507 0.0
H850 H 0.04732 0.42741 0.58645 0.0
H851 H 0.05547 0.44588 0.62183 0.0
C852 C 0.51679 0.03586 0.68456 0.0
C853 C 0.52892 0.05085 0.70913 0.0
C854 C 0.48952 0.02089 0.68934 0.0
C855 C 0.47364 0.0213 0.71939 0.0
C856 C 0.48572 0.0365 0.74433 0.0
C857 C 0.51347 0.05087 0.73896 0.0
C858 C 0.47778 1.00453 0.66221 0.0
C859 C 0.46909 0.0379 0.77649 0.0
C860 C 0.38954 1.00052 0.71676 0.0
C861 C 0.39201 0.97184 0.72275 0.0
C862 C 0.41553 0.01745 0.71771 0.0
C863 C 0.44472 1.00533 0.72444 0.0
C864 C 0.44682 0.9769 0.73261 0.0
C865 C 0.42037 0.96063 0.73202 0.0
C866 C 0.41219 0.04784 0.70945 0.0
C867 C 0.47751 0.96306 0.73971 0.0
H868 H 0.52896 0.0356 0.66159 0.0
H869 H 0.5227 0.06274 0.75785 0.0
H870 H 0.47593 0.98213 0.66795 0.0
H871 H 0.45409 0.01254 0.65758 0.0
H872 H 0.49327 1.00587 0.64052 0.0
H873 H 0.48145 0.05073 0.79332 0.0
H874 H 0.44512 0.04704 0.77538 0.0
H875 H 0.46682 0.0165 0.78546 0.0
H876 H 0.36785 1.00945 0.70951 0.0
H877 H 0.42228 0.93865 0.73736 0.0
H878 H 0.4232 0.05058 0.68566 0.0
H879 H 0.4243 0.06137 0.72577 0.0
H880 H 0.38734 0.05517 0.7099 0.0
H881 H 0.49339 0.96146 0.71815 0.0
H882 H 0.47461 0.94166 0.74864 0.0
H883 H 0.48904 0.97585 0.75715 0.0
C884 C 0.95784 0.55773 0.41043 0.0
C885 C 0.95592 0.5572 0.37799 0.0
C886 C 0.98055 0.54102 0.42408 0.0
C887 C 1.00176 0.52345 0.40482 0.0
C888 C 0.99884 0.52193 0.37225 0.0
C889 C 0.976 0.53871 0.35933 0.0
C890 C 0.98277 0.54314 0.4589 0.0
C891 C 0.02084 0.50354 0.35074 0.0
C892 C 0.08378 0.50335 0.42613 0.0
C893 C 0.08131 0.4747 0.4316 0.0
C894 C 0.05763 0.51991 0.41914 0.0
C895 C 0.02817 0.50763 0.41796 0.0
C896 C 0.02519 0.47916 0.42556 0.0
C897 C 0.0518 0.46301 0.43203 0.0
C898 C 0.06206 0.55007 0.41088 0.0
C899 C 0.9942 0.46534 0.42531 0.0
H900 H 0.94266 0.57217 0.425 0.0
H901 H 0.97465 0.53809 0.33426 0.0
H902 H 0.98399 0.52193 0.46865 0.0
H903 H 1.0045 0.55361 0.46411 0.0
H904 H 0.96264 0.5553 0.47094 0.0
H905 H 0.01475 0.50397 0.32611 0.0
H906 H 0.04504 0.51063 0.35189 0.0
H907 H 0.0206 0.48154 0.35823 0.0
H908 H 0.1065 0.51246 0.42559 0.0
H909 H 0.04967 0.44099 0.4368 0.0
H910 H 0.04308 0.56391 0.42236 0.0
H911 H 0.06116 0.552 0.38533 0.0
H912 H 0.08481 0.55768 0.41765 0.0
H913 H 0.97559 0.47873 0.43817 0.0
H914 H 0.99485 0.4444 0.43584 0.0
H915 H 0.98773 0.46269 0.40093 0.0
C916 C 0.31187 0.44339 0.04271 0.0
C917 C 0.34224 0.43231 0.04482 0.0
C918 C 0.30668 0.47035 0.03135 0.0
C919 C 0.3325 0.48634 0.0215 0.0
C920 C 0.36317 0.47476 0.02262 0.0
C921 C 0.36763 0.44801 0.03445 0.0
C922 C 0.27368 0.48208 0.03082 0.0
C923 C 0.39138 0.49082 1.01182 0.0
C924 C 0.32606 0.54675 0.9669 0.0
C925 C 0.32925 0.57006 0.98701 0.0
C926 C 0.32559 0.51945 0.978 0.0
C927 C 0.32787 0.51527 1.01016 0.0
C928 C 0.32887 0.53881 0.03094 0.0
C929 C 0.32967 0.56593 0.01911 0.0
C930 C 0.32453 0.495 0.95501 0.0
C931 C 0.33088 0.53527 0.06547 0.0
H932 H 0.29224 0.43143 0.05114 0.0
H933 H 0.39109 0.43934 0.0359 0.0
H934 H 0.27026 0.50078 0.04685 0.0
H935 H 0.26929 0.48903 1.00713 0.0
H936 H 0.25614 0.46655 0.03795 0.0
H937 H 0.41356 0.47843 1.01324 0.0
H938 H 0.38962 0.49701 0.98735 0.0
H939 H 0.3923 0.51037 0.02631 0.0
H940 H 0.32494 0.54978 0.94217 0.0
H941 H 0.33219 0.58371 0.03485 0.0
H942 H 0.30632 0.48044 0.96301 0.0
H943 H 0.34723 0.48305 0.95344 0.0
H944 H 0.31979 0.50185 0.93132 0.0
H945 H 0.31302 0.52079 0.07451 0.0
H946 H 0.32764 0.55556 0.07888 0.0
H947 H 0.35407 0.52583 0.06973 0.0
C948 C 0.49411 0.64433 0.94991 0.0
C949 C 0.4687 0.62762 0.94463 0.0
C950 C 0.51126 0.64094 0.9762 0.0
C951 C 0.50294 0.62026 0.99787 0.0
C952 C 0.47892 0.60187 0.99144 0.0
C953 C 0.46204 0.60578 0.96494 0.0
C954 C 0.53713 0.66067 0.98174 0.0
C955 C 0.46977 0.57911 1.01347 0.0
C956 C 0.56146 0.60839 0.0591 0.0
C957 C 0.54922 0.62666 0.08357 0.0
C958 C 0.54597 0.60501 0.03159 0.0
C959 C 0.5174 0.61999 0.02848 0.0
C960 C 0.50398 0.63702 0.0539 0.0
C961 C 0.51998 0.64009 0.08108 0.0
C962 C 0.56075 0.5862 1.00544 0.0
C963 C 0.47364 0.6535 0.05167 0.0
H964 H 0.49971 0.66108 0.93426 0.0
H965 H 0.44255 0.59264 0.96113 0.0
H966 H 0.53053 0.67418 1.00282 0.0
H967 H 0.55886 0.64865 0.98605 0.0
H968 H 0.54211 0.67435 0.96171 0.0
H969 H 0.45388 0.56418 1.00311 0.0
H970 H 0.49078 0.56728 0.02019 0.0
H971 H 0.45775 0.58872 0.03512 0.0
H972 H 0.58398 0.59781 0.0607 0.0
H973 H 0.5102 0.65417 0.09982 0.0
H974 H 0.56296 0.59766 0.98343 0.0
H975 H 0.54555 0.56834 1.00157 0.0
H976 H 0.58422 0.57788 1.01051 0.0
H977 H 0.47688 0.66962 0.03381 0.0
H978 H 0.46517 0.66418 0.07418 0.0
H979 H 0.45536 0.63951 0.04416 0.0
C980 C 0.66118 0.51621 0.8841 0.0
C981 C 0.63876 0.49623 0.89101 0.0
C982 C 0.66442 0.53941 0.90438 0.0
C983 C 0.64475 0.54277 0.93221 0.0
C984 C 0.62183 0.52282 0.93905 0.0
C985 C 0.61902 0.49998 0.9183 0.0
C986 C 0.68947 0.55991 0.89645 0.0
C987 C 0.59972 0.52562 0.96793 0.0
C988 C 0.67167 0.5842 1.00148 0.0
C989 C 0.65533 0.60993 0.99968 0.0
C990 C 0.66899 0.56245 0.97924 0.0
C991 C 0.64908 0.56638 0.95482 0.0
C992 C 0.63271 0.59246 0.95269 0.0
C993 C 0.63626 0.61404 0.97502 0.0
C994 C 0.68668 0.53494 0.98248 0.0
C995 C 0.61072 0.59722 0.92745 0.0
H996 H 0.6768 0.5133 0.86325 0.0
H997 H 0.60121 0.48498 0.92344 0.0
H998 H 0.67907 0.58149 0.89627 0.0
H999 H 0.70656 0.55977 0.91457 0.0
H1000 H 0.70215 0.55488 0.87341 0.0
H1001 H 0.58926 0.50535 0.97381 0.0
H1002 H 0.61143 0.53357 0.98838 0.0
H1003 H 0.58051 0.5407 0.96347 0.0
H1004 H 0.68634 0.58105 0.02059 0.0
H1005 H 0.6231 0.63372 0.97398 0.0
H1006 H 0.70076 0.52904 0.96045 0.0
H1007 H 0.66995 0.51813 0.987 0.0
H1008 H 0.70246 0.53577 1.00178 0.0
H1009 H 0.62352 0.59422 0.90419 0.0
H1010 H 0.59942 0.61857 0.92926 0.0
H1011 H 0.59225 0.58158 0.92888 0.0
C1012 C 0.48074 0.39178 0.06833 0.0
C1013 C 0.4755 0.36477 0.07897 0.0
C1014 C 0.50453 0.39633 0.04487 0.0
C1015 C 0.52371 0.37339 0.03202 0.0
C1016 C 0.51964 0.34643 0.04413 0.0
C1017 C 0.49556 0.34245 0.06725 0.0
C1018 C 0.50798 0.4254 0.03262 0.0
C1019 C 0.53969 0.32141 0.03154 0.0
C1020 C 0.5583 0.37443 0.94788 0.0
C1021 C 0.58954 0.38057 0.95154 0.0
C1022 C 0.53664 0.37261 0.9738 0.0
C1023 C 0.54631 0.37689 1.00434 0.0
C1024 C 0.57777 0.38315 1.00823 0.0
C1025 C 0.59895 0.38496 0.98185 0.0
C1026 C 0.50335 0.36592 0.96849 0.0
C1027 C 0.58912 0.38769 0.04031 0.0
H1028 H 0.46515 0.40908 0.07701 0.0
H1029 H 0.49175 0.32152 0.07543 0.0
H1030 H 0.53273 0.43129 0.03188 0.0
H1031 H 0.50076 0.42574 1.0084 0.0
H1032 H 0.49355 0.44142 0.04703 0.0
H1033 H 0.53553 0.30247 0.04536 0.0
H1034 H 0.53465 0.31654 1.00707 0.0
H1035 H 0.56476 0.32614 0.03143 0.0
H1036 H 0.55063 0.37116 0.92465 0.0
H1037 H 0.62295 0.38983 0.98503 0.0
H1038 H 0.48713 0.38243 0.97978 0.0
H1039 H 0.49747 0.34582 0.97933 0.0
H1040 H 0.49923 0.36418 0.94332 0.0
H1041 H 0.57491 0.40473 0.05323 0.0
H1042 H 0.61404 0.39318 0.03943 0.0
H1043 H 0.58623 0.36841 0.05378 0.0
loop_
_geom_bond_atom_site_label_1
_geom_bond_atom_site_label_2
_geom_bond_distance
_geom_bond_site_symmetry_2
_ccdc_geom_bond_type
Cu0 N1 1.999 . S
Cu0 O6 1.974 . S
Cu0 N11 1.985 . S
Cu0 O20 1.959 . S
N1 Cu0 1.999 . S
N1 C3 1.263 . S
N1 C5 1.389 . S
N2 C3 1.358 . S
N2 C4 1.400 . S
C3 N1 1.263 . S
C3 N2 1.358 . S
C3 H9 0.930 . S
C4 N2 1.400 . S
C4 C5 1.351 . S
C4 H21 0.930 . S
C5 N1 1.389 . S
C5 C4 1.351 . S
C5 H10 0.930 . S
O6 Cu0 1.974 . S
O6 C16 1.282 . S
C7 O8 1.261 . S
C7 O20 1.251 . S
O8 C7 1.261 . S
H9 C3 0.930 . S
H10 C5 0.930 . S
N11 Cu0 1.985 . S
N11 C13 1.335 . S
N11 C14 1.390 . S
N12 C13 1.345 . S
N12 C15 1.336 . S
C13 N11 1.335 . S
C13 N12 1.345 . S
C13 H18 0.930 . S
C14 N11 1.390 . S
C14 C15 1.346 . S
C14 H19 0.930 . S
C15 N12 1.336 . S
C15 C14 1.346 . S
C15 H22 0.929 . S
C16 O6 1.282 . S
C16 O17 1.216 . S
O17 C16 1.216 . S
H18 C13 0.930 . S
H19 C14 0.930 . S
O20 Cu0 1.959 . S
O20 C7 1.251 . S
H21 C4 0.930 . S
H22 C15 0.929 . S
Cu23 N24 1.999 . S
Cu23 O29 1.974 . S
Cu23 N34 1.985 . S
Cu23 O43 1.959 . S
N24 Cu23 1.999 . S
N24 C26 1.263 . S
N24 C28 1.389 . S
N25 C26 1.358 . S
N25 C27 1.400 . S
C26 N24 1.263 . S
C26 N25 1.358 . S
C26 H32 0.930 . S
C27 N25 1.400 . S
C27 C28 1.351 . S
C27 H44 0.930 . S
C28 N24 1.389 . S
C28 C27 1.351 . S
C28 H33 0.930 . S
O29 Cu23 1.974 . S
O29 C39 1.282 . S
C30 O31 1.261 . S
C30 O43 1.251 . S
O31 C30 1.261 . S
H32 C26 0.930 . S
H33 C28 0.930 . S
N34 Cu23 1.985 . S
N34 C36 1.335 . S
N34 C37 1.390 . S
N35 C36 1.345 . S
N35 C38 1.336 . S
C36 N34 1.335 . S
C36 N35 1.345 . S
C36 H41 0.930 . S
C37 N34 1.390 . S
C37 C38 1.346 . S
C37 H42 0.930 . S
C38 N35 1.336 . S
C38 C37 1.346 . S
C38 H45 0.929 . S
C39 O29 1.282 . S
C39 O40 1.216 . S
O40 C39 1.216 . S
H41 C36 0.930 . S
H42 C37 0.930 . S
O43 Cu23 1.959 . S
O43 C30 1.251 . S
H44 C27 0.930 . S
H45 C38 0.929 . S
Cu46 N47 1.999 . S
Cu46 O52 1.974 . S
Cu46 N57 1.985 . S
Cu46 O66 1.959 . S
N47 Cu46 1.999 . S
N47 C49 1.263 . S
N47 C51 1.389 . S
N48 C49 1.358 . S
N48 C50 1.400 . S
C49 N47 1.263 . S
C49 N48 1.358 . S
C49 H55 0.930 . S
C50 N48 1.400 . S
C50 C51 1.351 . S
C50 H67 0.930 . S
C51 N47 1.389 . S
C51 C50 1.351 . S
C51 H56 0.930 . S
O52 Cu46 1.974 . S
O52 C62 1.282 . S
C53 O54 1.261 . S
C53 O66 1.251 . S
O54 C53 1.261 . S
H55 C49 0.930 . S
H56 C51 0.930 . S
N57 Cu46 1.985 . S
N57 C59 1.335 . S
N57 C60 1.390 . S
N58 C59 1.345 . S
N58 C61 1.336 . S
C59 N57 1.335 . S
C59 N58 1.345 . S
C59 H64 0.930 . S
C60 N57 1.390 . S
C60 C61 1.346 . S
C60 H65 0.930 . S
C61 N58 1.336 . S
C61 C60 1.346 . S
C61 H68 0.929 . S
C62 O52 1.282 . S
C62 O63 1.216 . S
O63 C62 1.216 . S
H64 C59 0.930 . S
H65 C60 0.930 . S
O66 Cu46 1.959 . S
O66 C53 1.251 . S
H67 C50 0.930 . S
H68 C61 0.929 . S
Cu69 N70 1.999 . S
Cu69 O75 1.974 . S
Cu69 N80 1.985 . S
Cu69 O89 1.959 . S
N70 Cu69 1.999 . S
N70 C72 1.263 . S
N70 C74 1.389 . S
N71 C72 1.358 . S
N71 C73 1.400 . S
C72 N70 1.263 . S
C72 N71 1.358 . S
C72 H78 0.930 . S
C73 N71 1.400 . S
C73 C74 1.351 . S
C73 H90 0.930 . S
C74 N70 1.389 . S
C74 C73 1.351 . S
C74 H79 0.930 . S
O75 Cu69 1.974 . S
O75 C85 1.282 . S
C76 O77 1.261 . S
C76 O89 1.251 . S
O77 C76 1.261 . S
H78 C72 0.930 . S
H79 C74 0.930 . S
N80 Cu69 1.985 . S
N80 C82 1.335 . S
N80 C83 1.390 . S
N81 C82 1.345 . S
N81 C84 1.336 . S
C82 N80 1.335 . S
C82 N81 1.345 . S
C82 H87 0.930 . S
C83 N80 1.390 . S
C83 C84 1.346 . S
C83 H88 0.930 . S
C84 N81 1.336 . S
C84 C83 1.346 . S
C84 H91 0.929 . S
C85 O75 1.282 . S
C85 O86 1.216 . S
O86 C85 1.216 . S
H87 C82 0.930 . S
H88 C83 0.930 . S
O89 Cu69 1.959 . S
O89 C76 1.251 . S
H90 C73 0.930 . S
H91 C84 0.929 . S
Cu92 N93 1.999 . S
Cu92 O98 1.974 . S
Cu92 N103 1.985 . S
Cu92 O112 1.959 . S
N93 Cu92 1.999 . S
N93 C95 1.263 . S
N93 C97 1.389 . S
N94 C95 1.358 . S
N94 C96 1.400 . S
C95 N93 1.263 . S
C95 N94 1.358 . S
C95 H101 0.930 . S
C96 N94 1.400 . S
C96 C97 1.351 . S
C96 H113 0.930 . S
C97 N93 1.389 . S
C97 C96 1.351 . S
C97 H102 0.930 . S
O98 Cu92 1.974 . S
O98 C108 1.282 . S
C99 O100 1.261 . S
C99 O112 1.251 . S
O100 C99 1.261 . S
H101 C95 0.930 . S
H102 C97 0.930 . S
N103 Cu92 1.985 . S
N103 C105 1.335 . S
N103 C106 1.390 . S
N104 C105 1.345 . S
N104 C107 1.336 . S
C105 N103 1.335 . S
C105 N104 1.345 . S
C105 H110 0.930 . S
C106 N103 1.390 . S
C106 C107 1.346 . S
C106 H111 0.930 . S
C107 N104 1.336 . S
C107 C106 1.346 . S
C107 H114 0.929 . S
C108 O98 1.282 . S
C108 O109 1.216 . S
O109 C108 1.216 . S
H110 C105 0.930 . S
H111 C106 0.930 . S
O112 Cu92 1.959 . S
O112 C99 1.251 . S
H113 C96 0.930 . S
H114 C107 0.929 . S
Cu115 N116 1.999 . S
Cu115 O121 1.974 . S
Cu115 N126 1.985 . S
Cu115 O135 1.959 . S
N116 Cu115 1.999 . S
N116 C118 1.263 . S
N116 C120 1.389 . S
N117 C118 1.358 . S
N117 C119 1.400 . S
C118 N116 1.263 . S
C118 N117 1.358 . S
C118 H124 0.930 . S
C119 N117 1.400 . S
C119 C120 1.351 . S
C119 H136 0.930 . S
C120 N116 1.389 . S
C120 C119 1.351 . S
C120 H125 0.930 . S
O121 Cu115 1.974 . S
O121 C131 1.282 . S
C122 O123 1.261 . S
C122 O135 1.251 . S
O123 C122 1.261 . S
H124 C118 0.930 . S
H125 C120 0.930 . S
N126 Cu115 1.985 . S
N126 C128 1.335 . S
N126 C129 1.390 . S
N127 C128 1.345 . S
N127 C130 1.336 . S
C128 N126 1.335 . S
C128 N127 1.345 . S
C128 H133 0.930 . S
C129 N126 1.390 . S
C129 C130 1.346 . S
C129 H134 0.930 . S
C130 N127 1.336 . S
C130 C129 1.346 . S
C130 H137 0.929 . S
C131 O121 1.282 . S
C131 O132 1.216 . S
O132 C131 1.216 . S
H133 C128 0.930 . S
H134 C129 0.930 . S
O135 Cu115 1.959 . S
O135 C122 1.251 . S
H136 C119 0.930 . S
H137 C130 0.929 . S
Cu138 N139 1.999 . S
Cu138 O144 1.974 . S
Cu138 N149 1.985 . S
Cu138 O158 1.959 . S
N139 Cu138 1.999 . S
N139 C141 1.263 . S
N139 C143 1.389 . S
N140 C141 1.358 . S
N140 C142 1.400 . S
C141 N139 1.263 . S
C141 N140 1.358 . S
C141 H147 0.930 . S
C142 N140 1.400 . S
C142 C143 1.351 . S
C142 H159 0.930 . S
C143 N139 1.389 . S
C143 C142 1.351 . S
C143 H148 0.930 . S
O144 Cu138 1.974 . S
O144 C154 1.282 . S
C145 O146 1.261 . S
C145 O158 1.251 . S
O146 C145 1.261 . S
H147 C141 0.930 . S
H148 C143 0.930 . S
N149 Cu138 1.985 . S
N149 C151 1.335 . S
N149 C152 1.390 . S
N150 C151 1.345 . S
N150 C153 1.336 . S
C151 N149 1.335 . S
C151 N150 1.345 . S
C151 H156 0.930 . S
C152 N149 1.390 . S
C152 C153 1.346 . S
C152 H157 0.930 . S
C153 N150 1.336 . S
C153 C152 1.346 . S
C153 H160 0.929 . S
C154 O144 1.282 . S
C154 O155 1.216 . S
O155 C154 1.216 . S
H156 C151 0.930 . S
H157 C152 0.930 . S
O158 Cu138 1.959 . S
O158 C145 1.251 . S
H159 C142 0.930 . S
H160 C153 0.929 . S
Cu161 N162 1.999 . S
Cu161 O167 1.974 . S
Cu161 N172 1.985 . S
Cu161 O181 1.959 . S
N162 Cu161 1.999 . S
N162 C164 1.263 . S
N162 C166 1.389 . S
N163 C164 1.358 . S
N163 C165 1.400 . S
C164 N162 1.263 . S
C164 N163 1.358 . S
C164 H170 0.930 . S
C165 N163 1.400 . S
C165 C166 1.351 . S
C165 H182 0.930 . S
C166 N162 1.389 . S
C166 C165 1.351 . S
C166 H171 0.930 . S
O167 Cu161 1.974 . S
O167 C177 1.282 . S
C168 O169 1.261 . S
C168 O181 1.251 . S
O169 C168 1.261 . S
H170 C164 0.930 . S
H171 C166 0.930 . S
N172 Cu161 1.985 . S
N172 C174 1.335 . S
N172 C175 1.390 . S
N173 C174 1.345 . S
N173 C176 1.336 . S
C174 N172 1.335 . S
C174 N173 1.345 . S
C174 H179 0.930 . S
C175 N172 1.390 . S
C175 C176 1.346 . S
C175 H180 0.930 . S
C176 N173 1.336 . S
C176 C175 1.346 . S
C176 H183 0.929 . S
C177 O167 1.282 . S
C177 O178 1.216 . S
O178 C177 1.216 . S
H179 C174 0.930 . S
H180 C175 0.930 . S
O181 Cu161 1.959 . S
O181 C168 1.251 . S
H182 C165 0.930 . S
H183 C176 0.929 . S
Cu184 N185 1.999 . S
Cu184 O190 1.974 . S
Cu184 N195 1.985 . S
Cu184 O204 1.959 . S
N185 Cu184 1.999 . S
N185 C187 1.263 . S
N185 C189 1.389 . S
N186 C187 1.358 . S
N186 C188 1.400 . S
C187 N185 1.263 . S
C187 N186 1.358 . S
C187 H193 0.930 . S
C188 N186 1.400 . S
C188 C189 1.351 . S
C188 H205 0.930 . S
C189 N185 1.389 . S
C189 C188 1.351 . S
C189 H194 0.930 . S
O190 Cu184 1.974 . S
O190 C200 1.282 . S
C191 O192 1.261 . S
C191 O204 1.251 . S
O192 C191 1.261 . S
H193 C187 0.930 . S
H194 C189 0.930 . S
N195 Cu184 1.985 . S
N195 C197 1.335 . S
N195 C198 1.390 . S
N196 C197 1.345 . S
N196 C199 1.336 . S
C197 N195 1.335 . S
C197 N196 1.345 . S
C197 H202 0.930 . S
C198 N195 1.390 . S
C198 C199 1.346 . S
C198 H203 0.930 . S
C199 N196 1.336 . S
C199 C198 1.346 . S
C199 H206 0.929 . S
C200 O190 1.282 . S
C200 O201 1.216 . S
O201 C200 1.216 . S
H202 C197 0.930 . S
H203 C198 0.930 . S
O204 Cu184 1.959 . S
O204 C191 1.251 . S
H205 C188 0.930 . S
H206 C199 0.929 . S
Cu207 N208 1.999 . S
Cu207 O213 1.974 . S
Cu207 N218 1.985 . S
Cu207 O227 1.959 . S
N208 Cu207 1.999 . S
N208 C210 1.263 . S
N208 C212 1.389 . S
N209 C210 1.358 . S
N209 C211 1.400 . S
C210 N208 1.263 . S
C210 N209 1.358 . S
C210 H216 0.930 . S
C211 N209 1.400 . S
C211 C212 1.351 . S
C211 H228 0.930 . S
C212 N208 1.389 . S
C212 C211 1.351 . S
C212 H217 0.930 . S
O213 Cu207 1.974 . S
O213 C223 1.282 . S
C214 O215 1.261 . S
C214 O227 1.251 . S
O215 C214 1.261 . S
H216 C210 0.930 . S
H217 C212 0.930 . S
N218 Cu207 1.985 . S
N218 C220 1.335 . S
N218 C221 1.390 . S
N219 C220 1.345 . S
N219 C222 1.336 . S
C220 N218 1.335 . S
C220 N219 1.345 . S
C220 H225 0.930 . S
C221 N218 1.390 . S
C221 C222 1.346 . S
C221 H226 0.930 . S
C222 N219 1.336 . S
C222 C221 1.346 . S
C222 H229 0.929 . S
C223 O213 1.282 . S
C223 O224 1.216 . S
O224 C223 1.216 . S
H225 C220 0.930 . S
H226 C221 0.930 . S
O227 Cu207 1.959 . S
O227 C214 1.251 . S
H228 C211 0.930 . S
H229 C222 0.929 . S
Cu230 N231 1.999 . S
Cu230 O236 1.974 . S
Cu230 N241 1.985 . S
Cu230 O250 1.959 . S
N231 Cu230 1.999 . S
N231 C233 1.263 . S
N231 C235 1.389 . S
N232 C233 1.358 . S
N232 C234 1.400 . S
C233 N231 1.263 . S
C233 N232 1.358 . S
C233 H239 0.930 . S
C234 N232 1.400 . S
C234 C235 1.351 . S
C234 H251 0.930 . S
C235 N231 1.389 . S
C235 C234 1.351 . S
C235 H240 0.930 . S
O236 Cu230 1.974 . S
O236 C246 1.282 . S
C237 O238 1.261 . S
C237 O250 1.251 . S
O238 C237 1.261 . S
H239 C233 0.930 . S
H240 C235 0.930 . S
N241 Cu230 1.985 . S
N241 C243 1.335 . S
N241 C244 1.390 . S
N242 C243 1.345 . S
N242 C245 1.336 . S
C243 N241 1.335 . S
C243 N242 1.345 . S
C243 H248 0.930 . S
C244 N241 1.390 . S
C244 C245 1.346 . S
C244 H249 0.930 . S
C245 N242 1.336 . S
C245 C244 1.346 . S
C245 H252 0.929 . S
C246 O236 1.282 . S
C246 O247 1.216 . S
O247 C246 1.216 . S
H248 C243 0.930 . S
H249 C244 0.930 . S
O250 Cu230 1.959 . S
O250 C237 1.251 . S
H251 C234 0.930 . S
H252 C245 0.929 . S
Cu253 N254 1.999 . S
Cu253 O259 1.974 . S
Cu253 N264 1.985 . S
Cu253 O273 1.959 . S
N254 Cu253 1.999 . S
N254 C256 1.263 . S
N254 C258 1.389 . S
N255 C256 1.358 . S
N255 C257 1.400 . S
C256 N254 1.263 . S
C256 N255 1.358 . S
C256 H262 0.930 . S
C257 N255 1.400 . S
C257 C258 1.351 . S
C257 H274 0.930 . S
C258 N254 1.389 . S
C258 C257 1.351 . S
C258 H263 0.930 . S
O259 Cu253 1.974 . S
O259 C269 1.282 . S
C260 O261 1.261 . S
C260 O273 1.251 . S
O261 C260 1.261 . S
H262 C256 0.930 . S
H263 C258 0.930 . S
N264 Cu253 1.985 . S
N264 C266 1.335 . S
N264 C267 1.390 . S
N265 C266 1.345 . S
N265 C268 1.336 . S
C266 N264 1.335 . S
C266 N265 1.345 . S
C266 H271 0.930 . S
C267 N264 1.390 . S
C267 C268 1.346 . S
C267 H272 0.930 . S
C268 N265 1.336 . S
C268 C267 1.346 . S
C268 H275 0.929 . S
C269 O259 1.282 . S
C269 O270 1.216 . S
O270 C269 1.216 . S
H271 C266 0.930 . S
H272 C267 0.930 . S
O273 Cu253 1.959 . S
O273 C260 1.251 . S
H274 C257 0.930 . S
H275 C268 0.929 . S
C276 C277 1.391 . S
C276 C278 1.394 . S
C276 H292 0.931 . S
C277 C276 1.391 . S
C277 C281 1.376 . S
C278 C276 1.394 . S
C278 C279 1.369 . S
C278 C282 1.531 . S
C279 C278 1.369 . S
C279 C280 1.410 . S
C279 C287 1.503 . S
C280 C279 1.410 . S
C280 C281 1.392 . S
C280 C283 1.511 . S
C281 C277 1.376 . S
C281 C280 1.392 . S
C281 H293 0.929 . S
C282 C278 1.531 . S
C282 H294 0.960 . S
C282 H295 0.962 . S
C282 H296 0.960 . S
C283 C280 1.511 . S
C283 H297 0.961 . S
C283 H298 0.961 . S
C283 H299 0.961 . S
C284 C285 1.370 . S
C284 C286 1.363 . S
C284 H300 0.931 . S
C285 C284 1.370 . S
C285 C289 1.408 . S
C286 C284 1.363 . S
C286 C287 1.370 . S
C286 C290 1.524 . S
C287 C279 1.503 . S
C287 C286 1.370 . S
C287 C288 1.403 . S
C288 C287 1.403 . S
C288 C289 1.404 . S
C288 C291 1.539 . S
C289 C285 1.408 . S
C289 C288 1.404 . S
C289 H301 0.930 . S
C290 C286 1.524 . S
C290 H302 0.956 . S
C290 H303 0.961 . S
C290 H304 0.961 . S
C291 C288 1.539 . S
C291 H305 0.958 . S
C291 H306 0.961 . S
C291 H307 0.960 . S
H292 C276 0.931 . S
H293 C281 0.929 . S
H294 C282 0.960 . S
H295 C282 0.962 . S
H296 C282 0.960 . S
H297 C283 0.961 . S
H298 C283 0.961 . S
H299 C283 0.961 . S
H300 C284 0.931 . S
H301 C289 0.930 . S
H302 C290 0.956 . S
H303 C290 0.961 . S
H304 C290 0.961 . S
H305 C291 0.958 . S
H306 C291 0.961 . S
H307 C291 0.960 . S
C308 C309 1.391 . S
C308 C310 1.394 . S
C308 H324 0.931 . S
C309 C308 1.391 . S
C309 C313 1.376 . S
C310 C308 1.394 . S
C310 C311 1.369 . S
C310 C314 1.531 . S
C311 C310 1.369 . S
C311 C312 1.410 . S
C311 C319 1.503 . S
C312 C311 1.410 . S
C312 C313 1.392 . S
C312 C315 1.511 . S
C313 C309 1.376 . S
C313 C312 1.392 . S
C313 H325 0.929 . S
C314 C310 1.531 . S
C314 H326 0.960 . S
C314 H327 0.962 . S
C314 H328 0.960 . S
C315 C312 1.511 . S
C315 H329 0.961 . S
C315 H330 0.961 . S
C315 H331 0.961 . S
C316 C317 1.370 . S
C316 C318 1.363 . S
C316 H332 0.931 . S
C317 C316 1.370 . S
C317 C321 1.408 . S
C318 C316 1.363 . S
C318 C319 1.370 . S
C318 C322 1.524 . S
C319 C311 1.503 . S
C319 C318 1.370 . S
C319 C320 1.403 . S
C320 C319 1.403 . S
C320 C321 1.404 . S
C320 C323 1.539 . S
C321 C317 1.408 . S
C321 C320 1.404 . S
C321 H333 0.930 . S
C322 C318 1.524 . S
C322 H334 0.956 . S
C322 H335 0.961 . S
C322 H336 0.961 . S
C323 C320 1.539 . S
C323 H337 0.958 . S
C323 H338 0.961 . S
C323 H339 0.960 . S
H324 C308 0.931 . S
H325 C313 0.929 . S
H326 C314 0.960 . S
H327 C314 0.962 . S
H328 C314 0.960 . S
H329 C315 0.961 . S
H330 C315 0.961 . S
H331 C315 0.961 . S
H332 C316 0.931 . S
H333 C321 0.930 . S
H334 C322 0.956 . S
H335 C322 0.961 . S
H336 C322 0.961 . S
H337 C323 0.958 . S
H338 C323 0.961 . S
H339 C323 0.960 . S
C340 C341 1.391 . S
C340 C342 1.394 . S
C340 H356 0.931 . S
C341 C340 1.391 . S
C341 C345 1.376 . S
C342 C340 1.394 . S
C342 C343 1.369 . S
C342 C346 1.531 . S
C343 C342 1.369 . S
C343 C344 1.410 . S
C343 C351 1.503 . S
C344 C343 1.410 . S
C344 C345 1.392 . S
C344 C347 1.511 . S
C345 C341 1.376 . S
C345 C344 1.392 . S
C345 H357 0.929 . S
C346 C342 1.531 . S
C346 H358 0.960 . S
C346 H359 0.962 . S
C346 H360 0.960 . S
C347 C344 1.511 . S
C347 H361 0.961 . S
C347 H362 0.961 . S
C347 H363 0.961 . S
C348 C349 1.370 . S
C348 C350 1.363 . S
C348 H364 0.931 . S
C349 C348 1.370 . S
C349 C353 1.408 . S
C350 C348 1.363 . S
C350 C351 1.370 . S
C350 C354 1.524 . S
C351 C343 1.503 . S
C351 C350 1.370 . S
C351 C352 1.403 . S
C352 C351 1.403 . S
C352 C353 1.404 . S
C352 C355 1.539 . S
C353 C349 1.408 . S
C353 C352 1.404 . S
C353 H365 0.930 . S
C354 C350 1.524 . S
C354 H366 0.956 . S
C354 H367 0.961 . S
C354 H368 0.961 . S
C355 C352 1.539 . S
C355 H369 0.958 . S
C355 H370 0.961 . S
C355 H371 0.960 . S
H356 C340 0.931 . S
H357 C345 0.929 . S
H358 C346 0.960 . S
H359 C346 0.962 . S
H360 C346 0.960 . S
H361 C347 0.961 . S
H362 C347 0.961 . S
H363 C347 0.961 . S
H364 C348 0.931 . S
H365 C353 0.930 . S
H366 C354 0.956 . S
H367 C354 0.961 . S
H368 C354 0.961 . S
H369 C355 0.958 . S
H370 C355 0.961 . S
H371 C355 0.960 . S
C372 C373 1.391 . S
C372 C374 1.394 . S
C372 H388 0.931 . S
C373 C372 1.391 . S
C373 C377 1.376 . S
C374 C372 1.394 . S
C374 C375 1.369 . S
C374 C378 1.531 . S
C375 C374 1.369 . S
C375 C376 1.410 . S
C375 C383 1.503 . S
C376 C375 1.410 . S
C376 C377 1.392 . S
C376 C379 1.511 . S
C377 C373 1.376 . S
C377 C376 1.392 . S
C377 H389 0.929 . S
C378 C374 1.531 . S
C378 H390 0.960 . S
C378 H391 0.962 . S
C378 H392 0.960 . S
C379 C376 1.511 . S
C379 H393 0.961 . S
C379 H394 0.961 . S
C379 H395 0.961 . S
C380 C381 1.370 . S
C380 C382 1.363 . S
C380 H396 0.931 . S
C381 C380 1.370 . S
C381 C385 1.408 . S
C382 C380 1.363 . S
C382 C383 1.370 . S
C382 C386 1.524 . S
C383 C375 1.503 . S
C383 C382 1.370 . S
C383 C384 1.403 . S
C384 C383 1.403 . S
C384 C385 1.404 . S
C384 C387 1.539 . S
C385 C381 1.408 . S
C385 C384 1.404 . S
C385 H397 0.930 . S
C386 C382 1.524 . S
C386 H398 0.956 . S
C386 H399 0.961 . S
C386 H400 0.961 . S
C387 C384 1.539 . S
C387 H401 0.958 . S
C387 H402 0.961 . S
C387 H403 0.960 . S
H388 C372 0.931 . S
H389 C377 0.929 . S
H390 C378 0.960 . S
H391 C378 0.962 . S
H392 C378 0.960 . S
H393 C379 0.961 . S
H394 C379 0.961 . S
H395 C379 0.961 . S
H396 C380 0.931 . S
H397 C385 0.930 . S
H398 C386 0.956 . S
H399 C386 0.961 . S
H400 C386 0.961 . S
H401 C387 0.958 . S
H402 C387 0.961 . S
H403 C387 0.960 . S
C404 C405 1.391 . S
C404 C406 1.394 . S
C404 H420 0.931 . S
C405 C404 1.391 . S
C405 C409 1.376 . S
C406 C404 1.394 . S
C406 C407 1.369 . S
C406 C410 1.531 . S
C407 C406 1.369 . S
C407 C408 1.410 . S
C407 C415 1.503 . S
C408 C407 1.410 . S
C408 C409 1.392 . S
C408 C411 1.511 . S
C409 C405 1.376 . S
C409 C408 1.392 . S
C409 H421 0.929 . S
C410 C406 1.531 . S
C410 H422 0.960 . S
C410 H423 0.962 . S
C410 H424 0.960 . S
C411 C408 1.511 . S
C411 H425 0.961 . S
C411 H426 0.961 . S
C411 H427 0.961 . S
C412 C413 1.370 . S
C412 C414 1.363 . S
C412 H428 0.931 . S
C413 C412 1.370 . S
C413 C417 1.408 . S
C414 C412 1.363 . S
C414 C415 1.370 . S
C414 C418 1.524 . S
C415 C407 1.503 . S
C415 C414 1.370 . S
C415 C416 1.403 . S
C416 C415 1.403 . S
C416 C417 1.404 . S
C416 C419 1.539 . S
C417 C413 1.408 . S
C417 C416 1.404 . S
C417 H429 0.930 . S
C418 C414 1.524 . S
C418 H430 0.956 . S
C418 H431 0.961 . S
C418 H432 0.961 . S
C419 C416 1.539 . S
C419 H433 0.958 . S
C419 H434 0.961 . S
C419 H435 0.960 . S
H420 C404 0.931 . S
H421 C409 0.929 . S
H422 C410 0.960 . S
H423 C410 0.962 . S
H424 C410 0.960 . S
H425 C411 0.961 . S
H426 C411 0.961 . S
H427 C411 0.961 . S
H428 C412 0.931 . S
H429 C417 0.930 . S
H430 C418 0.956 . S
H431 C418 0.961 . S
H432 C418 0.961 . S
H433 C419 0.958 . S
H434 C419 0.961 . S
H435 C419 0.960 . S
C436 C437 1.391 . S
C436 C438 1.394 . S
C436 H452 0.931 . S
C437 C436 1.391 . S
C437 C441 1.376 . S
C438 C436 1.394 . S
C438 C439 1.369 . S
C438 C442 1.531 . S
C439 C438 1.369 . S
C439 C440 1.410 . S
C439 C447 1.503 . S
C440 C439 1.410 . S
C440 C441 1.392 . S
C440 C443 1.511 . S
C441 C437 1.376 . S
C441 C440 1.392 . S
C441 H453 0.929 . S
C442 C438 1.531 . S
C442 H454 0.960 . S
C442 H455 0.962 . S
C442 H456 0.960 . S
C443 C440 1.511 . S
C443 H457 0.961 . S
C443 H458 0.961 . S
C443 H459 0.961 . S
C444 C445 1.370 . S
C444 C446 1.363 . S
C444 H460 0.931 . S
C445 C444 1.370 . S
C445 C449 1.408 . S
C446 C444 1.363 . S
C446 C447 1.370 . S
C446 C450 1.524 . S
C447 C439 1.503 . S
C447 C446 1.370 . S
C447 C448 1.403 . S
C448 C447 1.403 . S
C448 C449 1.404 . S
C448 C451 1.539 . S
C449 C445 1.408 . S
C449 C448 1.404 . S
C449 H461 0.930 . S
C450 C446 1.524 . S
C450 H462 0.956 . S
C450 H463 0.961 . S
C450 H464 0.961 . S
C451 C448 1.539 . S
C451 H465 0.958 . S
C451 H466 0.961 . S
C451 H467 0.960 . S
H452 C436 0.931 . S
H453 C441 0.929 . S
H454 C442 0.960 . S
H455 C442 0.962 . S
H456 C442 0.960 . S
H457 C443 0.961 . S
H458 C443 0.961 . S
H459 C443 0.961 . S
H460 C444 0.931 . S
H461 C449 0.930 . S
H462 C450 0.956 . S
H463 C450 0.961 . S
H464 C450 0.961 . S
H465 C451 0.958 . S
H466 C451 0.961 . S
H467 C451 0.960 . S
C468 C469 1.391 . S
C468 C470 1.394 . S
C468 H484 0.931 . S
C469 C468 1.391 . S
C469 C473 1.376 . S
C470 C468 1.394 . S
C470 C471 1.369 . S
C470 C474 1.531 . S
C471 C470 1.369 . S
C471 C472 1.410 . S
C471 C479 1.503 . S
C472 C471 1.410 . S
C472 C473 1.392 . S
C472 C475 1.511 . S
C473 C469 1.376 . S
C473 C472 1.392 . S
C473 H485 0.929 . S
C474 C470 1.531 . S
C474 H486 0.960 . S
C474 H487 0.962 . S
C474 H488 0.960 . S
C475 C472 1.511 . S
C475 H489 0.961 . S
C475 H490 0.961 . S
C475 H491 0.961 . S
C476 C477 1.370 . S
C476 C478 1.363 . S
C476 H492 0.931 . S
C477 C476 1.370 . S
C477 C481 1.408 . S
C478 C476 1.363 . S
C478 C479 1.370 . S
C478 C482 1.524 . S
C479 C471 1.503 . S
C479 C478 1.370 . S
C479 C480 1.403 . S
C480 C479 1.403 . S
C480 C481 1.404 . S
C480 C483 1.539 . S
C481 C477 1.408 . S
C481 C480 1.404 . S
C481 H493 0.930 . S
C482 C478 1.524 . S
C482 H494 0.956 . S
C482 H495 0.961 . S
C482 H496 0.961 . S
C483 C480 1.539 . S
C483 H497 0.958 . S
C483 H498 0.961 . S
C483 H499 0.960 . S
H484 C468 0.931 . S
H485 C473 0.929 . S
H486 C474 0.960 . S
H487 C474 0.962 . S
H488 C474 0.960 . S
H489 C475 0.961 . S
H490 C475 0.961 . S
H491 C475 0.961 . S
H492 C476 0.931 . S
H493 C481 0.930 . S
H494 C482 0.956 . S
H495 C482 0.961 . S
H496 C482 0.961 . S
H497 C483 0.958 . S
H498 C483 0.961 . S
H499 C483 0.960 . S
C500 C501 1.391 . S
C500 C502 1.394 . S
C500 H516 0.931 . S
C501 C500 1.391 . S
C501 C505 1.376 . S
C502 C500 1.394 . S
C502 C503 1.369 . S
C502 C506 1.531 . S
C503 C502 1.369 . S
C503 C504 1.410 . S
C503 C511 1.503 . S
C504 C503 1.410 . S
C504 C505 1.392 . S
C504 C507 1.511 . S
C505 C501 1.376 . S
C505 C504 1.392 . S
C505 H517 0.929 . S
C506 C502 1.531 . S
C506 H518 0.960 . S
C506 H519 0.962 . S
C506 H520 0.960 . S
C507 C504 1.511 . S
C507 H521 0.961 . S
C507 H522 0.961 . S
C507 H523 0.961 . S
C508 C509 1.370 . S
C508 C510 1.363 . S
C508 H524 0.931 . S
C509 C508 1.370 . S
C509 C513 1.408 . S
C510 C508 1.363 . S
C510 C511 1.370 . S
C510 C514 1.524 . S
C511 C503 1.503 . S
C511 C510 1.370 . S
C511 C512 1.403 . S
C512 C511 1.403 . S
C512 C513 1.404 . S
C512 C515 1.539 . S
C513 C509 1.408 . S
C513 C512 1.404 . S
C513 H525 0.930 . S
C514 C510 1.524 . S
C514 H526 0.956 . S
C514 H527 0.961 . S
C514 H528 0.961 . S
C515 C512 1.539 . S
C515 H529 0.958 . S
C515 H530 0.961 . S
C515 H531 0.960 . S
H516 C500 0.931 . S
H517 C505 0.929 . S
H518 C506 0.960 . S
H519 C506 0.962 . S
H520 C506 0.960 . S
H521 C507 0.961 . S
H522 C507 0.961 . S
H523 C507 0.961 . S
H524 C508 0.931 . S
H525 C513 0.930 . S
H526 C514 0.956 . S
H527 C514 0.961 . S
H528 C514 0.961 . S
H529 C515 0.958 . S
H530 C515 0.961 . S
H531 C515 0.960 . S
C532 C533 1.391 . S
C532 C534 1.394 . S
C532 H548 0.931 . S
C533 C532 1.391 . S
C533 C537 1.376 . S
C534 C532 1.394 . S
C534 C535 1.369 . S
C534 C538 1.531 . S
C535 C534 1.369 . S
C535 C536 1.410 . S
C535 C543 1.503 . S
C536 C535 1.410 . S
C536 C537 1.392 . S
C536 C539 1.511 . S
C537 C533 1.376 . S
C537 C536 1.392 . S
C537 H549 0.929 . S
C538 C534 1.531 . S
C538 H550 0.960 . S
C538 H551 0.962 . S
C538 H552 0.960 . S
C539 C536 1.511 . S
C539 H553 0.961 . S
C539 H554 0.961 . S
C539 H555 0.961 . S
C540 C541 1.370 . S
C540 C542 1.363 . S
C540 H556 0.931 . S
C541 C540 1.370 . S
C541 C545 1.408 . S
C542 C540 1.363 . S
C542 C543 1.370 . S
C542 C546 1.524 . S
C543 C535 1.503 . S
C543 C542 1.370 . S
C543 C544 1.403 . S
C544 C543 1.403 . S
C544 C545 1.404 . S
C544 C547 1.539 . S
C545 C541 1.408 . S
C545 C544 1.404 . S
C545 H557 0.930 . S
C546 C542 1.524 . S
C546 H558 0.956 . S
C546 H559 0.961 . S
C546 H560 0.961 . S
C547 C544 1.539 . S
C547 H561 0.958 . S
C547 H562 0.961 . S
C547 H563 0.960 . S
H548 C532 0.931 . S
H549 C537 0.929 . S
H550 C538 0.960 . S
H551 C538 0.962 . S
H552 C538 0.960 . S
H553 C539 0.961 . S
H554 C539 0.961 . S
H555 C539 0.961 . S
H556 C540 0.931 . S
H557 C545 0.930 . S
H558 C546 0.956 . S
H559 C546 0.961 . S
H560 C546 0.961 . S
H561 C547 0.958 . S
H562 C547 0.961 . S
H563 C547 0.960 . S
C564 C565 1.391 . S
C564 C566 1.394 . S
C564 H580 0.931 . S
C565 C564 1.391 . S
C565 C569 1.376 . S
C566 C564 1.394 . S
C566 C567 1.369 . S
C566 C570 1.531 . S
C567 C566 1.369 . S
C567 C568 1.410 . S
C567 C575 1.503 . S
C568 C567 1.410 . S
C568 C569 1.392 . S
C568 C571 1.511 . S
C569 C565 1.376 . S
C569 C568 1.392 . S
C569 H581 0.929 . S
C570 C566 1.531 . S
C570 H582 0.960 . S
C570 H583 0.962 . S
C570 H584 0.960 . S
C571 C568 1.511 . S
C571 H585 0.961 . S
C571 H586 0.961 . S
C571 H587 0.961 . S
C572 C573 1.370 . S
C572 C574 1.363 . S
C572 H588 0.931 . S
C573 C572 1.370 . S
C573 C577 1.408 . S
C574 C572 1.363 . S
C574 C575 1.370 . S
C574 C578 1.524 . S
C575 C567 1.503 . S
C575 C574 1.370 . S
C575 C576 1.403 . S
C576 C575 1.403 . S
C576 C577 1.404 . S
C576 C579 1.539 . S
C577 C573 1.408 . S
C577 C576 1.404 . S
C577 H589 0.930 . S
C578 C574 1.524 . S
C578 H590 0.956 . S
C578 H591 0.961 . S
C578 H592 0.961 . S
C579 C576 1.539 . S
C579 H593 0.958 . S
C579 H594 0.961 . S
C579 H595 0.960 . S
H580 C564 0.931 . S
H581 C569 0.929 . S
H582 C570 0.960 . S
H583 C570 0.962 . S
H584 C570 0.960 . S
H585 C571 0.961 . S
H586 C571 0.961 . S
H587 C571 0.961 . S
H588 C572 0.931 . S
H589 C577 0.930 . S
H590 C578 0.956 . S
H591 C578 0.961 . S
H592 C578 0.961 . S
H593 C579 0.958 . S
H594 C579 0.961 . S
H595 C579 0.960 . S
C596 C597 1.391 . S
C596 C598 1.394 . S
C596 H612 0.931 . S
C597 C596 1.391 . S
C597 C601 1.376 . S
C598 C596 1.394 . S
C598 C599 1.369 . S
C598 C602 1.531 . S
C599 C598 1.369 . S
C599 C600 1.410 . S
C599 C607 1.503 . S
C600 C599 1.410 . S
C600 C601 1.392 . S
C600 C603 1.511 . S
C601 C597 1.376 . S
C601 C600 1.392 . S
C601 H613 0.929 . S
C602 C598 1.531 . S
C602 H614 0.960 . S
C602 H615 0.962 . S
C602 H616 0.960 . S
C603 C600 1.511 . S
C603 H617 0.961 . S
C603 H618 0.961 . S
C603 H619 0.961 . S
C604 C605 1.370 . S
C604 C606 1.363 . S
C604 H620 0.931 . S
C605 C604 1.370 . S
C605 C609 1.408 . S
C606 C604 1.363 . S
C606 C607 1.370 . S
C606 C610 1.524 . S
C607 C599 1.503 . S
C607 C606 1.370 . S
C607 C608 1.403 . S
C608 C607 1.403 . S
C608 C609 1.404 . S
C608 C611 1.539 . S
C609 C605 1.408 . S
C609 C608 1.404 . S
C609 H621 0.930 . S
C610 C606 1.524 . S
C610 H622 0.956 . S
C610 H623 0.961 . S
C610 H624 0.961 . S
C611 C608 1.539 . S
C611 H625 0.958 . S
C611 H626 0.961 . S
C611 H627 0.960 . S
H612 C596 0.931 . S
H613 C601 0.929 . S
H614 C602 0.960 . S
H615 C602 0.962 . S
H616 C602 0.960 . S
H617 C603 0.961 . S
H618 C603 0.961 . S
H619 C603 0.961 . S
H620 C604 0.931 . S
H621 C609 0.930 . S
H622 C610 0.956 . S
H623 C610 0.961 . S
H624 C610 0.961 . S
H625 C611 0.958 . S
H626 C611 0.961 . S
H627 C611 0.960 . S
C628 C629 1.391 . S
C628 C630 1.394 . S
C628 H644 0.931 . S
C629 C628 1.391 . S
C629 C633 1.376 . S
C630 C628 1.394 . S
C630 C631 1.369 . S
C630 C634 1.531 . S
C631 C630 1.369 . S
C631 C632 1.410 . S
C631 C639 1.503 . S
C632 C631 1.410 . S
C632 C633 1.392 . S
C632 C635 1.511 . S
C633 C629 1.376 . S
C633 C632 1.392 . S
C633 H645 0.929 . S
C634 C630 1.531 . S
C634 H646 0.960 . S
C634 H647 0.962 . S
C634 H648 0.960 . S
C635 C632 1.511 . S
C635 H649 0.961 . S
C635 H650 0.961 . S
C635 H651 0.961 . S
C636 C637 1.370 . S
C636 C638 1.363 . S
C636 H652 0.931 . S
C637 C636 1.370 . S
C637 C641 1.408 . S
C638 C636 1.363 . S
C638 C639 1.370 . S
C638 C642 1.524 . S
C639 C631 1.503 . S
C639 C638 1.370 . S
C639 C640 1.403 . S
C640 C639 1.403 . S
C640 C641 1.404 . S
C640 C643 1.539 . S
C641 C637 1.408 . S
C641 C640 1.404 . S
C641 H653 0.930 . S
C642 C638 1.524 . S
C642 H654 0.956 . S
C642 H655 0.961 . S
C642 H656 0.961 . S
C643 C640 1.539 . S
C643 H657 0.958 . S
C643 H658 0.961 . S
C643 H659 0.960 . S
H644 C628 0.931 . S
H645 C633 0.929 . S
H646 C634 0.960 . S
H647 C634 0.962 . S
H648 C634 0.960 . S
H649 C635 0.961 . S
H650 C635 0.961 . S
H651 C635 0.961 . S
H652 C636 0.931 . S
H653 C641 0.930 . S
H654 C642 0.956 . S
H655 C642 0.961 . S
H656 C642 0.961 . S
H657 C643 0.958 . S
H658 C643 0.961 . S
H659 C643 0.960 . S
C660 C661 1.391 . S
C660 C662 1.394 . S
C660 H676 0.931 . S
C661 C660 1.391 . S
C661 C665 1.384 . S
C662 C660 1.394 . S
C662 C663 1.369 . S
C662 C666 1.531 . S
C663 C662 1.369 . S
C663 C664 1.410 1_655 S
C663 C671 1.503 1_655 S
C664 C663 1.410 1_455 S
C664 C665 1.389 1_455 S
C664 C667 1.511 . S
C665 C661 1.384 . S
C665 C664 1.389 1_655 S
C665 H677 0.924 1_655 S
C666 C662 1.531 . S
C666 H678 0.960 . S
C666 H679 0.962 . S
C666 H680 0.960 . S
C667 C664 1.511 . S
C667 H681 0.961 . S
C667 H682 0.961 . S
C667 H683 0.961 . S
C668 C669 1.370 . S
C668 C670 1.363 . S
C668 H684 0.931 . S
C669 C668 1.370 . S
C669 C673 1.408 . S
C670 C668 1.363 . S
C670 C671 1.370 . S
C670 C674 1.524 1_455 S
C671 C663 1.503 1_455 S
C671 C670 1.370 . S
C671 C672 1.403 . S
C672 C671 1.403 . S
C672 C673 1.404 . S
C672 C675 1.539 . S
C673 C669 1.408 . S
C673 C672 1.404 . S
C673 H685 0.930 . S
C674 C670 1.524 1_655 S
C674 H686 0.956 . S
C674 H687 0.961 . S
C674 H688 0.961 . S
C675 C672 1.539 . S
C675 H689 0.958 . S
C675 H690 0.961 . S
C675 H691 0.960 . S
H676 C660 0.931 . S
H677 C665 0.924 1_455 S
H678 C666 0.960 . S
H679 C666 0.962 . S
H680 C666 0.960 . S
H681 C667 0.961 . S
H682 C667 0.961 . S
H683 C667 0.961 . S
H684 C668 0.931 . S
H685 C673 0.930 . S
H686 C674 0.956 . S
H687 C674 0.961 . S
H688 C674 0.961 . S
H689 C675 0.958 . S
H690 C675 0.961 . S
H691 C675 0.960 . S
C692 C693 1.391 . S
C692 C694 1.394 . S
C692 H708 0.931 . S
C693 C692 1.391 . S
C693 C697 1.376 1_545 S
C694 C692 1.394 . S
C694 C695 1.369 1_545 S
C694 C698 1.531 . S
C695 C694 1.369 1_565 S
C695 C696 1.410 . S
C695 C703 1.503 . S
C696 C695 1.410 . S
C696 C697 1.392 . S
C696 C699 1.511 . S
C697 C693 1.376 1_565 S
C697 C696 1.392 . S
C697 H709 0.929 . S
C698 C694 1.531 . S
C698 H710 0.960 . S
C698 H711 0.962 . S
C698 H712 0.960 . S
C699 C696 1.511 . S
C699 H713 0.961 . S
C699 H714 0.961 . S
C699 H715 0.961 . S
C700 C701 1.370 . S
C700 C702 1.363 . S
C700 H716 0.931 . S
C701 C700 1.370 . S
C701 C705 1.408 . S
C702 C700 1.363 . S
C702 C703 1.370 . S
C702 C706 1.524 . S
C703 C695 1.503 . S
C703 C702 1.370 . S
C703 C704 1.387 1_565 S
C704 C703 1.387 1_545 S
C704 C705 1.392 1_545 S
C704 C707 1.566 . S
C705 C701 1.408 . S
C705 C704 1.392 1_565 S
C705 H717 0.916 1_565 S
C706 C702 1.524 . S
C706 H718 0.956 . S
C706 H719 0.961 . S
C706 H720 0.961 . S
C707 C704 1.566 . S
C707 H721 0.958 . S
C707 H722 0.961 . S
C707 H723 0.960 . S
H708 C692 0.931 . S
H709 C697 0.929 . S
H710 C698 0.960 . S
H711 C698 0.962 . S
H712 C698 0.960 . S
H713 C699 0.961 . S
H714 C699 0.961 . S
H715 C699 0.961 . S
H716 C700 0.931 . S
H717 C705 0.916 1_545 S
H718 C706 0.956 . S
H719 C706 0.961 . S
H720 C706 0.961 . S
H721 C707 0.958 . S
H722 C707 0.961 . S
H723 C707 0.960 . S
C724 C725 1.391 1_655 S
C724 C726 1.394 . S
C724 H740 0.931 . S
C725 C724 1.391 1_455 S
C725 C729 1.376 . S
C726 C724 1.394 . S
C726 C727 1.369 1_655 S
C726 C730 1.531 . S
C727 C726 1.369 1_455 S
C727 C728 1.410 . S
C727 C735 1.503 1_455 S
C728 C727 1.410 . S
C728 C729 1.392 . S
C728 C731 1.511 . S
C729 C725 1.376 . S
C729 C728 1.392 . S
C729 H741 0.929 . S
C730 C726 1.531 . S
C730 H742 0.960 . S
C730 H743 0.962 . S
C730 H744 0.960 . S
C731 C728 1.511 . S
C731 H745 0.961 . S
C731 H746 0.961 . S
C731 H747 0.961 . S
C732 C733 1.370 . S
C732 C734 1.363 . S
C732 H748 0.931 . S
C733 C732 1.370 . S
C733 C737 1.408 . S
C734 C732 1.363 . S
C734 C735 1.370 . S
C734 C738 1.524 . S
C735 C727 1.503 1_655 S
C735 C734 1.370 . S
C735 C736 1.403 . S
C736 C735 1.403 . S
C736 C737 1.404 . S
C736 C739 1.539 1_655 S
C737 C733 1.408 . S
C737 C736 1.404 . S
C737 H749 0.930 . S
C738 C734 1.524 . S
C738 H750 0.956 . S
C738 H751 0.961 . S
C738 H752 0.961 . S
C739 C736 1.539 1_455 S
C739 H753 0.958 1_455 S
C739 H754 0.961 . S
C739 H755 0.960 . S
H740 C724 0.931 . S
H741 C729 0.929 . S
H742 C730 0.960 . S
H743 C730 0.962 . S
H744 C730 0.960 . S
H745 C731 0.961 . S
H746 C731 0.961 . S
H747 C731 0.961 . S
H748 C732 0.931 . S
H749 C737 0.930 . S
H750 C738 0.956 . S
H751 C738 0.961 . S
H752 C738 0.961 . S
H753 C739 0.958 1_655 S
H754 C739 0.961 . S
H755 C739 0.960 . S
C756 C757 1.391 . S
C756 C758 1.394 1_545 S
C756 H772 0.931 1_545 S
C757 C756 1.391 . S
C757 C761 1.376 . S
C758 C756 1.394 1_565 S
C758 C759 1.369 . S
C758 C762 1.531 . S
C759 C758 1.369 . S
C759 C760 1.410 1_565 S
C759 C767 1.503 . S
C760 C759 1.410 1_545 S
C760 C761 1.392 . S
C760 C763 1.511 . S
C761 C757 1.376 . S
C761 C760 1.392 . S
C761 H773 0.929 . S
C762 C758 1.531 . S
C762 H774 0.960 . S
C762 H775 0.962 . S
C762 H776 0.960 . S
C763 C760 1.511 . S
C763 H777 0.961 . S
C763 H778 0.961 . S
C763 H779 0.961 . S
C764 C765 1.370 . S
C764 C766 1.363 1_565 S
C764 H780 0.931 1_565 S
C765 C764 1.370 . S
C765 C769 1.408 . S
C766 C764 1.363 1_545 S
C766 C767 1.370 1_545 S
C766 C770 1.524 . S
C767 C759 1.503 . S
C767 C766 1.370 1_565 S
C767 C768 1.403 . S
C768 C767 1.403 . S
C768 C769 1.404 . S
C768 C771 1.539 . S
C769 C765 1.408 . S
C769 C768 1.404 . S
C769 H781 0.930 . S
C770 C766 1.524 . S
C770 H782 0.956 . S
C770 H783 0.961 . S
C770 H784 0.961 . S
C771 C768 1.539 . S
C771 H785 0.958 . S
C771 H786 0.961 . S
C771 H787 0.960 . S
H772 C756 0.931 1_565 S
H773 C761 0.929 . S
H774 C762 0.960 . S
H775 C762 0.962 . S
H776 C762 0.960 . S
H777 C763 0.961 . S
H778 C763 0.961 . S
H779 C763 0.961 . S
H780 C764 0.931 1_545 S
H781 C769 0.930 . S
H782 C770 0.956 . S
H783 C770 0.961 . S
H784 C770 0.961 . S
H785 C771 0.958 . S
H786 C771 0.961 . S
H787 C771 0.960 . S
C788 C789 1.391 . S
C788 C790 1.394 1_545 S
C788 H804 0.931 1_545 S
C789 C788 1.391 . S
C789 C793 1.376 . S
C790 C788 1.394 1_565 S
C790 C791 1.369 1_565 S
C790 C794 1.531 . S
C791 C790 1.369 1_545 S
C791 C792 1.410 . S
C791 C799 1.503 . S
C792 C791 1.410 . S
C792 C793 1.392 . S
C792 C795 1.511 . S
C793 C789 1.376 . S
C793 C792 1.392 . S
C793 H805 0.929 . S
C794 C790 1.531 . S
C794 H806 0.960 . S
C794 H807 0.962 . S
C794 H808 0.960 . S
C795 C792 1.511 . S
C795 H809 0.961 . S
C795 H810 0.961 . S
C795 H811 0.961 . S
C796 C797 1.370 . S
C796 C798 1.353 1_565 S
C796 H812 0.931 . S
C797 C796 1.370 . S
C797 C801 1.408 . S
C798 C796 1.353 1_545 S
C798 C799 1.376 . S
C798 C802 1.530 . S
C799 C791 1.503 . S
C799 C798 1.376 . S
C799 C800 1.403 1_545 S
C800 C799 1.403 1_565 S
C800 C801 1.404 . S
C800 C803 1.539 1_565 S
C801 C797 1.408 . S
C801 C800 1.404 . S
C801 H813 0.930 . S
C802 C798 1.530 . S
C802 H814 0.956 1_545 S
C802 H815 0.961 . S
C802 H816 0.961 . S
C803 C800 1.539 1_545 S
C803 H817 0.958 1_545 S
C803 H818 0.961 . S
C803 H819 0.960 . S
H804 C788 0.931 1_565 S
H805 C793 0.929 . S
H806 C794 0.960 . S
H807 C794 0.962 . S
H808 C794 0.960 . S
H809 C795 0.961 . S
H810 C795 0.961 . S
H811 C795 0.961 . S
H812 C796 0.931 . S
H813 C801 0.930 . S
H814 C802 0.956 1_565 S
H815 C802 0.961 . S
H816 C802 0.961 . S
H817 C803 0.958 1_565 S
H818 C803 0.961 . S
H819 C803 0.960 . S
C820 C821 1.391 . S
C820 C822 1.394 . S
C820 H836 0.931 . S
C821 C820 1.391 . S
C821 C825 1.376 . S
C822 C820 1.394 . S
C822 C823 1.369 . S
C822 C826 1.531 1_455 S
C823 C822 1.369 . S
C823 C824 1.410 . S
C823 C831 1.503 . S
C824 C823 1.410 . S
C824 C825 1.392 . S
C824 C827 1.511 . S
C825 C821 1.376 . S
C825 C824 1.392 . S
C825 H837 0.929 . S
C826 C822 1.531 1_655 S
C826 H838 0.960 . S
C826 H839 0.962 . S
C826 H840 0.960 . S
C827 C824 1.511 . S
C827 H841 0.961 . S
C827 H842 0.961 . S
C827 H843 0.961 . S
C828 C829 1.370 . S
C828 C830 1.363 . S
C828 H844 0.931 . S
C829 C828 1.370 . S
C829 C833 1.408 1_655 S
C830 C828 1.363 . S
C830 C831 1.370 1_655 S
C830 C834 1.524 . S
C831 C823 1.503 . S
C831 C830 1.370 1_455 S
C831 C832 1.403 . S
C832 C831 1.403 . S
C832 C833 1.404 . S
C832 C835 1.539 . S
C833 C829 1.408 1_455 S
C833 C832 1.404 . S
C833 H845 0.930 . S
C834 C830 1.524 . S
C834 H846 0.956 . S
C834 H847 0.961 . S
C834 H848 0.961 . S
C835 C832 1.539 . S
C835 H849 0.958 . S
C835 H850 0.961 . S
C835 H851 0.960 . S
H836 C820 0.931 . S
H837 C825 0.929 . S
H838 C826 0.960 . S
H839 C826 0.962 . S
H840 C826 0.960 . S
H841 C827 0.961 . S
H842 C827 0.961 . S
H843 C827 0.961 . S
H844 C828 0.931 . S
H845 C833 0.930 . S
H846 C834 0.956 . S
H847 C834 0.961 . S
H848 C834 0.961 . S
H849 C835 0.958 . S
H850 C835 0.961 . S
H851 C835 0.960 . S
C852 C853 1.391 . S
C852 C854 1.394 . S
C852 H868 0.931 . S
C853 C852 1.391 . S
C853 C857 1.376 1_545 S
C854 C852 1.394 . S
C854 C855 1.369 1_545 S
C854 C858 1.531 . S
C855 C854 1.369 1_565 S
C855 C856 1.410 . S
C855 C863 1.503 . S
C856 C855 1.410 . S
C856 C857 1.392 . S
C856 C859 1.511 . S
C857 C853 1.376 1_565 S
C857 C856 1.392 . S
C857 H869 0.929 . S
C858 C854 1.531 . S
C858 H870 0.960 . S
C858 H871 0.962 . S
C858 H872 0.960 . S
C859 C856 1.511 . S
C859 H873 0.961 . S
C859 H874 0.961 . S
C859 H875 0.961 . S
C860 C861 1.370 . S
C860 C862 1.362 1_565 S
C860 H876 0.931 1_565 S
C861 C860 1.370 . S
C861 C865 1.408 . S
C862 C860 1.362 1_545 S
C862 C863 1.369 1_545 S
C862 C866 1.527 . S
C863 C855 1.503 . S
C863 C862 1.369 1_565 S
C863 C864 1.403 . S
C864 C863 1.403 . S
C864 C865 1.404 . S
C864 C867 1.539 . S
C865 C861 1.408 . S
C865 C864 1.404 . S
C865 H877 0.930 . S
C866 C862 1.527 . S
C866 H878 0.956 . S
C866 H879 0.961 . S
C866 H880 0.961 . S
C867 C864 1.539 . S
C867 H881 0.958 . S
C867 H882 0.961 . S
C867 H883 0.960 . S
H868 C852 0.931 . S
H869 C857 0.929 . S
H870 C858 0.960 . S
H871 C858 0.962 . S
H872 C858 0.960 . S
H873 C859 0.961 . S
H874 C859 0.961 . S
H875 C859 0.961 . S
H876 C860 0.931 1_545 S
H877 C865 0.930 . S
H878 C866 0.956 . S
H879 C866 0.961 . S
H880 C866 0.961 . S
H881 C867 0.958 . S
H882 C867 0.961 . S
H883 C867 0.960 . S
C884 C885 1.391 . S
C884 C886 1.394 . S
C884 H900 0.931 . S
C885 C884 1.391 . S
C885 C889 1.376 . S
C886 C884 1.394 . S
C886 C887 1.369 . S
C886 C890 1.531 . S
C887 C886 1.369 . S
C887 C888 1.410 . S
C887 C895 1.503 . S
C888 C887 1.410 . S
C888 C889 1.392 . S
C888 C891 1.511 1_655 S
C889 C885 1.376 . S
C889 C888 1.392 . S
C889 H901 0.929 . S
C890 C886 1.531 . S
C890 H902 0.960 . S
C890 H903 0.962 . S
C890 H904 0.960 . S
C891 C888 1.511 1_455 S
C891 H905 0.961 . S
C891 H906 0.961 . S
C891 H907 0.961 1_455 S
C892 C893 1.370 . S
C892 C894 1.363 . S
C892 H908 0.931 . S
C893 C892 1.370 . S
C893 C897 1.408 1_455 S
C894 C892 1.363 . S
C894 C895 1.370 1_455 S
C894 C898 1.524 . S
C895 C887 1.503 . S
C895 C894 1.370 1_655 S
C895 C896 1.403 . S
C896 C895 1.403 . S
C896 C897 1.404 . S
C896 C899 1.539 . S
C897 C893 1.408 1_655 S
C897 C896 1.404 . S
C897 H909 0.930 . S
C898 C894 1.524 . S
C898 H910 0.956 . S
C898 H911 0.961 . S
C898 H912 0.961 . S
C899 C896 1.539 . S
C899 H913 0.958 . S
C899 H914 0.961 . S
C899 H915 0.960 . S
H900 C884 0.931 . S
H901 C889 0.929 . S
H902 C890 0.960 . S
H903 C890 0.962 . S
H904 C890 0.960 . S
H905 C891 0.961 . S
H906 C891 0.961 . S
H907 C891 0.961 1_655 S
H908 C892 0.931 . S
H909 C897 0.930 . S
H910 C898 0.956 . S
H911 C898 0.961 . S
H912 C898 0.961 . S
H913 C899 0.958 . S
H914 C899 0.961 . S
H915 C899 0.960 . S
C916 C917 1.391 . S
C916 C918 1.394 . S
C916 H932 0.931 . S
C917 C916 1.391 . S
C917 C921 1.376 . S
C918 C916 1.394 . S
C918 C919 1.369 . S
C918 C922 1.531 . S
C919 C918 1.369 . S
C919 C920 1.410 . S
C919 C927 1.503 . S
C920 C919 1.410 . S
C920 C921 1.392 . S
C920 C923 1.511 . S
C921 C917 1.376 . S
C921 C920 1.392 . S
C921 H933 0.929 . S
C922 C918 1.531 . S
C922 H934 0.960 . S
C922 H935 0.962 . S
C922 H936 0.960 . S
C923 C920 1.511 . S
C923 H937 0.961 1_554 S
C923 H938 0.961 1_554 S
C923 H939 0.961 . S
C924 C925 1.370 . S
C924 C926 1.363 . S
C924 H940 0.931 . S
C925 C924 1.370 . S
C925 C929 1.408 1_556 S
C926 C924 1.363 . S
C926 C927 1.370 1_556 S
C926 C930 1.524 . S
C927 C919 1.503 . S
C927 C926 1.370 1_554 S
C927 C928 1.403 . S
C928 C927 1.403 . S
C928 C929 1.404 . S
C928 C931 1.539 . S
C929 C925 1.408 1_554 S
C929 C928 1.404 . S
C929 H941 0.930 . S
C930 C926 1.524 . S
C930 H942 0.956 . S
C930 H943 0.961 . S
C930 H944 0.961 . S
C931 C928 1.539 . S
C931 H945 0.958 . S
C931 H946 0.961 . S
C931 H947 0.960 . S
H932 C916 0.931 . S
H933 C921 0.929 . S
H934 C922 0.960 . S
H935 C922 0.962 . S
H936 C922 0.960 . S
H937 C923 0.961 1_556 S
H938 C923 0.961 1_556 S
H939 C923 0.961 . S
H940 C924 0.931 . S
H941 C929 0.930 . S
H942 C930 0.956 . S
H943 C930 0.961 . S
H944 C930 0.961 . S
H945 C931 0.958 . S
H946 C931 0.961 . S
H947 C931 0.960 . S
C948 C949 1.391 . S
C948 C950 1.394 . S
C948 H964 0.931 . S
C949 C948 1.391 . S
C949 C953 1.376 . S
C950 C948 1.394 . S
C950 C951 1.369 1_556 S
C950 C954 1.531 . S
C951 C950 1.369 1_554 S
C951 C952 1.410 . S
C951 C959 1.503 . S
C952 C951 1.410 . S
C952 C953 1.392 1_554 S
C952 C955 1.511 . S
C953 C949 1.376 . S
C953 C952 1.392 1_556 S
C953 H965 0.929 . S
C954 C950 1.531 . S
C954 H966 0.960 1_556 S
C954 H967 0.962 . S
C954 H968 0.960 . S
C955 C952 1.511 . S
C955 H969 0.961 . S
C955 H970 0.961 . S
C955 H971 0.961 . S
C956 C957 1.370 1_556 S
C956 C958 1.363 . S
C956 H972 0.931 . S
C957 C956 1.370 1_554 S
C957 C961 1.408 . S
C958 C956 1.363 . S
C958 C959 1.370 1_556 S
C958 C962 1.524 . S
C959 C951 1.503 . S
C959 C958 1.370 1_554 S
C959 C960 1.403 . S
C960 C959 1.403 . S
C960 C961 1.404 . S
C960 C963 1.539 . S
C961 C957 1.408 . S
C961 C960 1.404 . S
C961 H973 0.930 . S
C962 C958 1.524 . S
C962 H974 0.956 . S
C962 H975 0.961 . S
C962 H976 0.961 . S
C963 C960 1.539 . S
C963 H977 0.958 . S
C963 H978 0.961 . S
C963 H979 0.960 . S
H964 C948 0.931 . S
H965 C953 0.929 . S
H966 C954 0.960 1_554 S
H967 C954 0.962 . S
H968 C954 0.960 . S
H969 C955 0.961 . S
H970 C955 0.961 . S
H971 C955 0.961 . S
H972 C956 0.931 . S
H973 C961 0.930 . S
H974 C962 0.956 . S
H975 C962 0.961 . S
H976 C962 0.961 . S
H977 C963 0.958 . S
H978 C963 0.961 . S
H979 C963 0.960 . S
C980 C981 1.391 . S
C980 C982 1.394 . S
C980 H996 0.931 . S
C981 C980 1.391 . S
C981 C985 1.376 . S
C982 C980 1.394 . S
C982 C983 1.369 . S
C982 C986 1.531 . S
C983 C982 1.369 . S
C983 C984 1.410 . S
C983 C991 1.503 . S
C984 C983 1.410 . S
C984 C985 1.392 . S
C984 C987 1.511 . S
C985 C981 1.376 . S
C985 C984 1.392 . S
C985 H997 0.929 . S
C986 C982 1.531 . S
C986 H998 0.960 . S
C986 H999 0.962 . S
C986 H1000 0.960 . S
C987 C984 1.511 . S
C987 H1001 0.961 . S
C987 H1002 0.961 . S
C987 H1003 0.961 . S
C988 C989 1.370 . S
C988 C990 1.363 . S
C988 H1004 0.931 . S
C989 C988 1.370 . S
C989 C993 1.408 1_554 S
C990 C988 1.363 . S
C990 C991 1.370 1_554 S
C990 C994 1.524 . S
C991 C983 1.503 . S
C991 C990 1.370 1_556 S
C991 C992 1.403 . S
C992 C991 1.403 . S
C992 C993 1.404 . S
C992 C995 1.539 . S
C993 C989 1.408 1_556 S
C993 C992 1.404 . S
C993 H1005 0.930 . S
C994 C990 1.524 . S
C994 H1006 0.956 . S
C994 H1007 0.961 . S
C994 H1008 0.961 . S
C995 C992 1.539 . S
C995 H1009 0.958 . S
C995 H1010 0.961 . S
C995 H1011 0.960 . S
H996 C980 0.931 . S
H997 C985 0.929 . S
H998 C986 0.960 . S
H999 C986 0.962 . S
H1000 C986 0.960 . S
H1001 C987 0.961 . S
H1002 C987 0.961 . S
H1003 C987 0.961 . S
H1004 C988 0.931 . S
H1005 C993 0.930 . S
H1006 C994 0.956 . S
H1007 C994 0.961 . S
H1008 C994 0.961 . S
H1009 C995 0.958 . S
H1010 C995 0.961 . S
H1011 C995 0.960 . S
C1012 C1013 1.391 . S
C1012 C1014 1.394 . S
C1012 H1028 0.931 . S
C1013 C1012 1.391 . S
C1013 C1017 1.376 . S
C1014 C1012 1.394 . S
C1014 C1015 1.369 . S
C1014 C1018 1.531 . S
C1015 C1014 1.369 . S
C1015 C1016 1.410 . S
C1015 C1023 1.503 1_554 S
C1016 C1015 1.410 . S
C1016 C1017 1.392 . S
C1016 C1019 1.511 . S
C1017 C1013 1.376 . S
C1017 C1016 1.392 . S
C1017 H1029 0.929 . S
C1018 C1014 1.531 . S
C1018 H1030 0.960 . S
C1018 H1031 0.962 1_554 S
C1018 H1032 0.960 . S
C1019 C1016 1.511 . S
C1019 H1033 0.961 . S
C1019 H1034 0.961 1_554 S
C1019 H1035 0.961 . S
C1020 C1021 1.370 . S
C1020 C1022 1.363 . S
C1020 H1036 0.931 . S
C1021 C1020 1.370 . S
C1021 C1025 1.405 . S
C1022 C1020 1.363 . S
C1022 C1023 1.370 . S
C1022 C1026 1.524 . S
C1023 C1015 1.503 1_556 S
C1023 C1022 1.370 . S
C1023 C1024 1.403 1_556 S
C1024 C1023 1.403 1_554 S
C1024 C1025 1.405 1_554 S
C1024 C1027 1.539 . S
C1025 C1021 1.405 . S
C1025 C1024 1.405 1_556 S
C1025 H1037 0.932 1_556 S
C1026 C1022 1.524 . S
C1026 H1038 0.956 . S
C1026 H1039 0.961 . S
C1026 H1040 0.961 . S
C1027 C1024 1.539 . S
C1027 H1041 0.958 . S
C1027 H1042 0.961 . S
C1027 H1043 0.960 . S
H1028 C1012 0.931 . S
H1029 C1017 0.929 . S
H1030 C1018 0.960 . S
H1031 C1018 0.962 1_556 S
H1032 C1018 0.960 . S
H1033 C1019 0.961 . S
H1034 C1019 0.961 1_556 S
H1035 C1019 0.961 . S
H1036 C1020 0.931 . S
H1037 C1025 0.932 1_554 S
H1038 C1026 0.956 . S
H1039 C1026 0.961 . S
H1040 C1026 0.961 . S
H1041 C1027 0.958 . S
H1042 C1027 0.961 . S
H1043 C1027 0.960 . S
C277 N12 1.414 . S
C285 C177 1.443 . S
C309 N25 1.370 . S
C317 C108 1.392 . S
C341 N117 1.378 . S
C349 C62 1.420 . S
C373 N140 1.290 . S
C381 N71 1.275 . S
C405 N186 1.237 . S
C413 N163 1.264 . S
C437 C223 1.412 . S
C445 N94 1.386 . S
C469 N242 1.448 . S
C477 C131 1.466 . S
C501 C260 1.608 . S
C509 C154 1.622 . S
C533 C39 1.451 . S
C541 N209 1.438 . S
C565 C237 1.410 . S
C573 N48 1.391 . S
C597 C85 1.407 . S
C605 N265 1.384 . S
C629 C200 1.604 . S
C637 C7 1.604 . S
C661 C145 1.581 . S
C669 C16 1.541 . S
C693 N173 1.710 . S
C701 C30 1.822 . S
C725 N104 1.300 . S
C733 N58 1.326 . S
C757 C76 1.951 . S
C765 C122 1.935 . S
C789 C168 1.585 . S
C797 N127 1.543 . S
C821 C99 1.772 . S
C829 N150 1.727 . S
C853 N81 1.467 . S
C861 N35 1.448 . S
C885 C53 1.791 . S
C893 N2 1.768 . S
C917 N196 1.404 . S
C925 N219 1.430 . S
C949 C214 1.833 . S
C957 C246 1.832 . S
C981 N255 1.379 . S
C989 N232 1.439 . S
C1013 C191 1.761 . S
C1021 C269 1.789 . S
