# Generated by pormake.
# Topology xfw, (5)-cn, num edge types: 1
# Building blocks:
#     Node 0, Type 0, BuildingBlock: XOMCOT_clean_sbu_0, # of connection points: 5
#     Node 1, Type 0, BuildingBlock: XOMCOT_clean_sbu_0, # of connection points: 5
#     Node 2, Type 0, BuildingBlock: XOMCOT_clean_sbu_0, # of connection points: 5
#     Node 3, Type 0, BuildingBlock: XOMCOT_clean_sbu_0, # of connection points: 5
#     Node 4, Type 0, BuildingBlock: XOMCOT_clean_sbu_0, # of connection points: 5
#     Node 5, Type 0, BuildingBlock: XOMCOT_clean_sbu_0, # of connection points: 5
#     Node 6, Type 0, BuildingBlock: XOMCOT_clean_sbu_0, # of connection points: 5
#     Node 7, Type 0, BuildingBlock: XOMCOT_clean_sbu_0, # of connection points: 5
#     Edge 8, Type (0, 0), BuildingBlock: XIVTED_clean_linker_0, # of connection points: 2
#     Edge 9, Type (0, 0), BuildingBlock: XIVTED_clean_linker_0, # of connection points: 2
#     Edge 10, Type (0, 0), BuildingBlock: XIVTED_clean_linker_0, # of connection points: 2
#     Edge 11, Type (0, 0), BuildingBlock: XIVTED_clean_linker_0, # of connection points: 2
#     Edge 12, Type (0, 0), BuildingBlock: XIVTED_clean_linker_0, # of connection points: 2
#     Edge 13, Type (0, 0), BuildingBlock: XIVTED_clean_linker_0, # of connection points: 2
#     Edge 14, Type (0, 0), BuildingBlock: XIVTED_clean_linker_0, # of connection points: 2
#     Edge 15, Type (0, 0), BuildingBlock: XIVTED_clean_linker_0, # of connection points: 2
#     Edge 16, Type (0, 0), BuildingBlock: XIVTED_clean_linker_0, # of connection points: 2
#     Edge 17, Type (0, 0), BuildingBlock: XIVTED_clean_linker_0, # of connection points: 2
#     Edge 18, Type (0, 0), BuildingBlock: XIVTED_clean_linker_0, # of connection points: 2
#     Edge 19, Type (0, 0), BuildingBlock: XIVTED_clean_linker_0, # of connection points: 2
#     Edge 20, Type (0, 0), BuildingBlock: XIVTED_clean_linker_0, # of connection points: 2
#     Edge 21, Type (0, 0), BuildingBlock: XIVTED_clean_linker_0, # of connection points: 2
#     Edge 22, Type (0, 0), BuildingBlock: XIVTED_clean_linker_0, # of connection points: 2
#     Edge 23, Type (0, 0), BuildingBlock: XIVTED_clean_linker_0, # of connection points: 2
#     Edge 24, Type (0, 0), BuildingBlock: XIVTED_clean_linker_0, # of connection points: 2
#     Edge 25, Type (0, 0), BuildingBlock: XIVTED_clean_linker_0, # of connection points: 2
#     Edge 26, Type (0, 0), BuildingBlock: XIVTED_clean_linker_0, # of connection points: 2
#     Edge 27, Type (0, 0), BuildingBlock: XIVTED_clean_linker_0, # of connection points: 2
# Relax obj value: 0.378
# Max RMSD: 0.291
# Mean RMSD: 0.291
data_MOF--net-xfw--node1-XOMCOT_clean_sbu_0--edge1-XIVTED_clean_linker_0
_symmetry_space_group_name_H-M    P1
_symmetry_Int_Tables_number       1
_symmetry_cell_setting            triclinic
loop_
_symmetry_equiv_pos_as_xyz
'x, y, z'
_cell_length_a     30.176209
_cell_length_b     30.028702
_cell_length_c     58.17293
_cell_angle_alpha  89.957681
_cell_angle_beta   89.929586
_cell_angle_gamma 90.038902
loop_
_atom_site_label
_atom_site_type_symbol
_atom_site_fract_x
_atom_site_fract_y
_atom_site_fract_z
_atom_type_partial_charge
Co0 Co 0.18183 0.06521 0.6272 0.0
C1 C 0.19973 0.12937 0.66435 0.0
C2 C 0.16343 0.1601 0.6371 0.0
C3 C 0.16423 0.18873 0.65565 0.0
N4 N 0.18617 0.12286 0.64244 0.0
N5 N 0.18679 0.16909 0.6729 0.0
H6 H 0.21385 0.10353 0.67491 0.0
H7 H 0.14384 0.16461 0.62174 0.0
C8 C 0.18753 0.12671 0.58507 0.0
O9 O 0.22038 0.15072 0.59319 0.0
N10 N 0.17739 0.00737 0.61253 0.0
C11 C 0.1942 0.96909 0.62086 0.0
C12 C 0.19014 0.93643 0.6044 0.0
C13 C 0.16328 -0.00255 0.59109 0.0
N14 N 0.17092 0.95431 0.5856 0.0
C15 C 0.27074 0.05507 0.64263 0.0
C16 C 0.31057 0.05427 0.59985 0.0
C17 C 0.33702 0.04843 0.61945 0.0
C18 C 0.31624 0.04849 0.64102 0.0
C19 C 0.26483 0.05984 0.60223 0.0
N20 N 0.24564 0.06185 0.62349 0.0
H21 H 0.25558 0.05248 0.6593 0.0
H22 H 0.24495 0.06086 0.58687 0.0
H23 H 0.20993 0.96551 0.63745 0.0
H24 H 0.14962 0.02161 0.57931 0.0
O25 O 0.17536 0.03663 0.65706 0.0
O26 O 0.12064 0.06331 0.63553 0.0
O27 O 0.172 0.09397 0.59647 0.0
C28 C 0.13327 0.0446 0.65455 0.0
H29 H 0.14677 0.2201 0.6568 0.0
H30 H 0.20126 0.90233 0.60607 0.0
H31 H 0.32476 0.05387 0.58275 0.0
H32 H 0.33453 0.0418 0.65664 0.0
Co33 Co 0.05348 0.80781 0.39081 0.0
C34 C 0.11904 0.79864 0.35338 0.0
C35 C 0.14477 0.83832 0.38077 0.0
C36 C 0.17279 0.842 0.3621 0.0
N37 N 0.11105 0.81061 0.37546 0.0
N38 N 0.1563 0.81719 0.3448 0.0
H39 H 0.0953 0.78171 0.34265 0.0
H40 H 0.1467 0.85831 0.39617 0.0
C41 C 0.11437 0.81082 0.4326 0.0
O42 O 0.13995 0.77916 0.42444 0.0
N43 N -0.00415 0.80564 0.40547 0.0
C44 C 0.96094 0.78112 0.39855 0.0
C45 C 0.92816 0.78368 0.415 0.0
C46 C 0.98379 0.82301 0.42593 0.0
N47 N 0.94267 0.80986 0.43229 0.0
C48 C 0.0607 0.71617 0.37788 0.0
C49 C 0.05153 0.68142 0.42165 0.0
C50 C 0.05357 0.65223 0.4029 0.0
C51 C 0.05864 0.67018 0.38082 0.0
C52 C 0.05389 0.72732 0.41794 0.0
N53 N 0.05906 0.74423 0.39627 0.0
H54 H 0.06086 0.729 0.36066 0.0
H55 H 0.04932 0.7492 0.43245 0.0
H56 H 0.96006 0.7613 0.38304 0.0
H57 H 0.00543 0.84307 0.43647 0.0
O58 O 0.02465 0.80717 0.36089 0.0
O59 O 0.04279 0.8675 0.38103 0.0
O60 O 0.08061 0.82396 0.42132 0.0
C61 C 0.02632 0.8504 0.36242 0.0
H62 H 0.20118 0.86392 0.36084 0.0
H63 H 0.89649 0.76683 0.41443 0.0
H64 H 0.04703 0.66902 0.43898 0.0
H65 H 0.05859 0.64903 0.36574 0.0
Co66 Co 0.81093 0.93268 0.6266 0.0
C67 C 0.7835 0.87238 0.66345 0.0
C68 C 0.83051 0.84113 0.64117 0.0
C69 C 0.82713 0.81638 0.66107 0.0
N70 N 0.80308 0.87641 0.64263 0.0
N71 N 0.79808 0.83653 0.67536 0.0
H72 H 0.76277 0.89793 0.67071 0.0
H73 H 0.85517 0.83657 0.62788 0.0
C74 C 0.8067 0.86537 0.58689 0.0
O75 O 0.77944 0.83804 0.59745 0.0
N76 N 0.81859 0.98971 0.61128 0.0
C77 C 0.80895 0.0299 0.6203 0.0
C78 C 0.81379 0.06191 0.60352 0.0
C79 C 0.82896 -0.00208 0.58906 0.0
N80 N 0.82626 0.04177 0.58383 0.0
C81 C 0.7252 0.9591 0.64175 0.0
C82 C 0.67995 0.94176 0.60153 0.0
C83 C 0.65681 0.96045 0.62009 0.0
C84 C 0.68035 0.9694 0.64033 0.0
C85 C 0.72524 0.93298 0.60349 0.0
N86 N 0.74718 0.94045 0.62366 0.0
H87 H 0.7424 0.96759 0.65736 0.0
H88 H 0.74226 0.92168 0.58837 0.0
H89 H 0.79782 0.03557 0.63773 0.0
H90 H 0.83653 0.97237 0.57665 0.0
O91 O 0.82097 0.96116 0.65623 0.0
O92 O 0.87263 0.93065 0.63413 0.0
O93 O 0.81795 0.90225 0.59604 0.0
C94 C 0.86227 0.95031 0.65324 0.0
H95 H 0.84822 0.78858 0.66555 0.0
H96 H 0.80813 0.09724 0.60566 0.0
H97 H 0.66356 0.93434 0.58544 0.0
H98 H 0.66482 0.98554 0.65489 0.0
Co99 Co 0.94048 0.17722 0.38796 0.0
C100 C 0.87799 0.19915 0.35086 0.0
C101 C 0.84477 0.16539 0.37824 0.0
C102 C 0.81662 0.16762 0.35957 0.0
N103 N 0.88335 0.18564 0.37288 0.0
N104 N 0.83784 0.18856 0.34222 0.0
H105 H 0.90476 0.21115 0.34027 0.0
H106 H 0.83882 0.14624 0.39368 0.0
C107 C 0.88043 0.18544 0.43047 0.0
O108 O 0.85935 0.2207 0.42278 0.0
N109 N -0.0021 0.16879 0.4023 0.0
C110 C 0.03701 0.18213 0.39341 0.0
C111 C 0.06928 0.17807 0.40998 0.0
C112 C 0.007 0.15677 0.42417 0.0
N113 N 0.05033 0.1624 0.42938 0.0
C114 C 0.95465 0.26722 0.37368 0.0
C115 C 0.96484 0.30275 0.41718 0.0
C116 C 0.97167 0.33012 0.39801 0.0
C117 C 0.96601 0.31194 0.37605 0.0
C118 C 0.95368 0.25803 0.41403 0.0
N119 N 0.9479 0.24088 0.39247 0.0
H120 H 0.95369 0.25342 0.35665 0.0
H121 H 0.95211 0.23689 0.42898 0.0
H122 H 0.04146 0.19608 0.37643 0.0
H123 H 0.98215 0.14674 0.4365 0.0
O124 O 0.96822 0.17002 0.35789 0.0
O125 O 0.93849 0.11609 0.3791 0.0
O126 O 0.91142 0.16769 0.41872 0.0
C127 C 0.95772 0.12817 0.36013 0.0
H128 H 0.78438 0.15201 0.35842 0.0
H129 H 0.10378 0.18718 0.40802 0.0
H130 H 0.97019 0.31518 0.43443 0.0
H131 H 0.97135 0.33186 0.36076 0.0
Co132 Co 0.80146 0.04814 0.12759 0.0
C133 C 0.79091 0.11397 0.16478 0.0
C134 C 0.83123 0.14022 0.13777 0.0
C135 C 0.83325 0.16878 0.15633 0.0
N136 N 0.8041 0.10591 0.14293 0.0
N137 N 0.8081 0.15194 0.17345 0.0
H138 H 0.77364 0.08995 0.17523 0.0
H139 H 0.85159 0.14247 0.12252 0.0
C140 C 0.80561 0.10973 0.08568 0.0
O141 O 0.77478 0.13643 0.0937 0.0
N142 N 0.79905 0.99029 0.11297 0.0
C143 C 0.77576 0.95486 0.12047 0.0
C144 C 0.77802 0.92171 0.10416 0.0
C145 C 0.81525 0.97824 0.09225 0.0
N146 N 0.80269 0.93651 0.08634 0.0
C147 C 0.71095 0.0517 0.14135 0.0
C148 C 0.67447 0.05105 0.09782 0.0
C149 C 0.64612 0.04962 0.11695 0.0
C150 C 0.66517 0.0499 0.13892 0.0
C151 C 0.72036 0.05203 0.10105 0.0
N152 N 0.73809 0.05363 0.12264 0.0
H153 H 0.72442 0.0488 0.15836 0.0
H154 H 0.74142 0.04951 0.08612 0.0
H155 H 0.75714 0.95373 0.13635 0.0
H156 H 0.83422 0.00018 0.08129 0.0
O157 O 0.80138 0.01918 0.15754 0.0
O158 O 0.86105 0.03748 0.13709 0.0
O159 O 0.81741 0.07538 0.09701 0.0
C160 C 0.84432 0.02093 0.15581 0.0
H161 H 0.85412 0.19798 0.15754 0.0
H162 H 0.7621 0.88949 0.10527 0.0
H163 H 0.66157 0.05033 0.08047 0.0
H164 H 0.64517 0.04651 0.15429 0.0
Co165 Co 0.05462 0.17194 0.88804 0.0
C166 C 0.11287 0.20075 0.85008 0.0
C167 C 0.15111 0.17494 0.87796 0.0
C168 C 0.17872 0.18123 0.85927 0.0
N169 N 0.10965 0.18766 0.87229 0.0
N170 N 0.15442 0.19729 0.84168 0.0
H171 H 0.08463 0.20756 0.83929 0.0
H172 H 0.16021 0.15833 0.89374 0.0
C173 C 0.11264 0.18972 0.93034 0.0
O174 O 0.12564 0.22936 0.92354 0.0
N175 N -0.0007 0.15611 0.9032 0.0
C176 C 0.95858 0.16285 0.89433 0.0
C177 C 0.92743 0.15627 0.91127 0.0
C178 C 0.99219 0.14534 0.92551 0.0
N179 N 0.94854 0.14568 0.93095 0.0
C180 C 0.0315 0.26025 0.87386 0.0
C181 C 0.0173 0.29418 0.91741 0.0
C182 C 0.01051 0.32177 0.89833 0.0
C183 C 0.01761 0.30424 0.87633 0.0
C184 C 0.03103 0.25027 0.91415 0.0
N185 N 0.03943 0.23417 0.8926 0.0
H186 H 0.03431 0.24688 0.8568 0.0
H187 H 0.03364 0.22901 0.92902 0.0
H188 H 0.95192 0.17432 0.87706 0.0
H189 H 0.01832 0.14037 0.93795 0.0
O190 O 0.02682 0.161 0.85835 0.0
O191 O 0.06403 0.11151 0.87915 0.0
O192 O 0.08603 0.16656 0.91827 0.0
C193 C 0.04251 0.12077 0.86046 0.0
H194 H 0.2133 0.17188 0.85832 0.0
H195 H 0.89201 0.16048 0.90938 0.0
H196 H 0.01078 0.30596 0.93468 0.0
H197 H 0.01227 0.32425 0.86108 0.0
Co198 Co 0.17062 0.9434 0.12705 0.0
C199 C 0.19696 0.88138 0.16319 0.0
C200 C 0.14851 0.8521 0.14109 0.0
C201 C 0.15115 0.82708 0.16094 0.0
N202 N 0.17726 0.88637 0.14249 0.0
N203 N 0.18107 0.8461 0.1751 0.0
H204 H 0.21868 0.90606 0.1705 0.0
H205 H 0.12339 0.84868 0.12796 0.0
C206 C 0.17261 0.87705 0.08702 0.0
O207 O 0.19994 0.84977 0.09751 0.0
N208 N 0.16428 0.00112 0.11247 0.0
C209 C 0.17705 0.04037 0.12153 0.0
C210 C 0.17396 0.07286 0.10491 0.0
C211 C 0.15365 0.01034 0.09043 0.0
N212 N 0.1595 0.05393 0.08527 0.0
C213 C 0.25769 0.96667 0.14156 0.0
C214 C 0.30059 0.95161 0.10036 0.0
C215 C 0.32494 0.96896 0.11884 0.0
C216 C 0.30256 0.97669 0.13961 0.0
C217 C 0.25531 0.94319 0.10287 0.0
N218 N 0.23449 0.94955 0.1235 0.0
H219 H 0.24138 0.97449 0.15753 0.0
H220 H 0.23732 0.93328 0.08781 0.0
H221 H 0.1899 0.04479 0.13872 0.0
H222 H 0.14299 0.98556 0.07824 0.0
O223 O 0.16239 0.97106 0.1571 0.0
O224 O 0.10918 0.94285 0.13518 0.0
O225 O 0.16174 0.91405 0.09621 0.0
C226 C 0.12075 0.96133 0.1544 0.0
H227 H 0.12896 0.8002 0.16557 0.0
H228 H 0.18384 0.10728 0.10691 0.0
H229 H 0.31599 0.94511 0.08389 0.0
H230 H 0.31895 0.99183 0.15417 0.0
Co231 Co 0.92481 0.8008 0.89152 0.0
C232 C 0.86159 0.78724 0.85342 0.0
C233 C 0.83159 0.82358 0.8809 0.0
C234 C 0.80386 0.82516 0.86206 0.0
N235 N 0.86782 0.79927 0.87563 0.0
N236 N 0.823 0.8024 0.84473 0.0
H237 H 0.88705 0.77283 0.84275 0.0
H238 H 0.82739 0.84276 0.89646 0.0
C239 C 0.86229 0.79681 0.93294 0.0
O240 O 0.83856 0.76404 0.92444 0.0
N241 N 0.98185 0.8029 0.90679 0.0
C242 C 0.0189 0.7818 0.89986 0.0
C243 C 0.05091 0.78653 0.91655 0.0
C244 C 0.99188 0.82038 0.92753 0.0
N245 N 0.03384 0.81062 0.93403 0.0
C246 C 0.92634 0.70984 0.87687 0.0
C247 C 0.93166 0.67258 0.92024 0.0
C248 C 0.93177 0.64454 0.901 0.0
C249 C 0.92917 0.66375 0.8791 0.0
C250 C 0.92859 0.71861 0.91721 0.0
N251 N 0.92463 0.73666 0.89574 0.0
H252 H 0.92761 0.72384 0.85989 0.0
H253 H 0.93094 0.73969 0.93217 0.0
H254 H 0.02191 0.76291 0.88411 0.0
H255 H 0.96844 0.83819 0.93811 0.0
O256 O 0.95481 0.80532 0.86193 0.0
O257 O 0.93003 0.86185 0.88302 0.0
O258 O 0.8954 0.81232 0.92193 0.0
C259 C 0.94867 0.84805 0.86421 0.0
H260 H 0.77359 0.84429 0.86075 0.0
H261 H 0.08397 0.77267 0.91594 0.0
H262 H 0.93447 0.65917 0.93747 0.0
H263 H 0.93116 0.64351 0.86373 0.0
H264 H 0.21385 0.88203 0.56805 0.0
H265 H 0.07212 0.88208 0.45185 0.0
H266 H 0.1109 0.97724 0.55277 0.0
H267 H 0.17765 0.78844 0.46492 0.0
H268 H 0.08584 0.91638 0.48898 0.0
H269 H 0.20075 0.8465 0.53093 0.0
C270 C 0.18825 0.89536 0.55703 0.0
C271 C 0.16334 0.93276 0.56372 0.0
C272 C 0.10609 0.88835 0.4838 0.0
C273 C 0.14855 0.89228 0.52089 0.0
C274 C 0.0982 0.86854 0.46254 0.0
C275 C 0.12364 0.83201 0.45518 0.0
C276 C 0.13973 0.87173 0.49804 0.0
C277 C 0.15721 0.81647 0.46983 0.0
C278 C 0.18102 0.87514 0.53571 0.0
C279 C 0.13123 0.94885 0.54836 0.0
N280 N 0.16423 0.83636 0.49058 0.0
N281 N 0.12475 0.92851 0.52775 0.0
H282 H 0.78108 0.79969 0.55617 0.0
H283 H 0.95724 0.87938 0.46116 0.0
H284 H 0.87468 0.90713 0.56496 0.0
H285 H 0.87788 0.76073 0.45317 0.0
H286 H 0.92302 0.89193 0.49846 0.0
H287 H 0.81241 0.78597 0.51771 0.0
C288 C 0.80802 0.82041 0.55005 0.0
C289 C 0.82475 0.85504 0.56375 0.0
C290 C 0.91298 0.86311 0.48857 0.0
C291 C 0.86055 0.83968 0.51992 0.0
C292 C 0.93272 0.85583 0.46723 0.0
C293 C 0.92079 0.81876 0.45393 0.0
C294 C 0.88087 0.83318 0.49686 0.0
C295 C 0.88797 0.78996 0.46265 0.0
C296 C 0.82583 0.81263 0.52811 0.0
C297 C 0.85987 0.88071 0.55495 0.0
N298 N 0.86926 0.79769 0.48359 0.0
N299 N 0.87639 0.87258 0.53369 0.0
H300 H 0.87644 0.01063 0.54848 0.0
H301 H 0.82491 0.21705 0.46474 0.0
H302 H 0.79219 0.12031 0.56817 0.0
H303 H 0.91141 0.10725 0.44798 0.0
H304 H 0.81045 0.18229 0.50233 0.0
H305 H 0.88764 0.04558 0.51112 0.0
C306 C 0.86007 0.04194 0.54496 0.0
C307 C 0.83332 0.06241 0.56164 0.0
C308 C 0.83259 0.16594 0.49036 0.0
C309 C 0.84637 0.10315 0.51867 0.0
C310 C 0.84077 0.18573 0.46889 0.0
C311 C 0.86963 0.1653 0.45316 0.0
C312 C 0.85332 0.12541 0.49605 0.0
C313 C 0.88924 0.12464 0.45952 0.0
C314 C 0.86667 0.0621 0.52359 0.0
C315 C 0.81355 0.10348 0.55604 0.0
N316 N 0.88077 0.10621 0.48037 0.0
N317 N 0.82043 0.12244 0.53506 0.0
H318 H 0.21851 0.18151 0.55021 0.0
H319 H 0.02333 0.10891 0.46433 0.0
H320 H 0.11161 0.09184 0.56754 0.0
H321 H 0.12431 0.20418 0.4456 0.0
H322 H 0.0567 0.10235 0.50225 0.0
H323 H 0.18569 0.19108 0.5118 0.0
C324 C 0.18819 0.16401 0.54601 0.0
C325 C 0.1681 0.13552 0.5621 0.0
C326 C 0.07167 0.12472 0.48987 0.0
C327 C 0.13059 0.14609 0.51833 0.0
C328 C 0.05244 0.12859 0.46818 0.0
C329 C 0.07087 0.15717 0.45165 0.0
C330 C 0.10976 0.14962 0.49524 0.0
C331 C 0.10918 0.18129 0.45763 0.0
C332 C 0.16955 0.16935 0.52409 0.0
C333 C 0.12879 0.11368 0.5557 0.0
N334 N 0.12731 0.17703 0.47893 0.0
N335 N 0.11153 0.11933 0.5344 0.0
H336 H 0.90028 0.86999 0.95229 0.0
H337 H 0.75562 0.86809 0.06729 0.0
H338 H 0.80076 0.76976 0.96552 0.0
H339 H 0.8689 0.95322 0.05574 0.0
H340 H 0.76936 0.83244 0.0302 0.0
H341 H 0.88626 0.90196 0.98975 0.0
C342 C 0.87553 0.85439 0.96311 0.0
C343 C 0.85201 0.81664 0.95571 0.0
C344 C 0.79121 0.85885 0.03586 0.0
C345 C 0.8353 0.85397 0.99902 0.0
C346 C 0.78359 0.87916 0.05714 0.0
C347 C 0.81106 0.91402 0.06479 0.0
C348 C 0.82647 0.87354 0.02204 0.0
C349 C 0.84635 0.92712 0.05056 0.0
C350 C 0.86747 0.8729 0.9846 0.0
C351 C 0.81976 0.79876 0.97051 0.0
N352 N 0.8529 0.90699 0.02994 0.0
N353 N 0.81233 0.8176 0.9915 0.0
H354 H 0.78141 0.16917 0.05169 0.0
H355 H 0.9801 0.09827 0.96724 0.0
H356 H 0.87884 0.06882 0.06797 0.0
H357 H 0.87208 0.18324 0.94646 0.0
H358 H 0.94617 0.09141 1.00533 0.0
H359 H 0.81683 0.17918 0.014 0.0
C360 C 0.81026 0.14939 0.04741 0.0
C361 C 0.82693 0.11795 0.06303 0.0
C362 C 0.92984 0.1115 0.99241 0.0
C363 C 0.86768 0.12924 0.01998 0.0
C364 C 0.94934 0.11556 0.97068 0.0
C365 C 0.92885 0.14108 0.9535 0.0
C366 C 0.88965 0.13342 0.99714 0.0
C367 C 0.88875 0.16255 0.95896 0.0
C368 C 0.83039 0.155 0.02587 0.0
C369 C 0.86447 0.09321 0.05649 0.0
N370 N 0.87055 0.15829 0.98026 0.0
N371 N 0.88348 0.09939 0.03555 0.0
H372 H 0.11725 0.10247 0.94174 0.0
H373 H 0.15108 0.14269 0.07594 0.0
H374 H 0.13838 0.23365 0.96991 0.0
H375 H 0.15882 0.01381 0.04323 0.0
H376 H 0.14514 0.17735 0.03801 0.0
H377 H 0.13143 0.07026 0.97931 0.0
C378 C 0.12526 0.12456 0.95586 0.0
C379 C 0.1265 0.17088 0.9527 0.0
C380 C 0.14829 0.1415 0.03922 0.0
C381 C 0.14237 0.13399 0.99611 0.0
C382 C 0.15174 0.12158 0.06089 0.0
C383 C 0.15527 0.07501 0.063 0.0
C384 C 0.14805 0.11472 0.01946 0.0
C385 C 0.15537 0.04961 0.04273 0.0
C386 C 0.13339 0.10607 0.97736 0.0
C387 C 0.1373 0.19776 0.9716 0.0
N388 N 0.15167 0.06976 0.02192 0.0
N389 N 0.14439 0.17893 0.99263 0.0
H390 H 0.01367 0.8782 0.96335 0.0
H391 H 0.19527 0.80842 0.05758 0.0
H392 H 0.10202 0.76645 0.95472 0.0
H393 H 0.10641 0.9203 0.06417 0.0
H394 H 0.16245 0.79206 0.01986 0.0
H395 H 0.0481 0.89382 1.00037 0.0
C396 C 0.0402 0.85682 0.96921 0.0
C397 C 0.0548 0.8209 0.95575 0.0
C398 C 0.15035 0.82029 0.02958 0.0
C399 C 0.09487 0.83885 0.99833 0.0
C400 C 0.16905 0.82961 0.05112 0.0
C401 C 0.15397 0.86607 0.06405 0.0
C402 C 0.1162 0.8475 0.02098 0.0
C403 C 0.11975 0.89226 0.05478 0.0
C404 C 0.06007 0.8659 0.99037 0.0
C405 C 0.08991 0.79482 0.96427 0.0
N406 N 0.10213 0.88247 0.03393 0.0
N407 N 0.10863 0.80423 0.98499 0.0
H408 H 0.61008 0.98804 0.58174 0.0
H409 H 0.40267 0.07313 0.64953 0.0
H410 H 0.59375 0.96016 0.65425 0.0
H411 H 0.38245 0.0037 0.58525 0.0
H412 H 0.48027 0.05068 0.64875 0.0
H413 H 0.5322 0.01041 0.58003 0.0
C414 C 0.59037 0.98614 0.59726 0.0
C415 C 0.60904 0.97233 0.61825 0.0
C416 C 0.45865 0.04071 0.63481 0.0
C417 C 0.52072 -0.0002 0.61638 0.0
C418 C 0.4143 0.05321 0.63524 0.0
C419 C 0.38541 0.0396 0.61766 0.0
C420 C 0.47466 0.01551 0.61637 0.0
C421 C 0.40325 0.01529 0.59914 0.0
C422 C 0.54606 -0.00069 0.59622 0.0
C423 C 0.58159 0.97169 0.63781 0.0
N424 N 0.44687 0.004 0.59897 0.0
N425 N 0.53901 0.98578 0.63645 0.0
H426 H -0.00608 0.60987 0.43105 0.0
H427 H 0.0374 0.37212 0.37412 0.0
H428 H 0.09676 0.58402 0.38118 0.0
H429 H 0.94204 0.39349 0.42832 0.0
H430 H 0.06148 0.44926 0.3778 0.0
H431 H 0.97732 0.53024 0.43226 0.0
C432 C 0.01354 0.58738 0.42065 0.0
C433 C 0.04662 0.60368 0.40586 0.0
C434 C 0.0354 0.43714 0.38898 0.0
C435 C 0.02718 0.51265 0.40684 0.0
C436 C 0.02139 0.39318 0.38675 0.0
C437 C 0.98728 0.37658 0.40074 0.0
C438 C 0.01502 0.46494 0.40525 0.0
C439 C 0.96846 0.40502 0.4172 0.0
C440 C 0.0038 0.54195 0.42122 0.0
C441 C 0.07049 0.57302 0.39253 0.0
N442 N 0.98235 0.44798 0.41889 0.0
N443 N 0.06008 0.52907 0.39321 0.0
H444 H 0.58023 0.08211 0.14493 0.0
H445 H 0.37006 -0.00236 0.08003 0.0
H446 H 0.60005 0.00448 0.08317 0.0
H447 H 0.38977 0.9676 0.15208 0.0
H448 H 0.44801 0.01969 0.07738 0.0
H449 H 0.50178 0.06253 0.14407 0.0
C450 C 0.5683 0.06115 0.13113 0.0
C451 C 0.59735 0.04409 0.11441 0.0
C452 C 0.4348 0.00826 0.09368 0.0
C453 C 0.50726 0.02336 0.11295 0.0
C454 C 0.39046 0.99522 0.09525 0.0
C455 C 0.3727 0.98084 0.11641 0.0
C456 C 0.46106 0.00814 0.11347 0.0
C457 C 0.40111 0.97961 0.13555 0.0
C458 C 0.5235 0.05031 0.13063 0.0
C459 C 0.57919 0.01859 0.09642 0.0
N460 N 0.44367 0.99364 0.13369 0.0
N461 N 0.53517 0.00886 0.09618 0.0
H462 H 0.03861 0.38343 0.92982 0.0
H463 H 0.88909 0.57852 0.87741 0.0
H464 H 0.94708 0.36572 0.8736 0.0
H465 H 0.98779 0.59957 0.92994 0.0
H466 H 0.90436 0.49876 0.87877 0.0
H467 H 0.0148 0.46103 0.93314 0.0
C468 C 0.01324 0.39578 0.91831 0.0
C469 C -0.0049 0.36824 0.90126 0.0
C470 C 0.92249 0.52076 0.89013 0.0
C471 C 0.96791 0.4569 0.90486 0.0
C472 C 0.91386 0.5663 0.8893 0.0
C473 C 0.93748 0.59576 0.90343 0.0
C474 C 0.9551 0.50449 0.90513 0.0
C475 C 0.96862 0.57803 0.91883 0.0
C476 C -0.0002 0.4401 0.92014 0.0
C477 C 0.96257 0.38603 0.8867 0.0
N478 N 0.9768 0.53355 0.91914 0.0
N479 N 0.95014 0.42925 0.88878 0.0
H480 H 0.12417 0.96607 0.6777 0.0
H481 H 0.87255 0.02518 0.67938 0.0
H482 H 0.0672 0.09675 0.67024 0.0
H483 H 0.93001 0.8967 0.66541 0.0
H484 H 0.94235 0.04826 0.69747 0.0
H485 H 0.05451 0.94005 0.69492 0.0
C486 C 0.0976 0.98965 0.68063 0.0
C487 C 0.10029 0.03299 0.67196 0.0
C488 C 0.93907 0.01444 0.69122 0.0
C489 C 0.02121 0.00381 0.69111 0.0
C490 C 0.89934 0.00136 0.68093 0.0
C491 C 0.89667 0.95976 0.67024 0.0
C492 C 0.9758 0.98558 0.69054 0.0
C493 C 0.93175 0.92973 0.67283 0.0
C494 C 0.05789 0.97488 0.69038 0.0
C495 C 0.06543 0.06258 0.67617 0.0
N496 N 0.97034 0.94354 0.68231 0.0
N497 N 0.0268 0.0472 0.685 0.0
H498 H 0.08053 0.89292 0.33271 0.0
H499 H 0.03657 0.1069 0.3401 0.0
H500 H 0.94336 0.87719 0.35132 0.0
H501 H 0.89811 0.0726 0.34116 0.0
H502 H 0.05338 0.03429 0.32379 0.0
H503 H 0.06304 0.96398 0.31451 0.0
C504 C 0.04633 0.90391 0.33214 0.0
C505 C 0.0133 0.88 0.34373 0.0
C506 C 0.019 0.04278 0.32653 0.0
C507 C -0.00649 0.96258 0.32477 0.0
C508 C 0.00954 0.08465 0.3358 0.0
C509 C 0.96619 0.09477 0.3424 0.0
C510 C 0.98463 0.01114 0.32423 0.0
C511 C 0.93217 0.06516 0.33668 0.0
C512 C 0.03641 0.94496 0.32216 0.0
C513 C 0.96966 0.89511 0.34264 0.0
N514 N 0.9422 0.02421 0.32841 0.0
N515 N 0.96117 0.93611 0.33386 0.0
H516 H 0.09765 0.039 0.17545 0.0
H517 H 0.88492 0.07563 0.18594 0.0
H518 H 0.06806 0.89887 0.17318 0.0
H519 H 0.87281 0.93799 0.16642 0.0
H520 H 0.95633 0.05949 0.20369 0.0
H521 H 0.02609 0.05254 0.19344 0.0
C522 C 0.07664 0.01092 0.17974 0.0
C523 C 0.0876 0.96809 0.17235 0.0
C524 C 0.93803 0.03244 0.19595 0.0
C525 C 0.00534 0.98273 0.19251 0.0
C526 C 0.8968 0.04157 0.18623 0.0
C527 C 0.8739 0.0081 0.17444 0.0
C528 C 0.95678 0.98999 0.19284 0.0
C529 C 0.89003 0.96464 0.17522 0.0
C530 C 0.03545 0.01847 0.19003 0.0
C531 C 0.05979 0.9326 0.17819 0.0
N532 N 0.93118 0.957 0.18371 0.0
N533 N 0.01943 0.9408 0.18748 0.0
H534 H 0.025 0.8526 0.83858 0.0
H535 H 0.09977 0.05615 0.84797 0.0
H536 H 0.89949 0.91726 0.84982 0.0
H537 H 0.9681 0.10509 0.83489 0.0
H538 H 0.07943 0.98491 0.8317 0.0
H539 H 0.05225 0.92026 0.81959 0.0
C540 C 0.00291 0.88072 0.83646 0.0
C541 C 0.9608 0.88055 0.84653 0.0
C542 C 0.05511 0.0113 0.83133 0.0
C543 C 0.99189 0.9582 0.82611 0.0
C544 C 0.06684 0.05214 0.84083 0.0
C545 C 0.035 0.08564 0.84344 0.0
C546 C 0.01074 0.0037 0.8251 0.0
C547 C -0.00675 0.07951 0.83357 0.0
C548 C 0.01855 0.91961 0.82593 0.0
C549 C 0.9329 0.91708 0.84299 0.0
N550 N 0.98179 0.03862 0.8255 0.0
N551 N 0.94926 0.95486 0.83352 0.0
H552 H 0.13047 0.22502 0.69568 0.0
H553 H 0.22079 0.15344 0.81916 0.0
H554 H 0.24601 0.14246 0.70537 0.0
H555 H 0.11596 0.24909 0.80904 0.0
H556 H 0.23429 0.15327 0.77774 0.0
H557 H 0.12827 0.23864 0.73697 0.0
C558 C 0.15584 0.21024 0.70635 0.0
C559 C 0.18819 0.18202 0.69687 0.0
C560 C 0.2086 0.17464 0.7846 0.0
C561 C 0.18531 0.19697 0.74453 0.0
C562 C 0.20104 0.17496 0.80834 0.0
C563 C 0.16676 0.20092 0.8177 0.0
C564 C 0.18163 0.20031 0.77002 0.0
C565 C 0.14208 0.22781 0.80262 0.0
C566 C 0.15437 0.21785 0.73005 0.0
C567 C 0.21986 0.16363 0.71186 0.0
N568 N 0.14969 0.22647 0.77958 0.0
N569 N 0.21735 0.17103 0.7349 0.0
H570 H 0.16365 0.76935 0.1985 0.0
H571 H 0.19761 0.88434 0.3216 0.0
H572 H 0.20785 0.90484 0.20829 0.0
H573 H 0.14252 0.75288 0.31281 0.0
H574 H 0.21038 0.88855 0.28021 0.0
H575 H 0.16358 0.75925 0.24027 0.0
C576 C 0.17362 0.79689 0.20931 0.0
C577 C 0.18556 0.83807 0.19958 0.0
C578 C 0.19583 0.85859 0.28733 0.0
C579 C 0.18578 0.82662 0.24758 0.0
C580 C 0.18886 0.85602 0.31106 0.0
C581 C 0.16872 0.81825 0.32078 0.0
C582 C 0.18264 0.82315 0.2731 0.0
C583 C 0.15754 0.78288 0.30605 0.0
C584 C 0.17368 0.79105 0.2332 0.0
C585 C 0.1988 0.87229 0.21464 0.0
N586 N 0.16439 0.78628 0.28298 0.0
N587 N 0.19825 0.86584 0.23777 0.0
H588 H 0.84203 0.73933 0.81287 0.0
H589 H 0.76648 0.89364 0.70838 0.0
H590 H 0.77733 0.86626 0.82136 0.0
H591 H 0.8181 0.76061 0.69913 0.0
H592 H 0.76558 0.88173 0.74955 0.0
H593 H 0.82965 0.74427 0.77137 0.0
C594 C 0.8249 0.76808 0.80602 0.0
C595 C 0.81098 0.80254 0.82067 0.0
C596 C 0.7768 0.85498 0.73852 0.0
C597 C 0.79673 0.80854 0.77306 0.0
C598 C 0.77714 0.86161 0.71475 0.0
C599 C 0.79288 0.82825 0.69982 0.0
C600 C 0.79255 0.81479 0.74772 0.0
C601 C 0.8065 0.78773 0.70975 0.0
C602 C 0.81773 0.77084 0.78232 0.0
C603 C 0.78841 0.83875 0.81084 0.0
N604 N 0.80641 0.78234 0.733 0.0
N605 N 0.78243 0.84099 0.78768 0.0
H606 H 0.77745 0.13651 0.31966 0.0
H607 H 0.86674 0.20566 0.19623 0.0
H608 H 0.87054 0.24392 0.30921 0.0
H609 H 0.747 0.129 0.20596 0.0
H610 H 0.86839 0.22059 0.23741 0.0
H611 H 0.76509 0.13365 0.27824 0.0
C612 C 0.79487 0.15997 0.30882 0.0
C613 C 0.82567 0.1901 0.31814 0.0
C614 C 0.84155 0.20079 0.23048 0.0
C615 C 0.81217 0.1863 0.27039 0.0
C616 C 0.84044 0.19235 0.20684 0.0
C617 C 0.80701 0.16536 0.19739 0.0
C618 C 0.80929 0.18185 0.24494 0.0
C619 C 0.77411 0.14898 0.21237 0.0
C620 C 0.78792 0.15813 0.28505 0.0
C621 C 0.84735 0.21935 0.3029 0.0
N622 N 0.77638 0.15702 0.23535 0.0
N623 N 0.84062 0.21634 0.27984 0.0
loop_
_geom_bond_atom_site_label_1
_geom_bond_atom_site_label_2
_geom_bond_distance
_geom_bond_site_symmetry_2
_ccdc_geom_bond_type
Co0 N4 2.148 . S
Co0 N10 2.128 . S
Co0 N20 2.194 . S
Co0 O25 2.351 . S
Co0 O26 2.155 . S
Co0 O27 2.096 . S
C1 N4 1.301 . S
C1 N5 1.328 . S
C1 H6 0.930 . S
C2 C3 1.333 . S
C2 N4 1.317 . S
C2 H7 0.930 . S
C3 C2 1.333 . S
C3 N5 1.350 . S
C3 H29 0.931 . S
N4 Co0 2.148 . S
N4 C1 1.301 . S
N4 C2 1.317 . S
N5 C1 1.328 . S
N5 C3 1.350 . S
H6 C1 0.930 . S
H7 C2 0.930 . S
C8 O9 1.224 . S
C8 O27 1.247 . S
O9 C8 1.224 . S
N10 Co0 2.128 . S
N10 C11 1.355 1_545 S
N10 C13 1.311 . S
C11 N10 1.355 1_565 S
C11 C12 1.363 . S
C11 H23 0.929 . S
C12 C11 1.363 . S
C12 N14 1.375 . S
C12 H30 0.931 . S
C13 N10 1.311 . S
C13 N14 1.347 1_545 S
C13 H24 0.929 . S
N14 C12 1.375 . S
N14 C13 1.347 1_565 S
C15 C18 1.365 . S
C15 N20 1.328 . S
C15 H21 0.929 . S
C16 C17 1.362 . S
C16 C19 1.378 . S
C16 H31 0.929 . S
C17 C16 1.362 . S
C17 C18 1.366 . S
C18 C15 1.365 . S
C18 C17 1.366 . S
C18 H32 0.930 1_545 S
C19 C16 1.378 . S
C19 N20 1.315 . S
C19 H22 0.930 . S
N20 Co0 2.194 . S
N20 C15 1.328 . S
N20 C19 1.315 . S
H21 C15 0.929 . S
H22 C19 0.930 . S
H23 C11 0.929 . S
H24 C13 0.929 . S
O25 Co0 2.351 . S
O25 C28 1.244 . S
O26 Co0 2.155 . S
O26 C28 1.240 . S
O27 Co0 2.096 . S
O27 C8 1.247 . S
C28 O25 1.244 . S
C28 O26 1.240 . S
H29 C3 0.931 . S
H30 C12 0.931 . S
H31 C16 0.929 . S
H32 C18 0.930 1_565 S
Co33 N37 2.148 . S
Co33 N43 2.128 . S
Co33 N53 2.194 . S
Co33 O58 2.351 . S
Co33 O59 2.155 . S
Co33 O60 2.096 . S
C34 N37 1.301 . S
C34 N38 1.328 . S
C34 H39 0.930 . S
C35 C36 1.333 . S
C35 N37 1.317 . S
C35 H40 0.930 . S
C36 C35 1.333 . S
C36 N38 1.350 . S
C36 H62 0.931 . S
N37 Co33 2.148 . S
N37 C34 1.301 . S
N37 C35 1.317 . S
N38 C34 1.328 . S
N38 C36 1.350 . S
H39 C34 0.930 . S
H40 C35 0.930 . S
C41 O42 1.224 . S
C41 O60 1.247 . S
O42 C41 1.224 . S
N43 Co33 2.128 . S
N43 C44 1.355 1_455 S
N43 C46 1.311 . S
C44 N43 1.355 1_655 S
C44 C45 1.363 . S
C44 H56 0.929 . S
C45 C44 1.363 . S
C45 N47 1.375 . S
C45 H63 0.931 . S
C46 N43 1.311 . S
C46 N47 1.347 1_455 S
C46 H57 0.929 . S
N47 C45 1.375 . S
N47 C46 1.347 1_655 S
C48 C51 1.365 . S
C48 N53 1.328 . S
C48 H54 0.929 . S
C49 C50 1.362 . S
C49 C52 1.378 . S
C49 H64 0.929 . S
C50 C49 1.362 . S
C50 C51 1.366 . S
C51 C48 1.365 . S
C51 C50 1.366 . S
C51 H65 0.930 1_455 S
C52 C49 1.378 . S
C52 N53 1.315 . S
C52 H55 0.930 . S
N53 Co33 2.194 . S
N53 C48 1.328 . S
N53 C52 1.315 . S
H54 C48 0.929 . S
H55 C52 0.930 . S
H56 C44 0.929 . S
H57 C46 0.929 . S
O58 Co33 2.351 . S
O58 C61 1.244 . S
O59 Co33 2.155 . S
O59 C61 1.240 . S
O60 Co33 2.096 . S
O60 C41 1.247 . S
C61 O58 1.244 . S
C61 O59 1.240 . S
H62 C36 0.931 . S
H63 C45 0.931 . S
H64 C49 0.929 . S
H65 C51 0.930 1_655 S
Co66 N70 2.148 . S
Co66 N76 2.128 . S
Co66 N86 2.194 . S
Co66 O91 2.351 . S
Co66 O92 2.155 . S
Co66 O93 2.096 . S
C67 N70 1.301 . S
C67 N71 1.328 . S
C67 H72 0.930 . S
C68 C69 1.333 . S
C68 N70 1.317 . S
C68 H73 0.930 . S
C69 C68 1.333 . S
C69 N71 1.350 . S
C69 H95 0.931 . S
N70 Co66 2.148 . S
N70 C67 1.301 . S
N70 C68 1.317 . S
N71 C67 1.328 . S
N71 C69 1.350 . S
H72 C67 0.930 . S
H73 C68 0.930 . S
C74 O75 1.224 . S
C74 O93 1.247 . S
O75 C74 1.224 . S
N76 Co66 2.128 . S
N76 C77 1.355 1_565 S
N76 C79 1.311 . S
C77 N76 1.355 1_545 S
C77 C78 1.363 . S
C77 H89 0.929 . S
C78 C77 1.363 . S
C78 N80 1.375 . S
C78 H96 0.931 . S
C79 N76 1.311 . S
C79 N80 1.347 1_565 S
C79 H90 0.929 . S
N80 C78 1.375 . S
N80 C79 1.347 1_545 S
C81 C84 1.365 . S
C81 N86 1.328 . S
C81 H87 0.929 . S
C82 C83 1.362 . S
C82 C85 1.378 . S
C82 H97 0.929 . S
C83 C82 1.362 . S
C83 C84 1.366 . S
C84 C81 1.365 . S
C84 C83 1.366 . S
C84 H98 0.930 1_565 S
C85 C82 1.378 . S
C85 N86 1.315 . S
C85 H88 0.930 . S
N86 Co66 2.194 . S
N86 C81 1.328 . S
N86 C85 1.315 . S
H87 C81 0.929 . S
H88 C85 0.930 . S
H89 C77 0.929 . S
H90 C79 0.929 . S
O91 Co66 2.351 . S
O91 C94 1.244 . S
O92 Co66 2.155 . S
O92 C94 1.240 . S
O93 Co66 2.096 . S
O93 C74 1.247 . S
C94 O91 1.244 . S
C94 O92 1.240 . S
H95 C69 0.931 . S
H96 C78 0.931 . S
H97 C82 0.929 . S
H98 C84 0.930 1_545 S
Co99 N103 2.148 . S
Co99 N109 2.128 . S
Co99 N119 2.194 . S
Co99 O124 2.351 . S
Co99 O125 2.155 . S
Co99 O126 2.096 . S
C100 N103 1.301 . S
C100 N104 1.328 . S
C100 H105 0.930 . S
C101 C102 1.333 . S
C101 N103 1.317 . S
C101 H106 0.930 . S
C102 C101 1.333 . S
C102 N104 1.350 . S
C102 H128 0.931 . S
N103 Co99 2.148 . S
N103 C100 1.301 . S
N103 C101 1.317 . S
N104 C100 1.328 . S
N104 C102 1.350 . S
H105 C100 0.930 . S
H106 C101 0.930 . S
C107 O108 1.224 . S
C107 O126 1.247 . S
O108 C107 1.224 . S
N109 Co99 2.128 . S
N109 C110 1.355 1_655 S
N109 C112 1.311 . S
C110 N109 1.355 1_455 S
C110 C111 1.363 . S
C110 H122 0.929 . S
C111 C110 1.363 . S
C111 N113 1.375 . S
C111 H129 0.931 . S
C112 N109 1.311 . S
C112 N113 1.347 1_655 S
C112 H123 0.929 . S
N113 C111 1.375 . S
N113 C112 1.347 1_455 S
C114 C117 1.365 . S
C114 N119 1.328 . S
C114 H120 0.929 . S
C115 C116 1.362 . S
C115 C118 1.378 . S
C115 H130 0.929 . S
C116 C115 1.362 . S
C116 C117 1.366 . S
C117 C114 1.365 . S
C117 C116 1.366 . S
C117 H131 0.930 1_655 S
C118 C115 1.378 . S
C118 N119 1.315 . S
C118 H121 0.930 . S
N119 Co99 2.194 . S
N119 C114 1.328 . S
N119 C118 1.315 . S
H120 C114 0.929 . S
H121 C118 0.930 . S
H122 C110 0.929 . S
H123 C112 0.929 . S
O124 Co99 2.351 . S
O124 C127 1.244 . S
O125 Co99 2.155 . S
O125 C127 1.240 . S
O126 Co99 2.096 . S
O126 C107 1.247 . S
C127 O124 1.244 . S
C127 O125 1.240 . S
H128 C102 0.931 . S
H129 C111 0.931 . S
H130 C115 0.929 . S
H131 C117 0.930 1_455 S
Co132 N136 2.148 . S
Co132 N142 2.128 . S
Co132 N152 2.194 . S
Co132 O157 2.351 . S
Co132 O158 2.155 . S
Co132 O159 2.096 . S
C133 N136 1.301 . S
C133 N137 1.328 . S
C133 H138 0.930 . S
C134 C135 1.333 . S
C134 N136 1.317 . S
C134 H139 0.930 . S
C135 C134 1.333 . S
C135 N137 1.350 . S
C135 H161 0.931 . S
N136 Co132 2.148 . S
N136 C133 1.301 . S
N136 C134 1.317 . S
N137 C133 1.328 . S
N137 C135 1.350 . S
H138 C133 0.930 . S
H139 C134 0.930 . S
C140 O141 1.224 . S
C140 O159 1.247 . S
O141 C140 1.224 . S
N142 Co132 2.128 . S
N142 C143 1.355 1_545 S
N142 C145 1.311 . S
C143 N142 1.355 1_565 S
C143 C144 1.363 . S
C143 H155 0.929 . S
C144 C143 1.363 . S
C144 N146 1.375 . S
C144 H162 0.931 . S
C145 N142 1.311 . S
C145 N146 1.347 1_545 S
C145 H156 0.929 . S
N146 C144 1.375 . S
N146 C145 1.347 1_565 S
C147 C150 1.365 . S
C147 N152 1.328 . S
C147 H153 0.929 . S
C148 C149 1.362 . S
C148 C151 1.378 . S
C148 H163 0.929 . S
C149 C148 1.362 . S
C149 C150 1.366 . S
C150 C147 1.365 . S
C150 C149 1.366 . S
C150 H164 0.930 1_545 S
C151 C148 1.378 . S
C151 N152 1.315 . S
C151 H154 0.930 . S
N152 Co132 2.194 . S
N152 C147 1.328 . S
N152 C151 1.315 . S
H153 C147 0.929 . S
H154 C151 0.930 . S
H155 C143 0.929 . S
H156 C145 0.929 . S
O157 Co132 2.351 . S
O157 C160 1.244 . S
O158 Co132 2.155 . S
O158 C160 1.240 . S
O159 Co132 2.096 . S
O159 C140 1.247 . S
C160 O157 1.244 . S
C160 O158 1.240 . S
H161 C135 0.931 . S
H162 C144 0.931 . S
H163 C148 0.929 . S
H164 C150 0.930 1_565 S
Co165 N169 2.148 . S
Co165 N175 2.128 . S
Co165 N185 2.194 . S
Co165 O190 2.351 . S
Co165 O191 2.155 . S
Co165 O192 2.096 . S
C166 N169 1.301 . S
C166 N170 1.328 . S
C166 H171 0.930 . S
C167 C168 1.333 . S
C167 N169 1.317 . S
C167 H172 0.930 . S
C168 C167 1.333 . S
C168 N170 1.350 . S
C168 H194 0.931 . S
N169 Co165 2.148 . S
N169 C166 1.301 . S
N169 C167 1.317 . S
N170 C166 1.328 . S
N170 C168 1.350 . S
H171 C166 0.930 . S
H172 C167 0.930 . S
C173 O174 1.224 . S
C173 O192 1.247 . S
O174 C173 1.224 . S
N175 Co165 2.128 . S
N175 C176 1.355 1_455 S
N175 C178 1.311 . S
C176 N175 1.355 1_655 S
C176 C177 1.363 . S
C176 H188 0.929 . S
C177 C176 1.363 . S
C177 N179 1.375 . S
C177 H195 0.931 . S
C178 N175 1.311 . S
C178 N179 1.347 1_455 S
C178 H189 0.929 . S
N179 C177 1.375 . S
N179 C178 1.347 1_655 S
C180 C183 1.365 . S
C180 N185 1.328 . S
C180 H186 0.929 . S
C181 C182 1.362 . S
C181 C184 1.378 . S
C181 H196 0.929 . S
C182 C181 1.362 . S
C182 C183 1.366 . S
C183 C180 1.365 . S
C183 C182 1.366 . S
C183 H197 0.930 1_455 S
C184 C181 1.378 . S
C184 N185 1.315 . S
C184 H187 0.930 . S
N185 Co165 2.194 . S
N185 C180 1.328 . S
N185 C184 1.315 . S
H186 C180 0.929 . S
H187 C184 0.930 . S
H188 C176 0.929 . S
H189 C178 0.929 . S
O190 Co165 2.351 . S
O190 C193 1.244 . S
O191 Co165 2.155 . S
O191 C193 1.240 . S
O192 Co165 2.096 . S
O192 C173 1.247 . S
C193 O190 1.244 . S
C193 O191 1.240 . S
H194 C168 0.931 . S
H195 C177 0.931 . S
H196 C181 0.929 . S
H197 C183 0.930 1_655 S
Co198 N202 2.148 . S
Co198 N208 2.128 . S
Co198 N218 2.194 . S
Co198 O223 2.351 . S
Co198 O224 2.155 . S
Co198 O225 2.096 . S
C199 N202 1.301 . S
C199 N203 1.328 . S
C199 H204 0.930 . S
C200 C201 1.333 . S
C200 N202 1.317 . S
C200 H205 0.930 . S
C201 C200 1.333 . S
C201 N203 1.350 . S
C201 H227 0.931 . S
N202 Co198 2.148 . S
N202 C199 1.301 . S
N202 C200 1.317 . S
N203 C199 1.328 . S
N203 C201 1.350 . S
H204 C199 0.930 . S
H205 C200 0.930 . S
C206 O207 1.224 . S
C206 O225 1.247 . S
O207 C206 1.224 . S
N208 Co198 2.128 . S
N208 C209 1.355 1_565 S
N208 C211 1.311 . S
C209 N208 1.355 1_545 S
C209 C210 1.363 . S
C209 H221 0.929 . S
C210 C209 1.363 . S
C210 N212 1.375 . S
C210 H228 0.931 . S
C211 N208 1.311 . S
C211 N212 1.347 1_565 S
C211 H222 0.929 . S
N212 C210 1.375 . S
N212 C211 1.347 1_545 S
C213 C216 1.365 . S
C213 N218 1.328 . S
C213 H219 0.929 . S
C214 C215 1.362 . S
C214 C217 1.378 . S
C214 H229 0.929 . S
C215 C214 1.362 . S
C215 C216 1.366 . S
C216 C213 1.365 . S
C216 C215 1.366 . S
C216 H230 0.930 1_565 S
C217 C214 1.378 . S
C217 N218 1.315 . S
C217 H220 0.930 . S
N218 Co198 2.194 . S
N218 C213 1.328 . S
N218 C217 1.315 . S
H219 C213 0.929 . S
H220 C217 0.930 . S
H221 C209 0.929 . S
H222 C211 0.929 . S
O223 Co198 2.351 . S
O223 C226 1.244 . S
O224 Co198 2.155 . S
O224 C226 1.240 . S
O225 Co198 2.096 . S
O225 C206 1.247 . S
C226 O223 1.244 . S
C226 O224 1.240 . S
H227 C201 0.931 . S
H228 C210 0.931 . S
H229 C214 0.929 . S
H230 C216 0.930 1_545 S
Co231 N235 2.148 . S
Co231 N241 2.128 . S
Co231 N251 2.194 . S
Co231 O256 2.351 . S
Co231 O257 2.155 . S
Co231 O258 2.096 . S
C232 N235 1.301 . S
C232 N236 1.328 . S
C232 H237 0.930 . S
C233 C234 1.333 . S
C233 N235 1.317 . S
C233 H238 0.930 . S
C234 C233 1.333 . S
C234 N236 1.350 . S
C234 H260 0.931 . S
N235 Co231 2.148 . S
N235 C232 1.301 . S
N235 C233 1.317 . S
N236 C232 1.328 . S
N236 C234 1.350 . S
H237 C232 0.930 . S
H238 C233 0.930 . S
C239 O240 1.224 . S
C239 O258 1.247 . S
O240 C239 1.224 . S
N241 Co231 2.128 . S
N241 C242 1.355 1_655 S
N241 C244 1.311 . S
C242 N241 1.355 1_455 S
C242 C243 1.363 . S
C242 H254 0.929 . S
C243 C242 1.363 . S
C243 N245 1.375 . S
C243 H261 0.931 . S
C244 N241 1.311 . S
C244 N245 1.347 1_655 S
C244 H255 0.929 . S
N245 C243 1.375 . S
N245 C244 1.347 1_455 S
C246 C249 1.365 . S
C246 N251 1.328 . S
C246 H252 0.929 . S
C247 C248 1.362 . S
C247 C250 1.378 . S
C247 H262 0.929 . S
C248 C247 1.362 . S
C248 C249 1.366 . S
C249 C246 1.365 . S
C249 C248 1.366 . S
C249 H263 0.930 1_655 S
C250 C247 1.378 . S
C250 N251 1.315 . S
C250 H253 0.930 . S
N251 Co231 2.194 . S
N251 C246 1.328 . S
N251 C250 1.315 . S
H252 C246 0.929 . S
H253 C250 0.930 . S
H254 C242 0.929 . S
H255 C244 0.929 . S
O256 Co231 2.351 . S
O256 C259 1.244 . S
O257 Co231 2.155 . S
O257 C259 1.240 . S
O258 Co231 2.096 . S
O258 C239 1.247 . S
C259 O256 1.244 . S
C259 O257 1.240 . S
H260 C234 0.931 . S
H261 C243 0.931 . S
H262 C247 0.929 . S
H263 C249 0.930 1_455 S
H264 C270 0.930 . S
H265 C274 0.930 . S
H266 C279 0.929 . S
H267 C277 0.929 . S
H268 C272 0.929 . S
H269 C278 0.929 . S
C270 H264 0.930 . S
C270 C271 1.367 . S
C270 C278 1.378 . S
C271 C270 1.367 . S
C271 C279 1.433 . S
C272 H268 0.929 . S
C272 C274 1.378 . S
C272 C276 1.350 . S
C273 C276 1.463 . S
C273 C278 1.350 . S
C273 N281 1.427 . S
C274 H265 0.930 . S
C274 C272 1.378 . S
C274 C275 1.367 . S
C275 C274 1.367 . S
C275 C277 1.433 . S
C276 C272 1.350 . S
C276 C273 1.463 . S
C276 N280 1.427 . S
C277 H267 0.929 . S
C277 C275 1.433 . S
C277 N280 1.384 . S
C278 H269 0.929 . S
C278 C270 1.378 . S
C278 C273 1.350 . S
C279 H266 0.929 . S
C279 C271 1.433 . S
C279 N281 1.384 . S
N280 C276 1.427 . S
N280 C277 1.384 . S
N281 C273 1.427 . S
N281 C279 1.384 . S
H282 C288 0.930 . S
H283 C292 0.930 1_455 S
H284 C297 0.929 . S
H285 C295 0.929 . S
H286 C290 0.929 . S
H287 C296 0.929 . S
C288 H282 0.930 . S
C288 C289 1.367 . S
C288 C296 1.378 . S
C289 C288 1.367 . S
C289 C297 1.433 . S
C290 H286 0.929 . S
C290 C292 1.378 . S
C290 C294 1.350 . S
C291 C294 1.463 . S
C291 C296 1.350 . S
C291 N299 1.427 . S
C292 H283 0.930 1_655 S
C292 C290 1.378 . S
C292 C293 1.367 . S
C293 C292 1.367 . S
C293 C295 1.433 . S
C294 C290 1.350 . S
C294 C291 1.463 . S
C294 N298 1.427 . S
C295 H285 0.929 . S
C295 C293 1.433 . S
C295 N298 1.384 . S
C296 H287 0.929 . S
C296 C288 1.378 . S
C296 C291 1.350 . S
C297 H284 0.929 . S
C297 C289 1.433 . S
C297 N299 1.384 . S
N298 C294 1.427 . S
N298 C295 1.384 . S
N299 C291 1.427 . S
N299 C297 1.384 . S
H300 C306 0.930 . S
H301 C310 0.930 . S
H302 C315 0.929 . S
H303 C313 0.929 . S
H304 C308 0.929 . S
H305 C314 0.929 . S
C306 H300 0.930 . S
C306 C307 1.367 . S
C306 C314 1.378 . S
C307 C306 1.367 . S
C307 C315 1.433 . S
C308 H304 0.929 . S
C308 C310 1.378 . S
C308 C312 1.350 . S
C309 C312 1.463 . S
C309 C314 1.350 . S
C309 N317 1.427 . S
C310 H301 0.930 . S
C310 C308 1.378 . S
C310 C311 1.367 . S
C311 C310 1.367 . S
C311 C313 1.433 . S
C312 C308 1.350 . S
C312 C309 1.463 . S
C312 N316 1.427 . S
C313 H303 0.929 . S
C313 C311 1.433 . S
C313 N316 1.384 . S
C314 H305 0.929 . S
C314 C306 1.378 . S
C314 C309 1.350 . S
C315 H302 0.929 . S
C315 C307 1.433 . S
C315 N317 1.384 . S
N316 C312 1.427 . S
N316 C313 1.384 . S
N317 C309 1.427 . S
N317 C315 1.384 . S
H318 C324 0.930 . S
H319 C328 0.930 . S
H320 C333 0.929 . S
H321 C331 0.929 . S
H322 C326 0.929 . S
H323 C332 0.929 . S
C324 H318 0.930 . S
C324 C325 1.367 . S
C324 C332 1.378 . S
C325 C324 1.367 . S
C325 C333 1.433 . S
C326 H322 0.929 . S
C326 C328 1.378 . S
C326 C330 1.350 . S
C327 C330 1.463 . S
C327 C332 1.350 . S
C327 N335 1.427 . S
C328 H319 0.930 . S
C328 C326 1.378 . S
C328 C329 1.367 . S
C329 C328 1.367 . S
C329 C331 1.433 . S
C330 C326 1.350 . S
C330 C327 1.463 . S
C330 N334 1.427 . S
C331 H321 0.929 . S
C331 C329 1.433 . S
C331 N334 1.384 . S
C332 H323 0.929 . S
C332 C324 1.378 . S
C332 C327 1.350 . S
C333 H320 0.929 . S
C333 C325 1.433 . S
C333 N335 1.384 . S
N334 C330 1.427 . S
N334 C331 1.384 . S
N335 C327 1.427 . S
N335 C333 1.384 . S
H336 C342 0.930 . S
H337 C346 0.930 . S
H338 C351 0.929 . S
H339 C349 0.929 . S
H340 C344 0.929 . S
H341 C350 0.929 . S
C342 H336 0.930 . S
C342 C343 1.367 . S
C342 C350 1.378 . S
C343 C342 1.367 . S
C343 C351 1.433 . S
C344 H340 0.929 . S
C344 C346 1.378 1_556 S
C344 C348 1.350 . S
C345 C348 1.463 . S
C345 C350 1.350 . S
C345 N353 1.427 . S
C346 H337 0.930 . S
C346 C344 1.378 1_554 S
C346 C347 1.367 . S
C347 C346 1.367 . S
C347 C349 1.433 . S
C348 C344 1.350 . S
C348 C345 1.463 . S
C348 N352 1.427 1_556 S
C349 H339 0.929 . S
C349 C347 1.433 . S
C349 N352 1.384 . S
C350 H341 0.929 . S
C350 C342 1.378 . S
C350 C345 1.350 . S
C351 H338 0.929 . S
C351 C343 1.433 . S
C351 N353 1.384 . S
N352 C348 1.427 1_554 S
N352 C349 1.384 . S
N353 C345 1.427 . S
N353 C351 1.384 . S
H354 C360 0.930 . S
H355 C364 0.930 . S
H356 C369 0.929 . S
H357 C367 0.929 . S
H358 C362 0.929 1_554 S
H359 C368 0.929 . S
C360 H354 0.930 . S
C360 C361 1.367 . S
C360 C368 1.378 . S
C361 C360 1.367 . S
C361 C369 1.433 . S
C362 H358 0.929 1_556 S
C362 C364 1.378 . S
C362 C366 1.350 1_556 S
C363 C366 1.463 . S
C363 C368 1.350 . S
C363 N371 1.427 . S
C364 H355 0.930 . S
C364 C362 1.378 . S
C364 C365 1.367 . S
C365 C364 1.367 . S
C365 C367 1.433 . S
C366 C362 1.350 1_554 S
C366 C363 1.463 . S
C366 N370 1.427 1_554 S
C367 H357 0.929 . S
C367 C365 1.433 . S
C367 N370 1.384 . S
C368 H359 0.929 . S
C368 C360 1.378 . S
C368 C363 1.350 . S
C369 H356 0.929 . S
C369 C361 1.433 . S
C369 N371 1.384 . S
N370 C366 1.427 1_556 S
N370 C367 1.384 . S
N371 C363 1.427 . S
N371 C369 1.384 . S
H372 C378 0.930 . S
H373 C382 0.930 . S
H374 C387 0.929 . S
H375 C385 0.929 1_565 S
H376 C380 0.929 . S
H377 C386 0.929 . S
C378 H372 0.930 . S
C378 C379 1.367 . S
C378 C386 1.378 . S
C379 C378 1.367 . S
C379 C387 1.433 . S
C380 H376 0.929 . S
C380 C382 1.378 . S
C380 C384 1.350 1_554 S
C381 C384 1.463 . S
C381 C386 1.350 . S
C381 N389 1.427 . S
C382 H373 0.930 . S
C382 C380 1.378 . S
C382 C383 1.367 . S
C383 C382 1.367 . S
C383 C385 1.433 . S
C384 C380 1.350 1_556 S
C384 C381 1.463 . S
C384 N388 1.427 . S
C385 H375 0.929 1_545 S
C385 C383 1.433 . S
C385 N388 1.384 1_554 S
C386 H377 0.929 . S
C386 C378 1.378 . S
C386 C381 1.350 . S
C387 H374 0.929 . S
C387 C379 1.433 . S
C387 N389 1.384 . S
N388 C384 1.427 . S
N388 C385 1.384 1_556 S
N389 C381 1.427 . S
N389 C387 1.384 . S
H390 C396 0.930 . S
H391 C400 0.930 . S
H392 C405 0.929 . S
H393 C403 0.929 . S
H394 C398 0.929 . S
H395 C404 0.929 . S
C396 H390 0.930 . S
C396 C397 1.367 . S
C396 C404 1.378 . S
C397 C396 1.367 . S
C397 C405 1.433 . S
C398 H394 0.929 . S
C398 C400 1.378 . S
C398 C402 1.350 . S
C399 C402 1.463 . S
C399 C404 1.350 1_554 S
C399 N407 1.427 . S
C400 H391 0.930 . S
C400 C398 1.378 . S
C400 C401 1.367 . S
C401 C400 1.367 . S
C401 C403 1.433 . S
C402 C398 1.350 . S
C402 C399 1.463 . S
C402 N406 1.427 . S
C403 H393 0.929 . S
C403 C401 1.433 . S
C403 N406 1.384 . S
C404 H395 0.929 . S
C404 C396 1.378 . S
C404 C399 1.350 1_556 S
C405 H392 0.929 . S
C405 C397 1.433 . S
C405 N407 1.384 1_556 S
N406 C402 1.427 . S
N406 C403 1.384 . S
N407 C399 1.427 . S
N407 C405 1.384 1_554 S
H408 C414 0.930 . S
H409 C418 0.930 . S
H410 C423 0.929 . S
H411 C421 0.929 . S
H412 C416 0.929 . S
H413 C422 0.929 . S
C414 H408 0.930 . S
C414 C415 1.367 1_545 S
C414 C422 1.378 . S
C415 C414 1.367 1_565 S
C415 C423 1.433 . S
C416 H412 0.929 . S
C416 C418 1.378 . S
C416 C420 1.350 1_565 S
C417 C420 1.463 1_565 S
C417 C422 1.350 1_565 S
C417 N425 1.427 . S
C418 H409 0.930 . S
C418 C416 1.378 . S
C418 C419 1.367 1_565 S
C419 C418 1.367 1_545 S
C419 C421 1.433 . S
C420 C416 1.350 1_545 S
C420 C417 1.463 1_545 S
C420 N424 1.427 . S
C421 H411 0.929 . S
C421 C419 1.433 . S
C421 N424 1.384 . S
C422 H413 0.929 . S
C422 C414 1.378 . S
C422 C417 1.350 1_545 S
C423 H410 0.929 . S
C423 C415 1.433 . S
C423 N425 1.384 . S
N424 C420 1.427 . S
N424 C421 1.384 . S
N425 C417 1.427 . S
N425 C423 1.384 . S
H426 C432 0.930 . S
H427 C436 0.930 . S
H428 C441 0.929 . S
H429 C439 0.929 . S
H430 C434 0.929 . S
H431 C440 0.929 . S
C432 H426 0.930 . S
C432 C433 1.367 1_655 S
C432 C440 1.378 . S
C433 C432 1.367 1_455 S
C433 C441 1.433 . S
C434 H430 0.929 . S
C434 C436 1.378 . S
C434 C438 1.350 1_455 S
C435 C438 1.463 1_455 S
C435 C440 1.350 1_455 S
C435 N443 1.427 . S
C436 H427 0.930 . S
C436 C434 1.378 . S
C436 C437 1.367 1_455 S
C437 C436 1.367 1_655 S
C437 C439 1.433 . S
C438 C434 1.350 1_655 S
C438 C435 1.463 1_655 S
C438 N442 1.427 . S
C439 H429 0.929 . S
C439 C437 1.433 . S
C439 N442 1.384 . S
C440 H431 0.929 . S
C440 C432 1.378 . S
C440 C435 1.350 1_655 S
C441 H428 0.929 . S
C441 C433 1.433 . S
C441 N443 1.384 . S
N442 C438 1.427 . S
N442 C439 1.384 . S
N443 C435 1.427 . S
N443 C441 1.384 . S
H444 C450 0.930 . S
H445 C454 0.930 . S
H446 C459 0.929 . S
H447 C457 0.929 . S
H448 C452 0.929 1_545 S
H449 C458 0.929 1_565 S
C450 H444 0.930 . S
C450 C451 1.367 . S
C450 C458 1.378 . S
C451 C450 1.367 . S
C451 C459 1.433 . S
C452 H448 0.929 1_565 S
C452 C454 1.378 . S
C452 C456 1.350 . S
C453 C456 1.463 1_545 S
C453 C458 1.350 . S
C453 N461 1.427 . S
C454 H445 0.930 . S
C454 C452 1.378 . S
C454 C455 1.367 . S
C455 C454 1.367 . S
C455 C457 1.433 . S
C456 C452 1.350 . S
C456 C453 1.463 1_565 S
C456 N460 1.427 . S
C457 H447 0.929 . S
C457 C455 1.433 . S
C457 N460 1.384 . S
C458 H449 0.929 1_545 S
C458 C450 1.378 . S
C458 C453 1.350 . S
C459 H446 0.929 . S
C459 C451 1.433 . S
C459 N461 1.384 . S
N460 C456 1.427 . S
N460 C457 1.384 . S
N461 C453 1.427 . S
N461 C459 1.384 . S
H462 C468 0.930 . S
H463 C472 0.930 . S
H464 C477 0.929 . S
H465 C475 0.929 . S
H466 C470 0.929 . S
H467 C476 0.929 . S
C468 H462 0.930 . S
C468 C469 1.367 . S
C468 C476 1.378 . S
C469 C468 1.367 . S
C469 C477 1.433 1_455 S
C470 H466 0.929 . S
C470 C472 1.378 . S
C470 C474 1.350 . S
C471 C474 1.463 1_455 S
C471 C476 1.350 . S
C471 N479 1.427 1_455 S
C472 H463 0.930 . S
C472 C470 1.378 . S
C472 C473 1.367 . S
C473 C472 1.367 . S
C473 C475 1.433 1_655 S
C474 C470 1.350 . S
C474 C471 1.463 1_655 S
C474 N478 1.427 1_655 S
C475 H465 0.929 . S
C475 C473 1.433 1_455 S
C475 N478 1.384 . S
C476 H467 0.929 . S
C476 C468 1.378 . S
C476 C471 1.350 . S
C477 H464 0.929 . S
C477 C469 1.433 1_655 S
C477 N479 1.384 . S
N478 C474 1.427 1_455 S
N478 C475 1.384 . S
N479 C471 1.427 1_655 S
N479 C477 1.384 . S
H480 C486 0.930 . S
H481 C490 0.930 . S
H482 C495 0.929 . S
H483 C493 0.929 . S
H484 C488 0.929 . S
H485 C494 0.929 . S
C486 H480 0.930 . S
C486 C487 1.367 1_565 S
C486 C494 1.378 . S
C487 C486 1.367 1_545 S
C487 C495 1.433 . S
C488 H484 0.929 . S
C488 C490 1.378 . S
C488 C492 1.366 . S
C489 C492 1.462 1_465 S
C489 C494 1.366 . S
C489 N497 1.410 1_565 S
C490 H481 0.930 . S
C490 C488 1.378 . S
C490 C491 1.367 1_545 S
C491 C490 1.367 1_565 S
C491 C493 1.433 . S
C492 C488 1.366 . S
C492 C489 1.462 1_645 S
C492 N496 1.410 1_545 S
C493 H483 0.929 . S
C493 C491 1.433 . S
C493 N496 1.384 . S
C494 H485 0.929 . S
C494 C486 1.378 . S
C494 C489 1.366 . S
C495 H482 0.929 . S
C495 C487 1.433 . S
C495 N497 1.384 . S
N496 C492 1.410 1_565 S
N496 C493 1.384 . S
N497 C489 1.410 1_545 S
N497 C495 1.384 . S
H498 C504 0.930 . S
H499 C508 0.930 . S
H500 C513 0.929 . S
H501 C511 0.929 . S
H502 C506 0.929 . S
H503 C512 0.929 . S
C504 H498 0.930 . S
C504 C505 1.367 1_655 S
C504 C512 1.378 . S
C505 C504 1.367 1_455 S
C505 C513 1.433 . S
C506 H502 0.929 . S
C506 C508 1.378 . S
C506 C510 1.350 . S
C507 C510 1.463 1_665 S
C507 C512 1.350 . S
C507 N515 1.428 1_655 S
C508 H499 0.930 . S
C508 C506 1.378 . S
C508 C509 1.367 1_455 S
C509 C508 1.367 1_655 S
C509 C511 1.433 . S
C510 C506 1.350 . S
C510 C507 1.463 1_445 S
C510 N514 1.428 1_455 S
C511 H501 0.929 . S
C511 C509 1.433 . S
C511 N514 1.384 . S
C512 H503 0.929 . S
C512 C504 1.378 . S
C512 C507 1.350 . S
C513 H500 0.929 . S
C513 C505 1.433 . S
C513 N515 1.384 . S
N514 C510 1.428 1_655 S
N514 C511 1.384 . S
N515 C507 1.428 1_455 S
N515 C513 1.384 . S
H516 C522 0.930 . S
H517 C526 0.930 . S
H518 C531 0.929 . S
H519 C529 0.929 . S
H520 C524 0.929 . S
H521 C530 0.929 . S
C522 H516 0.930 . S
C522 C523 1.367 . S
C522 C530 1.378 . S
C523 C522 1.367 . S
C523 C531 1.433 1_565 S
C524 H520 0.929 . S
C524 C526 1.378 . S
C524 C528 1.350 . S
C525 C528 1.463 1_465 S
C525 C530 1.350 . S
C525 N533 1.427 1_565 S
C526 H517 0.930 . S
C526 C524 1.378 . S
C526 C527 1.367 . S
C527 C526 1.367 . S
C527 C529 1.433 1_545 S
C528 C524 1.350 . S
C528 C525 1.463 1_645 S
C528 N532 1.427 1_545 S
C529 H519 0.929 . S
C529 C527 1.433 1_565 S
C529 N532 1.384 . S
C530 H521 0.929 . S
C530 C522 1.378 . S
C530 C525 1.350 . S
C531 H518 0.929 . S
C531 C523 1.433 1_545 S
C531 N533 1.384 . S
N532 C528 1.427 1_565 S
N532 C529 1.384 . S
N533 C525 1.427 1_545 S
N533 C531 1.384 . S
H534 C540 0.930 . S
H535 C544 0.930 . S
H536 C549 0.929 . S
H537 C547 0.929 . S
H538 C542 0.929 . S
H539 C548 0.929 . S
C540 H534 0.930 . S
C540 C541 1.367 . S
C540 C548 1.378 . S
C541 C540 1.367 . S
C541 C549 1.433 1_655 S
C542 H538 0.929 . S
C542 C544 1.378 . S
C542 C546 1.355 . S
C543 C546 1.461 1_665 S
C543 C548 1.355 . S
C543 N551 1.423 1_655 S
C544 H535 0.930 . S
C544 C542 1.378 . S
C544 C545 1.367 . S
C545 C544 1.367 . S
C545 C547 1.433 1_455 S
C546 C542 1.355 . S
C546 C543 1.461 1_445 S
C546 N550 1.423 1_455 S
C547 H537 0.929 . S
C547 C545 1.433 1_655 S
C547 N550 1.384 . S
C548 H539 0.929 . S
C548 C540 1.378 . S
C548 C543 1.355 . S
C549 H536 0.929 . S
C549 C541 1.433 1_455 S
C549 N551 1.384 . S
N550 C546 1.423 1_655 S
N550 C547 1.384 . S
N551 C543 1.423 1_455 S
N551 C549 1.384 . S
H552 C558 0.930 . S
H553 C562 0.930 . S
H554 C567 0.929 . S
H555 C565 0.929 . S
H556 C560 0.929 . S
H557 C566 0.929 . S
C558 H552 0.930 . S
C558 C559 1.367 . S
C558 C566 1.378 . S
C559 C558 1.367 . S
C559 C567 1.433 . S
C560 H556 0.929 . S
C560 C562 1.378 . S
C560 C564 1.350 . S
C561 C564 1.463 . S
C561 C566 1.350 . S
C561 N569 1.427 . S
C562 H553 0.930 . S
C562 C560 1.378 . S
C562 C563 1.367 . S
C563 C562 1.367 . S
C563 C565 1.433 . S
C564 C560 1.350 . S
C564 C561 1.463 . S
C564 N568 1.427 . S
C565 H555 0.929 . S
C565 C563 1.433 . S
C565 N568 1.384 . S
C566 H557 0.929 . S
C566 C558 1.378 . S
C566 C561 1.350 . S
C567 H554 0.929 . S
C567 C559 1.433 . S
C567 N569 1.384 . S
N568 C564 1.427 . S
N568 C565 1.384 . S
N569 C561 1.427 . S
N569 C567 1.384 . S
H570 C576 0.930 . S
H571 C580 0.930 . S
H572 C585 0.929 . S
H573 C583 0.929 . S
H574 C578 0.929 . S
H575 C584 0.929 . S
C576 H570 0.930 . S
C576 C577 1.367 . S
C576 C584 1.378 . S
C577 C576 1.367 . S
C577 C585 1.433 . S
C578 H574 0.929 . S
C578 C580 1.378 . S
C578 C582 1.350 . S
C579 C582 1.463 . S
C579 C584 1.350 . S
C579 N587 1.427 . S
C580 H571 0.930 . S
C580 C578 1.378 . S
C580 C581 1.367 . S
C581 C580 1.367 . S
C581 C583 1.433 . S
C582 C578 1.350 . S
C582 C579 1.463 . S
C582 N586 1.427 . S
C583 H573 0.929 . S
C583 C581 1.433 . S
C583 N586 1.384 . S
C584 H575 0.929 . S
C584 C576 1.378 . S
C584 C579 1.350 . S
C585 H572 0.929 . S
C585 C577 1.433 . S
C585 N587 1.384 . S
N586 C582 1.427 . S
N586 C583 1.384 . S
N587 C579 1.427 . S
N587 C585 1.384 . S
H588 C594 0.930 . S
H589 C598 0.930 . S
H590 C603 0.929 . S
H591 C601 0.929 . S
H592 C596 0.929 . S
H593 C602 0.929 . S
C594 H588 0.930 . S
C594 C595 1.367 . S
C594 C602 1.378 . S
C595 C594 1.367 . S
C595 C603 1.433 . S
C596 H592 0.929 . S
C596 C598 1.378 . S
C596 C600 1.350 . S
C597 C600 1.463 . S
C597 C602 1.350 . S
C597 N605 1.427 . S
C598 H589 0.930 . S
C598 C596 1.378 . S
C598 C599 1.367 . S
C599 C598 1.367 . S
C599 C601 1.433 . S
C600 C596 1.350 . S
C600 C597 1.463 . S
C600 N604 1.427 . S
C601 H591 0.929 . S
C601 C599 1.433 . S
C601 N604 1.384 . S
C602 H593 0.929 . S
C602 C594 1.378 . S
C602 C597 1.350 . S
C603 H590 0.929 . S
C603 C595 1.433 . S
C603 N605 1.384 . S
N604 C600 1.427 . S
N604 C601 1.384 . S
N605 C597 1.427 . S
N605 C603 1.384 . S
H606 C612 0.930 . S
H607 C616 0.930 . S
H608 C621 0.929 . S
H609 C619 0.929 . S
H610 C614 0.929 . S
H611 C620 0.929 . S
C612 H606 0.930 . S
C612 C613 1.367 . S
C612 C620 1.378 . S
C613 C612 1.367 . S
C613 C621 1.433 . S
C614 H610 0.929 . S
C614 C616 1.378 . S
C614 C618 1.350 . S
C615 C618 1.463 . S
C615 C620 1.350 . S
C615 N623 1.427 . S
C616 H607 0.930 . S
C616 C614 1.378 . S
C616 C617 1.367 . S
C617 C616 1.367 . S
C617 C619 1.433 . S
C618 C614 1.350 . S
C618 C615 1.463 . S
C618 N622 1.427 . S
C619 H609 0.929 . S
C619 C617 1.433 . S
C619 N622 1.384 . S
C620 H611 0.929 . S
C620 C612 1.378 . S
C620 C615 1.350 . S
C621 H608 0.929 . S
C621 C613 1.433 . S
C621 N623 1.384 . S
N622 C618 1.427 . S
N622 C619 1.384 . S
N623 C615 1.427 . S
N623 C621 1.384 . S
C271 N14 1.024 . S
C275 C41 0.993 . S
C289 C74 1.018 . S
C293 N47 1.025 . S
C307 N80 1.020 . S
C311 C107 1.018 . S
C325 C8 1.017 . S
C329 N113 1.018 . S
C343 C239 0.998 . S
C347 N146 1.029 . S
C361 C140 1.018 . S
C365 N179 1.022 . S
C379 C173 1.005 . S
C383 N212 1.011 . S
C397 N245 1.019 . S
C401 C206 1.017 . S
C415 C83 1.309 . S
C419 C17 1.311 . S
C433 C50 1.310 . S
C437 C116 1.311 . S
C451 C149 1.311 . S
C455 C215 1.308 . S
C469 C182 1.307 . S
C473 C248 1.310 . S
C487 C28 0.638 . S
C491 C94 0.642 . S
C505 C61 0.648 . S
C509 C127 0.617 . S
C523 C226 0.600 . S
C527 C160 0.633 . S
C541 C259 0.603 . S
C545 C193 0.639 . S
C559 N5 1.689 . S
C563 N170 1.689 . S
C577 N203 1.691 . S
C581 N38 1.688 . S
C595 N236 1.691 . S
C599 N71 1.688 . S
C613 N104 1.689 . S
C617 N137 1.689 . S
