# Generated by pormake.
# Topology rob, (6)-cn, num edge types: 1
# Building blocks:
#     Node 0, Type 0, BuildingBlock: INOVEN_clean_sbu_0, # of connection points: 6
#     Node 1, Type 0, BuildingBlock: INOVEN_clean_sbu_0, # of connection points: 6
#     Node 2, Type 0, BuildingBlock: INOVEN_clean_sbu_0, # of connection points: 6
#     Node 3, Type 0, BuildingBlock: INOVEN_clean_sbu_0, # of connection points: 6
#     Edge 4, Type (0, 0), BuildingBlock: KIFKEQ_clean_linker_1, # of connection points: 2
#     Edge 5, Type (0, 0), BuildingBlock: KIFKEQ_clean_linker_1, # of connection points: 2
#     Edge 6, Type (0, 0), BuildingBlock: KIFKEQ_clean_linker_1, # of connection points: 2
#     Edge 7, Type (0, 0), BuildingBlock: KIFKEQ_clean_linker_1, # of connection points: 2
#     Edge 8, Type (0, 0), BuildingBlock: KIFKEQ_clean_linker_1, # of connection points: 2
#     Edge 9, Type (0, 0), BuildingBlock: KIFKEQ_clean_linker_1, # of connection points: 2
#     Edge 10, Type (0, 0), BuildingBlock: KIFKEQ_clean_linker_1, # of connection points: 2
#     Edge 11, Type (0, 0), BuildingBlock: KIFKEQ_clean_linker_1, # of connection points: 2
#     Edge 12, Type (0, 0), BuildingBlock: KIFKEQ_clean_linker_1, # of connection points: 2
#     Edge 13, Type (0, 0), BuildingBlock: KIFKEQ_clean_linker_1, # of connection points: 2
#     Edge 14, Type (0, 0), BuildingBlock: KIFKEQ_clean_linker_1, # of connection points: 2
#     Edge 15, Type (0, 0), BuildingBlock: KIFKEQ_clean_linker_1, # of connection points: 2
# Relax obj value: 0.124
# Max RMSD: 0.186
# Mean RMSD: 0.186
data_MOF--net-rob--node1-INOVEN_clean_sbu_0--edge1-KIFKEQ_clean_linker_1
_symmetry_space_group_name_H-M    P1
_symmetry_Int_Tables_number       1
_symmetry_cell_setting            triclinic
loop_
_symmetry_equiv_pos_as_xyz
'x, y, z'
_cell_length_a     16.588126
_cell_length_b     23.861298
_cell_length_c     37.546194
_cell_angle_alpha  90.003774
_cell_angle_beta   124.50796
_cell_angle_gamma 89.979701
loop_
_atom_site_label
_atom_site_type_symbol
_atom_site_fract_x
_atom_site_fract_y
_atom_site_fract_z
_atom_type_partial_charge
Gd0 Gd 0.17175 0.29578 0.99223 0.0
Gd1 Gd 0.35368 0.24715 0.00225 0.0
C2 C 0.36664 0.264 0.08793 0.0
C3 C 0.03159 0.31306 0.00211 0.0
C4 C 0.02421 0.30884 0.03948 0.0
C5 C 0.9748 0.35056 0.04629 0.0
C6 C 0.07019 0.26515 0.06972 0.0
C7 C 0.01824 0.30552 0.11341 0.0
C8 C 0.06708 0.26346 0.1062 0.0
C9 C 0.97183 0.349 0.08282 0.0
C10 C 0.29058 0.37286 0.99241 0.0
C11 C 0.16139 0.28185 0.90702 0.0
C12 C 0.49088 0.22388 0.99141 0.0
C13 C 0.49945 0.22728 0.95426 0.0
C14 C 0.53133 0.18025 0.94302 0.0
C15 C 0.47183 0.27578 0.92854 0.0
C16 C 0.50622 0.22952 0.88053 0.0
C17 C 0.4756 0.27694 0.89219 0.0
C18 C 0.53444 0.18125 0.90652 0.0
C19 C 0.23316 0.17177 0.0026 0.0
O20 O 0.27095 0.27143 0.06241 0.0
O21 O 0.42112 0.25949 0.07265 0.0
O22 O 0.08797 0.35309 0.00422 0.0
O23 O 0.04216 0.26603 0.98715 0.0
O24 O 0.19585 0.37729 0.96956 0.0
O25 O 0.31843 0.32975 0.01616 0.0
O26 O 0.25718 0.27514 0.93286 0.0
O27 O 0.10608 0.28459 0.92194 0.0
O28 O 0.42938 0.18648 0.98809 0.0
O29 O 0.48669 0.27118 0.00798 0.0
O30 O 0.32785 0.16778 0.02705 0.0
O31 O 0.20709 0.21376 0.97801 0.0
H32 H 0.93964 0.38493 0.02363 0.0
H33 H 0.10947 0.23254 0.06545 0.0
H34 H 0.10263 0.22895 0.12864 0.0
H35 H 0.93487 0.38262 0.08751 0.0
H36 H 0.55278 0.14235 0.96224 0.0
H37 H 0.44575 0.31254 0.93605 0.0
H38 H 0.45228 0.31454 0.8726 0.0
H39 H 0.55939 0.14424 0.89875 0.0
Gd40 Gd 0.67132 0.79334 0.9922 0.0
Gd41 Gd 0.85367 0.74895 0.00102 0.0
C42 C 0.86706 0.76077 0.08706 0.0
C43 C 0.53041 0.80881 0.00185 0.0
C44 C 0.52285 0.80442 0.03913 0.0
C45 C 0.47419 0.84641 0.04617 0.0
C46 C 0.56855 0.76057 0.06923 0.0
C47 C 0.5191 0.80172 0.11353 0.0
C48 C 0.56668 0.75922 0.10602 0.0
C49 C 0.47223 0.8451 0.08294 0.0
C50 C 0.78812 0.87323 0.99361 0.0
C51 C 0.65995 0.78357 0.90651 0.0
C52 C 0.99237 0.72837 0.99065 0.0
C53 C 1.00097 0.73271 0.95365 0.0
C54 C 0.04382 0.68874 0.94513 0.0
C55 C 0.96206 0.77868 0.92528 0.0
C56 C 1.00745 0.73601 0.8799 0.0
C57 C 0.96542 0.78036 0.88887 0.0
C58 C 0.04701 0.69029 0.90868 0.0
C59 C 0.73558 0.67054 0.00025 0.0
O60 O 0.77068 0.76513 0.06173 0.0
O61 O 0.92119 0.7614 0.07149 0.0
O62 O 0.58568 0.84945 0.00387 0.0
O63 O 0.5427 0.76199 0.98726 0.0
O64 O 0.69329 0.87646 0.9704 0.0
O65 O 0.81687 0.82958 0.01672 0.0
O66 O 0.75632 0.77959 0.93209 0.0
O67 O 0.60533 0.78204 0.92182 0.0
O68 O 0.93214 0.68999 0.98718 0.0
O69 O 0.98573 0.77535 0.00684 0.0
O70 O 0.83036 0.66779 0.02494 0.0
O71 O 0.70826 0.71319 0.97629 0.0
H72 H 0.43868 0.88068 0.02344 0.0
H73 H 0.60709 0.72777 0.0647 0.0
H74 H 0.60454 0.72558 0.12911 0.0
H75 H 0.43379 0.87807 0.08736 0.0
H76 H 0.07341 0.65262 0.96633 0.0
H77 H 0.92815 0.81312 0.93098 0.0
H78 H 0.93534 0.81658 0.86785 0.0
H79 H 0.07853 0.65495 0.90257 0.0
Gd80 Gd 0.35761 0.78614 0.50245 0.0
Gd81 Gd 0.1726 0.74395 0.49218 0.0
C82 C 0.16162 0.75636 0.40657 0.0
C83 C 0.50052 0.79832 0.49367 0.0
C84 C 0.50496 0.80035 0.45554 0.0
C85 C 0.42252 0.81614 0.41497 0.0
C86 C 0.59072 0.7846 0.45914 0.0
C87 C 0.51165 0.80055 0.38192 0.0
C88 C 0.59417 0.78475 0.4227 0.0
C89 C 0.42574 0.81616 0.37856 0.0
C90 C 0.24104 0.86767 0.49939 0.0
C91 C 0.36534 0.77737 0.5872 0.0
C92 C 0.03197 0.72499 0.50155 0.0
C93 C 0.02196 0.72956 0.53817 0.0
C94 C 0.98265 0.68455 0.54763 0.0
C95 C 0.05598 0.77688 0.56526 0.0
C96 C 1.01352 0.73331 0.6113 0.0
C97 C 0.05139 0.77881 0.60135 0.0
C98 C 0.97869 0.68629 0.58387 0.0
C99 C 0.2905 0.66417 0.49428 0.0
O100 O 0.25784 0.76112 0.43226 0.0
O101 O 0.10671 0.756 0.42178 0.0
O102 O 0.45657 0.84041 0.49825 0.0
O103 O 0.47617 0.7499 0.50128 0.0
O104 O 0.33592 0.87043 0.52293 0.0
O105 O 0.21224 0.82371 0.47664 0.0
O106 O 0.26886 0.77509 0.56103 0.0
O107 O 0.421 0.77379 0.57249 0.0
O108 O 0.09147 0.68596 0.50516 0.0
O109 O 0.04046 0.77177 0.48574 0.0
O110 O 0.19576 0.66229 0.46878 0.0
O111 O 0.31788 0.70687 0.5182 0.0
H112 H 0.35527 0.82817 0.41132 0.0
H113 H 0.655 0.77208 0.49013 0.0
H114 H 0.6618 0.77305 0.42658 0.0
H115 H 0.36032 0.82762 0.34763 0.0
H116 H 0.95624 0.64759 0.52729 0.0
H117 H 0.08764 0.81202 0.55902 0.0
H118 H 0.07982 0.81534 0.62211 0.0
H119 H 0.9482 0.65082 0.59041 0.0
Gd120 Gd 0.85656 0.28978 0.50301 0.0
Gd121 Gd 0.67534 0.24015 0.49288 0.0
C122 C 0.6626 0.25764 0.40728 0.0
C123 C 0.99595 0.3088 0.49294 0.0
C124 C 1.00366 0.30576 0.45554 0.0
C125 C 0.03446 0.35308 0.44408 0.0
C126 C 0.97647 0.25724 0.42985 0.0
C127 C 1.00933 0.304 0.38155 0.0
C128 C 0.97977 0.25632 0.39339 0.0
C129 C 0.03693 0.35232 0.40742 0.0
C130 C 0.73691 0.36613 0.5031 0.0
C131 C 0.86721 0.27509 0.58817 0.0
C132 C 0.53757 0.21666 0.50332 0.0
C133 C 0.52808 0.22178 0.54006 0.0
C134 C 0.48163 0.17921 0.54783 0.0
C135 C 0.56943 0.26719 0.56889 0.0
C136 C 0.51916 0.22678 0.61321 0.0
C137 C 0.56493 0.26969 0.60501 0.0
C138 C 0.47714 0.18163 0.58395 0.0
C139 C 0.79635 0.1654 0.4922 0.0
O140 O 0.75825 0.26508 0.43291 0.0
O141 O 0.60805 0.25299 0.42251 0.0
O142 O 0.93904 0.34826 0.49117 0.0
O143 O 0.98672 0.26138 0.50792 0.0
O144 O 0.83157 0.37078 0.52598 0.0
O145 O 0.70954 0.32319 0.4792 0.0
O146 O 0.77157 0.26782 0.56237 0.0
O147 O 0.92251 0.27849 0.57328 0.0
O148 O 0.60119 0.17972 0.50807 0.0
O149 O 0.54057 0.26338 0.48581 0.0
O150 O 0.70167 0.16119 0.46785 0.0
O151 O 0.82224 0.20723 0.51694 0.0
H152 H 0.05559 0.39099 0.46326 0.0
H153 H 0.95125 0.22023 0.4375 0.0
H154 H 0.95701 0.21867 0.37387 0.0
H155 H 0.06098 0.38954 0.39944 0.0
H156 H 0.45005 0.14353 0.52627 0.0
H157 H 0.60628 0.3005 0.56383 0.0
H158 H 0.59706 0.30545 0.6264 0.0
H159 H 0.44264 0.14736 0.58943 0.0
H160 H 0.54438 0.65059 0.93603 0.0
H161 H 0.778 0.59638 0.06355 0.0
H162 H 0.4381 0.57826 0.93386 0.0
H163 H 0.67062 0.52646 0.06312 0.0
H164 H 0.49014 0.37034 0.03633 0.0
H165 H 0.59627 0.44135 0.03702 0.0
H166 H 0.34484 0.54852 0.95737 0.0
H167 H 0.23891 0.47521 0.9538 0.0
C168 C 0.5724 0.62353 0.96385 0.0
C169 C 0.66945 0.62867 -0.00021 0.0
C170 C 0.51128 0.58219 0.96288 0.0
C171 C 0.54506 0.54582 -0.0017 0.0
C172 C 0.64202 0.5523 0.03469 0.0
C173 C 0.70366 0.59279 0.03519 0.0
C174 C 0.4577 0.40869 0.01839 0.0
C175 C 0.35613 0.41672 0.99441 0.0
C176 C 0.51872 0.45006 0.0193 0.0
C177 C 0.47991 0.50129 -0.0028 0.0
C178 C 0.37799 0.50945 0.97395 0.0
C179 C 0.31696 0.46751 0.97221 0.0
H180 H 0.48082 0.64321 0.55927 0.0
H181 H 0.24874 0.58959 0.4313 0.0
H182 H 0.58717 0.57046 0.56191 0.0
H183 H 0.35624 0.51928 0.43222 0.0
H184 H 0.5372 0.36343 0.4588 0.0
H185 H 0.4305 0.4341 0.45814 0.0
H186 H 0.68151 0.541 0.53888 0.0
H187 H 0.78791 0.46803 0.54238 0.0
C188 C 0.45314 0.61616 0.53147 0.0
C189 C 0.35653 0.6217 0.49523 0.0
C190 C 0.51432 0.57459 0.53272 0.0
C191 C 0.48108 0.53834 0.49727 0.0
C192 C 0.38445 0.54504 0.46066 0.0
C193 C 0.32274 0.58577 0.45988 0.0
C194 C 0.56942 0.40163 0.47699 0.0
C195 C 0.67099 0.4097 0.50122 0.0
C196 C 0.50808 0.44282 0.4761 0.0
C197 C 0.54658 0.49388 0.4985 0.0
C198 C 0.64854 0.50204 0.52205 0.0
C199 C 0.70986 0.4603 0.52375 0.0
H200 H 0.04179 0.15225 0.93803 0.0
H201 H 0.27364 0.09861 0.06606 0.0
H202 H 0.93486 0.08007 0.93562 0.0
H203 H 0.16568 0.02898 0.06538 0.0
H204 H 0.98758 0.87211 0.03827 0.0
H205 H 0.09304 0.9437 0.03921 0.0
H206 H 0.84028 0.04949 0.95837 0.0
H207 H 0.73494 0.97545 0.95455 0.0
C208 C 0.06923 0.1254 0.96592 0.0
C209 C 0.16605 0.13058 0.00206 0.0
C210 C 1.00775 0.08415 0.96479 0.0
C211 C 0.04099 0.04791 0.00025 0.0
C212 C 0.13754 0.05464 0.0369 0.0
C213 C 0.19951 0.095 0.03755 0.0
C214 C 0.95467 0.91028 0.02012 0.0
C215 C 0.85294 0.91769 0.99574 0.0
C216 C 0.01532 0.95201 0.02119 0.0
C217 C 0.97599 1.00305 -0.00112 0.0
C218 C 0.87385 1.01061 0.97519 0.0
C219 C 0.81316 0.96827 0.9733 0.0
H220 H 0.75604 0.09339 0.42815 0.0
H221 H 0.98801 0.14562 0.55655 0.0
H222 H 0.86397 0.02431 0.42821 0.0
H223 H 0.09493 0.07388 0.55835 0.0
H224 H 0.29467 0.96949 0.53911 0.0
H225 H 0.18966 0.04354 0.53567 0.0
H226 H 0.93623 0.93891 0.45342 0.0
H227 H 0.0414 0.86744 0.45397 0.0
C228 C 0.8302 0.08958 0.45661 0.0
C229 C 0.86364 0.12461 0.49239 0.0
C230 C 0.89217 0.04951 0.45691 0.0
C231 C 0.98874 0.04245 0.49349 0.0
C232 C 0.02203 0.07819 0.52922 0.0
C233 C 0.96054 0.1192 0.52844 0.0
C234 C 0.21636 0.96259 0.52011 0.0
C235 C 0.17634 0.91234 0.4972 0.0
C236 C 0.15585 1.00493 0.51844 0.0
C237 C 0.0536 0.99769 0.4945 0.0
C238 C 0.01403 0.94701 0.47166 0.0
C239 C 0.07451 0.90531 0.47251 0.0
H240 H 0.47351 0.2303 0.34235 0.0
H241 H 0.75166 0.27788 0.36612 0.0
H242 H 0.40247 0.22636 0.26493 0.0
H243 H 0.6805 0.27571 0.28939 0.0
H244 H 0.54805 0.22375 0.15119 0.0
H245 H 0.61785 0.21612 0.22836 0.0
H246 H 0.35534 0.28945 0.20702 0.0
H247 H 0.28514 0.29545 0.13037 0.0
C248 C 0.5193 0.24004 0.3311 0.0
C249 C 0.61799 0.25451 0.36038 0.0
C250 C 0.47867 0.23797 0.28678 0.0
C251 C 0.53587 0.25073 0.27096 0.0
C252 C 0.63474 0.26465 0.30042 0.0
C253 C 0.67534 0.26634 0.34454 0.0
C254 C 0.50556 0.23819 0.16311 0.0
C255 C 0.4113 0.26018 0.13475 0.0
C256 C 0.54541 0.23392 0.20727 0.0
C257 C 0.49205 0.2521 0.22387 0.0
C258 C 0.39773 0.274 0.19532 0.0
C259 C 0.35777 0.27782 0.15131 0.0
H260 H 0.5445 0.89061 0.16514 0.0
H261 H 0.49521 0.71183 0.15231 0.0
H262 H 0.54462 0.89021 0.23008 0.0
H263 H 0.49512 0.71143 0.21727 0.0
H264 H 0.59757 0.72358 0.35894 0.0
H265 H 0.60221 0.72415 0.29513 0.0
H266 H 0.434 0.87744 0.25205 0.0
H267 H 0.4326 0.87802 0.31656 0.0
C268 C 0.53275 0.85127 0.17593 0.0
C269 C 0.51947 0.80128 0.15334 0.0
C270 C 0.53287 0.85103 0.21322 0.0
C271 C 0.51965 0.80081 0.22893 0.0
C272 C 0.5069 0.75076 0.20648 0.0
C273 C 0.50686 0.75099 0.16918 0.0
C274 C 0.56252 0.75775 0.33611 0.0
C275 C 0.51477 0.80077 0.34299 0.0
C276 C 0.56418 0.75772 0.29923 0.0
C277 C 0.51836 0.8008 0.26834 0.0
C278 C 0.47095 0.8439 0.27533 0.0
C279 C 0.46916 0.84388 0.31213 0.0
H280 H 0.47093 0.7602 0.84054 0.0
H281 H 0.74587 0.81906 0.86675 0.0
H282 H 0.40061 0.76161 0.76327 0.0
H283 H 0.67516 0.82254 0.78976 0.0
H284 H 0.55496 0.75686 0.65406 0.0
H285 H 0.62461 0.76166 0.73117 0.0
H286 H 0.34651 0.81927 0.70264 0.0
H287 H 0.27645 0.81238 0.62585 0.0
C288 C 0.51578 0.77429 0.82973 0.0
C289 C 0.61401 0.78904 0.85965 0.0
C290 C 0.47551 0.77533 0.78543 0.0
C291 C 0.53238 0.79188 0.77019 0.0
C292 C 0.62981 0.80836 0.80028 0.0
C293 C 0.67024 0.80666 0.84446 0.0
C294 C 0.50905 0.77081 0.66435 0.0
C295 C 0.41017 0.78381 0.63393 0.0
C296 C 0.54897 0.77386 0.70856 0.0
C297 C 0.49105 0.79063 0.72323 0.0
C298 C 0.39276 0.80505 0.69261 0.0
C299 C 0.3527 0.80139 0.64852 0.0
H300 H 0.66246 0.26284 0.69514 0.0
H301 H 0.3695 0.19481 0.62025 0.0
H302 H 0.65824 0.2648 0.75902 0.0
H303 H 0.36628 0.19593 0.68436 0.0
H304 H 0.44204 0.14778 0.81895 0.0
H305 H 0.44532 0.1479 0.75475 0.0
H306 H 0.57474 0.31294 0.78812 0.0
H307 H 0.57293 0.3124 0.8528 0.0
C308 C 0.59672 0.24881 0.69209 0.0
C309 C 0.5163 0.22865 0.65231 0.0
C310 C 0.59445 0.24984 0.72883 0.0
C311 C 0.51201 0.23041 0.7269 0.0
C312 C 0.43153 0.21042 0.68717 0.0
C313 C 0.43352 0.2097 0.65038 0.0
C314 C 0.47179 0.18395 0.81275 0.0
C315 C 0.50748 0.23002 0.84111 0.0
C316 C 0.47278 0.18425 0.7757 0.0
C317 C 0.51023 0.23045 0.76621 0.0
C318 C 0.54614 0.27649 0.79463 0.0
C319 C 0.5443 0.2764 0.83149 0.0
H320 H 0.05457 0.78714 0.15323 0.0
H321 H 0.78323 0.72099 0.12652 0.0
H322 H 0.12484 0.78405 0.23056 0.0
H323 H 0.85374 0.71593 0.20341 0.0
H324 H 0.97081 0.77564 0.34013 0.0
H325 H 0.90132 0.77458 0.26289 0.0
H326 H 0.1818 0.72427 0.29036 0.0
H327 H 0.25147 0.72734 0.36719 0.0
C328 C 1.01052 0.77121 0.16395 0.0
C329 C 0.91324 0.75489 0.13391 0.0
C330 C 0.0507 0.76922 0.20824 0.0
C331 C 0.99471 0.75009 0.22331 0.0
C332 C 0.89829 0.73217 0.19306 0.0
C333 C 0.85795 0.73482 0.14892 0.0
C334 C 0.01721 0.76407 0.32954 0.0
C335 C 0.11657 0.75199 0.35969 0.0
C336 C 0.97746 0.76321 0.28528 0.0
C337 C 0.03608 0.74957 0.2703 0.0
C338 C 0.13494 0.73613 0.30063 0.0
C339 C 0.17476 0.73758 0.34476 0.0
H340 H 0.94107 0.3849 0.31918 0.0
H341 H 0.07959 0.22229 0.35467 0.0
H342 H 0.94359 0.38487 0.25475 0.0
H343 H 0.08102 0.2219 0.28987 0.0
H344 H 0.1653 0.27395 0.19606 0.0
H345 H 0.16231 0.27251 0.26026 0.0
H346 H 0.86552 0.33434 0.18485 0.0
H347 H 0.86736 0.33472 0.12038 0.0
C348 C 0.97235 0.34922 0.31328 0.0
C349 C 1.01033 0.30365 0.34211 0.0
C350 C 0.97298 0.34897 0.27615 0.0
C351 C 1.01248 0.30337 0.26713 0.0
C352 C 0.05079 0.25787 0.29605 0.0
C353 C 0.04921 0.25787 0.33296 0.0
C354 C 0.0988 0.28652 0.19291 0.0
C355 C 0.0165 0.30441 0.1528 0.0
C356 C 0.09727 0.28582 0.22983 0.0
C357 C 0.01374 0.30339 0.22773 0.0
C358 C 0.93152 0.32129 0.18772 0.0
C359 C 0.93274 0.32161 0.15074 0.0
H360 H 0.78494 0.24478 0.63048 0.0
H361 H 0.04764 0.31644 0.65116 0.0
H362 H 0.85472 0.25162 0.70707 0.0
H363 H 0.11698 0.32496 0.72822 0.0
H364 H 0.25087 0.26257 0.86595 0.0
H365 H 0.17984 0.26539 0.78924 0.0
H366 H 0.90187 0.31478 0.76491 0.0
H367 H 0.97281 0.31016 0.84229 0.0
C368 C 0.85735 0.26266 0.65137 0.0
C369 C 0.91105 0.27995 0.63484 0.0
C370 C 0.89709 0.26695 0.69533 0.0
C371 C 0.99131 0.289 0.72381 0.0
C372 C 0.04465 0.30704 0.70719 0.0
C373 C 1.00506 0.30226 0.6631 0.0
C374 C 0.17467 0.27437 0.8444 0.0
C375 C 0.11725 0.28593 0.86023 0.0
C376 C 0.13411 0.2764 0.80029 0.0
C377 C 0.03524 0.29043 0.77088 0.0
C378 C 0.97806 0.30308 0.78673 0.0
C379 C 0.01863 0.30063 0.83102 0.0
H380 H 0.95653 0.81913 0.64088 0.0
H381 H 0.06794 0.64982 0.6707 0.0
H382 H 0.95581 0.82078 0.70585 0.0
H383 H 0.0661 0.6512 0.73528 0.0
H384 H 0.15304 0.69955 0.87152 0.0
H385 H 0.15378 0.69903 0.80678 0.0
H386 H 0.86715 0.77503 0.73419 0.0
H387 H 0.86509 0.77452 0.79865 0.0
C388 C 0.98102 0.78233 0.66136 0.0
C389 C 1.01216 0.73433 0.65061 0.0
C390 C 0.97986 0.7831 0.69836 0.0
C391 C 1.01092 0.73612 0.72575 0.0
C392 C 0.04249 0.68824 0.71508 0.0
C393 C 0.04267 0.68726 0.67786 0.0
C394 C 0.08961 0.71564 0.84171 0.0
C395 C 1.00895 0.73699 0.84049 0.0
C396 C 0.09021 0.71544 0.80459 0.0
C397 C 1.01051 0.73695 0.76532 0.0
C398 C 0.93024 0.75881 0.76408 0.0
C399 C 0.92927 0.75864 0.80113 0.0
loop_
_geom_bond_atom_site_label_1
_geom_bond_atom_site_label_2
_geom_bond_distance
_geom_bond_site_symmetry_2
_ccdc_geom_bond_type
Gd0 C3 2.818 1_556 S
Gd0 O20 2.377 1_556 S
Gd0 O22 2.448 1_556 S
Gd0 O23 2.506 1_556 S
Gd0 O24 2.435 1_556 S
Gd0 O25 2.717 . S
Gd0 O27 2.395 . S
Gd0 O31 2.327 1_556 S
Gd1 C12 2.818 1_554 S
Gd1 O21 2.395 . S
Gd1 O25 2.327 1_554 S
Gd1 O26 2.377 1_554 S
Gd1 O28 2.448 1_554 S
Gd1 O29 2.506 1_554 S
Gd1 O30 2.435 1_554 S
Gd1 O31 2.717 . S
C2 O20 1.240 . S
C2 O21 1.240 . S
C3 Gd0 2.818 1_554 S
C3 C4 1.510 . S
C3 O22 1.249 . S
C3 O23 1.252 . S
C4 C3 1.510 . S
C4 C5 1.404 . S
C4 C6 1.352 . S
C5 C4 1.404 . S
C5 C9 1.389 . S
C5 H32 0.930 . S
C6 C4 1.352 . S
C6 C8 1.374 . S
C6 H33 0.931 . S
C7 C8 1.359 . S
C7 C9 1.364 . S
C8 C6 1.374 . S
C8 C7 1.359 . S
C8 H34 0.931 . S
C9 C5 1.389 . S
C9 C7 1.364 . S
C9 H35 0.931 . S
C10 O24 1.256 . S
C10 O25 1.257 1_554 S
C11 O26 1.240 . S
C11 O27 1.240 . S
C12 Gd1 2.818 1_556 S
C12 C13 1.510 . S
C12 O28 1.249 . S
C12 O29 1.252 . S
C13 C12 1.510 . S
C13 C14 1.404 . S
C13 C15 1.352 . S
C14 C13 1.404 . S
C14 C18 1.389 . S
C14 H36 0.930 . S
C15 C13 1.352 . S
C15 C17 1.374 . S
C15 H37 0.931 . S
C16 C17 1.359 . S
C16 C18 1.364 . S
C17 C15 1.374 . S
C17 C16 1.359 . S
C17 H38 0.931 . S
C18 C14 1.389 . S
C18 C16 1.364 . S
C18 H39 0.931 . S
C19 O30 1.256 . S
C19 O31 1.257 1_556 S
O20 Gd0 2.377 1_554 S
O20 C2 1.240 . S
O21 Gd1 2.395 . S
O21 C2 1.240 . S
O22 Gd0 2.448 1_554 S
O22 C3 1.249 . S
O23 Gd0 2.506 1_554 S
O23 C3 1.252 . S
O24 Gd0 2.435 1_554 S
O24 C10 1.256 . S
O25 Gd0 2.717 . S
O25 Gd1 2.327 1_556 S
O25 C10 1.257 1_556 S
O26 Gd1 2.377 1_556 S
O26 C11 1.240 . S
O27 Gd0 2.395 . S
O27 C11 1.240 . S
O28 Gd1 2.448 1_556 S
O28 C12 1.249 . S
O29 Gd1 2.506 1_556 S
O29 C12 1.252 . S
O30 Gd1 2.435 1_556 S
O30 C19 1.256 . S
O31 Gd0 2.327 1_554 S
O31 Gd1 2.717 . S
O31 C19 1.257 1_554 S
H32 C5 0.930 . S
H33 C6 0.931 . S
H34 C8 0.931 . S
H35 C9 0.931 . S
H36 C14 0.930 . S
H37 C15 0.931 . S
H38 C17 0.931 . S
H39 C18 0.931 . S
Gd40 C43 2.818 1_556 S
Gd40 O60 2.377 1_556 S
Gd40 O62 2.448 1_556 S
Gd40 O63 2.506 1_556 S
Gd40 O64 2.435 1_556 S
Gd40 O65 2.717 . S
Gd40 O67 2.395 . S
Gd40 O71 2.327 1_556 S
Gd41 C52 2.818 1_554 S
Gd41 O61 2.395 . S
Gd41 O65 2.327 1_554 S
Gd41 O66 2.377 1_554 S
Gd41 O68 2.448 1_554 S
Gd41 O69 2.506 1_554 S
Gd41 O70 2.435 1_554 S
Gd41 O71 2.717 . S
C42 O60 1.240 . S
C42 O61 1.240 . S
C43 Gd40 2.818 1_554 S
C43 C44 1.510 . S
C43 O62 1.249 . S
C43 O63 1.252 . S
C44 C43 1.510 . S
C44 C45 1.404 . S
C44 C46 1.352 . S
C45 C44 1.404 . S
C45 C49 1.389 . S
C45 H72 0.930 . S
C46 C44 1.352 . S
C46 C48 1.374 . S
C46 H73 0.931 . S
C47 C48 1.359 . S
C47 C49 1.364 . S
C48 C46 1.374 . S
C48 C47 1.359 . S
C48 H74 0.931 . S
C49 C45 1.389 . S
C49 C47 1.364 . S
C49 H75 0.931 . S
C50 O64 1.256 . S
C50 O65 1.257 1_554 S
C51 O66 1.240 . S
C51 O67 1.240 . S
C52 Gd41 2.818 1_556 S
C52 C53 1.510 . S
C52 O68 1.249 . S
C52 O69 1.252 . S
C53 C52 1.510 . S
C53 C54 1.404 . S
C53 C55 1.352 . S
C54 C53 1.404 . S
C54 C58 1.389 . S
C54 H76 0.930 . S
C55 C53 1.352 . S
C55 C57 1.374 . S
C55 H77 0.931 . S
C56 C57 1.359 . S
C56 C58 1.364 . S
C57 C55 1.374 . S
C57 C56 1.359 . S
C57 H78 0.931 . S
C58 C54 1.389 . S
C58 C56 1.364 . S
C58 H79 0.931 . S
C59 O70 1.256 . S
C59 O71 1.257 1_556 S
O60 Gd40 2.377 1_554 S
O60 C42 1.240 . S
O61 Gd41 2.395 . S
O61 C42 1.240 . S
O62 Gd40 2.448 1_554 S
O62 C43 1.249 . S
O63 Gd40 2.506 1_554 S
O63 C43 1.252 . S
O64 Gd40 2.435 1_554 S
O64 C50 1.256 . S
O65 Gd40 2.717 . S
O65 Gd41 2.327 1_556 S
O65 C50 1.257 1_556 S
O66 Gd41 2.377 1_556 S
O66 C51 1.240 . S
O67 Gd40 2.395 . S
O67 C51 1.240 . S
O68 Gd41 2.448 1_556 S
O68 C52 1.249 . S
O69 Gd41 2.506 1_556 S
O69 C52 1.252 . S
O70 Gd41 2.435 1_556 S
O70 C59 1.256 . S
O71 Gd40 2.327 1_554 S
O71 Gd41 2.717 . S
O71 C59 1.257 1_554 S
H72 C45 0.930 . S
H73 C46 0.931 . S
H74 C48 0.931 . S
H75 C49 0.931 . S
H76 C54 0.930 . S
H77 C55 0.931 . S
H78 C57 0.931 . S
H79 C58 0.931 . S
Gd80 C83 2.818 . S
Gd80 O100 2.377 . S
Gd80 O102 2.448 . S
Gd80 O103 2.506 . S
Gd80 O104 2.435 . S
Gd80 O105 2.717 . S
Gd80 O107 2.395 . S
Gd80 O111 2.327 . S
Gd81 C92 2.818 . S
Gd81 O101 2.395 . S
Gd81 O105 2.327 . S
Gd81 O106 2.377 . S
Gd81 O108 2.448 . S
Gd81 O109 2.506 . S
Gd81 O110 2.435 . S
Gd81 O111 2.717 . S
C82 O100 1.240 . S
C82 O101 1.240 . S
C83 Gd80 2.818 . S
C83 C84 1.510 . S
C83 O102 1.249 . S
C83 O103 1.252 . S
C84 C83 1.510 . S
C84 C85 1.404 . S
C84 C86 1.352 . S
C85 C84 1.404 . S
C85 C89 1.389 . S
C85 H112 0.930 . S
C86 C84 1.352 . S
C86 C88 1.374 . S
C86 H113 0.931 . S
C87 C88 1.359 . S
C87 C89 1.364 . S
C88 C86 1.374 . S
C88 C87 1.359 . S
C88 H114 0.931 . S
C89 C85 1.389 . S
C89 C87 1.364 . S
C89 H115 0.931 . S
C90 O104 1.256 . S
C90 O105 1.257 . S
C91 O106 1.240 . S
C91 O107 1.240 . S
C92 Gd81 2.818 . S
C92 C93 1.510 . S
C92 O108 1.249 . S
C92 O109 1.252 . S
C93 C92 1.510 . S
C93 C94 1.404 . S
C93 C95 1.352 . S
C94 C93 1.404 . S
C94 C98 1.389 . S
C94 H116 0.930 . S
C95 C93 1.352 . S
C95 C97 1.374 . S
C95 H117 0.931 . S
C96 C97 1.359 . S
C96 C98 1.364 . S
C97 C95 1.374 . S
C97 C96 1.359 . S
C97 H118 0.931 . S
C98 C94 1.389 . S
C98 C96 1.364 . S
C98 H119 0.931 . S
C99 O110 1.256 . S
C99 O111 1.257 . S
O100 Gd80 2.377 . S
O100 C82 1.240 . S
O101 Gd81 2.395 . S
O101 C82 1.240 . S
O102 Gd80 2.448 . S
O102 C83 1.249 . S
O103 Gd80 2.506 . S
O103 C83 1.252 . S
O104 Gd80 2.435 . S
O104 C90 1.256 . S
O105 Gd80 2.717 . S
O105 Gd81 2.327 . S
O105 C90 1.257 . S
O106 Gd81 2.377 . S
O106 C91 1.240 . S
O107 Gd80 2.395 . S
O107 C91 1.240 . S
O108 Gd81 2.448 . S
O108 C92 1.249 . S
O109 Gd81 2.506 . S
O109 C92 1.252 . S
O110 Gd81 2.435 . S
O110 C99 1.256 . S
O111 Gd80 2.327 . S
O111 Gd81 2.717 . S
O111 C99 1.257 . S
H112 C85 0.930 . S
H113 C86 0.931 . S
H114 C88 0.931 . S
H115 C89 0.931 . S
H116 C94 0.930 . S
H117 C95 0.931 . S
H118 C97 0.931 . S
H119 C98 0.931 . S
Gd120 C123 2.818 . S
Gd120 O140 2.377 . S
Gd120 O142 2.448 . S
Gd120 O143 2.506 . S
Gd120 O144 2.435 . S
Gd120 O145 2.717 . S
Gd120 O147 2.395 . S
Gd120 O151 2.327 . S
Gd121 C132 2.818 . S
Gd121 O141 2.395 . S
Gd121 O145 2.327 . S
Gd121 O146 2.377 . S
Gd121 O148 2.448 . S
Gd121 O149 2.506 . S
Gd121 O150 2.435 . S
Gd121 O151 2.717 . S
C122 O140 1.240 . S
C122 O141 1.240 . S
C123 Gd120 2.818 . S
C123 C124 1.510 . S
C123 O142 1.249 . S
C123 O143 1.252 . S
C124 C123 1.510 . S
C124 C125 1.404 . S
C124 C126 1.352 . S
C125 C124 1.404 . S
C125 C129 1.389 . S
C125 H152 0.930 . S
C126 C124 1.352 . S
C126 C128 1.374 . S
C126 H153 0.931 . S
C127 C128 1.359 . S
C127 C129 1.364 . S
C128 C126 1.374 . S
C128 C127 1.359 . S
C128 H154 0.931 . S
C129 C125 1.389 . S
C129 C127 1.364 . S
C129 H155 0.931 . S
C130 O144 1.256 . S
C130 O145 1.257 . S
C131 O146 1.240 . S
C131 O147 1.240 . S
C132 Gd121 2.818 . S
C132 C133 1.510 . S
C132 O148 1.249 . S
C132 O149 1.252 . S
C133 C132 1.510 . S
C133 C134 1.404 . S
C133 C135 1.352 . S
C134 C133 1.404 . S
C134 C138 1.389 . S
C134 H156 0.930 . S
C135 C133 1.352 . S
C135 C137 1.374 . S
C135 H157 0.931 . S
C136 C137 1.359 . S
C136 C138 1.364 . S
C137 C135 1.374 . S
C137 C136 1.359 . S
C137 H158 0.931 . S
C138 C134 1.389 . S
C138 C136 1.364 . S
C138 H159 0.931 . S
C139 O150 1.256 . S
C139 O151 1.257 . S
O140 Gd120 2.377 . S
O140 C122 1.240 . S
O141 Gd121 2.395 . S
O141 C122 1.240 . S
O142 Gd120 2.448 . S
O142 C123 1.249 . S
O143 Gd120 2.506 . S
O143 C123 1.252 . S
O144 Gd120 2.435 . S
O144 C130 1.256 . S
O145 Gd120 2.717 . S
O145 Gd121 2.327 . S
O145 C130 1.257 . S
O146 Gd121 2.377 . S
O146 C131 1.240 . S
O147 Gd120 2.395 . S
O147 C131 1.240 . S
O148 Gd121 2.448 . S
O148 C132 1.249 . S
O149 Gd121 2.506 . S
O149 C132 1.252 . S
O150 Gd121 2.435 . S
O150 C139 1.256 . S
O151 Gd120 2.327 . S
O151 Gd121 2.717 . S
O151 C139 1.257 . S
H152 C125 0.930 . S
H153 C126 0.931 . S
H154 C128 0.931 . S
H155 C129 0.931 . S
H156 C134 0.930 . S
H157 C135 0.931 . S
H158 C137 0.931 . S
H159 C138 0.931 . S
H160 C168 0.950 . S
H161 C173 0.950 . S
H162 C170 0.950 . S
H163 C172 0.950 . S
H164 C174 0.950 . S
H165 C176 0.950 . S
H166 C178 0.950 . S
H167 C179 0.950 . S
C168 H160 0.950 . S
C168 C169 1.386 . S
C168 C170 1.391 . S
C169 C168 1.386 . S
C169 C173 1.393 1_556 S
C170 H162 0.950 . S
C170 C168 1.391 . S
C170 C171 1.423 . S
C171 C170 1.423 . S
C171 C172 1.389 1_556 S
C171 C177 1.464 1_556 S
C172 H163 0.950 . S
C172 C171 1.389 1_554 S
C172 C173 1.391 . S
C173 H161 0.950 . S
C173 C169 1.393 1_554 S
C173 C172 1.391 . S
C174 H164 0.950 . S
C174 C175 1.386 . S
C174 C176 1.391 . S
C175 C174 1.386 . S
C175 C179 1.393 1_554 S
C176 H165 0.950 . S
C176 C174 1.391 . S
C176 C177 1.430 . S
C177 C171 1.464 1_554 S
C177 C176 1.430 . S
C177 C178 1.386 1_554 S
C178 H166 0.950 . S
C178 C177 1.386 1_556 S
C178 C179 1.391 . S
C179 H167 0.950 . S
C179 C175 1.393 1_556 S
C179 C178 1.391 . S
H180 C188 0.950 . S
H181 C193 0.950 . S
H182 C190 0.950 . S
H183 C192 0.950 . S
H184 C194 0.950 . S
H185 C196 0.950 . S
H186 C198 0.950 . S
H187 C199 0.950 . S
C188 H180 0.950 . S
C188 C189 1.386 . S
C188 C190 1.391 . S
C189 C188 1.386 . S
C189 C193 1.393 . S
C190 H182 0.950 . S
C190 C188 1.391 . S
C190 C191 1.400 . S
C191 C190 1.400 . S
C191 C192 1.398 . S
C191 C197 1.491 . S
C192 H183 0.950 . S
C192 C191 1.398 . S
C192 C193 1.391 . S
C193 H181 0.950 . S
C193 C189 1.393 . S
C193 C192 1.391 . S
C194 H184 0.950 . S
C194 C195 1.386 . S
C194 C196 1.391 . S
C195 C194 1.386 . S
C195 C199 1.393 . S
C196 H185 0.950 . S
C196 C194 1.391 . S
C196 C197 1.400 . S
C197 C191 1.491 . S
C197 C196 1.400 . S
C197 C198 1.398 . S
C198 H186 0.950 . S
C198 C197 1.398 . S
C198 C199 1.391 . S
C199 H187 0.950 . S
C199 C195 1.393 . S
C199 C198 1.391 . S
H200 C208 0.950 . S
H201 C213 0.950 . S
H202 C210 0.950 . S
H203 C212 0.950 1_565 S
H204 C214 0.950 . S
H205 C216 0.950 . S
H206 C218 0.950 1_545 S
H207 C219 0.950 . S
C208 H200 0.950 . S
C208 C209 1.386 . S
C208 C210 1.391 1_455 S
C209 C208 1.386 . S
C209 C213 1.393 1_556 S
C210 H202 0.950 . S
C210 C208 1.391 1_655 S
C210 C211 1.400 1_655 S
C211 C210 1.400 1_455 S
C211 C212 1.398 1_556 S
C211 C217 1.491 1_446 S
C212 H203 0.950 1_545 S
C212 C211 1.398 1_554 S
C212 C213 1.391 . S
C213 H201 0.950 . S
C213 C209 1.393 1_554 S
C213 C212 1.391 . S
C214 H204 0.950 . S
C214 C215 1.386 . S
C214 C216 1.391 1_655 S
C215 C214 1.386 . S
C215 C219 1.393 1_554 S
C216 H205 0.950 . S
C216 C214 1.391 1_455 S
C216 C217 1.400 1_455 S
C217 C211 1.491 1_664 S
C217 C216 1.400 1_655 S
C217 C218 1.398 1_554 S
C218 H206 0.950 1_565 S
C218 C217 1.398 1_556 S
C218 C219 1.391 . S
C219 H207 0.950 . S
C219 C215 1.393 1_556 S
C219 C218 1.391 . S
H220 C228 0.950 . S
H221 C233 0.950 1_455 S
H222 C230 0.950 1_565 S
H223 C232 0.950 . S
H224 C234 0.950 . S
H225 C236 0.950 1_545 S
H226 C238 0.950 . S
H227 C239 0.950 1_655 S
C228 H220 0.950 . S
C228 C229 1.386 . S
C228 C230 1.391 . S
C229 C228 1.386 . S
C229 C233 1.393 . S
C230 H222 0.950 1_545 S
C230 C228 1.391 . S
C230 C231 1.400 . S
C231 C230 1.400 . S
C231 C232 1.398 1_655 S
C231 C237 1.491 1_645 S
C232 H223 0.950 . S
C232 C231 1.398 1_455 S
C232 C233 1.391 1_455 S
C233 H221 0.950 1_655 S
C233 C229 1.393 . S
C233 C232 1.391 1_655 S
C234 H224 0.950 . S
C234 C235 1.386 . S
C234 C236 1.391 . S
C235 C234 1.386 . S
C235 C239 1.393 . S
C236 H225 0.950 1_565 S
C236 C234 1.391 . S
C236 C237 1.400 . S
C237 C231 1.491 1_465 S
C237 C236 1.400 . S
C237 C238 1.398 1_455 S
C238 H226 0.950 . S
C238 C237 1.398 1_655 S
C238 C239 1.391 1_655 S
C239 H227 0.950 1_455 S
C239 C235 1.393 . S
C239 C238 1.391 1_455 S
H240 C248 0.950 . S
H241 C253 0.950 . S
H242 C250 0.950 . S
H243 C252 0.950 . S
H244 C254 0.950 . S
H245 C256 0.950 . S
H246 C258 0.950 . S
H247 C259 0.950 . S
C248 H240 0.950 . S
C248 C249 1.386 . S
C248 C250 1.391 . S
C249 C248 1.386 . S
C249 C253 1.393 . S
C250 H242 0.950 . S
C250 C248 1.391 . S
C250 C251 1.400 . S
C251 C250 1.400 . S
C251 C252 1.398 . S
C251 C257 1.491 . S
C252 H243 0.950 . S
C252 C251 1.398 . S
C252 C253 1.391 . S
C253 H241 0.950 . S
C253 C249 1.393 . S
C253 C252 1.391 . S
C254 H244 0.950 . S
C254 C255 1.386 . S
C254 C256 1.391 . S
C255 C254 1.386 . S
C255 C259 1.393 . S
C256 H245 0.950 . S
C256 C254 1.391 . S
C256 C257 1.400 . S
C257 C251 1.491 . S
C257 C256 1.400 . S
C257 C258 1.398 . S
C258 H246 0.950 . S
C258 C257 1.398 . S
C258 C259 1.391 . S
C259 H247 0.950 . S
C259 C255 1.393 . S
C259 C258 1.391 . S
H260 C268 0.950 . S
H261 C273 0.950 . S
H262 C270 0.950 . S
H263 C272 0.950 . S
H264 C274 0.950 . S
H265 C276 0.950 . S
H266 C278 0.950 . S
H267 C279 0.950 . S
C268 H260 0.950 . S
C268 C269 1.386 . S
C268 C270 1.391 . S
C269 C268 1.386 . S
C269 C273 1.393 . S
C270 H262 0.950 . S
C270 C268 1.391 . S
C270 C271 1.400 . S
C271 C270 1.400 . S
C271 C272 1.398 . S
C271 C277 1.491 . S
C272 H263 0.950 . S
C272 C271 1.398 . S
C272 C273 1.391 . S
C273 H261 0.950 . S
C273 C269 1.393 . S
C273 C272 1.391 . S
C274 H264 0.950 . S
C274 C275 1.386 . S
C274 C276 1.391 . S
C275 C274 1.386 . S
C275 C279 1.393 . S
C276 H265 0.950 . S
C276 C274 1.391 . S
C276 C277 1.400 . S
C277 C271 1.491 . S
C277 C276 1.400 . S
C277 C278 1.398 . S
C278 H266 0.950 . S
C278 C277 1.398 . S
C278 C279 1.391 . S
C279 H267 0.950 . S
C279 C275 1.393 . S
C279 C278 1.391 . S
H280 C288 0.950 . S
H281 C293 0.950 . S
H282 C290 0.950 . S
H283 C292 0.950 . S
H284 C294 0.950 . S
H285 C296 0.950 . S
H286 C298 0.950 . S
H287 C299 0.950 . S
C288 H280 0.950 . S
C288 C289 1.386 . S
C288 C290 1.391 . S
C289 C288 1.386 . S
C289 C293 1.393 . S
C290 H282 0.950 . S
C290 C288 1.391 . S
C290 C291 1.400 . S
C291 C290 1.400 . S
C291 C292 1.398 . S
C291 C297 1.491 . S
C292 H283 0.950 . S
C292 C291 1.398 . S
C292 C293 1.391 . S
C293 H281 0.950 . S
C293 C289 1.393 . S
C293 C292 1.391 . S
C294 H284 0.950 . S
C294 C295 1.386 . S
C294 C296 1.391 . S
C295 C294 1.386 . S
C295 C299 1.393 . S
C296 H285 0.950 . S
C296 C294 1.391 . S
C296 C297 1.400 . S
C297 C291 1.491 . S
C297 C296 1.400 . S
C297 C298 1.398 . S
C298 H286 0.950 . S
C298 C297 1.398 . S
C298 C299 1.391 . S
C299 H287 0.950 . S
C299 C295 1.393 . S
C299 C298 1.391 . S
H300 C308 0.950 . S
H301 C313 0.950 . S
H302 C310 0.950 . S
H303 C312 0.950 . S
H304 C314 0.950 . S
H305 C316 0.950 . S
H306 C318 0.950 . S
H307 C319 0.950 . S
C308 H300 0.950 . S
C308 C309 1.386 . S
C308 C310 1.391 . S
C309 C308 1.386 . S
C309 C313 1.393 . S
C310 H302 0.950 . S
C310 C308 1.391 . S
C310 C311 1.400 . S
C311 C310 1.400 . S
C311 C312 1.398 . S
C311 C317 1.491 . S
C312 H303 0.950 . S
C312 C311 1.398 . S
C312 C313 1.391 . S
C313 H301 0.950 . S
C313 C309 1.393 . S
C313 C312 1.391 . S
C314 H304 0.950 . S
C314 C315 1.386 . S
C314 C316 1.391 . S
C315 C314 1.386 . S
C315 C319 1.393 . S
C316 H305 0.950 . S
C316 C314 1.391 . S
C316 C317 1.400 . S
C317 C311 1.491 . S
C317 C316 1.400 . S
C317 C318 1.398 . S
C318 H306 0.950 . S
C318 C317 1.398 . S
C318 C319 1.391 . S
C319 H307 0.950 . S
C319 C315 1.393 . S
C319 C318 1.391 . S
H320 C328 0.950 . S
H321 C333 0.950 . S
H322 C330 0.950 1_455 S
H323 C332 0.950 . S
H324 C334 0.950 . S
H325 C336 0.950 1_655 S
H326 C338 0.950 . S
H327 C339 0.950 . S
C328 H320 0.950 . S
C328 C329 1.386 . S
C328 C330 1.391 . S
C329 C328 1.386 . S
C329 C333 1.393 . S
C330 H322 0.950 1_655 S
C330 C328 1.391 . S
C330 C331 1.400 . S
C331 C330 1.400 . S
C331 C332 1.398 . S
C331 C337 1.491 1_655 S
C332 H323 0.950 . S
C332 C331 1.398 . S
C332 C333 1.391 . S
C333 H321 0.950 . S
C333 C329 1.393 . S
C333 C332 1.391 . S
C334 H324 0.950 . S
C334 C335 1.386 . S
C334 C336 1.391 . S
C335 C334 1.386 . S
C335 C339 1.393 . S
C336 H325 0.950 1_455 S
C336 C334 1.391 . S
C336 C337 1.400 . S
C337 C331 1.491 1_455 S
C337 C336 1.400 . S
C337 C338 1.398 . S
C338 H326 0.950 . S
C338 C337 1.398 . S
C338 C339 1.391 . S
C339 H327 0.950 . S
C339 C335 1.393 . S
C339 C338 1.391 . S
H340 C348 0.950 . S
H341 C353 0.950 . S
H342 C350 0.950 . S
H343 C352 0.950 . S
H344 C354 0.950 . S
H345 C356 0.950 . S
H346 C358 0.950 . S
H347 C359 0.950 . S
C348 H340 0.950 . S
C348 C349 1.386 . S
C348 C350 1.391 . S
C349 C348 1.386 . S
C349 C353 1.393 1_655 S
C350 H342 0.950 . S
C350 C348 1.391 . S
C350 C351 1.400 . S
C351 C350 1.400 . S
C351 C352 1.398 1_655 S
C351 C357 1.491 1_655 S
C352 H343 0.950 . S
C352 C351 1.398 1_455 S
C352 C353 1.391 . S
C353 H341 0.950 . S
C353 C349 1.393 1_455 S
C353 C352 1.391 . S
C354 H344 0.950 . S
C354 C355 1.386 . S
C354 C356 1.391 . S
C355 C354 1.386 . S
C355 C359 1.393 1_455 S
C356 H345 0.950 . S
C356 C354 1.391 . S
C356 C357 1.400 . S
C357 C351 1.491 1_455 S
C357 C356 1.400 . S
C357 C358 1.398 1_455 S
C358 H346 0.950 . S
C358 C357 1.398 1_655 S
C358 C359 1.391 . S
C359 H347 0.950 . S
C359 C355 1.393 1_655 S
C359 C358 1.391 . S
H360 C368 0.950 . S
H361 C373 0.950 1_455 S
H362 C370 0.950 . S
H363 C372 0.950 . S
H364 C374 0.950 . S
H365 C376 0.950 . S
H366 C378 0.950 . S
H367 C379 0.950 1_655 S
C368 H360 0.950 . S
C368 C369 1.386 . S
C368 C370 1.391 . S
C369 C368 1.386 . S
C369 C373 1.393 . S
C370 H362 0.950 . S
C370 C368 1.391 . S
C370 C371 1.400 . S
C371 C370 1.400 . S
C371 C372 1.398 1_655 S
C371 C377 1.491 1_655 S
C372 H363 0.950 . S
C372 C371 1.398 1_455 S
C372 C373 1.391 1_455 S
C373 H361 0.950 1_655 S
C373 C369 1.393 . S
C373 C372 1.391 1_655 S
C374 H364 0.950 . S
C374 C375 1.386 . S
C374 C376 1.391 . S
C375 C374 1.386 . S
C375 C379 1.393 . S
C376 H365 0.950 . S
C376 C374 1.391 . S
C376 C377 1.400 . S
C377 C371 1.491 1_455 S
C377 C376 1.400 . S
C377 C378 1.398 1_455 S
C378 H366 0.950 . S
C378 C377 1.398 1_655 S
C378 C379 1.391 1_655 S
C379 H367 0.950 1_455 S
C379 C375 1.393 . S
C379 C378 1.391 1_455 S
H380 C388 0.950 . S
H381 C393 0.950 . S
H382 C390 0.950 . S
H383 C392 0.950 . S
H384 C394 0.950 . S
H385 C396 0.950 . S
H386 C398 0.950 . S
H387 C399 0.950 . S
C388 H380 0.950 . S
C388 C389 1.386 1_655 S
C388 C390 1.391 . S
C389 C388 1.386 1_455 S
C389 C393 1.393 . S
C390 H382 0.950 . S
C390 C388 1.391 . S
C390 C391 1.400 1_655 S
C391 C390 1.400 1_455 S
C391 C392 1.398 . S
C391 C397 1.491 1_455 S
C392 H383 0.950 . S
C392 C391 1.398 . S
C392 C393 1.391 . S
C393 H381 0.950 . S
C393 C389 1.393 . S
C393 C392 1.391 . S
C394 H384 0.950 . S
C394 C395 1.386 1_455 S
C394 C396 1.391 . S
C395 C394 1.386 1_655 S
C395 C399 1.393 . S
C396 H385 0.950 . S
C396 C394 1.391 . S
C396 C397 1.400 1_455 S
C397 C391 1.491 1_655 S
C397 C396 1.400 1_655 S
C397 C398 1.398 . S
C398 H386 0.950 . S
C398 C397 1.398 . S
C398 C399 1.391 . S
C399 H387 0.950 . S
C399 C395 1.393 . S
C399 C398 1.391 . S
C169 C59 1.564 . S
C175 C10 1.564 . S
C189 C99 1.566 . S
C195 C130 1.566 . S
C209 C19 1.567 . S
C215 C50 1.567 . S
C229 C139 1.571 . S
C235 C90 1.571 . S
C249 C122 1.638 . S
C255 C2 1.641 . S
C269 C47 1.045 . S
C275 C87 1.038 . S
C289 C51 1.646 . S
C295 C91 1.640 . S
C309 C136 1.037 . S
C315 C16 1.048 . S
C329 C42 1.640 . S
C335 C82 1.639 . S
C349 C127 1.045 . S
C355 C7 1.037 . S
C369 C131 1.640 . S
C375 C11 1.648 . S
C389 C96 1.047 . S
C395 C56 1.036 . S
