# Generated by pormake.
# Topology smm, (6)-cn, num edge types: 1
# Building blocks:
#     Node 0, Type 0, BuildingBlock: BETGAK_clean_sbu_0, # of connection points: 6
#     Node 1, Type 0, BuildingBlock: BETGAK_clean_sbu_0, # of connection points: 6
#     Node 2, Type 0, BuildingBlock: BETGAK_clean_sbu_0, # of connection points: 6
#     Node 3, Type 0, BuildingBlock: BETGAK_clean_sbu_0, # of connection points: 6
#     Node 4, Type 0, BuildingBlock: BETGAK_clean_sbu_0, # of connection points: 6
#     Node 5, Type 0, BuildingBlock: BETGAK_clean_sbu_0, # of connection points: 6
#     Node 6, Type 0, BuildingBlock: BETGAK_clean_sbu_0, # of connection points: 6
#     Node 7, Type 0, BuildingBlock: BETGAK_clean_sbu_0, # of connection points: 6
#     Node 8, Type 0, BuildingBlock: BETGAK_clean_sbu_0, # of connection points: 6
#     Edge 9, Type (0, 0), BuildingBlock: TEMPAE_clean_linker_10, # of connection points: 2
#     Edge 10, Type (0, 0), BuildingBlock: TEMPAE_clean_linker_10, # of connection points: 2
#     Edge 11, Type (0, 0), BuildingBlock: TEMPAE_clean_linker_10, # of connection points: 2
#     Edge 12, Type (0, 0), BuildingBlock: TEMPAE_clean_linker_10, # of connection points: 2
#     Edge 13, Type (0, 0), BuildingBlock: TEMPAE_clean_linker_10, # of connection points: 2
#     Edge 14, Type (0, 0), BuildingBlock: TEMPAE_clean_linker_10, # of connection points: 2
#     Edge 15, Type (0, 0), BuildingBlock: TEMPAE_clean_linker_10, # of connection points: 2
#     Edge 16, Type (0, 0), BuildingBlock: TEMPAE_clean_linker_10, # of connection points: 2
#     Edge 17, Type (0, 0), BuildingBlock: TEMPAE_clean_linker_10, # of connection points: 2
#     Edge 18, Type (0, 0), BuildingBlock: TEMPAE_clean_linker_10, # of connection points: 2
#     Edge 19, Type (0, 0), BuildingBlock: TEMPAE_clean_linker_10, # of connection points: 2
#     Edge 20, Type (0, 0), BuildingBlock: TEMPAE_clean_linker_10, # of connection points: 2
#     Edge 21, Type (0, 0), BuildingBlock: TEMPAE_clean_linker_10, # of connection points: 2
#     Edge 22, Type (0, 0), BuildingBlock: TEMPAE_clean_linker_10, # of connection points: 2
#     Edge 23, Type (0, 0), BuildingBlock: TEMPAE_clean_linker_10, # of connection points: 2
#     Edge 24, Type (0, 0), BuildingBlock: TEMPAE_clean_linker_10, # of connection points: 2
#     Edge 25, Type (0, 0), BuildingBlock: TEMPAE_clean_linker_10, # of connection points: 2
#     Edge 26, Type (0, 0), BuildingBlock: TEMPAE_clean_linker_10, # of connection points: 2
#     Edge 27, Type (0, 0), BuildingBlock: TEMPAE_clean_linker_10, # of connection points: 2
#     Edge 28, Type (0, 0), BuildingBlock: TEMPAE_clean_linker_10, # of connection points: 2
#     Edge 29, Type (0, 0), BuildingBlock: TEMPAE_clean_linker_10, # of connection points: 2
#     Edge 30, Type (0, 0), BuildingBlock: TEMPAE_clean_linker_10, # of connection points: 2
#     Edge 31, Type (0, 0), BuildingBlock: TEMPAE_clean_linker_10, # of connection points: 2
#     Edge 32, Type (0, 0), BuildingBlock: TEMPAE_clean_linker_10, # of connection points: 2
#     Edge 33, Type (0, 0), BuildingBlock: TEMPAE_clean_linker_10, # of connection points: 2
#     Edge 34, Type (0, 0), BuildingBlock: TEMPAE_clean_linker_10, # of connection points: 2
#     Edge 35, Type (0, 0), BuildingBlock: TEMPAE_clean_linker_10, # of connection points: 2
# Relax obj value: 0.043
# Max RMSD: 0.121
# Mean RMSD: 0.121
data_MOF--net-smm--node1-BETGAK_clean_sbu_0--edge1-TEMPAE_clean_linker_10
_symmetry_space_group_name_H-M    P1
_symmetry_Int_Tables_number       1
_symmetry_cell_setting            triclinic
loop_
_symmetry_equiv_pos_as_xyz
'x, y, z'
_cell_length_a     71.013938
_cell_length_b     71.030238
_cell_length_c     14.416579
_cell_angle_alpha  90.128482
_cell_angle_beta   89.919292
_cell_angle_gamma 120.05202
loop_
_atom_site_label
_atom_site_type_symbol
_atom_site_fract_x
_atom_site_fract_y
_atom_site_fract_z
_atom_type_partial_charge
La0 La 0.07274 0.22761 -0.00595 0.0
La1 La 1.03178 0.18503 0.03561 0.0
C2 C 0.10085 0.26184 0.91302 0.0
C3 C 0.10855 0.28509 0.89617 0.0
C4 C 0.12991 0.29828 0.8645 0.0
C5 C 0.13777 0.32016 0.84326 0.0
C6 C 0.12444 0.32946 0.85313 0.0
C7 C 0.10305 0.31628 0.88662 0.0
C8 C 0.09514 0.29424 0.90766 0.0
C9 C 0.06662 0.2173 0.17143 0.0
C10 C 1.02814 0.22724 0.03817 0.0
C11 C 1.00266 0.14857 0.0975 0.0
C12 C 0.99447 0.12511 0.08411 0.0
C13 C 1.0061 0.11741 0.03297 0.0
C14 C 0.99771 0.09494 0.02159 0.0
C15 C 0.97757 0.07979 0.06129 0.0
C16 C 0.96605 0.08773 0.11205 0.0
C17 C 0.97441 0.1101 0.12329 0.0
C18 C 1.03934 0.19626 0.8593 0.0
C19 C 0.07725 0.18605 0.01163 0.0
O20 O 0.10334 0.25624 -0.00346 0.0
O21 O 0.08233 0.24749 0.87559 0.0
O22 O 0.08554 0.22931 0.13365 0.0
O23 O 0.05209 0.21374 0.11277 0.0
O24 O 0.04759 0.23738 -0.0023 0.0
O25 O 1.0202 0.20735 0.07243 0.0
O26 O 0.99969 0.15878 0.0288 0.0
O27 O 1.02199 0.16008 0.13436 0.0
O28 O 1.02013 0.1857 0.89515 0.0
O29 O 0.05304 0.19843 0.91915 0.0
O30 O 0.057 0.17571 0.04338 0.0
O31 O 0.08595 0.20589 0.97632 0.0
H32 H 0.14054 0.29157 0.85535 0.0
H33 H 0.15441 0.32984 0.81946 0.0
H34 H 0.09231 0.32288 0.89473 0.0
H35 H 0.07858 0.28432 0.93188 0.0
H36 H 1.02163 0.12874 0.00208 0.0
H37 H 1.00713 0.08945 0.98276 0.0
H38 H 0.95035 0.07665 0.14226 0.0
H39 H 0.96513 0.11571 0.16259 0.0
La40 La 0.86426 0.86947 0.98685 0.0
La41 La 0.90707 0.8711 0.02724 0.0
C42 C 0.82993 0.86324 0.90655 0.0
C43 C 0.80664 0.84756 0.89015 0.0
C44 C 0.79326 0.85562 0.86032 0.0
C45 C 0.77137 0.84148 0.83916 0.0
C46 C 0.76225 0.81882 0.84729 0.0
C47 C 0.77562 0.81073 0.87902 0.0
C48 C 0.79768 0.82498 0.89994 0.0
C49 C 0.87563 0.87474 0.16295 0.0
C50 C 0.86452 0.82528 0.03162 0.0
C51 C 0.94328 0.87808 0.09036 0.0
C52 C 0.96678 0.89371 0.08073 0.0
C53 C 0.97467 0.91232 0.02481 0.0
C54 C 0.99719 0.92644 0.01507 0.0
C55 C 1.01219 0.92219 0.06115 0.0
C56 C 1.00403 0.90352 0.11726 0.0
C57 C 0.98162 0.88949 0.12688 0.0
C58 C 0.89561 0.86718 0.85084 0.0
C59 C 0.90622 0.91559 0.00195 0.0
O60 O 0.83565 0.87144 -0.01 0.0
O61 O 0.84424 0.85908 0.86871 0.0
O62 O 0.863 0.88099 0.12635 0.0
O63 O 0.87862 0.86324 0.10493 0.0
O64 O 0.85423 0.83454 -0.00746 0.0
O65 O 0.88468 0.83718 0.06339 0.0
O66 O 0.93362 0.86586 0.01816 0.0
O67 O 0.93135 0.88512 0.12977 0.0
O68 O 0.90638 0.85876 0.8867 0.0
O69 O 0.89325 0.87854 0.91131 0.0
O70 O 0.91673 0.90576 0.03228 0.0
O71 O 0.88612 0.9044 0.96887 0.0
H72 H 0.79982 0.87297 0.85246 0.0
H73 H 0.76154 0.84835 0.81677 0.0
H74 H 0.76917 0.79338 0.88578 0.0
H75 H 0.80774 0.81841 0.92264 0.0
H76 H 0.96346 0.91585 -0.01153 0.0
H77 H 1.00284 0.94075 0.97204 0.0
H78 H 1.01499 0.89947 0.15257 0.0
H79 H 0.97586 0.87515 0.16988 0.0
La80 La 0.22285 1.01848 -0.00247 0.0
La81 La 0.22103 0.05968 0.03501 0.0
C82 C 0.23039 0.99037 0.92559 0.0
C83 C 0.24803 0.98541 0.90545 0.0
C84 C 0.25444 0.97529 0.97216 0.0
C85 C 0.26874 0.9678 0.94886 0.0
C86 C 0.27692 0.97009 0.85804 0.0
C87 C 0.27101 0.9808 0.7921 0.0
C88 C 0.25672 0.9883 0.81542 0.0
C89 C 0.21704 1.0252 0.17212 0.0
C90 C 0.26694 0.06345 0.03955 0.0
C91 C 0.21253 0.08788 0.09761 0.0
C92 C 0.19644 0.09517 0.08312 0.0
C93 C 0.19369 0.10242 -0.00388 0.0
C94 C 0.17981 0.11101 0.98606 0.0
C95 C 0.16828 0.11253 0.0626 0.0
C96 C 0.17065 0.1047 0.14897 0.0
C97 C 0.18459 0.09621 0.15906 0.0
C98 C 0.22598 0.05226 0.85979 0.0
C99 C 0.17664 1.01389 0.00732 0.0
O100 O 0.22464 0.99 0.01223 0.0
O101 O 0.2302 1.00607 0.87878 0.0
O102 O 0.20928 1.00607 0.13499 0.0
O103 O 0.229 0.03944 0.11423 0.0
O104 O 0.25767 0.04379 0.00113 0.0
O105 O 0.25505 0.07175 0.07096 0.0
O106 O 0.22635 0.09148 0.03044 0.0
O107 O 0.20548 0.06878 0.13579 0.0
O108 O 0.23285 0.0714 0.8945 0.0
O109 O 0.21439 0.03843 0.91932 0.0
O110 O 0.18637 0.03443 0.03578 0.0
O111 O 0.1879 1.00473 0.9782 0.0
H112 H 0.24785 0.97246 0.0418 0.0
H113 H 0.27265 0.95941 0.00127 0.0
H114 H 0.2772 0.98313 0.72184 0.0
H115 H 0.25196 0.9958 0.76198 0.0
H116 H 0.20259 0.1019 0.93604 0.0
H117 H 0.17864 0.11705 0.91868 0.0
H118 H 0.16178 0.1052 0.20918 0.0
H119 H 0.18639 0.09075 0.22688 0.0
La120 La 0.73904 0.56199 0.32913 0.0
La121 La 0.69802 0.51911 0.36814 0.0
C122 C 0.76666 0.59731 0.25345 0.0
C123 C 0.77173 0.61998 0.23442 0.0
C124 C 0.78261 0.63661 0.30042 0.0
C125 C 0.79011 0.6584 0.27744 0.0
C126 C 0.78707 0.6642 0.18766 0.0
C127 C 0.7756 0.64747 0.1226 0.0
C128 C 0.7681 0.62568 0.14558 0.0
C129 C 0.7327 0.55034 0.50471 0.0
C130 C 0.69414 0.56115 0.37238 0.0
C131 C 0.66973 0.48228 0.42947 0.0
C132 C 0.66253 0.45888 0.41504 0.0
C133 C 0.65407 0.44847 0.32951 0.0
C134 C 0.6456 0.42599 0.31986 0.0
C135 C 0.64536 0.41332 0.39538 0.0
C136 C 0.65434 0.42391 0.48019 0.0
C137 C 0.66273 0.44637 0.48989 0.0
C138 C 0.70546 0.53107 0.19257 0.0
C139 C 0.74386 0.52063 0.34197 0.0
O140 O 0.76802 0.59206 0.33921 0.0
O141 O 0.7502 0.58146 0.20936 0.0
O142 O 0.75174 0.56195 0.46717 0.0
O143 O 0.71828 0.54754 0.44675 0.0
O144 O 0.71373 0.57147 0.33333 0.0
O145 O 0.68595 0.54106 0.40454 0.0
O146 O 0.66626 0.49247 0.36203 0.0
O147 O 0.68873 0.49443 0.46853 0.0
O148 O 0.68627 0.51947 0.22774 0.0
O149 O 0.71923 0.53323 0.25211 0.0
O150 O 0.72341 0.50995 0.37165 0.0
O151 O 0.7528 0.54081 0.31035 0.0
H152 H 0.78602 0.63291 0.36909 0.0
H153 H 0.79909 0.6708 0.3291 0.0
H154 H 0.77268 0.65124 0.05322 0.0
H155 H 0.75999 0.61334 0.09269 0.0
H156 H 0.65356 0.45756 0.27032 0.0
H157 H 0.63864 0.41846 0.25378 0.0
H158 H 0.65481 0.41484 0.53951 0.0
H159 H 0.66909 0.45392 0.55665 0.0
La160 La 0.52984 0.20242 0.32988 0.0
La161 La 0.57261 0.20399 0.36857 0.0
C162 C 0.49524 0.1964 0.25278 0.0
C163 C 0.47274 0.17994 0.22732 0.0
C164 C 0.46159 0.15934 0.26909 0.0
C165 C 0.43976 0.14474 0.24596 0.0
C166 C 0.42871 0.15051 0.18067 0.0
C167 C 0.4402 0.17112 0.13867 0.0
C168 C 0.4619 0.18558 0.1616 0.0
C169 C 0.54171 0.20811 0.50524 0.0
C170 C 0.53021 0.15829 0.37231 0.0
C171 C 0.60901 0.21081 0.42887 0.0
C172 C 0.63251 0.22613 0.41689 0.0
C173 C 0.64037 0.24512 0.36348 0.0
C174 C 0.66287 0.25906 0.35225 0.0
C175 C 0.67791 0.25427 0.39437 0.0
C176 C 0.6698 0.23518 0.44771 0.0
C177 C 0.64739 0.22132 0.45878 0.0
C178 C 0.5608 0.19998 0.19277 0.0
C179 C 0.57166 0.24857 0.34598 0.0
O180 O 0.49958 0.20082 0.34098 0.0
O181 O 0.51111 0.19594 0.2084 0.0
O182 O 0.52952 0.21486 0.46821 0.0
O183 O 0.54438 0.19627 0.44777 0.0
O184 O 0.52015 0.16756 0.33129 0.0
O185 O 0.55014 0.17022 0.40626 0.0
O186 O 0.59885 0.19825 0.35816 0.0
O187 O 0.59748 0.2183 0.4684 0.0
O188 O 0.57145 0.19139 0.22811 0.0
O189 O 0.55869 0.21146 0.25336 0.0
O190 O 0.58232 0.23868 0.37392 0.0
O191 O 0.55138 0.23746 0.31489 0.0
H192 H 0.46967 0.15465 0.32003 0.0
H193 H 0.43156 0.12895 0.27908 0.0
H194 H 0.43226 0.17639 0.08954 0.0
H195 H 0.47016 0.20144 0.12895 0.0
H196 H 0.62913 0.24912 0.33046 0.0
H197 H 0.6685 0.27369 0.31142 0.0
H198 H 0.68078 0.23071 0.47989 0.0
H199 H 0.64166 0.20668 0.4998 0.0
La200 La 0.88863 0.35188 0.32361 0.0
La201 La 0.8864 0.39269 0.36282 0.0
C202 C 0.89668 0.32443 0.24831 0.0
C203 C 0.91439 0.31946 0.22986 0.0
C204 C 0.92067 0.3094 0.29739 0.0
C205 C 0.93507 0.30195 0.27525 0.0
C206 C 0.94348 0.30423 0.18484 0.0
C207 C 0.9377 0.3149 0.11818 0.0
C208 C 0.92331 0.32235 0.14032 0.0
C209 C 0.88301 0.3581 0.49922 0.0
C210 C 0.93244 0.3969 0.36816 0.0
C211 C 0.87781 0.42092 0.42438 0.0
C212 C 0.8619 0.42843 0.40935 0.0
C213 C 0.86016 0.43684 0.32351 0.0
C214 C 0.8465 0.44567 0.31345 0.0
C215 C 0.83419 0.44631 0.38887 0.0
C216 C 0.83556 0.43735 0.47396 0.0
C217 C 0.84928 0.4286 0.48406 0.0
C218 C 0.89127 0.38538 0.18724 0.0
C219 C 0.84223 0.34675 0.33568 0.0
O220 O 0.88987 0.32302 0.33386 0.0
O221 O 0.89729 0.34084 0.20411 0.0
O222 O 0.87579 0.3391 0.46157 0.0
O223 O 0.89462 0.37256 0.4414 0.0
O224 O 0.92338 0.37746 0.32774 0.0
O225 O 0.92029 0.40475 0.40109 0.0
O226 O 0.89179 0.42451 0.35793 0.0
O227 O 0.87055 0.40176 0.46221 0.0
O228 O 0.8987 0.40453 0.22267 0.0
O229 O 0.87961 0.37155 0.24653 0.0
O230 O 0.85185 0.3672 0.36522 0.0
O231 O 0.85362 0.33788 0.30472 0.0
H232 H 0.91392 0.3066 0.36673 0.0
H233 H 0.93889 0.2936 0.32821 0.0
H234 H 0.94406 0.31724 0.04823 0.0
H235 H 0.91865 0.32981 0.08633 0.0
H236 H 0.8697 0.43705 0.26443 0.0
H237 H 0.8461 0.45259 0.24715 0.0
H238 H 0.82608 0.43717 0.53319 0.0
H239 H 0.85032 0.42228 0.55103 0.0
La240 La 0.40653 0.8946 0.66124 0.0
La241 La 0.36581 0.85164 0.70075 0.0
C242 C 0.4338 0.92998 0.58473 0.0
C243 C 0.43867 0.9526 0.56621 0.0
C244 C 0.44904 0.96912 0.63312 0.0
C245 C 0.45632 0.99091 0.61078 0.0
C246 C 0.45356 0.99683 0.52077 0.0
C247 C 0.4426 0.9802 0.45475 0.0
C248 C 0.43532 0.95841 0.47709 0.0
C249 C 0.40042 0.8833 0.8373 0.0
C250 C 0.3615 0.89336 0.70543 0.0
C251 C 0.33742 0.81478 0.76141 0.0
C252 C 0.32971 0.79133 0.74611 0.0
C253 C 0.32162 0.78125 0.65969 0.0
C254 C 0.31259 0.75871 0.64937 0.0
C255 C 0.31143 0.74567 0.72511 0.0
C256 C 0.32009 0.75593 0.8108 0.0
C257 C 0.32903 0.77844 0.82115 0.0
C258 C 0.37318 0.8635 0.5251 0.0
C259 C 0.41181 0.85348 0.6753 0.0
O260 O 0.43545 0.92475 0.67018 0.0
O261 O 0.41727 0.91406 0.54125 0.0
O262 O 0.41938 0.8952 0.79961 0.0
O263 O 0.38589 0.88014 0.7793 0.0
O264 O 0.38089 0.90368 0.66458 0.0
O265 O 0.35378 0.87348 0.73925 0.0
O266 O 0.33392 0.82523 0.6952 0.0
O267 O 0.35663 0.82658 0.79916 0.0
O268 O 0.354 0.85225 0.56069 0.0
O269 O 0.38698 0.86569 0.58452 0.0
O270 O 0.39133 0.84265 0.70442 0.0
O271 O 0.42066 0.87369 0.64389 0.0
H272 H 0.4522 0.96536 0.70209 0.0
H273 H 0.46491 1.00323 0.66321 0.0
H274 H 0.43989 0.98404 0.38514 0.0
H275 H 0.42762 0.94616 0.42354 0.0
H276 H 0.32182 0.79068 0.60036 0.0
H277 H 0.30593 0.75144 0.58257 0.0
H278 H 0.31987 0.74655 0.87031 0.0
H279 H 0.3351 0.78575 0.88855 0.0
La280 La 0.19625 0.53443 0.66363 0.0
La281 La 0.23941 0.53698 0.70331 0.0
C282 C 0.1611 0.52645 0.58546 0.0
C283 C 0.13825 0.50909 0.56745 0.0
C284 C 0.12189 0.50325 0.63481 0.0
C285 C 0.09996 0.48922 0.61255 0.0
C286 C 0.09378 0.48074 0.52223 0.0
C287 C 0.11024 0.48606 0.45582 0.0
C288 C 0.13215 0.5001 0.47805 0.0
C289 C 0.20791 0.54029 0.83936 0.0
C290 C 0.19762 0.49086 0.70952 0.0
C291 C 0.27645 0.54567 0.76266 0.0
C292 C 0.29984 0.56187 0.74775 0.0
C293 C 0.31054 0.5625 0.66457 0.0
C294 C 0.33302 0.57653 0.65503 0.0
C295 C 0.34541 0.59028 0.72839 0.0
C296 C 0.33455 0.58996 0.81074 0.0
C297 C 0.31209 0.57589 0.82033 0.0
C298 C 0.22775 0.53271 0.52706 0.0
C299 C 0.23738 0.58094 0.67832 0.0
O300 O 0.16647 0.53399 0.67014 0.0
O301 O 0.17668 0.5249 0.54381 0.0
O302 O 0.1952 0.54639 0.80234 0.0
O303 O 0.211 0.52875 0.78191 0.0
O304 O 0.1872 0.49973 0.66831 0.0
O305 O 0.21759 0.50315 0.74259 0.0
O306 O 0.26608 0.53195 0.69537 0.0
O307 O 0.26438 0.55252 0.80248 0.0
O308 O 0.23876 0.52455 0.5629 0.0
O309 O 0.22525 0.54398 0.58745 0.0
O310 O 0.24819 0.5714 0.70854 0.0
O311 O 0.21729 0.56947 0.64547 0.0
H312 H 0.12591 0.51008 0.70404 0.0
H313 H 0.08778 0.48572 0.66531 0.0
H314 H 0.10618 0.47962 0.38598 0.0
H315 H 0.1443 0.50443 0.4242 0.0
H316 H 0.30168 0.55184 0.60729 0.0
H317 H 0.34078 0.57609 0.59099 0.0
H318 H 0.34343 0.60052 0.86824 0.0
H319 H 0.30434 0.57572 0.88538 0.0
La320 La 0.55647 0.68597 0.67244 0.0
La321 La 0.55463 0.72718 0.71032 0.0
C322 C 0.5626 0.65666 0.60351 0.0
C323 C 0.57923 0.65143 0.57105 0.0
C324 C 0.60023 0.66116 0.60924 0.0
C325 C 0.61471 0.65403 0.58275 0.0
C326 C 0.60844 0.63704 0.51764 0.0
C327 C 0.58753 0.62783 0.47826 0.0
C328 C 0.57317 0.63497 0.50456 0.0
C329 C 0.55058 0.6928 0.84696 0.0
C330 C 0.60042 0.73081 0.71073 0.0
C331 C 0.54731 0.75602 0.77548 0.0
C332 C 0.53206 0.76426 0.76297 0.0
C333 C 0.51341 0.75341 0.70718 0.0
C334 C 0.49956 0.76203 0.69532 0.0
C335 C 0.50411 0.78166 0.73907 0.0
C336 C 0.52287 0.79236 0.79478 0.0
C337 C 0.53663 0.78375 0.80653 0.0
C338 C 0.55949 0.71984 0.53478 0.0
C339 C 0.51021 0.6814 0.68499 0.0
O340 O 0.56164 0.65966 0.69263 0.0
O341 O 0.55933 0.67017 0.55372 0.0
O342 O 0.54243 0.67366 0.80956 0.0
O343 O 0.56267 0.70696 0.78913 0.0
O344 O 0.59115 0.71162 0.66811 0.0
O345 O 0.58848 0.73856 0.74681 0.0
O346 O 0.56061 0.75928 0.7066 0.0
O347 O 0.53946 0.73656 0.81115 0.0
O348 O 0.56618 0.73895 0.56955 0.0
O349 O 0.54805 0.70597 0.59445 0.0
O350 O 0.51996 0.70206 0.71187 0.0
O351 O 0.52142 0.6721 0.6569 0.0
H352 H 0.60529 0.67394 0.66066 0.0
H353 H 0.63075 0.66174 0.6137 0.0
H354 H 0.58189 0.61452 0.42922 0.0
H355 H 0.557 0.62712 0.47467 0.0
H356 H 0.50961 0.73834 0.67274 0.0
H357 H 0.48518 0.75321 0.65265 0.0
H358 H 0.52716 0.80766 0.82828 0.0
H359 H 0.55102 0.79246 0.84935 0.0
C360 C 0.14587 0.36152 0.74812 0.0
C361 C 0.13305 0.3528 0.82801 0.0
C362 C 0.15539 0.38372 0.72623 0.0
C363 C 0.15209 0.39773 0.78555 0.0
C364 C 0.13868 0.38896 0.86497 0.0
C365 C 0.12929 0.36662 0.88511 0.0
C366 C 0.1694 0.39228 0.64051 0.0
C367 C 0.13475 0.4033 0.93018 0.0
C368 C 0.19559 0.45781 0.78273 0.0
C369 C 0.18594 0.46698 0.72771 0.0
C370 C 0.18466 0.43543 0.80279 0.0
C371 C 0.16354 0.42168 0.76664 0.0
C372 C 0.15369 0.43079 0.71088 0.0
C373 C 0.16497 0.45329 0.69229 0.0
C374 C 0.19577 0.42647 0.86275 0.0
C375 C 0.13127 0.41674 0.67051 0.0
H376 H 0.14857 0.35094 0.70256 0.0
H377 H 0.11955 0.36012 0.94727 0.0
H378 H 0.16351 0.40096 0.59584 0.0
H379 H 0.18637 0.40418 0.66067 0.0
H380 H 0.16952 0.37912 0.59917 0.0
H381 H 0.123 0.39384 0.98601 0.0
H382 H 0.15034 0.41542 0.96266 0.0
H383 H 0.12847 0.41246 0.89128 0.0
H384 H 0.21172 0.46815 0.81093 0.0
H385 H 0.15731 0.46014 0.64976 0.0
H386 H 0.1978 0.41418 0.82331 0.0
H387 H 0.18554 0.41816 0.92416 0.0
H388 H 0.21201 0.43935 0.88713 0.0
H389 H 0.13119 0.40409 0.62491 0.0
H390 H 0.12575 0.42631 0.62954 0.0
H391 H 0.11937 0.40819 0.72691 0.0
C392 C 0.72524 0.78615 0.87845 0.0
C393 C 0.7389 0.80397 0.82223 0.0
C394 C 0.70288 0.77311 0.85867 0.0
C395 C 0.6939 0.77789 0.7805 0.0
C396 C 0.70775 0.7954 0.72186 0.0
C397 C 0.72998 0.80817 0.74339 0.0
C398 C 0.68872 0.75465 0.92317 0.0
C399 C 0.69897 0.80101 0.63748 0.0
C400 C 0.63783 0.73552 0.689 0.0
C401 C 0.6244 0.74287 0.72687 0.0
C402 C 0.66041 0.74662 0.70616 0.0
C403 C 0.66986 0.76548 0.76293 0.0
C404 C 0.65637 0.7729 0.80155 0.0
C405 C 0.63392 0.76158 0.7829 0.0
C406 C 0.67418 0.73821 0.66323 0.0
C407 C 0.66567 0.79285 0.86273 0.0
H408 H 0.7319 0.78283 0.93977 0.0
H409 H 0.74043 0.82163 0.69846 0.0
H410 H 0.67678 0.75807 0.95776 0.0
H411 H 0.67934 0.73932 0.88337 0.0
H412 H 0.69835 0.75214 0.97738 0.0
H413 H 0.71204 0.81431 0.59601 0.0
H414 H 0.69005 0.78649 0.59242 0.0
H415 H 0.68723 0.80615 0.6593 0.0
H416 H 0.63071 0.72108 0.64578 0.0
H417 H 0.62378 0.7674 0.81311 0.0
H418 H 0.68301 0.73483 0.71815 0.0
H419 H 0.6866 0.75077 0.61701 0.0
H420 H 0.66434 0.72311 0.62229 0.0
H421 H 0.67417 0.79075 0.92289 0.0
H422 H 0.65296 0.79625 0.88906 0.0
H423 H 0.67788 0.80725 0.82347 0.0
C424 C 0.28732 0.94947 0.74614 0.0
C425 C 0.29063 0.96035 0.83132 0.0
C426 C 0.29922 0.9392 0.72202 0.0
C427 C 0.31486 0.93972 0.78448 0.0
C428 C 0.31858 0.951 0.8698 0.0
C429 C 0.30646 0.96114 0.89213 0.0
C430 C 0.29467 0.92734 0.63048 0.0
C431 C 0.33514 0.95205 0.93831 0.0
C432 C 0.32928 0.89476 0.76943 0.0
C433 C 0.34931 0.90509 0.72256 0.0
C434 C 0.31792 0.90579 0.78948 0.0
C435 C 0.32672 0.92777 0.76216 0.0
C436 C 0.34683 0.93826 0.71406 0.0
C437 C 0.35786 0.92682 0.6948 0.0
C438 C 0.29653 0.89394 0.84071 0.0
C439 C 0.3568 0.96165 0.68357 0.0
H440 H 0.27495 0.94842 0.69909 0.0
H441 H 0.30939 0.96973 0.95751 0.0
H442 H 0.30996 0.9334 0.59032 0.0
H443 H 0.28818 0.90974 0.64296 0.0
H444 H 0.28276 0.92928 0.58771 0.0
H445 H 0.33666 0.96207 0.00017 0.0
H446 H 0.33047 0.9354 0.96174 0.0
H447 H 0.35131 0.95897 0.90459 0.0
H448 H 0.32246 0.878 0.79128 0.0
H449 H 0.37331 0.93502 0.65864 0.0
H450 H 0.28346 0.89403 0.79898 0.0
H451 H 0.29763 0.90241 0.90699 0.0
H452 H 0.29174 0.8768 0.85623 0.0
H453 H 0.34537 0.96355 0.63751 0.0
H454 H 0.37243 0.96742 0.64609 0.0
H455 H 0.35978 0.97226 0.74483 0.0
C456 C 0.39755 0.13433 0.06678 0.0
C457 C 0.40519 0.13559 0.15781 0.0
C458 C 0.37527 0.12191 0.04536 0.0
C459 C 0.36008 0.11016 0.11632 0.0
C460 C 0.3677 0.11071 0.2077 0.0
C461 C 0.39009 0.12343 0.22737 0.0
C462 C 0.36793 0.12181 0.94702 0.0
C463 C 0.35211 0.09832 0.28536 0.0
C464 C 0.30141 0.09726 0.08589 0.0
C465 C 0.29087 0.07549 0.05641 0.0
C466 C 0.32386 0.1087 0.10506 0.0
C467 C 0.33618 0.0981 0.09564 0.0
C468 C 0.32566 0.07613 0.06583 0.0
C469 C 0.30321 0.06514 0.04606 0.0
C470 C 0.3344 0.13217 0.13546 0.0
C471 C 0.33809 0.06413 0.05571 0.0
H472 H 0.40903 0.14326 0.01195 0.0
H473 H 0.39567 0.12438 0.29806 0.0
H474 H 0.35833 0.10487 0.92097 0.0
H475 H 0.35715 0.12894 0.94523 0.0
H476 H 0.38181 0.13119 0.89915 0.0
H477 H 0.36068 0.09924 0.3511 0.0
H478 H 0.34115 0.10499 0.29791 0.0
H479 H 0.34174 0.08097 0.26574 0.0
H480 H 0.29211 0.10547 0.09389 0.0
H481 H 0.29527 0.0483 0.02389 0.0
H482 H 0.34771 0.1426 0.08688 0.0
H483 H 0.34179 0.13412 0.2051 0.0
H484 H 0.32265 0.13815 0.1384 0.0
H485 H 0.35154 0.07263 0.00515 0.0
H486 H 0.32756 0.04707 0.03217 0.0
H487 H 0.34556 0.06399 0.12308 0.0
C488 C 0.95422 0.28368 0.07408 0.0
C489 C 0.95729 0.29453 0.1592 0.0
C490 C 0.96623 0.27347 0.05083 0.0
C491 C 0.98174 0.27402 0.11411 0.0
C492 C 0.98523 0.28527 0.19938 0.0
C493 C 0.973 0.29536 0.22084 0.0
C494 C 0.96191 0.26162 0.95934 0.0
C495 C 1.00165 0.28635 0.26876 0.0
C496 C 0.99597 0.2289 0.10105 0.0
C497 C 1.01608 0.23914 0.05473 0.0
C498 C 0.98467 0.24003 0.12037 0.0
C499 C 0.9936 0.26201 0.0929 0.0
C500 C 1.01381 0.27242 0.04546 0.0
C501 C 1.02477 0.26087 0.02687 0.0
C502 C 0.96317 0.22825 0.17088 0.0
C503 C 1.02394 0.29581 0.01483 0.0
H504 H 0.94194 0.28261 0.02638 0.0
H505 H 0.97575 0.30392 0.28619 0.0
H506 H 0.9773 0.26766 0.91997 0.0
H507 H 0.95535 0.24402 0.97193 0.0
H508 H 0.95012 0.2636 0.91577 0.0
H509 H 1.00306 0.29643 0.33027 0.0
H510 H 0.9969 0.26971 0.29262 0.0
H511 H 1.01788 0.29321 0.23565 0.0
H512 H 0.98902 0.21214 0.12296 0.0
H513 H 1.04025 0.26898 -0.00894 0.0
H514 H 0.95021 0.22835 0.12839 0.0
H515 H 0.96416 0.23677 0.23687 0.0
H516 H 0.95831 0.21111 0.18681 0.0
H517 H 1.01269 0.29774 0.96768 0.0
H518 H 1.03969 0.30155 0.97847 0.0
H519 H 1.02672 0.30643 0.07586 0.0
C520 C 0.86296 0.79149 0.09379 0.0
C521 C 0.85254 0.80137 0.04941 0.0
C522 C 0.85176 0.76913 0.1145 0.0
C523 C 0.82952 0.75618 0.09041 0.0
C524 C 0.81892 0.76598 0.04489 0.0
C525 C 0.83054 0.7884 0.02489 0.0
C526 C 0.86375 0.75941 0.16289 0.0
C527 C 0.79525 0.7528 0.01788 0.0
C528 C 0.80694 0.69492 0.07413 0.0
C529 C 0.79681 0.68761 0.16082 0.0
C530 C 0.8172 0.71705 0.0496 0.0
C531 C 0.81745 0.73241 0.11318 0.0
C532 C 0.80691 0.72512 0.20008 0.0
C533 C 0.79676 0.70288 0.22281 0.0
C534 C 0.82826 0.72407 0.95638 0.0
C535 C 0.80669 0.7409 0.26983 0.0
H536 H 0.87993 0.80125 0.11313 0.0
H537 H 0.82227 0.79578 -0.00931 0.0
H538 H 0.85578 0.75225 0.23012 0.0
H539 H 0.86307 0.74606 0.12026 0.0
H540 H 0.88108 0.77161 0.17619 0.0
H541 H 0.78939 0.76278 0.98241 0.0
H542 H 0.7927 0.7393 0.97108 0.0
H543 H 0.78513 0.74536 0.08051 0.0
H544 H 0.8074 0.6834 0.02612 0.0
H545 H 0.78876 0.69743 0.28941 0.0
H546 H 0.846 0.73501 0.96629 0.0
H547 H 0.82207 0.7334 0.91816 0.0
H548 H 0.82571 0.71004 0.91295 0.0
H549 H 0.82359 0.75275 0.29117 0.0
H550 H 0.79711 0.73258 0.3328 0.0
H551 H 0.79974 0.75029 0.23802 0.0
C552 C 0.06278 0.47047 0.41072 0.0
C553 C 0.07025 0.46731 0.49629 0.0
C554 C 1.0406 0.4587 0.38672 0.0
C555 C 1.02535 0.44334 0.44971 0.0
C556 C 1.03277 0.43982 0.53562 0.0
C557 C 0.05507 0.45182 0.55783 0.0
C558 C 1.03344 0.46304 0.29458 0.0
C559 C 1.01711 0.42356 0.6047 0.0
C560 C 0.96606 0.42918 0.43209 0.0
C561 C 0.95635 0.40903 0.38597 0.0
C562 C 0.98843 0.44048 0.45285 0.0
C563 C 1.00156 0.4315 0.42704 0.0
C564 C 0.99192 0.41127 0.37978 0.0
C565 C 0.96948 0.40031 0.35976 0.0
C566 C 0.99799 0.46201 0.50309 0.0
C567 C 1.00529 0.40111 0.35092 0.0
H568 H 0.07423 0.48261 0.36314 0.0
H569 H 0.06063 0.44901 0.62355 0.0
H570 H 1.02424 0.44766 0.25493 0.0
H571 H 1.02233 0.46957 0.30612 0.0
H572 H 0.04738 0.47484 0.25173 0.0
H573 H 1.0255 0.42225 0.66724 0.0
H574 H 1.00513 0.42836 0.62689 0.0
H575 H 1.00784 0.40727 0.57192 0.0
H576 H 0.95616 0.43613 0.45277 0.0
H577 H 0.96222 0.38477 0.32422 0.0
H578 H 1.01126 0.47493 0.46113 0.0
H579 H 1.00523 0.46105 0.56982 0.0
H580 H 0.98566 0.46689 0.51763 0.0
H581 H 1.01873 0.41235 0.30466 0.0
H582 H 0.99542 0.38537 0.31422 0.0
H583 H 1.0128 0.3983 0.41287 0.0
C584 C 0.62365 0.6213 0.40235 0.0
C585 C 0.62307 0.62819 0.49328 0.0
C586 C 0.6358 0.6112 0.37999 0.0
C587 C 0.64793 0.60801 0.44987 0.0
C588 C 0.64801 0.61555 0.54108 0.0
C589 C 0.63557 0.62546 0.56171 0.0
C590 C 0.63523 0.60345 0.28186 0.0
C591 C 0.66082 0.61264 0.61762 0.0
C592 C 0.66053 0.56201 0.42036 0.0
C593 C 0.68217 0.57311 0.38917 0.0
C594 C 0.64921 0.57314 0.43956 0.0
C595 C 0.65979 0.59601 0.42837 0.0
C596 C 0.68161 0.60732 0.39666 0.0
C597 C 0.69248 0.59575 0.37696 0.0
C598 C 0.62589 0.56037 0.4721 0.0
C599 C 0.69359 0.6317 0.38458 0.0
H600 H 0.61443 0.62365 0.34837 0.0
H601 H 0.63511 0.63044 0.63238 0.0
H602 H 0.65199 0.61061 0.25399 0.0
H603 H 0.62801 0.58551 0.28122 0.0
H604 H 0.62559 0.60776 0.23483 0.0
H605 H 0.66032 0.62059 0.68332 0.0
H606 H 0.65416 0.59505 0.63102 0.0
H607 H 0.67804 0.61949 0.5963 0.0
H608 H 0.65235 0.54454 0.42978 0.0
H609 H 0.70922 0.60455 0.35339 0.0
H610 H 0.61524 0.56308 0.42436 0.0
H611 H 0.62436 0.56612 0.54179 0.0
H612 H 0.61987 0.54263 0.47583 0.0
H613 H 0.68477 0.6364 0.33477 0.0
H614 H 0.71048 0.6381 0.35912 0.0
H615 H 0.69421 0.63967 0.45169 0.0
C616 C 0.52859 0.12444 0.43386 0.0
C617 C 0.51825 0.13434 0.38898 0.0
C618 C 0.51744 0.10203 0.45338 0.0
C619 C 0.49531 0.08902 0.42758 0.0
C620 C 0.48478 0.09885 0.38163 0.0
C621 C 0.49636 0.12134 0.3628 0.0
C622 C 0.52935 0.09229 0.5023 0.0
C623 C 0.46124 0.08561 0.35286 0.0
C624 C 0.47346 1.02791 0.40877 0.0
C625 C 0.46306 1.02028 0.49478 0.0
C626 C 0.48352 0.05008 0.38517 0.0
C627 C 0.48331 0.06517 0.44901 0.0
C628 C 0.47249 0.05755 0.53515 0.0
C629 C 0.46253 0.03527 0.55694 0.0
C630 C 0.49491 0.05745 0.29274 0.0
C631 C 0.47178 0.07302 0.60517 0.0
H632 H 0.54547 0.13423 0.45445 0.0
H633 H 0.48815 0.12874 0.32822 0.0
H634 H 0.52112 0.08487 0.56879 0.0
H635 H 0.52898 0.07915 0.45926 0.0
H636 H 0.54659 0.10455 0.51708 0.0
H637 H 0.45539 0.09564 0.31769 0.0
H638 H 0.45901 0.07236 0.30521 0.0
H639 H 0.45089 0.07784 0.4146 0.0
H640 H 0.4743 1.01662 0.36063 0.0
H641 H 0.45431 1.02958 0.62298 0.0
H642 H 0.51259 0.06846 0.30389 0.0
H643 H 0.48875 0.06682 0.25449 0.0
H644 H 0.49262 0.0436 0.24875 0.0
H645 H 0.48854 0.0849 0.62802 0.0
H646 H 0.46194 0.06445 0.66724 0.0
H647 H 0.46486 0.0824 0.57304 0.0
C648 C 0.15398 0.13631 0.1236 0.0
C649 C 0.15439 0.12282 0.0531 0.0
C650 C 0.14129 0.14635 0.11544 0.0
C651 C 0.1287 0.14303 0.03449 0.0
C652 C 0.12901 0.12946 0.96298 0.0
C653 C 0.14177 0.11951 0.97319 0.0
C654 C 0.14144 0.16064 0.19348 0.0
C655 C 0.11585 0.12546 0.87554 0.0
C656 C 0.08124 0.15377 0.05152 0.0
C657 C 0.0902 0.17477 0.01404 0.0
C658 C 0.09346 0.14316 0.0574 0.0
C659 C 0.11522 0.15374 0.025 0.0
C660 C 0.12425 0.1748 0.98581 0.0
C661 C 0.11168 0.18505 0.9809 0.0
C662 C 0.08315 0.12074 0.09971 0.0
C663 C 0.14734 0.18663 0.95003 0.0
H664 H 0.16391 0.13935 0.18493 0.0
H665 H 0.14168 0.10893 0.91872 0.0
H666 H 0.14743 0.1774 0.16765 0.0
H667 H 0.12465 0.15448 0.21952 0.0
H668 H 0.15186 0.16138 0.25236 0.0
H669 H 0.11798 0.11467 0.82601 0.0
H670 H 0.09833 0.11793 0.89302 0.0
H671 H 0.12068 0.14114 0.84059 0.0
H672 H 0.06468 0.14559 0.07732 0.0
H673 H 0.1188 0.20124 0.95168 0.0
H674 H 0.09222 0.12115 0.16298 0.0
H675 H 0.08405 0.1092 0.05047 0.0
H676 H 0.06583 0.11441 0.1187 0.0
H677 H 0.15879 0.18934 0.00754 0.0
H678 H 0.15176 0.20262 0.9189 0.0
H679 H 0.14959 0.17659 0.89699 0.0
C680 C 0.93952 0.95209 0.02973 0.0
C681 C 0.91753 0.93983 0.00378 0.0
C682 C 0.95018 0.97493 0.03571 0.0
C683 C 0.93861 0.9859 0.01593 0.0
C684 C 0.91652 0.97366 0.98827 0.0
C685 C 0.90629 0.95084 0.9823 0.0
C686 C 0.97377 0.98729 0.06482 0.0
C687 C 0.90353 0.98466 0.96685 0.0
C688 C 0.95787 0.04163 0.12456 0.0
C689 C 0.96842 0.05579 0.05008 0.0
C690 C 0.94831 1.01896 0.1145 0.0
C691 C 0.9493 1.01006 0.02783 0.0
C692 C 0.96023 1.02425 0.95271 0.0
C693 C 0.96964 0.04689 0.96469 0.0
C694 C 0.93694 1.00451 0.19664 0.0
C695 C 0.96171 1.01547 0.85921 0.0
H696 H 0.94845 0.94385 0.04618 0.0
H697 H 0.88931 0.9416 0.96233 0.0
H698 H 0.98354 0.99998 0.01282 0.0
H699 H 0.97533 0.9957 0.13172 0.0
H700 H 0.9808 0.9765 0.07304 0.0
H701 H 0.88677 0.97296 0.94302 0.0
H702 H 0.90246 0.99312 0.02969 0.0
H703 H 0.91182 0.99717 0.91239 0.0
H704 H 0.95714 0.04828 0.1913 0.0
H705 H 0.97754 0.05761 0.90639 0.0
H706 H 0.94437 0.99438 0.21285 0.0
H707 H 0.91959 0.99325 0.17966 0.0
H708 H 0.93777 1.01395 0.25956 0.0
H709 H 0.9693 1.00517 0.86651 0.0
H710 H 0.97134 1.02863 0.80864 0.0
H711 H 0.94514 1.005 0.83062 0.0
C712 C 0.04542 0.94565 0.96361 0.0
C713 C 1.03624 0.93687 0.05042 0.0
C714 C 0.06811 0.95861 0.95221 0.0
C715 C 0.08207 0.96295 0.02934 0.0
C716 C 0.07289 0.95442 0.11734 0.0
C717 C 0.05018 0.94158 0.1268 0.0
C718 C 0.07719 0.96743 0.85726 0.0
C719 C 0.0871 0.95869 0.2016 0.0
C720 C 0.14137 0.97844 -0.00798 0.0
C721 C 0.15239 1.00098 0.00785 0.0
C722 C 0.11852 0.96595 -0.0027 0.0
C723 C 0.10627 0.9762 0.01833 0.0
C724 C 0.11727 0.99901 0.0323 0.0
C725 C 0.14012 1.01107 0.02726 0.0
C726 C 0.1075 0.94168 0.98236 0.0
C727 C 0.1049 1.01065 0.05415 0.0
H728 H 1.03488 0.94196 0.90389 0.0
H729 H 1.04331 0.93523 0.19452 0.0
H730 H 0.08757 0.98539 0.86026 0.0
H731 H 0.08765 0.96086 0.83367 0.0
H732 H 0.06419 0.96319 0.80495 0.0
H733 H 0.07746 0.95101 0.26523 0.0
H734 H 0.09834 0.95233 0.18967 0.0
H735 H 0.09725 0.97645 0.2137 0.0
H736 H 0.15061 0.97042 0.97722 0.0
H737 H 0.14838 1.02847 0.03924 0.0
H738 H 0.09514 0.93665 0.92661 0.0
H739 H 0.09884 0.9331 0.04656 0.0
H740 H 0.11921 0.93626 0.96339 0.0
H741 H 0.09245 1.00707 0.0 0.0
H742 H 0.11574 1.02856 0.05885 0.0
H743 H 0.09618 1.00471 0.12107 0.0
C744 C 0.7476 0.48798 0.37695 0.0
C745 C 0.75683 0.50937 0.34344 0.0
C746 C 0.75979 0.47735 0.38215 0.0
C747 C 0.78181 0.48828 0.35317 0.0
C748 C 0.79115 0.50974 0.31807 0.0
C749 C 0.77859 0.52001 0.31368 0.0
C750 C 0.74915 0.45448 0.42004 0.0
C751 C 0.81454 0.52198 0.28617 0.0
C752 C 0.81953 0.46957 0.45221 0.0
C753 C 0.82053 0.45684 0.37969 0.0
C754 C 0.80702 0.47982 0.44448 0.0
C755 C 0.79522 0.47747 0.36197 0.0
C756 C 0.79615 0.46469 0.28839 0.0
C757 C 0.80872 0.45453 0.29816 0.0
C758 C 0.8065 0.49326 0.5247 0.0
C759 C 0.78381 0.46172 0.19929 0.0
H760 H 0.73083 0.47952 0.40016 0.0
H761 H 0.78593 0.5365 0.28764 0.0
H762 H 0.75041 0.44348 0.36886 0.0
H763 H 0.75775 0.45418 0.48373 0.0
H764 H 0.73171 0.44798 0.43709 0.0
H765 H 0.81921 0.5383 0.25809 0.0
H766 H 0.82547 0.52404 0.34498 0.0
H767 H 0.81728 0.51255 0.23172 0.0
H768 H 0.82885 0.47185 0.51488 0.0
H769 H 0.8091 0.44454 0.24207 0.0
H770 H 0.7895 0.48681 0.54852 0.0
H771 H 0.81268 0.51028 0.50201 0.0
H772 H 0.81643 0.49337 0.58438 0.0
H773 H 0.76614 0.45399 0.214 0.0
H774 H 0.78641 0.45152 0.14816 0.0
H775 H 0.78894 0.47779 0.16747 0.0
C776 C 0.63756 0.37963 0.30492 0.0
C777 C 0.63521 0.38912 0.38656 0.0
C778 C 0.62762 0.35689 0.29521 0.0
C779 C 0.61505 0.34316 0.36896 0.0
C780 C 0.61274 0.35261 0.45173 0.0
C781 C 0.62275 0.37538 0.4594 0.0
C782 C 0.63055 0.34753 0.20582 0.0
C783 C 0.5995 0.33863 0.53214 0.0
C784 C 0.57237 0.28398 0.31975 0.0
C785 C 0.58301 0.27282 0.34848 0.0
C786 C 0.58269 0.30682 0.32484 0.0
C787 C 0.6042 0.31892 0.35964 0.0
C788 C 0.61513 0.30779 0.3876 0.0
C789 C 0.60444 0.28495 0.38171 0.0
C790 C 0.57044 0.318 0.29396 0.0
C791 C 0.63805 0.31999 0.42509 0.0
H792 H 0.64735 0.39001 0.24859 0.0
H793 H 0.62046 0.3824 0.52221 0.0
H794 H 0.63822 0.33754 0.22014 0.0
H795 H 0.61446 0.33664 0.17385 0.0
H796 H 0.64078 0.36036 0.15497 0.0
H797 H 0.59958 0.34846 0.59234 0.0
H798 H 0.58242 0.3278 0.51003 0.0
H799 H 0.60599 0.32806 0.55495 0.0
H800 H 0.55585 0.27486 0.29388 0.0
H801 H 0.6129 0.2766 0.4041 0.0
H802 H 0.5798 0.33018 0.23957 0.0
H803 H 0.56851 0.32689 0.35322 0.0
H804 H 0.55406 0.30637 0.26615 0.0
H805 H 0.64899 0.33235 0.3742 0.0
H806 H 0.64457 0.30904 0.44099 0.0
H807 H 0.63844 0.32879 0.48939 0.0
C808 C 0.71089 0.27827 0.29648 0.0
C809 C 0.70194 0.26887 0.38278 0.0
C810 C 0.73356 0.29128 0.28428 0.0
C811 C 0.74772 0.29505 0.36011 0.0
C812 C 0.73878 0.28585 0.44759 0.0
C813 C 0.71609 0.27296 0.45785 0.0
C814 C 0.74239 0.3008 0.18991 0.0
C815 C 0.75321 0.28952 0.53049 0.0
C816 C 0.80707 0.31125 0.31787 0.0
C817 C 0.81798 0.33366 0.33683 0.0
C818 C 0.78423 0.29859 0.32357 0.0
C819 C 0.7719 0.30852 0.34837 0.0
C820 C 0.78278 0.33121 0.36555 0.0
C821 C 0.80561 0.34345 0.35989 0.0
C822 C 0.77333 0.27445 0.30501 0.0
C823 C 0.77031 0.34252 0.39158 0.0
H824 H 0.70019 0.27506 0.23774 0.0
H825 H 0.7094 0.26613 0.52522 0.0
H826 H 0.75263 0.31875 0.19502 0.0
H827 H 0.75293 0.29456 0.16366 0.0
H828 H 0.72925 0.2968 0.13856 0.0
H829 H 0.74374 0.28128 0.5938 0.0
H830 H 0.7645 0.28337 0.51538 0.0
H831 H 0.76329 0.30718 0.54505 0.0
H832 H 0.81639 0.30347 0.30018 0.0
H833 H 0.81378 0.36075 0.37433 0.0
H834 H 0.76083 0.26977 0.25011 0.0
H835 H 0.76487 0.26534 0.36857 0.0
H836 H 0.78509 0.26932 0.28311 0.0
H837 H 0.75774 0.33926 0.33849 0.0
H838 H 0.78106 0.3604 0.39855 0.0
H839 H 0.76174 0.33602 0.45841 0.0
C840 C 0.48516 0.801 0.80176 0.0
C841 C 0.48959 0.79115 0.7267 0.0
C842 C 0.47233 0.81082 0.79086 0.0
C843 C 0.46352 0.8108 0.70274 0.0
C844 C 0.46763 0.80062 0.62688 0.0
C845 C 0.48059 0.79096 0.63971 0.0
C846 C 0.46831 0.82136 0.8738 0.0
C847 C 0.45852 0.80016 0.53184 0.0
C848 C 0.41507 0.82016 0.69933 0.0
C849 C 0.42492 0.84237 0.67732 0.0
C850 C 0.42731 0.8096 0.70568 0.0
C851 C 0.45007 0.82149 0.69037 0.0
C852 C 0.46008 0.84383 0.66673 0.0
C853 C 0.44741 0.85396 0.6602 0.0
C854 C 0.41591 0.78575 0.73033 0.0
C855 C 0.4843 0.85717 0.65026 0.0
H856 H 0.49167 0.80095 0.86964 0.0
H857 H 0.48406 0.78364 0.58095 0.0
H858 H 0.47448 0.83884 0.85957 0.0
H859 H 0.45059 0.81368 0.88701 0.0
H860 H 0.47631 0.82001 0.9376 0.0
H861 H 0.46275 0.79118 0.48051 0.0
H862 H 0.44054 0.7924 0.53548 0.0
H863 H 0.46485 0.81702 0.50653 0.0
H864 H 0.39771 0.81095 0.71233 0.0
H865 H 0.45525 0.87111 0.64337 0.0
H866 H 0.42215 0.78353 0.79752 0.0
H867 H 0.41939 0.77657 0.6772 0.0
H868 H 0.398 0.77856 0.73591 0.0
H869 H 0.49314 0.85766 0.71445 0.0
H870 H 0.48951 0.87412 0.62926 0.0
H871 H 0.48922 0.84951 0.59543 0.0
C872 C 0.23784 0.61611 0.64816 0.0
C873 C 0.24844 0.60517 0.68 0.0
C874 C 0.24798 0.63896 0.65231 0.0
C875 C 0.26927 0.65125 0.68931 0.0
C876 C 0.28015 0.64032 0.72051 0.0
C877 C 0.26965 0.61749 0.71549 0.0
C878 C 0.23581 0.64995 0.61804 0.0
C879 C 0.30282 0.65272 0.76049 0.0
C880 C 0.30334 0.71189 0.63482 0.0
C881 C 0.30071 0.72145 0.7156 0.0
C882 C 0.29312 0.68913 0.62499 0.0
C883 C 0.27996 0.67548 0.69775 0.0
C884 C 0.27723 0.68499 0.77939 0.0
C885 C 0.28755 0.70777 0.7872 0.0
C886 C 0.2965 0.67969 0.53683 0.0
C887 C 0.26337 0.67109 0.85872 0.0
H888 H 0.22149 0.60683 0.62054 0.0
H889 H 0.27807 0.60931 0.74036 0.0
H890 H 0.23344 0.65888 0.67591 0.0
H891 H 0.24546 0.66208 0.5639 0.0
H892 H 0.21964 0.63819 0.58877 0.0
H893 H 0.30931 0.64188 0.77931 0.0
H894 H 0.31405 0.66493 0.7098 0.0
H895 H 0.30279 0.66171 0.82346 0.0
H896 H 0.31365 0.72222 0.57946 0.0
H897 H 0.28503 0.71487 0.84923 0.0
H898 H 0.28057 0.66861 0.50399 0.0
H899 H 0.30427 0.66989 0.55305 0.0
H900 H 0.30685 0.69246 0.48599 0.0
H901 H 0.24649 0.66013 0.83441 0.0
H902 H 0.26289 0.68096 0.91755 0.0
H903 H 0.26976 0.66065 0.88437 0.0
C904 C 0.47493 0.64628 0.66225 0.0
C905 C 0.48596 0.66844 0.68611 0.0
C906 C 0.45207 0.63371 0.6665 0.0
C907 C 0.43983 0.64347 0.69527 0.0
C908 C 0.45084 0.6659 0.71811 0.0
C909 C 0.47369 0.67807 0.71335 0.0
C910 C 0.44103 0.60989 0.64135 0.0
C911 C 0.43848 0.677 0.74893 0.0
C912 C 0.37926 0.615 0.63661 0.0
C913 C 0.36961 0.60433 0.72013 0.0
C914 C 0.40202 0.6278 0.62754 0.0
C915 C 0.41558 0.6301 0.70382 0.0
C916 C 0.40597 0.61952 0.78843 0.0
C917 C 0.38319 0.60678 0.79549 0.0
C918 C 0.41156 0.63884 0.53617 0.0
C919 C 0.41978 0.62149 0.8715 0.0
H920 H 0.48415 0.63861 0.64112 0.0
H921 H 0.48194 0.69516 0.73185 0.0
H922 H 0.43202 0.59988 0.70224 0.0
H923 H 0.42897 0.60623 0.58538 0.0
H924 H 0.45277 0.60487 0.61785 0.0
H925 H 0.44935 0.6947 0.76101 0.0
H926 H 0.42621 0.67476 0.69592 0.0
H927 H 0.42955 0.66948 0.81409 0.0
H928 H 0.36899 0.6135 0.57826 0.0
H929 H 0.37602 0.59837 0.85987 0.0
H930 H 0.42254 0.63327 0.50849 0.0
H931 H 0.4215 0.65668 0.54649 0.0
H932 H 0.39884 0.63547 0.48353 0.0
H933 H 0.43073 0.61507 0.85405 0.0
H934 H 0.40982 0.61253 0.93273 0.0
H935 H 0.43022 0.63886 0.8907 0.0
C936 C 1.0366 0.2119 0.7095 0.0
C937 C 1.04381 0.19989 0.75955 0.0
C938 C 1.04087 0.21558 0.61409 0.0
C939 C 0.05167 0.20609 0.56741 0.0
C940 C 0.05866 0.19361 0.61805 0.0
C941 C 0.05508 0.1911 0.71416 0.0
C942 C 1.03403 0.22978 0.56352 0.0
C943 C 0.06945 0.18252 0.57044 0.0
C944 C 1.04269 0.19836 0.30694 0.0
C945 C 0.06284 0.21436 0.27242 0.0
C946 C 1.03902 0.1951 0.40279 0.0
C947 C 0.0555 0.20904 0.46554 0.0
C948 C 0.07566 0.22575 0.43084 0.0
C949 C 0.07926 0.22787 0.33463 0.0
C950 C 1.0176 0.17658 0.43677 0.0
C951 C 0.09327 0.24159 0.49522 0.0
H952 H 1.02804 0.21881 0.74551 0.0
H953 H 0.0605 0.18168 0.7535 0.0
H954 H 0.04818 0.24302 0.52656 0.0
H955 H 1.02159 0.22009 0.51052 0.0
H956 H 1.0272 0.23716 0.61119 0.0
H957 H 0.07307 0.17266 0.61924 0.0
H958 H 0.05875 0.17172 0.51444 0.0
H959 H 0.08487 0.19478 0.53751 0.0
H960 H 1.02985 0.1882 0.25904 0.0
H961 H 0.09477 0.24049 0.30804 0.0
H962 H 1.00857 0.18304 0.47562 0.0
H963 H 1.02054 0.1662 0.48524 0.0
H964 H 1.00717 0.16627 0.37898 0.0
H965 H 0.08668 0.24946 0.54128 0.0
H966 H 0.10747 0.25445 0.45693 0.0
H967 H 0.09898 0.23284 0.54034 0.0
C968 C 0.88542 0.88212 0.71552 0.0
C969 C 0.89129 0.86742 0.75081 0.0
C970 C 0.88243 0.88331 0.61985 0.0
C971 C 0.8851 0.86924 0.5583 0.0
C972 C 0.89055 0.85401 0.59403 0.0
C973 C 0.89372 0.85339 0.68988 0.0
C974 C 0.87681 0.89989 0.58449 0.0
C975 C 0.89323 0.83852 0.5309 0.0
C976 C 0.85986 0.86003 0.31794 0.0
C977 C 0.87803 0.87341 0.26346 0.0
C978 C 0.86193 0.85839 0.41406 0.0
C979 C 0.88261 0.87072 0.45637 0.0
C980 C 0.90097 0.88444 0.40115 0.0
C981 C 0.89845 0.88551 0.30501 0.0
C982 C 0.84204 0.84337 0.47019 0.0
C983 C 0.92323 0.89807 0.44368 0.0
H984 H 0.88358 0.89303 0.76256 0.0
H985 H 0.89817 0.84194 0.71719 0.0
H986 H 0.88969 0.91128 0.5364 0.0
H987 H 0.86138 0.89169 0.54471 0.0
H988 H 0.87507 0.90945 0.64152 0.0
H989 H 0.89665 0.8271 0.56997 0.0
H990 H 0.87826 0.82892 0.48911 0.0
H991 H 0.90678 0.84782 0.48164 0.0
H992 H 0.84409 0.85066 0.28503 0.0
H993 H 0.91238 0.89606 0.26247 0.0
H994 H 0.83917 0.85272 0.52455 0.0
H995 H 0.84469 0.83108 0.50605 0.0
H996 H 0.8272 0.83476 0.42661 0.0
H997 H 0.92271 0.90904 0.49726 0.0
H998 H 0.93575 0.90808 0.39128 0.0
H999 H 0.92828 0.88742 0.47874 0.0
C1000 C 0.20803 0.04954 0.7091 0.0
C1001 C 0.2239 0.0479 0.75989 0.0
C1002 C 0.20597 0.04566 0.61312 0.0
C1003 C 0.22026 0.04018 0.56748 0.0
C1004 C 0.23629 0.03845 0.61922 0.0
C1005 C 0.23791 0.04234 0.7152 0.0
C1006 C 0.18859 0.0475 0.56058 0.0
C1007 C 0.25186 0.03269 0.57311 0.0
C1008 C 0.20458 1.01191 0.33298 0.0
C1009 C 0.2168 1.02923 0.27242 0.0
C1010 C 0.20529 1.01528 0.42921 0.0
C1011 C 0.21861 0.03648 0.46547 0.0
C1012 C 0.23066 0.05409 0.40429 0.0
C1013 C 0.22954 0.05026 0.30837 0.0
C1014 C 0.19205 0.99613 0.49217 0.0
C1015 C 0.24506 0.07691 0.44026 0.0
H1016 H 0.19724 0.05385 0.74463 0.0
H1017 H 0.25023 0.04123 0.75525 0.0
H1018 H 0.19618 0.06029 0.5067 0.0
H1019 H 0.17772 0.03197 0.52438 0.0
H1020 H 0.17855 0.05153 0.60673 0.0
H1021 H 0.26313 0.03167 0.62351 0.0
H1022 H 0.24265 1.01684 0.53679 0.0
H1023 H 0.26161 0.04509 0.52004 0.0
H1024 H 0.19466 0.99564 0.3052 0.0
H1025 H 0.23898 0.06369 0.26161 0.0
H1026 H 0.18121 0.99937 0.53654 0.0
H1027 H 0.20304 0.9937 0.53903 0.0
H1028 H 0.18195 0.98084 0.45281 0.0
H1029 H 0.23539 0.08202 0.48303 0.0
H1030 H 0.253 0.08888 0.38338 0.0
H1031 H 0.25789 0.07737 0.48563 0.0
C1032 C 0.74638 0.55544 0.66738 0.0
C1033 C 0.72885 0.5464 0.6053 0.0
C1034 C 0.74292 0.55292 0.76358 0.0
C1035 C 0.72143 0.54077 0.79828 0.0
C1036 C 0.70369 0.53119 0.73562 0.0
C1037 C 0.70761 0.53428 0.63982 0.0
C1038 C 0.76223 0.56361 0.82813 0.0
C1039 C 0.68056 0.51783 0.7698 0.0
C1040 C 0.7138 0.51897 0.04438 0.0
C1041 C 0.70978 0.53369 0.09264 0.0
C1042 C 0.71747 0.52097 0.94825 0.0
C1043 C 0.71748 0.53836 0.90017 0.0
C1044 C 0.71371 0.55345 0.94953 0.0
C1045 C 0.70969 0.55079 0.04537 0.0
C1046 C 0.72114 0.50441 0.89805 0.0
C1047 C 0.71399 0.57242 0.90117 0.0
H1048 H 0.76283 0.56487 0.64084 0.0
H1049 H 0.69403 0.52731 0.59192 0.0
H1050 H 0.76067 0.57528 0.87429 0.0
H1051 H 0.7627 0.55121 0.87316 0.0
H1052 H 0.7779 0.57245 0.79005 0.0
H1053 H 0.6687 0.51067 0.71195 0.0
H1054 H 0.67896 0.50447 0.81492 0.0
H1055 H 0.67624 0.52815 0.81235 0.0
H1056 H 0.71379 0.50573 0.08182 0.0
H1057 H 0.70664 0.56217 0.08363 0.0
H1058 H 0.73728 0.51258 0.86359 0.0
H1059 H 0.70871 0.49636 0.84295 0.0
H1060 H 0.72037 0.49173 0.94545 0.0
H1061 H 0.72983 0.58242 0.8657 0.0
H1062 H 0.71132 0.58299 0.95 0.0
H1063 H 0.70115 0.56639 0.84714 0.0
C1064 C 0.52534 0.19529 0.66102 0.0
C1065 C 0.5439 0.20676 0.60588 0.0
C1066 C 0.52716 0.19352 0.7572 0.0
C1067 C 0.54803 0.20385 0.79886 0.0
C1068 C 0.5668 0.21573 0.74305 0.0
C1069 C 0.56448 0.21692 0.64689 0.0
C1070 C 0.5068 0.18046 0.81405 0.0
C1071 C 0.5893 0.22729 0.78496 0.0
C1072 C 0.55262 0.21641 0.05703 0.0
C1073 C 0.55643 0.20031 0.09302 0.0
C1074 C 0.54976 0.21771 0.96139 0.0
C1075 C 0.55029 0.20226 0.90076 0.0
C1076 C 0.55351 0.18558 0.93732 0.0
C1077 C 0.55677 0.18495 0.03306 0.0
C1078 C 0.54669 0.23591 0.92501 0.0
C1079 C 0.55372 0.16855 0.8752 0.0
H1080 H 0.50943 0.18743 0.62856 0.0
H1081 H 0.57873 0.22613 0.60401 0.0
H1082 H 0.50762 0.16716 0.85059 0.0
H1083 H 0.50549 0.19093 0.86788 0.0
H1084 H 0.49183 0.17324 0.77086 0.0
H1085 H 0.60218 0.23608 0.73211 0.0
H1086 H 0.59038 0.23914 0.83799 0.0
H1087 H 0.5926 0.2154 0.82056 0.0
H1088 H 0.55244 0.22836 0.10343 0.0
H1089 H 0.55959 0.17242 0.06108 0.0
H1090 H 0.53123 0.22915 0.88574 0.0
H1091 H 0.56005 0.24611 0.87623 0.0
H1092 H 0.54646 0.24647 0.98145 0.0
H1093 H 0.53853 0.16034 0.83372 0.0
H1094 H 0.5553 0.15604 0.91506 0.0
H1095 H 0.56748 0.17637 0.82564 0.0
C1096 C 0.89182 0.38317 0.63437 0.0
C1097 C 0.8829 0.36194 0.59984 0.0
C1098 C 0.8927 0.38711 0.7302 0.0
C1099 C 0.8848 0.36942 0.79284 0.0
C1100 C 0.87564 0.34794 0.75814 0.0
C1101 C 0.87463 0.34445 0.66192 0.0
C1102 C 0.90226 0.41022 0.7644 0.0
C1103 C 0.86729 0.32868 0.82268 0.0
C1104 C 0.90684 0.38149 0.03927 0.0
C1105 C 0.88955 0.38112 0.08723 0.0
C1106 C 0.90542 0.37746 0.94339 0.0
C1107 C 0.88641 0.37341 0.89473 0.0
C1108 C 0.86894 0.37316 0.9435 0.0
C1109 C 0.87067 0.37683 0.03964 0.0
C1110 C 0.92421 0.37747 0.89426 0.0
C1111 C 0.84855 0.36919 0.89403 0.0
H1112 H 0.89824 0.39673 0.58646 0.0
H1113 H 0.86778 0.32802 0.63535 0.0
H1114 H 0.89045 0.41165 0.81005 0.0
H1115 H 0.91701 0.41476 0.80641 0.0
H1116 H 0.90676 0.42203 0.70658 0.0
H1117 H 0.86057 0.31301 0.78459 0.0
H1118 H 0.88066 0.33044 0.8683 0.0
H1119 H 0.85439 0.32805 0.86825 0.0
H1120 H 0.92137 0.38474 0.07702 0.0
H1121 H 0.85737 0.37663 0.07762 0.0
H1122 H 0.93081 0.39026 0.84011 0.0
H1123 H 0.91852 0.36163 0.85883 0.0
H1124 H 0.93758 0.38036 0.94258 0.0
H1125 H 0.85273 0.38156 0.83896 0.0
H1126 H 0.8366 0.36982 0.94192 0.0
H1127 H 0.8407 0.35304 0.85964 0.0
C1128 C 0.37332 0.88087 0.37588 0.0
C1129 C 0.37747 0.86643 0.42516 0.0
C1130 C 0.37746 0.88391 0.28019 0.0
C1131 C 0.38517 0.87159 0.23278 0.0
C1132 C 0.38909 0.85672 0.28274 0.0
C1133 C 0.38554 0.85461 0.37892 0.0
C1134 C 0.37377 0.90043 0.23005 0.0
C1135 C 0.39671 0.84285 0.23443 0.0
C1136 C 0.37583 0.86536 0.97218 0.0
C1137 C 0.39665 0.87978 0.93807 0.0
C1138 C 0.37196 0.86213 0.06796 0.0
C1139 C 0.38918 0.87426 0.13099 0.0
C1140 C 0.41019 0.88908 0.09673 0.0
C1141 C 0.41375 0.89139 0.00056 0.0
C1142 C 0.34948 0.84573 0.10161 0.0
C1143 C 0.42881 0.90278 0.16163 0.0
H1144 H 0.36719 0.89005 0.41259 0.0
H1145 H 0.38861 0.84337 0.41781 0.0
H1146 H 0.38894 0.91243 0.19441 0.0
H1147 H 0.36112 0.89227 0.17599 0.0
H1148 H 0.3686 0.9093 0.27776 0.0
H1149 H 0.39831 0.83159 0.2829 0.0
H1150 H 0.38507 0.83312 0.17877 0.0
H1151 H 0.4127 0.85333 0.20096 0.0
H1152 H 0.36255 0.85652 0.92398 0.0
H1153 H 0.42984 0.90271 0.97431 0.0
H1154 H 0.34245 0.85409 0.14177 0.0
H1155 H 0.35038 0.83389 0.14885 0.0
H1156 H 0.33827 0.83666 0.04358 0.0
H1157 H 0.4244 0.91259 0.20725 0.0
H1158 H 0.444 0.91396 0.12381 0.0
H1159 H 0.43207 0.89218 0.20718 0.0
C1160 C 0.23076 0.55083 0.98125 0.0
C1161 C 0.21027 0.53907 0.93994 0.0
C1162 C 0.23327 0.54975 0.07737 0.0
C1163 C 0.21484 0.53632 0.13276 0.0
C1164 C 0.19408 0.52433 0.0907 0.0
C1165 C 0.19203 0.52601 -0.0054 0.0
C1166 C 0.2556 0.56305 0.11967 0.0
C1167 C 0.17411 0.50959 0.14702 0.0
C1168 C 0.22561 0.51874 0.36628 0.0
C1169 C 0.22345 0.53295 0.42706 0.0
C1170 C 0.22243 0.51937 0.27045 0.0
C1171 C 0.21731 0.53482 0.23463 0.0
C1172 C 0.21493 0.54909 0.29604 0.0
C1173 C 0.21787 0.54787 0.39169 0.0
C1174 C 0.22473 0.50363 0.20744 0.0
C1175 C 0.20971 0.56595 0.26055 0.0
H1176 H 0.24475 0.56113 0.93856 0.0
H1177 H 0.17621 0.51688 0.96184 0.0
H1178 H 0.25536 0.5742 0.17311 0.0
H1179 H 0.26037 0.5522 0.15486 0.0
H1180 H 0.26818 0.57285 0.06712 0.0
H1181 H 0.15922 0.50124 0.10361 0.0
H1182 H 0.17647 0.4971 0.1827 0.0
H1183 H 0.17152 0.51911 0.20154 0.0
H1184 H 0.22983 0.50713 0.3937 0.0
H1185 H 0.21625 0.55892 0.43865 0.0
H1186 H 0.23833 0.51271 0.15812 0.0
H1187 H 0.20972 0.49424 0.1657 0.0
H1188 H 0.22787 0.49203 0.24661 0.0
H1189 H 0.22264 0.57712 0.21213 0.0
H1190 H 0.20825 0.57571 0.31749 0.0
H1191 H 0.19422 0.55795 0.22111 0.0
C1192 C 0.56991 0.70785 0.39164 0.0
C1193 C 0.55738 0.71546 0.43485 0.0
C1194 C 0.56833 0.70399 0.29562 0.0
C1195 C 0.55369 0.70766 0.24244 0.0
C1196 C 0.5408 0.71513 0.28665 0.0
C1197 C 0.54294 0.7191 0.38255 0.0
C1198 C 0.5825 0.69627 0.25094 0.0
C1199 C 0.52482 0.71895 0.23266 0.0
C1200 C 0.56439 0.71756 0.98391 0.0
C1201 C 0.55039 0.69686 0.94724 0.0
C1202 C 0.56554 0.72133 0.07987 0.0
C1203 C 0.55214 0.70404 0.14035 0.0
C1204 C 0.53753 0.68324 0.10333 0.0
C1205 C 0.53691 0.67987 0.00708 0.0
C1206 C 0.58143 0.74369 0.11664 0.0
C1207 C 0.52276 0.6645 0.16548 0.0
H1208 H 0.58116 0.70523 0.43278 0.0
H1209 H 0.53325 0.72496 0.41692 0.0
H1210 H 0.57225 0.6806 0.21456 0.0
H1211 H 0.59317 0.70821 0.19811 0.0
H1212 H 0.59287 0.69402 0.30223 0.0
H1213 H 0.51558 0.72415 0.27794 0.0
H1214 H 0.53355 0.73164 0.17932 0.0
H1215 H 0.5131 0.70385 0.1957 0.0
H1216 H 0.57483 0.73073 0.93772 0.0
H1217 H 0.52601 0.66388 0.9787 0.0
H1218 H 0.59328 0.74271 0.16357 0.0
H1219 H 0.5727 0.75013 0.15798 0.0
H1220 H 0.59054 0.75542 0.06027 0.0
H1221 H 0.53265 0.66068 0.21309 0.0
H1222 H 0.51173 0.6496 0.12551 0.0
H1223 H 0.51276 0.66903 0.20909 0.0
loop_
_geom_bond_atom_site_label_1
_geom_bond_atom_site_label_2
_geom_bond_distance
_geom_bond_site_symmetry_2
_ccdc_geom_bond_type
La0 C2 2.928 1_554 S
La0 O20 2.521 . S
La0 O21 2.628 1_554 S
La0 O22 2.554 . S
La0 O23 2.757 . S
La0 O24 2.470 . S
La0 O29 2.482 1_554 S
La0 O31 2.503 1_554 S
La1 C11 2.928 1_556 S
La1 O23 2.482 1_656 S
La1 O25 2.503 1_556 S
La1 O26 2.521 . S
La1 O27 2.628 1_556 S
La1 O28 2.554 . S
La1 O29 2.757 1_655 S
La1 O30 2.470 1_655 S
C2 La0 2.928 1_556 S
C2 C3 1.503 . S
C2 O20 1.261 1_556 S
C2 O21 1.243 . S
C3 C2 1.503 . S
C3 C4 1.394 1_556 S
C3 C8 1.373 . S
C4 C3 1.394 1_554 S
C4 C5 1.380 . S
C4 H32 0.930 . S
C5 C4 1.380 . S
C5 C6 1.376 1_554 S
C5 H33 0.930 . S
C6 C5 1.376 1_556 S
C6 C7 1.370 . S
C7 C6 1.370 . S
C7 C8 1.396 . S
C7 H34 0.929 . S
C8 C3 1.373 . S
C8 C7 1.396 . S
C8 H35 0.929 . S
C9 O22 1.240 . S
C9 O23 1.289 . S
C10 O24 1.258 1_655 S
C10 O25 1.256 . S
C11 La1 2.928 1_554 S
C11 C12 1.503 . S
C11 O26 1.261 1_554 S
C11 O27 1.243 . S
C12 C11 1.503 . S
C12 C13 1.394 1_554 S
C12 C17 1.373 . S
C13 C12 1.394 1_556 S
C13 C14 1.380 . S
C13 H36 0.930 . S
C14 C13 1.380 . S
C14 C15 1.376 1_556 S
C14 H37 0.930 . S
C15 C14 1.376 1_554 S
C15 C16 1.370 . S
C16 C15 1.370 . S
C16 C17 1.396 . S
C16 H38 0.929 . S
C17 C12 1.373 . S
C17 C16 1.396 . S
C17 H39 0.929 . S
C18 O28 1.238 . S
C18 O29 1.290 1_655 S
C19 O30 1.258 . S
C19 O31 1.256 . S
O20 La0 2.521 . S
O20 C2 1.261 1_554 S
O21 La0 2.628 1_556 S
O21 C2 1.243 . S
O22 La0 2.554 . S
O22 C9 1.240 . S
O23 La0 2.757 . S
O23 La1 2.482 1_454 S
O23 C9 1.289 . S
O24 La0 2.470 . S
O24 C10 1.258 1_455 S
O25 La1 2.503 1_554 S
O25 C10 1.256 . S
O26 La1 2.521 . S
O26 C11 1.261 1_556 S
O27 La1 2.628 1_554 S
O27 C11 1.243 . S
O28 La1 2.554 . S
O28 C18 1.238 . S
O29 La0 2.482 1_556 S
O29 La1 2.757 1_455 S
O29 C18 1.290 1_455 S
O30 La1 2.470 1_455 S
O30 C19 1.258 . S
O31 La0 2.503 1_556 S
O31 C19 1.256 . S
H32 C4 0.930 . S
H33 C5 0.930 . S
H34 C7 0.929 . S
H35 C8 0.929 . S
H36 C13 0.930 . S
H37 C14 0.930 . S
H38 C16 0.929 . S
H39 C17 0.929 . S
La40 C42 2.928 1_554 S
La40 O60 2.521 . S
La40 O61 2.628 1_554 S
La40 O62 2.554 . S
La40 O63 2.757 . S
La40 O64 2.470 . S
La40 O69 2.482 1_554 S
La40 O71 2.503 1_554 S
La41 C51 2.928 1_556 S
La41 O63 2.482 1_556 S
La41 O65 2.503 1_556 S
La41 O66 2.521 . S
La41 O67 2.628 1_556 S
La41 O68 2.554 . S
La41 O69 2.757 . S
La41 O70 2.470 . S
C42 La40 2.928 1_556 S
C42 C43 1.503 . S
C42 O60 1.261 1_556 S
C42 O61 1.243 . S
C43 C42 1.503 . S
C43 C44 1.394 1_556 S
C43 C48 1.373 . S
C44 C43 1.394 1_554 S
C44 C45 1.380 . S
C44 H72 0.930 . S
C45 C44 1.380 . S
C45 C46 1.376 1_554 S
C45 H73 0.930 . S
C46 C45 1.376 1_556 S
C46 C47 1.370 . S
C47 C46 1.370 . S
C47 C48 1.396 . S
C47 H74 0.929 . S
C48 C43 1.373 . S
C48 C47 1.396 . S
C48 H75 0.929 . S
C49 O62 1.240 . S
C49 O63 1.289 . S
C50 O64 1.258 . S
C50 O65 1.256 . S
C51 La41 2.928 1_554 S
C51 C52 1.503 . S
C51 O66 1.261 1_554 S
C51 O67 1.243 . S
C52 C51 1.503 . S
C52 C53 1.394 1_554 S
C52 C57 1.373 . S
C53 C52 1.394 1_556 S
C53 C54 1.380 . S
C53 H76 0.930 . S
C54 C53 1.380 . S
C54 C55 1.376 1_556 S
C54 H77 0.930 . S
C55 C54 1.376 1_554 S
C55 C56 1.370 . S
C56 C55 1.370 . S
C56 C57 1.396 . S
C56 H78 0.929 . S
C57 C52 1.373 . S
C57 C56 1.396 . S
C57 H79 0.929 . S
C58 O68 1.240 . S
C58 O69 1.289 . S
C59 O70 1.258 . S
C59 O71 1.256 . S
O60 La40 2.521 . S
O60 C42 1.261 1_554 S
O61 La40 2.628 1_556 S
O61 C42 1.243 . S
O62 La40 2.554 . S
O62 C49 1.240 . S
O63 La40 2.757 . S
O63 La41 2.482 1_554 S
O63 C49 1.289 . S
O64 La40 2.470 . S
O64 C50 1.258 . S
O65 La41 2.503 1_554 S
O65 C50 1.256 . S
O66 La41 2.521 . S
O66 C51 1.261 1_556 S
O67 La41 2.628 1_554 S
O67 C51 1.243 . S
O68 La41 2.554 . S
O68 C58 1.240 . S
O69 La40 2.482 1_556 S
O69 La41 2.757 . S
O69 C58 1.289 . S
O70 La41 2.470 . S
O70 C59 1.258 . S
O71 La40 2.503 1_556 S
O71 C59 1.256 . S
H72 C44 0.930 . S
H73 C45 0.930 . S
H74 C47 0.929 . S
H75 C48 0.929 . S
H76 C53 0.930 . S
H77 C54 0.930 . S
H78 C56 0.929 . S
H79 C57 0.929 . S
La80 C82 2.928 1_554 S
La80 O100 2.521 . S
La80 O101 2.628 1_554 S
La80 O102 2.554 . S
La80 O103 2.757 1_565 S
La80 O104 2.470 1_565 S
La80 O109 2.482 1_564 S
La80 O111 2.503 1_554 S
La81 C91 2.928 1_556 S
La81 O103 2.482 1_556 S
La81 O105 2.503 1_556 S
La81 O106 2.521 . S
La81 O107 2.628 1_556 S
La81 O108 2.554 . S
La81 O109 2.757 . S
La81 O110 2.470 . S
C82 La80 2.928 1_556 S
C82 C83 1.503 . S
C82 O100 1.261 1_556 S
C82 O101 1.243 . S
C83 C82 1.503 . S
C83 C84 1.394 1_556 S
C83 C88 1.373 . S
C84 C83 1.394 1_554 S
C84 C85 1.380 . S
C84 H112 0.930 . S
C85 C84 1.380 . S
C85 C86 1.376 1_554 S
C85 H113 0.930 . S
C86 C85 1.376 1_556 S
C86 C87 1.370 . S
C87 C86 1.370 . S
C87 C88 1.396 . S
C87 H114 0.929 . S
C88 C83 1.373 . S
C88 C87 1.396 . S
C88 H115 0.929 . S
C89 O102 1.213 1_545 S
C89 O103 1.304 . S
C90 O104 1.258 . S
C90 O105 1.256 . S
C91 La81 2.928 1_554 S
C91 C92 1.503 . S
C91 O106 1.261 1_554 S
C91 O107 1.243 . S
C92 C91 1.503 . S
C92 C93 1.394 1_554 S
C92 C97 1.373 . S
C93 C92 1.394 1_556 S
C93 C94 1.380 . S
C93 H116 0.930 . S
C94 C93 1.380 . S
C94 C95 1.376 1_556 S
C94 H117 0.930 . S
C95 C94 1.376 1_554 S
C95 C96 1.370 . S
C96 C95 1.370 . S
C96 C97 1.396 . S
C96 H118 0.929 . S
C97 C92 1.373 . S
C97 C96 1.396 . S
C97 H119 0.929 . S
C98 O108 1.240 . S
C98 O109 1.289 . S
C99 O110 1.258 1_565 S
C99 O111 1.256 . S
O100 La80 2.521 . S
O100 C82 1.261 1_554 S
O101 La80 2.628 1_556 S
O101 C82 1.243 . S
O102 La80 2.554 . S
O102 C89 1.213 1_565 S
O103 La80 2.757 1_545 S
O103 La81 2.482 1_554 S
O103 C89 1.304 . S
O104 La80 2.470 1_545 S
O104 C90 1.258 . S
O105 La81 2.503 1_554 S
O105 C90 1.256 . S
O106 La81 2.521 . S
O106 C91 1.261 1_556 S
O107 La81 2.628 1_554 S
O107 C91 1.243 . S
O108 La81 2.554 . S
O108 C98 1.240 . S
O109 La80 2.482 1_546 S
O109 La81 2.757 . S
O109 C98 1.289 . S
O110 La81 2.470 . S
O110 C99 1.258 1_545 S
O111 La80 2.503 1_556 S
O111 C99 1.256 . S
H112 C84 0.930 . S
H113 C85 0.930 . S
H114 C87 0.929 . S
H115 C88 0.929 . S
H116 C93 0.930 . S
H117 C94 0.930 . S
H118 C96 0.929 . S
H119 C97 0.929 . S
La120 C122 2.928 . S
La120 O140 2.521 . S
La120 O141 2.628 . S
La120 O142 2.554 . S
La120 O143 2.757 . S
La120 O144 2.470 . S
La120 O149 2.482 . S
La120 O151 2.503 . S
La121 C131 2.928 . S
La121 O143 2.482 . S
La121 O145 2.503 . S
La121 O146 2.521 . S
La121 O147 2.628 . S
La121 O148 2.554 . S
La121 O149 2.757 . S
La121 O150 2.470 . S
C122 La120 2.928 . S
C122 C123 1.503 . S
C122 O140 1.261 . S
C122 O141 1.243 . S
C123 C122 1.503 . S
C123 C124 1.394 . S
C123 C128 1.373 . S
C124 C123 1.394 . S
C124 C125 1.380 . S
C124 H152 0.930 . S
C125 C124 1.380 . S
C125 C126 1.376 . S
C125 H153 0.930 . S
C126 C125 1.376 . S
C126 C127 1.370 . S
C127 C126 1.370 . S
C127 C128 1.396 . S
C127 H154 0.929 . S
C128 C123 1.373 . S
C128 C127 1.396 . S
C128 H155 0.929 . S
C129 O142 1.240 . S
C129 O143 1.289 . S
C130 O144 1.258 . S
C130 O145 1.256 . S
C131 La121 2.928 . S
C131 C132 1.503 . S
C131 O146 1.261 . S
C131 O147 1.243 . S
C132 C131 1.503 . S
C132 C133 1.394 . S
C132 C137 1.373 . S
C133 C132 1.394 . S
C133 C134 1.380 . S
C133 H156 0.930 . S
C134 C133 1.380 . S
C134 C135 1.376 . S
C134 H157 0.930 . S
C135 C134 1.376 . S
C135 C136 1.370 . S
C136 C135 1.370 . S
C136 C137 1.396 . S
C136 H158 0.929 . S
C137 C132 1.373 . S
C137 C136 1.396 . S
C137 H159 0.929 . S
C138 O148 1.240 . S
C138 O149 1.289 . S
C139 O150 1.258 . S
C139 O151 1.256 . S
O140 La120 2.521 . S
O140 C122 1.261 . S
O141 La120 2.628 . S
O141 C122 1.243 . S
O142 La120 2.554 . S
O142 C129 1.240 . S
O143 La120 2.757 . S
O143 La121 2.482 . S
O143 C129 1.289 . S
O144 La120 2.470 . S
O144 C130 1.258 . S
O145 La121 2.503 . S
O145 C130 1.256 . S
O146 La121 2.521 . S
O146 C131 1.261 . S
O147 La121 2.628 . S
O147 C131 1.243 . S
O148 La121 2.554 . S
O148 C138 1.240 . S
O149 La120 2.482 . S
O149 La121 2.757 . S
O149 C138 1.289 . S
O150 La121 2.470 . S
O150 C139 1.258 . S
O151 La120 2.503 . S
O151 C139 1.256 . S
H152 C124 0.930 . S
H153 C125 0.930 . S
H154 C127 0.929 . S
H155 C128 0.929 . S
H156 C133 0.930 . S
H157 C134 0.930 . S
H158 C136 0.929 . S
H159 C137 0.929 . S
La160 C162 2.928 . S
La160 O180 2.521 . S
La160 O181 2.628 . S
La160 O182 2.554 . S
La160 O183 2.757 . S
La160 O184 2.470 . S
La160 O189 2.482 . S
La160 O191 2.503 . S
La161 C171 2.928 . S
La161 O183 2.482 . S
La161 O185 2.503 . S
La161 O186 2.521 . S
La161 O187 2.628 . S
La161 O188 2.554 . S
La161 O189 2.757 . S
La161 O190 2.470 . S
C162 La160 2.928 . S
C162 C163 1.503 . S
C162 O180 1.261 . S
C162 O181 1.243 . S
C163 C162 1.503 . S
C163 C164 1.394 . S
C163 C168 1.373 . S
C164 C163 1.394 . S
C164 C165 1.380 . S
C164 H192 0.930 . S
C165 C164 1.380 . S
C165 C166 1.376 . S
C165 H193 0.930 . S
C166 C165 1.376 . S
C166 C167 1.370 . S
C167 C166 1.370 . S
C167 C168 1.396 . S
C167 H194 0.929 . S
C168 C163 1.373 . S
C168 C167 1.396 . S
C168 H195 0.929 . S
C169 O182 1.240 . S
C169 O183 1.289 . S
C170 O184 1.258 . S
C170 O185 1.256 . S
C171 La161 2.928 . S
C171 C172 1.503 . S
C171 O186 1.261 . S
C171 O187 1.243 . S
C172 C171 1.503 . S
C172 C173 1.394 . S
C172 C177 1.373 . S
C173 C172 1.394 . S
C173 C174 1.380 . S
C173 H196 0.930 . S
C174 C173 1.380 . S
C174 C175 1.376 . S
C174 H197 0.930 . S
C175 C174 1.376 . S
C175 C176 1.370 . S
C176 C175 1.370 . S
C176 C177 1.396 . S
C176 H198 0.929 . S
C177 C172 1.373 . S
C177 C176 1.396 . S
C177 H199 0.929 . S
C178 O188 1.240 . S
C178 O189 1.289 . S
C179 O190 1.258 . S
C179 O191 1.256 . S
O180 La160 2.521 . S
O180 C162 1.261 . S
O181 La160 2.628 . S
O181 C162 1.243 . S
O182 La160 2.554 . S
O182 C169 1.240 . S
O183 La160 2.757 . S
O183 La161 2.482 . S
O183 C169 1.289 . S
O184 La160 2.470 . S
O184 C170 1.258 . S
O185 La161 2.503 . S
O185 C170 1.256 . S
O186 La161 2.521 . S
O186 C171 1.261 . S
O187 La161 2.628 . S
O187 C171 1.243 . S
O188 La161 2.554 . S
O188 C178 1.240 . S
O189 La160 2.482 . S
O189 La161 2.757 . S
O189 C178 1.289 . S
O190 La161 2.470 . S
O190 C179 1.258 . S
O191 La160 2.503 . S
O191 C179 1.256 . S
H192 C164 0.930 . S
H193 C165 0.930 . S
H194 C167 0.929 . S
H195 C168 0.929 . S
H196 C173 0.930 . S
H197 C174 0.930 . S
H198 C176 0.929 . S
H199 C177 0.929 . S
La200 C202 2.928 . S
La200 O220 2.521 . S
La200 O221 2.628 . S
La200 O222 2.554 . S
La200 O223 2.757 . S
La200 O224 2.470 . S
La200 O229 2.482 . S
La200 O231 2.503 . S
La201 C211 2.928 . S
La201 O223 2.482 . S
La201 O225 2.503 . S
La201 O226 2.521 . S
La201 O227 2.628 . S
La201 O228 2.554 . S
La201 O229 2.757 . S
La201 O230 2.470 . S
C202 La200 2.928 . S
C202 C203 1.503 . S
C202 O220 1.261 . S
C202 O221 1.243 . S
C203 C202 1.503 . S
C203 C204 1.394 . S
C203 C208 1.373 . S
C204 C203 1.394 . S
C204 C205 1.380 . S
C204 H232 0.930 . S
C205 C204 1.380 . S
C205 C206 1.376 . S
C205 H233 0.930 . S
C206 C205 1.376 . S
C206 C207 1.370 . S
C207 C206 1.370 . S
C207 C208 1.396 . S
C207 H234 0.929 . S
C208 C203 1.373 . S
C208 C207 1.396 . S
C208 H235 0.929 . S
C209 O222 1.240 . S
C209 O223 1.289 . S
C210 O224 1.258 . S
C210 O225 1.256 . S
C211 La201 2.928 . S
C211 C212 1.503 . S
C211 O226 1.261 . S
C211 O227 1.243 . S
C212 C211 1.503 . S
C212 C213 1.394 . S
C212 C217 1.373 . S
C213 C212 1.394 . S
C213 C214 1.380 . S
C213 H236 0.930 . S
C214 C213 1.380 . S
C214 C215 1.376 . S
C214 H237 0.930 . S
C215 C214 1.376 . S
C215 C216 1.370 . S
C216 C215 1.370 . S
C216 C217 1.396 . S
C216 H238 0.929 . S
C217 C212 1.373 . S
C217 C216 1.396 . S
C217 H239 0.929 . S
C218 O228 1.240 . S
C218 O229 1.289 . S
C219 O230 1.258 . S
C219 O231 1.256 . S
O220 La200 2.521 . S
O220 C202 1.261 . S
O221 La200 2.628 . S
O221 C202 1.243 . S
O222 La200 2.554 . S
O222 C209 1.240 . S
O223 La200 2.757 . S
O223 La201 2.482 . S
O223 C209 1.289 . S
O224 La200 2.470 . S
O224 C210 1.258 . S
O225 La201 2.503 . S
O225 C210 1.256 . S
O226 La201 2.521 . S
O226 C211 1.261 . S
O227 La201 2.628 . S
O227 C211 1.243 . S
O228 La201 2.554 . S
O228 C218 1.240 . S
O229 La200 2.482 . S
O229 La201 2.757 . S
O229 C218 1.289 . S
O230 La201 2.470 . S
O230 C219 1.258 . S
O231 La200 2.503 . S
O231 C219 1.256 . S
H232 C204 0.930 . S
H233 C205 0.930 . S
H234 C207 0.929 . S
H235 C208 0.929 . S
H236 C213 0.930 . S
H237 C214 0.930 . S
H238 C216 0.929 . S
H239 C217 0.929 . S
La240 C242 2.928 . S
La240 O260 2.521 . S
La240 O261 2.628 . S
La240 O262 2.554 . S
La240 O263 2.757 . S
La240 O264 2.470 . S
La240 O269 2.482 . S
La240 O271 2.503 . S
La241 C251 2.928 . S
La241 O263 2.482 . S
La241 O265 2.503 . S
La241 O266 2.521 . S
La241 O267 2.628 . S
La241 O268 2.554 . S
La241 O269 2.757 . S
La241 O270 2.470 . S
C242 La240 2.928 . S
C242 C243 1.503 . S
C242 O260 1.261 . S
C242 O261 1.243 . S
C243 C242 1.503 . S
C243 C244 1.394 . S
C243 C248 1.373 . S
C244 C243 1.394 . S
C244 C245 1.380 . S
C244 H272 0.930 . S
C245 C244 1.380 . S
C245 C246 1.376 . S
C245 H273 0.930 . S
C246 C245 1.376 . S
C246 C247 1.370 . S
C247 C246 1.370 . S
C247 C248 1.396 . S
C247 H274 0.929 . S
C248 C243 1.373 . S
C248 C247 1.396 . S
C248 H275 0.929 . S
C249 O262 1.240 . S
C249 O263 1.289 . S
C250 O264 1.258 . S
C250 O265 1.256 . S
C251 La241 2.928 . S
C251 C252 1.503 . S
C251 O266 1.261 . S
C251 O267 1.243 . S
C252 C251 1.503 . S
C252 C253 1.394 . S
C252 C257 1.373 . S
C253 C252 1.394 . S
C253 C254 1.380 . S
C253 H276 0.930 . S
C254 C253 1.380 . S
C254 C255 1.376 . S
C254 H277 0.930 . S
C255 C254 1.376 . S
C255 C256 1.370 . S
C256 C255 1.370 . S
C256 C257 1.396 . S
C256 H278 0.929 . S
C257 C252 1.373 . S
C257 C256 1.396 . S
C257 H279 0.929 . S
C258 O268 1.240 . S
C258 O269 1.289 . S
C259 O270 1.258 . S
C259 O271 1.256 . S
O260 La240 2.521 . S
O260 C242 1.261 . S
O261 La240 2.628 . S
O261 C242 1.243 . S
O262 La240 2.554 . S
O262 C249 1.240 . S
O263 La240 2.757 . S
O263 La241 2.482 . S
O263 C249 1.289 . S
O264 La240 2.470 . S
O264 C250 1.258 . S
O265 La241 2.503 . S
O265 C250 1.256 . S
O266 La241 2.521 . S
O266 C251 1.261 . S
O267 La241 2.628 . S
O267 C251 1.243 . S
O268 La241 2.554 . S
O268 C258 1.240 . S
O269 La240 2.482 . S
O269 La241 2.757 . S
O269 C258 1.289 . S
O270 La241 2.470 . S
O270 C259 1.258 . S
O271 La240 2.503 . S
O271 C259 1.256 . S
H272 C244 0.930 . S
H273 C245 0.930 . S
H274 C247 0.929 . S
H275 C248 0.929 . S
H276 C253 0.930 . S
H277 C254 0.930 . S
H278 C256 0.929 . S
H279 C257 0.929 . S
La280 C282 2.928 . S
La280 O300 2.521 . S
La280 O301 2.628 . S
La280 O302 2.554 . S
La280 O303 2.757 . S
La280 O304 2.470 . S
La280 O309 2.482 . S
La280 O311 2.503 . S
La281 C291 2.928 . S
La281 O303 2.482 . S
La281 O305 2.503 . S
La281 O306 2.521 . S
La281 O307 2.628 . S
La281 O308 2.554 . S
La281 O309 2.757 . S
La281 O310 2.470 . S
C282 La280 2.928 . S
C282 C283 1.503 . S
C282 O300 1.261 . S
C282 O301 1.243 . S
C283 C282 1.503 . S
C283 C284 1.394 . S
C283 C288 1.373 . S
C284 C283 1.394 . S
C284 C285 1.380 . S
C284 H312 0.930 . S
C285 C284 1.380 . S
C285 C286 1.376 . S
C285 H313 0.930 . S
C286 C285 1.376 . S
C286 C287 1.370 . S
C287 C286 1.370 . S
C287 C288 1.396 . S
C287 H314 0.929 . S
C288 C283 1.373 . S
C288 C287 1.396 . S
C288 H315 0.929 . S
C289 O302 1.240 . S
C289 O303 1.289 . S
C290 O304 1.258 . S
C290 O305 1.256 . S
C291 La281 2.928 . S
C291 C292 1.503 . S
C291 O306 1.261 . S
C291 O307 1.243 . S
C292 C291 1.503 . S
C292 C293 1.394 . S
C292 C297 1.373 . S
C293 C292 1.394 . S
C293 C294 1.380 . S
C293 H316 0.930 . S
C294 C293 1.380 . S
C294 C295 1.376 . S
C294 H317 0.930 . S
C295 C294 1.376 . S
C295 C296 1.370 . S
C296 C295 1.370 . S
C296 C297 1.396 . S
C296 H318 0.929 . S
C297 C292 1.373 . S
C297 C296 1.396 . S
C297 H319 0.929 . S
C298 O308 1.240 . S
C298 O309 1.289 . S
C299 O310 1.258 . S
C299 O311 1.256 . S
O300 La280 2.521 . S
O300 C282 1.261 . S
O301 La280 2.628 . S
O301 C282 1.243 . S
O302 La280 2.554 . S
O302 C289 1.240 . S
O303 La280 2.757 . S
O303 La281 2.482 . S
O303 C289 1.289 . S
O304 La280 2.470 . S
O304 C290 1.258 . S
O305 La281 2.503 . S
O305 C290 1.256 . S
O306 La281 2.521 . S
O306 C291 1.261 . S
O307 La281 2.628 . S
O307 C291 1.243 . S
O308 La281 2.554 . S
O308 C298 1.240 . S
O309 La280 2.482 . S
O309 La281 2.757 . S
O309 C298 1.289 . S
O310 La281 2.470 . S
O310 C299 1.258 . S
O311 La280 2.503 . S
O311 C299 1.256 . S
H312 C284 0.930 . S
H313 C285 0.930 . S
H314 C287 0.929 . S
H315 C288 0.929 . S
H316 C293 0.930 . S
H317 C294 0.930 . S
H318 C296 0.929 . S
H319 C297 0.929 . S
La320 C322 2.928 . S
La320 O340 2.521 . S
La320 O341 2.628 . S
La320 O342 2.554 . S
La320 O343 2.757 . S
La320 O344 2.470 . S
La320 O349 2.482 . S
La320 O351 2.503 . S
La321 C331 2.928 . S
La321 O343 2.482 . S
La321 O345 2.503 . S
La321 O346 2.521 . S
La321 O347 2.628 . S
La321 O348 2.554 . S
La321 O349 2.757 . S
La321 O350 2.470 . S
C322 La320 2.928 . S
C322 C323 1.503 . S
C322 O340 1.261 . S
C322 O341 1.243 . S
C323 C322 1.503 . S
C323 C324 1.394 . S
C323 C328 1.373 . S
C324 C323 1.394 . S
C324 C325 1.380 . S
C324 H352 0.930 . S
C325 C324 1.380 . S
C325 C326 1.376 . S
C325 H353 0.930 . S
C326 C325 1.376 . S
C326 C327 1.370 . S
C327 C326 1.370 . S
C327 C328 1.396 . S
C327 H354 0.929 . S
C328 C323 1.373 . S
C328 C327 1.396 . S
C328 H355 0.929 . S
C329 O342 1.240 . S
C329 O343 1.289 . S
C330 O344 1.258 . S
C330 O345 1.256 . S
C331 La321 2.928 . S
C331 C332 1.503 . S
C331 O346 1.261 . S
C331 O347 1.243 . S
C332 C331 1.503 . S
C332 C333 1.394 . S
C332 C337 1.373 . S
C333 C332 1.394 . S
C333 C334 1.380 . S
C333 H356 0.930 . S
C334 C333 1.380 . S
C334 C335 1.376 . S
C334 H357 0.930 . S
C335 C334 1.376 . S
C335 C336 1.370 . S
C336 C335 1.370 . S
C336 C337 1.396 . S
C336 H358 0.929 . S
C337 C332 1.373 . S
C337 C336 1.396 . S
C337 H359 0.929 . S
C338 O348 1.240 . S
C338 O349 1.289 . S
C339 O350 1.258 . S
C339 O351 1.256 . S
O340 La320 2.521 . S
O340 C322 1.261 . S
O341 La320 2.628 . S
O341 C322 1.243 . S
O342 La320 2.554 . S
O342 C329 1.240 . S
O343 La320 2.757 . S
O343 La321 2.482 . S
O343 C329 1.289 . S
O344 La320 2.470 . S
O344 C330 1.258 . S
O345 La321 2.503 . S
O345 C330 1.256 . S
O346 La321 2.521 . S
O346 C331 1.261 . S
O347 La321 2.628 . S
O347 C331 1.243 . S
O348 La321 2.554 . S
O348 C338 1.240 . S
O349 La320 2.482 . S
O349 La321 2.757 . S
O349 C338 1.289 . S
O350 La321 2.470 . S
O350 C339 1.258 . S
O351 La320 2.503 . S
O351 C339 1.256 . S
H352 C324 0.930 . S
H353 C325 0.930 . S
H354 C327 0.929 . S
H355 C328 0.929 . S
H356 C333 0.930 . S
H357 C334 0.930 . S
H358 C336 0.929 . S
H359 C337 0.929 . S
C360 C361 1.391 . S
C360 C362 1.394 . S
C360 H376 0.931 . S
C361 C360 1.391 . S
C361 C365 1.376 . S
C362 C360 1.394 . S
C362 C363 1.369 . S
C362 C366 1.531 . S
C363 C362 1.369 . S
C363 C364 1.410 . S
C363 C371 1.503 . S
C364 C363 1.410 . S
C364 C365 1.392 . S
C364 C367 1.511 . S
C365 C361 1.376 . S
C365 C364 1.392 . S
C365 H377 0.929 . S
C366 C362 1.531 . S
C366 H378 0.960 . S
C366 H379 0.962 . S
C366 H380 0.960 . S
C367 C364 1.511 . S
C367 H381 0.961 . S
C367 H382 0.961 . S
C367 H383 0.961 . S
C368 C369 1.370 . S
C368 C370 1.363 . S
C368 H384 0.931 . S
C369 C368 1.370 . S
C369 C373 1.408 . S
C370 C368 1.363 . S
C370 C371 1.370 . S
C370 C374 1.524 . S
C371 C363 1.503 . S
C371 C370 1.370 . S
C371 C372 1.403 . S
C372 C371 1.403 . S
C372 C373 1.404 . S
C372 C375 1.539 . S
C373 C369 1.408 . S
C373 C372 1.404 . S
C373 H385 0.930 . S
C374 C370 1.524 . S
C374 H386 0.956 . S
C374 H387 0.961 . S
C374 H388 0.961 . S
C375 C372 1.539 . S
C375 H389 0.958 . S
C375 H390 0.961 . S
C375 H391 0.960 . S
H376 C360 0.931 . S
H377 C365 0.929 . S
H378 C366 0.960 . S
H379 C366 0.962 . S
H380 C366 0.960 . S
H381 C367 0.961 . S
H382 C367 0.961 . S
H383 C367 0.961 . S
H384 C368 0.931 . S
H385 C373 0.930 . S
H386 C374 0.956 . S
H387 C374 0.961 . S
H388 C374 0.961 . S
H389 C375 0.958 . S
H390 C375 0.961 . S
H391 C375 0.960 . S
C392 C393 1.391 . S
C392 C394 1.394 . S
C392 H408 0.931 . S
C393 C392 1.391 . S
C393 C397 1.376 . S
C394 C392 1.394 . S
C394 C395 1.369 . S
C394 C398 1.531 . S
C395 C394 1.369 . S
C395 C396 1.410 . S
C395 C403 1.503 . S
C396 C395 1.410 . S
C396 C397 1.392 . S
C396 C399 1.511 . S
C397 C393 1.376 . S
C397 C396 1.392 . S
C397 H409 0.929 . S
C398 C394 1.531 . S
C398 H410 0.960 . S
C398 H411 0.962 . S
C398 H412 0.960 . S
C399 C396 1.511 . S
C399 H413 0.961 . S
C399 H414 0.961 . S
C399 H415 0.961 . S
C400 C401 1.370 . S
C400 C402 1.363 . S
C400 H416 0.931 . S
C401 C400 1.370 . S
C401 C405 1.408 . S
C402 C400 1.363 . S
C402 C403 1.370 . S
C402 C406 1.524 . S
C403 C395 1.503 . S
C403 C402 1.370 . S
C403 C404 1.403 . S
C404 C403 1.403 . S
C404 C405 1.404 . S
C404 C407 1.539 . S
C405 C401 1.408 . S
C405 C404 1.404 . S
C405 H417 0.930 . S
C406 C402 1.524 . S
C406 H418 0.956 . S
C406 H419 0.961 . S
C406 H420 0.961 . S
C407 C404 1.539 . S
C407 H421 0.958 . S
C407 H422 0.961 . S
C407 H423 0.960 . S
H408 C392 0.931 . S
H409 C397 0.929 . S
H410 C398 0.960 . S
H411 C398 0.962 . S
H412 C398 0.960 . S
H413 C399 0.961 . S
H414 C399 0.961 . S
H415 C399 0.961 . S
H416 C400 0.931 . S
H417 C405 0.930 . S
H418 C406 0.956 . S
H419 C406 0.961 . S
H420 C406 0.961 . S
H421 C407 0.958 . S
H422 C407 0.961 . S
H423 C407 0.960 . S
C424 C425 1.391 . S
C424 C426 1.394 . S
C424 H440 0.931 . S
C425 C424 1.391 . S
C425 C429 1.376 . S
C426 C424 1.394 . S
C426 C427 1.369 . S
C426 C430 1.531 . S
C427 C426 1.369 . S
C427 C428 1.410 . S
C427 C435 1.503 . S
C428 C427 1.410 . S
C428 C429 1.392 . S
C428 C431 1.511 . S
C429 C425 1.376 . S
C429 C428 1.392 . S
C429 H441 0.929 . S
C430 C426 1.531 . S
C430 H442 0.960 . S
C430 H443 0.962 . S
C430 H444 0.960 . S
C431 C428 1.511 . S
C431 H445 0.961 . S
C431 H446 0.961 . S
C431 H447 0.961 . S
C432 C433 1.370 . S
C432 C434 1.363 . S
C432 H448 0.931 . S
C433 C432 1.370 . S
C433 C437 1.408 . S
C434 C432 1.363 . S
C434 C435 1.370 . S
C434 C438 1.524 . S
C435 C427 1.503 . S
C435 C434 1.370 . S
C435 C436 1.403 . S
C436 C435 1.403 . S
C436 C437 1.404 . S
C436 C439 1.539 . S
C437 C433 1.408 . S
C437 C436 1.404 . S
C437 H449 0.930 . S
C438 C434 1.524 . S
C438 H450 0.956 . S
C438 H451 0.961 . S
C438 H452 0.961 . S
C439 C436 1.539 . S
C439 H453 0.958 . S
C439 H454 0.961 . S
C439 H455 0.960 . S
H440 C424 0.931 . S
H441 C429 0.929 . S
H442 C430 0.960 . S
H443 C430 0.962 . S
H444 C430 0.960 . S
H445 C431 0.961 . S
H446 C431 0.961 . S
H447 C431 0.961 . S
H448 C432 0.931 . S
H449 C437 0.930 . S
H450 C438 0.956 . S
H451 C438 0.961 . S
H452 C438 0.961 . S
H453 C439 0.958 . S
H454 C439 0.961 . S
H455 C439 0.960 . S
C456 C457 1.391 . S
C456 C458 1.394 . S
C456 H472 0.931 . S
C457 C456 1.391 . S
C457 C461 1.376 . S
C458 C456 1.394 . S
C458 C459 1.369 . S
C458 C462 1.531 . S
C459 C458 1.369 . S
C459 C460 1.410 . S
C459 C467 1.503 . S
C460 C459 1.410 . S
C460 C461 1.392 . S
C460 C463 1.511 . S
C461 C457 1.376 . S
C461 C460 1.392 . S
C461 H473 0.929 . S
C462 C458 1.531 . S
C462 H474 0.960 . S
C462 H475 0.962 . S
C462 H476 0.960 . S
C463 C460 1.511 . S
C463 H477 0.961 . S
C463 H478 0.961 . S
C463 H479 0.961 . S
C464 C465 1.370 . S
C464 C466 1.363 . S
C464 H480 0.931 1_554 S
C465 C464 1.370 . S
C465 C469 1.408 . S
C466 C464 1.363 . S
C466 C467 1.370 . S
C466 C470 1.524 . S
C467 C459 1.503 . S
C467 C466 1.370 . S
C467 C468 1.403 . S
C468 C467 1.403 . S
C468 C469 1.404 . S
C468 C471 1.539 . S
C469 C465 1.408 . S
C469 C468 1.404 . S
C469 H481 0.930 . S
C470 C466 1.524 . S
C470 H482 0.956 1_554 S
C470 H483 0.961 . S
C470 H484 0.961 1_554 S
C471 C468 1.539 . S
C471 H485 0.958 . S
C471 H486 0.961 . S
C471 H487 0.960 . S
H472 C456 0.931 . S
H473 C461 0.929 . S
H474 C462 0.960 . S
H475 C462 0.962 . S
H476 C462 0.960 . S
H477 C463 0.961 . S
H478 C463 0.961 . S
H479 C463 0.961 . S
H480 C464 0.931 1_556 S
H481 C469 0.930 . S
H482 C470 0.956 1_556 S
H483 C470 0.961 . S
H484 C470 0.961 1_556 S
H485 C471 0.958 . S
H486 C471 0.961 . S
H487 C471 0.960 . S
C488 C489 1.391 . S
C488 C490 1.394 . S
C488 H504 0.931 . S
C489 C488 1.391 . S
C489 C493 1.376 . S
C490 C488 1.394 . S
C490 C491 1.369 . S
C490 C494 1.531 . S
C491 C490 1.369 . S
C491 C492 1.410 . S
C491 C499 1.503 . S
C492 C491 1.410 . S
C492 C493 1.392 . S
C492 C495 1.511 . S
C493 C489 1.376 . S
C493 C492 1.392 . S
C493 H505 0.929 . S
C494 C490 1.531 . S
C494 H506 0.960 1_554 S
C494 H507 0.962 . S
C494 H508 0.960 1_554 S
C495 C492 1.511 . S
C495 H509 0.961 . S
C495 H510 0.961 . S
C495 H511 0.961 . S
C496 C497 1.370 . S
C496 C498 1.363 . S
C496 H512 0.931 . S
C497 C496 1.370 . S
C497 C501 1.408 . S
C498 C496 1.363 . S
C498 C499 1.370 . S
C498 C502 1.524 . S
C499 C491 1.503 . S
C499 C498 1.370 . S
C499 C500 1.403 . S
C500 C499 1.403 . S
C500 C501 1.404 . S
C500 C503 1.539 . S
C501 C497 1.408 . S
C501 C500 1.404 . S
C501 H513 0.930 1_554 S
C502 C498 1.524 . S
C502 H514 0.956 . S
C502 H515 0.961 . S
C502 H516 0.961 . S
C503 C500 1.539 . S
C503 H517 0.958 1_554 S
C503 H518 1.002 . S
C503 H519 0.960 . S
H504 C488 0.931 . S
H505 C493 0.929 . S
H506 C494 0.960 1_556 S
H507 C494 0.962 . S
H508 C494 0.960 1_556 S
H509 C495 0.961 . S
H510 C495 0.961 . S
H511 C495 0.961 . S
H512 C496 0.931 . S
H513 C501 0.930 1_556 S
H514 C502 0.956 . S
H515 C502 0.961 . S
H516 C502 0.961 . S
H517 C503 0.958 1_556 S
H518 C503 1.002 . S
H519 C503 0.960 . S
C520 C521 1.391 . S
C520 C522 1.394 . S
C520 H536 0.931 . S
C521 C520 1.391 . S
C521 C525 1.376 . S
C522 C520 1.394 . S
C522 C523 1.369 . S
C522 C526 1.531 . S
C523 C522 1.369 . S
C523 C524 1.410 . S
C523 C531 1.503 . S
C524 C523 1.410 . S
C524 C525 1.392 . S
C524 C527 1.511 . S
C525 C521 1.376 . S
C525 C524 1.392 . S
C525 H537 0.929 1_554 S
C526 C522 1.531 . S
C526 H538 0.960 . S
C526 H539 0.962 . S
C526 H540 0.960 . S
C527 C524 1.511 . S
C527 H541 0.961 1_554 S
C527 H542 0.961 . S
C527 H543 0.961 . S
C528 C529 1.370 . S
C528 C530 1.363 . S
C528 H544 0.931 . S
C529 C528 1.370 . S
C529 C533 1.408 . S
C530 C528 1.363 . S
C530 C531 1.370 . S
C530 C534 1.524 . S
C531 C523 1.503 . S
C531 C530 1.370 . S
C531 C532 1.403 . S
C532 C531 1.403 . S
C532 C533 1.404 . S
C532 C535 1.539 . S
C533 C529 1.408 . S
C533 C532 1.404 . S
C533 H545 0.930 . S
C534 C530 1.524 . S
C534 H546 0.956 . S
C534 H547 0.961 . S
C534 H548 0.961 . S
C535 C532 1.539 . S
C535 H549 0.958 . S
C535 H550 0.961 . S
C535 H551 0.960 . S
H536 C520 0.931 . S
H537 C525 0.929 1_556 S
H538 C526 0.960 . S
H539 C526 0.962 . S
H540 C526 0.960 . S
H541 C527 0.961 1_556 S
H542 C527 0.961 . S
H543 C527 0.961 . S
H544 C528 0.931 . S
H545 C533 0.930 . S
H546 C534 0.956 . S
H547 C534 0.961 . S
H548 C534 0.961 . S
H549 C535 0.958 . S
H550 C535 0.961 . S
H551 C535 0.960 . S
C552 C553 1.391 . S
C552 C554 1.394 1_455 S
C552 H568 0.931 . S
C553 C552 1.391 . S
C553 C557 1.376 1_455 S
C554 C552 1.394 1_655 S
C554 C555 1.369 . S
C554 C558 1.531 . S
C555 C554 1.369 . S
C555 C556 1.410 . S
C555 C563 1.503 . S
C556 C555 1.410 . S
C556 C557 1.392 . S
C556 C559 1.511 . S
C557 C553 1.376 1_655 S
C557 C556 1.392 . S
C557 H569 0.929 . S
C558 C554 1.531 . S
C558 H570 0.960 . S
C558 H571 0.962 . S
C558 H572 0.994 . S
C559 C556 1.511 . S
C559 H573 0.961 . S
C559 H574 0.961 . S
C559 H575 0.961 . S
C560 C561 1.370 . S
C560 C562 1.363 . S
C560 H576 0.931 . S
C561 C560 1.370 . S
C561 C565 1.408 . S
C562 C560 1.363 . S
C562 C563 1.370 . S
C562 C566 1.524 . S
C563 C555 1.503 . S
C563 C562 1.370 . S
C563 C564 1.403 . S
C564 C563 1.403 . S
C564 C565 1.404 . S
C564 C567 1.539 . S
C565 C561 1.408 . S
C565 C564 1.404 . S
C565 H577 0.930 . S
C566 C562 1.524 . S
C566 H578 0.956 . S
C566 H579 0.961 . S
C566 H580 0.961 . S
C567 C564 1.539 . S
C567 H581 0.958 . S
C567 H582 0.961 . S
C567 H583 0.960 . S
H568 C552 0.931 . S
H569 C557 0.929 . S
H570 C558 0.960 . S
H571 C558 0.962 . S
H572 C558 0.994 . S
H573 C559 0.961 . S
H574 C559 0.961 . S
H575 C559 0.961 . S
H576 C560 0.931 . S
H577 C565 0.930 . S
H578 C566 0.956 . S
H579 C566 0.961 . S
H580 C566 0.961 . S
H581 C567 0.958 . S
H582 C567 0.961 . S
H583 C567 0.960 . S
C584 C585 1.391 . S
C584 C586 1.394 . S
C584 H600 0.931 . S
C585 C584 1.391 . S
C585 C589 1.376 . S
C586 C584 1.394 . S
C586 C587 1.369 . S
C586 C590 1.531 . S
C587 C586 1.369 . S
C587 C588 1.410 . S
C587 C595 1.503 . S
C588 C587 1.410 . S
C588 C589 1.392 . S
C588 C591 1.511 . S
C589 C585 1.376 . S
C589 C588 1.392 . S
C589 H601 0.929 . S
C590 C586 1.531 . S
C590 H602 0.960 . S
C590 H603 0.962 . S
C590 H604 0.960 . S
C591 C588 1.511 . S
C591 H605 0.961 . S
C591 H606 0.961 . S
C591 H607 0.961 . S
C592 C593 1.370 . S
C592 C594 1.363 . S
C592 H608 0.931 . S
C593 C592 1.370 . S
C593 C597 1.408 . S
C594 C592 1.363 . S
C594 C595 1.370 . S
C594 C598 1.524 . S
C595 C587 1.503 . S
C595 C594 1.370 . S
C595 C596 1.403 . S
C596 C595 1.403 . S
C596 C597 1.404 . S
C596 C599 1.539 . S
C597 C593 1.408 . S
C597 C596 1.404 . S
C597 H609 0.930 . S
C598 C594 1.524 . S
C598 H610 0.956 . S
C598 H611 0.961 . S
C598 H612 0.961 . S
C599 C596 1.539 . S
C599 H613 0.958 . S
C599 H614 0.961 . S
C599 H615 0.960 . S
H600 C584 0.931 . S
H601 C589 0.929 . S
H602 C590 0.960 . S
H603 C590 0.962 . S
H604 C590 0.960 . S
H605 C591 0.961 . S
H606 C591 0.961 . S
H607 C591 0.961 . S
H608 C592 0.931 . S
H609 C597 0.930 . S
H610 C598 0.956 . S
H611 C598 0.961 . S
H612 C598 0.961 . S
H613 C599 0.958 . S
H614 C599 0.961 . S
H615 C599 0.960 . S
C616 C617 1.391 . S
C616 C618 1.394 . S
C616 H632 0.931 . S
C617 C616 1.391 . S
C617 C621 1.376 . S
C618 C616 1.394 . S
C618 C619 1.369 . S
C618 C622 1.531 . S
C619 C618 1.369 . S
C619 C620 1.410 . S
C619 C627 1.503 . S
C620 C619 1.410 . S
C620 C621 1.392 . S
C620 C623 1.511 . S
C621 C617 1.376 . S
C621 C620 1.392 . S
C621 H633 0.929 . S
C622 C618 1.531 . S
C622 H634 0.960 . S
C622 H635 0.962 . S
C622 H636 0.960 . S
C623 C620 1.511 . S
C623 H637 0.961 . S
C623 H638 0.961 . S
C623 H639 0.961 . S
C624 C625 1.370 . S
C624 C626 1.363 . S
C624 H640 0.931 1_545 S
C625 C624 1.370 . S
C625 C629 1.408 . S
C626 C624 1.363 . S
C626 C627 1.370 . S
C626 C630 1.524 . S
C627 C619 1.503 . S
C627 C626 1.370 . S
C627 C628 1.403 . S
C628 C627 1.403 . S
C628 C629 1.404 . S
C628 C631 1.539 . S
C629 C625 1.408 . S
C629 C628 1.404 . S
C629 H641 0.930 . S
C630 C626 1.524 . S
C630 H642 0.956 . S
C630 H643 0.961 . S
C630 H644 0.961 . S
C631 C628 1.539 . S
C631 H645 0.958 . S
C631 H646 0.961 . S
C631 H647 0.960 . S
H632 C616 0.931 . S
H633 C621 0.929 . S
H634 C622 0.960 . S
H635 C622 0.962 . S
H636 C622 0.960 . S
H637 C623 0.961 . S
H638 C623 0.961 . S
H639 C623 0.961 . S
H640 C624 0.931 1_565 S
H641 C629 0.930 . S
H642 C630 0.956 . S
H643 C630 0.961 . S
H644 C630 0.961 . S
H645 C631 0.958 . S
H646 C631 0.961 . S
H647 C631 0.960 . S
C648 C649 1.391 . S
C648 C650 1.394 . S
C648 H664 0.931 . S
C649 C648 1.391 . S
C649 C653 1.376 1_554 S
C650 C648 1.394 . S
C650 C651 1.369 . S
C650 C654 1.531 . S
C651 C650 1.369 . S
C651 C652 1.410 1_554 S
C651 C659 1.503 . S
C652 C651 1.410 1_556 S
C652 C653 1.392 . S
C652 C655 1.511 . S
C653 C649 1.376 1_556 S
C653 C652 1.392 . S
C653 H665 0.929 . S
C654 C650 1.531 . S
C654 H666 0.960 . S
C654 H667 0.962 . S
C654 H668 0.960 . S
C655 C652 1.511 . S
C655 H669 0.961 . S
C655 H670 0.961 . S
C655 H671 0.961 . S
C656 C657 1.370 . S
C656 C658 1.363 . S
C656 H672 0.931 . S
C657 C656 1.370 . S
C657 C661 1.408 1_554 S
C658 C656 1.363 . S
C658 C659 1.370 . S
C658 C662 1.524 . S
C659 C651 1.503 . S
C659 C658 1.370 . S
C659 C660 1.403 1_554 S
C660 C659 1.403 1_556 S
C660 C661 1.404 . S
C660 C663 1.539 . S
C661 C657 1.408 1_556 S
C661 C660 1.404 . S
C661 H673 0.930 . S
C662 C658 1.524 . S
C662 H674 0.956 . S
C662 H675 0.961 . S
C662 H676 0.961 . S
C663 C660 1.539 . S
C663 H677 0.958 . S
C663 H678 0.961 . S
C663 H679 0.960 . S
H664 C648 0.931 . S
H665 C653 0.929 . S
H666 C654 0.960 . S
H667 C654 0.962 . S
H668 C654 0.960 . S
H669 C655 0.961 . S
H670 C655 0.961 . S
H671 C655 0.961 . S
H672 C656 0.931 . S
H673 C661 0.930 . S
H674 C662 0.956 . S
H675 C662 0.961 . S
H676 C662 0.961 . S
H677 C663 0.958 . S
H678 C663 0.961 . S
H679 C663 0.960 . S
C680 C681 1.391 1_556 S
C680 C682 1.394 . S
C680 H696 0.931 . S
C681 C680 1.391 1_554 S
C681 C685 1.376 . S
C682 C680 1.394 . S
C682 C683 1.369 1_556 S
C682 C686 1.531 . S
C683 C682 1.369 1_554 S
C683 C684 1.410 . S
C683 C691 1.503 . S
C684 C683 1.410 . S
C684 C685 1.392 . S
C684 C687 1.511 . S
C685 C681 1.376 . S
C685 C684 1.392 . S
C685 H697 0.929 . S
C686 C682 1.531 . S
C686 H698 0.960 . S
C686 H699 0.962 . S
C686 H700 0.960 . S
C687 C684 1.511 . S
C687 H701 0.961 . S
C687 H702 0.961 . S
C687 H703 0.961 . S
C688 C689 1.370 . S
C688 C690 1.363 1_545 S
C688 H704 0.931 . S
C689 C688 1.370 . S
C689 C693 1.408 1_554 S
C690 C688 1.363 1_565 S
C690 C691 1.370 . S
C690 C694 1.524 . S
C691 C683 1.503 . S
C691 C690 1.370 . S
C691 C692 1.403 1_554 S
C692 C691 1.403 1_556 S
C692 C693 1.404 1_565 S
C692 C695 1.539 . S
C693 C689 1.408 1_556 S
C693 C692 1.404 1_545 S
C693 H705 0.930 . S
C694 C690 1.524 . S
C694 H706 0.956 . S
C694 H707 0.961 . S
C694 H708 0.961 . S
C695 C692 1.539 . S
C695 H709 0.958 . S
C695 H710 0.961 . S
C695 H711 0.960 . S
H696 C680 0.931 . S
H697 C685 0.929 . S
H698 C686 0.960 . S
H699 C686 0.962 . S
H700 C686 0.960 . S
H701 C687 0.961 . S
H702 C687 0.961 . S
H703 C687 0.961 . S
H704 C688 0.931 . S
H705 C693 0.930 . S
H706 C694 0.956 . S
H707 C694 0.961 . S
H708 C694 0.961 . S
H709 C695 0.958 . S
H710 C695 0.961 . S
H711 C695 0.960 . S
C712 C713 1.372 1_456 S
C712 C714 1.394 . S
C712 H728 0.934 . S
C713 C712 1.372 1_654 S
C713 C717 1.372 1_655 S
C714 C712 1.394 . S
C714 C715 1.369 1_556 S
C714 C718 1.531 . S
C715 C714 1.369 1_554 S
C715 C716 1.410 . S
C715 C723 1.503 . S
C716 C715 1.410 . S
C716 C717 1.392 . S
C716 C719 1.511 . S
C717 C713 1.372 1_455 S
C717 C716 1.392 . S
C717 H729 0.929 . S
C718 C714 1.531 . S
C718 H730 0.960 . S
C718 H731 0.962 . S
C718 H732 0.960 . S
C719 C716 1.511 . S
C719 H733 0.961 . S
C719 H734 0.961 . S
C719 H735 0.961 . S
C720 C721 1.370 . S
C720 C722 1.363 . S
C720 H736 0.931 . S
C721 C720 1.370 . S
C721 C725 1.408 1_554 S
C722 C720 1.363 . S
C722 C723 1.370 . S
C722 C726 1.524 . S
C723 C715 1.503 . S
C723 C722 1.370 . S
C723 C724 1.403 1_554 S
C724 C723 1.403 1_556 S
C724 C725 1.404 . S
C724 C727 1.539 . S
C725 C721 1.408 1_556 S
C725 C724 1.404 . S
C725 H737 0.930 . S
C726 C722 1.524 . S
C726 H738 0.956 . S
C726 H739 0.961 . S
C726 H740 0.961 . S
C727 C724 1.539 . S
C727 H741 0.958 . S
C727 H742 0.961 . S
C727 H743 0.960 . S
H728 C712 0.934 . S
H729 C717 0.929 . S
H730 C718 0.960 . S
H731 C718 0.962 . S
H732 C718 0.960 . S
H733 C719 0.961 . S
H734 C719 0.961 . S
H735 C719 0.961 . S
H736 C720 0.931 . S
H737 C725 0.930 . S
H738 C726 0.956 . S
H739 C726 0.961 . S
H740 C726 0.961 . S
H741 C727 0.958 . S
H742 C727 0.961 . S
H743 C727 0.960 . S
C744 C745 1.391 . S
C744 C746 1.394 . S
C744 H760 0.931 . S
C745 C744 1.391 . S
C745 C749 1.376 . S
C746 C744 1.394 . S
C746 C747 1.369 . S
C746 C750 1.531 . S
C747 C746 1.369 . S
C747 C748 1.410 . S
C747 C755 1.503 . S
C748 C747 1.410 . S
C748 C749 1.392 . S
C748 C751 1.511 . S
C749 C745 1.376 . S
C749 C748 1.392 . S
C749 H761 0.929 . S
C750 C746 1.531 . S
C750 H762 0.960 . S
C750 H763 0.962 . S
C750 H764 0.960 . S
C751 C748 1.511 . S
C751 H765 0.961 . S
C751 H766 0.961 . S
C751 H767 0.961 . S
C752 C753 1.370 . S
C752 C754 1.363 . S
C752 H768 0.931 . S
C753 C752 1.370 . S
C753 C757 1.408 . S
C754 C752 1.363 . S
C754 C755 1.370 . S
C754 C758 1.524 . S
C755 C747 1.503 . S
C755 C754 1.370 . S
C755 C756 1.403 . S
C756 C755 1.403 . S
C756 C757 1.404 . S
C756 C759 1.539 . S
C757 C753 1.408 . S
C757 C756 1.404 . S
C757 H769 0.930 . S
C758 C754 1.524 . S
C758 H770 0.956 . S
C758 H771 0.961 . S
C758 H772 0.961 . S
C759 C756 1.539 . S
C759 H773 0.958 . S
C759 H774 0.961 . S
C759 H775 0.960 . S
H760 C744 0.931 . S
H761 C749 0.929 . S
H762 C750 0.960 . S
H763 C750 0.962 . S
H764 C750 0.960 . S
H765 C751 0.961 . S
H766 C751 0.961 . S
H767 C751 0.961 . S
H768 C752 0.931 . S
H769 C757 0.930 . S
H770 C758 0.956 . S
H771 C758 0.961 . S
H772 C758 0.961 . S
H773 C759 0.958 . S
H774 C759 0.961 . S
H775 C759 0.960 . S
C776 C777 1.391 . S
C776 C778 1.394 . S
C776 H792 0.931 . S
C777 C776 1.391 . S
C777 C781 1.376 . S
C778 C776 1.394 . S
C778 C779 1.369 . S
C778 C782 1.531 . S
C779 C778 1.369 . S
C779 C780 1.410 . S
C779 C787 1.503 . S
C780 C779 1.410 . S
C780 C781 1.392 . S
C780 C783 1.511 . S
C781 C777 1.376 . S
C781 C780 1.392 . S
C781 H793 0.929 . S
C782 C778 1.531 . S
C782 H794 0.960 . S
C782 H795 0.962 . S
C782 H796 0.960 . S
C783 C780 1.511 . S
C783 H797 0.961 . S
C783 H798 0.961 . S
C783 H799 0.961 . S
C784 C785 1.370 . S
C784 C786 1.363 . S
C784 H800 0.931 . S
C785 C784 1.370 . S
C785 C789 1.408 . S
C786 C784 1.363 . S
C786 C787 1.370 . S
C786 C790 1.524 . S
C787 C779 1.503 . S
C787 C786 1.370 . S
C787 C788 1.403 . S
C788 C787 1.403 . S
C788 C789 1.404 . S
C788 C791 1.539 . S
C789 C785 1.408 . S
C789 C788 1.404 . S
C789 H801 0.930 . S
C790 C786 1.524 . S
C790 H802 0.956 . S
C790 H803 0.961 . S
C790 H804 0.961 . S
C791 C788 1.539 . S
C791 H805 0.958 . S
C791 H806 0.961 . S
C791 H807 0.960 . S
H792 C776 0.931 . S
H793 C781 0.929 . S
H794 C782 0.960 . S
H795 C782 0.962 . S
H796 C782 0.960 . S
H797 C783 0.961 . S
H798 C783 0.961 . S
H799 C783 0.961 . S
H800 C784 0.931 . S
H801 C789 0.930 . S
H802 C790 0.956 . S
H803 C790 0.961 . S
H804 C790 0.961 . S
H805 C791 0.958 . S
H806 C791 0.961 . S
H807 C791 0.960 . S
C808 C809 1.391 . S
C808 C810 1.394 . S
C808 H824 0.931 . S
C809 C808 1.391 . S
C809 C813 1.376 . S
C810 C808 1.394 . S
C810 C811 1.369 . S
C810 C814 1.531 . S
C811 C810 1.369 . S
C811 C812 1.410 . S
C811 C819 1.503 . S
C812 C811 1.410 . S
C812 C813 1.392 . S
C812 C815 1.511 . S
C813 C809 1.376 . S
C813 C812 1.392 . S
C813 H825 0.929 . S
C814 C810 1.531 . S
C814 H826 0.960 . S
C814 H827 0.962 . S
C814 H828 0.960 . S
C815 C812 1.511 . S
C815 H829 0.961 . S
C815 H830 0.961 . S
C815 H831 0.961 . S
C816 C817 1.370 . S
C816 C818 1.363 . S
C816 H832 0.931 . S
C817 C816 1.370 . S
C817 C821 1.408 . S
C818 C816 1.363 . S
C818 C819 1.370 . S
C818 C822 1.524 . S
C819 C811 1.503 . S
C819 C818 1.370 . S
C819 C820 1.403 . S
C820 C819 1.403 . S
C820 C821 1.404 . S
C820 C823 1.539 . S
C821 C817 1.408 . S
C821 C820 1.404 . S
C821 H833 0.930 . S
C822 C818 1.524 . S
C822 H834 0.956 . S
C822 H835 0.961 . S
C822 H836 0.961 . S
C823 C820 1.539 . S
C823 H837 0.958 . S
C823 H838 0.961 . S
C823 H839 0.960 . S
H824 C808 0.931 . S
H825 C813 0.929 . S
H826 C814 0.960 . S
H827 C814 0.962 . S
H828 C814 0.960 . S
H829 C815 0.961 . S
H830 C815 0.961 . S
H831 C815 0.961 . S
H832 C816 0.931 . S
H833 C821 0.930 . S
H834 C822 0.956 . S
H835 C822 0.961 . S
H836 C822 0.961 . S
H837 C823 0.958 . S
H838 C823 0.961 . S
H839 C823 0.960 . S
C840 C841 1.391 . S
C840 C842 1.394 . S
C840 H856 0.931 . S
C841 C840 1.391 . S
C841 C845 1.376 . S
C842 C840 1.394 . S
C842 C843 1.369 . S
C842 C846 1.531 . S
C843 C842 1.369 . S
C843 C844 1.410 . S
C843 C851 1.503 . S
C844 C843 1.410 . S
C844 C845 1.392 . S
C844 C847 1.511 . S
C845 C841 1.376 . S
C845 C844 1.392 . S
C845 H857 0.929 . S
C846 C842 1.531 . S
C846 H858 0.960 . S
C846 H859 0.962 . S
C846 H860 0.960 . S
C847 C844 1.511 . S
C847 H861 0.961 . S
C847 H862 0.961 . S
C847 H863 0.961 . S
C848 C849 1.370 . S
C848 C850 1.363 . S
C848 H864 0.931 . S
C849 C848 1.370 . S
C849 C853 1.408 . S
C850 C848 1.363 . S
C850 C851 1.370 . S
C850 C854 1.524 . S
C851 C843 1.503 . S
C851 C850 1.370 . S
C851 C852 1.403 . S
C852 C851 1.403 . S
C852 C853 1.404 . S
C852 C855 1.539 . S
C853 C849 1.408 . S
C853 C852 1.404 . S
C853 H865 0.930 . S
C854 C850 1.524 . S
C854 H866 0.956 . S
C854 H867 0.961 . S
C854 H868 0.961 . S
C855 C852 1.539 . S
C855 H869 0.958 . S
C855 H870 0.961 . S
C855 H871 0.960 . S
H856 C840 0.931 . S
H857 C845 0.929 . S
H858 C846 0.960 . S
H859 C846 0.962 . S
H860 C846 0.960 . S
H861 C847 0.961 . S
H862 C847 0.961 . S
H863 C847 0.961 . S
H864 C848 0.931 . S
H865 C853 0.930 . S
H866 C854 0.956 . S
H867 C854 0.961 . S
H868 C854 0.961 . S
H869 C855 0.958 . S
H870 C855 0.961 . S
H871 C855 0.960 . S
C872 C873 1.391 . S
C872 C874 1.394 . S
C872 H888 0.931 . S
C873 C872 1.391 . S
C873 C877 1.376 . S
C874 C872 1.394 . S
C874 C875 1.369 . S
C874 C878 1.531 . S
C875 C874 1.369 . S
C875 C876 1.410 . S
C875 C883 1.503 . S
C876 C875 1.410 . S
C876 C877 1.392 . S
C876 C879 1.511 . S
C877 C873 1.376 . S
C877 C876 1.392 . S
C877 H889 0.929 . S
C878 C874 1.531 . S
C878 H890 0.960 . S
C878 H891 0.962 . S
C878 H892 0.960 . S
C879 C876 1.511 . S
C879 H893 0.961 . S
C879 H894 0.961 . S
C879 H895 0.961 . S
C880 C881 1.370 . S
C880 C882 1.363 . S
C880 H896 0.931 . S
C881 C880 1.370 . S
C881 C885 1.408 . S
C882 C880 1.363 . S
C882 C883 1.370 . S
C882 C886 1.524 . S
C883 C875 1.503 . S
C883 C882 1.370 . S
C883 C884 1.403 . S
C884 C883 1.403 . S
C884 C885 1.404 . S
C884 C887 1.539 . S
C885 C881 1.408 . S
C885 C884 1.404 . S
C885 H897 0.930 . S
C886 C882 1.524 . S
C886 H898 0.956 . S
C886 H899 0.961 . S
C886 H900 0.961 . S
C887 C884 1.539 . S
C887 H901 0.958 . S
C887 H902 0.961 . S
C887 H903 0.960 . S
H888 C872 0.931 . S
H889 C877 0.929 . S
H890 C878 0.960 . S
H891 C878 0.962 . S
H892 C878 0.960 . S
H893 C879 0.961 . S
H894 C879 0.961 . S
H895 C879 0.961 . S
H896 C880 0.931 . S
H897 C885 0.930 . S
H898 C886 0.956 . S
H899 C886 0.961 . S
H900 C886 0.961 . S
H901 C887 0.958 . S
H902 C887 0.961 . S
H903 C887 0.960 . S
C904 C905 1.391 . S
C904 C906 1.394 . S
C904 H920 0.931 . S
C905 C904 1.391 . S
C905 C909 1.376 . S
C906 C904 1.394 . S
C906 C907 1.369 . S
C906 C910 1.531 . S
C907 C906 1.369 . S
C907 C908 1.410 . S
C907 C915 1.503 . S
C908 C907 1.410 . S
C908 C909 1.392 . S
C908 C911 1.511 . S
C909 C905 1.376 . S
C909 C908 1.392 . S
C909 H921 0.929 . S
C910 C906 1.531 . S
C910 H922 0.960 . S
C910 H923 0.962 . S
C910 H924 0.960 . S
C911 C908 1.511 . S
C911 H925 0.961 . S
C911 H926 0.961 . S
C911 H927 0.961 . S
C912 C913 1.370 . S
C912 C914 1.363 . S
C912 H928 0.931 . S
C913 C912 1.370 . S
C913 C917 1.408 . S
C914 C912 1.363 . S
C914 C915 1.370 . S
C914 C918 1.524 . S
C915 C907 1.503 . S
C915 C914 1.370 . S
C915 C916 1.403 . S
C916 C915 1.403 . S
C916 C917 1.404 . S
C916 C919 1.539 . S
C917 C913 1.408 . S
C917 C916 1.404 . S
C917 H929 0.930 . S
C918 C914 1.524 . S
C918 H930 0.956 . S
C918 H931 0.961 . S
C918 H932 0.961 . S
C919 C916 1.539 . S
C919 H933 0.958 . S
C919 H934 0.961 . S
C919 H935 0.960 . S
H920 C904 0.931 . S
H921 C909 0.929 . S
H922 C910 0.960 . S
H923 C910 0.962 . S
H924 C910 0.960 . S
H925 C911 0.961 . S
H926 C911 0.961 . S
H927 C911 0.961 . S
H928 C912 0.931 . S
H929 C917 0.930 . S
H930 C918 0.956 . S
H931 C918 0.961 . S
H932 C918 0.961 . S
H933 C919 0.958 . S
H934 C919 0.961 . S
H935 C919 0.960 . S
C936 C937 1.391 1_655 S
C936 C938 1.402 . S
C936 H952 0.931 . S
C937 C936 1.391 1_455 S
C937 C941 1.376 . S
C938 C936 1.402 . S
C938 C939 1.315 1_655 S
C938 C942 1.580 . S
C939 C938 1.315 1_455 S
C939 C940 1.410 . S
C939 C947 1.503 . S
C940 C939 1.410 . S
C940 C941 1.392 . S
C940 C943 1.511 . S
C941 C937 1.376 . S
C941 C940 1.392 . S
C941 H953 0.929 . S
C942 C938 1.580 . S
C942 H954 0.960 . S
C942 H955 0.962 . S
C942 H956 0.960 . S
C943 C940 1.511 . S
C943 H957 0.961 . S
C943 H958 0.961 . S
C943 H959 0.961 . S
C944 C945 1.370 1_655 S
C944 C946 1.363 . S
C944 H960 0.931 . S
C945 C944 1.370 1_455 S
C945 C949 1.408 . S
C946 C944 1.363 . S
C946 C947 1.370 1_655 S
C946 C950 1.524 . S
C947 C939 1.503 . S
C947 C946 1.370 1_455 S
C947 C948 1.403 . S
C948 C947 1.403 . S
C948 C949 1.404 . S
C948 C951 1.539 . S
C949 C945 1.408 . S
C949 C948 1.404 . S
C949 H961 0.930 . S
C950 C946 1.524 . S
C950 H962 0.956 . S
C950 H963 0.961 . S
C950 H964 0.961 . S
C951 C948 1.539 . S
C951 H965 0.958 . S
C951 H966 0.961 . S
C951 H967 0.960 . S
H952 C936 0.931 . S
H953 C941 0.929 . S
H954 C942 0.960 . S
H955 C942 0.962 . S
H956 C942 0.960 . S
H957 C943 0.961 . S
H958 C943 0.961 . S
H959 C943 0.961 . S
H960 C944 0.931 . S
H961 C949 0.930 . S
H962 C950 0.956 . S
H963 C950 0.961 . S
H964 C950 0.961 . S
H965 C951 0.958 . S
H966 C951 0.961 . S
H967 C951 0.960 . S
C968 C969 1.391 . S
C968 C970 1.394 . S
C968 H984 0.931 . S
C969 C968 1.391 . S
C969 C973 1.376 . S
C970 C968 1.394 . S
C970 C971 1.369 . S
C970 C974 1.531 . S
C971 C970 1.369 . S
C971 C972 1.410 . S
C971 C979 1.503 . S
C972 C971 1.410 . S
C972 C973 1.392 . S
C972 C975 1.511 . S
C973 C969 1.376 . S
C973 C972 1.392 . S
C973 H985 0.929 . S
C974 C970 1.531 . S
C974 H986 0.960 . S
C974 H987 0.962 . S
C974 H988 0.960 . S
C975 C972 1.511 . S
C975 H989 0.961 . S
C975 H990 0.961 . S
C975 H991 0.961 . S
C976 C977 1.370 . S
C976 C978 1.363 . S
C976 H992 0.931 . S
C977 C976 1.370 . S
C977 C981 1.408 . S
C978 C976 1.363 . S
C978 C979 1.370 . S
C978 C982 1.524 . S
C979 C971 1.503 . S
C979 C978 1.370 . S
C979 C980 1.403 . S
C980 C979 1.403 . S
C980 C981 1.404 . S
C980 C983 1.539 . S
C981 C977 1.408 . S
C981 C980 1.404 . S
C981 H993 0.930 . S
C982 C978 1.524 . S
C982 H994 0.956 . S
C982 H995 0.961 . S
C982 H996 0.961 . S
C983 C980 1.539 . S
C983 H997 0.958 . S
C983 H998 0.961 . S
C983 H999 0.960 . S
H984 C968 0.931 . S
H985 C973 0.929 . S
H986 C974 0.960 . S
H987 C974 0.962 . S
H988 C974 0.960 . S
H989 C975 0.961 . S
H990 C975 0.961 . S
H991 C975 0.961 . S
H992 C976 0.931 . S
H993 C981 0.930 . S
H994 C982 0.956 . S
H995 C982 0.961 . S
H996 C982 0.961 . S
H997 C983 0.958 . S
H998 C983 0.961 . S
H999 C983 0.960 . S
C1000 C1001 1.391 . S
C1000 C1002 1.394 . S
C1000 H1016 0.931 . S
C1001 C1000 1.391 . S
C1001 C1005 1.391 . S
C1002 C1000 1.394 . S
C1002 C1003 1.369 . S
C1002 C1006 1.531 . S
C1003 C1002 1.369 . S
C1003 C1004 1.422 . S
C1003 C1011 1.503 . S
C1004 C1003 1.422 . S
C1004 C1005 1.392 . S
C1004 C1007 1.499 1_545 S
C1005 C1001 1.391 . S
C1005 C1004 1.392 . S
C1005 H1017 0.914 1_545 S
C1006 C1002 1.531 . S
C1006 H1018 0.960 . S
C1006 H1019 0.962 . S
C1006 H1020 0.960 . S
C1007 C1004 1.499 1_565 S
C1007 H1021 0.961 . S
C1007 H1022 0.961 . S
C1007 H1023 0.961 . S
C1008 C1009 1.370 1_565 S
C1008 C1010 1.363 . S
C1008 H1024 0.931 . S
C1009 C1008 1.370 1_545 S
C1009 C1013 1.408 . S
C1010 C1008 1.363 . S
C1010 C1011 1.370 1_565 S
C1010 C1014 1.524 . S
C1011 C1003 1.503 . S
C1011 C1010 1.370 1_545 S
C1011 C1012 1.403 . S
C1012 C1011 1.403 . S
C1012 C1013 1.404 . S
C1012 C1015 1.539 . S
C1013 C1009 1.408 . S
C1013 C1012 1.404 . S
C1013 H1025 0.930 . S
C1014 C1010 1.524 . S
C1014 H1026 0.956 . S
C1014 H1027 0.961 . S
C1014 H1028 0.961 . S
C1015 C1012 1.539 . S
C1015 H1029 0.958 . S
C1015 H1030 0.961 . S
C1015 H1031 0.960 . S
H1016 C1000 0.931 . S
H1017 C1005 0.914 1_565 S
H1018 C1006 0.960 . S
H1019 C1006 0.962 . S
H1020 C1006 0.960 . S
H1021 C1007 0.961 . S
H1022 C1007 0.961 . S
H1023 C1007 0.961 . S
H1024 C1008 0.931 . S
H1025 C1013 0.930 . S
H1026 C1014 0.956 . S
H1027 C1014 0.961 . S
H1028 C1014 0.961 . S
H1029 C1015 0.958 . S
H1030 C1015 0.961 . S
H1031 C1015 0.960 . S
C1032 C1033 1.391 . S
C1032 C1034 1.394 . S
C1032 H1048 0.931 . S
C1033 C1032 1.391 . S
C1033 C1037 1.376 . S
C1034 C1032 1.394 . S
C1034 C1035 1.369 . S
C1034 C1038 1.531 . S
C1035 C1034 1.369 . S
C1035 C1036 1.410 . S
C1035 C1043 1.503 . S
C1036 C1035 1.410 . S
C1036 C1037 1.392 . S
C1036 C1039 1.511 . S
C1037 C1033 1.376 . S
C1037 C1036 1.392 . S
C1037 H1049 0.929 . S
C1038 C1034 1.531 . S
C1038 H1050 0.960 . S
C1038 H1051 0.962 . S
C1038 H1052 0.960 . S
C1039 C1036 1.511 . S
C1039 H1053 0.961 . S
C1039 H1054 0.961 . S
C1039 H1055 0.961 . S
C1040 C1041 1.370 . S
C1040 C1042 1.363 1_554 S
C1040 H1056 0.931 . S
C1041 C1040 1.370 . S
C1041 C1045 1.408 . S
C1042 C1040 1.363 1_556 S
C1042 C1043 1.370 . S
C1042 C1046 1.524 . S
C1043 C1035 1.503 . S
C1043 C1042 1.370 . S
C1043 C1044 1.403 . S
C1044 C1043 1.403 . S
C1044 C1045 1.404 1_556 S
C1044 C1047 1.539 . S
C1045 C1041 1.408 . S
C1045 C1044 1.404 1_554 S
C1045 H1057 0.930 . S
C1046 C1042 1.524 . S
C1046 H1058 0.956 . S
C1046 H1059 0.961 . S
C1046 H1060 0.961 . S
C1047 C1044 1.539 . S
C1047 H1061 0.958 . S
C1047 H1062 0.961 . S
C1047 H1063 0.960 . S
H1048 C1032 0.931 . S
H1049 C1037 0.929 . S
H1050 C1038 0.960 . S
H1051 C1038 0.962 . S
H1052 C1038 0.960 . S
H1053 C1039 0.961 . S
H1054 C1039 0.961 . S
H1055 C1039 0.961 . S
H1056 C1040 0.931 . S
H1057 C1045 0.930 . S
H1058 C1046 0.956 . S
H1059 C1046 0.961 . S
H1060 C1046 0.961 . S
H1061 C1047 0.958 . S
H1062 C1047 0.961 . S
H1063 C1047 0.960 . S
C1064 C1065 1.391 . S
C1064 C1066 1.394 . S
C1064 H1080 0.931 . S
C1065 C1064 1.391 . S
C1065 C1069 1.376 . S
C1066 C1064 1.394 . S
C1066 C1067 1.369 . S
C1066 C1070 1.531 . S
C1067 C1066 1.369 . S
C1067 C1068 1.410 . S
C1067 C1075 1.503 . S
C1068 C1067 1.410 . S
C1068 C1069 1.392 . S
C1068 C1071 1.511 . S
C1069 C1065 1.376 . S
C1069 C1068 1.392 . S
C1069 H1081 0.929 . S
C1070 C1066 1.531 . S
C1070 H1082 0.960 . S
C1070 H1083 0.962 . S
C1070 H1084 0.960 . S
C1071 C1068 1.511 . S
C1071 H1085 0.961 . S
C1071 H1086 0.961 . S
C1071 H1087 0.961 . S
C1072 C1073 1.370 . S
C1072 C1074 1.363 1_554 S
C1072 H1088 0.931 . S
C1073 C1072 1.370 . S
C1073 C1077 1.408 . S
C1074 C1072 1.363 1_556 S
C1074 C1075 1.370 . S
C1074 C1078 1.524 . S
C1075 C1067 1.503 . S
C1075 C1074 1.370 . S
C1075 C1076 1.403 . S
C1076 C1075 1.403 . S
C1076 C1077 1.404 1_556 S
C1076 C1079 1.539 . S
C1077 C1073 1.408 . S
C1077 C1076 1.404 1_554 S
C1077 H1089 0.930 . S
C1078 C1074 1.524 . S
C1078 H1090 0.956 . S
C1078 H1091 0.961 . S
C1078 H1092 0.961 . S
C1079 C1076 1.539 . S
C1079 H1093 0.958 . S
C1079 H1094 0.961 . S
C1079 H1095 0.960 . S
H1080 C1064 0.931 . S
H1081 C1069 0.929 . S
H1082 C1070 0.960 . S
H1083 C1070 0.962 . S
H1084 C1070 0.960 . S
H1085 C1071 0.961 . S
H1086 C1071 0.961 . S
H1087 C1071 0.961 . S
H1088 C1072 0.931 . S
H1089 C1077 0.930 . S
H1090 C1078 0.956 . S
H1091 C1078 0.961 . S
H1092 C1078 0.961 . S
H1093 C1079 0.958 . S
H1094 C1079 0.961 . S
H1095 C1079 0.960 . S
C1096 C1097 1.391 . S
C1096 C1098 1.394 . S
C1096 H1112 0.931 . S
C1097 C1096 1.391 . S
C1097 C1101 1.376 . S
C1098 C1096 1.394 . S
C1098 C1099 1.369 . S
C1098 C1102 1.531 . S
C1099 C1098 1.369 . S
C1099 C1100 1.410 . S
C1099 C1107 1.503 . S
C1100 C1099 1.410 . S
C1100 C1101 1.392 . S
C1100 C1103 1.511 . S
C1101 C1097 1.376 . S
C1101 C1100 1.392 . S
C1101 H1113 0.929 . S
C1102 C1098 1.531 . S
C1102 H1114 0.960 . S
C1102 H1115 0.962 . S
C1102 H1116 0.960 . S
C1103 C1100 1.511 . S
C1103 H1117 0.961 . S
C1103 H1118 0.961 . S
C1103 H1119 0.961 . S
C1104 C1105 1.370 . S
C1104 C1106 1.363 1_554 S
C1104 H1120 0.931 . S
C1105 C1104 1.370 . S
C1105 C1109 1.408 . S
C1106 C1104 1.363 1_556 S
C1106 C1107 1.370 . S
C1106 C1110 1.524 . S
C1107 C1099 1.503 . S
C1107 C1106 1.370 . S
C1107 C1108 1.403 . S
C1108 C1107 1.403 . S
C1108 C1109 1.404 1_556 S
C1108 C1111 1.539 . S
C1109 C1105 1.408 . S
C1109 C1108 1.404 1_554 S
C1109 H1121 0.930 . S
C1110 C1106 1.524 . S
C1110 H1122 0.956 . S
C1110 H1123 0.961 . S
C1110 H1124 0.961 . S
C1111 C1108 1.539 . S
C1111 H1125 0.958 . S
C1111 H1126 0.961 . S
C1111 H1127 0.960 . S
H1112 C1096 0.931 . S
H1113 C1101 0.929 . S
H1114 C1102 0.960 . S
H1115 C1102 0.962 . S
H1116 C1102 0.960 . S
H1117 C1103 0.961 . S
H1118 C1103 0.961 . S
H1119 C1103 0.961 . S
H1120 C1104 0.931 . S
H1121 C1109 0.930 . S
H1122 C1110 0.956 . S
H1123 C1110 0.961 . S
H1124 C1110 0.961 . S
H1125 C1111 0.958 . S
H1126 C1111 0.961 . S
H1127 C1111 0.960 . S
C1128 C1129 1.391 . S
C1128 C1130 1.394 . S
C1128 H1144 0.931 . S
C1129 C1128 1.391 . S
C1129 C1133 1.376 . S
C1130 C1128 1.394 . S
C1130 C1131 1.369 . S
C1130 C1134 1.531 . S
C1131 C1130 1.369 . S
C1131 C1132 1.410 . S
C1131 C1139 1.503 . S
C1132 C1131 1.410 . S
C1132 C1133 1.392 . S
C1132 C1135 1.511 . S
C1133 C1129 1.376 . S
C1133 C1132 1.392 . S
C1133 H1145 0.929 . S
C1134 C1130 1.531 . S
C1134 H1146 0.960 . S
C1134 H1147 0.962 . S
C1134 H1148 0.960 . S
C1135 C1132 1.511 . S
C1135 H1149 0.961 . S
C1135 H1150 0.961 . S
C1135 H1151 0.961 . S
C1136 C1137 1.370 . S
C1136 C1138 1.363 1_556 S
C1136 H1152 0.931 . S
C1137 C1136 1.370 . S
C1137 C1141 1.408 . S
C1138 C1136 1.363 1_554 S
C1138 C1139 1.370 . S
C1138 C1142 1.524 . S
C1139 C1131 1.503 . S
C1139 C1138 1.370 . S
C1139 C1140 1.403 . S
C1140 C1139 1.403 . S
C1140 C1141 1.404 1_554 S
C1140 C1143 1.539 . S
C1141 C1137 1.408 . S
C1141 C1140 1.404 1_556 S
C1141 H1153 0.930 . S
C1142 C1138 1.524 . S
C1142 H1154 0.956 . S
C1142 H1155 0.961 . S
C1142 H1156 0.961 . S
C1143 C1140 1.539 . S
C1143 H1157 0.958 . S
C1143 H1158 0.961 . S
C1143 H1159 0.960 . S
H1144 C1128 0.931 . S
H1145 C1133 0.929 . S
H1146 C1134 0.960 . S
H1147 C1134 0.962 . S
H1148 C1134 0.960 . S
H1149 C1135 0.961 . S
H1150 C1135 0.961 . S
H1151 C1135 0.961 . S
H1152 C1136 0.931 . S
H1153 C1141 0.930 . S
H1154 C1142 0.956 . S
H1155 C1142 0.961 . S
H1156 C1142 0.961 . S
H1157 C1143 0.958 . S
H1158 C1143 0.961 . S
H1159 C1143 0.960 . S
C1160 C1161 1.391 . S
C1160 C1162 1.394 1_556 S
C1160 H1176 0.931 . S
C1161 C1160 1.391 . S
C1161 C1165 1.376 . S
C1162 C1160 1.394 1_554 S
C1162 C1163 1.369 . S
C1162 C1166 1.531 . S
C1163 C1162 1.369 . S
C1163 C1164 1.410 . S
C1163 C1171 1.503 . S
C1164 C1163 1.410 . S
C1164 C1165 1.392 1_554 S
C1164 C1167 1.511 . S
C1165 C1161 1.376 . S
C1165 C1164 1.392 1_556 S
C1165 H1177 0.929 . S
C1166 C1162 1.531 . S
C1166 H1178 0.960 . S
C1166 H1179 0.962 . S
C1166 H1180 0.960 . S
C1167 C1164 1.511 . S
C1167 H1181 0.961 . S
C1167 H1182 0.961 . S
C1167 H1183 0.961 . S
C1168 C1169 1.370 . S
C1168 C1170 1.363 . S
C1168 H1184 0.931 . S
C1169 C1168 1.370 . S
C1169 C1173 1.408 . S
C1170 C1168 1.363 . S
C1170 C1171 1.370 . S
C1170 C1174 1.524 . S
C1171 C1163 1.503 . S
C1171 C1170 1.370 . S
C1171 C1172 1.403 . S
C1172 C1171 1.403 . S
C1172 C1173 1.404 . S
C1172 C1175 1.539 . S
C1173 C1169 1.408 . S
C1173 C1172 1.404 . S
C1173 H1185 0.930 . S
C1174 C1170 1.524 . S
C1174 H1186 0.956 . S
C1174 H1187 0.961 . S
C1174 H1188 0.961 . S
C1175 C1172 1.539 . S
C1175 H1189 0.958 . S
C1175 H1190 0.961 . S
C1175 H1191 0.960 . S
H1176 C1160 0.931 . S
H1177 C1165 0.929 . S
H1178 C1166 0.960 . S
H1179 C1166 0.962 . S
H1180 C1166 0.960 . S
H1181 C1167 0.961 . S
H1182 C1167 0.961 . S
H1183 C1167 0.961 . S
H1184 C1168 0.931 . S
H1185 C1173 0.930 . S
H1186 C1174 0.956 . S
H1187 C1174 0.961 . S
H1188 C1174 0.961 . S
H1189 C1175 0.958 . S
H1190 C1175 0.961 . S
H1191 C1175 0.960 . S
C1192 C1193 1.391 . S
C1192 C1194 1.394 . S
C1192 H1208 0.931 . S
C1193 C1192 1.391 . S
C1193 C1197 1.376 . S
C1194 C1192 1.394 . S
C1194 C1195 1.369 . S
C1194 C1198 1.531 . S
C1195 C1194 1.369 . S
C1195 C1196 1.410 . S
C1195 C1203 1.503 . S
C1196 C1195 1.410 . S
C1196 C1197 1.392 . S
C1196 C1199 1.511 . S
C1197 C1193 1.376 . S
C1197 C1196 1.392 . S
C1197 H1209 0.929 . S
C1198 C1194 1.531 . S
C1198 H1210 0.960 . S
C1198 H1211 0.962 . S
C1198 H1212 0.960 . S
C1199 C1196 1.511 . S
C1199 H1213 0.961 . S
C1199 H1214 0.961 . S
C1199 H1215 0.961 . S
C1200 C1201 1.370 . S
C1200 C1202 1.363 1_556 S
C1200 H1216 0.931 . S
C1201 C1200 1.370 . S
C1201 C1205 1.408 . S
C1202 C1200 1.363 1_554 S
C1202 C1203 1.370 . S
C1202 C1206 1.524 . S
C1203 C1195 1.503 . S
C1203 C1202 1.370 . S
C1203 C1204 1.403 . S
C1204 C1203 1.403 . S
C1204 C1205 1.404 1_554 S
C1204 C1207 1.539 . S
C1205 C1201 1.408 . S
C1205 C1204 1.404 1_556 S
C1205 H1217 0.930 . S
C1206 C1202 1.524 . S
C1206 H1218 0.956 . S
C1206 H1219 0.961 . S
C1206 H1220 0.961 . S
C1207 C1204 1.539 . S
C1207 H1221 0.958 . S
C1207 H1222 0.961 . S
C1207 H1223 0.960 . S
H1208 C1192 0.931 . S
H1209 C1197 0.929 . S
H1210 C1198 0.960 . S
H1211 C1198 0.962 . S
H1212 C1198 0.960 . S
H1213 C1199 0.961 . S
H1214 C1199 0.961 . S
H1215 C1199 0.961 . S
H1216 C1200 0.931 . S
H1217 C1205 0.930 . S
H1218 C1206 0.956 . S
H1219 C1206 0.961 . S
H1220 C1206 0.961 . S
H1221 C1207 0.958 . S
H1222 C1207 0.961 . S
H1223 C1207 0.960 . S
C361 C6 1.893 . S
C369 C290 1.841 . S
C393 C46 1.922 . S
C401 C330 1.816 . S
C425 C86 1.897 . S
C433 C250 1.840 . S
C457 C166 1.923 . S
C465 C90 1.818 . S
C489 C206 1.903 . S
C497 C10 1.837 . S
C521 C50 1.811 . S
C529 C126 1.916 . S
C553 C286 1.911 . S
C561 C210 1.830 . S
C585 C326 1.923 . S
C593 C130 1.817 . S
C617 C170 1.795 . S
C625 C246 1.918 1_545 S
C649 C95 1.661 . S
C657 C19 1.671 1_554 S
C681 C59 1.661 1_554 S
C689 C15 1.672 . S
C713 C55 1.693 . S
C721 C99 1.676 1_554 S
C745 C139 1.663 . S
C753 C215 1.673 . S
C777 C135 1.682 . S
C785 C179 1.681 . S
C809 C175 1.673 . S
C817 C219 1.677 . S
C841 C335 1.675 . S
C849 C259 1.677 . S
C873 C299 1.683 . S
C881 C255 1.681 . S
C905 C339 1.683 . S
C913 C295 1.681 . S
C937 C18 1.011 1_455 S
C945 C9 0.952 . S
C969 C58 0.946 . S
C977 C49 0.981 . S
C1001 C98 0.963 . S
C1009 C89 0.979 . S
C1033 C129 0.943 . S
C1041 C138 0.977 . S
C1065 C169 0.964 . S
C1073 C178 0.968 . S
C1097 C209 0.990 . S
C1105 C218 0.962 . S
C1129 C258 1.007 . S
C1137 C249 0.954 . S
C1161 C289 0.925 . S
C1169 C298 0.987 . S
C1193 C338 0.975 . S
C1201 C329 0.969 . S
