# Generated by pormake.
# Topology uoc, (4)-cn, num edge types: 1
# Building blocks:
#     Node 0, Type 0, BuildingBlock: QUQFOY_clean_sbu_1, # of connection points: 4
#     Node 1, Type 0, BuildingBlock: QUQFOY_clean_sbu_1, # of connection points: 4
#     Node 2, Type 0, BuildingBlock: QUQFOY_clean_sbu_1, # of connection points: 4
#     Node 3, Type 0, BuildingBlock: QUQFOY_clean_sbu_1, # of connection points: 4
#     Node 4, Type 0, BuildingBlock: QUQFOY_clean_sbu_1, # of connection points: 4
#     Node 5, Type 0, BuildingBlock: QUQFOY_clean_sbu_1, # of connection points: 4
#     Node 6, Type 0, BuildingBlock: QUQFOY_clean_sbu_1, # of connection points: 4
#     Node 7, Type 0, BuildingBlock: QUQFOY_clean_sbu_1, # of connection points: 4
#     Edge 8, Type (0, 0), BuildingBlock: AJUNOK_clean_linker_0, # of connection points: 2
#     Edge 9, Type (0, 0), BuildingBlock: AJUNOK_clean_linker_0, # of connection points: 2
#     Edge 10, Type (0, 0), BuildingBlock: AJUNOK_clean_linker_0, # of connection points: 2
#     Edge 11, Type (0, 0), BuildingBlock: AJUNOK_clean_linker_0, # of connection points: 2
#     Edge 12, Type (0, 0), BuildingBlock: AJUNOK_clean_linker_0, # of connection points: 2
#     Edge 13, Type (0, 0), BuildingBlock: AJUNOK_clean_linker_0, # of connection points: 2
#     Edge 14, Type (0, 0), BuildingBlock: AJUNOK_clean_linker_0, # of connection points: 2
#     Edge 15, Type (0, 0), BuildingBlock: AJUNOK_clean_linker_0, # of connection points: 2
#     Edge 16, Type (0, 0), BuildingBlock: AJUNOK_clean_linker_0, # of connection points: 2
#     Edge 17, Type (0, 0), BuildingBlock: AJUNOK_clean_linker_0, # of connection points: 2
#     Edge 18, Type (0, 0), BuildingBlock: AJUNOK_clean_linker_0, # of connection points: 2
#     Edge 19, Type (0, 0), BuildingBlock: AJUNOK_clean_linker_0, # of connection points: 2
#     Edge 20, Type (0, 0), BuildingBlock: AJUNOK_clean_linker_0, # of connection points: 2
#     Edge 21, Type (0, 0), BuildingBlock: AJUNOK_clean_linker_0, # of connection points: 2
#     Edge 22, Type (0, 0), BuildingBlock: AJUNOK_clean_linker_0, # of connection points: 2
#     Edge 23, Type (0, 0), BuildingBlock: AJUNOK_clean_linker_0, # of connection points: 2
# Relax obj value: 0.069
# Max RMSD: 0.096
# Mean RMSD: 0.096
data_MOF--net-uoc--node1-QUQFOY_clean_sbu_1--edge1-AJUNOK_clean_linker_0
_symmetry_space_group_name_H-M    P1
_symmetry_Int_Tables_number       1
_symmetry_cell_setting            triclinic
loop_
_symmetry_equiv_pos_as_xyz
'x, y, z'
_cell_length_a     20.536476
_cell_length_b     20.533778
_cell_length_c     40.910338
_cell_angle_alpha  89.972615
_cell_angle_beta   89.796907
_cell_angle_gamma 108.14889
loop_
_atom_site_label
_atom_site_type_symbol
_atom_site_fract_x
_atom_site_fract_y
_atom_site_fract_z
_atom_type_partial_charge
O0 O 0.13589 0.14459 0.14142 0.0
Cd1 Cd 0.19565 0.24534 0.14664 0.0
Cd2 Cd 0.07455 0.25982 0.15445 0.0
O3 O 0.03911 0.16596 0.1321 0.0
O4 O 0.28211 0.25239 0.12243 0.0
O5 O 0.20674 0.30274 0.10636 0.0
C6 C 0.26162 0.2866 0.10038 0.0
C7 C 0.04279 0.35429 0.13804 0.0
C8 C 0.07348 0.12415 0.13271 0.0
C9 C 0.16294 0.27469 0.21355 0.0
O10 O 0.10202 0.25883 0.20283 0.0
O11 O 0.21305 0.28273 0.19391 0.0
O12 O 1.00022 0.30325 0.15306 0.0
O13 O 0.10275 0.35018 0.13104 0.0
O14 O 0.66811 0.61013 0.42362 0.0
Cd15 Cd 0.76857 0.67142 0.41886 0.0
Cd16 Cd 0.78525 0.55183 0.41168 0.0
O17 O 0.69185 0.51529 0.4346 0.0
O18 O 0.77321 0.75764 0.44256 0.0
O19 O 0.82462 0.68387 0.45957 0.0
C20 C 0.80711 0.73818 0.46505 0.0
C21 C 0.88075 0.52157 0.4275 0.0
C22 C 0.6487 0.54798 0.43299 0.0
C23 C 0.79918 0.63922 0.35223 0.0
O24 O 0.78313 0.57834 0.36318 0.0
O25 O 0.80728 0.68941 0.37172 0.0
O26 O 0.82961 0.47827 0.41309 0.0
O27 O 0.87619 0.58142 0.43431 0.0
O28 O 0.37271 0.31975 0.64 0.0
Cd29 Cd 0.30971 0.22157 0.64674 0.0
Cd30 Cd 0.42926 0.19642 0.65277 0.0
O31 O 0.4688 0.29465 0.63413 0.0
O32 O 0.22382 0.21792 0.62335 0.0
O33 O 0.29418 0.16148 0.60728 0.0
C34 C 0.24124 0.18109 0.60147 0.0
C35 C 0.46797 0.10707 0.63452 0.0
C36 C 0.43616 0.33806 0.63318 0.0
C37 C 0.33984 0.18337 0.713 0.0
O38 O 0.39822 0.18734 0.70108 0.0
O39 O 0.29218 0.18958 0.69467 0.0
O40 O 0.50651 0.15695 0.65154 0.0
O41 O 0.40788 0.10926 0.62655 0.0
O42 O 0.84153 0.84233 0.9218 0.0
Cd43 Cd 0.73991 0.78463 0.91812 0.0
Cd44 Cd 0.72601 0.90632 0.91198 0.0
O45 O 0.82123 0.93871 0.93342 0.0
O46 O 0.73255 0.69784 0.94188 0.0
O47 O 0.68579 0.77507 0.95946 0.0
C48 C 0.70111 0.71948 0.96481 0.0
C49 C 0.63537 0.94337 0.92989 0.0
C50 C 0.8628 0.90417 0.93136 0.0
C51 C 0.70564 0.81853 0.85226 0.0
O52 O 0.72338 0.87943 0.86323 0.0
O53 O 0.69895 0.76824 0.87158 0.0
O54 O 0.68711 -0.01602 0.91452 0.0
O55 O 0.63623 0.88199 0.93621 0.0
O56 O 0.63983 0.64926 0.64248 0.0
Cd57 Cd 0.70017 0.75007 0.64623 0.0
Cd58 Cd 0.58032 0.76742 0.65226 0.0
O59 O 0.54555 0.67289 0.63024 0.0
O60 O 0.78581 0.75601 0.62156 0.0
O61 O 0.7094 0.80488 0.60522 0.0
C62 C 0.76418 0.78856 0.59917 0.0
C63 C 0.54757 0.86116 0.63516 0.0
C64 C 0.57812 0.62969 0.63268 0.0
C65 C 0.66689 0.78308 0.71218 0.0
O66 O 0.60635 0.76734 0.70097 0.0
O67 O 0.71754 0.79016 0.69299 0.0
O68 O 0.50519 0.80992 0.65013 0.0
O69 O 0.60797 0.85773 0.6286 0.0
O70 O 0.17183 0.11017 0.92613 0.0
Cd71 Cd 0.26936 0.1755 0.92028 0.0
Cd72 Cd 0.29779 0.05829 0.91312 0.0
O73 O 0.19955 0.01549 0.93139 0.0
O74 O 0.27076 0.25989 0.94459 0.0
O75 O 0.32897 0.19071 0.95985 0.0
C76 C 0.30814 0.24271 0.9662 0.0
C77 C 0.38962 0.02317 0.93091 0.0
C78 C 0.1547 0.04642 0.9322 0.0
C79 C 0.30916 0.1493 0.85371 0.0
O80 O 0.30645 0.09085 0.86506 0.0
O81 O 0.30176 0.19581 0.87253 0.0
O82 O 0.34078 -0.01647 0.91371 0.0
O83 O 0.38455 0.08188 0.93958 0.0
O84 O 0.87223 0.81251 0.14148 0.0
Cd85 Cd 0.81134 0.71189 0.14566 0.0
Cd86 Cd 0.93076 0.69449 0.15369 0.0
O87 O 0.96769 0.7889 0.13174 0.0
O88 O 0.72627 0.70674 0.12108 0.0
O89 O 0.80155 0.65609 0.10494 0.0
C90 C 0.74721 0.67307 0.0989 0.0
C91 C 0.96673 0.60237 0.13744 0.0
C92 C 0.93485 0.83199 0.13284 0.0
C93 C 0.84 0.67806 0.21238 0.0
O94 O 0.90137 0.69374 0.20204 0.0
O95 O 0.79109 0.6724 0.19247 0.0
O96 O 0.00698 0.65371 0.15303 0.0
O97 O 0.90625 0.60433 0.13007 0.0
O98 O 0.33577 0.3467 0.42474 0.0
Cd99 Cd 0.2347 0.28745 0.42031 0.0
Cd100 Cd 0.22054 0.4084 0.41112 0.0
O101 O 0.31493 0.44417 0.43288 0.0
O102 O 0.22766 0.20209 0.44527 0.0
O103 O 0.17828 0.27869 0.46091 0.0
C104 C 0.19424 0.22388 0.46728 0.0
C105 C 0.12915 0.44584 0.4271 0.0
C106 C 0.35651 0.40956 0.43275 0.0
C107 C 0.20283 0.31615 0.35316 0.0
O108 O 0.2195 0.37777 0.36307 0.0
O109 O 0.19605 0.2674 0.37342 0.0
O110 O 0.18069 0.48529 0.41116 0.0
O111 O 0.13059 0.38538 0.43502 0.0
C112 C 0.33268 0.25397 0.05759 0.0
C113 C 0.29184 0.29464 0.06701 0.0
C114 C 0.34409 0.24304 1.02453 0.0
C115 C 0.31536 0.27259 0.99961 0.0
H116 H 0.35113 0.22548 0.07569 0.0
H117 H 0.37091 0.20672 1.0186 0.0
S118 S 0.22088 0.39847 1.01159 0.0
N119 N 0.2346 0.37558 0.04898 0.0
N120 N 0.25647 0.35566 0.98685 0.0
C121 C 0.28222 0.32049 1.00879 0.0
C122 C 0.27029 0.33132 0.04251 0.0
C123 C 0.86321 0.70252 0.30395 0.0
C124 C 0.80688 0.65065 0.31665 0.0
C125 C 0.87351 0.71079 0.27009 0.0
C126 C 0.82669 0.66886 0.24785 0.0
H127 H 0.90054 0.73558 0.32027 0.0
H128 H 0.91832 0.75056 0.26125 0.0
S129 S 0.66898 0.52816 0.26896 0.0
N130 N 0.70291 0.55778 0.30463 0.0
N131 N 0.72089 0.5752 0.24097 0.0
C132 C 0.76906 0.61826 0.2603 0.0
C133 C 0.75957 0.60862 0.29473 0.0
C134 C 0.23855 0.14305 0.54332 0.0
C135 C 0.21043 0.17329 0.56827 0.0
C136 C 0.22685 0.15356 0.51028 0.0
C137 C 0.1869 0.19507 0.50091 0.0
H138 H 0.27429 0.11556 0.54914 0.0
H139 H 0.25422 0.13378 0.4921 0.0
S140 S 0.08701 0.27061 0.55664 0.0
N141 N 0.12952 0.23473 0.58126 0.0
N142 N 0.10828 0.25501 0.51917 0.0
C143 C 0.15167 0.21836 0.52554 0.0
C144 C 0.16322 0.20728 0.55923 0.0
C145 C 0.73824 0.85441 0.79461 0.0
C146 C 0.69563 0.80729 0.81671 0.0
C147 C 0.72993 0.84545 0.76071 0.0
C148 C 0.67734 0.79027 0.74782 0.0
H149 H 0.77879 0.89823 0.8036 0.0
H150 H 0.76379 0.88277 0.74451 0.0
S151 S 0.55251 0.65242 0.79509 0.0
N152 N 0.60022 0.70265 0.82323 0.0
N153 N 0.58276 0.68724 0.75954 0.0
C154 C 0.63438 0.74287 0.76961 0.0
C155 C 0.64404 0.75096 0.80407 0.0
C156 C 0.23627 0.34822 0.29526 0.0
C157 C 0.1935 0.30238 0.31778 0.0
C158 C 0.22762 0.33781 0.26146 0.0
C159 C 0.17457 0.2824 0.24909 0.0
H160 H 0.27694 0.3924 0.30384 0.0
H161 H 0.26137 0.37442 0.24494 0.0
S162 S 0.04959 0.14711 0.29763 0.0
N163 N 0.09778 0.19837 0.3253 0.0
N164 N 0.07972 0.18019 0.26175 0.0
C165 C 0.13173 0.23599 0.2713 0.0
C166 C 0.14171 0.24557 0.30568 0.0
C167 C 0.83325 0.75307 0.55638 0.0
C168 C 0.79298 0.79447 0.56554 0.0
C169 C 0.84358 0.74041 0.5234 0.0
C170 C 0.81443 0.76901 0.49828 0.0
H171 H 0.85217 0.72543 0.57469 0.0
H172 H 0.8702 0.70378 0.51774 0.0
S173 S 0.72029 0.89547 0.50933 0.0
N174 N 0.73519 0.87449 0.54689 0.0
N175 N 0.7551 0.85141 0.48491 0.0
C176 C 0.78155 0.81736 0.50709 0.0
C177 C 0.77066 0.82988 0.54073 0.0
C178 C 0.36367 0.13579 0.76609 0.0
C179 C 0.32933 0.17423 0.74868 0.0
C180 C 0.35721 0.12851 0.8001 0.0
C181 C 0.31776 0.16103 0.81809 0.0
H182 H 0.39535 0.11054 0.75329 0.0
H183 H 0.38378 0.09755 0.81244 0.0
S184 S 0.21864 0.26861 0.78422 0.0
N185 N 0.25446 0.24535 0.75191 0.0
N186 N 0.24381 0.2332 0.81604 0.0
C187 C 0.2838 0.20036 0.80106 0.0
C188 C 0.28908 0.20644 0.7663 0.0
C189 C 0.67715 0.70717 0.05635 0.0
C190 C 0.71791 0.66628 0.06545 0.0
C191 C 0.66592 0.71877 1.02338 0.0
C192 C 0.69455 0.68953 0.99823 0.0
H193 H 0.65846 0.73518 0.07463 0.0
H194 H 0.63896 0.75505 1.01769 0.0
S195 S 0.78991 0.56421 1.00931 0.0
N196 N 0.7758 0.58619 0.04685 0.0
N197 N 0.75413 0.60722 0.9849 0.0
C198 C 0.72794 0.64168 1.00708 0.0
C199 C 0.73982 0.63029 0.04071 0.0
C200 C 0.96711 0.02386 0.12971 0.0
C201 C 0.03885 0.05025 0.12705 0.0
C202 C 0.9337 0.95317 0.1299 0.0
C203 C 0.97061 0.90595 0.12726 0.0
H204 H 0.93657 0.05782 0.13332 0.0
H205 H 0.87867 0.9356 0.13344 0.0
S206 S 0.15843 0.94921 0.11408 0.0
N207 N 0.14508 0.0241 0.11764 0.0
N208 N 0.08236 0.89112 0.11785 0.0
C209 C 0.04193 0.93178 0.12212 0.0
C210 C 0.07601 0.00392 0.12208 0.0
C211 C 1.00275 0.41692 0.43521 0.0
C212 C 0.06746 0.46696 0.43303 0.0
C213 C 0.94246 0.43527 0.43494 0.0
C214 C 0.94465 0.50437 0.43321 0.0
H215 H 0.99838 0.36296 0.43527 0.0
H216 H 0.8937 0.39484 0.43506 0.0
S217 S 0.10151 0.65535 0.43101 0.0
N218 N 0.13038 0.58877 0.43174 0.0
N219 N 0.01713 0.62331 0.43197 0.0
C220 C 0.00911 0.5551 0.43325 0.0
C221 C 0.0705 0.53637 0.43294 0.0
C222 C 0.54396 0.43724 0.63303 0.0
C223 C 0.47306 0.41153 0.62741 0.0
C224 C 0.57809 0.50785 0.63306 0.0
C225 C 0.54274 0.55558 0.62734 0.0
H226 H 0.57288 0.40288 0.63907 0.0
H227 H 0.63216 0.52501 0.63894 0.0
S228 S 0.35871 0.51375 0.60575 0.0
N229 N 0.37012 0.43863 0.61193 0.0
N230 N 0.43417 0.57132 0.6119 0.0
C231 C 0.47274 0.53025 0.6193 0.0
C232 C 0.43794 0.45828 0.61939 0.0
C233 C 0.50865 0.91495 0.93629 0.0
C234 C 0.57388 0.96436 0.93666 0.0
C235 C 0.44895 0.93438 0.93625 0.0
C236 C 0.45219 0.00385 0.93731 0.0
H237 H 0.50358 0.86103 0.93399 0.0
H238 H 0.39994 0.89472 0.93413 0.0
S239 S 0.61047 0.15259 0.94306 0.0
N240 N 0.63822 0.08535 0.94115 0.0
N241 N 0.52602 0.12182 0.94191 0.0
C242 C 0.51697 0.05347 0.94019 0.0
C243 C 0.57783 0.03374 0.9396 0.0
C244 C 0.93697 0.47553 0.13156 0.0
C245 C 0.98708 0.54033 0.13146 0.0
C246 C 0.95548 0.41532 0.1321 0.0
C247 C 0.02473 0.41767 0.13187 0.0
H248 H 0.88311 0.47119 0.13316 0.0
H249 H 0.91518 0.36662 0.13382 0.0
S250 S 0.17528 0.57472 0.12716 0.0
N251 N 0.1086 0.60342 0.12815 0.0
N252 N 0.14346 0.49033 0.12837 0.0
C253 C 0.0752 0.4821 0.12938 0.0
C254 C 0.05634 0.54343 0.12942 0.0
C255 C 0.45689 0.51588 0.43549 0.0
C256 C 0.43041 0.4442 0.43838 0.0
C257 C 0.52757 0.54926 0.4355 0.0
C258 C 0.57469 0.51239 0.43856 0.0
H259 H 0.42304 0.5464 0.43159 0.0
H260 H 0.54522 0.60423 0.43177 0.0
S261 S 0.5311 0.3248 0.45245 0.0
N262 N 0.45631 0.33811 0.44845 0.0
N263 N 0.58929 0.40079 0.44859 0.0
C264 C 0.54873 0.44116 0.44393 0.0
C265 C 0.4766 0.4071 0.44377 0.0
C266 C 0.43991 0.98057 0.62753 0.0
C267 C 0.48933 0.04578 0.62798 0.0
C268 C 0.4593 0.92083 0.6282 0.0
C269 C 0.5288 0.92408 0.62865 0.0
H270 H 0.38585 0.97553 0.62874 0.0
H271 H 0.41944 0.87178 0.62958 0.0
S272 S 0.67796 0.08257 0.62544 0.0
N273 N 0.61059 0.11024 0.62584 0.0
N274 N 0.64712 -0.0019 0.62625 0.0
C275 C 0.57867 -0.01104 0.6266 0.0
C276 C 0.5589 0.04979 0.62653 0.0
C277 C 0.96257 0.01001 0.93821 0.0
C278 C 0.93702 0.9381 0.93679 0.0
C279 C 0.03305 0.04422 0.93839 0.0
C280 C 0.08111 0.00804 0.93727 0.0
H281 H 0.92805 0.04056 0.93773 0.0
H282 H 0.04976 0.09973 0.9382 0.0
S283 S 0.0407 0.81872 0.93864 0.0
N284 N 0.96519 0.83138 0.93814 0.0
N285 N 0.09787 0.89578 0.93847 0.0
C286 C 0.05631 0.93595 0.93819 0.0
C287 C 0.98428 0.901 0.93791 0.0
loop_
_geom_bond_atom_site_label_1
_geom_bond_atom_site_label_2
_geom_bond_distance
_geom_bond_site_symmetry_2
_ccdc_geom_bond_type
O0 Cd1 2.223 . S
O0 C8 1.315 . S
Cd1 O0 2.223 . S
Cd1 O4 2.297 . S
Cd1 O5 2.439 . S
Cd1 O11 2.240 . S
Cd2 O3 2.240 . S
Cd2 O10 2.223 . S
Cd2 O12 2.297 . S
Cd2 O13 2.439 . S
O3 Cd2 2.240 . S
O3 C8 1.279 . S
O4 Cd1 2.297 . S
O4 C6 1.247 . S
O5 Cd1 2.439 . S
O5 C6 1.208 . S
C6 O4 1.247 . S
C6 O5 1.208 . S
C7 O12 1.247 . S
C7 O13 1.208 . S
C8 O0 1.315 . S
C8 O3 1.279 . S
C9 O10 1.315 . S
C9 O11 1.279 . S
O10 Cd2 2.223 . S
O10 C9 1.315 . S
O11 Cd1 2.240 . S
O11 C9 1.279 . S
O12 Cd2 2.297 . S
O12 C7 1.247 . S
O13 Cd2 2.439 . S
O13 C7 1.208 . S
O14 Cd15 2.223 . S
O14 C22 1.315 . S
Cd15 O14 2.223 . S
Cd15 O18 2.297 . S
Cd15 O19 2.439 . S
Cd15 O25 2.240 . S
Cd16 O17 2.240 . S
Cd16 O24 2.223 . S
Cd16 O26 2.297 . S
Cd16 O27 2.439 . S
O17 Cd16 2.240 . S
O17 C22 1.279 . S
O18 Cd15 2.297 . S
O18 C20 1.247 . S
O19 Cd15 2.439 . S
O19 C20 1.208 . S
C20 O18 1.247 . S
C20 O19 1.208 . S
C21 O26 1.247 . S
C21 O27 1.208 . S
C22 O14 1.315 . S
C22 O17 1.279 . S
C23 O24 1.315 . S
C23 O25 1.279 . S
O24 Cd16 2.223 . S
O24 C23 1.315 . S
O25 Cd15 2.240 . S
O25 C23 1.279 . S
O26 Cd16 2.297 . S
O26 C21 1.247 . S
O27 Cd16 2.439 . S
O27 C21 1.208 . S
O28 Cd29 2.223 . S
O28 C36 1.315 . S
Cd29 O28 2.223 . S
Cd29 O32 2.297 . S
Cd29 O33 2.439 . S
Cd29 O39 2.240 . S
Cd30 O31 2.240 . S
Cd30 O38 2.223 . S
Cd30 O40 2.297 . S
Cd30 O41 2.439 . S
O31 Cd30 2.240 . S
O31 C36 1.279 . S
O32 Cd29 2.297 . S
O32 C34 1.247 . S
O33 Cd29 2.439 . S
O33 C34 1.208 . S
C34 O32 1.247 . S
C34 O33 1.208 . S
C35 O40 1.247 . S
C35 O41 1.208 . S
C36 O28 1.315 . S
C36 O31 1.279 . S
C37 O38 1.315 . S
C37 O39 1.279 . S
O38 Cd30 2.223 . S
O38 C37 1.315 . S
O39 Cd29 2.240 . S
O39 C37 1.279 . S
O40 Cd30 2.297 . S
O40 C35 1.247 . S
O41 Cd30 2.439 . S
O41 C35 1.208 . S
O42 Cd43 2.223 . S
O42 C50 1.315 . S
Cd43 O42 2.223 . S
Cd43 O46 2.297 . S
Cd43 O47 2.439 . S
Cd43 O53 2.240 . S
Cd44 O45 2.240 . S
Cd44 O52 2.223 . S
Cd44 O54 2.297 . S
Cd44 O55 2.439 . S
O45 Cd44 2.240 . S
O45 C50 1.279 . S
O46 Cd43 2.297 . S
O46 C48 1.247 . S
O47 Cd43 2.439 . S
O47 C48 1.208 . S
C48 O46 1.247 . S
C48 O47 1.208 . S
C49 O54 1.247 . S
C49 O55 1.208 . S
C50 O42 1.315 . S
C50 O45 1.279 . S
C51 O52 1.315 . S
C51 O53 1.279 . S
O52 Cd44 2.223 . S
O52 C51 1.315 . S
O53 Cd43 2.240 . S
O53 C51 1.279 . S
O54 Cd44 2.297 . S
O54 C49 1.247 . S
O55 Cd44 2.439 . S
O55 C49 1.208 . S
O56 Cd57 2.223 . S
O56 C64 1.315 . S
Cd57 O56 2.223 . S
Cd57 O60 2.297 . S
Cd57 O61 2.439 . S
Cd57 O67 2.240 . S
Cd58 O59 2.240 . S
Cd58 O66 2.223 . S
Cd58 O68 2.297 . S
Cd58 O69 2.439 . S
O59 Cd58 2.240 . S
O59 C64 1.279 . S
O60 Cd57 2.297 . S
O60 C62 1.247 . S
O61 Cd57 2.439 . S
O61 C62 1.208 . S
C62 O60 1.247 . S
C62 O61 1.208 . S
C63 O68 1.247 . S
C63 O69 1.208 . S
C64 O56 1.315 . S
C64 O59 1.279 . S
C65 O66 1.315 . S
C65 O67 1.279 . S
O66 Cd58 2.223 . S
O66 C65 1.315 . S
O67 Cd57 2.240 . S
O67 C65 1.279 . S
O68 Cd58 2.297 . S
O68 C63 1.247 . S
O69 Cd58 2.439 . S
O69 C63 1.208 . S
O70 Cd71 2.223 . S
O70 C78 1.315 . S
Cd71 O70 2.223 . S
Cd71 O74 2.297 . S
Cd71 O75 2.439 . S
Cd71 O81 2.240 . S
Cd72 O73 2.240 . S
Cd72 O80 2.223 . S
Cd72 O82 2.297 . S
Cd72 O83 2.439 . S
O73 Cd72 2.240 . S
O73 C78 1.279 . S
O74 Cd71 2.297 . S
O74 C76 1.247 . S
O75 Cd71 2.439 . S
O75 C76 1.208 . S
C76 O74 1.247 . S
C76 O75 1.208 . S
C77 O82 1.247 . S
C77 O83 1.208 . S
C78 O70 1.315 . S
C78 O73 1.279 . S
C79 O80 1.315 . S
C79 O81 1.279 . S
O80 Cd72 2.223 . S
O80 C79 1.315 . S
O81 Cd71 2.240 . S
O81 C79 1.279 . S
O82 Cd72 2.297 . S
O82 C77 1.247 . S
O83 Cd72 2.439 . S
O83 C77 1.208 . S
O84 Cd85 2.223 . S
O84 C92 1.315 . S
Cd85 O84 2.223 . S
Cd85 O88 2.297 . S
Cd85 O89 2.439 . S
Cd85 O95 2.240 . S
Cd86 O87 2.240 . S
Cd86 O94 2.223 . S
Cd86 O96 2.297 . S
Cd86 O97 2.439 . S
O87 Cd86 2.240 . S
O87 C92 1.279 . S
O88 Cd85 2.297 . S
O88 C90 1.247 . S
O89 Cd85 2.439 . S
O89 C90 1.208 . S
C90 O88 1.247 . S
C90 O89 1.208 . S
C91 O96 1.247 . S
C91 O97 1.208 . S
C92 O84 1.315 . S
C92 O87 1.279 . S
C93 O94 1.315 . S
C93 O95 1.279 . S
O94 Cd86 2.223 . S
O94 C93 1.315 . S
O95 Cd85 2.240 . S
O95 C93 1.279 . S
O96 Cd86 2.297 . S
O96 C91 1.247 . S
O97 Cd86 2.439 . S
O97 C91 1.208 . S
O98 Cd99 2.223 . S
O98 C106 1.315 . S
Cd99 O98 2.223 . S
Cd99 O102 2.297 . S
Cd99 O103 2.439 . S
Cd99 O109 2.240 . S
Cd100 O101 2.240 . S
Cd100 O108 2.223 . S
Cd100 O110 2.297 . S
Cd100 O111 2.439 . S
O101 Cd100 2.240 . S
O101 C106 1.279 . S
O102 Cd99 2.297 . S
O102 C104 1.247 . S
O103 Cd99 2.439 . S
O103 C104 1.208 . S
C104 O102 1.247 . S
C104 O103 1.208 . S
C105 O110 1.247 . S
C105 O111 1.208 . S
C106 O98 1.315 . S
C106 O101 1.279 . S
C107 O108 1.315 . S
C107 O109 1.279 . S
O108 Cd100 2.223 . S
O108 C107 1.315 . S
O109 Cd99 2.240 . S
O109 C107 1.279 . S
O110 Cd100 2.297 . S
O110 C105 1.247 . S
O111 Cd100 2.439 . S
O111 C105 1.208 . S
C112 C113 1.369 . S
C112 C114 1.419 1_554 S
C112 H116 0.930 . S
C113 C112 1.369 . S
C113 C122 1.429 . S
C114 C112 1.419 1_556 S
C114 C115 1.363 . S
C114 H117 0.929 . S
C115 C114 1.363 . S
C115 C121 1.428 . S
H116 C112 0.930 . S
H117 C114 0.929 . S
S118 N119 1.613 1_556 S
S118 N120 1.610 . S
N119 S118 1.613 1_554 S
N119 C122 1.350 . S
N120 S118 1.610 . S
N120 C121 1.351 . S
C121 C115 1.428 . S
C121 N120 1.351 . S
C121 C122 1.434 1_556 S
C122 C113 1.429 . S
C122 N119 1.350 . S
C122 C121 1.434 1_554 S
C123 C124 1.369 . S
C123 C125 1.419 . S
C123 H127 0.930 . S
C124 C123 1.369 . S
C124 C133 1.429 . S
C125 C123 1.419 . S
C125 C126 1.363 . S
C125 H128 0.929 . S
C126 C125 1.363 . S
C126 C132 1.428 . S
H127 C123 0.930 . S
H128 C125 0.929 . S
S129 N130 1.613 . S
S129 N131 1.610 . S
N130 S129 1.613 . S
N130 C133 1.350 . S
N131 S129 1.610 . S
N131 C132 1.351 . S
C132 C126 1.428 . S
C132 N131 1.351 . S
C132 C133 1.434 . S
C133 C124 1.429 . S
C133 N130 1.350 . S
C133 C132 1.434 . S
C134 C135 1.369 . S
C134 C136 1.419 . S
C134 H138 0.930 . S
C135 C134 1.369 . S
C135 C144 1.429 . S
C136 C134 1.419 . S
C136 C137 1.363 . S
C136 H139 0.929 . S
C137 C136 1.363 . S
C137 C143 1.428 . S
H138 C134 0.930 . S
H139 C136 0.929 . S
S140 N141 1.613 . S
S140 N142 1.610 . S
N141 S140 1.613 . S
N141 C144 1.350 . S
N142 S140 1.610 . S
N142 C143 1.351 . S
C143 C137 1.428 . S
C143 N142 1.351 . S
C143 C144 1.434 . S
C144 C135 1.429 . S
C144 N141 1.350 . S
C144 C143 1.434 . S
C145 C146 1.369 . S
C145 C147 1.419 . S
C145 H149 0.930 . S
C146 C145 1.369 . S
C146 C155 1.429 . S
C147 C145 1.419 . S
C147 C148 1.363 . S
C147 H150 0.929 . S
C148 C147 1.363 . S
C148 C154 1.428 . S
H149 C145 0.930 . S
H150 C147 0.929 . S
S151 N152 1.613 . S
S151 N153 1.610 . S
N152 S151 1.613 . S
N152 C155 1.350 . S
N153 S151 1.610 . S
N153 C154 1.351 . S
C154 C148 1.428 . S
C154 N153 1.351 . S
C154 C155 1.434 . S
C155 C146 1.429 . S
C155 N152 1.350 . S
C155 C154 1.434 . S
C156 C157 1.369 . S
C156 C158 1.419 . S
C156 H160 0.930 . S
C157 C156 1.369 . S
C157 C166 1.429 . S
C158 C156 1.419 . S
C158 C159 1.363 . S
C158 H161 0.929 . S
C159 C158 1.363 . S
C159 C165 1.428 . S
H160 C156 0.930 . S
H161 C158 0.929 . S
S162 N163 1.613 . S
S162 N164 1.610 . S
N163 S162 1.613 . S
N163 C166 1.350 . S
N164 S162 1.610 . S
N164 C165 1.351 . S
C165 C159 1.428 . S
C165 N164 1.351 . S
C165 C166 1.434 . S
C166 C157 1.429 . S
C166 N163 1.350 . S
C166 C165 1.434 . S
C167 C168 1.369 . S
C167 C169 1.419 . S
C167 H171 0.930 . S
C168 C167 1.369 . S
C168 C177 1.429 . S
C169 C167 1.419 . S
C169 C170 1.363 . S
C169 H172 0.929 . S
C170 C169 1.363 . S
C170 C176 1.428 . S
H171 C167 0.930 . S
H172 C169 0.929 . S
S173 N174 1.613 . S
S173 N175 1.610 . S
N174 S173 1.613 . S
N174 C177 1.350 . S
N175 S173 1.610 . S
N175 C176 1.351 . S
C176 C170 1.428 . S
C176 N175 1.351 . S
C176 C177 1.434 . S
C177 C168 1.429 . S
C177 N174 1.350 . S
C177 C176 1.434 . S
C178 C179 1.369 . S
C178 C180 1.419 . S
C178 H182 0.930 . S
C179 C178 1.369 . S
C179 C188 1.429 . S
C180 C178 1.419 . S
C180 C181 1.363 . S
C180 H183 0.929 . S
C181 C180 1.363 . S
C181 C187 1.428 . S
H182 C178 0.930 . S
H183 C180 0.929 . S
S184 N185 1.613 . S
S184 N186 1.610 . S
N185 S184 1.613 . S
N185 C188 1.350 . S
N186 S184 1.610 . S
N186 C187 1.351 . S
C187 C181 1.428 . S
C187 N186 1.351 . S
C187 C188 1.434 . S
C188 C179 1.429 . S
C188 N185 1.350 . S
C188 C187 1.434 . S
C189 C190 1.369 . S
C189 C191 1.419 1_554 S
C189 H193 0.930 . S
C190 C189 1.369 . S
C190 C199 1.429 . S
C191 C189 1.419 1_556 S
C191 C192 1.363 . S
C191 H194 0.929 . S
C192 C191 1.363 . S
C192 C198 1.428 . S
H193 C189 0.930 . S
H194 C191 0.929 . S
S195 N196 1.613 1_556 S
S195 N197 1.610 . S
N196 S195 1.613 1_554 S
N196 C199 1.350 . S
N197 S195 1.610 . S
N197 C198 1.351 . S
C198 C192 1.428 . S
C198 N197 1.351 . S
C198 C199 1.434 1_556 S
C199 C190 1.429 . S
C199 N196 1.350 . S
C199 C198 1.434 1_554 S
C200 C201 1.369 1_655 S
C200 C202 1.419 1_545 S
C200 H204 0.930 . S
C201 C200 1.369 1_455 S
C201 C210 1.429 . S
C202 C200 1.419 1_565 S
C202 C203 1.363 . S
C202 H205 0.929 . S
C203 C202 1.363 . S
C203 C209 1.428 1_655 S
H204 C200 0.930 . S
H205 C202 0.929 . S
S206 N207 1.613 1_565 S
S206 N208 1.610 . S
N207 S206 1.613 1_545 S
N207 C210 1.350 . S
N208 S206 1.610 . S
N208 C209 1.351 . S
C209 C203 1.428 1_455 S
C209 N208 1.351 . S
C209 C210 1.434 1_565 S
C210 C201 1.429 . S
C210 N207 1.350 . S
C210 C209 1.434 1_545 S
C211 C212 1.369 . S
C211 C213 1.419 1_455 S
C211 H215 0.930 . S
C212 C211 1.369 . S
C212 C221 1.429 . S
C213 C211 1.419 1_655 S
C213 C214 1.363 . S
C213 H216 0.929 . S
C214 C213 1.363 . S
C214 C220 1.428 . S
H215 C211 0.930 . S
H216 C213 0.929 . S
S217 N218 1.613 . S
S217 N219 1.610 1_455 S
N218 S217 1.613 . S
N218 C221 1.350 . S
N219 S217 1.610 1_655 S
N219 C220 1.351 . S
C220 C214 1.428 . S
C220 N219 1.351 . S
C220 C221 1.434 1_655 S
C221 C212 1.429 . S
C221 N218 1.350 . S
C221 C220 1.434 1_455 S
C222 C223 1.369 . S
C222 C224 1.419 . S
C222 H226 0.930 . S
C223 C222 1.369 . S
C223 C232 1.429 . S
C224 C222 1.419 . S
C224 C225 1.363 . S
C224 H227 0.929 . S
C225 C224 1.363 . S
C225 C231 1.428 . S
H226 C222 0.930 . S
H227 C224 0.929 . S
S228 N229 1.613 . S
S228 N230 1.610 . S
N229 S228 1.613 . S
N229 C232 1.350 . S
N230 S228 1.610 . S
N230 C231 1.351 . S
C231 C225 1.428 . S
C231 N230 1.351 . S
C231 C232 1.434 . S
C232 C223 1.429 . S
C232 N229 1.350 . S
C232 C231 1.434 . S
C233 C234 1.369 . S
C233 C235 1.419 . S
C233 H237 0.930 . S
C234 C233 1.369 . S
C234 C243 1.429 1_565 S
C235 C233 1.419 . S
C235 C236 1.363 1_565 S
C235 H238 0.929 . S
C236 C235 1.363 1_545 S
C236 C242 1.428 . S
H237 C233 0.930 . S
H238 C235 0.929 . S
S239 N240 1.613 . S
S239 N241 1.610 . S
N240 S239 1.613 . S
N240 C243 1.350 . S
N241 S239 1.610 . S
N241 C242 1.351 . S
C242 C236 1.428 . S
C242 N241 1.351 . S
C242 C243 1.434 . S
C243 C234 1.429 1_545 S
C243 N240 1.350 . S
C243 C242 1.434 . S
C244 C245 1.369 . S
C244 C246 1.419 . S
C244 H248 0.930 . S
C245 C244 1.369 . S
C245 C254 1.429 1_655 S
C246 C244 1.419 . S
C246 C247 1.363 1_655 S
C246 H249 0.929 . S
C247 C246 1.363 1_455 S
C247 C253 1.428 . S
H248 C244 0.930 . S
H249 C246 0.929 . S
S250 N251 1.613 . S
S250 N252 1.610 . S
N251 S250 1.613 . S
N251 C254 1.350 . S
N252 S250 1.610 . S
N252 C253 1.351 . S
C253 C247 1.428 . S
C253 N252 1.351 . S
C253 C254 1.434 . S
C254 C245 1.429 1_455 S
C254 N251 1.350 . S
C254 C253 1.434 . S
C255 C256 1.369 . S
C255 C257 1.419 . S
C255 H259 0.930 . S
C256 C255 1.369 . S
C256 C265 1.429 . S
C257 C255 1.419 . S
C257 C258 1.363 . S
C257 H260 0.929 . S
C258 C257 1.363 . S
C258 C264 1.428 . S
H259 C255 0.930 . S
H260 C257 0.929 . S
S261 N262 1.613 . S
S261 N263 1.610 . S
N262 S261 1.613 . S
N262 C265 1.350 . S
N263 S261 1.610 . S
N263 C264 1.351 . S
C264 C258 1.428 . S
C264 N263 1.351 . S
C264 C265 1.434 . S
C265 C256 1.429 . S
C265 N262 1.350 . S
C265 C264 1.434 . S
C266 C267 1.369 1_565 S
C266 C268 1.419 . S
C266 H270 0.930 . S
C267 C266 1.369 1_545 S
C267 C276 1.429 . S
C268 C266 1.419 . S
C268 C269 1.363 . S
C268 H271 0.929 . S
C269 C268 1.363 . S
C269 C275 1.428 1_565 S
H270 C266 0.930 . S
H271 C268 0.929 . S
S272 N273 1.613 . S
S272 N274 1.610 . S
N273 S272 1.613 . S
N273 C276 1.350 . S
N274 S272 1.610 . S
N274 C275 1.351 . S
C275 C269 1.428 1_545 S
C275 N274 1.351 . S
C275 C276 1.434 . S
C276 C267 1.429 . S
C276 N273 1.350 . S
C276 C275 1.434 . S
C277 C278 1.369 1_545 S
C277 C279 1.419 1_655 S
C277 H281 0.930 . S
C278 C277 1.369 1_565 S
C278 C287 1.429 . S
C279 C277 1.419 1_455 S
C279 C280 1.363 . S
C279 H282 0.929 . S
C280 C279 1.363 . S
C280 C286 1.428 1_545 S
H281 C277 0.930 . S
H282 C279 0.929 . S
S283 N284 1.613 1_455 S
S283 N285 1.610 . S
N284 S283 1.613 1_655 S
N284 C287 1.350 . S
N285 S283 1.610 . S
N285 C286 1.351 . S
C286 C280 1.428 1_565 S
C286 N285 1.351 . S
C286 C287 1.434 1_455 S
C287 C278 1.429 . S
C287 N284 1.350 . S
C287 C286 1.434 1_655 S
C113 C6 1.449 . S
C115 C76 1.447 . S
C124 C23 1.283 . S
C126 C93 1.290 . S
C135 C34 1.446 . S
C137 C104 1.449 . S
C146 C51 1.293 . S
C148 C65 1.288 . S
C157 C107 1.293 . S
C159 C9 1.286 . S
C168 C62 1.446 . S
C170 C20 1.446 . S
C179 C37 1.291 . S
C181 C79 1.291 . S
C190 C90 1.446 . S
C192 C48 1.447 . S
C201 C8 1.594 . S
C203 C92 1.595 . S
C212 C105 1.572 . S
C214 C21 1.576 . S
C223 C36 1.596 . S
C225 C64 1.596 . S
C234 C49 1.574 . S
C236 C77 1.579 . S
C245 C91 1.574 . S
C247 C7 1.579 . S
C256 C106 1.592 . S
C258 C22 1.592 . S
C267 C35 1.570 . S
C269 C63 1.578 . S
C278 C50 1.592 . S
C280 C78 1.592 . S
