# Generated by pormake.
# Topology wgp, (5)-cn, num edge types: 1
# Building blocks:
#     Node 0, Type 0, BuildingBlock: XOMCOT_clean_sbu_0, # of connection points: 5
#     Node 1, Type 0, BuildingBlock: XOMCOT_clean_sbu_0, # of connection points: 5
#     Node 2, Type 0, BuildingBlock: XOMCOT_clean_sbu_0, # of connection points: 5
#     Node 3, Type 0, BuildingBlock: XOMCOT_clean_sbu_0, # of connection points: 5
#     Node 4, Type 0, BuildingBlock: XOMCOT_clean_sbu_0, # of connection points: 5
#     Node 5, Type 0, BuildingBlock: XOMCOT_clean_sbu_0, # of connection points: 5
#     Node 6, Type 0, BuildingBlock: XOMCOT_clean_sbu_0, # of connection points: 5
#     Node 7, Type 0, BuildingBlock: XOMCOT_clean_sbu_0, # of connection points: 5
#     Node 8, Type 0, BuildingBlock: XOMCOT_clean_sbu_0, # of connection points: 5
#     Node 9, Type 0, BuildingBlock: XOMCOT_clean_sbu_0, # of connection points: 5
#     Node 10, Type 0, BuildingBlock: XOMCOT_clean_sbu_0, # of connection points: 5
#     Node 11, Type 0, BuildingBlock: XOMCOT_clean_sbu_0, # of connection points: 5
#     Node 12, Type 0, BuildingBlock: XOMCOT_clean_sbu_0, # of connection points: 5
#     Node 13, Type 0, BuildingBlock: XOMCOT_clean_sbu_0, # of connection points: 5
#     Node 14, Type 0, BuildingBlock: XOMCOT_clean_sbu_0, # of connection points: 5
#     Node 15, Type 0, BuildingBlock: XOMCOT_clean_sbu_0, # of connection points: 5
#     Node 16, Type 0, BuildingBlock: XOMCOT_clean_sbu_0, # of connection points: 5
#     Node 17, Type 0, BuildingBlock: XOMCOT_clean_sbu_0, # of connection points: 5
#     Node 18, Type 0, BuildingBlock: XOMCOT_clean_sbu_0, # of connection points: 5
#     Node 19, Type 0, BuildingBlock: XOMCOT_clean_sbu_0, # of connection points: 5
#     Node 20, Type 0, BuildingBlock: XOMCOT_clean_sbu_0, # of connection points: 5
#     Node 21, Type 0, BuildingBlock: XOMCOT_clean_sbu_0, # of connection points: 5
#     Node 22, Type 0, BuildingBlock: XOMCOT_clean_sbu_0, # of connection points: 5
#     Node 23, Type 0, BuildingBlock: XOMCOT_clean_sbu_0, # of connection points: 5
#     Node 24, Type 0, BuildingBlock: XOMCOT_clean_sbu_0, # of connection points: 5
#     Node 25, Type 0, BuildingBlock: XOMCOT_clean_sbu_0, # of connection points: 5
#     Node 26, Type 0, BuildingBlock: XOMCOT_clean_sbu_0, # of connection points: 5
#     Node 27, Type 0, BuildingBlock: XOMCOT_clean_sbu_0, # of connection points: 5
#     Node 28, Type 0, BuildingBlock: XOMCOT_clean_sbu_0, # of connection points: 5
#     Node 29, Type 0, BuildingBlock: XOMCOT_clean_sbu_0, # of connection points: 5
#     Node 30, Type 0, BuildingBlock: XOMCOT_clean_sbu_0, # of connection points: 5
#     Node 31, Type 0, BuildingBlock: XOMCOT_clean_sbu_0, # of connection points: 5
#     Edge 32, Type (0, 0), BuildingBlock: AJUNOK_clean_linker_0, # of connection points: 2
#     Edge 33, Type (0, 0), BuildingBlock: AJUNOK_clean_linker_0, # of connection points: 2
#     Edge 34, Type (0, 0), BuildingBlock: AJUNOK_clean_linker_0, # of connection points: 2
#     Edge 35, Type (0, 0), BuildingBlock: AJUNOK_clean_linker_0, # of connection points: 2
#     Edge 36, Type (0, 0), BuildingBlock: AJUNOK_clean_linker_0, # of connection points: 2
#     Edge 37, Type (0, 0), BuildingBlock: AJUNOK_clean_linker_0, # of connection points: 2
#     Edge 38, Type (0, 0), BuildingBlock: AJUNOK_clean_linker_0, # of connection points: 2
#     Edge 39, Type (0, 0), BuildingBlock: AJUNOK_clean_linker_0, # of connection points: 2
#     Edge 40, Type (0, 0), BuildingBlock: AJUNOK_clean_linker_0, # of connection points: 2
#     Edge 41, Type (0, 0), BuildingBlock: AJUNOK_clean_linker_0, # of connection points: 2
#     Edge 42, Type (0, 0), BuildingBlock: AJUNOK_clean_linker_0, # of connection points: 2
#     Edge 43, Type (0, 0), BuildingBlock: AJUNOK_clean_linker_0, # of connection points: 2
#     Edge 44, Type (0, 0), BuildingBlock: AJUNOK_clean_linker_0, # of connection points: 2
#     Edge 45, Type (0, 0), BuildingBlock: AJUNOK_clean_linker_0, # of connection points: 2
#     Edge 46, Type (0, 0), BuildingBlock: AJUNOK_clean_linker_0, # of connection points: 2
#     Edge 47, Type (0, 0), BuildingBlock: AJUNOK_clean_linker_0, # of connection points: 2
#     Edge 48, Type (0, 0), BuildingBlock: AJUNOK_clean_linker_0, # of connection points: 2
#     Edge 49, Type (0, 0), BuildingBlock: AJUNOK_clean_linker_0, # of connection points: 2
#     Edge 50, Type (0, 0), BuildingBlock: AJUNOK_clean_linker_0, # of connection points: 2
#     Edge 51, Type (0, 0), BuildingBlock: AJUNOK_clean_linker_0, # of connection points: 2
#     Edge 52, Type (0, 0), BuildingBlock: AJUNOK_clean_linker_0, # of connection points: 2
#     Edge 53, Type (0, 0), BuildingBlock: AJUNOK_clean_linker_0, # of connection points: 2
#     Edge 54, Type (0, 0), BuildingBlock: AJUNOK_clean_linker_0, # of connection points: 2
#     Edge 55, Type (0, 0), BuildingBlock: AJUNOK_clean_linker_0, # of connection points: 2
#     Edge 56, Type (0, 0), BuildingBlock: AJUNOK_clean_linker_0, # of connection points: 2
#     Edge 57, Type (0, 0), BuildingBlock: AJUNOK_clean_linker_0, # of connection points: 2
#     Edge 58, Type (0, 0), BuildingBlock: AJUNOK_clean_linker_0, # of connection points: 2
#     Edge 59, Type (0, 0), BuildingBlock: AJUNOK_clean_linker_0, # of connection points: 2
#     Edge 60, Type (0, 0), BuildingBlock: AJUNOK_clean_linker_0, # of connection points: 2
#     Edge 61, Type (0, 0), BuildingBlock: AJUNOK_clean_linker_0, # of connection points: 2
#     Edge 62, Type (0, 0), BuildingBlock: AJUNOK_clean_linker_0, # of connection points: 2
#     Edge 63, Type (0, 0), BuildingBlock: AJUNOK_clean_linker_0, # of connection points: 2
#     Edge 64, Type (0, 0), BuildingBlock: AJUNOK_clean_linker_0, # of connection points: 2
#     Edge 65, Type (0, 0), BuildingBlock: AJUNOK_clean_linker_0, # of connection points: 2
#     Edge 66, Type (0, 0), BuildingBlock: AJUNOK_clean_linker_0, # of connection points: 2
#     Edge 67, Type (0, 0), BuildingBlock: AJUNOK_clean_linker_0, # of connection points: 2
#     Edge 68, Type (0, 0), BuildingBlock: AJUNOK_clean_linker_0, # of connection points: 2
#     Edge 69, Type (0, 0), BuildingBlock: AJUNOK_clean_linker_0, # of connection points: 2
#     Edge 70, Type (0, 0), BuildingBlock: AJUNOK_clean_linker_0, # of connection points: 2
#     Edge 71, Type (0, 0), BuildingBlock: AJUNOK_clean_linker_0, # of connection points: 2
#     Edge 72, Type (0, 0), BuildingBlock: AJUNOK_clean_linker_0, # of connection points: 2
#     Edge 73, Type (0, 0), BuildingBlock: AJUNOK_clean_linker_0, # of connection points: 2
#     Edge 74, Type (0, 0), BuildingBlock: AJUNOK_clean_linker_0, # of connection points: 2
#     Edge 75, Type (0, 0), BuildingBlock: AJUNOK_clean_linker_0, # of connection points: 2
#     Edge 76, Type (0, 0), BuildingBlock: AJUNOK_clean_linker_0, # of connection points: 2
#     Edge 77, Type (0, 0), BuildingBlock: AJUNOK_clean_linker_0, # of connection points: 2
#     Edge 78, Type (0, 0), BuildingBlock: AJUNOK_clean_linker_0, # of connection points: 2
#     Edge 79, Type (0, 0), BuildingBlock: AJUNOK_clean_linker_0, # of connection points: 2
#     Edge 80, Type (0, 0), BuildingBlock: AJUNOK_clean_linker_0, # of connection points: 2
#     Edge 81, Type (0, 0), BuildingBlock: AJUNOK_clean_linker_0, # of connection points: 2
#     Edge 82, Type (0, 0), BuildingBlock: AJUNOK_clean_linker_0, # of connection points: 2
#     Edge 83, Type (0, 0), BuildingBlock: AJUNOK_clean_linker_0, # of connection points: 2
#     Edge 84, Type (0, 0), BuildingBlock: AJUNOK_clean_linker_0, # of connection points: 2
#     Edge 85, Type (0, 0), BuildingBlock: AJUNOK_clean_linker_0, # of connection points: 2
#     Edge 86, Type (0, 0), BuildingBlock: AJUNOK_clean_linker_0, # of connection points: 2
#     Edge 87, Type (0, 0), BuildingBlock: AJUNOK_clean_linker_0, # of connection points: 2
#     Edge 88, Type (0, 0), BuildingBlock: AJUNOK_clean_linker_0, # of connection points: 2
#     Edge 89, Type (0, 0), BuildingBlock: AJUNOK_clean_linker_0, # of connection points: 2
#     Edge 90, Type (0, 0), BuildingBlock: AJUNOK_clean_linker_0, # of connection points: 2
#     Edge 91, Type (0, 0), BuildingBlock: AJUNOK_clean_linker_0, # of connection points: 2
#     Edge 92, Type (0, 0), BuildingBlock: AJUNOK_clean_linker_0, # of connection points: 2
#     Edge 93, Type (0, 0), BuildingBlock: AJUNOK_clean_linker_0, # of connection points: 2
#     Edge 94, Type (0, 0), BuildingBlock: AJUNOK_clean_linker_0, # of connection points: 2
#     Edge 95, Type (0, 0), BuildingBlock: AJUNOK_clean_linker_0, # of connection points: 2
#     Edge 96, Type (0, 0), BuildingBlock: AJUNOK_clean_linker_0, # of connection points: 2
#     Edge 97, Type (0, 0), BuildingBlock: AJUNOK_clean_linker_0, # of connection points: 2
#     Edge 98, Type (0, 0), BuildingBlock: AJUNOK_clean_linker_0, # of connection points: 2
#     Edge 99, Type (0, 0), BuildingBlock: AJUNOK_clean_linker_0, # of connection points: 2
#     Edge 100, Type (0, 0), BuildingBlock: AJUNOK_clean_linker_0, # of connection points: 2
#     Edge 101, Type (0, 0), BuildingBlock: AJUNOK_clean_linker_0, # of connection points: 2
#     Edge 102, Type (0, 0), BuildingBlock: AJUNOK_clean_linker_0, # of connection points: 2
#     Edge 103, Type (0, 0), BuildingBlock: AJUNOK_clean_linker_0, # of connection points: 2
#     Edge 104, Type (0, 0), BuildingBlock: AJUNOK_clean_linker_0, # of connection points: 2
#     Edge 105, Type (0, 0), BuildingBlock: AJUNOK_clean_linker_0, # of connection points: 2
#     Edge 106, Type (0, 0), BuildingBlock: AJUNOK_clean_linker_0, # of connection points: 2
#     Edge 107, Type (0, 0), BuildingBlock: AJUNOK_clean_linker_0, # of connection points: 2
#     Edge 108, Type (0, 0), BuildingBlock: AJUNOK_clean_linker_0, # of connection points: 2
#     Edge 109, Type (0, 0), BuildingBlock: AJUNOK_clean_linker_0, # of connection points: 2
#     Edge 110, Type (0, 0), BuildingBlock: AJUNOK_clean_linker_0, # of connection points: 2
#     Edge 111, Type (0, 0), BuildingBlock: AJUNOK_clean_linker_0, # of connection points: 2
# Relax obj value: 0.169
# Max RMSD: 0.189
# Mean RMSD: 0.188
data_MOF--net-wgp--node1-XOMCOT_clean_sbu_0--edge1-AJUNOK_clean_linker_0
_symmetry_space_group_name_H-M    P1
_symmetry_Int_Tables_number       1
_symmetry_cell_setting            triclinic
loop_
_symmetry_equiv_pos_as_xyz
'x, y, z'
_cell_length_a     25.935296
_cell_length_b     26.022301
_cell_length_c     87.969846
_cell_angle_alpha  89.895592
_cell_angle_beta   89.739689
_cell_angle_gamma 89.917151
loop_
_atom_site_label
_atom_site_type_symbol
_atom_site_fract_x
_atom_site_fract_y
_atom_site_fract_z
_atom_type_partial_charge
Co0 Co 0.31349 0.17251 0.09711 0.0
C1 C 0.33042 0.06283 0.09128 0.0
C2 C 0.39031 0.0941 0.10507 0.0
C3 C 0.39389 0.04127 0.10547 0.0
N4 N 0.35036 0.10767 0.09614 0.0
N5 N 0.35524 0.02182 0.0971 0.0
H6 H 0.29455 0.05968 0.08525 0.0
H7 H 0.41178 0.12041 0.11213 0.0
C8 C 0.42204 0.19809 0.08847 0.0
O9 O 0.41748 0.15952 0.07895 0.0
N10 N 0.27442 0.23624 0.09833 0.0
C11 C 0.22271 0.23903 0.10034 0.0
C12 C 0.20654 0.28827 0.09786 0.0
C13 C 0.28893 0.2847 0.09468 0.0
N14 N 0.24789 0.31676 0.09425 0.0
C15 C 0.26791 0.14468 0.06868 0.0
C16 C 0.3208 0.21312 0.05044 0.0
C17 C 0.28412 0.18076 0.04375 0.0
C18 C 0.25718 0.14666 0.05318 0.0
C19 C 0.32907 0.21108 0.06611 0.0
N20 N 0.30497 0.17511 0.075 0.0
H21 H 0.2447 0.11952 0.07559 0.0
H22 H 0.35442 0.23928 0.07096 0.0
H23 H 0.19714 0.20733 0.10272 0.0
H24 H 0.32779 0.29579 0.09161 0.0
O25 O 0.25169 0.13416 0.10214 0.0
O26 O 0.30695 0.1629 0.11908 0.0
O27 O 0.38263 0.21139 0.09651 0.0
C28 C 0.26465 0.13758 0.1163 0.0
H29 H 0.41909 0.01914 0.11274 0.0
H30 H 0.1671 0.30198 0.0982 0.0
H31 H 0.34301 0.24004 0.0437 0.0
H32 H 0.22709 0.12224 0.0487 0.0
Co33 Co 0.12209 0.058 0.34999 0.0
C34 C 0.23326 0.0806 0.3482 0.0
C35 C 0.19527 0.12929 0.36429 0.0
C36 C 0.24792 0.13363 0.36624 0.0
N37 N 0.18599 0.09581 0.35294 0.0
N38 N 0.27161 0.10309 0.35602 0.0
H39 H 0.24011 0.04842 0.34081 0.0
H40 H 0.16596 0.14484 0.37177 0.0
C41 C 0.09512 0.17015 0.34474 0.0
O42 O 0.13972 0.17412 0.3377 0.0
N43 N 0.06016 1.01743 0.34697 0.0
C44 C 0.06175 0.96784 0.3425 0.0
C45 C 1.01305 0.95158 0.33921 0.0
C46 C 1.0097 0.03083 0.34622 0.0
N47 N 0.98027 0.99096 0.34145 0.0
C48 C 0.16386 0.02025 0.32215 0.0
C49 C 0.09758 0.0701 0.30262 0.0
C50 C 0.13192 0.03339 0.2967 0.0
C51 C 0.16508 1.00838 0.30676 0.0
C52 C 0.09729 0.08069 0.31827 0.0
N53 N 0.13104 0.05662 0.32788 0.0
H54 H 0.18726 0.99694 0.3295 0.0
H55 H 0.06772 0.10587 0.32263 0.0
H56 H 0.09632 0.94519 0.34099 0.0
H57 H 0.99516 0.06905 0.34839 0.0
O58 O 0.15929 0.99552 0.3549 0.0
O59 O 0.1201 0.04349 0.37193 0.0
O60 O 0.08059 0.1258 0.34972 0.0
C61 C 0.1475 1.00255 0.36903 0.0
H62 H 0.26695 0.15283 0.37556 0.0
H63 H 1.00251 0.91375 0.33517 0.0
H64 H 0.07027 0.08945 0.29529 0.0
H65 H 0.19027 0.97776 0.30291 0.0
Co66 Co 0.21095 0.86402 0.60249 0.0
C67 C 0.21964 0.97134 0.59222 0.0
C68 C 0.14628 0.95525 0.60258 0.0
C69 C 0.15156 1.00765 0.60128 0.0
N70 N 0.18915 0.93252 0.59705 0.0
N71 N 0.19782 1.01749 0.59492 0.0
H72 H 0.25906 0.96628 0.5884 0.0
H73 H 0.11568 0.93554 0.6086 0.0
C74 C 0.11915 0.79793 0.59622 0.0
O75 O 0.1515 0.7667 0.58935 0.0
N76 N 0.23114 0.79539 0.60913 0.0
C77 C 0.21097 0.77445 0.62187 0.0
C78 C 0.2303 0.72586 0.62381 0.0
C79 C 0.26308 0.75868 0.60348 0.0
N80 N 0.26322 0.71603 0.61231 0.0
C81 C 0.2721 0.84238 0.57614 0.0
C82 C 0.19594 0.85925 0.55485 0.0
C83 C 0.24662 0.85062 0.54988 0.0
C84 C 0.28476 0.84146 0.5607 0.0
C85 C 0.18463 0.85867 0.57047 0.0
N86 N 0.22239 0.84943 0.58095 0.0
H87 H 0.30303 0.83964 0.58426 0.0
H88 H 0.14607 0.86857 0.57414 0.0
H89 H 0.18286 0.79302 0.62914 0.0
H90 H 0.28409 0.76132 0.59293 0.0
O91 O 0.27897 0.89019 0.60687 0.0
O92 O 0.21488 0.88697 0.62356 0.0
O93 O 0.13608 0.83981 0.60201 0.0
C94 C 0.26216 0.90039 0.62041 0.0
H95 H 0.12514 0.03641 0.60562 0.0
H96 H 0.22028 0.69937 0.63283 0.0
H97 H 0.16571 0.86775 0.54677 0.0
H98 H 0.32459 0.83615 0.55727 0.0
Co99 Co 0.43712 0.9839 0.8477 0.0
C100 C 0.32538 0.96544 0.85105 0.0
C101 C 0.36901 0.909 0.86307 0.0
C102 C 0.31777 0.90409 0.86717 0.0
N103 N 0.37382 0.94691 0.85263 0.0
N104 N 0.29055 0.94001 0.85961 0.0
H105 H 0.31579 0.99979 0.84488 0.0
H106 H 0.4009 0.88919 0.86838 0.0
C107 C 0.4672 0.87341 0.84349 0.0
O108 O 0.42641 0.8704 0.83474 0.0
N109 N 0.49857 0.02315 0.84328 0.0
C110 C 0.49878 0.06428 0.83395 0.0
C111 C 0.54768 0.08371 0.83318 0.0
C112 C 0.54752 0.01841 0.84832 0.0
N113 N 0.57829 0.05512 0.84218 0.0
C114 C 0.38793 0.99911 0.81876 0.0
C115 C 0.47064 0.967 0.80132 0.0
C116 C 0.42957 0.99241 0.79425 0.0
C117 C 0.38717 1.00693 0.80308 0.0
C118 C 0.46932 0.95871 0.81706 0.0
N119 N 0.42855 0.97539 0.82572 0.0
H120 H 0.35801 1.01703 0.82527 0.0
H121 H 0.50325 0.94297 0.82242 0.0
H122 H 0.46547 0.07894 0.82799 0.0
H123 H 0.56043 0.98853 0.85599 0.0
O124 O 0.40004 0.04797 0.85003 0.0
O125 O 0.43894 1.00665 0.86873 0.0
O126 O 0.47875 0.9169 0.84954 0.0
C127 C 0.41086 0.04564 0.8644 0.0
H128 H 0.30255 0.87865 0.87584 0.0
H129 H 0.55997 0.11655 0.82651 0.0
H130 H 0.50437 0.95563 0.79484 0.0
H131 H 0.35528 0.02778 0.79805 0.0
Co132 Co 0.31291 0.8577 0.43243 0.0
C133 C 0.31927 0.96902 0.42884 0.0
C134 C 0.38961 0.93452 0.42116 0.0
C135 C 0.39109 0.98667 0.418 0.0
N136 N 0.34439 0.9237 0.42804 0.0
N137 N 0.34626 1.00809 0.4227 0.0
H138 H 0.28046 0.97306 0.43304 0.0
H139 H 0.41872 0.90656 0.41811 0.0
C140 C 0.39979 0.77677 0.43282 0.0
O141 O 0.36764 0.74368 0.43889 0.0
N142 N 0.2774 0.7936 0.43694 0.0
C143 C 0.24825 0.78566 0.44949 0.0
C144 C 0.22328 0.73978 0.44828 0.0
C145 C 0.26769 0.7526 0.4279 0.0
N146 N 0.23557 0.71865 0.4348 0.0
C147 C 0.28554 0.90334 0.46095 0.0
C148 C 0.3468 0.84272 0.47924 0.0
C149 C 0.30682 0.87116 0.48603 0.0
C150 C 0.27777 0.90371 0.47668 0.0
C151 C 0.35287 0.8429 0.46339 0.0
N152 N 0.3204 0.87071 0.45432 0.0
H153 H 0.25983 0.92603 0.4541 0.0
H154 H 0.38213 0.81856 0.45864 0.0
H155 H 0.24352 0.81179 0.45886 0.0
H156 H 0.28476 0.74722 0.41677 0.0
O157 O 0.2453 0.8883 0.42941 0.0
O158 O 0.29226 0.85367 0.41116 0.0
O159 O 0.385 0.82342 0.43058 0.0
C160 C 0.25076 0.87891 0.41502 0.0
H161 H 0.42277 1.00666 0.41258 0.0
H162 H 0.19743 0.72329 0.45667 0.0
H163 H 0.37218 0.81906 0.48604 0.0
H164 H 0.2468 0.92692 0.48132 0.0
Co165 Co 0.41115 0.08855 0.67819 0.0
C166 C 0.30321 0.07064 0.68732 0.0
C167 C 0.31482 0.14668 0.67864 0.0
C168 C 0.26271 0.13711 0.67924 0.0
N169 N 0.34037 0.10484 0.68356 0.0
N170 N 0.25521 0.08878 0.68438 0.0
H171 H 0.31169 0.03194 0.691 0.0
H172 H 0.33256 0.1795 0.67325 0.0
C173 C 0.47179 0.18616 0.68245 0.0
O174 O 0.50789 0.15764 0.68865 0.0
N175 N 0.48149 0.07281 0.6719 0.0
C176 C 0.50297 0.09213 0.65912 0.0
C177 C 0.55245 0.07381 0.65769 0.0
C178 C 0.51847 0.04245 0.67803 0.0
N179 N 0.56207 0.04244 0.66954 0.0
C180 C 0.43249 0.02932 0.70463 0.0
C181 C 0.42585 0.10711 0.72583 0.0
C182 C 0.4322 0.05624 0.73082 0.0
C183 C 0.43575 1.01731 0.72001 0.0
C184 C 0.42209 0.11754 0.71018 0.0
N185 N 0.42667 0.07888 0.69973 0.0
H186 H 0.43386 0.99793 0.69666 0.0
H187 H 0.41325 0.15623 0.7066 0.0
H188 H 0.48391 0.11827 0.6514 0.0
H189 H 0.51485 0.02181 0.68858 0.0
O190 O 0.39113 0.01876 0.67384 0.0
O191 O 0.38903 0.08166 0.65706 0.0
O192 O 0.42937 0.16508 0.67831 0.0
C193 C 0.38006 0.03344 0.6602 0.0
H194 H 0.23304 0.16186 0.67463 0.0
H195 H 0.57923 0.08256 0.64858 0.0
H196 H 0.4215 0.13807 0.73395 0.0
H197 H 0.44006 0.97752 0.72343 0.0
Co198 Co 0.2363 0.19467 0.92524 0.0
C199 C 0.22324 0.08461 0.91814 0.0
C200 C 0.15106 0.11857 0.92452 0.0
C201 C 0.14367 0.0667 0.92208 0.0
N202 N 0.20112 0.12981 0.92198 0.0
N203 N 0.18927 0.04563 0.91803 0.0
H204 H 0.26386 0.07933 0.91594 0.0
H205 H 0.12227 0.14539 0.92855 0.0
C206 C 0.14041 0.2505 0.91464 0.0
O207 O 0.15822 0.24993 0.90064 0.0
N208 N 0.273 0.25787 0.92879 0.0
C209 C 0.3108 0.26258 0.93915 0.0
C210 C 0.33329 0.30978 0.93755 0.0
C211 C 0.27345 0.30218 0.9208 0.0
N212 N 0.31011 0.33471 0.92601 0.0
C213 C 0.25782 0.14602 0.95356 0.0
C214 C 0.20905 0.21801 0.97172 0.0
C215 C 0.24074 0.18102 0.9786 0.0
C216 C 0.26399 0.14369 0.96931 0.0
C217 C 0.2054 0.22012 0.95593 0.0
N218 N 0.23049 0.18499 0.94704 0.0
H219 H 0.27749 0.11815 0.94652 0.0
H220 H 0.18461 0.25184 0.95095 0.0
H221 H 0.32237 0.23303 0.94709 0.0
H222 H 0.24904 0.3095 0.91109 0.0
O223 O 0.30211 0.16201 0.92202 0.0
O224 O 0.25537 0.19644 0.90374 0.0
O225 O 0.16747 0.23147 0.92535 0.0
C226 C 0.29698 0.17142 0.90763 0.0
H227 H 0.10822 0.04579 0.92403 0.0
H228 H 0.36442 0.32473 0.9444 0.0
H229 H 0.1884 0.24625 0.97842 0.0
H230 H 0.28863 0.11419 0.97407 0.0
Co231 Co 0.11366 0.96704 0.17889 0.0
C232 C 0.22519 0.95077 0.18031 0.0
C233 C 0.18983 0.89615 0.16549 0.0
C234 C 0.24272 0.89357 0.16354 0.0
N235 N 0.17897 0.93226 0.17601 0.0
N236 N 0.26458 0.9285 0.1728 0.0
H237 H 0.23018 0.98351 0.18762 0.0
H238 H 0.16132 0.87609 0.15882 0.0
C239 C 0.03095 0.8823 0.18004 0.0
O240 O 0.9976 0.91583 0.1853 0.0
N241 N 0.04927 1.00489 0.18167 0.0
C242 C 0.03835 0.03559 0.19363 0.0
C243 C 0.99305 0.061 0.19105 0.0
C244 C 1.01025 1.01332 0.17173 0.0
N245 N 0.97514 0.04712 0.17735 0.0
C246 C 0.15282 1.00102 0.2074 0.0
C247 C 0.09949 0.93531 0.22636 0.0
C248 C 0.12919 0.97474 0.23276 0.0
C249 C 0.15626 1.00734 0.223 0.0
C250 C 0.09711 0.93005 0.21045 0.0
N251 N 0.12271 0.96358 0.20107 0.0
H252 H 0.17234 0.02911 0.20052 0.0
H253 H 0.07363 0.89983 0.20594 0.0
H254 H 0.06171 0.04064 0.20359 0.0
H255 H 1.0078 0.99543 0.16066 0.0
O256 O 0.1479 0.03195 0.17546 0.0
O257 O 0.11506 0.9848 0.15716 0.0
O258 O 0.07793 0.89613 0.17774 0.0
C259 C 0.14189 0.02505 0.16105 0.0
H260 H 0.26316 0.86939 0.15553 0.0
H261 H 0.97418 0.08734 0.19881 0.0
H262 H 0.07795 0.90916 0.23356 0.0
H263 H 0.17842 0.03932 0.22736 0.0
Co264 Co 0.71202 0.87675 0.92221 0.0
C265 C 0.71492 0.98416 0.93217 0.0
C266 C 0.64012 0.96384 0.92391 0.0
C267 C 0.64262 1.01658 0.92525 0.0
N268 N 0.68573 0.94356 0.92813 0.0
N269 N 0.69002 0.02928 0.93022 0.0
H270 H 0.75546 0.9813 0.93489 0.0
H271 H 0.60938 0.94271 0.91854 0.0
C272 C 0.62387 0.80505 0.92708 0.0
O273 O 0.65771 0.77629 0.93415 0.0
N274 N 0.73907 0.80999 0.91542 0.0
C275 C 0.74441 0.79652 0.90068 0.0
C276 C 0.76676 0.74897 0.89974 0.0
C277 C 0.75798 0.76907 0.92324 0.0
N278 N 0.77433 0.73095 0.91392 0.0
C279 C 0.77031 0.85345 0.94866 0.0
C280 C 0.69038 0.86014 0.96945 0.0
C281 C 0.74083 0.85292 0.97469 0.0
C282 C 0.78099 0.84947 0.96411 0.0
C283 C 0.6814 0.86472 0.95382 0.0
N284 N 0.721 0.85997 0.9436 0.0
H285 H 0.80206 0.85175 0.94068 0.0
H286 H 0.64296 0.87393 0.94999 0.0
H287 H 0.73327 0.81952 0.89101 0.0
H288 H 0.75782 0.76575 0.93546 0.0
O289 O 0.77932 0.90607 0.91893 0.0
O290 O 0.71851 0.90299 0.90147 0.0
O291 O 0.63832 0.84843 0.92162 0.0
C292 C 0.7652 0.91671 0.9052 0.0
H293 H 0.61409 0.04354 0.92111 0.0
H294 H 0.77738 0.72999 0.88926 0.0
H295 H 0.65864 0.86448 0.9774 0.0
H296 H 0.82051 0.84457 0.96779 0.0
Co297 Co 0.91233 0.94395 0.6729 0.0
C298 C 0.80115 0.95748 0.68008 0.0
C299 C 0.81728 0.88307 0.67098 0.0
C300 C 0.76463 0.8896 0.67153 0.0
N301 N 0.84054 0.92528 0.67663 0.0
N302 N 0.75456 0.9366 0.67718 0.0
H303 H 0.80603 0.99728 0.68313 0.0
H304 H 0.83699 0.85181 0.66533 0.0
C305 C 0.92179 0.83316 0.68321 0.0
O306 O 0.88859 0.84329 0.69414 0.0
N307 N 0.98318 0.96157 0.66842 0.0
C308 C 1.01027 0.94113 0.65682 0.0
C309 C 0.06043 0.95762 0.65771 0.0
C310 C 1.01718 0.99075 0.6762 0.0
N311 N 0.06497 0.98815 0.67001 0.0
C312 C 0.90034 0.99714 0.70097 0.0
C313 C 0.96629 0.93905 0.71856 0.0
C314 C 0.93968 0.98026 0.72533 0.0
C315 C 0.90726 1.00988 0.71616 0.0
C316 C 0.95891 0.92808 0.70307 0.0
N317 N 0.92431 0.95563 0.69461 0.0
H318 H 0.87642 0.02208 0.69429 0.0
H319 H 0.98175 0.89806 0.69792 0.0
H320 H 0.99479 0.91493 0.64848 0.0
H321 H 1.00786 1.01186 0.68644 0.0
O322 O 0.89069 1.01266 0.66757 0.0
O323 O 0.89557 0.94841 0.65128 0.0
O324 O 0.93486 0.86887 0.67392 0.0
C325 C 0.88304 0.99617 0.65388 0.0
H326 H 0.73636 0.86405 0.66661 0.0
H327 H 0.09132 0.9476 0.64994 0.0
H328 H 0.99216 0.91518 0.72513 0.0
H329 H 0.88743 0.04328 0.72065 0.0
Co330 Co 0.81489 0.17263 0.42384 0.0
C331 C 0.83689 0.06781 0.43229 0.0
C332 C 0.89314 0.09608 0.41645 0.0
C333 C 0.89465 0.04307 0.41637 0.0
N334 N 0.85613 0.11146 0.42625 0.0
N335 N 0.85874 0.02552 0.42622 0.0
H336 H 0.80211 0.06695 0.43914 0.0
H337 H 0.91234 0.12105 0.40838 0.0
C338 C 0.89688 0.25244 0.43122 0.0
O339 O 0.86532 0.2715 0.44151 0.0
N340 N 0.77022 0.23289 0.42074 0.0
C341 C 0.71828 0.23004 0.41918 0.0
C342 C 0.69854 0.27747 0.41598 0.0
C343 C 0.78103 0.28313 0.41806 0.0
N344 N 0.73776 0.31082 0.41534 0.0
C345 C 0.7613 0.18359 0.45233 0.0
C346 C 0.84622 0.17795 0.47113 0.0
C347 C 0.79729 0.18518 0.47769 0.0
C348 C 0.75454 0.18724 0.46805 0.0
C349 C 0.85124 0.17386 0.45526 0.0
N350 N 0.80924 0.17887 0.446 0.0
H351 H 0.72751 0.18356 0.44529 0.0
H352 H 0.889 0.16708 0.45041 0.0
H353 H 0.69506 0.1959 0.42042 0.0
H354 H 0.81919 0.29948 0.41775 0.0
O355 O 0.75626 0.12807 0.42053 0.0
O356 O 0.80807 0.15689 0.40235 0.0
O357 O 0.88155 0.21518 0.42286 0.0
C358 C 0.76851 0.12876 0.40619 0.0
H359 H 0.91689 0.01938 0.40864 0.0
H360 H 0.65816 0.28722 0.41476 0.0
H361 H 0.88013 0.17453 0.4782 0.0
H362 H 0.71595 0.1917 0.47263 0.0
Co363 Co 0.61745 0.0601 0.1757 0.0
C364 C 0.72973 0.07702 0.17452 0.0
C365 C 0.69025 0.13909 0.16368 0.0
C366 C 0.74258 0.14464 0.16108 0.0
N367 N 0.6821 0.09737 0.17258 0.0
N368 N 0.76688 0.1048 0.16765 0.0
H369 H 0.7373 0.0404 0.17981 0.0
H370 H 0.66032 0.16197 0.15847 0.0
C371 C 0.58635 0.17074 0.18032 0.0
O372 O 0.62698 0.17521 0.18908 0.0
N373 N 0.55543 0.01979 0.17854 0.0
C374 C 0.55438 0.97752 0.18743 0.0
C375 C 0.50563 0.95756 0.18749 0.0
C376 C 0.50704 0.0246 0.173 0.0
N377 N 0.47601 0.98683 0.17843 0.0
C378 C 0.66061 0.03998 0.20555 0.0
C379 C 0.57603 0.07548 0.22167 0.0
C380 C 0.61528 0.05011 0.22956 0.0
C381 C 0.65848 0.03317 0.22136 0.0
C382 C 0.58007 0.08238 0.20593 0.0
N383 N 0.62191 0.06462 0.19794 0.0
H384 H 0.69155 0.02184 0.19944 0.0
H385 H 0.54742 0.09863 0.20006 0.0
H386 H 0.58701 0.96254 0.19364 0.0
H387 H 0.49463 0.05515 0.16549 0.0
O388 O 0.65489 0.99627 0.1721 0.0
O389 O 0.61825 0.04383 0.15433 0.0
O390 O 0.57569 0.12686 0.17443 0.0
C391 C 0.64579 1.00363 0.15771 0.0
H392 H 0.76111 0.17379 0.1542 0.0
H393 H 0.49264 0.9241 0.19376 0.0
H394 H 0.5416 0.08839 0.22756 0.0
H395 H 0.68895 1.01201 0.22698 0.0
Co396 Co 0.72094 0.17498 0.5953 0.0
C397 C 0.71951 0.07194 0.58225 0.0
C398 C 0.64609 0.09292 0.59175 0.0
C399 C 0.64679 0.04062 0.58948 0.0
N400 N 0.69199 0.11239 0.58741 0.0
N401 N 0.69306 0.02777 0.58362 0.0
H402 H 0.7601 0.07367 0.5794 0.0
H403 H 0.61676 0.11393 0.59793 0.0
C404 C 0.63893 0.25449 0.59161 0.0
O405 O 0.67545 0.28268 0.58551 0.0
N406 N 0.74922 0.23723 0.60438 0.0
C407 C 0.74085 0.24875 0.61914 0.0
C408 C 0.76037 0.29618 0.62224 0.0
C409 C 0.77411 0.27892 0.59865 0.0
N410 N 0.78046 0.31571 0.60935 0.0
C411 C 0.78436 0.2008 0.56958 0.0
C412 C 0.7061 0.19905 0.54837 0.0
C413 C 0.75728 0.20177 0.54316 0.0
C414 C 0.79663 0.20346 0.55405 0.0
C415 C 0.69554 0.19599 0.56396 0.0
N416 N 0.73436 0.19715 0.57442 0.0
H417 H 0.81539 0.19916 0.57772 0.0
H418 H 0.6562 0.18947 0.56753 0.0
H419 H 0.71951 0.22547 0.62716 0.0
H420 H 0.78368 0.28441 0.5868 0.0
O421 O 0.78576 0.13958 0.59882 0.0
O422 O 0.7214 0.14257 0.61534 0.0
O423 O 0.64921 0.20824 0.5957 0.0
C424 C 0.76746 0.12593 0.61196 0.0
H425 H 0.61784 1.01354 0.59331 0.0
H426 H 0.75778 0.31565 0.63305 0.0
H427 H 0.67438 0.19726 0.54042 0.0
H428 H 0.83679 0.2039 0.55065 0.0
Co429 Co 0.61375 0.95396 0.34539 0.0
C430 C 0.72335 0.96963 0.33694 0.0
C431 C 0.70136 0.89077 0.33428 0.0
C432 C 0.75379 0.89484 0.33192 0.0
N433 N 0.68216 0.93774 0.33752 0.0
N434 N 0.76747 0.94431 0.33386 0.0
H435 H 0.72192 1.0103 0.3393 0.0
H436 H 0.67963 0.85539 0.33437 0.0
C437 C 0.54887 0.86096 0.34001 0.0
O438 O 0.51391 0.89347 0.33511 0.0
N439 N 0.54631 0.97003 0.35415 0.0
C440 C 0.53334 0.95532 0.36835 0.0
C441 C 0.48629 0.97548 0.37209 0.0
C442 C 0.50567 0.99858 0.34931 0.0
N443 N 0.46805 1.0019 0.36006 0.0
C444 C 0.58509 1.01775 0.32024 0.0
C445 C 0.59577 0.94362 0.29798 0.0
C446 C 0.59074 0.99511 0.29359 0.0
C447 C 0.58432 0.03228 0.30491 0.0
C448 C 0.59737 0.93079 0.31345 0.0
N449 N 0.592 0.9676 0.32446 0.0
H450 H 0.58293 0.04756 0.32874 0.0
H451 H 0.60666 0.89167 0.31644 0.0
H452 H 0.55706 0.93209 0.37574 0.0
H453 H 0.50282 1.01582 0.33818 0.0
O454 O 0.63656 0.02253 0.35038 0.0
O455 O 0.64316 0.95587 0.36579 0.0
O456 O 0.59274 0.87797 0.34445 0.0
C457 C 0.65174 1.00457 0.36337 0.0
H458 H 0.78032 0.86339 0.32991 0.0
H459 H 0.468 0.972 0.38311 0.0
H460 H 0.60182 0.91395 0.28953 0.0
H461 H 0.58069 0.07254 0.30194 0.0
Co462 Co 0.81258 0.8594 0.09241 0.0
C463 C 0.83142 0.97086 0.09155 0.0
C464 C 0.8949 0.93155 0.10167 0.0
C465 C 0.90098 0.98367 0.10403 0.0
N466 N 0.85146 0.92343 0.09356 0.0
N467 N 0.86071 1.00798 0.09766 0.0
H468 H 0.79274 0.97829 0.0877 0.0
H469 H 0.91759 0.90168 0.10698 0.0
C470 C 0.91898 0.8297 0.08375 0.0
O471 O 0.91496 0.86812 0.07411 0.0
N472 N 0.7718 0.7975 0.09161 0.0
C473 C 0.72287 0.79674 0.08647 0.0
C474 C 0.70455 0.74759 0.08723 0.0
C475 C 0.78315 0.74827 0.09521 0.0
N476 N 0.74221 0.71735 0.09272 0.0
C477 C 0.7854 0.90048 0.063 0.0
C478 C 0.81443 0.81499 0.04643 0.0
C479 C 0.79063 0.8561 0.03896 0.0
C480 C 0.77656 0.89942 0.04737 0.0
C481 C 0.82342 0.818 0.06207 0.0
N482 N 0.80988 0.86087 0.07019 0.0
H483 H 0.7695 0.93192 0.06931 0.0
H484 H 0.83959 0.7849 0.06775 0.0
H485 H 0.70206 0.82969 0.08217 0.0
H486 H 0.82007 0.73538 0.09946 0.0
O487 O 0.7503 0.89743 0.09665 0.0
O488 O 0.80074 0.86432 0.11429 0.0
O489 O 0.88011 0.81853 0.09222 0.0
C490 C 0.75966 0.89107 0.111 0.0
H491 H 0.92926 1.00159 0.11131 0.0
H492 H 0.66685 0.73459 0.08367 0.0
H493 H 0.82522 0.78054 0.04029 0.0
H494 H 0.75661 0.93125 0.04203 0.0
Co495 Co 0.94176 0.06134 0.8434 0.0
C496 C 0.83037 0.08208 0.83985 0.0
C497 C 0.86663 0.13611 0.85463 0.0
C498 C 0.81396 0.14036 0.85645 0.0
N499 N 0.87713 0.09938 0.8442 0.0
N500 N 0.79164 0.10609 0.84717 0.0
H501 H 0.82403 0.04879 0.8329 0.0
H502 H 0.89531 0.15481 0.86158 0.0
C503 C 0.96735 0.1691 0.83546 0.0
O504 O 0.92829 0.16448 0.8261 0.0
N505 N 1.00455 0.02125 0.84325 0.0
C506 C 1.00961 0.97671 0.83559 0.0
C507 C 0.05546 0.95419 0.83941 0.0
C508 C 0.04756 0.0251 0.85182 0.0
N509 N 0.0791 0.98406 0.84974 0.0
C510 C 0.90649 0.02366 0.81466 0.0
C511 C 0.98264 0.06647 0.79667 0.0
C512 C 0.94618 0.034 0.78989 0.0
C513 C 0.908 1.01246 0.7992 0.0
C514 C 0.98016 0.07615 0.81236 0.0
N515 N 0.94107 0.05648 0.82113 0.0
H516 H 0.87943 1.00254 0.8215 0.0
H517 H 1.01082 0.09805 0.81747 0.0
H518 H 0.98118 0.96083 0.828 0.0
H519 H 0.05493 0.05624 0.85965 0.0
O520 O 0.90353 0.99963 0.84784 0.0
O521 O 0.93492 0.05192 0.86528 0.0
O522 O 0.98167 0.12949 0.84314 0.0
C523 C 0.907 1.01172 0.86208 0.0
H524 H 0.79381 0.16448 0.86456 0.0
H525 H 0.07058 0.9187 0.83477 0.0
H526 H 1.01312 0.08391 0.79 0.0
H527 H 0.88034 0.9854 0.79468 0.0
Co528 Co 0.80977 0.67362 0.59366 0.0
C529 C 0.81789 0.56274 0.59928 0.0
C530 C 0.8931 0.59629 0.59994 0.0
C531 C 0.89751 0.54395 0.60263 0.0
N532 N 0.84282 0.60796 0.5979 0.0
N533 N 0.84986 0.52344 0.60236 0.0
H534 H 0.77687 0.55799 0.59782 0.0
H535 H 0.92455 0.62343 0.59955 0.0
C536 C 0.90348 0.73246 0.60342 0.0
O537 O 0.88067 0.73974 0.6166 0.0
N538 N 0.77455 0.73709 0.58888 0.0
C539 C 0.732 0.73771 0.58012 0.0
C540 C 0.71788 0.78743 0.57742 0.0
C541 C 0.78562 0.78702 0.59158 0.0
N542 N 0.75139 0.81836 0.58456 0.0
C543 C 0.78426 0.62152 0.56631 0.0
C544 C 0.82819 0.69293 0.54687 0.0
C545 C 0.7948 0.6558 0.541 0.0
C546 C 0.77421 0.61866 0.55079 0.0
C547 C 0.83697 0.69472 0.5625 0.0
N548 N 0.81381 0.66017 0.57204 0.0
H549 H 0.76501 0.59486 0.57379 0.0
H550 H 0.8589 0.7265 0.56695 0.0
H551 H 0.7131 0.70399 0.57565 0.0
H552 H 0.81818 0.80022 0.59813 0.0
O553 O 0.74295 0.64353 0.59786 0.0
O554 O 0.79187 0.68018 0.61514 0.0
O555 O 0.87983 0.70806 0.59296 0.0
C556 C 0.74943 0.65564 0.612 0.0
H557 H 0.9327 0.52285 0.60484 0.0
H558 H 0.68527 0.80011 0.57073 0.0
H559 H 0.84462 0.72231 0.53958 0.0
H560 H 0.74874 0.58903 0.54657 0.0
Co561 Co 0.62467 0.57912 0.84525 0.0
C562 C 0.73566 0.59395 0.84244 0.0
C563 C 0.70262 0.65869 0.85377 0.0
C564 C 0.7558 0.66168 0.85482 0.0
N565 N 0.69001 0.61574 0.84603 0.0
N566 N 0.7762 0.62042 0.84778 0.0
H567 H 0.73958 0.55625 0.83753 0.0
H568 H 0.67579 0.68371 0.85953 0.0
C569 C 0.57316 0.67694 0.8553 0.0
O570 O 0.58374 0.663 0.86929 0.0
N571 N 0.56126 0.54007 0.84398 0.0
C572 C 0.56005 0.49163 0.83853 0.0
C573 C 0.51006 0.4752 0.83791 0.0
C574 C 0.5113 0.55282 0.84653 0.0
N575 N 0.4796 0.51344 0.84287 0.0
C576 C 0.66004 0.53829 0.817 0.0
C577 C 0.59608 0.59394 0.79812 0.0
C578 C 0.6267 0.55467 0.79196 0.0
C579 C 0.65987 0.52774 0.80154 0.0
C580 C 0.59753 0.60359 0.8138 0.0
N581 N 0.62918 0.57565 0.8231 0.0
H582 H 0.6834 0.51397 0.82405 0.0
H583 H 0.5713 0.63185 0.81833 0.0
H584 H 0.59333 0.46981 0.83487 0.0
H585 H 0.49837 0.58976 0.85071 0.0
O586 O 0.661 0.5161 0.85 0.0
O587 O 0.62826 0.56737 0.86734 0.0
O588 O 0.58558 0.64719 0.84427 0.0
C589 C 0.65432 0.52574 0.86425 0.0
H590 H 0.77728 0.68885 0.8616 0.0
H591 H 0.49679 0.43814 0.83395 0.0
H592 H 0.5697 0.61541 0.79101 0.0
H593 H 0.68454 0.49748 0.79717 0.0
Co594 Co 0.7206 0.3522 0.09652 0.0
C595 C 0.72571 0.46342 0.08967 0.0
C596 C 0.64835 0.43497 0.08817 0.0
C597 C 0.64699 0.48772 0.08733 0.0
N598 N 0.69774 0.4196 0.08983 0.0
N599 N 0.69558 0.50536 0.08855 0.0
H600 H 0.76677 0.46536 0.09158 0.0
H601 H 0.61496 0.41025 0.0885 0.0
C602 C 0.6318 0.28183 0.09122 0.0
O603 O 0.66649 0.25084 0.0853 0.0
N604 N 0.74203 0.28555 0.10419 0.0
C605 C 0.72325 0.26696 0.11741 0.0
C606 C 0.74306 0.219 0.11992 0.0
C607 C 0.7736 0.24819 0.09882 0.0
N608 N 0.7748 0.20715 0.1083 0.0
C609 C 0.7826 0.32963 0.07024 0.0
C610 C 0.70474 0.33733 0.04907 0.0
C611 C 0.7559 0.33389 0.04387 0.0
C612 C 0.79492 0.3287 0.05473 0.0
C613 C 0.69408 0.33845 0.06469 0.0
N614 N 0.7327 0.33417 0.07517 0.0
H615 H 0.81383 0.32914 0.07831 0.0
H616 H 0.65489 0.34566 0.06825 0.0
H617 H 0.69547 0.28651 0.12457 0.0
H618 H 0.793 0.24919 0.08797 0.0
O619 O 0.78841 0.37919 0.1008 0.0
O620 O 0.72412 0.37849 0.1173 0.0
O621 O 0.6461 0.32575 0.09629 0.0
C622 C 0.77185 0.3908 0.11428 0.0
H623 H 0.6127 0.51139 0.08669 0.0
H624 H 0.73356 0.19403 0.12935 0.0
H625 H 0.67315 0.34094 0.04113 0.0
H626 H 0.83503 0.32671 0.0513 0.0
Co627 Co 0.93605 0.46847 0.34653 0.0
C628 C 0.82739 0.43812 0.34356 0.0
C629 C 0.86272 0.4023 0.36277 0.0
C630 C 0.80999 0.39589 0.36392 0.0
N631 N 0.87361 0.42909 0.34998 0.0
N632 N 0.78822 0.41845 0.35175 0.0
H633 H 0.82118 0.46322 0.33406 0.0
H634 H 0.89068 0.39238 0.37139 0.0
C635 C 0.96611 0.35674 0.34443 0.0
O636 O 0.92217 0.35033 0.33733 0.0
N637 N 0.99642 0.51057 0.34327 0.0
C638 C 0.99476 0.55526 0.3355 0.0
C639 C 0.04322 0.57558 0.33471 0.0
C640 C 0.04636 0.50429 0.34724 0.0
N641 N 0.07569 0.54356 0.34195 0.0
C642 C 0.89788 0.49436 0.31704 0.0
C643 C 0.97298 0.4449 0.30023 0.0
C644 C 0.93868 0.47812 0.29281 0.0
C645 C 0.90027 0.5021 0.3014 0.0
C646 C 0.96925 0.43808 0.31604 0.0
N647 N 0.93155 0.46229 0.32434 0.0
H648 H 0.8711 0.51792 0.32328 0.0
H649 H 0.99928 0.41648 0.32158 0.0
H650 H 0.96048 0.57198 0.33059 0.0
H651 H 0.06104 0.47161 0.35351 0.0
O652 O 0.89541 0.53037 0.34891 0.0
O653 O 0.9327 0.49012 0.36791 0.0
O654 O 0.97992 0.40237 0.34845 0.0
C655 C 0.90317 0.52782 0.36338 0.0
H656 H 0.78914 0.37897 0.37337 0.0
H657 H 0.05394 0.61132 0.32923 0.0
H658 H 1.00425 0.42677 0.29403 0.0
H659 H 0.87341 0.52861 0.29615 0.0
Co660 Co 0.83094 0.37561 0.92593 0.0
C661 C 0.82076 0.48785 0.93081 0.0
C662 C 0.89905 0.46358 0.93347 0.0
C663 C 0.89755 0.51666 0.93367 0.0
N664 N 0.85078 0.44541 0.93146 0.0
N665 N 0.84831 0.53157 0.93178 0.0
H666 H 0.7799 0.48754 0.92858 0.0
H667 H 0.93366 0.44045 0.93373 0.0
C668 C 0.92769 0.31212 0.92899 0.0
O669 O 0.90043 0.27812 0.93659 0.0
N670 N 0.81214 0.30625 0.9198 0.0
C671 C 0.82743 0.28531 0.9065 0.0
C672 C 0.8096 0.23575 0.90565 0.0
C673 C 0.78499 0.26867 0.92689 0.0
N674 N 0.78283 0.22537 0.91844 0.0
C675 C 0.77464 0.35483 0.95319 0.0
C676 C 0.85608 0.35611 0.9733 0.0
C677 C 0.80579 0.3506 0.97904 0.0
C678 C 0.76497 0.34957 0.96873 0.0
C679 C 0.86413 0.36164 0.95755 0.0
N680 N 0.8237 0.35952 0.94762 0.0
H681 H 0.74208 0.35507 0.94561 0.0
H682 H 0.90267 0.36936 0.9535 0.0
H683 H 0.851 0.30455 0.89807 0.0
H684 H 0.76887 0.27143 0.93815 0.0
O685 O 0.76064 0.39846 0.92213 0.0
O686 O 0.82264 0.39806 0.90491 0.0
O687 O 0.90668 0.35434 0.9247 0.0
C688 C 0.77479 0.40849 0.90828 0.0
H689 H 0.93047 0.5422 0.93383 0.0
H690 H 0.81606 0.20921 0.89636 0.0
H691 H 0.88861 0.35822 0.98095 0.0
H692 H 0.72555 0.34537 0.97266 0.0
Co693 Co 0.92899 0.56058 0.17561 0.0
C694 C 0.81814 0.5813 0.17874 0.0
C695 C 0.85368 0.63353 0.16316 0.0
C696 C 0.80085 0.63674 0.16145 0.0
N697 N 0.86463 0.59864 0.17408 0.0
N698 N 0.77886 0.60369 0.17131 0.0
H699 H 0.81257 0.54821 0.18586 0.0
H700 H 0.88212 0.65138 0.15583 0.0
C701 C 0.95458 0.67029 0.18181 0.0
O702 O 0.91481 0.66812 0.19109 0.0
N703 N 0.99098 0.51927 0.17687 0.0
C704 C 0.99073 0.473 0.18381 0.0
C705 C 0.03884 0.45197 0.18304 0.0
C706 C 0.03992 0.52578 0.17178 0.0
N707 N 0.06984 0.48495 0.1756 0.0
C708 C 0.89341 0.5264 0.20489 0.0
C709 C 0.97192 0.56895 0.22177 0.0
C710 C 0.93734 0.5352 0.22888 0.0
C711 C 0.89721 0.51468 0.2203 0.0
C712 C 0.96685 0.57961 0.20621 0.0
N713 N 0.92721 0.55928 0.19792 0.0
H714 H 0.86588 0.50487 0.19844 0.0
H715 H 0.99698 0.60146 0.20072 0.0
H716 H 0.95754 0.45555 0.18919 0.0
H717 H 0.05348 0.55951 0.16577 0.0
O718 O 0.89023 0.49839 0.17187 0.0
O719 O 0.92389 0.54704 0.15383 0.0
O720 O 0.96949 0.62898 0.17499 0.0
C721 C 0.89593 0.50718 0.15747 0.0
H722 H 0.78045 0.65888 0.15295 0.0
H723 H 0.05051 0.41522 0.18769 0.0
H724 H 1.00416 0.58476 0.22799 0.0
H725 H 0.86994 0.48804 0.22533 0.0
Co726 Co 0.72273 0.67483 0.42426 0.0
C727 C 0.71174 0.5627 0.42221 0.0
C728 C 0.64665 0.59911 0.41206 0.0
C729 C 0.64279 0.54661 0.4099 0.0
N730 N 0.68917 0.60907 0.42036 0.0
N731 N 0.68388 0.52389 0.41645 0.0
H732 H 0.75072 0.5575 0.42601 0.0
H733 H 0.62164 0.6279 0.40715 0.0
C734 C 0.61101 0.69624 0.4307 0.0
O735 O 0.61353 0.65468 0.43917 0.0
N736 N 0.75974 0.73804 0.42813 0.0
C737 C 0.80211 0.7385 0.43697 0.0
C738 C 0.81993 0.78761 0.43817 0.0
C739 C 0.75264 0.78749 0.42379 0.0
N740 N 0.78901 0.81839 0.42998 0.0
C741 C 0.74703 0.6262 0.45259 0.0
C742 C 0.70574 0.70125 0.47118 0.0
C743 C 0.73477 0.66146 0.47763 0.0
C744 C 0.75472 0.62325 0.46818 0.0
C745 C 0.69891 0.70279 0.45542 0.0
N746 N 0.719 0.66515 0.44626 0.0
H747 H 0.76781 0.59942 0.44568 0.0
H748 H 0.68039 0.73608 0.45052 0.0
H749 H 0.81885 0.70505 0.44235 0.0
H750 H 0.72166 0.80059 0.41654 0.0
O751 O 0.78864 0.6419 0.42068 0.0
O752 O 0.74126 0.67715 0.40271 0.0
O753 O 0.65215 0.71223 0.42389 0.0
C754 C 0.78241 0.65086 0.40632 0.0
H755 H 0.61317 0.52706 0.40351 0.0
H756 H 0.85336 0.80001 0.44452 0.0
H757 H 0.69111 0.7324 0.47813 0.0
H758 H 0.77831 0.59251 0.47275 0.0
Co759 Co 0.59864 0.4931 0.67521 0.0
C760 C 0.70939 0.47719 0.66888 0.0
C761 C 0.66972 0.40516 0.66864 0.0
C762 C 0.72156 0.39632 0.66611 0.0
N763 N 0.66211 0.45609 0.67049 0.0
N764 N 0.74632 0.44188 0.66626 0.0
H765 H 0.71723 0.51781 0.66979 0.0
H766 H 0.64033 0.37596 0.66933 0.0
C767 C 0.51419 0.40732 0.6764 0.0
O768 O 0.47678 0.4392 0.67976 0.0
N769 N 0.53771 0.53336 0.68015 0.0
C770 C 0.53686 0.56785 0.6916 0.0
C771 C 0.48988 0.5916 0.69203 0.0
C772 C 0.49189 0.53945 0.67305 0.0
N773 N 0.46124 0.57307 0.68059 0.0
C774 C 0.65465 0.50856 0.70263 0.0
C775 C 0.57993 0.47052 0.7221 0.0
C776 C 0.62171 0.49753 0.72815 0.0
C777 C 0.66015 0.51535 0.71826 0.0
C778 C 0.57589 0.46452 0.7064 0.0
N779 N 0.61212 0.4849 0.69682 0.0
H780 H 0.6829 0.52569 0.69517 0.0
H781 H 0.54129 0.44754 0.70206 0.0
H782 H 0.56846 0.57548 0.69923 0.0
H783 H 0.48037 0.51831 0.66303 0.0
O784 O 0.63353 0.55762 0.67204 0.0
O785 O 0.59465 0.51394 0.65393 0.0
O786 O 0.56059 0.42368 0.67462 0.0
C787 C 0.62281 0.55347 0.65771 0.0
H788 H 0.73961 0.35905 0.6649 0.0
H789 H 0.47716 0.61962 0.70033 0.0
H790 H 0.54886 0.45705 0.72935 0.0
H791 H 0.69313 0.53626 0.72253 0.0
Co792 Co 0.21682 0.36148 0.42294 0.0
C793 C 0.19938 0.47307 0.42573 0.0
C794 C 0.14839 0.44028 0.40942 0.0
C795 C 0.14353 0.49325 0.40884 0.0
N796 N 0.18309 0.42768 0.42022 0.0
N797 N 0.17594 0.51349 0.41914 0.0
H798 H 0.23057 0.4775 0.43355 0.0
H799 H 0.12976 0.41301 0.40199 0.0
C800 C 0.10538 0.34344 0.42961 0.0
O801 O 0.10953 0.38587 0.43758 0.0
N802 N 0.25364 0.29732 0.42534 0.0
C803 C 0.29974 0.29473 0.43238 0.0
C804 C 0.31932 0.24623 0.43094 0.0
C805 C 0.24557 0.24975 0.41966 0.0
N806 N 0.28566 0.21822 0.42292 0.0
C807 C 0.2542 0.39949 0.45125 0.0
C808 C 0.20173 0.33315 0.47024 0.0
C809 C 0.23869 0.3663 0.47649 0.0
C810 C 0.26482 0.39964 0.46668 0.0
C811 C 0.19304 0.33339 0.45449 0.0
N812 N 0.2178 0.36772 0.44517 0.0
H813 H 0.27895 0.42249 0.44419 0.0
H814 H 0.16832 0.30413 0.44985 0.0
H815 H 0.31862 0.32645 0.43796 0.0
H816 H 0.21195 0.23869 0.4132 0.0
O817 O 0.28166 0.39443 0.419 0.0
O818 O 0.23251 0.36188 0.4011 0.0
O819 O 0.14596 0.32541 0.42297 0.0
C820 C 0.27464 0.38645 0.4047 0.0
H821 H 0.11888 0.51492 0.40126 0.0
H822 H 0.35542 0.23223 0.43551 0.0
H823 H 0.18051 0.30644 0.47732 0.0
H824 H 0.29541 0.42428 0.47076 0.0
Co825 Co 0.42863 0.46553 0.17156 0.0
C826 C 0.31928 0.43998 0.17508 0.0
C827 C 0.3531 0.39867 0.1566 0.0
C828 C 0.30005 0.396 0.15535 0.0
N829 N 0.36523 0.42663 0.16902 0.0
N830 N 0.27912 0.42224 0.16703 0.0
H831 H 0.31449 0.46782 0.18394 0.0
H832 H 0.38067 0.38597 0.14814 0.0
C833 C 0.45769 0.35456 0.17442 0.0
O834 O 0.41382 0.34929 0.18176 0.0
N835 N 0.48933 0.50782 0.17395 0.0
C836 C 0.48777 0.55289 0.1815 0.0
C837 C 0.536 0.57374 0.1818 0.0
C838 C 0.53912 0.50181 0.16962 0.0
N839 N 0.5682 0.54184 0.1744 0.0
C840 C 0.3933 0.49225 0.20139 0.0
C841 C 0.46968 0.44192 0.21733 0.0
C842 C 0.43556 0.47424 0.22514 0.0
C843 C 0.39665 0.49894 0.21702 0.0
C844 C 0.46495 0.43618 0.20159 0.0
N845 N 0.42631 0.46034 0.19374 0.0
H846 H 0.36659 0.51658 0.19545 0.0
H847 H 0.49502 0.41546 0.19574 0.0
H848 H 0.45376 0.56936 0.18671 0.0
H849 H 0.5539 0.46876 0.16354 0.0
O850 O 0.38815 0.52708 0.16927 0.0
O851 O 0.4238 0.48492 0.15014 0.0
O852 O 0.47176 0.3994 0.16975 0.0
C853 C 0.3941 0.52237 0.15474 0.0
H854 H 0.27872 0.37933 0.14603 0.0
H855 H 0.547 0.60935 0.18724 0.0
H856 H 0.50153 0.42368 0.22317 0.0
H857 H 0.37024 0.52517 0.22263 0.0
Co858 Co 0.30763 0.6934 0.92402 0.0
C859 C 0.32962 0.5823 0.92536 0.0
C860 C 0.39059 0.62308 0.91432 0.0
C861 C 0.39766 0.57126 0.91178 0.0
N862 N 0.3483 0.63025 0.92315 0.0
N863 N 0.35855 0.54607 0.91851 0.0
H864 H 0.29287 0.57385 0.93051 0.0
H865 H 0.41199 0.65343 0.90876 0.0
C866 C 0.41359 0.72487 0.93165 0.0
O867 O 0.40981 0.68787 0.94179 0.0
N868 N 0.26495 0.7542 0.92416 0.0
C869 C 0.21696 0.75522 0.9301 0.0
C870 C 0.19543 0.80237 0.92737 0.0
C871 C 0.27237 0.80112 0.91796 0.0
N872 N 0.22999 0.83102 0.91968 0.0
C873 C 0.2849 0.65524 0.95426 0.0
C874 C 0.31287 0.74396 0.96937 0.0
C875 C 0.2931 0.70262 0.97773 0.0
C876 C 0.27929 0.65777 0.97003 0.0
C877 C 0.31864 0.73951 0.95362 0.0
N878 N 0.30596 0.69503 0.94624 0.0
H879 H 0.26977 0.62226 0.94855 0.0
H880 H 0.33222 0.77248 0.94729 0.0
H881 H 0.19887 0.72366 0.9361 0.0
H882 H 0.30755 0.81308 0.91232 0.0
O883 O 0.24633 0.65299 0.92054 0.0
O884 O 0.29654 0.68531 0.90247 0.0
O885 O 0.37424 0.73571 0.92342 0.0
C886 C 0.25697 0.65692 0.90613 0.0
H887 H 0.42665 0.55383 0.90454 0.0
H888 H 0.15784 0.81533 0.93117 0.0
H889 H 0.32327 0.77955 0.97493 0.0
H890 H 0.26225 0.62569 0.9761 0.0
Co891 Co 0.10136 0.55199 0.6744 0.0
C892 C 0.2074 0.58203 0.68019 0.0
C893 C 0.16955 0.63729 0.66596 0.0
C894 C 0.22169 0.6478 0.66599 0.0
N895 N 0.16089 0.59597 0.67486 0.0
N896 N 0.24521 0.61283 0.67491 0.0
H897 H 0.21401 0.54693 0.68652 0.0
H898 H 0.14087 0.65556 0.65888 0.0
C899 C 1.01725 0.62789 0.68302 0.0
O900 O 1.00054 0.5946 0.69315 0.0
N901 N 0.04201 0.50596 0.67326 0.0
C902 C 0.04393 0.45406 0.67421 0.0
C903 C 0.99619 0.43406 0.67134 0.0
C904 C 0.99287 0.51629 0.6691 0.0
N905 N 0.96421 0.47315 0.66811 0.0
C906 C 0.10623 0.50059 0.70318 0.0
C907 C 0.10085 0.5864 0.72152 0.0
C908 C 0.09996 0.5375 0.72831 0.0
C909 C 0.10453 0.49446 0.7189 0.0
C910 C 0.10277 0.59078 0.70561 0.0
N911 N 0.10206 0.54794 0.69661 0.0
H912 H 0.11187 0.46692 0.69635 0.0
H913 H 0.10399 0.62861 0.70053 0.0
H914 H 0.07796 0.43127 0.6763 0.0
H915 H 0.97835 0.55402 0.66629 0.0
O916 O 0.14659 0.49456 0.67016 0.0
O917 O 0.11103 0.54401 0.65263 0.0
O918 O 0.05557 0.61599 0.67445 0.0
C919 C 0.14112 0.50529 0.65585 0.0
H920 H 0.24119 0.67699 0.65935 0.0
H921 H 0.98564 0.39384 0.67176 0.0
H922 H 0.09928 0.62081 0.72842 0.0
H923 H 0.10735 0.45615 0.72367 0.0
Co924 Co 0.21684 0.67765 0.09472 0.0
C925 C 0.2268 0.57 0.0851 0.0
C926 C 0.14729 0.59188 0.08721 0.0
C927 C 0.14991 0.53961 0.08484 0.0
N928 N 0.19563 0.61084 0.08747 0.0
N929 N 0.19996 0.52603 0.08379 0.0
H930 H 0.26844 0.5716 0.08529 0.0
H931 H 0.11265 0.61349 0.08967 0.0
C932 C 0.12849 0.74834 0.08941 0.0
O933 O 0.16362 0.78036 0.08429 0.0
N934 N 0.23803 0.74367 0.10282 0.0
C935 C 0.2225 0.76069 0.11658 0.0
C936 C 0.24302 0.80836 0.1191 0.0
C937 C 0.26823 0.78158 0.09714 0.0
N938 N 0.27137 0.82147 0.10685 0.0
C939 C 0.27979 0.70229 0.06886 0.0
C940 C 0.20151 0.70134 0.04765 0.0
C941 C 0.25243 0.70762 0.04268 0.0
C942 C 0.29189 0.70794 0.05346 0.0
C943 C 0.19117 0.69504 0.06314 0.0
N944 N 0.22983 0.69736 0.07365 0.0
H945 H 0.31096 0.70081 0.07695 0.0
H946 H 0.15224 0.68577 0.06651 0.0
H947 H 0.19663 0.74036 0.12415 0.0
H948 H 0.28501 0.78216 0.08592 0.0
O949 O 0.28441 0.65074 0.09937 0.0
O950 O 0.21812 0.65001 0.11524 0.0
O951 O 0.14236 0.70369 0.09408 0.0
C952 C 0.26628 0.63838 0.11265 0.0
H953 H 0.1178 0.51307 0.08517 0.0
H954 H 0.23611 0.83247 0.12892 0.0
H955 H 0.17023 0.69869 0.03957 0.0
H956 H 0.33185 0.71153 0.04998 0.0
Co957 Co 0.11862 0.46735 0.84634 0.0
C958 C 0.22753 0.47206 0.83702 0.0
C959 C 0.20599 0.39708 0.84495 0.0
C960 C 0.25891 0.3999 0.84446 0.0
N961 N 0.18626 0.44263 0.84054 0.0
N962 N 0.27231 0.44743 0.83981 0.0
H963 H 0.225 0.51238 0.83414 0.0
H964 H 0.18397 0.36594 0.84988 0.0
C965 C 0.04684 0.38008 0.84074 0.0
O966 O 1.01654 0.41548 0.83494 0.0
N967 N 0.05131 0.49119 0.85331 0.0
C968 C 0.03134 0.47492 0.86665 0.0
C969 C 0.98394 0.49687 0.86885 0.0
C970 C 1.01531 0.52363 0.84756 0.0
N971 N 0.97391 0.5275 0.8569 0.0
C972 C 0.09864 0.52794 0.8198 0.0
C973 C 0.103 0.44881 0.79896 0.0
C974 C 0.0967 0.49931 0.79367 0.0
C975 C 0.09478 0.53913 0.80432 0.0
C976 C 0.10713 0.43932 0.81459 0.0
N977 N 0.1031 0.47846 0.82488 0.0
H978 H 0.09906 0.55955 0.82773 0.0
H979 H 0.11565 0.40069 0.81831 0.0
H980 H 0.04982 0.44792 0.87422 0.0
H981 H 1.01741 0.54211 0.83661 0.0
O982 O 0.14716 0.5343 0.8504 0.0
O983 O 0.14236 0.47152 0.86737 0.0
O984 O 0.09087 0.39355 0.84599 0.0
C985 C 0.15621 0.51842 0.86408 0.0
H986 H 0.28545 0.3708 0.84849 0.0
H987 H 0.95814 0.48997 0.87835 0.0
H988 H 0.10677 0.41713 0.79107 0.0
H989 H 0.09091 0.57875 0.80069 0.0
Co990 Co 0.32321 0.36984 0.59308 0.0
C991 C 0.33444 0.48257 0.59426 0.0
C992 C 0.39568 0.44573 0.60623 0.0
C993 C 0.3975 0.49781 0.60924 0.0
N994 N 0.35653 0.43611 0.59654 0.0
N995 N 0.35864 0.52059 0.60171 0.0
H996 H 0.29758 0.48833 0.58894 0.0
H997 H 0.41812 0.41656 0.61196 0.0
C998 C 0.43499 0.34882 0.588 0.0
O999 O 0.43432 0.39016 0.5794 0.0
N1000 N 0.28774 0.30561 0.58976 0.0
C1001 C 0.2462 0.30154 0.58068 0.0
C1002 C 0.23191 0.25107 0.57983 0.0
C1003 C 0.29777 0.2573 0.59462 0.0
N1004 N 0.26412 0.22339 0.58854 0.0
C1005 C 0.29502 0.41277 0.56445 0.0
C1006 C 0.33977 0.33808 0.54647 0.0
C1007 C 0.30518 0.37298 0.53982 0.0
C1008 C 0.28375 0.41127 0.54903 0.0
C1009 C 0.34914 0.34018 0.56213 0.0
N1010 N 0.32691 0.37738 0.571 0.0
H1011 H 0.27339 0.43937 0.57123 0.0
H1012 H 0.37129 0.30953 0.56719 0.0
H1013 H 0.22778 0.33326 0.57489 0.0
H1014 H 0.32898 0.24713 0.60218 0.0
O1015 O 0.25725 0.40234 0.59628 0.0
O1016 O 0.3046 0.36892 0.61459 0.0
O1017 O 0.3929 0.33291 0.59411 0.0
C1018 C 0.2633 0.3944 0.6107 0.0
H1019 H 0.42171 0.51647 0.61756 0.0
H1020 H 0.19979 0.23573 0.57346 0.0
H1021 H 0.35808 0.30825 0.5398 0.0
H1022 H 0.25573 0.43825 0.5446 0.0
Co1023 Co 0.43726 0.54538 0.34244 0.0
C1024 C 0.32726 0.572 0.33945 0.0
C1025 C 0.36447 0.61783 0.35629 0.0
C1026 C 0.31179 0.62353 0.35794 0.0
N1027 N 0.37424 0.5852 0.34469 0.0
N1028 N 0.28887 0.59467 0.34725 0.0
H1029 H 0.32014 0.54211 0.33135 0.0
H1030 H 0.39339 0.63234 0.36399 0.0
C1031 C 0.46645 0.65361 0.33592 0.0
O1032 O 0.42458 0.65333 0.32757 0.0
N1033 N 0.49806 0.50293 0.34052 0.0
C1034 C 0.49736 0.45722 0.33333 0.0
C1035 C 0.54548 0.43596 0.33379 0.0
C1036 C 0.547 0.50886 0.34544 0.0
N1037 N 0.57676 0.46838 0.34125 0.0
C1038 C 0.39898 0.5141 0.31342 0.0
C1039 C 0.47722 0.55635 0.2961 0.0
C1040 C 0.44087 0.52463 0.28913 0.0
C1041 C 0.40099 0.5041 0.29792 0.0
C1042 C 0.4739 0.5653 0.31175 0.0
N1043 N 0.43413 0.54556 0.32024 0.0
H1044 H 0.37153 0.49253 0.32 0.0
H1045 H 0.50541 0.58519 0.31709 0.0
H1046 H 0.46387 0.44029 0.32807 0.0
H1047 H 0.56064 0.54194 0.35168 0.0
O1048 O 0.39722 0.48409 0.3461 0.0
O1049 O 0.43345 0.53059 0.36411 0.0
O1050 O 0.47974 0.61219 0.34292 0.0
C1051 C 0.40442 0.49161 0.36048 0.0
H1052 H 0.29191 0.64451 0.36682 0.0
H1053 H 0.5567 0.39917 0.32907 0.0
H1054 H 0.50943 0.57174 0.28968 0.0
H1055 H 0.37263 0.47871 0.29295 0.0
C1056 C 0.18247 0.09534 0.12487 0.0
C1057 C 0.23276 0.11249 0.1283 0.0
C1058 C 0.1528 0.06747 0.13548 0.0
C1059 C 0.17189 0.05657 0.15003 0.0
H1060 H 0.1662 0.10246 0.11375 0.0
H1061 H 0.11486 0.05415 0.13224 0.0
S1062 S 0.30121 0.09235 0.16473 0.0
N1063 N 0.30025 0.11587 0.1473 0.0
N1064 N 0.24436 0.06524 0.16735 0.0
C1065 C 0.22163 0.07458 0.15373 0.0
C1066 C 0.25205 0.10218 0.14286 0.0
C1067 C 0.16673 0.98102 0.39639 0.0
C1068 C 0.16714 0.96676 0.38098 0.0
C1069 C 0.19111 0.95053 0.40748 0.0
C1070 C 0.21714 0.90464 0.40361 0.0
H1071 H 0.14937 1.01706 0.39984 0.0
H1072 H 0.19177 0.96453 0.41906 0.0
S1073 S 0.224 0.84666 0.36522 0.0
N1074 N 0.19152 0.90061 0.36271 0.0
N1075 N 0.23751 0.84413 0.38352 0.0
C1076 C 0.21519 0.88841 0.38842 0.0
C1077 C 0.19024 0.91926 0.37713 0.0
C1078 C 0.30072 0.98483 0.62697 0.0
C1079 C 0.29291 0.9328 0.63063 0.0
C1080 C 0.3301 1.01701 0.63634 0.0
C1081 C 0.35354 0.99793 0.64958 0.0
H1082 H 0.28354 1.00097 0.61686 0.0
H1083 H 0.33366 0.05721 0.6333 0.0
S1084 S 0.34994 0.86218 0.66295 0.0
N1085 N 0.31388 0.8624 0.64753 0.0
N1086 N 0.37012 0.9219 0.66512 0.0
C1087 C 0.34772 0.9451 0.65296 0.0
C1088 C 0.3172 0.91271 0.64348 0.0
C1089 C 0.34606 0.11418 0.87055 0.0
C1090 C 0.38728 0.0826 0.87528 0.0
C1091 C 0.3188 0.1452 0.88089 0.0
C1092 C 0.33181 0.14615 0.89638 0.0
H1093 H 0.33321 0.11343 0.85885 0.0
H1094 H 0.28594 0.16683 0.8768 0.0
S1095 S 0.44047 0.07511 0.91427 0.0
N1096 N 0.44231 0.05741 0.89627 0.0
N1097 N 0.39192 0.11593 0.91568 0.0
C1098 C 0.37484 0.1169 0.9011 0.0
C1099 C 0.40229 0.08505 0.89057 0.0
C1100 C 0.82824 0.96092 0.86843 0.0
C1101 C 0.87301 0.98649 0.87342 0.0
C1102 C 0.79297 0.93944 0.87875 0.0
C1103 C 0.80149 0.94192 0.89447 0.0
H1104 H 0.8197 0.95826 0.85641 0.0
H1105 H 0.75916 0.92022 0.87435 0.0
S1106 S 0.91221 1.00547 0.91345 0.0
N1107 N 0.92314 1.0142 0.89512 0.0
N1108 N 0.85789 0.97266 0.91459 0.0
C1109 C 0.84613 0.96741 0.89963 0.0
C1110 C 0.88158 0.99003 0.8891 0.0
C1111 C 0.82452 0.06989 0.64803 0.0
C1112 C 0.85527 0.02886 0.6427 0.0
C1113 C 0.79542 0.10038 0.63806 0.0
C1114 C 0.79728 0.09224 0.62231 0.0
H1115 H 0.82207 0.07809 0.66007 0.0
H1116 H 0.77201 0.13115 0.6427 0.0
S1117 S 0.87101 0.98983 0.60244 0.0
N1118 N 0.88441 0.98094 0.6206 0.0
N1119 N 0.83199 0.04 0.60176 0.0
C1120 C 0.82825 0.0518 0.61676 0.0
C1121 C 0.85663 0.01965 0.62698 0.0
C1122 C 0.68698 0.02192 0.38941 0.0
C1123 C 0.68095 0.03722 0.37418 0.0
C1124 C 0.71507 0.05204 0.39969 0.0
C1125 C 0.73915 0.09799 0.39506 0.0
H1126 H 0.6696 0.98659 0.39345 0.0
H1127 H 0.71858 0.0388 0.41133 0.0
S1128 S 0.73683 0.15448 0.35639 0.0
N1129 N 0.70204 0.10164 0.35498 0.0
N1130 N 0.75588 0.15701 0.37425 0.0
C1131 C 0.73406 0.11344 0.37986 0.0
C1132 C 0.70463 0.08342 0.36945 0.0
C1133 C 0.7061 0.93281 0.14955 0.0
C1134 C 0.6703 0.97144 0.14568 0.0
C1135 C 0.73406 0.90603 0.13832 0.0
C1136 C 0.72704 0.91656 0.12277 0.0
H1137 H 0.71388 0.92421 0.16137 0.0
H1138 H 0.76204 0.87756 0.14188 0.0
S1139 S 0.63583 1.01221 0.10653 0.0
N1140 N 0.62799 1.01725 0.12508 0.0
N1141 N 0.67974 0.96703 0.1041 0.0
C1142 C 0.68995 0.9538 0.11874 0.0
C1143 C 0.66183 0.9812 0.13015 0.0
C1144 C 0.67267 0.60294 0.61968 0.0
C1145 C 0.71295 0.63645 0.62384 0.0
C1146 C 0.64166 0.57847 0.63064 0.0
C1147 C 0.64941 0.58659 0.64626 0.0
H1148 H 0.66623 0.59371 0.60784 0.0
H1149 H 0.61285 0.55135 0.62683 0.0
S1150 S 0.74617 0.67494 0.66316 0.0
N1151 N 0.7562 0.67941 0.64467 0.0
N1152 N 0.69797 0.63416 0.66527 0.0
C1153 C 0.68766 0.62232 0.65055 0.0
C1154 C 0.71942 0.64699 0.63937 0.0
C1155 C 0.7504 0.43254 0.8817 0.0
C1156 C 0.73985 0.43491 0.89735 0.0
C1157 C 0.72076 0.46021 0.87118 0.0
C1158 C 0.68026 0.49297 0.87585 0.0
H1159 H 0.78222 0.40947 0.87751 0.0
H1160 H 0.73108 0.45717 0.85928 0.0
S1161 S 0.63537 0.51148 0.91552 0.0
N1162 N 0.68378 0.47048 0.91699 0.0
N1163 N 0.62981 0.52439 0.8972 0.0
C1164 C 0.66834 0.49478 0.89143 0.0
C1165 C 0.69772 0.46538 0.90216 0.0
C1166 C 0.79263 0.42077 0.14066 0.0
C1167 C 0.80491 0.41966 0.1251 0.0
C1168 C 0.82309 0.44825 0.151 0.0
C1169 C 0.86661 0.47654 0.14618 0.0
H1170 H 0.75932 0.40011 0.14492 0.0
H1171 H 0.8117 0.44808 0.16286 0.0
S1172 S 0.91482 0.48733 0.10659 0.0
N1173 N 0.86388 0.44961 0.10534 0.0
N1174 N 0.92002 0.50212 0.12476 0.0
C1175 C 0.87914 0.47612 0.13065 0.0
C1176 C 0.84864 0.44743 0.12013 0.0
C1177 C 0.88498 0.56169 0.3897 0.0
C1178 C 0.8756 0.5634 0.37399 0.0
C1179 C 0.85623 0.59198 0.39992 0.0
C1180 C 0.81655 0.62513 0.39491 0.0
H1181 H 0.91404 0.53598 0.39421 0.0
H1182 H 0.8643 0.58805 0.41194 0.0
S1183 S 0.77745 0.6453 0.35484 0.0
N1184 N 0.82452 0.60266 0.35385 0.0
N1185 N 0.77064 0.6588 0.37306 0.0
C1186 C 0.80769 0.62827 0.3792 0.0
C1187 C 0.8371 0.59764 0.36876 0.0
C1188 C 0.30089 0.40618 0.3778 0.0
C1189 C 0.31123 0.40864 0.39343 0.0
C1190 C 0.3325 0.43166 0.36721 0.0
C1191 C 0.37544 0.46089 0.37185 0.0
H1192 H 0.2674 0.38565 0.37372 0.0
H1193 H 0.32203 0.42978 0.35532 0.0
S1194 S 0.42181 0.47642 0.41133 0.0
N1195 N 0.36994 0.44012 0.41293 0.0
N1196 N 0.42829 0.48836 0.393 0.0
C1197 C 0.38721 0.46233 0.38736 0.0
C1198 C 0.35541 0.43608 0.39815 0.0
C1199 C 0.37941 0.56491 0.12952 0.0
C1200 C 0.36223 0.55346 0.14428 0.0
C1201 C 0.34841 0.59329 0.11949 0.0
C1202 C 0.29875 0.61043 0.12377 0.0
H1203 H 0.41699 0.55191 0.12571 0.0
H1204 H 0.36326 0.60103 0.1082 0.0
S1205 S 0.23521 0.58854 0.16109 0.0
N1206 N 0.29211 0.56064 0.16268 0.0
N1207 N 0.23384 0.61302 0.14378 0.0
C1208 C 0.28112 0.59891 0.1385 0.0
C1209 C 0.31287 0.57068 0.14876 0.0
C1210 C 0.16015 0.56429 0.88899 0.0
C1211 C 0.1827 0.55237 0.8749 0.0
C1212 C 0.18353 0.59967 0.89884 0.0
C1213 C 0.23028 0.62412 0.89492 0.0
H1214 H 0.12401 0.54663 0.89232 0.0
H1215 H 0.16512 0.60748 0.90967 0.0
S1216 S 0.30589 0.6033 0.85954 0.0
N1217 N 0.25449 0.56662 0.85763 0.0
N1218 N 0.29904 0.63189 0.87616 0.0
C1219 C 0.25316 0.6121 0.88086 0.0
C1220 C 0.22918 0.5765 0.87084 0.0
C1221 C 0.23578 0.41159 0.63763 0.0
C1222 C 0.22849 0.41941 0.62197 0.0
C1223 C 0.20662 0.43883 0.64844 0.0
C1224 C 0.16932 0.47541 0.64405 0.0
H1225 H 0.26487 0.3849 0.6416 0.0
H1226 H 0.21426 0.4318 0.66036 0.0
S1227 S 0.13447 0.50981 0.60447 0.0
N1228 N 0.17989 0.46576 0.60263 0.0
N1229 N 0.12608 0.51723 0.62294 0.0
C1230 C 0.16105 0.48306 0.62845 0.0
C1231 C 0.19029 0.45495 0.61743 0.0
C1232 C 0.25377 0.13626 1.00359 0.0
C1233 C 0.25122 0.18234 0.99524 0.0
C1234 C 0.26485 0.13626 0.01916 0.0
C1235 C 0.27317 0.18239 0.02714 0.0
H1236 H 0.24694 0.09971 0.99809 0.0
H1237 H 0.26726 0.09959 0.02496 0.0
S1238 S 0.27065 0.31385 0.01063 0.0
N1239 N 0.25994 0.27551 0.99607 0.0
N1240 N 0.27642 0.27572 0.02553 0.0
C1241 C 0.27018 0.22888 0.01897 0.0
C1242 C 0.2601 0.22882 1.00302 0.0
C1243 C 0.08499 1.00748 0.27291 0.0
C1244 C 0.13168 0.01846 0.28036 0.0
C1245 C 0.08444 0.99089 0.2577 0.0
C1246 C 0.13054 0.98478 0.24939 0.0
H1247 H 0.04863 1.01138 0.27891 0.0
H1248 H 0.04763 0.98424 0.25228 0.0
S1249 S 0.26301 1.00737 0.26368 0.0
N1250 N 0.22515 0.02209 0.27816 0.0
N1251 N 0.22414 0.98907 0.24992 0.0
C1252 C 0.17744 0.99464 0.25681 0.0
C1253 C 0.178 1.01196 0.27218 0.0
C1254 C 0.26249 0.90311 0.52645 0.0
C1255 C 0.26094 0.85479 0.53358 0.0
C1256 C 0.27848 0.90821 0.51123 0.0
C1257 C 0.29314 0.86509 0.5025 0.0
H1258 H 0.25193 0.93729 0.53276 0.0
H1259 H 0.27957 0.94635 0.5063 0.0
S1260 S 0.29266 0.72954 0.51597 0.0
N1261 N 0.27435 0.76308 0.53097 0.0
N1262 N 0.3023 0.77185 0.50223 0.0
C1263 C 0.2911 0.81639 0.50959 0.0
C1264 C 0.27548 0.81146 0.52514 0.0
C1265 C 0.39349 0.99205 0.76793 0.0
C1266 C 0.43209 1.00796 0.77803 0.0
C1267 C 0.39361 1.00842 0.75272 0.0
C1268 C 0.43165 0.04224 0.74717 0.0
H1269 H 0.36315 0.96655 0.7718 0.0
H1270 H 0.3636 0.99467 0.74524 0.0
S1271 S 0.54013 0.09644 0.76916 0.0
N1272 N 0.50886 0.05999 0.78153 0.0
N1273 N 0.50851 0.09143 0.75297 0.0
C1274 C 0.47001 0.05902 0.7572 0.0
C1275 C 0.47042 0.04165 0.77263 0.0
C1276 C 0.78517 0.89069 0.99713 0.0
C1277 C 0.75259 0.85272 0.99112 0.0
C1278 C 0.79743 0.89139 0.01262 0.0
C1279 C 0.77838 0.8535 0.02257 0.0
H1280 H 0.80085 0.92038 0.9898 0.0
H1281 H 0.8222 0.92159 0.01686 0.0
S1282 S 0.69199 0.74561 0.01242 0.0
N1283 N 0.70145 0.77651 0.99622 0.0
N1284 N 0.72527 0.77717 0.02537 0.0
C1285 C 0.74612 0.81508 0.01668 0.0
C1286 C 0.73295 0.8149 1.00094 0.0
C1287 C 0.9003 0.01992 0.7653 0.0
C1288 C 0.94707 0.02142 0.77333 0.0
C1289 C 0.89861 1.0056 0.75 0.0
C1290 C 0.94367 0.99271 0.74186 0.0
H1291 H 0.86438 0.02997 0.77088 0.0
H1292 H 0.86133 1.0045 0.7445 0.0
S1293 S 0.07641 0.99068 0.75746 0.0
N1294 N 0.03983 1.0077 0.77203 0.0
N1295 N 0.03689 0.98319 0.74296 0.0
C1296 C 0.99092 0.99426 0.74967 0.0
C1297 C 0.9926 1.00834 0.76541 0.0
C1298 C 0.74287 0.16234 0.51743 0.0
C1299 C 0.76925 0.19825 0.52651 0.0
C1300 C 0.75278 0.15796 0.50178 0.0
C1301 C 0.78984 0.18895 0.49449 0.0
H1302 H 0.71446 0.13697 0.52247 0.0
H1303 H 0.7313 0.12984 0.49533 0.0
S1304 S 0.86841 0.29031 0.51276 0.0
N1305 N 0.83327 0.26648 0.5268 0.0
N1306 N 0.85236 0.25754 0.49744 0.0
C1307 C 0.81687 0.22473 0.50338 0.0
C1308 C 0.80651 0.22952 0.51934 0.0
C1309 C 0.56056 0.99504 0.26646 0.0
C1310 C 0.59679 1.01044 0.27738 0.0
C1311 C 0.56633 1.0089 0.25108 0.0
C1312 C 0.60915 0.03764 0.24601 0.0
H1313 H 0.52745 0.97236 0.26986 0.0
H1314 H 0.53757 0.99623 0.24302 0.0
S1315 S 0.71518 0.08649 0.2701 0.0
N1316 N 0.6768 0.05593 0.28211 0.0
N1317 N 0.68828 0.08082 0.25319 0.0
C1318 C 0.64577 0.05286 0.25682 0.0
C1319 C 0.6394 0.0396 0.2725 0.0
C1320 C 0.81584 0.65712 0.51331 0.0
C1321 C 0.77867 0.65798 0.52494 0.0
C1322 C 0.80114 0.65863 0.49803 0.0
C1323 C 0.74884 0.6618 0.49389 0.0
H1324 H 0.85645 0.65454 0.51605 0.0
H1325 H 0.83094 0.65743 0.48936 0.0
S1326 S 0.63698 0.66792 0.52014 0.0
N1327 N 0.6876 0.66411 0.53142 0.0
N1328 N 0.66003 0.6671 0.5026 0.0
C1329 C 0.7114 0.66386 0.50542 0.0
C1330 C 0.72631 0.66179 0.52098 0.0
C1331 C 0.63056 0.5625 0.7489 0.0
C1332 C 0.62291 0.51104 0.7445 0.0
C1333 C 0.63042 0.57671 0.76427 0.0
C1334 C 0.62311 0.53986 0.77576 0.0
H1335 H 0.63621 0.5921 0.74038 0.0
H1336 H 0.63703 0.61658 0.7672 0.0
S1337 S 0.6002 0.40038 0.77026 0.0
N1338 N 0.60724 0.42339 0.75286 0.0
N1339 N 0.60635 0.4501 0.78174 0.0
C1340 C 0.61481 0.48842 0.77151 0.0
C1341 C 0.61481 0.47401 0.75589 0.0
C1342 C 0.81791 0.31039 1.0049 0.0
C1343 C 0.7949 0.3482 0.99569 0.0
C1344 C 0.80511 0.30584 0.02043 0.0
C1345 C 0.76894 0.33904 0.02735 0.0
H1346 H 0.8451 0.28342 0.99998 0.0
H1347 H 0.8231 0.27557 0.02701 0.0
S1348 S 0.70287 0.44857 1.00852 0.0
N1349 N 0.73737 0.42182 0.99484 0.0
N1350 N 0.71405 0.41402 0.02392 0.0
C1351 C 0.74706 0.37806 0.01831 0.0
C1352 C 0.75987 0.38246 1.00254 0.0
C1353 C 0.9451 0.54327 0.27189 0.0
C1354 C 0.94423 0.49128 0.27643 0.0
C1355 C 0.94506 0.55723 0.25648 0.0
C1356 C 0.94355 0.51972 0.24503 0.0
H1357 H 0.94487 0.57348 0.28035 0.0
H1358 H 0.94426 0.59765 0.2535 0.0
S1359 S 0.94505 0.3784 0.25082 0.0
N1360 N 0.9449 0.40226 0.26821 0.0
N1361 N 0.94494 0.42838 0.23922 0.0
C1362 C 0.94474 0.46761 0.24939 0.0
C1363 C 0.94518 0.45342 0.26509 0.0
C1364 C 0.2816 0.4143 0.51511 0.0
C1365 C 0.28891 0.36908 0.52363 0.0
C1366 C 0.26331 0.41277 0.50021 0.0
C1367 C 0.2527 0.36589 0.49291 0.0
H1368 H 0.29021 0.45151 0.51997 0.0
H1369 H 0.25787 0.44894 0.49431 0.0
S1370 S 0.26469 0.23607 0.51016 0.0
N1371 N 0.28167 0.27579 0.52386 0.0
N1372 N 0.25123 0.27272 0.49535 0.0
C1373 C 0.25982 0.32017 0.50124 0.0
C1374 C 0.27733 0.32179 0.51664 0.0
C1375 C 0.444 0.53728 0.24633 0.0
C1376 C 0.44224 0.48577 0.24146 0.0
C1377 C 0.44573 0.54963 0.2618 0.0
C1378 C 0.44524 0.51087 0.2729 0.0
H1379 H 0.44316 0.56829 0.23809 0.0
H1380 H 0.44556 0.58972 0.26511 0.0
S1381 S 0.44498 0.37022 0.2661 0.0
N1382 N 0.44308 0.39586 0.24892 0.0
N1383 N 0.44657 0.41903 0.27807 0.0
C1384 C 0.44556 0.45923 0.26819 0.0
C1385 C 0.44411 0.44667 0.25244 0.0
C1386 C 0.29798 0.67228 0.01989 0.0
C1387 C 0.26461 0.70923 0.02622 0.0
C1388 C 0.30742 0.67071 1.00419 0.0
C1389 C 0.2846 0.70665 0.99434 0.0
H1390 H 0.3158 0.64352 0.02708 0.0
H1391 H 0.33257 0.64106 0.9997 0.0
S1392 S 0.19552 0.81191 1.0053 0.0
N1393 N 0.2094 0.78299 0.02152 0.0
N1394 N 0.22781 0.78057 0.992 0.0
C1395 C 0.25205 0.74444 1.00056 0.0
C1396 C 0.24183 0.74555 0.01651 0.0
C1397 C 0.12779 0.54803 0.77069 0.0
C1398 C 0.09482 0.51074 0.7771 0.0
C1399 C 0.12829 0.55771 0.75496 0.0
C1400 C 0.09576 0.5305 0.74508 0.0
H1401 H 0.15441 0.56891 0.77784 0.0
H1402 H 0.15544 0.5855 0.75047 0.0
S1403 S 0.9976 0.43386 0.75643 0.0
N1404 N 0.02585 0.44981 0.77252 0.0
N1405 N 0.02632 0.46818 0.74305 0.0
C1406 C 0.06119 0.49465 0.75145 0.0
C1407 C 0.06087 0.48468 0.76742 0.0
C1408 C 0.34337 0.8778 0.09895 0.0
C1409 C 0.29197 0.87149 0.10373 0.0
C1410 C 0.36406 0.9272 0.09668 0.0
C1411 C 0.33352 0.97132 0.09885 0.0
H1412 H 0.3678 0.84447 0.09733 0.0
H1413 H 0.40404 0.9311 0.09328 0.0
S1414 S 0.19605 0.974 0.11079 0.0
N1415 N 0.21078 0.91245 0.11001 0.0
N1416 N 0.24927 1.00496 0.10607 0.0
C1417 C 0.28184 0.96501 0.10343 0.0
C1418 C 0.26116 0.91512 0.10578 0.0
C1419 C 0.41195 0.07169 0.34992 0.0
C1420 C 0.41855 0.02768 0.35913 0.0
C1421 C 0.36412 0.09741 0.34919 0.0
C1422 C 0.32169 0.08027 0.35777 0.0
H1423 H 0.44395 0.08652 0.34332 0.0
H1424 H 0.36007 0.13052 0.34183 0.0
S1425 S 0.317 0.96696 0.38308 0.0
N1426 N 0.37641 0.96722 0.37635 0.0
N1427 N 0.28831 1.01732 0.37545 0.0
C1428 C 0.32757 0.0368 0.36696 0.0
C1429 C 0.37554 1.01009 0.36754 0.0
C1430 C 0.25687 0.13614 0.57833 0.0
C1431 C 0.25934 0.16911 0.59097 0.0
C1432 C 0.23935 0.08542 0.57982 0.0
C1433 C 0.2224 0.06674 0.59394 0.0
H1434 H 0.26625 0.15067 0.56711 0.0
H1435 H 0.23617 0.06161 0.56979 0.0
S1436 S 0.22556 0.13599 0.63071 0.0
N1437 N 0.24753 0.17819 0.6182 0.0
N1438 N 0.21306 0.08319 0.62099 0.0
C1439 C 0.22708 0.09841 0.60679 0.0
C1440 C 0.24605 0.14959 0.60531 0.0
C1441 C 0.21874 1.00279 0.85859 0.0
C1442 C 0.23615 0.95177 0.86059 0.0
C1443 C 0.16638 1.01395 0.8563 0.0
C1444 C 0.12961 0.97448 0.8559 0.0
H1445 H 0.24605 0.03418 0.85815 0.0
H1446 H 0.15516 0.05312 0.85376 0.0
S1447 S 0.15326 0.83623 0.86363 0.0
N1448 N 0.21106 0.86264 0.86417 0.0
N1449 N 0.11268 0.88376 0.86018 0.0
C1450 C 0.14574 0.92415 0.85939 0.0
C1451 C 0.19899 0.91275 0.8617 0.0
C1452 C 0.27248 0.1298 0.4311 0.0
C1453 C 0.29176 0.16433 0.4203 0.0
C1454 C 0.29027 0.07905 0.43168 0.0
C1455 C 0.32794 0.06057 0.42138 0.0
H1456 H 0.24603 0.14322 0.43979 0.0
H1457 H 0.27585 0.05496 0.44078 0.0
S1458 S 0.38801 0.13674 0.39024 0.0
N1459 N 0.34891 0.17766 0.39885 0.0
N1460 N 0.3812 0.08151 0.39932 0.0
C1461 C 0.3459 0.09465 0.41006 0.0
C1462 C 0.32798 0.14664 0.40966 0.0
C1463 C 0.11286 0.06202 0.68061 0.0
C1464 C 0.11199 1.0109 0.67554 0.0
C1465 C 0.15964 0.0863 0.68422 0.0
C1466 C 0.20735 0.06037 0.68298 0.0
H1467 H 0.07742 0.084 0.68116 0.0
H1468 H 0.15859 0.12625 0.68762 0.0
S1469 S 0.22403 0.92318 0.67217 0.0
N1470 N 0.16138 0.93315 0.67117 0.0
N1471 N 0.24928 0.9786 0.67732 0.0
C1472 C 0.20633 1.00813 0.6787 0.0
C1473 C 0.15868 0.98354 0.67512 0.0
C1474 C 0.26028 0.92007 0.92157 0.0
C1475 C 0.22379 0.88465 0.91635 0.0
C1476 C 0.24938 0.97282 0.92163 0.0
C1477 C 0.20174 0.99192 0.91634 0.0
H1478 H 0.29595 0.90663 0.92656 0.0
H1479 H 0.27747 0.99843 0.92659 0.0
S1480 S 0.09739 0.91492 0.899 0.0
N1481 N 0.14104 0.87206 0.90414 0.0
N1482 N 0.12099 0.97146 0.90385 0.0
C1483 C 0.16662 0.95699 0.91006 0.0
C1484 C 0.17759 0.90329 0.91013 0.0
C1485 C 0.3383 0.95891 0.1878 0.0
C1486 C 0.31771 0.94448 0.17367 0.0
C1487 C 0.38944 0.97533 0.18909 0.0
C1488 C 0.42177 0.97885 0.17629 0.0
H1489 H 0.31495 0.95628 0.198 0.0
H1490 H 0.40442 0.98422 0.20025 0.0
S1491 S 0.38659 0.94771 0.13668 0.0
N1492 N 0.33329 0.93675 0.14649 0.0
N1493 N 0.42997 0.96748 0.14905 0.0
C1494 C 0.40157 0.96601 0.16204 0.0
C1495 C 0.34943 0.94871 0.16071 0.0
C1496 C 0.76245 0.08283 0.92127 0.0
C1497 C 0.71411 0.07887 0.9285 0.0
C1498 C 0.78482 0.1307 0.91825 0.0
C1499 C 0.75992 0.17666 0.9224 0.0
H1500 H 0.78241 0.04871 0.91743 0.0
H1501 H 0.82186 0.13175 0.91253 0.0
S1502 S 0.63278 0.18736 0.94163 0.0
N1503 N 0.64218 0.12483 0.93985 0.0
N1504 N 0.68414 0.21522 0.93411 0.0
C1505 C 0.71188 0.17335 0.92983 0.0
C1506 C 0.68892 0.1244 0.93284 0.0
C1507 C 0.70415 1.01449 0.67106 0.0
C1508 C 0.70595 0.9635 0.67638 0.0
C1509 C 0.65711 0.0401 0.66907 0.0
C1510 C 0.60993 1.01597 0.67246 0.0
H1511 H 0.73925 0.03433 0.66796 0.0
H1512 H 0.65764 0.07912 0.66479 0.0
S1513 S 0.59351 0.88313 0.68705 0.0
N1514 N 0.65657 0.89015 0.68534 0.0
N1515 N 0.56792 0.93819 0.68151 0.0
C1516 C 0.61112 0.96531 0.67806 0.0
C1517 C 0.65914 0.93908 0.67999 0.0
C1518 C 0.8319 0.94434 0.41383 0.0
C1519 C 0.8378 0.97431 0.42706 0.0
C1520 C 0.81154 0.89431 0.41459 0.0
C1521 C 0.79662 0.87281 0.42858 0.0
H1522 H 0.84346 0.95951 0.40287 0.0
H1523 H 0.80991 0.87135 0.40435 0.0
S1524 S 0.80178 0.93582 0.46625 0.0
N1525 N 0.825 0.9793 0.45437 0.0
N1526 N 0.78696 0.8855 0.45573 0.0
C1527 C 0.80056 0.90302 0.44172 0.0
C1528 C 0.82104 0.95372 0.44098 0.0
C1529 C 0.90928 0.11435 0.17373 0.0
C1530 C 0.92612 0.06342 0.17133 0.0
C1531 C 0.85767 0.12862 0.17151 0.0
C1532 C 0.82095 0.09229 0.167 0.0
H1533 H 0.93581 0.14273 0.17812 0.0
H1534 H 0.8457 0.16739 0.17427 0.0
S1535 S 0.84643 0.95643 0.15679 0.0
N1536 N 0.90296 0.97834 0.16241 0.0
N1537 N 0.80586 1.00522 0.1582 0.0
C1538 C 0.83793 0.04237 0.1634 0.0
C1539 C 0.89061 0.02795 0.16553 0.0
C1540 C 0.73818 0.89889 0.57061 0.0
C1541 C 0.74812 0.87339 0.58443 0.0
C1542 C 0.72231 0.95033 0.57034 0.0
C1543 C 0.71528 0.97746 0.5839 0.0
H1544 H 0.74042 0.878 0.55999 0.0
H1545 H 0.71314 0.96833 0.55957 0.0
S1546 S 0.74056 0.93034 0.62292 0.0
N1547 N 0.75368 0.88056 0.61189 0.0
N1548 N 0.72301 0.97739 0.61139 0.0
C1549 C 0.72773 0.95355 0.59773 0.0
C1550 C 0.74457 0.90139 0.598 0.0
C1551 C 0.85611 0.94867 0.32397 0.0
C1552 C 0.81935 0.9637 0.33483 0.0
C1553 C 0.90823 0.96115 0.3257 0.0
C1554 C 0.92577 0.9887 0.33844 0.0
H1555 H 0.84455 0.92578 0.3143 0.0
H1556 H 0.93551 0.94734 0.31729 0.0
S1557 S 0.84494 0.03764 0.37005 0.0
N1558 N 0.80371 1.00882 0.35862 0.0
N1559 N 0.9021 0.03195 0.36186 0.0
C1560 C 0.88917 1.00601 0.34905 0.0
C1561 C 0.83584 0.99346 0.34727 0.0
C1562 C 0.79358 0.0644 0.10802 0.0
C1563 C 0.84224 0.0586 0.10117 0.0
C1564 C 0.77214 0.11297 0.11033 0.0
C1565 C 0.79852 0.15777 0.10586 0.0
H1566 H 0.77173 0.0309 0.11146 0.0
H1567 H 0.73404 0.11532 0.11536 0.0
S1568 S 0.92872 0.16306 0.08833 0.0
N1569 N 0.91734 0.10098 0.09052 0.0
N1570 N 0.87722 0.19322 0.09498 0.0
C1571 C 0.84786 0.15257 0.09932 0.0
C1572 C 0.86981 0.10274 0.09702 0.0
C1573 C 0.7145 0.08859 0.83213 0.0
C1574 C 0.73824 0.09205 0.84637 0.0
C1575 C 0.66265 0.07473 0.83089 0.0
C1576 C 0.63287 0.06284 0.84383 0.0
H1577 H 0.7361 0.09766 0.82191 0.0
H1578 H 0.6454 0.07378 0.81971 0.0
S1579 S 0.67881 0.06114 0.88368 0.0
N1580 N 0.72972 0.07917 0.87363 0.0
N1581 N 0.63175 0.05263 0.87131 0.0
C1582 C 0.65673 0.06407 0.85814 0.0
C1583 C 0.70957 0.07897 0.85941 0.0
C1584 C 0.84292 0.37918 0.5992 0.0
C1585 C 0.79743 0.36796 0.60732 0.0
C1586 C 0.86125 0.42998 0.59805 0.0
C1587 C 0.83432 0.47097 0.60487 0.0
H1588 H 0.86466 0.34843 0.59392 0.0
H1589 H 0.89592 0.43746 0.59152 0.0
S1590 S 0.71336 0.46163 0.62738 0.0
N1591 N 0.72543 0.40218 0.62194 0.0
N1592 N 0.76108 0.49653 0.62046 0.0
C1593 C 0.78917 0.45992 0.61314 0.0
C1594 C 0.77033 0.40874 0.61415 0.0
C1595 C 0.83143 0.54733 0.85465 0.0
C1596 C 0.82678 0.59882 0.84996 0.0
C1597 C 0.87955 0.52449 0.85672 0.0
C1598 C 0.9252 0.55195 0.854 0.0
H1599 H 0.79743 0.52465 0.85696 0.0
H1600 H 0.88113 0.4848 0.86042 0.0
S1601 S 0.93457 0.68791 0.84175 0.0
N1602 N 0.87186 0.67697 0.84284 0.0
N1603 N 0.96325 0.63349 0.84655 0.0
C1604 C 0.92148 0.60342 0.84925 0.0
C1605 C 0.87204 0.62707 0.84734 0.0
C1606 C 0.76757 0.63007 0.08502 0.0
C1607 C 0.73797 0.66279 0.09428 0.0
C1608 C 0.75453 0.57792 0.08353 0.0
C1609 C 0.71127 0.55752 0.09113 0.0
H1610 H 0.79881 0.64563 0.07823 0.0
H1611 H 0.77675 0.55398 0.07586 0.0
S1612 S 0.62745 0.62605 0.11869 0.0
N1613 N 0.66795 0.67034 0.11246 0.0
N1614 N 0.64366 0.57243 0.10985 0.0
C1615 C 0.68384 0.58925 0.10122 0.0
C1616 C 0.69719 0.64193 0.10275 0.0
C1617 C 0.70332 0.44865 0.36106 0.0
C1618 C 0.73468 0.42968 0.34923 0.0
C1619 C 0.65203 0.46364 0.35834 0.0
C1620 C 0.63079 0.45973 0.34371 0.0
H1621 H 0.71899 0.45276 0.37236 0.0
H1622 H 0.62849 0.47712 0.36771 0.0
S1623 S 0.69778 0.4148 0.30886 0.0
N1624 N 0.74129 0.40916 0.3224 0.0
N1625 N 0.64555 0.43785 0.31722 0.0
C1626 C 0.66219 0.44176 0.3318 0.0
C1627 C 0.71398 0.4266 0.33457 0.0
C1628 C 0.8382 0.62477 0.93648 0.0
C1629 C 0.83089 0.58169 0.92716 0.0
C1630 C 0.8196 0.67346 0.93212 0.0
C1631 C 0.79348 0.6807 0.91823 0.0
H1632 H 0.85781 0.62055 0.94725 0.0
H1633 H 0.82616 0.70568 0.93962 0.0
S1634 S 0.76823 0.57959 0.88945 0.0
N1635 N 0.79926 0.54941 0.90314 0.0
N1636 N 0.76214 0.6395 0.8952 0.0
C1637 C 0.78672 0.63752 0.90878 0.0
C1638 C 0.80596 0.5884 0.91319 0.0
C1639 C 0.69733 0.57891 0.15863 0.0
C1640 C 0.726 0.58696 0.17199 0.0
C1641 C 0.64639 0.56037 0.15932 0.0
C1642 C 0.62281 0.54963 0.17338 0.0
H1643 H 0.71441 0.58686 0.14762 0.0
H1644 H 0.62461 0.55629 0.14892 0.0
S1645 S 0.68115 0.56359 0.21147 0.0
N1646 N 0.7269 0.58218 0.19957 0.0
N1647 N 0.63165 0.54731 0.20078 0.0
C1648 C 0.65139 0.55657 0.1867 0.0
C1649 C 0.70285 0.57525 0.18603 0.0
C1650 C 0.69994 0.38712 0.40322 0.0
C1651 C 0.73123 0.3655 0.41458 0.0
C1652 C 0.68445 0.43875 0.40388 0.0
C1653 C 0.69936 0.47052 0.41601 0.0
H1654 H 0.6864 0.36342 0.39395 0.0
H1655 H 0.66044 0.45374 0.39489 0.0
S1656 S 0.77719 0.42992 0.44939 0.0
N1657 N 0.77471 0.37831 0.43854 0.0
N1658 N 0.74451 0.47473 0.44025 0.0
C1659 C 0.73038 0.44884 0.42754 0.0
C1660 C 0.74671 0.39656 0.42668 0.0
C1661 C 0.82255 0.49273 0.67373 0.0
C1662 C 0.80105 0.4516 0.66548 0.0
C1663 C 0.87582 0.50139 0.67387 0.0
C1664 C 0.90959 0.46906 0.66585 0.0
H1665 H 0.79834 0.51731 0.68065 0.0
H1666 H 0.89094 0.53198 0.68088 0.0
S1667 S 0.87336 0.36067 0.64089 0.0
N1668 N 0.818 0.38161 0.64788 0.0
N1669 N 0.91822 0.39778 0.6483 0.0
C1670 C 0.88874 0.42945 0.657 0.0
C1671 C 0.83449 0.42068 0.6568 0.0
C1672 C 0.21693 0.6289 0.44124 0.0
C1673 C 0.22057 0.66778 0.43018 0.0
C1674 C 0.20045 0.57959 0.43753 0.0
C1675 C 0.18724 0.56649 0.42257 0.0
H1676 H 0.22743 0.63652 0.45291 0.0
H1677 H 0.19841 0.55117 0.44653 0.0
S1678 S 0.18817 0.65491 0.3894 0.0
N1679 N 0.20784 0.69085 0.4037 0.0
N1680 N 0.17777 0.59702 0.39655 0.0
C1681 C 0.18994 0.6051 0.41133 0.0
C1682 C 0.20677 0.65588 0.41517 0.0
C1683 C 0.14534 0.47223 0.15875 0.0
C1684 C 0.12412 0.47657 0.17343 0.0
C1685 C 0.19584 0.45342 0.1566 0.0
C1686 C 0.22639 0.43851 0.16909 0.0
H1687 H 0.12212 0.48161 0.14893 0.0
H1688 H 0.21118 0.45088 0.14516 0.0
S1689 S 0.18815 0.44376 0.20973 0.0
N1690 N 0.13753 0.46607 0.2005 0.0
N1691 N 0.23142 0.42984 0.19654 0.0
C1692 C 0.20553 0.44365 0.18377 0.0
C1693 C 0.15471 0.46295 0.18591 0.0
C1694 C 0.37383 0.40377 0.92221 0.0
C1695 C 0.32262 0.38606 0.92111 0.0
C1696 C 0.38584 0.4559 0.92048 0.0
C1697 C 0.34704 0.49214 0.91764 0.0
H1698 H 0.40463 0.37734 0.92503 0.0
H1699 H 0.42521 0.46835 0.92218 0.0
S1700 S 0.20858 0.46475 0.91108 0.0
N1701 N 0.23392 0.40828 0.91524 0.0
N1702 N 0.25674 0.50617 0.91156 0.0
C1703 C 0.29643 0.47451 0.91525 0.0
C1704 C 0.28418 0.42141 0.91704 0.0
C1705 C 0.38565 0.59602 0.66493 0.0
C1706 C 0.40676 0.58113 0.67894 0.0
C1707 C 0.33283 0.60758 0.6637 0.0
C1708 C 0.29967 0.60381 0.6764 0.0
H1709 H 0.41028 0.59962 0.65502 0.0
H1710 H 0.31767 0.61869 0.65272 0.0
S1711 S 0.33617 0.56435 0.71537 0.0
N1712 N 0.39046 0.56147 0.70554 0.0
N1713 N 0.29174 0.58363 0.70325 0.0
C1714 C 0.32043 0.58826 0.69035 0.0
C1715 C 0.37386 0.57679 0.69162 0.0
C1716 C 0.21048 0.38402 0.07822 0.0
C1717 C 0.24546 0.36947 0.08961 0.0
C1718 C 0.19781 0.43569 0.07584 0.0
C1719 C 0.21974 0.4745 0.08476 0.0
H1720 H 0.19093 0.35486 0.07164 0.0
H1721 H 0.16918 0.44534 0.06737 0.0
S1722 S 0.3131 0.45574 0.11617 0.0
N1723 N 0.30224 0.39718 0.10974 0.0
N1724 N 0.27842 0.49473 0.10544 0.0
C1725 C 0.25643 0.46052 0.09581 0.0
C1726 C 0.26936 0.40779 0.09818 0.0
C1727 C 0.39492 0.51817 0.83064 0.0
C1728 C 0.42458 0.50966 0.84375 0.0
C1729 C 0.34413 0.49965 0.82961 0.0
C1730 C 0.32215 0.47096 0.84154 0.0
H1731 H 0.41231 0.53651 0.82082 0.0
H1732 H 0.3229 0.50527 0.81917 0.0
S1733 S 0.38223 0.44349 0.87887 0.0
N1734 N 0.42723 0.47472 0.86924 0.0
N1735 N 0.3319 0.44005 0.86747 0.0
C1736 C 0.3505 0.46494 0.85502 0.0
C1737 C 0.40175 0.48422 0.85608 0.0
C1738 C 0.28533 0.57376 0.60992 0.0
C1739 C 0.33659 0.57023 0.60479 0.0
C1740 C 0.26183 0.62146 0.61234 0.0
C1741 C 0.28851 0.66758 0.60955 0.0
H1742 H 0.26333 0.53921 0.61211 0.0
H1743 H 0.22215 0.62227 0.61622 0.0
S1744 S 0.42418 0.67892 0.59651 0.0
N1745 N 0.41391 0.6163 0.59739 0.0
N1746 N 0.36961 0.70664 0.60182 0.0
C1747 C 0.34001 0.66461 0.60453 0.0
C1748 C 0.36416 0.61575 0.60224 0.0
C1749 C 0.155 0.55001 0.35731 0.0
C1750 C 0.13036 0.5513 0.34311 0.0
C1751 C 0.20687 0.56503 0.3587 0.0
C1752 C 0.23529 0.58169 0.34596 0.0
H1753 H 0.13365 0.53881 0.36739 0.0
H1754 H 0.22518 0.56307 0.36972 0.0
S1755 S 0.18958 0.58762 0.3062 0.0
N1756 N 0.13919 0.56711 0.31601 0.0
N1757 N 0.23612 0.59575 0.31871 0.0
C1758 C 0.21148 0.58139 0.3317 0.0
C1759 C 0.1591 0.56618 0.33027 0.0
C1760 C 0.56175 0.23055 0.07933 0.0
C1761 C 0.5764 0.26605 0.09054 0.0
C1762 C 0.51171 0.21072 0.07866 0.0
C1763 C 0.47322 0.22483 0.08924 0.0
H1764 H 0.58947 0.21733 0.07095 0.0
H1765 H 0.50365 0.18315 0.06978 0.0
S1766 S 0.49067 0.31789 0.12078 0.0
N1767 N 0.54772 0.31607 0.11233 0.0
N1768 N 0.45324 0.27819 0.11119 0.0
C1769 C 0.48668 0.26146 0.10035 0.0
C1770 C 0.5382 0.28219 0.10096 0.0
C1771 C 0.05302 0.31207 0.34344 0.0
C1772 C 0.99985 0.31036 0.34658 0.0
C1773 C 0.08322 0.26678 0.34315 0.0
C1774 C 0.06195 0.21767 0.34621 0.0
H1775 H 0.07104 0.34834 0.34054 0.0
H1776 H 0.12368 0.27041 0.34025 0.0
S1777 S 0.92537 0.19319 0.35679 0.0
N1778 N 0.92778 0.25586 0.35386 0.0
N1779 N 0.98443 0.17167 0.35372 0.0
C1780 C 1.00927 0.216 0.35013 0.0
C1781 C 0.97837 0.26196 0.35018 0.0
C1782 C 0.03228 0.80188 0.60938 0.0
C1783 C 0.06338 0.78358 0.59737 0.0
C1784 C 0.98074 0.78554 0.61119 0.0
C1785 C 0.95768 0.7509 0.60092 0.0
H1786 H 0.04825 0.82798 0.61769 0.0
H1787 H 0.95894 0.80007 0.6208 0.0
S1788 S 0.02158 0.69404 0.56697 0.0
N1789 N 0.0665 0.73029 0.57471 0.0
N1790 N 0.97018 0.70047 0.57793 0.0
C1791 C 0.98805 0.73353 0.58862 0.0
C1792 C 0.04062 0.74958 0.58691 0.0
C1793 C 0.49298 0.78298 0.83651 0.0
C1794 C 0.49769 0.82527 0.84646 0.0
C1795 C 0.5181 0.73583 0.83927 0.0
C1796 C 0.5484 0.72817 0.85231 0.0
H1797 H 0.46938 0.78614 0.82642 0.0
H1798 H 0.51271 0.70473 0.83127 0.0
S1799 S 0.57566 0.82672 0.88175 0.0
N1800 N 0.53719 0.85649 0.86967 0.0
N1801 N 0.58343 0.76797 0.87504 0.0
C1802 C 0.55412 0.77026 0.8623 0.0
C1803 C 0.52917 0.81866 0.85933 0.0
C1804 C 0.54874 0.77266 0.43067 0.0
C1805 C 0.55873 0.71984 0.42841 0.0
C1806 C 0.49743 0.792 0.43136 0.0
C1807 C 0.45432 0.75917 0.42985 0.0
H1808 H 0.58051 0.79867 0.43272 0.0
H1809 H 0.49152 0.83235 0.43382 0.0
S1810 S 0.46023 0.61945 0.42124 0.0
N1811 N 0.52114 0.63661 0.42296 0.0
N1812 N 0.42629 0.67228 0.42408 0.0
C1813 C 0.46439 0.70706 0.4266 0.0
C1814 C 0.51604 0.68763 0.42594 0.0
C1815 C 0.53039 0.26334 0.68366 0.0
C1816 C 0.48141 0.24265 0.68029 0.0
C1817 C 0.54114 0.31606 0.68195 0.0
C1818 C 0.50335 0.35086 0.67688 0.0
H1819 H 0.56097 0.23867 0.68778 0.0
H1820 H 0.57899 0.32979 0.68509 0.0
S1821 S 0.36961 0.31719 0.66575 0.0
N1822 N 0.39529 0.26189 0.67101 0.0
N1823 N 0.4153 0.36062 0.66797 0.0
C1824 C 0.45444 0.33084 0.67326 0.0
C1825 C 0.44356 0.277 0.67488 0.0
C1826 C 1.01253 0.2714 0.93559 0.0
C1827 C 0.98282 0.30051 0.92536 0.0
C1828 C 0.06351 0.25683 0.93215 0.0
C1829 C 0.08699 0.26961 0.91814 0.0
H1830 H 0.99617 0.25958 0.9464 0.0
H1831 H 0.08422 0.23422 0.94048 0.0
S1832 S 0.02511 0.34447 0.88715 0.0
N1833 N 0.98047 0.34165 0.90057 0.0
N1834 N 0.07569 0.31343 0.89391 0.0
C1835 C 0.05764 0.29892 0.90778 0.0
C1836 C 1.00587 0.31458 0.91144 0.0
C1837 C 0.0297 0.73369 0.18014 0.0
C1838 C 0.97678 0.72242 0.17857 0.0
C1839 C 0.04788 0.78523 0.17993 0.0
C1840 C 1.01377 0.82733 0.1782 0.0
H1841 H 0.05678 0.70286 0.18233 0.0
H1842 H 0.0885 0.79219 0.18184 0.0
S1843 S 0.87287 0.81742 0.17121 0.0
N1844 N 0.89179 0.75736 0.17353 0.0
N1845 N 0.92529 0.8527 0.17304 0.0
C1846 C 0.9614 0.81584 0.17567 0.0
C1847 C 0.94315 0.76393 0.17589 0.0
C1848 C 0.50884 0.71734 0.93287 0.0
C1849 C 0.46574 0.74725 0.92889 0.0
C1850 C 0.55899 0.73635 0.93172 0.0
C1851 C 0.56921 0.78667 0.92664 0.0
H1852 H 0.50401 0.67846 0.93707 0.0
H1853 H 0.59005 0.71103 0.93514 0.0
S1854 S 0.47023 0.88038 0.91378 0.0
N1855 N 0.43645 0.82913 0.91874 0.0
N1856 N 0.53138 0.86571 0.91683 0.0
C1857 C 0.52665 0.81686 0.92208 0.0
C1858 C 0.4749 0.79697 0.92313 0.0
C1859 C 0.9535 0.69329 0.69261 0.0
C1860 C 0.99253 0.67997 0.68212 0.0
C1861 C 0.93079 0.74234 0.69269 0.0
C1862 C 0.94578 0.78077 0.68227 0.0
H1863 H 0.94054 0.66578 0.70105 0.0
H1864 H 0.90139 0.75016 0.70116 0.0
S1865 S 0.04482 0.76558 0.65189 0.0
N1866 N 0.04408 0.70934 0.66062 0.0
N1867 N 1.0015 0.80132 0.66076 0.0
C1868 C 0.98414 0.76784 0.67149 0.0
C1869 C 1.00741 0.71767 0.67142 0.0
C1870 C 0.96613 0.3121 0.44032 0.0
C1871 C 0.95075 0.27377 0.43002 0.0
C1872 C 1.01592 0.33307 0.44005 0.0
C1873 C 0.05371 0.31709 0.42947 0.0
H1874 H 0.93946 0.32636 0.44884 0.0
H1875 H 0.02465 0.36238 0.44837 0.0
S1876 S 0.03403 0.21835 0.39963 0.0
N1877 N 0.97801 0.22077 0.40864 0.0
N1878 N 0.07179 0.26041 0.40816 0.0
C1879 C 0.03931 0.27862 0.41905 0.0
C1880 C 0.98799 0.25707 0.41929 0.0
C1881 C 0.57449 0.2671 0.17952 0.0
C1882 C 0.55401 0.21739 0.17718 0.0
C1883 C 0.54434 0.31181 0.17759 0.0
C1884 C 0.49213 0.30866 0.17348 0.0
H1885 H 0.61411 0.27161 0.18312 0.0
H1886 H 0.56134 0.34885 0.18006 0.0
S1887 S 0.42043 0.18885 0.16483 0.0
N1888 N 0.47869 0.16867 0.16945 0.0
N1889 N 0.422 0.25213 0.16622 0.0
C1890 C 0.47164 0.2595 0.17059 0.0
C1891 C 0.50251 0.21409 0.17231 0.0
C1892 C 0.54113 0.24681 0.59172 0.0
C1893 C 0.58605 0.2771 0.59288 0.0
C1894 C 0.49164 0.26971 0.59085 0.0
C1895 C 0.48558 0.32358 0.59104 0.0
H1896 H 0.54435 0.20543 0.59083 0.0
H1897 H 0.45828 0.24528 0.58934 0.0
S1898 S 0.5897 0.41926 0.59673 0.0
N1899 N 0.61993 0.36344 0.59624 0.0
N1900 N 0.52806 0.40584 0.5944 0.0
C1901 C 0.52987 0.35378 0.59313 0.0
C1902 C 0.57975 0.33072 0.59411 0.0
C1903 C 0.54148 0.77039 0.35072 0.0
C1904 C 0.53814 0.80489 0.33837 0.0
C1905 C 0.52135 0.71982 0.34974 0.0
C1906 C 0.49735 0.70221 0.33635 0.0
H1907 H 0.55692 0.78346 0.36146 0.0
H1908 H 0.52191 0.69556 0.35975 0.0
S1909 S 0.48726 0.77493 0.30008 0.0
N1910 N 0.51463 0.81566 0.31191 0.0
N1911 N 0.47797 0.72169 0.30993 0.0
C1912 C 0.49749 0.73539 0.32366 0.0
C1913 C 0.5175 0.7864 0.3247 0.0
C1914 C 0.06014 0.79907 0.0765 0.0
C1915 C 0.07325 0.76336 0.08786 0.0
C1916 C 1.01003 0.81829 0.07511 0.0
C1917 C 0.97013 0.80336 0.0851 0.0
H1918 H 0.08911 0.81293 0.06859 0.0
H1919 H 1.00308 0.84616 0.06619 0.0
S1920 S 0.98327 0.70876 0.11654 0.0
N1921 N 0.0417 0.71177 0.10899 0.0
N1922 N 0.94702 0.7486 0.10654 0.0
C1923 C 0.98209 0.76635 0.0963 0.0
C1924 C 0.03363 0.74619 0.09763 0.0
C1925 C 0.98674 0.31321 0.83089 0.0
C1926 C 0.03005 0.325 0.83981 0.0
C1927 C 0.96809 0.26303 0.82957 0.0
C1928 C 0.99127 0.2213 0.83717 0.0
H1929 H 0.96657 0.34311 0.82472 0.0
H1930 H 0.93445 0.25735 0.82253 0.0
S1931 S 0.1063 0.2303 0.86203 0.0
N1932 N 0.0965 0.29009 0.85633 0.0
N1933 N 0.06072 0.19533 0.85404 0.0
C1934 C 0.03489 0.23207 0.84616 0.0
C1935 C 0.05442 0.2838 0.84741 0.0
loop_
_geom_bond_atom_site_label_1
_geom_bond_atom_site_label_2
_geom_bond_distance
_geom_bond_site_symmetry_2
_ccdc_geom_bond_type
Co0 N4 2.148 . S
Co0 N10 2.128 . S
Co0 N20 2.194 . S
Co0 O25 2.351 . S
Co0 O26 2.155 . S
Co0 O27 2.096 . S
C1 N4 1.301 . S
C1 N5 1.328 . S
C1 H6 0.930 . S
C2 C3 1.333 . S
C2 N4 1.317 . S
C2 H7 0.930 . S
C3 C2 1.333 . S
C3 N5 1.350 . S
C3 H29 0.931 . S
N4 Co0 2.148 . S
N4 C1 1.301 . S
N4 C2 1.317 . S
N5 C1 1.328 . S
N5 C3 1.350 . S
H6 C1 0.930 . S
H7 C2 0.930 . S
C8 O9 1.224 . S
C8 O27 1.247 . S
O9 C8 1.224 . S
N10 Co0 2.128 . S
N10 C11 1.355 . S
N10 C13 1.311 . S
C11 N10 1.355 . S
C11 C12 1.363 . S
C11 H23 0.929 . S
C12 C11 1.363 . S
C12 N14 1.375 . S
C12 H30 0.931 . S
C13 N10 1.311 . S
C13 N14 1.347 . S
C13 H24 0.929 . S
N14 C12 1.375 . S
N14 C13 1.347 . S
C15 C18 1.365 . S
C15 N20 1.328 . S
C15 H21 0.929 . S
C16 C17 1.362 . S
C16 C19 1.378 . S
C16 H31 0.929 . S
C17 C16 1.362 . S
C17 C18 1.366 . S
C18 C15 1.365 . S
C18 C17 1.366 . S
C18 H32 0.930 . S
C19 C16 1.378 . S
C19 N20 1.315 . S
C19 H22 0.930 . S
N20 Co0 2.194 . S
N20 C15 1.328 . S
N20 C19 1.315 . S
H21 C15 0.929 . S
H22 C19 0.930 . S
H23 C11 0.929 . S
H24 C13 0.929 . S
O25 Co0 2.351 . S
O25 C28 1.244 . S
O26 Co0 2.155 . S
O26 C28 1.240 . S
O27 Co0 2.096 . S
O27 C8 1.247 . S
C28 O25 1.244 . S
C28 O26 1.240 . S
H29 C3 0.931 . S
H30 C12 0.931 . S
H31 C16 0.929 . S
H32 C18 0.930 . S
Co33 N37 2.148 . S
Co33 N43 2.128 1_455 S
Co33 N53 2.194 . S
Co33 O58 2.351 1_545 S
Co33 O59 2.155 . S
Co33 O60 2.096 . S
C34 N37 1.301 . S
C34 N38 1.328 . S
C34 H39 0.909 1_545 S
C35 C36 1.333 . S
C35 N37 1.317 . S
C35 H40 0.930 . S
C36 C35 1.333 . S
C36 N38 1.350 . S
C36 H62 0.931 . S
N37 Co33 2.148 . S
N37 C34 1.301 . S
N37 C35 1.317 . S
N38 C34 1.328 . S
N38 C36 1.350 . S
H39 C34 0.909 1_565 S
H40 C35 0.930 . S
C41 O42 1.224 . S
C41 O60 1.247 . S
O42 C41 1.224 . S
N43 Co33 2.128 1_655 S
N43 C44 1.355 1_545 S
N43 C46 1.311 . S
C44 N43 1.355 1_565 S
C44 C45 1.363 . S
C44 H56 0.936 . S
C45 C44 1.363 . S
C45 N47 1.375 1_565 S
C45 H63 0.931 . S
C46 N43 1.311 . S
C46 N47 1.347 . S
C46 H57 0.929 . S
N47 C45 1.375 1_545 S
N47 C46 1.347 . S
C48 C51 1.365 . S
C48 N53 1.328 1_565 S
C48 H54 0.929 . S
C49 C50 1.362 1_545 S
C49 C52 1.378 . S
C49 H64 0.929 . S
C50 C49 1.362 1_565 S
C50 C51 1.366 . S
C51 C48 1.365 . S
C51 C50 1.366 . S
C51 H65 0.930 . S
C52 C49 1.378 . S
C52 N53 1.315 . S
C52 H55 0.930 . S
N53 Co33 2.194 . S
N53 C48 1.328 1_545 S
N53 C52 1.315 . S
H54 C48 0.929 . S
H55 C52 0.930 . S
H56 C44 0.936 . S
H57 C46 0.929 . S
O58 Co33 2.351 1_565 S
O58 C61 1.244 . S
O59 Co33 2.155 . S
O59 C61 1.240 1_545 S
O60 Co33 2.096 . S
O60 C41 1.247 . S
C61 O58 1.244 . S
C61 O59 1.240 1_565 S
H62 C36 0.931 . S
H63 C45 0.931 . S
H64 C49 0.929 . S
H65 C51 0.930 . S
Co66 N70 2.148 . S
Co66 N76 2.128 . S
Co66 N86 2.194 . S
Co66 O91 2.351 . S
Co66 O92 2.155 . S
Co66 O93 2.096 . S
C67 N70 1.301 . S
C67 N71 1.328 . S
C67 H72 0.930 . S
C68 C69 1.333 . S
C68 N70 1.317 . S
C68 H73 0.930 . S
C69 C68 1.333 . S
C69 N71 1.350 . S
C69 H95 0.931 . S
N70 Co66 2.148 . S
N70 C67 1.301 . S
N70 C68 1.317 . S
N71 C67 1.328 . S
N71 C69 1.350 . S
H72 C67 0.930 . S
H73 C68 0.930 . S
C74 O75 1.224 . S
C74 O93 1.247 . S
O75 C74 1.224 . S
N76 Co66 2.128 . S
N76 C77 1.355 . S
N76 C79 1.311 . S
C77 N76 1.355 . S
C77 C78 1.363 . S
C77 H89 0.929 . S
C78 C77 1.363 . S
C78 N80 1.375 . S
C78 H96 0.931 . S
C79 N76 1.311 . S
C79 N80 1.347 . S
C79 H90 0.929 . S
N80 C78 1.375 . S
N80 C79 1.347 . S
C81 C84 1.365 . S
C81 N86 1.328 . S
C81 H87 0.929 . S
C82 C83 1.362 . S
C82 C85 1.378 . S
C82 H97 0.929 . S
C83 C82 1.362 . S
C83 C84 1.366 . S
C84 C81 1.365 . S
C84 C83 1.366 . S
C84 H98 0.930 . S
C85 C82 1.378 . S
C85 N86 1.315 . S
C85 H88 0.930 . S
N86 Co66 2.194 . S
N86 C81 1.328 . S
N86 C85 1.315 . S
H87 C81 0.929 . S
H88 C85 0.930 . S
H89 C77 0.929 . S
H90 C79 0.929 . S
O91 Co66 2.351 . S
O91 C94 1.244 . S
O92 Co66 2.155 . S
O92 C94 1.240 . S
O93 Co66 2.096 . S
O93 C74 1.247 . S
C94 O91 1.244 . S
C94 O92 1.240 . S
H95 C69 0.931 . S
H96 C78 0.931 . S
H97 C82 0.929 . S
H98 C84 0.930 . S
Co99 N103 2.148 . S
Co99 N109 2.128 . S
Co99 N119 2.194 . S
Co99 O124 2.351 1_565 S
Co99 O125 2.155 . S
Co99 O126 2.096 . S
C100 N103 1.301 . S
C100 N104 1.328 . S
C100 H105 0.908 1_565 S
C101 C102 1.333 . S
C101 N103 1.317 . S
C101 H106 0.930 . S
C102 C101 1.333 . S
C102 N104 1.350 . S
C102 H128 0.931 . S
N103 Co99 2.148 . S
N103 C100 1.301 . S
N103 C101 1.317 . S
N104 C100 1.328 . S
N104 C102 1.350 . S
H105 C100 0.908 1_545 S
H106 C101 0.930 . S
C107 O108 1.224 . S
C107 O126 1.247 . S
O108 C107 1.224 . S
N109 Co99 2.128 . S
N109 C110 1.355 1_565 S
N109 C112 1.311 . S
C110 N109 1.355 1_545 S
C110 C111 1.363 . S
C110 H122 0.929 . S
C111 C110 1.363 . S
C111 N113 1.375 1_545 S
C111 H129 0.931 . S
C112 N109 1.311 . S
C112 N113 1.347 . S
C112 H123 0.929 . S
N113 C111 1.375 1_565 S
N113 C112 1.347 . S
C114 C117 1.365 . S
C114 N119 1.328 1_545 S
C114 H120 0.929 . S
C115 C116 1.362 1_565 S
C115 C118 1.378 . S
C115 H130 0.929 . S
C116 C115 1.362 1_545 S
C116 C117 1.366 . S
C117 C114 1.365 . S
C117 C116 1.366 . S
C117 H131 0.930 . S
C118 C115 1.378 . S
C118 N119 1.315 . S
C118 H121 0.930 . S
N119 Co99 2.194 . S
N119 C114 1.328 1_565 S
N119 C118 1.315 . S
H120 C114 0.929 . S
H121 C118 0.930 . S
H122 C110 0.929 . S
H123 C112 0.929 . S
O124 Co99 2.351 1_545 S
O124 C127 1.244 . S
O125 Co99 2.155 . S
O125 C127 1.240 1_565 S
O126 Co99 2.096 . S
O126 C107 1.247 . S
C127 O124 1.244 . S
C127 O125 1.240 1_545 S
H128 C102 0.931 . S
H129 C111 0.931 . S
H130 C115 0.929 . S
H131 C117 0.930 . S
Co132 N136 2.148 . S
Co132 N142 2.128 . S
Co132 N152 2.194 . S
Co132 O157 2.351 . S
Co132 O158 2.155 . S
Co132 O159 2.096 . S
C133 N136 1.301 . S
C133 N137 1.328 . S
C133 H138 0.930 . S
C134 C135 1.333 . S
C134 N136 1.317 . S
C134 H139 0.930 . S
C135 C134 1.333 . S
C135 N137 1.350 . S
C135 H161 0.931 . S
N136 Co132 2.148 . S
N136 C133 1.301 . S
N136 C134 1.317 . S
N137 C133 1.328 . S
N137 C135 1.350 . S
H138 C133 0.930 . S
H139 C134 0.930 . S
C140 O141 1.224 . S
C140 O159 1.247 . S
O141 C140 1.224 . S
N142 Co132 2.128 . S
N142 C143 1.355 . S
N142 C145 1.311 . S
C143 N142 1.355 . S
C143 C144 1.363 . S
C143 H155 0.929 . S
C144 C143 1.363 . S
C144 N146 1.375 . S
C144 H162 0.931 . S
C145 N142 1.311 . S
C145 N146 1.347 . S
C145 H156 0.929 . S
N146 C144 1.375 . S
N146 C145 1.347 . S
C147 C150 1.365 . S
C147 N152 1.328 . S
C147 H153 0.929 . S
C148 C149 1.362 . S
C148 C151 1.378 . S
C148 H163 0.929 . S
C149 C148 1.362 . S
C149 C150 1.366 . S
C150 C147 1.365 . S
C150 C149 1.366 . S
C150 H164 0.930 . S
C151 C148 1.378 . S
C151 N152 1.315 . S
C151 H154 0.930 . S
N152 Co132 2.194 . S
N152 C147 1.328 . S
N152 C151 1.315 . S
H153 C147 0.929 . S
H154 C151 0.930 . S
H155 C143 0.929 . S
H156 C145 0.929 . S
O157 Co132 2.351 . S
O157 C160 1.244 . S
O158 Co132 2.155 . S
O158 C160 1.240 . S
O159 Co132 2.096 . S
O159 C140 1.247 . S
C160 O157 1.244 . S
C160 O158 1.240 . S
H161 C135 0.931 . S
H162 C144 0.931 . S
H163 C148 0.929 . S
H164 C150 0.930 . S
Co165 N169 2.148 . S
Co165 N175 2.128 . S
Co165 N185 2.194 . S
Co165 O190 2.351 1_545 S
Co165 O191 2.155 . S
Co165 O192 2.096 . S
C166 N169 1.301 . S
C166 N170 1.328 . S
C166 H171 0.908 1_545 S
C167 C168 1.333 . S
C167 N169 1.317 . S
C167 H172 0.930 . S
C168 C167 1.333 . S
C168 N170 1.350 . S
C168 H194 0.931 . S
N169 Co165 2.148 . S
N169 C166 1.301 . S
N169 C167 1.317 . S
N170 C166 1.328 . S
N170 C168 1.350 . S
H171 C166 0.908 1_565 S
H172 C167 0.930 . S
C173 O174 1.224 . S
C173 O192 1.247 . S
O174 C173 1.224 . S
N175 Co165 2.128 . S
N175 C176 1.355 1_545 S
N175 C178 1.311 . S
C176 N175 1.355 1_565 S
C176 C177 1.363 . S
C176 H188 0.929 . S
C177 C176 1.363 . S
C177 N179 1.375 1_565 S
C177 H195 0.931 . S
C178 N175 1.311 . S
C178 N179 1.347 . S
C178 H189 0.929 . S
N179 C177 1.375 1_545 S
N179 C178 1.347 . S
C180 C183 1.365 . S
C180 N185 1.328 1_565 S
C180 H186 0.929 . S
C181 C182 1.362 1_545 S
C181 C184 1.378 . S
C181 H196 0.929 . S
C182 C181 1.362 1_565 S
C182 C183 1.366 . S
C183 C180 1.365 . S
C183 C182 1.366 . S
C183 H197 0.930 . S
C184 C181 1.378 . S
C184 N185 1.315 . S
C184 H187 0.930 . S
N185 Co165 2.194 . S
N185 C180 1.328 1_545 S
N185 C184 1.315 . S
H186 C180 0.929 . S
H187 C184 0.930 . S
H188 C176 0.929 . S
H189 C178 0.929 . S
O190 Co165 2.351 1_565 S
O190 C193 1.244 . S
O191 Co165 2.155 . S
O191 C193 1.240 1_545 S
O192 Co165 2.096 . S
O192 C173 1.247 . S
C193 O190 1.244 . S
C193 O191 1.240 1_565 S
H194 C168 0.931 . S
H195 C177 0.931 . S
H196 C181 0.929 . S
H197 C183 0.930 . S
Co198 N202 2.148 . S
Co198 N208 2.128 . S
Co198 N218 2.194 . S
Co198 O223 2.351 . S
Co198 O224 2.155 . S
Co198 O225 2.096 . S
C199 N202 1.301 . S
C199 N203 1.328 . S
C199 H204 0.930 . S
C200 C201 1.333 . S
C200 N202 1.317 . S
C200 H205 0.930 . S
C201 C200 1.333 . S
C201 N203 1.350 . S
C201 H227 0.931 . S
N202 Co198 2.148 . S
N202 C199 1.301 . S
N202 C200 1.317 . S
N203 C199 1.328 . S
N203 C201 1.350 . S
H204 C199 0.930 . S
H205 C200 0.930 . S
C206 O207 1.224 . S
C206 O225 1.247 . S
O207 C206 1.224 . S
N208 Co198 2.128 . S
N208 C209 1.355 . S
N208 C211 1.311 . S
C209 N208 1.355 . S
C209 C210 1.363 . S
C209 H221 0.929 . S
C210 C209 1.363 . S
C210 N212 1.375 . S
C210 H228 0.931 . S
C211 N208 1.311 . S
C211 N212 1.347 . S
C211 H222 0.929 . S
N212 C210 1.375 . S
N212 C211 1.347 . S
C213 C216 1.365 . S
C213 N218 1.328 . S
C213 H219 0.929 . S
C214 C215 1.362 . S
C214 C217 1.378 . S
C214 H229 0.929 . S
C215 C214 1.362 . S
C215 C216 1.366 . S
C216 C213 1.365 . S
C216 C215 1.366 . S
C216 H230 0.930 . S
C217 C214 1.378 . S
C217 N218 1.315 . S
C217 H220 0.930 . S
N218 Co198 2.194 . S
N218 C213 1.328 . S
N218 C217 1.315 . S
H219 C213 0.929 . S
H220 C217 0.930 . S
H221 C209 0.929 . S
H222 C211 0.929 . S
O223 Co198 2.351 . S
O223 C226 1.244 . S
O224 Co198 2.155 . S
O224 C226 1.240 . S
O225 Co198 2.096 . S
O225 C206 1.247 . S
C226 O223 1.244 . S
C226 O224 1.240 . S
H227 C201 0.931 . S
H228 C210 0.931 . S
H229 C214 0.929 . S
H230 C216 0.930 . S
Co231 N235 2.148 . S
Co231 N241 2.128 1_455 S
Co231 N251 2.194 . S
Co231 O256 2.351 1_565 S
Co231 O257 2.155 . S
Co231 O258 2.096 . S
C232 N235 1.301 . S
C232 N236 1.328 . S
C232 H237 0.909 1_565 S
C233 C234 1.333 . S
C233 N235 1.317 . S
C233 H238 0.930 . S
C234 C233 1.333 . S
C234 N236 1.350 . S
C234 H260 0.931 . S
N235 Co231 2.148 . S
N235 C232 1.301 . S
N235 C233 1.317 . S
N236 C232 1.328 . S
N236 C234 1.350 . S
H237 C232 0.909 1_545 S
H238 C233 0.930 . S
C239 O240 1.224 . S
C239 O258 1.247 . S
O240 C239 1.224 . S
N241 Co231 2.128 1_655 S
N241 C242 1.355 1_565 S
N241 C244 1.311 . S
C242 N241 1.355 1_545 S
C242 C243 1.363 . S
C242 H254 0.935 . S
C243 C242 1.363 . S
C243 N245 1.375 1_545 S
C243 H261 0.931 . S
C244 N241 1.311 . S
C244 N245 1.347 . S
C244 H255 0.929 . S
N245 C243 1.375 1_565 S
N245 C244 1.347 . S
C246 C249 1.365 . S
C246 N251 1.328 1_545 S
C246 H252 0.929 . S
C247 C248 1.362 1_565 S
C247 C250 1.378 . S
C247 H262 0.929 . S
C248 C247 1.362 1_545 S
C248 C249 1.366 . S
C249 C246 1.365 . S
C249 C248 1.366 . S
C249 H263 0.930 . S
C250 C247 1.378 . S
C250 N251 1.315 . S
C250 H253 0.930 . S
N251 Co231 2.194 . S
N251 C246 1.328 1_565 S
N251 C250 1.315 . S
H252 C246 0.929 . S
H253 C250 0.930 . S
H254 C242 0.935 . S
H255 C244 0.929 . S
O256 Co231 2.351 1_545 S
O256 C259 1.244 . S
O257 Co231 2.155 . S
O257 C259 1.240 1_565 S
O258 Co231 2.096 . S
O258 C239 1.247 . S
C259 O256 1.244 . S
C259 O257 1.240 1_545 S
H260 C234 0.931 . S
H261 C243 0.931 . S
H262 C247 0.929 . S
H263 C249 0.930 . S
Co264 N268 2.148 . S
Co264 N274 2.128 . S
Co264 N284 2.194 . S
Co264 O289 2.351 . S
Co264 O290 2.155 . S
Co264 O291 2.096 . S
C265 N268 1.301 . S
C265 N269 1.328 . S
C265 H270 0.930 . S
C266 C267 1.333 . S
C266 N268 1.317 . S
C266 H271 0.930 . S
C267 C266 1.333 . S
C267 N269 1.350 . S
C267 H293 0.931 . S
N268 Co264 2.148 . S
N268 C265 1.301 . S
N268 C266 1.317 . S
N269 C265 1.328 . S
N269 C267 1.350 . S
H270 C265 0.930 . S
H271 C266 0.930 . S
C272 O273 1.224 . S
C272 O291 1.247 . S
O273 C272 1.224 . S
N274 Co264 2.128 . S
N274 C275 1.355 . S
N274 C277 1.311 . S
C275 N274 1.355 . S
C275 C276 1.363 . S
C275 H287 0.929 . S
C276 C275 1.363 . S
C276 N278 1.375 . S
C276 H294 0.931 . S
C277 N274 1.311 . S
C277 N278 1.347 . S
C277 H288 0.929 . S
N278 C276 1.375 . S
N278 C277 1.347 . S
C279 C282 1.365 . S
C279 N284 1.328 . S
C279 H285 0.929 . S
C280 C281 1.362 . S
C280 C283 1.378 . S
C280 H295 0.929 . S
C281 C280 1.362 . S
C281 C282 1.366 . S
C282 C279 1.365 . S
C282 C281 1.366 . S
C282 H296 0.930 . S
C283 C280 1.378 . S
C283 N284 1.315 . S
C283 H286 0.930 . S
N284 Co264 2.194 . S
N284 C279 1.328 . S
N284 C283 1.315 . S
H285 C279 0.929 . S
H286 C283 0.930 . S
H287 C275 0.929 . S
H288 C277 0.929 . S
O289 Co264 2.351 . S
O289 C292 1.244 . S
O290 Co264 2.155 . S
O290 C292 1.240 . S
O291 Co264 2.096 . S
O291 C272 1.247 . S
C292 O289 1.244 . S
C292 O290 1.240 . S
H293 C267 0.931 . S
H294 C276 0.931 . S
H295 C280 0.929 . S
H296 C282 0.930 . S
Co297 N301 2.148 . S
Co297 N307 2.128 1_655 S
Co297 N317 2.194 . S
Co297 O322 2.351 1_565 S
Co297 O323 2.155 . S
Co297 O324 2.096 . S
C298 N301 1.301 . S
C298 N302 1.328 . S
C298 H303 0.909 1_565 S
C299 C300 1.333 . S
C299 N301 1.317 . S
C299 H304 0.930 . S
C300 C299 1.333 . S
C300 N302 1.350 . S
C300 H326 0.931 . S
N301 Co297 2.148 . S
N301 C298 1.301 . S
N301 C299 1.317 . S
N302 C298 1.328 . S
N302 C300 1.350 . S
H303 C298 0.909 1_545 S
H304 C299 0.930 . S
C305 O306 1.224 . S
C305 O324 1.247 . S
O306 C305 1.224 . S
N307 Co297 2.128 1_455 S
N307 C308 1.355 1_565 S
N307 C310 1.311 . S
C308 N307 1.355 1_545 S
C308 C309 1.363 . S
C308 H320 0.936 . S
C309 C308 1.363 . S
C309 N311 1.375 1_545 S
C309 H327 0.931 . S
C310 N307 1.311 . S
C310 N311 1.347 . S
C310 H321 0.929 . S
N311 C309 1.375 1_565 S
N311 C310 1.347 . S
C312 C315 1.365 . S
C312 N317 1.328 1_545 S
C312 H318 0.929 . S
C313 C314 1.362 1_565 S
C313 C316 1.378 . S
C313 H328 0.929 . S
C314 C313 1.362 1_545 S
C314 C315 1.366 . S
C315 C312 1.365 . S
C315 C314 1.366 . S
C315 H329 0.930 . S
C316 C313 1.378 . S
C316 N317 1.315 . S
C316 H319 0.930 . S
N317 Co297 2.194 . S
N317 C312 1.328 1_565 S
N317 C316 1.315 . S
H318 C312 0.929 . S
H319 C316 0.930 . S
H320 C308 0.936 . S
H321 C310 0.929 . S
O322 Co297 2.351 1_545 S
O322 C325 1.244 . S
O323 Co297 2.155 . S
O323 C325 1.240 1_565 S
O324 Co297 2.096 . S
O324 C305 1.247 . S
C325 O322 1.244 . S
C325 O323 1.240 1_545 S
H326 C300 0.931 . S
H327 C309 0.931 . S
H328 C313 0.929 . S
H329 C315 0.930 . S
Co330 N334 2.148 . S
Co330 N340 2.128 . S
Co330 N350 2.194 . S
Co330 O355 2.351 . S
Co330 O356 2.155 . S
Co330 O357 2.096 . S
C331 N334 1.301 . S
C331 N335 1.328 . S
C331 H336 0.930 . S
C332 C333 1.333 . S
C332 N334 1.317 . S
C332 H337 0.930 . S
C333 C332 1.333 . S
C333 N335 1.350 . S
C333 H359 0.931 . S
N334 Co330 2.148 . S
N334 C331 1.301 . S
N334 C332 1.317 . S
N335 C331 1.328 . S
N335 C333 1.350 . S
H336 C331 0.930 . S
H337 C332 0.930 . S
C338 O339 1.224 . S
C338 O357 1.247 . S
O339 C338 1.224 . S
N340 Co330 2.128 . S
N340 C341 1.355 . S
N340 C343 1.311 . S
C341 N340 1.355 . S
C341 C342 1.363 . S
C341 H353 0.929 . S
C342 C341 1.363 . S
C342 N344 1.375 . S
C342 H360 0.931 . S
C343 N340 1.311 . S
C343 N344 1.347 . S
C343 H354 0.929 . S
N344 C342 1.375 . S
N344 C343 1.347 . S
C345 C348 1.365 . S
C345 N350 1.328 . S
C345 H351 0.929 . S
C346 C347 1.362 . S
C346 C349 1.378 . S
C346 H361 0.929 . S
C347 C346 1.362 . S
C347 C348 1.366 . S
C348 C345 1.365 . S
C348 C347 1.366 . S
C348 H362 0.930 . S
C349 C346 1.378 . S
C349 N350 1.315 . S
C349 H352 0.930 . S
N350 Co330 2.194 . S
N350 C345 1.328 . S
N350 C349 1.315 . S
H351 C345 0.929 . S
H352 C349 0.930 . S
H353 C341 0.929 . S
H354 C343 0.929 . S
O355 Co330 2.351 . S
O355 C358 1.244 . S
O356 Co330 2.155 . S
O356 C358 1.240 . S
O357 Co330 2.096 . S
O357 C338 1.247 . S
C358 O355 1.244 . S
C358 O356 1.240 . S
H359 C333 0.931 . S
H360 C342 0.931 . S
H361 C346 0.929 . S
H362 C348 0.930 . S
Co363 N367 2.148 . S
Co363 N373 2.128 . S
Co363 N383 2.194 . S
Co363 O388 2.351 1_545 S
Co363 O389 2.155 . S
Co363 O390 2.096 . S
C364 N367 1.301 . S
C364 N368 1.328 . S
C364 H369 0.908 1_545 S
C365 C366 1.333 . S
C365 N367 1.317 . S
C365 H370 0.930 . S
C366 C365 1.333 . S
C366 N368 1.350 . S
C366 H392 0.931 . S
N367 Co363 2.148 . S
N367 C364 1.301 . S
N367 C365 1.317 . S
N368 C364 1.328 . S
N368 C366 1.350 . S
H369 C364 0.908 1_565 S
H370 C365 0.930 . S
C371 O372 1.224 . S
C371 O390 1.247 . S
O372 C371 1.224 . S
N373 Co363 2.128 . S
N373 C374 1.355 1_545 S
N373 C376 1.311 . S
C374 N373 1.355 1_565 S
C374 C375 1.363 . S
C374 H386 0.929 . S
C375 C374 1.363 . S
C375 N377 1.375 1_565 S
C375 H393 0.931 . S
C376 N373 1.311 . S
C376 N377 1.347 . S
C376 H387 0.929 . S
N377 C375 1.375 1_545 S
N377 C376 1.347 . S
C378 C381 1.365 . S
C378 N383 1.328 1_565 S
C378 H384 0.929 . S
C379 C380 1.362 1_545 S
C379 C382 1.378 . S
C379 H394 0.929 . S
C380 C379 1.362 1_565 S
C380 C381 1.366 . S
C381 C378 1.365 . S
C381 C380 1.366 . S
C381 H395 0.930 . S
C382 C379 1.378 . S
C382 N383 1.315 . S
C382 H385 0.930 . S
N383 Co363 2.194 . S
N383 C378 1.328 1_545 S
N383 C382 1.315 . S
H384 C378 0.929 . S
H385 C382 0.930 . S
H386 C374 0.929 . S
H387 C376 0.929 . S
O388 Co363 2.351 1_565 S
O388 C391 1.244 . S
O389 Co363 2.155 . S
O389 C391 1.240 1_545 S
O390 Co363 2.096 . S
O390 C371 1.247 . S
C391 O388 1.244 . S
C391 O389 1.240 1_565 S
H392 C366 0.931 . S
H393 C375 0.931 . S
H394 C379 0.929 . S
H395 C381 0.930 . S
Co396 N400 2.148 . S
Co396 N406 2.128 . S
Co396 N416 2.194 . S
Co396 O421 2.351 . S
Co396 O422 2.155 . S
Co396 O423 2.096 . S
C397 N400 1.301 . S
C397 N401 1.328 . S
C397 H402 0.930 . S
C398 C399 1.333 . S
C398 N400 1.317 . S
C398 H403 0.930 . S
C399 C398 1.333 . S
C399 N401 1.350 . S
C399 H425 0.931 . S
N400 Co396 2.148 . S
N400 C397 1.301 . S
N400 C398 1.317 . S
N401 C397 1.328 . S
N401 C399 1.350 . S
H402 C397 0.930 . S
H403 C398 0.930 . S
C404 O405 1.224 . S
C404 O423 1.247 . S
O405 C404 1.224 . S
N406 Co396 2.128 . S
N406 C407 1.355 . S
N406 C409 1.311 . S
C407 N406 1.355 . S
C407 C408 1.363 . S
C407 H419 0.929 . S
C408 C407 1.363 . S
C408 N410 1.375 . S
C408 H426 0.931 . S
C409 N406 1.311 . S
C409 N410 1.347 . S
C409 H420 0.929 . S
N410 C408 1.375 . S
N410 C409 1.347 . S
C411 C414 1.365 . S
C411 N416 1.328 . S
C411 H417 0.929 . S
C412 C413 1.362 . S
C412 C415 1.378 . S
C412 H427 0.929 . S
C413 C412 1.362 . S
C413 C414 1.366 . S
C414 C411 1.365 . S
C414 C413 1.366 . S
C414 H428 0.930 . S
C415 C412 1.378 . S
C415 N416 1.315 . S
C415 H418 0.930 . S
N416 Co396 2.194 . S
N416 C411 1.328 . S
N416 C415 1.315 . S
H417 C411 0.929 . S
H418 C415 0.930 . S
H419 C407 0.929 . S
H420 C409 0.929 . S
O421 Co396 2.351 . S
O421 C424 1.244 . S
O422 Co396 2.155 . S
O422 C424 1.240 . S
O423 Co396 2.096 . S
O423 C404 1.247 . S
C424 O421 1.244 . S
C424 O422 1.240 . S
H425 C399 0.931 . S
H426 C408 0.931 . S
H427 C412 0.929 . S
H428 C414 0.930 . S
Co429 N433 2.148 . S
Co429 N439 2.128 . S
Co429 N449 2.194 . S
Co429 O454 2.351 1_565 S
Co429 O455 2.155 . S
Co429 O456 2.096 . S
C430 N433 1.301 . S
C430 N434 1.328 . S
C430 H435 0.908 1_565 S
C431 C432 1.333 . S
C431 N433 1.317 . S
C431 H436 0.930 . S
C432 C431 1.333 . S
C432 N434 1.350 . S
C432 H458 0.931 . S
N433 Co429 2.148 . S
N433 C430 1.301 . S
N433 C431 1.317 . S
N434 C430 1.328 . S
N434 C432 1.350 . S
H435 C430 0.908 1_545 S
H436 C431 0.930 . S
C437 O438 1.224 . S
C437 O456 1.247 . S
O438 C437 1.224 . S
N439 Co429 2.128 . S
N439 C440 1.355 1_565 S
N439 C442 1.311 . S
C440 N439 1.355 1_545 S
C440 C441 1.363 . S
C440 H452 0.929 . S
C441 C440 1.363 . S
C441 N443 1.375 1_545 S
C441 H459 0.931 . S
C442 N439 1.311 . S
C442 N443 1.347 . S
C442 H453 0.929 . S
N443 C441 1.375 1_565 S
N443 C442 1.347 . S
C444 C447 1.365 . S
C444 N449 1.328 1_545 S
C444 H450 0.929 . S
C445 C446 1.362 1_565 S
C445 C448 1.378 . S
C445 H460 0.929 . S
C446 C445 1.362 1_545 S
C446 C447 1.366 . S
C447 C444 1.365 . S
C447 C446 1.366 . S
C447 H461 0.930 . S
C448 C445 1.378 . S
C448 N449 1.315 . S
C448 H451 0.930 . S
N449 Co429 2.194 . S
N449 C444 1.328 1_565 S
N449 C448 1.315 . S
H450 C444 0.929 . S
H451 C448 0.930 . S
H452 C440 0.929 . S
H453 C442 0.929 . S
O454 Co429 2.351 1_545 S
O454 C457 1.244 . S
O455 Co429 2.155 . S
O455 C457 1.240 1_565 S
O456 Co429 2.096 . S
O456 C437 1.247 . S
C457 O454 1.244 . S
C457 O455 1.240 1_545 S
H458 C432 0.931 . S
H459 C441 0.931 . S
H460 C445 0.929 . S
H461 C447 0.930 . S
Co462 N466 2.148 . S
Co462 N472 2.128 . S
Co462 N482 2.194 . S
Co462 O487 2.351 . S
Co462 O488 2.155 . S
Co462 O489 2.096 . S
C463 N466 1.301 . S
C463 N467 1.328 . S
C463 H468 0.930 . S
C464 C465 1.333 . S
C464 N466 1.317 . S
C464 H469 0.930 . S
C465 C464 1.333 . S
C465 N467 1.350 . S
C465 H491 0.931 . S
N466 Co462 2.148 . S
N466 C463 1.301 . S
N466 C464 1.317 . S
N467 C463 1.328 . S
N467 C465 1.350 . S
H468 C463 0.930 . S
H469 C464 0.930 . S
C470 O471 1.224 . S
C470 O489 1.247 . S
O471 C470 1.224 . S
N472 Co462 2.128 . S
N472 C473 1.355 . S
N472 C475 1.311 . S
C473 N472 1.355 . S
C473 C474 1.363 . S
C473 H485 0.929 . S
C474 C473 1.363 . S
C474 N476 1.375 . S
C474 H492 0.931 . S
C475 N472 1.311 . S
C475 N476 1.347 . S
C475 H486 0.929 . S
N476 C474 1.375 . S
N476 C475 1.347 . S
C477 C480 1.365 . S
C477 N482 1.328 . S
C477 H483 0.929 . S
C478 C479 1.362 . S
C478 C481 1.378 . S
C478 H493 0.929 . S
C479 C478 1.362 . S
C479 C480 1.366 . S
C480 C477 1.365 . S
C480 C479 1.366 . S
C480 H494 0.930 . S
C481 C478 1.378 . S
C481 N482 1.315 . S
C481 H484 0.930 . S
N482 Co462 2.194 . S
N482 C477 1.328 . S
N482 C481 1.315 . S
H483 C477 0.929 . S
H484 C481 0.930 . S
H485 C473 0.929 . S
H486 C475 0.929 . S
O487 Co462 2.351 . S
O487 C490 1.244 . S
O488 Co462 2.155 . S
O488 C490 1.240 . S
O489 Co462 2.096 . S
O489 C470 1.247 . S
C490 O487 1.244 . S
C490 O488 1.240 . S
H491 C465 0.931 . S
H492 C474 0.931 . S
H493 C478 0.929 . S
H494 C480 0.930 . S
Co495 N499 2.148 . S
Co495 N505 2.128 1_655 S
Co495 N515 2.194 . S
Co495 O520 2.351 1_545 S
Co495 O521 2.155 . S
Co495 O522 2.096 . S
C496 N499 1.301 . S
C496 N500 1.328 . S
C496 H501 0.909 1_545 S
C497 C498 1.333 . S
C497 N499 1.317 . S
C497 H502 0.930 . S
C498 C497 1.333 . S
C498 N500 1.350 . S
C498 H524 0.931 . S
N499 Co495 2.148 . S
N499 C496 1.301 . S
N499 C497 1.317 . S
N500 C496 1.328 . S
N500 C498 1.350 . S
H501 C496 0.909 1_565 S
H502 C497 0.930 . S
C503 O504 1.224 . S
C503 O522 1.247 . S
O504 C503 1.224 . S
N505 Co495 2.128 1_455 S
N505 C506 1.355 1_545 S
N505 C508 1.311 . S
C506 N505 1.355 1_565 S
C506 C507 1.363 . S
C506 H518 0.935 . S
C507 C506 1.363 . S
C507 N509 1.375 1_565 S
C507 H525 0.931 . S
C508 N505 1.311 . S
C508 N509 1.347 . S
C508 H519 0.929 . S
N509 C507 1.375 1_545 S
N509 C508 1.347 . S
C510 C513 1.365 . S
C510 N515 1.328 1_565 S
C510 H516 0.929 . S
C511 C512 1.362 1_545 S
C511 C514 1.378 . S
C511 H526 0.929 . S
C512 C511 1.362 1_565 S
C512 C513 1.366 . S
C513 C510 1.365 . S
C513 C512 1.366 . S
C513 H527 0.930 . S
C514 C511 1.378 . S
C514 N515 1.315 . S
C514 H517 0.930 . S
N515 Co495 2.194 . S
N515 C510 1.328 1_545 S
N515 C514 1.315 . S
H516 C510 0.929 . S
H517 C514 0.930 . S
H518 C506 0.935 . S
H519 C508 0.929 . S
O520 Co495 2.351 1_565 S
O520 C523 1.244 . S
O521 Co495 2.155 . S
O521 C523 1.240 1_545 S
O522 Co495 2.096 . S
O522 C503 1.247 . S
C523 O520 1.244 . S
C523 O521 1.240 1_565 S
H524 C498 0.931 . S
H525 C507 0.931 . S
H526 C511 0.929 . S
H527 C513 0.930 . S
Co528 N532 2.148 . S
Co528 N538 2.128 . S
Co528 N548 2.194 . S
Co528 O553 2.351 . S
Co528 O554 2.155 . S
Co528 O555 2.096 . S
C529 N532 1.301 . S
C529 N533 1.328 . S
C529 H534 0.930 . S
C530 C531 1.333 . S
C530 N532 1.317 . S
C530 H535 0.930 . S
C531 C530 1.333 . S
C531 N533 1.350 . S
C531 H557 0.931 . S
N532 Co528 2.148 . S
N532 C529 1.301 . S
N532 C530 1.317 . S
N533 C529 1.328 . S
N533 C531 1.350 . S
H534 C529 0.930 . S
H535 C530 0.930 . S
C536 O537 1.224 . S
C536 O555 1.247 . S
O537 C536 1.224 . S
N538 Co528 2.128 . S
N538 C539 1.355 . S
N538 C541 1.311 . S
C539 N538 1.355 . S
C539 C540 1.363 . S
C539 H551 0.929 . S
C540 C539 1.363 . S
C540 N542 1.375 . S
C540 H558 0.931 . S
C541 N538 1.311 . S
C541 N542 1.347 . S
C541 H552 0.929 . S
N542 C540 1.375 . S
N542 C541 1.347 . S
C543 C546 1.365 . S
C543 N548 1.328 . S
C543 H549 0.929 . S
C544 C545 1.362 . S
C544 C547 1.378 . S
C544 H559 0.929 . S
C545 C544 1.362 . S
C545 C546 1.366 . S
C546 C543 1.365 . S
C546 C545 1.366 . S
C546 H560 0.930 . S
C547 C544 1.378 . S
C547 N548 1.315 . S
C547 H550 0.930 . S
N548 Co528 2.194 . S
N548 C543 1.328 . S
N548 C547 1.315 . S
H549 C543 0.929 . S
H550 C547 0.930 . S
H551 C539 0.929 . S
H552 C541 0.929 . S
O553 Co528 2.351 . S
O553 C556 1.244 . S
O554 Co528 2.155 . S
O554 C556 1.240 . S
O555 Co528 2.096 . S
O555 C536 1.247 . S
C556 O553 1.244 . S
C556 O554 1.240 . S
H557 C531 0.931 . S
H558 C540 0.931 . S
H559 C544 0.929 . S
H560 C546 0.930 . S
Co561 N565 2.148 . S
Co561 N571 2.128 . S
Co561 N581 2.194 . S
Co561 O586 2.351 . S
Co561 O587 2.155 . S
Co561 O588 2.096 . S
C562 N565 1.301 . S
C562 N566 1.328 . S
C562 H567 0.930 . S
C563 C564 1.333 . S
C563 N565 1.317 . S
C563 H568 0.930 . S
C564 C563 1.333 . S
C564 N566 1.350 . S
C564 H590 0.931 . S
N565 Co561 2.148 . S
N565 C562 1.301 . S
N565 C563 1.317 . S
N566 C562 1.328 . S
N566 C564 1.350 . S
H567 C562 0.930 . S
H568 C563 0.930 . S
C569 O570 1.224 . S
C569 O588 1.247 . S
O570 C569 1.224 . S
N571 Co561 2.128 . S
N571 C572 1.355 . S
N571 C574 1.311 . S
C572 N571 1.355 . S
C572 C573 1.363 . S
C572 H584 0.929 . S
C573 C572 1.363 . S
C573 N575 1.375 . S
C573 H591 0.931 . S
C574 N571 1.311 . S
C574 N575 1.347 . S
C574 H585 0.929 . S
N575 C573 1.375 . S
N575 C574 1.347 . S
C576 C579 1.365 . S
C576 N581 1.328 . S
C576 H582 0.929 . S
C577 C578 1.362 . S
C577 C580 1.378 . S
C577 H592 0.929 . S
C578 C577 1.362 . S
C578 C579 1.366 . S
C579 C576 1.365 . S
C579 C578 1.366 . S
C579 H593 0.930 . S
C580 C577 1.378 . S
C580 N581 1.315 . S
C580 H583 0.930 . S
N581 Co561 2.194 . S
N581 C576 1.328 . S
N581 C580 1.315 . S
H582 C576 0.929 . S
H583 C580 0.930 . S
H584 C572 0.929 . S
H585 C574 0.929 . S
O586 Co561 2.351 . S
O586 C589 1.244 . S
O587 Co561 2.155 . S
O587 C589 1.240 . S
O588 Co561 2.096 . S
O588 C569 1.247 . S
C589 O586 1.244 . S
C589 O587 1.240 . S
H590 C564 0.931 . S
H591 C573 0.931 . S
H592 C577 0.929 . S
H593 C579 0.930 . S
Co594 N598 2.148 . S
Co594 N604 2.128 . S
Co594 N614 2.194 . S
Co594 O619 2.351 . S
Co594 O620 2.155 . S
Co594 O621 2.096 . S
C595 N598 1.301 . S
C595 N599 1.328 . S
C595 H600 0.930 . S
C596 C597 1.333 . S
C596 N598 1.317 . S
C596 H601 0.930 . S
C597 C596 1.333 . S
C597 N599 1.350 . S
C597 H623 0.931 . S
N598 Co594 2.148 . S
N598 C595 1.301 . S
N598 C596 1.317 . S
N599 C595 1.328 . S
N599 C597 1.350 . S
H600 C595 0.930 . S
H601 C596 0.930 . S
C602 O603 1.224 . S
C602 O621 1.247 . S
O603 C602 1.224 . S
N604 Co594 2.128 . S
N604 C605 1.355 . S
N604 C607 1.311 . S
C605 N604 1.355 . S
C605 C606 1.363 . S
C605 H617 0.929 . S
C606 C605 1.363 . S
C606 N608 1.375 . S
C606 H624 0.931 . S
C607 N604 1.311 . S
C607 N608 1.347 . S
C607 H618 0.929 . S
N608 C606 1.375 . S
N608 C607 1.347 . S
C609 C612 1.365 . S
C609 N614 1.328 . S
C609 H615 0.929 . S
C610 C611 1.362 . S
C610 C613 1.378 . S
C610 H625 0.929 . S
C611 C610 1.362 . S
C611 C612 1.366 . S
C612 C609 1.365 . S
C612 C611 1.366 . S
C612 H626 0.930 . S
C613 C610 1.378 . S
C613 N614 1.315 . S
C613 H616 0.930 . S
N614 Co594 2.194 . S
N614 C609 1.328 . S
N614 C613 1.315 . S
H615 C609 0.929 . S
H616 C613 0.930 . S
H617 C605 0.929 . S
H618 C607 0.929 . S
O619 Co594 2.351 . S
O619 C622 1.244 . S
O620 Co594 2.155 . S
O620 C622 1.240 . S
O621 Co594 2.096 . S
O621 C602 1.247 . S
C622 O619 1.244 . S
C622 O620 1.240 . S
H623 C597 0.931 . S
H624 C606 0.931 . S
H625 C610 0.929 . S
H626 C612 0.930 . S
Co627 N631 2.148 . S
Co627 N637 2.128 1_655 S
Co627 N647 2.194 . S
Co627 O652 2.351 . S
Co627 O653 2.155 . S
Co627 O654 2.096 . S
C628 N631 1.301 . S
C628 N632 1.328 . S
C628 H633 0.930 . S
C629 C630 1.333 . S
C629 N631 1.317 . S
C629 H634 0.930 . S
C630 C629 1.333 . S
C630 N632 1.350 . S
C630 H656 0.931 . S
N631 Co627 2.148 . S
N631 C628 1.301 . S
N631 C629 1.317 . S
N632 C628 1.328 . S
N632 C630 1.350 . S
H633 C628 0.930 . S
H634 C629 0.930 . S
C635 O636 1.224 . S
C635 O654 1.247 . S
O636 C635 1.224 . S
N637 Co627 2.128 1_455 S
N637 C638 1.355 . S
N637 C640 1.311 . S
C638 N637 1.355 . S
C638 C639 1.363 . S
C638 H650 0.935 . S
C639 C638 1.363 . S
C639 N641 1.375 . S
C639 H657 0.931 . S
C640 N637 1.311 . S
C640 N641 1.347 . S
C640 H651 0.929 . S
N641 C639 1.375 . S
N641 C640 1.347 . S
C642 C645 1.365 . S
C642 N647 1.328 . S
C642 H648 0.929 . S
C643 C644 1.362 . S
C643 C646 1.378 . S
C643 H658 0.929 . S
C644 C643 1.362 . S
C644 C645 1.366 . S
C645 C642 1.365 . S
C645 C644 1.366 . S
C645 H659 0.930 . S
C646 C643 1.378 . S
C646 N647 1.315 . S
C646 H649 0.930 . S
N647 Co627 2.194 . S
N647 C642 1.328 . S
N647 C646 1.315 . S
H648 C642 0.929 . S
H649 C646 0.930 . S
H650 C638 0.935 . S
H651 C640 0.929 . S
O652 Co627 2.351 . S
O652 C655 1.244 . S
O653 Co627 2.155 . S
O653 C655 1.240 . S
O654 Co627 2.096 . S
O654 C635 1.247 . S
C655 O652 1.244 . S
C655 O653 1.240 . S
H656 C630 0.931 . S
H657 C639 0.931 . S
H658 C643 0.929 . S
H659 C645 0.930 . S
Co660 N664 2.148 . S
Co660 N670 2.128 . S
Co660 N680 2.194 . S
Co660 O685 2.351 . S
Co660 O686 2.155 . S
Co660 O687 2.096 . S
C661 N664 1.301 . S
C661 N665 1.328 . S
C661 H666 0.930 . S
C662 C663 1.333 . S
C662 N664 1.317 . S
C662 H667 0.930 . S
C663 C662 1.333 . S
C663 N665 1.350 . S
C663 H689 0.931 . S
N664 Co660 2.148 . S
N664 C661 1.301 . S
N664 C662 1.317 . S
N665 C661 1.328 . S
N665 C663 1.350 . S
H666 C661 0.930 . S
H667 C662 0.930 . S
C668 O669 1.224 . S
C668 O687 1.247 . S
O669 C668 1.224 . S
N670 Co660 2.128 . S
N670 C671 1.355 . S
N670 C673 1.311 . S
C671 N670 1.355 . S
C671 C672 1.363 . S
C671 H683 0.929 . S
C672 C671 1.363 . S
C672 N674 1.375 . S
C672 H690 0.931 . S
C673 N670 1.311 . S
C673 N674 1.347 . S
C673 H684 0.929 . S
N674 C672 1.375 . S
N674 C673 1.347 . S
C675 C678 1.365 . S
C675 N680 1.328 . S
C675 H681 0.929 . S
C676 C677 1.362 . S
C676 C679 1.378 . S
C676 H691 0.929 . S
C677 C676 1.362 . S
C677 C678 1.366 . S
C678 C675 1.365 . S
C678 C677 1.366 . S
C678 H692 0.930 . S
C679 C676 1.378 . S
C679 N680 1.315 . S
C679 H682 0.930 . S
N680 Co660 2.194 . S
N680 C675 1.328 . S
N680 C679 1.315 . S
H681 C675 0.929 . S
H682 C679 0.930 . S
H683 C671 0.929 . S
H684 C673 0.929 . S
O685 Co660 2.351 . S
O685 C688 1.244 . S
O686 Co660 2.155 . S
O686 C688 1.240 . S
O687 Co660 2.096 . S
O687 C668 1.247 . S
C688 O685 1.244 . S
C688 O686 1.240 . S
H689 C663 0.931 . S
H690 C672 0.931 . S
H691 C676 0.929 . S
H692 C678 0.930 . S
Co693 N697 2.148 . S
Co693 N703 2.128 1_655 S
Co693 N713 2.194 . S
Co693 O718 2.351 . S
Co693 O719 2.155 . S
Co693 O720 2.096 . S
C694 N697 1.301 . S
C694 N698 1.328 . S
C694 H699 0.930 . S
C695 C696 1.333 . S
C695 N697 1.317 . S
C695 H700 0.930 . S
C696 C695 1.333 . S
C696 N698 1.350 . S
C696 H722 0.931 . S
N697 Co693 2.148 . S
N697 C694 1.301 . S
N697 C695 1.317 . S
N698 C694 1.328 . S
N698 C696 1.350 . S
H699 C694 0.930 . S
H700 C695 0.930 . S
C701 O702 1.224 . S
C701 O720 1.247 . S
O702 C701 1.224 . S
N703 Co693 2.128 1_455 S
N703 C704 1.355 . S
N703 C706 1.311 . S
C704 N703 1.355 . S
C704 C705 1.363 . S
C704 H716 0.936 . S
C705 C704 1.363 . S
C705 N707 1.375 . S
C705 H723 0.931 . S
C706 N703 1.311 . S
C706 N707 1.347 . S
C706 H717 0.929 . S
N707 C705 1.375 . S
N707 C706 1.347 . S
C708 C711 1.365 . S
C708 N713 1.328 . S
C708 H714 0.929 . S
C709 C710 1.362 . S
C709 C712 1.378 . S
C709 H724 0.929 . S
C710 C709 1.362 . S
C710 C711 1.366 . S
C711 C708 1.365 . S
C711 C710 1.366 . S
C711 H725 0.930 . S
C712 C709 1.378 . S
C712 N713 1.315 . S
C712 H715 0.930 . S
N713 Co693 2.194 . S
N713 C708 1.328 . S
N713 C712 1.315 . S
H714 C708 0.929 . S
H715 C712 0.930 . S
H716 C704 0.936 . S
H717 C706 0.929 . S
O718 Co693 2.351 . S
O718 C721 1.244 . S
O719 Co693 2.155 . S
O719 C721 1.240 . S
O720 Co693 2.096 . S
O720 C701 1.247 . S
C721 O718 1.244 . S
C721 O719 1.240 . S
H722 C696 0.931 . S
H723 C705 0.931 . S
H724 C709 0.929 . S
H725 C711 0.930 . S
Co726 N730 2.148 . S
Co726 N736 2.128 . S
Co726 N746 2.194 . S
Co726 O751 2.351 . S
Co726 O752 2.155 . S
Co726 O753 2.096 . S
C727 N730 1.301 . S
C727 N731 1.328 . S
C727 H732 0.930 . S
C728 C729 1.333 . S
C728 N730 1.317 . S
C728 H733 0.930 . S
C729 C728 1.333 . S
C729 N731 1.350 . S
C729 H755 0.931 . S
N730 Co726 2.148 . S
N730 C727 1.301 . S
N730 C728 1.317 . S
N731 C727 1.328 . S
N731 C729 1.350 . S
H732 C727 0.930 . S
H733 C728 0.930 . S
C734 O735 1.224 . S
C734 O753 1.247 . S
O735 C734 1.224 . S
N736 Co726 2.128 . S
N736 C737 1.355 . S
N736 C739 1.311 . S
C737 N736 1.355 . S
C737 C738 1.363 . S
C737 H749 0.929 . S
C738 C737 1.363 . S
C738 N740 1.375 . S
C738 H756 0.931 . S
C739 N736 1.311 . S
C739 N740 1.347 . S
C739 H750 0.929 . S
N740 C738 1.375 . S
N740 C739 1.347 . S
C741 C744 1.365 . S
C741 N746 1.328 . S
C741 H747 0.929 . S
C742 C743 1.362 . S
C742 C745 1.378 . S
C742 H757 0.929 . S
C743 C742 1.362 . S
C743 C744 1.366 . S
C744 C741 1.365 . S
C744 C743 1.366 . S
C744 H758 0.930 . S
C745 C742 1.378 . S
C745 N746 1.315 . S
C745 H748 0.930 . S
N746 Co726 2.194 . S
N746 C741 1.328 . S
N746 C745 1.315 . S
H747 C741 0.929 . S
H748 C745 0.930 . S
H749 C737 0.929 . S
H750 C739 0.929 . S
O751 Co726 2.351 . S
O751 C754 1.244 . S
O752 Co726 2.155 . S
O752 C754 1.240 . S
O753 Co726 2.096 . S
O753 C734 1.247 . S
C754 O751 1.244 . S
C754 O752 1.240 . S
H755 C729 0.931 . S
H756 C738 0.931 . S
H757 C742 0.929 . S
H758 C744 0.930 . S
Co759 N763 2.148 . S
Co759 N769 2.128 . S
Co759 N779 2.194 . S
Co759 O784 2.351 . S
Co759 O785 2.155 . S
Co759 O786 2.096 . S
C760 N763 1.301 . S
C760 N764 1.328 . S
C760 H765 0.930 . S
C761 C762 1.333 . S
C761 N763 1.317 . S
C761 H766 0.930 . S
C762 C761 1.333 . S
C762 N764 1.350 . S
C762 H788 0.931 . S
N763 Co759 2.148 . S
N763 C760 1.301 . S
N763 C761 1.317 . S
N764 C760 1.328 . S
N764 C762 1.350 . S
H765 C760 0.930 . S
H766 C761 0.930 . S
C767 O768 1.224 . S
C767 O786 1.247 . S
O768 C767 1.224 . S
N769 Co759 2.128 . S
N769 C770 1.355 . S
N769 C772 1.311 . S
C770 N769 1.355 . S
C770 C771 1.363 . S
C770 H782 0.929 . S
C771 C770 1.363 . S
C771 N773 1.375 . S
C771 H789 0.931 . S
C772 N769 1.311 . S
C772 N773 1.347 . S
C772 H783 0.929 . S
N773 C771 1.375 . S
N773 C772 1.347 . S
C774 C777 1.365 . S
C774 N779 1.328 . S
C774 H780 0.929 . S
C775 C776 1.362 . S
C775 C778 1.378 . S
C775 H790 0.929 . S
C776 C775 1.362 . S
C776 C777 1.366 . S
C777 C774 1.365 . S
C777 C776 1.366 . S
C777 H791 0.930 . S
C778 C775 1.378 . S
C778 N779 1.315 . S
C778 H781 0.930 . S
N779 Co759 2.194 . S
N779 C774 1.328 . S
N779 C778 1.315 . S
H780 C774 0.929 . S
H781 C778 0.930 . S
H782 C770 0.929 . S
H783 C772 0.929 . S
O784 Co759 2.351 . S
O784 C787 1.244 . S
O785 Co759 2.155 . S
O785 C787 1.240 . S
O786 Co759 2.096 . S
O786 C767 1.247 . S
C787 O784 1.244 . S
C787 O785 1.240 . S
H788 C762 0.931 . S
H789 C771 0.931 . S
H790 C775 0.929 . S
H791 C777 0.930 . S
Co792 N796 2.148 . S
Co792 N802 2.128 . S
Co792 N812 2.194 . S
Co792 O817 2.351 . S
Co792 O818 2.155 . S
Co792 O819 2.096 . S
C793 N796 1.301 . S
C793 N797 1.328 . S
C793 H798 0.930 . S
C794 C795 1.333 . S
C794 N796 1.317 . S
C794 H799 0.930 . S
C795 C794 1.333 . S
C795 N797 1.350 . S
C795 H821 0.931 . S
N796 Co792 2.148 . S
N796 C793 1.301 . S
N796 C794 1.317 . S
N797 C793 1.328 . S
N797 C795 1.350 . S
H798 C793 0.930 . S
H799 C794 0.930 . S
C800 O801 1.224 . S
C800 O819 1.247 . S
O801 C800 1.224 . S
N802 Co792 2.128 . S
N802 C803 1.355 . S
N802 C805 1.311 . S
C803 N802 1.355 . S
C803 C804 1.363 . S
C803 H815 0.929 . S
C804 C803 1.363 . S
C804 N806 1.375 . S
C804 H822 0.931 . S
C805 N802 1.311 . S
C805 N806 1.347 . S
C805 H816 0.929 . S
N806 C804 1.375 . S
N806 C805 1.347 . S
C807 C810 1.365 . S
C807 N812 1.328 . S
C807 H813 0.929 . S
C808 C809 1.362 . S
C808 C811 1.378 . S
C808 H823 0.929 . S
C809 C808 1.362 . S
C809 C810 1.366 . S
C810 C807 1.365 . S
C810 C809 1.366 . S
C810 H824 0.930 . S
C811 C808 1.378 . S
C811 N812 1.315 . S
C811 H814 0.930 . S
N812 Co792 2.194 . S
N812 C807 1.328 . S
N812 C811 1.315 . S
H813 C807 0.929 . S
H814 C811 0.930 . S
H815 C803 0.929 . S
H816 C805 0.929 . S
O817 Co792 2.351 . S
O817 C820 1.244 . S
O818 Co792 2.155 . S
O818 C820 1.240 . S
O819 Co792 2.096 . S
O819 C800 1.247 . S
C820 O817 1.244 . S
C820 O818 1.240 . S
H821 C795 0.931 . S
H822 C804 0.931 . S
H823 C808 0.929 . S
H824 C810 0.930 . S
Co825 N829 2.148 . S
Co825 N835 2.128 . S
Co825 N845 2.194 . S
Co825 O850 2.351 . S
Co825 O851 2.155 . S
Co825 O852 2.096 . S
C826 N829 1.301 . S
C826 N830 1.328 . S
C826 H831 0.930 . S
C827 C828 1.333 . S
C827 N829 1.317 . S
C827 H832 0.930 . S
C828 C827 1.333 . S
C828 N830 1.350 . S
C828 H854 0.931 . S
N829 Co825 2.148 . S
N829 C826 1.301 . S
N829 C827 1.317 . S
N830 C826 1.328 . S
N830 C828 1.350 . S
H831 C826 0.930 . S
H832 C827 0.930 . S
C833 O834 1.224 . S
C833 O852 1.247 . S
O834 C833 1.224 . S
N835 Co825 2.128 . S
N835 C836 1.355 . S
N835 C838 1.311 . S
C836 N835 1.355 . S
C836 C837 1.363 . S
C836 H848 0.929 . S
C837 C836 1.363 . S
C837 N839 1.375 . S
C837 H855 0.931 . S
C838 N835 1.311 . S
C838 N839 1.347 . S
C838 H849 0.929 . S
N839 C837 1.375 . S
N839 C838 1.347 . S
C840 C843 1.365 . S
C840 N845 1.328 . S
C840 H846 0.929 . S
C841 C842 1.362 . S
C841 C844 1.378 . S
C841 H856 0.929 . S
C842 C841 1.362 . S
C842 C843 1.366 . S
C843 C840 1.365 . S
C843 C842 1.366 . S
C843 H857 0.930 . S
C844 C841 1.378 . S
C844 N845 1.315 . S
C844 H847 0.930 . S
N845 Co825 2.194 . S
N845 C840 1.328 . S
N845 C844 1.315 . S
H846 C840 0.929 . S
H847 C844 0.930 . S
H848 C836 0.929 . S
H849 C838 0.929 . S
O850 Co825 2.351 . S
O850 C853 1.244 . S
O851 Co825 2.155 . S
O851 C853 1.240 . S
O852 Co825 2.096 . S
O852 C833 1.247 . S
C853 O850 1.244 . S
C853 O851 1.240 . S
H854 C828 0.931 . S
H855 C837 0.931 . S
H856 C841 0.929 . S
H857 C843 0.930 . S
Co858 N862 2.148 . S
Co858 N868 2.128 . S
Co858 N878 2.194 . S
Co858 O883 2.351 . S
Co858 O884 2.155 . S
Co858 O885 2.096 . S
C859 N862 1.301 . S
C859 N863 1.328 . S
C859 H864 0.930 . S
C860 C861 1.333 . S
C860 N862 1.317 . S
C860 H865 0.930 . S
C861 C860 1.333 . S
C861 N863 1.350 . S
C861 H887 0.931 . S
N862 Co858 2.148 . S
N862 C859 1.301 . S
N862 C860 1.317 . S
N863 C859 1.328 . S
N863 C861 1.350 . S
H864 C859 0.930 . S
H865 C860 0.930 . S
C866 O867 1.224 . S
C866 O885 1.247 . S
O867 C866 1.224 . S
N868 Co858 2.128 . S
N868 C869 1.355 . S
N868 C871 1.311 . S
C869 N868 1.355 . S
C869 C870 1.363 . S
C869 H881 0.929 . S
C870 C869 1.363 . S
C870 N872 1.375 . S
C870 H888 0.931 . S
C871 N868 1.311 . S
C871 N872 1.347 . S
C871 H882 0.929 . S
N872 C870 1.375 . S
N872 C871 1.347 . S
C873 C876 1.365 . S
C873 N878 1.328 . S
C873 H879 0.929 . S
C874 C875 1.362 . S
C874 C877 1.378 . S
C874 H889 0.929 . S
C875 C874 1.362 . S
C875 C876 1.366 . S
C876 C873 1.365 . S
C876 C875 1.366 . S
C876 H890 0.930 . S
C877 C874 1.378 . S
C877 N878 1.315 . S
C877 H880 0.930 . S
N878 Co858 2.194 . S
N878 C873 1.328 . S
N878 C877 1.315 . S
H879 C873 0.929 . S
H880 C877 0.930 . S
H881 C869 0.929 . S
H882 C871 0.929 . S
O883 Co858 2.351 . S
O883 C886 1.244 . S
O884 Co858 2.155 . S
O884 C886 1.240 . S
O885 Co858 2.096 . S
O885 C866 1.247 . S
C886 O883 1.244 . S
C886 O884 1.240 . S
H887 C861 0.931 . S
H888 C870 0.931 . S
H889 C874 0.929 . S
H890 C876 0.930 . S
Co891 N895 2.148 . S
Co891 N901 2.128 1_455 S
Co891 N911 2.194 . S
Co891 O916 2.351 . S
Co891 O917 2.155 . S
Co891 O918 2.096 . S
C892 N895 1.301 . S
C892 N896 1.328 . S
C892 H897 0.930 . S
C893 C894 1.333 . S
C893 N895 1.317 . S
C893 H898 0.930 . S
C894 C893 1.333 . S
C894 N896 1.350 . S
C894 H920 0.931 . S
N895 Co891 2.148 . S
N895 C892 1.301 . S
N895 C893 1.317 . S
N896 C892 1.328 . S
N896 C894 1.350 . S
H897 C892 0.930 . S
H898 C893 0.930 . S
C899 O900 1.224 . S
C899 O918 1.247 . S
O900 C899 1.224 . S
N901 Co891 2.128 1_655 S
N901 C902 1.355 . S
N901 C904 1.311 . S
C902 N901 1.355 . S
C902 C903 1.363 . S
C902 H914 0.935 . S
C903 C902 1.363 . S
C903 N905 1.375 . S
C903 H921 0.931 . S
C904 N901 1.311 . S
C904 N905 1.347 . S
C904 H915 0.929 . S
N905 C903 1.375 . S
N905 C904 1.347 . S
C906 C909 1.365 . S
C906 N911 1.328 . S
C906 H912 0.929 . S
C907 C908 1.362 . S
C907 C910 1.378 . S
C907 H922 0.929 . S
C908 C907 1.362 . S
C908 C909 1.366 . S
C909 C906 1.365 . S
C909 C908 1.366 . S
C909 H923 0.930 . S
C910 C907 1.378 . S
C910 N911 1.315 . S
C910 H913 0.930 . S
N911 Co891 2.194 . S
N911 C906 1.328 . S
N911 C910 1.315 . S
H912 C906 0.929 . S
H913 C910 0.930 . S
H914 C902 0.935 . S
H915 C904 0.929 . S
O916 Co891 2.351 . S
O916 C919 1.244 . S
O917 Co891 2.155 . S
O917 C919 1.240 . S
O918 Co891 2.096 . S
O918 C899 1.247 . S
C919 O916 1.244 . S
C919 O917 1.240 . S
H920 C894 0.931 . S
H921 C903 0.931 . S
H922 C907 0.929 . S
H923 C909 0.930 . S
Co924 N928 2.148 . S
Co924 N934 2.128 . S
Co924 N944 2.194 . S
Co924 O949 2.351 . S
Co924 O950 2.155 . S
Co924 O951 2.096 . S
C925 N928 1.301 . S
C925 N929 1.328 . S
C925 H930 0.930 . S
C926 C927 1.333 . S
C926 N928 1.317 . S
C926 H931 0.930 . S
C927 C926 1.333 . S
C927 N929 1.350 . S
C927 H953 0.931 . S
N928 Co924 2.148 . S
N928 C925 1.301 . S
N928 C926 1.317 . S
N929 C925 1.328 . S
N929 C927 1.350 . S
H930 C925 0.930 . S
H931 C926 0.930 . S
C932 O933 1.224 . S
C932 O951 1.247 . S
O933 C932 1.224 . S
N934 Co924 2.128 . S
N934 C935 1.355 . S
N934 C937 1.311 . S
C935 N934 1.355 . S
C935 C936 1.363 . S
C935 H947 0.929 . S
C936 C935 1.363 . S
C936 N938 1.375 . S
C936 H954 0.931 . S
C937 N934 1.311 . S
C937 N938 1.347 . S
C937 H948 0.929 . S
N938 C936 1.375 . S
N938 C937 1.347 . S
C939 C942 1.365 . S
C939 N944 1.328 . S
C939 H945 0.929 . S
C940 C941 1.362 . S
C940 C943 1.378 . S
C940 H955 0.929 . S
C941 C940 1.362 . S
C941 C942 1.366 . S
C942 C939 1.365 . S
C942 C941 1.366 . S
C942 H956 0.930 . S
C943 C940 1.378 . S
C943 N944 1.315 . S
C943 H946 0.930 . S
N944 Co924 2.194 . S
N944 C939 1.328 . S
N944 C943 1.315 . S
H945 C939 0.929 . S
H946 C943 0.930 . S
H947 C935 0.929 . S
H948 C937 0.929 . S
O949 Co924 2.351 . S
O949 C952 1.244 . S
O950 Co924 2.155 . S
O950 C952 1.240 . S
O951 Co924 2.096 . S
O951 C932 1.247 . S
C952 O949 1.244 . S
C952 O950 1.240 . S
H953 C927 0.931 . S
H954 C936 0.931 . S
H955 C940 0.929 . S
H956 C942 0.930 . S
Co957 N961 2.148 . S
Co957 N967 2.128 1_455 S
Co957 N977 2.194 . S
Co957 O982 2.351 . S
Co957 O983 2.155 . S
Co957 O984 2.096 . S
C958 N961 1.301 . S
C958 N962 1.328 . S
C958 H963 0.930 . S
C959 C960 1.333 . S
C959 N961 1.317 . S
C959 H964 0.930 . S
C960 C959 1.333 . S
C960 N962 1.350 . S
C960 H986 0.931 . S
N961 Co957 2.148 . S
N961 C958 1.301 . S
N961 C959 1.317 . S
N962 C958 1.328 . S
N962 C960 1.350 . S
H963 C958 0.930 . S
H964 C959 0.930 . S
C965 O966 1.224 . S
C965 O984 1.247 . S
O966 C965 1.224 . S
N967 Co957 2.128 1_655 S
N967 C968 1.355 . S
N967 C970 1.311 . S
C968 N967 1.355 . S
C968 C969 1.363 . S
C968 H980 0.936 . S
C969 C968 1.363 . S
C969 N971 1.375 . S
C969 H987 0.931 . S
C970 N967 1.311 . S
C970 N971 1.347 . S
C970 H981 0.929 . S
N971 C969 1.375 . S
N971 C970 1.347 . S
C972 C975 1.365 . S
C972 N977 1.328 . S
C972 H978 0.929 . S
C973 C974 1.362 . S
C973 C976 1.378 . S
C973 H988 0.929 . S
C974 C973 1.362 . S
C974 C975 1.366 . S
C975 C972 1.365 . S
C975 C974 1.366 . S
C975 H989 0.930 . S
C976 C973 1.378 . S
C976 N977 1.315 . S
C976 H979 0.930 . S
N977 Co957 2.194 . S
N977 C972 1.328 . S
N977 C976 1.315 . S
H978 C972 0.929 . S
H979 C976 0.930 . S
H980 C968 0.936 . S
H981 C970 0.929 . S
O982 Co957 2.351 . S
O982 C985 1.244 . S
O983 Co957 2.155 . S
O983 C985 1.240 . S
O984 Co957 2.096 . S
O984 C965 1.247 . S
C985 O982 1.244 . S
C985 O983 1.240 . S
H986 C960 0.931 . S
H987 C969 0.931 . S
H988 C973 0.929 . S
H989 C975 0.930 . S
Co990 N994 2.148 . S
Co990 N1000 2.128 . S
Co990 N1010 2.194 . S
Co990 O1015 2.351 . S
Co990 O1016 2.155 . S
Co990 O1017 2.096 . S
C991 N994 1.301 . S
C991 N995 1.328 . S
C991 H996 0.930 . S
C992 C993 1.333 . S
C992 N994 1.317 . S
C992 H997 0.930 . S
C993 C992 1.333 . S
C993 N995 1.350 . S
C993 H1019 0.931 . S
N994 Co990 2.148 . S
N994 C991 1.301 . S
N994 C992 1.317 . S
N995 C991 1.328 . S
N995 C993 1.350 . S
H996 C991 0.930 . S
H997 C992 0.930 . S
C998 O999 1.224 . S
C998 O1017 1.247 . S
O999 C998 1.224 . S
N1000 Co990 2.128 . S
N1000 C1001 1.355 . S
N1000 C1003 1.311 . S
C1001 N1000 1.355 . S
C1001 C1002 1.363 . S
C1001 H1013 0.929 . S
C1002 C1001 1.363 . S
C1002 N1004 1.375 . S
C1002 H1020 0.931 . S
C1003 N1000 1.311 . S
C1003 N1004 1.347 . S
C1003 H1014 0.929 . S
N1004 C1002 1.375 . S
N1004 C1003 1.347 . S
C1005 C1008 1.365 . S
C1005 N1010 1.328 . S
C1005 H1011 0.929 . S
C1006 C1007 1.362 . S
C1006 C1009 1.378 . S
C1006 H1021 0.929 . S
C1007 C1006 1.362 . S
C1007 C1008 1.366 . S
C1008 C1005 1.365 . S
C1008 C1007 1.366 . S
C1008 H1022 0.930 . S
C1009 C1006 1.378 . S
C1009 N1010 1.315 . S
C1009 H1012 0.930 . S
N1010 Co990 2.194 . S
N1010 C1005 1.328 . S
N1010 C1009 1.315 . S
H1011 C1005 0.929 . S
H1012 C1009 0.930 . S
H1013 C1001 0.929 . S
H1014 C1003 0.929 . S
O1015 Co990 2.351 . S
O1015 C1018 1.244 . S
O1016 Co990 2.155 . S
O1016 C1018 1.240 . S
O1017 Co990 2.096 . S
O1017 C998 1.247 . S
C1018 O1015 1.244 . S
C1018 O1016 1.240 . S
H1019 C993 0.931 . S
H1020 C1002 0.931 . S
H1021 C1006 0.929 . S
H1022 C1008 0.930 . S
Co1023 N1027 2.148 . S
Co1023 N1033 2.128 . S
Co1023 N1043 2.194 . S
Co1023 O1048 2.351 . S
Co1023 O1049 2.155 . S
Co1023 O1050 2.096 . S
C1024 N1027 1.301 . S
C1024 N1028 1.328 . S
C1024 H1029 0.930 . S
C1025 C1026 1.333 . S
C1025 N1027 1.317 . S
C1025 H1030 0.930 . S
C1026 C1025 1.333 . S
C1026 N1028 1.350 . S
C1026 H1052 0.931 . S
N1027 Co1023 2.148 . S
N1027 C1024 1.301 . S
N1027 C1025 1.317 . S
N1028 C1024 1.328 . S
N1028 C1026 1.350 . S
H1029 C1024 0.930 . S
H1030 C1025 0.930 . S
C1031 O1032 1.224 . S
C1031 O1050 1.247 . S
O1032 C1031 1.224 . S
N1033 Co1023 2.128 . S
N1033 C1034 1.355 . S
N1033 C1036 1.311 . S
C1034 N1033 1.355 . S
C1034 C1035 1.363 . S
C1034 H1046 0.929 . S
C1035 C1034 1.363 . S
C1035 N1037 1.375 . S
C1035 H1053 0.931 . S
C1036 N1033 1.311 . S
C1036 N1037 1.347 . S
C1036 H1047 0.929 . S
N1037 C1035 1.375 . S
N1037 C1036 1.347 . S
C1038 C1041 1.365 . S
C1038 N1043 1.328 . S
C1038 H1044 0.929 . S
C1039 C1040 1.362 . S
C1039 C1042 1.378 . S
C1039 H1054 0.929 . S
C1040 C1039 1.362 . S
C1040 C1041 1.366 . S
C1041 C1038 1.365 . S
C1041 C1040 1.366 . S
C1041 H1055 0.930 . S
C1042 C1039 1.378 . S
C1042 N1043 1.315 . S
C1042 H1045 0.930 . S
N1043 Co1023 2.194 . S
N1043 C1038 1.328 . S
N1043 C1042 1.315 . S
H1044 C1038 0.929 . S
H1045 C1042 0.930 . S
H1046 C1034 0.929 . S
H1047 C1036 0.929 . S
O1048 Co1023 2.351 . S
O1048 C1051 1.244 . S
O1049 Co1023 2.155 . S
O1049 C1051 1.240 . S
O1050 Co1023 2.096 . S
O1050 C1031 1.247 . S
C1051 O1048 1.244 . S
C1051 O1049 1.240 . S
H1052 C1026 0.931 . S
H1053 C1035 0.931 . S
H1054 C1039 0.929 . S
H1055 C1041 0.930 . S
C1056 C1057 1.369 . S
C1056 C1058 1.419 . S
C1056 H1060 0.930 . S
C1057 C1056 1.369 . S
C1057 C1066 1.429 . S
C1058 C1056 1.419 . S
C1058 C1059 1.363 . S
C1058 H1061 0.929 . S
C1059 C1058 1.363 . S
C1059 C1065 1.428 . S
H1060 C1056 0.930 . S
H1061 C1058 0.929 . S
S1062 N1063 1.613 . S
S1062 N1064 1.610 . S
N1063 S1062 1.613 . S
N1063 C1066 1.350 . S
N1064 S1062 1.610 . S
N1064 C1065 1.351 . S
C1065 C1059 1.428 . S
C1065 N1064 1.351 . S
C1065 C1066 1.434 . S
C1066 C1057 1.429 . S
C1066 N1063 1.350 . S
C1066 C1065 1.434 . S
C1067 C1068 1.369 . S
C1067 C1069 1.419 . S
C1067 H1071 0.930 . S
C1068 C1067 1.369 . S
C1068 C1077 1.429 . S
C1069 C1067 1.419 . S
C1069 C1070 1.363 . S
C1069 H1072 0.929 . S
C1070 C1069 1.363 . S
C1070 C1076 1.428 . S
H1071 C1067 0.930 . S
H1072 C1069 0.929 . S
S1073 N1074 1.613 . S
S1073 N1075 1.610 . S
N1074 S1073 1.613 . S
N1074 C1077 1.350 . S
N1075 S1073 1.610 . S
N1075 C1076 1.351 . S
C1076 C1070 1.428 . S
C1076 N1075 1.351 . S
C1076 C1077 1.434 . S
C1077 C1068 1.429 . S
C1077 N1074 1.350 . S
C1077 C1076 1.434 . S
C1078 C1079 1.369 . S
C1078 C1080 1.419 . S
C1078 H1082 0.930 . S
C1079 C1078 1.369 . S
C1079 C1088 1.429 . S
C1080 C1078 1.419 . S
C1080 C1081 1.363 . S
C1080 H1083 0.929 . S
C1081 C1080 1.363 . S
C1081 C1087 1.428 . S
H1082 C1078 0.930 . S
H1083 C1080 0.929 . S
S1084 N1085 1.613 . S
S1084 N1086 1.610 . S
N1085 S1084 1.613 . S
N1085 C1088 1.350 . S
N1086 S1084 1.610 . S
N1086 C1087 1.351 . S
C1087 C1081 1.428 . S
C1087 N1086 1.351 . S
C1087 C1088 1.434 . S
C1088 C1079 1.429 . S
C1088 N1085 1.350 . S
C1088 C1087 1.434 . S
C1089 C1090 1.369 . S
C1089 C1091 1.419 . S
C1089 H1093 0.930 . S
C1090 C1089 1.369 . S
C1090 C1099 1.429 . S
C1091 C1089 1.419 . S
C1091 C1092 1.363 . S
C1091 H1094 0.929 . S
C1092 C1091 1.363 . S
C1092 C1098 1.428 . S
H1093 C1089 0.930 . S
H1094 C1091 0.929 . S
S1095 N1096 1.613 . S
S1095 N1097 1.610 . S
N1096 S1095 1.613 . S
N1096 C1099 1.350 . S
N1097 S1095 1.610 . S
N1097 C1098 1.351 . S
C1098 C1092 1.428 . S
C1098 N1097 1.351 . S
C1098 C1099 1.434 . S
C1099 C1090 1.429 . S
C1099 N1096 1.350 . S
C1099 C1098 1.434 . S
C1100 C1101 1.369 . S
C1100 C1102 1.419 . S
C1100 H1104 0.930 . S
C1101 C1100 1.369 . S
C1101 C1110 1.429 . S
C1102 C1100 1.419 . S
C1102 C1103 1.363 . S
C1102 H1105 0.929 . S
C1103 C1102 1.363 . S
C1103 C1109 1.428 . S
H1104 C1100 0.930 . S
H1105 C1102 0.929 . S
S1106 N1107 1.613 . S
S1106 N1108 1.610 1_545 S
N1107 S1106 1.613 . S
N1107 C1110 1.350 1_545 S
N1108 S1106 1.610 1_565 S
N1108 C1109 1.351 . S
C1109 C1103 1.428 . S
C1109 N1108 1.351 . S
C1109 C1110 1.434 . S
C1110 C1101 1.429 . S
C1110 N1107 1.350 1_565 S
C1110 C1109 1.434 . S
C1111 C1112 1.369 . S
C1111 C1113 1.419 . S
C1111 H1115 0.930 . S
C1112 C1111 1.369 . S
C1112 C1121 1.429 . S
C1113 C1111 1.419 . S
C1113 C1114 1.363 . S
C1113 H1116 0.929 . S
C1114 C1113 1.363 . S
C1114 C1120 1.428 . S
H1115 C1111 0.930 . S
H1116 C1113 0.929 . S
S1117 N1118 1.613 . S
S1117 N1119 1.610 . S
N1118 S1117 1.613 . S
N1118 C1121 1.350 . S
N1119 S1117 1.610 . S
N1119 C1120 1.351 . S
C1120 C1114 1.428 . S
C1120 N1119 1.351 . S
C1120 C1121 1.434 . S
C1121 C1112 1.429 . S
C1121 N1118 1.350 . S
C1121 C1120 1.434 . S
C1122 C1123 1.369 . S
C1122 C1124 1.419 . S
C1122 H1126 0.930 . S
C1123 C1122 1.369 . S
C1123 C1132 1.429 . S
C1124 C1122 1.419 . S
C1124 C1125 1.363 . S
C1124 H1127 0.929 . S
C1125 C1124 1.363 . S
C1125 C1131 1.428 . S
H1126 C1122 0.930 . S
H1127 C1124 0.929 . S
S1128 N1129 1.613 . S
S1128 N1130 1.610 . S
N1129 S1128 1.613 . S
N1129 C1132 1.350 . S
N1130 S1128 1.610 . S
N1130 C1131 1.351 . S
C1131 C1125 1.428 . S
C1131 N1130 1.351 . S
C1131 C1132 1.434 . S
C1132 C1123 1.429 . S
C1132 N1129 1.350 . S
C1132 C1131 1.434 . S
C1133 C1134 1.369 . S
C1133 C1135 1.419 . S
C1133 H1137 0.930 . S
C1134 C1133 1.369 . S
C1134 C1143 1.429 . S
C1135 C1133 1.419 . S
C1135 C1136 1.363 . S
C1135 H1138 0.929 . S
C1136 C1135 1.363 . S
C1136 C1142 1.428 . S
H1137 C1133 0.930 . S
H1138 C1135 0.929 . S
S1139 N1140 1.613 . S
S1139 N1141 1.610 . S
N1140 S1139 1.613 . S
N1140 C1143 1.350 . S
N1141 S1139 1.610 . S
N1141 C1142 1.351 . S
C1142 C1136 1.428 . S
C1142 N1141 1.351 . S
C1142 C1143 1.434 . S
C1143 C1134 1.429 . S
C1143 N1140 1.350 . S
C1143 C1142 1.434 . S
C1144 C1145 1.369 . S
C1144 C1146 1.419 . S
C1144 H1148 0.930 . S
C1145 C1144 1.369 . S
C1145 C1154 1.429 . S
C1146 C1144 1.419 . S
C1146 C1147 1.363 . S
C1146 H1149 0.929 . S
C1147 C1146 1.363 . S
C1147 C1153 1.428 . S
H1148 C1144 0.930 . S
H1149 C1146 0.929 . S
S1150 N1151 1.613 . S
S1150 N1152 1.610 . S
N1151 S1150 1.613 . S
N1151 C1154 1.350 . S
N1152 S1150 1.610 . S
N1152 C1153 1.351 . S
C1153 C1147 1.428 . S
C1153 N1152 1.351 . S
C1153 C1154 1.434 . S
C1154 C1145 1.429 . S
C1154 N1151 1.350 . S
C1154 C1153 1.434 . S
C1155 C1156 1.369 . S
C1155 C1157 1.419 . S
C1155 H1159 0.930 . S
C1156 C1155 1.369 . S
C1156 C1165 1.429 . S
C1157 C1155 1.419 . S
C1157 C1158 1.363 . S
C1157 H1160 0.929 . S
C1158 C1157 1.363 . S
C1158 C1164 1.428 . S
H1159 C1155 0.930 . S
H1160 C1157 0.929 . S
S1161 N1162 1.613 . S
S1161 N1163 1.610 . S
N1162 S1161 1.613 . S
N1162 C1165 1.350 . S
N1163 S1161 1.610 . S
N1163 C1164 1.351 . S
C1164 C1158 1.428 . S
C1164 N1163 1.351 . S
C1164 C1165 1.434 . S
C1165 C1156 1.429 . S
C1165 N1162 1.350 . S
C1165 C1164 1.434 . S
C1166 C1167 1.369 . S
C1166 C1168 1.419 . S
C1166 H1170 0.930 . S
C1167 C1166 1.369 . S
C1167 C1176 1.429 . S
C1168 C1166 1.419 . S
C1168 C1169 1.363 . S
C1168 H1171 0.929 . S
C1169 C1168 1.363 . S
C1169 C1175 1.428 . S
H1170 C1166 0.930 . S
H1171 C1168 0.929 . S
S1172 N1173 1.613 . S
S1172 N1174 1.610 . S
N1173 S1172 1.613 . S
N1173 C1176 1.350 . S
N1174 S1172 1.610 . S
N1174 C1175 1.351 . S
C1175 C1169 1.428 . S
C1175 N1174 1.351 . S
C1175 C1176 1.434 . S
C1176 C1167 1.429 . S
C1176 N1173 1.350 . S
C1176 C1175 1.434 . S
C1177 C1178 1.369 . S
C1177 C1179 1.419 . S
C1177 H1181 0.930 . S
C1178 C1177 1.369 . S
C1178 C1187 1.429 . S
C1179 C1177 1.419 . S
C1179 C1180 1.363 . S
C1179 H1182 0.929 . S
C1180 C1179 1.363 . S
C1180 C1186 1.428 . S
H1181 C1177 0.930 . S
H1182 C1179 0.929 . S
S1183 N1184 1.613 . S
S1183 N1185 1.610 . S
N1184 S1183 1.613 . S
N1184 C1187 1.350 . S
N1185 S1183 1.610 . S
N1185 C1186 1.351 . S
C1186 C1180 1.428 . S
C1186 N1185 1.351 . S
C1186 C1187 1.434 . S
C1187 C1178 1.429 . S
C1187 N1184 1.350 . S
C1187 C1186 1.434 . S
C1188 C1189 1.369 . S
C1188 C1190 1.419 . S
C1188 H1192 0.930 . S
C1189 C1188 1.369 . S
C1189 C1198 1.429 . S
C1190 C1188 1.419 . S
C1190 C1191 1.363 . S
C1190 H1193 0.929 . S
C1191 C1190 1.363 . S
C1191 C1197 1.428 . S
H1192 C1188 0.930 . S
H1193 C1190 0.929 . S
S1194 N1195 1.613 . S
S1194 N1196 1.610 . S
N1195 S1194 1.613 . S
N1195 C1198 1.350 . S
N1196 S1194 1.610 . S
N1196 C1197 1.351 . S
C1197 C1191 1.428 . S
C1197 N1196 1.351 . S
C1197 C1198 1.434 . S
C1198 C1189 1.429 . S
C1198 N1195 1.350 . S
C1198 C1197 1.434 . S
C1199 C1200 1.369 . S
C1199 C1201 1.419 . S
C1199 H1203 0.930 . S
C1200 C1199 1.369 . S
C1200 C1209 1.429 . S
C1201 C1199 1.419 . S
C1201 C1202 1.363 . S
C1201 H1204 0.929 . S
C1202 C1201 1.363 . S
C1202 C1208 1.428 . S
H1203 C1199 0.930 . S
H1204 C1201 0.929 . S
S1205 N1206 1.613 . S
S1205 N1207 1.610 . S
N1206 S1205 1.613 . S
N1206 C1209 1.350 . S
N1207 S1205 1.610 . S
N1207 C1208 1.351 . S
C1208 C1202 1.428 . S
C1208 N1207 1.351 . S
C1208 C1209 1.434 . S
C1209 C1200 1.429 . S
C1209 N1206 1.350 . S
C1209 C1208 1.434 . S
C1210 C1211 1.369 . S
C1210 C1212 1.419 . S
C1210 H1214 0.930 . S
C1211 C1210 1.369 . S
C1211 C1220 1.429 . S
C1212 C1210 1.419 . S
C1212 C1213 1.363 . S
C1212 H1215 0.929 . S
C1213 C1212 1.363 . S
C1213 C1219 1.428 . S
H1214 C1210 0.930 . S
H1215 C1212 0.929 . S
S1216 N1217 1.613 . S
S1216 N1218 1.610 . S
N1217 S1216 1.613 . S
N1217 C1220 1.350 . S
N1218 S1216 1.610 . S
N1218 C1219 1.351 . S
C1219 C1213 1.428 . S
C1219 N1218 1.351 . S
C1219 C1220 1.434 . S
C1220 C1211 1.429 . S
C1220 N1217 1.350 . S
C1220 C1219 1.434 . S
C1221 C1222 1.369 . S
C1221 C1223 1.419 . S
C1221 H1225 0.930 . S
C1222 C1221 1.369 . S
C1222 C1231 1.429 . S
C1223 C1221 1.419 . S
C1223 C1224 1.363 . S
C1223 H1226 0.929 . S
C1224 C1223 1.363 . S
C1224 C1230 1.428 . S
H1225 C1221 0.930 . S
H1226 C1223 0.929 . S
S1227 N1228 1.613 . S
S1227 N1229 1.610 . S
N1228 S1227 1.613 . S
N1228 C1231 1.350 . S
N1229 S1227 1.610 . S
N1229 C1230 1.351 . S
C1230 C1224 1.428 . S
C1230 N1229 1.351 . S
C1230 C1231 1.434 . S
C1231 C1222 1.429 . S
C1231 N1228 1.350 . S
C1231 C1230 1.434 . S
C1232 C1233 1.369 . S
C1232 C1234 1.419 1_556 S
C1232 H1236 0.930 . S
C1233 C1232 1.369 . S
C1233 C1242 1.429 . S
C1234 C1232 1.419 1_554 S
C1234 C1235 1.363 . S
C1234 H1237 0.929 . S
C1235 C1234 1.363 . S
C1235 C1241 1.428 . S
H1236 C1232 0.930 . S
H1237 C1234 0.929 . S
S1238 N1239 1.613 . S
S1238 N1240 1.610 1_556 S
N1239 S1238 1.613 . S
N1239 C1242 1.350 . S
N1240 S1238 1.610 1_554 S
N1240 C1241 1.351 . S
C1241 C1235 1.428 . S
C1241 N1240 1.351 . S
C1241 C1242 1.434 1_554 S
C1242 C1233 1.429 . S
C1242 N1239 1.350 . S
C1242 C1241 1.434 1_556 S
C1243 C1244 1.369 . S
C1243 C1245 1.419 . S
C1243 H1247 0.930 . S
C1244 C1243 1.369 . S
C1244 C1253 1.429 1_565 S
C1245 C1243 1.419 . S
C1245 C1246 1.363 1_565 S
C1245 H1248 0.929 . S
C1246 C1245 1.363 1_545 S
C1246 C1252 1.428 . S
H1247 C1243 0.930 . S
H1248 C1245 0.929 . S
S1249 N1250 1.613 . S
S1249 N1251 1.610 . S
N1250 S1249 1.613 . S
N1250 C1253 1.350 . S
N1251 S1249 1.610 . S
N1251 C1252 1.351 . S
C1252 C1246 1.428 . S
C1252 N1251 1.351 . S
C1252 C1253 1.434 . S
C1253 C1244 1.429 1_545 S
C1253 N1250 1.350 . S
C1253 C1252 1.434 . S
C1254 C1255 1.369 . S
C1254 C1256 1.419 . S
C1254 H1258 0.930 . S
C1255 C1254 1.369 . S
C1255 C1264 1.429 . S
C1256 C1254 1.419 . S
C1256 C1257 1.363 . S
C1256 H1259 0.929 . S
C1257 C1256 1.363 . S
C1257 C1263 1.428 . S
H1258 C1254 0.930 . S
H1259 C1256 0.929 . S
S1260 N1261 1.613 . S
S1260 N1262 1.610 . S
N1261 S1260 1.613 . S
N1261 C1264 1.350 . S
N1262 S1260 1.610 . S
N1262 C1263 1.351 . S
C1263 C1257 1.428 . S
C1263 N1262 1.351 . S
C1263 C1264 1.434 . S
C1264 C1255 1.429 . S
C1264 N1261 1.350 . S
C1264 C1263 1.434 . S
C1265 C1266 1.369 1_565 S
C1265 C1267 1.419 . S
C1265 H1269 0.930 . S
C1266 C1265 1.369 1_545 S
C1266 C1275 1.429 . S
C1267 C1265 1.419 . S
C1267 C1268 1.363 . S
C1267 H1270 0.929 . S
C1268 C1267 1.363 . S
C1268 C1274 1.428 1_565 S
H1269 C1265 0.930 . S
H1270 C1267 0.929 . S
S1271 N1272 1.613 . S
S1271 N1273 1.610 . S
N1272 S1271 1.613 . S
N1272 C1275 1.350 . S
N1273 S1271 1.610 . S
N1273 C1274 1.351 . S
C1274 C1268 1.428 1_545 S
C1274 N1273 1.351 . S
C1274 C1275 1.434 . S
C1275 C1266 1.429 . S
C1275 N1272 1.350 . S
C1275 C1274 1.434 . S
C1276 C1277 1.369 . S
C1276 C1278 1.419 1_556 S
C1276 H1280 0.930 . S
C1277 C1276 1.369 . S
C1277 C1286 1.429 . S
C1278 C1276 1.419 1_554 S
C1278 C1279 1.363 . S
C1278 H1281 0.929 . S
C1279 C1278 1.363 . S
C1279 C1285 1.428 . S
H1280 C1276 0.930 . S
H1281 C1278 0.929 . S
S1282 N1283 1.613 . S
S1282 N1284 1.610 1_556 S
N1283 S1282 1.613 . S
N1283 C1286 1.350 . S
N1284 S1282 1.610 1_554 S
N1284 C1285 1.351 . S
C1285 C1279 1.428 . S
C1285 N1284 1.351 . S
C1285 C1286 1.434 1_554 S
C1286 C1277 1.429 . S
C1286 N1283 1.350 . S
C1286 C1285 1.434 1_556 S
C1287 C1288 1.369 1_545 S
C1287 C1289 1.419 . S
C1287 H1291 0.930 . S
C1288 C1287 1.369 1_565 S
C1288 C1297 1.429 . S
C1289 C1287 1.419 . S
C1289 C1290 1.363 . S
C1289 H1292 0.929 . S
C1290 C1289 1.363 . S
C1290 C1296 1.428 1_545 S
H1291 C1287 0.930 . S
H1292 C1289 0.929 . S
S1293 N1294 1.613 . S
S1293 N1295 1.610 . S
N1294 S1293 1.613 . S
N1294 C1297 1.350 . S
N1295 S1293 1.610 . S
N1295 C1296 1.351 . S
C1296 C1290 1.428 1_565 S
C1296 N1295 1.351 . S
C1296 C1297 1.434 . S
C1297 C1288 1.429 . S
C1297 N1294 1.350 . S
C1297 C1296 1.434 . S
C1298 C1299 1.369 . S
C1298 C1300 1.419 . S
C1298 H1302 0.930 . S
C1299 C1298 1.369 . S
C1299 C1308 1.429 . S
C1300 C1298 1.419 . S
C1300 C1301 1.363 . S
C1300 H1303 0.929 . S
C1301 C1300 1.363 . S
C1301 C1307 1.428 . S
H1302 C1298 0.930 . S
H1303 C1300 0.929 . S
S1304 N1305 1.613 . S
S1304 N1306 1.610 . S
N1305 S1304 1.613 . S
N1305 C1308 1.350 . S
N1306 S1304 1.610 . S
N1306 C1307 1.351 . S
C1307 C1301 1.428 . S
C1307 N1306 1.351 . S
C1307 C1308 1.434 . S
C1308 C1299 1.429 . S
C1308 N1305 1.350 . S
C1308 C1307 1.434 . S
C1309 C1310 1.369 . S
C1309 C1311 1.414 1_545 S
C1309 H1313 0.930 . S
C1310 C1309 1.369 . S
C1310 C1319 1.429 . S
C1311 C1309 1.414 1_565 S
C1311 C1312 1.368 . S
C1311 H1314 0.929 . S
C1312 C1311 1.368 . S
C1312 C1318 1.428 . S
H1313 C1309 0.930 . S
H1314 C1311 0.929 . S
S1315 N1316 1.613 1_565 S
S1315 N1317 1.610 . S
N1316 S1315 1.613 1_545 S
N1316 C1319 1.350 . S
N1317 S1315 1.610 . S
N1317 C1318 1.351 . S
C1318 C1312 1.428 . S
C1318 N1317 1.351 . S
C1318 C1319 1.434 1_565 S
C1319 C1310 1.429 . S
C1319 N1316 1.350 . S
C1319 C1318 1.434 1_545 S
C1320 C1321 1.369 . S
C1320 C1322 1.419 . S
C1320 H1324 0.930 . S
C1321 C1320 1.369 . S
C1321 C1330 1.429 . S
C1322 C1320 1.419 . S
C1322 C1323 1.363 . S
C1322 H1325 0.929 . S
C1323 C1322 1.363 . S
C1323 C1329 1.428 . S
H1324 C1320 0.930 . S
H1325 C1322 0.929 . S
S1326 N1327 1.613 . S
S1326 N1328 1.610 . S
N1327 S1326 1.613 . S
N1327 C1330 1.350 . S
N1328 S1326 1.610 . S
N1328 C1329 1.351 . S
C1329 C1323 1.428 . S
C1329 N1328 1.351 . S
C1329 C1330 1.434 . S
C1330 C1321 1.429 . S
C1330 N1327 1.350 . S
C1330 C1329 1.434 . S
C1331 C1332 1.369 . S
C1331 C1333 1.419 . S
C1331 H1335 0.930 . S
C1332 C1331 1.369 . S
C1332 C1341 1.429 . S
C1333 C1331 1.419 . S
C1333 C1334 1.363 . S
C1333 H1336 0.929 . S
C1334 C1333 1.363 . S
C1334 C1340 1.428 . S
H1335 C1331 0.930 . S
H1336 C1333 0.929 . S
S1337 N1338 1.613 . S
S1337 N1339 1.610 . S
N1338 S1337 1.613 . S
N1338 C1341 1.350 . S
N1339 S1337 1.610 . S
N1339 C1340 1.351 . S
C1340 C1334 1.428 . S
C1340 N1339 1.351 . S
C1340 C1341 1.434 . S
C1341 C1332 1.429 . S
C1341 N1338 1.350 . S
C1341 C1340 1.434 . S
C1342 C1343 1.369 . S
C1342 C1344 1.419 1_556 S
C1342 H1346 0.930 . S
C1343 C1342 1.369 . S
C1343 C1352 1.429 . S
C1344 C1342 1.419 1_554 S
C1344 C1345 1.363 . S
C1344 H1347 0.929 . S
C1345 C1344 1.363 . S
C1345 C1351 1.428 . S
H1346 C1342 0.930 . S
H1347 C1344 0.929 . S
S1348 N1349 1.613 1_554 S
S1348 N1350 1.610 . S
N1349 S1348 1.613 1_556 S
N1349 C1352 1.350 . S
N1350 S1348 1.610 . S
N1350 C1351 1.351 . S
C1351 C1345 1.428 . S
C1351 N1350 1.351 . S
C1351 C1352 1.434 1_554 S
C1352 C1343 1.429 . S
C1352 N1349 1.350 . S
C1352 C1351 1.434 1_556 S
C1353 C1354 1.369 . S
C1353 C1355 1.419 . S
C1353 H1357 0.930 . S
C1354 C1353 1.369 . S
C1354 C1363 1.429 . S
C1355 C1353 1.419 . S
C1355 C1356 1.363 . S
C1355 H1358 0.929 . S
C1356 C1355 1.363 . S
C1356 C1362 1.428 . S
H1357 C1353 0.930 . S
H1358 C1355 0.929 . S
S1359 N1360 1.613 . S
S1359 N1361 1.610 . S
N1360 S1359 1.613 . S
N1360 C1363 1.350 . S
N1361 S1359 1.610 . S
N1361 C1362 1.351 . S
C1362 C1356 1.428 . S
C1362 N1361 1.351 . S
C1362 C1363 1.434 . S
C1363 C1354 1.429 . S
C1363 N1360 1.350 . S
C1363 C1362 1.434 . S
C1364 C1365 1.369 . S
C1364 C1366 1.419 . S
C1364 H1368 0.930 . S
C1365 C1364 1.369 . S
C1365 C1374 1.429 . S
C1366 C1364 1.419 . S
C1366 C1367 1.363 . S
C1366 H1369 0.929 . S
C1367 C1366 1.363 . S
C1367 C1373 1.428 . S
H1368 C1364 0.930 . S
H1369 C1366 0.929 . S
S1370 N1371 1.613 . S
S1370 N1372 1.610 . S
N1371 S1370 1.613 . S
N1371 C1374 1.350 . S
N1372 S1370 1.610 . S
N1372 C1373 1.351 . S
C1373 C1367 1.428 . S
C1373 N1372 1.351 . S
C1373 C1374 1.434 . S
C1374 C1365 1.429 . S
C1374 N1371 1.350 . S
C1374 C1373 1.434 . S
C1375 C1376 1.369 . S
C1375 C1377 1.419 . S
C1375 H1379 0.930 . S
C1376 C1375 1.369 . S
C1376 C1385 1.429 . S
C1377 C1375 1.419 . S
C1377 C1378 1.363 . S
C1377 H1380 0.929 . S
C1378 C1377 1.363 . S
C1378 C1384 1.428 . S
H1379 C1375 0.930 . S
H1380 C1377 0.929 . S
S1381 N1382 1.613 . S
S1381 N1383 1.610 . S
N1382 S1381 1.613 . S
N1382 C1385 1.350 . S
N1383 S1381 1.610 . S
N1383 C1384 1.351 . S
C1384 C1378 1.428 . S
C1384 N1383 1.351 . S
C1384 C1385 1.434 . S
C1385 C1376 1.429 . S
C1385 N1382 1.350 . S
C1385 C1384 1.434 . S
C1386 C1387 1.369 . S
C1386 C1388 1.419 1_554 S
C1386 H1390 0.930 . S
C1387 C1386 1.369 . S
C1387 C1396 1.429 . S
C1388 C1386 1.419 1_556 S
C1388 C1389 1.363 . S
C1388 H1391 0.929 . S
C1389 C1388 1.363 . S
C1389 C1395 1.428 . S
H1390 C1386 0.930 . S
H1391 C1388 0.929 . S
S1392 N1393 1.613 1_556 S
S1392 N1394 1.610 . S
N1393 S1392 1.613 1_554 S
N1393 C1396 1.350 . S
N1394 S1392 1.610 . S
N1394 C1395 1.351 . S
C1395 C1389 1.428 . S
C1395 N1394 1.351 . S
C1395 C1396 1.434 1_556 S
C1396 C1387 1.429 . S
C1396 N1393 1.350 . S
C1396 C1395 1.434 1_554 S
C1397 C1398 1.369 . S
C1397 C1399 1.419 . S
C1397 H1401 0.930 . S
C1398 C1397 1.369 . S
C1398 C1407 1.429 . S
C1399 C1397 1.419 . S
C1399 C1400 1.363 . S
C1399 H1402 0.929 . S
C1400 C1399 1.363 . S
C1400 C1406 1.428 . S
H1401 C1397 0.930 . S
H1402 C1399 0.929 . S
S1403 N1404 1.613 . S
S1403 N1405 1.610 . S
N1404 S1403 1.613 . S
N1404 C1407 1.350 . S
N1405 S1403 1.610 . S
N1405 C1406 1.351 . S
C1406 C1400 1.428 . S
C1406 N1405 1.351 . S
C1406 C1407 1.434 . S
C1407 C1398 1.429 . S
C1407 N1404 1.350 . S
C1407 C1406 1.434 . S
C1408 C1409 1.369 . S
C1408 C1410 1.419 . S
C1408 H1412 0.930 . S
C1409 C1408 1.369 . S
C1409 C1418 1.429 . S
C1410 C1408 1.419 . S
C1410 C1411 1.363 . S
C1410 H1413 0.929 . S
C1411 C1410 1.363 . S
C1411 C1417 1.428 . S
H1412 C1408 0.930 . S
H1413 C1410 0.929 . S
S1414 N1415 1.613 . S
S1414 N1416 1.610 . S
N1415 S1414 1.613 . S
N1415 C1418 1.350 . S
N1416 S1414 1.610 . S
N1416 C1417 1.351 . S
C1417 C1411 1.428 . S
C1417 N1416 1.351 . S
C1417 C1418 1.434 . S
C1418 C1409 1.429 . S
C1418 N1415 1.350 . S
C1418 C1417 1.434 . S
C1419 C1420 1.369 1_545 S
C1419 C1421 1.419 . S
C1419 H1423 0.930 . S
C1420 C1419 1.369 1_565 S
C1420 C1429 1.429 . S
C1421 C1419 1.419 . S
C1421 C1422 1.363 . S
C1421 H1424 0.929 . S
C1422 C1421 1.363 . S
C1422 C1428 1.428 . S
H1423 C1419 0.930 . S
H1424 C1421 0.929 . S
S1425 N1426 1.614 . S
S1425 N1427 1.609 1_565 S
N1426 S1425 1.614 . S
N1426 C1429 1.350 . S
N1427 S1425 1.609 1_545 S
N1427 C1428 1.351 . S
C1428 C1422 1.428 . S
C1428 N1427 1.351 . S
C1428 C1429 1.434 1_545 S
C1429 C1420 1.429 . S
C1429 N1426 1.350 . S
C1429 C1428 1.434 1_565 S
C1430 C1431 1.369 . S
C1430 C1432 1.419 . S
C1430 H1434 0.930 . S
C1431 C1430 1.369 . S
C1431 C1440 1.429 . S
C1432 C1430 1.419 . S
C1432 C1433 1.363 . S
C1432 H1435 0.929 . S
C1433 C1432 1.363 . S
C1433 C1439 1.428 . S
H1434 C1430 0.930 . S
H1435 C1432 0.929 . S
S1436 N1437 1.613 . S
S1436 N1438 1.610 . S
N1437 S1436 1.613 . S
N1437 C1440 1.350 . S
N1438 S1436 1.610 . S
N1438 C1439 1.351 . S
C1439 C1433 1.428 . S
C1439 N1438 1.351 . S
C1439 C1440 1.434 . S
C1440 C1431 1.429 . S
C1440 N1437 1.350 . S
C1440 C1439 1.434 . S
C1441 C1442 1.369 1_545 S
C1441 C1443 1.419 . S
C1441 H1445 0.930 . S
C1442 C1441 1.369 1_565 S
C1442 C1451 1.429 . S
C1443 C1441 1.419 . S
C1443 C1444 1.363 . S
C1443 H1446 0.929 . S
C1444 C1443 1.363 . S
C1444 C1450 1.428 1_545 S
H1445 C1441 0.930 . S
H1446 C1443 0.929 . S
S1447 N1448 1.613 . S
S1447 N1449 1.610 . S
N1448 S1447 1.613 . S
N1448 C1451 1.350 . S
N1449 S1447 1.610 . S
N1449 C1450 1.351 . S
C1450 C1444 1.428 1_565 S
C1450 N1449 1.351 . S
C1450 C1451 1.434 . S
C1451 C1442 1.429 . S
C1451 N1448 1.350 . S
C1451 C1450 1.434 . S
C1452 C1453 1.369 . S
C1452 C1454 1.419 . S
C1452 H1456 0.930 . S
C1453 C1452 1.369 . S
C1453 C1462 1.429 . S
C1454 C1452 1.419 . S
C1454 C1455 1.363 . S
C1454 H1457 0.929 . S
C1455 C1454 1.363 . S
C1455 C1461 1.428 . S
H1456 C1452 0.930 . S
H1457 C1454 0.929 . S
S1458 N1459 1.613 . S
S1458 N1460 1.610 . S
N1459 S1458 1.613 . S
N1459 C1462 1.350 . S
N1460 S1458 1.610 . S
N1460 C1461 1.351 . S
C1461 C1455 1.428 . S
C1461 N1460 1.351 . S
C1461 C1462 1.434 . S
C1462 C1453 1.429 . S
C1462 N1459 1.350 . S
C1462 C1461 1.434 . S
C1463 C1464 1.369 . S
C1463 C1465 1.419 1_565 S
C1463 H1467 0.930 . S
C1464 C1463 1.369 . S
C1464 C1473 1.429 1_565 S
C1465 C1463 1.419 1_545 S
C1465 C1466 1.363 . S
C1465 H1468 0.929 . S
C1466 C1465 1.363 . S
C1466 C1472 1.428 . S
H1467 C1463 0.930 . S
H1468 C1465 0.929 . S
S1469 N1470 1.613 . S
S1469 N1471 1.610 . S
N1470 S1469 1.613 . S
N1470 C1473 1.350 . S
N1471 S1469 1.610 . S
N1471 C1472 1.351 . S
C1472 C1466 1.428 . S
C1472 N1471 1.351 . S
C1472 C1473 1.434 . S
C1473 C1464 1.429 1_545 S
C1473 N1470 1.350 . S
C1473 C1472 1.434 . S
C1474 C1475 1.369 . S
C1474 C1476 1.419 . S
C1474 H1478 0.930 . S
C1475 C1474 1.369 . S
C1475 C1484 1.429 . S
C1476 C1474 1.419 . S
C1476 C1477 1.363 . S
C1476 H1479 0.929 . S
C1477 C1476 1.363 . S
C1477 C1483 1.428 . S
H1478 C1474 0.930 . S
H1479 C1476 0.929 . S
S1480 N1481 1.613 . S
S1480 N1482 1.610 . S
N1481 S1480 1.613 . S
N1481 C1484 1.350 . S
N1482 S1480 1.610 . S
N1482 C1483 1.351 . S
C1483 C1477 1.428 . S
C1483 N1482 1.351 . S
C1483 C1484 1.434 . S
C1484 C1475 1.429 . S
C1484 N1481 1.350 . S
C1484 C1483 1.434 . S
C1485 C1486 1.369 . S
C1485 C1487 1.419 . S
C1485 H1489 0.930 . S
C1486 C1485 1.369 . S
C1486 C1495 1.429 . S
C1487 C1485 1.419 . S
C1487 C1488 1.363 1_565 S
C1487 H1490 0.929 . S
C1488 C1487 1.363 1_545 S
C1488 C1494 1.428 . S
H1489 C1485 0.930 . S
H1490 C1487 0.929 . S
S1491 N1492 1.613 1_545 S
S1491 N1493 1.610 . S
N1492 S1491 1.613 1_565 S
N1492 C1495 1.350 . S
N1493 S1491 1.610 . S
N1493 C1494 1.351 . S
C1494 C1488 1.428 . S
C1494 N1493 1.351 . S
C1494 C1495 1.434 1_545 S
C1495 C1486 1.429 . S
C1495 N1492 1.350 . S
C1495 C1494 1.434 1_565 S
C1496 C1497 1.369 . S
C1496 C1498 1.419 . S
C1496 H1500 0.930 . S
C1497 C1496 1.369 . S
C1497 C1506 1.429 . S
C1498 C1496 1.419 . S
C1498 C1499 1.363 . S
C1498 H1501 0.929 . S
C1499 C1498 1.363 . S
C1499 C1505 1.428 . S
H1500 C1496 0.930 . S
H1501 C1498 0.929 . S
S1502 N1503 1.613 . S
S1502 N1504 1.610 . S
N1503 S1502 1.613 . S
N1503 C1506 1.350 . S
N1504 S1502 1.610 . S
N1504 C1505 1.351 . S
C1505 C1499 1.428 . S
C1505 N1504 1.351 . S
C1505 C1506 1.434 . S
C1506 C1497 1.429 . S
C1506 N1503 1.350 . S
C1506 C1505 1.434 . S
C1507 C1508 1.369 . S
C1507 C1509 1.419 1_565 S
C1507 H1511 0.930 1_565 S
C1508 C1507 1.369 . S
C1508 C1517 1.429 . S
C1509 C1507 1.419 1_545 S
C1509 C1510 1.363 . S
C1509 H1512 0.929 . S
C1510 C1509 1.363 . S
C1510 C1516 1.428 1_545 S
H1511 C1507 0.930 1_545 S
H1512 C1509 0.929 . S
S1513 N1514 1.613 . S
S1513 N1515 1.610 . S
N1514 S1513 1.613 . S
N1514 C1517 1.350 . S
N1515 S1513 1.610 . S
N1515 C1516 1.351 . S
C1516 C1510 1.428 1_565 S
C1516 N1515 1.351 . S
C1516 C1517 1.434 . S
C1517 C1508 1.429 . S
C1517 N1514 1.350 . S
C1517 C1516 1.434 . S
C1518 C1519 1.369 . S
C1518 C1520 1.419 . S
C1518 H1522 0.930 . S
C1519 C1518 1.369 . S
C1519 C1528 1.429 . S
C1520 C1518 1.419 . S
C1520 C1521 1.363 . S
C1520 H1523 0.929 . S
C1521 C1520 1.363 . S
C1521 C1527 1.428 . S
H1522 C1518 0.930 . S
H1523 C1520 0.929 . S
S1524 N1525 1.613 1_565 S
S1524 N1526 1.610 . S
N1525 S1524 1.613 1_545 S
N1525 C1528 1.350 1_545 S
N1526 S1524 1.610 . S
N1526 C1527 1.351 . S
C1527 C1521 1.428 . S
C1527 N1526 1.351 . S
C1527 C1528 1.434 . S
C1528 C1519 1.429 . S
C1528 N1525 1.350 1_565 S
C1528 C1527 1.434 . S
C1529 C1530 1.369 1_545 S
C1529 C1531 1.419 . S
C1529 H1533 0.930 . S
C1530 C1529 1.369 1_565 S
C1530 C1539 1.429 . S
C1531 C1529 1.419 . S
C1531 C1532 1.363 . S
C1531 H1534 0.929 . S
C1532 C1531 1.363 . S
C1532 C1538 1.428 1_545 S
H1533 C1529 0.930 . S
H1534 C1531 0.929 . S
S1535 N1536 1.613 . S
S1535 N1537 1.610 . S
N1536 S1535 1.613 . S
N1536 C1539 1.350 . S
N1537 S1535 1.610 . S
N1537 C1538 1.351 . S
C1538 C1532 1.428 1_565 S
C1538 N1537 1.351 . S
C1538 C1539 1.434 . S
C1539 C1530 1.429 . S
C1539 N1536 1.350 . S
C1539 C1538 1.434 . S
C1540 C1541 1.369 . S
C1540 C1542 1.419 . S
C1540 H1544 0.930 . S
C1541 C1540 1.369 . S
C1541 C1550 1.429 . S
C1542 C1540 1.419 . S
C1542 C1543 1.363 . S
C1542 H1545 0.929 . S
C1543 C1542 1.363 . S
C1543 C1549 1.428 . S
H1544 C1540 0.930 . S
H1545 C1542 0.929 . S
S1546 N1547 1.613 . S
S1546 N1548 1.610 . S
N1547 S1546 1.613 . S
N1547 C1550 1.350 . S
N1548 S1546 1.610 . S
N1548 C1549 1.351 . S
C1549 C1543 1.428 . S
C1549 N1548 1.351 . S
C1549 C1550 1.434 . S
C1550 C1541 1.429 . S
C1550 N1547 1.350 . S
C1550 C1549 1.434 . S
C1551 C1552 1.369 . S
C1551 C1553 1.419 . S
C1551 H1555 0.930 . S
C1552 C1551 1.369 . S
C1552 C1561 1.429 . S
C1553 C1551 1.419 . S
C1553 C1554 1.363 1_565 S
C1553 H1556 0.929 . S
C1554 C1553 1.363 1_545 S
C1554 C1560 1.428 . S
H1555 C1551 0.930 . S
H1556 C1553 0.929 . S
S1557 N1558 1.613 1_545 S
S1557 N1559 1.610 . S
N1558 S1557 1.613 1_565 S
N1558 C1561 1.350 . S
N1559 S1557 1.610 . S
N1559 C1560 1.351 . S
C1560 C1554 1.428 . S
C1560 N1559 1.351 . S
C1560 C1561 1.434 1_545 S
C1561 C1552 1.429 . S
C1561 N1558 1.350 . S
C1561 C1560 1.434 1_565 S
C1562 C1563 1.369 . S
C1562 C1564 1.419 . S
C1562 H1566 0.930 . S
C1563 C1562 1.369 . S
C1563 C1572 1.429 . S
C1564 C1562 1.419 . S
C1564 C1565 1.363 . S
C1564 H1567 0.929 . S
C1565 C1564 1.363 . S
C1565 C1571 1.428 . S
H1566 C1562 0.930 . S
H1567 C1564 0.929 . S
S1568 N1569 1.613 . S
S1568 N1570 1.610 . S
N1569 S1568 1.613 . S
N1569 C1572 1.350 . S
N1570 S1568 1.610 . S
N1570 C1571 1.351 . S
C1571 C1565 1.428 . S
C1571 N1570 1.351 . S
C1571 C1572 1.434 . S
C1572 C1563 1.429 . S
C1572 N1569 1.350 . S
C1572 C1571 1.434 . S
C1573 C1574 1.369 1_565 S
C1573 C1575 1.419 . S
C1573 H1577 0.930 . S
C1574 C1573 1.369 1_545 S
C1574 C1583 1.429 . S
C1575 C1573 1.419 . S
C1575 C1576 1.363 . S
C1575 H1578 0.929 . S
C1576 C1575 1.363 . S
C1576 C1582 1.428 1_565 S
H1577 C1573 0.930 . S
H1578 C1575 0.929 . S
S1579 N1580 1.613 . S
S1579 N1581 1.610 . S
N1580 S1579 1.613 . S
N1580 C1583 1.350 . S
N1581 S1579 1.610 . S
N1581 C1582 1.351 . S
C1582 C1576 1.428 1_545 S
C1582 N1581 1.351 . S
C1582 C1583 1.434 . S
C1583 C1574 1.429 . S
C1583 N1580 1.350 . S
C1583 C1582 1.434 . S
C1584 C1585 1.369 . S
C1584 C1586 1.419 . S
C1584 H1588 0.930 . S
C1585 C1584 1.369 . S
C1585 C1594 1.429 . S
C1586 C1584 1.419 . S
C1586 C1587 1.363 . S
C1586 H1589 0.929 . S
C1587 C1586 1.363 . S
C1587 C1593 1.428 . S
H1588 C1584 0.930 . S
H1589 C1586 0.929 . S
S1590 N1591 1.613 . S
S1590 N1592 1.610 . S
N1591 S1590 1.613 . S
N1591 C1594 1.350 . S
N1592 S1590 1.610 . S
N1592 C1593 1.351 . S
C1593 C1587 1.428 . S
C1593 N1592 1.351 . S
C1593 C1594 1.434 . S
C1594 C1585 1.429 . S
C1594 N1591 1.350 . S
C1594 C1593 1.434 . S
C1595 C1596 1.369 . S
C1595 C1597 1.419 . S
C1595 H1599 0.930 . S
C1596 C1595 1.369 . S
C1596 C1605 1.429 . S
C1597 C1595 1.419 . S
C1597 C1598 1.363 . S
C1597 H1600 0.929 . S
C1598 C1597 1.363 . S
C1598 C1604 1.428 . S
H1599 C1595 0.930 . S
H1600 C1597 0.929 . S
S1601 N1602 1.613 . S
S1601 N1603 1.610 . S
N1602 S1601 1.613 . S
N1602 C1605 1.350 . S
N1603 S1601 1.610 . S
N1603 C1604 1.351 . S
C1604 C1598 1.428 . S
C1604 N1603 1.351 . S
C1604 C1605 1.434 . S
C1605 C1596 1.429 . S
C1605 N1602 1.350 . S
C1605 C1604 1.434 . S
C1606 C1607 1.369 . S
C1606 C1608 1.419 . S
C1606 H1610 0.930 . S
C1607 C1606 1.369 . S
C1607 C1616 1.429 . S
C1608 C1606 1.419 . S
C1608 C1609 1.363 . S
C1608 H1611 0.929 . S
C1609 C1608 1.363 . S
C1609 C1615 1.428 . S
H1610 C1606 0.930 . S
H1611 C1608 0.929 . S
S1612 N1613 1.613 . S
S1612 N1614 1.610 . S
N1613 S1612 1.613 . S
N1613 C1616 1.350 . S
N1614 S1612 1.610 . S
N1614 C1615 1.351 . S
C1615 C1609 1.428 . S
C1615 N1614 1.351 . S
C1615 C1616 1.434 . S
C1616 C1607 1.429 . S
C1616 N1613 1.350 . S
C1616 C1615 1.434 . S
C1617 C1618 1.369 . S
C1617 C1619 1.419 . S
C1617 H1621 0.930 . S
C1618 C1617 1.369 . S
C1618 C1627 1.429 . S
C1619 C1617 1.419 . S
C1619 C1620 1.363 . S
C1619 H1622 0.929 . S
C1620 C1619 1.363 . S
C1620 C1626 1.428 . S
H1621 C1617 0.930 . S
H1622 C1619 0.929 . S
S1623 N1624 1.613 . S
S1623 N1625 1.610 . S
N1624 S1623 1.613 . S
N1624 C1627 1.350 . S
N1625 S1623 1.610 . S
N1625 C1626 1.351 . S
C1626 C1620 1.428 . S
C1626 N1625 1.351 . S
C1626 C1627 1.434 . S
C1627 C1618 1.429 . S
C1627 N1624 1.350 . S
C1627 C1626 1.434 . S
C1628 C1629 1.369 . S
C1628 C1630 1.419 . S
C1628 H1632 0.930 . S
C1629 C1628 1.369 . S
C1629 C1638 1.429 . S
C1630 C1628 1.419 . S
C1630 C1631 1.363 . S
C1630 H1633 0.929 . S
C1631 C1630 1.363 . S
C1631 C1637 1.428 . S
H1632 C1628 0.930 . S
H1633 C1630 0.929 . S
S1634 N1635 1.613 . S
S1634 N1636 1.610 . S
N1635 S1634 1.613 . S
N1635 C1638 1.350 . S
N1636 S1634 1.610 . S
N1636 C1637 1.351 . S
C1637 C1631 1.428 . S
C1637 N1636 1.351 . S
C1637 C1638 1.434 . S
C1638 C1629 1.429 . S
C1638 N1635 1.350 . S
C1638 C1637 1.434 . S
C1639 C1640 1.369 . S
C1639 C1641 1.419 . S
C1639 H1643 0.930 . S
C1640 C1639 1.369 . S
C1640 C1649 1.429 . S
C1641 C1639 1.419 . S
C1641 C1642 1.363 . S
C1641 H1644 0.929 . S
C1642 C1641 1.363 . S
C1642 C1648 1.428 . S
H1643 C1639 0.930 . S
H1644 C1641 0.929 . S
S1645 N1646 1.613 . S
S1645 N1647 1.610 . S
N1646 S1645 1.613 . S
N1646 C1649 1.350 . S
N1647 S1645 1.610 . S
N1647 C1648 1.351 . S
C1648 C1642 1.428 . S
C1648 N1647 1.351 . S
C1648 C1649 1.434 . S
C1649 C1640 1.429 . S
C1649 N1646 1.350 . S
C1649 C1648 1.434 . S
C1650 C1651 1.369 . S
C1650 C1652 1.419 . S
C1650 H1654 0.930 . S
C1651 C1650 1.369 . S
C1651 C1660 1.429 . S
C1652 C1650 1.419 . S
C1652 C1653 1.363 . S
C1652 H1655 0.929 . S
C1653 C1652 1.363 . S
C1653 C1659 1.428 . S
H1654 C1650 0.930 . S
H1655 C1652 0.929 . S
S1656 N1657 1.613 . S
S1656 N1658 1.610 . S
N1657 S1656 1.613 . S
N1657 C1660 1.350 . S
N1658 S1656 1.610 . S
N1658 C1659 1.351 . S
C1659 C1653 1.428 . S
C1659 N1658 1.351 . S
C1659 C1660 1.434 . S
C1660 C1651 1.429 . S
C1660 N1657 1.350 . S
C1660 C1659 1.434 . S
C1661 C1662 1.369 . S
C1661 C1663 1.419 . S
C1661 H1665 0.930 . S
C1662 C1661 1.369 . S
C1662 C1671 1.429 . S
C1663 C1661 1.419 . S
C1663 C1664 1.363 . S
C1663 H1666 0.929 . S
C1664 C1663 1.363 . S
C1664 C1670 1.428 . S
H1665 C1661 0.930 . S
H1666 C1663 0.929 . S
S1667 N1668 1.613 . S
S1667 N1669 1.610 . S
N1668 S1667 1.613 . S
N1668 C1671 1.350 . S
N1669 S1667 1.610 . S
N1669 C1670 1.351 . S
C1670 C1664 1.428 . S
C1670 N1669 1.351 . S
C1670 C1671 1.434 . S
C1671 C1662 1.429 . S
C1671 N1668 1.350 . S
C1671 C1670 1.434 . S
C1672 C1673 1.369 . S
C1672 C1674 1.419 . S
C1672 H1676 0.930 . S
C1673 C1672 1.369 . S
C1673 C1682 1.429 . S
C1674 C1672 1.419 . S
C1674 C1675 1.363 . S
C1674 H1677 0.929 . S
C1675 C1674 1.363 . S
C1675 C1681 1.428 . S
H1676 C1672 0.930 . S
H1677 C1674 0.929 . S
S1678 N1679 1.613 . S
S1678 N1680 1.610 . S
N1679 S1678 1.613 . S
N1679 C1682 1.350 . S
N1680 S1678 1.610 . S
N1680 C1681 1.351 . S
C1681 C1675 1.428 . S
C1681 N1680 1.351 . S
C1681 C1682 1.434 . S
C1682 C1673 1.429 . S
C1682 N1679 1.350 . S
C1682 C1681 1.434 . S
C1683 C1684 1.369 . S
C1683 C1685 1.419 . S
C1683 H1687 0.930 . S
C1684 C1683 1.369 . S
C1684 C1693 1.429 . S
C1685 C1683 1.419 . S
C1685 C1686 1.363 . S
C1685 H1688 0.929 . S
C1686 C1685 1.363 . S
C1686 C1692 1.428 . S
H1687 C1683 0.930 . S
H1688 C1685 0.929 . S
S1689 N1690 1.613 . S
S1689 N1691 1.610 . S
N1690 S1689 1.613 . S
N1690 C1693 1.350 . S
N1691 S1689 1.610 . S
N1691 C1692 1.351 . S
C1692 C1686 1.428 . S
C1692 N1691 1.351 . S
C1692 C1693 1.434 . S
C1693 C1684 1.429 . S
C1693 N1690 1.350 . S
C1693 C1692 1.434 . S
C1694 C1695 1.369 . S
C1694 C1696 1.419 . S
C1694 H1698 0.930 . S
C1695 C1694 1.369 . S
C1695 C1704 1.429 . S
C1696 C1694 1.419 . S
C1696 C1697 1.363 . S
C1696 H1699 0.929 . S
C1697 C1696 1.363 . S
C1697 C1703 1.428 . S
H1698 C1694 0.930 . S
H1699 C1696 0.929 . S
S1700 N1701 1.613 . S
S1700 N1702 1.610 . S
N1701 S1700 1.613 . S
N1701 C1704 1.350 . S
N1702 S1700 1.610 . S
N1702 C1703 1.351 . S
C1703 C1697 1.428 . S
C1703 N1702 1.351 . S
C1703 C1704 1.434 . S
C1704 C1695 1.429 . S
C1704 N1701 1.350 . S
C1704 C1703 1.434 . S
C1705 C1706 1.369 . S
C1705 C1707 1.419 . S
C1705 H1709 0.930 . S
C1706 C1705 1.369 . S
C1706 C1715 1.429 . S
C1707 C1705 1.419 . S
C1707 C1708 1.363 . S
C1707 H1710 0.929 . S
C1708 C1707 1.363 . S
C1708 C1714 1.428 . S
H1709 C1705 0.930 . S
H1710 C1707 0.929 . S
S1711 N1712 1.613 . S
S1711 N1713 1.610 . S
N1712 S1711 1.613 . S
N1712 C1715 1.350 . S
N1713 S1711 1.610 . S
N1713 C1714 1.351 . S
C1714 C1708 1.428 . S
C1714 N1713 1.351 . S
C1714 C1715 1.434 . S
C1715 C1706 1.429 . S
C1715 N1712 1.350 . S
C1715 C1714 1.434 . S
C1716 C1717 1.369 . S
C1716 C1718 1.419 . S
C1716 H1720 0.930 . S
C1717 C1716 1.369 . S
C1717 C1726 1.429 . S
C1718 C1716 1.419 . S
C1718 C1719 1.363 . S
C1718 H1721 0.929 . S
C1719 C1718 1.363 . S
C1719 C1725 1.428 . S
H1720 C1716 0.930 . S
H1721 C1718 0.929 . S
S1722 N1723 1.613 . S
S1722 N1724 1.610 . S
N1723 S1722 1.613 . S
N1723 C1726 1.350 . S
N1724 S1722 1.610 . S
N1724 C1725 1.351 . S
C1725 C1719 1.428 . S
C1725 N1724 1.351 . S
C1725 C1726 1.434 . S
C1726 C1717 1.429 . S
C1726 N1723 1.350 . S
C1726 C1725 1.434 . S
C1727 C1728 1.369 . S
C1727 C1729 1.419 . S
C1727 H1731 0.930 . S
C1728 C1727 1.369 . S
C1728 C1737 1.429 . S
C1729 C1727 1.419 . S
C1729 C1730 1.363 . S
C1729 H1732 0.929 . S
C1730 C1729 1.363 . S
C1730 C1736 1.428 . S
H1731 C1727 0.930 . S
H1732 C1729 0.929 . S
S1733 N1734 1.613 . S
S1733 N1735 1.610 . S
N1734 S1733 1.613 . S
N1734 C1737 1.350 . S
N1735 S1733 1.610 . S
N1735 C1736 1.351 . S
C1736 C1730 1.428 . S
C1736 N1735 1.351 . S
C1736 C1737 1.434 . S
C1737 C1728 1.429 . S
C1737 N1734 1.350 . S
C1737 C1736 1.434 . S
C1738 C1739 1.369 . S
C1738 C1740 1.419 . S
C1738 H1742 0.930 . S
C1739 C1738 1.369 . S
C1739 C1748 1.429 . S
C1740 C1738 1.419 . S
C1740 C1741 1.363 . S
C1740 H1743 0.929 . S
C1741 C1740 1.363 . S
C1741 C1747 1.428 . S
H1742 C1738 0.930 . S
H1743 C1740 0.929 . S
S1744 N1745 1.613 . S
S1744 N1746 1.610 . S
N1745 S1744 1.613 . S
N1745 C1748 1.350 . S
N1746 S1744 1.610 . S
N1746 C1747 1.351 . S
C1747 C1741 1.428 . S
C1747 N1746 1.351 . S
C1747 C1748 1.434 . S
C1748 C1739 1.429 . S
C1748 N1745 1.350 . S
C1748 C1747 1.434 . S
C1749 C1750 1.369 . S
C1749 C1751 1.419 . S
C1749 H1753 0.930 . S
C1750 C1749 1.369 . S
C1750 C1759 1.429 . S
C1751 C1749 1.419 . S
C1751 C1752 1.363 . S
C1751 H1754 0.929 . S
C1752 C1751 1.363 . S
C1752 C1758 1.428 . S
H1753 C1749 0.930 . S
H1754 C1751 0.929 . S
S1755 N1756 1.613 . S
S1755 N1757 1.610 . S
N1756 S1755 1.613 . S
N1756 C1759 1.350 . S
N1757 S1755 1.610 . S
N1757 C1758 1.351 . S
C1758 C1752 1.428 . S
C1758 N1757 1.351 . S
C1758 C1759 1.434 . S
C1759 C1750 1.429 . S
C1759 N1756 1.350 . S
C1759 C1758 1.434 . S
C1760 C1761 1.369 . S
C1760 C1762 1.419 . S
C1760 H1764 0.930 . S
C1761 C1760 1.369 . S
C1761 C1770 1.429 . S
C1762 C1760 1.419 . S
C1762 C1763 1.363 . S
C1762 H1765 0.929 . S
C1763 C1762 1.363 . S
C1763 C1769 1.428 . S
H1764 C1760 0.930 . S
H1765 C1762 0.929 . S
S1766 N1767 1.613 . S
S1766 N1768 1.610 . S
N1767 S1766 1.613 . S
N1767 C1770 1.350 . S
N1768 S1766 1.610 . S
N1768 C1769 1.351 . S
C1769 C1763 1.428 . S
C1769 N1768 1.351 . S
C1769 C1770 1.434 . S
C1770 C1761 1.429 . S
C1770 N1767 1.350 . S
C1770 C1769 1.434 . S
C1771 C1772 1.369 1_455 S
C1771 C1773 1.419 . S
C1771 H1775 0.930 . S
C1772 C1771 1.369 1_655 S
C1772 C1781 1.429 . S
C1773 C1771 1.419 . S
C1773 C1774 1.363 . S
C1773 H1776 0.929 . S
C1774 C1773 1.363 . S
C1774 C1780 1.428 1_455 S
H1775 C1771 0.930 . S
H1776 C1773 0.929 . S
S1777 N1778 1.613 . S
S1777 N1779 1.610 . S
N1778 S1777 1.613 . S
N1778 C1781 1.350 . S
N1779 S1777 1.610 . S
N1779 C1780 1.351 . S
C1780 C1774 1.428 1_655 S
C1780 N1779 1.351 . S
C1780 C1781 1.434 . S
C1781 C1772 1.429 . S
C1781 N1778 1.350 . S
C1781 C1780 1.434 . S
C1782 C1783 1.369 . S
C1782 C1784 1.419 1_455 S
C1782 H1786 0.930 . S
C1783 C1782 1.369 . S
C1783 C1792 1.429 . S
C1784 C1782 1.419 1_655 S
C1784 C1785 1.363 . S
C1784 H1787 0.929 . S
C1785 C1784 1.363 . S
C1785 C1791 1.428 . S
H1786 C1782 0.930 . S
H1787 C1784 0.929 . S
S1788 N1789 1.625 . S
S1788 N1790 1.598 1_455 S
N1789 S1788 1.625 . S
N1789 C1792 1.350 . S
N1790 S1788 1.598 1_655 S
N1790 C1791 1.351 . S
C1791 C1785 1.428 . S
C1791 N1790 1.351 . S
C1791 C1792 1.434 1_655 S
C1792 C1783 1.429 . S
C1792 N1789 1.350 . S
C1792 C1791 1.434 1_455 S
C1793 C1794 1.369 . S
C1793 C1795 1.419 . S
C1793 H1797 0.930 . S
C1794 C1793 1.369 . S
C1794 C1803 1.429 . S
C1795 C1793 1.419 . S
C1795 C1796 1.363 . S
C1795 H1798 0.929 . S
C1796 C1795 1.363 . S
C1796 C1802 1.428 . S
H1797 C1793 0.930 . S
H1798 C1795 0.929 . S
S1799 N1800 1.613 . S
S1799 N1801 1.610 . S
N1800 S1799 1.613 . S
N1800 C1803 1.350 . S
N1801 S1799 1.610 . S
N1801 C1802 1.351 . S
C1802 C1796 1.428 . S
C1802 N1801 1.351 . S
C1802 C1803 1.434 . S
C1803 C1794 1.429 . S
C1803 N1800 1.350 . S
C1803 C1802 1.434 . S
C1804 C1805 1.369 . S
C1804 C1806 1.419 . S
C1804 H1808 0.930 . S
C1805 C1804 1.369 . S
C1805 C1814 1.429 . S
C1806 C1804 1.419 . S
C1806 C1807 1.363 . S
C1806 H1809 0.929 . S
C1807 C1806 1.363 . S
C1807 C1813 1.428 . S
H1808 C1804 0.930 . S
H1809 C1806 0.929 . S
S1810 N1811 1.613 . S
S1810 N1812 1.610 . S
N1811 S1810 1.613 . S
N1811 C1814 1.350 . S
N1812 S1810 1.610 . S
N1812 C1813 1.351 . S
C1813 C1807 1.428 . S
C1813 N1812 1.351 . S
C1813 C1814 1.434 . S
C1814 C1805 1.429 . S
C1814 N1811 1.350 . S
C1814 C1813 1.434 . S
C1815 C1816 1.369 . S
C1815 C1817 1.419 . S
C1815 H1819 0.930 . S
C1816 C1815 1.369 . S
C1816 C1825 1.429 . S
C1817 C1815 1.419 . S
C1817 C1818 1.363 . S
C1817 H1820 0.929 . S
C1818 C1817 1.363 . S
C1818 C1824 1.428 . S
H1819 C1815 0.930 . S
H1820 C1817 0.929 . S
S1821 N1822 1.613 . S
S1821 N1823 1.610 . S
N1822 S1821 1.613 . S
N1822 C1825 1.350 . S
N1823 S1821 1.610 . S
N1823 C1824 1.351 . S
C1824 C1818 1.428 . S
C1824 N1823 1.351 . S
C1824 C1825 1.434 . S
C1825 C1816 1.429 . S
C1825 N1822 1.350 . S
C1825 C1824 1.434 . S
C1826 C1827 1.369 . S
C1826 C1828 1.419 1_655 S
C1826 H1830 0.930 . S
C1827 C1826 1.369 . S
C1827 C1836 1.429 . S
C1828 C1826 1.419 1_455 S
C1828 C1829 1.363 . S
C1828 H1831 0.929 . S
C1829 C1828 1.363 . S
C1829 C1835 1.428 . S
H1830 C1826 0.930 . S
H1831 C1828 0.929 . S
S1832 N1833 1.613 1_455 S
S1832 N1834 1.610 . S
N1833 S1832 1.613 1_655 S
N1833 C1836 1.350 . S
N1834 S1832 1.610 . S
N1834 C1835 1.351 . S
C1835 C1829 1.428 . S
C1835 N1834 1.351 . S
C1835 C1836 1.434 1_455 S
C1836 C1827 1.429 . S
C1836 N1833 1.350 . S
C1836 C1835 1.434 1_655 S
C1837 C1838 1.369 1_455 S
C1837 C1839 1.419 . S
C1837 H1841 0.930 . S
C1838 C1837 1.369 1_655 S
C1838 C1847 1.429 . S
C1839 C1837 1.419 . S
C1839 C1840 1.363 . S
C1839 H1842 0.929 . S
C1840 C1839 1.363 . S
C1840 C1846 1.428 1_455 S
H1841 C1837 0.930 . S
H1842 C1839 0.929 . S
S1843 N1844 1.613 . S
S1843 N1845 1.610 . S
N1844 S1843 1.613 . S
N1844 C1847 1.350 . S
N1845 S1843 1.610 . S
N1845 C1846 1.351 . S
C1846 C1840 1.428 1_655 S
C1846 N1845 1.351 . S
C1846 C1847 1.434 . S
C1847 C1838 1.429 . S
C1847 N1844 1.350 . S
C1847 C1846 1.434 . S
C1848 C1849 1.369 . S
C1848 C1850 1.419 . S
C1848 H1852 0.930 . S
C1849 C1848 1.369 . S
C1849 C1858 1.429 . S
C1850 C1848 1.419 . S
C1850 C1851 1.363 . S
C1850 H1853 0.929 . S
C1851 C1850 1.363 . S
C1851 C1857 1.428 . S
H1852 C1848 0.930 . S
H1853 C1850 0.929 . S
S1854 N1855 1.613 . S
S1854 N1856 1.610 . S
N1855 S1854 1.613 . S
N1855 C1858 1.350 . S
N1856 S1854 1.610 . S
N1856 C1857 1.351 . S
C1857 C1851 1.428 . S
C1857 N1856 1.351 . S
C1857 C1858 1.434 . S
C1858 C1849 1.429 . S
C1858 N1855 1.350 . S
C1858 C1857 1.434 . S
C1859 C1860 1.369 1_655 S
C1859 C1861 1.419 . S
C1859 H1863 0.930 . S
C1860 C1859 1.369 1_455 S
C1860 C1869 1.429 . S
C1861 C1859 1.419 . S
C1861 C1862 1.363 . S
C1861 H1864 0.929 . S
C1862 C1861 1.363 . S
C1862 C1868 1.428 1_655 S
H1863 C1859 0.930 . S
H1864 C1861 0.929 . S
S1865 N1866 1.613 . S
S1865 N1867 1.610 . S
N1866 S1865 1.613 . S
N1866 C1869 1.350 . S
N1867 S1865 1.610 . S
N1867 C1868 1.351 . S
C1868 C1862 1.428 1_455 S
C1868 N1867 1.351 . S
C1868 C1869 1.434 . S
C1869 C1860 1.429 . S
C1869 N1866 1.350 . S
C1869 C1868 1.434 . S
C1870 C1871 1.369 . S
C1870 C1872 1.419 1_655 S
C1870 H1874 0.930 . S
C1871 C1870 1.369 . S
C1871 C1880 1.429 . S
C1872 C1870 1.419 1_455 S
C1872 C1873 1.363 . S
C1872 H1875 0.929 . S
C1873 C1872 1.363 . S
C1873 C1879 1.428 . S
H1874 C1870 0.930 . S
H1875 C1872 0.929 . S
S1876 N1877 1.613 . S
S1876 N1878 1.610 1_655 S
N1877 S1876 1.613 . S
N1877 C1880 1.350 . S
N1878 S1876 1.610 1_455 S
N1878 C1879 1.351 . S
C1879 C1873 1.428 . S
C1879 N1878 1.351 . S
C1879 C1880 1.434 1_455 S
C1880 C1871 1.429 . S
C1880 N1877 1.350 . S
C1880 C1879 1.434 1_655 S
C1881 C1882 1.369 . S
C1881 C1883 1.419 . S
C1881 H1885 0.930 . S
C1882 C1881 1.369 . S
C1882 C1891 1.429 . S
C1883 C1881 1.419 . S
C1883 C1884 1.363 . S
C1883 H1886 0.929 . S
C1884 C1883 1.363 . S
C1884 C1890 1.428 . S
H1885 C1881 0.930 . S
H1886 C1883 0.929 . S
S1887 N1888 1.613 . S
S1887 N1889 1.610 . S
N1888 S1887 1.613 . S
N1888 C1891 1.350 . S
N1889 S1887 1.610 . S
N1889 C1890 1.351 . S
C1890 C1884 1.428 . S
C1890 N1889 1.351 . S
C1890 C1891 1.434 . S
C1891 C1882 1.429 . S
C1891 N1888 1.350 . S
C1891 C1890 1.434 . S
C1892 C1893 1.369 . S
C1892 C1894 1.419 . S
C1892 H1896 0.930 . S
C1893 C1892 1.369 . S
C1893 C1902 1.429 . S
C1894 C1892 1.419 . S
C1894 C1895 1.363 . S
C1894 H1897 0.929 . S
C1895 C1894 1.363 . S
C1895 C1901 1.428 . S
H1896 C1892 0.930 . S
H1897 C1894 0.929 . S
S1898 N1899 1.613 . S
S1898 N1900 1.610 . S
N1899 S1898 1.613 . S
N1899 C1902 1.350 . S
N1900 S1898 1.610 . S
N1900 C1901 1.351 . S
C1901 C1895 1.428 . S
C1901 N1900 1.351 . S
C1901 C1902 1.434 . S
C1902 C1893 1.429 . S
C1902 N1899 1.350 . S
C1902 C1901 1.434 . S
C1903 C1904 1.369 . S
C1903 C1905 1.419 . S
C1903 H1907 0.930 . S
C1904 C1903 1.369 . S
C1904 C1913 1.429 . S
C1905 C1903 1.419 . S
C1905 C1906 1.363 . S
C1905 H1908 0.929 . S
C1906 C1905 1.363 . S
C1906 C1912 1.428 . S
H1907 C1903 0.930 . S
H1908 C1905 0.929 . S
S1909 N1910 1.613 . S
S1909 N1911 1.610 . S
N1910 S1909 1.613 . S
N1910 C1913 1.350 . S
N1911 S1909 1.610 . S
N1911 C1912 1.351 . S
C1912 C1906 1.428 . S
C1912 N1911 1.351 . S
C1912 C1913 1.434 . S
C1913 C1904 1.429 . S
C1913 N1910 1.350 . S
C1913 C1912 1.434 . S
C1914 C1915 1.369 . S
C1914 C1916 1.419 1_455 S
C1914 H1918 0.930 . S
C1915 C1914 1.369 . S
C1915 C1924 1.429 . S
C1916 C1914 1.419 1_655 S
C1916 C1917 1.363 . S
C1916 H1919 0.929 . S
C1917 C1916 1.363 . S
C1917 C1923 1.428 . S
H1918 C1914 0.930 . S
H1919 C1916 0.929 . S
S1920 N1921 1.613 . S
S1920 N1922 1.610 1_455 S
N1921 S1920 1.613 . S
N1921 C1924 1.350 . S
N1922 S1920 1.610 1_655 S
N1922 C1923 1.351 . S
C1923 C1917 1.428 . S
C1923 N1922 1.351 . S
C1923 C1924 1.434 1_655 S
C1924 C1915 1.429 . S
C1924 N1921 1.350 . S
C1924 C1923 1.434 1_455 S
C1925 C1926 1.369 . S
C1925 C1927 1.419 . S
C1925 H1929 0.930 . S
C1926 C1925 1.369 . S
C1926 C1935 1.429 1_455 S
C1927 C1925 1.419 . S
C1927 C1928 1.363 1_455 S
C1927 H1930 0.929 . S
C1928 C1927 1.363 1_655 S
C1928 C1934 1.428 . S
H1929 C1925 0.930 . S
H1930 C1927 0.929 . S
S1931 N1932 1.613 . S
S1931 N1933 1.610 . S
N1932 S1931 1.613 . S
N1932 C1935 1.350 . S
N1933 S1931 1.610 . S
N1933 C1934 1.351 . S
C1934 C1928 1.428 . S
C1934 N1933 1.351 . S
C1934 C1935 1.434 . S
C1935 C1926 1.429 1_655 S
C1935 N1932 1.350 . S
C1935 C1934 1.434 . S
C1057 C28 1.372 . S
C1059 C259 1.373 . S
C1068 C61 1.372 . S
C1070 C160 1.375 . S
C1079 C94 1.374 . S
C1081 C193 1.373 . S
C1090 C127 1.377 . S
C1092 C226 1.376 . S
C1101 C523 1.375 . S
C1103 C292 1.373 . S
C1112 C325 1.377 . S
C1114 C424 1.374 . S
C1123 C457 1.372 . S
C1125 C358 1.374 . S
C1134 C391 1.373 . S
C1136 C490 1.373 . S
C1145 C556 1.376 . S
C1147 C787 1.374 . S
C1156 C688 1.377 . S
C1158 C589 1.376 . S
C1167 C622 1.373 . S
C1169 C721 1.376 . S
C1178 C655 1.377 . S
C1180 C754 1.376 . S
C1189 C820 1.372 . S
C1191 C1051 1.374 . S
C1200 C853 1.373 . S
C1202 C952 1.373 . S
C1211 C985 1.374 . S
C1213 C886 1.373 . S
C1222 C1018 1.372 . S
C1224 C919 1.374 . S
C1233 C215 1.676 . S
C1235 C17 1.681 . S
C1244 C50 1.673 . S
C1246 C248 1.681 . S
C1255 C83 1.678 . S
C1257 C149 1.679 . S
C1266 C116 1.683 . S
C1268 C182 1.674 . S
C1277 C281 1.675 . S
C1279 C479 1.681 . S
C1288 C512 1.681 . S
C1290 C314 1.676 . S
C1299 C413 1.680 . S
C1301 C347 1.677 . S
C1310 C446 1.678 . S
C1312 C380 1.677 . S
C1321 C545 1.681 . S
C1323 C743 1.675 . S
C1332 C776 1.673 . S
C1334 C578 1.681 . S
C1343 C677 1.678 . S
C1345 C611 1.676 . S
C1354 C644 1.673 . S
C1356 C710 1.681 . S
C1365 C1007 1.680 . S
C1367 C809 1.677 . S
C1376 C842 1.673 . S
C1378 C1040 1.681 . S
C1387 C941 1.679 . S
C1389 C875 1.678 . S
C1398 C974 1.673 . S
C1400 C908 1.682 . S
C1409 N938 1.245 . S
C1411 N5 1.348 1_565 S
C1420 N443 1.246 . S
C1422 N38 1.348 . S
C1431 N1004 1.240 . S
C1433 N71 1.349 1_545 S
C1442 N104 1.353 . S
C1444 N509 1.233 . S
C1453 N806 1.241 . S
C1455 N137 1.349 1_545 S
C1464 N311 1.242 . S
C1466 N170 1.349 . S
C1475 N872 1.236 . S
C1477 N203 1.350 1_565 S
C1486 N236 1.348 . S
C1488 N377 1.242 . S
C1497 N269 1.353 1_545 S
C1499 N674 1.233 . S
C1508 N302 1.353 . S
C1510 N179 1.233 . S
C1519 N335 1.350 1_565 S
C1521 N740 1.243 . S
C1530 N245 1.247 . S
C1532 N368 1.348 . S
C1541 N542 1.235 . S
C1543 N401 1.350 1_565 S
C1552 N434 1.348 . S
C1554 N47 1.244 . S
C1563 N467 1.353 1_545 S
C1565 N608 1.233 . S
C1574 N500 1.351 . S
C1576 N113 1.235 . S
C1585 N410 1.242 . S
C1587 N533 1.349 . S
C1596 N566 1.353 . S
C1598 N971 1.235 . S
C1607 N476 1.234 . S
C1609 N599 1.351 . S
C1618 N632 1.351 . S
C1620 N1037 1.240 . S
C1629 N665 1.349 . S
C1631 N278 1.241 . S
C1640 N698 1.351 . S
C1642 N839 1.241 . S
C1651 N344 1.235 . S
C1653 N731 1.352 . S
C1662 N764 1.352 . S
C1664 N905 1.234 . S
C1673 N146 1.235 . S
C1675 N797 1.350 . S
C1684 N707 1.247 . S
C1686 N830 1.349 . S
C1695 N212 1.247 . S
C1697 N863 1.348 . S
C1706 N773 1.233 . S
C1708 N896 1.353 . S
C1717 N14 1.245 . S
C1719 N929 1.348 . S
C1728 N575 1.232 . S
C1730 N962 1.353 . S
C1739 N995 1.351 . S
C1741 N80 1.241 . S
C1750 N641 1.242 . S
C1752 N1028 1.351 . S
C1761 C602 1.936 . S
C1763 C8 1.936 . S
C1772 C635 1.936 . S
C1774 C41 1.935 . S
C1783 C74 1.933 . S
C1785 C536 1.933 . S
C1794 C107 1.936 . S
C1796 C569 1.936 . S
C1805 C734 1.936 . S
C1807 C140 1.935 . S
C1816 C173 1.936 . S
C1818 C767 1.936 . S
C1827 C668 1.936 . S
C1829 C206 1.935 . S
C1838 C701 1.936 . S
C1840 C239 1.936 . S
C1849 C866 1.935 . S
C1851 C272 1.935 . S
C1860 C899 1.933 . S
C1862 C305 1.933 . S
C1871 C338 1.936 . S
C1873 C800 1.936 . S
C1882 C371 1.934 . S
C1884 C833 1.935 . S
C1893 C404 1.936 . S
C1895 C998 1.936 . S
C1904 C437 1.933 . S
C1906 C1031 1.933 . S
C1915 C932 1.936 . S
C1917 C470 1.936 . S
C1926 C965 1.936 . S
C1928 C503 1.936 . S
