# Generated by pormake.
# Topology rhr, (4)-cn, num edge types: 1
# Building blocks:
#     Node 0, Type 0, BuildingBlock: KOZSID_clean_sbu_0, # of connection points: 4
#     Node 1, Type 0, BuildingBlock: KOZSID_clean_sbu_0, # of connection points: 4
#     Node 2, Type 0, BuildingBlock: KOZSID_clean_sbu_0, # of connection points: 4
#     Node 3, Type 0, BuildingBlock: KOZSID_clean_sbu_0, # of connection points: 4
#     Node 4, Type 0, BuildingBlock: KOZSID_clean_sbu_0, # of connection points: 4
#     Node 5, Type 0, BuildingBlock: KOZSID_clean_sbu_0, # of connection points: 4
#     Node 6, Type 0, BuildingBlock: KOZSID_clean_sbu_0, # of connection points: 4
#     Node 7, Type 0, BuildingBlock: KOZSID_clean_sbu_0, # of connection points: 4
#     Node 8, Type 0, BuildingBlock: KOZSID_clean_sbu_0, # of connection points: 4
#     Node 9, Type 0, BuildingBlock: KOZSID_clean_sbu_0, # of connection points: 4
#     Node 10, Type 0, BuildingBlock: KOZSID_clean_sbu_0, # of connection points: 4
#     Node 11, Type 0, BuildingBlock: KOZSID_clean_sbu_0, # of connection points: 4
#     Node 12, Type 0, BuildingBlock: KOZSID_clean_sbu_0, # of connection points: 4
#     Node 13, Type 0, BuildingBlock: KOZSID_clean_sbu_0, # of connection points: 4
#     Node 14, Type 0, BuildingBlock: KOZSID_clean_sbu_0, # of connection points: 4
#     Node 15, Type 0, BuildingBlock: KOZSID_clean_sbu_0, # of connection points: 4
#     Node 16, Type 0, BuildingBlock: KOZSID_clean_sbu_0, # of connection points: 4
#     Node 17, Type 0, BuildingBlock: KOZSID_clean_sbu_0, # of connection points: 4
#     Node 18, Type 0, BuildingBlock: KOZSID_clean_sbu_0, # of connection points: 4
#     Node 19, Type 0, BuildingBlock: KOZSID_clean_sbu_0, # of connection points: 4
#     Node 20, Type 0, BuildingBlock: KOZSID_clean_sbu_0, # of connection points: 4
#     Node 21, Type 0, BuildingBlock: KOZSID_clean_sbu_0, # of connection points: 4
#     Node 22, Type 0, BuildingBlock: KOZSID_clean_sbu_0, # of connection points: 4
#     Node 23, Type 0, BuildingBlock: KOZSID_clean_sbu_0, # of connection points: 4
#     Edge 24, Type (0, 0), BuildingBlock: ZUJKAS_clean_linker_0, # of connection points: 2
#     Edge 25, Type (0, 0), BuildingBlock: ZUJKAS_clean_linker_0, # of connection points: 2
#     Edge 26, Type (0, 0), BuildingBlock: ZUJKAS_clean_linker_0, # of connection points: 2
#     Edge 27, Type (0, 0), BuildingBlock: ZUJKAS_clean_linker_0, # of connection points: 2
#     Edge 28, Type (0, 0), BuildingBlock: ZUJKAS_clean_linker_0, # of connection points: 2
#     Edge 29, Type (0, 0), BuildingBlock: ZUJKAS_clean_linker_0, # of connection points: 2
#     Edge 30, Type (0, 0), BuildingBlock: ZUJKAS_clean_linker_0, # of connection points: 2
#     Edge 31, Type (0, 0), BuildingBlock: ZUJKAS_clean_linker_0, # of connection points: 2
#     Edge 32, Type (0, 0), BuildingBlock: ZUJKAS_clean_linker_0, # of connection points: 2
#     Edge 33, Type (0, 0), BuildingBlock: ZUJKAS_clean_linker_0, # of connection points: 2
#     Edge 34, Type (0, 0), BuildingBlock: ZUJKAS_clean_linker_0, # of connection points: 2
#     Edge 35, Type (0, 0), BuildingBlock: ZUJKAS_clean_linker_0, # of connection points: 2
#     Edge 36, Type (0, 0), BuildingBlock: ZUJKAS_clean_linker_0, # of connection points: 2
#     Edge 37, Type (0, 0), BuildingBlock: ZUJKAS_clean_linker_0, # of connection points: 2
#     Edge 38, Type (0, 0), BuildingBlock: ZUJKAS_clean_linker_0, # of connection points: 2
#     Edge 39, Type (0, 0), BuildingBlock: ZUJKAS_clean_linker_0, # of connection points: 2
#     Edge 40, Type (0, 0), BuildingBlock: ZUJKAS_clean_linker_0, # of connection points: 2
#     Edge 41, Type (0, 0), BuildingBlock: ZUJKAS_clean_linker_0, # of connection points: 2
#     Edge 42, Type (0, 0), BuildingBlock: ZUJKAS_clean_linker_0, # of connection points: 2
#     Edge 43, Type (0, 0), BuildingBlock: ZUJKAS_clean_linker_0, # of connection points: 2
#     Edge 44, Type (0, 0), BuildingBlock: ZUJKAS_clean_linker_0, # of connection points: 2
#     Edge 45, Type (0, 0), BuildingBlock: ZUJKAS_clean_linker_0, # of connection points: 2
#     Edge 46, Type (0, 0), BuildingBlock: ZUJKAS_clean_linker_0, # of connection points: 2
#     Edge 47, Type (0, 0), BuildingBlock: ZUJKAS_clean_linker_0, # of connection points: 2
#     Edge 48, Type (0, 0), BuildingBlock: ZUJKAS_clean_linker_0, # of connection points: 2
#     Edge 49, Type (0, 0), BuildingBlock: ZUJKAS_clean_linker_0, # of connection points: 2
#     Edge 50, Type (0, 0), BuildingBlock: ZUJKAS_clean_linker_0, # of connection points: 2
#     Edge 51, Type (0, 0), BuildingBlock: ZUJKAS_clean_linker_0, # of connection points: 2
#     Edge 52, Type (0, 0), BuildingBlock: ZUJKAS_clean_linker_0, # of connection points: 2
#     Edge 53, Type (0, 0), BuildingBlock: ZUJKAS_clean_linker_0, # of connection points: 2
#     Edge 54, Type (0, 0), BuildingBlock: ZUJKAS_clean_linker_0, # of connection points: 2
#     Edge 55, Type (0, 0), BuildingBlock: ZUJKAS_clean_linker_0, # of connection points: 2
#     Edge 56, Type (0, 0), BuildingBlock: ZUJKAS_clean_linker_0, # of connection points: 2
#     Edge 57, Type (0, 0), BuildingBlock: ZUJKAS_clean_linker_0, # of connection points: 2
#     Edge 58, Type (0, 0), BuildingBlock: ZUJKAS_clean_linker_0, # of connection points: 2
#     Edge 59, Type (0, 0), BuildingBlock: ZUJKAS_clean_linker_0, # of connection points: 2
#     Edge 60, Type (0, 0), BuildingBlock: ZUJKAS_clean_linker_0, # of connection points: 2
#     Edge 61, Type (0, 0), BuildingBlock: ZUJKAS_clean_linker_0, # of connection points: 2
#     Edge 62, Type (0, 0), BuildingBlock: ZUJKAS_clean_linker_0, # of connection points: 2
#     Edge 63, Type (0, 0), BuildingBlock: ZUJKAS_clean_linker_0, # of connection points: 2
#     Edge 64, Type (0, 0), BuildingBlock: ZUJKAS_clean_linker_0, # of connection points: 2
#     Edge 65, Type (0, 0), BuildingBlock: ZUJKAS_clean_linker_0, # of connection points: 2
#     Edge 66, Type (0, 0), BuildingBlock: ZUJKAS_clean_linker_0, # of connection points: 2
#     Edge 67, Type (0, 0), BuildingBlock: ZUJKAS_clean_linker_0, # of connection points: 2
#     Edge 68, Type (0, 0), BuildingBlock: ZUJKAS_clean_linker_0, # of connection points: 2
#     Edge 69, Type (0, 0), BuildingBlock: ZUJKAS_clean_linker_0, # of connection points: 2
#     Edge 70, Type (0, 0), BuildingBlock: ZUJKAS_clean_linker_0, # of connection points: 2
#     Edge 71, Type (0, 0), BuildingBlock: ZUJKAS_clean_linker_0, # of connection points: 2
# Relax obj value: 0.003
# Max RMSD: 0.027
# Mean RMSD: 0.017
data_MOF--net-rhr--node1-KOZSID_clean_sbu_0--edge1-ZUJKAS_clean_linker_0
_symmetry_space_group_name_H-M    P1
_symmetry_Int_Tables_number       1
_symmetry_cell_setting            triclinic
loop_
_symmetry_equiv_pos_as_xyz
'x, y, z'
_cell_length_a     78.451758
_cell_length_b     78.550742
_cell_length_c     78.415245
_cell_angle_alpha  87.555476
_cell_angle_beta   86.399642
_cell_angle_gamma 90.664993
loop_
_atom_site_label
_atom_site_type_symbol
_atom_site_fract_x
_atom_site_fract_y
_atom_site_fract_z
_atom_type_partial_charge
C0 C 0.38156 0.99443 0.34538 0.0
C1 C 0.39683 0.98931 0.3519 0.0
C2 C 0.39814 0.99729 0.36688 0.0
C3 C 0.38363 0.00674 0.36877 0.0
N4 N 0.37297 0.00515 0.35601 0.0
Co5 Co 0.35054 0.01702 0.35394 0.0
N6 N 0.35279 0.02923 0.37579 0.0
C7 C 0.36584 0.02777 0.38622 0.0
C8 C 0.36369 0.03686 0.4007 0.0
C9 C 0.34826 0.04452 0.39959 0.0
C10 C 0.34186 0.03976 0.38436 0.0
N11 N 0.32819 0.02904 0.35177 0.0
C12 C 0.3196 0.03975 0.36241 0.0
C13 C 0.30451 0.04516 0.35575 0.0
C14 C 0.30332 0.03741 0.34061 0.0
C15 C 0.31774 0.02781 0.33878 0.0
N16 N 0.34818 0.00464 0.3322 0.0
C17 C 0.33496 0.00584 0.32194 0.0
C18 C 0.33696 0.99647 0.30763 0.0
C19 C 0.35241 0.98884 0.30871 0.0
C20 C 0.359 0.99391 0.32375 0.0
N21 N 0.33832 0.99794 0.36722 0.0
C22 C 0.31961 0.97251 0.38719 0.0
C23 C 0.31372 0.97906 0.37183 0.0
C24 C 0.32319 0.99161 0.36214 0.0
C25 C 0.33528 0.97861 0.39214 0.0
C26 C 0.34438 0.99115 0.38202 0.0
N27 N 0.36276 0.03608 0.34061 0.0
C28 C 0.36685 0.05375 0.31459 0.0
C29 C 0.38183 0.0608 0.3201 0.0
C30 C 0.38679 0.0558 0.33634 0.0
C31 C 0.37717 0.04347 0.34628 0.0
C32 C 0.3575 0.04167 0.32502 0.0
H33 H 0.38182 0.0399 0.35837 0.0
H34 H 0.34619 0.0369 0.32004 0.0
H35 H 0.31784 0.99616 0.35072 0.0
H36 H 0.3562 0.99524 0.38652 0.0
C37 C 0.37969 0.0173 0.38232 0.0
C38 C 0.37589 0.98871 0.32904 0.0
C39 C 0.32509 0.04514 0.37894 0.0
C40 C 0.3214 0.01682 0.3255 0.0
H41 H 0.40611 0.98071 0.34639 0.0
H42 H 0.4085 0.99639 0.37535 0.0
H43 H 0.37217 0.03755 0.41102 0.0
H44 H 0.34229 0.05246 0.40913 0.0
H45 H 0.29522 0.05373 0.36131 0.0
H46 H 0.29302 0.03843 0.33208 0.0
H47 H 0.32841 0.99567 0.29738 0.0
H48 H 0.35829 0.98076 0.29925 0.0
H49 H 0.30159 0.97487 0.36748 0.0
H50 H 0.34055 0.97371 0.40379 0.0
H51 H 0.36232 0.05752 0.30223 0.0
H52 H 0.39832 0.06098 0.34116 0.0
C53 C 0.04539 0.3723 0.33122 0.0
C54 C 0.04937 0.38743 0.33875 0.0
C55 C 0.04 0.38749 0.35397 0.0
C56 C 0.03075 0.37256 0.35485 0.0
N57 N 0.03369 0.36286 0.34113 0.0
Co58 Co 0.02208 0.34067 0.33675 0.0
N59 N 0.00786 0.34114 0.35894 0.0
C60 C 0.0081 0.35327 0.37067 0.0
C61 C 0.99711 0.35003 0.38473 0.0
C62 C 0.98944 0.33483 0.38192 0.0
C63 C 0.99629 0.32965 0.36625 0.0
N64 N 0.01033 0.31857 0.33228 0.0
C65 C 0.99835 0.30933 0.34203 0.0
C66 C 0.99375 0.29457 0.33421 0.0
C67 C 0.00317 0.29445 0.319 0.0
C68 C 0.01296 0.30904 0.3184 0.0
N69 N 0.03642 0.34011 0.31464 0.0
C70 C 0.03646 0.32775 0.30312 0.0
C71 C 0.04783 0.33073 0.28931 0.0
C72 C 0.05546 0.34597 0.29206 0.0
C73 C 0.04816 0.3515 0.30742 0.0
N74 N 0.03989 0.32799 0.34863 0.0
C75 C 0.06363 0.30879 0.36647 0.0
C76 C 0.05845 0.30377 0.35073 0.0
C77 C 0.04672 0.31349 0.34209 0.0
C78 C 0.05713 0.32386 0.37291 0.0
C79 C 0.04537 0.33319 0.36384 0.0
N80 N 0.00427 0.35333 0.32486 0.0
C81 C 0.9876 0.35778 0.30021 0.0
C82 C 0.98007 0.37211 0.30722 0.0
C83 C 0.9846 0.37672 0.32334 0.0
C84 C 0.99659 0.36719 0.33189 0.0
C85 C 0.99955 0.34865 0.30917 0.0
H86 H 0.9995 0.37138 0.3441 0.0
H87 H 0.00494 0.33799 0.30303 0.0
H88 H 0.04325 0.30888 0.33023 0.0
H89 H 0.04072 0.34442 0.36954 0.0
C90 C 0.01887 0.36754 0.36816 0.0
C91 C 0.05269 0.36775 0.31445 0.0
C92 C 0.99141 0.31367 0.35896 0.0
C93 C 0.02527 0.31376 0.30535 0.0
H94 H 0.05795 0.39755 0.33369 0.0
H95 H 0.03973 0.39738 0.36317 0.0
H96 H 0.99498 0.35775 0.39575 0.0
H97 H 0.97994 0.32825 0.39047 0.0
H98 H 0.98472 0.28477 0.33911 0.0
H99 H 0.00313 0.28471 0.30964 0.0
H100 H 0.05017 0.32285 0.27844 0.0
H101 H 0.06521 0.35234 0.28365 0.0
H102 H 0.0634 0.29233 0.34509 0.0
H103 H 0.06071 0.32822 0.38513 0.0
H104 H 0.9846 0.35381 0.28766 0.0
H105 H 0.97889 0.3876 0.3294 0.0
C106 C 0.68714 0.99285 0.3265 0.0
C107 C 0.69457 0.98777 0.31105 0.0
C108 C 0.71002 0.996 0.3087 0.0
C109 C 0.71114 0.00562 0.32277 0.0
N110 N 0.69746 0.00389 0.33412 0.0
Co111 Co 0.6936 0.0164 0.35585 0.0
N112 N 0.71559 0.0298 0.35157 0.0
C113 C 0.72688 0.02875 0.33789 0.0
C114 C 0.74124 0.03868 0.33874 0.0
C115 C 0.73915 0.04643 0.35396 0.0
C116 C 0.72349 0.04086 0.36155 0.0
N117 N 0.68976 0.02885 0.37761 0.0
C118 C 0.69998 0.04006 0.38515 0.0
C119 C 0.69233 0.0454 0.40041 0.0
C120 C 0.67701 0.03697 0.40285 0.0
C121 C 0.67608 0.02708 0.38895 0.0
N122 N 0.67159 0.00307 0.36011 0.0
C123 C 0.66034 0.00396 0.37383 0.0
C124 C 0.64606 0.99389 0.373 0.0
C125 C 0.64814 0.98628 0.3577 0.0
C126 C 0.66361 0.99221 0.35002 0.0
N127 N 0.70612 0.99832 0.36869 0.0
C128 C 0.72496 0.97444 0.38801 0.0
C129 C 0.70873 0.97968 0.39392 0.0
C130 C 0.69965 0.9915 0.3842 0.0
C131 C 0.73137 0.98114 0.37202 0.0
C132 C 0.72181 0.99281 0.36264 0.0
N133 N 0.68108 0.03441 0.34299 0.0
C134 C 0.65561 0.05122 0.33944 0.0
C135 C 0.66166 0.05731 0.32309 0.0
C136 C 0.67795 0.05212 0.31723 0.0
C137 C 0.68733 0.04086 0.32726 0.0
C138 C 0.66543 0.03999 0.34908 0.0
H139 H 0.69954 0.03736 0.32191 0.0
H140 H 0.65993 0.03575 0.36131 0.0
H141 H 0.68752 0.99511 0.38963 0.0
H142 H 0.72748 0.99731 0.35057 0.0
C143 C 0.72423 0.01734 0.32509 0.0
C144 C 0.6699 0.98748 0.33293 0.0
C145 C 0.7171 0.04578 0.3786 0.0
C146 C 0.66299 0.01534 0.38666 0.0
H147 H 0.6892 0.97934 0.30217 0.0
H148 H 0.71909 0.99546 0.29776 0.0
H149 H 0.75222 0.0397 0.32966 0.0
H150 H 0.74838 0.05485 0.35905 0.0
H151 H 0.69741 0.05427 0.40904 0.0
H152 H 0.66781 0.03768 0.41367 0.0
H153 H 0.63518 0.99264 0.38218 0.0
H154 H 0.63912 0.97762 0.35259 0.0
H155 H 0.70314 0.97502 0.40625 0.0
H156 H 0.74372 0.97731 0.36664 0.0
H157 H 0.6431 0.05468 0.3447 0.0
H158 H 0.68354 0.05672 0.30489 0.0
C159 C 0.97353 0.72063 0.33984 0.0
C160 C 0.96951 0.73547 0.33078 0.0
C161 C 0.9804 0.73658 0.31652 0.0
C162 C 0.99036 0.72241 0.31767 0.0
N163 N 0.98648 0.71227 0.33179 0.0
Co164 Co 0.9975 0.69022 0.33838 0.0
N165 N 0.01406 0.69234 0.31782 0.0
C166 C 0.01564 0.70546 0.30605 0.0
C167 C 0.02842 0.70346 0.2936 0.0
C168 C 0.03541 0.6881 0.2976 0.0
C169 C 0.02636 0.68157 0.31227 0.0
N170 N 0.00818 0.66789 0.34467 0.0
C171 C 0.0207 0.65922 0.33626 0.0
C172 C 0.02379 0.64372 0.34462 0.0
C173 C 0.01284 0.64255 0.35884 0.0
C174 C 0.00366 0.65727 0.3583 0.0
N175 N 0.98127 0.68837 0.35922 0.0
C176 C 0.98043 0.67581 0.37162 0.0
C177 C 0.9683 0.67832 0.38458 0.0
C178 C 0.96103 0.69347 0.38031 0.0
C179 C 0.96919 0.69932 0.36491 0.0
N180 N 0.98104 0.67786 0.32504 0.0
C181 C 0.95875 0.65934 0.30573 0.0
C182 C 0.96073 0.65482 0.32289 0.0
C183 C 0.97183 0.66416 0.33222 0.0
C184 C 0.96788 0.67351 0.29848 0.0
C185 C 0.97884 0.68253 0.3083 0.0
N186 N 0.01403 0.70254 0.35172 0.0
C187 C 0.03091 0.70391 0.37639 0.0
C188 C 0.03795 0.71961 0.37044 0.0
C189 C 0.0327 0.72674 0.35506 0.0
C190 C 0.02088 0.71802 0.34594 0.0
C191 C 0.01901 0.69572 0.36697 0.0
H192 H 0.01753 0.72405 0.33423 0.0
H193 H 0.01403 0.6839 0.37233 0.0
H194 H 0.97279 0.65997 0.34519 0.0
H195 H 0.98552 0.69311 0.30199 0.0
C196 C 0.00417 0.7189 0.30634 0.0
C197 C 0.96514 0.71543 0.35634 0.0
C198 C 0.02968 0.66492 0.32017 0.0
C199 C 0.99091 0.66161 0.37051 0.0
H200 H 0.95989 0.74468 0.33429 0.0
H201 H 0.98122 0.7467 0.30668 0.0
H202 H 0.03199 0.71198 0.28272 0.0
H203 H 0.04584 0.68226 0.2904 0.0
H204 H 0.03293 0.63418 0.34078 0.0
H205 H 0.01164 0.63217 0.36838 0.0
H206 H 0.96511 0.6701 0.39579 0.0
H207 H 0.9509 0.69957 0.38771 0.0
H208 H 0.95369 0.64412 0.32919 0.0
H209 H 0.96688 0.67745 0.28518 0.0
H210 H 0.0344 0.69804 0.38841 0.0
H211 H 0.0379 0.73886 0.34991 0.0
C212 C 0.34148 0.98132 0.72751 0.0
C213 C 0.33375 0.97577 0.74321 0.0
C214 C 0.31892 0.98453 0.7453 0.0
C215 C 0.31843 0.99484 0.73081 0.0
N216 N 0.33195 0.99307 0.71946 0.0
Co217 Co 0.33668 0.00593 0.69696 0.0
N218 N 0.3153 0.01949 0.70047 0.0
C219 C 0.30359 0.01808 0.71391 0.0
C220 C 0.29004 0.02879 0.71252 0.0
C221 C 0.29319 0.0375 0.69722 0.0
C222 C 0.30858 0.0316 0.69017 0.0
N223 N 0.34156 0.01898 0.67459 0.0
C224 C 0.33241 0.03127 0.66686 0.0
C225 C 0.34044 0.0372 0.65142 0.0
C226 C 0.3551 0.02819 0.6492 0.0
C227 C 0.35523 0.01739 0.66338 0.0
N228 N 0.35792 0.99218 0.69333 0.0
C229 C 0.36925 0.99307 0.67956 0.0
C230 C 0.38271 0.98224 0.68089 0.0
C231 C 0.37991 0.97401 0.69649 0.0
C232 C 0.36481 0.98031 0.70379 0.0
N233 N 0.32359 0.98859 0.68527 0.0
C234 C 0.30457 0.96484 0.66803 0.0
C235 C 0.32026 0.97118 0.66097 0.0
C236 C 0.32948 0.98291 0.66973 0.0
C237 C 0.29867 0.97037 0.684 0.0
C238 C 0.30829 0.98216 0.69231 0.0
N239 N 0.34975 0.02325 0.70861 0.0
C240 C 0.37534 0.0403 0.71054 0.0
C241 C 0.36857 0.04748 0.72544 0.0
C242 C 0.35216 0.04237 0.73172 0.0
C243 C 0.34307 0.03032 0.7232 0.0
C244 C 0.36578 0.02836 0.70239 0.0
H245 H 0.3307 0.02691 0.7287 0.0
H246 H 0.37172 0.02336 0.69115 0.0
H247 H 0.34129 0.98724 0.66359 0.0
H248 H 0.30299 0.98598 0.70433 0.0
C249 C 0.30564 0.00655 0.72764 0.0
C250 C 0.35802 0.97531 0.72101 0.0
C251 C 0.31598 0.03751 0.67343 0.0
C252 C 0.36758 0.00509 0.66615 0.0
H253 H 0.33846 0.96647 0.75229 0.0
H254 H 0.3097 0.98365 0.75618 0.0
H255 H 0.27911 0.03 0.7215 0.0
H256 H 0.28497 0.04698 0.69179 0.0
H257 H 0.33604 0.04691 0.64259 0.0
H258 H 0.36443 0.02922 0.63843 0.0
H259 H 0.39353 0.98087 0.67181 0.0
H260 H 0.38827 0.96472 0.70201 0.0
H261 H 0.3255 0.96707 0.64873 0.0
H262 H 0.28649 0.96591 0.68992 0.0
H263 H 0.3881 0.04362 0.70529 0.0
H264 H 0.34625 0.04772 0.74311 0.0
C265 C 0.99432 0.35734 0.68111 0.0
C266 C 0.98968 0.37283 0.67372 0.0
C267 C 0.99861 0.37461 0.65823 0.0
C268 C 0.00821 0.36019 0.65702 0.0
N269 N 0.00579 0.34915 0.67068 0.0
Co270 Co 0.01823 0.32715 0.67444 0.0
N271 N 0.03272 0.33064 0.65242 0.0
C272 C 0.032 0.34402 0.64107 0.0
C273 C 0.04272 0.34271 0.62672 0.0
C274 C 0.05069 0.3275 0.62891 0.0
C275 C 0.04445 0.32036 0.6446 0.0
N276 N 0.0307 0.3052 0.67825 0.0
C277 C 0.04269 0.2973 0.66814 0.0
C278 C 0.04773 0.28209 0.67584 0.0
C279 C 0.03837 0.28008 0.69108 0.0
C280 C 0.02826 0.29417 0.69193 0.0
N281 N 0.00374 0.32366 0.69644 0.0
C282 C 0.00401 0.31004 0.70754 0.0
C283 C 0.99323 0.31138 0.72186 0.0
C284 C 0.98578 0.32691 0.71994 0.0
C285 C 0.99251 0.33423 0.70453 0.0
N286 N 1.00084 0.31455 0.66182 0.0
C287 C 0.9783 0.29539 0.6426 0.0
C288 C 0.98357 0.28914 0.65838 0.0
C289 C 0.9946 0.29884 0.66771 0.0
C290 C 0.98422 0.31168 0.6369 0.0
C291 C 0.99534 0.3209 0.64657 0.0
N292 N 0.03554 0.33973 0.68705 0.0
C293 C 0.05107 0.34314 0.71257 0.0
C294 C 0.05733 0.35924 0.70665 0.0
C295 C 0.05288 0.36507 0.6904 0.0
C296 C 0.04219 0.35518 0.68089 0.0
C297 C 0.04036 0.33372 0.70268 0.0
H298 H 0.0393 0.36042 0.66866 0.0
H299 H 0.03587 0.32171 0.70814 0.0
H300 H 0.99801 0.29324 0.6796 0.0
H301 H 0.99949 0.33307 0.64128 0.0
C302 C 0.02047 0.3572 0.64383 0.0
C303 C 0.9881 0.35142 0.6984 0.0
C304 C 0.04954 0.30347 0.65111 0.0
C305 C 0.01568 0.29694 0.70491 0.0
H306 H 0.98107 0.38211 0.67916 0.0
H307 H 0.99854 0.38539 0.64917 0.0
H308 H 0.04422 0.35156 0.61575 0.0
H309 H 0.05978 0.32213 0.61975 0.0
H310 H 0.05705 0.27323 0.67086 0.0
H311 H 0.03866 0.26944 0.70029 0.0
H312 H 0.99144 0.30239 0.7327 0.0
H313 H 0.9767 0.33241 0.72904 0.0
H314 H 0.97914 0.27679 0.66365 0.0
H315 H 0.98065 0.31719 0.62476 0.0
H316 H 0.054 0.33796 0.72505 0.0
H317 H 0.05765 0.37723 0.68495 0.0
C318 C 0.69274 0.02491 0.66856 0.0
C319 C 0.68728 0.02905 0.65242 0.0
C320 C 0.67253 0.02006 0.65095 0.0
C321 C 0.66983 0.01096 0.66619 0.0
N322 N 0.68194 0.01361 0.67738 0.0
Co323 Co 0.68306 1.00278 0.70095 0.0
N324 N 0.66146 0.98933 0.69862 0.0
C325 C 0.6519 0.98928 0.68484 0.0
C326 C 0.63788 0.97867 0.68692 0.0
C327 C 0.6384 0.97158 0.70304 0.0
C328 C 0.65273 0.9784 0.70994 0.0
N329 N 0.68416 0.99198 0.72455 0.0
C330 C 0.67318 0.98093 0.73349 0.0
C331 C 0.67848 0.97705 0.74975 0.0
C332 C 0.69336 0.98589 0.75113 0.0
C333 C 0.69626 0.99469 0.73575 0.0
N334 N 0.70469 0.01623 0.70325 0.0
C335 C 0.71439 0.01614 0.71694 0.0
C336 C 0.72856 0.02655 0.71472 0.0
C337 C 0.72796 0.03369 0.69861 0.0
C338 C 0.71341 0.02716 0.69191 0.0
N339 N 0.66943 0.02157 0.71064 0.0
C340 C 0.64854 0.04601 0.72636 0.0
C341 C 0.66396 0.04132 0.73303 0.0
C342 C 0.67413 0.02924 0.72501 0.0
C343 C 0.64408 0.0388 0.71125 0.0
C344 C 0.65466 0.02672 0.70364 0.0
N345 N 0.69665 0.9839 0.69137 0.0
C346 C 0.72084 0.9652 0.6924 0.0
C347 C 0.71603 0.95704 0.67795 0.0
C348 C 0.7013 0.96253 0.67035 0.0
C349 C 0.69192 0.9759 0.67718 0.0
C350 C 0.71103 0.97842 0.69886 0.0
H351 H 0.68092 0.97953 0.67072 0.0
H352 H 0.71545 0.98406 0.70986 0.0
H353 H 0.68561 0.02615 0.73086 0.0
H354 H 0.65048 0.02152 0.69228 0.0
C355 C 0.65626 0.99955 0.67022 0.0
C356 C 0.70848 0.03173 0.67471 0.0
C357 C 0.65738 0.97417 0.72734 0.0
C358 C 0.70995 0.00597 0.73164 0.0
H359 H 0.69343 0.03757 0.64263 0.0
H360 H 0.66478 0.02001 0.64001 0.0
H361 H 0.62835 0.97644 0.67783 0.0
H362 H 0.62921 0.96247 0.70906 0.0
H363 H 0.67216 0.96887 0.75971 0.0
H364 H 0.70102 0.98607 0.76213 0.0
H365 H 0.73822 0.02863 0.72371 0.0
H366 H 0.73721 0.04267 0.69246 0.0
H367 H 0.66817 0.0469 0.74448 0.0
H368 H 0.63224 0.04206 0.70559 0.0
H369 H 0.73232 0.96165 0.69859 0.0
H370 H 0.69693 0.95649 0.65922 0.0
C371 C 0.98997 0.66247 0.71273 0.0
C372 C 0.98222 0.66943 0.72719 0.0
C373 C 0.99053 0.68446 0.72932 0.0
C374 C 1.00273 0.68588 0.71604 0.0
N375 N 1.00261 0.67277 0.70539 0.0
Co376 Co 0.01814 0.66977 0.68445 0.0
N377 N 0.03121 0.69124 0.68835 0.0
C378 C 0.0286 0.7017 0.7015 0.0
C379 C 0.03924 0.71571 0.7005 0.0
C380 C 0.04913 0.71425 0.68573 0.0
C381 C 0.04396 0.69933 0.67856 0.0
N382 N 0.03356 0.66688 0.66339 0.0
C383 C 0.04593 0.67739 0.65587 0.0
C384 C 0.0533 0.67077 0.64106 0.0
C385 C 0.04506 0.6557 0.63894 0.0
C386 C 0.03323 0.65396 0.65254 0.0
N387 N 0.00518 0.6482 0.68066 0.0
C388 C 0.00809 0.63752 0.66774 0.0
C389 C 0.99779 0.62327 0.66898 0.0
C390 C 0.9878 0.62479 0.68369 0.0
C391 C 0.99254 0.64003 0.69055 0.0
N392 N 1.00217 0.6832 0.67029 0.0
C393 C 0.98073 0.70297 0.64945 0.0
C394 C 0.98699 0.68723 0.64437 0.0
C395 C 0.9975 0.67764 0.65488 0.0
C396 C 0.98529 0.70848 0.66532 0.0
C397 C 0.99591 0.69854 0.67539 0.0
N398 N 0.03414 0.65635 0.69859 0.0
C399 C 0.05222 0.6318 0.70281 0.0
C400 C 0.05594 0.63669 0.71916 0.0
C401 C 0.0486 0.65174 0.7249 0.0
C402 C 0.03793 0.66129 0.71452 0.0
C403 C 0.04141 0.64165 0.6929 0.0
H404 H 0.03285 0.67262 0.71971 0.0
H405 H 0.039 0.63701 0.68071 0.0
H406 H 1.00175 0.66578 0.6502 0.0
H407 H 0.99902 0.70366 0.68718 0.0
C408 C 0.01515 0.69878 0.71382 0.0
C409 C 0.98527 0.64576 0.7069 0.0
C410 C 0.05082 0.69391 0.66197 0.0
C411 C 0.0212 0.64074 0.65511 0.0
H412 H 0.97185 0.66404 0.73553 0.0
H413 H 0.98822 0.69312 0.73956 0.0
H414 H 0.03937 0.72606 0.70917 0.0
H415 H 0.05874 0.72339 0.68059 0.0
H416 H 0.0634 0.67641 0.63253 0.0
H417 H 0.04719 0.6472 0.62854 0.0
H418 H 0.99787 0.61278 0.66046 0.0
H419 H 0.97841 0.61549 0.68893 0.0
H420 H 0.98369 0.68216 0.63235 0.0
H421 H 0.981 0.72063 0.66986 0.0
H422 H 0.05736 0.62018 0.69775 0.0
H423 H 0.05119 0.65631 0.73733 0.0
C424 C 0.37864 0.34189 0.02565 0.0
C425 C 0.39504 0.34829 0.02714 0.0
C426 C 0.39657 0.3629 0.0171 0.0
C427 C 0.38118 0.36456 0.00992 0.0
N428 N 0.36981 0.35193 0.01479 0.0
Co429 Co 0.34642 0.34891 0.0061 0.0
N430 N 0.34862 0.37069 0.99163 0.0
C431 C 0.36204 0.38173 0.99056 0.0
C432 C 0.3598 0.39587 0.98013 0.0
C433 C 0.34391 0.39387 0.97429 0.0
C434 C 0.33732 0.37856 0.98153 0.0
N435 N 0.32331 0.34553 0.9969 0.0
C436 C 0.31465 0.35537 0.98574 0.0
C437 C 0.29897 0.34806 0.98278 0.0
C438 C 0.29765 0.33313 0.99236 0.0
C439 C 0.31252 0.33213 1.0006 0.0
N440 N 0.34394 0.32749 0.02113 0.0
C441 C 0.33002 0.31709 0.02306 0.0
C442 C 0.33159 0.30378 0.03471 0.0
C443 C 0.34746 0.30576 0.04059 0.0
C444 C 0.35481 0.32012 0.03203 0.0
N445 N 0.33614 0.36198 0.02509 0.0
C446 C 0.32035 0.38191 0.05031 0.0
C447 C 0.31231 0.36728 0.04508 0.0
C448 C 0.32041 0.35752 0.03264 0.0
C449 C 0.33668 0.38612 0.04318 0.0
C450 C 0.34427 0.37606 0.03065 0.0
N451 N 0.3567 0.33583 0.98706 0.0
C452 C 0.35875 0.3098 0.97175 0.0
C453 C 0.37236 0.31654 0.9612 0.0
C454 C 0.37773 0.33325 0.96346 0.0
C455 C 0.3698 0.34258 0.9764 0.0
C456 C 0.3511 0.31962 0.98442 0.0
H457 H 0.37468 0.35512 0.97763 0.0
H458 H 0.34078 0.31372 0.992 0.0
H459 H 0.31357 0.34655 0.0292 0.0
H460 H 0.3566 0.38009 0.02545 0.0
C461 C 0.37681 0.37811 0.999 0.0
C462 C 0.37219 0.32613 0.03466 0.0
C463 C 0.32038 0.37198 0.97817 0.0
C464 C 0.31609 0.31959 0.01301 0.0
H465 H 0.40495 0.34293 0.03462 0.0
H466 H 0.40761 0.37133 0.01526 0.0
H467 H 0.36871 0.40634 0.97706 0.0
H468 H 0.33789 0.40267 0.96562 0.0
H469 H 0.28932 0.35316 0.9748 0.0
H470 H 0.28692 0.32428 0.99353 0.0
H471 H 0.32235 0.29373 0.03835 0.0
H472 H 0.353 0.29747 0.05007 0.0
H473 H 0.29976 0.36338 0.05052 0.0
H474 H 0.34337 0.3974 0.04687 0.0
H475 H 0.35403 0.29696 0.97027 0.0
H476 H 0.38833 0.33895 0.95562 0.0
C477 C 0.68482 0.31875 0.04403 0.0
C478 C 0.69151 0.30364 0.05037 0.0
C479 C 0.70716 0.30195 0.04207 0.0
C480 C 0.70916 0.31608 0.03124 0.0
N481 N 0.6958 0.32682 0.03221 0.0
Co482 Co 0.69331 0.34876 0.01855 0.0
N483 N 0.71586 0.34566 0.00551 0.0
C484 C 0.7267 0.33252 0.00736 0.0
C485 C 0.74114 0.33384 0.9966 0.0
C486 C 0.7395 0.34875 0.98733 0.0
C487 C 0.72412 0.35574 0.99307 0.0
N488 N 0.69081 0.37071 0.00486 0.0
C489 C 0.70147 0.37843 0.99251 0.0
C490 C 0.69497 0.39378 0.98654 0.0
C491 C 0.67965 0.39582 0.99537 0.0
C492 C 0.67769 0.38171 0.00623 0.0
N493 N 0.67074 0.35183 0.03157 0.0
C494 C 0.65996 0.36504 0.02983 0.0
C495 C 0.6452 0.36337 0.04009 0.0
C496 C 0.64651 0.34811 0.04884 0.0
C497 C 0.66212 0.34136 0.04343 0.0
N498 N 0.70506 0.36132 0.03599 0.0
C499 C 0.72287 0.38037 0.05898 0.0
C500 C 0.70733 0.38595 0.05322 0.0
C501 C 0.69871 0.37631 0.04187 0.0
C502 C 0.72909 0.36483 0.05346 0.0
C503 C 0.72004 0.35558 0.0421 0.0
N504 N 0.68161 0.33626 1.00111 0.0
C505 C 0.65816 0.33352 0.98283 0.0
C506 C 0.66442 0.31809 0.97702 0.0
C507 C 0.67956 0.31202 0.98334 0.0
C508 C 0.68787 0.32122 0.99528 0.0
C509 C 0.6669 0.34233 0.99473 0.0
H510 H 0.69929 0.31588 0.99966 0.0
H511 H 0.6614 0.35394 0.99868 0.0
H512 H 0.68702 0.38136 0.03793 0.0
H513 H 0.72558 0.34396 0.03826 0.0
C514 C 0.72306 0.31922 0.01948 0.0
C515 C 0.66787 0.32469 0.04946 0.0
C516 C 0.71798 0.37198 0.98631 0.0
C517 C 0.66374 0.3785 0.01793 0.0
H518 H 0.6856 0.29467 0.05988 0.0
H519 H 0.71591 0.29151 0.04354 0.0
H520 H 0.75163 0.32503 0.99564 0.0
H521 H 0.74864 0.35391 0.97749 0.0
H522 H 0.70076 0.40268 0.9769 0.0
H523 H 0.67103 0.40639 0.99412 0.0
H524 H 0.63458 0.37204 0.04085 0.0
H525 H 0.63692 0.34247 0.05794 0.0
H526 H 0.7018 0.39776 0.05742 0.0
H527 H 0.74114 0.36 0.05751 0.0
H528 H 0.64635 0.33867 0.97851 0.0
H529 H 0.68506 0.30024 0.97906 0.0
C530 C 0.71018 0.69011 0.04497 0.0
C531 C 0.72519 0.69834 0.04866 0.0
C532 C 0.72731 0.712 0.03739 0.0
C533 C 0.71361 0.71129 0.02744 0.0
N534 N 0.70273 0.69809 0.03176 0.0
Co535 Co 0.68157 0.69187 0.0202 0.0
N536 N 0.68528 0.71145 0.00305 0.0
C537 C 0.69844 0.7228 1.00172 0.0
C538 C 0.69731 0.73499 0.98884 0.0
C539 C 0.68241 0.73137 0.98161 0.0
C540 C 0.6753 0.71714 0.99061 0.0
N541 N 0.66037 0.68571 0.00866 0.0
C542 C 0.65279 0.6939 0.99566 0.0
C543 C 0.63787 0.68563 0.9918 0.0
C544 C 0.63586 0.67179 1.00287 0.0
C545 C 0.64957 0.67242 0.01282 0.0
N546 N 0.67784 0.6723 0.03734 0.0
C547 C 0.66476 0.66085 0.03852 0.0
C548 C 0.66568 0.64886 0.05162 0.0
C549 C 0.68035 0.65273 0.05915 0.0
C550 C 0.68758 0.66688 0.05009 0.0
N551 N 0.66773 0.70695 0.03575 0.0
C552 C 0.64821 0.72822 0.05806 0.0
C553 C 0.64276 0.71163 0.05495 0.0
C554 C 0.65253 0.70139 0.04385 0.0
C555 C 0.66364 0.73391 0.04959 0.0
C556 C 0.67309 0.72321 0.03868 0.0
N557 N 0.69544 0.67674 0.00471 0.0
C558 C 0.69972 0.64953 0.99136 0.0
C559 C 0.71552 0.65488 0.98344 0.0
C560 C 0.72093 0.67152 0.98638 0.0
C561 C 0.71087 0.68207 0.99692 0.0
C562 C 0.69003 0.6605 1.00176 0.0
H563 H 0.71593 0.69448 0.99867 0.0
H564 H 0.67817 0.6555 0.00732 0.0
H565 H 0.64747 0.68901 0.042 0.0
H566 H 0.68475 0.72838 0.03277 0.0
C567 C 0.71113 0.72226 0.0134 0.0
C568 C 0.704 0.67428 0.05373 0.0
C569 C 0.65871 0.70997 0.98731 0.0
C570 C 0.65209 0.66137 0.02681 0.0
H571 H 0.73394 0.69469 0.05825 0.0
H572 H 0.73783 0.72109 0.03627 0.0
H573 H 0.70606 0.74552 0.9854 0.0
H574 H 0.67716 0.73857 0.97114 0.0
H575 H 0.62914 0.68943 0.98224 0.0
H576 H 0.62538 0.66264 0.00387 0.0
H577 H 0.65688 0.63839 0.05511 0.0
H578 H 0.68532 0.64578 0.06993 0.0
H579 H 0.63082 0.70656 0.06085 0.0
H580 H 0.66864 0.74653 0.05156 0.0
H581 H 0.69464 0.63693 0.98943 0.0
H582 H 0.73311 0.6764 0.98085 0.0
C583 C 0.37405 0.69198 0.9994 0.0
C584 C 0.38936 0.68499 0.99348 0.0
C585 C 0.39134 0.67034 0.00308 0.0
C586 C 0.37721 0.66925 0.01429 0.0
N587 N 0.36621 0.68222 0.01233 0.0
Co588 Co 0.34439 0.68595 0.02637 0.0
N589 N 0.34796 0.66507 0.04133 0.0
C590 C 0.36139 0.65442 0.04028 0.0
C591 C 0.36006 0.64089 0.05193 0.0
C592 C 0.34477 0.64288 0.06085 0.0
C593 C 0.33766 0.6576 0.05412 0.0
N594 N 0.32251 0.68963 0.04032 0.0
C595 C 0.31459 0.67977 0.05313 0.0
C596 C 0.29933 0.68679 0.05913 0.0
C597 C 0.29736 0.70146 0.04957 0.0
C598 C 0.31149 0.70258 0.03837 0.0
N599 N 0.34085 0.70689 0.0115 0.0
C600 C 0.32749 0.71761 0.01262 0.0
C601 C 0.32878 0.73109 1.00091 0.0
C602 C 0.344 0.72901 0.9919 0.0
C603 C 0.35114 0.71434 0.99872 0.0
N604 N 0.33159 0.67181 0.01059 0.0
C605 C 0.31298 0.65128 0.98889 0.0
C606 C 0.30709 0.66725 0.99374 0.0
C607 C 0.31646 0.67717 0.00446 0.0
C608 C 0.32848 0.6459 0.99511 0.0
C609 C 0.33746 0.65623 0.00577 0.0
N610 N 0.35722 0.70012 0.04212 0.0
C611 C 0.36037 0.72601 0.05763 0.0
C612 C 0.37626 0.72096 0.06317 0.0
C613 C 0.38225 0.70511 0.0581 0.0
C614 C 0.37266 0.69503 0.04773 0.0
C615 C 0.35118 0.71553 0.04728 0.0
H616 H 0.37812 0.68322 0.04426 0.0
H617 H 0.33923 0.72022 0.04354 0.0
H618 H 0.31116 0.68913 0.00764 0.0
H619 H 0.34909 0.65125 0.01007 0.0
C620 C 0.37447 0.65683 0.02748 0.0
C621 C 0.36795 0.70834 0.99294 0.0
C622 C 0.32071 0.66346 0.05966 0.0
C623 C 0.31431 0.71511 0.02531 0.0
H624 H 0.39839 0.69013 0.98353 0.0
H625 H 0.40204 0.66177 1.00232 0.0
H626 H 0.3689 0.63054 0.0534 0.0
H627 H 0.33931 0.63422 0.07089 0.0
H628 H 0.2904 0.68166 0.06919 0.0
H629 H 0.2867 0.71008 0.05042 0.0
H630 H 0.3199 0.7414 0.99936 0.0
H631 H 0.34938 0.73748 0.98166 0.0
H632 H 0.29535 0.67227 0.98915 0.0
H633 H 0.33362 0.63359 0.99205 0.0
H634 H 0.35489 0.73799 0.06136 0.0
H635 H 0.39452 0.70055 0.06178 0.0
C636 C 0.8217 0.4772 0.8478 0.0
C637 C 0.8068 0.47165 0.841 0.0
C638 C 0.80544 0.48081 0.82599 0.0
C639 C 0.8195 0.4914 0.82449 0.0
N640 N 0.82989 0.48944 0.83753 0.0
Co641 Co 0.85139 0.50271 0.84075 0.0
N642 N 0.84833 0.51749 0.81969 0.0
C643 C 0.83516 0.51694 0.80938 0.0
C644 C 0.83646 0.52874 0.79597 0.0
C645 C 0.85146 0.53726 0.79769 0.0
C646 C 0.85852 0.53002 0.81204 0.0
N647 N 0.87304 0.5158 0.84382 0.0
C648 C 0.88115 0.52819 0.83365 0.0
C649 C 0.8965 0.53308 0.84002 0.0
C650 C 0.89816 0.52348 0.8547 0.0
C651 C 0.88387 0.51323 0.85641 0.0
N652 N 0.85427 0.48813 0.86199 0.0
C653 C 0.86724 0.48887 0.87252 0.0
C654 C 0.86542 0.4777 0.88644 0.0
C655 C 0.85021 0.4695 0.88489 0.0
C656 C 0.84362 0.47623 0.87006 0.0
N657 N 0.8649 0.48614 0.82654 0.0
C658 C 0.88473 0.46362 0.80581 0.0
C659 C 0.88933 0.46757 0.82219 0.0
C660 C 0.87941 0.47873 0.83217 0.0
C661 C 0.86984 0.47112 0.80015 0.0
C662 C 0.86021 0.4821 0.81059 0.0
N663 N 0.83791 0.51925 0.85493 0.0
C664 C 0.83423 0.53606 0.88027 0.0
C665 C 0.8182 0.54182 0.87572 0.0
C666 C 0.8124 0.53606 0.86037 0.0
C667 C 0.82231 0.52497 0.85032 0.0
C668 C 0.84374 0.52496 0.86985 0.0
H669 H 0.81702 0.52112 0.83887 0.0
H670 H 0.85575 0.52103 0.87422 0.0
H671 H 0.88388 0.48128 0.84437 0.0
H672 H 0.84902 0.48723 0.80543 0.0
C673 C 0.82236 0.50446 0.81198 0.0
C674 C 0.82697 0.47126 0.86451 0.0
C675 C 0.87519 0.53513 0.81753 0.0
C676 C 0.88059 0.50068 0.86935 0.0
H677 H 0.79757 0.46233 0.84655 0.0
H678 H 0.79508 0.4803 0.81753 0.0
H679 H 0.82775 0.53066 0.78591 0.0
H680 H 0.85675 0.54744 0.78916 0.0
H681 H 0.90578 0.54236 0.83449 0.0
H682 H 0.90873 0.52367 0.86293 0.0
H683 H 0.87394 0.47599 0.89669 0.0
H684 H 0.84446 0.45987 0.8938 0.0
H685 H 0.90078 0.46235 0.82726 0.0
H686 H 0.86544 0.46839 0.78773 0.0
H687 H 0.8394 0.53982 0.89205 0.0
H688 H 0.80028 0.54022 0.85592 0.0
C689 C 0.48138 0.83472 0.88596 0.0
C690 C 0.47476 0.8414 0.90106 0.0
C691 C 0.48301 0.85657 0.90262 0.0
C692 C 0.49408 0.85834 0.88841 0.0
N693 N 0.49331 0.84527 0.87776 0.0
Co694 Co 0.50717 0.8427 0.85563 0.0
N695 N 0.52021 0.86442 0.85859 0.0
C696 C 0.51847 0.87479 0.87193 0.0
C697 C 0.52936 0.8886 0.87055 0.0
C698 C 0.53858 0.88706 0.85538 0.0
C699 C 0.53265 0.87238 0.84829 0.0
N700 N 0.5209 0.84024 0.83338 0.0
C701 C 0.53302 0.85069 0.82528 0.0
C702 C 0.5388 0.84453 0.80964 0.0
C703 C 0.53014 0.82964 0.80783 0.0
C704 C 0.51952 0.8276 0.82233 0.0
N705 N 0.49428 0.82084 0.8528 0.0
C706 C 0.49627 0.81027 0.83966 0.0
C707 C 0.48617 0.79589 0.84159 0.0
C708 C 0.47728 0.79724 0.85696 0.0
C709 C 0.48244 0.81248 0.86352 0.0
N710 N 0.48983 0.85566 0.84326 0.0
C711 C 0.46643 0.87477 0.82479 0.0
C712 C 0.47199 0.85897 0.81934 0.0
C713 C 0.48355 0.84971 0.82869 0.0
C714 C 0.4725 0.88069 0.83985 0.0
C715 C 0.48408 0.87101 0.84881 0.0
N716 N 0.52448 0.82975 0.86796 0.0
C717 C 0.5429 0.80544 0.8704 0.0
C718 C 0.54788 0.81049 0.88622 0.0
C719 C 0.54122 0.82551 0.8926 0.0
C720 C 0.52963 0.83487 0.88334 0.0
C721 C 0.53132 0.8152 0.86154 0.0
H722 H 0.52487 0.84608 0.88898 0.0
H723 H 0.52803 0.81065 0.84959 0.0
H724 H 0.48729 0.83783 0.82378 0.0
H725 H 0.48832 0.87632 0.86006 0.0
C726 C 0.50607 0.87154 0.88527 0.0
C727 C 0.47619 0.81814 0.88022 0.0
C728 C 0.53911 0.86672 0.83164 0.0
C729 C 0.50803 0.814 0.82586 0.0
H730 H 0.46513 0.83575 0.91014 0.0
H731 H 0.4814 0.86512 0.91305 0.0
H732 H 0.53036 0.89869 0.87944 0.0
H733 H 0.54846 0.89583 0.85009 0.0
H734 H 0.54818 0.85027 0.80037 0.0
H735 H 0.53131 0.82137 0.79713 0.0
H736 H 0.48556 0.78553 0.83297 0.0
H737 H 0.46822 0.7879 0.8628 0.0
H738 H 0.4674 0.85371 0.8079 0.0
H739 H 0.46867 0.89294 0.84453 0.0
H740 H 0.54794 0.79401 0.86481 0.0
H741 H 0.5446 0.82987 0.90488 0.0
C742 C 0.15761 0.52669 0.84179 0.0
C743 C 0.14189 0.53122 0.84924 0.0
C744 C 0.13962 0.52195 0.86435 0.0
C745 C 0.15399 0.5123 0.86528 0.0
N746 N 0.16544 0.51496 0.85178 0.0
Co747 Co 0.18772 0.50289 0.84777 0.0
N748 N 0.18365 0.48813 0.86928 0.0
C749 C 0.16969 0.48818 0.88031 0.0
C750 C 0.17073 0.47735 0.89436 0.0
C751 C 0.18639 0.47006 0.89233 0.0
C752 C 0.19403 0.47682 0.87703 0.0
N753 N 0.21007 0.49097 0.84386 0.0
C754 C 0.21804 0.47947 0.854 0.0
C755 C 0.23373 0.47488 0.84652 0.0
C756 C 0.23598 0.48409 0.83138 0.0
C757 C 0.22157 0.49368 0.8304 0.0
N758 N 0.19172 0.5175 0.82618 0.0
C759 C 0.20555 0.5173 0.81499 0.0
C760 C 0.2045 0.52822 0.801 0.0
C761 C 0.18894 0.53569 0.80321 0.0
C762 C 0.18134 0.52883 0.81847 0.0
N763 N 0.19956 0.52024 0.86106 0.0
C764 C 0.21768 0.54289 0.88109 0.0
C765 C 0.22397 0.53879 0.86467 0.0
C766 C 0.21481 0.52761 0.85499 0.0
C767 C 0.20188 0.53569 0.88704 0.0
C768 C 0.19312 0.5246 0.87693 0.0
N769 N 0.17585 0.48555 0.83444 0.0
C770 C 0.17394 0.46962 0.8087 0.0
C771 C 0.15758 0.46335 0.81403 0.0
C772 C 0.15083 0.46808 0.83009 0.0
C773 C 0.16007 0.47899 0.83997 0.0
C774 C 0.18274 0.48051 0.81898 0.0
H775 H 0.15404 0.48215 0.85195 0.0
H776 H 0.19506 0.48483 0.81403 0.0
H777 H 0.22043 0.52501 0.84267 0.0
H778 H 0.18127 0.51951 0.88237 0.0
C779 C 0.15651 0.49969 0.87794 0.0
C780 C 0.16409 0.53322 0.82483 0.0
C781 C 0.21151 0.47281 0.87092 0.0
C782 C 0.21888 0.50602 0.81752 0.0
H783 H 0.13278 0.53998 0.84409 0.0
H784 H 0.12855 0.52185 0.87332 0.0
H785 H 0.16149 0.47548 0.90514 0.0
H786 H 0.19173 0.46117 0.90139 0.0
H787 H 0.24276 0.46601 0.85164 0.0
H788 H 0.24701 0.48411 0.82237 0.0
H789 H 0.21376 0.5302 0.79025 0.0
H790 H 0.18365 0.54492 0.79444 0.0
H791 H 0.23592 0.54423 0.85917 0.0
H792 H 0.19637 0.53822 0.89967 0.0
H793 H 0.18006 0.46611 0.79662 0.0
H794 H 0.13821 0.46377 0.83492 0.0
C795 C 0.49339 0.21978 0.84484 0.0
C796 C 0.48963 0.23506 0.8364 0.0
C797 C 0.50038 0.2365 0.82205 0.0
C798 C 0.51013 0.22217 0.8226 0.0
N799 N 0.50624 0.21158 0.8364 0.0
Co800 Co 0.51791 0.18982 0.84269 0.0
N801 N 0.53315 0.19162 0.82115 0.0
C802 C 0.53342 0.20413 0.80872 0.0
C803 C 0.54479 0.20147 0.79514 0.0
C804 C 0.55201 0.18618 0.79896 0.0
C805 C 0.54456 0.18041 0.81471 0.0
N806 N 0.52991 0.1683 0.84919 0.0
C807 C 0.54199 0.15957 0.84023 0.0
C808 C 0.54682 0.14504 0.8493 0.0
C809 C 0.53733 0.14448 0.8645 0.0
C810 C 0.52729 0.15863 0.86384 0.0
N811 N 0.50227 0.18768 0.86395 0.0
C812 C 0.50186 0.17497 0.8762 0.0
C813 C 0.48927 0.17663 0.8889 0.0
C814 C 0.48113 0.19127 0.88455 0.0
C815 C 0.48936 0.1978 0.86943 0.0
N816 N 0.50121 0.17661 0.83051 0.0
C817 C 0.47772 0.15756 0.81311 0.0
C818 C 0.48341 0.15154 0.82875 0.0
C819 C 0.49502 0.16119 0.83716 0.0
C820 C 0.48401 0.1733 0.80633 0.0
C821 C 0.49568 0.18253 0.81516 0.0
N822 N 0.53468 0.20307 0.85496 0.0
C823 C 0.54908 0.20822 0.88067 0.0
C824 C 0.55809 0.22208 0.87264 0.0
C825 C 0.55523 0.22622 0.85557 0.0
C826 C 0.54357 0.21665 0.84707 0.0
C827 C 0.5376 0.19897 0.87168 0.0
H828 H 0.54199 0.22057 0.83414 0.0
H829 H 0.53119 0.18865 0.87863 0.0
H830 H 0.49888 0.15586 0.849 0.0
H831 H 0.50007 0.19442 0.80932 0.0
C832 C 0.52264 0.21806 0.81006 0.0
C833 C 0.48461 0.21378 0.86096 0.0
C834 C 0.54836 0.16398 0.82275 0.0
C835 C 0.51392 0.16203 0.87576 0.0
H836 H 0.48016 0.24429 0.84021 0.0
H837 H 0.501 0.24677 0.81237 0.0
H838 H 0.54731 0.20954 0.78371 0.0
H839 H 0.5615 0.17985 0.79096 0.0
H840 H 0.55587 0.13554 0.84516 0.0
H841 H 0.53722 0.13455 0.87451 0.0
H842 H 0.48645 0.16826 0.90008 0.0
H843 H 0.4704 0.19659 0.89175 0.0
H844 H 0.47917 0.13928 0.8344 0.0
H845 H 0.47985 0.1786 0.79433 0.0
H846 H 0.55063 0.20464 0.89398 0.0
H847 H 0.56206 0.23672 0.8487 0.0
C848 C 0.83301 0.49874 0.154 0.0
C849 C 0.84085 0.49475 0.13833 0.0
C850 C 0.85514 0.5048 0.13588 0.0
C851 C 0.85525 0.51427 0.15014 0.0
N852 N 0.84193 0.51082 0.16164 0.0
Co853 Co 0.83696 0.5218 0.18403 0.0
N854 N 0.85811 0.5365 0.18044 0.0
C855 C 0.86986 0.53658 0.16703 0.0
C856 C 0.88322 0.54773 0.16835 0.0
C857 C 0.8799 0.55517 0.18357 0.0
C858 C 0.8646 0.54813 0.19063 0.0
N859 N 0.83181 0.53304 0.20625 0.0
C860 C 0.84069 0.54518 0.21386 0.0
C861 C 0.8325 0.54969 0.22918 0.0
C862 C 0.81797 0.53995 0.23143 0.0
C863 C 0.81809 0.53014 0.21739 0.0
N864 N 0.81602 0.50683 0.18781 0.0
C865 C 0.80458 0.50636 0.20149 0.0
C866 C 0.79155 0.49476 0.20048 0.0
C867 C 0.79483 0.48734 0.18525 0.0
C868 C 0.80977 0.49487 0.17783 0.0
N869 N 0.85032 0.50418 0.19588 0.0
C870 C 0.86969 0.47986 0.21323 0.0
C871 C 0.85397 0.48512 0.22034 0.0
C872 C 0.84458 0.49717 0.21152 0.0
C873 C 0.87545 0.48679 0.19719 0.0
C874 C 0.86564 0.49882 0.1888 0.0
N875 N 0.82361 0.53947 0.1722 0.0
C876 C 0.79769 0.55552 0.16996 0.0
C877 C 0.80472 0.56461 0.15549 0.0
C878 C 0.82132 0.56096 0.1495 0.0
C879 C 0.83043 0.54836 0.15791 0.0
C880 C 0.80731 0.54317 0.1781 0.0
H881 H 0.84292 0.54601 0.15256 0.0
H882 H 0.80127 0.53682 0.18914 0.0
H883 H 0.83274 0.50066 0.21766 0.0
H884 H 0.8708 0.50371 0.17669 0.0
C885 C 0.86788 0.52618 0.15328 0.0
C886 C 0.81717 0.49061 0.16107 0.0
C887 C 0.85696 0.55266 0.2072 0.0
C888 C 0.80597 0.51754 0.21473 0.0
H889 H 0.83668 0.48549 0.12958 0.0
H890 H 0.86441 0.50511 0.12504 0.0
H891 H 0.8941 0.55012 0.15934 0.0
H892 H 0.8879 0.56464 0.18891 0.0
H893 H 0.83667 0.55898 0.2379 0.0
H894 H 0.80856 0.53985 0.24214 0.0
H895 H 0.7808 0.49221 0.20961 0.0
H896 H 0.78697 0.47765 0.18009 0.0
H897 H 0.84886 0.4799 0.23265 0.0
H898 H 0.88765 0.48324 0.19123 0.0
H899 H 0.78487 0.55806 0.1751 0.0
H900 H 0.82718 0.56758 0.13817 0.0
C901 C 0.54348 0.85324 0.16733 0.0
C902 C 0.54988 0.86089 0.15193 0.0
C903 C 0.54239 0.87643 0.15051 0.0
C904 C 0.53185 0.87743 0.16504 0.0
N905 N 0.53229 0.86356 0.17581 0.0
Co906 Co 0.51814 0.85958 0.19796 0.0
N907 N 0.50562 0.8816 0.19487 0.0
C908 C 0.50768 0.89281 0.18129 0.0
C909 C 0.49747 0.90679 0.18254 0.0
C910 C 0.48843 0.90451 0.19793 0.0
C911 C 0.49377 0.88928 0.20533 0.0
N912 N 0.50411 0.85571 0.22022 0.0
C913 C 0.49264 0.8659 0.22855 0.0
C914 C 0.48688 0.85856 0.24432 0.0
C915 C 0.49488 0.8433 0.24603 0.0
C916 C 0.50515 0.84218 0.23135 0.0
N917 N 0.53046 0.83743 0.2009 0.0
C918 C 0.52827 0.82608 0.21433 0.0
C919 C 0.53775 0.81164 0.21255 0.0
C920 C 0.54633 0.81372 0.19689 0.0
C921 C 0.54154 0.82936 0.18996 0.0
N922 N 0.53586 0.8718 0.21047 0.0
C923 C 0.55905 0.89026 0.22961 0.0
C924 C 0.55323 0.87384 0.23495 0.0
C925 C 0.54183 0.86495 0.22531 0.0
C926 C 0.55329 0.89703 0.21421 0.0
C927 C 0.54191 0.88769 0.20494 0.0
N928 N 0.5005 0.84734 0.18548 0.0
C929 C 0.48246 0.82241 0.18253 0.0
C930 C 0.47828 0.82804 0.16614 0.0
C931 C 0.48502 0.84387 0.15994 0.0
C932 C 0.49589 0.85323 0.16972 0.0
C933 C 0.4934 0.83216 0.19188 0.0
H934 H 0.50061 0.86511 0.16415 0.0
H935 H 0.49621 0.82697 0.20415 0.0
H936 H 0.53787 0.85262 0.23029 0.0
H937 H 0.53808 0.89368 0.19339 0.0
C938 C 0.5201 0.89036 0.16809 0.0
C939 C 0.54769 0.83579 0.17282 0.0
C940 C 0.48736 0.88286 0.22243 0.0
C941 C 0.51646 0.82893 0.22797 0.0
H942 H 0.55863 0.85557 0.14242 0.0
H943 H 0.5439 0.88562 0.13982 0.0
H944 H 0.49692 0.91754 0.1735 0.0
H945 H 0.47912 0.91323 0.2032 0.0
H946 H 0.4781 0.86381 0.25383 0.0
H947 H 0.49367 0.8343 0.25689 0.0
H948 H 0.53805 0.80069 0.22138 0.0
H949 H 0.55492 0.80463 0.19108 0.0
H950 H 0.5571 0.86792 0.2468 0.0
H951 H 0.5576 0.9095 0.20919 0.0
H952 H 0.47772 0.81025 0.18803 0.0
H953 H 0.48192 0.84912 0.14753 0.0
C954 C 0.19248 0.5495 0.16408 0.0
C955 C 0.18647 0.55531 0.14862 0.0
C956 C 0.17189 0.54623 0.14651 0.0
C957 C 0.16983 0.53548 0.16074 0.0
N958 N 0.18205 0.5373 0.17198 0.0
Co959 Co 0.1844 0.52367 0.19394 0.0
N960 N 0.16353 0.50954 0.19028 0.0
C961 C 0.15315 0.51134 0.17718 0.0
C962 C 0.13931 0.50049 0.17854 0.0
C963 C 0.14082 0.49123 0.19345 0.0
C964 C 0.15568 0.49689 0.2003 0.0
N965 N 0.18701 0.50975 0.21567 0.0
C966 C 0.17732 0.49666 0.22297 0.0
C967 C 0.18406 0.49014 0.23782 0.0
C968 C 0.1983 0.49965 0.24017 0.0
C969 C 0.19956 0.51128 0.22662 0.0
N970 N 0.20503 0.53808 0.19778 0.0
C971 C 0.21474 0.5371 0.21145 0.0
C972 C 0.22823 0.5484 0.21036 0.0
C973 C 0.2272 0.55705 0.19502 0.0
C974 C 0.21304 0.5505 0.18761 0.0
N975 N 0.16975 0.53992 0.20664 0.0
C976 C 0.14807 0.56152 0.22553 0.0
C977 C 0.16299 0.55532 0.23218 0.0
C978 C 0.17356 0.54467 0.22259 0.0
C979 C 0.14438 0.55706 0.2091 0.0
C980 C 0.15531 0.54636 0.19996 0.0
N981 N 0.19902 0.50746 0.18129 0.0
C982 C 0.22566 0.49256 0.17747 0.0
C983 C 0.22053 0.48578 0.16243 0.0
C984 C 0.20433 0.48973 0.15714 0.0
C985 C 0.19387 0.50055 0.16667 0.0
C986 C 0.21476 0.50321 0.18667 0.0
H987 H 0.18178 0.50332 0.16184 0.0
H988 H 0.21942 0.50794 0.19802 0.0
H989 H 0.18466 0.54036 0.22845 0.0
H990 H 0.15167 0.54334 0.18761 0.0
C991 C 0.15671 0.52338 0.16379 0.0
C992 C 0.20832 0.55578 0.1705 0.0
C993 C 0.16152 0.49016 0.21656 0.0
C994 C 0.21187 0.5243 0.22427 0.0
H995 H 0.19215 0.56498 0.13972 0.0
H996 H 0.16388 0.54719 0.13577 0.0
H997 H 0.12921 0.49955 0.16982 0.0
H998 H 0.13184 0.48156 0.19874 0.0
H999 H 0.17911 0.47969 0.24619 0.0
H1000 H 0.20663 0.49838 0.25063 0.0
H1001 H 0.23803 0.54975 0.21935 0.0
H1002 H 0.23615 0.56673 0.18969 0.0
H1003 H 0.16656 0.55869 0.24474 0.0
H1004 H 0.13289 0.56146 0.20344 0.0
H1005 H 0.23803 0.48962 0.18217 0.0
H1006 H 0.19988 0.48483 0.14548 0.0
C1007 C 0.49165 0.19031 0.21135 0.0
C1008 C 0.48566 0.19731 0.22653 0.0
C1009 C 0.49424 0.21237 0.22762 0.0
C1010 C 0.50506 0.21365 0.21322 0.0
N1011 N 0.50377 0.20046 0.20281 0.0
Co1012 Co 0.51846 0.19642 0.1815 0.0
N1013 N 0.53205 0.21789 0.18393 0.0
C1014 C 0.52946 0.22944 0.1961 0.0
C1015 C 0.54017 0.24336 0.19403 0.0
C1016 C 0.55011 0.24069 0.17954 0.0
C1017 C 0.54492 0.22515 0.17364 0.0
N1018 N 0.53351 0.19205 0.16052 0.0
C1019 C 0.54657 0.2015 0.15271 0.0
C1020 C 0.55381 0.19366 0.13853 0.0
C1021 C 0.54483 0.17885 0.13715 0.0
C1022 C 0.53275 0.17845 0.15057 0.0
N1023 N 0.50457 0.17523 0.17878 0.0
C1024 C 0.50609 0.16454 0.16571 0.0
C1025 C 0.49466 0.15115 0.16726 0.0
C1026 C 0.48541 0.15329 0.18232 0.0
C1027 C 0.49186 0.16785 0.18918 0.0
N1028 N 0.50244 0.20971 0.16719 0.0
C1029 C 0.48044 0.22898 0.14637 0.0
C1030 C 0.48856 0.21434 0.14055 0.0
C1031 C 0.49925 0.20498 0.15103 0.0
C1032 C 0.48357 0.23368 0.16297 0.0
C1033 C 0.49451 0.22403 0.17299 0.0
N1034 N 0.53442 0.18313 0.19574 0.0
C1035 C 0.54961 0.15704 0.20197 0.0
C1036 C 0.55603 0.16361 0.21665 0.0
C1037 C 0.55148 0.18029 0.2205 0.0
C1038 C 0.5408 0.18971 0.21001 0.0
C1039 C 0.53901 0.16688 0.19182 0.0
H1040 H 0.53782 0.2023 0.21372 0.0
H1041 H 0.53453 0.16099 0.18091 0.0
H1042 H 0.50489 0.19401 0.14566 0.0
H1043 H 0.49635 0.22846 0.18541 0.0
C1044 C 0.51697 0.22677 0.2094 0.0
C1045 C 0.486 0.17371 0.20594 0.0
C1046 C 0.5522 0.21816 0.15789 0.0
C1047 C 0.51957 0.16634 0.15326 0.0
H1048 H 0.47635 0.19197 0.23609 0.0
H1049 H 0.49306 0.22112 0.23791 0.0
H1050 H 0.54059 0.25424 0.20202 0.0
H1051 H 0.55992 0.24933 0.17385 0.0
H1052 H 0.56428 0.19833 0.12988 0.0
H1053 H 0.54658 0.16972 0.12726 0.0
H1054 H 0.49361 0.14072 0.15878 0.0
H1055 H 0.47535 0.14484 0.18785 0.0
H1056 H 0.48697 0.21013 0.12777 0.0
H1057 H 0.47749 0.24469 0.16839 0.0
H1058 H 0.55246 0.14416 0.1984 0.0
H1059 H 0.55624 0.18621 0.23152 0.0
C1060 C 0.83473 0.87114 0.50879 0.0
C1061 C 0.83911 0.88832 0.50886 0.0
C1062 C 0.85555 0.88923 0.51359 0.0
C1063 C 0.85998 0.87268 0.51705 0.0
N1064 N 0.84719 0.86136 0.51532 0.0
Co1065 Co 0.8467 0.83673 0.52327 0.0
N1066 N 0.87117 0.83765 0.52946 0.0
C1067 C 0.88184 0.85135 0.52751 0.0
C1068 C 0.89776 0.84834 0.53314 0.0
C1069 C 0.89722 0.83177 0.53919 0.0
C1070 C 0.88092 0.82557 0.5369 0.0
N1071 N 0.84606 0.8121 0.53137 0.0
C1072 C 0.85808 0.80247 0.53881 0.0
C1073 C 0.85218 0.78594 0.54268 0.0
C1074 C 0.83578 0.78519 0.53785 0.0
C1075 C 0.8326 0.80119 0.53124 0.0
N1076 N 0.82231 0.83589 0.5169 0.0
C1077 C 0.8112 0.82272 0.52023 0.0
C1078 C 0.79456 0.82708 0.51839 0.0
C1079 C 0.79524 0.84382 0.51289 0.0
C1080 C 0.81239 0.84845 0.51052 0.0
N1081 N 0.85427 0.83019 0.50001 0.0
C1082 C 0.86749 0.81842 0.46863 0.0
C1083 C 0.85315 0.8106 0.47723 0.0
C1084 C 0.84671 0.81673 0.49273 0.0
C1085 C 0.87439 0.83293 0.47547 0.0
C1086 C 0.86755 0.83863 0.49102 0.0
N1087 N 0.83908 0.84333 0.54678 0.0
C1088 C 0.81837 0.84131 0.57099 0.0
C1089 C 0.82573 0.85535 0.57819 0.0
C1090 C 0.84067 0.86243 0.57006 0.0
C1091 C 0.84711 0.85621 0.55458 0.0
C1092 C 0.82534 0.83543 0.55558 0.0
H1093 H 0.85852 0.86217 0.54919 0.0
H1094 H 0.81917 0.82462 0.55104 0.0
H1095 H 0.83584 0.81019 0.49881 0.0
H1096 H 0.87334 0.84971 0.4957 0.0
C1097 C 0.87594 0.86732 0.52205 0.0
C1098 C 0.8191 0.86443 0.50172 0.0
C1099 C 0.87504 0.80845 0.54288 0.0
C1100 C 0.81672 0.80679 0.52622 0.0
H1101 H 0.83137 0.89911 0.50548 0.0
H1102 H 0.86331 0.90061 0.51448 0.0
H1103 H 0.9083 0.85732 0.53342 0.0
H1104 H 0.90751 0.82518 0.54508 0.0
H1105 H 0.85894 0.7756 0.54869 0.0
H1106 H 0.82703 0.77439 0.53945 0.0
H1107 H 0.78324 0.81923 0.52135 0.0
H1108 H 0.78423 0.85176 0.51141 0.0
H1109 H 0.8473 0.79936 0.47242 0.0
H1110 H 0.88521 0.8397 0.469 0.0
H1111 H 0.80686 0.83521 0.57681 0.0
H1112 H 0.84726 0.87292 0.57547 0.0
C1113 C 0.17445 0.79867 0.54276 0.0
C1114 C 0.18113 0.78322 0.5482 0.0
C1115 C 0.19656 0.78171 0.53943 0.0
C1116 C 0.19848 0.79631 0.52926 0.0
N1117 N 0.18522 0.80709 0.53099 0.0
Co1118 Co 0.18307 0.83 0.519 0.0
N1119 N 0.20556 0.8275 0.50571 0.0
C1120 C 0.21588 0.81382 0.50606 0.0
C1121 C 0.23051 0.81584 0.49565 0.0
C1122 C 0.22956 0.83179 0.48824 0.0
C1123 C 0.21431 0.83861 0.49458 0.0
N1124 N 0.18117 0.85315 0.50741 0.0
C1125 C 0.19247 0.86201 0.49652 0.0
C1126 C 0.18634 0.87795 0.49188 0.0
C1127 C 0.17071 0.87932 0.50032 0.0
C1128 C 0.16819 0.86421 0.50956 0.0
N1129 N 0.16035 0.83232 0.53195 0.0
C1130 C 0.14944 0.84546 0.53063 0.0
C1131 C 0.13456 0.84321 0.54062 0.0
C1132 C 0.13595 0.82765 0.54875 0.0
C1133 C 0.15173 0.82131 0.5433 0.0
N1134 N 0.19474 0.84066 0.53763 0.0
C1135 C 0.21176 0.85663 0.56331 0.0
C1136 C 0.196 0.86247 0.55834 0.0
C1137 C 0.18779 0.85437 0.5456 0.0
C1138 C 0.21875 0.8425 0.55537 0.0
C1139 C 0.21008 0.83475 0.54269 0.0
N1140 N 0.17132 0.81931 0.50037 0.0
C1141 C 0.14862 0.81927 0.48088 0.0
C1142 C 0.1532 0.80313 0.47557 0.0
C1143 C 0.16729 0.79542 0.48249 0.0
C1144 C 0.17618 0.80372 0.49467 0.0
C1145 C 0.15776 0.82704 0.49319 0.0
H1146 H 0.18681 0.79717 0.4994 0.0
H1147 H 0.15339 0.83918 0.49686 0.0
H1148 H 0.17592 0.85957 0.54229 0.0
H1149 H 0.21608 0.82406 0.5371 0.0
C1150 C 0.21218 0.79987 0.51736 0.0
C1151 C 0.15779 0.80467 0.54904 0.0
C1152 C 0.20911 0.85594 0.49025 0.0
C1153 C 0.15374 0.85997 0.52028 0.0
H1154 H 0.17538 0.77392 0.55748 0.0
H1155 H 0.20525 0.77115 0.54023 0.0
H1156 H 0.24089 0.80696 0.49404 0.0
H1157 H 0.23921 0.83785 0.47947 0.0
H1158 H 0.19256 0.88762 0.48333 0.0
H1159 H 0.16223 0.89008 0.49983 0.0
H1160 H 0.12395 0.85186 0.54185 0.0
H1161 H 0.12639 0.82161 0.55763 0.0
H1162 H 0.19016 0.87352 0.56396 0.0
H1163 H 0.23085 0.83739 0.55895 0.0
H1164 H 0.1377 0.8257 0.47594 0.0
H1165 H 0.17146 0.78301 0.47854 0.0
C1166 C 0.15759 0.18087 0.54163 0.0
C1167 C 0.14146 0.17418 0.54647 0.0
C1168 C 0.14034 0.15876 0.53923 0.0
C1169 C 0.15572 0.15689 0.53027 0.0
N1170 N 0.1667 0.17014 0.53141 0.0
Co1171 Co 0.19007 0.17281 0.51929 0.0
N1172 N 0.18812 0.1503 0.50811 0.0
C1173 C 0.17479 0.13917 0.51034 0.0
C1174 C 0.17713 0.12451 0.50168 0.0
C1175 C 0.19292 0.1263 0.49343 0.0
C1176 C 0.19934 0.14209 0.49741 0.0
N1177 N 0.21331 0.1756 0.50697 0.0
C1178 C 0.22211 0.16524 0.49611 0.0
C1179 C 0.2377 0.17252 0.49021 0.0
C1180 C 0.23896 0.18778 0.49775 0.0
C1181 C 0.22408 0.1891 0.50769 0.0
N1182 N 0.1921 0.19522 0.53064 0.0
C1183 C 0.20579 0.20592 0.52916 0.0
C1184 C 0.20373 0.22025 0.53841 0.0
C1185 C 0.18772 0.2187 0.54623 0.0
C1186 C 0.1808 0.20351 0.54118 0.0
N1187 N 0.20047 0.16105 0.53891 0.0
C1188 C 0.21676 0.1428 0.56479 0.0
C1189 C 0.2238 0.15801 0.55748 0.0
C1190 C 0.2155 0.16686 0.5447 0.0
C1191 C 0.20109 0.13723 0.55941 0.0
C1192 C 0.19319 0.14652 0.54663 0.0
N1193 N 0.17969 0.18454 0.49971 0.0
C1194 C 0.17798 0.20915 0.48037 0.0
C1195 C 0.16332 0.20251 0.47374 0.0
C1196 C 0.15738 0.18643 0.47986 0.0
C1197 C 0.16572 0.17772 0.49271 0.0
C1198 C 0.18593 0.19999 0.49318 0.0
H1199 H 0.16047 0.16561 0.49692 0.0
H1200 H 0.1969 0.20585 0.49782 0.0
H1201 H 0.22169 0.1782 0.53951 0.0
H1202 H 0.18133 0.14155 0.54308 0.0
C1203 C 0.16017 0.14294 0.52053 0.0
C1204 C 0.16341 0.19763 0.54677 0.0
C1205 C 0.21629 0.1485 0.49092 0.0
C1206 C 0.22006 0.20258 0.51826 0.0
H1207 H 0.13141 0.17993 0.55426 0.0
H1208 H 0.12951 0.15003 0.54019 0.0
H1209 H 0.16841 0.11375 0.50145 0.0
H1210 H 0.19904 0.11694 0.48548 0.0
H1211 H 0.24723 0.16732 0.48139 0.0
H1212 H 0.24952 0.19682 0.49623 0.0
H1213 H 0.21272 0.2307 0.53919 0.0
H1214 H 0.18177 0.22781 0.5546 0.0
H1215 H 0.23598 0.16281 0.56117 0.0
H1216 H 0.19496 0.12568 0.56497 0.0
H1217 H 0.18303 0.22161 0.47611 0.0
H1218 H 0.14627 0.1806 0.47486 0.0
C1219 C 0.81655 0.16427 0.48915 0.0
C1220 C 0.80121 0.17134 0.48472 0.0
C1221 C 0.79971 0.18636 0.49274 0.0
C1222 C 0.81407 0.18762 0.5017 0.0
N1223 N 0.82478 0.17435 0.49983 0.0
Co1224 Co 0.84659 0.17077 0.51165 0.0
N1225 N 0.84393 0.19259 0.52404 0.0
C1226 C 0.83095 0.20368 0.52298 0.0
C1227 C 0.8327 0.21775 0.53251 0.0
C1228 C 0.8478 0.21564 0.54002 0.0
C1229 C 0.85445 0.20036 0.53458 0.0
N1230 N 0.86835 0.16713 0.52355 0.0
C1231 C 0.87648 0.17713 0.53435 0.0
C1232 C 0.89153 0.16984 0.53928 0.0
C1233 C 0.89304 0.15478 0.5313 0.0
C1234 C 0.87891 0.15372 0.52195 0.0
N1235 N 0.84932 0.14901 0.49917 0.0
C1236 C 0.86246 0.13806 0.50005 0.0
C1237 C 0.861 0.12426 0.49011 0.0
C1238 C 0.84596 0.12638 0.48251 0.0
C1239 C 0.83897 0.14138 0.48836 0.0
N1240 N 0.85971 0.18351 0.49254 0.0
C1241 C 0.87981 0.20315 0.46765 0.0
C1242 C 0.88532 0.18734 0.47383 0.0
C1243 C 0.87513 0.17779 0.48608 0.0
C1244 C 0.86375 0.20865 0.47368 0.0
C1245 C 0.85399 0.19871 0.48598 0.0
N1246 N 0.83349 0.15804 0.53078 0.0
C1247 C 0.82939 0.13287 0.54958 0.0
C1248 C 0.81381 0.13886 0.55637 0.0
C1249 C 0.80849 0.15484 0.55044 0.0
C1250 C 0.81847 0.16416 0.53783 0.0
C1251 C 0.83893 0.14257 0.53694 0.0
H1252 H 0.81367 0.1762 0.5339 0.0
H1253 H 0.85054 0.13715 0.53217 0.0
H1254 H 0.88015 0.16592 0.49028 0.0
H1255 H 0.842 0.20375 0.49021 0.0
C1256 C 0.81754 0.20076 0.5125 0.0
C1257 C 0.82241 0.14769 0.48332 0.0
C1258 C 0.87086 0.19389 0.53976 0.0
C1259 C 0.87566 0.14077 0.51085 0.0
H1260 H 0.79186 0.16607 0.47677 0.0
H1261 H 0.7892 0.19516 0.49238 0.0
H1262 H 0.82412 0.22839 0.53368 0.0
H1263 H 0.85337 0.22443 0.54844 0.0
H1264 H 0.90065 0.17502 0.54754 0.0
H1265 H 0.90341 0.14585 0.53192 0.0
H1266 H 0.86975 0.11377 0.48872 0.0
H1267 H 0.84068 0.11778 0.47373 0.0
H1268 H 0.8975 0.18232 0.46927 0.0
H1269 H 0.85889 0.22083 0.46934 0.0
H1270 H 0.83404 0.12052 0.55366 0.0
H1271 H 0.79666 0.16019 0.55553 0.0
H1272 H 0.21099 0.13928 0.45822 0.0
H1273 H 0.22904 0.12169 0.43942 0.0
H1274 H 0.26548 0.1169 0.47822 0.0
H1275 H 0.24717 0.13407 0.49715 0.0
H1276 H 0.26068 0.12566 0.42507 0.0
H1277 H 0.25966 0.06771 0.46778 0.0
H1278 H 0.24569 0.08537 0.47177 0.0
H1279 H 0.26746 0.08614 0.47775 0.0
C1280 C 0.22281 0.13436 0.46275 0.0
C1281 C 0.22757 0.13797 0.47924 0.0
C1282 C 0.23318 0.12432 0.45197 0.0
C1283 C 0.24861 0.11755 0.45737 0.0
C1284 C 0.25351 0.12147 0.47377 0.0
H1285 H 0.33056 0.07808 0.38812 0.0
H1286 H 0.3123 0.09553 0.40683 0.0
C1287 C 0.24309 0.13145 0.48457 0.0
C1288 C 0.25962 0.10671 0.44577 0.0
H1289 H 0.27956 0.06814 0.44357 0.0
C1290 C 0.26475 0.11307 0.42915 0.0
C1291 C 0.26483 0.09008 0.45079 0.0
C1292 C 0.25899 0.08183 0.46792 0.0
C1293 C 0.27504 0.10353 0.41768 0.0
C1294 C 0.28081 0.08718 0.42294 0.0
C1295 C 0.27542 0.0807 0.43945 0.0
C1296 C 0.29216 0.0765 0.4115 0.0
C1297 C 0.27926 0.11098 0.39985 0.0
C1298 C 0.2874 0.05967 0.40812 0.0
C1299 C 0.29798 0.0496 0.39757 0.0
C1300 C 0.31369 0.05602 0.39016 0.0
C1301 C 0.31852 0.07278 0.39359 0.0
C1302 C 0.30798 0.08283 0.40419 0.0
H1303 H 0.2699 0.12078 0.39619 0.0
H1304 H 0.29205 0.11724 0.39931 0.0
H1305 H 0.2795 0.10096 0.39028 0.0
H1306 H 0.27538 0.05433 0.41356 0.0
H1307 H 0.29392 0.03673 0.39522 0.0
H1308 H 0.99888 0.29296 0.38601 0.0
H1309 H 0.97941 0.27349 0.4034 0.0
H1310 H 0.9382 0.28797 0.37209 0.0
H1311 H 0.95771 0.30757 0.35479 0.0
H1312 H 0.92984 0.28838 0.40766 0.0
H1313 H 0.95991 0.22748 0.38993 0.0
H1314 H 0.97445 0.24296 0.39734 0.0
H1315 H 0.96424 0.24727 0.37776 0.0
C1316 C 0.98568 0.29183 0.38284 0.0
C1317 C 0.9797 0.30156 0.3691 0.0
C1318 C 0.97462 0.2807 0.39268 0.0
C1319 C 0.95743 0.2791 0.38886 0.0
C1320 C 0.95144 0.28893 0.37516 0.0
H1321 H 0.87053 0.22226 0.43968 0.0
H1322 H 0.88886 0.24067 0.42013 0.0
C1323 C 0.96253 0.30005 0.3653 0.0
C1324 C 0.94558 0.2676 0.39956 0.0
H1325 H 0.9389 0.22603 0.41317 0.0
C1326 C 0.93171 0.27473 0.40878 0.0
C1327 C 0.9481 0.2498 0.401 0.0
C1328 C 0.96238 0.24136 0.39087 0.0
C1329 C 0.92056 0.2646 0.41979 0.0
C1330 C 0.92316 0.24682 0.42135 0.0
C1331 C 0.93693 0.23967 0.41198 0.0
C1332 C 0.912 0.23545 0.43295 0.0
C1333 C 0.90642 0.27312 0.43007 0.0
C1334 C 0.91898 0.22603 0.44636 0.0
C1335 C 0.90856 0.21546 0.4575 0.0
C1336 C 0.89092 0.21402 0.45543 0.0
C1337 C 0.884 0.22329 0.44181 0.0
C1338 C 0.89446 0.23383 0.43063 0.0
H1339 H 0.90877 0.28705 0.43066 0.0
H1340 H 0.8942 0.27123 0.42397 0.0
H1341 H 0.90497 0.26749 0.44332 0.0
H1342 H 0.93249 0.22706 0.44837 0.0
H1343 H 0.91428 0.20867 0.46797 0.0
H1344 H 0.78846 0.85688 0.4848 0.0
H1345 H 0.77354 0.87519 0.46584 0.0
H1346 H 0.81762 0.90824 0.45857 0.0
H1347 H 0.83271 0.89001 0.47795 0.0
H1348 H 0.76622 0.91113 0.47099 0.0
H1349 H 0.80333 0.90074 0.4098 0.0
H1350 H 0.80442 0.88653 0.42842 0.0
H1351 H 0.81581 0.90656 0.42716 0.0
C1352 C 0.79479 0.86865 0.48078 0.0
C1353 C 0.81093 0.87344 0.48639 0.0
C1354 C 0.78625 0.87892 0.46904 0.0
C1355 C 0.79399 0.89372 0.46141 0.0
C1356 C 0.81095 0.89731 0.46484 0.0
H1357 H 0.7595 0.97528 0.39254 0.0
H1358 H 0.77597 0.95584 0.41014 0.0
C1359 C 0.8194 0.88707 0.4767 0.0
C1360 C 0.78416 0.90545 0.45021 0.0
H1361 H 0.78253 0.92239 0.40939 0.0
C1362 C 0.76975 0.91353 0.4575 0.0
C1363 C 0.7888 0.90873 0.43262 0.0
C1364 C 0.80385 0.9001 0.42394 0.0
C1365 C 0.76005 0.92496 0.44784 0.0
C1366 C 0.76451 0.92809 0.43015 0.0
C1367 C 0.77899 0.92003 0.42288 0.0
C1368 C 0.7544 0.93974 0.41907 0.0
C1369 C 0.74542 0.93394 0.45688 0.0
C1370 C 0.73674 0.93713 0.41784 0.0
C1371 C 0.72724 0.9483 0.40781 0.0
C1372 C 0.73517 0.96228 0.39849 0.0
C1373 C 0.75293 0.96462 0.39939 0.0
C1374 C 0.76239 0.95351 0.40953 0.0
H1375 H 0.74695 0.93428 0.47085 0.0
H1376 H 0.74428 0.94722 0.45168 0.0
H1377 H 0.73333 0.92697 0.45508 0.0
H1378 H 0.73026 0.92636 0.42458 0.0
H1379 H 0.71369 0.94585 0.4072 0.0
H1380 H 0.14217 0.77001 0.47788 0.0
H1381 H 0.12374 0.75567 0.4587 0.0
H1382 H 0.12222 0.80174 0.42695 0.0
H1383 H 0.14077 0.81617 0.44601 0.0
H1384 H 0.08957 0.76861 0.45032 0.0
H1385 H 0.13528 0.76194 0.39383 0.0
H1386 H 0.14222 0.76458 0.41511 0.0
H1387 H 0.13436 0.78249 0.40316 0.0
C1388 C 0.13814 0.777 0.46667 0.0
C1389 C 0.14292 0.79419 0.46341 0.0
C1390 C 0.12755 0.76883 0.4558 0.0
C1391 C 0.12177 0.77765 0.44141 0.0
C1392 C 0.12672 0.79472 0.43794 0.0
H1393 H 0.03898 0.75327 0.37786 0.0
H1394 H 0.05957 0.76761 0.39489 0.0
C1395 C 0.1372 0.80294 0.44887 0.0
C1396 C 0.10986 0.76923 0.4305 0.0
H1397 H 0.10651 0.75381 0.39078 0.0
C1398 C 0.09324 0.76536 0.43731 0.0
C1399 C 0.1148 0.76499 0.41358 0.0
C1400 C 0.13266 0.76858 0.40593 0.0
C1401 C 0.08132 0.75747 0.42752 0.0
C1402 C 0.0862 0.7534 0.41056 0.0
C1403 C 0.10286 0.7571 0.40379 0.0
C1404 C 0.07418 0.74494 0.39982 0.0
C1405 C 0.06361 0.75337 0.43535 0.0
C1406 C 0.07579 0.72755 0.39689 0.0
C1407 C 0.06405 0.71934 0.38726 0.0
C1408 C 0.05063 0.72845 0.38028 0.0
C1409 C 0.04927 0.74597 0.38299 0.0
C1410 C 0.06094 0.75415 0.39274 0.0
H1411 H 0.06248 0.75551 0.44929 0.0
H1412 H 0.05424 0.76155 0.42899 0.0
H1413 H 0.06016 0.73989 0.4333 0.0
H1414 H 0.08599 0.7203 0.40225 0.0
H1415 H 0.06551 0.70587 0.38521 0.0
H1416 H 0.24584 0.86442 0.56256 0.0
H1417 H 0.26075 0.88086 0.58297 0.0
H1418 H 0.21357 0.88591 0.61352 0.0
H1419 H 0.19855 0.86937 0.59321 0.0
H1420 H 0.23071 0.91658 0.60599 0.0
H1421 H 0.27441 0.86807 0.63136 0.0
H1422 H 0.2754 0.87003 0.60842 0.0
H1423 H 0.256 0.86255 0.6199 0.0
C1424 C 0.2387 0.86872 0.57381 0.0
C1425 C 0.22102 0.86559 0.57628 0.0
C1426 C 0.24725 0.8781 0.58546 0.0
C1427 C 0.23829 0.8844 0.59985 0.0
C1428 C 0.2207 0.8811 0.60251 0.0
H1429 H 0.287 0.93629 0.68087 0.0
H1430 H 0.26988 0.91665 0.66523 0.0
C1431 C 0.21214 0.87173 0.59086 0.0
C1432 C 0.24707 0.89546 0.61144 0.0
H1433 H 0.28068 0.89711 0.63696 0.0
C1434 C 0.24153 0.91229 0.6129 0.0
C1435 C 0.26105 0.88975 0.62057 0.0
C1436 C 0.26698 0.87156 0.62015 0.0
C1437 C 0.24997 0.92375 0.62282 0.0
C1438 C 0.26447 0.91827 0.63126 0.0
C1439 C 0.26965 0.90129 0.6303 0.0
C1440 C 0.27469 0.93015 0.64074 0.0
C1441 C 0.24333 0.94163 0.62414 0.0
C1442 C 0.28318 0.94409 0.63208 0.0
C1443 C 0.29287 0.95533 0.64095 0.0
C1444 C 0.29434 0.95278 0.65865 0.0
C1445 C 0.28593 0.9387 0.66728 0.0
C1446 C 0.27624 0.92743 0.65836 0.0
H1447 H 0.22978 0.94242 0.62089 0.0
H1448 H 0.24442 0.94624 0.63723 0.0
H1449 H 0.25102 0.9503 0.61504 0.0
H1450 H 0.28233 0.94624 0.61842 0.0
H1451 H 0.29907 0.96613 0.63397 0.0
H1452 H 0.04257 0.27288 0.63718 0.0
H1453 H 0.06189 0.25493 0.62004 0.0
H1454 H 0.1026 0.29174 0.62341 0.0
H1455 H 0.08338 0.3094 0.64093 0.0
H1456 H 0.07869 0.25994 0.58947 0.0
H1457 H 0.1267 0.24909 0.63738 0.0
H1458 H 0.10627 0.25848 0.64267 0.0
H1459 H 0.1235 0.27129 0.63247 0.0
C1460 C 0.05569 0.27706 0.63434 0.0
C1461 C 0.06144 0.29256 0.64046 0.0
C1462 C 0.06675 0.2668 0.62448 0.0
C1463 C 0.08394 0.2717 0.62053 0.0
C1464 C 0.08962 0.28732 0.62652 0.0
H1465 H 0.14989 0.22868 0.53808 0.0
H1466 H 0.13094 0.24658 0.55563 0.0
C1467 C 0.07856 0.29754 0.63643 0.0
C1468 C 0.09572 0.26065 0.60991 0.0
H1469 H 0.13432 0.24049 0.60921 0.0
C1470 C 0.09083 0.25568 0.59386 0.0
C1471 C 0.11154 0.25473 0.61555 0.0
C1472 C 0.11726 0.25851 0.63302 0.0
C1473 C 0.10128 0.24535 0.58331 0.0
C1474 C 0.1174 0.23997 0.58867 0.0
C1475 C 0.12215 0.24469 0.60485 0.0
C1476 C 0.12931 0.2292 0.5779 0.0
C1477 C 0.09468 0.23996 0.56667 0.0
C1478 C 0.1354 0.21363 0.58454 0.0
C1479 C 0.14643 0.20348 0.57453 0.0
C1480 C 0.15175 0.20862 0.5576 0.0
C1481 C 0.14593 0.2243 0.55103 0.0
C1482 C 0.13494 0.23448 0.56105 0.0
H1483 H 0.08054 0.2407 0.56682 0.0
H1484 H 0.10009 0.24862 0.5561 0.0
H1485 H 0.09848 0.22674 0.56392 0.0
H1486 H 0.13145 0.20919 0.59747 0.0
H1487 H 0.15079 0.19154 0.58002 0.0
H1488 H 0.82414 0.1198 0.58388 0.0
H1489 H 0.80646 0.10164 0.60428 0.0
H1490 H 0.76151 0.11621 0.57861 0.0
H1491 H 0.77911 0.13411 0.55795 0.0
H1492 H 0.77801 0.1107 0.62656 0.0
H1493 H 0.76027 0.06345 0.57976 0.0
H1494 H 0.77782 0.07842 0.57552 0.0
H1495 H 0.75623 0.08527 0.57362 0.0
C1496 C 0.81051 0.11906 0.5825 0.0
C1497 C 0.80305 0.12835 0.56922 0.0
C1498 C 0.80042 0.10875 0.59423 0.0
C1499 C 0.78272 0.10742 0.59282 0.0
C1500 C 0.77518 0.11688 0.57978 0.0
H1501 H 0.70471 0.06558 0.66729 0.0
H1502 H 0.7231 0.0842 0.64774 0.0
C1503 C 0.78525 0.12724 0.56809 0.0
C1504 C 0.77213 0.09613 0.605 0.0
H1505 H 0.7462 0.06075 0.60741 0.0
C1506 C 0.77107 0.09977 0.6224 0.0
C1507 C 0.76326 0.08176 0.59955 0.0
C1508 C 0.76451 0.07684 0.58112 0.0
C1509 C 0.76113 0.08956 0.63447 0.0
C1510 C 0.7519 0.07546 0.62894 0.0
C1511 C 0.75319 0.07166 0.61159 0.0
C1512 C 0.74093 0.06438 0.64099 0.0
C1513 C 0.76075 0.0938 0.65308 0.0
C1514 C 0.74471 0.04704 0.64344 0.0
C1515 C 0.73423 0.03647 0.65454 0.0
C1516 C 0.71976 0.04306 0.66321 0.0
C1517 C 0.7159 0.06034 0.66074 0.0
C1518 C 0.72641 0.07094 0.64968 0.0
H1519 H 0.77153 0.1024 0.65573 0.0
H1520 H 0.74864 0.10034 0.65657 0.0
H1521 H 0.76129 0.08204 0.66139 0.0
H1522 H 0.75581 0.04172 0.63679 0.0
H1523 H 0.73734 0.02313 0.65629 0.0
H1524 H 0.95282 0.72216 0.65908 0.0
H1525 H 0.93499 0.73953 0.64085 0.0
H1526 H 0.96581 0.72559 0.5963 0.0
H1527 H 0.98363 0.70813 0.61441 0.0
H1528 H 0.94242 0.76703 0.6198 0.0
H1529 H 0.91889 0.71525 0.58123 0.0
H1530 H 0.92996 0.71107 0.60042 0.0
H1531 H 0.94175 0.71676 0.58052 0.0
C1532 C 0.95586 0.72279 0.6454 0.0
C1533 C 0.96968 0.71357 0.63828 0.0
C1534 C 0.94558 0.73272 0.63495 0.0
C1535 C 0.94876 0.7337 0.61708 0.0
C1536 C 0.96269 0.72472 0.60996 0.0
H1537 H 0.90387 0.79111 0.533 0.0
H1538 H 0.92177 0.77322 0.551 0.0
C1539 C 0.97293 0.71472 0.62038 0.0
C1540 C 0.93782 0.74448 0.60601 0.0
H1541 H 0.91294 0.74357 0.57165 0.0
C1542 C 0.93591 0.76184 0.60935 0.0
C1543 C 0.92925 0.73783 0.59228 0.0
C1544 C 0.9299 0.71918 0.58847 0.0
C1545 C 0.92602 0.77269 0.59925 0.0
C1546 C 0.91754 0.76605 0.5855 0.0
C1547 C 0.91945 0.74873 0.58213 0.0
C1548 C 0.90658 0.77686 0.57454 0.0
C1549 C 0.92506 0.79131 0.60317 0.0
C1550 C 0.8919 0.78471 0.58164 0.0
C1551 C 0.88169 0.79488 0.57135 0.0
C1552 C 0.88591 0.79743 0.55375 0.0
C1553 C 0.90042 0.78942 0.54657 0.0
C1554 C 0.91061 0.77919 0.55684 0.0
H1555 H 0.93556 0.79524 0.61109 0.0
H1556 H 0.92562 0.79946 0.59122 0.0
H1557 H 0.91276 0.79365 0.61041 0.0
H1558 H 0.88827 0.78288 0.59515 0.0
H1559 H 0.87049 0.80082 0.57715 0.0
H1560 H 0.38511 0.33591 0.06451 0.0
H1561 H 0.40377 0.31984 0.08318 0.0
H1562 H 0.40218 0.27736 0.05019 0.0
H1563 H 0.38419 0.29376 0.03117 0.0
H1564 H 0.39961 0.2914 0.10199 0.0
H1565 H 0.45243 0.28103 0.05361 0.0
H1566 H 0.43523 0.29538 0.04957 0.0
H1567 H 0.43249 0.2728 0.04729 0.0
C1568 C 0.38892 0.3232 0.06119 0.0
C1569 C 0.38333 0.31616 0.04629 0.0
C1570 C 0.39954 0.31397 0.0719 0.0
C1571 C 0.40481 0.29742 0.06801 0.0
C1572 C 0.39885 0.29025 0.0533 0.0
H1573 H 0.45942 0.21761 0.12204 0.0
H1574 H 0.44152 0.23434 0.10341 0.0
C1575 C 0.38839 0.29955 0.0425 0.0
C1576 C 0.41616 0.2876 0.07954 0.0
H1577 H 0.45316 0.26479 0.07997 0.0
C1578 C 0.41137 0.28571 0.09713 0.0
C1579 C 0.43165 0.28015 0.07338 0.0
C1580 C 0.43836 0.28258 0.05497 0.0
C1581 C 0.42134 0.27639 0.10854 0.0
C1582 C 0.43657 0.26868 0.10229 0.0
C1583 C 0.44143 0.27059 0.08476 0.0
C1584 C 0.44759 0.25857 0.11376 0.0
C1585 C 0.41539 0.27456 0.12719 0.0
C1586 C 0.45716 0.26658 0.12576 0.0
C1587 C 0.46772 0.25707 0.13631 0.0
C1588 C 0.46895 0.23922 0.13522 0.0
C1589 C 0.4592 0.23129 0.12318 0.0
C1590 C 0.44879 0.24084 0.11253 0.0
H1591 H 0.40209 0.27899 0.12959 0.0
H1592 H 0.41611 0.26105 0.13187 0.0
H1593 H 0.4239 0.28222 0.13476 0.0
H1594 H 0.45663 0.28027 0.12683 0.0
H1595 H 0.47517 0.26382 0.14509 0.0
H1596 H 0.81487 0.45614 0.1658 0.0
H1597 H 0.7997 0.43606 0.14862 0.0
H1598 H 0.78392 0.47808 0.11629 0.0
H1599 H 0.79916 0.49806 0.1334 0.0
H1600 H 0.76446 0.43574 0.14231 0.0
H1601 H 0.80559 0.44477 0.08231 0.0
H1602 H 0.81214 0.45141 0.1027 0.0
H1603 H 0.79773 0.46424 0.09086 0.0
C1604 C 0.80818 0.46096 0.15497 0.0
C1605 C 0.80811 0.47848 0.15076 0.0
C1606 C 0.79956 0.44957 0.14522 0.0
C1607 C 0.79092 0.4556 0.13108 0.0
C1608 C 0.79079 0.47317 0.12696 0.0
H1609 H 0.72788 0.41486 0.05662 0.0
H1610 H 0.74432 0.43234 0.07492 0.0
C1611 C 0.79938 0.48454 0.13673 0.0
C1612 C 0.78163 0.44361 0.12086 0.0
H1613 H 0.77934 0.42967 0.08044 0.0
C1614 C 0.76777 0.43426 0.12882 0.0
C1615 C 0.78605 0.44176 0.10329 0.0
C1616 C 0.80129 0.45095 0.09429 0.0
C1617 C 0.75782 0.42349 0.1195 0.0
C1618 C 0.76206 0.42187 0.10185 0.0
C1619 C 0.77611 0.431 0.09397 0.0
C1620 C 0.75182 0.41115 0.09118 0.0
C1621 C 0.74253 0.41437 0.12846 0.0
C1622 C 0.75068 0.39344 0.09425 0.0
C1623 C 0.74118 0.38341 0.08389 0.0
C1624 C 0.73272 0.39094 0.07025 0.0
C1625 C 0.73399 0.4087 0.0672 0.0
C1626 C 0.74348 0.41869 0.07755 0.0
H1627 H 0.73881 0.4199 0.14093 0.0
H1628 H 0.73141 0.41487 0.12037 0.0
H1629 H 0.74566 0.40078 0.13091 0.0
H1630 H 0.75726 0.38736 0.10456 0.0
H1631 H 0.74038 0.36978 0.08661 0.0
H1632 H 0.64288 0.76293 0.05493 0.0
H1633 H 0.62634 0.78096 0.07443 0.0
H1634 H 0.61316 0.73704 0.10761 0.0
H1635 H 0.62994 0.71899 0.0884 0.0
H1636 H 0.5917 0.77985 0.08525 0.0
H1637 H 0.63119 0.77051 0.141 0.0
H1638 H 0.63842 0.76469 0.11975 0.0
H1639 H 0.62372 0.75105 0.13263 0.0
C1640 C 0.63665 0.75707 0.06646 0.0
C1641 C 0.63793 0.73938 0.07 0.0
C1642 C 0.62705 0.76744 0.07759 0.0
C1643 C 0.61859 0.76052 0.09272 0.0
C1644 C 0.61974 0.74286 0.09623 0.0
H1645 H 0.53694 0.80831 0.15575 0.0
H1646 H 0.55385 0.79022 0.13641 0.0
C1647 C 0.62924 0.73247 0.08507 0.0
C1648 C 0.60841 0.77169 0.10464 0.0
H1649 H 0.60504 0.78498 0.14582 0.0
C1650 C 0.59465 0.78095 0.09848 0.0
C1651 C 0.61227 0.77342 0.12193 0.0
C1652 C 0.62729 0.76453 0.12923 0.0
C1653 C 0.58457 0.79154 0.1091 0.0
C1654 C 0.58815 0.79291 0.12651 0.0
C1655 C 0.6021 0.78389 0.13258 0.0
C1656 C 0.57775 0.8038 0.13851 0.0
C1657 C 0.57035 0.80144 0.10145 0.0
C1658 C 0.58546 0.8173 0.14662 0.0
C1659 C 0.57577 0.82764 0.1577 0.0
C1660 C 0.55814 0.82466 0.16109 0.0
C1661 C 0.55047 0.81099 0.15327 0.0
C1662 C 0.56014 0.8007 0.14213 0.0
H1663 H 0.57199 0.80249 0.08727 0.0
H1664 H 0.558 0.79479 0.105 0.0
H1665 H 0.56965 0.81447 0.1064 0.0
H1666 H 0.59899 0.81998 0.14421 0.0
H1667 H 0.58204 0.838 0.16362 0.0
H1668 H 0.21436 0.58981 0.17296 0.0
H1669 H 0.23351 0.60835 0.15413 0.0
H1670 H 0.24716 0.56542 0.1238 0.0
H1671 H 0.22822 0.54688 0.14282 0.0
H1672 H 0.27521 0.58479 0.13156 0.0
H1673 H 0.22499 0.6258 0.10556 0.0
H1674 H 0.2247 0.6246 0.1285 0.0
H1675 H 0.22016 0.60582 0.11718 0.0
C1676 C 0.22151 0.58443 0.16226 0.0
C1677 C 0.21996 0.56702 0.15925 0.0
C1678 C 0.23231 0.59499 0.15147 0.0
C1679 C 0.24158 0.58831 0.13742 0.0
C1680 C 0.24008 0.57085 0.13452 0.0
H1681 H 0.29337 0.64488 0.05119 0.0
H1682 H 0.27433 0.6264 0.07018 0.0
C1683 C 0.2293 0.56029 0.14532 0.0
C1684 C 0.25307 0.59943 0.12591 0.0
H1685 H 0.25376 0.63453 0.0986 0.0
C1686 C 0.27053 0.59566 0.12433 0.0
C1687 C 0.24689 0.61346 0.11631 0.0
C1688 C 0.22814 0.61761 0.1168 0.0
C1689 C 0.28203 0.60567 0.11359 0.0
C1690 C 0.27594 0.62001 0.1044 0.0
C1691 C 0.25844 0.62364 0.10579 0.0
C1692 C 0.28746 0.63121 0.09301 0.0
C1693 C 0.30054 0.60061 0.11192 0.0
C1694 C 0.30099 0.6402 0.09958 0.0
C1695 C 0.31184 0.65069 0.08875 0.0
C1696 C 0.30925 0.65237 0.07123 0.0
C1697 C 0.29559 0.64363 0.06468 0.0
C1698 C 0.28475 0.63314 0.0755 0.0
H1699 H 0.30225 0.58709 0.11617 0.0
H1700 H 0.30585 0.60247 0.09849 0.0
H1701 H 0.30805 0.6087 0.12005 0.0
H1702 H 0.3031 0.6392 0.11311 0.0
H1703 H 0.32224 0.6575 0.09402 0.0
H1704 H 0.37579 0.70474 0.95895 0.0
H1705 H 0.39431 0.72338 0.93956 0.0
H1706 H 0.40375 0.75545 0.98139 0.0
H1707 H 0.38508 0.7369 1.00068 0.0
H1708 H 0.39601 0.77371 0.95186 0.0
H1709 H 0.44652 0.72648 0.93787 0.0
H1710 H 0.42538 0.71939 0.93376 0.0
H1711 H 0.43047 0.72334 0.95528 0.0
C1712 C 0.38194 0.71575 0.96392 0.0
C1713 C 0.37925 0.71943 0.98121 0.0
C1714 C 0.39253 0.72631 0.95292 0.0
C1715 C 0.40062 0.74064 0.9591 0.0
C1716 C 0.39772 0.74441 0.97639 0.0
H1717 H 0.48456 0.80076 0.90911 0.0
H1718 H 0.46595 0.78219 0.92845 0.0
C1719 C 0.38712 0.73385 0.98737 0.0
C1720 C 0.41186 0.75192 0.94752 0.0
H1721 H 0.44839 0.75258 0.92139 0.0
C1722 C 0.40748 0.76911 0.94521 0.0
C1723 C 0.42693 0.74594 0.93904 0.0
C1724 C 0.43274 0.72782 0.9417 0.0
C1725 C 0.41765 0.78043 0.93447 0.0
C1726 C 0.43244 0.77432 0.92559 0.0
C1727 C 0.43695 0.75719 0.92808 0.0
C1728 C 0.44359 0.78557 0.91389 0.0
C1729 C 0.41264 0.7989 0.93296 0.0
C1730 C 0.43723 0.79347 0.89923 0.0
C1731 C 0.44781 0.80406 0.88826 0.0
C1732 C 0.46494 0.80677 0.89172 0.0
C1733 C 0.47136 0.79878 0.90627 0.0
C1734 C 0.46078 0.78821 0.91725 0.0
H1735 H 0.40369 0.80238 0.94376 0.0
H1736 H 0.42405 0.80743 0.93258 0.0
H1737 H 0.40615 0.8012 0.92092 0.0
H1738 H 0.4241 0.79135 0.89623 0.0
H1739 H 0.44268 0.81014 0.87707 0.0
H1740 H 0.30282 0.40078 0.98599 0.0
H1741 H 0.28429 0.41768 0.96781 0.0
H1742 H 0.29395 0.38313 0.92713 0.0
H1743 H 0.31256 0.36631 0.94533 0.0
H1744 H 0.29646 0.41751 0.91584 0.0
H1745 H 0.23596 0.40497 0.95509 0.0
H1746 H 0.25301 0.41327 0.96671 0.0
H1747 H 0.25491 0.39259 0.95786 0.0
C1748 C 0.3009 0.39681 0.97318 0.0
C1749 C 0.30901 0.38221 0.96708 0.0
C1750 C 0.29025 0.4064 0.96282 0.0
C1751 C 0.28746 0.40159 0.94612 0.0
C1752 C 0.29578 0.3871 0.93996 0.0
H1753 H 0.20807 0.43889 0.8806 0.0
H1754 H 0.22658 0.42166 0.89852 0.0
C1755 C 0.30638 0.37747 0.95035 0.0
C1756 C 0.27611 0.41179 0.935 0.0
H1757 H 0.23513 0.42579 0.93231 0.0
C1758 C 0.28304 0.41929 0.91945 0.0
C1759 C 0.25852 0.41401 0.93952 0.0
C1760 C 0.25007 0.40567 0.95562 0.0
C1761 C 0.27301 0.42912 0.90853 0.0
C1762 C 0.25553 0.43173 0.91328 0.0
C1763 C 0.24853 0.42397 0.92868 0.0
C1764 C 0.24428 0.44228 0.90238 0.0
C1765 C 0.28117 0.4364 0.89182 0.0
C1766 C 0.24787 0.45969 0.89866 0.0
C1767 C 0.23724 0.46954 0.8885 0.0
C1768 C 0.22274 0.46224 0.88189 0.0
C1769 C 0.21911 0.44486 0.88562 0.0
C1770 C 0.22969 0.43502 0.89585 0.0
H1771 H 0.29316 0.42975 0.88805 0.0
H1772 H 0.2723 0.43551 0.88139 0.0
H1773 H 0.28436 0.45005 0.89318 0.0
H1774 H 0.25883 0.46572 0.90375 0.0
H1775 H 0.24031 0.48291 0.88585 0.0
H1776 H 0.58057 0.21046 0.89566 0.0
H1777 H 0.5993 0.22736 0.91232 0.0
H1778 H 0.58228 0.27343 0.88718 0.0
H1779 H 0.56294 0.25671 0.87101 0.0
H1780 H 0.62583 0.24959 0.90176 0.0
H1781 H 0.57393 0.28311 0.93757 0.0
H1782 H 0.56995 0.26471 0.92532 0.0
H1783 H 0.57324 0.28536 0.91475 0.0
C1784 C 0.58066 0.2242 0.89381 0.0
C1785 C 0.57013 0.23225 0.88212 0.0
C1786 C 0.59147 0.23382 0.90323 0.0
C1787 C 0.59195 0.25164 0.90117 0.0
C1788 C 0.58184 0.2597 0.88919 0.0
H1789 H 0.64806 0.33042 0.94932 0.0
H1790 H 0.63119 0.31429 0.93016 0.0
C1791 C 0.57095 0.2501 0.87981 0.0
C1792 C 0.60303 0.26177 0.91161 0.0
H1793 H 0.60225 0.29239 0.94124 0.0
C1794 C 0.62069 0.25893 0.91041 0.0
C1795 C 0.59625 0.2739 0.92292 0.0
C1796 C 0.57729 0.27688 0.92538 0.0
C1797 C 0.6318 0.26807 0.92012 0.0
C1798 C 0.625 0.2802 0.93137 0.0
C1799 C 0.60738 0.28311 0.9325 0.0
C1800 C 0.63589 0.28976 0.94243 0.0
C1801 C 0.65072 0.26483 0.91815 0.0
C1802 C 0.64402 0.28125 0.95567 0.0
C1803 C 0.65351 0.29042 0.96674 0.0
C1804 C 0.655 0.30828 0.96477 0.0
C1805 C 0.64698 0.31671 0.95133 0.0
C1806 C 0.63743 0.30753 0.94031 0.0
H1807 H 0.65425 0.25801 0.90634 0.0
H1808 H 0.65812 0.277 0.91782 0.0
H1809 H 0.65451 0.25687 0.92928 0.0
H1810 H 0.64268 0.26756 0.95768 0.0
H1811 H 0.65927 0.28357 0.97713 0.0
H1812 H 0.71955 0.61999 0.98734 0.0
H1813 H 0.73668 0.60121 0.96926 0.0
H1814 H 0.75341 0.64427 0.93633 0.0
H1815 H 0.73587 0.6631 0.95404 0.0
H1816 H 0.74502 0.61719 0.91767 0.0
H1817 H 0.78793 0.59514 0.96727 0.0
H1818 H 0.76571 0.59153 0.97341 0.0
H1819 H 0.7739 0.61298 0.9701 0.0
C1820 C 0.72675 0.62554 0.9762 0.0
C1821 C 0.72622 0.64324 0.97234 0.0
C1822 C 0.73678 0.61473 0.96593 0.0
C1823 C 0.74671 0.62123 0.95148 0.0
C1824 C 0.74605 0.63884 0.94744 0.0
H1825 H 0.82916 0.56776 0.89546 0.0
H1826 H 0.812 0.58671 0.91336 0.0
C1827 C 0.73605 0.64967 0.95772 0.0
C1828 C 0.75749 0.60971 0.94043 0.0
H1829 H 0.78975 0.5806 0.94125 0.0
C1830 C 0.75481 0.60923 0.92287 0.0
C1831 C 0.77052 0.59939 0.94698 0.0
C1832 C 0.77485 0.59986 0.96543 0.0
C1833 C 0.76445 0.59863 0.91188 0.0
C1834 C 0.7771 0.58789 0.91855 0.0
C1835 C 0.78 0.58861 0.93604 0.0
C1836 C 0.78759 0.57605 0.90759 0.0
C1837 C 0.76122 0.59934 0.89311 0.0
C1838 C 0.77979 0.56339 0.89842 0.0
C1839 C 0.78963 0.55239 0.88817 0.0
C1840 C 0.80764 0.5536 0.8868 0.0
C1841 C 0.81541 0.56617 0.8962 0.0
C1842 C 0.80555 0.57715 0.90645 0.0
H1843 H 0.75484 0.61133 0.88925 0.0
H1844 H 0.77331 0.59831 0.8851 0.0
H1845 H 0.75271 0.58853 0.89041 0.0
H1846 H 0.76603 0.56184 0.89933 0.0
H1847 H 0.78305 0.54273 0.88154 0.0
H1848 H 0.0847 0.378 0.32164 0.0
H1849 H 0.10347 0.39897 0.30542 0.0
H1850 H 0.06602 0.40489 0.26764 0.0
H1851 H 0.04697 0.38455 0.28432 0.0
H1852 H 0.1185 0.39939 0.27429 0.0
H1853 H 0.07419 0.45363 0.278 0.0
H1854 H 0.07033 0.434 0.29049 0.0
H1855 H 0.06496 0.43564 0.26849 0.0
C1856 C 0.0805 0.38393 0.30993 0.0
C1857 C 0.06438 0.37992 0.30427 0.0
C1858 C 0.09121 0.39583 0.30065 0.0
C1859 C 0.08602 0.40381 0.28548 0.0
C1860 C 0.07011 0.39933 0.27955 0.0
H1861 H 0.15461 0.45736 0.20879 0.0
H1862 H 0.13649 0.43628 0.22557 0.0
C1863 C 0.05931 0.3876 0.28896 0.0
C1864 C 0.09736 0.41664 0.2758 0.0
H1865 H 0.09859 0.45729 0.25845 0.0
C1866 C 0.11417 0.41209 0.2709 0.0
C1867 C 0.09184 0.43332 0.27164 0.0
C1868 C 0.07441 0.43951 0.27758 0.0
C1869 C 0.12551 0.42363 0.26175 0.0
C1870 C 0.11971 0.44004 0.25687 0.0
C1871 C 0.10299 0.44466 0.262 0.0
C1872 C 0.1308 0.4527 0.24664 0.0
C1873 C 0.14367 0.41823 0.25777 0.0
C1874 C 0.13319 0.46913 0.25258 0.0
C1875 C 0.14318 0.48127 0.24281 0.0
C1876 C 0.15101 0.47716 0.22697 0.0
C1877 C 0.1487 0.46075 0.22101 0.0
C1878 C 0.13851 0.44868 0.23067 0.0
H1879 H 0.14742 0.40787 0.26682 0.0
H1880 H 0.14484 0.41331 0.2447 0.0
H1881 H 0.15278 0.42909 0.25833 0.0
H1882 H 0.12732 0.47258 0.26481 0.0
H1883 H 0.14478 0.49389 0.24759 0.0
H1884 H 0.1477 0.52401 0.79687 0.0
H1885 H 0.12966 0.54167 0.77883 0.0
H1886 H 0.13763 0.58438 0.81031 0.0
H1887 H 0.15573 0.56671 0.82827 0.0
H1888 H 0.09934 0.55889 0.78784 0.0
H1889 H 0.15001 0.60438 0.76173 0.0
H1890 H 0.15473 0.58429 0.77236 0.0
H1891 H 0.14811 0.60211 0.78467 0.0
C1892 C 0.14559 0.53719 0.79986 0.0
C1893 C 0.15308 0.54403 0.81391 0.0
C1894 C 0.13528 0.54727 0.78958 0.0
C1895 C 0.13239 0.56447 0.79303 0.0
C1896 C 0.13986 0.57127 0.80716 0.0
H1897 H 0.05232 0.62959 0.75393 0.0
H1898 H 0.07067 0.61228 0.77168 0.0
C1899 C 0.15011 0.56116 0.81748 0.0
C1900 C 0.12138 0.57515 0.78201 0.0
H1901 H 0.12156 0.61099 0.75552 0.0
C1902 C 0.10421 0.57028 0.78078 0.0
C1903 C 0.12772 0.58993 0.77258 0.0
C1904 C 0.14619 0.59546 0.77272 0.0
C1905 C 0.09322 0.57986 0.77065 0.0
C1906 C 0.09945 0.59488 0.76157 0.0
C1907 C 0.11669 0.5996 0.76258 0.0
C1908 C 0.08834 0.60571 0.75078 0.0
C1909 C 0.07508 0.57365 0.76953 0.0
C1910 C 0.09229 0.60819 0.7331 0.0
C1911 C 0.08183 0.61819 0.72289 0.0
C1912 C 0.06723 0.62614 0.7301 0.0
C1913 C 0.06348 0.62382 0.74788 0.0
C1914 C 0.07389 0.61374 0.75806 0.0
H1915 H 0.07349 0.55999 0.7737 0.0
H1916 H 0.06646 0.58116 0.77798 0.0
H1917 H 0.071 0.57535 0.75627 0.0
H1918 H 0.10341 0.60226 0.72715 0.0
H1919 H 0.08532 0.61983 0.70934 0.0
H1920 H 0.37061 0.04998 0.75998 0.0
H1921 H 0.38773 0.07016 0.77477 0.0
H1922 H 0.40729 0.09272 0.72624 0.0
H1923 H 0.3896 0.07315 0.71135 0.0
H1924 H 0.42232 0.07358 0.77272 0.0
H1925 H 0.39316 0.1344 0.75197 0.0
H1926 H 0.38323 0.11393 0.74928 0.0
H1927 H 0.4003 0.1217 0.73449 0.0
C1928 C 0.37827 0.05946 0.75244 0.0
C1929 C 0.37867 0.05998 0.73447 0.0
C1930 C 0.38814 0.0709 0.76092 0.0
C1931 C 0.39858 0.08309 0.75161 0.0
C1932 C 0.39904 0.08366 0.73368 0.0
H1933 H 0.47764 0.15302 0.77865 0.0
H1934 H 0.45798 0.1353 0.76376 0.0
C1935 C 0.3891 0.07229 0.72519 0.0
C1936 C 0.40965 0.09463 0.76065 0.0
H1937 H 0.41929 0.13654 0.76578 0.0
C1938 C 0.42157 0.08734 0.7713 0.0
C1939 C 0.40865 0.11258 0.75874 0.0
C1940 C 0.39553 0.12114 0.74813 0.0
C1941 C 0.43272 0.09753 0.7799 0.0
C1942 C 0.43182 0.11544 0.77784 0.0
C1943 C 0.41992 0.12277 0.76722 0.0
C1944 C 0.44312 0.12674 0.78675 0.0
C1945 C 0.44559 0.08912 0.79091 0.0
C1946 C 0.44099 0.12796 0.80453 0.0
C1947 C 0.45206 0.13818 0.81305 0.0
C1948 C 0.46548 0.14733 0.80393 0.0
C1949 C 0.46734 0.1463 0.78603 0.0
C1950 C 0.45619 0.13613 0.77752 0.0
H1951 H 0.44668 0.07528 0.78875 0.0
H1952 H 0.45837 0.09526 0.78835 0.0
H1953 H 0.44161 0.09067 0.80458 0.0
H1954 H 0.4308 0.12095 0.8118 0.0
H1955 H 0.45007 0.13895 0.82678 0.0
H1956 H 0.90157 0.43436 0.81548 0.0
H1957 H 0.91907 0.41565 0.79753 0.0
H1958 H 0.9094 0.44717 0.75298 0.0
H1959 H 0.89213 0.46611 0.77084 0.0
H1960 H 0.91057 0.39653 0.76961 0.0
H1961 H 0.96169 0.44384 0.74947 0.0
H1962 H 0.94636 0.44702 0.76716 0.0
H1963 H 0.94049 0.45075 0.74554 0.0
C1964 C 0.90327 0.43747 0.80189 0.0
C1965 C 0.89538 0.45193 0.79474 0.0
C1966 C 0.91324 0.42663 0.79158 0.0
C1967 C 0.91585 0.43 0.77383 0.0
C1968 C 0.9079 0.44433 0.76663 0.0
H1969 H 0.95433 0.35956 0.69622 0.0
H1970 H 0.93683 0.37822 0.71446 0.0
C1971 C 0.89782 0.45511 0.7769 0.0
C1972 C 0.92668 0.41845 0.76288 0.0
H1973 H 0.96263 0.41754 0.73567 0.0
C1974 C 0.92195 0.40116 0.76221 0.0
C1975 C 0.94171 0.42428 0.75329 0.0
C1976 C 0.94801 0.44244 0.75396 0.0
C1977 C 0.93156 0.38976 0.75208 0.0
C1978 C 0.94636 0.3957 0.74216 0.0
C1979 C 0.95126 0.41291 0.74308 0.0
C1980 C 0.957 0.38423 0.73094 0.0
C1981 C 0.92594 0.37132 0.75234 0.0
C1982 C 0.97433 0.38149 0.73377 0.0
C1983 C 0.98432 0.3708 0.72333 0.0
C1984 C 0.97732 0.36274 0.70964 0.0
C1985 C 0.96005 0.36556 0.7067 0.0
C1986 C 0.95003 0.37617 0.7172 0.0
H1987 H 0.9171 0.36788 0.76363 0.0
H1988 H 0.91912 0.36902 0.74066 0.0
H1989 H 0.9371 0.36276 0.75247 0.0
H1990 H 0.98012 0.38754 0.74418 0.0
H1991 H 0.99759 0.36887 0.72588 0.0
H1992 H 0.62583 0.98191 0.74095 0.0
H1993 H 0.60606 0.96337 0.75911 0.0
H1994 H 0.64306 0.92318 0.7575 0.0
H1995 H 0.66276 0.94168 0.73921 0.0
H1996 H 0.59381 0.92935 0.75016 0.0
H1997 H 0.62896 0.92864 0.80965 0.0
H1998 H 0.6323 0.9451 0.79292 0.0
H1999 H 0.64123 0.92439 0.79017 0.0
C2000 C 0.6297 0.96914 0.7446 0.0
C2001 C 0.64575 0.96316 0.73886 0.0
C2002 C 0.61846 0.95859 0.7549 0.0
C2003 C 0.6232 0.94199 0.75976 0.0
C2004 C 0.63928 0.93603 0.75407 0.0
H2005 H 0.57265 0.86048 0.82334 0.0
H2006 H 0.59303 0.87851 0.80536 0.0
C2007 C 0.65048 0.94654 0.74366 0.0
C2008 C 0.61108 0.93074 0.77033 0.0
H2009 H 0.60456 0.91073 0.80974 0.0
C2010 C 0.5961 0.92529 0.76321 0.0
C2011 C 0.61422 0.92541 0.78727 0.0
C2012 C 0.62998 0.93123 0.79558 0.0
C2013 C 0.58422 0.91444 0.77253 0.0
C2014 C 0.58721 0.90929 0.7896 0.0
C2015 C 0.60227 0.9147 0.79668 0.0
C2016 C 0.57485 0.89837 0.80036 0.0
C2017 C 0.5688 0.90829 0.76385 0.0
C2018 C 0.55796 0.90365 0.8037 0.0
C2019 C 0.54634 0.89331 0.81379 0.0
C2020 C 0.55149 0.87764 0.82088 0.0
C2021 C 0.56844 0.87248 0.81785 0.0
C2022 C 0.58003 0.88277 0.80766 0.0
H2023 H 0.57096 0.90917 0.7497 0.0
H2024 H 0.56544 0.89489 0.76789 0.0
H2025 H 0.55774 0.91639 0.76738 0.0
H2026 H 0.55379 0.91581 0.79859 0.0
H2027 H 0.53334 0.89754 0.81612 0.0
H2028 H 0.95512 0.62468 0.30613 0.0
H2029 H 0.93653 0.60787 0.28926 0.0
H2030 H 0.9185 0.65396 0.26501 0.0
H2031 H 0.93689 0.67095 0.28205 0.0
H2032 H 0.89993 0.61023 0.28796 0.0
H2033 H 0.93484 0.62402 0.2248 0.0
H2034 H 0.9443 0.62753 0.24479 0.0
H2035 H 0.92896 0.64221 0.23692 0.0
C2036 C 0.9471 0.63127 0.29733 0.0
C2037 C 0.94748 0.64916 0.29543 0.0
C2038 C 0.93656 0.62164 0.28764 0.0
C2039 C 0.92631 0.62969 0.2758 0.0
C2040 C 0.92655 0.64752 0.2739 0.0
H2041 H 0.85885 0.5872 0.20371 0.0
H2042 H 0.87473 0.60668 0.22091 0.0
C2043 C 0.93708 0.65719 0.28362 0.0
C2044 C 0.91524 0.61934 0.26561 0.0
H2045 H 0.90958 0.6074 0.22501 0.0
C2046 C 0.90199 0.60961 0.2742 0.0
C2047 C 0.91798 0.61867 0.24767 0.0
C2048 C 0.93235 0.62855 0.23794 0.0
C2049 C 0.89134 0.59918 0.26527 0.0
C2050 C 0.89429 0.59823 0.24736 0.0
C2051 C 0.90737 0.60818 0.23875 0.0
C2052 C 0.88428 0.5866 0.23737 0.0
C2053 C 0.87692 0.58942 0.27507 0.0
C2054 C 0.88455 0.56893 0.24088 0.0
C2055 C 0.87549 0.55791 0.23115 0.0
C2056 C 0.8662 0.56442 0.21771 0.0
C2057 C 0.86595 0.58205 0.21411 0.0
C2058 C 0.87499 0.59309 0.22387 0.0
H2059 H 0.87335 0.59523 0.28744 0.0
H2060 H 0.86544 0.58887 0.26751 0.0
H2061 H 0.88103 0.57619 0.27789 0.0
H2062 H 0.89196 0.56365 0.25098 0.0
H2063 H 0.87586 0.5443 0.23395 0.0
H2064 H 0.3704 0.95572 0.3199 0.0
H2065 H 0.38913 0.93793 0.3019 0.0
H2066 H 0.42601 0.97914 0.29519 0.0
H2067 H 0.40721 0.99697 0.31302 0.0
H2068 H 0.40251 0.94407 0.26712 0.0
H2069 H 0.45472 0.93846 0.31151 0.0
H2070 H 0.43357 0.94537 0.31827 0.0
H2071 H 0.44825 0.95986 0.30646 0.0
C2072 C 0.38249 0.96098 0.31453 0.0
C2073 C 0.3873 0.97778 0.31789 0.0
C2074 C 0.39321 0.9508 0.30424 0.0
C2075 C 0.40917 0.95702 0.29726 0.0
C2076 C 0.41395 0.97384 0.30058 0.0
H2077 H 0.49434 0.91376 0.23576 0.0
H2078 H 0.47529 0.93161 0.25326 0.0
C2079 C 0.40316 0.98407 0.31074 0.0
C2080 C 0.42067 0.94604 0.28638 0.0
H2081 H 0.45999 0.92736 0.28414 0.0
C2082 C 0.41505 0.94036 0.27089 0.0
C2083 C 0.43714 0.94121 0.29113 0.0
C2084 C 0.4438 0.94639 0.30781 0.0
C2085 C 0.42546 0.93038 0.25995 0.0
C2086 C 0.44189 0.92536 0.26477 0.0
C2087 C 0.44748 0.93106 0.2803 0.0
C2088 C 0.4535 0.91436 0.25391 0.0
C2089 C 0.41887 0.92583 0.24303 0.0
C2090 C 0.44791 0.89848 0.24844 0.0
C2091 C 0.45878 0.88835 0.23825 0.0
C2092 C 0.47568 0.89363 0.23349 0.0
C2093 C 0.48139 0.90934 0.23916 0.0
C2094 C 0.47048 0.91954 0.24924 0.0
H2095 H 0.409 0.93488 0.23891 0.0
H2096 H 0.42936 0.92576 0.23284 0.0
H2097 H 0.41288 0.91294 0.24436 0.0
H2098 H 0.43513 0.8938 0.25216 0.0
H2099 H 0.45399 0.87632 0.23411 0.0
H2100 H 0.63952 0.08267 0.33313 0.0
H2101 H 0.62158 0.1004 0.31536 0.0
H2102 H 0.6421 0.07619 0.2704 0.0
H2103 H 0.6595 0.05792 0.28809 0.0
H2104 H 0.62954 0.12373 0.28939 0.0
H2105 H 0.59163 0.07134 0.26463 0.0
H2106 H 0.60519 0.06807 0.28219 0.0
H2107 H 0.6142 0.06898 0.26048 0.0
C2108 C 0.64009 0.0809 0.3195 0.0
C2109 C 0.651 0.06866 0.31218 0.0
C2110 C 0.62987 0.09119 0.3093 0.0
C2111 C 0.63016 0.0895 0.2915 0.0
C2112 C 0.64126 0.07755 0.28411 0.0
H2113 H 0.58054 0.14034 0.20701 0.0
H2114 H 0.59825 0.1229 0.22524 0.0
C2115 C 0.65145 0.06723 0.29428 0.0
C2116 C 0.61911 0.10041 0.28067 0.0
H2117 H 0.58859 0.09884 0.25135 0.0
C2118 C 0.62052 0.11826 0.28116 0.0
C2119 C 0.60726 0.09339 0.26987 0.0
C2120 C 0.60432 0.0744 0.26934 0.0
C2121 C 0.61078 0.12917 0.27095 0.0
C2122 C 0.59904 0.12213 0.26006 0.0
C2123 C 0.59759 0.1043 0.25961 0.0
C2124 C 0.5882 0.13299 0.249 0.0
C2125 C 0.61347 0.14817 0.2716 0.0
C2126 C 0.57641 0.14444 0.25618 0.0
C2127 C 0.56611 0.15439 0.24575 0.0
C2128 C 0.56724 0.15314 0.22783 0.0
C2129 C 0.57904 0.14159 0.22071 0.0
C2130 C 0.5893 0.13162 0.23115 0.0
H2131 H 0.62581 0.15138 0.27699 0.0
H2132 H 0.6132 0.15443 0.25866 0.0
H2133 H 0.60306 0.15352 0.27989 0.0
H2134 H 0.57497 0.1455 0.26991 0.0
H2135 H 0.557 0.16283 0.25183 0.0
H2136 H 0.72369 0.95148 0.64416 0.0
H2137 H 0.74227 0.92977 0.63207 0.0
H2138 H 0.7516 0.91022 0.6828 0.0
H2139 H 0.73259 0.93162 0.69509 0.0
H2140 H 0.78169 0.91811 0.66004 0.0
H2141 H 0.73429 0.87711 0.63104 0.0
H2142 H 0.73198 0.89951 0.62626 0.0
H2143 H 0.72852 0.89128 0.64796 0.0
C2144 C 0.72935 0.94234 0.65277 0.0
C2145 C 0.72662 0.94329 0.6706 0.0
C2146 C 0.74001 0.92998 0.64584 0.0
C2147 C 0.74813 0.91834 0.65657 0.0
C2148 C 0.74537 0.91909 0.67434 0.0
H2149 H 0.80867 0.83944 0.60632 0.0
H2150 H 0.79101 0.85292 0.62866 0.0
C2151 C 0.7346 0.93139 0.68131 0.0
C2152 C 0.76032 0.90616 0.64909 0.0
H2153 H 0.76349 0.87462 0.62059 0.0
C2154 C 0.77773 0.90837 0.65166 0.0
C2155 C 0.75504 0.89337 0.63837 0.0
C2156 C 0.73642 0.89002 0.63584 0.0
C2157 C 0.79013 0.89879 0.64286 0.0
C2158 C 0.78491 0.88684 0.6312 0.0
C2159 C 0.76744 0.88387 0.6295 0.0
C2160 C 0.79726 0.87867 0.61928 0.0
C2161 C 0.80873 0.90185 0.64572 0.0
C2162 C 0.80667 0.88873 0.60676 0.0
C2163 C 0.81653 0.88112 0.59386 0.0
C2164 C 0.81716 0.86326 0.59324 0.0
C2165 C 0.80826 0.85322 0.60627 0.0
C2166 C 0.79828 0.86087 0.61911 0.0
H2167 H 0.81037 0.9074 0.65832 0.0
H2168 H 0.81602 0.88984 0.645 0.0
H2169 H 0.81427 0.911 0.63563 0.0
H2170 H 0.80573 0.90249 0.60647 0.0
H2171 H 0.82293 0.88926 0.58389 0.0
H2172 H 0.15042 0.80847 0.58304 0.0
H2173 H 0.13262 0.78965 0.60295 0.0
H2174 H 0.12256 0.75725 0.56155 0.0
H2175 H 0.14048 0.77598 0.54174 0.0
H2176 H 0.09824 0.7805 0.602 0.0
H2177 H 0.13958 0.7238 0.59801 0.0
H2178 H 0.14682 0.74481 0.59034 0.0
H2179 H 0.13361 0.73223 0.57763 0.0
C2180 C 0.14437 0.7973 0.5783 0.0
C2181 C 0.14676 0.79353 0.561 0.0
C2182 C 0.13425 0.7866 0.58961 0.0
C2183 C 0.12648 0.77192 0.58377 0.0
C2184 C 0.12871 0.76831 0.56639 0.0
H2185 H 0.04255 0.71162 0.63327 0.0
H2186 H 0.06103 0.73087 0.61454 0.0
C2187 C 0.13882 0.77901 0.55509 0.0
C2188 C 0.11584 0.76053 0.59581 0.0
H2189 H 0.11207 0.71959 0.61225 0.0
C2190 C 0.10128 0.7672 0.6043 0.0
C2191 C 0.11998 0.74324 0.59896 0.0
C2192 C 0.13593 0.7356 0.5909 0.0
C2193 C 0.09054 0.75695 0.61559 0.0
C2194 C 0.09434 0.7395 0.61826 0.0
C2195 C 0.1091 0.73292 0.61005 0.0
C2196 C 0.08316 0.72786 0.62952 0.0
C2197 C 0.07535 0.76493 0.62474 0.0
C2198 C 0.08959 0.71945 0.64387 0.0
C2199 C 0.07909 0.70841 0.65446 0.0
C2200 C 0.06204 0.70561 0.6508 0.0
C2201 C 0.05566 0.71379 0.63634 0.0
C2202 C 0.06615 0.72481 0.62574 0.0
H2203 H 0.07679 0.77901 0.62489 0.0
H2204 H 0.06369 0.76202 0.61803 0.0
H2205 H 0.07344 0.75975 0.63813 0.0
H2206 H 0.10271 0.72153 0.64693 0.0
H2207 H 0.08424 0.70207 0.66551 0.0
H2208 H 0.22075 0.10833 0.56609 0.0
H2209 H 0.23741 0.09135 0.58573 0.0
H2210 H 0.25111 0.13683 0.6109 0.0
H2211 H 0.23413 0.15392 0.59154 0.0
H2212 H 0.27315 0.09615 0.58959 0.0
H2213 H 0.23408 0.10298 0.65055 0.0
H2214 H 0.22576 0.10734 0.62987 0.0
H2215 H 0.23978 0.12247 0.63859 0.0
C2216 C 0.22703 0.11469 0.57601 0.0
C2217 C 0.22608 0.13245 0.57732 0.0
C2218 C 0.23663 0.10499 0.58713 0.0
C2219 C 0.24533 0.11284 0.59982 0.0
C2220 C 0.24428 0.13053 0.60132 0.0
H2221 H 0.31172 0.07162 0.67608 0.0
H2222 H 0.29514 0.09066 0.65789 0.0
C2223 C 0.23471 0.14027 0.59017 0.0
C2224 C 0.25616 0.10256 0.61092 0.0
H2225 H 0.26026 0.08858 0.65223 0.0
C2226 C 0.27034 0.09446 0.60329 0.0
C2227 C 0.25248 0.10055 0.62877 0.0
C2228 C 0.23713 0.10867 0.63749 0.0
C2229 C 0.28103 0.08436 0.61307 0.0
C2230 C 0.27718 0.08207 0.63088 0.0
C2231 C 0.26313 0.09038 0.63856 0.0
C2232 C 0.28732 0.07072 0.64169 0.0
C2233 C 0.29645 0.07642 0.60428 0.0
C2234 C 0.28821 0.05326 0.63867 0.0
C2235 C 0.29764 0.04249 0.64896 0.0
C2236 C 0.30616 0.04904 0.66248 0.0
C2237 C 0.3052 0.06644 0.66563 0.0
C2238 C 0.29578 0.07723 0.65531 0.0
H2239 H 0.30024 0.08316 0.59185 0.0
H2240 H 0.30751 0.07651 0.61246 0.0
H2241 H 0.29338 0.06298 0.60171 0.0
H2242 H 0.28148 0.04794 0.62844 0.0
H2243 H 0.29821 0.02903 0.64648 0.0
H2244 H 0.89064 0.22182 0.52954 0.0
H2245 H 0.90877 0.23903 0.5469 0.0
H2246 H 0.89382 0.20687 0.59139 0.0
H2247 H 0.87568 0.18971 0.57398 0.0
H2248 H 0.89285 0.24216 0.59763 0.0
H2249 H 0.9549 0.22513 0.56533 0.0
H2250 H 0.9394 0.23319 0.55122 0.0
H2251 H 0.93542 0.21323 0.56293 0.0
C2252 C 0.8913 0.21845 0.54302 0.0
C2253 C 0.88186 0.2044 0.55041 0.0
C2254 C 0.90172 0.22822 0.55293 0.0
C2255 C 0.90291 0.22417 0.57047 0.0
C2256 C 0.89323 0.21026 0.5779 0.0
H2257 H 0.97905 0.26087 0.63775 0.0
H2258 H 0.9606 0.24391 0.62073 0.0
C2259 C 0.88289 0.20043 0.56796 0.0
C2260 C 0.91406 0.23452 0.5811 0.0
H2261 H 0.95558 0.24679 0.58544 0.0
C2262 C 0.90656 0.24316 0.59495 0.0
C2263 C 0.93202 0.23574 0.57781 0.0
C2264 C 0.94099 0.22623 0.56362 0.0
C2265 C 0.91642 0.25312 0.60534 0.0
C2266 C 0.93434 0.25466 0.6018 0.0
C2267 C 0.94187 0.2458 0.58812 0.0
C2268 C 0.9455 0.26516 0.6123 0.0
C2269 C 0.9076 0.26168 0.62026 0.0
C2270 C 0.94337 0.28286 0.6132 0.0
C2271 C 0.95393 0.29263 0.62297 0.0
C2272 C 0.96692 0.28498 0.63215 0.0
C2273 C 0.96906 0.26724 0.63113 0.0
C2274 C 0.95857 0.2575 0.62127 0.0
H2275 H 0.89475 0.25601 0.62375 0.0
H2276 H 0.91533 0.26076 0.63164 0.0
H2277 H 0.90599 0.27538 0.61677 0.0
H2278 H 0.93359 0.28918 0.60622 0.0
H2279 H 0.95177 0.3062 0.62346 0.0
H2280 H 0.72825 0.07893 0.37269 0.0
H2281 H 0.74641 0.09587 0.3902 0.0
H2282 H 0.74782 0.05356 0.42696 0.0
H2283 H 0.73022 0.03648 0.40912 0.0
H2284 H 0.74205 0.10696 0.42167 0.0
H2285 H 0.79773 0.06432 0.42045 0.0
H2286 H 0.78034 0.06161 0.40679 0.0
H2287 H 0.77845 0.05363 0.42871 0.0
C2288 C 0.73262 0.07323 0.38443 0.0
C2289 C 0.72803 0.05629 0.38941 0.0
C2290 C 0.74296 0.08293 0.39449 0.0
C2291 C 0.74892 0.07598 0.40983 0.0
C2292 C 0.74393 0.05916 0.41499 0.0
H2293 H 0.80723 0.11652 0.49134 0.0
H2294 H 0.78947 0.09937 0.47358 0.0
C2295 C 0.73372 0.04942 0.40486 0.0
C2296 C 0.75998 0.08643 0.42054 0.0
H2297 H 0.79785 0.08657 0.44016 0.0
C2298 C 0.7543 0.1025 0.42559 0.0
C2299 C 0.77606 0.08078 0.42575 0.0
C2300 C 0.7836 0.06423 0.42001 0.0
C2301 C 0.76396 0.1128 0.43585 0.0
C2302 C 0.7799 0.10704 0.44119 0.0
C2303 C 0.78562 0.091 0.43617 0.0
C2304 C 0.79084 0.11748 0.45194 0.0
C2305 C 0.75685 0.12965 0.44121 0.0
C2306 C 0.7978 0.1333 0.4457 0.0
C2307 C 0.80806 0.14303 0.45579 0.0
C2308 C 0.81155 0.13722 0.47242 0.0
C2309 C 0.80472 0.12133 0.47861 0.0
C2310 C 0.79457 0.11154 0.46846 0.0
H2311 H 0.74295 0.1305 0.43943 0.0
H2312 H 0.75905 0.1317 0.45483 0.0
H2313 H 0.76346 0.1401 0.43332 0.0
H2314 H 0.79541 0.13808 0.43292 0.0
H2315 H 0.8133 0.15512 0.45062 0.0
H2316 H 0.9309 0.7185 0.3538 0.0
H2317 H 0.91174 0.73832 0.36888 0.0
H2318 H 0.9546 0.75847 0.39392 0.0
H2319 H 0.97366 0.73882 0.37872 0.0
H2320 H 0.90606 0.74023 0.40423 0.0
H2321 H 0.9319 0.80148 0.3753 0.0
H2322 H 0.93636 0.78126 0.36595 0.0
H2323 H 0.9481 0.78803 0.3835 0.0
C2324 C 0.93611 0.7273 0.36246 0.0
C2325 C 0.95359 0.72736 0.3652 0.0
C2326 C 0.92525 0.73856 0.371 0.0
C2327 C 0.93184 0.75005 0.38224 0.0
C2328 C 0.94936 0.74999 0.38498 0.0
H2329 H 0.90164 0.81478 0.46127 0.0
H2330 H 0.91553 0.79929 0.43807 0.0
C2331 C 0.96018 0.73874 0.37646 0.0
C2332 C 0.92035 0.76141 0.39197 0.0
H2333 H 0.91472 0.80299 0.40164 0.0
C2334 C 0.90771 0.75398 0.40347 0.0
C2335 C 0.92256 0.77932 0.39088 0.0
C2336 C 0.93535 0.78802 0.37811 0.0
C2337 C 0.89784 0.76394 0.41465 0.0
C2338 C 0.90056 0.7818 0.41404 0.0
C2339 C 0.91272 0.78929 0.40206 0.0
C2340 C 0.892 0.79267 0.4268 0.0
C2341 C 0.88524 0.75521 0.42761 0.0
C2342 C 0.87421 0.79448 0.4278 0.0
C2343 C 0.86621 0.8034 0.44104 0.0
C2344 C 0.87591 0.81071 0.45341 0.0
C2345 C 0.8938 0.8095 0.45185 0.0
C2346 C 0.90176 0.80058 0.43865 0.0
H2347 H 0.88689 0.74117 0.42837 0.0
H2348 H 0.88662 0.76018 0.44051 0.0
H2349 H 0.87206 0.75783 0.42397 0.0
H2350 H 0.86651 0.78869 0.41856 0.0
H2351 H 0.85242 0.80436 0.44174 0.0
H2352 H 0.30149 0.94507 0.37703 0.0
H2353 H 0.28312 0.92518 0.39492 0.0
H2354 H 0.29615 0.95093 0.43989 0.0
H2355 H 0.31419 0.97116 0.42208 0.0
H2356 H 0.29135 0.90303 0.42259 0.0
H2357 H 0.24358 0.95101 0.44285 0.0
H2358 H 0.25909 0.95497 0.42508 0.0
H2359 H 0.26529 0.9564 0.44665 0.0
C2360 C 0.30036 0.94658 0.39072 0.0
C2361 C 0.30922 0.95979 0.39811 0.0
C2362 C 0.28994 0.93514 0.40092 0.0
C2363 C 0.28807 0.93674 0.41869 0.0
C2364 C 0.2972 0.94964 0.42617 0.0
H2365 H 0.22773 0.88234 0.501 0.0
H2366 H 0.24739 0.90168 0.48363 0.0
C2367 C 0.30765 0.96107 0.41598 0.0
C2368 C 0.27656 0.92492 0.42937 0.0
H2369 H 0.24042 0.92341 0.4561 0.0
C2370 C 0.28018 0.90745 0.42989 0.0
C2371 C 0.26201 0.93075 0.43888 0.0
C2372 C 0.25712 0.94928 0.43828 0.0
C2373 C 0.26979 0.89568 0.43988 0.0
C2374 C 0.25521 0.90151 0.44934 0.0
C2375 C 0.25161 0.91898 0.44885 0.0
C2376 C 0.24347 0.8897 0.4598 0.0
C2377 C 0.27471 0.87716 0.44049 0.0
C2378 C 0.2346 0.87672 0.45212 0.0
C2379 C 0.22344 0.86572 0.46202 0.0
C2380 C 0.22093 0.8676 0.4797 0.0
C2381 C 0.2296 0.88068 0.48737 0.0
C2382 C 0.24077 0.89168 0.47748 0.0
H2383 H 0.28838 0.87551 0.43636 0.0
H2384 H 0.27232 0.87133 0.45359 0.0
H2385 H 0.2669 0.87012 0.43173 0.0
H2386 H 0.23619 0.8752 0.43846 0.0
H2387 H 0.21671 0.85577 0.4559 0.0
H2388 H 0.1288 0.20582 0.47294 0.0
H2389 H 0.11316 0.2236 0.45314 0.0
H2390 H 0.16069 0.24065 0.42693 0.0
H2391 H 0.17645 0.2224 0.44634 0.0
H2392 H 0.11624 0.25884 0.4486 0.0
H2393 H 0.13169 0.22673 0.38786 0.0
H2394 H 0.13493 0.21678 0.40857 0.0
H2395 H 0.14987 0.23259 0.39929 0.0
C2396 C 0.13592 0.21306 0.46274 0.0
C2397 C 0.15386 0.21264 0.46115 0.0
C2398 C 0.12698 0.22331 0.45154 0.0
C2399 C 0.13578 0.23329 0.43851 0.0
C2400 C 0.15366 0.23283 0.43676 0.0
H2401 H 0.09074 0.31913 0.38401 0.0
H2402 H 0.10915 0.30126 0.40121 0.0
C2403 C 0.16264 0.22254 0.44796 0.0
C2404 C 0.12619 0.24476 0.4273 0.0
H2405 H 0.11673 0.2527 0.38587 0.0
C2406 C 0.11634 0.25753 0.43488 0.0
C2407 C 0.1263 0.24288 0.40945 0.0
C2408 C 0.13614 0.22892 0.40078 0.0
C2409 C 0.10652 0.2685 0.42506 0.0
C2410 C 0.10683 0.2668 0.40717 0.0
C2411 C 0.11669 0.25404 0.39958 0.0
C2412 C 0.09631 0.27761 0.39624 0.0
C2413 C 0.09553 0.2815 0.43397 0.0
C2414 C 0.08334 0.27014 0.38744 0.0
C2415 C 0.07288 0.28028 0.37761 0.0
C2416 C 0.07524 0.29807 0.37637 0.0
C2417 C 0.08847 0.30549 0.38495 0.0
C2418 C 0.09898 0.29532 0.39475 0.0
H2419 H 0.09377 0.27857 0.44797 0.0
H2420 H 0.10175 0.29425 0.43201 0.0
H2421 H 0.08277 0.28216 0.42863 0.0
H2422 H 0.0811 0.25649 0.38847 0.0
H2423 H 0.06266 0.27421 0.37132 0.0
H2424 H 0.65187 0.70507 0.95428 0.0
H2425 H 0.6331 0.72215 0.93649 0.0
H2426 H 0.6214 0.75434 0.97879 0.0
H2427 H 0.64005 0.73717 0.99656 0.0
H2428 H 0.59251 0.74307 0.96195 0.0
H2429 H 0.64361 0.77118 0.91665 0.0
H2430 H 0.64363 0.74833 0.91928 0.0
H2431 H 0.64801 0.7611 0.93701 0.0
C2432 C 0.64522 0.71579 0.95966 0.0
C2433 C 0.64722 0.71993 0.97664 0.0
C2434 C 0.63464 0.72556 0.94955 0.0
C2435 C 0.62606 0.73959 0.95631 0.0
C2436 C 0.62797 0.74359 0.97337 0.0
H2437 H 0.57468 0.8214 0.90381 0.0
H2438 H 0.59351 0.80401 0.92097 0.0
C2439 C 0.63856 0.73385 0.98346 0.0
C2440 C 0.61488 0.75001 0.94572 0.0
H2441 H 0.61502 0.77675 0.91026 0.0
C2442 C 0.5974 0.75045 0.95065 0.0
C2443 C 0.6214 0.75974 0.93113 0.0
C2444 C 0.64021 0.76024 0.92573 0.0
C2445 C 0.58617 0.76025 0.94121 0.0
C2446 C 0.59263 0.76966 0.92638 0.0
C2447 C 0.61014 0.76939 0.92157 0.0
C2448 C 0.58139 0.78005 0.91582 0.0
C2449 C 0.56756 0.76069 0.94732 0.0
C2450 C 0.56853 0.77226 0.90711 0.0
C2451 C 0.55774 0.78214 0.89738 0.0
C2452 C 0.55967 0.79999 0.89616 0.0
C2453 C 0.57275 0.80771 0.9047 0.0
C2454 C 0.58356 0.79781 0.9144 0.0
H2455 H 0.56544 0.75601 0.96086 0.0
H2456 H 0.56257 0.77383 0.94605 0.0
H2457 H 0.56007 0.7524 0.93935 0.0
H2458 H 0.56683 0.75854 0.90789 0.0
H2459 H 0.5477 0.77584 0.89106 0.0
H2460 H 0.3253 0.62996 0.96397 0.0
H2461 H 0.30912 0.61199 0.94585 0.0
H2462 H 0.26198 0.62967 0.96964 0.0
H2463 H 0.27801 0.64747 0.98803 0.0
H2464 H 0.28552 0.58555 0.95494 0.0
H2465 H 0.25466 0.63763 0.91871 0.0
H2466 H 0.27262 0.64135 0.93144 0.0
H2467 H 0.25151 0.63851 0.94153 0.0
C2468 C 0.31149 0.62999 0.9655 0.0
C2469 C 0.30307 0.64034 0.97755 0.0
C2470 C 0.30223 0.61973 0.955 0.0
C2471 C 0.28428 0.6196 0.95612 0.0
C2472 C 0.2758 0.62979 0.96819 0.0
H2473 H 0.20538 0.56653 0.90374 0.0
H2474 H 0.2215 0.58443 0.92198 0.0
C2475 C 0.28505 0.64003 0.97873 0.0
C2476 C 0.27447 0.60854 0.94494 0.0
H2477 H 0.2451 0.6095 0.91439 0.0
C2478 C 0.27674 0.59081 0.94602 0.0
C2479 C 0.26292 0.61531 0.93331 0.0
C2480 C 0.26034 0.63425 0.93101 0.0
C2481 C 0.26762 0.5797 0.9361 0.0
C2482 C 0.25613 0.58647 0.92438 0.0
C2483 C 0.25386 0.60422 0.92332 0.0
C2484 C 0.24633 0.5754 0.91316 0.0
C2485 C 0.27005 0.56076 0.93866 0.0
C2486 C 0.2548 0.56443 0.90183 0.0
C2487 C 0.24558 0.55399 0.89146 0.0
C2488 C 0.22758 0.55433 0.89197 0.0
C2489 C 0.21916 0.56559 0.90312 0.0
C2490 C 0.2284 0.57599 0.91352 0.0
H2491 H 0.27509 0.55748 0.9513 0.0
H2492 H 0.25787 0.55364 0.9377 0.0
H2493 H 0.27942 0.55642 0.92864 0.0
H2494 H 0.26861 0.56395 0.90093 0.0
H2495 H 0.25261 0.54546 0.88322 0.0
H2496 H 0.38252 0.32551 0.92799 0.0
H2497 H 0.39888 0.30835 0.9075 0.0
H2498 H 0.39946 0.26697 0.94546 0.0
H2499 H 0.38292 0.2839 0.9658 0.0
H2500 H 0.43024 0.29646 0.9101 0.0
H2501 H 0.38603 0.242 0.90459 0.0
H2502 H 0.37933 0.2615 0.91422 0.0
H2503 H 0.38987 0.24532 0.92651 0.0
C2504 C 0.38603 0.31269 0.93187 0.0
C2505 C 0.38139 0.30598 0.94843 0.0
C2506 C 0.39529 0.3029 0.92016 0.0
C2507 C 0.4001 0.28627 0.92485 0.0
C2508 C 0.39543 0.27956 0.94138 0.0
H2509 H 0.48753 0.23078 0.89 0.0
H2510 H 0.4663 0.24902 0.90412 0.0
C2511 C 0.38605 0.28927 0.95302 0.0
C2512 C 0.41117 0.2764 0.91303 0.0
H2513 H 0.41568 0.23719 0.89632 0.0
C2514 C 0.42694 0.28359 0.90687 0.0
C2515 C 0.40675 0.25973 0.90857 0.0
C2516 C 0.38948 0.25177 0.91367 0.0
C2517 C 0.43876 0.27427 0.89706 0.0
C2518 C 0.43487 0.25715 0.89374 0.0
C2519 C 0.41876 0.25023 0.89915 0.0
C2520 C 0.44757 0.24601 0.88526 0.0
C2521 C 0.45532 0.28285 0.89042 0.0
C2522 C 0.44381 0.23779 0.87037 0.0
C2523 C 0.4558 0.22716 0.86251 0.0
C2524 C 0.47167 0.22466 0.86946 0.0
C2525 C 0.47535 0.23268 0.88445 0.0
C2526 C 0.46333 0.24318 0.89238 0.0
H2527 H 0.45397 0.2969 0.88915 0.0
H2528 H 0.46526 0.28013 0.89959 0.0
H2529 H 0.45979 0.27811 0.87779 0.0
H2530 H 0.43166 0.2397 0.86478 0.0
H2531 H 0.45278 0.22097 0.85097 0.0
H2532 H 0.71324 0.37687 0.95236 0.0
H2533 H 0.73155 0.39331 0.9308 0.0
H2534 H 0.7652 0.40646 0.96983 0.0
H2535 H 0.74696 0.38989 0.99129 0.0
H2536 H 0.74078 0.42784 0.92956 0.0
H2537 H 0.79773 0.3869 0.9329 0.0
H2538 H 0.77686 0.38015 0.94186 0.0
H2539 H 0.78983 0.39427 0.95323 0.0
C2540 C 0.72457 0.3833 0.95622 0.0
C2541 C 0.72884 0.38216 0.97334 0.0
C2542 C 0.73499 0.39265 0.94398 0.0
C2543 C 0.74987 0.40089 0.94867 0.0
C2544 C 0.75397 0.39992 0.96587 0.0
H2545 H 0.80939 0.48148 0.89309 0.0
H2546 H 0.79022 0.46427 0.91314 0.0
C2547 C 0.74355 0.39058 0.9781 0.0
C2548 C 0.76096 0.41071 0.93564 0.0
H2549 H 0.8016 0.41342 0.91724 0.0
C2550 C 0.75406 0.42465 0.9268 0.0
C2551 C 0.77822 0.40638 0.9319 0.0
C2552 C 0.78609 0.39102 0.94034 0.0
C2553 C 0.76405 0.43464 0.91459 0.0
C2554 C 0.78148 0.4307 0.91133 0.0
C2555 C 0.78828 0.41652 0.91988 0.0
C2556 C 0.79291 0.44118 0.89914 0.0
C2557 C 0.75582 0.44919 0.90516 0.0
C2558 C 0.80108 0.43381 0.88486 0.0
C2559 C 0.81208 0.4436 0.8735 0.0
C2560 C 0.81507 0.46086 0.87631 0.0
C2561 C 0.80706 0.4682 0.89066 0.0
C2562 C 0.79608 0.45842 0.90201 0.0
H2563 H 0.74169 0.44769 0.90569 0.0
H2564 H 0.75888 0.4613 0.91117 0.0
H2565 H 0.7607 0.45023 0.89154 0.0
H2566 H 0.79891 0.4205 0.88248 0.0
H2567 H 0.81829 0.43772 0.86256 0.0
H2568 H 0.65881 0.32832 0.08321 0.0
H2569 H 0.63975 0.30968 0.10205 0.0
H2570 H 0.63192 0.27747 0.05993 0.0
H2571 H 0.65109 0.29605 0.04118 0.0
H2572 H 0.60551 0.30136 0.09872 0.0
H2573 H 0.64552 0.24358 0.0977 0.0
H2574 H 0.65372 0.2644 0.09049 0.0
H2575 H 0.64115 0.25218 0.07687 0.0
C2576 C 0.653 0.31722 0.07808 0.0
C2577 C 0.65631 0.31351 0.06086 0.0
C2578 C 0.64216 0.30661 0.08879 0.0
C2579 C 0.6346 0.29206 0.08245 0.0
C2580 C 0.63787 0.28843 0.06517 0.0
H2581 H 0.5465 0.23446 0.12758 0.0
H2582 H 0.56664 0.25239 0.10924 0.0
C2583 C 0.64869 0.29905 0.05447 0.0
C2584 C 0.62296 0.28094 0.0938 0.0
H2585 H 0.61722 0.24015 0.11026 0.0
C2586 C 0.60809 0.28799 0.10129 0.0
C2587 C 0.62646 0.26355 0.09731 0.0
C2588 C 0.64265 0.25548 0.09032 0.0
C2589 C 0.59645 0.27805 0.11194 0.0
C2590 C 0.59966 0.26052 0.11497 0.0
C2591 C 0.6147 0.25354 0.10776 0.0
C2592 C 0.58762 0.24927 0.12573 0.0
C2593 C 0.58095 0.28645 0.12005 0.0
C2594 C 0.59288 0.24118 0.14079 0.0
C2595 C 0.58143 0.23089 0.15117 0.0
C2596 C 0.5646 0.22851 0.14658 0.0
C2597 C 0.55943 0.23626 0.13135 0.0
C2598 C 0.57087 0.24654 0.12097 0.0
H2599 H 0.58259 0.30052 0.12004 0.0
H2600 H 0.56969 0.28361 0.11271 0.0
H2601 H 0.5782 0.28152 0.13344 0.0
H2602 H 0.60577 0.24304 0.14464 0.0
H2603 H 0.58563 0.22493 0.16287 0.0
H2604 H 0.81502 0.59669 0.14434 0.0
H2605 H 0.79849 0.61804 0.12905 0.0
H2606 H 0.75563 0.58293 0.13073 0.0
H2607 H 0.77194 0.56175 0.14632 0.0
H2608 H 0.78571 0.61644 0.09856 0.0
H2609 H 0.73272 0.62524 0.14714 0.0
H2610 H 0.75199 0.61423 0.15204 0.0
H2611 H 0.73507 0.60326 0.14229 0.0
C2612 C 0.80203 0.59361 0.14151 0.0
C2613 C 0.79469 0.57765 0.14657 0.0
C2614 C 0.7926 0.6058 0.13284 0.0
C2615 C 0.77572 0.60219 0.12906 0.0
C2616 C 0.76844 0.58619 0.13399 0.0
H2617 H 0.71961 0.64445 0.04754 0.0
H2618 H 0.73776 0.62806 0.06636 0.0
C2619 C 0.77779 0.57407 0.14281 0.0
C2620 C 0.76605 0.61473 0.11906 0.0
H2621 H 0.72777 0.63483 0.11835 0.0
C2622 C 0.77313 0.62064 0.10298 0.0
C2623 C 0.74978 0.62045 0.12497 0.0
C2624 C 0.74203 0.61561 0.14264 0.0
C2625 C 0.76408 0.63155 0.09234 0.0
C2626 C 0.74732 0.63628 0.09775 0.0
C2627 C 0.74053 0.63097 0.11412 0.0
C2628 C 0.73642 0.64623 0.08641 0.0
C2629 C 0.77259 0.63792 0.07543 0.0
C2630 C 0.72915 0.66153 0.09173 0.0
C2631 C 0.71855 0.6707 0.08113 0.0
C2632 C 0.71519 0.66469 0.06508 0.0
C2633 C 0.72226 0.64932 0.05984 0.0
C2634 C 0.7327 0.64008 0.07049 0.0
H2635 H 0.78673 0.63787 0.07573 0.0
H2636 H 0.76902 0.62937 0.06528 0.0
H2637 H 0.76854 0.65104 0.07193 0.0
H2638 H 0.73173 0.66639 0.10405 0.0
H2639 H 0.71301 0.68247 0.08539 0.0
H2640 H 0.37957 0.75603 0.06149 0.0
H2641 H 0.39654 0.77409 0.07885 0.0
H2642 H 0.41332 0.72956 0.10673 0.0
H2643 H 0.39629 0.7114 0.08957 0.0
H2644 H 0.39533 0.7786 0.11354 0.0
H2645 H 0.45849 0.75347 0.0922 0.0
H2646 H 0.43936 0.74909 0.08143 0.0
H2647 H 0.44363 0.73731 0.10083 0.0
C2648 C 0.38674 0.75002 0.07139 0.0
C2649 C 0.38652 0.73213 0.07397 0.0
C2650 C 0.39654 0.76041 0.08129 0.0
C2651 C 0.40651 0.75325 0.09397 0.0
C2652 C 0.40613 0.73545 0.09677 0.0
H2653 H 0.45031 0.8077 0.17675 0.0
H2654 H 0.43303 0.78984 0.15951 0.0
C2655 C 0.39633 0.72503 0.08689 0.0
C2656 C 0.41709 0.76442 0.10437 0.0
H2657 H 0.45798 0.77197 0.11541 0.0
C2658 C 0.40903 0.77715 0.11391 0.0
C2659 C 0.43505 0.76278 0.10475 0.0
C2660 C 0.4447 0.75005 0.09414 0.0
C2661 C 0.41831 0.78801 0.12396 0.0
C2662 C 0.43619 0.786 0.12476 0.0
C2663 C 0.44428 0.77346 0.115 0.0
C2664 C 0.44676 0.79693 0.13541 0.0
C2665 C 0.40889 0.80177 0.13335 0.0
C2666 C 0.4606 0.80664 0.12781 0.0
C2667 C 0.47067 0.81678 0.1377 0.0
C2668 C 0.46727 0.81741 0.15554 0.0
C2669 C 0.45346 0.80754 0.16312 0.0
C2670 C 0.44339 0.79742 0.15321 0.0
H2671 H 0.39651 0.80467 0.12779 0.0
H2672 H 0.40615 0.79742 0.1469 0.0
H2673 H 0.41667 0.81369 0.13307 0.0
H2674 H 0.46361 0.80644 0.11415 0.0
H2675 H 0.48132 0.8239 0.13136 0.0
H2676 H 0.28756 0.39274 0.05024 0.0
H2677 H 0.27271 0.4111 0.0706 0.0
H2678 H 0.31815 0.41458 0.09853 0.0
H2679 H 0.33315 0.3961 0.07819 0.0
H2680 H 0.28366 0.40545 0.11802 0.0
H2681 H 0.28495 0.46403 0.07541 0.0
H2682 H 0.27889 0.44446 0.06612 0.0
H2683 H 0.30023 0.44716 0.07265 0.0
C2684 C 0.29435 0.39733 0.06078 0.0
C2685 C 0.31148 0.39299 0.06269 0.0
C2686 C 0.28591 0.40789 0.07229 0.0
C2687 C 0.29442 0.41421 0.08592 0.0
C2688 C 0.31146 0.40983 0.088 0.0
H2689 H 0.25438 0.49135 0.15366 0.0
H2690 H 0.27348 0.47372 0.13613 0.0
C2691 C 0.31999 0.39937 0.07638 0.0
C2692 C 0.28531 0.42522 0.09808 0.0
H2693 H 0.26735 0.46438 0.10112 0.0
C2694 C 0.2802 0.41839 0.11444 0.0
C2695 C 0.28098 0.44207 0.09329 0.0
C2696 C 0.28661 0.44999 0.07596 0.0
C2697 C 0.27032 0.4279 0.12602 0.0
C2698 C 0.26545 0.44454 0.12099 0.0
C2699 C 0.27106 0.45155 0.10484 0.0
C2700 C 0.25413 0.45473 0.13213 0.0
C2701 C 0.26504 0.42009 0.14349 0.0
C2702 C 0.23696 0.44986 0.13552 0.0
C2703 C 0.22602 0.4599 0.14545 0.0
C2704 C 0.23214 0.47493 0.15217 0.0
C2705 C 0.24939 0.47971 0.14881 0.0
C2706 C 0.26028 0.46973 0.13877 0.0
H2707 H 0.27278 0.40877 0.14668 0.0
H2708 H 0.26631 0.42955 0.15348 0.0
H2709 H 0.25143 0.41601 0.14379 0.0
H2710 H 0.23198 0.4384 0.13029 0.0
H2711 H 0.21281 0.45588 0.14793 0.0
H2712 H 0.89009 0.52854 0.78631 0.0
H2713 H 0.90858 0.54752 0.76738 0.0
H2714 H 0.90427 0.5865 0.80451 0.0
H2715 H 0.88522 0.5677 0.82313 0.0
H2716 H 0.90114 0.59969 0.77287 0.0
H2717 H 0.95808 0.55865 0.77263 0.0
H2718 H 0.93966 0.54794 0.76555 0.0
H2719 H 0.93962 0.55467 0.78722 0.0
C2720 C 0.89315 0.54117 0.79036 0.0
C2721 C 0.88647 0.54668 0.80618 0.0
C2722 C 0.9038 0.55194 0.77964 0.0
C2723 C 0.90815 0.5683 0.78469 0.0
C2724 C 0.90121 0.57389 0.80041 0.0
H2725 H 0.99195 0.63094 0.73763 0.0
H2726 H 0.9729 0.61267 0.75675 0.0
C2727 C 0.89041 0.56317 0.81105 0.0
C2728 C 0.91968 0.57971 0.77346 0.0
H2729 H 0.95911 0.58213 0.75233 0.0
C2730 C 0.91384 0.59588 0.76844 0.0
C2731 C 0.93637 0.57486 0.76789 0.0
C2732 C 0.94389 0.55816 0.77374 0.0
C2733 C 0.92412 0.60723 0.75781 0.0
C2734 C 0.94053 0.60208 0.75165 0.0
C2735 C 0.94646 0.586 0.75688 0.0
C2736 C 0.95193 0.61328 0.74005 0.0
C2737 C 0.91742 0.62475 0.75364 0.0
C2738 C 0.94656 0.61956 0.72424 0.0
C2739 C 0.95735 0.63014 0.71345 0.0
C2740 C 0.97381 0.6343 0.71814 0.0
C2741 C 0.97929 0.62784 0.7338 0.0
C2742 C 0.96844 0.61741 0.74467 0.0
H2743 H 0.90723 0.62841 0.76323 0.0
H2744 H 0.92779 0.63454 0.75308 0.0
H2745 H 0.91183 0.6248 0.74099 0.0
H2746 H 0.93405 0.61623 0.7202 0.0
H2747 H 0.9529 0.63505 0.70143 0.0
H2748 H 0.88783 0.45319 0.20041 0.0
H2749 H 0.90568 0.43328 0.21596 0.0
H2750 H 0.89305 0.45866 0.26269 0.0
H2751 H 0.87534 0.4787 0.24727 0.0
H2752 H 0.934 0.44151 0.2344 0.0
H2753 H 0.88313 0.40805 0.27586 0.0
H2754 H 0.87867 0.42085 0.25702 0.0
H2755 H 0.88264 0.43086 0.2766 0.0
C2756 C 0.88889 0.45455 0.21399 0.0
C2757 C 0.88014 0.46747 0.22264 0.0
C2758 C 0.899 0.44312 0.22285 0.0
C2759 C 0.90043 0.44438 0.24049 0.0
C2760 C 0.89176 0.45726 0.24915 0.0
H2761 H 0.97856 0.40679 0.30392 0.0
H2762 H 0.95898 0.4238 0.28737 0.0
C2763 C 0.88166 0.46868 0.24032 0.0
C2764 C 0.91163 0.43271 0.24973 0.0
H2765 H 0.91184 0.40331 0.28301 0.0
C2766 C 0.92917 0.43306 0.24495 0.0
C2767 C 0.9052 0.4216 0.26334 0.0
C2768 C 0.88636 0.42015 0.26844 0.0
C2769 C 0.94056 0.4229 0.25378 0.0
C2770 C 0.93423 0.41232 0.26785 0.0
C2771 C 0.91664 0.41159 0.27231 0.0
C2772 C 0.94572 0.40203 0.27819 0.0
C2773 C 0.95927 0.4235 0.24794 0.0
C2774 C 0.94437 0.3842 0.27886 0.0
C2775 C 0.95542 0.37446 0.28842 0.0
C2776 C 0.96791 0.38241 0.29757 0.0
C2777 C 0.96898 0.40031 0.29713 0.0
C2778 C 0.95795 0.41003 0.28754 0.0
H2779 H 0.96137 0.42879 0.23459 0.0
H2780 H 0.96621 0.43181 0.25636 0.0
H2781 H 0.96489 0.4106 0.24875 0.0
H2782 H 0.93489 0.37784 0.27182 0.0
H2783 H 0.95415 0.3607 0.28872 0.0
H2784 H 0.67131 0.9535 0.3265 0.0
H2785 H 0.65279 0.9371 0.30877 0.0
H2786 H 0.62455 0.98255 0.29751 0.0
H2787 H 0.64311 0.99889 0.31518 0.0
H2788 H 0.61713 0.93186 0.31196 0.0
H2789 H 0.63648 0.965 0.24977 0.0
H2790 H 0.6486 0.96682 0.26845 0.0
H2791 H 0.62949 0.97891 0.26632 0.0
C2792 C 0.66118 0.95994 0.32015 0.0
C2793 C 0.6587 0.97746 0.32207 0.0
C2794 C 0.65058 0.95058 0.31005 0.0
C2795 C 0.63737 0.95858 0.30152 0.0
C2796 C 0.63482 0.9761 0.30362 0.0
H2797 H 0.55945 0.92481 0.23474 0.0
H2798 H 0.57829 0.94091 0.25208 0.0
C2799 C 0.64536 0.98543 0.31379 0.0
C2800 C 0.62608 0.94855 0.29074 0.0
H2801 H 0.61294 0.94575 0.25009 0.0
C2802 C 0.61629 0.93485 0.29841 0.0
C2803 C 0.62486 0.95242 0.27304 0.0
C2804 C 0.63552 0.96648 0.26383 0.0
C2805 C 0.60514 0.92521 0.28903 0.0
C2806 C 0.60394 0.92904 0.2713 0.0
C2807 C 0.61376 0.94274 0.26363 0.0
C2808 C 0.59257 0.91907 0.26052 0.0
C2809 C 0.59435 0.91131 0.29836 0.0
C2810 C 0.59439 0.90138 0.25911 0.0
C2811 C 0.58364 0.8921 0.24911 0.0
C2812 C 0.57081 0.90024 0.24007 0.0
C2813 C 0.56923 0.91803 0.24129 0.0
C2814 C 0.57998 0.92729 0.25131 0.0
H2815 H 0.59307 0.91317 0.31235 0.0
H2816 H 0.58138 0.91076 0.29348 0.0
H2817 H 0.60051 0.89884 0.29637 0.0
H2818 H 0.60426 0.89472 0.26564 0.0
H2819 H 0.58556 0.87852 0.24828 0.0
H2820 H 0.13116 0.58989 0.2147 0.0
H2821 H 0.11131 0.60723 0.23164 0.0
H2822 H 0.11878 0.57505 0.27643 0.0
H2823 H 0.13823 0.55735 0.25949 0.0
H2824 H 0.08446 0.5817 0.27123 0.0
H2825 H 0.12379 0.64113 0.26757 0.0
H2826 H 0.12025 0.63255 0.2472 0.0
H2827 H 0.13246 0.62071 0.26218 0.0
C2828 C 0.12852 0.58647 0.22814 0.0
C2829 C 0.13632 0.5723 0.23578 0.0
C2830 C 0.11733 0.59648 0.23782 0.0
C2831 C 0.11381 0.59254 0.25532 0.0
C2832 C 0.12146 0.57836 0.26296 0.0
H2833 H 0.06188 0.65741 0.32865 0.0
H2834 H 0.08242 0.63904 0.31349 0.0
C2835 C 0.13265 0.56835 0.2533 0.0
C2836 C 0.10179 0.60294 0.26557 0.0
H2837 H 0.0952 0.64314 0.27921 0.0
C2838 C 0.08681 0.59511 0.27305 0.0
C2839 C 0.10505 0.62036 0.26806 0.0
C2840 C 0.12133 0.62919 0.26097 0.0
C2841 C 0.07479 0.60438 0.28271 0.0
C2842 C 0.07778 0.62194 0.2847 0.0
C2843 C 0.09292 0.62968 0.27752 0.0
C2844 C 0.06528 0.63256 0.29409 0.0
C2845 C 0.0591 0.59527 0.29085 0.0
C2846 C 0.04897 0.63503 0.28809 0.0
C2847 C 0.03732 0.64542 0.29672 0.0
C2848 C 0.04188 0.65351 0.31139 0.0
C2849 C 0.05818 0.65112 0.31739 0.0
C2850 C 0.06984 0.64072 0.30875 0.0
H2851 H 0.06084 0.58125 0.29184 0.0
H2852 H 0.05582 0.59986 0.30383 0.0
H2853 H 0.04813 0.59785 0.28288 0.0
H2854 H 0.04535 0.6291 0.2766 0.0
H2855 H 0.0248 0.64729 0.2919 0.0
H2856 H 0.45292 0.17876 0.21739 0.0
H2857 H 0.43508 0.16055 0.23773 0.0
H2858 H 0.476 0.12444 0.24022 0.0
H2859 H 0.49408 0.1431 0.22058 0.0
H2860 H 0.42292 0.12956 0.23614 0.0
H2861 H 0.46511 0.1301 0.29004 0.0
H2862 H 0.4686 0.14416 0.27132 0.0
H2863 H 0.47592 0.12251 0.27109 0.0
C2864 C 0.45809 0.16701 0.22249 0.0
C2865 C 0.4749 0.16241 0.21775 0.0
C2866 C 0.44791 0.15659 0.23402 0.0
C2867 C 0.45432 0.1413 0.24087 0.0
C2868 C 0.47094 0.13642 0.2356 0.0
H2869 H 0.39193 0.05744 0.28656 0.0
H2870 H 0.40924 0.07728 0.26766 0.0
C2871 C 0.4812 0.14697 0.22426 0.0
C2872 C 0.44343 0.13025 0.25313 0.0
H2873 H 0.44265 0.10914 0.29219 0.0
C2874 C 0.4272 0.1252 0.24844 0.0
C2875 C 0.44882 0.12481 0.26936 0.0
C2876 C 0.46548 0.13083 0.27584 0.0
C2877 C 0.41641 0.11458 0.25932 0.0
C2878 C 0.42222 0.10833 0.27512 0.0
C2879 C 0.43827 0.11371 0.27999 0.0
C2880 C 0.41191 0.09614 0.28672 0.0
C2881 C 0.39877 0.11047 0.25386 0.0
C2882 C 0.40822 0.09973 0.30396 0.0
C2883 C 0.39859 0.08821 0.31489 0.0
C2884 C 0.39237 0.07295 0.30874 0.0
C2885 C 0.39627 0.06927 0.29156 0.0
C2886 C 0.40609 0.08065 0.28072 0.0
H2887 H 0.39436 0.12042 0.24472 0.0
H2888 H 0.39907 0.09823 0.2473 0.0
H2889 H 0.38932 0.10925 0.26501 0.0
H2890 H 0.41267 0.11154 0.30893 0.0
H2891 H 0.39576 0.09138 0.32807 0.0
H2892 H 0.08244 0.34882 0.72776 0.0
H2893 H 0.09923 0.36616 0.74599 0.0
H2894 H 0.07397 0.41128 0.72801 0.0
H2895 H 0.05681 0.39401 0.71009 0.0
H2896 H 0.12194 0.39319 0.73778 0.0
H2897 H 0.06756 0.41437 0.77991 0.0
H2898 H 0.06566 0.39707 0.76568 0.0
H2899 H 0.06521 0.4188 0.75753 0.0
C2900 C 0.08029 0.36241 0.72777 0.0
C2901 C 0.06811 0.36991 0.71743 0.0
C2902 C 0.09003 0.37235 0.73816 0.0
C2903 C 0.08775 0.39006 0.73865 0.0
C2904 C 0.0758 0.39764 0.72816 0.0
H2905 H 0.15663 0.46503 0.77888 0.0
H2906 H 0.14029 0.44714 0.76085 0.0
C2907 C 0.06611 0.38772 0.71772 0.0
C2908 C 0.09799 0.40057 0.74998 0.0
H2909 H 0.09445 0.42766 0.78309 0.0
C2910 C 0.11591 0.4007 0.7477 0.0
C2911 C 0.09022 0.41025 0.76312 0.0
C2912 C 0.07112 0.41004 0.76687 0.0
C2913 C 0.12619 0.41041 0.75791 0.0
C2914 C 0.1184 0.42049 0.77072 0.0
C2915 C 0.10049 0.42011 0.77321 0.0
C2916 C 0.12858 0.43137 0.78176 0.0
C2917 C 0.14535 0.40953 0.75509 0.0
C2918 C 0.12731 0.42881 0.79966 0.0
C2919 C 0.13673 0.43903 0.81007 0.0
C2920 C 0.14763 0.45222 0.8029 0.0
C2921 C 0.14874 0.45482 0.78495 0.0
C2922 C 0.13933 0.44457 0.77456 0.0
H2923 H 0.14931 0.39803 0.74818 0.0
H2924 H 0.15011 0.4209 0.74725 0.0
H2925 H 0.15157 0.40943 0.76743 0.0
H2926 H 0.11911 0.41876 0.8056 0.0
H2927 H 0.1356 0.43641 0.82376 0.0
H2928 H 0.58152 0.15494 0.82497 0.0
H2929 H 0.59759 0.13471 0.80732 0.0
H2930 H 0.55264 0.12508 0.77998 0.0
H2931 H 0.53655 0.14514 0.7978 0.0
H2932 H 0.56973 0.09546 0.7902 0.0
H2933 H 0.614 0.14336 0.75674 0.0
H2934 H 0.61338 0.14379 0.77966 0.0
H2935 H 0.59463 0.14917 0.76864 0.0
C2936 C 0.57516 0.14839 0.81522 0.0
C2937 C 0.55792 0.15138 0.81264 0.0
C2938 C 0.58431 0.137 0.8051 0.0
C2939 C 0.57633 0.12863 0.79221 0.0
C2940 C 0.55901 0.13149 0.78982 0.0
H2941 H 0.63055 0.07232 0.71252 0.0
H2942 H 0.61172 0.09207 0.7278 0.0
C2943 C 0.54987 0.14287 0.79994 0.0
C2944 C 0.58601 0.11671 0.78137 0.0
H2945 H 0.62068 0.11418 0.75312 0.0
C2946 C 0.58081 0.09954 0.782 0.0
C2947 C 0.60026 0.12219 0.77051 0.0
C2948 C 0.60584 0.14066 0.76867 0.0
C2949 C 0.58985 0.08754 0.77242 0.0
C2950 C 0.60456 0.09288 0.76217 0.0
C2951 C 0.60945 0.11014 0.76112 0.0
C2952 C 0.61542 0.08065 0.75287 0.0
C2953 C 0.58355 0.06928 0.77332 0.0
C2954 C 0.62378 0.06784 0.76197 0.0
C2955 C 0.63445 0.05656 0.75332 0.0
C2956 C 0.63705 0.05796 0.7354 0.0
C2957 C 0.62865 0.07083 0.72631 0.0
C2958 C 0.61798 0.08214 0.735 0.0
H2959 H 0.56983 0.06825 0.77775 0.0
H2960 H 0.58533 0.0635 0.76066 0.0
H2961 H 0.59094 0.06178 0.78255 0.0
H2962 H 0.62219 0.06667 0.77579 0.0
H2963 H 0.64058 0.04666 0.76066 0.0
H2964 H 0.46729 0.87979 0.79006 0.0
H2965 H 0.44814 0.89708 0.77332 0.0
H2966 H 0.42023 0.9109 0.81971 0.0
H2967 H 0.43905 0.8932 0.83658 0.0
H2968 H 0.39936 0.90117 0.79366 0.0
H2969 H 0.44835 0.94948 0.76985 0.0
H2970 H 0.45424 0.9279 0.76598 0.0
H2971 H 0.45149 0.93466 0.78758 0.0
C2972 C 0.45698 0.88637 0.79671 0.0
C2973 C 0.4547 0.88515 0.81465 0.0
C2974 C 0.44618 0.89639 0.78713 0.0
C2975 C 0.43297 0.90545 0.79532 0.0
C2976 C 0.43046 0.90409 0.81319 0.0
H2977 H 0.37535 0.98618 0.74738 0.0
H2978 H 0.39292 0.96912 0.76635 0.0
C2979 C 0.44127 0.89407 0.8228 0.0
C2980 C 0.42166 0.91621 0.78518 0.0
H2981 H 0.42173 0.95048 0.75695 0.0
C2982 C 0.4042 0.91201 0.78569 0.0
C2983 C 0.42802 0.93045 0.77499 0.0
C2984 C 0.44652 0.93603 0.77464 0.0
C2985 C 0.39296 0.92148 0.77593 0.0
C2986 C 0.39945 0.93532 0.76524 0.0
C2987 C 0.41684 0.93975 0.76504 0.0
C2988 C 0.38844 0.94541 0.75414 0.0
C2989 C 0.37422 0.91671 0.77726 0.0
C2990 C 0.38025 0.93771 0.74098 0.0
C2991 C 0.37025 0.94741 0.73023 0.0
C2992 C 0.36848 0.96492 0.73243 0.0
C2993 C 0.37664 0.97265 0.74555 0.0
C2994 C 0.38663 0.96296 0.75632 0.0
H2995 H 0.37067 0.90888 0.78911 0.0
H2996 H 0.36618 0.92824 0.77708 0.0
H2997 H 0.37128 0.90912 0.76616 0.0
H2998 H 0.38177 0.92425 0.73891 0.0
H2999 H 0.364 0.94131 0.72012 0.0
loop_
_geom_bond_atom_site_label_1
_geom_bond_atom_site_label_2
_geom_bond_distance
_geom_bond_site_symmetry_2
_ccdc_geom_bond_type
C0 C1 1.443 . S
C0 N4 1.376 1_565 S
C0 C38 1.389 . S
C1 C0 1.443 . S
C1 C2 1.330 1_565 S
C1 H41 0.951 . S
C2 C1 1.330 1_545 S
C2 C3 1.449 . S
C2 H42 0.950 . S
C3 C2 1.449 . S
C3 N4 1.374 . S
C3 C37 1.395 . S
N4 C0 1.376 1_545 S
N4 C3 1.374 . S
N4 Co5 2.008 . S
Co5 N4 2.008 . S
Co5 N6 1.995 . S
Co5 N11 2.008 . S
Co5 N16 1.995 . S
Co5 N21 2.282 1_545 S
Co5 N27 2.282 . S
N6 Co5 1.995 . S
N6 C7 1.376 . S
N6 C10 1.383 . S
C7 N6 1.376 . S
C7 C8 1.446 . S
C7 C37 1.391 . S
C8 C7 1.446 . S
C8 C9 1.339 . S
C8 H43 0.949 . S
C9 C8 1.339 . S
C9 C10 1.439 . S
C9 H44 0.950 . S
C10 N6 1.383 . S
C10 C9 1.439 . S
C10 C39 1.392 . S
N11 Co5 2.008 . S
N11 C12 1.376 . S
N11 C15 1.374 . S
C12 N11 1.376 . S
C12 C13 1.443 . S
C12 C39 1.389 . S
C13 C12 1.443 . S
C13 C14 1.340 . S
C13 H45 0.951 . S
C14 C13 1.340 . S
C14 C15 1.439 . S
C14 H46 0.950 . S
C15 N11 1.374 . S
C15 C14 1.439 . S
C15 C40 1.395 . S
N16 Co5 1.995 . S
N16 C17 1.376 . S
N16 C20 1.383 1_545 S
C17 N16 1.376 . S
C17 C18 1.446 1_545 S
C17 C40 1.391 . S
C18 C17 1.446 1_565 S
C18 C19 1.339 . S
C18 H47 0.949 . S
C19 C18 1.339 . S
C19 C20 1.439 . S
C19 H48 0.950 . S
C20 N16 1.383 1_565 S
C20 C19 1.439 . S
C20 C38 1.392 . S
N21 Co5 2.282 1_565 S
N21 C24 1.332 . S
N21 C26 1.332 . S
C22 C23 1.386 . S
C22 C25 1.388 . S
C23 C22 1.386 . S
C23 C24 1.382 . S
C23 H49 0.950 . S
C24 N21 1.332 . S
C24 C23 1.382 . S
C24 H35 0.952 . S
C25 C22 1.388 . S
C25 C26 1.382 . S
C25 H50 0.950 . S
C26 N21 1.332 . S
C26 C25 1.382 . S
C26 H36 0.948 . S
N27 Co5 2.282 . S
N27 C31 1.332 . S
N27 C32 1.332 . S
C28 C29 1.388 . S
C28 C32 1.382 . S
C28 H51 0.950 . S
C29 C28 1.388 . S
C29 C30 1.386 . S
C30 C29 1.386 . S
C30 C31 1.382 . S
C30 H52 0.950 . S
C31 N27 1.332 . S
C31 C30 1.382 . S
C31 H33 0.952 . S
C32 N27 1.332 . S
C32 C28 1.382 . S
C32 H34 0.948 . S
H33 C31 0.952 . S
H34 C32 0.948 . S
H35 C24 0.952 . S
H36 C26 0.948 . S
C37 C3 1.395 . S
C37 C7 1.391 . S
C38 C0 1.389 . S
C38 C20 1.392 . S
C39 C10 1.392 . S
C39 C12 1.389 . S
C40 C15 1.395 . S
C40 C17 1.391 . S
H41 C1 0.951 . S
H42 C2 0.950 . S
H43 C8 0.949 . S
H44 C9 0.950 . S
H45 C13 0.951 . S
H46 C14 0.950 . S
H47 C18 0.949 . S
H48 C19 0.950 . S
H49 C23 0.950 . S
H50 C25 0.950 . S
H51 C28 0.950 . S
H52 C30 0.950 . S
C53 C54 1.443 . S
C53 N57 1.376 . S
C53 C91 1.389 . S
C54 C53 1.443 . S
C54 C55 1.340 . S
C54 H94 0.951 . S
C55 C54 1.340 . S
C55 C56 1.439 . S
C55 H95 0.950 . S
C56 C55 1.439 . S
C56 N57 1.374 . S
C56 C90 1.395 . S
N57 C53 1.376 . S
N57 C56 1.374 . S
N57 Co58 2.008 . S
Co58 N57 2.008 . S
Co58 N59 1.995 . S
Co58 N64 2.008 . S
Co58 N69 1.995 . S
Co58 N74 2.282 . S
Co58 N80 2.282 1_455 S
N59 Co58 1.995 . S
N59 C60 1.376 . S
N59 C63 1.383 1_455 S
C60 N59 1.376 . S
C60 C61 1.446 1_455 S
C60 C90 1.391 . S
C61 C60 1.446 1_655 S
C61 C62 1.339 . S
C61 H96 0.949 . S
C62 C61 1.339 . S
C62 C63 1.439 . S
C62 H97 0.950 . S
C63 N59 1.383 1_655 S
C63 C62 1.439 . S
C63 C92 1.392 . S
N64 Co58 2.008 . S
N64 C65 1.376 1_455 S
N64 C68 1.374 . S
C65 N64 1.376 1_655 S
C65 C66 1.443 . S
C65 C92 1.389 . S
C66 C65 1.443 . S
C66 C67 1.340 1_655 S
C66 H98 0.951 . S
C67 C66 1.340 1_455 S
C67 C68 1.439 . S
C67 H99 0.950 . S
C68 N64 1.374 . S
C68 C67 1.439 . S
C68 C93 1.395 . S
N69 Co58 1.995 . S
N69 C70 1.376 . S
N69 C73 1.383 . S
C70 N69 1.376 . S
C70 C71 1.446 . S
C70 C93 1.391 . S
C71 C70 1.446 . S
C71 C72 1.339 . S
C71 H100 0.949 . S
C72 C71 1.339 . S
C72 C73 1.439 . S
C72 H101 0.950 . S
C73 N69 1.383 . S
C73 C72 1.439 . S
C73 C91 1.392 . S
N74 Co58 2.282 . S
N74 C77 1.332 . S
N74 C79 1.332 . S
C75 C76 1.386 . S
C75 C78 1.388 . S
C76 C75 1.386 . S
C76 C77 1.382 . S
C76 H102 0.950 . S
C77 N74 1.332 . S
C77 C76 1.382 . S
C77 H88 0.952 . S
C78 C75 1.388 . S
C78 C79 1.382 . S
C78 H103 0.950 . S
C79 N74 1.332 . S
C79 C78 1.382 . S
C79 H89 0.948 . S
N80 Co58 2.282 1_655 S
N80 C84 1.332 . S
N80 C85 1.332 . S
C81 C82 1.388 . S
C81 C85 1.382 . S
C81 H104 0.950 . S
C82 C81 1.388 . S
C82 C83 1.386 . S
C83 C82 1.386 . S
C83 C84 1.382 . S
C83 H105 0.950 . S
C84 N80 1.332 . S
C84 C83 1.382 . S
C84 H86 0.952 . S
C85 N80 1.332 . S
C85 C81 1.382 . S
C85 H87 0.948 1_655 S
H86 C84 0.952 . S
H87 C85 0.948 1_455 S
H88 C77 0.952 . S
H89 C79 0.948 . S
C90 C56 1.395 . S
C90 C60 1.391 . S
C91 C53 1.389 . S
C91 C73 1.392 . S
C92 C63 1.392 . S
C92 C65 1.389 . S
C93 C68 1.395 . S
C93 C70 1.391 . S
H94 C54 0.951 . S
H95 C55 0.950 . S
H96 C61 0.949 . S
H97 C62 0.950 . S
H98 C66 0.951 . S
H99 C67 0.950 . S
H100 C71 0.949 . S
H101 C72 0.950 . S
H102 C76 0.950 . S
H103 C78 0.950 . S
H104 C81 0.950 . S
H105 C83 0.950 . S
C106 C107 1.443 . S
C106 N110 1.376 1_565 S
C106 C144 1.389 . S
C107 C106 1.443 . S
C107 C108 1.337 1_565 S
C107 H147 0.951 . S
C108 C107 1.337 1_545 S
C108 C109 1.442 . S
C108 H148 0.951 . S
C109 C108 1.442 . S
C109 N110 1.374 . S
C109 C143 1.395 . S
N110 C106 1.376 1_545 S
N110 C109 1.374 . S
N110 Co111 2.008 . S
Co111 N110 2.008 . S
Co111 N112 1.995 . S
Co111 N117 2.008 . S
Co111 N122 2.029 . S
Co111 N127 2.282 1_545 S
Co111 N133 2.282 . S
N112 Co111 1.995 . S
N112 C113 1.376 . S
N112 C116 1.383 . S
C113 N112 1.376 . S
C113 C114 1.446 . S
C113 C143 1.391 . S
C114 C113 1.446 . S
C114 C115 1.339 . S
C114 H149 0.949 . S
C115 C114 1.339 . S
C115 C116 1.439 . S
C115 H150 0.950 . S
C116 N112 1.383 . S
C116 C115 1.439 . S
C116 C145 1.392 . S
N117 Co111 2.008 . S
N117 C118 1.376 . S
N117 C121 1.374 . S
C118 N117 1.376 . S
C118 C119 1.443 . S
C118 C145 1.389 . S
C119 C118 1.443 . S
C119 C120 1.340 . S
C119 H151 0.951 . S
C120 C119 1.340 . S
C120 C121 1.439 . S
C120 H152 0.950 . S
C121 N117 1.374 . S
C121 C120 1.439 . S
C121 C146 1.395 . S
N122 Co111 2.029 . S
N122 C123 1.377 . S
N122 C126 1.345 1_545 S
C123 N122 1.377 . S
C123 C124 1.414 1_545 S
C123 C146 1.425 . S
C124 C123 1.414 1_565 S
C124 C125 1.339 . S
C124 H153 0.949 . S
C125 C124 1.339 . S
C125 C126 1.439 . S
C125 H154 0.950 . S
C126 N122 1.345 1_565 S
C126 C125 1.439 . S
C126 C144 1.392 . S
N127 Co111 2.282 1_565 S
N127 C130 1.332 . S
N127 C132 1.332 . S
C128 C129 1.386 . S
C128 C131 1.388 . S
C129 C128 1.386 . S
C129 C130 1.382 . S
C129 H155 0.950 . S
C130 N127 1.332 . S
C130 C129 1.382 . S
C130 H141 0.952 . S
C131 C128 1.388 . S
C131 C132 1.382 . S
C131 H156 0.950 . S
C132 N127 1.332 . S
C132 C131 1.382 . S
C132 H142 0.948 . S
N133 Co111 2.282 . S
N133 C137 1.332 . S
N133 C138 1.332 . S
C134 C135 1.388 . S
C134 C138 1.382 . S
C134 H157 0.950 . S
C135 C134 1.388 . S
C135 C136 1.386 . S
C136 C135 1.386 . S
C136 C137 1.382 . S
C136 H158 0.950 . S
C137 N133 1.332 . S
C137 C136 1.382 . S
C137 H139 0.952 . S
C138 N133 1.332 . S
C138 C134 1.382 . S
C138 H140 0.948 . S
H139 C137 0.952 . S
H140 C138 0.948 . S
H141 C130 0.952 . S
H142 C132 0.948 . S
C143 C109 1.395 . S
C143 C113 1.391 . S
C144 C106 1.389 . S
C144 C126 1.392 . S
C145 C116 1.392 . S
C145 C118 1.389 . S
C146 C121 1.395 . S
C146 C123 1.425 . S
H147 C107 0.951 . S
H148 C108 0.951 . S
H149 C114 0.949 . S
H150 C115 0.950 . S
H151 C119 0.951 . S
H152 C120 0.950 . S
H153 C124 0.949 . S
H154 C125 0.950 . S
H155 C129 0.950 . S
H156 C131 0.950 . S
H157 C134 0.950 . S
H158 C136 0.950 . S
C159 C160 1.443 . S
C159 N163 1.376 . S
C159 C197 1.389 . S
C160 C159 1.443 . S
C160 C161 1.340 . S
C160 H200 0.951 . S
C161 C160 1.340 . S
C161 C162 1.439 . S
C161 H201 0.950 . S
C162 C161 1.439 . S
C162 N163 1.374 . S
C162 C196 1.395 1_655 S
N163 C159 1.376 . S
N163 C162 1.374 . S
N163 Co164 2.002 1_655 S
Co164 N163 2.002 1_455 S
Co164 N165 2.002 . S
Co164 N170 2.014 . S
Co164 N175 1.987 1_455 S
Co164 N180 2.272 1_455 S
Co164 N186 2.293 . S
N165 Co164 2.002 . S
N165 C166 1.376 . S
N165 C169 1.383 . S
C166 N165 1.376 . S
C166 C167 1.446 . S
C166 C196 1.391 . S
C167 C166 1.446 . S
C167 C168 1.339 . S
C167 H202 0.949 . S
C168 C167 1.339 . S
C168 C169 1.439 . S
C168 H203 0.950 . S
C169 N165 1.383 . S
C169 C168 1.439 . S
C169 C198 1.392 . S
N170 Co164 2.014 . S
N170 C171 1.376 . S
N170 C174 1.374 . S
C171 N170 1.376 . S
C171 C172 1.443 . S
C171 C198 1.389 . S
C172 C171 1.443 . S
C172 C173 1.340 . S
C172 H204 0.951 . S
C173 C172 1.340 . S
C173 C174 1.439 . S
C173 H205 0.950 . S
C174 N170 1.374 . S
C174 C173 1.439 . S
C174 C199 1.395 1_455 S
N175 Co164 1.987 1_655 S
N175 C176 1.376 . S
N175 C179 1.383 . S
C176 N175 1.376 . S
C176 C177 1.446 . S
C176 C199 1.391 . S
C177 C176 1.446 . S
C177 C178 1.339 . S
C177 H206 0.949 . S
C178 C177 1.339 . S
C178 C179 1.439 . S
C178 H207 0.950 . S
C179 N175 1.383 . S
C179 C178 1.439 . S
C179 C197 1.392 . S
N180 Co164 2.272 1_655 S
N180 C183 1.332 . S
N180 C185 1.332 . S
C181 C182 1.386 . S
C181 C184 1.388 . S
C182 C181 1.386 . S
C182 C183 1.382 . S
C182 H208 0.950 . S
C183 N180 1.332 . S
C183 C182 1.382 . S
C183 H194 0.952 . S
C184 C181 1.388 . S
C184 C185 1.382 . S
C184 H209 0.950 . S
C185 N180 1.332 . S
C185 C184 1.382 . S
C185 H195 0.948 . S
N186 Co164 2.293 . S
N186 C190 1.332 . S
N186 C191 1.332 . S
C187 C188 1.388 . S
C187 C191 1.382 . S
C187 H210 0.950 . S
C188 C187 1.388 . S
C188 C189 1.386 . S
C189 C188 1.386 . S
C189 C190 1.382 . S
C189 H211 0.950 . S
C190 N186 1.332 . S
C190 C189 1.382 . S
C190 H192 0.952 . S
C191 N186 1.332 . S
C191 C187 1.382 . S
C191 H193 0.948 . S
H192 C190 0.952 . S
H193 C191 0.948 . S
H194 C183 0.952 . S
H195 C185 0.948 . S
C196 C162 1.395 1_455 S
C196 C166 1.391 . S
C197 C159 1.389 . S
C197 C179 1.392 . S
C198 C169 1.392 . S
C198 C171 1.389 . S
C199 C174 1.395 1_655 S
C199 C176 1.391 . S
H200 C160 0.951 . S
H201 C161 0.950 . S
H202 C167 0.949 . S
H203 C168 0.950 . S
H204 C172 0.951 . S
H205 C173 0.950 . S
H206 C177 0.949 . S
H207 C178 0.950 . S
H208 C182 0.950 . S
H209 C184 0.950 . S
H210 C187 0.950 . S
H211 C189 0.950 . S
C212 C213 1.443 . S
C212 N216 1.376 . S
C212 C250 1.389 . S
C213 C212 1.443 . S
C213 C214 1.340 . S
C213 H253 0.951 . S
C214 C213 1.340 . S
C214 C215 1.439 . S
C214 H254 0.950 . S
C215 C214 1.439 . S
C215 N216 1.374 . S
C215 C249 1.395 1_565 S
N216 C212 1.376 . S
N216 C215 1.374 . S
N216 Co217 2.008 1_565 S
Co217 N216 2.008 1_545 S
Co217 N218 1.995 . S
Co217 N223 2.008 . S
Co217 N228 1.995 1_545 S
Co217 N233 2.282 1_545 S
Co217 N239 2.282 . S
N218 Co217 1.995 . S
N218 C219 1.376 . S
N218 C222 1.383 . S
C219 N218 1.376 . S
C219 C220 1.446 . S
C219 C249 1.391 . S
C220 C219 1.446 . S
C220 C221 1.339 . S
C220 H255 0.949 . S
C221 C220 1.339 . S
C221 C222 1.439 . S
C221 H256 0.950 . S
C222 N218 1.383 . S
C222 C221 1.439 . S
C222 C251 1.392 . S
N223 Co217 2.008 . S
N223 C224 1.376 . S
N223 C227 1.374 . S
C224 N223 1.376 . S
C224 C225 1.443 . S
C224 C251 1.389 . S
C225 C224 1.443 . S
C225 C226 1.340 . S
C225 H257 0.951 . S
C226 C225 1.340 . S
C226 C227 1.439 . S
C226 H258 0.950 . S
C227 N223 1.374 . S
C227 C226 1.439 . S
C227 C252 1.395 . S
N228 Co217 1.995 1_565 S
N228 C229 1.376 . S
N228 C232 1.383 . S
C229 N228 1.376 . S
C229 C230 1.446 . S
C229 C252 1.391 1_565 S
C230 C229 1.446 . S
C230 C231 1.339 . S
C230 H259 0.949 . S
C231 C230 1.339 . S
C231 C232 1.439 . S
C231 H260 0.950 . S
C232 N228 1.383 . S
C232 C231 1.439 . S
C232 C250 1.392 . S
N233 Co217 2.282 1_565 S
N233 C236 1.332 . S
N233 C238 1.332 . S
C234 C235 1.386 . S
C234 C237 1.388 . S
C235 C234 1.386 . S
C235 C236 1.382 . S
C235 H261 0.950 . S
C236 N233 1.332 . S
C236 C235 1.382 . S
C236 H247 0.952 . S
C237 C234 1.388 . S
C237 C238 1.382 . S
C237 H262 0.950 . S
C238 N233 1.332 . S
C238 C237 1.382 . S
C238 H248 0.948 . S
N239 Co217 2.282 . S
N239 C243 1.332 . S
N239 C244 1.332 . S
C240 C241 1.388 . S
C240 C244 1.382 . S
C240 H263 0.950 . S
C241 C240 1.388 . S
C241 C242 1.386 . S
C242 C241 1.386 . S
C242 C243 1.382 . S
C242 H264 0.950 . S
C243 N239 1.332 . S
C243 C242 1.382 . S
C243 H245 0.952 . S
C244 N239 1.332 . S
C244 C240 1.382 . S
C244 H246 0.948 . S
H245 C243 0.952 . S
H246 C244 0.948 . S
H247 C236 0.952 . S
H248 C238 0.948 . S
C249 C215 1.395 1_545 S
C249 C219 1.391 . S
C250 C212 1.389 . S
C250 C232 1.392 . S
C251 C222 1.392 . S
C251 C224 1.389 . S
C252 C227 1.395 . S
C252 C229 1.391 1_545 S
H253 C213 0.951 . S
H254 C214 0.950 . S
H255 C220 0.949 . S
H256 C221 0.950 . S
H257 C225 0.951 . S
H258 C226 0.950 . S
H259 C230 0.949 . S
H260 C231 0.950 . S
H261 C235 0.950 . S
H262 C237 0.950 . S
H263 C240 0.950 . S
H264 C242 0.950 . S
C265 C266 1.443 . S
C265 N269 1.376 1_655 S
C265 C303 1.389 . S
C266 C265 1.443 . S
C266 C267 1.340 1_655 S
C266 H306 0.951 . S
C267 C266 1.340 1_455 S
C267 C268 1.439 . S
C267 H307 0.950 . S
C268 C267 1.439 . S
C268 N269 1.374 . S
C268 C302 1.395 . S
N269 C265 1.376 1_455 S
N269 C268 1.374 . S
N269 Co270 2.008 . S
Co270 N269 2.008 . S
Co270 N271 1.995 . S
Co270 N276 2.008 . S
Co270 N281 1.995 . S
Co270 N286 2.282 1_455 S
Co270 N292 2.282 . S
N271 Co270 1.995 . S
N271 C272 1.376 . S
N271 C275 1.383 . S
C272 N271 1.376 . S
C272 C273 1.446 . S
C272 C302 1.391 . S
C273 C272 1.446 . S
C273 C274 1.339 . S
C273 H308 0.949 . S
C274 C273 1.339 . S
C274 C275 1.439 . S
C274 H309 0.950 . S
C275 N271 1.383 . S
C275 C274 1.439 . S
C275 C304 1.392 . S
N276 Co270 2.008 . S
N276 C277 1.376 . S
N276 C280 1.374 . S
C277 N276 1.376 . S
C277 C278 1.443 . S
C277 C304 1.389 . S
C278 C277 1.443 . S
C278 C279 1.340 . S
C278 H310 0.951 . S
C279 C278 1.340 . S
C279 C280 1.439 . S
C279 H311 0.950 . S
C280 N276 1.374 . S
C280 C279 1.439 . S
C280 C305 1.395 . S
N281 Co270 1.995 . S
N281 C282 1.376 . S
N281 C285 1.383 1_455 S
C282 N281 1.376 . S
C282 C283 1.446 1_455 S
C282 C305 1.391 . S
C283 C282 1.446 1_655 S
C283 C284 1.339 . S
C283 H312 0.949 . S
C284 C283 1.339 . S
C284 C285 1.439 . S
C284 H313 0.950 . S
C285 N281 1.383 1_655 S
C285 C284 1.439 . S
C285 C303 1.392 . S
N286 Co270 2.282 1_655 S
N286 C289 1.332 . S
N286 C291 1.332 . S
C287 C288 1.386 . S
C287 C290 1.388 . S
C288 C287 1.386 . S
C288 C289 1.382 . S
C288 H314 0.950 . S
C289 N286 1.332 . S
C289 C288 1.382 . S
C289 H300 0.952 . S
C290 C287 1.388 . S
C290 C291 1.382 . S
C290 H315 0.950 . S
C291 N286 1.332 . S
C291 C290 1.382 . S
C291 H301 0.948 1_655 S
N292 Co270 2.282 . S
N292 C296 1.332 . S
N292 C297 1.332 . S
C293 C294 1.388 . S
C293 C297 1.382 . S
C293 H316 0.950 . S
C294 C293 1.388 . S
C294 C295 1.386 . S
C295 C294 1.386 . S
C295 C296 1.382 . S
C295 H317 0.950 . S
C296 N292 1.332 . S
C296 C295 1.382 . S
C296 H298 0.952 . S
C297 N292 1.332 . S
C297 C293 1.382 . S
C297 H299 0.948 . S
H298 C296 0.952 . S
H299 C297 0.948 . S
H300 C289 0.952 . S
H301 C291 0.948 1_455 S
C302 C268 1.395 . S
C302 C272 1.391 . S
C303 C265 1.389 . S
C303 C285 1.392 . S
C304 C275 1.392 . S
C304 C277 1.389 . S
C305 C280 1.395 . S
C305 C282 1.391 . S
H306 C266 0.951 . S
H307 C267 0.950 . S
H308 C273 0.949 . S
H309 C274 0.950 . S
H310 C278 0.951 . S
H311 C279 0.950 . S
H312 C283 0.949 . S
H313 C284 0.950 . S
H314 C288 0.950 . S
H315 C290 0.950 . S
H316 C293 0.950 . S
H317 C295 0.950 . S
C318 C319 1.443 . S
C318 N322 1.376 . S
C318 C356 1.389 . S
C319 C318 1.443 . S
C319 C320 1.340 . S
C319 H359 0.951 . S
C320 C319 1.340 . S
C320 C321 1.439 . S
C320 H360 0.950 . S
C321 C320 1.439 . S
C321 N322 1.374 . S
C321 C355 1.409 . S
N322 C318 1.376 . S
N322 C321 1.374 . S
N322 Co323 2.008 . S
Co323 N322 2.008 . S
Co323 N324 1.995 1_545 S
Co323 N329 2.008 1_545 S
Co323 N334 1.995 . S
Co323 N339 2.282 . S
Co323 N345 2.282 1_545 S
N324 Co323 1.995 1_565 S
N324 C325 1.376 . S
N324 C328 1.383 . S
C325 N324 1.376 . S
C325 C326 1.446 . S
C325 C355 1.379 1_565 S
C326 C325 1.446 . S
C326 C327 1.339 . S
C326 H361 0.949 . S
C327 C326 1.339 . S
C327 C328 1.439 . S
C327 H362 0.950 . S
C328 N324 1.383 . S
C328 C327 1.439 . S
C328 C357 1.392 . S
N329 Co323 2.008 1_565 S
N329 C330 1.376 . S
N329 C333 1.374 . S
C330 N329 1.376 . S
C330 C331 1.443 . S
C330 C357 1.389 . S
C331 C330 1.443 . S
C331 C332 1.340 . S
C331 H363 0.951 . S
C332 C331 1.340 . S
C332 C333 1.439 . S
C332 H364 0.950 . S
C333 N329 1.374 . S
C333 C332 1.439 . S
C333 C358 1.395 1_565 S
N334 Co323 1.995 . S
N334 C335 1.376 . S
N334 C338 1.383 . S
C335 N334 1.376 . S
C335 C336 1.446 . S
C335 C358 1.391 . S
C336 C335 1.446 . S
C336 C337 1.339 . S
C336 H365 0.949 . S
C337 C336 1.339 . S
C337 C338 1.439 . S
C337 H366 0.950 . S
C338 N334 1.383 . S
C338 C337 1.439 . S
C338 C356 1.392 . S
N339 Co323 2.282 . S
N339 C342 1.332 . S
N339 C344 1.332 . S
C340 C341 1.386 . S
C340 C343 1.388 . S
C341 C340 1.386 . S
C341 C342 1.382 . S
C341 H367 0.950 . S
C342 N339 1.332 . S
C342 C341 1.382 . S
C342 H353 0.952 . S
C343 C340 1.388 . S
C343 C344 1.382 . S
C343 H368 0.950 . S
C344 N339 1.332 . S
C344 C343 1.382 . S
C344 H354 0.948 . S
N345 Co323 2.282 1_565 S
N345 C349 1.332 . S
N345 C350 1.332 . S
C346 C347 1.388 . S
C346 C350 1.382 . S
C346 H369 0.950 . S
C347 C346 1.388 . S
C347 C348 1.386 . S
C348 C347 1.386 . S
C348 C349 1.382 . S
C348 H370 0.950 . S
C349 N345 1.332 . S
C349 C348 1.382 . S
C349 H351 0.952 . S
C350 N345 1.332 . S
C350 C346 1.382 . S
C350 H352 0.948 . S
H351 C349 0.952 . S
H352 C350 0.948 . S
H353 C342 0.952 . S
H354 C344 0.948 . S
C355 C321 1.409 . S
C355 C325 1.379 1_545 S
C356 C318 1.389 . S
C356 C338 1.392 . S
C357 C328 1.392 . S
C357 C330 1.389 . S
C358 C333 1.395 1_545 S
C358 C335 1.391 . S
H359 C319 0.951 . S
H360 C320 0.950 . S
H361 C326 0.949 . S
H362 C327 0.950 . S
H363 C331 0.951 . S
H364 C332 0.950 . S
H365 C336 0.949 . S
H366 C337 0.950 . S
H367 C341 0.950 . S
H368 C343 0.950 . S
H369 C346 0.950 . S
H370 C348 0.950 . S
C371 C372 1.443 . S
C371 N375 1.376 1_655 S
C371 C409 1.389 . S
C372 C371 1.443 . S
C372 C373 1.353 . S
C372 H412 0.951 . S
C373 C372 1.353 . S
C373 C374 1.428 1_655 S
C373 H413 0.951 . S
C374 C373 1.428 1_455 S
C374 N375 1.374 . S
C374 C408 1.395 . S
N375 C371 1.376 1_455 S
N375 C374 1.374 . S
N375 Co376 2.008 . S
Co376 N375 2.008 . S
Co376 N377 1.995 . S
Co376 N382 2.008 . S
Co376 N387 1.995 . S
Co376 N392 2.282 1_455 S
Co376 N398 2.282 . S
N377 Co376 1.995 . S
N377 C378 1.376 . S
N377 C381 1.383 . S
C378 N377 1.376 . S
C378 C379 1.446 . S
C378 C408 1.391 . S
C379 C378 1.446 . S
C379 C380 1.339 . S
C379 H414 0.949 . S
C380 C379 1.339 . S
C380 C381 1.439 . S
C380 H415 0.950 . S
C381 N377 1.383 . S
C381 C380 1.439 . S
C381 C410 1.392 . S
N382 Co376 2.008 . S
N382 C383 1.376 . S
N382 C386 1.374 . S
C383 N382 1.376 . S
C383 C384 1.443 . S
C383 C410 1.389 . S
C384 C383 1.443 . S
C384 C385 1.340 . S
C384 H416 0.951 . S
C385 C384 1.340 . S
C385 C386 1.439 . S
C385 H417 0.950 . S
C386 N382 1.374 . S
C386 C385 1.439 . S
C386 C411 1.395 . S
N387 Co376 1.995 . S
N387 C388 1.376 . S
N387 C391 1.383 1_455 S
C388 N387 1.376 . S
C388 C389 1.446 1_455 S
C388 C411 1.391 . S
C389 C388 1.446 1_655 S
C389 C390 1.339 . S
C389 H418 0.949 . S
C390 C389 1.339 . S
C390 C391 1.439 . S
C390 H419 0.950 . S
C391 N387 1.383 1_655 S
C391 C390 1.439 . S
C391 C409 1.392 . S
N392 Co376 2.282 1_655 S
N392 C395 1.332 . S
N392 C397 1.332 . S
C393 C394 1.386 . S
C393 C396 1.388 . S
C394 C393 1.386 . S
C394 C395 1.382 . S
C394 H420 0.950 . S
C395 N392 1.332 . S
C395 C394 1.382 . S
C395 H406 0.952 . S
C396 C393 1.388 . S
C396 C397 1.382 . S
C396 H421 0.950 . S
C397 N392 1.332 . S
C397 C396 1.382 . S
C397 H407 0.950 . S
N398 Co376 2.282 . S
N398 C402 1.332 . S
N398 C403 1.332 . S
C399 C400 1.388 . S
C399 C403 1.382 . S
C399 H422 0.950 . S
C400 C399 1.388 . S
C400 C401 1.386 . S
C401 C400 1.386 . S
C401 C402 1.382 . S
C401 H423 0.950 . S
C402 N398 1.332 . S
C402 C401 1.382 . S
C402 H404 0.952 . S
C403 N398 1.332 . S
C403 C399 1.382 . S
C403 H405 0.948 . S
H404 C402 0.952 . S
H405 C403 0.948 . S
H406 C395 0.952 . S
H407 C397 0.950 . S
C408 C374 1.395 . S
C408 C378 1.391 . S
C409 C371 1.389 . S
C409 C391 1.392 . S
C410 C381 1.392 . S
C410 C383 1.389 . S
C411 C386 1.395 . S
C411 C388 1.391 . S
H412 C372 0.951 . S
H413 C373 0.951 . S
H414 C379 0.949 . S
H415 C380 0.950 . S
H416 C384 0.951 . S
H417 C385 0.950 . S
H418 C389 0.949 . S
H419 C390 0.950 . S
H420 C394 0.950 . S
H421 C396 0.950 . S
H422 C399 0.950 . S
H423 C401 0.950 . S
C424 C425 1.443 . S
C424 N428 1.376 . S
C424 C462 1.389 . S
C425 C424 1.443 . S
C425 C426 1.340 . S
C425 H465 0.951 . S
C426 C425 1.340 . S
C426 C427 1.439 . S
C426 H466 0.950 . S
C427 C426 1.439 . S
C427 N428 1.374 . S
C427 C461 1.395 1_554 S
N428 C424 1.376 . S
N428 C427 1.374 . S
N428 Co429 2.020 . S
Co429 N428 2.020 . S
Co429 N430 1.980 1_554 S
Co429 N435 1.997 1_554 S
Co429 N440 2.010 . S
Co429 N445 2.301 . S
Co429 N451 2.264 1_554 S
N430 Co429 1.980 1_556 S
N430 C431 1.376 . S
N430 C434 1.383 . S
C431 N430 1.376 . S
C431 C432 1.446 . S
C431 C461 1.391 . S
C432 C431 1.446 . S
C432 C433 1.339 . S
C432 H467 0.949 . S
C433 C432 1.339 . S
C433 C434 1.439 . S
C433 H468 0.950 . S
C434 N430 1.383 . S
C434 C433 1.439 . S
C434 C463 1.392 . S
N435 Co429 1.997 1_556 S
N435 C436 1.376 . S
N435 C439 1.374 . S
C436 N435 1.376 . S
C436 C437 1.443 . S
C436 C463 1.389 . S
C437 C436 1.443 . S
C437 C438 1.340 . S
C437 H469 0.951 . S
C438 C437 1.340 . S
C438 C439 1.439 . S
C438 H470 0.950 . S
C439 N435 1.374 . S
C439 C438 1.439 . S
C439 C464 1.395 1_556 S
N440 Co429 2.010 . S
N440 C441 1.376 . S
N440 C444 1.383 . S
C441 N440 1.376 . S
C441 C442 1.446 . S
C441 C464 1.391 . S
C442 C441 1.446 . S
C442 C443 1.339 . S
C442 H471 0.949 . S
C443 C442 1.339 . S
C443 C444 1.439 . S
C443 H472 0.950 . S
C444 N440 1.383 . S
C444 C443 1.439 . S
C444 C462 1.392 . S
N445 Co429 2.301 . S
N445 C448 1.332 . S
N445 C450 1.332 . S
C446 C447 1.386 . S
C446 C449 1.388 . S
C447 C446 1.386 . S
C447 C448 1.382 . S
C447 H473 0.950 . S
C448 N445 1.332 . S
C448 C447 1.382 . S
C448 H459 0.952 . S
C449 C446 1.388 . S
C449 C450 1.382 . S
C449 H474 0.950 . S
C450 N445 1.332 . S
C450 C449 1.382 . S
C450 H460 0.948 . S
N451 Co429 2.264 1_556 S
N451 C455 1.332 . S
N451 C456 1.332 . S
C452 C453 1.388 . S
C452 C456 1.382 . S
C452 H475 0.950 . S
C453 C452 1.388 . S
C453 C454 1.386 . S
C454 C453 1.386 . S
C454 C455 1.382 . S
C454 H476 0.950 . S
C455 N451 1.332 . S
C455 C454 1.382 . S
C455 H457 0.952 . S
C456 N451 1.332 . S
C456 C452 1.382 . S
C456 H458 0.948 . S
H457 C455 0.952 . S
H458 C456 0.948 . S
H459 C448 0.952 . S
H460 C450 0.948 . S
C461 C427 1.395 1_556 S
C461 C431 1.391 . S
C462 C424 1.389 . S
C462 C444 1.392 . S
C463 C434 1.392 . S
C463 C436 1.389 . S
C464 C439 1.395 1_554 S
C464 C441 1.391 . S
H465 C425 0.951 . S
H466 C426 0.950 . S
H467 C432 0.949 . S
H468 C433 0.950 . S
H469 C437 0.951 . S
H470 C438 0.950 . S
H471 C442 0.949 . S
H472 C443 0.950 . S
H473 C447 0.950 . S
H474 C449 0.950 . S
H475 C452 0.950 . S
H476 C454 0.950 . S
C477 C478 1.443 . S
C477 N481 1.376 . S
C477 C515 1.389 . S
C478 C477 1.443 . S
C478 C479 1.340 . S
C478 H518 0.951 . S
C479 C478 1.340 . S
C479 C480 1.439 . S
C479 H519 0.950 . S
C480 C479 1.439 . S
C480 N481 1.374 . S
C480 C514 1.395 . S
N481 C477 1.376 . S
N481 C480 1.374 . S
N481 Co482 2.008 . S
Co482 N481 2.008 . S
Co482 N483 2.010 . S
Co482 N488 2.008 . S
Co482 N493 1.995 . S
Co482 N498 2.282 . S
Co482 N504 2.282 1_554 S
N483 Co482 2.010 . S
N483 C484 1.378 . S
N483 C487 1.366 1_554 S
C484 N483 1.378 . S
C484 C485 1.446 1_554 S
C484 C514 1.391 . S
C485 C484 1.446 1_556 S
C485 C486 1.339 . S
C485 H520 0.949 . S
C486 C485 1.339 . S
C486 C487 1.439 . S
C486 H521 0.950 . S
C487 N483 1.366 1_556 S
C487 C486 1.439 . S
C487 C516 1.392 . S
N488 Co482 2.008 . S
N488 C489 1.376 1_554 S
N488 C492 1.374 . S
C489 N488 1.376 1_556 S
C489 C490 1.443 . S
C489 C516 1.389 . S
C490 C489 1.443 . S
C490 C491 1.340 . S
C490 H522 0.951 . S
C491 C490 1.340 . S
C491 C492 1.439 1_556 S
C491 H523 0.950 . S
C492 N488 1.374 . S
C492 C491 1.439 1_554 S
C492 C517 1.395 . S
N493 Co482 1.995 . S
N493 C494 1.376 . S
N493 C497 1.383 . S
C494 N493 1.376 . S
C494 C495 1.446 . S
C494 C517 1.391 . S
C495 C494 1.446 . S
C495 C496 1.339 . S
C495 H524 0.949 . S
C496 C495 1.339 . S
C496 C497 1.439 . S
C496 H525 0.950 . S
C497 N493 1.383 . S
C497 C496 1.439 . S
C497 C515 1.392 . S
N498 Co482 2.282 . S
N498 C501 1.332 . S
N498 C503 1.332 . S
C499 C500 1.386 . S
C499 C502 1.388 . S
C500 C499 1.386 . S
C500 C501 1.382 . S
C500 H526 0.950 . S
C501 N498 1.332 . S
C501 C500 1.382 . S
C501 H512 0.952 . S
C502 C499 1.388 . S
C502 C503 1.382 . S
C502 H527 0.950 . S
C503 N498 1.332 . S
C503 C502 1.382 . S
C503 H513 0.948 . S
N504 Co482 2.282 1_556 S
N504 C508 1.332 . S
N504 C509 1.332 . S
C505 C506 1.388 . S
C505 C509 1.382 . S
C505 H528 0.950 . S
C506 C505 1.388 . S
C506 C507 1.386 . S
C507 C506 1.386 . S
C507 C508 1.382 . S
C507 H529 0.950 . S
C508 N504 1.332 . S
C508 C507 1.382 . S
C508 H510 0.952 . S
C509 N504 1.332 . S
C509 C505 1.382 . S
C509 H511 0.948 . S
H510 C508 0.952 . S
H511 C509 0.948 . S
H512 C501 0.952 . S
H513 C503 0.948 . S
C514 C480 1.395 . S
C514 C484 1.391 . S
C515 C477 1.389 . S
C515 C497 1.392 . S
C516 C487 1.392 . S
C516 C489 1.389 . S
C517 C492 1.395 . S
C517 C494 1.391 . S
H518 C478 0.951 . S
H519 C479 0.950 . S
H520 C485 0.949 . S
H521 C486 0.950 . S
H522 C490 0.951 . S
H523 C491 0.950 . S
H524 C495 0.949 . S
H525 C496 0.950 . S
H526 C500 0.950 . S
H527 C502 0.950 . S
H528 C505 0.950 . S
H529 C507 0.950 . S
C530 C531 1.443 . S
C530 N534 1.376 . S
C530 C568 1.389 . S
C531 C530 1.443 . S
C531 C532 1.340 . S
C531 H571 0.951 . S
C532 C531 1.340 . S
C532 C533 1.439 . S
C532 H572 0.950 . S
C533 C532 1.439 . S
C533 N534 1.374 . S
C533 C567 1.395 . S
N534 C530 1.376 . S
N534 C533 1.374 . S
N534 Co535 2.008 . S
Co535 N534 2.008 . S
Co535 N536 1.995 . S
Co535 N541 2.008 . S
Co535 N546 1.995 . S
Co535 N551 2.282 . S
Co535 N557 2.316 . S
N536 Co535 1.995 . S
N536 C537 1.376 . S
N536 C540 1.383 1_554 S
C537 N536 1.376 . S
C537 C538 1.446 1_554 S
C537 C567 1.391 . S
C538 C537 1.446 1_556 S
C538 C539 1.339 . S
C538 H573 0.949 . S
C539 C538 1.339 . S
C539 C540 1.439 . S
C539 H574 0.950 . S
C540 N536 1.383 1_556 S
C540 C539 1.439 . S
C540 C569 1.392 . S
N541 Co535 2.008 . S
N541 C542 1.376 . S
N541 C545 1.374 . S
C542 N541 1.376 . S
C542 C543 1.443 . S
C542 C569 1.389 1_554 S
C543 C542 1.443 . S
C543 C544 1.340 . S
C543 H575 0.951 1_554 S
C544 C543 1.340 . S
C544 C545 1.439 . S
C544 H576 0.950 . S
C545 N541 1.374 . S
C545 C544 1.439 . S
C545 C570 1.395 . S
N546 Co535 1.995 . S
N546 C547 1.376 . S
N546 C550 1.383 . S
C547 N546 1.376 . S
C547 C548 1.446 . S
C547 C570 1.391 . S
C548 C547 1.446 . S
C548 C549 1.339 . S
C548 H577 0.949 . S
C549 C548 1.339 . S
C549 C550 1.439 . S
C549 H578 0.950 . S
C550 N546 1.383 . S
C550 C549 1.439 . S
C550 C568 1.392 . S
N551 Co535 2.282 . S
N551 C554 1.332 . S
N551 C556 1.332 . S
C552 C553 1.386 . S
C552 C555 1.388 . S
C553 C552 1.386 . S
C553 C554 1.382 . S
C553 H579 0.950 . S
C554 N551 1.332 . S
C554 C553 1.382 . S
C554 H565 0.952 . S
C555 C552 1.388 . S
C555 C556 1.382 . S
C555 H580 0.950 . S
C556 N551 1.332 . S
C556 C555 1.382 . S
C556 H566 0.948 . S
N557 Co535 2.316 . S
N557 C561 1.309 1_554 S
N557 C562 1.330 . S
C558 C559 1.388 . S
C558 C562 1.372 1_556 S
C558 H581 0.950 . S
C559 C558 1.388 . S
C559 C560 1.386 . S
C560 C559 1.386 . S
C560 C561 1.382 . S
C560 H582 0.950 . S
C561 N557 1.309 1_556 S
C561 C560 1.382 . S
C561 H563 0.952 . S
C562 N557 1.330 . S
C562 C558 1.372 1_554 S
C562 H564 0.957 . S
H563 C561 0.952 . S
H564 C562 0.957 . S
H565 C554 0.952 . S
H566 C556 0.948 . S
C567 C533 1.395 . S
C567 C537 1.391 . S
C568 C530 1.389 . S
C568 C550 1.392 . S
C569 C540 1.392 . S
C569 C542 1.389 1_556 S
C570 C545 1.395 . S
C570 C547 1.391 . S
H571 C531 0.951 . S
H572 C532 0.950 . S
H573 C538 0.949 . S
H574 C539 0.950 . S
H575 C543 0.951 1_556 S
H576 C544 0.950 . S
H577 C548 0.949 . S
H578 C549 0.950 . S
H579 C553 0.950 . S
H580 C555 0.950 . S
H581 C558 0.950 . S
H582 C560 0.950 . S
C583 C584 1.445 . S
C583 N587 1.376 . S
C583 C621 1.389 1_554 S
C584 C583 1.445 . S
C584 C585 1.350 . S
C584 H624 0.942 1_554 S
C585 C584 1.350 . S
C585 C586 1.439 . S
C585 H625 0.950 . S
C586 C585 1.439 . S
C586 N587 1.374 . S
C586 C620 1.395 . S
N587 C583 1.376 . S
N587 C586 1.374 . S
N587 Co588 2.008 . S
Co588 N587 2.008 . S
Co588 N589 1.995 . S
Co588 N594 2.008 . S
Co588 N599 1.995 . S
Co588 N604 2.282 . S
Co588 N610 2.282 . S
N589 Co588 1.995 . S
N589 C590 1.376 . S
N589 C593 1.383 . S
C590 N589 1.376 . S
C590 C591 1.446 . S
C590 C620 1.391 . S
C591 C590 1.446 . S
C591 C592 1.339 . S
C591 H626 0.949 . S
C592 C591 1.339 . S
C592 C593 1.439 . S
C592 H627 0.950 . S
C593 N589 1.383 . S
C593 C592 1.439 . S
C593 C622 1.392 . S
N594 Co588 2.008 . S
N594 C595 1.376 . S
N594 C598 1.374 . S
C595 N594 1.376 . S
C595 C596 1.443 . S
C595 C622 1.389 . S
C596 C595 1.443 . S
C596 C597 1.340 . S
C596 H628 0.951 . S
C597 C596 1.340 . S
C597 C598 1.439 . S
C597 H629 0.950 . S
C598 N594 1.374 . S
C598 C597 1.439 . S
C598 C623 1.395 . S
N599 Co588 1.995 . S
N599 C600 1.376 . S
N599 C603 1.371 1_554 S
C600 N599 1.376 . S
C600 C601 1.446 1_554 S
C600 C623 1.391 . S
C601 C600 1.446 1_556 S
C601 C602 1.339 . S
C601 H630 0.949 . S
C602 C601 1.339 . S
C602 C603 1.447 . S
C602 H631 0.950 . S
C603 N599 1.371 1_556 S
C603 C602 1.447 . S
C603 C621 1.395 . S
N604 Co588 2.282 . S
N604 C607 1.332 1_554 S
N604 C609 1.332 . S
C605 C606 1.386 . S
C605 C608 1.388 . S
C606 C605 1.386 . S
C606 C607 1.382 . S
C606 H632 0.950 . S
C607 N604 1.332 1_556 S
C607 C606 1.382 . S
C607 H618 0.952 . S
C608 C605 1.388 . S
C608 C609 1.382 1_556 S
C608 H633 0.950 . S
C609 N604 1.332 . S
C609 C608 1.382 1_554 S
C609 H619 0.948 . S
N610 Co588 2.282 . S
N610 C614 1.332 . S
N610 C615 1.332 . S
C611 C612 1.388 . S
C611 C615 1.382 . S
C611 H634 0.950 . S
C612 C611 1.388 . S
C612 C613 1.386 . S
C613 C612 1.386 . S
C613 C614 1.382 . S
C613 H635 0.950 . S
C614 N610 1.332 . S
C614 C613 1.382 . S
C614 H616 0.952 . S
C615 N610 1.332 . S
C615 C611 1.382 . S
C615 H617 0.948 . S
H616 C614 0.952 . S
H617 C615 0.948 . S
H618 C607 0.952 . S
H619 C609 0.948 . S
C620 C586 1.395 . S
C620 C590 1.391 . S
C621 C583 1.389 1_556 S
C621 C603 1.395 . S
C622 C593 1.392 . S
C622 C595 1.389 . S
C623 C598 1.395 . S
C623 C600 1.391 . S
H624 C584 0.942 1_556 S
H625 C585 0.950 . S
H626 C591 0.949 . S
H627 C592 0.950 . S
H628 C596 0.951 . S
H629 C597 0.950 . S
H630 C601 0.949 . S
H631 C602 0.950 . S
H632 C606 0.950 . S
H633 C608 0.950 . S
H634 C611 0.950 . S
H635 C613 0.950 . S
C636 C637 1.443 . S
C636 N640 1.376 . S
C636 C674 1.389 . S
C637 C636 1.443 . S
C637 C638 1.340 . S
C637 H677 0.951 . S
C638 C637 1.340 . S
C638 C639 1.439 . S
C638 H678 0.950 . S
C639 C638 1.439 . S
C639 N640 1.374 . S
C639 C673 1.395 . S
N640 C636 1.376 . S
N640 C639 1.374 . S
N640 Co641 2.008 . S
Co641 N640 2.008 . S
Co641 N642 1.995 . S
Co641 N647 2.008 . S
Co641 N652 1.995 . S
Co641 N657 2.282 . S
Co641 N663 2.282 . S
N642 Co641 1.995 . S
N642 C643 1.376 . S
N642 C646 1.383 . S
C643 N642 1.376 . S
C643 C644 1.446 . S
C643 C673 1.391 . S
C644 C643 1.446 . S
C644 C645 1.339 . S
C644 H679 0.949 . S
C645 C644 1.339 . S
C645 C646 1.439 . S
C645 H680 0.950 . S
C646 N642 1.383 . S
C646 C645 1.439 . S
C646 C675 1.392 . S
N647 Co641 2.008 . S
N647 C648 1.376 . S
N647 C651 1.374 . S
C648 N647 1.376 . S
C648 C649 1.443 . S
C648 C675 1.389 . S
C649 C648 1.443 . S
C649 C650 1.340 . S
C649 H681 0.951 . S
C650 C649 1.340 . S
C650 C651 1.439 . S
C650 H682 0.950 . S
C651 N647 1.374 . S
C651 C650 1.439 . S
C651 C676 1.395 . S
N652 Co641 1.995 . S
N652 C653 1.376 . S
N652 C656 1.383 . S
C653 N652 1.376 . S
C653 C654 1.446 . S
C653 C676 1.391 . S
C654 C653 1.446 . S
C654 C655 1.339 . S
C654 H683 0.949 . S
C655 C654 1.339 . S
C655 C656 1.439 . S
C655 H684 0.950 . S
C656 N652 1.383 . S
C656 C655 1.439 . S
C656 C674 1.392 . S
N657 Co641 2.282 . S
N657 C660 1.332 . S
N657 C662 1.332 . S
C658 C659 1.386 . S
C658 C661 1.388 . S
C659 C658 1.386 . S
C659 C660 1.382 . S
C659 H685 0.950 . S
C660 N657 1.332 . S
C660 C659 1.382 . S
C660 H671 0.952 . S
C661 C658 1.388 . S
C661 C662 1.382 . S
C661 H686 0.950 . S
C662 N657 1.332 . S
C662 C661 1.382 . S
C662 H672 0.948 . S
N663 Co641 2.282 . S
N663 C667 1.332 . S
N663 C668 1.332 . S
C664 C665 1.388 . S
C664 C668 1.382 . S
C664 H687 0.950 . S
C665 C664 1.388 . S
C665 C666 1.386 . S
C666 C665 1.386 . S
C666 C667 1.382 . S
C666 H688 0.950 . S
C667 N663 1.332 . S
C667 C666 1.382 . S
C667 H669 0.952 . S
C668 N663 1.332 . S
C668 C664 1.382 . S
C668 H670 0.948 . S
H669 C667 0.952 . S
H670 C668 0.948 . S
H671 C660 0.952 . S
H672 C662 0.948 . S
C673 C639 1.395 . S
C673 C643 1.391 . S
C674 C636 1.389 . S
C674 C656 1.392 . S
C675 C646 1.392 . S
C675 C648 1.389 . S
C676 C651 1.395 . S
C676 C653 1.391 . S
H677 C637 0.951 . S
H678 C638 0.950 . S
H679 C644 0.949 . S
H680 C645 0.950 . S
H681 C649 0.951 . S
H682 C650 0.950 . S
H683 C654 0.949 . S
H684 C655 0.950 . S
H685 C659 0.950 . S
H686 C661 0.950 . S
H687 C664 0.950 . S
H688 C666 0.950 . S
C689 C690 1.443 . S
C689 N693 1.376 . S
C689 C727 1.389 . S
C690 C689 1.443 . S
C690 C691 1.340 . S
C690 H730 0.951 . S
C691 C690 1.340 . S
C691 C692 1.439 . S
C691 H731 0.950 . S
C692 C691 1.439 . S
C692 N693 1.374 . S
C692 C726 1.395 . S
N693 C689 1.376 . S
N693 C692 1.374 . S
N693 Co694 2.008 . S
Co694 N693 2.008 . S
Co694 N695 1.995 . S
Co694 N700 2.008 . S
Co694 N705 1.995 . S
Co694 N710 2.282 . S
Co694 N716 2.282 . S
N695 Co694 1.995 . S
N695 C696 1.376 . S
N695 C699 1.383 . S
C696 N695 1.376 . S
C696 C697 1.446 . S
C696 C726 1.391 . S
C697 C696 1.446 . S
C697 C698 1.339 . S
C697 H732 0.949 . S
C698 C697 1.339 . S
C698 C699 1.439 . S
C698 H733 0.950 . S
C699 N695 1.383 . S
C699 C698 1.439 . S
C699 C728 1.392 . S
N700 Co694 2.008 . S
N700 C701 1.376 . S
N700 C704 1.374 . S
C701 N700 1.376 . S
C701 C702 1.443 . S
C701 C728 1.389 . S
C702 C701 1.443 . S
C702 C703 1.340 . S
C702 H734 0.951 . S
C703 C702 1.340 . S
C703 C704 1.439 . S
C703 H735 0.950 . S
C704 N700 1.374 . S
C704 C703 1.439 . S
C704 C729 1.395 . S
N705 Co694 1.995 . S
N705 C706 1.376 . S
N705 C709 1.383 . S
C706 N705 1.376 . S
C706 C707 1.446 . S
C706 C729 1.391 . S
C707 C706 1.446 . S
C707 C708 1.339 . S
C707 H736 0.949 . S
C708 C707 1.339 . S
C708 C709 1.439 . S
C708 H737 0.950 . S
C709 N705 1.383 . S
C709 C708 1.439 . S
C709 C727 1.392 . S
N710 Co694 2.282 . S
N710 C713 1.332 . S
N710 C715 1.332 . S
C711 C712 1.386 . S
C711 C714 1.388 . S
C712 C711 1.386 . S
C712 C713 1.382 . S
C712 H738 0.950 . S
C713 N710 1.332 . S
C713 C712 1.382 . S
C713 H724 0.952 . S
C714 C711 1.388 . S
C714 C715 1.382 . S
C714 H739 0.950 . S
C715 N710 1.332 . S
C715 C714 1.382 . S
C715 H725 0.948 . S
N716 Co694 2.282 . S
N716 C720 1.332 . S
N716 C721 1.332 . S
C717 C718 1.388 . S
C717 C721 1.382 . S
C717 H740 0.950 . S
C718 C717 1.388 . S
C718 C719 1.386 . S
C719 C718 1.386 . S
C719 C720 1.382 . S
C719 H741 0.950 . S
C720 N716 1.332 . S
C720 C719 1.382 . S
C720 H722 0.952 . S
C721 N716 1.332 . S
C721 C717 1.382 . S
C721 H723 0.948 . S
H722 C720 0.952 . S
H723 C721 0.948 . S
H724 C713 0.952 . S
H725 C715 0.948 . S
C726 C692 1.395 . S
C726 C696 1.391 . S
C727 C689 1.389 . S
C727 C709 1.392 . S
C728 C699 1.392 . S
C728 C701 1.389 . S
C729 C704 1.395 . S
C729 C706 1.391 . S
H730 C690 0.951 . S
H731 C691 0.950 . S
H732 C697 0.949 . S
H733 C698 0.950 . S
H734 C702 0.951 . S
H735 C703 0.950 . S
H736 C707 0.949 . S
H737 C708 0.950 . S
H738 C712 0.950 . S
H739 C714 0.950 . S
H740 C717 0.950 . S
H741 C719 0.950 . S
C742 C743 1.443 . S
C742 N746 1.376 . S
C742 C780 1.389 . S
C743 C742 1.443 . S
C743 C744 1.340 . S
C743 H783 0.951 . S
C744 C743 1.340 . S
C744 C745 1.439 . S
C744 H784 0.950 . S
C745 C744 1.439 . S
C745 N746 1.374 . S
C745 C779 1.395 . S
N746 C742 1.376 . S
N746 C745 1.374 . S
N746 Co747 2.008 . S
Co747 N746 2.008 . S
Co747 N748 1.995 . S
Co747 N753 2.008 . S
Co747 N758 1.995 . S
Co747 N763 2.282 . S
Co747 N769 2.282 . S
N748 Co747 1.995 . S
N748 C749 1.376 . S
N748 C752 1.383 . S
C749 N748 1.376 . S
C749 C750 1.446 . S
C749 C779 1.391 . S
C750 C749 1.446 . S
C750 C751 1.339 . S
C750 H785 0.949 . S
C751 C750 1.339 . S
C751 C752 1.439 . S
C751 H786 0.950 . S
C752 N748 1.383 . S
C752 C751 1.439 . S
C752 C781 1.392 . S
N753 Co747 2.008 . S
N753 C754 1.376 . S
N753 C757 1.374 . S
C754 N753 1.376 . S
C754 C755 1.443 . S
C754 C781 1.389 . S
C755 C754 1.443 . S
C755 C756 1.340 . S
C755 H787 0.951 . S
C756 C755 1.340 . S
C756 C757 1.439 . S
C756 H788 0.950 . S
C757 N753 1.374 . S
C757 C756 1.439 . S
C757 C782 1.395 . S
N758 Co747 1.995 . S
N758 C759 1.376 . S
N758 C762 1.383 . S
C759 N758 1.376 . S
C759 C760 1.446 . S
C759 C782 1.391 . S
C760 C759 1.446 . S
C760 C761 1.339 . S
C760 H789 0.949 . S
C761 C760 1.339 . S
C761 C762 1.439 . S
C761 H790 0.950 . S
C762 N758 1.383 . S
C762 C761 1.439 . S
C762 C780 1.392 . S
N763 Co747 2.282 . S
N763 C766 1.332 . S
N763 C768 1.332 . S
C764 C765 1.386 . S
C764 C767 1.388 . S
C765 C764 1.386 . S
C765 C766 1.382 . S
C765 H791 0.950 . S
C766 N763 1.332 . S
C766 C765 1.382 . S
C766 H777 0.952 . S
C767 C764 1.388 . S
C767 C768 1.382 . S
C767 H792 0.950 . S
C768 N763 1.332 . S
C768 C767 1.382 . S
C768 H778 0.948 . S
N769 Co747 2.282 . S
N769 C773 1.332 . S
N769 C774 1.332 . S
C770 C771 1.388 . S
C770 C774 1.382 . S
C770 H793 0.950 . S
C771 C770 1.388 . S
C771 C772 1.386 . S
C772 C771 1.386 . S
C772 C773 1.382 . S
C772 H794 0.950 . S
C773 N769 1.332 . S
C773 C772 1.382 . S
C773 H775 0.952 . S
C774 N769 1.332 . S
C774 C770 1.382 . S
C774 H776 0.948 . S
H775 C773 0.952 . S
H776 C774 0.948 . S
H777 C766 0.952 . S
H778 C768 0.948 . S
C779 C745 1.395 . S
C779 C749 1.391 . S
C780 C742 1.389 . S
C780 C762 1.392 . S
C781 C752 1.392 . S
C781 C754 1.389 . S
C782 C757 1.395 . S
C782 C759 1.391 . S
H783 C743 0.951 . S
H784 C744 0.950 . S
H785 C750 0.949 . S
H786 C751 0.950 . S
H787 C755 0.951 . S
H788 C756 0.950 . S
H789 C760 0.949 . S
H790 C761 0.950 . S
H791 C765 0.950 . S
H792 C767 0.950 . S
H793 C770 0.950 . S
H794 C772 0.950 . S
C795 C796 1.443 . S
C795 N799 1.376 . S
C795 C833 1.389 . S
C796 C795 1.443 . S
C796 C797 1.340 . S
C796 H836 0.951 . S
C797 C796 1.340 . S
C797 C798 1.439 . S
C797 H837 0.950 . S
C798 C797 1.439 . S
C798 N799 1.374 . S
C798 C832 1.395 . S
N799 C795 1.376 . S
N799 C798 1.374 . S
N799 Co800 2.008 . S
Co800 N799 2.008 . S
Co800 N801 1.995 . S
Co800 N806 2.008 . S
Co800 N811 1.995 . S
Co800 N816 2.282 . S
Co800 N822 2.282 . S
N801 Co800 1.995 . S
N801 C802 1.376 . S
N801 C805 1.383 . S
C802 N801 1.376 . S
C802 C803 1.446 . S
C802 C832 1.391 . S
C803 C802 1.446 . S
C803 C804 1.339 . S
C803 H838 0.949 . S
C804 C803 1.339 . S
C804 C805 1.439 . S
C804 H839 0.950 . S
C805 N801 1.383 . S
C805 C804 1.439 . S
C805 C834 1.392 . S
N806 Co800 2.008 . S
N806 C807 1.376 . S
N806 C810 1.374 . S
C807 N806 1.376 . S
C807 C808 1.443 . S
C807 C834 1.389 . S
C808 C807 1.443 . S
C808 C809 1.340 . S
C808 H840 0.951 . S
C809 C808 1.340 . S
C809 C810 1.439 . S
C809 H841 0.950 . S
C810 N806 1.374 . S
C810 C809 1.439 . S
C810 C835 1.395 . S
N811 Co800 1.995 . S
N811 C812 1.376 . S
N811 C815 1.383 . S
C812 N811 1.376 . S
C812 C813 1.446 . S
C812 C835 1.391 . S
C813 C812 1.446 . S
C813 C814 1.339 . S
C813 H842 0.949 . S
C814 C813 1.339 . S
C814 C815 1.439 . S
C814 H843 0.950 . S
C815 N811 1.383 . S
C815 C814 1.439 . S
C815 C833 1.392 . S
N816 Co800 2.282 . S
N816 C819 1.332 . S
N816 C821 1.332 . S
C817 C818 1.386 . S
C817 C820 1.388 . S
C818 C817 1.386 . S
C818 C819 1.382 . S
C818 H844 0.950 . S
C819 N816 1.332 . S
C819 C818 1.382 . S
C819 H830 0.952 . S
C820 C817 1.388 . S
C820 C821 1.382 . S
C820 H845 0.950 . S
C821 N816 1.332 . S
C821 C820 1.382 . S
C821 H831 0.948 . S
N822 Co800 2.282 . S
N822 C826 1.332 . S
N822 C827 1.332 . S
C823 C824 1.388 . S
C823 C827 1.382 . S
C823 H846 0.950 . S
C824 C823 1.388 . S
C824 C825 1.386 . S
C825 C824 1.386 . S
C825 C826 1.382 . S
C825 H847 0.950 . S
C826 N822 1.332 . S
C826 C825 1.382 . S
C826 H828 0.952 . S
C827 N822 1.332 . S
C827 C823 1.382 . S
C827 H829 0.948 . S
H828 C826 0.952 . S
H829 C827 0.948 . S
H830 C819 0.952 . S
H831 C821 0.948 . S
C832 C798 1.395 . S
C832 C802 1.391 . S
C833 C795 1.389 . S
C833 C815 1.392 . S
C834 C805 1.392 . S
C834 C807 1.389 . S
C835 C810 1.395 . S
C835 C812 1.391 . S
H836 C796 0.951 . S
H837 C797 0.950 . S
H838 C803 0.949 . S
H839 C804 0.950 . S
H840 C808 0.951 . S
H841 C809 0.950 . S
H842 C813 0.949 . S
H843 C814 0.950 . S
H844 C818 0.950 . S
H845 C820 0.950 . S
H846 C823 0.950 . S
H847 C825 0.950 . S
C848 C849 1.443 . S
C848 N852 1.376 . S
C848 C886 1.389 . S
C849 C848 1.443 . S
C849 C850 1.340 . S
C849 H889 0.951 . S
C850 C849 1.340 . S
C850 C851 1.439 . S
C850 H890 0.950 . S
C851 C850 1.439 . S
C851 N852 1.374 . S
C851 C885 1.395 . S
N852 C848 1.376 . S
N852 C851 1.374 . S
N852 Co853 2.008 . S
Co853 N852 2.008 . S
Co853 N854 1.995 . S
Co853 N859 2.008 . S
Co853 N864 1.995 . S
Co853 N869 2.282 . S
Co853 N875 2.282 . S
N854 Co853 1.995 . S
N854 C855 1.376 . S
N854 C858 1.383 . S
C855 N854 1.376 . S
C855 C856 1.446 . S
C855 C885 1.391 . S
C856 C855 1.446 . S
C856 C857 1.339 . S
C856 H891 0.949 . S
C857 C856 1.339 . S
C857 C858 1.439 . S
C857 H892 0.950 . S
C858 N854 1.383 . S
C858 C857 1.439 . S
C858 C887 1.392 . S
N859 Co853 2.008 . S
N859 C860 1.376 . S
N859 C863 1.374 . S
C860 N859 1.376 . S
C860 C861 1.443 . S
C860 C887 1.389 . S
C861 C860 1.443 . S
C861 C862 1.340 . S
C861 H893 0.951 . S
C862 C861 1.340 . S
C862 C863 1.439 . S
C862 H894 0.950 . S
C863 N859 1.374 . S
C863 C862 1.439 . S
C863 C888 1.395 . S
N864 Co853 1.995 . S
N864 C865 1.376 . S
N864 C868 1.383 . S
C865 N864 1.376 . S
C865 C866 1.446 . S
C865 C888 1.391 . S
C866 C865 1.446 . S
C866 C867 1.339 . S
C866 H895 0.949 . S
C867 C866 1.339 . S
C867 C868 1.439 . S
C867 H896 0.950 . S
C868 N864 1.383 . S
C868 C867 1.439 . S
C868 C886 1.392 . S
N869 Co853 2.282 . S
N869 C872 1.332 . S
N869 C874 1.332 . S
C870 C871 1.386 . S
C870 C873 1.388 . S
C871 C870 1.386 . S
C871 C872 1.382 . S
C871 H897 0.950 . S
C872 N869 1.332 . S
C872 C871 1.382 . S
C872 H883 0.952 . S
C873 C870 1.388 . S
C873 C874 1.382 . S
C873 H898 0.950 . S
C874 N869 1.332 . S
C874 C873 1.382 . S
C874 H884 0.948 . S
N875 Co853 2.282 . S
N875 C879 1.332 . S
N875 C880 1.332 . S
C876 C877 1.388 . S
C876 C880 1.382 . S
C876 H899 0.950 . S
C877 C876 1.388 . S
C877 C878 1.386 . S
C878 C877 1.386 . S
C878 C879 1.382 . S
C878 H900 0.950 . S
C879 N875 1.332 . S
C879 C878 1.382 . S
C879 H881 0.952 . S
C880 N875 1.332 . S
C880 C876 1.382 . S
C880 H882 0.948 . S
H881 C879 0.952 . S
H882 C880 0.948 . S
H883 C872 0.952 . S
H884 C874 0.948 . S
C885 C851 1.395 . S
C885 C855 1.391 . S
C886 C848 1.389 . S
C886 C868 1.392 . S
C887 C858 1.392 . S
C887 C860 1.389 . S
C888 C863 1.395 . S
C888 C865 1.391 . S
H889 C849 0.951 . S
H890 C850 0.950 . S
H891 C856 0.949 . S
H892 C857 0.950 . S
H893 C861 0.951 . S
H894 C862 0.950 . S
H895 C866 0.949 . S
H896 C867 0.950 . S
H897 C871 0.950 . S
H898 C873 0.950 . S
H899 C876 0.950 . S
H900 C878 0.950 . S
C901 C902 1.443 . S
C901 N905 1.376 . S
C901 C939 1.389 . S
C902 C901 1.443 . S
C902 C903 1.340 . S
C902 H942 0.951 . S
C903 C902 1.340 . S
C903 C904 1.439 . S
C903 H943 0.950 . S
C904 C903 1.439 . S
C904 N905 1.374 . S
C904 C938 1.395 . S
N905 C901 1.376 . S
N905 C904 1.374 . S
N905 Co906 2.008 . S
Co906 N905 2.008 . S
Co906 N907 1.995 . S
Co906 N912 2.008 . S
Co906 N917 1.995 . S
Co906 N922 2.282 . S
Co906 N928 2.282 . S
N907 Co906 1.995 . S
N907 C908 1.376 . S
N907 C911 1.383 . S
C908 N907 1.376 . S
C908 C909 1.446 . S
C908 C938 1.391 . S
C909 C908 1.446 . S
C909 C910 1.339 . S
C909 H944 0.949 . S
C910 C909 1.339 . S
C910 C911 1.439 . S
C910 H945 0.950 . S
C911 N907 1.383 . S
C911 C910 1.439 . S
C911 C940 1.392 . S
N912 Co906 2.008 . S
N912 C913 1.376 . S
N912 C916 1.374 . S
C913 N912 1.376 . S
C913 C914 1.443 . S
C913 C940 1.389 . S
C914 C913 1.443 . S
C914 C915 1.340 . S
C914 H946 0.951 . S
C915 C914 1.340 . S
C915 C916 1.439 . S
C915 H947 0.950 . S
C916 N912 1.374 . S
C916 C915 1.439 . S
C916 C941 1.395 . S
N917 Co906 1.995 . S
N917 C918 1.376 . S
N917 C921 1.383 . S
C918 N917 1.376 . S
C918 C919 1.446 . S
C918 C941 1.391 . S
C919 C918 1.446 . S
C919 C920 1.339 . S
C919 H948 0.949 . S
C920 C919 1.339 . S
C920 C921 1.439 . S
C920 H949 0.950 . S
C921 N917 1.383 . S
C921 C920 1.439 . S
C921 C939 1.392 . S
N922 Co906 2.282 . S
N922 C925 1.332 . S
N922 C927 1.332 . S
C923 C924 1.386 . S
C923 C926 1.388 . S
C924 C923 1.386 . S
C924 C925 1.382 . S
C924 H950 0.950 . S
C925 N922 1.332 . S
C925 C924 1.382 . S
C925 H936 0.952 . S
C926 C923 1.388 . S
C926 C927 1.382 . S
C926 H951 0.950 . S
C927 N922 1.332 . S
C927 C926 1.382 . S
C927 H937 0.948 . S
N928 Co906 2.282 . S
N928 C932 1.332 . S
N928 C933 1.332 . S
C929 C930 1.388 . S
C929 C933 1.382 . S
C929 H952 0.950 . S
C930 C929 1.388 . S
C930 C931 1.386 . S
C931 C930 1.386 . S
C931 C932 1.382 . S
C931 H953 0.950 . S
C932 N928 1.332 . S
C932 C931 1.382 . S
C932 H934 0.952 . S
C933 N928 1.332 . S
C933 C929 1.382 . S
C933 H935 0.948 . S
H934 C932 0.952 . S
H935 C933 0.948 . S
H936 C925 0.952 . S
H937 C927 0.948 . S
C938 C904 1.395 . S
C938 C908 1.391 . S
C939 C901 1.389 . S
C939 C921 1.392 . S
C940 C911 1.392 . S
C940 C913 1.389 . S
C941 C916 1.395 . S
C941 C918 1.391 . S
H942 C902 0.951 . S
H943 C903 0.950 . S
H944 C909 0.949 . S
H945 C910 0.950 . S
H946 C914 0.951 . S
H947 C915 0.950 . S
H948 C919 0.949 . S
H949 C920 0.950 . S
H950 C924 0.950 . S
H951 C926 0.950 . S
H952 C929 0.950 . S
H953 C931 0.950 . S
C954 C955 1.443 . S
C954 N958 1.376 . S
C954 C992 1.389 . S
C955 C954 1.443 . S
C955 C956 1.340 . S
C955 H995 0.951 . S
C956 C955 1.340 . S
C956 C957 1.439 . S
C956 H996 0.950 . S
C957 C956 1.439 . S
C957 N958 1.374 . S
C957 C991 1.395 . S
N958 C954 1.376 . S
N958 C957 1.374 . S
N958 Co959 2.008 . S
Co959 N958 2.008 . S
Co959 N960 1.995 . S
Co959 N965 2.008 . S
Co959 N970 1.995 . S
Co959 N975 2.282 . S
Co959 N981 2.282 . S
N960 Co959 1.995 . S
N960 C961 1.376 . S
N960 C964 1.383 . S
C961 N960 1.376 . S
C961 C962 1.446 . S
C961 C991 1.391 . S
C962 C961 1.446 . S
C962 C963 1.339 . S
C962 H997 0.949 . S
C963 C962 1.339 . S
C963 C964 1.439 . S
C963 H998 0.950 . S
C964 N960 1.383 . S
C964 C963 1.439 . S
C964 C993 1.392 . S
N965 Co959 2.008 . S
N965 C966 1.376 . S
N965 C969 1.374 . S
C966 N965 1.376 . S
C966 C967 1.443 . S
C966 C993 1.389 . S
C967 C966 1.443 . S
C967 C968 1.340 . S
C967 H999 0.951 . S
C968 C967 1.340 . S
C968 C969 1.439 . S
C968 H1000 0.950 . S
C969 N965 1.374 . S
C969 C968 1.439 . S
C969 C994 1.395 . S
N970 Co959 1.995 . S
N970 C971 1.376 . S
N970 C974 1.383 . S
C971 N970 1.376 . S
C971 C972 1.446 . S
C971 C994 1.391 . S
C972 C971 1.446 . S
C972 C973 1.339 . S
C972 H1001 0.949 . S
C973 C972 1.339 . S
C973 C974 1.439 . S
C973 H1002 0.950 . S
C974 N970 1.383 . S
C974 C973 1.439 . S
C974 C992 1.392 . S
N975 Co959 2.282 . S
N975 C978 1.332 . S
N975 C980 1.332 . S
C976 C977 1.386 . S
C976 C979 1.388 . S
C977 C976 1.386 . S
C977 C978 1.382 . S
C977 H1003 0.950 . S
C978 N975 1.332 . S
C978 C977 1.382 . S
C978 H989 0.952 . S
C979 C976 1.388 . S
C979 C980 1.382 . S
C979 H1004 0.950 . S
C980 N975 1.332 . S
C980 C979 1.382 . S
C980 H990 0.948 . S
N981 Co959 2.282 . S
N981 C985 1.332 . S
N981 C986 1.332 . S
C982 C983 1.388 . S
C982 C986 1.382 . S
C982 H1005 0.950 . S
C983 C982 1.388 . S
C983 C984 1.386 . S
C984 C983 1.386 . S
C984 C985 1.382 . S
C984 H1006 0.950 . S
C985 N981 1.332 . S
C985 C984 1.382 . S
C985 H987 0.952 . S
C986 N981 1.332 . S
C986 C982 1.382 . S
C986 H988 0.948 . S
H987 C985 0.952 . S
H988 C986 0.948 . S
H989 C978 0.952 . S
H990 C980 0.948 . S
C991 C957 1.395 . S
C991 C961 1.391 . S
C992 C954 1.389 . S
C992 C974 1.392 . S
C993 C964 1.392 . S
C993 C966 1.389 . S
C994 C969 1.395 . S
C994 C971 1.391 . S
H995 C955 0.951 . S
H996 C956 0.950 . S
H997 C962 0.949 . S
H998 C963 0.950 . S
H999 C967 0.951 . S
H1000 C968 0.950 . S
H1001 C972 0.949 . S
H1002 C973 0.950 . S
H1003 C977 0.950 . S
H1004 C979 0.950 . S
H1005 C982 0.950 . S
H1006 C984 0.950 . S
C1007 C1008 1.443 . S
C1007 N1011 1.376 . S
C1007 C1045 1.389 . S
C1008 C1007 1.443 . S
C1008 C1009 1.340 . S
C1008 H1048 0.951 . S
C1009 C1008 1.340 . S
C1009 C1010 1.439 . S
C1009 H1049 0.950 . S
C1010 C1009 1.439 . S
C1010 N1011 1.374 . S
C1010 C1044 1.395 . S
N1011 C1007 1.376 . S
N1011 C1010 1.374 . S
N1011 Co1012 2.008 . S
Co1012 N1011 2.008 . S
Co1012 N1013 1.995 . S
Co1012 N1018 2.008 . S
Co1012 N1023 1.995 . S
Co1012 N1028 2.282 . S
Co1012 N1034 2.282 . S
N1013 Co1012 1.995 . S
N1013 C1014 1.376 . S
N1013 C1017 1.383 . S
C1014 N1013 1.376 . S
C1014 C1015 1.446 . S
C1014 C1044 1.391 . S
C1015 C1014 1.446 . S
C1015 C1016 1.339 . S
C1015 H1050 0.949 . S
C1016 C1015 1.339 . S
C1016 C1017 1.439 . S
C1016 H1051 0.950 . S
C1017 N1013 1.383 . S
C1017 C1016 1.439 . S
C1017 C1046 1.392 . S
N1018 Co1012 2.008 . S
N1018 C1019 1.376 . S
N1018 C1022 1.374 . S
C1019 N1018 1.376 . S
C1019 C1020 1.443 . S
C1019 C1046 1.389 . S
C1020 C1019 1.443 . S
C1020 C1021 1.340 . S
C1020 H1052 0.951 . S
C1021 C1020 1.340 . S
C1021 C1022 1.439 . S
C1021 H1053 0.950 . S
C1022 N1018 1.374 . S
C1022 C1021 1.439 . S
C1022 C1047 1.395 . S
N1023 Co1012 1.995 . S
N1023 C1024 1.376 . S
N1023 C1027 1.383 . S
C1024 N1023 1.376 . S
C1024 C1025 1.446 . S
C1024 C1047 1.391 . S
C1025 C1024 1.446 . S
C1025 C1026 1.339 . S
C1025 H1054 0.949 . S
C1026 C1025 1.339 . S
C1026 C1027 1.439 . S
C1026 H1055 0.950 . S
C1027 N1023 1.383 . S
C1027 C1026 1.439 . S
C1027 C1045 1.392 . S
N1028 Co1012 2.282 . S
N1028 C1031 1.332 . S
N1028 C1033 1.332 . S
C1029 C1030 1.386 . S
C1029 C1032 1.388 . S
C1030 C1029 1.386 . S
C1030 C1031 1.382 . S
C1030 H1056 0.950 . S
C1031 N1028 1.332 . S
C1031 C1030 1.382 . S
C1031 H1042 0.952 . S
C1032 C1029 1.388 . S
C1032 C1033 1.382 . S
C1032 H1057 0.950 . S
C1033 N1028 1.332 . S
C1033 C1032 1.382 . S
C1033 H1043 0.948 . S
N1034 Co1012 2.282 . S
N1034 C1038 1.332 . S
N1034 C1039 1.332 . S
C1035 C1036 1.388 . S
C1035 C1039 1.382 . S
C1035 H1058 0.950 . S
C1036 C1035 1.388 . S
C1036 C1037 1.386 . S
C1037 C1036 1.386 . S
C1037 C1038 1.382 . S
C1037 H1059 0.950 . S
C1038 N1034 1.332 . S
C1038 C1037 1.382 . S
C1038 H1040 0.952 . S
C1039 N1034 1.332 . S
C1039 C1035 1.382 . S
C1039 H1041 0.948 . S
H1040 C1038 0.952 . S
H1041 C1039 0.948 . S
H1042 C1031 0.952 . S
H1043 C1033 0.948 . S
C1044 C1010 1.395 . S
C1044 C1014 1.391 . S
C1045 C1007 1.389 . S
C1045 C1027 1.392 . S
C1046 C1017 1.392 . S
C1046 C1019 1.389 . S
C1047 C1022 1.395 . S
C1047 C1024 1.391 . S
H1048 C1008 0.951 . S
H1049 C1009 0.950 . S
H1050 C1015 0.949 . S
H1051 C1016 0.950 . S
H1052 C1020 0.951 . S
H1053 C1021 0.950 . S
H1054 C1025 0.949 . S
H1055 C1026 0.950 . S
H1056 C1030 0.950 . S
H1057 C1032 0.950 . S
H1058 C1035 0.950 . S
H1059 C1037 0.950 . S
C1060 C1061 1.443 . S
C1060 N1064 1.376 . S
C1060 C1098 1.389 . S
C1061 C1060 1.443 . S
C1061 C1062 1.340 . S
C1061 H1101 0.951 . S
C1062 C1061 1.340 . S
C1062 C1063 1.439 . S
C1062 H1102 0.950 . S
C1063 C1062 1.439 . S
C1063 N1064 1.374 . S
C1063 C1097 1.395 . S
N1064 C1060 1.376 . S
N1064 C1063 1.374 . S
N1064 Co1065 2.008 . S
Co1065 N1064 2.008 . S
Co1065 N1066 1.995 . S
Co1065 N1071 2.008 . S
Co1065 N1076 1.995 . S
Co1065 N1081 2.282 . S
Co1065 N1087 2.282 . S
N1066 Co1065 1.995 . S
N1066 C1067 1.376 . S
N1066 C1070 1.383 . S
C1067 N1066 1.376 . S
C1067 C1068 1.446 . S
C1067 C1097 1.391 . S
C1068 C1067 1.446 . S
C1068 C1069 1.339 . S
C1068 H1103 0.949 . S
C1069 C1068 1.339 . S
C1069 C1070 1.439 . S
C1069 H1104 0.950 . S
C1070 N1066 1.383 . S
C1070 C1069 1.439 . S
C1070 C1099 1.392 . S
N1071 Co1065 2.008 . S
N1071 C1072 1.376 . S
N1071 C1075 1.374 . S
C1072 N1071 1.376 . S
C1072 C1073 1.443 . S
C1072 C1099 1.389 . S
C1073 C1072 1.443 . S
C1073 C1074 1.340 . S
C1073 H1105 0.951 . S
C1074 C1073 1.340 . S
C1074 C1075 1.439 . S
C1074 H1106 0.950 . S
C1075 N1071 1.374 . S
C1075 C1074 1.439 . S
C1075 C1100 1.395 . S
N1076 Co1065 1.995 . S
N1076 C1077 1.376 . S
N1076 C1080 1.383 . S
C1077 N1076 1.376 . S
C1077 C1078 1.446 . S
C1077 C1100 1.391 . S
C1078 C1077 1.446 . S
C1078 C1079 1.339 . S
C1078 H1107 0.949 . S
C1079 C1078 1.339 . S
C1079 C1080 1.439 . S
C1079 H1108 0.950 . S
C1080 N1076 1.383 . S
C1080 C1079 1.439 . S
C1080 C1098 1.392 . S
N1081 Co1065 2.282 . S
N1081 C1084 1.332 . S
N1081 C1086 1.332 . S
C1082 C1083 1.386 . S
C1082 C1085 1.388 . S
C1083 C1082 1.386 . S
C1083 C1084 1.382 . S
C1083 H1109 0.950 . S
C1084 N1081 1.332 . S
C1084 C1083 1.382 . S
C1084 H1095 0.952 . S
C1085 C1082 1.388 . S
C1085 C1086 1.382 . S
C1085 H1110 0.950 . S
C1086 N1081 1.332 . S
C1086 C1085 1.382 . S
C1086 H1096 0.948 . S
N1087 Co1065 2.282 . S
N1087 C1091 1.332 . S
N1087 C1092 1.332 . S
C1088 C1089 1.388 . S
C1088 C1092 1.382 . S
C1088 H1111 0.950 . S
C1089 C1088 1.388 . S
C1089 C1090 1.386 . S
C1090 C1089 1.386 . S
C1090 C1091 1.382 . S
C1090 H1112 0.950 . S
C1091 N1087 1.332 . S
C1091 C1090 1.382 . S
C1091 H1093 0.952 . S
C1092 N1087 1.332 . S
C1092 C1088 1.382 . S
C1092 H1094 0.948 . S
H1093 C1091 0.952 . S
H1094 C1092 0.948 . S
H1095 C1084 0.952 . S
H1096 C1086 0.948 . S
C1097 C1063 1.395 . S
C1097 C1067 1.391 . S
C1098 C1060 1.389 . S
C1098 C1080 1.392 . S
C1099 C1070 1.392 . S
C1099 C1072 1.389 . S
C1100 C1075 1.395 . S
C1100 C1077 1.391 . S
H1101 C1061 0.951 . S
H1102 C1062 0.950 . S
H1103 C1068 0.949 . S
H1104 C1069 0.950 . S
H1105 C1073 0.951 . S
H1106 C1074 0.950 . S
H1107 C1078 0.949 . S
H1108 C1079 0.950 . S
H1109 C1083 0.950 . S
H1110 C1085 0.950 . S
H1111 C1088 0.950 . S
H1112 C1090 0.950 . S
C1113 C1114 1.443 . S
C1113 N1117 1.376 . S
C1113 C1151 1.389 . S
C1114 C1113 1.443 . S
C1114 C1115 1.340 . S
C1114 H1154 0.951 . S
C1115 C1114 1.340 . S
C1115 C1116 1.439 . S
C1115 H1155 0.950 . S
C1116 C1115 1.439 . S
C1116 N1117 1.374 . S
C1116 C1150 1.395 . S
N1117 C1113 1.376 . S
N1117 C1116 1.374 . S
N1117 Co1118 2.008 . S
Co1118 N1117 2.008 . S
Co1118 N1119 1.995 . S
Co1118 N1124 2.008 . S
Co1118 N1129 1.995 . S
Co1118 N1134 2.282 . S
Co1118 N1140 2.282 . S
N1119 Co1118 1.995 . S
N1119 C1120 1.376 . S
N1119 C1123 1.383 . S
C1120 N1119 1.376 . S
C1120 C1121 1.446 . S
C1120 C1150 1.391 . S
C1121 C1120 1.446 . S
C1121 C1122 1.339 . S
C1121 H1156 0.949 . S
C1122 C1121 1.339 . S
C1122 C1123 1.439 . S
C1122 H1157 0.950 . S
C1123 N1119 1.383 . S
C1123 C1122 1.439 . S
C1123 C1152 1.392 . S
N1124 Co1118 2.008 . S
N1124 C1125 1.376 . S
N1124 C1128 1.374 . S
C1125 N1124 1.376 . S
C1125 C1126 1.443 . S
C1125 C1152 1.389 . S
C1126 C1125 1.443 . S
C1126 C1127 1.340 . S
C1126 H1158 0.951 . S
C1127 C1126 1.340 . S
C1127 C1128 1.439 . S
C1127 H1159 0.950 . S
C1128 N1124 1.374 . S
C1128 C1127 1.439 . S
C1128 C1153 1.395 . S
N1129 Co1118 1.995 . S
N1129 C1130 1.376 . S
N1129 C1133 1.383 . S
C1130 N1129 1.376 . S
C1130 C1131 1.446 . S
C1130 C1153 1.391 . S
C1131 C1130 1.446 . S
C1131 C1132 1.339 . S
C1131 H1160 0.949 . S
C1132 C1131 1.339 . S
C1132 C1133 1.439 . S
C1132 H1161 0.950 . S
C1133 N1129 1.383 . S
C1133 C1132 1.439 . S
C1133 C1151 1.392 . S
N1134 Co1118 2.282 . S
N1134 C1137 1.332 . S
N1134 C1139 1.332 . S
C1135 C1136 1.386 . S
C1135 C1138 1.388 . S
C1136 C1135 1.386 . S
C1136 C1137 1.382 . S
C1136 H1162 0.950 . S
C1137 N1134 1.332 . S
C1137 C1136 1.382 . S
C1137 H1148 0.952 . S
C1138 C1135 1.388 . S
C1138 C1139 1.382 . S
C1138 H1163 0.950 . S
C1139 N1134 1.332 . S
C1139 C1138 1.382 . S
C1139 H1149 0.948 . S
N1140 Co1118 2.282 . S
N1140 C1144 1.332 . S
N1140 C1145 1.332 . S
C1141 C1142 1.388 . S
C1141 C1145 1.382 . S
C1141 H1164 0.950 . S
C1142 C1141 1.388 . S
C1142 C1143 1.386 . S
C1143 C1142 1.386 . S
C1143 C1144 1.382 . S
C1143 H1165 0.950 . S
C1144 N1140 1.332 . S
C1144 C1143 1.382 . S
C1144 H1146 0.952 . S
C1145 N1140 1.332 . S
C1145 C1141 1.382 . S
C1145 H1147 0.948 . S
H1146 C1144 0.952 . S
H1147 C1145 0.948 . S
H1148 C1137 0.952 . S
H1149 C1139 0.948 . S
C1150 C1116 1.395 . S
C1150 C1120 1.391 . S
C1151 C1113 1.389 . S
C1151 C1133 1.392 . S
C1152 C1123 1.392 . S
C1152 C1125 1.389 . S
C1153 C1128 1.395 . S
C1153 C1130 1.391 . S
H1154 C1114 0.951 . S
H1155 C1115 0.950 . S
H1156 C1121 0.949 . S
H1157 C1122 0.950 . S
H1158 C1126 0.951 . S
H1159 C1127 0.950 . S
H1160 C1131 0.949 . S
H1161 C1132 0.950 . S
H1162 C1136 0.950 . S
H1163 C1138 0.950 . S
H1164 C1141 0.950 . S
H1165 C1143 0.950 . S
C1166 C1167 1.443 . S
C1166 N1170 1.376 . S
C1166 C1204 1.389 . S
C1167 C1166 1.443 . S
C1167 C1168 1.340 . S
C1167 H1207 0.951 . S
C1168 C1167 1.340 . S
C1168 C1169 1.439 . S
C1168 H1208 0.950 . S
C1169 C1168 1.439 . S
C1169 N1170 1.374 . S
C1169 C1203 1.395 . S
N1170 C1166 1.376 . S
N1170 C1169 1.374 . S
N1170 Co1171 2.008 . S
Co1171 N1170 2.008 . S
Co1171 N1172 1.995 . S
Co1171 N1177 2.008 . S
Co1171 N1182 1.995 . S
Co1171 N1187 2.282 . S
Co1171 N1193 2.282 . S
N1172 Co1171 1.995 . S
N1172 C1173 1.376 . S
N1172 C1176 1.383 . S
C1173 N1172 1.376 . S
C1173 C1174 1.446 . S
C1173 C1203 1.391 . S
C1174 C1173 1.446 . S
C1174 C1175 1.339 . S
C1174 H1209 0.949 . S
C1175 C1174 1.339 . S
C1175 C1176 1.439 . S
C1175 H1210 0.950 . S
C1176 N1172 1.383 . S
C1176 C1175 1.439 . S
C1176 C1205 1.392 . S
N1177 Co1171 2.008 . S
N1177 C1178 1.376 . S
N1177 C1181 1.374 . S
C1178 N1177 1.376 . S
C1178 C1179 1.443 . S
C1178 C1205 1.389 . S
C1179 C1178 1.443 . S
C1179 C1180 1.340 . S
C1179 H1211 0.951 . S
C1180 C1179 1.340 . S
C1180 C1181 1.439 . S
C1180 H1212 0.950 . S
C1181 N1177 1.374 . S
C1181 C1180 1.439 . S
C1181 C1206 1.395 . S
N1182 Co1171 1.995 . S
N1182 C1183 1.376 . S
N1182 C1186 1.383 . S
C1183 N1182 1.376 . S
C1183 C1184 1.446 . S
C1183 C1206 1.391 . S
C1184 C1183 1.446 . S
C1184 C1185 1.339 . S
C1184 H1213 0.949 . S
C1185 C1184 1.339 . S
C1185 C1186 1.439 . S
C1185 H1214 0.950 . S
C1186 N1182 1.383 . S
C1186 C1185 1.439 . S
C1186 C1204 1.392 . S
N1187 Co1171 2.282 . S
N1187 C1190 1.332 . S
N1187 C1192 1.332 . S
C1188 C1189 1.386 . S
C1188 C1191 1.388 . S
C1189 C1188 1.386 . S
C1189 C1190 1.382 . S
C1189 H1215 0.950 . S
C1190 N1187 1.332 . S
C1190 C1189 1.382 . S
C1190 H1201 0.952 . S
C1191 C1188 1.388 . S
C1191 C1192 1.382 . S
C1191 H1216 0.950 . S
C1192 N1187 1.332 . S
C1192 C1191 1.382 . S
C1192 H1202 0.948 . S
N1193 Co1171 2.282 . S
N1193 C1197 1.332 . S
N1193 C1198 1.332 . S
C1194 C1195 1.388 . S
C1194 C1198 1.382 . S
C1194 H1217 0.950 . S
C1195 C1194 1.388 . S
C1195 C1196 1.386 . S
C1196 C1195 1.386 . S
C1196 C1197 1.382 . S
C1196 H1218 0.950 . S
C1197 N1193 1.332 . S
C1197 C1196 1.382 . S
C1197 H1199 0.952 . S
C1198 N1193 1.332 . S
C1198 C1194 1.382 . S
C1198 H1200 0.948 . S
H1199 C1197 0.952 . S
H1200 C1198 0.948 . S
H1201 C1190 0.952 . S
H1202 C1192 0.948 . S
C1203 C1169 1.395 . S
C1203 C1173 1.391 . S
C1204 C1166 1.389 . S
C1204 C1186 1.392 . S
C1205 C1176 1.392 . S
C1205 C1178 1.389 . S
C1206 C1181 1.395 . S
C1206 C1183 1.391 . S
H1207 C1167 0.951 . S
H1208 C1168 0.950 . S
H1209 C1174 0.949 . S
H1210 C1175 0.950 . S
H1211 C1179 0.951 . S
H1212 C1180 0.950 . S
H1213 C1184 0.949 . S
H1214 C1185 0.950 . S
H1215 C1189 0.950 . S
H1216 C1191 0.950 . S
H1217 C1194 0.950 . S
H1218 C1196 0.950 . S
C1219 C1220 1.443 . S
C1219 N1223 1.376 . S
C1219 C1257 1.389 . S
C1220 C1219 1.443 . S
C1220 C1221 1.340 . S
C1220 H1260 0.951 . S
C1221 C1220 1.340 . S
C1221 C1222 1.439 . S
C1221 H1261 0.950 . S
C1222 C1221 1.439 . S
C1222 N1223 1.374 . S
C1222 C1256 1.395 . S
N1223 C1219 1.376 . S
N1223 C1222 1.374 . S
N1223 Co1224 2.008 . S
Co1224 N1223 2.008 . S
Co1224 N1225 1.995 . S
Co1224 N1230 2.008 . S
Co1224 N1235 1.995 . S
Co1224 N1240 2.282 . S
Co1224 N1246 2.282 . S
N1225 Co1224 1.995 . S
N1225 C1226 1.376 . S
N1225 C1229 1.383 . S
C1226 N1225 1.376 . S
C1226 C1227 1.446 . S
C1226 C1256 1.391 . S
C1227 C1226 1.446 . S
C1227 C1228 1.339 . S
C1227 H1262 0.949 . S
C1228 C1227 1.339 . S
C1228 C1229 1.439 . S
C1228 H1263 0.950 . S
C1229 N1225 1.383 . S
C1229 C1228 1.439 . S
C1229 C1258 1.392 . S
N1230 Co1224 2.008 . S
N1230 C1231 1.376 . S
N1230 C1234 1.374 . S
C1231 N1230 1.376 . S
C1231 C1232 1.443 . S
C1231 C1258 1.389 . S
C1232 C1231 1.443 . S
C1232 C1233 1.340 . S
C1232 H1264 0.951 . S
C1233 C1232 1.340 . S
C1233 C1234 1.439 . S
C1233 H1265 0.950 . S
C1234 N1230 1.374 . S
C1234 C1233 1.439 . S
C1234 C1259 1.395 . S
N1235 Co1224 1.995 . S
N1235 C1236 1.376 . S
N1235 C1239 1.383 . S
C1236 N1235 1.376 . S
C1236 C1237 1.446 . S
C1236 C1259 1.391 . S
C1237 C1236 1.446 . S
C1237 C1238 1.339 . S
C1237 H1266 0.949 . S
C1238 C1237 1.339 . S
C1238 C1239 1.439 . S
C1238 H1267 0.950 . S
C1239 N1235 1.383 . S
C1239 C1238 1.439 . S
C1239 C1257 1.392 . S
N1240 Co1224 2.282 . S
N1240 C1243 1.332 . S
N1240 C1245 1.332 . S
C1241 C1242 1.386 . S
C1241 C1244 1.388 . S
C1242 C1241 1.386 . S
C1242 C1243 1.382 . S
C1242 H1268 0.950 . S
C1243 N1240 1.332 . S
C1243 C1242 1.382 . S
C1243 H1254 0.952 . S
C1244 C1241 1.388 . S
C1244 C1245 1.382 . S
C1244 H1269 0.950 . S
C1245 N1240 1.332 . S
C1245 C1244 1.382 . S
C1245 H1255 0.948 . S
N1246 Co1224 2.282 . S
N1246 C1250 1.332 . S
N1246 C1251 1.332 . S
C1247 C1248 1.388 . S
C1247 C1251 1.382 . S
C1247 H1270 0.950 . S
C1248 C1247 1.388 . S
C1248 C1249 1.386 . S
C1249 C1248 1.386 . S
C1249 C1250 1.382 . S
C1249 H1271 0.950 . S
C1250 N1246 1.332 . S
C1250 C1249 1.382 . S
C1250 H1252 0.952 . S
C1251 N1246 1.332 . S
C1251 C1247 1.382 . S
C1251 H1253 0.948 . S
H1252 C1250 0.952 . S
H1253 C1251 0.948 . S
H1254 C1243 0.952 . S
H1255 C1245 0.948 . S
C1256 C1222 1.395 . S
C1256 C1226 1.391 . S
C1257 C1219 1.389 . S
C1257 C1239 1.392 . S
C1258 C1229 1.392 . S
C1258 C1231 1.389 . S
C1259 C1234 1.395 . S
C1259 C1236 1.391 . S
H1260 C1220 0.951 . S
H1261 C1221 0.950 . S
H1262 C1227 0.949 . S
H1263 C1228 0.950 . S
H1264 C1232 0.951 . S
H1265 C1233 0.950 . S
H1266 C1237 0.949 . S
H1267 C1238 0.950 . S
H1268 C1242 0.950 . S
H1269 C1244 0.950 . S
H1270 C1247 0.950 . S
H1271 C1249 0.950 . S
H1272 C1280 0.929 . S
H1273 C1282 0.930 . S
H1274 C1284 0.930 . S
H1275 C1287 0.929 . S
H1276 C1290 0.930 . S
H1277 C1292 0.960 . S
H1278 C1292 0.960 . S
H1279 C1292 0.960 . S
C1280 H1272 0.929 . S
C1280 C1281 1.377 . S
C1280 C1282 1.384 . S
C1281 C1280 1.377 . S
C1281 C1287 1.390 . S
C1282 H1273 0.930 . S
C1282 C1280 1.384 . S
C1282 C1283 1.372 . S
C1283 C1282 1.372 . S
C1283 C1284 1.400 . S
C1283 C1288 1.490 . S
C1284 H1274 0.930 . S
C1284 C1283 1.400 . S
C1284 C1287 1.386 . S
H1285 C1301 0.930 . S
H1286 C1302 0.931 . S
C1287 H1275 0.929 . S
C1287 C1281 1.390 . S
C1287 C1284 1.386 . S
C1288 C1283 1.490 . S
C1288 C1290 1.395 . S
C1288 C1291 1.403 . S
H1289 C1295 0.930 . S
C1290 H1276 0.930 . S
C1290 C1288 1.395 . S
C1290 C1293 1.403 . S
C1291 C1288 1.403 . S
C1291 C1292 1.524 . S
C1291 C1295 1.400 . S
C1292 H1277 0.960 . S
C1292 H1278 0.960 . S
C1292 H1279 0.960 . S
C1292 C1291 1.524 . S
C1293 C1290 1.403 . S
C1293 C1294 1.392 . S
C1293 C1297 1.495 . S
C1294 C1293 1.392 . S
C1294 C1295 1.385 . S
C1294 C1296 1.478 . S
C1295 H1289 0.930 . S
C1295 C1291 1.400 . S
C1295 C1294 1.385 . S
C1296 C1294 1.478 . S
C1296 C1298 1.381 . S
C1296 C1302 1.383 . S
C1297 C1293 1.495 . S
C1297 H1303 0.959 . S
C1297 H1304 0.961 . S
C1297 H1305 0.960 . S
C1298 C1296 1.381 . S
C1298 C1299 1.394 . S
C1298 H1306 0.930 . S
C1299 C1298 1.394 . S
C1299 C1300 1.383 . S
C1299 H1307 0.929 . S
C1300 C1299 1.383 . S
C1300 C1301 1.377 . S
C1301 H1285 0.930 . S
C1301 C1300 1.377 . S
C1301 C1302 1.379 . S
C1302 H1286 0.931 . S
C1302 C1296 1.383 . S
C1302 C1301 1.379 . S
H1303 C1297 0.959 . S
H1304 C1297 0.961 . S
H1305 C1297 0.960 . S
H1306 C1298 0.930 . S
H1307 C1299 0.929 . S
H1308 C1316 0.929 . S
H1309 C1318 0.930 . S
H1310 C1320 0.930 . S
H1311 C1323 0.929 . S
H1312 C1326 0.930 . S
H1313 C1328 0.960 . S
H1314 C1328 0.960 . S
H1315 C1328 0.960 . S
C1316 H1308 0.929 . S
C1316 C1317 1.377 . S
C1316 C1318 1.384 . S
C1317 C1316 1.377 . S
C1317 C1323 1.390 . S
C1318 H1309 0.930 . S
C1318 C1316 1.384 . S
C1318 C1319 1.372 . S
C1319 C1318 1.372 . S
C1319 C1320 1.400 . S
C1319 C1324 1.490 . S
C1320 H1310 0.930 . S
C1320 C1319 1.400 . S
C1320 C1323 1.386 . S
H1321 C1337 0.930 . S
H1322 C1338 0.931 . S
C1323 H1311 0.929 . S
C1323 C1317 1.390 . S
C1323 C1320 1.386 . S
C1324 C1319 1.490 . S
C1324 C1326 1.395 . S
C1324 C1327 1.403 . S
H1325 C1331 0.930 . S
C1326 H1312 0.930 . S
C1326 C1324 1.395 . S
C1326 C1329 1.403 . S
C1327 C1324 1.403 . S
C1327 C1328 1.524 . S
C1327 C1331 1.400 . S
C1328 H1313 0.960 . S
C1328 H1314 0.960 . S
C1328 H1315 0.960 . S
C1328 C1327 1.524 . S
C1329 C1326 1.403 . S
C1329 C1330 1.392 . S
C1329 C1333 1.495 . S
C1330 C1329 1.392 . S
C1330 C1331 1.385 . S
C1330 C1332 1.478 . S
C1331 H1325 0.930 . S
C1331 C1327 1.400 . S
C1331 C1330 1.385 . S
C1332 C1330 1.478 . S
C1332 C1334 1.381 . S
C1332 C1338 1.383 . S
C1333 C1329 1.495 . S
C1333 H1339 0.959 . S
C1333 H1340 0.961 . S
C1333 H1341 0.960 . S
C1334 C1332 1.381 . S
C1334 C1335 1.394 . S
C1334 H1342 0.930 . S
C1335 C1334 1.394 . S
C1335 C1336 1.383 . S
C1335 H1343 0.929 . S
C1336 C1335 1.383 . S
C1336 C1337 1.377 . S
C1337 H1321 0.930 . S
C1337 C1336 1.377 . S
C1337 C1338 1.379 . S
C1338 H1322 0.931 . S
C1338 C1332 1.383 . S
C1338 C1337 1.379 . S
H1339 C1333 0.959 . S
H1340 C1333 0.961 . S
H1341 C1333 0.960 . S
H1342 C1334 0.930 . S
H1343 C1335 0.929 . S
H1344 C1352 0.929 . S
H1345 C1354 0.930 . S
H1346 C1356 0.930 . S
H1347 C1359 0.929 . S
H1348 C1362 0.930 . S
H1349 C1364 0.960 . S
H1350 C1364 0.960 . S
H1351 C1364 0.960 . S
C1352 H1344 0.929 . S
C1352 C1353 1.377 . S
C1352 C1354 1.384 . S
C1353 C1352 1.377 . S
C1353 C1359 1.390 . S
C1354 H1345 0.930 . S
C1354 C1352 1.384 . S
C1354 C1355 1.372 . S
C1355 C1354 1.372 . S
C1355 C1356 1.400 . S
C1355 C1360 1.490 . S
C1356 H1346 0.930 . S
C1356 C1355 1.400 . S
C1356 C1359 1.386 . S
H1357 C1373 0.930 . S
H1358 C1374 0.931 . S
C1359 H1347 0.929 . S
C1359 C1353 1.390 . S
C1359 C1356 1.386 . S
C1360 C1355 1.490 . S
C1360 C1362 1.395 . S
C1360 C1363 1.403 . S
H1361 C1367 0.930 . S
C1362 H1348 0.930 . S
C1362 C1360 1.395 . S
C1362 C1365 1.403 . S
C1363 C1360 1.403 . S
C1363 C1364 1.524 . S
C1363 C1367 1.400 . S
C1364 H1349 0.960 . S
C1364 H1350 0.960 . S
C1364 H1351 0.960 . S
C1364 C1363 1.524 . S
C1365 C1362 1.403 . S
C1365 C1366 1.392 . S
C1365 C1369 1.495 . S
C1366 C1365 1.392 . S
C1366 C1367 1.385 . S
C1366 C1368 1.478 . S
C1367 H1361 0.930 . S
C1367 C1363 1.400 . S
C1367 C1366 1.385 . S
C1368 C1366 1.478 . S
C1368 C1370 1.381 . S
C1368 C1374 1.383 . S
C1369 C1365 1.495 . S
C1369 H1375 0.959 . S
C1369 H1376 0.961 . S
C1369 H1377 0.960 . S
C1370 C1368 1.381 . S
C1370 C1371 1.394 . S
C1370 H1378 0.930 . S
C1371 C1370 1.394 . S
C1371 C1372 1.383 . S
C1371 H1379 0.929 . S
C1372 C1371 1.383 . S
C1372 C1373 1.377 . S
C1373 H1357 0.930 . S
C1373 C1372 1.377 . S
C1373 C1374 1.379 . S
C1374 H1358 0.931 . S
C1374 C1368 1.383 . S
C1374 C1373 1.379 . S
H1375 C1369 0.959 . S
H1376 C1369 0.961 . S
H1377 C1369 0.960 . S
H1378 C1370 0.930 . S
H1379 C1371 0.929 . S
H1380 C1388 0.929 . S
H1381 C1390 0.930 . S
H1382 C1392 0.930 . S
H1383 C1395 0.929 . S
H1384 C1398 0.930 . S
H1385 C1400 0.960 . S
H1386 C1400 0.960 . S
H1387 C1400 0.960 . S
C1388 H1380 0.929 . S
C1388 C1389 1.377 . S
C1388 C1390 1.384 . S
C1389 C1388 1.377 . S
C1389 C1395 1.390 . S
C1390 H1381 0.930 . S
C1390 C1388 1.384 . S
C1390 C1391 1.372 . S
C1391 C1390 1.372 . S
C1391 C1392 1.400 . S
C1391 C1396 1.490 . S
C1392 H1382 0.930 . S
C1392 C1391 1.400 . S
C1392 C1395 1.386 . S
H1393 C1409 0.930 . S
H1394 C1410 0.931 . S
C1395 H1383 0.929 . S
C1395 C1389 1.390 . S
C1395 C1392 1.386 . S
C1396 C1391 1.490 . S
C1396 C1398 1.395 . S
C1396 C1399 1.403 . S
H1397 C1403 0.930 . S
C1398 H1384 0.930 . S
C1398 C1396 1.395 . S
C1398 C1401 1.403 . S
C1399 C1396 1.403 . S
C1399 C1400 1.524 . S
C1399 C1403 1.400 . S
C1400 H1385 0.960 . S
C1400 H1386 0.960 . S
C1400 H1387 0.960 . S
C1400 C1399 1.524 . S
C1401 C1398 1.403 . S
C1401 C1402 1.392 . S
C1401 C1405 1.495 . S
C1402 C1401 1.392 . S
C1402 C1403 1.385 . S
C1402 C1404 1.478 . S
C1403 H1397 0.930 . S
C1403 C1399 1.400 . S
C1403 C1402 1.385 . S
C1404 C1402 1.478 . S
C1404 C1406 1.381 . S
C1404 C1410 1.383 . S
C1405 C1401 1.495 . S
C1405 H1411 0.959 . S
C1405 H1412 0.961 . S
C1405 H1413 0.960 . S
C1406 C1404 1.381 . S
C1406 C1407 1.394 . S
C1406 H1414 0.930 . S
C1407 C1406 1.394 . S
C1407 C1408 1.383 . S
C1407 H1415 0.929 . S
C1408 C1407 1.383 . S
C1408 C1409 1.377 . S
C1409 H1393 0.930 . S
C1409 C1408 1.377 . S
C1409 C1410 1.379 . S
C1410 H1394 0.931 . S
C1410 C1404 1.383 . S
C1410 C1409 1.379 . S
H1411 C1405 0.959 . S
H1412 C1405 0.961 . S
H1413 C1405 0.960 . S
H1414 C1406 0.930 . S
H1415 C1407 0.929 . S
H1416 C1424 0.929 . S
H1417 C1426 0.930 . S
H1418 C1428 0.930 . S
H1419 C1431 0.929 . S
H1420 C1434 0.930 . S
H1421 C1436 0.960 . S
H1422 C1436 0.960 . S
H1423 C1436 0.960 . S
C1424 H1416 0.929 . S
C1424 C1425 1.377 . S
C1424 C1426 1.384 . S
C1425 C1424 1.377 . S
C1425 C1431 1.390 . S
C1426 H1417 0.930 . S
C1426 C1424 1.384 . S
C1426 C1427 1.372 . S
C1427 C1426 1.372 . S
C1427 C1428 1.400 . S
C1427 C1432 1.490 . S
C1428 H1418 0.930 . S
C1428 C1427 1.400 . S
C1428 C1431 1.386 . S
H1429 C1445 0.930 . S
H1430 C1446 0.931 . S
C1431 H1419 0.929 . S
C1431 C1425 1.390 . S
C1431 C1428 1.386 . S
C1432 C1427 1.490 . S
C1432 C1434 1.395 . S
C1432 C1435 1.403 . S
H1433 C1439 0.930 . S
C1434 H1420 0.930 . S
C1434 C1432 1.395 . S
C1434 C1437 1.403 . S
C1435 C1432 1.403 . S
C1435 C1436 1.524 . S
C1435 C1439 1.400 . S
C1436 H1421 0.960 . S
C1436 H1422 0.960 . S
C1436 H1423 0.960 . S
C1436 C1435 1.524 . S
C1437 C1434 1.403 . S
C1437 C1438 1.392 . S
C1437 C1441 1.495 . S
C1438 C1437 1.392 . S
C1438 C1439 1.385 . S
C1438 C1440 1.478 . S
C1439 H1433 0.930 . S
C1439 C1435 1.400 . S
C1439 C1438 1.385 . S
C1440 C1438 1.478 . S
C1440 C1442 1.381 . S
C1440 C1446 1.383 . S
C1441 C1437 1.495 . S
C1441 H1447 0.959 . S
C1441 H1448 0.961 . S
C1441 H1449 0.960 . S
C1442 C1440 1.381 . S
C1442 C1443 1.394 . S
C1442 H1450 0.930 . S
C1443 C1442 1.394 . S
C1443 C1444 1.383 . S
C1443 H1451 0.929 . S
C1444 C1443 1.383 . S
C1444 C1445 1.377 . S
C1445 H1429 0.930 . S
C1445 C1444 1.377 . S
C1445 C1446 1.379 . S
C1446 H1430 0.931 . S
C1446 C1440 1.383 . S
C1446 C1445 1.379 . S
H1447 C1441 0.959 . S
H1448 C1441 0.961 . S
H1449 C1441 0.960 . S
H1450 C1442 0.930 . S
H1451 C1443 0.929 . S
H1452 C1460 0.929 . S
H1453 C1462 0.930 . S
H1454 C1464 0.930 . S
H1455 C1467 0.929 . S
H1456 C1470 0.930 . S
H1457 C1472 0.960 . S
H1458 C1472 0.960 . S
H1459 C1472 0.960 . S
C1460 H1452 0.929 . S
C1460 C1461 1.377 . S
C1460 C1462 1.384 . S
C1461 C1460 1.377 . S
C1461 C1467 1.390 . S
C1462 H1453 0.930 . S
C1462 C1460 1.384 . S
C1462 C1463 1.372 . S
C1463 C1462 1.372 . S
C1463 C1464 1.400 . S
C1463 C1468 1.490 . S
C1464 H1454 0.930 . S
C1464 C1463 1.400 . S
C1464 C1467 1.386 . S
H1465 C1481 0.930 . S
H1466 C1482 0.931 . S
C1467 H1455 0.929 . S
C1467 C1461 1.390 . S
C1467 C1464 1.386 . S
C1468 C1463 1.490 . S
C1468 C1470 1.395 . S
C1468 C1471 1.403 . S
H1469 C1475 0.930 . S
C1470 H1456 0.930 . S
C1470 C1468 1.395 . S
C1470 C1473 1.403 . S
C1471 C1468 1.403 . S
C1471 C1472 1.524 . S
C1471 C1475 1.400 . S
C1472 H1457 0.960 . S
C1472 H1458 0.960 . S
C1472 H1459 0.960 . S
C1472 C1471 1.524 . S
C1473 C1470 1.403 . S
C1473 C1474 1.392 . S
C1473 C1477 1.495 . S
C1474 C1473 1.392 . S
C1474 C1475 1.385 . S
C1474 C1476 1.478 . S
C1475 H1469 0.930 . S
C1475 C1471 1.400 . S
C1475 C1474 1.385 . S
C1476 C1474 1.478 . S
C1476 C1478 1.381 . S
C1476 C1482 1.383 . S
C1477 C1473 1.495 . S
C1477 H1483 0.959 . S
C1477 H1484 0.961 . S
C1477 H1485 0.960 . S
C1478 C1476 1.381 . S
C1478 C1479 1.394 . S
C1478 H1486 0.930 . S
C1479 C1478 1.394 . S
C1479 C1480 1.383 . S
C1479 H1487 0.929 . S
C1480 C1479 1.383 . S
C1480 C1481 1.377 . S
C1481 H1465 0.930 . S
C1481 C1480 1.377 . S
C1481 C1482 1.379 . S
C1482 H1466 0.931 . S
C1482 C1476 1.383 . S
C1482 C1481 1.379 . S
H1483 C1477 0.959 . S
H1484 C1477 0.961 . S
H1485 C1477 0.960 . S
H1486 C1478 0.930 . S
H1487 C1479 0.929 . S
H1488 C1496 0.929 . S
H1489 C1498 0.930 . S
H1490 C1500 0.930 . S
H1491 C1503 0.929 . S
H1492 C1506 0.930 . S
H1493 C1508 0.960 . S
H1494 C1508 0.960 . S
H1495 C1508 0.960 . S
C1496 H1488 0.929 . S
C1496 C1497 1.377 . S
C1496 C1498 1.384 . S
C1497 C1496 1.377 . S
C1497 C1503 1.390 . S
C1498 H1489 0.930 . S
C1498 C1496 1.384 . S
C1498 C1499 1.372 . S
C1499 C1498 1.372 . S
C1499 C1500 1.400 . S
C1499 C1504 1.490 . S
C1500 H1490 0.930 . S
C1500 C1499 1.400 . S
C1500 C1503 1.386 . S
H1501 C1517 0.930 . S
H1502 C1518 0.931 . S
C1503 H1491 0.929 . S
C1503 C1497 1.390 . S
C1503 C1500 1.386 . S
C1504 C1499 1.490 . S
C1504 C1506 1.395 . S
C1504 C1507 1.403 . S
H1505 C1511 0.930 . S
C1506 H1492 0.930 . S
C1506 C1504 1.395 . S
C1506 C1509 1.403 . S
C1507 C1504 1.403 . S
C1507 C1508 1.524 . S
C1507 C1511 1.400 . S
C1508 H1493 0.960 . S
C1508 H1494 0.960 . S
C1508 H1495 0.960 . S
C1508 C1507 1.524 . S
C1509 C1506 1.403 . S
C1509 C1510 1.392 . S
C1509 C1513 1.495 . S
C1510 C1509 1.392 . S
C1510 C1511 1.385 . S
C1510 C1512 1.478 . S
C1511 H1505 0.930 . S
C1511 C1507 1.400 . S
C1511 C1510 1.385 . S
C1512 C1510 1.478 . S
C1512 C1514 1.381 . S
C1512 C1518 1.383 . S
C1513 C1509 1.495 . S
C1513 H1519 0.959 . S
C1513 H1520 0.961 . S
C1513 H1521 0.960 . S
C1514 C1512 1.381 . S
C1514 C1515 1.394 . S
C1514 H1522 0.930 . S
C1515 C1514 1.394 . S
C1515 C1516 1.383 . S
C1515 H1523 0.929 . S
C1516 C1515 1.383 . S
C1516 C1517 1.377 . S
C1517 H1501 0.930 . S
C1517 C1516 1.377 . S
C1517 C1518 1.379 . S
C1518 H1502 0.931 . S
C1518 C1512 1.383 . S
C1518 C1517 1.379 . S
H1519 C1513 0.959 . S
H1520 C1513 0.961 . S
H1521 C1513 0.960 . S
H1522 C1514 0.930 . S
H1523 C1515 0.929 . S
H1524 C1532 0.929 . S
H1525 C1534 0.930 . S
H1526 C1536 0.930 . S
H1527 C1539 0.929 . S
H1528 C1542 0.930 . S
H1529 C1544 0.960 . S
H1530 C1544 0.960 . S
H1531 C1544 0.960 . S
C1532 H1524 0.929 . S
C1532 C1533 1.377 . S
C1532 C1534 1.384 . S
C1533 C1532 1.377 . S
C1533 C1539 1.390 . S
C1534 H1525 0.930 . S
C1534 C1532 1.384 . S
C1534 C1535 1.372 . S
C1535 C1534 1.372 . S
C1535 C1536 1.400 . S
C1535 C1540 1.490 . S
C1536 H1526 0.930 . S
C1536 C1535 1.400 . S
C1536 C1539 1.386 . S
H1537 C1553 0.930 . S
H1538 C1554 0.931 . S
C1539 H1527 0.929 . S
C1539 C1533 1.390 . S
C1539 C1536 1.386 . S
C1540 C1535 1.490 . S
C1540 C1542 1.395 . S
C1540 C1543 1.403 . S
H1541 C1547 0.930 . S
C1542 H1528 0.930 . S
C1542 C1540 1.395 . S
C1542 C1545 1.403 . S
C1543 C1540 1.403 . S
C1543 C1544 1.524 . S
C1543 C1547 1.400 . S
C1544 H1529 0.960 . S
C1544 H1530 0.960 . S
C1544 H1531 0.960 . S
C1544 C1543 1.524 . S
C1545 C1542 1.403 . S
C1545 C1546 1.392 . S
C1545 C1549 1.495 . S
C1546 C1545 1.392 . S
C1546 C1547 1.385 . S
C1546 C1548 1.478 . S
C1547 H1541 0.930 . S
C1547 C1543 1.400 . S
C1547 C1546 1.385 . S
C1548 C1546 1.478 . S
C1548 C1550 1.381 . S
C1548 C1554 1.383 . S
C1549 C1545 1.495 . S
C1549 H1555 0.959 . S
C1549 H1556 0.961 . S
C1549 H1557 0.960 . S
C1550 C1548 1.381 . S
C1550 C1551 1.394 . S
C1550 H1558 0.930 . S
C1551 C1550 1.394 . S
C1551 C1552 1.383 . S
C1551 H1559 0.929 . S
C1552 C1551 1.383 . S
C1552 C1553 1.377 . S
C1553 H1537 0.930 . S
C1553 C1552 1.377 . S
C1553 C1554 1.379 . S
C1554 H1538 0.931 . S
C1554 C1548 1.383 . S
C1554 C1553 1.379 . S
H1555 C1549 0.959 . S
H1556 C1549 0.961 . S
H1557 C1549 0.960 . S
H1558 C1550 0.930 . S
H1559 C1551 0.929 . S
H1560 C1568 0.929 . S
H1561 C1570 0.930 . S
H1562 C1572 0.930 . S
H1563 C1575 0.929 . S
H1564 C1578 0.930 . S
H1565 C1580 0.960 . S
H1566 C1580 0.960 . S
H1567 C1580 0.960 . S
C1568 H1560 0.929 . S
C1568 C1569 1.377 . S
C1568 C1570 1.384 . S
C1569 C1568 1.377 . S
C1569 C1575 1.390 . S
C1570 H1561 0.930 . S
C1570 C1568 1.384 . S
C1570 C1571 1.372 . S
C1571 C1570 1.372 . S
C1571 C1572 1.400 . S
C1571 C1576 1.490 . S
C1572 H1562 0.930 . S
C1572 C1571 1.400 . S
C1572 C1575 1.386 . S
H1573 C1589 0.930 . S
H1574 C1590 0.931 . S
C1575 H1563 0.929 . S
C1575 C1569 1.390 . S
C1575 C1572 1.386 . S
C1576 C1571 1.490 . S
C1576 C1578 1.395 . S
C1576 C1579 1.403 . S
H1577 C1583 0.930 . S
C1578 H1564 0.930 . S
C1578 C1576 1.395 . S
C1578 C1581 1.403 . S
C1579 C1576 1.403 . S
C1579 C1580 1.524 . S
C1579 C1583 1.400 . S
C1580 H1565 0.960 . S
C1580 H1566 0.960 . S
C1580 H1567 0.960 . S
C1580 C1579 1.524 . S
C1581 C1578 1.403 . S
C1581 C1582 1.392 . S
C1581 C1585 1.495 . S
C1582 C1581 1.392 . S
C1582 C1583 1.385 . S
C1582 C1584 1.478 . S
C1583 H1577 0.930 . S
C1583 C1579 1.400 . S
C1583 C1582 1.385 . S
C1584 C1582 1.478 . S
C1584 C1586 1.381 . S
C1584 C1590 1.383 . S
C1585 C1581 1.495 . S
C1585 H1591 0.959 . S
C1585 H1592 0.961 . S
C1585 H1593 0.960 . S
C1586 C1584 1.381 . S
C1586 C1587 1.394 . S
C1586 H1594 0.930 . S
C1587 C1586 1.394 . S
C1587 C1588 1.383 . S
C1587 H1595 0.929 . S
C1588 C1587 1.383 . S
C1588 C1589 1.377 . S
C1589 H1573 0.930 . S
C1589 C1588 1.377 . S
C1589 C1590 1.379 . S
C1590 H1574 0.931 . S
C1590 C1584 1.383 . S
C1590 C1589 1.379 . S
H1591 C1585 0.959 . S
H1592 C1585 0.961 . S
H1593 C1585 0.960 . S
H1594 C1586 0.930 . S
H1595 C1587 0.929 . S
H1596 C1604 0.929 . S
H1597 C1606 0.930 . S
H1598 C1608 0.930 . S
H1599 C1611 0.929 . S
H1600 C1614 0.930 . S
H1601 C1616 0.960 . S
H1602 C1616 0.960 . S
H1603 C1616 0.960 . S
C1604 H1596 0.929 . S
C1604 C1605 1.377 . S
C1604 C1606 1.384 . S
C1605 C1604 1.377 . S
C1605 C1611 1.390 . S
C1606 H1597 0.930 . S
C1606 C1604 1.384 . S
C1606 C1607 1.372 . S
C1607 C1606 1.372 . S
C1607 C1608 1.400 . S
C1607 C1612 1.490 . S
C1608 H1598 0.930 . S
C1608 C1607 1.400 . S
C1608 C1611 1.386 . S
H1609 C1625 0.930 . S
H1610 C1626 0.931 . S
C1611 H1599 0.929 . S
C1611 C1605 1.390 . S
C1611 C1608 1.386 . S
C1612 C1607 1.490 . S
C1612 C1614 1.395 . S
C1612 C1615 1.403 . S
H1613 C1619 0.930 . S
C1614 H1600 0.930 . S
C1614 C1612 1.395 . S
C1614 C1617 1.403 . S
C1615 C1612 1.403 . S
C1615 C1616 1.524 . S
C1615 C1619 1.400 . S
C1616 H1601 0.960 . S
C1616 H1602 0.960 . S
C1616 H1603 0.960 . S
C1616 C1615 1.524 . S
C1617 C1614 1.403 . S
C1617 C1618 1.392 . S
C1617 C1621 1.495 . S
C1618 C1617 1.392 . S
C1618 C1619 1.385 . S
C1618 C1620 1.478 . S
C1619 H1613 0.930 . S
C1619 C1615 1.400 . S
C1619 C1618 1.385 . S
C1620 C1618 1.478 . S
C1620 C1622 1.381 . S
C1620 C1626 1.383 . S
C1621 C1617 1.495 . S
C1621 H1627 0.959 . S
C1621 H1628 0.961 . S
C1621 H1629 0.960 . S
C1622 C1620 1.381 . S
C1622 C1623 1.394 . S
C1622 H1630 0.930 . S
C1623 C1622 1.394 . S
C1623 C1624 1.383 . S
C1623 H1631 0.929 . S
C1624 C1623 1.383 . S
C1624 C1625 1.377 . S
C1625 H1609 0.930 . S
C1625 C1624 1.377 . S
C1625 C1626 1.379 . S
C1626 H1610 0.931 . S
C1626 C1620 1.383 . S
C1626 C1625 1.379 . S
H1627 C1621 0.959 . S
H1628 C1621 0.961 . S
H1629 C1621 0.960 . S
H1630 C1622 0.930 . S
H1631 C1623 0.929 . S
H1632 C1640 0.929 . S
H1633 C1642 0.930 . S
H1634 C1644 0.930 . S
H1635 C1647 0.929 . S
H1636 C1650 0.930 . S
H1637 C1652 0.960 . S
H1638 C1652 0.960 . S
H1639 C1652 0.960 . S
C1640 H1632 0.929 . S
C1640 C1641 1.377 . S
C1640 C1642 1.384 . S
C1641 C1640 1.377 . S
C1641 C1647 1.390 . S
C1642 H1633 0.930 . S
C1642 C1640 1.384 . S
C1642 C1643 1.372 . S
C1643 C1642 1.372 . S
C1643 C1644 1.400 . S
C1643 C1648 1.490 . S
C1644 H1634 0.930 . S
C1644 C1643 1.400 . S
C1644 C1647 1.386 . S
H1645 C1661 0.930 . S
H1646 C1662 0.931 . S
C1647 H1635 0.929 . S
C1647 C1641 1.390 . S
C1647 C1644 1.386 . S
C1648 C1643 1.490 . S
C1648 C1650 1.395 . S
C1648 C1651 1.403 . S
H1649 C1655 0.930 . S
C1650 H1636 0.930 . S
C1650 C1648 1.395 . S
C1650 C1653 1.403 . S
C1651 C1648 1.403 . S
C1651 C1652 1.524 . S
C1651 C1655 1.400 . S
C1652 H1637 0.960 . S
C1652 H1638 0.960 . S
C1652 H1639 0.960 . S
C1652 C1651 1.524 . S
C1653 C1650 1.403 . S
C1653 C1654 1.392 . S
C1653 C1657 1.495 . S
C1654 C1653 1.392 . S
C1654 C1655 1.385 . S
C1654 C1656 1.478 . S
C1655 H1649 0.930 . S
C1655 C1651 1.400 . S
C1655 C1654 1.385 . S
C1656 C1654 1.478 . S
C1656 C1658 1.381 . S
C1656 C1662 1.383 . S
C1657 C1653 1.495 . S
C1657 H1663 0.959 . S
C1657 H1664 0.961 . S
C1657 H1665 0.960 . S
C1658 C1656 1.381 . S
C1658 C1659 1.394 . S
C1658 H1666 0.930 . S
C1659 C1658 1.394 . S
C1659 C1660 1.383 . S
C1659 H1667 0.929 . S
C1660 C1659 1.383 . S
C1660 C1661 1.377 . S
C1661 H1645 0.930 . S
C1661 C1660 1.377 . S
C1661 C1662 1.379 . S
C1662 H1646 0.931 . S
C1662 C1656 1.383 . S
C1662 C1661 1.379 . S
H1663 C1657 0.959 . S
H1664 C1657 0.961 . S
H1665 C1657 0.960 . S
H1666 C1658 0.930 . S
H1667 C1659 0.929 . S
H1668 C1676 0.929 . S
H1669 C1678 0.930 . S
H1670 C1680 0.930 . S
H1671 C1683 0.929 . S
H1672 C1686 0.930 . S
H1673 C1688 0.960 . S
H1674 C1688 0.960 . S
H1675 C1688 0.960 . S
C1676 H1668 0.929 . S
C1676 C1677 1.377 . S
C1676 C1678 1.384 . S
C1677 C1676 1.377 . S
C1677 C1683 1.390 . S
C1678 H1669 0.930 . S
C1678 C1676 1.384 . S
C1678 C1679 1.372 . S
C1679 C1678 1.372 . S
C1679 C1680 1.400 . S
C1679 C1684 1.490 . S
C1680 H1670 0.930 . S
C1680 C1679 1.400 . S
C1680 C1683 1.386 . S
H1681 C1697 0.930 . S
H1682 C1698 0.931 . S
C1683 H1671 0.929 . S
C1683 C1677 1.390 . S
C1683 C1680 1.386 . S
C1684 C1679 1.490 . S
C1684 C1686 1.395 . S
C1684 C1687 1.403 . S
H1685 C1691 0.930 . S
C1686 H1672 0.930 . S
C1686 C1684 1.395 . S
C1686 C1689 1.403 . S
C1687 C1684 1.403 . S
C1687 C1688 1.524 . S
C1687 C1691 1.400 . S
C1688 H1673 0.960 . S
C1688 H1674 0.960 . S
C1688 H1675 0.960 . S
C1688 C1687 1.524 . S
C1689 C1686 1.403 . S
C1689 C1690 1.392 . S
C1689 C1693 1.495 . S
C1690 C1689 1.392 . S
C1690 C1691 1.385 . S
C1690 C1692 1.478 . S
C1691 H1685 0.930 . S
C1691 C1687 1.400 . S
C1691 C1690 1.385 . S
C1692 C1690 1.478 . S
C1692 C1694 1.381 . S
C1692 C1698 1.383 . S
C1693 C1689 1.495 . S
C1693 H1699 0.959 . S
C1693 H1700 0.961 . S
C1693 H1701 0.960 . S
C1694 C1692 1.381 . S
C1694 C1695 1.394 . S
C1694 H1702 0.930 . S
C1695 C1694 1.394 . S
C1695 C1696 1.383 . S
C1695 H1703 0.929 . S
C1696 C1695 1.383 . S
C1696 C1697 1.377 . S
C1697 H1681 0.930 . S
C1697 C1696 1.377 . S
C1697 C1698 1.379 . S
C1698 H1682 0.931 . S
C1698 C1692 1.383 . S
C1698 C1697 1.379 . S
H1699 C1693 0.959 . S
H1700 C1693 0.961 . S
H1701 C1693 0.960 . S
H1702 C1694 0.930 . S
H1703 C1695 0.929 . S
H1704 C1712 0.929 . S
H1705 C1714 0.930 . S
H1706 C1716 0.930 . S
H1707 C1719 0.929 . S
H1708 C1722 0.930 . S
H1709 C1724 0.960 . S
H1710 C1724 0.960 . S
H1711 C1724 0.960 . S
C1712 H1704 0.929 . S
C1712 C1713 1.377 . S
C1712 C1714 1.384 . S
C1713 C1712 1.377 . S
C1713 C1719 1.390 . S
C1714 H1705 0.930 . S
C1714 C1712 1.384 . S
C1714 C1715 1.372 . S
C1715 C1714 1.372 . S
C1715 C1716 1.400 . S
C1715 C1720 1.490 . S
C1716 H1706 0.930 . S
C1716 C1715 1.400 . S
C1716 C1719 1.386 . S
H1717 C1733 0.930 . S
H1718 C1734 0.931 . S
C1719 H1707 0.929 . S
C1719 C1713 1.390 . S
C1719 C1716 1.386 . S
C1720 C1715 1.490 . S
C1720 C1722 1.395 . S
C1720 C1723 1.403 . S
H1721 C1727 0.930 . S
C1722 H1708 0.930 . S
C1722 C1720 1.395 . S
C1722 C1725 1.403 . S
C1723 C1720 1.403 . S
C1723 C1724 1.524 . S
C1723 C1727 1.400 . S
C1724 H1709 0.960 . S
C1724 H1710 0.960 . S
C1724 H1711 0.960 . S
C1724 C1723 1.524 . S
C1725 C1722 1.403 . S
C1725 C1726 1.392 . S
C1725 C1729 1.495 . S
C1726 C1725 1.392 . S
C1726 C1727 1.385 . S
C1726 C1728 1.478 . S
C1727 H1721 0.930 . S
C1727 C1723 1.400 . S
C1727 C1726 1.385 . S
C1728 C1726 1.478 . S
C1728 C1730 1.381 . S
C1728 C1734 1.383 . S
C1729 C1725 1.495 . S
C1729 H1735 0.959 . S
C1729 H1736 0.961 . S
C1729 H1737 0.960 . S
C1730 C1728 1.381 . S
C1730 C1731 1.394 . S
C1730 H1738 0.930 . S
C1731 C1730 1.394 . S
C1731 C1732 1.383 . S
C1731 H1739 0.929 . S
C1732 C1731 1.383 . S
C1732 C1733 1.377 . S
C1733 H1717 0.930 . S
C1733 C1732 1.377 . S
C1733 C1734 1.379 . S
C1734 H1718 0.931 . S
C1734 C1728 1.383 . S
C1734 C1733 1.379 . S
H1735 C1729 0.959 . S
H1736 C1729 0.961 . S
H1737 C1729 0.960 . S
H1738 C1730 0.930 . S
H1739 C1731 0.929 . S
H1740 C1748 0.929 . S
H1741 C1750 0.930 . S
H1742 C1752 0.930 . S
H1743 C1755 0.929 . S
H1744 C1758 0.930 . S
H1745 C1760 0.960 . S
H1746 C1760 0.960 . S
H1747 C1760 0.960 . S
C1748 H1740 0.929 . S
C1748 C1749 1.377 . S
C1748 C1750 1.384 . S
C1749 C1748 1.377 . S
C1749 C1755 1.390 . S
C1750 H1741 0.930 . S
C1750 C1748 1.384 . S
C1750 C1751 1.372 . S
C1751 C1750 1.372 . S
C1751 C1752 1.400 . S
C1751 C1756 1.490 . S
C1752 H1742 0.930 . S
C1752 C1751 1.400 . S
C1752 C1755 1.386 . S
H1753 C1769 0.930 . S
H1754 C1770 0.931 . S
C1755 H1743 0.929 . S
C1755 C1749 1.390 . S
C1755 C1752 1.386 . S
C1756 C1751 1.490 . S
C1756 C1758 1.395 . S
C1756 C1759 1.403 . S
H1757 C1763 0.930 . S
C1758 H1744 0.930 . S
C1758 C1756 1.395 . S
C1758 C1761 1.403 . S
C1759 C1756 1.403 . S
C1759 C1760 1.524 . S
C1759 C1763 1.400 . S
C1760 H1745 0.960 . S
C1760 H1746 0.960 . S
C1760 H1747 0.960 . S
C1760 C1759 1.524 . S
C1761 C1758 1.403 . S
C1761 C1762 1.392 . S
C1761 C1765 1.495 . S
C1762 C1761 1.392 . S
C1762 C1763 1.385 . S
C1762 C1764 1.478 . S
C1763 H1757 0.930 . S
C1763 C1759 1.400 . S
C1763 C1762 1.385 . S
C1764 C1762 1.478 . S
C1764 C1766 1.381 . S
C1764 C1770 1.383 . S
C1765 C1761 1.495 . S
C1765 H1771 0.959 . S
C1765 H1772 0.961 . S
C1765 H1773 0.960 . S
C1766 C1764 1.381 . S
C1766 C1767 1.394 . S
C1766 H1774 0.930 . S
C1767 C1766 1.394 . S
C1767 C1768 1.383 . S
C1767 H1775 0.929 . S
C1768 C1767 1.383 . S
C1768 C1769 1.377 . S
C1769 H1753 0.930 . S
C1769 C1768 1.377 . S
C1769 C1770 1.379 . S
C1770 H1754 0.931 . S
C1770 C1764 1.383 . S
C1770 C1769 1.379 . S
H1771 C1765 0.959 . S
H1772 C1765 0.961 . S
H1773 C1765 0.960 . S
H1774 C1766 0.930 . S
H1775 C1767 0.929 . S
H1776 C1784 0.929 . S
H1777 C1786 0.930 . S
H1778 C1788 0.930 . S
H1779 C1791 0.929 . S
H1780 C1794 0.930 . S
H1781 C1796 0.960 . S
H1782 C1796 0.960 . S
H1783 C1796 0.960 . S
C1784 H1776 0.929 . S
C1784 C1785 1.377 . S
C1784 C1786 1.384 . S
C1785 C1784 1.377 . S
C1785 C1791 1.390 . S
C1786 H1777 0.930 . S
C1786 C1784 1.384 . S
C1786 C1787 1.372 . S
C1787 C1786 1.372 . S
C1787 C1788 1.400 . S
C1787 C1792 1.490 . S
C1788 H1778 0.930 . S
C1788 C1787 1.400 . S
C1788 C1791 1.386 . S
H1789 C1805 0.930 . S
H1790 C1806 0.931 . S
C1791 H1779 0.929 . S
C1791 C1785 1.390 . S
C1791 C1788 1.386 . S
C1792 C1787 1.490 . S
C1792 C1794 1.395 . S
C1792 C1795 1.403 . S
H1793 C1799 0.930 . S
C1794 H1780 0.930 . S
C1794 C1792 1.395 . S
C1794 C1797 1.403 . S
C1795 C1792 1.403 . S
C1795 C1796 1.524 . S
C1795 C1799 1.400 . S
C1796 H1781 0.960 . S
C1796 H1782 0.960 . S
C1796 H1783 0.960 . S
C1796 C1795 1.524 . S
C1797 C1794 1.403 . S
C1797 C1798 1.392 . S
C1797 C1801 1.495 . S
C1798 C1797 1.392 . S
C1798 C1799 1.385 . S
C1798 C1800 1.478 . S
C1799 H1793 0.930 . S
C1799 C1795 1.400 . S
C1799 C1798 1.385 . S
C1800 C1798 1.478 . S
C1800 C1802 1.381 . S
C1800 C1806 1.383 . S
C1801 C1797 1.495 . S
C1801 H1807 0.959 . S
C1801 H1808 0.961 . S
C1801 H1809 0.960 . S
C1802 C1800 1.381 . S
C1802 C1803 1.394 . S
C1802 H1810 0.930 . S
C1803 C1802 1.394 . S
C1803 C1804 1.383 . S
C1803 H1811 0.929 . S
C1804 C1803 1.383 . S
C1804 C1805 1.377 . S
C1805 H1789 0.930 . S
C1805 C1804 1.377 . S
C1805 C1806 1.379 . S
C1806 H1790 0.931 . S
C1806 C1800 1.383 . S
C1806 C1805 1.379 . S
H1807 C1801 0.959 . S
H1808 C1801 0.961 . S
H1809 C1801 0.960 . S
H1810 C1802 0.930 . S
H1811 C1803 0.929 . S
H1812 C1820 0.929 . S
H1813 C1822 0.930 . S
H1814 C1824 0.930 . S
H1815 C1827 0.929 . S
H1816 C1830 0.930 . S
H1817 C1832 0.960 . S
H1818 C1832 0.960 . S
H1819 C1832 0.960 . S
C1820 H1812 0.929 . S
C1820 C1821 1.377 . S
C1820 C1822 1.384 . S
C1821 C1820 1.377 . S
C1821 C1827 1.390 . S
C1822 H1813 0.930 . S
C1822 C1820 1.384 . S
C1822 C1823 1.372 . S
C1823 C1822 1.372 . S
C1823 C1824 1.400 . S
C1823 C1828 1.490 . S
C1824 H1814 0.930 . S
C1824 C1823 1.400 . S
C1824 C1827 1.386 . S
H1825 C1841 0.930 . S
H1826 C1842 0.931 . S
C1827 H1815 0.929 . S
C1827 C1821 1.390 . S
C1827 C1824 1.386 . S
C1828 C1823 1.490 . S
C1828 C1830 1.395 . S
C1828 C1831 1.403 . S
H1829 C1835 0.930 . S
C1830 H1816 0.930 . S
C1830 C1828 1.395 . S
C1830 C1833 1.403 . S
C1831 C1828 1.403 . S
C1831 C1832 1.524 . S
C1831 C1835 1.400 . S
C1832 H1817 0.960 . S
C1832 H1818 0.960 . S
C1832 H1819 0.960 . S
C1832 C1831 1.524 . S
C1833 C1830 1.403 . S
C1833 C1834 1.392 . S
C1833 C1837 1.495 . S
C1834 C1833 1.392 . S
C1834 C1835 1.385 . S
C1834 C1836 1.478 . S
C1835 H1829 0.930 . S
C1835 C1831 1.400 . S
C1835 C1834 1.385 . S
C1836 C1834 1.478 . S
C1836 C1838 1.381 . S
C1836 C1842 1.383 . S
C1837 C1833 1.495 . S
C1837 H1843 0.959 . S
C1837 H1844 0.961 . S
C1837 H1845 0.960 . S
C1838 C1836 1.381 . S
C1838 C1839 1.394 . S
C1838 H1846 0.930 . S
C1839 C1838 1.394 . S
C1839 C1840 1.383 . S
C1839 H1847 0.929 . S
C1840 C1839 1.383 . S
C1840 C1841 1.377 . S
C1841 H1825 0.930 . S
C1841 C1840 1.377 . S
C1841 C1842 1.379 . S
C1842 H1826 0.931 . S
C1842 C1836 1.383 . S
C1842 C1841 1.379 . S
H1843 C1837 0.959 . S
H1844 C1837 0.961 . S
H1845 C1837 0.960 . S
H1846 C1838 0.930 . S
H1847 C1839 0.929 . S
H1848 C1856 0.929 . S
H1849 C1858 0.930 . S
H1850 C1860 0.930 . S
H1851 C1863 0.929 . S
H1852 C1866 0.930 . S
H1853 C1868 0.960 . S
H1854 C1868 0.960 . S
H1855 C1868 0.960 . S
C1856 H1848 0.929 . S
C1856 C1857 1.377 . S
C1856 C1858 1.384 . S
C1857 C1856 1.377 . S
C1857 C1863 1.390 . S
C1858 H1849 0.930 . S
C1858 C1856 1.384 . S
C1858 C1859 1.372 . S
C1859 C1858 1.372 . S
C1859 C1860 1.400 . S
C1859 C1864 1.490 . S
C1860 H1850 0.930 . S
C1860 C1859 1.400 . S
C1860 C1863 1.386 . S
H1861 C1877 0.930 . S
H1862 C1878 0.931 . S
C1863 H1851 0.929 . S
C1863 C1857 1.390 . S
C1863 C1860 1.386 . S
C1864 C1859 1.490 . S
C1864 C1866 1.395 . S
C1864 C1867 1.403 . S
H1865 C1871 0.930 . S
C1866 H1852 0.930 . S
C1866 C1864 1.395 . S
C1866 C1869 1.403 . S
C1867 C1864 1.403 . S
C1867 C1868 1.524 . S
C1867 C1871 1.400 . S
C1868 H1853 0.960 . S
C1868 H1854 0.960 . S
C1868 H1855 0.960 . S
C1868 C1867 1.524 . S
C1869 C1866 1.403 . S
C1869 C1870 1.392 . S
C1869 C1873 1.495 . S
C1870 C1869 1.392 . S
C1870 C1871 1.385 . S
C1870 C1872 1.478 . S
C1871 H1865 0.930 . S
C1871 C1867 1.400 . S
C1871 C1870 1.385 . S
C1872 C1870 1.478 . S
C1872 C1874 1.381 . S
C1872 C1878 1.383 . S
C1873 C1869 1.495 . S
C1873 H1879 0.959 . S
C1873 H1880 0.961 . S
C1873 H1881 0.960 . S
C1874 C1872 1.381 . S
C1874 C1875 1.394 . S
C1874 H1882 0.930 . S
C1875 C1874 1.394 . S
C1875 C1876 1.383 . S
C1875 H1883 0.929 . S
C1876 C1875 1.383 . S
C1876 C1877 1.377 . S
C1877 H1861 0.930 . S
C1877 C1876 1.377 . S
C1877 C1878 1.379 . S
C1878 H1862 0.931 . S
C1878 C1872 1.383 . S
C1878 C1877 1.379 . S
H1879 C1873 0.959 . S
H1880 C1873 0.961 . S
H1881 C1873 0.960 . S
H1882 C1874 0.930 . S
H1883 C1875 0.929 . S
H1884 C1892 0.929 . S
H1885 C1894 0.930 . S
H1886 C1896 0.930 . S
H1887 C1899 0.929 . S
H1888 C1902 0.930 . S
H1889 C1904 0.960 . S
H1890 C1904 0.960 . S
H1891 C1904 0.960 . S
C1892 H1884 0.929 . S
C1892 C1893 1.377 . S
C1892 C1894 1.384 . S
C1893 C1892 1.377 . S
C1893 C1899 1.390 . S
C1894 H1885 0.930 . S
C1894 C1892 1.384 . S
C1894 C1895 1.372 . S
C1895 C1894 1.372 . S
C1895 C1896 1.400 . S
C1895 C1900 1.490 . S
C1896 H1886 0.930 . S
C1896 C1895 1.400 . S
C1896 C1899 1.386 . S
H1897 C1913 0.930 . S
H1898 C1914 0.931 . S
C1899 H1887 0.929 . S
C1899 C1893 1.390 . S
C1899 C1896 1.386 . S
C1900 C1895 1.490 . S
C1900 C1902 1.395 . S
C1900 C1903 1.403 . S
H1901 C1907 0.930 . S
C1902 H1888 0.930 . S
C1902 C1900 1.395 . S
C1902 C1905 1.403 . S
C1903 C1900 1.403 . S
C1903 C1904 1.524 . S
C1903 C1907 1.400 . S
C1904 H1889 0.960 . S
C1904 H1890 0.960 . S
C1904 H1891 0.960 . S
C1904 C1903 1.524 . S
C1905 C1902 1.403 . S
C1905 C1906 1.392 . S
C1905 C1909 1.495 . S
C1906 C1905 1.392 . S
C1906 C1907 1.385 . S
C1906 C1908 1.478 . S
C1907 H1901 0.930 . S
C1907 C1903 1.400 . S
C1907 C1906 1.385 . S
C1908 C1906 1.478 . S
C1908 C1910 1.381 . S
C1908 C1914 1.383 . S
C1909 C1905 1.495 . S
C1909 H1915 0.959 . S
C1909 H1916 0.961 . S
C1909 H1917 0.960 . S
C1910 C1908 1.381 . S
C1910 C1911 1.394 . S
C1910 H1918 0.930 . S
C1911 C1910 1.394 . S
C1911 C1912 1.383 . S
C1911 H1919 0.929 . S
C1912 C1911 1.383 . S
C1912 C1913 1.377 . S
C1913 H1897 0.930 . S
C1913 C1912 1.377 . S
C1913 C1914 1.379 . S
C1914 H1898 0.931 . S
C1914 C1908 1.383 . S
C1914 C1913 1.379 . S
H1915 C1909 0.959 . S
H1916 C1909 0.961 . S
H1917 C1909 0.960 . S
H1918 C1910 0.930 . S
H1919 C1911 0.929 . S
H1920 C1928 0.929 . S
H1921 C1930 0.930 . S
H1922 C1932 0.930 . S
H1923 C1935 0.929 . S
H1924 C1938 0.930 . S
H1925 C1940 0.960 . S
H1926 C1940 0.960 . S
H1927 C1940 0.960 . S
C1928 H1920 0.929 . S
C1928 C1929 1.377 . S
C1928 C1930 1.384 . S
C1929 C1928 1.377 . S
C1929 C1935 1.390 . S
C1930 H1921 0.930 . S
C1930 C1928 1.384 . S
C1930 C1931 1.372 . S
C1931 C1930 1.372 . S
C1931 C1932 1.400 . S
C1931 C1936 1.490 . S
C1932 H1922 0.930 . S
C1932 C1931 1.400 . S
C1932 C1935 1.386 . S
H1933 C1949 0.930 . S
H1934 C1950 0.931 . S
C1935 H1923 0.929 . S
C1935 C1929 1.390 . S
C1935 C1932 1.386 . S
C1936 C1931 1.490 . S
C1936 C1938 1.395 . S
C1936 C1939 1.403 . S
H1937 C1943 0.930 . S
C1938 H1924 0.930 . S
C1938 C1936 1.395 . S
C1938 C1941 1.403 . S
C1939 C1936 1.403 . S
C1939 C1940 1.524 . S
C1939 C1943 1.400 . S
C1940 H1925 0.960 . S
C1940 H1926 0.960 . S
C1940 H1927 0.960 . S
C1940 C1939 1.524 . S
C1941 C1938 1.403 . S
C1941 C1942 1.392 . S
C1941 C1945 1.495 . S
C1942 C1941 1.392 . S
C1942 C1943 1.385 . S
C1942 C1944 1.478 . S
C1943 H1937 0.930 . S
C1943 C1939 1.400 . S
C1943 C1942 1.385 . S
C1944 C1942 1.478 . S
C1944 C1946 1.381 . S
C1944 C1950 1.383 . S
C1945 C1941 1.495 . S
C1945 H1951 0.959 . S
C1945 H1952 0.961 . S
C1945 H1953 0.960 . S
C1946 C1944 1.381 . S
C1946 C1947 1.394 . S
C1946 H1954 0.930 . S
C1947 C1946 1.394 . S
C1947 C1948 1.383 . S
C1947 H1955 0.929 . S
C1948 C1947 1.383 . S
C1948 C1949 1.377 . S
C1949 H1933 0.930 . S
C1949 C1948 1.377 . S
C1949 C1950 1.379 . S
C1950 H1934 0.931 . S
C1950 C1944 1.383 . S
C1950 C1949 1.379 . S
H1951 C1945 0.959 . S
H1952 C1945 0.961 . S
H1953 C1945 0.960 . S
H1954 C1946 0.930 . S
H1955 C1947 0.929 . S
H1956 C1964 0.929 . S
H1957 C1966 0.930 . S
H1958 C1968 0.930 . S
H1959 C1971 0.929 . S
H1960 C1974 0.930 . S
H1961 C1976 0.960 . S
H1962 C1976 0.960 . S
H1963 C1976 0.960 . S
C1964 H1956 0.929 . S
C1964 C1965 1.377 . S
C1964 C1966 1.384 . S
C1965 C1964 1.377 . S
C1965 C1971 1.390 . S
C1966 H1957 0.930 . S
C1966 C1964 1.384 . S
C1966 C1967 1.372 . S
C1967 C1966 1.372 . S
C1967 C1968 1.400 . S
C1967 C1972 1.490 . S
C1968 H1958 0.930 . S
C1968 C1967 1.400 . S
C1968 C1971 1.386 . S
H1969 C1985 0.930 . S
H1970 C1986 0.931 . S
C1971 H1959 0.929 . S
C1971 C1965 1.390 . S
C1971 C1968 1.386 . S
C1972 C1967 1.490 . S
C1972 C1974 1.395 . S
C1972 C1975 1.403 . S
H1973 C1979 0.930 . S
C1974 H1960 0.930 . S
C1974 C1972 1.395 . S
C1974 C1977 1.403 . S
C1975 C1972 1.403 . S
C1975 C1976 1.524 . S
C1975 C1979 1.400 . S
C1976 H1961 0.960 . S
C1976 H1962 0.960 . S
C1976 H1963 0.960 . S
C1976 C1975 1.524 . S
C1977 C1974 1.403 . S
C1977 C1978 1.392 . S
C1977 C1981 1.495 . S
C1978 C1977 1.392 . S
C1978 C1979 1.385 . S
C1978 C1980 1.478 . S
C1979 H1973 0.930 . S
C1979 C1975 1.400 . S
C1979 C1978 1.385 . S
C1980 C1978 1.478 . S
C1980 C1982 1.381 . S
C1980 C1986 1.383 . S
C1981 C1977 1.495 . S
C1981 H1987 0.959 . S
C1981 H1988 0.961 . S
C1981 H1989 0.960 . S
C1982 C1980 1.381 . S
C1982 C1983 1.394 . S
C1982 H1990 0.930 . S
C1983 C1982 1.394 . S
C1983 C1984 1.383 . S
C1983 H1991 0.929 . S
C1984 C1983 1.383 . S
C1984 C1985 1.377 . S
C1985 H1969 0.930 . S
C1985 C1984 1.377 . S
C1985 C1986 1.379 . S
C1986 H1970 0.931 . S
C1986 C1980 1.383 . S
C1986 C1985 1.379 . S
H1987 C1981 0.959 . S
H1988 C1981 0.961 . S
H1989 C1981 0.960 . S
H1990 C1982 0.930 . S
H1991 C1983 0.929 . S
H1992 C2000 0.929 . S
H1993 C2002 0.930 . S
H1994 C2004 0.930 . S
H1995 C2007 0.929 . S
H1996 C2010 0.930 . S
H1997 C2012 0.960 . S
H1998 C2012 0.960 . S
H1999 C2012 0.960 . S
C2000 H1992 0.929 . S
C2000 C2001 1.377 . S
C2000 C2002 1.384 . S
C2001 C2000 1.377 . S
C2001 C2007 1.390 . S
C2002 H1993 0.930 . S
C2002 C2000 1.384 . S
C2002 C2003 1.372 . S
C2003 C2002 1.372 . S
C2003 C2004 1.400 . S
C2003 C2008 1.490 . S
C2004 H1994 0.930 . S
C2004 C2003 1.400 . S
C2004 C2007 1.386 . S
H2005 C2021 0.930 . S
H2006 C2022 0.931 . S
C2007 H1995 0.929 . S
C2007 C2001 1.390 . S
C2007 C2004 1.386 . S
C2008 C2003 1.490 . S
C2008 C2010 1.395 . S
C2008 C2011 1.403 . S
H2009 C2015 0.930 . S
C2010 H1996 0.930 . S
C2010 C2008 1.395 . S
C2010 C2013 1.403 . S
C2011 C2008 1.403 . S
C2011 C2012 1.524 . S
C2011 C2015 1.400 . S
C2012 H1997 0.960 . S
C2012 H1998 0.960 . S
C2012 H1999 0.960 . S
C2012 C2011 1.524 . S
C2013 C2010 1.403 . S
C2013 C2014 1.392 . S
C2013 C2017 1.495 . S
C2014 C2013 1.392 . S
C2014 C2015 1.385 . S
C2014 C2016 1.478 . S
C2015 H2009 0.930 . S
C2015 C2011 1.400 . S
C2015 C2014 1.385 . S
C2016 C2014 1.478 . S
C2016 C2018 1.381 . S
C2016 C2022 1.383 . S
C2017 C2013 1.495 . S
C2017 H2023 0.959 . S
C2017 H2024 0.961 . S
C2017 H2025 0.960 . S
C2018 C2016 1.381 . S
C2018 C2019 1.394 . S
C2018 H2026 0.930 . S
C2019 C2018 1.394 . S
C2019 C2020 1.383 . S
C2019 H2027 0.929 . S
C2020 C2019 1.383 . S
C2020 C2021 1.377 . S
C2021 H2005 0.930 . S
C2021 C2020 1.377 . S
C2021 C2022 1.379 . S
C2022 H2006 0.931 . S
C2022 C2016 1.383 . S
C2022 C2021 1.379 . S
H2023 C2017 0.959 . S
H2024 C2017 0.961 . S
H2025 C2017 0.960 . S
H2026 C2018 0.930 . S
H2027 C2019 0.929 . S
H2028 C2036 0.929 . S
H2029 C2038 0.930 . S
H2030 C2040 0.930 . S
H2031 C2043 0.929 . S
H2032 C2046 0.930 . S
H2033 C2048 0.960 . S
H2034 C2048 0.960 . S
H2035 C2048 0.960 . S
C2036 H2028 0.929 . S
C2036 C2037 1.377 . S
C2036 C2038 1.384 . S
C2037 C2036 1.377 . S
C2037 C2043 1.390 . S
C2038 H2029 0.930 . S
C2038 C2036 1.384 . S
C2038 C2039 1.372 . S
C2039 C2038 1.372 . S
C2039 C2040 1.400 . S
C2039 C2044 1.490 . S
C2040 H2030 0.930 . S
C2040 C2039 1.400 . S
C2040 C2043 1.386 . S
H2041 C2057 0.930 . S
H2042 C2058 0.931 . S
C2043 H2031 0.929 . S
C2043 C2037 1.390 . S
C2043 C2040 1.386 . S
C2044 C2039 1.490 . S
C2044 C2046 1.395 . S
C2044 C2047 1.403 . S
H2045 C2051 0.930 . S
C2046 H2032 0.930 . S
C2046 C2044 1.395 . S
C2046 C2049 1.403 . S
C2047 C2044 1.403 . S
C2047 C2048 1.524 . S
C2047 C2051 1.400 . S
C2048 H2033 0.960 . S
C2048 H2034 0.960 . S
C2048 H2035 0.960 . S
C2048 C2047 1.524 . S
C2049 C2046 1.403 . S
C2049 C2050 1.392 . S
C2049 C2053 1.495 . S
C2050 C2049 1.392 . S
C2050 C2051 1.385 . S
C2050 C2052 1.478 . S
C2051 H2045 0.930 . S
C2051 C2047 1.400 . S
C2051 C2050 1.385 . S
C2052 C2050 1.478 . S
C2052 C2054 1.381 . S
C2052 C2058 1.383 . S
C2053 C2049 1.495 . S
C2053 H2059 0.959 . S
C2053 H2060 0.961 . S
C2053 H2061 0.960 . S
C2054 C2052 1.381 . S
C2054 C2055 1.394 . S
C2054 H2062 0.930 . S
C2055 C2054 1.394 . S
C2055 C2056 1.383 . S
C2055 H2063 0.929 . S
C2056 C2055 1.383 . S
C2056 C2057 1.377 . S
C2057 H2041 0.930 . S
C2057 C2056 1.377 . S
C2057 C2058 1.379 . S
C2058 H2042 0.931 . S
C2058 C2052 1.383 . S
C2058 C2057 1.379 . S
H2059 C2053 0.959 . S
H2060 C2053 0.961 . S
H2061 C2053 0.960 . S
H2062 C2054 0.930 . S
H2063 C2055 0.929 . S
H2064 C2072 0.929 . S
H2065 C2074 0.930 . S
H2066 C2076 0.930 . S
H2067 C2079 0.929 . S
H2068 C2082 0.930 . S
H2069 C2084 0.960 . S
H2070 C2084 0.960 . S
H2071 C2084 0.960 . S
C2072 H2064 0.929 . S
C2072 C2073 1.377 . S
C2072 C2074 1.384 . S
C2073 C2072 1.377 . S
C2073 C2079 1.390 . S
C2074 H2065 0.930 . S
C2074 C2072 1.384 . S
C2074 C2075 1.372 . S
C2075 C2074 1.372 . S
C2075 C2076 1.400 . S
C2075 C2080 1.490 . S
C2076 H2066 0.930 . S
C2076 C2075 1.400 . S
C2076 C2079 1.386 . S
H2077 C2093 0.930 . S
H2078 C2094 0.931 . S
C2079 H2067 0.929 . S
C2079 C2073 1.390 . S
C2079 C2076 1.386 . S
C2080 C2075 1.490 . S
C2080 C2082 1.395 . S
C2080 C2083 1.403 . S
H2081 C2087 0.930 . S
C2082 H2068 0.930 . S
C2082 C2080 1.395 . S
C2082 C2085 1.403 . S
C2083 C2080 1.403 . S
C2083 C2084 1.524 . S
C2083 C2087 1.400 . S
C2084 H2069 0.960 . S
C2084 H2070 0.960 . S
C2084 H2071 0.960 . S
C2084 C2083 1.524 . S
C2085 C2082 1.403 . S
C2085 C2086 1.392 . S
C2085 C2089 1.495 . S
C2086 C2085 1.392 . S
C2086 C2087 1.385 . S
C2086 C2088 1.478 . S
C2087 H2081 0.930 . S
C2087 C2083 1.400 . S
C2087 C2086 1.385 . S
C2088 C2086 1.478 . S
C2088 C2090 1.381 . S
C2088 C2094 1.383 . S
C2089 C2085 1.495 . S
C2089 H2095 0.959 . S
C2089 H2096 0.961 . S
C2089 H2097 0.960 . S
C2090 C2088 1.381 . S
C2090 C2091 1.394 . S
C2090 H2098 0.930 . S
C2091 C2090 1.394 . S
C2091 C2092 1.383 . S
C2091 H2099 0.929 . S
C2092 C2091 1.383 . S
C2092 C2093 1.377 . S
C2093 H2077 0.930 . S
C2093 C2092 1.377 . S
C2093 C2094 1.379 . S
C2094 H2078 0.931 . S
C2094 C2088 1.383 . S
C2094 C2093 1.379 . S
H2095 C2089 0.959 . S
H2096 C2089 0.961 . S
H2097 C2089 0.960 . S
H2098 C2090 0.930 . S
H2099 C2091 0.929 . S
H2100 C2108 0.929 . S
H2101 C2110 0.930 . S
H2102 C2112 0.930 . S
H2103 C2115 0.929 . S
H2104 C2118 0.930 . S
H2105 C2120 0.960 . S
H2106 C2120 0.960 . S
H2107 C2120 0.960 . S
C2108 H2100 0.929 . S
C2108 C2109 1.377 . S
C2108 C2110 1.384 . S
C2109 C2108 1.377 . S
C2109 C2115 1.390 . S
C2110 H2101 0.930 . S
C2110 C2108 1.384 . S
C2110 C2111 1.372 . S
C2111 C2110 1.372 . S
C2111 C2112 1.400 . S
C2111 C2116 1.490 . S
C2112 H2102 0.930 . S
C2112 C2111 1.400 . S
C2112 C2115 1.386 . S
H2113 C2129 0.930 . S
H2114 C2130 0.931 . S
C2115 H2103 0.929 . S
C2115 C2109 1.390 . S
C2115 C2112 1.386 . S
C2116 C2111 1.490 . S
C2116 C2118 1.395 . S
C2116 C2119 1.403 . S
H2117 C2123 0.930 . S
C2118 H2104 0.930 . S
C2118 C2116 1.395 . S
C2118 C2121 1.403 . S
C2119 C2116 1.403 . S
C2119 C2120 1.524 . S
C2119 C2123 1.400 . S
C2120 H2105 0.960 . S
C2120 H2106 0.960 . S
C2120 H2107 0.960 . S
C2120 C2119 1.524 . S
C2121 C2118 1.403 . S
C2121 C2122 1.392 . S
C2121 C2125 1.495 . S
C2122 C2121 1.392 . S
C2122 C2123 1.385 . S
C2122 C2124 1.478 . S
C2123 H2117 0.930 . S
C2123 C2119 1.400 . S
C2123 C2122 1.385 . S
C2124 C2122 1.478 . S
C2124 C2126 1.381 . S
C2124 C2130 1.383 . S
C2125 C2121 1.495 . S
C2125 H2131 0.959 . S
C2125 H2132 0.961 . S
C2125 H2133 0.960 . S
C2126 C2124 1.381 . S
C2126 C2127 1.394 . S
C2126 H2134 0.930 . S
C2127 C2126 1.394 . S
C2127 C2128 1.383 . S
C2127 H2135 0.929 . S
C2128 C2127 1.383 . S
C2128 C2129 1.377 . S
C2129 H2113 0.930 . S
C2129 C2128 1.377 . S
C2129 C2130 1.379 . S
C2130 H2114 0.931 . S
C2130 C2124 1.383 . S
C2130 C2129 1.379 . S
H2131 C2125 0.959 . S
H2132 C2125 0.961 . S
H2133 C2125 0.960 . S
H2134 C2126 0.930 . S
H2135 C2127 0.929 . S
H2136 C2144 0.929 . S
H2137 C2146 0.930 . S
H2138 C2148 0.930 . S
H2139 C2151 0.929 . S
H2140 C2154 0.930 . S
H2141 C2156 0.960 . S
H2142 C2156 0.960 . S
H2143 C2156 0.960 . S
C2144 H2136 0.929 . S
C2144 C2145 1.377 . S
C2144 C2146 1.384 . S
C2145 C2144 1.377 . S
C2145 C2151 1.390 . S
C2146 H2137 0.930 . S
C2146 C2144 1.384 . S
C2146 C2147 1.372 . S
C2147 C2146 1.372 . S
C2147 C2148 1.400 . S
C2147 C2152 1.490 . S
C2148 H2138 0.930 . S
C2148 C2147 1.400 . S
C2148 C2151 1.386 . S
H2149 C2165 0.930 . S
H2150 C2166 0.931 . S
C2151 H2139 0.929 . S
C2151 C2145 1.390 . S
C2151 C2148 1.386 . S
C2152 C2147 1.490 . S
C2152 C2154 1.395 . S
C2152 C2155 1.403 . S
H2153 C2159 0.930 . S
C2154 H2140 0.930 . S
C2154 C2152 1.395 . S
C2154 C2157 1.403 . S
C2155 C2152 1.403 . S
C2155 C2156 1.524 . S
C2155 C2159 1.400 . S
C2156 H2141 0.960 . S
C2156 H2142 0.960 . S
C2156 H2143 0.960 . S
C2156 C2155 1.524 . S
C2157 C2154 1.403 . S
C2157 C2158 1.392 . S
C2157 C2161 1.495 . S
C2158 C2157 1.392 . S
C2158 C2159 1.385 . S
C2158 C2160 1.478 . S
C2159 H2153 0.930 . S
C2159 C2155 1.400 . S
C2159 C2158 1.385 . S
C2160 C2158 1.478 . S
C2160 C2162 1.381 . S
C2160 C2166 1.383 . S
C2161 C2157 1.495 . S
C2161 H2167 0.959 . S
C2161 H2168 0.961 . S
C2161 H2169 0.960 . S
C2162 C2160 1.381 . S
C2162 C2163 1.394 . S
C2162 H2170 0.930 . S
C2163 C2162 1.394 . S
C2163 C2164 1.383 . S
C2163 H2171 0.929 . S
C2164 C2163 1.383 . S
C2164 C2165 1.377 . S
C2165 H2149 0.930 . S
C2165 C2164 1.377 . S
C2165 C2166 1.379 . S
C2166 H2150 0.931 . S
C2166 C2160 1.383 . S
C2166 C2165 1.379 . S
H2167 C2161 0.959 . S
H2168 C2161 0.961 . S
H2169 C2161 0.960 . S
H2170 C2162 0.930 . S
H2171 C2163 0.929 . S
H2172 C2180 0.929 . S
H2173 C2182 0.930 . S
H2174 C2184 0.930 . S
H2175 C2187 0.929 . S
H2176 C2190 0.930 . S
H2177 C2192 0.960 . S
H2178 C2192 0.960 . S
H2179 C2192 0.960 . S
C2180 H2172 0.929 . S
C2180 C2181 1.377 . S
C2180 C2182 1.384 . S
C2181 C2180 1.377 . S
C2181 C2187 1.390 . S
C2182 H2173 0.930 . S
C2182 C2180 1.384 . S
C2182 C2183 1.372 . S
C2183 C2182 1.372 . S
C2183 C2184 1.400 . S
C2183 C2188 1.490 . S
C2184 H2174 0.930 . S
C2184 C2183 1.400 . S
C2184 C2187 1.386 . S
H2185 C2201 0.930 . S
H2186 C2202 0.931 . S
C2187 H2175 0.929 . S
C2187 C2181 1.390 . S
C2187 C2184 1.386 . S
C2188 C2183 1.490 . S
C2188 C2190 1.395 . S
C2188 C2191 1.403 . S
H2189 C2195 0.930 . S
C2190 H2176 0.930 . S
C2190 C2188 1.395 . S
C2190 C2193 1.403 . S
C2191 C2188 1.403 . S
C2191 C2192 1.524 . S
C2191 C2195 1.400 . S
C2192 H2177 0.960 . S
C2192 H2178 0.960 . S
C2192 H2179 0.960 . S
C2192 C2191 1.524 . S
C2193 C2190 1.403 . S
C2193 C2194 1.392 . S
C2193 C2197 1.495 . S
C2194 C2193 1.392 . S
C2194 C2195 1.385 . S
C2194 C2196 1.478 . S
C2195 H2189 0.930 . S
C2195 C2191 1.400 . S
C2195 C2194 1.385 . S
C2196 C2194 1.478 . S
C2196 C2198 1.381 . S
C2196 C2202 1.383 . S
C2197 C2193 1.495 . S
C2197 H2203 0.959 . S
C2197 H2204 0.961 . S
C2197 H2205 0.960 . S
C2198 C2196 1.381 . S
C2198 C2199 1.394 . S
C2198 H2206 0.930 . S
C2199 C2198 1.394 . S
C2199 C2200 1.383 . S
C2199 H2207 0.929 . S
C2200 C2199 1.383 . S
C2200 C2201 1.377 . S
C2201 H2185 0.930 . S
C2201 C2200 1.377 . S
C2201 C2202 1.379 . S
C2202 H2186 0.931 . S
C2202 C2196 1.383 . S
C2202 C2201 1.379 . S
H2203 C2197 0.959 . S
H2204 C2197 0.961 . S
H2205 C2197 0.960 . S
H2206 C2198 0.930 . S
H2207 C2199 0.929 . S
H2208 C2216 0.929 . S
H2209 C2218 0.930 . S
H2210 C2220 0.930 . S
H2211 C2223 0.929 . S
H2212 C2226 0.930 . S
H2213 C2228 0.960 . S
H2214 C2228 0.960 . S
H2215 C2228 0.960 . S
C2216 H2208 0.929 . S
C2216 C2217 1.377 . S
C2216 C2218 1.384 . S
C2217 C2216 1.377 . S
C2217 C2223 1.390 . S
C2218 H2209 0.930 . S
C2218 C2216 1.384 . S
C2218 C2219 1.372 . S
C2219 C2218 1.372 . S
C2219 C2220 1.400 . S
C2219 C2224 1.490 . S
C2220 H2210 0.930 . S
C2220 C2219 1.400 . S
C2220 C2223 1.386 . S
H2221 C2237 0.930 . S
H2222 C2238 0.931 . S
C2223 H2211 0.929 . S
C2223 C2217 1.390 . S
C2223 C2220 1.386 . S
C2224 C2219 1.490 . S
C2224 C2226 1.395 . S
C2224 C2227 1.403 . S
H2225 C2231 0.930 . S
C2226 H2212 0.930 . S
C2226 C2224 1.395 . S
C2226 C2229 1.403 . S
C2227 C2224 1.403 . S
C2227 C2228 1.524 . S
C2227 C2231 1.400 . S
C2228 H2213 0.960 . S
C2228 H2214 0.960 . S
C2228 H2215 0.960 . S
C2228 C2227 1.524 . S
C2229 C2226 1.403 . S
C2229 C2230 1.392 . S
C2229 C2233 1.495 . S
C2230 C2229 1.392 . S
C2230 C2231 1.385 . S
C2230 C2232 1.478 . S
C2231 H2225 0.930 . S
C2231 C2227 1.400 . S
C2231 C2230 1.385 . S
C2232 C2230 1.478 . S
C2232 C2234 1.381 . S
C2232 C2238 1.383 . S
C2233 C2229 1.495 . S
C2233 H2239 0.959 . S
C2233 H2240 0.961 . S
C2233 H2241 0.960 . S
C2234 C2232 1.381 . S
C2234 C2235 1.394 . S
C2234 H2242 0.930 . S
C2235 C2234 1.394 . S
C2235 C2236 1.383 . S
C2235 H2243 0.929 . S
C2236 C2235 1.383 . S
C2236 C2237 1.377 . S
C2237 H2221 0.930 . S
C2237 C2236 1.377 . S
C2237 C2238 1.379 . S
C2238 H2222 0.931 . S
C2238 C2232 1.383 . S
C2238 C2237 1.379 . S
H2239 C2233 0.959 . S
H2240 C2233 0.961 . S
H2241 C2233 0.960 . S
H2242 C2234 0.930 . S
H2243 C2235 0.929 . S
H2244 C2252 0.929 . S
H2245 C2254 0.930 . S
H2246 C2256 0.930 . S
H2247 C2259 0.929 . S
H2248 C2262 0.930 . S
H2249 C2264 0.960 . S
H2250 C2264 0.960 . S
H2251 C2264 0.960 . S
C2252 H2244 0.929 . S
C2252 C2253 1.377 . S
C2252 C2254 1.384 . S
C2253 C2252 1.377 . S
C2253 C2259 1.390 . S
C2254 H2245 0.930 . S
C2254 C2252 1.384 . S
C2254 C2255 1.372 . S
C2255 C2254 1.372 . S
C2255 C2256 1.400 . S
C2255 C2260 1.490 . S
C2256 H2246 0.930 . S
C2256 C2255 1.400 . S
C2256 C2259 1.386 . S
H2257 C2273 0.930 . S
H2258 C2274 0.931 . S
C2259 H2247 0.929 . S
C2259 C2253 1.390 . S
C2259 C2256 1.386 . S
C2260 C2255 1.490 . S
C2260 C2262 1.395 . S
C2260 C2263 1.403 . S
H2261 C2267 0.930 . S
C2262 H2248 0.930 . S
C2262 C2260 1.395 . S
C2262 C2265 1.403 . S
C2263 C2260 1.403 . S
C2263 C2264 1.524 . S
C2263 C2267 1.400 . S
C2264 H2249 0.960 . S
C2264 H2250 0.960 . S
C2264 H2251 0.960 . S
C2264 C2263 1.524 . S
C2265 C2262 1.403 . S
C2265 C2266 1.392 . S
C2265 C2269 1.495 . S
C2266 C2265 1.392 . S
C2266 C2267 1.385 . S
C2266 C2268 1.478 . S
C2267 H2261 0.930 . S
C2267 C2263 1.400 . S
C2267 C2266 1.385 . S
C2268 C2266 1.478 . S
C2268 C2270 1.381 . S
C2268 C2274 1.383 . S
C2269 C2265 1.495 . S
C2269 H2275 0.959 . S
C2269 H2276 0.961 . S
C2269 H2277 0.960 . S
C2270 C2268 1.381 . S
C2270 C2271 1.394 . S
C2270 H2278 0.930 . S
C2271 C2270 1.394 . S
C2271 C2272 1.383 . S
C2271 H2279 0.929 . S
C2272 C2271 1.383 . S
C2272 C2273 1.377 . S
C2273 H2257 0.930 . S
C2273 C2272 1.377 . S
C2273 C2274 1.379 . S
C2274 H2258 0.931 . S
C2274 C2268 1.383 . S
C2274 C2273 1.379 . S
H2275 C2269 0.959 . S
H2276 C2269 0.961 . S
H2277 C2269 0.960 . S
H2278 C2270 0.930 . S
H2279 C2271 0.929 . S
H2280 C2288 0.929 . S
H2281 C2290 0.930 . S
H2282 C2292 0.930 . S
H2283 C2295 0.929 . S
H2284 C2298 0.930 . S
H2285 C2300 0.960 . S
H2286 C2300 0.960 . S
H2287 C2300 0.960 . S
C2288 H2280 0.929 . S
C2288 C2289 1.377 . S
C2288 C2290 1.384 . S
C2289 C2288 1.377 . S
C2289 C2295 1.390 . S
C2290 H2281 0.930 . S
C2290 C2288 1.384 . S
C2290 C2291 1.372 . S
C2291 C2290 1.372 . S
C2291 C2292 1.400 . S
C2291 C2296 1.490 . S
C2292 H2282 0.930 . S
C2292 C2291 1.400 . S
C2292 C2295 1.386 . S
H2293 C2309 0.930 . S
H2294 C2310 0.931 . S
C2295 H2283 0.929 . S
C2295 C2289 1.390 . S
C2295 C2292 1.386 . S
C2296 C2291 1.490 . S
C2296 C2298 1.395 . S
C2296 C2299 1.403 . S
H2297 C2303 0.930 . S
C2298 H2284 0.930 . S
C2298 C2296 1.395 . S
C2298 C2301 1.403 . S
C2299 C2296 1.403 . S
C2299 C2300 1.524 . S
C2299 C2303 1.400 . S
C2300 H2285 0.960 . S
C2300 H2286 0.960 . S
C2300 H2287 0.960 . S
C2300 C2299 1.524 . S
C2301 C2298 1.403 . S
C2301 C2302 1.392 . S
C2301 C2305 1.495 . S
C2302 C2301 1.392 . S
C2302 C2303 1.385 . S
C2302 C2304 1.478 . S
C2303 H2297 0.930 . S
C2303 C2299 1.400 . S
C2303 C2302 1.385 . S
C2304 C2302 1.478 . S
C2304 C2306 1.381 . S
C2304 C2310 1.383 . S
C2305 C2301 1.495 . S
C2305 H2311 0.959 . S
C2305 H2312 0.961 . S
C2305 H2313 0.960 . S
C2306 C2304 1.381 . S
C2306 C2307 1.394 . S
C2306 H2314 0.930 . S
C2307 C2306 1.394 . S
C2307 C2308 1.383 . S
C2307 H2315 0.929 . S
C2308 C2307 1.383 . S
C2308 C2309 1.377 . S
C2309 H2293 0.930 . S
C2309 C2308 1.377 . S
C2309 C2310 1.379 . S
C2310 H2294 0.931 . S
C2310 C2304 1.383 . S
C2310 C2309 1.379 . S
H2311 C2305 0.959 . S
H2312 C2305 0.961 . S
H2313 C2305 0.960 . S
H2314 C2306 0.930 . S
H2315 C2307 0.929 . S
H2316 C2324 0.929 . S
H2317 C2326 0.930 . S
H2318 C2328 0.930 . S
H2319 C2331 0.929 . S
H2320 C2334 0.930 . S
H2321 C2336 0.960 . S
H2322 C2336 0.960 . S
H2323 C2336 0.960 . S
C2324 H2316 0.929 . S
C2324 C2325 1.377 . S
C2324 C2326 1.384 . S
C2325 C2324 1.377 . S
C2325 C2331 1.390 . S
C2326 H2317 0.930 . S
C2326 C2324 1.384 . S
C2326 C2327 1.372 . S
C2327 C2326 1.372 . S
C2327 C2328 1.400 . S
C2327 C2332 1.490 . S
C2328 H2318 0.930 . S
C2328 C2327 1.400 . S
C2328 C2331 1.386 . S
H2329 C2345 0.930 . S
H2330 C2346 0.931 . S
C2331 H2319 0.929 . S
C2331 C2325 1.390 . S
C2331 C2328 1.386 . S
C2332 C2327 1.490 . S
C2332 C2334 1.395 . S
C2332 C2335 1.403 . S
H2333 C2339 0.930 . S
C2334 H2320 0.930 . S
C2334 C2332 1.395 . S
C2334 C2337 1.403 . S
C2335 C2332 1.403 . S
C2335 C2336 1.524 . S
C2335 C2339 1.400 . S
C2336 H2321 0.960 . S
C2336 H2322 0.960 . S
C2336 H2323 0.960 . S
C2336 C2335 1.524 . S
C2337 C2334 1.403 . S
C2337 C2338 1.392 . S
C2337 C2341 1.495 . S
C2338 C2337 1.392 . S
C2338 C2339 1.385 . S
C2338 C2340 1.478 . S
C2339 H2333 0.930 . S
C2339 C2335 1.400 . S
C2339 C2338 1.385 . S
C2340 C2338 1.478 . S
C2340 C2342 1.381 . S
C2340 C2346 1.383 . S
C2341 C2337 1.495 . S
C2341 H2347 0.959 . S
C2341 H2348 0.961 . S
C2341 H2349 0.960 . S
C2342 C2340 1.381 . S
C2342 C2343 1.394 . S
C2342 H2350 0.930 . S
C2343 C2342 1.394 . S
C2343 C2344 1.383 . S
C2343 H2351 0.929 . S
C2344 C2343 1.383 . S
C2344 C2345 1.377 . S
C2345 H2329 0.930 . S
C2345 C2344 1.377 . S
C2345 C2346 1.379 . S
C2346 H2330 0.931 . S
C2346 C2340 1.383 . S
C2346 C2345 1.379 . S
H2347 C2341 0.959 . S
H2348 C2341 0.961 . S
H2349 C2341 0.960 . S
H2350 C2342 0.930 . S
H2351 C2343 0.929 . S
H2352 C2360 0.929 . S
H2353 C2362 0.930 . S
H2354 C2364 0.930 . S
H2355 C2367 0.929 . S
H2356 C2370 0.930 . S
H2357 C2372 0.960 . S
H2358 C2372 0.960 . S
H2359 C2372 0.960 . S
C2360 H2352 0.929 . S
C2360 C2361 1.377 . S
C2360 C2362 1.384 . S
C2361 C2360 1.377 . S
C2361 C2367 1.390 . S
C2362 H2353 0.930 . S
C2362 C2360 1.384 . S
C2362 C2363 1.372 . S
C2363 C2362 1.372 . S
C2363 C2364 1.400 . S
C2363 C2368 1.490 . S
C2364 H2354 0.930 . S
C2364 C2363 1.400 . S
C2364 C2367 1.386 . S
H2365 C2381 0.930 . S
H2366 C2382 0.931 . S
C2367 H2355 0.929 . S
C2367 C2361 1.390 . S
C2367 C2364 1.386 . S
C2368 C2363 1.490 . S
C2368 C2370 1.395 . S
C2368 C2371 1.403 . S
H2369 C2375 0.930 . S
C2370 H2356 0.930 . S
C2370 C2368 1.395 . S
C2370 C2373 1.403 . S
C2371 C2368 1.403 . S
C2371 C2372 1.524 . S
C2371 C2375 1.400 . S
C2372 H2357 0.960 . S
C2372 H2358 0.960 . S
C2372 H2359 0.960 . S
C2372 C2371 1.524 . S
C2373 C2370 1.403 . S
C2373 C2374 1.392 . S
C2373 C2377 1.495 . S
C2374 C2373 1.392 . S
C2374 C2375 1.385 . S
C2374 C2376 1.478 . S
C2375 H2369 0.930 . S
C2375 C2371 1.400 . S
C2375 C2374 1.385 . S
C2376 C2374 1.478 . S
C2376 C2378 1.381 . S
C2376 C2382 1.383 . S
C2377 C2373 1.495 . S
C2377 H2383 0.959 . S
C2377 H2384 0.961 . S
C2377 H2385 0.960 . S
C2378 C2376 1.381 . S
C2378 C2379 1.394 . S
C2378 H2386 0.930 . S
C2379 C2378 1.394 . S
C2379 C2380 1.383 . S
C2379 H2387 0.929 . S
C2380 C2379 1.383 . S
C2380 C2381 1.377 . S
C2381 H2365 0.930 . S
C2381 C2380 1.377 . S
C2381 C2382 1.379 . S
C2382 H2366 0.931 . S
C2382 C2376 1.383 . S
C2382 C2381 1.379 . S
H2383 C2377 0.959 . S
H2384 C2377 0.961 . S
H2385 C2377 0.960 . S
H2386 C2378 0.930 . S
H2387 C2379 0.929 . S
H2388 C2396 0.929 . S
H2389 C2398 0.930 . S
H2390 C2400 0.930 . S
H2391 C2403 0.929 . S
H2392 C2406 0.930 . S
H2393 C2408 0.960 . S
H2394 C2408 0.960 . S
H2395 C2408 0.960 . S
C2396 H2388 0.929 . S
C2396 C2397 1.377 . S
C2396 C2398 1.384 . S
C2397 C2396 1.377 . S
C2397 C2403 1.390 . S
C2398 H2389 0.930 . S
C2398 C2396 1.384 . S
C2398 C2399 1.372 . S
C2399 C2398 1.372 . S
C2399 C2400 1.400 . S
C2399 C2404 1.490 . S
C2400 H2390 0.930 . S
C2400 C2399 1.400 . S
C2400 C2403 1.386 . S
H2401 C2417 0.930 . S
H2402 C2418 0.931 . S
C2403 H2391 0.929 . S
C2403 C2397 1.390 . S
C2403 C2400 1.386 . S
C2404 C2399 1.490 . S
C2404 C2406 1.395 . S
C2404 C2407 1.403 . S
H2405 C2411 0.930 . S
C2406 H2392 0.930 . S
C2406 C2404 1.395 . S
C2406 C2409 1.403 . S
C2407 C2404 1.403 . S
C2407 C2408 1.524 . S
C2407 C2411 1.400 . S
C2408 H2393 0.960 . S
C2408 H2394 0.960 . S
C2408 H2395 0.960 . S
C2408 C2407 1.524 . S
C2409 C2406 1.403 . S
C2409 C2410 1.392 . S
C2409 C2413 1.495 . S
C2410 C2409 1.392 . S
C2410 C2411 1.385 . S
C2410 C2412 1.478 . S
C2411 H2405 0.930 . S
C2411 C2407 1.400 . S
C2411 C2410 1.385 . S
C2412 C2410 1.478 . S
C2412 C2414 1.381 . S
C2412 C2418 1.383 . S
C2413 C2409 1.495 . S
C2413 H2419 0.959 . S
C2413 H2420 0.961 . S
C2413 H2421 0.960 . S
C2414 C2412 1.381 . S
C2414 C2415 1.394 . S
C2414 H2422 0.930 . S
C2415 C2414 1.394 . S
C2415 C2416 1.383 . S
C2415 H2423 0.929 . S
C2416 C2415 1.383 . S
C2416 C2417 1.377 . S
C2417 H2401 0.930 . S
C2417 C2416 1.377 . S
C2417 C2418 1.379 . S
C2418 H2402 0.931 . S
C2418 C2412 1.383 . S
C2418 C2417 1.379 . S
H2419 C2413 0.959 . S
H2420 C2413 0.961 . S
H2421 C2413 0.960 . S
H2422 C2414 0.930 . S
H2423 C2415 0.929 . S
H2424 C2432 0.929 . S
H2425 C2434 0.930 . S
H2426 C2436 0.930 . S
H2427 C2439 0.929 . S
H2428 C2442 0.930 . S
H2429 C2444 0.960 . S
H2430 C2444 0.960 . S
H2431 C2444 0.960 . S
C2432 H2424 0.929 . S
C2432 C2433 1.377 . S
C2432 C2434 1.384 . S
C2433 C2432 1.377 . S
C2433 C2439 1.390 . S
C2434 H2425 0.930 . S
C2434 C2432 1.384 . S
C2434 C2435 1.372 . S
C2435 C2434 1.372 . S
C2435 C2436 1.400 . S
C2435 C2440 1.490 . S
C2436 H2426 0.930 . S
C2436 C2435 1.400 . S
C2436 C2439 1.386 . S
H2437 C2453 0.930 . S
H2438 C2454 0.931 . S
C2439 H2427 0.929 . S
C2439 C2433 1.390 . S
C2439 C2436 1.386 . S
C2440 C2435 1.490 . S
C2440 C2442 1.395 . S
C2440 C2443 1.403 . S
H2441 C2447 0.930 . S
C2442 H2428 0.930 . S
C2442 C2440 1.395 . S
C2442 C2445 1.403 . S
C2443 C2440 1.403 . S
C2443 C2444 1.524 . S
C2443 C2447 1.400 . S
C2444 H2429 0.960 . S
C2444 H2430 0.960 . S
C2444 H2431 0.960 . S
C2444 C2443 1.524 . S
C2445 C2442 1.403 . S
C2445 C2446 1.392 . S
C2445 C2449 1.495 . S
C2446 C2445 1.392 . S
C2446 C2447 1.385 . S
C2446 C2448 1.478 . S
C2447 H2441 0.930 . S
C2447 C2443 1.400 . S
C2447 C2446 1.385 . S
C2448 C2446 1.478 . S
C2448 C2450 1.381 . S
C2448 C2454 1.383 . S
C2449 C2445 1.495 . S
C2449 H2455 0.959 . S
C2449 H2456 0.961 . S
C2449 H2457 0.960 . S
C2450 C2448 1.381 . S
C2450 C2451 1.394 . S
C2450 H2458 0.930 . S
C2451 C2450 1.394 . S
C2451 C2452 1.383 . S
C2451 H2459 0.929 . S
C2452 C2451 1.383 . S
C2452 C2453 1.377 . S
C2453 H2437 0.930 . S
C2453 C2452 1.377 . S
C2453 C2454 1.379 . S
C2454 H2438 0.931 . S
C2454 C2448 1.383 . S
C2454 C2453 1.379 . S
H2455 C2449 0.959 . S
H2456 C2449 0.961 . S
H2457 C2449 0.960 . S
H2458 C2450 0.930 . S
H2459 C2451 0.929 . S
H2460 C2468 0.929 . S
H2461 C2470 0.930 . S
H2462 C2472 0.930 . S
H2463 C2475 0.929 . S
H2464 C2478 0.930 . S
H2465 C2480 0.960 . S
H2466 C2480 0.960 . S
H2467 C2480 0.960 . S
C2468 H2460 0.929 . S
C2468 C2469 1.377 . S
C2468 C2470 1.384 . S
C2469 C2468 1.377 . S
C2469 C2475 1.390 . S
C2470 H2461 0.930 . S
C2470 C2468 1.384 . S
C2470 C2471 1.372 . S
C2471 C2470 1.372 . S
C2471 C2472 1.400 . S
C2471 C2476 1.490 . S
C2472 H2462 0.930 . S
C2472 C2471 1.400 . S
C2472 C2475 1.386 . S
H2473 C2489 0.930 . S
H2474 C2490 0.931 . S
C2475 H2463 0.929 . S
C2475 C2469 1.390 . S
C2475 C2472 1.386 . S
C2476 C2471 1.490 . S
C2476 C2478 1.395 . S
C2476 C2479 1.403 . S
H2477 C2483 0.930 . S
C2478 H2464 0.930 . S
C2478 C2476 1.395 . S
C2478 C2481 1.403 . S
C2479 C2476 1.403 . S
C2479 C2480 1.524 . S
C2479 C2483 1.400 . S
C2480 H2465 0.960 . S
C2480 H2466 0.960 . S
C2480 H2467 0.960 . S
C2480 C2479 1.524 . S
C2481 C2478 1.403 . S
C2481 C2482 1.392 . S
C2481 C2485 1.495 . S
C2482 C2481 1.392 . S
C2482 C2483 1.385 . S
C2482 C2484 1.478 . S
C2483 H2477 0.930 . S
C2483 C2479 1.400 . S
C2483 C2482 1.385 . S
C2484 C2482 1.478 . S
C2484 C2486 1.381 . S
C2484 C2490 1.383 . S
C2485 C2481 1.495 . S
C2485 H2491 0.959 . S
C2485 H2492 0.961 . S
C2485 H2493 0.960 . S
C2486 C2484 1.381 . S
C2486 C2487 1.394 . S
C2486 H2494 0.930 . S
C2487 C2486 1.394 . S
C2487 C2488 1.383 . S
C2487 H2495 0.929 . S
C2488 C2487 1.383 . S
C2488 C2489 1.377 . S
C2489 H2473 0.930 . S
C2489 C2488 1.377 . S
C2489 C2490 1.379 . S
C2490 H2474 0.931 . S
C2490 C2484 1.383 . S
C2490 C2489 1.379 . S
H2491 C2485 0.959 . S
H2492 C2485 0.961 . S
H2493 C2485 0.960 . S
H2494 C2486 0.930 . S
H2495 C2487 0.929 . S
H2496 C2504 0.929 . S
H2497 C2506 0.930 . S
H2498 C2508 0.930 . S
H2499 C2511 0.929 . S
H2500 C2514 0.930 . S
H2501 C2516 0.960 . S
H2502 C2516 0.960 . S
H2503 C2516 0.960 . S
C2504 H2496 0.929 . S
C2504 C2505 1.377 . S
C2504 C2506 1.384 . S
C2505 C2504 1.377 . S
C2505 C2511 1.390 . S
C2506 H2497 0.930 . S
C2506 C2504 1.384 . S
C2506 C2507 1.372 . S
C2507 C2506 1.372 . S
C2507 C2508 1.400 . S
C2507 C2512 1.490 . S
C2508 H2498 0.930 . S
C2508 C2507 1.400 . S
C2508 C2511 1.386 . S
H2509 C2525 0.930 . S
H2510 C2526 0.931 . S
C2511 H2499 0.929 . S
C2511 C2505 1.390 . S
C2511 C2508 1.386 . S
C2512 C2507 1.490 . S
C2512 C2514 1.395 . S
C2512 C2515 1.403 . S
H2513 C2519 0.930 . S
C2514 H2500 0.930 . S
C2514 C2512 1.395 . S
C2514 C2517 1.403 . S
C2515 C2512 1.403 . S
C2515 C2516 1.524 . S
C2515 C2519 1.400 . S
C2516 H2501 0.960 . S
C2516 H2502 0.960 . S
C2516 H2503 0.960 . S
C2516 C2515 1.524 . S
C2517 C2514 1.403 . S
C2517 C2518 1.392 . S
C2517 C2521 1.495 . S
C2518 C2517 1.392 . S
C2518 C2519 1.385 . S
C2518 C2520 1.478 . S
C2519 H2513 0.930 . S
C2519 C2515 1.400 . S
C2519 C2518 1.385 . S
C2520 C2518 1.478 . S
C2520 C2522 1.381 . S
C2520 C2526 1.383 . S
C2521 C2517 1.495 . S
C2521 H2527 0.959 . S
C2521 H2528 0.961 . S
C2521 H2529 0.960 . S
C2522 C2520 1.381 . S
C2522 C2523 1.394 . S
C2522 H2530 0.930 . S
C2523 C2522 1.394 . S
C2523 C2524 1.383 . S
C2523 H2531 0.929 . S
C2524 C2523 1.383 . S
C2524 C2525 1.377 . S
C2525 H2509 0.930 . S
C2525 C2524 1.377 . S
C2525 C2526 1.379 . S
C2526 H2510 0.931 . S
C2526 C2520 1.383 . S
C2526 C2525 1.379 . S
H2527 C2521 0.959 . S
H2528 C2521 0.961 . S
H2529 C2521 0.960 . S
H2530 C2522 0.930 . S
H2531 C2523 0.929 . S
H2532 C2540 0.929 . S
H2533 C2542 0.930 . S
H2534 C2544 0.930 . S
H2535 C2547 0.929 . S
H2536 C2550 0.930 . S
H2537 C2552 0.960 . S
H2538 C2552 0.960 . S
H2539 C2552 0.960 . S
C2540 H2532 0.929 . S
C2540 C2541 1.377 . S
C2540 C2542 1.384 . S
C2541 C2540 1.377 . S
C2541 C2547 1.390 . S
C2542 H2533 0.930 . S
C2542 C2540 1.384 . S
C2542 C2543 1.372 . S
C2543 C2542 1.372 . S
C2543 C2544 1.400 . S
C2543 C2548 1.490 . S
C2544 H2534 0.930 . S
C2544 C2543 1.400 . S
C2544 C2547 1.386 . S
H2545 C2561 0.930 . S
H2546 C2562 0.931 . S
C2547 H2535 0.929 . S
C2547 C2541 1.390 . S
C2547 C2544 1.386 . S
C2548 C2543 1.490 . S
C2548 C2550 1.395 . S
C2548 C2551 1.403 . S
H2549 C2555 0.930 . S
C2550 H2536 0.930 . S
C2550 C2548 1.395 . S
C2550 C2553 1.403 . S
C2551 C2548 1.403 . S
C2551 C2552 1.524 . S
C2551 C2555 1.400 . S
C2552 H2537 0.960 . S
C2552 H2538 0.960 . S
C2552 H2539 0.960 . S
C2552 C2551 1.524 . S
C2553 C2550 1.403 . S
C2553 C2554 1.392 . S
C2553 C2557 1.495 . S
C2554 C2553 1.392 . S
C2554 C2555 1.385 . S
C2554 C2556 1.478 . S
C2555 H2549 0.930 . S
C2555 C2551 1.400 . S
C2555 C2554 1.385 . S
C2556 C2554 1.478 . S
C2556 C2558 1.381 . S
C2556 C2562 1.383 . S
C2557 C2553 1.495 . S
C2557 H2563 0.959 . S
C2557 H2564 0.961 . S
C2557 H2565 0.960 . S
C2558 C2556 1.381 . S
C2558 C2559 1.394 . S
C2558 H2566 0.930 . S
C2559 C2558 1.394 . S
C2559 C2560 1.383 . S
C2559 H2567 0.929 . S
C2560 C2559 1.383 . S
C2560 C2561 1.377 . S
C2561 H2545 0.930 . S
C2561 C2560 1.377 . S
C2561 C2562 1.379 . S
C2562 H2546 0.931 . S
C2562 C2556 1.383 . S
C2562 C2561 1.379 . S
H2563 C2557 0.959 . S
H2564 C2557 0.961 . S
H2565 C2557 0.960 . S
H2566 C2558 0.930 . S
H2567 C2559 0.929 . S
H2568 C2576 0.929 . S
H2569 C2578 0.930 . S
H2570 C2580 0.930 . S
H2571 C2583 0.929 . S
H2572 C2586 0.930 . S
H2573 C2588 0.960 . S
H2574 C2588 0.960 . S
H2575 C2588 0.960 . S
C2576 H2568 0.929 . S
C2576 C2577 1.377 . S
C2576 C2578 1.384 . S
C2577 C2576 1.377 . S
C2577 C2583 1.390 . S
C2578 H2569 0.930 . S
C2578 C2576 1.384 . S
C2578 C2579 1.372 . S
C2579 C2578 1.372 . S
C2579 C2580 1.400 . S
C2579 C2584 1.490 . S
C2580 H2570 0.930 . S
C2580 C2579 1.400 . S
C2580 C2583 1.386 . S
H2581 C2597 0.930 . S
H2582 C2598 0.931 . S
C2583 H2571 0.929 . S
C2583 C2577 1.390 . S
C2583 C2580 1.386 . S
C2584 C2579 1.490 . S
C2584 C2586 1.395 . S
C2584 C2587 1.403 . S
H2585 C2591 0.930 . S
C2586 H2572 0.930 . S
C2586 C2584 1.395 . S
C2586 C2589 1.403 . S
C2587 C2584 1.403 . S
C2587 C2588 1.524 . S
C2587 C2591 1.400 . S
C2588 H2573 0.960 . S
C2588 H2574 0.960 . S
C2588 H2575 0.960 . S
C2588 C2587 1.524 . S
C2589 C2586 1.403 . S
C2589 C2590 1.392 . S
C2589 C2593 1.495 . S
C2590 C2589 1.392 . S
C2590 C2591 1.385 . S
C2590 C2592 1.478 . S
C2591 H2585 0.930 . S
C2591 C2587 1.400 . S
C2591 C2590 1.385 . S
C2592 C2590 1.478 . S
C2592 C2594 1.381 . S
C2592 C2598 1.383 . S
C2593 C2589 1.495 . S
C2593 H2599 0.959 . S
C2593 H2600 0.961 . S
C2593 H2601 0.960 . S
C2594 C2592 1.381 . S
C2594 C2595 1.394 . S
C2594 H2602 0.930 . S
C2595 C2594 1.394 . S
C2595 C2596 1.383 . S
C2595 H2603 0.929 . S
C2596 C2595 1.383 . S
C2596 C2597 1.377 . S
C2597 H2581 0.930 . S
C2597 C2596 1.377 . S
C2597 C2598 1.379 . S
C2598 H2582 0.931 . S
C2598 C2592 1.383 . S
C2598 C2597 1.379 . S
H2599 C2593 0.959 . S
H2600 C2593 0.961 . S
H2601 C2593 0.960 . S
H2602 C2594 0.930 . S
H2603 C2595 0.929 . S
H2604 C2612 0.929 . S
H2605 C2614 0.930 . S
H2606 C2616 0.930 . S
H2607 C2619 0.929 . S
H2608 C2622 0.930 . S
H2609 C2624 0.960 . S
H2610 C2624 0.960 . S
H2611 C2624 0.960 . S
C2612 H2604 0.929 . S
C2612 C2613 1.377 . S
C2612 C2614 1.384 . S
C2613 C2612 1.377 . S
C2613 C2619 1.390 . S
C2614 H2605 0.930 . S
C2614 C2612 1.384 . S
C2614 C2615 1.372 . S
C2615 C2614 1.372 . S
C2615 C2616 1.400 . S
C2615 C2620 1.490 . S
C2616 H2606 0.930 . S
C2616 C2615 1.400 . S
C2616 C2619 1.386 . S
H2617 C2633 0.930 . S
H2618 C2634 0.931 . S
C2619 H2607 0.929 . S
C2619 C2613 1.390 . S
C2619 C2616 1.386 . S
C2620 C2615 1.490 . S
C2620 C2622 1.395 . S
C2620 C2623 1.403 . S
H2621 C2627 0.930 . S
C2622 H2608 0.930 . S
C2622 C2620 1.395 . S
C2622 C2625 1.403 . S
C2623 C2620 1.403 . S
C2623 C2624 1.524 . S
C2623 C2627 1.400 . S
C2624 H2609 0.960 . S
C2624 H2610 0.960 . S
C2624 H2611 0.960 . S
C2624 C2623 1.524 . S
C2625 C2622 1.403 . S
C2625 C2626 1.392 . S
C2625 C2629 1.495 . S
C2626 C2625 1.392 . S
C2626 C2627 1.385 . S
C2626 C2628 1.478 . S
C2627 H2621 0.930 . S
C2627 C2623 1.400 . S
C2627 C2626 1.385 . S
C2628 C2626 1.478 . S
C2628 C2630 1.381 . S
C2628 C2634 1.383 . S
C2629 C2625 1.495 . S
C2629 H2635 0.959 . S
C2629 H2636 0.961 . S
C2629 H2637 0.960 . S
C2630 C2628 1.381 . S
C2630 C2631 1.394 . S
C2630 H2638 0.930 . S
C2631 C2630 1.394 . S
C2631 C2632 1.383 . S
C2631 H2639 0.929 . S
C2632 C2631 1.383 . S
C2632 C2633 1.377 . S
C2633 H2617 0.930 . S
C2633 C2632 1.377 . S
C2633 C2634 1.379 . S
C2634 H2618 0.931 . S
C2634 C2628 1.383 . S
C2634 C2633 1.379 . S
H2635 C2629 0.959 . S
H2636 C2629 0.961 . S
H2637 C2629 0.960 . S
H2638 C2630 0.930 . S
H2639 C2631 0.929 . S
H2640 C2648 0.929 . S
H2641 C2650 0.930 . S
H2642 C2652 0.930 . S
H2643 C2655 0.929 . S
H2644 C2658 0.930 . S
H2645 C2660 0.960 . S
H2646 C2660 0.960 . S
H2647 C2660 0.960 . S
C2648 H2640 0.929 . S
C2648 C2649 1.377 . S
C2648 C2650 1.384 . S
C2649 C2648 1.377 . S
C2649 C2655 1.390 . S
C2650 H2641 0.930 . S
C2650 C2648 1.384 . S
C2650 C2651 1.372 . S
C2651 C2650 1.372 . S
C2651 C2652 1.400 . S
C2651 C2656 1.490 . S
C2652 H2642 0.930 . S
C2652 C2651 1.400 . S
C2652 C2655 1.386 . S
H2653 C2669 0.930 . S
H2654 C2670 0.931 . S
C2655 H2643 0.929 . S
C2655 C2649 1.390 . S
C2655 C2652 1.386 . S
C2656 C2651 1.490 . S
C2656 C2658 1.395 . S
C2656 C2659 1.403 . S
H2657 C2663 0.930 . S
C2658 H2644 0.930 . S
C2658 C2656 1.395 . S
C2658 C2661 1.403 . S
C2659 C2656 1.403 . S
C2659 C2660 1.524 . S
C2659 C2663 1.400 . S
C2660 H2645 0.960 . S
C2660 H2646 0.960 . S
C2660 H2647 0.960 . S
C2660 C2659 1.524 . S
C2661 C2658 1.403 . S
C2661 C2662 1.392 . S
C2661 C2665 1.495 . S
C2662 C2661 1.392 . S
C2662 C2663 1.385 . S
C2662 C2664 1.478 . S
C2663 H2657 0.930 . S
C2663 C2659 1.400 . S
C2663 C2662 1.385 . S
C2664 C2662 1.478 . S
C2664 C2666 1.381 . S
C2664 C2670 1.383 . S
C2665 C2661 1.495 . S
C2665 H2671 0.959 . S
C2665 H2672 0.961 . S
C2665 H2673 0.960 . S
C2666 C2664 1.381 . S
C2666 C2667 1.394 . S
C2666 H2674 0.930 . S
C2667 C2666 1.394 . S
C2667 C2668 1.383 . S
C2667 H2675 0.929 . S
C2668 C2667 1.383 . S
C2668 C2669 1.377 . S
C2669 H2653 0.930 . S
C2669 C2668 1.377 . S
C2669 C2670 1.379 . S
C2670 H2654 0.931 . S
C2670 C2664 1.383 . S
C2670 C2669 1.379 . S
H2671 C2665 0.959 . S
H2672 C2665 0.961 . S
H2673 C2665 0.960 . S
H2674 C2666 0.930 . S
H2675 C2667 0.929 . S
H2676 C2684 0.929 . S
H2677 C2686 0.930 . S
H2678 C2688 0.930 . S
H2679 C2691 0.929 . S
H2680 C2694 0.930 . S
H2681 C2696 0.960 . S
H2682 C2696 0.960 . S
H2683 C2696 0.960 . S
C2684 H2676 0.929 . S
C2684 C2685 1.377 . S
C2684 C2686 1.384 . S
C2685 C2684 1.377 . S
C2685 C2691 1.390 . S
C2686 H2677 0.930 . S
C2686 C2684 1.384 . S
C2686 C2687 1.372 . S
C2687 C2686 1.372 . S
C2687 C2688 1.400 . S
C2687 C2692 1.490 . S
C2688 H2678 0.930 . S
C2688 C2687 1.400 . S
C2688 C2691 1.386 . S
H2689 C2705 0.930 . S
H2690 C2706 0.931 . S
C2691 H2679 0.929 . S
C2691 C2685 1.390 . S
C2691 C2688 1.386 . S
C2692 C2687 1.490 . S
C2692 C2694 1.395 . S
C2692 C2695 1.403 . S
H2693 C2699 0.930 . S
C2694 H2680 0.930 . S
C2694 C2692 1.395 . S
C2694 C2697 1.403 . S
C2695 C2692 1.403 . S
C2695 C2696 1.524 . S
C2695 C2699 1.400 . S
C2696 H2681 0.960 . S
C2696 H2682 0.960 . S
C2696 H2683 0.960 . S
C2696 C2695 1.524 . S
C2697 C2694 1.403 . S
C2697 C2698 1.392 . S
C2697 C2701 1.495 . S
C2698 C2697 1.392 . S
C2698 C2699 1.385 . S
C2698 C2700 1.478 . S
C2699 H2693 0.930 . S
C2699 C2695 1.400 . S
C2699 C2698 1.385 . S
C2700 C2698 1.478 . S
C2700 C2702 1.381 . S
C2700 C2706 1.383 . S
C2701 C2697 1.495 . S
C2701 H2707 0.959 . S
C2701 H2708 0.961 . S
C2701 H2709 0.960 . S
C2702 C2700 1.381 . S
C2702 C2703 1.394 . S
C2702 H2710 0.930 . S
C2703 C2702 1.394 . S
C2703 C2704 1.383 . S
C2703 H2711 0.929 . S
C2704 C2703 1.383 . S
C2704 C2705 1.377 . S
C2705 H2689 0.930 . S
C2705 C2704 1.377 . S
C2705 C2706 1.379 . S
C2706 H2690 0.931 . S
C2706 C2700 1.383 . S
C2706 C2705 1.379 . S
H2707 C2701 0.959 . S
H2708 C2701 0.961 . S
H2709 C2701 0.960 . S
H2710 C2702 0.930 . S
H2711 C2703 0.929 . S
H2712 C2720 0.929 . S
H2713 C2722 0.930 . S
H2714 C2724 0.930 . S
H2715 C2727 0.929 . S
H2716 C2730 0.930 . S
H2717 C2732 0.960 . S
H2718 C2732 0.960 . S
H2719 C2732 0.960 . S
C2720 H2712 0.929 . S
C2720 C2721 1.377 . S
C2720 C2722 1.384 . S
C2721 C2720 1.377 . S
C2721 C2727 1.390 . S
C2722 H2713 0.930 . S
C2722 C2720 1.384 . S
C2722 C2723 1.372 . S
C2723 C2722 1.372 . S
C2723 C2724 1.400 . S
C2723 C2728 1.490 . S
C2724 H2714 0.930 . S
C2724 C2723 1.400 . S
C2724 C2727 1.386 . S
H2725 C2741 0.930 . S
H2726 C2742 0.931 . S
C2727 H2715 0.929 . S
C2727 C2721 1.390 . S
C2727 C2724 1.386 . S
C2728 C2723 1.490 . S
C2728 C2730 1.395 . S
C2728 C2731 1.403 . S
H2729 C2735 0.930 . S
C2730 H2716 0.930 . S
C2730 C2728 1.395 . S
C2730 C2733 1.403 . S
C2731 C2728 1.403 . S
C2731 C2732 1.524 . S
C2731 C2735 1.400 . S
C2732 H2717 0.960 . S
C2732 H2718 0.960 . S
C2732 H2719 0.960 . S
C2732 C2731 1.524 . S
C2733 C2730 1.403 . S
C2733 C2734 1.392 . S
C2733 C2737 1.495 . S
C2734 C2733 1.392 . S
C2734 C2735 1.385 . S
C2734 C2736 1.478 . S
C2735 H2729 0.930 . S
C2735 C2731 1.400 . S
C2735 C2734 1.385 . S
C2736 C2734 1.478 . S
C2736 C2738 1.381 . S
C2736 C2742 1.383 . S
C2737 C2733 1.495 . S
C2737 H2743 0.959 . S
C2737 H2744 0.961 . S
C2737 H2745 0.960 . S
C2738 C2736 1.381 . S
C2738 C2739 1.394 . S
C2738 H2746 0.930 . S
C2739 C2738 1.394 . S
C2739 C2740 1.383 . S
C2739 H2747 0.929 . S
C2740 C2739 1.383 . S
C2740 C2741 1.377 . S
C2741 H2725 0.930 . S
C2741 C2740 1.377 . S
C2741 C2742 1.379 . S
C2742 H2726 0.931 . S
C2742 C2736 1.383 . S
C2742 C2741 1.379 . S
H2743 C2737 0.959 . S
H2744 C2737 0.961 . S
H2745 C2737 0.960 . S
H2746 C2738 0.930 . S
H2747 C2739 0.929 . S
H2748 C2756 0.929 . S
H2749 C2758 0.930 . S
H2750 C2760 0.930 . S
H2751 C2763 0.929 . S
H2752 C2766 0.930 . S
H2753 C2768 0.960 . S
H2754 C2768 0.960 . S
H2755 C2768 0.960 . S
C2756 H2748 0.929 . S
C2756 C2757 1.377 . S
C2756 C2758 1.384 . S
C2757 C2756 1.377 . S
C2757 C2763 1.390 . S
C2758 H2749 0.930 . S
C2758 C2756 1.384 . S
C2758 C2759 1.372 . S
C2759 C2758 1.372 . S
C2759 C2760 1.400 . S
C2759 C2764 1.490 . S
C2760 H2750 0.930 . S
C2760 C2759 1.400 . S
C2760 C2763 1.386 . S
H2761 C2777 0.930 . S
H2762 C2778 0.931 . S
C2763 H2751 0.929 . S
C2763 C2757 1.390 . S
C2763 C2760 1.386 . S
C2764 C2759 1.490 . S
C2764 C2766 1.395 . S
C2764 C2767 1.403 . S
H2765 C2771 0.930 . S
C2766 H2752 0.930 . S
C2766 C2764 1.395 . S
C2766 C2769 1.403 . S
C2767 C2764 1.403 . S
C2767 C2768 1.524 . S
C2767 C2771 1.400 . S
C2768 H2753 0.960 . S
C2768 H2754 0.960 . S
C2768 H2755 0.960 . S
C2768 C2767 1.524 . S
C2769 C2766 1.403 . S
C2769 C2770 1.392 . S
C2769 C2773 1.495 . S
C2770 C2769 1.392 . S
C2770 C2771 1.385 . S
C2770 C2772 1.478 . S
C2771 H2765 0.930 . S
C2771 C2767 1.400 . S
C2771 C2770 1.385 . S
C2772 C2770 1.478 . S
C2772 C2774 1.381 . S
C2772 C2778 1.383 . S
C2773 C2769 1.495 . S
C2773 H2779 0.959 . S
C2773 H2780 0.961 . S
C2773 H2781 0.960 . S
C2774 C2772 1.381 . S
C2774 C2775 1.394 . S
C2774 H2782 0.930 . S
C2775 C2774 1.394 . S
C2775 C2776 1.383 . S
C2775 H2783 0.929 . S
C2776 C2775 1.383 . S
C2776 C2777 1.377 . S
C2777 H2761 0.930 . S
C2777 C2776 1.377 . S
C2777 C2778 1.379 . S
C2778 H2762 0.931 . S
C2778 C2772 1.383 . S
C2778 C2777 1.379 . S
H2779 C2773 0.959 . S
H2780 C2773 0.961 . S
H2781 C2773 0.960 . S
H2782 C2774 0.930 . S
H2783 C2775 0.929 . S
H2784 C2792 0.929 . S
H2785 C2794 0.930 . S
H2786 C2796 0.930 . S
H2787 C2799 0.929 . S
H2788 C2802 0.930 . S
H2789 C2804 0.960 . S
H2790 C2804 0.960 . S
H2791 C2804 0.960 . S
C2792 H2784 0.929 . S
C2792 C2793 1.377 . S
C2792 C2794 1.384 . S
C2793 C2792 1.377 . S
C2793 C2799 1.390 . S
C2794 H2785 0.930 . S
C2794 C2792 1.384 . S
C2794 C2795 1.372 . S
C2795 C2794 1.372 . S
C2795 C2796 1.400 . S
C2795 C2800 1.490 . S
C2796 H2786 0.930 . S
C2796 C2795 1.400 . S
C2796 C2799 1.386 . S
H2797 C2813 0.930 . S
H2798 C2814 0.931 . S
C2799 H2787 0.929 . S
C2799 C2793 1.390 . S
C2799 C2796 1.386 . S
C2800 C2795 1.490 . S
C2800 C2802 1.395 . S
C2800 C2803 1.403 . S
H2801 C2807 0.930 . S
C2802 H2788 0.930 . S
C2802 C2800 1.395 . S
C2802 C2805 1.403 . S
C2803 C2800 1.403 . S
C2803 C2804 1.524 . S
C2803 C2807 1.400 . S
C2804 H2789 0.960 . S
C2804 H2790 0.960 . S
C2804 H2791 0.960 . S
C2804 C2803 1.524 . S
C2805 C2802 1.403 . S
C2805 C2806 1.392 . S
C2805 C2809 1.495 . S
C2806 C2805 1.392 . S
C2806 C2807 1.385 . S
C2806 C2808 1.478 . S
C2807 H2801 0.930 . S
C2807 C2803 1.400 . S
C2807 C2806 1.385 . S
C2808 C2806 1.478 . S
C2808 C2810 1.381 . S
C2808 C2814 1.383 . S
C2809 C2805 1.495 . S
C2809 H2815 0.959 . S
C2809 H2816 0.961 . S
C2809 H2817 0.960 . S
C2810 C2808 1.381 . S
C2810 C2811 1.394 . S
C2810 H2818 0.930 . S
C2811 C2810 1.394 . S
C2811 C2812 1.383 . S
C2811 H2819 0.929 . S
C2812 C2811 1.383 . S
C2812 C2813 1.377 . S
C2813 H2797 0.930 . S
C2813 C2812 1.377 . S
C2813 C2814 1.379 . S
C2814 H2798 0.931 . S
C2814 C2808 1.383 . S
C2814 C2813 1.379 . S
H2815 C2809 0.959 . S
H2816 C2809 0.961 . S
H2817 C2809 0.960 . S
H2818 C2810 0.930 . S
H2819 C2811 0.929 . S
H2820 C2828 0.929 . S
H2821 C2830 0.930 . S
H2822 C2832 0.930 . S
H2823 C2835 0.929 . S
H2824 C2838 0.930 . S
H2825 C2840 0.960 . S
H2826 C2840 0.960 . S
H2827 C2840 0.960 . S
C2828 H2820 0.929 . S
C2828 C2829 1.377 . S
C2828 C2830 1.384 . S
C2829 C2828 1.377 . S
C2829 C2835 1.390 . S
C2830 H2821 0.930 . S
C2830 C2828 1.384 . S
C2830 C2831 1.372 . S
C2831 C2830 1.372 . S
C2831 C2832 1.400 . S
C2831 C2836 1.490 . S
C2832 H2822 0.930 . S
C2832 C2831 1.400 . S
C2832 C2835 1.386 . S
H2833 C2849 0.930 . S
H2834 C2850 0.931 . S
C2835 H2823 0.929 . S
C2835 C2829 1.390 . S
C2835 C2832 1.386 . S
C2836 C2831 1.490 . S
C2836 C2838 1.395 . S
C2836 C2839 1.403 . S
H2837 C2843 0.930 . S
C2838 H2824 0.930 . S
C2838 C2836 1.395 . S
C2838 C2841 1.403 . S
C2839 C2836 1.403 . S
C2839 C2840 1.524 . S
C2839 C2843 1.400 . S
C2840 H2825 0.960 . S
C2840 H2826 0.960 . S
C2840 H2827 0.960 . S
C2840 C2839 1.524 . S
C2841 C2838 1.403 . S
C2841 C2842 1.392 . S
C2841 C2845 1.495 . S
C2842 C2841 1.392 . S
C2842 C2843 1.385 . S
C2842 C2844 1.478 . S
C2843 H2837 0.930 . S
C2843 C2839 1.400 . S
C2843 C2842 1.385 . S
C2844 C2842 1.478 . S
C2844 C2846 1.381 . S
C2844 C2850 1.383 . S
C2845 C2841 1.495 . S
C2845 H2851 0.959 . S
C2845 H2852 0.961 . S
C2845 H2853 0.960 . S
C2846 C2844 1.381 . S
C2846 C2847 1.394 . S
C2846 H2854 0.930 . S
C2847 C2846 1.394 . S
C2847 C2848 1.383 . S
C2847 H2855 0.929 . S
C2848 C2847 1.383 . S
C2848 C2849 1.377 . S
C2849 H2833 0.930 . S
C2849 C2848 1.377 . S
C2849 C2850 1.379 . S
C2850 H2834 0.931 . S
C2850 C2844 1.383 . S
C2850 C2849 1.379 . S
H2851 C2845 0.959 . S
H2852 C2845 0.961 . S
H2853 C2845 0.960 . S
H2854 C2846 0.930 . S
H2855 C2847 0.929 . S
H2856 C2864 0.929 . S
H2857 C2866 0.930 . S
H2858 C2868 0.930 . S
H2859 C2871 0.929 . S
H2860 C2874 0.930 . S
H2861 C2876 0.960 . S
H2862 C2876 0.960 . S
H2863 C2876 0.960 . S
C2864 H2856 0.929 . S
C2864 C2865 1.377 . S
C2864 C2866 1.384 . S
C2865 C2864 1.377 . S
C2865 C2871 1.390 . S
C2866 H2857 0.930 . S
C2866 C2864 1.384 . S
C2866 C2867 1.372 . S
C2867 C2866 1.372 . S
C2867 C2868 1.400 . S
C2867 C2872 1.490 . S
C2868 H2858 0.930 . S
C2868 C2867 1.400 . S
C2868 C2871 1.386 . S
H2869 C2885 0.930 . S
H2870 C2886 0.931 . S
C2871 H2859 0.929 . S
C2871 C2865 1.390 . S
C2871 C2868 1.386 . S
C2872 C2867 1.490 . S
C2872 C2874 1.395 . S
C2872 C2875 1.403 . S
H2873 C2879 0.930 . S
C2874 H2860 0.930 . S
C2874 C2872 1.395 . S
C2874 C2877 1.403 . S
C2875 C2872 1.403 . S
C2875 C2876 1.524 . S
C2875 C2879 1.400 . S
C2876 H2861 0.960 . S
C2876 H2862 0.960 . S
C2876 H2863 0.960 . S
C2876 C2875 1.524 . S
C2877 C2874 1.403 . S
C2877 C2878 1.392 . S
C2877 C2881 1.495 . S
C2878 C2877 1.392 . S
C2878 C2879 1.385 . S
C2878 C2880 1.478 . S
C2879 H2873 0.930 . S
C2879 C2875 1.400 . S
C2879 C2878 1.385 . S
C2880 C2878 1.478 . S
C2880 C2882 1.381 . S
C2880 C2886 1.383 . S
C2881 C2877 1.495 . S
C2881 H2887 0.959 . S
C2881 H2888 0.961 . S
C2881 H2889 0.960 . S
C2882 C2880 1.381 . S
C2882 C2883 1.394 . S
C2882 H2890 0.930 . S
C2883 C2882 1.394 . S
C2883 C2884 1.383 . S
C2883 H2891 0.929 . S
C2884 C2883 1.383 . S
C2884 C2885 1.377 . S
C2885 H2869 0.930 . S
C2885 C2884 1.377 . S
C2885 C2886 1.379 . S
C2886 H2870 0.931 . S
C2886 C2880 1.383 . S
C2886 C2885 1.379 . S
H2887 C2881 0.959 . S
H2888 C2881 0.961 . S
H2889 C2881 0.960 . S
H2890 C2882 0.930 . S
H2891 C2883 0.929 . S
H2892 C2900 0.929 . S
H2893 C2902 0.930 . S
H2894 C2904 0.930 . S
H2895 C2907 0.929 . S
H2896 C2910 0.930 . S
H2897 C2912 0.960 . S
H2898 C2912 0.960 . S
H2899 C2912 0.960 . S
C2900 H2892 0.929 . S
C2900 C2901 1.377 . S
C2900 C2902 1.384 . S
C2901 C2900 1.377 . S
C2901 C2907 1.390 . S
C2902 H2893 0.930 . S
C2902 C2900 1.384 . S
C2902 C2903 1.372 . S
C2903 C2902 1.372 . S
C2903 C2904 1.400 . S
C2903 C2908 1.490 . S
C2904 H2894 0.930 . S
C2904 C2903 1.400 . S
C2904 C2907 1.386 . S
H2905 C2921 0.930 . S
H2906 C2922 0.931 . S
C2907 H2895 0.929 . S
C2907 C2901 1.390 . S
C2907 C2904 1.386 . S
C2908 C2903 1.490 . S
C2908 C2910 1.395 . S
C2908 C2911 1.403 . S
H2909 C2915 0.930 . S
C2910 H2896 0.930 . S
C2910 C2908 1.395 . S
C2910 C2913 1.403 . S
C2911 C2908 1.403 . S
C2911 C2912 1.524 . S
C2911 C2915 1.400 . S
C2912 H2897 0.960 . S
C2912 H2898 0.960 . S
C2912 H2899 0.960 . S
C2912 C2911 1.524 . S
C2913 C2910 1.403 . S
C2913 C2914 1.392 . S
C2913 C2917 1.495 . S
C2914 C2913 1.392 . S
C2914 C2915 1.385 . S
C2914 C2916 1.478 . S
C2915 H2909 0.930 . S
C2915 C2911 1.400 . S
C2915 C2914 1.385 . S
C2916 C2914 1.478 . S
C2916 C2918 1.381 . S
C2916 C2922 1.383 . S
C2917 C2913 1.495 . S
C2917 H2923 0.959 . S
C2917 H2924 0.961 . S
C2917 H2925 0.960 . S
C2918 C2916 1.381 . S
C2918 C2919 1.394 . S
C2918 H2926 0.930 . S
C2919 C2918 1.394 . S
C2919 C2920 1.383 . S
C2919 H2927 0.929 . S
C2920 C2919 1.383 . S
C2920 C2921 1.377 . S
C2921 H2905 0.930 . S
C2921 C2920 1.377 . S
C2921 C2922 1.379 . S
C2922 H2906 0.931 . S
C2922 C2916 1.383 . S
C2922 C2921 1.379 . S
H2923 C2917 0.959 . S
H2924 C2917 0.961 . S
H2925 C2917 0.960 . S
H2926 C2918 0.930 . S
H2927 C2919 0.929 . S
H2928 C2936 0.929 . S
H2929 C2938 0.930 . S
H2930 C2940 0.930 . S
H2931 C2943 0.929 . S
H2932 C2946 0.930 . S
H2933 C2948 0.960 . S
H2934 C2948 0.960 . S
H2935 C2948 0.960 . S
C2936 H2928 0.929 . S
C2936 C2937 1.377 . S
C2936 C2938 1.384 . S
C2937 C2936 1.377 . S
C2937 C2943 1.390 . S
C2938 H2929 0.930 . S
C2938 C2936 1.384 . S
C2938 C2939 1.372 . S
C2939 C2938 1.372 . S
C2939 C2940 1.400 . S
C2939 C2944 1.490 . S
C2940 H2930 0.930 . S
C2940 C2939 1.400 . S
C2940 C2943 1.386 . S
H2941 C2957 0.930 . S
H2942 C2958 0.931 . S
C2943 H2931 0.929 . S
C2943 C2937 1.390 . S
C2943 C2940 1.386 . S
C2944 C2939 1.490 . S
C2944 C2946 1.395 . S
C2944 C2947 1.403 . S
H2945 C2951 0.930 . S
C2946 H2932 0.930 . S
C2946 C2944 1.395 . S
C2946 C2949 1.403 . S
C2947 C2944 1.403 . S
C2947 C2948 1.524 . S
C2947 C2951 1.400 . S
C2948 H2933 0.960 . S
C2948 H2934 0.960 . S
C2948 H2935 0.960 . S
C2948 C2947 1.524 . S
C2949 C2946 1.403 . S
C2949 C2950 1.392 . S
C2949 C2953 1.495 . S
C2950 C2949 1.392 . S
C2950 C2951 1.385 . S
C2950 C2952 1.478 . S
C2951 H2945 0.930 . S
C2951 C2947 1.400 . S
C2951 C2950 1.385 . S
C2952 C2950 1.478 . S
C2952 C2954 1.381 . S
C2952 C2958 1.383 . S
C2953 C2949 1.495 . S
C2953 H2959 0.959 . S
C2953 H2960 0.961 . S
C2953 H2961 0.960 . S
C2954 C2952 1.381 . S
C2954 C2955 1.394 . S
C2954 H2962 0.930 . S
C2955 C2954 1.394 . S
C2955 C2956 1.383 . S
C2955 H2963 0.929 . S
C2956 C2955 1.383 . S
C2956 C2957 1.377 . S
C2957 H2941 0.930 . S
C2957 C2956 1.377 . S
C2957 C2958 1.379 . S
C2958 H2942 0.931 . S
C2958 C2952 1.383 . S
C2958 C2957 1.379 . S
H2959 C2953 0.959 . S
H2960 C2953 0.961 . S
H2961 C2953 0.960 . S
H2962 C2954 0.930 . S
H2963 C2955 0.929 . S
H2964 C2972 0.929 . S
H2965 C2974 0.930 . S
H2966 C2976 0.930 . S
H2967 C2979 0.929 . S
H2968 C2982 0.930 . S
H2969 C2984 0.960 . S
H2970 C2984 0.960 . S
H2971 C2984 0.960 . S
C2972 H2964 0.929 . S
C2972 C2973 1.377 . S
C2972 C2974 1.384 . S
C2973 C2972 1.377 . S
C2973 C2979 1.390 . S
C2974 H2965 0.930 . S
C2974 C2972 1.384 . S
C2974 C2975 1.372 . S
C2975 C2974 1.372 . S
C2975 C2976 1.400 . S
C2975 C2980 1.490 . S
C2976 H2966 0.930 . S
C2976 C2975 1.400 . S
C2976 C2979 1.386 . S
H2977 C2993 0.930 . S
H2978 C2994 0.931 . S
C2979 H2967 0.929 . S
C2979 C2973 1.390 . S
C2979 C2976 1.386 . S
C2980 C2975 1.490 . S
C2980 C2982 1.395 . S
C2980 C2983 1.403 . S
H2981 C2987 0.930 . S
C2982 H2968 0.930 . S
C2982 C2980 1.395 . S
C2982 C2985 1.403 . S
C2983 C2980 1.403 . S
C2983 C2984 1.524 . S
C2983 C2987 1.400 . S
C2984 H2969 0.960 . S
C2984 H2970 0.960 . S
C2984 H2971 0.960 . S
C2984 C2983 1.524 . S
C2985 C2982 1.403 . S
C2985 C2986 1.392 . S
C2985 C2989 1.495 . S
C2986 C2985 1.392 . S
C2986 C2987 1.385 . S
C2986 C2988 1.478 . S
C2987 H2981 0.930 . S
C2987 C2983 1.400 . S
C2987 C2986 1.385 . S
C2988 C2986 1.478 . S
C2988 C2990 1.381 . S
C2988 C2994 1.383 . S
C2989 C2985 1.495 . S
C2989 H2995 0.959 . S
C2989 H2996 0.961 . S
C2989 H2997 0.960 . S
C2990 C2988 1.381 . S
C2990 C2991 1.394 . S
C2990 H2998 0.930 . S
C2991 C2990 1.394 . S
C2991 C2992 1.383 . S
C2991 H2999 0.929 . S
C2992 C2991 1.383 . S
C2992 C2993 1.377 . S
C2993 H2977 0.930 . S
C2993 C2992 1.377 . S
C2993 C2994 1.379 . S
C2994 H2978 0.931 . S
C2994 C2988 1.383 . S
C2994 C2993 1.379 . S
H2995 C2989 0.959 . S
H2996 C2989 0.961 . S
H2997 C2989 0.960 . S
H2998 C2990 0.930 . S
H2999 C2991 0.929 . S
C1281 C1205 1.880 . S
C1300 C39 1.875 . S
C1317 C92 1.466 . S
C1336 C1241 1.462 . S
C1353 C1098 1.571 . S
C1372 C128 1.568 . S
C1389 C1142 1.348 . S
C1408 C188 1.347 . S
C1425 C1135 1.280 . S
C1444 C234 1.277 . S
C1461 C304 1.834 . S
C1480 C1204 1.830 . S
C1497 C1248 1.463 . S
C1516 C356 1.461 . S
C1533 C393 1.701 . S
C1552 C1099 1.693 . S
C1569 C462 1.702 . S
C1588 C1029 1.700 . S
C1605 C886 1.500 . S
C1624 C499 1.496 . S
C1641 C552 1.669 . S
C1660 C939 1.664 . S
C1677 C992 1.599 . S
C1696 C622 1.596 . S
C1713 C621 1.578 . S
C1732 C727 1.571 . S
C1749 C463 1.704 . S
C1768 C781 1.701 . S
C1785 C824 1.336 . S
C1804 C506 1.334 . S
C1821 C559 1.702 . S
C1840 C665 1.701 . S
C1857 C91 1.617 . S
C1876 C993 1.612 . S
C1893 C780 1.692 . S
C1912 C400 1.688 . S
C1929 C241 1.208 . S
C1948 C817 1.205 . S
C1965 C658 1.832 . S
C1984 C303 1.830 . S
C2001 C357 1.579 . S
C2020 C728 1.579 . S
C2037 C181 1.378 . S
C2056 C887 1.377 . S
C2073 C38 1.857 . S
C2092 C940 1.851 . S
C2109 C135 1.517 . S
C2128 C1036 1.514 . S
C2145 C347 1.270 . S
C2164 C1089 1.265 . S
C2181 C1151 1.525 . S
C2200 C410 1.525 . S
C2217 C1188 1.404 . S
C2236 C251 1.395 . S
C2253 C1258 1.707 . S
C2272 C287 1.701 . S
C2289 C145 1.826 . S
C2308 C1257 1.822 . S
C2325 C197 1.208 . S
C2344 C1082 1.207 . S
C2361 C22 1.529 . S
C2380 C1152 1.528 . S
C2397 C1195 1.360 . S
C2416 C75 1.354 . S
C2433 C569 1.468 . S
C2452 C718 1.472 . S
C2469 C605 1.557 . S
C2488 C764 1.559 . S
C2505 C453 1.171 . S
C2524 C833 1.171 . S
C2541 C516 1.523 . S
C2560 C674 1.525 . S
C2577 C515 1.565 . S
C2596 C1046 1.565 . S
C2613 C877 1.259 . S
C2632 C568 1.260 . S
C2649 C612 1.574 . S
C2668 C930 1.570 . S
C2685 C446 1.230 . S
C2704 C983 1.226 . S
C2721 C675 1.591 . S
C2740 C409 1.583 . S
C2757 C870 1.248 . S
C2776 C82 1.250 . S
C2793 C144 1.661 . S
C2812 C923 1.661 . S
C2829 C976 1.259 . S
C2848 C198 1.263 . S
C2865 C1045 1.592 . S
C2884 C29 1.584 . S
C2901 C294 1.482 . S
C2920 C771 1.478 . S
C2937 C834 1.298 . S
C2956 C340 1.300 . S
C2973 C711 1.424 . S
C2992 C250 1.421 . S
