# Generated by pormake.
# Topology uoj, (4)-cn, num edge types: 1
# Building blocks:
#     Node 0, Type 0, BuildingBlock: ESEHIV_clean_sbu_0, # of connection points: 4
#     Node 1, Type 0, BuildingBlock: ESEHIV_clean_sbu_0, # of connection points: 4
#     Node 2, Type 0, BuildingBlock: ESEHIV_clean_sbu_0, # of connection points: 4
#     Node 3, Type 0, BuildingBlock: ESEHIV_clean_sbu_0, # of connection points: 4
#     Node 4, Type 0, BuildingBlock: ESEHIV_clean_sbu_0, # of connection points: 4
#     Node 5, Type 0, BuildingBlock: ESEHIV_clean_sbu_0, # of connection points: 4
#     Node 6, Type 0, BuildingBlock: ESEHIV_clean_sbu_0, # of connection points: 4
#     Node 7, Type 0, BuildingBlock: ESEHIV_clean_sbu_0, # of connection points: 4
#     Edge 8, Type (0, 0), BuildingBlock: UVAHIK_clean_linker_0, # of connection points: 2
#     Edge 9, Type (0, 0), BuildingBlock: UVAHIK_clean_linker_0, # of connection points: 2
#     Edge 10, Type (0, 0), BuildingBlock: UVAHIK_clean_linker_0, # of connection points: 2
#     Edge 11, Type (0, 0), BuildingBlock: UVAHIK_clean_linker_0, # of connection points: 2
#     Edge 12, Type (0, 0), BuildingBlock: UVAHIK_clean_linker_0, # of connection points: 2
#     Edge 13, Type (0, 0), BuildingBlock: UVAHIK_clean_linker_0, # of connection points: 2
#     Edge 14, Type (0, 0), BuildingBlock: UVAHIK_clean_linker_0, # of connection points: 2
#     Edge 15, Type (0, 0), BuildingBlock: UVAHIK_clean_linker_0, # of connection points: 2
#     Edge 16, Type (0, 0), BuildingBlock: UVAHIK_clean_linker_0, # of connection points: 2
#     Edge 17, Type (0, 0), BuildingBlock: UVAHIK_clean_linker_0, # of connection points: 2
#     Edge 18, Type (0, 0), BuildingBlock: UVAHIK_clean_linker_0, # of connection points: 2
#     Edge 19, Type (0, 0), BuildingBlock: UVAHIK_clean_linker_0, # of connection points: 2
#     Edge 20, Type (0, 0), BuildingBlock: UVAHIK_clean_linker_0, # of connection points: 2
#     Edge 21, Type (0, 0), BuildingBlock: UVAHIK_clean_linker_0, # of connection points: 2
#     Edge 22, Type (0, 0), BuildingBlock: UVAHIK_clean_linker_0, # of connection points: 2
#     Edge 23, Type (0, 0), BuildingBlock: UVAHIK_clean_linker_0, # of connection points: 2
# Relax obj value: 0.033
# Max RMSD: 0.217
# Mean RMSD: 0.217
data_MOF--net-uoj--node1-ESEHIV_clean_sbu_0--edge1-UVAHIK_clean_linker_0
_symmetry_space_group_name_H-M    P1
_symmetry_Int_Tables_number       1
_symmetry_cell_setting            triclinic
loop_
_symmetry_equiv_pos_as_xyz
'x, y, z'
_cell_length_a     44.763229
_cell_length_b     44.921491
_cell_length_c     56.06879
_cell_angle_alpha  90.044764
_cell_angle_beta   90.059964
_cell_angle_gamma 89.953012
loop_
_atom_site_label
_atom_site_type_symbol
_atom_site_fract_x
_atom_site_fract_y
_atom_site_fract_z
_atom_type_partial_charge
Cu0 Cu 0.03872 0.29608 0.42673 0.0
N1 N 0.99856 0.28558 0.42839 0.0
N2 N 0.95574 0.26489 0.44029 0.0
C3 C 0.98583 0.26473 0.44232 0.0
C4 C 0.94942 0.2866 0.42443 0.0
C5 C 0.97588 0.29929 0.41712 0.0
O6 O 0.06152 0.27179 0.44882 0.0
C7 C 0.03318 0.35025 0.45276 0.0
O8 O 0.02359 0.33333 0.47025 0.0
H9 H 0.99831 0.25049 0.4543 0.0
H10 H 0.97844 0.31765 0.40483 0.0
N11 N 0.05272 0.29002 0.39583 0.0
N12 N 0.0721 0.29942 0.35988 0.0
C13 C 0.06311 0.31106 0.38091 0.0
C14 C 0.05513 0.26414 0.38393 0.0
C15 C 0.06712 0.26984 0.36174 0.0
C16 C 0.08935 0.27566 0.45214 0.0
O17 O 0.10292 0.29752 0.441 0.0
H18 H 0.06454 0.33438 0.38564 0.0
H19 H 0.0487 0.24267 0.39096 0.0
O20 O 0.04179 0.33824 0.43342 0.0
H21 H 0.92725 0.29295 0.4186 0.0
H22 H 0.07155 0.25349 0.34801 0.0
Cu23 Cu 0.30306 0.98465 0.59753 0.0
N24 N 0.29151 0.02456 0.59523 0.0
N25 N 0.26942 0.06701 0.584 0.0
C26 C 0.26852 0.03692 0.58319 0.0
C27 C 0.29361 0.07368 0.59737 0.0
C28 C 0.3071 0.04753 0.60426 0.0
O29 O 0.27888 0.95882 0.57741 0.0
C30 C 0.35768 0.99594 0.57325 0.0
O31 O 0.34111 1.01226 0.55898 0.0
H32 H 0.25212 0.0242 0.57334 0.0
H33 H 0.32737 0.04533 0.61463 0.0
N34 N 0.29813 0.97183 0.62891 0.0
N35 N 0.30784 0.95208 0.66465 0.0
C36 C 0.31957 0.96316 0.64432 0.0
C37 C 0.27203 0.96627 0.63989 0.0
C38 C 0.27794 0.95402 0.66193 0.0
C39 C 0.27167 0.96366 0.55579 0.0
O40 O 0.28162 0.98758 0.54495 0.0
H41 H 0.3432 0.96368 0.64026 0.0
H42 H 0.25025 0.97003 0.63207 0.0
O43 O 0.34529 0.98156 0.59008 0.0
H44 H 0.30124 0.0959 0.60168 0.0
H45 H 0.26152 0.94672 0.67482 0.0
Cu46 Cu 0.98698 0.72315 0.42738 0.0
N47 N 0.0266 0.73375 0.43354 0.0
N48 N 0.06729 0.75762 0.44647 0.0
C49 C 0.03774 0.75972 0.44174 0.0
C50 C 0.075 0.72947 0.44076 0.0
C51 C 0.04992 0.71488 0.43272 0.0
O52 O 0.95937 0.74697 0.44633 0.0
C53 C 0.99013 0.66811 0.45284 0.0
O54 O 0.99905 0.68441 0.47093 0.0
H55 H 0.02424 0.77924 0.44525 0.0
H56 H 0.04852 0.69179 0.42735 0.0
N57 N 0.97831 0.72922 0.39522 0.0
N58 N 0.96139 0.72097 0.35819 0.0
C59 C 0.9663 0.70925 0.38008 0.0
C60 C 0.98124 0.75448 0.38262 0.0
C61 C 0.97086 0.74949 0.3598 0.0
C62 C 0.96398 0.75419 0.46798 0.0
O63 O 0.98822 0.74471 0.47879 0.0
H64 H 0.96123 0.68657 0.38516 0.0
H65 H 0.98982 0.77519 0.3897 0.0
O66 O 0.98288 0.68072 0.43336 0.0
H67 H 0.09712 0.71999 0.44261 0.0
H68 H 0.96969 0.76592 0.34573 0.0
Cu69 Cu 0.73269 0.03839 0.60381 0.0
N70 N 0.75098 1.00119 0.60558 0.0
N71 N 0.77717 0.96057 0.59586 0.0
C72 C 0.76569 0.98669 0.58813 0.0
C73 C 0.76925 0.95866 0.61905 0.0
C74 C 0.75308 0.98371 0.62496 0.0
O75 O 0.75292 0.06134 0.57942 0.0
C76 C 0.67669 0.03893 0.57856 0.0
O77 O 0.69157 0.05028 0.56056 0.0
H78 H 0.76847 0.99548 0.5703 0.0
H79 H 0.7437 0.98899 0.64223 0.0
N80 N 0.7373 0.05771 0.63302 0.0
N81 N 0.72727 0.08129 0.66724 0.0
C82 C 0.71579 0.069 0.64719 0.0
C83 C 0.76322 0.06305 0.64435 0.0
C84 C 0.75713 0.07755 0.66546 0.0
C85 C 0.749 0.08918 0.57677 0.0
O86 O 0.72896 0.10289 0.58992 0.0
H87 H 0.69222 0.06783 0.64299 0.0
H88 H 0.785 0.05682 0.63767 0.0
O89 O 0.69035 0.03278 0.59784 0.0
H90 H 0.77458 0.94039 0.63088 0.0
H91 H 0.77351 0.08511 0.67831 0.0
Cu92 Cu 0.48833 0.80588 0.92848 0.0
N93 N 0.52826 0.79425 0.93108 0.0
N94 N 0.57063 0.77251 0.94308 0.0
C95 C 0.5405 0.77289 0.94488 0.0
C96 C 0.57744 0.79431 0.92744 0.0
C97 C 0.5513 0.8076 0.92008 0.0
O98 O 0.46285 0.78087 0.94816 0.0
C99 C 0.50062 0.86047 0.95242 0.0
O100 O 0.5182 0.84415 0.96588 0.0
H101 H 0.52768 0.75856 0.95651 0.0
H102 H 0.54918 0.8261 0.90786 0.0
N103 N 0.47586 0.80084 0.89699 0.0
N104 N 0.45593 0.80967 0.86113 0.0
C105 C 0.46597 0.8218 0.8817 0.0
C106 C 0.47216 0.77468 0.8857 0.0
C107 C 0.45982 0.78004 0.8636 0.0
C108 C 0.46455 0.77846 0.97073 0.0
O109 O 0.48434 0.79432 0.98246 0.0
H110 H 0.465 0.8453 0.88594 0.0
H111 H 0.47735 0.75317 0.89333 0.0
O112 O 0.48514 0.84799 0.93619 0.0
H113 H 0.59973 0.80025 0.92172 0.0
H114 H 0.45388 0.7634 0.85045 0.0
Cu115 Cu 0.80436 0.5425 0.09632 0.0
N116 N 0.7906 0.50331 0.09736 0.0
N117 N 0.76769 0.46093 0.08725 0.0
C118 C 0.77061 0.49033 0.08269 0.0
C119 C 0.7865 0.45533 0.10555 0.0
C120 C 0.80054 0.48152 0.11176 0.0
O121 O 0.7802 0.56473 0.07374 0.0
C122 C 0.85788 0.52341 0.07397 0.0
O123 O 0.84027 0.50415 0.06331 0.0
H124 H 0.7593 0.50199 0.0684 0.0
H125 H 0.81734 0.4844 0.12545 0.0
N126 N 0.80012 0.55993 0.12633 0.0
N127 N 0.8107 0.58288 0.16071 0.0
C128 C 0.82191 0.56984 0.1409 0.0
C129 C 0.77429 0.56678 0.13725 0.0
C130 C 0.78072 0.58095 0.15845 0.0
C131 C 0.78406 0.59244 0.07031 0.0
O132 O 0.80609 0.60603 0.08134 0.0
H133 H 0.84546 0.56827 0.13671 0.0
H134 H 0.75234 0.56213 0.13009 0.0
O135 O 0.84654 0.54259 0.08802 0.0
H136 H 0.78997 0.43382 0.11379 0.0
H137 H 0.76455 0.58913 0.17121 0.0
Cu138 Cu 0.5405 0.23446 0.92548 0.0
N139 N 0.50133 0.2485 0.92569 0.0
N140 N 0.45956 0.2725 0.9361 0.0
C141 C 0.48899 0.26857 0.94059 0.0
C142 C 0.45331 0.25421 0.91763 0.0
C143 C 0.4791 0.23948 0.91126 0.0
O144 O 0.56366 0.25681 0.94866 0.0
C145 C 0.5403 0.17904 0.95142 0.0
O146 O 0.5434 0.195 0.97091 0.0
H147 H 0.50121 0.27952 0.95476 0.0
H148 H 0.48152 0.22315 0.8972 0.0
N149 N 0.5567 0.24028 0.89524 0.0
N150 N 0.57848 0.23105 0.8601 0.0
C151 C 0.56951 0.21956 0.88121 0.0
C152 C 0.55751 0.26576 0.88272 0.0
C153 C 0.57095 0.26017 0.86105 0.0
C154 C 0.5908 0.2511 0.95363 0.0
O155 O 0.60377 0.22794 0.94374 0.0
H156 H 0.57235 0.19658 0.88652 0.0
H157 H 0.54868 0.28683 0.88887 0.0
O158 O 0.53945 0.19192 0.93125 0.0
H159 H 0.43169 0.25176 0.9092 0.0
H160 H 0.57434 0.27625 0.84696 0.0
Cu161 Cu 0.2337 0.49053 0.10501 0.0
N162 N 0.25313 0.52731 0.10573 0.0
N163 N 0.28099 0.56689 0.09623 0.0
C164 C 0.27071 0.54 0.08907 0.0
C165 C 0.26937 0.57115 0.11818 0.0
C166 C 0.25222 0.54677 0.12394 0.0
O167 O 0.25493 0.46315 0.08425 0.0
C168 C 0.17568 0.47619 0.08757 0.0
O169 O 0.18676 0.44937 0.0845 0.0
H170 H 0.2762 0.52959 0.07224 0.0
H171 H 0.23986 0.54342 0.14029 0.0
N172 N 0.23467 0.47461 0.13571 0.0
N173 N 0.22154 0.45333 0.17019 0.0
C174 C 0.21217 0.4627 0.14849 0.0
C175 C 0.25902 0.47265 0.14965 0.0
C176 C 0.25104 0.45959 0.17089 0.0
C177 C 0.25664 0.46556 0.0617 0.0
O178 O 0.24243 0.48736 0.05093 0.0
H179 H 0.18941 0.46123 0.14207 0.0
H180 H 0.28109 0.48013 0.1446 0.0
O181 O 0.19243 0.49673 0.09561 0.0
H182 H 0.27261 0.59069 0.12917 0.0
H183 H 0.26599 0.45462 0.18554 0.0
C184 C 0.17799 0.42329 0.18321 0.0
C185 C 0.20411 0.43929 0.18872 0.0
C186 C 0.16179 0.4089 0.20118 0.0
C187 C 0.15064 0.40763 0.26678 0.0
H188 H 0.12049 0.32802 0.25526 0.0
C189 C 0.0787 0.3456 0.33632 0.0
C190 C 0.08485 0.31521 0.33989 0.0
C191 C 0.09153 0.36106 0.31727 0.0
C192 C 0.1289 0.35018 0.25882 0.0
H193 H 0.23307 0.45331 0.21767 0.0
H194 H 0.2053 0.42787 0.24877 0.0
H195 H 0.14621 0.35459 0.2234 0.0
H196 H 0.10952 0.27738 0.3261 0.0
H197 H 0.13197 0.30432 0.29298 0.0
H198 H 0.13414 0.40294 0.30238 0.0
C199 C 0.19715 0.42658 0.2306 0.0
C200 C 0.14333 0.36557 0.24045 0.0
C201 C 0.21333 0.44089 0.21267 0.0
C202 C 0.10394 0.30063 0.32375 0.0
C203 C 0.11681 0.3161 0.30471 0.0
C204 C 0.13622 0.39226 0.28513 0.0
C205 C 0.17125 0.41027 0.2251 0.0
C206 C 0.15461 0.3944 0.24426 0.0
C207 C 0.11089 0.34656 0.30129 0.0
C208 C 0.12534 0.36326 0.28145 0.0
H209 H 0.17033 0.42138 0.16497 0.0
H210 H 0.14178 0.39678 0.19634 0.0
H211 H 0.15872 0.42993 0.27028 0.0
H212 H 0.06371 0.35744 0.34812 0.0
H213 H 0.08607 0.38437 0.31496 0.0
C214 C 0.35166 0.94984 0.69158 0.0
C215 C 0.32375 0.93872 0.6843 0.0
C216 C 0.36703 0.93674 0.71066 0.0
C217 C 0.37542 0.86644 0.74265 0.0
H218 H 0.40419 0.91404 0.79559 0.0
C219 C 0.41879 0.81118 0.82857 0.0
C220 C 0.44207 0.82481 0.84132 0.0
C221 C 0.40523 0.82569 0.80936 0.0
C222 C 0.39682 0.90039 0.7808 0.0
H223 H 0.29035 0.90489 0.691 0.0
H224 H 0.31741 0.88169 0.724 0.0
H225 H 0.37964 0.93826 0.76186 0.0
H226 H 0.46961 0.86424 0.84382 0.0
H227 H 0.44675 0.88932 0.80972 0.0
H228 H 0.39311 0.82867 0.76095 0.0
C229 C 0.32724 0.9007 0.71511 0.0
C230 C 0.38262 0.91433 0.76152 0.0
C231 C 0.31166 0.91411 0.69636 0.0
C232 C 0.45154 0.85333 0.83442 0.0
C233 C 0.43829 0.86771 0.81491 0.0
C234 C 0.39002 0.85255 0.76168 0.0
C235 C 0.35505 0.91189 0.72249 0.0
C236 C 0.37145 0.89744 0.74241 0.0
C237 C 0.41492 0.85408 0.80207 0.0
C238 C 0.40058 0.86924 0.78123 0.0
H239 H 0.36139 0.96887 0.68267 0.0
H240 H 0.38849 0.94573 0.71594 0.0
H241 H 0.3674 0.85292 0.72797 0.0
H242 H 0.41064 0.78945 0.83375 0.0
H243 H 0.38683 0.81469 0.80044 0.0
C244 C 0.95133 0.71832 0.31465 0.0
C245 C 0.9479 0.7065 0.33775 0.0
C246 C 0.9377 0.70475 0.29498 0.0
C247 C 0.90544 0.63366 0.27412 0.0
H248 H 0.86424 0.68322 0.22799 0.0
C249 C 0.85598 0.58697 0.18599 0.0
C250 C 0.82711 0.59677 0.17991 0.0
C251 C 0.87167 0.60025 0.20482 0.0
C252 C 0.87558 0.66907 0.24075 0.0
H253 H 0.92706 0.67085 0.35791 0.0
H254 H 0.90377 0.64712 0.32364 0.0
H255 H 0.8898 0.70632 0.26175 0.0
H256 H 0.79242 0.62867 0.18861 0.0
H257 H 0.81967 0.65172 0.22144 0.0
H258 H 0.8909 0.59638 0.25325 0.0
C259 C 0.91726 0.66681 0.32079 0.0
C260 C 0.89047 0.68232 0.25997 0.0
C261 C 0.93071 0.68048 0.34049 0.0
C262 C 0.81444 0.62035 0.19297 0.0
C263 C 0.83021 0.63378 0.21163 0.0
C264 C 0.89075 0.62041 0.25478 0.0
C265 C 0.92045 0.67887 0.29782 0.0
C266 C 0.9054 0.66477 0.27698 0.0
C267 C 0.85897 0.62385 0.21784 0.0
C268 C 0.87546 0.63795 0.23797 0.0
H269 H 0.96474 0.73797 0.31164 0.0
H270 H 0.94094 0.71437 0.27746 0.0
H271 H 0.91696 0.61953 0.2868 0.0
H272 H 0.86628 0.56873 0.17642 0.0
H273 H 0.89387 0.59223 0.20904 0.0
C274 C 0.58966 0.1845 0.83798 0.0
C275 C 0.59274 0.21551 0.84059 0.0
C276 C 0.60342 0.1695 0.81906 0.0
C277 C 0.6357 0.18147 0.75907 0.0
H278 H 0.67447 0.10563 0.77067 0.0
C279 C 0.68315 0.10866 0.68259 0.0
C280 C 0.71121 0.09541 0.68652 0.0
C281 C 0.66792 0.1228 0.70124 0.0
C282 C 0.66387 0.12686 0.76714 0.0
H283 H 0.61324 0.25486 0.8253 0.0
H284 H 0.63708 0.22876 0.79235 0.0
H285 H 0.64991 0.13159 0.80346 0.0
H286 H 0.74488 0.0862 0.71337 0.0
H287 H 0.7186 0.11115 0.7457 0.0
H288 H 0.65017 0.17701 0.72284 0.0
C289 C 0.62364 0.2161 0.80478 0.0
C290 C 0.6495 0.14159 0.7859 0.0
C291 C 0.60994 0.23109 0.82372 0.0
C292 C 0.7235 0.09644 0.7096 0.0
C293 C 0.70825 0.11046 0.72824 0.0
C294 C 0.64998 0.16668 0.74029 0.0
C295 C 0.62057 0.18512 0.80221 0.0
C296 C 0.63536 0.16916 0.78213 0.0
C297 C 0.68031 0.12391 0.72429 0.0
C298 C 0.66438 0.13926 0.74412 0.0
H299 H 0.57623 0.17177 0.85034 0.0
H300 H 0.60023 0.14569 0.81743 0.0
H301 H 0.62475 0.20251 0.75548 0.0
H302 H 0.67311 0.10853 0.66503 0.0
H303 H 0.64631 0.13269 0.69762 0.0
C304 C 0.2203 0.08047 0.56655 0.0
C305 C 0.25014 0.08777 0.57175 0.0
C306 C 0.20175 0.10074 0.55463 0.0
C307 C 0.19557 0.18117 0.53915 0.0
H308 H 0.13975 0.15302 0.49129 0.0
C309 C 0.13692 0.25996 0.47231 0.0
C310 C 0.10654 0.25481 0.46744 0.0
C311 C 0.15341 0.23976 0.48602 0.0
C312 C 0.15499 0.16121 0.50479 0.0
H313 H 0.28404 0.12187 0.56783 0.0
H314 H 0.25205 0.15689 0.54691 0.0
H315 H 0.17033 0.11729 0.51316 0.0
H316 H 0.06964 0.22442 0.47337 0.0
H317 H 0.09847 0.18918 0.49724 0.0
H318 H 0.18056 0.22513 0.53043 0.0
C319 C 0.2426 0.13587 0.55258 0.0
C320 C 0.17251 0.14071 0.51739 0.0
C321 C 0.26103 0.11572 0.56459 0.0
C322 C 0.09299 0.22909 0.47676 0.0
C323 C 0.10955 0.20877 0.49033 0.0
C324 C 0.1782 0.20165 0.52646 0.0
C325 C 0.21267 0.12875 0.5475 0.0
C326 C 0.19318 0.15043 0.53463 0.0
C327 C 0.13998 0.21382 0.49505 0.0
C328 C 0.15781 0.19194 0.50904 0.0
H329 H 0.21115 0.05925 0.57202 0.0
H330 H 0.17874 0.0946 0.5513 0.0
H331 H 0.21077 0.18948 0.55262 0.0
H332 H 0.14808 0.27951 0.4654 0.0
H333 H 0.17688 0.24416 0.48912 0.0
C334 C 0.24599 0.91433 0.55243 0.0
C335 C 0.25084 0.94312 0.54348 0.0
C336 C 0.2255 0.89525 0.54146 0.0
C337 C 0.18131 0.88444 0.48552 0.0
H338 H 0.13707 0.8296 0.5255 0.0
C339 C 0.08321 0.81 0.45165 0.0
C340 C 0.08627 0.77969 0.45734 0.0
C341 C 0.10233 0.83119 0.46187 0.0
C342 C 0.14931 0.84478 0.51412 0.0
H343 H 0.23793 0.97448 0.51598 0.0
H344 H 0.20141 0.94163 0.49731 0.0
H345 H 0.17207 0.86431 0.54372 0.0
H346 H 0.11104 0.7479 0.47863 0.0
H347 H 0.14396 0.78486 0.49679 0.0
H348 H 0.15771 0.86506 0.45599 0.0
C349 C 0.21398 0.93339 0.51243 0.0
C350 C 0.16959 0.86456 0.52451 0.0
C351 C 0.23487 0.95233 0.5232 0.0
C352 C 0.1084 0.77105 0.47373 0.0
C353 C 0.12707 0.79222 0.48426 0.0
C354 C 0.16062 0.86492 0.47517 0.0
C355 C 0.20888 0.90459 0.52148 0.0
C356 C 0.18626 0.8844 0.51035 0.0
C357 C 0.12436 0.82247 0.47835 0.0
C358 C 0.14475 0.84462 0.48935 0.0
H359 H 0.25814 0.90645 0.56791 0.0
H360 H 0.22288 0.87305 0.54866 0.0
H361 H 0.19391 0.89902 0.47394 0.0
H362 H 0.06641 0.81718 0.439 0.0
H363 H 0.09971 0.85441 0.4571 0.0
C364 C 0.81578 0.92122 0.59403 0.0
C365 C 0.79477 0.93946 0.58246 0.0
C366 C 0.83283 0.9007 0.58114 0.0
C367 C 0.85853 0.88258 0.51987 0.0
H368 H 0.87717 0.80614 0.54837 0.0
C369 C 0.91951 0.78841 0.46838 0.0
C370 C 0.94282 0.77406 0.4807 0.0
C371 C 0.90027 0.80797 0.48032 0.0
C372 C 0.87232 0.82747 0.54023 0.0
H373 H 0.77499 0.95012 0.54822 0.0
H374 H 0.80446 0.91404 0.52571 0.0
H375 H 0.8457 0.84136 0.56988 0.0
H376 H 0.96389 0.76875 0.5153 0.0
H377 H 0.93028 0.80268 0.53608 0.0
H378 H 0.88508 0.86846 0.49015 0.0
C379 C 0.80818 0.91599 0.54473 0.0
C380 C 0.85434 0.84773 0.55259 0.0
C381 C 0.79124 0.93668 0.55763 0.0
C382 C 0.94618 0.77941 0.50526 0.0
C383 C 0.92681 0.79874 0.51722 0.0
C384 C 0.87637 0.86221 0.50745 0.0
C385 C 0.8292 0.8977 0.55633 0.0
C386 C 0.84743 0.87569 0.54269 0.0
C387 C 0.90374 0.81339 0.50487 0.0
C388 C 0.8837 0.83454 0.51759 0.0
H389 H 0.81946 0.92314 0.61304 0.0
H390 H 0.84922 0.88749 0.59064 0.0
H391 H 0.85405 0.90402 0.51181 0.0
H392 H 0.9163 0.78482 0.44945 0.0
H393 H 0.88255 0.81872 0.47036 0.0
C394 C 0.79402 0.09289 0.55039 0.0
C395 C 0.76856 0.10628 0.56045 0.0
C396 C 0.81374 0.10951 0.53641 0.0
C397 C 0.82009 0.17729 0.50008 0.0
H398 H 0.90464 0.17121 0.5144 0.0
C399 C 0.90629 0.25785 0.459 0.0
C400 C 0.93468 0.24669 0.45312 0.0
C401 C 0.88587 0.24035 0.47159 0.0
C402 C 0.88119 0.17287 0.50986 0.0
H403 H 0.74343 0.14745 0.56311 0.0
H404 H 0.77774 0.17637 0.53841 0.0
H405 H 0.86899 0.14105 0.53655 0.0
H406 H 0.96372 0.20826 0.45548 0.0
H407 H 0.92794 0.17736 0.47695 0.0
H408 H 0.83216 0.20872 0.47314 0.0
C409 C 0.78242 0.15302 0.54144 0.0
C410 C 0.86074 0.15562 0.52264 0.0
C411 C 0.76284 0.13647 0.55565 0.0
C412 C 0.94216 0.21757 0.46002 0.0
C413 C 0.92162 0.19992 0.47239 0.0
C414 C 0.84055 0.19432 0.48711 0.0
C415 C 0.8083 0.13981 0.53194 0.0
C416 C 0.82997 0.15773 0.51796 0.0
C417 C 0.8932 0.2111 0.47841 0.0
C418 C 0.8714 0.19247 0.4919 0.0
H419 H 0.79912 0.06969 0.55372 0.0
H420 H 0.83333 0.09866 0.52911 0.0
H421 H 0.79652 0.17913 0.4959 0.0
H422 H 0.90004 0.28036 0.45429 0.0
H423 H 0.86451 0.25 0.4763 0.0
C424 C 0.31851 0.60727 0.09556 0.0
C425 C 0.30006 0.58712 0.08327 0.0
C426 C 0.33628 0.62759 0.08315 0.0
C427 C 0.36911 0.64301 0.02365 0.0
H428 H 0.37679 0.72309 0.04882 0.0
C429 C 0.42567 0.73818 0.97077 0.0
C430 C 0.44506 0.75703 0.9835 0.0
C431 C 0.40781 0.71747 0.98273 0.0
C432 C 0.37512 0.70075 0.04167 0.0
H433 H 0.28593 0.57256 0.04817 0.0
H434 H 0.31674 0.60819 0.02645 0.0
H435 H 0.34612 0.68682 0.06982 0.0
H436 H 0.46068 0.76893 0.01888 0.0
H437 H 0.42954 0.73281 0.03972 0.0
H438 H 0.398 0.65711 0.9954 0.0
C439 C 0.31782 0.60798 0.04574 0.0
C440 C 0.35756 0.6799 0.05373 0.0
C441 C 0.30012 0.58753 0.05819 0.0
C442 C 0.44597 0.75482 1.0085 0.0
C443 C 0.428 0.7342 0.02047 0.0
C444 C 0.3866 0.66392 1.01153 0.0
C445 C 0.336 0.62842 0.05808 0.0
C446 C 0.35441 0.6507 0.04496 0.0
C447 C 0.40878 0.71519 1.00772 0.0
C448 C 0.3899 0.69301 0.02045 0.0
H449 H 0.31946 0.6072 0.11485 0.0
H450 H 0.35046 0.64251 0.09326 0.0
H451 H 0.36757 0.62065 0.01653 0.0
H452 H 0.42436 0.73927 0.9515 0.0
H453 H 0.393 0.70342 0.97239 0.0
C454 C 0.73606 0.59647 0.04726 0.0
C455 C 0.7627 0.60961 0.05543 0.0
C456 C 0.71513 0.61318 0.03439 0.0
C457 C 0.70686 0.68087 0.9978 0.0
H458 H 0.62326 0.67593 0.01542 0.0
C459 C 0.62025 0.76408 0.96125 0.0
C460 C 0.59145 0.7537 0.95572 0.0
C461 C 0.64073 0.74585 0.97311 0.0
C462 C 0.64643 0.67729 1.00999 0.0
H463 H 0.78842 0.6505 0.05605 0.0
H464 H 0.75204 0.67952 0.03343 0.0
H465 H 0.65994 0.64499 0.03599 0.0
H466 H 0.56163 0.71592 0.95833 0.0
H467 H 0.59755 0.68376 0.97869 0.0
H468 H 0.69351 0.71284 0.97166 0.0
C469 C 0.74737 0.65628 0.03697 0.0
C470 C 0.66747 0.65957 0.02184 0.0
C471 C 0.76817 0.63967 0.05002 0.0
C472 C 0.58354 0.72465 0.96253 0.0
C473 C 0.60415 0.70626 0.97424 0.0
C474 C 0.68582 0.69839 0.98583 0.0
C475 C 0.72049 0.64331 0.02918 0.0
C476 C 0.69796 0.66133 0.01601 0.0
C477 C 0.6331 0.71658 0.97961 0.0
C478 C 0.65533 0.69707 0.99189 0.0
H479 H 0.73111 0.57337 0.05113 0.0
H480 H 0.69478 0.60246 0.02843 0.0
H481 H 0.73012 0.68241 0.99265 0.0
H482 H 0.62687 0.78653 0.95669 0.0
H483 H 0.6625 0.7549 0.97741 0.0
C484 C 0.75868 0.40991 0.07225 0.0
C485 C 0.74947 0.4397 0.07452 0.0
C486 C 0.74122 0.38935 0.05971 0.0
C487 C 0.67922 0.38466 0.01544 0.0
H488 H 0.67548 0.30261 0.0367 0.0
C489 C 0.59624 0.29956 0.97549 0.0
C490 C 0.60808 0.27164 0.96912 0.0
C491 C 0.61313 0.31972 0.9889 0.0
C492 C 0.67648 0.3254 0.03046 0.0
H493 H 0.71444 0.4711 0.06579 0.0
H494 H 0.68355 0.43519 0.0444 0.0
H495 H 0.70518 0.33856 0.05911 0.0
H496 H 0.64676 0.24282 0.97239 0.0
H497 H 0.67609 0.27795 0.99611 0.0
H498 H 0.65002 0.37146 0.98704 0.0
C499 C 0.70466 0.42778 0.05175 0.0
C500 C 0.6936 0.34604 0.04325 0.0
C501 C 0.7223 0.44841 0.06408 0.0
C502 C 0.63697 0.26412 0.97696 0.0
C503 C 0.65374 0.28419 0.99063 0.0
C504 C 0.66186 0.36408 1.00282 0.0
C505 C 0.71391 0.39795 0.04931 0.0
C506 C 0.69531 0.37597 0.03587 0.0
C507 C 0.64212 0.31235 0.99651 0.0
C508 C 0.66035 0.33421 1.01015 0.0
H509 H 0.77972 0.4026 0.07975 0.0
H510 H 0.74946 0.3668 0.05784 0.0
H511 H 0.68038 0.40729 1.00888 0.0
H512 H 0.57407 0.3061 0.96976 0.0
H513 H 0.60344 0.34111 0.99338 0.0
C514 C 0.40838 0.2845 0.94973 0.0
C515 C 0.43892 0.29166 0.9486 0.0
C516 C 0.38829 0.30307 0.96172 0.0
C517 C 0.37811 0.38022 0.98262 0.0
H518 H 0.31768 0.3456 0.02361 0.0
C519 C 0.28205 0.44987 0.02374 0.0
C520 C 0.27587 0.44479 0.04798 0.0
C521 C 0.30137 0.43098 1.01121 0.0
C522 C 0.33449 0.35562 1.0123 0.0
H523 H 0.4722 0.32417 0.95907 0.0
H524 H 0.43715 0.35656 0.98013 0.0
H525 H 0.35313 0.31324 1.00302 0.0
H526 H 0.28482 0.41551 0.07793 0.0
H527 H 0.31835 0.38262 0.05607 0.0
H528 H 0.35965 0.42263 0.9921 0.0
C529 C 0.42875 0.33658 0.97162 0.0
C530 C 0.35463 0.33707 1.00034 0.0
C531 C 0.44889 0.31788 0.95977 0.0
C532 C 0.28906 0.4201 0.05927 0.0
C533 C 0.30818 0.40113 0.04672 0.0
C534 C 0.35782 0.39877 0.99446 0.0
C535 C 0.39821 0.32937 0.97276 0.0
C536 C 0.37674 0.34915 0.98541 0.0
C537 C 0.31476 0.40645 0.02259 0.0
C538 C 0.33584 0.3867 1.0095 0.0
H539 H 0.39998 0.26434 0.94157 0.0
H540 H 0.36489 0.29698 0.9621 0.0
H541 H 0.3947 0.39021 0.97109 0.0
H542 H 0.27228 0.46868 0.0145 0.0
H543 H 0.30573 0.4355 0.99257 0.0
C544 C 0.99152 0.61802 0.43321 0.0
C545 C 0.99188 0.63521 0.45417 0.0
C546 C 0.99604 0.58726 0.43419 0.0
C547 C 0.99144 0.52175 0.47264 0.0
H548 H 0.05182 0.48911 0.43053 0.0
C549 C 0.02508 0.39725 0.47628 0.0
C550 C 0.03119 0.38313 0.45445 0.0
C551 C 0.0215 0.4282 0.47738 0.0
C552 C 0.03457 0.49768 0.44219 0.0
H553 H 0.99613 0.63341 0.49268 0.0
H554 H 1.00337 0.57943 0.49438 0.0
H555 H 0.04135 0.54229 0.42988 0.0
H556 H 0.03839 0.3905 0.41665 0.0
H557 H 0.03125 0.44395 0.41839 0.0
H558 H 0.98386 0.47713 0.48445 0.0
C559 C 0.99985 0.58992 0.47722 0.0
C560 C 0.02868 0.52822 0.44185 0.0
C561 C 0.99579 0.6208 0.47621 0.0
C562 C 0.03396 0.40065 0.43382 0.0
C563 C 0.03002 0.43146 0.43486 0.0
C564 C 0.997 0.49108 0.47274 0.0
C565 C 1.00057 0.57294 0.45617 0.0
C566 C 1.00696 0.54055 0.45696 0.0
C567 C 0.02361 0.44572 0.45662 0.0
C568 C 0.01853 0.47857 0.45739 0.0
H569 H 0.98862 0.62841 0.41593 0.0
H570 H 0.99618 0.57464 0.41772 0.0
H571 H 0.97446 0.53069 0.4844 0.0
H572 H 0.02293 0.38438 0.49252 0.0
H573 H 1.01711 0.43837 0.49454 0.0
C574 C 0.62907 0.01814 0.59499 0.0
C575 C 0.64413 0.03326 0.57666 0.0
C576 C 0.59836 1.01297 0.59352 0.0
C577 C 0.53463 1.01081 0.55104 0.0
H578 H 0.48785 0.0179 0.60895 0.0
C579 C 0.40475 1.01264 0.55292 0.0
C580 C 0.39072 0.99683 0.57142 0.0
C581 C 0.43587 1.01562 0.55243 0.0
C582 C 0.50063 1.01549 0.59266 0.0
H583 H 0.63864 0.05473 0.5423 0.0
H584 H 0.58484 0.04625 0.53994 0.0
H585 H 0.54143 0.02672 0.6103 0.0
H586 H 0.39854 0.97093 0.6035 0.0
H587 H 0.45271 0.97613 0.60258 0.0
H588 H 0.49346 1.00007 0.53341 0.0
C589 C 0.5969 0.03792 0.5553 0.0
C590 C 0.5314 0.02052 0.59342 0.0
C591 C 0.62774 0.04295 0.55671 0.0
C592 C 0.40857 0.98334 0.58902 0.0
C593 C 0.43962 0.98648 0.58859 0.0
C594 C 0.50373 1.00596 0.55026 0.0
C595 C 0.58179 0.02297 0.57375 0.0
C596 C 0.54887 0.01808 0.57267 0.0
C597 C 0.45361 1.00303 0.5705 0.0
C598 C 0.48643 1.00809 0.5711 0.0
H599 H 0.64101 1.01015 0.61053 0.0
H600 H 0.58766 1.00088 0.60785 0.0
H601 H 0.54739 1.00837 0.53476 0.0
H602 H 0.39167 0.02329 0.53908 0.0
H603 H 0.44596 0.02864 0.53832 0.0
C604 C 0.54143 0.13061 0.97401 0.0
C605 C 0.53643 0.14628 0.95268 0.0
C606 C 0.53734 0.09969 0.97495 0.0
C607 C 0.5302 0.03312 0.93542 0.0
H608 H 0.49751 0.99596 0.99206 0.0
C609 C 0.49015 0.91127 0.93587 0.0
C610 C 0.50137 0.89338 0.9544 0.0
C611 C 0.49353 0.94221 0.93662 0.0
C612 C 0.50679 1.00606 0.97618 0.0
H613 H 0.52276 0.14174 0.91571 0.0
H614 H 0.51481 0.08842 0.91751 0.0
H615 H 0.50571 0.04974 0.99146 0.0
H616 H 0.52382 0.89406 0.9887 0.0
H617 H 0.5292 0.94822 0.99015 0.0
H618 H 0.53061 0.9895 0.92 0.0
C619 C 0.52272 0.09964 0.93339 0.0
C620 C 0.51166 0.03686 0.97584 0.0
C621 C 0.52712 0.13038 0.93239 0.0
C622 C 0.51501 0.90721 0.97411 0.0
C623 C 0.518 0.93822 0.97501 0.0
C624 C 0.52497 1.00247 0.93566 0.0
C625 C 0.5279 0.08378 0.95463 0.0
C626 C 0.52334 0.05085 0.9554 0.0
C627 C 0.50781 0.95597 0.95605 0.0
C628 C 0.51314 0.98861 0.956 0.0
H629 H 0.5487 0.14218 0.98994 0.0
H630 H 0.54195 0.08826 0.99154 0.0
H631 H 0.5399 0.04285 0.91955 0.0
H632 H 0.47957 0.90135 0.92042 0.0
H633 H 0.48517 0.95538 0.92187 0.0
C634 C 0.12532 0.46052 0.07224 0.0
C635 C 0.14355 0.48214 0.08304 0.0
C636 C 0.09477 0.46574 0.0689 0.0
C637 C 0.0374 0.52614 0.06848 0.0
H638 H 0.98269 0.46073 0.07946 0.0
C639 C 0.90991 0.54163 0.08245 0.0
C640 C 0.89079 0.52081 0.07155 0.0
C641 C 0.94093 0.53778 0.08172 0.0
C642 C 0.99768 0.47915 0.07605 0.0
H643 H 0.14393 0.52636 0.09862 0.0
H644 H 0.09072 0.53518 0.09333 0.0
H645 H 0.03629 0.45222 0.08228 0.0
H646 H 0.88944 0.48002 0.05082 0.0
H647 H 0.94349 0.47332 0.04966 0.0
H648 H 0.99853 0.55319 0.06288 0.0
C649 C 0.10002 0.51439 0.08696 0.0
C650 C 0.02848 0.47427 0.07761 0.0
C651 C 0.13058 0.50925 0.09014 0.0
C652 C 0.90347 0.49647 0.05944 0.0
C653 C 0.93445 0.4925 0.05889 0.0
C654 C 1.00656 0.53107 0.06712 0.0
C655 C 0.08162 0.49264 0.07643 0.0
C656 C 0.04879 0.49771 0.07394 0.0
C657 C 0.95353 0.51291 0.07026 0.0
C658 C 0.98635 0.50764 0.07095 0.0
H659 H 0.13461 0.43946 0.06643 0.0
H660 H 0.08147 0.44867 0.06035 0.0
H661 H 0.05231 0.54464 0.06513 0.0
H662 H 0.9009 0.56063 0.09194 0.0
H663 H 0.95502 0.55378 0.0908 0.0
loop_
_geom_bond_atom_site_label_1
_geom_bond_atom_site_label_2
_geom_bond_distance
_geom_bond_site_symmetry_2
_ccdc_geom_bond_type
Cu0 N1 1.999 . S
Cu0 O6 1.974 . S
Cu0 N11 1.985 . S
Cu0 O20 1.959 . S
N1 Cu0 1.999 . S
N1 C3 1.263 . S
N1 C5 1.389 1_455 S
N2 C3 1.358 1_655 S
N2 C4 1.400 . S
C3 N1 1.263 . S
C3 N2 1.358 1_455 S
C3 H9 0.930 . S
C4 N2 1.400 . S
C4 C5 1.351 . S
C4 H21 0.930 . S
C5 N1 1.389 1_655 S
C5 C4 1.351 . S
C5 H10 0.930 . S
O6 Cu0 1.974 . S
O6 C16 1.282 . S
C7 O8 1.261 . S
C7 O20 1.251 . S
O8 C7 1.261 . S
H9 C3 0.930 . S
H10 C5 0.930 . S
N11 Cu0 1.985 . S
N11 C13 1.335 . S
N11 C14 1.390 . S
N12 C13 1.345 . S
N12 C15 1.336 . S
C13 N11 1.335 . S
C13 N12 1.345 . S
C13 H18 0.930 . S
C14 N11 1.390 . S
C14 C15 1.346 . S
C14 H19 0.930 . S
C15 N12 1.336 . S
C15 C14 1.346 . S
C15 H22 0.929 . S
C16 O6 1.282 . S
C16 O17 1.216 . S
O17 C16 1.216 . S
H18 C13 0.930 . S
H19 C14 0.930 . S
O20 Cu0 1.959 . S
O20 C7 1.251 . S
H21 C4 0.930 . S
H22 C15 0.929 . S
Cu23 N24 1.999 . S
Cu23 O29 1.974 . S
Cu23 N34 1.985 . S
Cu23 O43 1.959 . S
N24 Cu23 1.999 . S
N24 C26 1.263 . S
N24 C28 1.389 1_565 S
N25 C26 1.358 1_545 S
N25 C27 1.400 . S
C26 N24 1.263 . S
C26 N25 1.358 1_565 S
C26 H32 0.930 . S
C27 N25 1.400 . S
C27 C28 1.351 . S
C27 H44 0.930 . S
C28 N24 1.389 1_545 S
C28 C27 1.351 . S
C28 H33 0.930 . S
O29 Cu23 1.974 . S
O29 C39 1.282 . S
C30 O31 1.261 . S
C30 O43 1.251 . S
O31 C30 1.261 . S
H32 C26 0.930 . S
H33 C28 0.930 . S
N34 Cu23 1.985 . S
N34 C36 1.335 . S
N34 C37 1.390 . S
N35 C36 1.345 . S
N35 C38 1.336 . S
C36 N34 1.335 . S
C36 N35 1.345 . S
C36 H41 0.930 . S
C37 N34 1.390 . S
C37 C38 1.346 . S
C37 H42 0.930 . S
C38 N35 1.336 . S
C38 C37 1.346 . S
C38 H45 0.929 . S
C39 O29 1.282 . S
C39 O40 1.216 . S
O40 C39 1.216 . S
H41 C36 0.930 . S
H42 C37 0.930 . S
O43 Cu23 1.959 . S
O43 C30 1.251 . S
H44 C27 0.930 . S
H45 C38 0.929 . S
Cu46 N47 1.999 . S
Cu46 O52 1.974 . S
Cu46 N57 1.985 . S
Cu46 O66 1.959 . S
N47 Cu46 1.999 . S
N47 C49 1.263 . S
N47 C51 1.389 1_655 S
N48 C49 1.358 1_455 S
N48 C50 1.400 . S
C49 N47 1.263 . S
C49 N48 1.358 1_655 S
C49 H55 0.930 . S
C50 N48 1.400 . S
C50 C51 1.351 . S
C50 H67 0.930 . S
C51 N47 1.389 1_455 S
C51 C50 1.351 . S
C51 H56 0.930 . S
O52 Cu46 1.974 . S
O52 C62 1.282 . S
C53 O54 1.261 . S
C53 O66 1.251 . S
O54 C53 1.261 . S
H55 C49 0.930 . S
H56 C51 0.930 . S
N57 Cu46 1.985 . S
N57 C59 1.335 . S
N57 C60 1.390 . S
N58 C59 1.345 . S
N58 C61 1.336 . S
C59 N57 1.335 . S
C59 N58 1.345 . S
C59 H64 0.930 . S
C60 N57 1.390 . S
C60 C61 1.346 . S
C60 H65 0.930 . S
C61 N58 1.336 . S
C61 C60 1.346 . S
C61 H68 0.929 . S
C62 O52 1.282 . S
C62 O63 1.216 . S
O63 C62 1.216 . S
H64 C59 0.930 . S
H65 C60 0.930 . S
O66 Cu46 1.959 . S
O66 C53 1.251 . S
H67 C50 0.930 . S
H68 C61 0.929 . S
Cu69 N70 1.999 . S
Cu69 O75 1.974 . S
Cu69 N80 1.985 . S
Cu69 O89 1.959 . S
N70 Cu69 1.999 . S
N70 C72 1.263 . S
N70 C74 1.389 1_545 S
N71 C72 1.358 1_565 S
N71 C73 1.400 . S
C72 N70 1.263 . S
C72 N71 1.358 1_545 S
C72 H78 0.930 . S
C73 N71 1.400 . S
C73 C74 1.351 . S
C73 H90 0.930 . S
C74 N70 1.389 1_565 S
C74 C73 1.351 . S
C74 H79 0.930 . S
O75 Cu69 1.974 . S
O75 C85 1.282 . S
C76 O77 1.261 . S
C76 O89 1.251 . S
O77 C76 1.261 . S
H78 C72 0.930 . S
H79 C74 0.930 . S
N80 Cu69 1.985 . S
N80 C82 1.335 . S
N80 C83 1.390 . S
N81 C82 1.345 . S
N81 C84 1.336 . S
C82 N80 1.335 . S
C82 N81 1.345 . S
C82 H87 0.930 . S
C83 N80 1.390 . S
C83 C84 1.346 . S
C83 H88 0.930 . S
C84 N81 1.336 . S
C84 C83 1.346 . S
C84 H91 0.929 . S
C85 O75 1.282 . S
C85 O86 1.216 . S
O86 C85 1.216 . S
H87 C82 0.930 . S
H88 C83 0.930 . S
O89 Cu69 1.959 . S
O89 C76 1.251 . S
H90 C73 0.930 . S
H91 C84 0.929 . S
Cu92 N93 1.999 . S
Cu92 O98 1.974 . S
Cu92 N103 1.985 . S
Cu92 O112 1.959 . S
N93 Cu92 1.999 . S
N93 C95 1.263 . S
N93 C97 1.389 . S
N94 C95 1.358 . S
N94 C96 1.400 . S
C95 N93 1.263 . S
C95 N94 1.358 . S
C95 H101 0.930 . S
C96 N94 1.400 . S
C96 C97 1.351 . S
C96 H113 0.930 . S
C97 N93 1.389 . S
C97 C96 1.351 . S
C97 H102 0.930 . S
O98 Cu92 1.974 . S
O98 C108 1.282 . S
C99 O100 1.261 . S
C99 O112 1.251 . S
O100 C99 1.261 . S
H101 C95 0.930 . S
H102 C97 0.930 . S
N103 Cu92 1.985 . S
N103 C105 1.335 . S
N103 C106 1.390 . S
N104 C105 1.345 . S
N104 C107 1.336 . S
C105 N103 1.335 . S
C105 N104 1.345 . S
C105 H110 0.930 . S
C106 N103 1.390 . S
C106 C107 1.346 . S
C106 H111 0.930 . S
C107 N104 1.336 . S
C107 C106 1.346 . S
C107 H114 0.929 . S
C108 O98 1.282 . S
C108 O109 1.216 . S
O109 C108 1.216 . S
H110 C105 0.930 . S
H111 C106 0.930 . S
O112 Cu92 1.959 . S
O112 C99 1.251 . S
H113 C96 0.930 . S
H114 C107 0.929 . S
Cu115 N116 1.999 . S
Cu115 O121 1.974 . S
Cu115 N126 1.985 . S
Cu115 O135 1.959 . S
N116 Cu115 1.999 . S
N116 C118 1.263 . S
N116 C120 1.389 . S
N117 C118 1.358 . S
N117 C119 1.400 . S
C118 N116 1.263 . S
C118 N117 1.358 . S
C118 H124 0.930 . S
C119 N117 1.400 . S
C119 C120 1.351 . S
C119 H136 0.930 . S
C120 N116 1.389 . S
C120 C119 1.351 . S
C120 H125 0.930 . S
O121 Cu115 1.974 . S
O121 C131 1.282 . S
C122 O123 1.261 . S
C122 O135 1.251 . S
O123 C122 1.261 . S
H124 C118 0.930 . S
H125 C120 0.930 . S
N126 Cu115 1.985 . S
N126 C128 1.335 . S
N126 C129 1.390 . S
N127 C128 1.345 . S
N127 C130 1.336 . S
C128 N126 1.335 . S
C128 N127 1.345 . S
C128 H133 0.930 . S
C129 N126 1.390 . S
C129 C130 1.346 . S
C129 H134 0.930 . S
C130 N127 1.336 . S
C130 C129 1.346 . S
C130 H137 0.929 . S
C131 O121 1.282 . S
C131 O132 1.216 . S
O132 C131 1.216 . S
H133 C128 0.930 . S
H134 C129 0.930 . S
O135 Cu115 1.959 . S
O135 C122 1.251 . S
H136 C119 0.930 . S
H137 C130 0.929 . S
Cu138 N139 1.999 . S
Cu138 O144 1.974 . S
Cu138 N149 1.985 . S
Cu138 O158 1.959 . S
N139 Cu138 1.999 . S
N139 C141 1.263 . S
N139 C143 1.389 . S
N140 C141 1.358 . S
N140 C142 1.400 . S
C141 N139 1.263 . S
C141 N140 1.358 . S
C141 H147 0.930 . S
C142 N140 1.400 . S
C142 C143 1.351 . S
C142 H159 0.930 . S
C143 N139 1.389 . S
C143 C142 1.351 . S
C143 H148 0.930 . S
O144 Cu138 1.974 . S
O144 C154 1.282 . S
C145 O146 1.261 . S
C145 O158 1.251 . S
O146 C145 1.261 . S
H147 C141 0.930 . S
H148 C143 0.930 . S
N149 Cu138 1.985 . S
N149 C151 1.335 . S
N149 C152 1.390 . S
N150 C151 1.345 . S
N150 C153 1.336 . S
C151 N149 1.335 . S
C151 N150 1.345 . S
C151 H156 0.930 . S
C152 N149 1.390 . S
C152 C153 1.346 . S
C152 H157 0.930 . S
C153 N150 1.336 . S
C153 C152 1.346 . S
C153 H160 0.929 . S
C154 O144 1.282 . S
C154 O155 1.216 . S
O155 C154 1.216 . S
H156 C151 0.930 . S
H157 C152 0.930 . S
O158 Cu138 1.959 . S
O158 C145 1.251 . S
H159 C142 0.930 . S
H160 C153 0.929 . S
Cu161 N162 1.999 . S
Cu161 O167 1.974 . S
Cu161 N172 1.985 . S
Cu161 O181 1.959 . S
N162 Cu161 1.999 . S
N162 C164 1.263 . S
N162 C166 1.389 . S
N163 C164 1.358 . S
N163 C165 1.400 . S
C164 N162 1.263 . S
C164 N163 1.358 . S
C164 H170 0.930 . S
C165 N163 1.400 . S
C165 C166 1.351 . S
C165 H182 0.930 . S
C166 N162 1.389 . S
C166 C165 1.351 . S
C166 H171 0.930 . S
O167 Cu161 1.974 . S
O167 C177 1.282 . S
C168 O169 1.261 . S
C168 O181 1.251 . S
O169 C168 1.261 . S
H170 C164 0.930 . S
H171 C166 0.930 . S
N172 Cu161 1.985 . S
N172 C174 1.335 . S
N172 C175 1.390 . S
N173 C174 1.345 . S
N173 C176 1.336 . S
C174 N172 1.335 . S
C174 N173 1.345 . S
C174 H179 0.930 . S
C175 N172 1.390 . S
C175 C176 1.346 . S
C175 H180 0.930 . S
C176 N173 1.336 . S
C176 C175 1.346 . S
C176 H183 0.929 . S
C177 O167 1.282 . S
C177 O178 1.216 . S
O178 C177 1.216 . S
H179 C174 0.930 . S
H180 C175 0.930 . S
O181 Cu161 1.959 . S
O181 C168 1.251 . S
H182 C165 0.930 . S
H183 C176 0.929 . S
C184 C185 1.349 . S
C184 C186 1.327 . S
C184 H209 0.950 . S
C185 C184 1.349 . S
C185 C201 1.349 . S
C186 C184 1.327 . S
C186 C205 1.429 . S
C186 H210 0.950 . S
C187 C204 1.574 . S
C187 C206 1.368 . S
C187 H211 0.949 . S
H188 C192 0.949 . S
C189 C190 1.349 . S
C189 C191 1.327 . S
C189 H212 0.950 . S
C190 C189 1.349 . S
C190 C202 1.349 . S
C191 C189 1.327 . S
C191 C207 1.429 . S
C191 H213 0.950 . S
C192 H188 0.949 . S
C192 C200 1.574 . S
C192 C208 1.368 . S
H193 C201 0.950 . S
H194 C199 0.950 . S
H195 C200 0.949 . S
H196 C202 0.950 . S
H197 C203 0.950 . S
H198 C204 0.949 . S
C199 H194 0.950 . S
C199 C201 1.327 . S
C199 C205 1.429 . S
C200 C192 1.574 . S
C200 H195 0.949 . S
C200 C206 1.368 . S
C201 C185 1.349 . S
C201 H193 0.950 . S
C201 C199 1.327 . S
C202 C190 1.349 . S
C202 H196 0.950 . S
C202 C203 1.327 . S
C203 H197 0.950 . S
C203 C202 1.327 . S
C203 C207 1.429 . S
C204 C187 1.574 . S
C204 H198 0.949 . S
C204 C208 1.368 . S
C205 C186 1.429 . S
C205 C199 1.429 . S
C205 C206 1.523 . S
C206 C187 1.368 . S
C206 C200 1.368 . S
C206 C205 1.523 . S
C207 C191 1.429 . S
C207 C203 1.429 . S
C207 C208 1.523 . S
C208 C192 1.368 . S
C208 C204 1.368 . S
C208 C207 1.523 . S
H209 C184 0.950 . S
H210 C186 0.950 . S
H211 C187 0.949 . S
H212 C189 0.950 . S
H213 C191 0.950 . S
C214 C215 1.349 . S
C214 C216 1.327 . S
C214 H239 0.950 . S
C215 C214 1.349 . S
C215 C231 1.349 . S
C216 C214 1.327 . S
C216 C235 1.429 . S
C216 H240 0.950 . S
C217 C234 1.574 . S
C217 C236 1.368 . S
C217 H241 0.949 . S
H218 C222 0.949 . S
C219 C220 1.349 . S
C219 C221 1.327 . S
C219 H242 0.950 . S
C220 C219 1.349 . S
C220 C232 1.349 . S
C221 C219 1.327 . S
C221 C237 1.429 . S
C221 H243 0.950 . S
C222 H218 0.949 . S
C222 C230 1.574 . S
C222 C238 1.368 . S
H223 C231 0.950 . S
H224 C229 0.950 . S
H225 C230 0.949 . S
H226 C232 0.950 . S
H227 C233 0.950 . S
H228 C234 0.949 . S
C229 H224 0.950 . S
C229 C231 1.327 . S
C229 C235 1.429 . S
C230 C222 1.574 . S
C230 H225 0.949 . S
C230 C236 1.368 . S
C231 C215 1.349 . S
C231 H223 0.950 . S
C231 C229 1.327 . S
C232 C220 1.349 . S
C232 H226 0.950 . S
C232 C233 1.327 . S
C233 H227 0.950 . S
C233 C232 1.327 . S
C233 C237 1.429 . S
C234 C217 1.574 . S
C234 H228 0.949 . S
C234 C238 1.368 . S
C235 C216 1.429 . S
C235 C229 1.429 . S
C235 C236 1.523 . S
C236 C217 1.368 . S
C236 C230 1.368 . S
C236 C235 1.523 . S
C237 C221 1.429 . S
C237 C233 1.429 . S
C237 C238 1.523 . S
C238 C222 1.368 . S
C238 C234 1.368 . S
C238 C237 1.523 . S
H239 C214 0.950 . S
H240 C216 0.950 . S
H241 C217 0.949 . S
H242 C219 0.950 . S
H243 C221 0.950 . S
C244 C245 1.349 . S
C244 C246 1.327 . S
C244 H269 0.950 . S
C245 C244 1.349 . S
C245 C261 1.349 . S
C246 C244 1.327 . S
C246 C265 1.429 . S
C246 H270 0.950 . S
C247 C264 1.574 . S
C247 C266 1.368 . S
C247 H271 0.949 . S
H248 C252 0.949 . S
C249 C250 1.349 . S
C249 C251 1.327 . S
C249 H272 0.950 . S
C250 C249 1.349 . S
C250 C262 1.349 . S
C251 C249 1.327 . S
C251 C267 1.429 . S
C251 H273 0.950 . S
C252 H248 0.949 . S
C252 C260 1.574 . S
C252 C268 1.368 . S
H253 C261 0.950 . S
H254 C259 0.950 . S
H255 C260 0.949 . S
H256 C262 0.950 . S
H257 C263 0.950 . S
H258 C264 0.949 . S
C259 H254 0.950 . S
C259 C261 1.327 . S
C259 C265 1.429 . S
C260 C252 1.574 . S
C260 H255 0.949 . S
C260 C266 1.368 . S
C261 C245 1.349 . S
C261 H253 0.950 . S
C261 C259 1.327 . S
C262 C250 1.349 . S
C262 H256 0.950 . S
C262 C263 1.327 . S
C263 H257 0.950 . S
C263 C262 1.327 . S
C263 C267 1.429 . S
C264 C247 1.574 . S
C264 H258 0.949 . S
C264 C268 1.368 . S
C265 C246 1.429 . S
C265 C259 1.429 . S
C265 C266 1.523 . S
C266 C247 1.368 . S
C266 C260 1.368 . S
C266 C265 1.523 . S
C267 C251 1.429 . S
C267 C263 1.429 . S
C267 C268 1.523 . S
C268 C252 1.368 . S
C268 C264 1.368 . S
C268 C267 1.523 . S
H269 C244 0.950 . S
H270 C246 0.950 . S
H271 C247 0.949 . S
H272 C249 0.950 . S
H273 C251 0.950 . S
C274 C275 1.349 . S
C274 C276 1.327 . S
C274 H299 0.950 . S
C275 C274 1.349 . S
C275 C291 1.349 . S
C276 C274 1.327 . S
C276 C295 1.429 . S
C276 H300 0.950 . S
C277 C294 1.574 . S
C277 C296 1.368 . S
C277 H301 0.949 . S
H278 C282 0.949 . S
C279 C280 1.349 . S
C279 C281 1.327 . S
C279 H302 0.950 . S
C280 C279 1.349 . S
C280 C292 1.349 . S
C281 C279 1.327 . S
C281 C297 1.429 . S
C281 H303 0.950 . S
C282 H278 0.949 . S
C282 C290 1.574 . S
C282 C298 1.368 . S
H283 C291 0.950 . S
H284 C289 0.950 . S
H285 C290 0.949 . S
H286 C292 0.950 . S
H287 C293 0.950 . S
H288 C294 0.949 . S
C289 H284 0.950 . S
C289 C291 1.327 . S
C289 C295 1.429 . S
C290 C282 1.574 . S
C290 H285 0.949 . S
C290 C296 1.368 . S
C291 C275 1.349 . S
C291 H283 0.950 . S
C291 C289 1.327 . S
C292 C280 1.349 . S
C292 H286 0.950 . S
C292 C293 1.327 . S
C293 H287 0.950 . S
C293 C292 1.327 . S
C293 C297 1.429 . S
C294 C277 1.574 . S
C294 H288 0.949 . S
C294 C298 1.368 . S
C295 C276 1.429 . S
C295 C289 1.429 . S
C295 C296 1.523 . S
C296 C277 1.368 . S
C296 C290 1.368 . S
C296 C295 1.523 . S
C297 C281 1.429 . S
C297 C293 1.429 . S
C297 C298 1.523 . S
C298 C282 1.368 . S
C298 C294 1.368 . S
C298 C297 1.523 . S
H299 C274 0.950 . S
H300 C276 0.950 . S
H301 C277 0.949 . S
H302 C279 0.950 . S
H303 C281 0.950 . S
C304 C305 1.349 . S
C304 C306 1.327 . S
C304 H329 0.950 . S
C305 C304 1.349 . S
C305 C321 1.349 . S
C306 C304 1.327 . S
C306 C325 1.429 . S
C306 H330 0.950 . S
C307 C324 1.574 . S
C307 C326 1.368 . S
C307 H331 0.949 . S
H308 C312 0.949 . S
C309 C310 1.349 . S
C309 C311 1.327 . S
C309 H332 0.950 . S
C310 C309 1.349 . S
C310 C322 1.349 . S
C311 C309 1.327 . S
C311 C327 1.429 . S
C311 H333 0.950 . S
C312 H308 0.949 . S
C312 C320 1.574 . S
C312 C328 1.368 . S
H313 C321 0.950 . S
H314 C319 0.950 . S
H315 C320 0.949 . S
H316 C322 0.950 . S
H317 C323 0.950 . S
H318 C324 0.949 . S
C319 H314 0.950 . S
C319 C321 1.327 . S
C319 C325 1.429 . S
C320 C312 1.574 . S
C320 H315 0.949 . S
C320 C326 1.368 . S
C321 C305 1.349 . S
C321 H313 0.950 . S
C321 C319 1.327 . S
C322 C310 1.349 . S
C322 H316 0.950 . S
C322 C323 1.327 . S
C323 H317 0.950 . S
C323 C322 1.327 . S
C323 C327 1.429 . S
C324 C307 1.574 . S
C324 H318 0.949 . S
C324 C328 1.368 . S
C325 C306 1.429 . S
C325 C319 1.429 . S
C325 C326 1.523 . S
C326 C307 1.368 . S
C326 C320 1.368 . S
C326 C325 1.523 . S
C327 C311 1.429 . S
C327 C323 1.429 . S
C327 C328 1.523 . S
C328 C312 1.368 . S
C328 C324 1.368 . S
C328 C327 1.523 . S
H329 C304 0.950 . S
H330 C306 0.950 . S
H331 C307 0.949 . S
H332 C309 0.950 . S
H333 C311 0.950 . S
C334 C335 1.349 . S
C334 C336 1.327 . S
C334 H359 0.950 . S
C335 C334 1.349 . S
C335 C351 1.349 . S
C336 C334 1.327 . S
C336 C355 1.429 . S
C336 H360 0.950 . S
C337 C354 1.574 . S
C337 C356 1.368 . S
C337 H361 0.949 . S
H338 C342 0.949 . S
C339 C340 1.349 . S
C339 C341 1.327 . S
C339 H362 0.950 . S
C340 C339 1.349 . S
C340 C352 1.349 . S
C341 C339 1.327 . S
C341 C357 1.429 . S
C341 H363 0.950 . S
C342 H338 0.949 . S
C342 C350 1.574 . S
C342 C358 1.368 . S
H343 C351 0.950 . S
H344 C349 0.950 . S
H345 C350 0.949 . S
H346 C352 0.950 . S
H347 C353 0.950 . S
H348 C354 0.949 . S
C349 H344 0.950 . S
C349 C351 1.327 . S
C349 C355 1.429 . S
C350 C342 1.574 . S
C350 H345 0.949 . S
C350 C356 1.368 . S
C351 C335 1.349 . S
C351 H343 0.950 . S
C351 C349 1.327 . S
C352 C340 1.349 . S
C352 H346 0.950 . S
C352 C353 1.327 . S
C353 H347 0.950 . S
C353 C352 1.327 . S
C353 C357 1.429 . S
C354 C337 1.574 . S
C354 H348 0.949 . S
C354 C358 1.368 . S
C355 C336 1.429 . S
C355 C349 1.429 . S
C355 C356 1.523 . S
C356 C337 1.368 . S
C356 C350 1.368 . S
C356 C355 1.523 . S
C357 C341 1.429 . S
C357 C353 1.429 . S
C357 C358 1.523 . S
C358 C342 1.368 . S
C358 C354 1.368 . S
C358 C357 1.523 . S
H359 C334 0.950 . S
H360 C336 0.950 . S
H361 C337 0.949 . S
H362 C339 0.950 . S
H363 C341 0.950 . S
C364 C365 1.349 . S
C364 C366 1.327 . S
C364 H389 0.950 . S
C365 C364 1.349 . S
C365 C381 1.349 . S
C366 C364 1.327 . S
C366 C385 1.429 . S
C366 H390 0.950 . S
C367 C384 1.574 . S
C367 C386 1.368 . S
C367 H391 0.949 . S
H368 C372 0.949 . S
C369 C370 1.349 . S
C369 C371 1.327 . S
C369 H392 0.950 . S
C370 C369 1.349 . S
C370 C382 1.349 . S
C371 C369 1.327 . S
C371 C387 1.429 . S
C371 H393 0.950 . S
C372 H368 0.949 . S
C372 C380 1.574 . S
C372 C388 1.368 . S
H373 C381 0.950 . S
H374 C379 0.950 . S
H375 C380 0.949 . S
H376 C382 0.950 . S
H377 C383 0.950 . S
H378 C384 0.949 . S
C379 H374 0.950 . S
C379 C381 1.327 . S
C379 C385 1.429 . S
C380 C372 1.574 . S
C380 H375 0.949 . S
C380 C386 1.368 . S
C381 C365 1.349 . S
C381 H373 0.950 . S
C381 C379 1.327 . S
C382 C370 1.349 . S
C382 H376 0.950 . S
C382 C383 1.327 . S
C383 H377 0.950 . S
C383 C382 1.327 . S
C383 C387 1.429 . S
C384 C367 1.574 . S
C384 H378 0.949 . S
C384 C388 1.368 . S
C385 C366 1.429 . S
C385 C379 1.429 . S
C385 C386 1.523 . S
C386 C367 1.368 . S
C386 C380 1.368 . S
C386 C385 1.523 . S
C387 C371 1.429 . S
C387 C383 1.429 . S
C387 C388 1.523 . S
C388 C372 1.368 . S
C388 C384 1.368 . S
C388 C387 1.523 . S
H389 C364 0.950 . S
H390 C366 0.950 . S
H391 C367 0.949 . S
H392 C369 0.950 . S
H393 C371 0.950 . S
C394 C395 1.349 . S
C394 C396 1.327 . S
C394 H419 0.950 . S
C395 C394 1.349 . S
C395 C411 1.349 . S
C396 C394 1.327 . S
C396 C415 1.429 . S
C396 H420 0.950 . S
C397 C414 1.574 . S
C397 C416 1.368 . S
C397 H421 0.949 . S
H398 C402 0.949 . S
C399 C400 1.349 . S
C399 C401 1.327 . S
C399 H422 0.950 . S
C400 C399 1.349 . S
C400 C412 1.349 . S
C401 C399 1.327 . S
C401 C417 1.429 . S
C401 H423 0.950 . S
C402 H398 0.949 . S
C402 C410 1.574 . S
C402 C418 1.368 . S
H403 C411 0.950 . S
H404 C409 0.950 . S
H405 C410 0.949 . S
H406 C412 0.950 . S
H407 C413 0.950 . S
H408 C414 0.949 . S
C409 H404 0.950 . S
C409 C411 1.327 . S
C409 C415 1.429 . S
C410 C402 1.574 . S
C410 H405 0.949 . S
C410 C416 1.368 . S
C411 C395 1.349 . S
C411 H403 0.950 . S
C411 C409 1.327 . S
C412 C400 1.349 . S
C412 H406 0.950 . S
C412 C413 1.327 . S
C413 H407 0.950 . S
C413 C412 1.327 . S
C413 C417 1.429 . S
C414 C397 1.574 . S
C414 H408 0.949 . S
C414 C418 1.368 . S
C415 C396 1.429 . S
C415 C409 1.429 . S
C415 C416 1.523 . S
C416 C397 1.368 . S
C416 C410 1.368 . S
C416 C415 1.523 . S
C417 C401 1.429 . S
C417 C413 1.429 . S
C417 C418 1.523 . S
C418 C402 1.368 . S
C418 C414 1.368 . S
C418 C417 1.523 . S
H419 C394 0.950 . S
H420 C396 0.950 . S
H421 C397 0.949 . S
H422 C399 0.950 . S
H423 C401 0.950 . S
C424 C425 1.349 . S
C424 C426 1.327 . S
C424 H449 0.950 . S
C425 C424 1.349 . S
C425 C441 1.349 1_554 S
C426 C424 1.327 . S
C426 C445 1.450 . S
C426 H450 0.950 . S
C427 C444 1.574 . S
C427 C446 1.368 . S
C427 H451 0.949 . S
H428 C432 0.949 1_554 S
C429 C430 1.349 . S
C429 C431 1.327 . S
C429 H452 0.950 . S
C430 C429 1.349 . S
C430 C442 1.349 . S
C431 C429 1.327 . S
C431 C447 1.429 . S
C431 H453 0.950 . S
C432 H428 0.949 1_556 S
C432 C440 1.574 1_556 S
C432 C448 1.368 . S
H433 C441 0.950 . S
H434 C439 0.950 . S
H435 C440 0.949 . S
H436 C442 0.950 . S
H437 C443 0.950 . S
H438 C444 0.949 . S
C439 H434 0.950 . S
C439 C441 1.327 . S
C439 C445 1.417 1_556 S
C440 C432 1.574 1_554 S
C440 H435 0.949 . S
C440 C446 1.368 1_554 S
C441 C425 1.349 1_556 S
C441 H433 0.950 . S
C441 C439 1.327 . S
C442 C430 1.349 . S
C442 H436 0.950 . S
C442 C443 1.327 . S
C443 H437 0.950 . S
C443 C442 1.327 . S
C443 C447 1.429 . S
C444 C427 1.574 . S
C444 H438 0.949 . S
C444 C448 1.368 . S
C445 C426 1.450 . S
C445 C439 1.417 1_554 S
C445 C446 1.514 1_554 S
C446 C427 1.368 . S
C446 C440 1.368 1_556 S
C446 C445 1.514 1_556 S
C447 C431 1.429 . S
C447 C443 1.429 . S
C447 C448 1.523 . S
C448 C432 1.368 . S
C448 C444 1.368 . S
C448 C447 1.523 . S
H449 C424 0.950 . S
H450 C426 0.950 . S
H451 C427 0.949 . S
H452 C429 0.950 . S
H453 C431 0.950 . S
C454 C455 1.349 . S
C454 C456 1.327 . S
C454 H479 0.950 . S
C455 C454 1.349 . S
C455 C471 1.349 . S
C456 C454 1.327 . S
C456 C475 1.429 . S
C456 H480 0.950 . S
C457 C474 1.574 . S
C457 C476 1.368 . S
C457 H481 0.949 . S
H458 C462 0.957 . S
C459 C460 1.349 . S
C459 C461 1.331 . S
C459 H482 0.950 . S
C460 C459 1.349 . S
C460 C472 1.349 . S
C461 C459 1.331 . S
C461 C477 1.428 . S
C461 H483 0.945 1_556 S
C462 H458 0.957 . S
C462 C470 1.574 . S
C462 C478 1.368 . S
H463 C471 0.950 . S
H464 C469 0.950 . S
H465 C470 0.949 . S
H466 C472 0.950 . S
H467 C473 0.950 . S
H468 C474 0.949 . S
C469 H464 0.950 . S
C469 C471 1.327 . S
C469 C475 1.429 . S
C470 C462 1.574 . S
C470 H465 0.949 . S
C470 C476 1.368 . S
C471 C455 1.349 . S
C471 H463 0.950 . S
C471 C469 1.327 . S
C472 C460 1.349 . S
C472 H466 0.950 . S
C472 C473 1.327 . S
C473 H467 0.950 . S
C473 C472 1.327 . S
C473 C477 1.439 . S
C474 C457 1.574 . S
C474 H468 0.949 . S
C474 C478 1.368 . S
C475 C456 1.429 . S
C475 C469 1.429 . S
C475 C476 1.523 . S
C476 C457 1.368 . S
C476 C470 1.368 . S
C476 C475 1.523 . S
C477 C461 1.428 . S
C477 C473 1.439 . S
C477 C478 1.514 1_556 S
C478 C462 1.368 . S
C478 C474 1.368 . S
C478 C477 1.514 1_554 S
H479 C454 0.950 . S
H480 C456 0.950 . S
H481 C457 0.949 . S
H482 C459 0.950 . S
H483 C461 0.945 1_554 S
C484 C485 1.349 . S
C484 C486 1.332 . S
C484 H509 0.950 . S
C485 C484 1.349 . S
C485 C501 1.349 . S
C486 C484 1.332 . S
C486 C505 1.429 . S
C486 H510 0.945 1_554 S
C487 C504 1.574 . S
C487 C506 1.368 . S
C487 H511 0.958 . S
H488 C492 0.949 . S
C489 C490 1.349 . S
C489 C491 1.327 . S
C489 H512 0.950 . S
C490 C489 1.349 . S
C490 C502 1.349 . S
C491 C489 1.327 . S
C491 C507 1.429 . S
C491 H513 0.950 . S
C492 H488 0.949 . S
C492 C500 1.574 . S
C492 C508 1.368 . S
H493 C501 0.950 . S
H494 C499 0.950 . S
H495 C500 0.949 . S
H496 C502 0.950 . S
H497 C503 0.950 . S
H498 C504 0.949 . S
C499 H494 0.950 . S
C499 C501 1.327 . S
C499 C505 1.439 . S
C500 C492 1.574 . S
C500 H495 0.949 . S
C500 C506 1.368 . S
C501 C485 1.349 . S
C501 H493 0.950 . S
C501 C499 1.327 . S
C502 C490 1.349 . S
C502 H496 0.950 . S
C502 C503 1.327 . S
C503 H497 0.950 . S
C503 C502 1.327 . S
C503 C507 1.429 . S
C504 C487 1.574 . S
C504 H498 0.949 . S
C504 C508 1.368 . S
C505 C486 1.429 . S
C505 C499 1.439 . S
C505 C506 1.514 1_554 S
C506 C487 1.368 . S
C506 C500 1.368 . S
C506 C505 1.514 1_556 S
C507 C491 1.429 . S
C507 C503 1.429 . S
C507 C508 1.523 . S
C508 C492 1.368 . S
C508 C504 1.368 . S
C508 C507 1.523 . S
H509 C484 0.950 . S
H510 C486 0.945 1_556 S
H511 C487 0.958 . S
H512 C489 0.950 . S
H513 C491 0.950 . S
C514 C515 1.349 1_554 S
C514 C516 1.327 . S
C514 H539 0.950 . S
C515 C514 1.349 1_556 S
C515 C531 1.349 . S
C516 C514 1.327 . S
C516 C535 1.418 1_554 S
C516 H540 0.950 . S
C517 C534 1.574 1_556 S
C517 C536 1.368 1_556 S
C517 H541 0.949 . S
H518 C522 0.949 . S
C519 C520 1.349 . S
C519 C521 1.327 . S
C519 H542 0.950 . S
C520 C519 1.349 . S
C520 C532 1.349 . S
C521 C519 1.327 . S
C521 C537 1.429 . S
C521 H543 0.950 . S
C522 H518 0.949 . S
C522 C530 1.574 . S
C522 C538 1.368 . S
H523 C531 0.950 . S
H524 C529 0.950 . S
H525 C530 0.949 . S
H526 C532 0.950 . S
H527 C533 0.950 . S
H528 C534 0.938 1_556 S
C529 H524 0.950 . S
C529 C531 1.327 . S
C529 C535 1.449 . S
C530 C522 1.574 . S
C530 H525 0.949 . S
C530 C536 1.368 . S
C531 C515 1.349 . S
C531 H523 0.950 . S
C531 C529 1.327 . S
C532 C520 1.349 . S
C532 H526 0.950 . S
C532 C533 1.327 . S
C533 H527 0.950 . S
C533 C532 1.327 . S
C533 C537 1.429 . S
C534 C517 1.574 1_554 S
C534 H528 0.938 1_554 S
C534 C538 1.368 . S
C535 C516 1.418 1_556 S
C535 C529 1.449 . S
C535 C536 1.514 1_556 S
C536 C517 1.368 1_554 S
C536 C530 1.368 . S
C536 C535 1.514 1_554 S
C537 C521 1.429 . S
C537 C533 1.429 . S
C537 C538 1.523 . S
C538 C522 1.368 . S
C538 C534 1.368 . S
C538 C537 1.523 . S
H539 C514 0.950 . S
H540 C516 0.950 . S
H541 C517 0.949 . S
H542 C519 0.950 . S
H543 C521 0.950 . S
C544 C545 1.349 . S
C544 C546 1.327 1_655 S
C544 H569 0.950 1_655 S
C545 C544 1.349 . S
C545 C561 1.349 . S
C546 C544 1.327 1_455 S
C546 C565 1.429 1_455 S
C546 H570 0.950 . S
C547 C564 1.574 . S
C547 C566 1.368 . S
C547 H571 0.949 . S
H548 C552 0.949 . S
C549 C550 1.349 . S
C549 C551 1.327 1_455 S
C549 H572 0.950 1_455 S
C550 C549 1.349 . S
C550 C562 1.349 . S
C551 C549 1.327 1_655 S
C551 C567 1.429 1_655 S
C551 H573 0.950 . S
C552 H548 0.949 . S
C552 C560 1.574 . S
C552 C568 1.368 . S
H553 C561 0.950 . S
H554 C559 0.950 . S
H555 C560 0.949 . S
H556 C562 0.950 . S
H557 C563 0.950 . S
H558 C564 0.949 . S
C559 H554 0.950 . S
C559 C561 1.327 . S
C559 C565 1.429 . S
C560 C552 1.574 . S
C560 H555 0.949 . S
C560 C566 1.368 1_455 S
C561 C545 1.349 . S
C561 H553 0.950 . S
C561 C559 1.327 . S
C562 C550 1.349 . S
C562 H556 0.950 . S
C562 C563 1.327 . S
C563 H557 0.950 . S
C563 C562 1.327 . S
C563 C567 1.429 . S
C564 C547 1.574 . S
C564 H558 0.949 . S
C564 C568 1.368 1_655 S
C565 C546 1.429 1_655 S
C565 C559 1.429 . S
C565 C566 1.523 . S
C566 C547 1.368 . S
C566 C560 1.368 1_655 S
C566 C565 1.523 . S
C567 C551 1.429 1_455 S
C567 C563 1.429 . S
C567 C568 1.523 . S
C568 C552 1.368 . S
C568 C564 1.368 1_455 S
C568 C567 1.523 . S
H569 C544 0.950 1_455 S
H570 C546 0.950 . S
H571 C547 0.949 . S
H572 C549 0.950 1_655 S
H573 C551 0.950 . S
C574 C575 1.349 . S
C574 C576 1.327 . S
C574 H599 0.950 . S
C575 C574 1.349 . S
C575 C591 1.349 . S
C576 C574 1.327 . S
C576 C595 1.429 . S
C576 H600 0.950 . S
C577 C594 1.574 . S
C577 C596 1.368 1_565 S
C577 H601 0.949 . S
H578 C582 0.949 . S
C579 C580 1.349 . S
C579 C581 1.327 . S
C579 H602 0.950 . S
C580 C579 1.349 . S
C580 C592 1.349 . S
C581 C579 1.327 . S
C581 C597 1.429 . S
C581 H603 0.950 . S
C582 H578 0.949 . S
C582 C590 1.574 . S
C582 C598 1.368 1_545 S
H583 C591 0.950 1_565 S
H584 C589 0.950 . S
H585 C590 0.949 . S
H586 C592 0.950 1_545 S
H587 C593 0.950 . S
H588 C594 0.949 . S
C589 H584 0.950 . S
C589 C591 1.327 1_565 S
C589 C595 1.429 1_565 S
C590 C582 1.574 . S
C590 H585 0.949 . S
C590 C596 1.368 . S
C591 C575 1.349 . S
C591 H583 0.950 1_545 S
C591 C589 1.327 1_545 S
C592 C580 1.349 . S
C592 H586 0.950 1_565 S
C592 C593 1.327 1_565 S
C593 H587 0.950 . S
C593 C592 1.327 1_545 S
C593 C597 1.429 1_545 S
C594 C577 1.574 . S
C594 H588 0.949 . S
C594 C598 1.368 . S
C595 C576 1.429 . S
C595 C589 1.429 1_545 S
C595 C596 1.523 . S
C596 C577 1.368 1_545 S
C596 C590 1.368 . S
C596 C595 1.523 . S
C597 C581 1.429 . S
C597 C593 1.429 1_565 S
C597 C598 1.523 . S
C598 C582 1.368 1_565 S
C598 C594 1.368 . S
C598 C597 1.523 . S
H599 C574 0.950 . S
H600 C576 0.950 . S
H601 C577 0.949 . S
H602 C579 0.950 . S
H603 C581 0.950 . S
C604 C605 1.349 . S
C604 C606 1.327 . S
C604 H629 0.950 . S
C605 C604 1.349 . S
C605 C621 1.349 . S
C606 C604 1.327 . S
C606 C625 1.429 . S
C606 H630 0.950 . S
C607 C624 1.574 1_545 S
C607 C626 1.368 . S
C607 H631 0.949 . S
H608 C612 0.949 . S
C609 C610 1.349 . S
C609 C611 1.327 . S
C609 H632 0.950 . S
C610 C609 1.349 . S
C610 C622 1.349 . S
C611 C609 1.327 . S
C611 C627 1.429 . S
C611 H633 0.950 . S
C612 H608 0.949 . S
C612 C620 1.574 1_565 S
C612 C628 1.368 . S
H613 C621 0.950 . S
H614 C619 0.950 . S
H615 C620 0.949 . S
H616 C622 0.950 . S
H617 C623 0.950 . S
H618 C624 0.949 . S
C619 H614 0.950 . S
C619 C621 1.327 . S
C619 C625 1.429 . S
C620 C612 1.574 1_545 S
C620 H615 0.949 . S
C620 C626 1.368 . S
C621 C605 1.349 . S
C621 H613 0.950 . S
C621 C619 1.327 . S
C622 C610 1.349 . S
C622 H616 0.950 . S
C622 C623 1.327 . S
C623 H617 0.950 . S
C623 C622 1.327 . S
C623 C627 1.429 . S
C624 C607 1.574 1_565 S
C624 H618 0.949 . S
C624 C628 1.368 . S
C625 C606 1.429 . S
C625 C619 1.429 . S
C625 C626 1.523 . S
C626 C607 1.368 . S
C626 C620 1.368 . S
C626 C625 1.523 . S
C627 C611 1.429 . S
C627 C623 1.429 . S
C627 C628 1.523 . S
C628 C612 1.368 . S
C628 C624 1.368 . S
C628 C627 1.523 . S
H629 C604 0.950 . S
H630 C606 0.950 . S
H631 C607 0.949 . S
H632 C609 0.950 . S
H633 C611 0.950 . S
C634 C635 1.349 . S
C634 C636 1.327 . S
C634 H659 0.950 . S
C635 C634 1.349 . S
C635 C651 1.349 . S
C636 C634 1.327 . S
C636 C655 1.429 . S
C636 H660 0.950 . S
C637 C654 1.574 1_455 S
C637 C656 1.368 . S
C637 H661 0.949 . S
H638 C642 0.949 . S
C639 C640 1.349 . S
C639 C641 1.327 . S
C639 H662 0.950 . S
C640 C639 1.349 . S
C640 C652 1.349 . S
C641 C639 1.327 . S
C641 C657 1.429 . S
C641 H663 0.950 . S
C642 H638 0.949 . S
C642 C650 1.574 1_655 S
C642 C658 1.368 . S
H643 C651 0.950 . S
H644 C649 0.950 . S
H645 C650 0.949 . S
H646 C652 0.950 . S
H647 C653 0.950 . S
H648 C654 0.949 . S
C649 H644 0.950 . S
C649 C651 1.327 . S
C649 C655 1.429 . S
C650 C642 1.574 1_455 S
C650 H645 0.949 . S
C650 C656 1.368 . S
C651 C635 1.349 . S
C651 H643 0.950 . S
C651 C649 1.327 . S
C652 C640 1.349 . S
C652 H646 0.950 . S
C652 C653 1.327 . S
C653 H647 0.950 . S
C653 C652 1.327 . S
C653 C657 1.429 . S
C654 C637 1.574 1_655 S
C654 H648 0.949 . S
C654 C658 1.368 . S
C655 C636 1.429 . S
C655 C649 1.429 . S
C655 C656 1.523 . S
C656 C637 1.368 . S
C656 C650 1.368 . S
C656 C655 1.523 . S
C657 C641 1.429 . S
C657 C653 1.429 . S
C657 C658 1.523 . S
C658 C642 1.368 . S
C658 C654 1.368 . S
C658 C657 1.523 . S
H659 C634 0.950 . S
H660 C636 0.950 . S
H661 C637 0.949 . S
H662 C639 0.950 . S
H663 C641 0.950 . S
C185 N173 1.716 . S
C190 N12 1.716 . S
C215 N35 1.716 . S
C220 N104 1.716 . S
C245 N58 1.716 . S
C250 N127 1.716 . S
C275 N150 1.716 . S
C280 N81 1.716 . S
C305 N25 1.661 . S
C310 C16 1.737 . S
C335 C39 1.737 . S
C340 N48 1.661 . S
C365 N71 1.661 . S
C370 C62 1.737 . S
C395 C85 1.737 . S
C400 N2 1.661 . S
C425 N163 1.661 . S
C430 C108 1.737 . S
C455 C131 1.737 . S
C460 N94 1.661 . S
C485 N117 1.661 . S
C490 C154 1.737 . S
C515 N140 1.661 . S
C520 C177 1.737 . S
C545 C53 1.869 . S
C550 C7 1.869 . S
C575 C76 1.869 . S
C580 C30 1.869 . S
C605 C145 1.869 . S
C610 C99 1.869 . S
C635 C168 1.869 . S
C640 C122 1.869 . S
