# Generated by pormake.
# Topology umd, (4)-cn, num edge types: 1
# Building blocks:
#     Node 0, Type 0, BuildingBlock: ICAMEG_clean_sbu_1, # of connection points: 4
#     Node 1, Type 0, BuildingBlock: ICAMEG_clean_sbu_1, # of connection points: 4
#     Node 2, Type 0, BuildingBlock: ICAMEG_clean_sbu_1, # of connection points: 4
#     Node 3, Type 0, BuildingBlock: ICAMEG_clean_sbu_1, # of connection points: 4
#     Node 4, Type 0, BuildingBlock: ICAMEG_clean_sbu_1, # of connection points: 4
#     Node 5, Type 0, BuildingBlock: ICAMEG_clean_sbu_1, # of connection points: 4
#     Node 6, Type 0, BuildingBlock: ICAMEG_clean_sbu_1, # of connection points: 4
#     Node 7, Type 0, BuildingBlock: ICAMEG_clean_sbu_1, # of connection points: 4
#     Node 8, Type 0, BuildingBlock: ICAMEG_clean_sbu_1, # of connection points: 4
#     Node 9, Type 0, BuildingBlock: ICAMEG_clean_sbu_1, # of connection points: 4
#     Node 10, Type 0, BuildingBlock: ICAMEG_clean_sbu_1, # of connection points: 4
#     Node 11, Type 0, BuildingBlock: ICAMEG_clean_sbu_1, # of connection points: 4
#     Node 12, Type 0, BuildingBlock: ICAMEG_clean_sbu_1, # of connection points: 4
#     Node 13, Type 0, BuildingBlock: ICAMEG_clean_sbu_1, # of connection points: 4
#     Node 14, Type 0, BuildingBlock: ICAMEG_clean_sbu_1, # of connection points: 4
#     Node 15, Type 0, BuildingBlock: ICAMEG_clean_sbu_1, # of connection points: 4
#     Edge 16, Type (0, 0), BuildingBlock: XIVTED_clean_linker_0, # of connection points: 2
#     Edge 17, Type (0, 0), BuildingBlock: XIVTED_clean_linker_0, # of connection points: 2
#     Edge 18, Type (0, 0), BuildingBlock: XIVTED_clean_linker_0, # of connection points: 2
#     Edge 19, Type (0, 0), BuildingBlock: XIVTED_clean_linker_0, # of connection points: 2
#     Edge 20, Type (0, 0), BuildingBlock: XIVTED_clean_linker_0, # of connection points: 2
#     Edge 21, Type (0, 0), BuildingBlock: XIVTED_clean_linker_0, # of connection points: 2
#     Edge 22, Type (0, 0), BuildingBlock: XIVTED_clean_linker_0, # of connection points: 2
#     Edge 23, Type (0, 0), BuildingBlock: XIVTED_clean_linker_0, # of connection points: 2
#     Edge 24, Type (0, 0), BuildingBlock: XIVTED_clean_linker_0, # of connection points: 2
#     Edge 25, Type (0, 0), BuildingBlock: XIVTED_clean_linker_0, # of connection points: 2
#     Edge 26, Type (0, 0), BuildingBlock: XIVTED_clean_linker_0, # of connection points: 2
#     Edge 27, Type (0, 0), BuildingBlock: XIVTED_clean_linker_0, # of connection points: 2
#     Edge 28, Type (0, 0), BuildingBlock: XIVTED_clean_linker_0, # of connection points: 2
#     Edge 29, Type (0, 0), BuildingBlock: XIVTED_clean_linker_0, # of connection points: 2
#     Edge 30, Type (0, 0), BuildingBlock: XIVTED_clean_linker_0, # of connection points: 2
#     Edge 31, Type (0, 0), BuildingBlock: XIVTED_clean_linker_0, # of connection points: 2
#     Edge 32, Type (0, 0), BuildingBlock: XIVTED_clean_linker_0, # of connection points: 2
#     Edge 33, Type (0, 0), BuildingBlock: XIVTED_clean_linker_0, # of connection points: 2
#     Edge 34, Type (0, 0), BuildingBlock: XIVTED_clean_linker_0, # of connection points: 2
#     Edge 35, Type (0, 0), BuildingBlock: XIVTED_clean_linker_0, # of connection points: 2
#     Edge 36, Type (0, 0), BuildingBlock: XIVTED_clean_linker_0, # of connection points: 2
#     Edge 37, Type (0, 0), BuildingBlock: XIVTED_clean_linker_0, # of connection points: 2
#     Edge 38, Type (0, 0), BuildingBlock: XIVTED_clean_linker_0, # of connection points: 2
#     Edge 39, Type (0, 0), BuildingBlock: XIVTED_clean_linker_0, # of connection points: 2
#     Edge 40, Type (0, 0), BuildingBlock: XIVTED_clean_linker_0, # of connection points: 2
#     Edge 41, Type (0, 0), BuildingBlock: XIVTED_clean_linker_0, # of connection points: 2
#     Edge 42, Type (0, 0), BuildingBlock: XIVTED_clean_linker_0, # of connection points: 2
#     Edge 43, Type (0, 0), BuildingBlock: XIVTED_clean_linker_0, # of connection points: 2
#     Edge 44, Type (0, 0), BuildingBlock: XIVTED_clean_linker_0, # of connection points: 2
#     Edge 45, Type (0, 0), BuildingBlock: XIVTED_clean_linker_0, # of connection points: 2
#     Edge 46, Type (0, 0), BuildingBlock: XIVTED_clean_linker_0, # of connection points: 2
#     Edge 47, Type (0, 0), BuildingBlock: XIVTED_clean_linker_0, # of connection points: 2
# Relax obj value: 0.055
# Max RMSD: 0.157
# Mean RMSD: 0.157
data_MOF--net-umd--node1-ICAMEG_clean_sbu_1--edge1-XIVTED_clean_linker_0
_symmetry_space_group_name_H-M    P1
_symmetry_Int_Tables_number       1
_symmetry_cell_setting            triclinic
loop_
_symmetry_equiv_pos_as_xyz
'x, y, z'
_cell_length_a     41.895975
_cell_length_b     41.903194
_cell_length_c     61.400938
_cell_angle_alpha  90.004484
_cell_angle_beta   90.003498
_cell_angle_gamma 90.091149
loop_
_atom_site_label
_atom_site_type_symbol
_atom_site_fract_x
_atom_site_fract_y
_atom_site_fract_z
_atom_type_partial_charge
Co0 Co 0.18097 0.49478 0.12272 0.0
Co1 Co 0.16251 0.41779 0.13848 0.0
O2 O 0.18357 0.44856 0.11958 0.0
C3 C 0.15498 0.48085 0.07956 0.0
O4 O 0.13729 0.45961 0.08962 0.0
C5 C 0.23066 0.40062 0.14072 0.0
O6 O 0.23711 0.43097 0.14374 0.0
O7 O 0.17794 0.44049 0.16488 0.0
O8 O 0.18735 0.49137 0.1549 0.0
H9 H 0.09508 0.38307 0.20189 0.0
H10 H 0.22597 0.46653 0.09077 0.0
O11 O 0.17422 0.49828 0.09043 0.0
H12 H 0.29302 0.52822 0.14169 0.0
H13 H 0.2032 0.60783 0.09956 0.0
H14 H 0.15034 0.53919 0.15397 0.0
H15 H 0.23451 0.52674 0.14613 0.0
H16 H 0.20626 0.54917 0.09668 0.0
O17 O 0.20193 0.39127 0.13842 0.0
H18 H 0.12104 0.42204 0.1775 0.0
H19 H 0.16076 0.34669 0.14006 0.0
H20 H 0.14687 0.59773 0.15757 0.0
H21 H 0.28435 0.46756 0.08563 0.0
H22 H 0.17344 0.63246 0.13023 0.0
H23 H 0.31829 0.49851 0.11124 0.0
O24 O 0.1339 0.49321 0.12718 0.0
H25 H 0.17398 0.37038 0.06373 0.0
H26 H 0.09952 0.39186 0.12413 0.0
H27 H 0.07959 0.36582 0.09077 0.0
H28 H 0.11695 0.35494 0.06026 0.0
H29 H 0.19283 0.39659 0.09733 0.0
H30 H 0.13544 0.3069 0.16414 0.0
H31 H 0.10222 0.32504 0.19526 0.0
O32 O 0.12269 0.44362 0.13887 0.0
C33 C 0.1859 0.46923 0.16917 0.0
C34 C 0.1094 0.37487 0.18834 0.0
C35 C 0.13209 0.33212 0.16716 0.0
N36 N 0.14215 0.38664 0.15728 0.0
C37 C 0.12408 0.39682 0.17443 0.0
C38 C 0.14642 0.35476 0.15361 0.0
C39 C 0.11345 0.34231 0.18462 0.0
C40 C 0.24055 0.4803 0.10186 0.0
N41 N 0.22684 0.49671 0.11865 0.0
C42 C 0.27361 0.48068 0.09892 0.0
C43 C 0.29264 0.49802 0.11331 0.0
C44 C 0.27848 0.51468 0.13041 0.0
C45 C 0.24535 0.51371 0.13286 0.0
C46 C 0.19158 0.59295 0.1116 0.0
C47 C 0.16213 0.55416 0.1421 0.0
C48 C 0.19318 0.55974 0.11003 0.0
N49 N 0.17872 0.54083 0.12525 0.0
C50 C 0.16001 0.58728 0.14418 0.0
C51 C 0.17489 0.60676 0.12882 0.0
C52 C 0.11445 0.47201 0.13405 0.0
C53 C 0.15749 0.37493 0.07693 0.0
C54 C 0.11589 0.38726 0.11093 0.0
C55 C 0.10449 0.37244 0.09209 0.0
C56 C 0.12547 0.36632 0.07498 0.0
N57 N 0.14731 0.39569 0.1127 0.0
C58 C 0.16805 0.38965 0.09603 0.0
Co59 Co 0.50448 0.18098 0.62263 0.0
Co60 Co 0.5793 0.16027 0.64133 0.0
O61 O 0.55094 0.18214 0.62112 0.0
C62 C 0.5203 0.15702 0.5792 0.0
O63 O 0.54037 0.13805 0.58925 0.0
C64 C 0.59929 0.22747 0.64309 0.0
O65 O 0.56902 0.23468 0.64548 0.0
O66 O 0.55592 0.17791 0.66664 0.0
O67 O 0.50549 0.18543 0.65512 0.0
H68 H 0.60652 0.09416 0.707 0.0
H69 H 0.53645 0.22693 0.59303 0.0
O70 O 0.50308 0.17628 0.59015 0.0
H71 H 0.47326 0.29277 0.64369 0.0
H72 H 0.394 0.20814 0.59644 0.0
H73 H 0.4569 0.14973 0.65135 0.0
H74 H 0.47245 0.23405 0.64645 0.0
H75 H 0.45288 0.20952 0.59558 0.0
O76 O 0.60787 0.19844 0.6413 0.0
H77 H 0.57048 0.12097 0.68105 0.0
H78 H 0.65002 0.15497 0.64494 0.0
H79 H 0.39807 0.14792 0.65295 0.0
H80 H 0.53776 0.28556 0.58958 0.0
H81 H 0.36623 0.17728 0.62534 0.0
H82 H 0.50608 0.31889 0.61508 0.0
O83 O 0.50454 0.13372 0.62553 0.0
H84 H 0.63287 0.16598 0.56821 0.0
H85 H 0.60159 0.09523 0.62876 0.0
H86 H 0.62878 0.07251 0.5967 0.0
H87 H 0.64461 0.10798 0.56614 0.0
H88 H 0.60542 0.18768 0.6005 0.0
H89 H 0.68695 0.12872 0.67059 0.0
H90 H 0.66521 0.09794 0.70183 0.0
O91 O 0.5512 0.12177 0.64178 0.0
C92 C 0.52676 0.18504 0.67003 0.0
C93 C 0.61628 0.10739 0.6934 0.0
C94 C 0.66142 0.12683 0.67298 0.0
N95 N 0.60814 0.13923 0.66139 0.0
C96 C 0.59599 0.12253 0.67862 0.0
C97 C 0.6404 0.14168 0.65853 0.0
C98 C 0.64921 0.10956 0.6905 0.0
C99 C 0.52235 0.24126 0.60404 0.0
N100 N 0.50427 0.22708 0.61984 0.0
C101 C 0.52329 0.27445 0.60207 0.0
C102 C 0.50555 0.29314 0.6164 0.0
C103 C 0.48714 0.2785 0.63247 0.0
C104 C 0.48682 0.24524 0.63398 0.0
C105 C 0.40761 0.19531 0.60858 0.0
C106 C 0.44318 0.16273 0.63938 0.0
C107 C 0.44093 0.19595 0.60815 0.0
N108 N 0.45825 0.17995 0.62352 0.0
C109 C 0.40989 0.16154 0.64032 0.0
C110 C 0.39204 0.178 0.62481 0.0
C111 C 0.52381 0.11411 0.63439 0.0
C112 C 0.62619 0.1503 0.58146 0.0
C113 C 0.60839 0.11083 0.61553 0.0
C114 C 0.62383 0.09783 0.59743 0.0
C115 C 0.63272 0.11775 0.58029 0.0
N116 N 0.60207 0.14278 0.61655 0.0
C117 C 0.61077 0.16247 0.59983 0.0
Co118 Co 0.81438 0.49999 0.12235 0.0
Co119 Co 0.83298 0.57684 0.13835 0.0
O120 O 0.81186 0.54624 0.11934 0.0
C121 C 0.84011 0.51405 0.07913 0.0
O122 O 0.85796 0.5352 0.08914 0.0
C123 C 0.76489 0.59435 0.14048 0.0
O124 O 0.75826 0.56405 0.14354 0.0
O125 O 0.81737 0.55407 0.16467 0.0
O126 O 0.80818 0.50322 0.15454 0.0
H127 H 0.90035 0.611 0.20193 0.0
H128 H 0.76926 0.52852 0.0906 0.0
O129 O 0.82092 0.49664 0.09004 0.0
H130 H 0.70237 0.46668 0.1415 0.0
H131 H 0.79178 0.38711 0.09894 0.0
H132 H 0.84508 0.45535 0.15341 0.0
H133 H 0.7609 0.46801 0.1458 0.0
H134 H 0.78883 0.44579 0.09623 0.0
O135 O 0.79368 0.60353 0.13825 0.0
H136 H 0.87432 0.57225 0.17741 0.0
H137 H 0.835 0.64793 0.1401 0.0
H138 H 0.84844 0.39679 0.15685 0.0
H139 H 0.71085 0.52765 0.0856 0.0
H140 H 0.82166 0.36226 0.12948 0.0
H141 H 0.67699 0.49662 0.11121 0.0
O142 O 0.86148 0.50146 0.12669 0.0
H143 H 0.82197 0.62477 0.06372 0.0
H144 H 0.89613 0.60258 0.12418 0.0
H145 H 0.91628 0.6288 0.09094 0.0
H146 H 0.87907 0.64004 0.06041 0.0
H147 H 0.8029 0.59837 0.09719 0.0
H148 H 0.8604 0.68751 0.1643 0.0
H149 H 0.89346 0.66909 0.19544 0.0
O150 O 0.87269 0.55085 0.13874 0.0
C151 C 0.80954 0.52528 0.16888 0.0
C152 C 0.8861 0.61932 0.18838 0.0
C153 C 0.86364 0.66226 0.16728 0.0
N154 N 0.8534 0.60783 0.15725 0.0
C155 C 0.87138 0.59749 0.17441 0.0
C156 C 0.84926 0.63974 0.15365 0.0
C157 C 0.88219 0.65191 0.18474 0.0
C158 C 0.75471 0.51472 0.10168 0.0
N159 N 0.76848 0.49818 0.11839 0.0
C160 C 0.72164 0.51442 0.09883 0.0
C161 C 0.70265 0.49705 0.11322 0.0
C162 C 0.71687 0.48025 0.13023 0.0
C163 C 0.75002 0.48114 0.1326 0.0
C164 C 0.8035 0.4019 0.111 0.0
C165 C 0.83319 0.44047 0.14152 0.0
C166 C 0.80196 0.43513 0.10952 0.0
N167 N 0.81655 0.45393 0.12475 0.0
C168 C 0.83526 0.40733 0.14352 0.0
C169 C 0.82025 0.38797 0.12814 0.0
C170 C 0.88092 0.52253 0.13373 0.0
C171 C 0.8384 0.62006 0.07693 0.0
C172 C 0.87982 0.60733 0.11095 0.0
C173 C 0.89134 0.62225 0.09219 0.0
C174 C 0.87045 0.62858 0.07507 0.0
N175 N 0.84837 0.599 0.11265 0.0
C176 C 0.82772 0.60523 0.09596 0.0
Co177 Co 0.49368 0.81496 0.62248 0.0
Co178 Co 0.41916 0.83506 0.64191 0.0
O179 O 0.44719 0.8135 0.62134 0.0
C180 C 0.47704 0.83858 0.57908 0.0
O181 O 0.45708 0.85756 0.58922 0.0
C182 C 0.39866 0.76792 0.64325 0.0
O183 O 0.42885 0.76031 0.64557 0.0
O184 O 0.44282 0.81679 0.66686 0.0
O185 O 0.49329 0.81072 0.65503 0.0
H186 H 0.3931 0.8997 0.70849 0.0
H187 H 0.46151 0.7686 0.59328 0.0
O188 O 0.49449 0.81945 0.58996 0.0
H189 H 0.52611 0.70353 0.64357 0.0
H190 H 0.60386 0.78838 0.59545 0.0
H191 H 0.54156 0.84674 0.65071 0.0
H192 H 0.52648 0.76227 0.6462 0.0
H193 H 0.54499 0.78656 0.59511 0.0
O194 O 0.39041 0.79705 0.64165 0.0
H195 H 0.42867 0.87341 0.682 0.0
H196 H 0.3485 0.84057 0.64602 0.0
H197 H 0.6004 0.84899 0.65179 0.0
H198 H 0.46062 0.70993 0.58997 0.0
H199 H 0.63194 0.81967 0.62401 0.0
H200 H 0.49302 0.67699 0.61528 0.0
O201 O 0.49334 0.86223 0.62527 0.0
H202 H 0.36443 0.83113 0.56914 0.0
H203 H 0.39696 0.90046 0.63016 0.0
H204 H 0.36932 0.92397 0.59855 0.0
H205 H 0.35285 0.88921 0.56775 0.0
H206 H 0.39236 0.80865 0.60098 0.0
H207 H 0.31204 0.8663 0.67221 0.0
H208 H 0.33432 0.89623 0.70367 0.0
O209 O 0.44739 0.87345 0.64263 0.0
C210 C 0.47219 0.81037 0.67006 0.0
C211 C 0.3831 0.88684 0.6948 0.0
C212 C 0.3376 0.86806 0.67446 0.0
N213 N 0.39067 0.85576 0.66237 0.0
C214 C 0.40312 0.872 0.67971 0.0
C215 C 0.35836 0.8535 0.6597 0.0
C216 C 0.35012 0.88485 0.6921 0.0
C217 C 0.47591 0.75443 0.60421 0.0
N218 N 0.49415 0.76884 0.61983 0.0
C219 C 0.47521 0.72122 0.60232 0.0
C220 C 0.49336 0.70275 0.61655 0.0
C221 C 0.51191 0.71763 0.63244 0.0
C222 C 0.51198 0.75089 0.63387 0.0
C223 C 0.59039 0.8012 0.60767 0.0
C224 C 0.55515 0.83374 0.63866 0.0
C225 C 0.55706 0.80031 0.60753 0.0
N226 N 0.53991 0.8163 0.62299 0.0
C227 C 0.58845 0.83519 0.63931 0.0
C228 C 0.60613 0.81875 0.6237 0.0
C229 C 0.47437 0.88148 0.63476 0.0
C230 C 0.37139 0.8465 0.58249 0.0
C231 C 0.3899 0.88518 0.61682 0.0
C232 C 0.3742 0.89862 0.59898 0.0
C233 C 0.36495 0.8791 0.58171 0.0
N234 N 0.39613 0.85318 0.61746 0.0
C235 C 0.38708 0.83388 0.60061 0.0
Co236 Co 0.18162 0.50537 0.37254 0.0
Co237 Co 0.16227 0.58195 0.35644 0.0
O238 O 0.18378 0.55166 0.37543 0.0
C239 C 0.15573 0.51953 0.41569 0.0
O240 O 0.1379 0.54054 0.40558 0.0
C241 C 0.2303 0.59941 0.35367 0.0
O242 O 0.23658 0.56897 0.35103 0.0
O243 O 0.17746 0.55901 0.3301 0.0
O244 O 0.18785 0.50845 0.34033 0.0
H245 H 0.09377 0.61511 0.29323 0.0
H246 H 0.22645 0.53456 0.40426 0.0
O247 O 0.17501 0.50216 0.40486 0.0
H248 H 0.29392 0.47315 0.35358 0.0
H249 H 0.20501 0.39289 0.3963 0.0
H250 H 0.15128 0.46019 0.3416 0.0
H251 H 0.23539 0.47382 0.34923 0.0
H252 H 0.20753 0.45162 0.39884 0.0
O253 O 0.20162 0.60881 0.35602 0.0
H254 H 0.12024 0.57674 0.31775 0.0
H255 H 0.16015 0.65299 0.35435 0.0
H256 H 0.14834 0.40158 0.33834 0.0
H257 H 0.28485 0.53435 0.40931 0.0
H258 H 0.17534 0.36751 0.36583 0.0
H259 H 0.31901 0.50356 0.38382 0.0
O260 O 0.13454 0.5063 0.36815 0.0
H261 H 0.17451 0.6307 0.43074 0.0
H262 H 0.09932 0.60745 0.37101 0.0
H263 H 0.0797 0.63386 0.4043 0.0
H264 H 0.11743 0.64563 0.43448 0.0
H265 H 0.19305 0.60411 0.39722 0.0
H266 H 0.13431 0.6922 0.33013 0.0
H267 H 0.10074 0.6733 0.29936 0.0
O268 O 0.12259 0.55571 0.3565 0.0
C269 C 0.18585 0.53038 0.32593 0.0
C270 C 0.10824 0.62364 0.30663 0.0
C271 C 0.13103 0.6669 0.32732 0.0
N272 N 0.14147 0.61263 0.33756 0.0
C273 C 0.12321 0.60203 0.3206 0.0
C274 C 0.14565 0.6446 0.34095 0.0
C275 C 0.11219 0.65628 0.31006 0.0
C276 C 0.24113 0.52085 0.39323 0.0
N277 N 0.22752 0.50406 0.37655 0.0
C278 C 0.27419 0.52093 0.39612 0.0
C279 C 0.29335 0.50368 0.38179 0.0
C280 C 0.27929 0.48663 0.36481 0.0
C281 C 0.24614 0.48714 0.3624 0.0
C282 C 0.1932 0.40747 0.3842 0.0
C283 C 0.16327 0.44551 0.35354 0.0
C284 C 0.1945 0.44072 0.38557 0.0
N285 N 0.1798 0.45927 0.37027 0.0
C286 C 0.16144 0.41235 0.35165 0.0
C287 C 0.17656 0.39325 0.36709 0.0
C288 C 0.11476 0.52718 0.36138 0.0
C289 C 0.15786 0.62576 0.41769 0.0
C290 C 0.11586 0.61245 0.38407 0.0
C291 C 0.10463 0.62747 0.40287 0.0
C292 C 0.12582 0.63409 0.41979 0.0
N293 N 0.14731 0.60431 0.38215 0.0
C294 C 0.16824 0.61083 0.39863 0.0
Co295 Co 0.49198 0.18332 0.87315 0.0
Co296 Co 0.41551 0.1628 0.8573 0.0
O297 O 0.44569 0.18457 0.87631 0.0
C298 C 0.47896 0.15673 0.9163 0.0
O299 O 0.45801 0.13861 0.90631 0.0
C300 C 0.3967 0.23043 0.85521 0.0
O301 O 0.42693 0.23748 0.85229 0.0
O302 O 0.43783 0.17891 0.83093 0.0
O303 O 0.48837 0.18982 0.84102 0.0
H304 H 0.38273 0.09474 0.79372 0.0
H305 H 0.46252 0.22726 0.90527 0.0
O306 O 0.49578 0.17645 0.9054 0.0
H307 H 0.52228 0.29637 0.85458 0.0
H308 H 0.60444 0.20855 0.89632 0.0
H309 H 0.5372 0.1542 0.84177 0.0
H310 H 0.52241 0.2379 0.84992 0.0
H311 H 0.54571 0.20994 0.89925 0.0
O312 O 0.38793 0.20151 0.85742 0.0
H313 H 0.42095 0.12158 0.81822 0.0
H314 H 0.34448 0.15921 0.85561 0.0
H315 H 0.59581 0.15241 0.83811 0.0
H316 H 0.46195 0.2856 0.91062 0.0
H317 H 0.62984 0.17973 0.86553 0.0
H318 H 0.49192 0.32057 0.88513 0.0
O319 O 0.49172 0.13627 0.86855 0.0
H320 H 0.36743 0.17264 0.93196 0.0
H321 H 0.39137 0.09905 0.87148 0.0
H322 H 0.36569 0.07828 0.90473 0.0
H323 H 0.35356 0.1152 0.93528 0.0
H324 H 0.39333 0.19234 0.89847 0.0
H325 H 0.30541 0.13297 0.83142 0.0
H326 H 0.3245 0.10036 0.80026 0.0
O327 O 0.44244 0.12372 0.85685 0.0
C328 C 0.46635 0.18772 0.8267 0.0
C329 C 0.37412 0.10879 0.80729 0.0
C330 C 0.33073 0.13029 0.82843 0.0
N331 N 0.38495 0.1417 0.83843 0.0
C332 C 0.39565 0.12396 0.82125 0.0
C333 C 0.35295 0.14513 0.84205 0.0
C334 C 0.34145 0.11198 0.81095 0.0
C335 C 0.47586 0.2423 0.89423 0.0
N336 N 0.49263 0.22918 0.87738 0.0
C337 C 0.47534 0.27533 0.89729 0.0
C338 C 0.49213 0.29494 0.88296 0.0
C339 C 0.50916 0.28138 0.86581 0.0
C340 C 0.5091 0.24826 0.86323 0.0
C341 C 0.58987 0.19661 0.88425 0.0
C342 C 0.55186 0.16632 0.85368 0.0
C343 C 0.55662 0.19727 0.88585 0.0
N344 N 0.53808 0.18239 0.87059 0.0
C345 C 0.58502 0.16514 0.85156 0.0
C346 C 0.6041 0.18045 0.86696 0.0
C347 C 0.47107 0.11628 0.86163 0.0
C348 C 0.37253 0.15633 0.91874 0.0
C349 C 0.38623 0.11524 0.88471 0.0
C350 C 0.37161 0.10336 0.90348 0.0
C351 C 0.3648 0.12409 0.92061 0.0
N352 N 0.39378 0.14689 0.88301 0.0
C353 C 0.38707 0.16737 0.89971 0.0
Co354 Co 0.81517 0.49292 0.37294 0.0
Co355 Co 0.83489 0.4165 0.35666 0.0
O356 O 0.81325 0.4466 0.37574 0.0
C357 C 0.84084 0.47884 0.41619 0.0
O358 O 0.85891 0.45793 0.40618 0.0
C359 C 0.767 0.39856 0.35394 0.0
O360 O 0.76049 0.42895 0.35133 0.0
O361 O 0.81947 0.43943 0.33037 0.0
O362 O 0.8091 0.48992 0.34072 0.0
H363 H 0.90352 0.38402 0.29335 0.0
H364 H 0.77033 0.46338 0.40449 0.0
O365 O 0.82157 0.49609 0.40526 0.0
H366 H 0.7028 0.5246 0.35374 0.0
H367 H 0.79107 0.60522 0.39679 0.0
H368 H 0.84543 0.53833 0.34213 0.0
H369 H 0.76136 0.52428 0.34954 0.0
H370 H 0.78885 0.54647 0.39924 0.0
O371 O 0.79574 0.38936 0.35627 0.0
H372 H 0.8768 0.42213 0.31794 0.0
H373 H 0.8375 0.34548 0.35446 0.0
H374 H 0.84806 0.59697 0.33895 0.0
H375 H 0.7119 0.46324 0.40939 0.0
H376 H 0.82074 0.63082 0.36641 0.0
H377 H 0.67772 0.49394 0.38386 0.0
O378 O 0.86229 0.49224 0.36867 0.0
H379 H 0.8232 0.36732 0.43087 0.0
H380 H 0.89807 0.39142 0.37112 0.0
H381 H 0.91796 0.36495 0.40432 0.0
H382 H 0.8804 0.35275 0.4345 0.0
H383 H 0.80439 0.39398 0.39745 0.0
H384 H 0.86359 0.30653 0.33017 0.0
H385 H 0.89698 0.32576 0.29941 0.0
O386 O 0.87439 0.44302 0.35672 0.0
C387 C 0.81107 0.46807 0.32628 0.0
C388 C 0.88912 0.37535 0.30675 0.0
C389 C 0.86667 0.33186 0.32739 0.0
N390 N 0.85586 0.38603 0.33771 0.0
C391 C 0.87402 0.39681 0.32076 0.0
C392 C 0.85191 0.35402 0.34106 0.0
C393 C 0.88541 0.34266 0.31014 0.0
C394 C 0.75564 0.47705 0.39345 0.0
N395 N 0.76925 0.49397 0.37684 0.0
C396 C 0.72256 0.47677 0.39624 0.0
C397 C 0.70339 0.49396 0.38189 0.0
C398 C 0.71745 0.51116 0.36499 0.0
C399 C 0.75061 0.51084 0.36267 0.0
C400 C 0.80301 0.59072 0.3847 0.0
C401 C 0.8333 0.55292 0.35406 0.0
C402 C 0.80189 0.55746 0.38603 0.0
N403 N 0.81677 0.53904 0.37074 0.0
C404 C 0.83496 0.5861 0.35221 0.0
C405 C 0.81965 0.60507 0.36764 0.0
C406 C 0.88213 0.4715 0.36176 0.0
C407 C 0.83979 0.37245 0.41781 0.0
C408 C 0.88161 0.38624 0.38419 0.0
C409 C 0.89299 0.37118 0.40293 0.0
C410 C 0.87189 0.36432 0.41985 0.0
N411 N 0.85009 0.39417 0.38232 0.0
C412 C 0.82925 0.38742 0.39881 0.0
Co413 Co 0.50674 0.81747 0.87296 0.0
Co414 Co 0.5835 0.83757 0.85751 0.0
O415 O 0.55296 0.81609 0.87641 0.0
C416 C 0.51927 0.84467 0.916 0.0
O417 O 0.54038 0.8626 0.90602 0.0
C418 C 0.60174 0.76979 0.85573 0.0
O419 O 0.57146 0.76303 0.85271 0.0
O420 O 0.56139 0.82148 0.83102 0.0
O421 O 0.5108 0.81046 0.84091 0.0
H422 H 0.6176 0.9052 0.79405 0.0
H423 H 0.53559 0.77391 0.90556 0.0
O424 O 0.50253 0.82484 0.90514 0.0
H425 H 0.47619 0.70427 0.85499 0.0
H426 H 0.39384 0.79309 0.89553 0.0
H427 H 0.46211 0.84625 0.84104 0.0
H428 H 0.47638 0.76267 0.84992 0.0
H429 H 0.45252 0.79152 0.89888 0.0
O430 O 0.61079 0.79863 0.85786 0.0
H431 H 0.57886 0.87869 0.81835 0.0
H432 H 0.65457 0.84061 0.85625 0.0
H433 H 0.40357 0.84821 0.83696 0.0
H434 H 0.53583 0.71566 0.91133 0.0
H435 H 0.36902 0.8215 0.86434 0.0
H436 H 0.50604 0.68042 0.8859 0.0
O437 O 0.50727 0.86445 0.86803 0.0
H438 H 0.63038 0.82774 0.93253 0.0
H439 H 0.60794 0.90119 0.87172 0.0
H440 H 0.63322 0.92195 0.90512 0.0
H441 H 0.64457 0.88511 0.93584 0.0
H442 H 0.60492 0.80805 0.89889 0.0
H443 H 0.69414 0.86651 0.83228 0.0
H444 H 0.6757 0.89918 0.80096 0.0
O445 O 0.55684 0.87683 0.85685 0.0
C446 C 0.53295 0.81252 0.82668 0.0
C447 C 0.62593 0.89112 0.80769 0.0
C448 C 0.66889 0.86937 0.82912 0.0
N449 N 0.61445 0.85837 0.83879 0.0
C450 C 0.60411 0.87614 0.82153 0.0
C451 C 0.64638 0.85471 0.84261 0.0
C452 C 0.65852 0.8877 0.81156 0.0
C453 C 0.52232 0.75875 0.89454 0.0
N454 N 0.50583 0.77168 0.8775 0.0
C455 C 0.52266 0.72578 0.89784 0.0
C456 C 0.50597 0.70601 0.88355 0.0
C457 C 0.48923 0.71938 0.8662 0.0
C458 C 0.48947 0.75246 0.86338 0.0
C459 C 0.40864 0.80477 0.88348 0.0
C460 C 0.44723 0.8344 0.85294 0.0
C461 C 0.44186 0.80401 0.88531 0.0
N462 N 0.46068 0.81856 0.87007 0.0
C463 C 0.4141 0.83567 0.85058 0.0
C464 C 0.39473 0.8207 0.86596 0.0
C465 C 0.52812 0.88436 0.8613 0.0
C466 C 0.62562 0.84402 0.91924 0.0
C467 C 0.61277 0.88503 0.88502 0.0
C468 C 0.62715 0.89691 0.90388 0.0
C469 C 0.63353 0.87622 0.9211 0.0
N470 N 0.60503 0.85343 0.88333 0.0
C471 C 0.61133 0.83298 0.90012 0.0
Co472 Co 0.81534 0.50383 0.87274 0.0
Co473 Co 0.83576 0.5796 0.8556 0.0
O474 O 0.81426 0.55016 0.87529 0.0
C475 C 0.84075 0.51782 0.91606 0.0
O476 O 0.85935 0.5383 0.90603 0.0
C477 C 0.76842 0.59894 0.85456 0.0
O478 O 0.76139 0.56872 0.85159 0.0
O479 O 0.81801 0.55729 0.82988 0.0
O480 O 0.80994 0.50643 0.84034 0.0
H481 H 0.90104 0.61047 0.79025 0.0
H482 H 0.77032 0.53425 0.90368 0.0
O483 O 0.82106 0.50097 0.90514 0.0
H484 H 0.70289 0.47337 0.85256 0.0
H485 H 0.78886 0.39214 0.89691 0.0
H486 H 0.84556 0.4577 0.84252 0.0
H487 H 0.76152 0.47285 0.84896 0.0
H488 H 0.7876 0.45094 0.89907 0.0
O489 O 0.7974 0.60775 0.85643 0.0
H490 H 0.87473 0.57299 0.81553 0.0
H491 H 0.8406 0.65047 0.85351 0.0
H492 H 0.84723 0.39899 0.83961 0.0
H493 H 0.71179 0.53524 0.90798 0.0
H494 H 0.81873 0.36581 0.86695 0.0
H495 H 0.67766 0.50472 0.88225 0.0
O496 O 0.8625 0.5041 0.86915 0.0
H497 H 0.83056 0.62957 0.92991 0.0
H498 H 0.90082 0.6018 0.86835 0.0
H499 H 0.92377 0.62759 0.9009 0.0
H500 H 0.88854 0.64163 0.93198 0.0
H501 H 0.80864 0.60356 0.89711 0.0
H502 H 0.86635 0.68881 0.82855 0.0
H503 H 0.89693 0.66884 0.7967 0.0
O504 O 0.87438 0.55183 0.85432 0.0
C505 C 0.81048 0.52839 0.82589 0.0
C506 C 0.88789 0.61946 0.80412 0.0
C507 C 0.86838 0.66343 0.8256 0.0
N508 N 0.85644 0.60954 0.83609 0.0
C509 C 0.87304 0.59835 0.81853 0.0
C510 C 0.85382 0.64162 0.83965 0.0
C511 C 0.88555 0.65221 0.80773 0.0
C512 C 0.75564 0.52065 0.89256 0.0
N513 N 0.76932 0.50338 0.87617 0.0
C514 C 0.72251 0.52141 0.89501 0.0
C515 C 0.70337 0.50432 0.88055 0.0
C516 C 0.71751 0.48674 0.86388 0.0
C517 C 0.75072 0.48658 0.86191 0.0
C518 C 0.80132 0.40634 0.88487 0.0
C519 C 0.83293 0.4434 0.85438 0.0
C520 C 0.80074 0.43962 0.88604 0.0
N521 N 0.81627 0.45768 0.87082 0.0
C522 C 0.83404 0.41018 0.8527 0.0
C523 C 0.81807 0.39158 0.86805 0.0
C524 C 0.88202 0.52395 0.86074 0.0
C525 C 0.84613 0.62367 0.91645 0.0
C526 C 0.88534 0.60785 0.8818 0.0
C527 C 0.89846 0.62249 0.90018 0.0
C528 C 0.87868 0.63038 0.91761 0.0
N529 N 0.85339 0.60134 0.88079 0.0
C530 C 0.83383 0.60907 0.89779 0.0
Co531 Co 0.4943 0.81588 0.37268 0.0
Co532 Co 0.41968 0.8355 0.35318 0.0
O533 O 0.44784 0.81423 0.37379 0.0
C534 C 0.47727 0.84014 0.41582 0.0
O535 O 0.45738 0.8589 0.40543 0.0
C536 C 0.39982 0.76816 0.35188 0.0
O537 O 0.43009 0.76081 0.34962 0.0
O538 O 0.44354 0.81737 0.32829 0.0
O539 O 0.49399 0.81111 0.34015 0.0
H540 H 0.39319 0.89976 0.28652 0.0
H541 H 0.46223 0.76985 0.40218 0.0
O542 O 0.49494 0.82091 0.40518 0.0
H543 H 0.52722 0.70426 0.35244 0.0
H544 H 0.60451 0.79022 0.40009 0.0
H545 H 0.54215 0.84732 0.34426 0.0
H546 H 0.52738 0.76295 0.3494 0.0
H547 H 0.54563 0.78819 0.40036 0.0
O548 O 0.3913 0.79723 0.35345 0.0
H549 H 0.42894 0.87383 0.31307 0.0
H550 H 0.34899 0.84038 0.349 0.0
H551 H 0.60098 0.84979 0.34324 0.0
H552 H 0.46156 0.71124 0.40591 0.0
H553 H 0.63255 0.82109 0.37131 0.0
H554 H 0.49415 0.67803 0.38088 0.0
O555 O 0.49382 0.86309 0.36953 0.0
H556 H 0.36498 0.8313 0.42595 0.0
H557 H 0.3969 0.90073 0.36484 0.0
H558 H 0.36909 0.92409 0.39644 0.0
H559 H 0.35294 0.88928 0.42728 0.0
H560 H 0.39305 0.80896 0.39412 0.0
H561 H 0.31235 0.86575 0.32275 0.0
H562 H 0.33443 0.8958 0.29129 0.0
O563 O 0.44759 0.87412 0.35245 0.0
C564 C 0.47287 0.81077 0.32512 0.0
C565 C 0.38328 0.88685 0.30021 0.0
C566 C 0.33791 0.86771 0.32053 0.0
N567 N 0.39106 0.85591 0.33267 0.0
C568 C 0.4034 0.87221 0.31533 0.0
C569 C 0.35876 0.85337 0.33532 0.0
C570 C 0.35031 0.88458 0.30288 0.0
C571 C 0.47672 0.75558 0.39137 0.0
N572 N 0.49495 0.76981 0.37567 0.0
C573 C 0.47614 0.72239 0.3935 0.0
C574 C 0.4944 0.70378 0.37943 0.0
C575 C 0.51294 0.71847 0.36346 0.0
C576 C 0.51289 0.75171 0.36179 0.0
C577 C 0.59102 0.80277 0.38774 0.0
C578 C 0.55575 0.83461 0.35643 0.0
C579 C 0.55769 0.80175 0.38784 0.0
N580 N 0.54053 0.81739 0.37223 0.0
C581 C 0.58904 0.83617 0.35582 0.0
C582 C 0.60674 0.82008 0.37159 0.0
C583 C 0.47466 0.88225 0.36013 0.0
C584 C 0.3718 0.84669 0.41258 0.0
C585 C 0.38996 0.88542 0.3782 0.0
C586 C 0.37417 0.89878 0.39604 0.0
C587 C 0.3651 0.87924 0.41333 0.0
N588 N 0.39645 0.85348 0.37759 0.0
C589 C 0.38757 0.83415 0.39446 0.0
Co590 Co 0.18109 0.49426 0.87293 0.0
Co591 Co 0.16062 0.41818 0.85641 0.0
O592 O 0.18243 0.44797 0.87569 0.0
C593 C 0.15649 0.48059 0.91649 0.0
O594 O 0.13787 0.45988 0.90668 0.0
C595 C 0.22808 0.39941 0.85459 0.0
O596 O 0.23475 0.42969 0.85149 0.0
O597 O 0.17746 0.44038 0.83036 0.0
O598 O 0.18595 0.49132 0.84049 0.0
H599 H 0.09376 0.38617 0.79205 0.0
H600 H 0.22676 0.46439 0.90367 0.0
O601 O 0.1759 0.49746 0.90536 0.0
H602 H 0.29305 0.52499 0.8517 0.0
H603 H 0.20743 0.60633 0.89633 0.0
H604 H 0.15016 0.53992 0.8427 0.0
H605 H 0.23435 0.52522 0.84857 0.0
H606 H 0.20901 0.54756 0.89877 0.0
O607 O 0.19923 0.39034 0.85684 0.0
H608 H 0.12049 0.42409 0.81682 0.0
H609 H 0.15629 0.34726 0.85468 0.0
H610 H 0.14816 0.59858 0.83952 0.0
H611 H 0.28537 0.4637 0.9075 0.0
H612 H 0.17695 0.63219 0.86647 0.0
H613 H 0.31892 0.49407 0.88135 0.0
O614 O 0.13387 0.49375 0.86969 0.0
H615 H 0.16833 0.36889 0.93082 0.0
H616 H 0.0961 0.3956 0.87009 0.0
H617 H 0.0743 0.36989 0.90304 0.0
H618 H 0.11052 0.35638 0.9337 0.0
H619 H 0.1891 0.39481 0.89765 0.0
H620 H 0.13014 0.30847 0.83023 0.0
H621 H 0.0985 0.32789 0.7987 0.0
O622 O 0.12176 0.44565 0.85551 0.0
C623 C 0.18498 0.46921 0.82616 0.0
C624 C 0.10737 0.37741 0.80578 0.0
C625 C 0.12782 0.33381 0.8272 0.0
N626 N 0.13963 0.3879 0.83729 0.0
C627 C 0.12246 0.39878 0.8199 0.0
C628 C 0.14261 0.35587 0.84096 0.0
C629 C 0.11007 0.34472 0.80951 0.0
C630 C 0.24119 0.47793 0.89236 0.0
N631 N 0.22716 0.49496 0.87599 0.0
C632 C 0.27437 0.47733 0.89455 0.0
C633 C 0.29318 0.49434 0.87985 0.0
C634 C 0.27868 0.51168 0.86321 0.0
C635 C 0.24544 0.51168 0.8615 0.0
C636 C 0.19485 0.59194 0.88446 0.0
C637 C 0.16291 0.5544 0.8544 0.0
C638 C 0.1956 0.55868 0.88579 0.0
N639 N 0.17992 0.54038 0.87078 0.0
C640 C 0.16161 0.5876 0.85256 0.0
C641 C 0.17775 0.60644 0.8677 0.0
C642 C 0.11419 0.47365 0.86174 0.0
C643 C 0.15233 0.37457 0.91754 0.0
C644 C 0.11202 0.38979 0.88337 0.0
C645 C 0.09954 0.3752 0.90197 0.0
C646 C 0.11988 0.3676 0.91916 0.0
N647 N 0.14388 0.39654 0.8819 0.0
C648 C 0.16398 0.38911 0.89867 0.0
Co649 Co 0.50407 0.18169 0.37297 0.0
Co650 Co 0.57879 0.16137 0.35389 0.0
O651 O 0.55053 0.18297 0.37427 0.0
C652 C 0.52054 0.15695 0.41605 0.0
O653 O 0.54048 0.13826 0.40564 0.0
C654 C 0.59857 0.22869 0.35225 0.0
O655 O 0.56828 0.23592 0.34995 0.0
O656 O 0.5551 0.17909 0.32877 0.0
O657 O 0.50476 0.18665 0.34049 0.0
H658 H 0.60571 0.09593 0.28784 0.0
H659 H 0.53622 0.22724 0.40278 0.0
O660 O 0.50308 0.17641 0.40544 0.0
H661 H 0.47232 0.29372 0.35294 0.0
H662 H 0.39383 0.20811 0.39994 0.0
H663 H 0.45624 0.15084 0.34422 0.0
H664 H 0.47168 0.23505 0.3497 0.0
H665 H 0.45271 0.20962 0.40051 0.0
O666 O 0.60718 0.19966 0.35395 0.0
H667 H 0.56978 0.12236 0.31405 0.0
H668 H 0.64949 0.15641 0.34997 0.0
H669 H 0.3974 0.14892 0.34291 0.0
H670 H 0.53736 0.28581 0.4067 0.0
H671 H 0.3658 0.17771 0.37093 0.0
H672 H 0.50532 0.31947 0.38161 0.0
O673 O 0.50418 0.13449 0.36968 0.0
H674 H 0.63291 0.16675 0.42684 0.0
H675 H 0.60147 0.09634 0.36613 0.0
H676 H 0.62899 0.07348 0.39802 0.0
H677 H 0.64489 0.10878 0.42867 0.0
H678 H 0.60515 0.18858 0.39472 0.0
H679 H 0.68631 0.13055 0.32407 0.0
H680 H 0.66443 0.09994 0.29278 0.0
O681 O 0.55086 0.12275 0.3534 0.0
C682 C 0.52593 0.1863 0.3255 0.0
C683 C 0.61553 0.10909 0.30146 0.0
C684 C 0.66077 0.12856 0.32178 0.0
N685 N 0.60754 0.14061 0.33364 0.0
C686 C 0.59531 0.12401 0.31639 0.0
C687 C 0.63981 0.14318 0.33637 0.0
C688 C 0.64847 0.11138 0.30423 0.0
C689 C 0.52197 0.24171 0.39194 0.0
N690 N 0.50378 0.22774 0.37611 0.0
C691 C 0.52282 0.27487 0.39418 0.0
C692 C 0.50487 0.29374 0.38008 0.0
C693 C 0.48636 0.27931 0.36398 0.0
C694 C 0.48614 0.24608 0.3622 0.0
C695 C 0.40733 0.19553 0.38762 0.0
C696 C 0.44263 0.16359 0.35638 0.0
C697 C 0.44066 0.19624 0.38789 0.0
N698 N 0.45784 0.18056 0.3723 0.0
C699 C 0.40933 0.16234 0.35559 0.0
C700 C 0.39162 0.17847 0.37133 0.0
C701 C 0.52347 0.11499 0.36074 0.0
C702 C 0.6262 0.15115 0.41355 0.0
C703 C 0.60832 0.11186 0.3794 0.0
C704 C 0.62393 0.09878 0.3974 0.0
C705 C 0.63286 0.11861 0.41458 0.0
N706 N 0.60186 0.1438 0.37851 0.0
C707 C 0.61061 0.1634 0.39528 0.0
Co708 Co 0.81581 0.49017 0.62255 0.0
Co709 Co 0.83739 0.41509 0.64032 0.0
O710 O 0.81542 0.44377 0.62039 0.0
C711 C 0.84131 0.47586 0.5793 0.0
O712 O 0.86021 0.45583 0.58944 0.0
C713 C 0.77035 0.39466 0.64169 0.0
O714 O 0.76304 0.42488 0.64425 0.0
O715 O 0.81939 0.43759 0.66585 0.0
O716 O 0.81048 0.4881 0.65498 0.0
H717 H 0.90323 0.38676 0.70591 0.0
H718 H 0.77121 0.45838 0.5919 0.0
O719 O 0.82143 0.49256 0.59012 0.0
H720 H 0.70294 0.51901 0.64252 0.0
H721 H 0.78761 0.6009 0.59743 0.0
H722 H 0.84541 0.53742 0.65233 0.0
H723 H 0.76157 0.52062 0.64609 0.0
H724 H 0.78722 0.54205 0.59579 0.0
O725 O 0.79942 0.38621 0.63984 0.0
H726 H 0.87635 0.42322 0.68027 0.0
H727 H 0.84326 0.34435 0.6431 0.0
H728 H 0.84621 0.59621 0.65471 0.0
H729 H 0.71269 0.4563 0.58763 0.0
H730 H 0.81715 0.62834 0.62711 0.0
H731 H 0.67815 0.48669 0.61311 0.0
O732 O 0.86297 0.49082 0.62611 0.0
H733 H 0.8327 0.36349 0.56651 0.0
H734 H 0.90273 0.39377 0.62771 0.0
H735 H 0.92595 0.36771 0.59537 0.0
H736 H 0.89084 0.3524 0.56448 0.0
H737 H 0.8105 0.3898 0.59909 0.0
H738 H 0.86959 0.307 0.66843 0.0
H739 H 0.89994 0.32819 0.70005 0.0
O740 O 0.87562 0.44357 0.64128 0.0
C741 C 0.81138 0.4664 0.6696 0.0
C742 C 0.89019 0.37724 0.69214 0.0
C743 C 0.87127 0.33248 0.67112 0.0
N744 N 0.85856 0.38593 0.6601 0.0
C745 C 0.87502 0.39777 0.67753 0.0
C746 C 0.85638 0.35373 0.65686 0.0
C747 C 0.8883 0.34438 0.68886 0.0
C748 C 0.75634 0.47192 0.60291 0.0
N749 N 0.76978 0.48973 0.61915 0.0
C750 C 0.72322 0.47054 0.60047 0.0
C751 C 0.70385 0.48756 0.61479 0.0
C752 C 0.71775 0.50569 0.63131 0.0
C753 C 0.75095 0.50646 0.63327 0.0
C754 C 0.8003 0.58716 0.60957 0.0
C755 C 0.83254 0.55126 0.64035 0.0
C756 C 0.80022 0.55385 0.6087 0.0
N757 N 0.81604 0.53637 0.62406 0.0
C758 C 0.83316 0.58452 0.64174 0.0
C759 C 0.81687 0.60254 0.62624 0.0
C760 C 0.88282 0.47148 0.63464 0.0
C761 C 0.84822 0.36995 0.5799 0.0
C762 C 0.88729 0.38717 0.61433 0.0
C763 C 0.90057 0.37239 0.59608 0.0
C764 C 0.88086 0.36378 0.57876 0.0
N765 N 0.85526 0.39314 0.61533 0.0
C766 C 0.83577 0.38472 0.59843 0.0
Co767 Co 0.50546 0.81597 0.12211 0.0
Co768 Co 0.58275 0.83475 0.13707 0.0
O769 O 0.5516 0.8137 0.11842 0.0
C770 C 0.51807 0.84269 0.07894 0.0
O771 O 0.53964 0.86024 0.08879 0.0
C772 C 0.59965 0.76659 0.13916 0.0
O773 O 0.5693 0.76042 0.14239 0.0
O774 O 0.56062 0.81938 0.16373 0.0
O775 O 0.50976 0.80903 0.15416 0.0
H776 H 0.61887 0.90242 0.20001 0.0
H777 H 0.53315 0.77173 0.08946 0.0
O778 O 0.50104 0.82326 0.08993 0.0
H779 H 0.47311 0.70342 0.14049 0.0
H780 H 0.39191 0.79353 0.10015 0.0
H781 H 0.46172 0.84567 0.1542 0.0
H782 H 0.47438 0.76183 0.14542 0.0
H783 H 0.45051 0.79089 0.0965 0.0
O784 O 0.60921 0.79524 0.13678 0.0
H785 H 0.57935 0.87639 0.17605 0.0
H786 H 0.65387 0.83634 0.138 0.0
H787 H 0.40326 0.84869 0.15858 0.0
H788 H 0.53231 0.71345 0.08382 0.0
H789 H 0.36794 0.82249 0.13141 0.0
H790 H 0.50219 0.67888 0.10949 0.0
O791 O 0.5069 0.86297 0.12694 0.0
H792 H 0.62889 0.8232 0.06195 0.0
H793 H 0.6082 0.89775 0.12244 0.0
H794 H 0.63367 0.91765 0.08886 0.0
H795 H 0.64415 0.88025 0.05831 0.0
H796 H 0.60325 0.80437 0.09576 0.0
H797 H 0.6942 0.86171 0.16164 0.0
H798 H 0.67676 0.89514 0.19285 0.0
O799 O 0.55688 0.87454 0.13769 0.0
C800 C 0.53211 0.81088 0.16825 0.0
C801 C 0.62677 0.888 0.18641 0.0
C802 C 0.66905 0.86512 0.1649 0.0
N803 N 0.61431 0.85511 0.15555 0.0
C804 C 0.60451 0.87329 0.17276 0.0
C805 C 0.64611 0.85076 0.1516 0.0
C806 C 0.65925 0.88388 0.1824 0.0
C807 C 0.51974 0.75687 0.10058 0.0
N808 N 0.50368 0.77018 0.11767 0.0
C809 C 0.51946 0.72387 0.09736 0.0
C810 C 0.5026 0.70448 0.11178 0.0
C811 C 0.48629 0.71824 0.12919 0.0
C812 C 0.48714 0.75132 0.13192 0.0
C813 C 0.40705 0.80499 0.11211 0.0
C814 C 0.44649 0.83404 0.1424 0.0
C815 C 0.44023 0.80363 0.1101 0.0
N816 N 0.45947 0.8179 0.12522 0.0
C817 C 0.41342 0.83591 0.14492 0.0
C818 C 0.39362 0.82123 0.12966 0.0
C819 C 0.52822 0.88256 0.13344 0.0
C820 C 0.62451 0.83971 0.07517 0.0
C821 C 0.61264 0.88135 0.10921 0.0
C822 C 0.62713 0.89274 0.09025 0.0
C823 C 0.63303 0.87173 0.07312 0.0
N824 N 0.60432 0.84992 0.11109 0.0
C825 C 0.61012 0.82917 0.09439 0.0
Co826 Co 0.18129 0.50518 0.62236 0.0
Co827 Co 0.16099 0.58096 0.63948 0.0
O828 O 0.1828 0.55153 0.61997 0.0
C829 C 0.15705 0.51958 0.5788 0.0
O830 O 0.13845 0.54018 0.58867 0.0
C831 C 0.22849 0.59979 0.64157 0.0
O832 O 0.23506 0.56944 0.64431 0.0
O833 O 0.17774 0.55831 0.66533 0.0
O834 O 0.18596 0.50751 0.65483 0.0
H835 H 0.09416 0.61161 0.7041 0.0
H836 H 0.22728 0.53557 0.59201 0.0
O837 O 0.1763 0.50254 0.58989 0.0
H838 H 0.29299 0.47392 0.64362 0.0
H839 H 0.20731 0.39352 0.59806 0.0
H840 H 0.14995 0.45899 0.65208 0.0
H841 H 0.23428 0.47373 0.6466 0.0
H842 H 0.2092 0.45232 0.59616 0.0
O843 O 0.19967 0.60889 0.63936 0.0
H844 H 0.12079 0.57422 0.67897 0.0
H845 H 0.15678 0.65185 0.64185 0.0
H846 H 0.14763 0.40027 0.65472 0.0
H847 H 0.28591 0.53623 0.58834 0.0
H848 H 0.17645 0.36714 0.62756 0.0
H849 H 0.31917 0.50532 0.61431 0.0
O850 O 0.13407 0.50566 0.62543 0.0
H851 H 0.16898 0.6317 0.56553 0.0
H852 H 0.09656 0.60376 0.62593 0.0
H853 H 0.07489 0.63011 0.59321 0.0
H854 H 0.11121 0.64425 0.56271 0.0
H855 H 0.18961 0.60512 0.59848 0.0
H856 H 0.13074 0.69011 0.66667 0.0
H857 H 0.09906 0.67002 0.69801 0.0
O858 O 0.12204 0.55343 0.64008 0.0
C859 C 0.1851 0.5294 0.66933 0.0
C860 C 0.10778 0.62066 0.69045 0.0
C861 C 0.12835 0.66472 0.66945 0.0
N862 N 0.14002 0.61085 0.65884 0.0
C863 C 0.12282 0.5996 0.67612 0.0
C864 C 0.14307 0.64295 0.65548 0.0
C865 C 0.11058 0.65343 0.68704 0.0
C866 C 0.24158 0.52181 0.60324 0.0
N867 N 0.22737 0.5045 0.61942 0.0
C868 C 0.27477 0.52238 0.60114 0.0
C869 C 0.29343 0.50507 0.61573 0.0
C870 C 0.27875 0.48746 0.63219 0.0
C871 C 0.2455 0.48749 0.63383 0.0
C872 C 0.19471 0.4077 0.61001 0.0
C873 C 0.16273 0.44471 0.6403 0.0
C874 C 0.19564 0.44098 0.60899 0.0
N875 N 0.17993 0.45902 0.62411 0.0
C876 C 0.16124 0.41149 0.64183 0.0
C877 C 0.1774 0.39291 0.62658 0.0
C878 C 0.11441 0.52557 0.63354 0.0
C879 C 0.15293 0.62575 0.57874 0.0
C880 C 0.11252 0.60984 0.61273 0.0
C881 C 0.10011 0.6248 0.59425 0.0
C882 C 0.12051 0.63274 0.57715 0.0
N883 N 0.14435 0.60307 0.61416 0.0
C884 C 0.1645 0.61084 0.59748 0.0
Co885 Co 0.49138 0.18075 0.12242 0.0
Co886 Co 0.41457 0.16152 0.13822 0.0
O887 O 0.44514 0.18274 0.11922 0.0
C888 C 0.47791 0.15422 0.07931 0.0
O889 O 0.45673 0.13642 0.08933 0.0
C890 C 0.39712 0.22952 0.14035 0.0
O891 O 0.42747 0.23598 0.14333 0.0
O892 O 0.43715 0.17721 0.1646 0.0
O893 O 0.48782 0.18748 0.15453 0.0
H894 H 0.38045 0.0939 0.20168 0.0
H895 H 0.46263 0.22502 0.09022 0.0
O896 O 0.49507 0.17368 0.09018 0.0
H897 H 0.52344 0.29338 0.1408 0.0
H898 H 0.60425 0.20405 0.09927 0.0
H899 H 0.53607 0.15108 0.15391 0.0
H900 H 0.52269 0.23493 0.14555 0.0
H901 H 0.54555 0.20635 0.09629 0.0
O902 O 0.38778 0.20078 0.1381 0.0
H903 H 0.4192 0.12011 0.17724 0.0
H904 H 0.3435 0.15931 0.13988 0.0
H905 H 0.59464 0.14839 0.15762 0.0
H906 H 0.46294 0.28334 0.08478 0.0
H907 H 0.62914 0.17501 0.13017 0.0
H908 H 0.49344 0.31794 0.11022 0.0
O909 O 0.49034 0.13371 0.12712 0.0
H910 H 0.36672 0.17231 0.06354 0.0
H911 H 0.38933 0.09823 0.12397 0.0
H912 H 0.3633 0.07795 0.0907 0.0
H913 H 0.35185 0.11512 0.06017 0.0
H914 H 0.39292 0.19151 0.09706 0.0
H915 H 0.30392 0.13374 0.164 0.0
H916 H 0.32235 0.10065 0.19512 0.0
O917 O 0.44078 0.12194 0.13865 0.0
C918 C 0.46575 0.18571 0.16884 0.0
C919 C 0.37213 0.10817 0.18813 0.0
C920 C 0.32917 0.13056 0.167 0.0
N921 N 0.38361 0.14098 0.15706 0.0
C922 C 0.39395 0.12298 0.17421 0.0
C923 C 0.35168 0.14503 0.15343 0.0
C924 C 0.33953 0.11199 0.18445 0.0
C925 C 0.47621 0.23989 0.10123 0.0
N926 N 0.49278 0.22658 0.1181 0.0
C927 C 0.47619 0.27291 0.09812 0.0
C928 C 0.49327 0.29232 0.11242 0.0
C929 C 0.51009 0.27855 0.12959 0.0
C930 C 0.50953 0.24545 0.13222 0.0
C931 C 0.58947 0.19241 0.11136 0.0
C932 C 0.55094 0.16289 0.14198 0.0
C933 C 0.55624 0.19357 0.10973 0.0
N934 N 0.53745 0.17908 0.12501 0.0
C935 C 0.58408 0.16121 0.14413 0.0
C936 C 0.60342 0.17612 0.12871 0.0
C937 C 0.46933 0.11404 0.13395 0.0
C938 C 0.37152 0.1559 0.07675 0.0
C939 C 0.38447 0.11453 0.11076 0.0
C940 C 0.36966 0.10293 0.09197 0.0
C941 C 0.36322 0.1238 0.07486 0.0
N942 N 0.39257 0.14603 0.11248 0.0
C943 C 0.38623 0.16666 0.0958 0.0
H944 H 0.08658 0.53101 0.13043 0.0
H945 H 0.90881 0.46359 0.12965 0.0
H946 H 0.06409 0.43155 0.1411 0.0
H947 H 0.93124 0.56282 0.14137 0.0
H948 H 0.96581 0.4513 0.13093 0.0
H949 H 0.02957 0.54325 0.13153 0.0
C950 C 0.06973 0.51175 0.13302 0.0
C951 C 0.0802 0.48016 0.13552 0.0
C952 C 0.95815 0.47573 0.13329 0.0
C953 C 0.01501 0.49401 0.13666 0.0
C954 C 0.92564 0.48279 0.1325 0.0
C955 C 0.91516 0.51433 0.13525 0.0
C956 C 0.98033 0.50042 0.1366 0.0
C957 C 0.93813 0.53819 0.13903 0.0
C958 C 0.03721 0.51878 0.13371 0.0
C959 C 0.05721 0.45622 0.13897 0.0
N960 N 0.96963 0.53077 0.13943 0.0
N961 N 0.02569 0.46361 0.13927 0.0
H962 H 0.46641 0.92236 0.66876 0.0
H963 H 0.4939 0.07984 0.60276 0.0
H964 H 0.50115 0.91745 0.60271 0.0
H965 H 0.53432 0.07154 0.66713 0.0
H966 H 0.48277 0.02221 0.60304 0.0
H967 H 0.47852 0.97983 0.66924 0.0
C968 C 0.47667 0.93344 0.65443 0.0
C969 C 0.48309 0.91538 0.63572 0.0
C970 C 0.49392 0.03319 0.61709 0.0
C971 C 0.49583 0.98056 0.63596 0.0
C972 C 0.50002 0.06591 0.61703 0.0
C973 C 0.51496 0.08021 0.63497 0.0
C974 C 0.502 0.01507 0.63546 0.0
C975 C 0.52281 0.06122 0.65299 0.0
C976 C 0.48356 0.966 0.65474 0.0
C977 C 0.49626 0.93065 0.6175 0.0
N978 N 0.51592 0.02953 0.6529 0.0
N979 N 0.50182 0.96259 0.61795 0.0
H980 H 0.08798 0.4676 0.36477 0.0
H981 H 0.90887 0.53107 0.36572 0.0
H982 H 0.06358 0.56669 0.35484 0.0
H983 H 0.93329 0.43226 0.3545 0.0
H984 H 0.9656 0.54466 0.36449 0.0
H985 H 0.03124 0.45411 0.36376 0.0
C986 C 0.07076 0.48653 0.36237 0.0
C987 C 0.08062 0.51838 0.36003 0.0
C988 C 0.95845 0.52004 0.36223 0.0
C989 C 0.01569 0.50307 0.35897 0.0
C990 C 0.92609 0.51223 0.363 0.0
C991 C 0.91624 0.48042 0.36036 0.0
C992 C 0.98113 0.49585 0.35905 0.0
C993 C 0.93969 0.45707 0.35673 0.0
C994 C 0.03838 0.47878 0.36173 0.0
C995 C 0.05716 0.54185 0.35682 0.0
N996 N 0.97104 0.46522 0.35634 0.0
N997 N 0.02578 0.53374 0.35654 0.0
H998 H 0.4683 0.91057 0.8642 0.0
H999 H 0.53084 0.09009 0.86541 0.0
H1000 H 0.56734 0.93579 0.8545 0.0
H1001 H 0.43219 0.06489 0.85393 0.0
H1002 H 0.54476 0.0335 0.86393 0.0
H1003 H 0.45449 0.96717 0.86293 0.0
C1004 C 0.48714 0.92794 0.86178 0.0
C1005 C 0.51907 0.91836 0.85961 0.0
C1006 C 0.5201 0.04045 0.86165 0.0
C1007 C 0.50342 0.98312 0.85827 0.0
C1008 C 0.51211 0.07273 0.86256 0.0
C1009 C 0.48024 0.08231 0.85996 0.0
C1010 C 0.49603 0.0176 0.85836 0.0
C1011 C 0.45703 0.0587 0.85617 0.0
C1012 C 0.47922 0.96023 0.86099 0.0
C1013 C 0.54243 0.94199 0.85637 0.0
N1014 N 0.46536 0.02744 0.85565 0.0
N1015 N 0.53416 0.97328 0.85597 0.0
H1016 H 0.92348 0.5341 0.82727 0.0
H1017 H 0.07991 0.50426 0.89291 0.0
H1018 H 0.91723 0.49475 0.89205 0.0
H1019 H 0.07178 0.46225 0.829 0.0
H1020 H 0.02233 0.51559 0.89231 0.0
H1021 H 0.98089 0.52154 0.82678 0.0
C1022 C 0.93425 0.52274 0.84131 0.0
C1023 C 0.91585 0.51514 0.85967 0.0
C1024 C 0.03335 0.50405 0.87843 0.0
C1025 C 0.98088 0.50193 0.85945 0.0
C1026 C 0.06602 0.49783 0.87868 0.0
C1027 C 0.08032 0.48239 0.86096 0.0
C1028 C 0.01531 0.49563 0.86008 0.0
C1029 C 0.06141 0.47414 0.84296 0.0
C1030 C 0.96676 0.5156 0.841 0.0
C1031 C 0.93071 0.50059 0.87753 0.0
N1032 N 0.02976 0.48121 0.84285 0.0
N1033 N 0.9626 0.49484 0.87713 0.0
H1034 H 0.49377 0.08051 0.39232 0.0
H1035 H 0.46605 0.92321 0.32623 0.0
H1036 H 0.53391 0.07262 0.32785 0.0
H1037 H 0.50179 0.91822 0.39202 0.0
H1038 H 0.47799 0.98073 0.32575 0.0
H1039 H 0.48274 0.02286 0.39192 0.0
C1040 C 0.49984 0.06667 0.37801 0.0
C1041 C 0.51468 0.08108 0.36007 0.0
C1042 C 0.48328 0.96687 0.3402 0.0
C1043 C 0.50184 0.01592 0.35945 0.0
C1044 C 0.47649 0.93428 0.3405 0.0
C1045 C 0.48324 0.91618 0.35914 0.0
C1046 C 0.49579 0.9814 0.35891 0.0
C1047 C 0.49663 0.93145 0.37729 0.0
C1048 C 0.49381 0.03394 0.37788 0.0
C1049 C 0.52248 0.0622 0.34198 0.0
N1050 N 0.50209 0.9634 0.37685 0.0
N1051 N 0.51565 0.03049 0.34201 0.0
H1052 H 0.92455 0.46241 0.66809 0.0
H1053 H 0.08022 0.49518 0.60216 0.0
H1054 H 0.91746 0.50124 0.60321 0.0
H1055 H 0.07186 0.5364 0.66629 0.0
H1056 H 0.02276 0.48314 0.60276 0.0
H1057 H 0.9817 0.47624 0.6685 0.0
C1058 C 0.93508 0.47392 0.65401 0.0
C1059 C 0.91651 0.48098 0.63564 0.0
C1060 C 0.03369 0.4947 0.61668 0.0
C1061 C 0.98128 0.49568 0.63579 0.0
C1062 C 0.0663 0.50133 0.61643 0.0
C1063 C 0.08052 0.51672 0.63422 0.0
C1064 C 0.01562 0.50264 0.6351 0.0
C1065 C 0.06156 0.52456 0.65226 0.0
C1066 C 0.96744 0.48179 0.65429 0.0
C1067 C 0.93107 0.49578 0.61773 0.0
N1068 N 0.02999 0.51708 0.65238 0.0
N1069 N 0.96284 0.50225 0.6181 0.0
H1070 H 0.42964 0.06327 0.14175 0.0
H1071 H 0.56837 0.93331 0.14017 0.0
H1072 H 0.52864 0.08686 0.13011 0.0
H1073 H 0.46881 0.90982 0.13091 0.0
H1074 H 0.55426 0.98968 0.1416 0.0
H1075 H 0.44389 0.00693 0.14292 0.0
C1076 C 0.4544 0.05669 0.13947 0.0
C1077 C 0.47795 0.07992 0.13561 0.0
C1078 C 0.53554 0.97216 0.13926 0.0
C1079 C 0.49435 0.01535 0.13713 0.0
C1080 C 0.54353 0.93992 0.13847 0.0
C1081 C 0.51977 0.91671 0.13521 0.0
C1082 C 0.50352 0.9813 0.13703 0.0
C1083 C 0.48797 0.92684 0.13328 0.0
C1084 C 0.46246 0.02447 0.14011 0.0
C1085 C 0.50965 0.06981 0.13295 0.0
N1086 N 0.48077 0.95841 0.13423 0.0
N1087 N 0.51692 0.03825 0.13378 0.0
H1088 H 0.18983 0.57051 0.29079 0.0
H1089 H 0.18972 0.42898 0.20429 0.0
H1090 H 0.19634 0.47094 0.30855 0.0
H1091 H 0.1966 0.52859 0.18664 0.0
H1092 H 0.19524 0.4438 0.24249 0.0
H1093 H 0.19539 0.55562 0.25262 0.0
C1094 C 0.19267 0.54552 0.28671 0.0
C1095 C 0.19227 0.52192 0.30295 0.0
C1096 C 0.19584 0.46238 0.23025 0.0
C1097 C 0.19847 0.50472 0.25915 0.0
C1098 C 0.19265 0.45396 0.20839 0.0
C1099 C 0.19235 0.47759 0.19217 0.0
C1100 C 0.1985 0.4947 0.236 0.0
C1101 C 0.19647 0.50953 0.19854 0.0
C1102 C 0.19589 0.53705 0.26487 0.0
C1103 C 0.1963 0.48996 0.29662 0.0
N1104 N 0.19904 0.51716 0.21997 0.0
N1105 N 0.1989 0.48229 0.2752 0.0
H1106 H 0.46613 0.19341 0.68609 0.0
H1107 H 0.52509 0.20283 0.80982 0.0
H1108 H 0.56517 0.19247 0.70575 0.0
H1109 H 0.42684 0.18742 0.79104 0.0
H1110 H 0.53932 0.208 0.77148 0.0
H1111 H 0.45072 0.19998 0.72421 0.0
C1112 C 0.48466 0.19487 0.69835 0.0
C1113 C 0.51701 0.192 0.69269 0.0
C1114 C 0.51461 0.20373 0.77578 0.0
C1115 C 0.49947 0.19953 0.73633 0.0
C1116 C 0.50642 0.20082 0.79769 0.0
C1117 C 0.47474 0.19429 0.80372 0.0
C1118 C 0.49099 0.20013 0.75973 0.0
C1119 C 0.45161 0.19216 0.7872 0.0
C1120 C 0.47582 0.19856 0.72012 0.0
C1121 C 0.53993 0.19422 0.70932 0.0
N1122 N 0.46025 0.19484 0.76596 0.0
N1123 N 0.5307 0.19767 0.73037 0.0
H1124 H 0.79816 0.46583 0.186 0.0
H1125 H 0.79902 0.52745 0.30929 0.0
H1126 H 0.80658 0.56509 0.20428 0.0
H1127 H 0.80818 0.42834 0.29084 0.0
H1128 H 0.79302 0.54148 0.27093 0.0
H1129 H 0.79299 0.45179 0.2244 0.0
C1130 C 0.79863 0.48473 0.19803 0.0
C1131 C 0.80318 0.51669 0.19185 0.0
C1132 C 0.79613 0.51665 0.27531 0.0
C1133 C 0.79731 0.50067 0.23589 0.0
C1134 C 0.7995 0.50858 0.29723 0.0
C1135 C 0.80448 0.47667 0.30334 0.0
C1136 C 0.79762 0.49267 0.25937 0.0
C1137 C 0.8047 0.45329 0.28694 0.0
C1138 C 0.79575 0.47665 0.21998 0.0
C1139 C 0.80341 0.54011 0.20824 0.0
N1140 N 0.80152 0.46179 0.26571 0.0
N1141 N 0.80073 0.5316 0.2295 0.0
H1142 H 0.47485 0.79506 0.80986 0.0
H1143 H 0.53325 0.80498 0.68602 0.0
H1144 H 0.57245 0.81397 0.791 0.0
H1145 H 0.43435 0.80092 0.70582 0.0
H1146 H 0.54909 0.79972 0.72418 0.0
H1147 H 0.46091 0.78854 0.77159 0.0
C1148 C 0.49345 0.79759 0.79773 0.0
C1149 C 0.52484 0.80545 0.80372 0.0
C1150 C 0.52394 0.79973 0.72011 0.0
C1151 C 0.5089 0.79807 0.75977 0.0
C1152 C 0.51486 0.80265 0.69832 0.0
C1153 C 0.48239 0.80379 0.69269 0.0
C1154 C 0.50041 0.79779 0.73635 0.0
C1155 C 0.45966 0.80053 0.70936 0.0
C1156 C 0.48542 0.79389 0.77584 0.0
C1157 C 0.54789 0.80818 0.78719 0.0
N1158 N 0.46911 0.79788 0.73042 0.0
N1159 N 0.5394 0.80473 0.76596 0.0
H1160 H 0.8049 0.56844 0.79084 0.0
H1161 H 0.80469 0.42655 0.70464 0.0
H1162 H 0.80031 0.46875 0.80862 0.0
H1163 H 0.80174 0.52622 0.68671 0.0
H1164 H 0.79831 0.44161 0.74267 0.0
H1165 H 0.79897 0.55353 0.75273 0.0
C1166 C 0.80238 0.54341 0.78679 0.0
C1167 C 0.8035 0.51978 0.80301 0.0
C1168 C 0.79876 0.46019 0.73042 0.0
C1169 C 0.79686 0.50257 0.75924 0.0
C1170 C 0.80245 0.45162 0.70864 0.0
C1171 C 0.80416 0.47519 0.69241 0.0
C1172 C 0.797 0.49257 0.7361 0.0
C1173 C 0.80079 0.50724 0.69865 0.0
C1174 C 0.79896 0.53493 0.76497 0.0
C1175 C 0.79983 0.48778 0.7967 0.0
N1176 N 0.79771 0.515 0.72003 0.0
N1177 N 0.797 0.48011 0.77529 0.0
H1178 H 0.53385 0.80548 0.30895 0.0
H1179 H 0.47409 0.79398 0.18547 0.0
H1180 H 0.43479 0.80049 0.28962 0.0
H1181 H 0.57204 0.81244 0.20371 0.0
H1182 H 0.46057 0.78791 0.22384 0.0
H1183 H 0.54934 0.79969 0.27075 0.0
C1184 C 0.51536 0.80284 0.29675 0.0
C1185 C 0.48294 0.80388 0.30252 0.0
C1186 C 0.48507 0.79307 0.21943 0.0
C1187 C 0.50054 0.79729 0.25882 0.0
C1188 C 0.49285 0.7965 0.19749 0.0
C1189 C 0.52421 0.80411 0.19129 0.0
C1190 C 0.50877 0.79727 0.23536 0.0
C1191 C 0.54748 0.80685 0.20768 0.0
C1192 C 0.52424 0.79961 0.27494 0.0
C1193 C 0.46006 0.80021 0.28597 0.0
N1194 N 0.53924 0.80367 0.22897 0.0
N1195 N 0.46931 0.79728 0.2649 0.0
H1196 H 0.1896 0.42873 0.79127 0.0
H1197 H 0.19165 0.56957 0.70421 0.0
H1198 H 0.19525 0.52858 0.80849 0.0
H1199 H 0.19345 0.46964 0.68686 0.0
H1200 H 0.19732 0.5549 0.74236 0.0
H1201 H 0.19534 0.44313 0.75306 0.0
C1202 C 0.19229 0.4537 0.78707 0.0
C1203 C 0.19158 0.47752 0.80317 0.0
C1204 C 0.19675 0.53617 0.73021 0.0
C1205 C 0.19802 0.49413 0.75929 0.0
C1206 C 0.19347 0.54451 0.70837 0.0
C1207 C 0.19169 0.52078 0.69225 0.0
C1208 C 0.19806 0.50385 0.73608 0.0
C1209 C 0.19449 0.48876 0.6987 0.0
C1210 C 0.1956 0.46188 0.7652 0.0
C1211 C 0.19544 0.50941 0.79667 0.0
N1212 N 0.19721 0.48123 0.72014 0.0
N1213 N 0.19819 0.51679 0.7752 0.0
H1214 H 0.46516 0.19366 0.30941 0.0
H1215 H 0.52439 0.20126 0.18568 0.0
H1216 H 0.56424 0.19443 0.28984 0.0
H1217 H 0.42615 0.18575 0.20445 0.0
H1218 H 0.53843 0.20748 0.22397 0.0
H1219 H 0.4497 0.19941 0.27121 0.0
C1220 C 0.48368 0.19536 0.29715 0.0
C1221 C 0.51606 0.19315 0.30286 0.0
C1222 C 0.51376 0.20294 0.21969 0.0
C1223 C 0.49849 0.1997 0.25916 0.0
C1224 C 0.50569 0.19942 0.1978 0.0
C1225 C 0.47408 0.19258 0.19178 0.0
C1226 C 0.4901 0.19963 0.23573 0.0
C1227 C 0.45089 0.1907 0.20828 0.0
C1228 C 0.47482 0.19857 0.27534 0.0
C1229 C 0.53898 0.19565 0.28624 0.0
N1230 N 0.45941 0.19397 0.22951 0.0
N1231 N 0.52973 0.19858 0.26516 0.0
H1232 H 0.19221 0.51961 0.94302 0.0
H1233 H 0.11687 0.44686 0.05206 0.0
H1234 H 0.11872 0.44725 0.94459 0.0
H1235 H 0.1902 0.51943 0.05242 0.0
H1236 H 0.11622 0.44862 0.01249 0.0
H1237 H 0.19093 0.52172 0.9829 0.0
C1238 C 0.17574 0.50428 0.95173 0.0
C1239 C 0.15557 0.48319 0.94046 0.0
C1240 C 0.1324 0.46429 0.02117 0.0
C1241 C 0.15403 0.48546 0.98596 0.0
C1242 C 0.13276 0.46332 0.04382 0.0
C1243 C 0.15365 0.48302 0.05558 0.0
C1244 C 0.15315 0.48502 0.01009 0.0
C1245 C 0.17371 0.50382 0.04397 0.0
C1246 C 0.17503 0.5055 0.97447 0.0
C1247 C 0.13472 0.46387 0.95255 0.0
N1248 N 0.17305 0.50421 0.02182 0.0
N1249 N 0.13456 0.46544 0.97461 0.0
H1250 H 0.55578 0.11958 0.44331 0.0
H1251 H 0.48179 0.19281 0.55257 0.0
H1252 H 0.48274 0.19222 0.44349 0.0
H1253 H 0.55506 0.12045 0.55113 0.0
H1254 H 0.48058 0.1923 0.51273 0.0
H1255 H 0.55459 0.11891 0.48293 0.0
C1256 C 0.53938 0.13535 0.45168 0.0
C1257 C 0.51931 0.156 0.44006 0.0
C1258 C 0.49685 0.1765 0.52116 0.0
C1259 C 0.51792 0.15542 0.48556 0.0
C1260 C 0.49755 0.17676 0.54389 0.0
C1261 C 0.51856 0.15664 0.5552 0.0
C1262 C 0.51733 0.15599 0.50968 0.0
C1263 C 0.53845 0.13635 0.54312 0.0
C1264 C 0.53874 0.13497 0.47435 0.0
C1265 C 0.49863 0.17592 0.45181 0.0
N1266 N 0.53736 0.1366 0.52104 0.0
N1267 N 0.4985 0.17517 0.47395 0.0
H1268 H 0.805 0.47508 0.0522 0.0
H1269 H 0.87906 0.55123 0.94381 0.0
H1270 H 0.87747 0.54849 0.05137 0.0
H1271 H 0.80526 0.47914 0.94294 0.0
H1272 H 0.88005 0.54847 0.98336 0.0
H1273 H 0.806 0.47415 0.01231 0.0
C1274 C 0.82122 0.49086 0.04366 0.0
C1275 C 0.84117 0.51192 0.05514 0.0
C1276 C 0.86367 0.53315 0.97457 0.0
C1277 C 0.84235 0.51103 0.00961 0.0
C1278 C 0.86311 0.53469 0.95193 0.0
C1279 C 0.84201 0.5154 0.94003 0.0
C1280 C 0.84294 0.51221 0.98549 0.0
C1281 C 0.82189 0.49447 0.95149 0.0
C1282 C 0.82175 0.49034 0.0209 0.0
C1283 C 0.86167 0.53186 0.04324 0.0
N1284 N 0.82279 0.49349 0.97362 0.0
N1285 N 0.86166 0.53096 0.02116 0.0
H1286 H 0.51568 0.80315 0.5523 0.0
H1287 H 0.4412 0.87657 0.44321 0.0
H1288 H 0.44162 0.87472 0.55111 0.0
H1289 H 0.51518 0.8049 0.44322 0.0
H1290 H 0.44199 0.87664 0.48285 0.0
H1291 H 0.51676 0.80384 0.51245 0.0
C1292 C 0.4997 0.81905 0.54368 0.0
C1293 C 0.47854 0.83893 0.55506 0.0
C1294 C 0.45813 0.86093 0.47422 0.0
C1295 C 0.47963 0.83978 0.50952 0.0
C1296 C 0.45772 0.8609 0.45154 0.0
C1297 C 0.47819 0.84071 0.43986 0.0
C1298 C 0.47913 0.8406 0.48539 0.0
C1299 C 0.49899 0.82086 0.45158 0.0
C1300 C 0.50033 0.81942 0.52093 0.0
C1301 C 0.45837 0.85902 0.54304 0.0
N1302 N 0.4989 0.82128 0.47372 0.0
N1303 N 0.45941 0.85889 0.52095 0.0
H1304 H 0.118 0.55387 0.44318 0.0
H1305 H 0.19249 0.4805 0.55223 0.0
H1306 H 0.19075 0.48095 0.44288 0.0
H1307 H 0.11985 0.55349 0.55071 0.0
H1308 H 0.19134 0.4786 0.51235 0.0
H1309 H 0.11739 0.55223 0.48275 0.0
C1310 C 0.13377 0.53736 0.45143 0.0
C1311 C 0.15448 0.51751 0.43968 0.0
C1312 C 0.17561 0.49493 0.52079 0.0
C1313 C 0.15402 0.51564 0.48518 0.0
C1314 C 0.17624 0.49602 0.54353 0.0
C1315 C 0.15626 0.51721 0.55482 0.0
C1316 C 0.15487 0.51518 0.50931 0.0
C1317 C 0.13569 0.53678 0.54273 0.0
C1318 C 0.13344 0.53647 0.47409 0.0
C1319 C 0.1744 0.49667 0.45131 0.0
N1320 N 0.13559 0.53532 0.52067 0.0
N1321 N 0.17375 0.49634 0.47346 0.0
H1322 H 0.51825 0.19164 0.94311 0.0
H1323 H 0.44419 0.11604 0.05165 0.0
H1324 H 0.44543 0.11857 0.94408 0.0
H1325 H 0.51686 0.18926 0.05236 0.0
H1326 H 0.44644 0.11533 0.01207 0.0
H1327 H 0.52014 0.18987 0.98297 0.0
C1328 C 0.50279 0.17513 0.95168 0.0
C1329 C 0.48162 0.15525 0.94025 0.0
C1330 C 0.46202 0.13149 0.02084 0.0
C1331 C 0.48361 0.15318 0.98574 0.0
C1332 C 0.46078 0.13189 0.04348 0.0
C1333 C 0.48035 0.15278 0.05535 0.0
C1334 C 0.48292 0.15221 0.00987 0.0
C1335 C 0.50133 0.17278 0.04384 0.0
C1336 C 0.50387 0.17415 0.97442 0.0
C1337 C 0.46213 0.13434 0.95218 0.0
N1338 N 0.50199 0.17208 0.0217 0.0
N1339 N 0.46355 0.13394 0.97424 0.0
H1340 H 0.8055 0.51756 0.44305 0.0
H1341 H 0.87967 0.4424 0.55167 0.0
H1342 H 0.87816 0.44457 0.44402 0.0
H1343 H 0.80559 0.51397 0.55227 0.0
H1344 H 0.88061 0.44483 0.51209 0.0
H1345 H 0.80637 0.51855 0.48293 0.0
C1346 C 0.82173 0.50187 0.45163 0.0
C1347 C 0.84178 0.48094 0.44018 0.0
C1348 C 0.86419 0.4601 0.52083 0.0
C1349 C 0.84281 0.48189 0.48571 0.0
C1350 C 0.86365 0.45875 0.54348 0.0
C1351 C 0.84249 0.478 0.55532 0.0
C1352 C 0.84338 0.48082 0.50984 0.0
C1353 C 0.82227 0.49868 0.54378 0.0
C1354 C 0.82219 0.50243 0.47438 0.0
C1355 C 0.86229 0.46111 0.45213 0.0
N1356 N 0.82316 0.49949 0.52165 0.0
N1357 N 0.86221 0.46204 0.47421 0.0
H1358 H 0.47848 0.8079 0.05224 0.0
H1359 H 0.55186 0.88388 0.94361 0.0
H1360 H 0.5511 0.88116 0.05111 0.0
H1361 H 0.48062 0.80927 0.94295 0.0
H1362 H 0.54922 0.88497 0.98316 0.0
H1363 H 0.47633 0.80974 0.01238 0.0
C1364 C 0.49382 0.82449 0.04363 0.0
C1365 C 0.51505 0.84436 0.05502 0.0
C1366 C 0.53403 0.86842 0.97442 0.0
C1367 C 0.51276 0.84651 0.00953 0.0
C1368 C 0.5355 0.86781 0.95178 0.0
C1369 C 0.51647 0.84639 0.93994 0.0
C1370 C 0.51347 0.8474 0.9854 0.0
C1371 C 0.49574 0.82614 0.95145 0.0
C1372 C 0.4926 0.82549 0.0209 0.0
C1373 C 0.53438 0.86536 0.04305 0.0
N1374 N 0.49488 0.82704 0.97359 0.0
N1375 N 0.53282 0.8658 0.02099 0.0
H1376 H 0.29532 0.41002 0.14566 0.0
H1377 H 0.33321 0.2238 0.1334 0.0
H1378 H 0.22474 0.33671 0.13398 0.0
H1379 H 0.40666 0.29408 0.14547 0.0
H1380 H 0.29368 0.26599 0.13274 0.0
H1381 H 0.33704 0.36898 0.14487 0.0
C1382 C 0.2886 0.38537 0.14292 0.0
C1383 C 0.25649 0.37676 0.13999 0.0
C1384 C 0.31842 0.27232 0.13553 0.0
C1385 C 0.30388 0.32994 0.13904 0.0
C1386 C 0.34107 0.24816 0.13592 0.0
C1387 C 0.37331 0.25539 0.13961 0.0
C1388 C 0.32791 0.30408 0.13887 0.0
C1389 C 0.38202 0.28746 0.14266 0.0
C1390 C 0.31239 0.362 0.14247 0.0
C1391 C 0.24912 0.34451 0.13642 0.0
N1392 N 0.35938 0.3107 0.14228 0.0
N1393 N 0.2726 0.32236 0.13608 0.0
H1394 H 0.77735 0.33024 0.63723 0.0
H1395 H 0.59046 0.29225 0.64553 0.0
H1396 H 0.70563 0.40335 0.64478 0.0
H1397 H 0.66373 0.22051 0.63883 0.0
H1398 H 0.63178 0.3336 0.64454 0.0
H1399 H 0.73545 0.28996 0.63694 0.0
C1400 C 0.75276 0.33785 0.63881 0.0
C1401 C 0.74499 0.37022 0.64113 0.0
C1402 C 0.63875 0.3088 0.64328 0.0
C1403 C 0.69678 0.3241 0.64082 0.0
C1404 C 0.6152 0.28519 0.64387 0.0
C1405 C 0.62367 0.25288 0.64235 0.0
C1406 C 0.67094 0.29997 0.64116 0.0
C1407 C 0.65607 0.2451 0.64011 0.0
C1408 C 0.72881 0.3148 0.63865 0.0
C1409 C 0.71269 0.37864 0.64305 0.0
N1410 N 0.67848 0.26847 0.63961 0.0
N1411 N 0.68973 0.35569 0.6429 0.0
H1412 H 0.70016 0.58544 0.14549 0.0
H1413 H 0.66343 0.77163 0.1314 0.0
H1414 H 0.77119 0.65808 0.13316 0.0
H1415 H 0.5897 0.70223 0.14495 0.0
H1416 H 0.70262 0.72912 0.13085 0.0
H1417 H 0.6587 0.62673 0.14432 0.0
C1418 C 0.70703 0.60999 0.14253 0.0
C1419 C 0.7392 0.61835 0.13954 0.0
C1420 C 0.67789 0.72305 0.13394 0.0
C1421 C 0.69209 0.66544 0.13813 0.0
C1422 C 0.65543 0.74739 0.13427 0.0
C1423 C 0.62323 0.74051 0.13836 0.0
C1424 C 0.66824 0.69145 0.13777 0.0
C1425 C 0.61433 0.70858 0.14182 0.0
C1426 C 0.68339 0.6335 0.14186 0.0
C1427 C 0.74676 0.65047 0.13567 0.0
N1428 N 0.63679 0.68516 0.14152 0.0
N1429 N 0.72342 0.67276 0.13512 0.0
H1430 H 0.29301 0.5897 0.64502 0.0
H1431 H 0.33446 0.77589 0.63845 0.0
H1432 H 0.22296 0.66434 0.63714 0.0
H1433 H 0.40636 0.70295 0.64603 0.0
H1434 H 0.29359 0.7347 0.6374 0.0
H1435 H 0.33517 0.63022 0.64489 0.0
C1436 C 0.28649 0.61457 0.64326 0.0
C1437 C 0.2544 0.62367 0.64118 0.0
C1438 C 0.31828 0.72762 0.63929 0.0
C1439 C 0.30243 0.67001 0.64099 0.0
C1440 C 0.34169 0.75117 0.6399 0.0
C1441 C 0.3739 0.74287 0.64242 0.0
C1442 C 0.32703 0.69542 0.64122 0.0
C1443 C 0.38179 0.71042 0.64414 0.0
C1444 C 0.31056 0.63766 0.64317 0.0
C1445 C 0.24734 0.6562 0.63885 0.0
N1446 N 0.35846 0.68782 0.64355 0.0
N1447 N 0.27115 0.67815 0.63886 0.0
H1448 H 0.33563 0.77561 0.3568 0.0
H1449 H 0.29486 0.58926 0.34968 0.0
H1450 H 0.40802 0.70324 0.34887 0.0
H1451 H 0.22491 0.66384 0.35829 0.0
H1452 H 0.33704 0.62988 0.34971 0.0
H1453 H 0.29508 0.73416 0.35777 0.0
C1454 C 0.34303 0.75095 0.35526 0.0
C1455 C 0.37529 0.74289 0.35267 0.0
C1456 C 0.31244 0.63726 0.35161 0.0
C1457 C 0.32877 0.69511 0.35377 0.0
C1458 C 0.28837 0.61412 0.35157 0.0
C1459 C 0.25631 0.62318 0.3539 0.0
C1460 C 0.30429 0.66959 0.35399 0.0
C1461 C 0.24927 0.6557 0.35639 0.0
C1462 C 0.31981 0.72724 0.35582 0.0
C1463 C 0.3834 0.71051 0.35082 0.0
N1464 N 0.27303 0.67766 0.35633 0.0
N1465 N 0.36024 0.68773 0.35137 0.0
H1466 H 0.33274 0.22341 0.86164 0.0
H1467 H 0.29262 0.40925 0.85056 0.0
H1468 H 0.4051 0.29517 0.85059 0.0
H1469 H 0.2223 0.3352 0.86061 0.0
H1470 H 0.3346 0.36864 0.85144 0.0
H1471 H 0.29241 0.26493 0.86228 0.0
C1472 C 0.34019 0.24795 0.85934 0.0
C1473 C 0.37237 0.25581 0.85594 0.0
C1474 C 0.30997 0.36137 0.85347 0.0
C1475 C 0.32607 0.30366 0.85666 0.0
C1476 C 0.28601 0.3845 0.85296 0.0
C1477 C 0.2539 0.37557 0.85541 0.0
C1478 C 0.30168 0.32917 0.85647 0.0
C1479 C 0.2467 0.3432 0.85857 0.0
C1480 C 0.31708 0.2717 0.85972 0.0
C1481 C 0.38054 0.28805 0.85317 0.0
N1482 N 0.27039 0.32123 0.85896 0.0
N1483 N 0.35748 0.31086 0.85354 0.0
H1484 H 0.66283 0.22159 0.35712 0.0
H1485 H 0.70236 0.40822 0.35 0.0
H1486 H 0.59002 0.29354 0.34919 0.0
H1487 H 0.77287 0.33415 0.35853 0.0
H1488 H 0.66048 0.3673 0.35004 0.0
H1489 H 0.70315 0.2633 0.35806 0.0
C1490 C 0.65529 0.2462 0.35557 0.0
C1491 C 0.62299 0.25407 0.35299 0.0
C1492 C 0.68514 0.3601 0.35192 0.0
C1493 C 0.66922 0.30214 0.35406 0.0
C1494 C 0.70903 0.38341 0.35188 0.0
C1495 C 0.74116 0.37458 0.35417 0.0
C1496 C 0.69353 0.32783 0.35427 0.0
C1497 C 0.74845 0.34212 0.35664 0.0
C1498 C 0.67838 0.27006 0.35612 0.0
C1499 C 0.61469 0.28641 0.35113 0.0
N1500 N 0.72484 0.31998 0.35659 0.0
N1501 N 0.63771 0.30932 0.35167 0.0
H1502 H 0.70372 0.58981 0.85093 0.0
H1503 H 0.66572 0.77606 0.86247 0.0
H1504 H 0.77496 0.66305 0.86075 0.0
H1505 H 0.59263 0.70517 0.85106 0.0
H1506 H 0.70558 0.73406 0.86315 0.0
H1507 H 0.6622 0.63087 0.85212 0.0
C1508 C 0.71063 0.61448 0.85335 0.0
C1509 C 0.74286 0.62305 0.85563 0.0
C1510 C 0.68085 0.72759 0.86051 0.0
C1511 C 0.69561 0.66996 0.85705 0.0
C1512 C 0.65801 0.75161 0.86011 0.0
C1513 C 0.62578 0.74414 0.85657 0.0
C1514 C 0.67151 0.69575 0.85733 0.0
C1515 C 0.61725 0.71199 0.85373 0.0
C1516 C 0.68693 0.63787 0.85403 0.0
C1517 C 0.75045 0.65532 0.85883 0.0
N1518 N 0.64004 0.68892 0.85411 0.0
N1519 N 0.72702 0.67756 0.8594 0.0
loop_
_geom_bond_atom_site_label_1
_geom_bond_atom_site_label_2
_geom_bond_distance
_geom_bond_site_symmetry_2
_ccdc_geom_bond_type
Co0 O2 2.143 . S
Co0 O8 2.074 . S
Co0 O11 2.093 . S
Co0 O24 2.097 . S
Co0 N41 2.151 . S
Co0 N49 2.214 . S
Co1 O2 2.160 . S
Co1 O7 2.058 . S
Co1 O17 2.057 . S
Co1 O32 2.037 . S
Co1 N36 2.145 . S
Co1 N57 2.257 . S
O2 Co0 2.143 . S
O2 Co1 2.160 . S
C3 O4 1.278 . S
C3 O11 1.224 . S
O4 C3 1.278 . S
C5 O6 1.245 . S
C5 O17 1.232 . S
O6 C5 1.245 . S
O7 Co1 2.058 . S
O7 C33 1.269 . S
O8 Co0 2.074 . S
O8 C33 1.257 . S
H9 C34 0.930 . S
H10 C40 0.930 . S
O11 Co0 2.093 . S
O11 C3 1.224 . S
H12 C44 0.929 . S
H13 C46 0.930 . S
H14 C47 0.930 . S
H15 C45 0.929 . S
H16 C48 0.928 . S
O17 Co1 2.057 . S
O17 C5 1.232 . S
H18 C37 0.929 . S
H19 C38 0.929 . S
H20 C50 0.931 . S
H21 C42 0.929 . S
H22 C51 0.930 . S
H23 C43 0.931 . S
O24 Co0 2.097 . S
O24 C52 1.214 . S
H25 C53 0.929 . S
H26 C54 0.929 . S
H27 C55 0.930 . S
H28 C56 0.929 . S
H29 C58 0.930 . S
H30 C35 0.930 . S
H31 C39 0.930 . S
O32 Co1 2.037 . S
O32 C52 1.234 . S
C33 O7 1.269 . S
C33 O8 1.257 . S
C34 H9 0.930 . S
C34 C37 1.388 . S
C34 C39 1.418 . S
C35 H30 0.930 . S
C35 C38 1.404 . S
C35 C39 1.353 . S
N36 Co1 2.145 . S
N36 C37 1.397 . S
N36 C38 1.334 . S
C37 H18 0.929 . S
C37 C34 1.388 . S
C37 N36 1.397 . S
C38 H19 0.929 . S
C38 C35 1.404 . S
C38 N36 1.334 . S
C39 H31 0.930 . S
C39 C34 1.418 . S
C39 C35 1.353 . S
C40 H10 0.930 . S
C40 N41 1.330 . S
C40 C42 1.446 . S
N41 Co0 2.151 . S
N41 C40 1.330 . S
N41 C45 1.418 . S
C42 H21 0.929 . S
C42 C40 1.446 . S
C42 C43 1.332 . S
C43 H23 0.931 . S
C43 C42 1.332 . S
C43 C44 1.267 . S
C44 H12 0.929 . S
C44 C43 1.267 . S
C44 C45 1.251 . S
C45 H15 0.929 . S
C45 N41 1.418 . S
C45 C44 1.251 . S
C46 H13 0.930 . S
C46 C48 1.406 . S
C46 C51 1.261 . S
C47 H14 0.930 . S
C47 N49 1.325 . S
C47 C50 1.357 . S
C48 H16 0.928 . S
C48 C46 1.406 . S
C48 N49 1.261 . S
N49 Co0 2.214 . S
N49 C47 1.325 . S
N49 C48 1.261 . S
C50 H20 0.931 . S
C50 C47 1.357 . S
C50 C51 1.312 . S
C51 H22 0.930 . S
C51 C46 1.261 . S
C51 C50 1.312 . S
C52 O24 1.214 . S
C52 O32 1.234 . S
C53 H25 0.929 . S
C53 C56 1.391 . S
C53 C58 1.391 . S
C54 H26 0.929 . S
C54 C55 1.390 . S
C54 N57 1.391 . S
C55 H27 0.930 . S
C55 C54 1.390 . S
C55 C56 1.392 . S
C56 H28 0.929 . S
C56 C53 1.391 . S
C56 C55 1.392 . S
N57 Co1 2.257 . S
N57 C54 1.391 . S
N57 C58 1.388 . S
C58 H29 0.930 . S
C58 C53 1.391 . S
C58 N57 1.388 . S
Co59 O61 2.143 . S
Co59 O67 2.074 . S
Co59 O70 2.093 . S
Co59 O83 2.097 . S
Co59 N100 2.151 . S
Co59 N108 2.214 . S
Co60 O61 2.160 . S
Co60 O66 2.058 . S
Co60 O76 2.057 . S
Co60 O91 2.037 . S
Co60 N95 2.145 . S
Co60 N116 2.257 . S
O61 Co59 2.143 . S
O61 Co60 2.160 . S
C62 O63 1.278 . S
C62 O70 1.224 . S
O63 C62 1.278 . S
C64 O65 1.245 . S
C64 O76 1.232 . S
O65 C64 1.245 . S
O66 Co60 2.058 . S
O66 C92 1.269 . S
O67 Co59 2.074 . S
O67 C92 1.257 . S
H68 C93 0.930 . S
H69 C99 0.930 . S
O70 Co59 2.093 . S
O70 C62 1.224 . S
H71 C103 0.929 . S
H72 C105 0.930 . S
H73 C106 0.930 . S
H74 C104 0.929 . S
H75 C107 0.928 . S
O76 Co60 2.057 . S
O76 C64 1.232 . S
H77 C96 0.929 . S
H78 C97 0.929 . S
H79 C109 0.931 . S
H80 C101 0.929 . S
H81 C110 0.930 . S
H82 C102 0.931 . S
O83 Co59 2.097 . S
O83 C111 1.214 . S
H84 C112 0.929 . S
H85 C113 0.929 . S
H86 C114 0.930 . S
H87 C115 0.929 . S
H88 C117 0.930 . S
H89 C94 0.930 . S
H90 C98 0.930 . S
O91 Co60 2.037 . S
O91 C111 1.234 . S
C92 O66 1.269 . S
C92 O67 1.257 . S
C93 H68 0.930 . S
C93 C96 1.388 . S
C93 C98 1.418 . S
C94 H89 0.930 . S
C94 C97 1.404 . S
C94 C98 1.353 . S
N95 Co60 2.145 . S
N95 C96 1.397 . S
N95 C97 1.334 . S
C96 H77 0.929 . S
C96 C93 1.388 . S
C96 N95 1.397 . S
C97 H78 0.929 . S
C97 C94 1.404 . S
C97 N95 1.334 . S
C98 H90 0.930 . S
C98 C93 1.418 . S
C98 C94 1.353 . S
C99 H69 0.930 . S
C99 N100 1.330 . S
C99 C101 1.446 . S
N100 Co59 2.151 . S
N100 C99 1.330 . S
N100 C104 1.418 . S
C101 H80 0.929 . S
C101 C99 1.446 . S
C101 C102 1.332 . S
C102 H82 0.931 . S
C102 C101 1.332 . S
C102 C103 1.267 . S
C103 H71 0.929 . S
C103 C102 1.267 . S
C103 C104 1.251 . S
C104 H74 0.929 . S
C104 N100 1.418 . S
C104 C103 1.251 . S
C105 H72 0.930 . S
C105 C107 1.406 . S
C105 C110 1.261 . S
C106 H73 0.930 . S
C106 N108 1.325 . S
C106 C109 1.357 . S
C107 H75 0.928 . S
C107 C105 1.406 . S
C107 N108 1.261 . S
N108 Co59 2.214 . S
N108 C106 1.325 . S
N108 C107 1.261 . S
C109 H79 0.931 . S
C109 C106 1.357 . S
C109 C110 1.312 . S
C110 H81 0.930 . S
C110 C105 1.261 . S
C110 C109 1.312 . S
C111 O83 1.214 . S
C111 O91 1.234 . S
C112 H84 0.929 . S
C112 C115 1.391 . S
C112 C117 1.391 . S
C113 H85 0.929 . S
C113 C114 1.390 . S
C113 N116 1.391 . S
C114 H86 0.930 . S
C114 C113 1.390 . S
C114 C115 1.392 . S
C115 H87 0.929 . S
C115 C112 1.391 . S
C115 C114 1.392 . S
N116 Co60 2.257 . S
N116 C113 1.391 . S
N116 C117 1.388 . S
C117 H88 0.930 . S
C117 C112 1.391 . S
C117 N116 1.388 . S
Co118 O120 2.143 . S
Co118 O126 2.074 . S
Co118 O129 2.093 . S
Co118 O142 2.097 . S
Co118 N159 2.151 . S
Co118 N167 2.214 . S
Co119 O120 2.160 . S
Co119 O125 2.058 . S
Co119 O135 2.057 . S
Co119 O150 2.037 . S
Co119 N154 2.145 . S
Co119 N175 2.257 . S
O120 Co118 2.143 . S
O120 Co119 2.160 . S
C121 O122 1.278 . S
C121 O129 1.224 . S
O122 C121 1.278 . S
C123 O124 1.245 . S
C123 O135 1.232 . S
O124 C123 1.245 . S
O125 Co119 2.058 . S
O125 C151 1.269 . S
O126 Co118 2.074 . S
O126 C151 1.257 . S
H127 C152 0.930 . S
H128 C158 0.930 . S
O129 Co118 2.093 . S
O129 C121 1.224 . S
H130 C162 0.929 . S
H131 C164 0.930 . S
H132 C165 0.930 . S
H133 C163 0.929 . S
H134 C166 0.928 . S
O135 Co119 2.057 . S
O135 C123 1.232 . S
H136 C155 0.929 . S
H137 C156 0.929 . S
H138 C168 0.931 . S
H139 C160 0.929 . S
H140 C169 0.930 . S
H141 C161 0.931 . S
O142 Co118 2.097 . S
O142 C170 1.214 . S
H143 C171 0.929 . S
H144 C172 0.929 . S
H145 C173 0.930 . S
H146 C174 0.929 . S
H147 C176 0.930 . S
H148 C153 0.930 . S
H149 C157 0.930 . S
O150 Co119 2.037 . S
O150 C170 1.234 . S
C151 O125 1.269 . S
C151 O126 1.257 . S
C152 H127 0.930 . S
C152 C155 1.388 . S
C152 C157 1.418 . S
C153 H148 0.930 . S
C153 C156 1.404 . S
C153 C157 1.353 . S
N154 Co119 2.145 . S
N154 C155 1.397 . S
N154 C156 1.334 . S
C155 H136 0.929 . S
C155 C152 1.388 . S
C155 N154 1.397 . S
C156 H137 0.929 . S
C156 C153 1.404 . S
C156 N154 1.334 . S
C157 H149 0.930 . S
C157 C152 1.418 . S
C157 C153 1.353 . S
C158 H128 0.930 . S
C158 N159 1.330 . S
C158 C160 1.446 . S
N159 Co118 2.151 . S
N159 C158 1.330 . S
N159 C163 1.418 . S
C160 H139 0.929 . S
C160 C158 1.446 . S
C160 C161 1.332 . S
C161 H141 0.931 . S
C161 C160 1.332 . S
C161 C162 1.267 . S
C162 H130 0.929 . S
C162 C161 1.267 . S
C162 C163 1.251 . S
C163 H133 0.929 . S
C163 N159 1.418 . S
C163 C162 1.251 . S
C164 H131 0.930 . S
C164 C166 1.406 . S
C164 C169 1.261 . S
C165 H132 0.930 . S
C165 N167 1.325 . S
C165 C168 1.357 . S
C166 H134 0.928 . S
C166 C164 1.406 . S
C166 N167 1.261 . S
N167 Co118 2.214 . S
N167 C165 1.325 . S
N167 C166 1.261 . S
C168 H138 0.931 . S
C168 C165 1.357 . S
C168 C169 1.312 . S
C169 H140 0.930 . S
C169 C164 1.261 . S
C169 C168 1.312 . S
C170 O142 1.214 . S
C170 O150 1.234 . S
C171 H143 0.929 . S
C171 C174 1.391 . S
C171 C176 1.391 . S
C172 H144 0.929 . S
C172 C173 1.390 . S
C172 N175 1.391 . S
C173 H145 0.930 . S
C173 C172 1.390 . S
C173 C174 1.392 . S
C174 H146 0.929 . S
C174 C171 1.391 . S
C174 C173 1.392 . S
N175 Co119 2.257 . S
N175 C172 1.391 . S
N175 C176 1.388 . S
C176 H147 0.930 . S
C176 C171 1.391 . S
C176 N175 1.388 . S
Co177 O179 2.143 . S
Co177 O185 2.074 . S
Co177 O188 2.093 . S
Co177 O201 2.097 . S
Co177 N218 2.151 . S
Co177 N226 2.214 . S
Co178 O179 2.160 . S
Co178 O184 2.058 . S
Co178 O194 2.057 . S
Co178 O209 2.037 . S
Co178 N213 2.145 . S
Co178 N234 2.257 . S
O179 Co177 2.143 . S
O179 Co178 2.160 . S
C180 O181 1.278 . S
C180 O188 1.224 . S
O181 C180 1.278 . S
C182 O183 1.245 . S
C182 O194 1.232 . S
O183 C182 1.245 . S
O184 Co178 2.058 . S
O184 C210 1.269 . S
O185 Co177 2.074 . S
O185 C210 1.257 . S
H186 C211 0.930 . S
H187 C217 0.930 . S
O188 Co177 2.093 . S
O188 C180 1.224 . S
H189 C221 0.929 . S
H190 C223 0.930 . S
H191 C224 0.930 . S
H192 C222 0.929 . S
H193 C225 0.928 . S
O194 Co178 2.057 . S
O194 C182 1.232 . S
H195 C214 0.929 . S
H196 C215 0.929 . S
H197 C227 0.931 . S
H198 C219 0.929 . S
H199 C228 0.930 . S
H200 C220 0.931 . S
O201 Co177 2.097 . S
O201 C229 1.214 . S
H202 C230 0.929 . S
H203 C231 0.929 . S
H204 C232 0.930 . S
H205 C233 0.929 . S
H206 C235 0.930 . S
H207 C212 0.930 . S
H208 C216 0.930 . S
O209 Co178 2.037 . S
O209 C229 1.234 . S
C210 O184 1.269 . S
C210 O185 1.257 . S
C211 H186 0.930 . S
C211 C214 1.388 . S
C211 C216 1.418 . S
C212 H207 0.930 . S
C212 C215 1.404 . S
C212 C216 1.353 . S
N213 Co178 2.145 . S
N213 C214 1.397 . S
N213 C215 1.334 . S
C214 H195 0.929 . S
C214 C211 1.388 . S
C214 N213 1.397 . S
C215 H196 0.929 . S
C215 C212 1.404 . S
C215 N213 1.334 . S
C216 H208 0.930 . S
C216 C211 1.418 . S
C216 C212 1.353 . S
C217 H187 0.930 . S
C217 N218 1.330 . S
C217 C219 1.446 . S
N218 Co177 2.151 . S
N218 C217 1.330 . S
N218 C222 1.418 . S
C219 H198 0.929 . S
C219 C217 1.446 . S
C219 C220 1.332 . S
C220 H200 0.931 . S
C220 C219 1.332 . S
C220 C221 1.267 . S
C221 H189 0.929 . S
C221 C220 1.267 . S
C221 C222 1.251 . S
C222 H192 0.929 . S
C222 N218 1.418 . S
C222 C221 1.251 . S
C223 H190 0.930 . S
C223 C225 1.406 . S
C223 C228 1.261 . S
C224 H191 0.930 . S
C224 N226 1.325 . S
C224 C227 1.357 . S
C225 H193 0.928 . S
C225 C223 1.406 . S
C225 N226 1.261 . S
N226 Co177 2.214 . S
N226 C224 1.325 . S
N226 C225 1.261 . S
C227 H197 0.931 . S
C227 C224 1.357 . S
C227 C228 1.312 . S
C228 H199 0.930 . S
C228 C223 1.261 . S
C228 C227 1.312 . S
C229 O201 1.214 . S
C229 O209 1.234 . S
C230 H202 0.929 . S
C230 C233 1.391 . S
C230 C235 1.391 . S
C231 H203 0.929 . S
C231 C232 1.390 . S
C231 N234 1.391 . S
C232 H204 0.930 . S
C232 C231 1.390 . S
C232 C233 1.392 . S
C233 H205 0.929 . S
C233 C230 1.391 . S
C233 C232 1.392 . S
N234 Co178 2.257 . S
N234 C231 1.391 . S
N234 C235 1.388 . S
C235 H206 0.930 . S
C235 C230 1.391 . S
C235 N234 1.388 . S
Co236 O238 2.143 . S
Co236 O244 2.074 . S
Co236 O247 2.093 . S
Co236 O260 2.097 . S
Co236 N277 2.151 . S
Co236 N285 2.214 . S
Co237 O238 2.160 . S
Co237 O243 2.058 . S
Co237 O253 2.057 . S
Co237 O268 2.037 . S
Co237 N272 2.145 . S
Co237 N293 2.257 . S
O238 Co236 2.143 . S
O238 Co237 2.160 . S
C239 O240 1.278 . S
C239 O247 1.224 . S
O240 C239 1.278 . S
C241 O242 1.245 . S
C241 O253 1.232 . S
O242 C241 1.245 . S
O243 Co237 2.058 . S
O243 C269 1.269 . S
O244 Co236 2.074 . S
O244 C269 1.257 . S
H245 C270 0.930 . S
H246 C276 0.930 . S
O247 Co236 2.093 . S
O247 C239 1.224 . S
H248 C280 0.929 . S
H249 C282 0.930 . S
H250 C283 0.930 . S
H251 C281 0.929 . S
H252 C284 0.928 . S
O253 Co237 2.057 . S
O253 C241 1.232 . S
H254 C273 0.929 . S
H255 C274 0.929 . S
H256 C286 0.931 . S
H257 C278 0.929 . S
H258 C287 0.930 . S
H259 C279 0.931 . S
O260 Co236 2.097 . S
O260 C288 1.214 . S
H261 C289 0.929 . S
H262 C290 0.929 . S
H263 C291 0.930 . S
H264 C292 0.929 . S
H265 C294 0.930 . S
H266 C271 0.930 . S
H267 C275 0.930 . S
O268 Co237 2.037 . S
O268 C288 1.234 . S
C269 O243 1.269 . S
C269 O244 1.257 . S
C270 H245 0.930 . S
C270 C273 1.388 . S
C270 C275 1.418 . S
C271 H266 0.930 . S
C271 C274 1.404 . S
C271 C275 1.353 . S
N272 Co237 2.145 . S
N272 C273 1.397 . S
N272 C274 1.334 . S
C273 H254 0.929 . S
C273 C270 1.388 . S
C273 N272 1.397 . S
C274 H255 0.929 . S
C274 C271 1.404 . S
C274 N272 1.334 . S
C275 H267 0.930 . S
C275 C270 1.418 . S
C275 C271 1.353 . S
C276 H246 0.930 . S
C276 N277 1.330 . S
C276 C278 1.446 . S
N277 Co236 2.151 . S
N277 C276 1.330 . S
N277 C281 1.418 . S
C278 H257 0.929 . S
C278 C276 1.446 . S
C278 C279 1.332 . S
C279 H259 0.931 . S
C279 C278 1.332 . S
C279 C280 1.267 . S
C280 H248 0.929 . S
C280 C279 1.267 . S
C280 C281 1.251 . S
C281 H251 0.929 . S
C281 N277 1.418 . S
C281 C280 1.251 . S
C282 H249 0.930 . S
C282 C284 1.406 . S
C282 C287 1.261 . S
C283 H250 0.930 . S
C283 N285 1.325 . S
C283 C286 1.357 . S
C284 H252 0.928 . S
C284 C282 1.406 . S
C284 N285 1.261 . S
N285 Co236 2.214 . S
N285 C283 1.325 . S
N285 C284 1.261 . S
C286 H256 0.931 . S
C286 C283 1.357 . S
C286 C287 1.312 . S
C287 H258 0.930 . S
C287 C282 1.261 . S
C287 C286 1.312 . S
C288 O260 1.214 . S
C288 O268 1.234 . S
C289 H261 0.929 . S
C289 C292 1.391 . S
C289 C294 1.391 . S
C290 H262 0.929 . S
C290 C291 1.390 . S
C290 N293 1.391 . S
C291 H263 0.930 . S
C291 C290 1.390 . S
C291 C292 1.392 . S
C292 H264 0.929 . S
C292 C289 1.391 . S
C292 C291 1.392 . S
N293 Co237 2.257 . S
N293 C290 1.391 . S
N293 C294 1.388 . S
C294 H265 0.930 . S
C294 C289 1.391 . S
C294 N293 1.388 . S
Co295 O297 2.143 . S
Co295 O303 2.074 . S
Co295 O306 2.093 . S
Co295 O319 2.097 . S
Co295 N336 2.151 . S
Co295 N344 2.214 . S
Co296 O297 2.160 . S
Co296 O302 2.058 . S
Co296 O312 2.057 . S
Co296 O327 2.037 . S
Co296 N331 2.145 . S
Co296 N352 2.257 . S
O297 Co295 2.143 . S
O297 Co296 2.160 . S
C298 O299 1.278 . S
C298 O306 1.224 . S
O299 C298 1.278 . S
C300 O301 1.245 . S
C300 O312 1.232 . S
O301 C300 1.245 . S
O302 Co296 2.058 . S
O302 C328 1.269 . S
O303 Co295 2.074 . S
O303 C328 1.257 . S
H304 C329 0.930 . S
H305 C335 0.930 . S
O306 Co295 2.093 . S
O306 C298 1.224 . S
H307 C339 0.929 . S
H308 C341 0.930 . S
H309 C342 0.930 . S
H310 C340 0.929 . S
H311 C343 0.928 . S
O312 Co296 2.057 . S
O312 C300 1.232 . S
H313 C332 0.929 . S
H314 C333 0.929 . S
H315 C345 0.931 . S
H316 C337 0.929 . S
H317 C346 0.930 . S
H318 C338 0.931 . S
O319 Co295 2.097 . S
O319 C347 1.214 . S
H320 C348 0.929 . S
H321 C349 0.929 . S
H322 C350 0.930 . S
H323 C351 0.929 . S
H324 C353 0.930 . S
H325 C330 0.930 . S
H326 C334 0.930 . S
O327 Co296 2.037 . S
O327 C347 1.234 . S
C328 O302 1.269 . S
C328 O303 1.257 . S
C329 H304 0.930 . S
C329 C332 1.388 . S
C329 C334 1.418 . S
C330 H325 0.930 . S
C330 C333 1.404 . S
C330 C334 1.353 . S
N331 Co296 2.145 . S
N331 C332 1.397 . S
N331 C333 1.334 . S
C332 H313 0.929 . S
C332 C329 1.388 . S
C332 N331 1.397 . S
C333 H314 0.929 . S
C333 C330 1.404 . S
C333 N331 1.334 . S
C334 H326 0.930 . S
C334 C329 1.418 . S
C334 C330 1.353 . S
C335 H305 0.930 . S
C335 N336 1.330 . S
C335 C337 1.446 . S
N336 Co295 2.151 . S
N336 C335 1.330 . S
N336 C340 1.418 . S
C337 H316 0.929 . S
C337 C335 1.446 . S
C337 C338 1.332 . S
C338 H318 0.931 . S
C338 C337 1.332 . S
C338 C339 1.267 . S
C339 H307 0.929 . S
C339 C338 1.267 . S
C339 C340 1.251 . S
C340 H310 0.929 . S
C340 N336 1.418 . S
C340 C339 1.251 . S
C341 H308 0.930 . S
C341 C343 1.406 . S
C341 C346 1.261 . S
C342 H309 0.930 . S
C342 N344 1.325 . S
C342 C345 1.357 . S
C343 H311 0.928 . S
C343 C341 1.406 . S
C343 N344 1.261 . S
N344 Co295 2.214 . S
N344 C342 1.325 . S
N344 C343 1.261 . S
C345 H315 0.931 . S
C345 C342 1.357 . S
C345 C346 1.312 . S
C346 H317 0.930 . S
C346 C341 1.261 . S
C346 C345 1.312 . S
C347 O319 1.214 . S
C347 O327 1.234 . S
C348 H320 0.929 . S
C348 C351 1.391 . S
C348 C353 1.391 . S
C349 H321 0.929 . S
C349 C350 1.390 . S
C349 N352 1.391 . S
C350 H322 0.930 . S
C350 C349 1.390 . S
C350 C351 1.392 . S
C351 H323 0.929 . S
C351 C348 1.391 . S
C351 C350 1.392 . S
N352 Co296 2.257 . S
N352 C349 1.391 . S
N352 C353 1.388 . S
C353 H324 0.930 . S
C353 C348 1.391 . S
C353 N352 1.388 . S
Co354 O356 2.143 . S
Co354 O362 2.074 . S
Co354 O365 2.093 . S
Co354 O378 2.097 . S
Co354 N395 2.151 . S
Co354 N403 2.214 . S
Co355 O356 2.160 . S
Co355 O361 2.058 . S
Co355 O371 2.057 . S
Co355 O386 2.037 . S
Co355 N390 2.145 . S
Co355 N411 2.257 . S
O356 Co354 2.143 . S
O356 Co355 2.160 . S
C357 O358 1.278 . S
C357 O365 1.224 . S
O358 C357 1.278 . S
C359 O360 1.245 . S
C359 O371 1.232 . S
O360 C359 1.245 . S
O361 Co355 2.058 . S
O361 C387 1.269 . S
O362 Co354 2.074 . S
O362 C387 1.257 . S
H363 C388 0.930 . S
H364 C394 0.930 . S
O365 Co354 2.093 . S
O365 C357 1.224 . S
H366 C398 0.929 . S
H367 C400 0.930 . S
H368 C401 0.930 . S
H369 C399 0.929 . S
H370 C402 0.928 . S
O371 Co355 2.057 . S
O371 C359 1.232 . S
H372 C391 0.929 . S
H373 C392 0.929 . S
H374 C404 0.931 . S
H375 C396 0.929 . S
H376 C405 0.930 . S
H377 C397 0.931 . S
O378 Co354 2.097 . S
O378 C406 1.214 . S
H379 C407 0.929 . S
H380 C408 0.929 . S
H381 C409 0.930 . S
H382 C410 0.929 . S
H383 C412 0.930 . S
H384 C389 0.930 . S
H385 C393 0.930 . S
O386 Co355 2.037 . S
O386 C406 1.234 . S
C387 O361 1.269 . S
C387 O362 1.257 . S
C388 H363 0.930 . S
C388 C391 1.388 . S
C388 C393 1.418 . S
C389 H384 0.930 . S
C389 C392 1.404 . S
C389 C393 1.353 . S
N390 Co355 2.145 . S
N390 C391 1.397 . S
N390 C392 1.334 . S
C391 H372 0.929 . S
C391 C388 1.388 . S
C391 N390 1.397 . S
C392 H373 0.929 . S
C392 C389 1.404 . S
C392 N390 1.334 . S
C393 H385 0.930 . S
C393 C388 1.418 . S
C393 C389 1.353 . S
C394 H364 0.930 . S
C394 N395 1.330 . S
C394 C396 1.446 . S
N395 Co354 2.151 . S
N395 C394 1.330 . S
N395 C399 1.418 . S
C396 H375 0.929 . S
C396 C394 1.446 . S
C396 C397 1.332 . S
C397 H377 0.931 . S
C397 C396 1.332 . S
C397 C398 1.267 . S
C398 H366 0.929 . S
C398 C397 1.267 . S
C398 C399 1.251 . S
C399 H369 0.929 . S
C399 N395 1.418 . S
C399 C398 1.251 . S
C400 H367 0.930 . S
C400 C402 1.406 . S
C400 C405 1.261 . S
C401 H368 0.930 . S
C401 N403 1.325 . S
C401 C404 1.357 . S
C402 H370 0.928 . S
C402 C400 1.406 . S
C402 N403 1.261 . S
N403 Co354 2.214 . S
N403 C401 1.325 . S
N403 C402 1.261 . S
C404 H374 0.931 . S
C404 C401 1.357 . S
C404 C405 1.312 . S
C405 H376 0.930 . S
C405 C400 1.261 . S
C405 C404 1.312 . S
C406 O378 1.214 . S
C406 O386 1.234 . S
C407 H379 0.929 . S
C407 C410 1.391 . S
C407 C412 1.391 . S
C408 H380 0.929 . S
C408 C409 1.390 . S
C408 N411 1.391 . S
C409 H381 0.930 . S
C409 C408 1.390 . S
C409 C410 1.392 . S
C410 H382 0.929 . S
C410 C407 1.391 . S
C410 C409 1.392 . S
N411 Co355 2.257 . S
N411 C408 1.391 . S
N411 C412 1.388 . S
C412 H383 0.930 . S
C412 C407 1.391 . S
C412 N411 1.388 . S
Co413 O415 2.143 . S
Co413 O421 2.074 . S
Co413 O424 2.093 . S
Co413 O437 2.097 . S
Co413 N454 2.151 . S
Co413 N462 2.214 . S
Co414 O415 2.160 . S
Co414 O420 2.058 . S
Co414 O430 2.057 . S
Co414 O445 2.037 . S
Co414 N449 2.145 . S
Co414 N470 2.257 . S
O415 Co413 2.143 . S
O415 Co414 2.160 . S
C416 O417 1.278 . S
C416 O424 1.224 . S
O417 C416 1.278 . S
C418 O419 1.245 . S
C418 O430 1.232 . S
O419 C418 1.245 . S
O420 Co414 2.058 . S
O420 C446 1.269 . S
O421 Co413 2.074 . S
O421 C446 1.257 . S
H422 C447 0.930 . S
H423 C453 0.930 . S
O424 Co413 2.093 . S
O424 C416 1.224 . S
H425 C457 0.929 . S
H426 C459 0.930 . S
H427 C460 0.930 . S
H428 C458 0.929 . S
H429 C461 0.928 . S
O430 Co414 2.057 . S
O430 C418 1.232 . S
H431 C450 0.929 . S
H432 C451 0.929 . S
H433 C463 0.931 . S
H434 C455 0.929 . S
H435 C464 0.930 . S
H436 C456 0.931 . S
O437 Co413 2.097 . S
O437 C465 1.214 . S
H438 C466 0.929 . S
H439 C467 0.929 . S
H440 C468 0.930 . S
H441 C469 0.929 . S
H442 C471 0.930 . S
H443 C448 0.930 . S
H444 C452 0.930 . S
O445 Co414 2.037 . S
O445 C465 1.234 . S
C446 O420 1.269 . S
C446 O421 1.257 . S
C447 H422 0.930 . S
C447 C450 1.388 . S
C447 C452 1.418 . S
C448 H443 0.930 . S
C448 C451 1.404 . S
C448 C452 1.353 . S
N449 Co414 2.145 . S
N449 C450 1.397 . S
N449 C451 1.334 . S
C450 H431 0.929 . S
C450 C447 1.388 . S
C450 N449 1.397 . S
C451 H432 0.929 . S
C451 C448 1.404 . S
C451 N449 1.334 . S
C452 H444 0.930 . S
C452 C447 1.418 . S
C452 C448 1.353 . S
C453 H423 0.930 . S
C453 N454 1.330 . S
C453 C455 1.446 . S
N454 Co413 2.151 . S
N454 C453 1.330 . S
N454 C458 1.418 . S
C455 H434 0.929 . S
C455 C453 1.446 . S
C455 C456 1.332 . S
C456 H436 0.931 . S
C456 C455 1.332 . S
C456 C457 1.267 . S
C457 H425 0.929 . S
C457 C456 1.267 . S
C457 C458 1.251 . S
C458 H428 0.929 . S
C458 N454 1.418 . S
C458 C457 1.251 . S
C459 H426 0.930 . S
C459 C461 1.406 . S
C459 C464 1.261 . S
C460 H427 0.930 . S
C460 N462 1.325 . S
C460 C463 1.357 . S
C461 H429 0.928 . S
C461 C459 1.406 . S
C461 N462 1.261 . S
N462 Co413 2.214 . S
N462 C460 1.325 . S
N462 C461 1.261 . S
C463 H433 0.931 . S
C463 C460 1.357 . S
C463 C464 1.312 . S
C464 H435 0.930 . S
C464 C459 1.261 . S
C464 C463 1.312 . S
C465 O437 1.214 . S
C465 O445 1.234 . S
C466 H438 0.929 . S
C466 C469 1.391 . S
C466 C471 1.391 . S
C467 H439 0.929 . S
C467 C468 1.390 . S
C467 N470 1.391 . S
C468 H440 0.930 . S
C468 C467 1.390 . S
C468 C469 1.392 . S
C469 H441 0.929 . S
C469 C466 1.391 . S
C469 C468 1.392 . S
N470 Co414 2.257 . S
N470 C467 1.391 . S
N470 C471 1.388 . S
C471 H442 0.930 . S
C471 C466 1.391 . S
C471 N470 1.388 . S
Co472 O474 2.143 . S
Co472 O480 2.074 . S
Co472 O483 2.093 . S
Co472 O496 2.097 . S
Co472 N513 2.151 . S
Co472 N521 2.214 . S
Co473 O474 2.160 . S
Co473 O479 2.058 . S
Co473 O489 2.057 . S
Co473 O504 2.037 . S
Co473 N508 2.145 . S
Co473 N529 2.257 . S
O474 Co472 2.143 . S
O474 Co473 2.160 . S
C475 O476 1.278 . S
C475 O483 1.224 . S
O476 C475 1.278 . S
C477 O478 1.245 . S
C477 O489 1.232 . S
O478 C477 1.245 . S
O479 Co473 2.058 . S
O479 C505 1.269 . S
O480 Co472 2.074 . S
O480 C505 1.257 . S
H481 C506 0.930 . S
H482 C512 0.930 . S
O483 Co472 2.093 . S
O483 C475 1.224 . S
H484 C516 0.929 . S
H485 C518 0.930 . S
H486 C519 0.930 . S
H487 C517 0.929 . S
H488 C520 0.928 . S
O489 Co473 2.057 . S
O489 C477 1.232 . S
H490 C509 0.929 . S
H491 C510 0.929 . S
H492 C522 0.931 . S
H493 C514 0.929 . S
H494 C523 0.930 . S
H495 C515 0.931 . S
O496 Co472 2.097 . S
O496 C524 1.214 . S
H497 C525 0.929 . S
H498 C526 0.929 . S
H499 C527 0.930 . S
H500 C528 0.929 . S
H501 C530 0.930 . S
H502 C507 0.930 . S
H503 C511 0.930 . S
O504 Co473 2.037 . S
O504 C524 1.234 . S
C505 O479 1.269 . S
C505 O480 1.257 . S
C506 H481 0.930 . S
C506 C509 1.388 . S
C506 C511 1.418 . S
C507 H502 0.930 . S
C507 C510 1.404 . S
C507 C511 1.353 . S
N508 Co473 2.145 . S
N508 C509 1.397 . S
N508 C510 1.334 . S
C509 H490 0.929 . S
C509 C506 1.388 . S
C509 N508 1.397 . S
C510 H491 0.929 . S
C510 C507 1.404 . S
C510 N508 1.334 . S
C511 H503 0.930 . S
C511 C506 1.418 . S
C511 C507 1.353 . S
C512 H482 0.930 . S
C512 N513 1.330 . S
C512 C514 1.446 . S
N513 Co472 2.151 . S
N513 C512 1.330 . S
N513 C517 1.418 . S
C514 H493 0.929 . S
C514 C512 1.446 . S
C514 C515 1.332 . S
C515 H495 0.931 . S
C515 C514 1.332 . S
C515 C516 1.267 . S
C516 H484 0.929 . S
C516 C515 1.267 . S
C516 C517 1.251 . S
C517 H487 0.929 . S
C517 N513 1.418 . S
C517 C516 1.251 . S
C518 H485 0.930 . S
C518 C520 1.406 . S
C518 C523 1.261 . S
C519 H486 0.930 . S
C519 N521 1.325 . S
C519 C522 1.357 . S
C520 H488 0.928 . S
C520 C518 1.406 . S
C520 N521 1.261 . S
N521 Co472 2.214 . S
N521 C519 1.325 . S
N521 C520 1.261 . S
C522 H492 0.931 . S
C522 C519 1.357 . S
C522 C523 1.312 . S
C523 H494 0.930 . S
C523 C518 1.261 . S
C523 C522 1.312 . S
C524 O496 1.214 . S
C524 O504 1.234 . S
C525 H497 0.929 . S
C525 C528 1.391 . S
C525 C530 1.391 . S
C526 H498 0.929 . S
C526 C527 1.390 . S
C526 N529 1.391 . S
C527 H499 0.930 . S
C527 C526 1.390 . S
C527 C528 1.392 . S
C528 H500 0.929 . S
C528 C525 1.391 . S
C528 C527 1.392 . S
N529 Co473 2.257 . S
N529 C526 1.391 . S
N529 C530 1.388 . S
C530 H501 0.930 . S
C530 C525 1.391 . S
C530 N529 1.388 . S
Co531 O533 2.143 . S
Co531 O539 2.074 . S
Co531 O542 2.093 . S
Co531 O555 2.097 . S
Co531 N572 2.151 . S
Co531 N580 2.214 . S
Co532 O533 2.160 . S
Co532 O538 2.058 . S
Co532 O548 2.057 . S
Co532 O563 2.037 . S
Co532 N567 2.145 . S
Co532 N588 2.257 . S
O533 Co531 2.143 . S
O533 Co532 2.160 . S
C534 O535 1.278 . S
C534 O542 1.224 . S
O535 C534 1.278 . S
C536 O537 1.245 . S
C536 O548 1.232 . S
O537 C536 1.245 . S
O538 Co532 2.058 . S
O538 C564 1.269 . S
O539 Co531 2.074 . S
O539 C564 1.257 . S
H540 C565 0.930 . S
H541 C571 0.930 . S
O542 Co531 2.093 . S
O542 C534 1.224 . S
H543 C575 0.929 . S
H544 C577 0.930 . S
H545 C578 0.930 . S
H546 C576 0.929 . S
H547 C579 0.928 . S
O548 Co532 2.057 . S
O548 C536 1.232 . S
H549 C568 0.929 . S
H550 C569 0.929 . S
H551 C581 0.931 . S
H552 C573 0.929 . S
H553 C582 0.930 . S
H554 C574 0.931 . S
O555 Co531 2.097 . S
O555 C583 1.214 . S
H556 C584 0.929 . S
H557 C585 0.929 . S
H558 C586 0.930 . S
H559 C587 0.929 . S
H560 C589 0.930 . S
H561 C566 0.930 . S
H562 C570 0.930 . S
O563 Co532 2.037 . S
O563 C583 1.234 . S
C564 O538 1.269 . S
C564 O539 1.257 . S
C565 H540 0.930 . S
C565 C568 1.388 . S
C565 C570 1.418 . S
C566 H561 0.930 . S
C566 C569 1.404 . S
C566 C570 1.353 . S
N567 Co532 2.145 . S
N567 C568 1.397 . S
N567 C569 1.334 . S
C568 H549 0.929 . S
C568 C565 1.388 . S
C568 N567 1.397 . S
C569 H550 0.929 . S
C569 C566 1.404 . S
C569 N567 1.334 . S
C570 H562 0.930 . S
C570 C565 1.418 . S
C570 C566 1.353 . S
C571 H541 0.930 . S
C571 N572 1.330 . S
C571 C573 1.446 . S
N572 Co531 2.151 . S
N572 C571 1.330 . S
N572 C576 1.418 . S
C573 H552 0.929 . S
C573 C571 1.446 . S
C573 C574 1.332 . S
C574 H554 0.931 . S
C574 C573 1.332 . S
C574 C575 1.267 . S
C575 H543 0.929 . S
C575 C574 1.267 . S
C575 C576 1.251 . S
C576 H546 0.929 . S
C576 N572 1.418 . S
C576 C575 1.251 . S
C577 H544 0.930 . S
C577 C579 1.406 . S
C577 C582 1.261 . S
C578 H545 0.930 . S
C578 N580 1.325 . S
C578 C581 1.357 . S
C579 H547 0.928 . S
C579 C577 1.406 . S
C579 N580 1.261 . S
N580 Co531 2.214 . S
N580 C578 1.325 . S
N580 C579 1.261 . S
C581 H551 0.931 . S
C581 C578 1.357 . S
C581 C582 1.312 . S
C582 H553 0.930 . S
C582 C577 1.261 . S
C582 C581 1.312 . S
C583 O555 1.214 . S
C583 O563 1.234 . S
C584 H556 0.929 . S
C584 C587 1.391 . S
C584 C589 1.391 . S
C585 H557 0.929 . S
C585 C586 1.390 . S
C585 N588 1.391 . S
C586 H558 0.930 . S
C586 C585 1.390 . S
C586 C587 1.392 . S
C587 H559 0.929 . S
C587 C584 1.391 . S
C587 C586 1.392 . S
N588 Co532 2.257 . S
N588 C585 1.391 . S
N588 C589 1.388 . S
C589 H560 0.930 . S
C589 C584 1.391 . S
C589 N588 1.388 . S
Co590 O592 2.143 . S
Co590 O598 2.074 . S
Co590 O601 2.093 . S
Co590 O614 2.097 . S
Co590 N631 2.151 . S
Co590 N639 2.214 . S
Co591 O592 2.160 . S
Co591 O597 2.058 . S
Co591 O607 2.057 . S
Co591 O622 2.037 . S
Co591 N626 2.145 . S
Co591 N647 2.257 . S
O592 Co590 2.143 . S
O592 Co591 2.160 . S
C593 O594 1.278 . S
C593 O601 1.224 . S
O594 C593 1.278 . S
C595 O596 1.245 . S
C595 O607 1.232 . S
O596 C595 1.245 . S
O597 Co591 2.058 . S
O597 C623 1.269 . S
O598 Co590 2.074 . S
O598 C623 1.257 . S
H599 C624 0.930 . S
H600 C630 0.930 . S
O601 Co590 2.093 . S
O601 C593 1.224 . S
H602 C634 0.929 . S
H603 C636 0.930 . S
H604 C637 0.930 . S
H605 C635 0.929 . S
H606 C638 0.928 . S
O607 Co591 2.057 . S
O607 C595 1.232 . S
H608 C627 0.929 . S
H609 C628 0.929 . S
H610 C640 0.931 . S
H611 C632 0.929 . S
H612 C641 0.930 . S
H613 C633 0.931 . S
O614 Co590 2.097 . S
O614 C642 1.214 . S
H615 C643 0.929 . S
H616 C644 0.929 . S
H617 C645 0.930 . S
H618 C646 0.929 . S
H619 C648 0.930 . S
H620 C625 0.930 . S
H621 C629 0.930 . S
O622 Co591 2.037 . S
O622 C642 1.234 . S
C623 O597 1.269 . S
C623 O598 1.257 . S
C624 H599 0.930 . S
C624 C627 1.388 . S
C624 C629 1.418 . S
C625 H620 0.930 . S
C625 C628 1.404 . S
C625 C629 1.353 . S
N626 Co591 2.145 . S
N626 C627 1.397 . S
N626 C628 1.334 . S
C627 H608 0.929 . S
C627 C624 1.388 . S
C627 N626 1.397 . S
C628 H609 0.929 . S
C628 C625 1.404 . S
C628 N626 1.334 . S
C629 H621 0.930 . S
C629 C624 1.418 . S
C629 C625 1.353 . S
C630 H600 0.930 . S
C630 N631 1.330 . S
C630 C632 1.446 . S
N631 Co590 2.151 . S
N631 C630 1.330 . S
N631 C635 1.418 . S
C632 H611 0.929 . S
C632 C630 1.446 . S
C632 C633 1.332 . S
C633 H613 0.931 . S
C633 C632 1.332 . S
C633 C634 1.267 . S
C634 H602 0.929 . S
C634 C633 1.267 . S
C634 C635 1.251 . S
C635 H605 0.929 . S
C635 N631 1.418 . S
C635 C634 1.251 . S
C636 H603 0.930 . S
C636 C638 1.406 . S
C636 C641 1.261 . S
C637 H604 0.930 . S
C637 N639 1.325 . S
C637 C640 1.357 . S
C638 H606 0.928 . S
C638 C636 1.406 . S
C638 N639 1.261 . S
N639 Co590 2.214 . S
N639 C637 1.325 . S
N639 C638 1.261 . S
C640 H610 0.931 . S
C640 C637 1.357 . S
C640 C641 1.312 . S
C641 H612 0.930 . S
C641 C636 1.261 . S
C641 C640 1.312 . S
C642 O614 1.214 . S
C642 O622 1.234 . S
C643 H615 0.929 . S
C643 C646 1.391 . S
C643 C648 1.391 . S
C644 H616 0.929 . S
C644 C645 1.390 . S
C644 N647 1.391 . S
C645 H617 0.930 . S
C645 C644 1.390 . S
C645 C646 1.392 . S
C646 H618 0.929 . S
C646 C643 1.391 . S
C646 C645 1.392 . S
N647 Co591 2.257 . S
N647 C644 1.391 . S
N647 C648 1.388 . S
C648 H619 0.930 . S
C648 C643 1.391 . S
C648 N647 1.388 . S
Co649 O651 2.143 . S
Co649 O657 2.074 . S
Co649 O660 2.093 . S
Co649 O673 2.097 . S
Co649 N690 2.151 . S
Co649 N698 2.214 . S
Co650 O651 2.160 . S
Co650 O656 2.058 . S
Co650 O666 2.057 . S
Co650 O681 2.037 . S
Co650 N685 2.145 . S
Co650 N706 2.257 . S
O651 Co649 2.143 . S
O651 Co650 2.160 . S
C652 O653 1.278 . S
C652 O660 1.224 . S
O653 C652 1.278 . S
C654 O655 1.245 . S
C654 O666 1.232 . S
O655 C654 1.245 . S
O656 Co650 2.058 . S
O656 C682 1.269 . S
O657 Co649 2.074 . S
O657 C682 1.257 . S
H658 C683 0.930 . S
H659 C689 0.930 . S
O660 Co649 2.093 . S
O660 C652 1.224 . S
H661 C693 0.929 . S
H662 C695 0.930 . S
H663 C696 0.930 . S
H664 C694 0.929 . S
H665 C697 0.928 . S
O666 Co650 2.057 . S
O666 C654 1.232 . S
H667 C686 0.929 . S
H668 C687 0.929 . S
H669 C699 0.931 . S
H670 C691 0.929 . S
H671 C700 0.930 . S
H672 C692 0.931 . S
O673 Co649 2.097 . S
O673 C701 1.214 . S
H674 C702 0.929 . S
H675 C703 0.929 . S
H676 C704 0.930 . S
H677 C705 0.929 . S
H678 C707 0.930 . S
H679 C684 0.930 . S
H680 C688 0.930 . S
O681 Co650 2.037 . S
O681 C701 1.234 . S
C682 O656 1.269 . S
C682 O657 1.257 . S
C683 H658 0.930 . S
C683 C686 1.388 . S
C683 C688 1.418 . S
C684 H679 0.930 . S
C684 C687 1.404 . S
C684 C688 1.353 . S
N685 Co650 2.145 . S
N685 C686 1.397 . S
N685 C687 1.334 . S
C686 H667 0.929 . S
C686 C683 1.388 . S
C686 N685 1.397 . S
C687 H668 0.929 . S
C687 C684 1.404 . S
C687 N685 1.334 . S
C688 H680 0.930 . S
C688 C683 1.418 . S
C688 C684 1.353 . S
C689 H659 0.930 . S
C689 N690 1.330 . S
C689 C691 1.446 . S
N690 Co649 2.151 . S
N690 C689 1.330 . S
N690 C694 1.418 . S
C691 H670 0.929 . S
C691 C689 1.446 . S
C691 C692 1.332 . S
C692 H672 0.931 . S
C692 C691 1.332 . S
C692 C693 1.267 . S
C693 H661 0.929 . S
C693 C692 1.267 . S
C693 C694 1.251 . S
C694 H664 0.929 . S
C694 N690 1.418 . S
C694 C693 1.251 . S
C695 H662 0.930 . S
C695 C697 1.406 . S
C695 C700 1.261 . S
C696 H663 0.930 . S
C696 N698 1.325 . S
C696 C699 1.357 . S
C697 H665 0.928 . S
C697 C695 1.406 . S
C697 N698 1.261 . S
N698 Co649 2.214 . S
N698 C696 1.325 . S
N698 C697 1.261 . S
C699 H669 0.931 . S
C699 C696 1.357 . S
C699 C700 1.312 . S
C700 H671 0.930 . S
C700 C695 1.261 . S
C700 C699 1.312 . S
C701 O673 1.214 . S
C701 O681 1.234 . S
C702 H674 0.929 . S
C702 C705 1.391 . S
C702 C707 1.391 . S
C703 H675 0.929 . S
C703 C704 1.390 . S
C703 N706 1.391 . S
C704 H676 0.930 . S
C704 C703 1.390 . S
C704 C705 1.392 . S
C705 H677 0.929 . S
C705 C702 1.391 . S
C705 C704 1.392 . S
N706 Co650 2.257 . S
N706 C703 1.391 . S
N706 C707 1.388 . S
C707 H678 0.930 . S
C707 C702 1.391 . S
C707 N706 1.388 . S
Co708 O710 2.143 . S
Co708 O716 2.074 . S
Co708 O719 2.093 . S
Co708 O732 2.097 . S
Co708 N749 2.151 . S
Co708 N757 2.214 . S
Co709 O710 2.160 . S
Co709 O715 2.058 . S
Co709 O725 2.057 . S
Co709 O740 2.037 . S
Co709 N744 2.145 . S
Co709 N765 2.257 . S
O710 Co708 2.143 . S
O710 Co709 2.160 . S
C711 O712 1.278 . S
C711 O719 1.224 . S
O712 C711 1.278 . S
C713 O714 1.245 . S
C713 O725 1.232 . S
O714 C713 1.245 . S
O715 Co709 2.058 . S
O715 C741 1.269 . S
O716 Co708 2.074 . S
O716 C741 1.257 . S
H717 C742 0.930 . S
H718 C748 0.930 . S
O719 Co708 2.093 . S
O719 C711 1.224 . S
H720 C752 0.929 . S
H721 C754 0.930 . S
H722 C755 0.930 . S
H723 C753 0.929 . S
H724 C756 0.928 . S
O725 Co709 2.057 . S
O725 C713 1.232 . S
H726 C745 0.929 . S
H727 C746 0.929 . S
H728 C758 0.931 . S
H729 C750 0.929 . S
H730 C759 0.930 . S
H731 C751 0.931 . S
O732 Co708 2.097 . S
O732 C760 1.214 . S
H733 C761 0.929 . S
H734 C762 0.929 . S
H735 C763 0.930 . S
H736 C764 0.929 . S
H737 C766 0.930 . S
H738 C743 0.930 . S
H739 C747 0.930 . S
O740 Co709 2.037 . S
O740 C760 1.234 . S
C741 O715 1.269 . S
C741 O716 1.257 . S
C742 H717 0.930 . S
C742 C745 1.388 . S
C742 C747 1.418 . S
C743 H738 0.930 . S
C743 C746 1.404 . S
C743 C747 1.353 . S
N744 Co709 2.145 . S
N744 C745 1.397 . S
N744 C746 1.334 . S
C745 H726 0.929 . S
C745 C742 1.388 . S
C745 N744 1.397 . S
C746 H727 0.929 . S
C746 C743 1.404 . S
C746 N744 1.334 . S
C747 H739 0.930 . S
C747 C742 1.418 . S
C747 C743 1.353 . S
C748 H718 0.930 . S
C748 N749 1.330 . S
C748 C750 1.446 . S
N749 Co708 2.151 . S
N749 C748 1.330 . S
N749 C753 1.418 . S
C750 H729 0.929 . S
C750 C748 1.446 . S
C750 C751 1.332 . S
C751 H731 0.931 . S
C751 C750 1.332 . S
C751 C752 1.267 . S
C752 H720 0.929 . S
C752 C751 1.267 . S
C752 C753 1.251 . S
C753 H723 0.929 . S
C753 N749 1.418 . S
C753 C752 1.251 . S
C754 H721 0.930 . S
C754 C756 1.406 . S
C754 C759 1.261 . S
C755 H722 0.930 . S
C755 N757 1.325 . S
C755 C758 1.357 . S
C756 H724 0.928 . S
C756 C754 1.406 . S
C756 N757 1.261 . S
N757 Co708 2.214 . S
N757 C755 1.325 . S
N757 C756 1.261 . S
C758 H728 0.931 . S
C758 C755 1.357 . S
C758 C759 1.312 . S
C759 H730 0.930 . S
C759 C754 1.261 . S
C759 C758 1.312 . S
C760 O732 1.214 . S
C760 O740 1.234 . S
C761 H733 0.929 . S
C761 C764 1.391 . S
C761 C766 1.391 . S
C762 H734 0.929 . S
C762 C763 1.390 . S
C762 N765 1.391 . S
C763 H735 0.930 . S
C763 C762 1.390 . S
C763 C764 1.392 . S
C764 H736 0.929 . S
C764 C761 1.391 . S
C764 C763 1.392 . S
N765 Co709 2.257 . S
N765 C762 1.391 . S
N765 C766 1.388 . S
C766 H737 0.930 . S
C766 C761 1.391 . S
C766 N765 1.388 . S
Co767 O769 2.143 . S
Co767 O775 2.074 . S
Co767 O778 2.093 . S
Co767 O791 2.097 . S
Co767 N808 2.151 . S
Co767 N816 2.214 . S
Co768 O769 2.160 . S
Co768 O774 2.058 . S
Co768 O784 2.057 . S
Co768 O799 2.037 . S
Co768 N803 2.145 . S
Co768 N824 2.257 . S
O769 Co767 2.143 . S
O769 Co768 2.160 . S
C770 O771 1.278 . S
C770 O778 1.224 . S
O771 C770 1.278 . S
C772 O773 1.245 . S
C772 O784 1.232 . S
O773 C772 1.245 . S
O774 Co768 2.058 . S
O774 C800 1.269 . S
O775 Co767 2.074 . S
O775 C800 1.257 . S
H776 C801 0.930 . S
H777 C807 0.930 . S
O778 Co767 2.093 . S
O778 C770 1.224 . S
H779 C811 0.929 . S
H780 C813 0.930 . S
H781 C814 0.930 . S
H782 C812 0.929 . S
H783 C815 0.928 . S
O784 Co768 2.057 . S
O784 C772 1.232 . S
H785 C804 0.929 . S
H786 C805 0.929 . S
H787 C817 0.931 . S
H788 C809 0.929 . S
H789 C818 0.930 . S
H790 C810 0.931 . S
O791 Co767 2.097 . S
O791 C819 1.214 . S
H792 C820 0.929 . S
H793 C821 0.929 . S
H794 C822 0.930 . S
H795 C823 0.929 . S
H796 C825 0.930 . S
H797 C802 0.930 . S
H798 C806 0.930 . S
O799 Co768 2.037 . S
O799 C819 1.234 . S
C800 O774 1.269 . S
C800 O775 1.257 . S
C801 H776 0.930 . S
C801 C804 1.388 . S
C801 C806 1.418 . S
C802 H797 0.930 . S
C802 C805 1.404 . S
C802 C806 1.353 . S
N803 Co768 2.145 . S
N803 C804 1.397 . S
N803 C805 1.334 . S
C804 H785 0.929 . S
C804 C801 1.388 . S
C804 N803 1.397 . S
C805 H786 0.929 . S
C805 C802 1.404 . S
C805 N803 1.334 . S
C806 H798 0.930 . S
C806 C801 1.418 . S
C806 C802 1.353 . S
C807 H777 0.930 . S
C807 N808 1.330 . S
C807 C809 1.446 . S
N808 Co767 2.151 . S
N808 C807 1.330 . S
N808 C812 1.418 . S
C809 H788 0.929 . S
C809 C807 1.446 . S
C809 C810 1.332 . S
C810 H790 0.931 . S
C810 C809 1.332 . S
C810 C811 1.267 . S
C811 H779 0.929 . S
C811 C810 1.267 . S
C811 C812 1.251 . S
C812 H782 0.929 . S
C812 N808 1.418 . S
C812 C811 1.251 . S
C813 H780 0.930 . S
C813 C815 1.406 . S
C813 C818 1.261 . S
C814 H781 0.930 . S
C814 N816 1.325 . S
C814 C817 1.357 . S
C815 H783 0.928 . S
C815 C813 1.406 . S
C815 N816 1.261 . S
N816 Co767 2.214 . S
N816 C814 1.325 . S
N816 C815 1.261 . S
C817 H787 0.931 . S
C817 C814 1.357 . S
C817 C818 1.312 . S
C818 H789 0.930 . S
C818 C813 1.261 . S
C818 C817 1.312 . S
C819 O791 1.214 . S
C819 O799 1.234 . S
C820 H792 0.929 . S
C820 C823 1.391 . S
C820 C825 1.391 . S
C821 H793 0.929 . S
C821 C822 1.390 . S
C821 N824 1.391 . S
C822 H794 0.930 . S
C822 C821 1.390 . S
C822 C823 1.392 . S
C823 H795 0.929 . S
C823 C820 1.391 . S
C823 C822 1.392 . S
N824 Co768 2.257 . S
N824 C821 1.391 . S
N824 C825 1.388 . S
C825 H796 0.930 . S
C825 C820 1.391 . S
C825 N824 1.388 . S
Co826 O828 2.143 . S
Co826 O834 2.074 . S
Co826 O837 2.093 . S
Co826 O850 2.097 . S
Co826 N867 2.151 . S
Co826 N875 2.214 . S
Co827 O828 2.160 . S
Co827 O833 2.058 . S
Co827 O843 2.057 . S
Co827 O858 2.037 . S
Co827 N862 2.145 . S
Co827 N883 2.257 . S
O828 Co826 2.143 . S
O828 Co827 2.160 . S
C829 O830 1.278 . S
C829 O837 1.224 . S
O830 C829 1.278 . S
C831 O832 1.245 . S
C831 O843 1.232 . S
O832 C831 1.245 . S
O833 Co827 2.058 . S
O833 C859 1.269 . S
O834 Co826 2.074 . S
O834 C859 1.257 . S
H835 C860 0.930 . S
H836 C866 0.930 . S
O837 Co826 2.093 . S
O837 C829 1.224 . S
H838 C870 0.929 . S
H839 C872 0.930 . S
H840 C873 0.930 . S
H841 C871 0.929 . S
H842 C874 0.928 . S
O843 Co827 2.057 . S
O843 C831 1.232 . S
H844 C863 0.929 . S
H845 C864 0.929 . S
H846 C876 0.931 . S
H847 C868 0.929 . S
H848 C877 0.930 . S
H849 C869 0.931 . S
O850 Co826 2.097 . S
O850 C878 1.214 . S
H851 C879 0.929 . S
H852 C880 0.929 . S
H853 C881 0.930 . S
H854 C882 0.929 . S
H855 C884 0.930 . S
H856 C861 0.930 . S
H857 C865 0.930 . S
O858 Co827 2.037 . S
O858 C878 1.234 . S
C859 O833 1.269 . S
C859 O834 1.257 . S
C860 H835 0.930 . S
C860 C863 1.388 . S
C860 C865 1.418 . S
C861 H856 0.930 . S
C861 C864 1.404 . S
C861 C865 1.353 . S
N862 Co827 2.145 . S
N862 C863 1.397 . S
N862 C864 1.334 . S
C863 H844 0.929 . S
C863 C860 1.388 . S
C863 N862 1.397 . S
C864 H845 0.929 . S
C864 C861 1.404 . S
C864 N862 1.334 . S
C865 H857 0.930 . S
C865 C860 1.418 . S
C865 C861 1.353 . S
C866 H836 0.930 . S
C866 N867 1.330 . S
C866 C868 1.446 . S
N867 Co826 2.151 . S
N867 C866 1.330 . S
N867 C871 1.418 . S
C868 H847 0.929 . S
C868 C866 1.446 . S
C868 C869 1.332 . S
C869 H849 0.931 . S
C869 C868 1.332 . S
C869 C870 1.267 . S
C870 H838 0.929 . S
C870 C869 1.267 . S
C870 C871 1.251 . S
C871 H841 0.929 . S
C871 N867 1.418 . S
C871 C870 1.251 . S
C872 H839 0.930 . S
C872 C874 1.406 . S
C872 C877 1.261 . S
C873 H840 0.930 . S
C873 N875 1.325 . S
C873 C876 1.357 . S
C874 H842 0.928 . S
C874 C872 1.406 . S
C874 N875 1.261 . S
N875 Co826 2.214 . S
N875 C873 1.325 . S
N875 C874 1.261 . S
C876 H846 0.931 . S
C876 C873 1.357 . S
C876 C877 1.312 . S
C877 H848 0.930 . S
C877 C872 1.261 . S
C877 C876 1.312 . S
C878 O850 1.214 . S
C878 O858 1.234 . S
C879 H851 0.929 . S
C879 C882 1.391 . S
C879 C884 1.391 . S
C880 H852 0.929 . S
C880 C881 1.390 . S
C880 N883 1.391 . S
C881 H853 0.930 . S
C881 C880 1.390 . S
C881 C882 1.392 . S
C882 H854 0.929 . S
C882 C879 1.391 . S
C882 C881 1.392 . S
N883 Co827 2.257 . S
N883 C880 1.391 . S
N883 C884 1.388 . S
C884 H855 0.930 . S
C884 C879 1.391 . S
C884 N883 1.388 . S
Co885 O887 2.143 . S
Co885 O893 2.074 . S
Co885 O896 2.093 . S
Co885 O909 2.097 . S
Co885 N926 2.151 . S
Co885 N934 2.214 . S
Co886 O887 2.160 . S
Co886 O892 2.058 . S
Co886 O902 2.057 . S
Co886 O917 2.037 . S
Co886 N921 2.145 . S
Co886 N942 2.257 . S
O887 Co885 2.143 . S
O887 Co886 2.160 . S
C888 O889 1.278 . S
C888 O896 1.224 . S
O889 C888 1.278 . S
C890 O891 1.245 . S
C890 O902 1.232 . S
O891 C890 1.245 . S
O892 Co886 2.058 . S
O892 C918 1.269 . S
O893 Co885 2.074 . S
O893 C918 1.257 . S
H894 C919 0.930 . S
H895 C925 0.930 . S
O896 Co885 2.093 . S
O896 C888 1.224 . S
H897 C929 0.929 . S
H898 C931 0.930 . S
H899 C932 0.930 . S
H900 C930 0.929 . S
H901 C933 0.928 . S
O902 Co886 2.057 . S
O902 C890 1.232 . S
H903 C922 0.929 . S
H904 C923 0.929 . S
H905 C935 0.931 . S
H906 C927 0.929 . S
H907 C936 0.930 . S
H908 C928 0.931 . S
O909 Co885 2.097 . S
O909 C937 1.214 . S
H910 C938 0.929 . S
H911 C939 0.929 . S
H912 C940 0.930 . S
H913 C941 0.929 . S
H914 C943 0.930 . S
H915 C920 0.930 . S
H916 C924 0.930 . S
O917 Co886 2.037 . S
O917 C937 1.234 . S
C918 O892 1.269 . S
C918 O893 1.257 . S
C919 H894 0.930 . S
C919 C922 1.388 . S
C919 C924 1.418 . S
C920 H915 0.930 . S
C920 C923 1.404 . S
C920 C924 1.353 . S
N921 Co886 2.145 . S
N921 C922 1.397 . S
N921 C923 1.334 . S
C922 H903 0.929 . S
C922 C919 1.388 . S
C922 N921 1.397 . S
C923 H904 0.929 . S
C923 C920 1.404 . S
C923 N921 1.334 . S
C924 H916 0.930 . S
C924 C919 1.418 . S
C924 C920 1.353 . S
C925 H895 0.930 . S
C925 N926 1.330 . S
C925 C927 1.446 . S
N926 Co885 2.151 . S
N926 C925 1.330 . S
N926 C930 1.418 . S
C927 H906 0.929 . S
C927 C925 1.446 . S
C927 C928 1.332 . S
C928 H908 0.931 . S
C928 C927 1.332 . S
C928 C929 1.267 . S
C929 H897 0.929 . S
C929 C928 1.267 . S
C929 C930 1.251 . S
C930 H900 0.929 . S
C930 N926 1.418 . S
C930 C929 1.251 . S
C931 H898 0.930 . S
C931 C933 1.406 . S
C931 C936 1.261 . S
C932 H899 0.930 . S
C932 N934 1.325 . S
C932 C935 1.357 . S
C933 H901 0.928 . S
C933 C931 1.406 . S
C933 N934 1.261 . S
N934 Co885 2.214 . S
N934 C932 1.325 . S
N934 C933 1.261 . S
C935 H905 0.931 . S
C935 C932 1.357 . S
C935 C936 1.312 . S
C936 H907 0.930 . S
C936 C931 1.261 . S
C936 C935 1.312 . S
C937 O909 1.214 . S
C937 O917 1.234 . S
C938 H910 0.929 . S
C938 C941 1.391 . S
C938 C943 1.391 . S
C939 H911 0.929 . S
C939 C940 1.390 . S
C939 N942 1.391 . S
C940 H912 0.930 . S
C940 C939 1.390 . S
C940 C941 1.392 . S
C941 H913 0.929 . S
C941 C938 1.391 . S
C941 C940 1.392 . S
N942 Co886 2.257 . S
N942 C939 1.391 . S
N942 C943 1.388 . S
C943 H914 0.930 . S
C943 C938 1.391 . S
C943 N942 1.388 . S
H944 C950 0.930 . S
H945 C954 0.930 . S
H946 C959 0.929 . S
H947 C957 0.929 . S
H948 C952 0.929 . S
H949 C958 0.929 . S
C950 H944 0.930 . S
C950 C951 1.367 . S
C950 C958 1.378 . S
C951 C950 1.367 . S
C951 C959 1.433 . S
C952 H948 0.929 . S
C952 C954 1.378 . S
C952 C956 1.350 . S
C953 C956 1.463 1_455 S
C953 C958 1.350 . S
C953 N961 1.427 . S
C954 H945 0.930 . S
C954 C952 1.378 . S
C954 C955 1.367 . S
C955 C954 1.367 . S
C955 C957 1.433 . S
C956 C952 1.350 . S
C956 C953 1.463 1_655 S
C956 N960 1.427 . S
C957 H947 0.929 . S
C957 C955 1.433 . S
C957 N960 1.384 . S
C958 H949 0.929 . S
C958 C950 1.378 . S
C958 C953 1.350 . S
C959 H946 0.929 . S
C959 C951 1.433 . S
C959 N961 1.384 . S
N960 C956 1.427 . S
N960 C957 1.384 . S
N961 C953 1.427 . S
N961 C959 1.384 . S
H962 C968 0.930 . S
H963 C972 0.930 . S
H964 C977 0.929 . S
H965 C975 0.929 . S
H966 C970 0.929 . S
H967 C976 0.929 . S
C968 H962 0.930 . S
C968 C969 1.367 . S
C968 C976 1.378 . S
C969 C968 1.367 . S
C969 C977 1.433 . S
C970 H966 0.929 . S
C970 C972 1.378 . S
C970 C974 1.350 . S
C971 C974 1.463 1_565 S
C971 C976 1.350 . S
C971 N979 1.427 . S
C972 H963 0.930 . S
C972 C970 1.378 . S
C972 C973 1.367 . S
C973 C972 1.367 . S
C973 C975 1.433 . S
C974 C970 1.350 . S
C974 C971 1.463 1_545 S
C974 N978 1.427 . S
C975 H965 0.929 . S
C975 C973 1.433 . S
C975 N978 1.384 . S
C976 H967 0.929 . S
C976 C968 1.378 . S
C976 C971 1.350 . S
C977 H964 0.929 . S
C977 C969 1.433 . S
C977 N979 1.384 . S
N978 C974 1.427 . S
N978 C975 1.384 . S
N979 C971 1.427 . S
N979 C977 1.384 . S
H980 C986 0.930 . S
H981 C990 0.930 . S
H982 C995 0.929 . S
H983 C993 0.929 . S
H984 C988 0.929 . S
H985 C994 0.929 . S
C986 H980 0.930 . S
C986 C987 1.367 . S
C986 C994 1.378 . S
C987 C986 1.367 . S
C987 C995 1.433 . S
C988 H984 0.929 . S
C988 C990 1.378 . S
C988 C992 1.350 . S
C989 C992 1.463 1_455 S
C989 C994 1.350 . S
C989 N997 1.427 . S
C990 H981 0.930 . S
C990 C988 1.378 . S
C990 C991 1.367 . S
C991 C990 1.367 . S
C991 C993 1.433 . S
C992 C988 1.350 . S
C992 C989 1.463 1_655 S
C992 N996 1.427 . S
C993 H983 0.929 . S
C993 C991 1.433 . S
C993 N996 1.384 . S
C994 H985 0.929 . S
C994 C986 1.378 . S
C994 C989 1.350 . S
C995 H982 0.929 . S
C995 C987 1.433 . S
C995 N997 1.384 . S
N996 C992 1.427 . S
N996 C993 1.384 . S
N997 C989 1.427 . S
N997 C995 1.384 . S
H998 C1004 0.930 . S
H999 C1008 0.930 . S
H1000 C1013 0.929 . S
H1001 C1011 0.929 . S
H1002 C1006 0.929 . S
H1003 C1012 0.929 . S
C1004 H998 0.930 . S
C1004 C1005 1.367 . S
C1004 C1012 1.378 . S
C1005 C1004 1.367 . S
C1005 C1013 1.433 . S
C1006 H1002 0.929 . S
C1006 C1008 1.378 . S
C1006 C1010 1.350 . S
C1007 C1010 1.463 1_565 S
C1007 C1012 1.350 . S
C1007 N1015 1.427 . S
C1008 H999 0.930 . S
C1008 C1006 1.378 . S
C1008 C1009 1.367 . S
C1009 C1008 1.367 . S
C1009 C1011 1.433 . S
C1010 C1006 1.350 . S
C1010 C1007 1.463 1_545 S
C1010 N1014 1.427 . S
C1011 H1001 0.929 . S
C1011 C1009 1.433 . S
C1011 N1014 1.384 . S
C1012 H1003 0.929 . S
C1012 C1004 1.378 . S
C1012 C1007 1.350 . S
C1013 H1000 0.929 . S
C1013 C1005 1.433 . S
C1013 N1015 1.384 . S
N1014 C1010 1.427 . S
N1014 C1011 1.384 . S
N1015 C1007 1.427 . S
N1015 C1013 1.384 . S
H1016 C1022 0.930 . S
H1017 C1026 0.930 . S
H1018 C1031 0.929 . S
H1019 C1029 0.929 . S
H1020 C1024 0.929 . S
H1021 C1030 0.929 . S
C1022 H1016 0.930 . S
C1022 C1023 1.367 . S
C1022 C1030 1.378 . S
C1023 C1022 1.367 . S
C1023 C1031 1.433 . S
C1024 H1020 0.929 . S
C1024 C1026 1.378 . S
C1024 C1028 1.350 . S
C1025 C1028 1.463 1_655 S
C1025 C1030 1.350 . S
C1025 N1033 1.427 . S
C1026 H1017 0.930 . S
C1026 C1024 1.378 . S
C1026 C1027 1.367 . S
C1027 C1026 1.367 . S
C1027 C1029 1.433 . S
C1028 C1024 1.350 . S
C1028 C1025 1.463 1_455 S
C1028 N1032 1.427 . S
C1029 H1019 0.929 . S
C1029 C1027 1.433 . S
C1029 N1032 1.384 . S
C1030 H1021 0.929 . S
C1030 C1022 1.378 . S
C1030 C1025 1.350 . S
C1031 H1018 0.929 . S
C1031 C1023 1.433 . S
C1031 N1033 1.384 . S
N1032 C1028 1.427 . S
N1032 C1029 1.384 . S
N1033 C1025 1.427 . S
N1033 C1031 1.384 . S
H1034 C1040 0.930 . S
H1035 C1044 0.930 . S
H1036 C1049 0.929 . S
H1037 C1047 0.929 . S
H1038 C1042 0.929 . S
H1039 C1048 0.929 . S
C1040 H1034 0.930 . S
C1040 C1041 1.367 . S
C1040 C1048 1.378 . S
C1041 C1040 1.367 . S
C1041 C1049 1.433 . S
C1042 H1038 0.929 . S
C1042 C1044 1.378 . S
C1042 C1046 1.350 . S
C1043 C1046 1.463 1_545 S
C1043 C1048 1.350 . S
C1043 N1051 1.427 . S
C1044 H1035 0.930 . S
C1044 C1042 1.378 . S
C1044 C1045 1.367 . S
C1045 C1044 1.367 . S
C1045 C1047 1.433 . S
C1046 C1042 1.350 . S
C1046 C1043 1.463 1_565 S
C1046 N1050 1.427 . S
C1047 H1037 0.929 . S
C1047 C1045 1.433 . S
C1047 N1050 1.384 . S
C1048 H1039 0.929 . S
C1048 C1040 1.378 . S
C1048 C1043 1.350 . S
C1049 H1036 0.929 . S
C1049 C1041 1.433 . S
C1049 N1051 1.384 . S
N1050 C1046 1.427 . S
N1050 C1047 1.384 . S
N1051 C1043 1.427 . S
N1051 C1049 1.384 . S
H1052 C1058 0.930 . S
H1053 C1062 0.930 . S
H1054 C1067 0.929 . S
H1055 C1065 0.929 . S
H1056 C1060 0.929 . S
H1057 C1066 0.929 . S
C1058 H1052 0.930 . S
C1058 C1059 1.367 . S
C1058 C1066 1.378 . S
C1059 C1058 1.367 . S
C1059 C1067 1.433 . S
C1060 H1056 0.929 . S
C1060 C1062 1.378 . S
C1060 C1064 1.350 . S
C1061 C1064 1.463 1_655 S
C1061 C1066 1.350 . S
C1061 N1069 1.427 . S
C1062 H1053 0.930 . S
C1062 C1060 1.378 . S
C1062 C1063 1.367 . S
C1063 C1062 1.367 . S
C1063 C1065 1.433 . S
C1064 C1060 1.350 . S
C1064 C1061 1.463 1_455 S
C1064 N1068 1.427 . S
C1065 H1055 0.929 . S
C1065 C1063 1.433 . S
C1065 N1068 1.384 . S
C1066 H1057 0.929 . S
C1066 C1058 1.378 . S
C1066 C1061 1.350 . S
C1067 H1054 0.929 . S
C1067 C1059 1.433 . S
C1067 N1069 1.384 . S
N1068 C1064 1.427 . S
N1068 C1065 1.384 . S
N1069 C1061 1.427 . S
N1069 C1067 1.384 . S
H1070 C1076 0.930 . S
H1071 C1080 0.930 . S
H1072 C1085 0.929 . S
H1073 C1083 0.929 . S
H1074 C1078 0.929 . S
H1075 C1084 0.929 . S
C1076 H1070 0.930 . S
C1076 C1077 1.367 . S
C1076 C1084 1.378 . S
C1077 C1076 1.367 . S
C1077 C1085 1.433 . S
C1078 H1074 0.929 . S
C1078 C1080 1.378 . S
C1078 C1082 1.350 . S
C1079 C1082 1.463 1_545 S
C1079 C1084 1.350 . S
C1079 N1087 1.427 . S
C1080 H1071 0.930 . S
C1080 C1078 1.378 . S
C1080 C1081 1.367 . S
C1081 C1080 1.367 . S
C1081 C1083 1.433 . S
C1082 C1078 1.350 . S
C1082 C1079 1.463 1_565 S
C1082 N1086 1.427 . S
C1083 H1073 0.929 . S
C1083 C1081 1.433 . S
C1083 N1086 1.384 . S
C1084 H1075 0.929 . S
C1084 C1076 1.378 . S
C1084 C1079 1.350 . S
C1085 H1072 0.929 . S
C1085 C1077 1.433 . S
C1085 N1087 1.384 . S
N1086 C1082 1.427 . S
N1086 C1083 1.384 . S
N1087 C1079 1.427 . S
N1087 C1085 1.384 . S
H1088 C1094 0.930 . S
H1089 C1098 0.930 . S
H1090 C1103 0.929 . S
H1091 C1101 0.929 . S
H1092 C1096 0.929 . S
H1093 C1102 0.929 . S
C1094 H1088 0.930 . S
C1094 C1095 1.367 . S
C1094 C1102 1.378 . S
C1095 C1094 1.367 . S
C1095 C1103 1.433 . S
C1096 H1092 0.929 . S
C1096 C1098 1.378 . S
C1096 C1100 1.350 . S
C1097 C1100 1.463 . S
C1097 C1102 1.350 . S
C1097 N1105 1.427 . S
C1098 H1089 0.930 . S
C1098 C1096 1.378 . S
C1098 C1099 1.367 . S
C1099 C1098 1.367 . S
C1099 C1101 1.433 . S
C1100 C1096 1.350 . S
C1100 C1097 1.463 . S
C1100 N1104 1.427 . S
C1101 H1091 0.929 . S
C1101 C1099 1.433 . S
C1101 N1104 1.384 . S
C1102 H1093 0.929 . S
C1102 C1094 1.378 . S
C1102 C1097 1.350 . S
C1103 H1090 0.929 . S
C1103 C1095 1.433 . S
C1103 N1105 1.384 . S
N1104 C1100 1.427 . S
N1104 C1101 1.384 . S
N1105 C1097 1.427 . S
N1105 C1103 1.384 . S
H1106 C1112 0.930 . S
H1107 C1116 0.930 . S
H1108 C1121 0.929 . S
H1109 C1119 0.929 . S
H1110 C1114 0.929 . S
H1111 C1120 0.929 . S
C1112 H1106 0.930 . S
C1112 C1113 1.367 . S
C1112 C1120 1.378 . S
C1113 C1112 1.367 . S
C1113 C1121 1.433 . S
C1114 H1110 0.929 . S
C1114 C1116 1.378 . S
C1114 C1118 1.350 . S
C1115 C1118 1.463 . S
C1115 C1120 1.350 . S
C1115 N1123 1.427 . S
C1116 H1107 0.930 . S
C1116 C1114 1.378 . S
C1116 C1117 1.367 . S
C1117 C1116 1.367 . S
C1117 C1119 1.433 . S
C1118 C1114 1.350 . S
C1118 C1115 1.463 . S
C1118 N1122 1.427 . S
C1119 H1109 0.929 . S
C1119 C1117 1.433 . S
C1119 N1122 1.384 . S
C1120 H1111 0.929 . S
C1120 C1112 1.378 . S
C1120 C1115 1.350 . S
C1121 H1108 0.929 . S
C1121 C1113 1.433 . S
C1121 N1123 1.384 . S
N1122 C1118 1.427 . S
N1122 C1119 1.384 . S
N1123 C1115 1.427 . S
N1123 C1121 1.384 . S
H1124 C1130 0.930 . S
H1125 C1134 0.930 . S
H1126 C1139 0.929 . S
H1127 C1137 0.929 . S
H1128 C1132 0.929 . S
H1129 C1138 0.929 . S
C1130 H1124 0.930 . S
C1130 C1131 1.367 . S
C1130 C1138 1.378 . S
C1131 C1130 1.367 . S
C1131 C1139 1.433 . S
C1132 H1128 0.929 . S
C1132 C1134 1.378 . S
C1132 C1136 1.350 . S
C1133 C1136 1.463 . S
C1133 C1138 1.350 . S
C1133 N1141 1.427 . S
C1134 H1125 0.930 . S
C1134 C1132 1.378 . S
C1134 C1135 1.367 . S
C1135 C1134 1.367 . S
C1135 C1137 1.433 . S
C1136 C1132 1.350 . S
C1136 C1133 1.463 . S
C1136 N1140 1.427 . S
C1137 H1127 0.929 . S
C1137 C1135 1.433 . S
C1137 N1140 1.384 . S
C1138 H1129 0.929 . S
C1138 C1130 1.378 . S
C1138 C1133 1.350 . S
C1139 H1126 0.929 . S
C1139 C1131 1.433 . S
C1139 N1141 1.384 . S
N1140 C1136 1.427 . S
N1140 C1137 1.384 . S
N1141 C1133 1.427 . S
N1141 C1139 1.384 . S
H1142 C1148 0.930 . S
H1143 C1152 0.930 . S
H1144 C1157 0.929 . S
H1145 C1155 0.929 . S
H1146 C1150 0.929 . S
H1147 C1156 0.929 . S
C1148 H1142 0.930 . S
C1148 C1149 1.367 . S
C1148 C1156 1.378 . S
C1149 C1148 1.367 . S
C1149 C1157 1.433 . S
C1150 H1146 0.929 . S
C1150 C1152 1.378 . S
C1150 C1154 1.350 . S
C1151 C1154 1.463 . S
C1151 C1156 1.350 . S
C1151 N1159 1.427 . S
C1152 H1143 0.930 . S
C1152 C1150 1.378 . S
C1152 C1153 1.367 . S
C1153 C1152 1.367 . S
C1153 C1155 1.433 . S
C1154 C1150 1.350 . S
C1154 C1151 1.463 . S
C1154 N1158 1.427 . S
C1155 H1145 0.929 . S
C1155 C1153 1.433 . S
C1155 N1158 1.384 . S
C1156 H1147 0.929 . S
C1156 C1148 1.378 . S
C1156 C1151 1.350 . S
C1157 H1144 0.929 . S
C1157 C1149 1.433 . S
C1157 N1159 1.384 . S
N1158 C1154 1.427 . S
N1158 C1155 1.384 . S
N1159 C1151 1.427 . S
N1159 C1157 1.384 . S
H1160 C1166 0.930 . S
H1161 C1170 0.930 . S
H1162 C1175 0.929 . S
H1163 C1173 0.929 . S
H1164 C1168 0.929 . S
H1165 C1174 0.929 . S
C1166 H1160 0.930 . S
C1166 C1167 1.367 . S
C1166 C1174 1.378 . S
C1167 C1166 1.367 . S
C1167 C1175 1.433 . S
C1168 H1164 0.929 . S
C1168 C1170 1.378 . S
C1168 C1172 1.350 . S
C1169 C1172 1.463 . S
C1169 C1174 1.350 . S
C1169 N1177 1.427 . S
C1170 H1161 0.930 . S
C1170 C1168 1.378 . S
C1170 C1171 1.367 . S
C1171 C1170 1.367 . S
C1171 C1173 1.433 . S
C1172 C1168 1.350 . S
C1172 C1169 1.463 . S
C1172 N1176 1.427 . S
C1173 H1163 0.929 . S
C1173 C1171 1.433 . S
C1173 N1176 1.384 . S
C1174 H1165 0.929 . S
C1174 C1166 1.378 . S
C1174 C1169 1.350 . S
C1175 H1162 0.929 . S
C1175 C1167 1.433 . S
C1175 N1177 1.384 . S
N1176 C1172 1.427 . S
N1176 C1173 1.384 . S
N1177 C1169 1.427 . S
N1177 C1175 1.384 . S
H1178 C1184 0.930 . S
H1179 C1188 0.930 . S
H1180 C1193 0.929 . S
H1181 C1191 0.929 . S
H1182 C1186 0.929 . S
H1183 C1192 0.929 . S
C1184 H1178 0.930 . S
C1184 C1185 1.367 . S
C1184 C1192 1.378 . S
C1185 C1184 1.367 . S
C1185 C1193 1.433 . S
C1186 H1182 0.929 . S
C1186 C1188 1.378 . S
C1186 C1190 1.350 . S
C1187 C1190 1.463 . S
C1187 C1192 1.350 . S
C1187 N1195 1.427 . S
C1188 H1179 0.930 . S
C1188 C1186 1.378 . S
C1188 C1189 1.367 . S
C1189 C1188 1.367 . S
C1189 C1191 1.433 . S
C1190 C1186 1.350 . S
C1190 C1187 1.463 . S
C1190 N1194 1.427 . S
C1191 H1181 0.929 . S
C1191 C1189 1.433 . S
C1191 N1194 1.384 . S
C1192 H1183 0.929 . S
C1192 C1184 1.378 . S
C1192 C1187 1.350 . S
C1193 H1180 0.929 . S
C1193 C1185 1.433 . S
C1193 N1195 1.384 . S
N1194 C1190 1.427 . S
N1194 C1191 1.384 . S
N1195 C1187 1.427 . S
N1195 C1193 1.384 . S
H1196 C1202 0.930 . S
H1197 C1206 0.930 . S
H1198 C1211 0.929 . S
H1199 C1209 0.929 . S
H1200 C1204 0.929 . S
H1201 C1210 0.929 . S
C1202 H1196 0.930 . S
C1202 C1203 1.367 . S
C1202 C1210 1.378 . S
C1203 C1202 1.367 . S
C1203 C1211 1.433 . S
C1204 H1200 0.929 . S
C1204 C1206 1.378 . S
C1204 C1208 1.350 . S
C1205 C1208 1.463 . S
C1205 C1210 1.350 . S
C1205 N1213 1.427 . S
C1206 H1197 0.930 . S
C1206 C1204 1.378 . S
C1206 C1207 1.367 . S
C1207 C1206 1.367 . S
C1207 C1209 1.433 . S
C1208 C1204 1.350 . S
C1208 C1205 1.463 . S
C1208 N1212 1.427 . S
C1209 H1199 0.929 . S
C1209 C1207 1.433 . S
C1209 N1212 1.384 . S
C1210 H1201 0.929 . S
C1210 C1202 1.378 . S
C1210 C1205 1.350 . S
C1211 H1198 0.929 . S
C1211 C1203 1.433 . S
C1211 N1213 1.384 . S
N1212 C1208 1.427 . S
N1212 C1209 1.384 . S
N1213 C1205 1.427 . S
N1213 C1211 1.384 . S
H1214 C1220 0.930 . S
H1215 C1224 0.930 . S
H1216 C1229 0.929 . S
H1217 C1227 0.929 . S
H1218 C1222 0.929 . S
H1219 C1228 0.929 . S
C1220 H1214 0.930 . S
C1220 C1221 1.367 . S
C1220 C1228 1.378 . S
C1221 C1220 1.367 . S
C1221 C1229 1.433 . S
C1222 H1218 0.929 . S
C1222 C1224 1.378 . S
C1222 C1226 1.350 . S
C1223 C1226 1.463 . S
C1223 C1228 1.350 . S
C1223 N1231 1.427 . S
C1224 H1215 0.930 . S
C1224 C1222 1.378 . S
C1224 C1225 1.367 . S
C1225 C1224 1.367 . S
C1225 C1227 1.433 . S
C1226 C1222 1.350 . S
C1226 C1223 1.463 . S
C1226 N1230 1.427 . S
C1227 H1217 0.929 . S
C1227 C1225 1.433 . S
C1227 N1230 1.384 . S
C1228 H1219 0.929 . S
C1228 C1220 1.378 . S
C1228 C1223 1.350 . S
C1229 H1216 0.929 . S
C1229 C1221 1.433 . S
C1229 N1231 1.384 . S
N1230 C1226 1.427 . S
N1230 C1227 1.384 . S
N1231 C1223 1.427 . S
N1231 C1229 1.384 . S
H1232 C1238 0.930 . S
H1233 C1242 0.930 . S
H1234 C1247 0.929 . S
H1235 C1245 0.929 . S
H1236 C1240 0.929 . S
H1237 C1246 0.929 . S
C1238 H1232 0.930 . S
C1238 C1239 1.367 . S
C1238 C1246 1.378 . S
C1239 C1238 1.367 . S
C1239 C1247 1.433 . S
C1240 H1236 0.929 . S
C1240 C1242 1.378 . S
C1240 C1244 1.350 . S
C1241 C1244 1.463 1_556 S
C1241 C1246 1.350 . S
C1241 N1249 1.427 . S
C1242 H1233 0.930 . S
C1242 C1240 1.378 . S
C1242 C1243 1.367 . S
C1243 C1242 1.367 . S
C1243 C1245 1.433 . S
C1244 C1240 1.350 . S
C1244 C1241 1.463 1_554 S
C1244 N1248 1.427 . S
C1245 H1235 0.929 . S
C1245 C1243 1.433 . S
C1245 N1248 1.384 . S
C1246 H1237 0.929 . S
C1246 C1238 1.378 . S
C1246 C1241 1.350 . S
C1247 H1234 0.929 . S
C1247 C1239 1.433 . S
C1247 N1249 1.384 . S
N1248 C1244 1.427 . S
N1248 C1245 1.384 . S
N1249 C1241 1.427 . S
N1249 C1247 1.384 . S
H1250 C1256 0.930 . S
H1251 C1260 0.930 . S
H1252 C1265 0.929 . S
H1253 C1263 0.929 . S
H1254 C1258 0.929 . S
H1255 C1264 0.929 . S
C1256 H1250 0.930 . S
C1256 C1257 1.367 . S
C1256 C1264 1.378 . S
C1257 C1256 1.367 . S
C1257 C1265 1.433 . S
C1258 H1254 0.929 . S
C1258 C1260 1.378 . S
C1258 C1262 1.350 . S
C1259 C1262 1.463 . S
C1259 C1264 1.350 . S
C1259 N1267 1.427 . S
C1260 H1251 0.930 . S
C1260 C1258 1.378 . S
C1260 C1261 1.367 . S
C1261 C1260 1.367 . S
C1261 C1263 1.433 . S
C1262 C1258 1.350 . S
C1262 C1259 1.463 . S
C1262 N1266 1.427 . S
C1263 H1253 0.929 . S
C1263 C1261 1.433 . S
C1263 N1266 1.384 . S
C1264 H1255 0.929 . S
C1264 C1256 1.378 . S
C1264 C1259 1.350 . S
C1265 H1252 0.929 . S
C1265 C1257 1.433 . S
C1265 N1267 1.384 . S
N1266 C1262 1.427 . S
N1266 C1263 1.384 . S
N1267 C1259 1.427 . S
N1267 C1265 1.384 . S
H1268 C1274 0.930 . S
H1269 C1278 0.930 . S
H1270 C1283 0.929 . S
H1271 C1281 0.929 . S
H1272 C1276 0.929 . S
H1273 C1282 0.929 . S
C1274 H1268 0.930 . S
C1274 C1275 1.367 . S
C1274 C1282 1.378 . S
C1275 C1274 1.367 . S
C1275 C1283 1.433 . S
C1276 H1272 0.929 . S
C1276 C1278 1.378 . S
C1276 C1280 1.350 . S
C1277 C1280 1.463 1_554 S
C1277 C1282 1.350 . S
C1277 N1285 1.427 . S
C1278 H1269 0.930 . S
C1278 C1276 1.378 . S
C1278 C1279 1.367 . S
C1279 C1278 1.367 . S
C1279 C1281 1.433 . S
C1280 C1276 1.350 . S
C1280 C1277 1.463 1_556 S
C1280 N1284 1.427 . S
C1281 H1271 0.929 . S
C1281 C1279 1.433 . S
C1281 N1284 1.384 . S
C1282 H1273 0.929 . S
C1282 C1274 1.378 . S
C1282 C1277 1.350 . S
C1283 H1270 0.929 . S
C1283 C1275 1.433 . S
C1283 N1285 1.384 . S
N1284 C1280 1.427 . S
N1284 C1281 1.384 . S
N1285 C1277 1.427 . S
N1285 C1283 1.384 . S
H1286 C1292 0.930 . S
H1287 C1296 0.930 . S
H1288 C1301 0.929 . S
H1289 C1299 0.929 . S
H1290 C1294 0.929 . S
H1291 C1300 0.929 . S
C1292 H1286 0.930 . S
C1292 C1293 1.367 . S
C1292 C1300 1.378 . S
C1293 C1292 1.367 . S
C1293 C1301 1.433 . S
C1294 H1290 0.929 . S
C1294 C1296 1.378 . S
C1294 C1298 1.350 . S
C1295 C1298 1.463 . S
C1295 C1300 1.350 . S
C1295 N1303 1.427 . S
C1296 H1287 0.930 . S
C1296 C1294 1.378 . S
C1296 C1297 1.367 . S
C1297 C1296 1.367 . S
C1297 C1299 1.433 . S
C1298 C1294 1.350 . S
C1298 C1295 1.463 . S
C1298 N1302 1.427 . S
C1299 H1289 0.929 . S
C1299 C1297 1.433 . S
C1299 N1302 1.384 . S
C1300 H1291 0.929 . S
C1300 C1292 1.378 . S
C1300 C1295 1.350 . S
C1301 H1288 0.929 . S
C1301 C1293 1.433 . S
C1301 N1303 1.384 . S
N1302 C1298 1.427 . S
N1302 C1299 1.384 . S
N1303 C1295 1.427 . S
N1303 C1301 1.384 . S
H1304 C1310 0.930 . S
H1305 C1314 0.930 . S
H1306 C1319 0.929 . S
H1307 C1317 0.929 . S
H1308 C1312 0.929 . S
H1309 C1318 0.929 . S
C1310 H1304 0.930 . S
C1310 C1311 1.367 . S
C1310 C1318 1.378 . S
C1311 C1310 1.367 . S
C1311 C1319 1.433 . S
C1312 H1308 0.929 . S
C1312 C1314 1.378 . S
C1312 C1316 1.350 . S
C1313 C1316 1.463 . S
C1313 C1318 1.350 . S
C1313 N1321 1.427 . S
C1314 H1305 0.930 . S
C1314 C1312 1.378 . S
C1314 C1315 1.367 . S
C1315 C1314 1.367 . S
C1315 C1317 1.433 . S
C1316 C1312 1.350 . S
C1316 C1313 1.463 . S
C1316 N1320 1.427 . S
C1317 H1307 0.929 . S
C1317 C1315 1.433 . S
C1317 N1320 1.384 . S
C1318 H1309 0.929 . S
C1318 C1310 1.378 . S
C1318 C1313 1.350 . S
C1319 H1306 0.929 . S
C1319 C1311 1.433 . S
C1319 N1321 1.384 . S
N1320 C1316 1.427 . S
N1320 C1317 1.384 . S
N1321 C1313 1.427 . S
N1321 C1319 1.384 . S
H1322 C1328 0.930 . S
H1323 C1332 0.930 . S
H1324 C1337 0.929 . S
H1325 C1335 0.929 . S
H1326 C1330 0.929 . S
H1327 C1336 0.929 . S
C1328 H1322 0.930 . S
C1328 C1329 1.367 . S
C1328 C1336 1.378 . S
C1329 C1328 1.367 . S
C1329 C1337 1.433 . S
C1330 H1326 0.929 . S
C1330 C1332 1.378 . S
C1330 C1334 1.350 . S
C1331 C1334 1.463 1_556 S
C1331 C1336 1.350 . S
C1331 N1339 1.427 . S
C1332 H1323 0.930 . S
C1332 C1330 1.378 . S
C1332 C1333 1.367 . S
C1333 C1332 1.367 . S
C1333 C1335 1.433 . S
C1334 C1330 1.350 . S
C1334 C1331 1.463 1_554 S
C1334 N1338 1.427 . S
C1335 H1325 0.929 . S
C1335 C1333 1.433 . S
C1335 N1338 1.384 . S
C1336 H1327 0.929 . S
C1336 C1328 1.378 . S
C1336 C1331 1.350 . S
C1337 H1324 0.929 . S
C1337 C1329 1.433 . S
C1337 N1339 1.384 . S
N1338 C1334 1.427 . S
N1338 C1335 1.384 . S
N1339 C1331 1.427 . S
N1339 C1337 1.384 . S
H1340 C1346 0.930 . S
H1341 C1350 0.930 . S
H1342 C1355 0.929 . S
H1343 C1353 0.929 . S
H1344 C1348 0.929 . S
H1345 C1354 0.929 . S
C1346 H1340 0.930 . S
C1346 C1347 1.367 . S
C1346 C1354 1.378 . S
C1347 C1346 1.367 . S
C1347 C1355 1.433 . S
C1348 H1344 0.929 . S
C1348 C1350 1.378 . S
C1348 C1352 1.350 . S
C1349 C1352 1.463 . S
C1349 C1354 1.350 . S
C1349 N1357 1.427 . S
C1350 H1341 0.930 . S
C1350 C1348 1.378 . S
C1350 C1351 1.367 . S
C1351 C1350 1.367 . S
C1351 C1353 1.433 . S
C1352 C1348 1.350 . S
C1352 C1349 1.463 . S
C1352 N1356 1.427 . S
C1353 H1343 0.929 . S
C1353 C1351 1.433 . S
C1353 N1356 1.384 . S
C1354 H1345 0.929 . S
C1354 C1346 1.378 . S
C1354 C1349 1.350 . S
C1355 H1342 0.929 . S
C1355 C1347 1.433 . S
C1355 N1357 1.384 . S
N1356 C1352 1.427 . S
N1356 C1353 1.384 . S
N1357 C1349 1.427 . S
N1357 C1355 1.384 . S
H1358 C1364 0.930 . S
H1359 C1368 0.930 . S
H1360 C1373 0.929 . S
H1361 C1371 0.929 . S
H1362 C1366 0.929 . S
H1363 C1372 0.929 . S
C1364 H1358 0.930 . S
C1364 C1365 1.367 . S
C1364 C1372 1.378 . S
C1365 C1364 1.367 . S
C1365 C1373 1.433 . S
C1366 H1362 0.929 . S
C1366 C1368 1.378 . S
C1366 C1370 1.350 . S
C1367 C1370 1.463 1_554 S
C1367 C1372 1.350 . S
C1367 N1375 1.427 . S
C1368 H1359 0.930 . S
C1368 C1366 1.378 . S
C1368 C1369 1.367 . S
C1369 C1368 1.367 . S
C1369 C1371 1.433 . S
C1370 C1366 1.350 . S
C1370 C1367 1.463 1_556 S
C1370 N1374 1.427 . S
C1371 H1361 0.929 . S
C1371 C1369 1.433 . S
C1371 N1374 1.384 . S
C1372 H1363 0.929 . S
C1372 C1364 1.378 . S
C1372 C1367 1.350 . S
C1373 H1360 0.929 . S
C1373 C1365 1.433 . S
C1373 N1375 1.384 . S
N1374 C1370 1.427 . S
N1374 C1371 1.384 . S
N1375 C1367 1.427 . S
N1375 C1373 1.384 . S
H1376 C1382 0.930 . S
H1377 C1386 0.930 . S
H1378 C1391 0.929 . S
H1379 C1389 0.929 . S
H1380 C1384 0.929 . S
H1381 C1390 0.929 . S
C1382 H1376 0.930 . S
C1382 C1383 1.367 . S
C1382 C1390 1.378 . S
C1383 C1382 1.367 . S
C1383 C1391 1.433 . S
C1384 H1380 0.929 . S
C1384 C1386 1.378 . S
C1384 C1388 1.350 . S
C1385 C1388 1.463 . S
C1385 C1390 1.350 . S
C1385 N1393 1.427 . S
C1386 H1377 0.930 . S
C1386 C1384 1.378 . S
C1386 C1387 1.367 . S
C1387 C1386 1.367 . S
C1387 C1389 1.433 . S
C1388 C1384 1.350 . S
C1388 C1385 1.463 . S
C1388 N1392 1.427 . S
C1389 H1379 0.929 . S
C1389 C1387 1.433 . S
C1389 N1392 1.384 . S
C1390 H1381 0.929 . S
C1390 C1382 1.378 . S
C1390 C1385 1.350 . S
C1391 H1378 0.929 . S
C1391 C1383 1.433 . S
C1391 N1393 1.384 . S
N1392 C1388 1.427 . S
N1392 C1389 1.384 . S
N1393 C1385 1.427 . S
N1393 C1391 1.384 . S
H1394 C1400 0.930 . S
H1395 C1404 0.930 . S
H1396 C1409 0.929 . S
H1397 C1407 0.929 . S
H1398 C1402 0.929 . S
H1399 C1408 0.929 . S
C1400 H1394 0.930 . S
C1400 C1401 1.367 . S
C1400 C1408 1.378 . S
C1401 C1400 1.367 . S
C1401 C1409 1.433 . S
C1402 H1398 0.929 . S
C1402 C1404 1.378 . S
C1402 C1406 1.350 . S
C1403 C1406 1.463 . S
C1403 C1408 1.350 . S
C1403 N1411 1.427 . S
C1404 H1395 0.930 . S
C1404 C1402 1.378 . S
C1404 C1405 1.367 . S
C1405 C1404 1.367 . S
C1405 C1407 1.433 . S
C1406 C1402 1.350 . S
C1406 C1403 1.463 . S
C1406 N1410 1.427 . S
C1407 H1397 0.929 . S
C1407 C1405 1.433 . S
C1407 N1410 1.384 . S
C1408 H1399 0.929 . S
C1408 C1400 1.378 . S
C1408 C1403 1.350 . S
C1409 H1396 0.929 . S
C1409 C1401 1.433 . S
C1409 N1411 1.384 . S
N1410 C1406 1.427 . S
N1410 C1407 1.384 . S
N1411 C1403 1.427 . S
N1411 C1409 1.384 . S
H1412 C1418 0.930 . S
H1413 C1422 0.930 . S
H1414 C1427 0.929 . S
H1415 C1425 0.929 . S
H1416 C1420 0.929 . S
H1417 C1426 0.929 . S
C1418 H1412 0.930 . S
C1418 C1419 1.367 . S
C1418 C1426 1.378 . S
C1419 C1418 1.367 . S
C1419 C1427 1.433 . S
C1420 H1416 0.929 . S
C1420 C1422 1.378 . S
C1420 C1424 1.350 . S
C1421 C1424 1.463 . S
C1421 C1426 1.350 . S
C1421 N1429 1.427 . S
C1422 H1413 0.930 . S
C1422 C1420 1.378 . S
C1422 C1423 1.367 . S
C1423 C1422 1.367 . S
C1423 C1425 1.433 . S
C1424 C1420 1.350 . S
C1424 C1421 1.463 . S
C1424 N1428 1.427 . S
C1425 H1415 0.929 . S
C1425 C1423 1.433 . S
C1425 N1428 1.384 . S
C1426 H1417 0.929 . S
C1426 C1418 1.378 . S
C1426 C1421 1.350 . S
C1427 H1414 0.929 . S
C1427 C1419 1.433 . S
C1427 N1429 1.384 . S
N1428 C1424 1.427 . S
N1428 C1425 1.384 . S
N1429 C1421 1.427 . S
N1429 C1427 1.384 . S
H1430 C1436 0.930 . S
H1431 C1440 0.930 . S
H1432 C1445 0.929 . S
H1433 C1443 0.929 . S
H1434 C1438 0.929 . S
H1435 C1444 0.929 . S
C1436 H1430 0.930 . S
C1436 C1437 1.367 . S
C1436 C1444 1.378 . S
C1437 C1436 1.367 . S
C1437 C1445 1.433 . S
C1438 H1434 0.929 . S
C1438 C1440 1.378 . S
C1438 C1442 1.350 . S
C1439 C1442 1.463 . S
C1439 C1444 1.350 . S
C1439 N1447 1.427 . S
C1440 H1431 0.930 . S
C1440 C1438 1.378 . S
C1440 C1441 1.367 . S
C1441 C1440 1.367 . S
C1441 C1443 1.433 . S
C1442 C1438 1.350 . S
C1442 C1439 1.463 . S
C1442 N1446 1.427 . S
C1443 H1433 0.929 . S
C1443 C1441 1.433 . S
C1443 N1446 1.384 . S
C1444 H1435 0.929 . S
C1444 C1436 1.378 . S
C1444 C1439 1.350 . S
C1445 H1432 0.929 . S
C1445 C1437 1.433 . S
C1445 N1447 1.384 . S
N1446 C1442 1.427 . S
N1446 C1443 1.384 . S
N1447 C1439 1.427 . S
N1447 C1445 1.384 . S
H1448 C1454 0.930 . S
H1449 C1458 0.930 . S
H1450 C1463 0.929 . S
H1451 C1461 0.929 . S
H1452 C1456 0.929 . S
H1453 C1462 0.929 . S
C1454 H1448 0.930 . S
C1454 C1455 1.367 . S
C1454 C1462 1.378 . S
C1455 C1454 1.367 . S
C1455 C1463 1.433 . S
C1456 H1452 0.929 . S
C1456 C1458 1.378 . S
C1456 C1460 1.350 . S
C1457 C1460 1.463 . S
C1457 C1462 1.350 . S
C1457 N1465 1.427 . S
C1458 H1449 0.930 . S
C1458 C1456 1.378 . S
C1458 C1459 1.367 . S
C1459 C1458 1.367 . S
C1459 C1461 1.433 . S
C1460 C1456 1.350 . S
C1460 C1457 1.463 . S
C1460 N1464 1.427 . S
C1461 H1451 0.929 . S
C1461 C1459 1.433 . S
C1461 N1464 1.384 . S
C1462 H1453 0.929 . S
C1462 C1454 1.378 . S
C1462 C1457 1.350 . S
C1463 H1450 0.929 . S
C1463 C1455 1.433 . S
C1463 N1465 1.384 . S
N1464 C1460 1.427 . S
N1464 C1461 1.384 . S
N1465 C1457 1.427 . S
N1465 C1463 1.384 . S
H1466 C1472 0.930 . S
H1467 C1476 0.930 . S
H1468 C1481 0.929 . S
H1469 C1479 0.929 . S
H1470 C1474 0.929 . S
H1471 C1480 0.929 . S
C1472 H1466 0.930 . S
C1472 C1473 1.367 . S
C1472 C1480 1.378 . S
C1473 C1472 1.367 . S
C1473 C1481 1.433 . S
C1474 H1470 0.929 . S
C1474 C1476 1.378 . S
C1474 C1478 1.350 . S
C1475 C1478 1.463 . S
C1475 C1480 1.350 . S
C1475 N1483 1.427 . S
C1476 H1467 0.930 . S
C1476 C1474 1.378 . S
C1476 C1477 1.367 . S
C1477 C1476 1.367 . S
C1477 C1479 1.433 . S
C1478 C1474 1.350 . S
C1478 C1475 1.463 . S
C1478 N1482 1.427 . S
C1479 H1469 0.929 . S
C1479 C1477 1.433 . S
C1479 N1482 1.384 . S
C1480 H1471 0.929 . S
C1480 C1472 1.378 . S
C1480 C1475 1.350 . S
C1481 H1468 0.929 . S
C1481 C1473 1.433 . S
C1481 N1483 1.384 . S
N1482 C1478 1.427 . S
N1482 C1479 1.384 . S
N1483 C1475 1.427 . S
N1483 C1481 1.384 . S
H1484 C1490 0.930 . S
H1485 C1494 0.930 . S
H1486 C1499 0.929 . S
H1487 C1497 0.929 . S
H1488 C1492 0.929 . S
H1489 C1498 0.929 . S
C1490 H1484 0.930 . S
C1490 C1491 1.367 . S
C1490 C1498 1.378 . S
C1491 C1490 1.367 . S
C1491 C1499 1.433 . S
C1492 H1488 0.929 . S
C1492 C1494 1.378 . S
C1492 C1496 1.350 . S
C1493 C1496 1.463 . S
C1493 C1498 1.350 . S
C1493 N1501 1.427 . S
C1494 H1485 0.930 . S
C1494 C1492 1.378 . S
C1494 C1495 1.367 . S
C1495 C1494 1.367 . S
C1495 C1497 1.433 . S
C1496 C1492 1.350 . S
C1496 C1493 1.463 . S
C1496 N1500 1.427 . S
C1497 H1487 0.929 . S
C1497 C1495 1.433 . S
C1497 N1500 1.384 . S
C1498 H1489 0.929 . S
C1498 C1490 1.378 . S
C1498 C1493 1.350 . S
C1499 H1486 0.929 . S
C1499 C1491 1.433 . S
C1499 N1501 1.384 . S
N1500 C1496 1.427 . S
N1500 C1497 1.384 . S
N1501 C1493 1.427 . S
N1501 C1499 1.384 . S
H1502 C1508 0.930 . S
H1503 C1512 0.930 . S
H1504 C1517 0.929 . S
H1505 C1515 0.929 . S
H1506 C1510 0.929 . S
H1507 C1516 0.929 . S
C1508 H1502 0.930 . S
C1508 C1509 1.367 . S
C1508 C1516 1.378 . S
C1509 C1508 1.367 . S
C1509 C1517 1.433 . S
C1510 H1506 0.929 . S
C1510 C1512 1.378 . S
C1510 C1514 1.350 . S
C1511 C1514 1.463 . S
C1511 C1516 1.350 . S
C1511 N1519 1.427 . S
C1512 H1503 0.930 . S
C1512 C1510 1.378 . S
C1512 C1513 1.367 . S
C1513 C1512 1.367 . S
C1513 C1515 1.433 . S
C1514 C1510 1.350 . S
C1514 C1511 1.463 . S
C1514 N1518 1.427 . S
C1515 H1505 0.929 . S
C1515 C1513 1.433 . S
C1515 N1518 1.384 . S
C1516 H1507 0.929 . S
C1516 C1508 1.378 . S
C1516 C1511 1.350 . S
C1517 H1504 0.929 . S
C1517 C1509 1.433 . S
C1517 N1519 1.384 . S
N1518 C1514 1.427 . S
N1518 C1515 1.384 . S
N1519 C1511 1.427 . S
N1519 C1517 1.384 . S
C951 C52 1.417 . S
C955 C170 1.415 . S
C969 C229 1.419 . S
C973 C111 1.415 . S
C987 C288 1.418 . S
C991 C406 1.415 . S
C1005 C465 1.417 . S
C1009 C347 1.415 . S
C1023 C524 1.420 . S
C1027 C642 1.415 . S
C1041 C701 1.415 . S
C1045 C583 1.419 . S
C1059 C760 1.419 . S
C1063 C878 1.415 . S
C1077 C937 1.420 . S
C1081 C819 1.416 . S
C1095 C269 1.276 . S
C1099 C33 1.273 . S
C1113 C92 1.286 . S
C1117 C328 1.282 . S
C1131 C151 1.286 . S
C1135 C387 1.284 . S
C1149 C446 1.284 . S
C1153 C210 1.279 . S
C1167 C505 1.274 . S
C1171 C741 1.279 . S
C1185 C564 1.280 . S
C1189 C800 1.284 . S
C1203 C623 1.277 . S
C1207 C859 1.282 . S
C1221 C682 1.280 . S
C1225 C918 1.284 . S
C1239 C593 1.372 . S
C1243 C3 1.379 . S
C1257 C652 1.371 . S
C1261 C62 1.380 . S
C1275 C121 1.380 . S
C1279 C475 1.371 . S
C1293 C180 1.373 . S
C1297 C534 1.378 . S
C1311 C239 1.371 . S
C1315 C829 1.380 . S
C1329 C298 1.373 . S
C1333 C888 1.378 . S
C1347 C357 1.380 . S
C1351 C711 1.371 . S
C1365 C770 1.375 . S
C1369 C416 1.376 . S
C1383 C5 1.434 . S
C1387 C890 1.436 . S
C1401 C713 1.437 . S
C1405 C64 1.434 . S
C1419 C123 1.434 . S
C1423 C772 1.436 . S
C1437 C831 1.434 . S
C1441 C182 1.436 . S
C1455 C536 1.436 . S
C1459 C241 1.435 . S
C1473 C300 1.437 . S
C1477 C595 1.433 . S
C1491 C654 1.435 . S
C1495 C359 1.435 . S
C1509 C477 1.435 . S
C1513 C418 1.435 . S
