# Generated by pormake.
# Topology uoi, (4)-cn, num edge types: 1
# Building blocks:
#     Node 0, Type 0, BuildingBlock: CEKHIL_clean_sbu_0, # of connection points: 4
#     Node 1, Type 0, BuildingBlock: CEKHIL_clean_sbu_0, # of connection points: 4
#     Node 2, Type 0, BuildingBlock: CEKHIL_clean_sbu_0, # of connection points: 4
#     Node 3, Type 0, BuildingBlock: CEKHIL_clean_sbu_0, # of connection points: 4
#     Node 4, Type 0, BuildingBlock: CEKHIL_clean_sbu_0, # of connection points: 4
#     Node 5, Type 0, BuildingBlock: CEKHIL_clean_sbu_0, # of connection points: 4
#     Node 6, Type 0, BuildingBlock: CEKHIL_clean_sbu_0, # of connection points: 4
#     Node 7, Type 0, BuildingBlock: CEKHIL_clean_sbu_0, # of connection points: 4
#     Node 8, Type 0, BuildingBlock: CEKHIL_clean_sbu_0, # of connection points: 4
#     Node 9, Type 0, BuildingBlock: CEKHIL_clean_sbu_0, # of connection points: 4
#     Node 10, Type 0, BuildingBlock: CEKHIL_clean_sbu_0, # of connection points: 4
#     Node 11, Type 0, BuildingBlock: CEKHIL_clean_sbu_0, # of connection points: 4
#     Node 12, Type 0, BuildingBlock: CEKHIL_clean_sbu_0, # of connection points: 4
#     Node 13, Type 0, BuildingBlock: CEKHIL_clean_sbu_0, # of connection points: 4
#     Node 14, Type 0, BuildingBlock: CEKHIL_clean_sbu_0, # of connection points: 4
#     Node 15, Type 0, BuildingBlock: CEKHIL_clean_sbu_0, # of connection points: 4
#     Node 16, Type 0, BuildingBlock: CEKHIL_clean_sbu_0, # of connection points: 4
#     Node 17, Type 0, BuildingBlock: CEKHIL_clean_sbu_0, # of connection points: 4
#     Node 18, Type 0, BuildingBlock: CEKHIL_clean_sbu_0, # of connection points: 4
#     Node 19, Type 0, BuildingBlock: CEKHIL_clean_sbu_0, # of connection points: 4
#     Node 20, Type 0, BuildingBlock: CEKHIL_clean_sbu_0, # of connection points: 4
#     Node 21, Type 0, BuildingBlock: CEKHIL_clean_sbu_0, # of connection points: 4
#     Node 22, Type 0, BuildingBlock: CEKHIL_clean_sbu_0, # of connection points: 4
#     Node 23, Type 0, BuildingBlock: CEKHIL_clean_sbu_0, # of connection points: 4
#     Node 24, Type 0, BuildingBlock: CEKHIL_clean_sbu_0, # of connection points: 4
#     Node 25, Type 0, BuildingBlock: CEKHIL_clean_sbu_0, # of connection points: 4
#     Node 26, Type 0, BuildingBlock: CEKHIL_clean_sbu_0, # of connection points: 4
#     Node 27, Type 0, BuildingBlock: CEKHIL_clean_sbu_0, # of connection points: 4
#     Node 28, Type 0, BuildingBlock: CEKHIL_clean_sbu_0, # of connection points: 4
#     Node 29, Type 0, BuildingBlock: CEKHIL_clean_sbu_0, # of connection points: 4
#     Node 30, Type 0, BuildingBlock: CEKHIL_clean_sbu_0, # of connection points: 4
#     Node 31, Type 0, BuildingBlock: CEKHIL_clean_sbu_0, # of connection points: 4
#     Edge 32, Type (0, 0), BuildingBlock: ZUJKAS_clean_linker_0, # of connection points: 2
#     Edge 33, Type (0, 0), BuildingBlock: ZUJKAS_clean_linker_0, # of connection points: 2
#     Edge 34, Type (0, 0), BuildingBlock: ZUJKAS_clean_linker_0, # of connection points: 2
#     Edge 35, Type (0, 0), BuildingBlock: ZUJKAS_clean_linker_0, # of connection points: 2
#     Edge 36, Type (0, 0), BuildingBlock: ZUJKAS_clean_linker_0, # of connection points: 2
#     Edge 37, Type (0, 0), BuildingBlock: ZUJKAS_clean_linker_0, # of connection points: 2
#     Edge 38, Type (0, 0), BuildingBlock: ZUJKAS_clean_linker_0, # of connection points: 2
#     Edge 39, Type (0, 0), BuildingBlock: ZUJKAS_clean_linker_0, # of connection points: 2
#     Edge 40, Type (0, 0), BuildingBlock: ZUJKAS_clean_linker_0, # of connection points: 2
#     Edge 41, Type (0, 0), BuildingBlock: ZUJKAS_clean_linker_0, # of connection points: 2
#     Edge 42, Type (0, 0), BuildingBlock: ZUJKAS_clean_linker_0, # of connection points: 2
#     Edge 43, Type (0, 0), BuildingBlock: ZUJKAS_clean_linker_0, # of connection points: 2
#     Edge 44, Type (0, 0), BuildingBlock: ZUJKAS_clean_linker_0, # of connection points: 2
#     Edge 45, Type (0, 0), BuildingBlock: ZUJKAS_clean_linker_0, # of connection points: 2
#     Edge 46, Type (0, 0), BuildingBlock: ZUJKAS_clean_linker_0, # of connection points: 2
#     Edge 47, Type (0, 0), BuildingBlock: ZUJKAS_clean_linker_0, # of connection points: 2
#     Edge 48, Type (0, 0), BuildingBlock: ZUJKAS_clean_linker_0, # of connection points: 2
#     Edge 49, Type (0, 0), BuildingBlock: ZUJKAS_clean_linker_0, # of connection points: 2
#     Edge 50, Type (0, 0), BuildingBlock: ZUJKAS_clean_linker_0, # of connection points: 2
#     Edge 51, Type (0, 0), BuildingBlock: ZUJKAS_clean_linker_0, # of connection points: 2
#     Edge 52, Type (0, 0), BuildingBlock: ZUJKAS_clean_linker_0, # of connection points: 2
#     Edge 53, Type (0, 0), BuildingBlock: ZUJKAS_clean_linker_0, # of connection points: 2
#     Edge 54, Type (0, 0), BuildingBlock: ZUJKAS_clean_linker_0, # of connection points: 2
#     Edge 55, Type (0, 0), BuildingBlock: ZUJKAS_clean_linker_0, # of connection points: 2
#     Edge 56, Type (0, 0), BuildingBlock: ZUJKAS_clean_linker_0, # of connection points: 2
#     Edge 57, Type (0, 0), BuildingBlock: ZUJKAS_clean_linker_0, # of connection points: 2
#     Edge 58, Type (0, 0), BuildingBlock: ZUJKAS_clean_linker_0, # of connection points: 2
#     Edge 59, Type (0, 0), BuildingBlock: ZUJKAS_clean_linker_0, # of connection points: 2
#     Edge 60, Type (0, 0), BuildingBlock: ZUJKAS_clean_linker_0, # of connection points: 2
#     Edge 61, Type (0, 0), BuildingBlock: ZUJKAS_clean_linker_0, # of connection points: 2
#     Edge 62, Type (0, 0), BuildingBlock: ZUJKAS_clean_linker_0, # of connection points: 2
#     Edge 63, Type (0, 0), BuildingBlock: ZUJKAS_clean_linker_0, # of connection points: 2
#     Edge 64, Type (0, 0), BuildingBlock: ZUJKAS_clean_linker_0, # of connection points: 2
#     Edge 65, Type (0, 0), BuildingBlock: ZUJKAS_clean_linker_0, # of connection points: 2
#     Edge 66, Type (0, 0), BuildingBlock: ZUJKAS_clean_linker_0, # of connection points: 2
#     Edge 67, Type (0, 0), BuildingBlock: ZUJKAS_clean_linker_0, # of connection points: 2
#     Edge 68, Type (0, 0), BuildingBlock: ZUJKAS_clean_linker_0, # of connection points: 2
#     Edge 69, Type (0, 0), BuildingBlock: ZUJKAS_clean_linker_0, # of connection points: 2
#     Edge 70, Type (0, 0), BuildingBlock: ZUJKAS_clean_linker_0, # of connection points: 2
#     Edge 71, Type (0, 0), BuildingBlock: ZUJKAS_clean_linker_0, # of connection points: 2
#     Edge 72, Type (0, 0), BuildingBlock: ZUJKAS_clean_linker_0, # of connection points: 2
#     Edge 73, Type (0, 0), BuildingBlock: ZUJKAS_clean_linker_0, # of connection points: 2
#     Edge 74, Type (0, 0), BuildingBlock: ZUJKAS_clean_linker_0, # of connection points: 2
#     Edge 75, Type (0, 0), BuildingBlock: ZUJKAS_clean_linker_0, # of connection points: 2
#     Edge 76, Type (0, 0), BuildingBlock: ZUJKAS_clean_linker_0, # of connection points: 2
#     Edge 77, Type (0, 0), BuildingBlock: ZUJKAS_clean_linker_0, # of connection points: 2
#     Edge 78, Type (0, 0), BuildingBlock: ZUJKAS_clean_linker_0, # of connection points: 2
#     Edge 79, Type (0, 0), BuildingBlock: ZUJKAS_clean_linker_0, # of connection points: 2
#     Edge 80, Type (0, 0), BuildingBlock: ZUJKAS_clean_linker_0, # of connection points: 2
#     Edge 81, Type (0, 0), BuildingBlock: ZUJKAS_clean_linker_0, # of connection points: 2
#     Edge 82, Type (0, 0), BuildingBlock: ZUJKAS_clean_linker_0, # of connection points: 2
#     Edge 83, Type (0, 0), BuildingBlock: ZUJKAS_clean_linker_0, # of connection points: 2
#     Edge 84, Type (0, 0), BuildingBlock: ZUJKAS_clean_linker_0, # of connection points: 2
#     Edge 85, Type (0, 0), BuildingBlock: ZUJKAS_clean_linker_0, # of connection points: 2
#     Edge 86, Type (0, 0), BuildingBlock: ZUJKAS_clean_linker_0, # of connection points: 2
#     Edge 87, Type (0, 0), BuildingBlock: ZUJKAS_clean_linker_0, # of connection points: 2
#     Edge 88, Type (0, 0), BuildingBlock: ZUJKAS_clean_linker_0, # of connection points: 2
#     Edge 89, Type (0, 0), BuildingBlock: ZUJKAS_clean_linker_0, # of connection points: 2
#     Edge 90, Type (0, 0), BuildingBlock: ZUJKAS_clean_linker_0, # of connection points: 2
#     Edge 91, Type (0, 0), BuildingBlock: ZUJKAS_clean_linker_0, # of connection points: 2
#     Edge 92, Type (0, 0), BuildingBlock: ZUJKAS_clean_linker_0, # of connection points: 2
#     Edge 93, Type (0, 0), BuildingBlock: ZUJKAS_clean_linker_0, # of connection points: 2
#     Edge 94, Type (0, 0), BuildingBlock: ZUJKAS_clean_linker_0, # of connection points: 2
#     Edge 95, Type (0, 0), BuildingBlock: ZUJKAS_clean_linker_0, # of connection points: 2
# Relax obj value: 0.259
# Max RMSD: 0.472
# Mean RMSD: 0.294
data_MOF--net-uoi--node1-CEKHIL_clean_sbu_0--edge1-ZUJKAS_clean_linker_0
_symmetry_space_group_name_H-M    P1
_symmetry_Int_Tables_number       1
_symmetry_cell_setting            triclinic
loop_
_symmetry_equiv_pos_as_xyz
'x, y, z'
_cell_length_a     59.862894
_cell_length_b     95.545878
_cell_length_c     27.243728
_cell_angle_alpha  89.996989
_cell_angle_beta   89.980396
_cell_angle_gamma 89.999066
loop_
_atom_site_label
_atom_site_type_symbol
_atom_site_fract_x
_atom_site_fract_y
_atom_site_fract_z
_atom_type_partial_charge
Co0 Co 0.30247 0.19323 0.22658 0.0
O1 O 0.28328 0.17963 0.19746 0.0
O2 O 0.27785 0.20257 0.19321 0.0
C3 C 0.30526 0.1825 0.29941 0.0
O4 O 0.31851 0.21023 0.25521 0.0
Co5 Co 0.34989 0.18477 0.25025 0.0
O6 O 0.35173 0.20303 0.28403 0.0
C7 C 0.34014 0.19236 0.1496 0.0
C8 C 0.27123 0.18997 0.18212 0.0
C9 C 0.33693 0.21245 0.27837 0.0
O10 O 0.32016 0.19458 0.16443 0.0
O11 O 0.35534 0.18761 0.17797 0.0
O12 O 0.28855 0.19061 0.28915 0.0
O13 O 0.31878 0.17962 0.26339 0.0
Co14 Co 0.12022 0.90896 0.63084 0.0
O15 O 0.14025 0.90158 0.58201 0.0
O16 O 0.12157 0.88884 0.63625 0.0
C17 C 0.14225 0.92671 0.6561 0.0
O18 O 0.09877 0.91233 0.68704 0.0
Co19 Co 0.1007 0.93908 0.62623 0.0
O20 O 0.08773 0.93472 0.69162 0.0
C21 C 0.08318 0.917 0.56048 0.0
C22 C 0.13532 0.88928 0.59937 0.0
C23 C 0.08793 0.92224 0.70813 0.0
O24 O 0.09443 0.90754 0.58338 0.0
O25 O 0.08515 0.93011 0.56923 0.0
O26 O 0.14527 0.91419 0.67368 0.0
O27 O 0.12747 0.92783 0.62205 0.0
Co28 Co 0.20083 0.80842 0.73723 0.0
O29 O 0.22209 0.82109 0.70982 0.0
O30 O 0.2253 0.79796 0.7079 0.0
C31 C 0.19699 0.81992 0.8085 0.0
O32 O 0.18274 0.79213 0.76464 0.0
Co33 Co 0.15353 0.81821 0.7552 0.0
O34 O 0.1498 0.80036 0.79124 0.0
C35 C 0.16569 0.81094 0.65532 0.0
C36 C 0.23345 0.81018 0.69664 0.0
C37 C 0.164 0.79051 0.78707 0.0
O38 O 0.18475 0.80745 0.67283 0.0
O39 O 0.15039 0.81641 0.68184 0.0
O40 O 0.21312 0.81107 0.80158 0.0
O41 O 0.18467 0.82275 0.77051 0.0
Co42 Co 0.39075 0.08742 0.12206 0.0
O43 O 0.36902 0.09172 0.07232 0.0
O44 O 0.38302 0.10704 0.12523 0.0
C45 C 0.37376 0.06771 0.14863 0.0
O46 O 0.4129 0.08708 0.1787 0.0
Co47 Co 0.41831 0.05979 0.12092 0.0
O48 O 0.42888 0.06593 0.18648 0.0
C49 C 0.42777 0.08242 0.04943 0.0
C50 C 0.36964 0.10446 0.08878 0.0
C51 C 0.42576 0.07843 0.20131 0.0
O52 O 0.41561 0.09115 0.07364 0.0
O53 O 0.42897 0.06936 0.05975 0.0
O54 O 0.36733 0.07982 0.16521 0.0
O55 O 0.38901 0.06803 0.11539 0.0
Co56 Co 0.30242 0.81093 0.27204 0.0
O57 O 0.2835 0.82368 0.30648 0.0
O58 O 0.27848 0.8007 0.30393 0.0
C59 C 0.30424 0.82322 0.20226 0.0
O60 O 0.31798 0.79457 0.23844 0.0
Co61 Co 0.34961 0.81942 0.24515 0.0
O62 O 0.34974 0.80227 0.20422 0.0
C63 C 0.34078 0.81174 0.34658 0.0
C64 C 0.27197 0.81286 0.32008 0.0
C65 C 0.33516 0.79276 0.21072 0.0
O66 O 0.32095 0.80872 0.3326 0.0
O67 O 0.35544 0.81686 0.31753 0.0
O68 O 0.28763 0.81489 0.21117 0.0
O69 O 0.31836 0.82517 0.23784 0.0
Co70 Co 0.38322 0.9122 0.37221 0.0
O71 O 0.36196 0.90612 0.42028 0.0
O72 O 0.37775 0.8924 0.36451 0.0
C73 C 0.36487 0.93182 0.34958 0.0
O74 O 0.40532 0.91462 0.31643 0.0
Co75 Co 0.40834 0.9406 0.3834 0.0
O76 O 0.42039 0.93616 0.31721 0.0
C77 C 0.41981 0.91661 0.44665 0.0
C78 C 0.36428 0.89368 0.4017 0.0
C79 C 0.41799 0.9241 0.29783 0.0
O80 O 0.40842 0.90828 0.4193 0.0
O81 O 0.41974 0.92993 0.44166 0.0
O82 O 0.3593 0.91982 0.33054 0.0
O83 O 0.37972 0.9313 0.38365 0.0
Co84 Co 0.18989 0.19579 0.77284 0.0
O85 O 0.20169 0.18049 0.80945 0.0
O86 O 0.2137 0.20239 0.81564 0.0
C87 C 0.19016 0.18517 0.69971 0.0
O88 O 0.18142 0.21414 0.73869 0.0
Co89 Co 0.14336 0.19221 0.72985 0.0
O90 O 0.15006 0.20998 0.69578 0.0
C91 C 0.14682 0.1984 0.83384 0.0
C92 C 0.21494 0.18941 0.83016 0.0
C93 C 0.1662 0.21794 0.70791 0.0
O94 O 0.16792 0.19928 0.82689 0.0
O95 O 0.13318 0.1951 0.79967 0.0
O96 O 0.20792 0.19118 0.71686 0.0
O97 O 0.17333 0.18409 0.72964 0.0
Co98 Co 0.11663 0.08348 0.86463 0.0
O99 O 0.1351 0.08851 0.91965 0.0
O100 O 0.12471 0.10302 0.86045 0.0
C101 C 0.13465 0.06331 0.8465 0.0
O102 O 0.09827 0.08238 0.80195 0.0
Co103 Co 0.08867 0.056 0.86205 0.0
O104 O 0.08308 0.06107 0.79262 0.0
C105 C 0.07225 0.08071 0.91774 0.0
C106 C 0.13562 0.10103 0.90111 0.0
C107 C 0.08698 0.0734 0.77703 0.0
O108 O 0.08884 0.08824 0.90322 0.0
O109 O 0.07021 0.06767 0.90773 0.0
O110 O 0.14235 0.07519 0.83055 0.0
O111 O 0.11756 0.06411 0.8751 0.0
Co112 Co 0.69656 0.81187 0.76921 0.0
O113 O 0.71706 0.82522 0.79556 0.0
O114 O 0.72143 0.80222 0.79998 0.0
C115 C 0.69256 0.82251 0.69652 0.0
O116 O 0.6796 0.79487 0.74345 0.0
Co117 Co 0.64888 0.81993 0.74853 0.0
O118 O 0.64744 0.80229 0.71058 0.0
C119 C 0.66095 0.81447 0.84976 0.0
C120 C 0.72894 0.81468 0.81018 0.0
C121 C 0.6619 0.79275 0.71764 0.0
O122 O 0.68041 0.81144 0.83349 0.0
O123 O 0.64508 0.81856 0.82189 0.0
O124 O 0.70903 0.81404 0.70501 0.0
O125 O 0.67974 0.82549 0.73366 0.0
Co126 Co 0.8847 0.08434 0.35697 0.0
O127 O 0.86688 0.08764 0.4147 0.0
O128 O 0.87616 0.10376 0.35985 0.0
C129 C 0.86697 0.0645 0.33366 0.0
O130 O 0.90198 0.08531 0.29279 0.0
Co131 Co 0.91356 0.05762 0.34152 0.0
O132 O 0.91711 0.06454 0.27349 0.0
C133 C 0.92958 0.0804 0.40686 0.0
C134 C 0.86575 0.10059 0.40019 0.0
C135 C 0.91268 0.07724 0.26322 0.0
O136 O 0.91292 0.08828 0.39528 0.0
O137 O 0.93177 0.06778 0.39176 0.0
O138 O 0.85852 0.07664 0.32267 0.0
O139 O 0.88467 0.0648 0.3605 0.0
Co140 Co 0.80489 0.19783 0.26091 0.0
O141 O 0.79135 0.18653 0.31085 0.0
O142 O 0.78625 0.20941 0.30277 0.0
C143 C 0.79384 0.18313 0.20036 0.0
O144 O 0.81648 0.212 0.21351 0.0
Co145 Co 0.84262 0.18629 0.24915 0.0
O146 O 0.85022 0.2026 0.20498 0.0
C147 C 0.84053 0.19478 0.33678 0.0
C148 C 0.78192 0.1979 0.32642 0.0
C149 C 0.83614 0.21222 0.19505 0.0
O150 O 0.83001 0.2029 0.30778 0.0
O151 O 0.8473 0.18323 0.32051 0.0
O152 O 0.78157 0.19297 0.21732 0.0
O153 O 0.81429 0.18188 0.21607 0.0
Co154 Co 0.61869 0.91759 0.86494 0.0
O155 O 0.63745 0.91151 0.91856 0.0
O156 O 0.62456 0.89788 0.85916 0.0
C157 C 0.63801 0.9373 0.8468 0.0
O158 O 0.6 0.91928 0.8033 0.0
Co159 Co 0.5927 0.9457 0.86098 0.0
O160 O 0.58579 0.94071 0.79194 0.0
C161 C 0.57567 0.92205 0.92137 0.0
C162 C 0.63613 0.89907 0.89919 0.0
C163 C 0.5891 0.92821 0.77753 0.0
O164 O 0.59104 0.91378 0.90536 0.0
O165 O 0.57464 0.93507 0.91037 0.0
O166 O 0.64472 0.92527 0.82987 0.0
O167 O 0.62101 0.93687 0.87568 0.0
Co168 Co 0.6845 0.18529 0.73681 0.0
O169 O 0.69793 0.16936 0.70617 0.0
O170 O 0.71227 0.19074 0.70557 0.0
C171 C 0.67681 0.17515 0.80853 0.0
O172 O 0.67555 0.20409 0.76668 0.0
Co173 Co 0.63464 0.18449 0.75986 0.0
O174 O 0.64097 0.20175 0.7976 0.0
C175 C 0.64802 0.19008 0.65904 0.0
C176 C 0.71386 0.17767 0.69243 0.0
C177 C 0.65889 0.20875 0.79183 0.0
O178 O 0.66822 0.18967 0.6745 0.0
O179 O 0.63131 0.18763 0.68701 0.0
O180 O 0.69655 0.18006 0.7993 0.0
O181 O 0.66283 0.17477 0.77205 0.0
Co182 Co 0.62993 0.09327 0.62071 0.0
O183 O 0.65324 0.10018 0.57844 0.0
O184 O 0.63381 0.11314 0.63064 0.0
C185 C 0.64799 0.07383 0.6469 0.0
O186 O 0.60546 0.0902 0.67109 0.0
Co187 Co 0.60681 0.06449 0.6033 0.0
O188 O 0.59131 0.06847 0.6663 0.0
C189 C 0.59655 0.08848 0.53889 0.0
C190 C 0.64924 0.11245 0.59716 0.0
C191 C 0.59237 0.08049 0.68653 0.0
O192 O 0.6068 0.09692 0.56808 0.0
O193 O 0.59689 0.07515 0.54385 0.0
O194 O 0.65207 0.08586 0.66747 0.0
O195 O 0.6349 0.07426 0.60949 0.0
Co196 Co 0.79948 0.81025 0.22525 0.0
O197 O 0.77976 0.82356 0.19594 0.0
O198 O 0.77556 0.80053 0.19106 0.0
C199 C 0.80123 0.82101 0.29821 0.0
O200 O 0.81585 0.79337 0.25403 0.0
Co201 Co 0.84641 0.81886 0.25304 0.0
O202 O 0.84667 0.8013 0.29155 0.0
C203 C 0.83777 0.81242 0.15048 0.0
C204 C 0.76827 0.81299 0.18023 0.0
C205 C 0.83277 0.79155 0.28258 0.0
O206 O 0.81771 0.80959 0.16354 0.0
O207 O 0.8525 0.81686 0.18066 0.0
O208 O 0.78502 0.81255 0.28753 0.0
O209 O 0.81505 0.82396 0.26286 0.0
Co210 Co 0.88416 0.91085 0.13273 0.0
O211 O 0.86669 0.90475 0.07746 0.0
O212 O 0.87923 0.89096 0.13684 0.0
C213 C 0.86351 0.93001 0.15064 0.0
O214 O 0.90196 0.91288 0.19576 0.0
Co215 Co 0.90845 0.93964 0.13708 0.0
O216 O 0.91408 0.93487 0.20674 0.0
C217 C 0.9276 0.91633 0.07863 0.0
C218 C 0.86832 0.89223 0.09588 0.0
C219 C 0.91167 0.92232 0.22167 0.0
O220 O 0.91252 0.90777 0.09403 0.0
O221 O 0.92786 0.92939 0.08926 0.0
O222 O 0.85716 0.91775 0.16616 0.0
O223 O 0.88082 0.93005 0.12261 0.0
Co224 Co 0.80232 0.69458 0.7326 0.0
O225 O 0.78109 0.68186 0.70491 0.0
O226 O 0.77821 0.70498 0.70168 0.0
C227 C 0.80532 0.6834 0.8046 0.0
O228 O 0.82024 0.71098 0.7603 0.0
Co229 Co 0.8494 0.685 0.75389 0.0
O230 O 0.85213 0.70255 0.79174 0.0
C231 C 0.83864 0.69212 0.65321 0.0
C232 C 0.76995 0.69276 0.69087 0.0
C233 C 0.83827 0.71248 0.78557 0.0
O234 O 0.81901 0.6951 0.66879 0.0
O235 O 0.85407 0.6875 0.68124 0.0
O236 O 0.78936 0.69227 0.7964 0.0
O237 O 0.81808 0.68035 0.76747 0.0
Co238 Co 0.61346 0.41405 0.13616 0.0
O239 O 0.63255 0.40884 0.08193 0.0
O240 O 0.61985 0.39436 0.13901 0.0
C241 C 0.63221 0.4337 0.15796 0.0
O242 O 0.59442 0.41483 0.19776 0.0
Co243 Co 0.58662 0.44182 0.14293 0.0
O244 O 0.57989 0.4361 0.21126 0.0
C245 C 0.57088 0.41882 0.0783 0.0
C246 C 0.63157 0.39618 0.09944 0.0
C247 C 0.58329 0.42348 0.22431 0.0
O248 O 0.58609 0.41047 0.09456 0.0
O249 O 0.56954 0.43172 0.09064 0.0
O250 O 0.63928 0.42151 0.17256 0.0
O251 O 0.61534 0.43348 0.12866 0.0
Co252 Co 0.69969 0.30891 0.24041 0.0
O253 O 0.72041 0.3225 0.21669 0.0
O254 O 0.72609 0.29957 0.21434 0.0
C255 C 0.69286 0.32011 0.31126 0.0
O256 O 0.68238 0.29183 0.26509 0.0
Co257 Co 0.65125 0.31682 0.25206 0.0
O258 O 0.64854 0.29916 0.28932 0.0
C259 C 0.66686 0.31044 0.15388 0.0
C260 C 0.73329 0.31216 0.20494 0.0
C261 C 0.66348 0.28972 0.28652 0.0
O262 O 0.68579 0.30773 0.17358 0.0
O263 O 0.6501 0.31477 0.17861 0.0
O264 O 0.70976 0.31174 0.3064 0.0
O265 O 0.68135 0.32259 0.27173 0.0
Co266 Co 0.88588 0.58917 0.62888 0.0
O267 O 0.86421 0.59485 0.58046 0.0
O268 O 0.8813 0.60912 0.63237 0.0
C269 C 0.86708 0.5702 0.6569 0.0
O270 O 0.90842 0.5877 0.68433 0.0
Co271 Co 0.9103 0.56041 0.62624 0.0
O272 O 0.92247 0.566 0.69109 0.0
C273 C 0.92173 0.58253 0.55452 0.0
C274 C 0.86729 0.60754 0.59641 0.0
C275 C 0.92068 0.57858 0.70618 0.0
O276 O 0.91071 0.59171 0.57929 0.0
O277 O 0.92158 0.56944 0.56467 0.0
O278 O 0.86195 0.58261 0.67306 0.0
O279 O 0.88186 0.5699 0.62262 0.0
Co280 Co 0.80527 0.3145 0.76892 0.0
O281 O 0.79059 0.32777 0.81029 0.0
O282 O 0.78269 0.30511 0.80804 0.0
C283 C 0.80342 0.32717 0.70009 0.0
O284 O 0.8166 0.29777 0.72939 0.0
Co285 Co 0.85089 0.32164 0.72549 0.0
O286 O 0.84517 0.30525 0.6829 0.0
C287 C 0.84887 0.31257 0.82757 0.0
C288 C 0.77877 0.31742 0.82669 0.0
C289 C 0.83092 0.29593 0.69467 0.0
O290 O 0.82777 0.31106 0.82182 0.0
O291 O 0.8618 0.31703 0.79363 0.0
O292 O 0.78667 0.31958 0.71427 0.0
O293 O 0.82009 0.32822 0.73038 0.0
Co294 Co 0.88593 0.41582 0.87024 0.0
O295 O 0.86895 0.41185 0.92885 0.0
O296 O 0.87715 0.39644 0.87075 0.0
C297 C 0.86841 0.43612 0.85101 0.0
O298 O 0.90225 0.41542 0.80486 0.0
Co299 Co 0.91522 0.44239 0.85581 0.0
O300 O 0.91811 0.43605 0.78691 0.0
C301 C 0.93148 0.4189 0.91769 0.0
C302 C 0.86763 0.39907 0.91256 0.0
C303 C 0.91302 0.42352 0.77558 0.0
O304 O 0.91455 0.41126 0.9061 0.0
O305 O 0.93381 0.43163 0.90385 0.0
O306 O 0.85947 0.4242 0.83889 0.0
O307 O 0.88647 0.43532 0.87649 0.0
Co308 Co 0.69748 0.6943 0.27125 0.0
O309 O 0.71561 0.68003 0.2998 0.0
O310 O 0.72276 0.70272 0.30503 0.0
C311 C 0.69408 0.68386 0.19799 0.0
O312 O 0.68299 0.71201 0.24362 0.0
Co313 Co 0.64954 0.68799 0.24463 0.0
O314 O 0.65107 0.70565 0.20695 0.0
C315 C 0.6596 0.6933 0.34718 0.0
C316 C 0.72848 0.68992 0.31577 0.0
C317 C 0.66611 0.71471 0.21584 0.0
O318 O 0.67977 0.69549 0.3335 0.0
O319 O 0.64414 0.68975 0.31735 0.0
O320 O 0.71128 0.69153 0.20851 0.0
O321 O 0.68015 0.68145 0.23361 0.0
Co322 Co 0.62003 0.58873 0.37382 0.0
O323 O 0.64062 0.59439 0.42444 0.0
O324 O 0.62599 0.60845 0.36825 0.0
C325 C 0.63809 0.56896 0.35073 0.0
O326 O 0.59915 0.58722 0.31556 0.0
Co327 Co 0.59331 0.56082 0.37694 0.0
O328 O 0.58382 0.56587 0.30937 0.0
C329 C 0.58125 0.58416 0.44298 0.0
C330 C 0.6388 0.60695 0.40634 0.0
C331 C 0.58702 0.5782 0.29302 0.0
O332 O 0.59398 0.59259 0.41898 0.0
O333 O 0.58054 0.57096 0.43494 0.0
O334 O 0.64467 0.58106 0.3341 0.0
O335 O 0.62241 0.56943 0.38305 0.0
Co336 Co 0.20081 0.30748 0.26159 0.0
O337 O 0.22518 0.31716 0.29132 0.0
O338 O 0.22047 0.29411 0.29355 0.0
C339 C 0.20189 0.31918 0.19044 0.0
O340 O 0.17827 0.29383 0.23236 0.0
Co341 Co 0.1578 0.32293 0.24083 0.0
O342 O 0.14963 0.30619 0.20185 0.0
C343 C 0.16715 0.31562 0.34156 0.0
C344 C 0.23194 0.30506 0.30674 0.0
C345 C 0.1602 0.29472 0.20694 0.0
O346 O 0.18403 0.30899 0.32472 0.0
O347 O 0.15395 0.3227 0.31441 0.0
O348 O 0.21475 0.30845 0.19823 0.0
O349 O 0.19007 0.32347 0.22755 0.0
Co350 Co 0.38358 0.58791 0.8746 0.0
O351 O 0.36337 0.59156 0.9279 0.0
O352 O 0.37514 0.60741 0.87439 0.0
C353 C 0.36723 0.56791 0.8485 0.0
O354 O 0.40388 0.58819 0.81475 0.0
Co355 Co 0.41298 0.56097 0.87249 0.0
O356 O 0.42095 0.56739 0.80547 0.0
C357 C 0.42275 0.58369 0.94236 0.0
C358 C 0.36329 0.60448 0.91306 0.0
C359 C 0.41657 0.57975 0.7907 0.0
O360 O 0.40974 0.59207 0.91892 0.0
O361 O 0.42431 0.57061 0.93292 0.0
O362 O 0.35917 0.57996 0.8349 0.0
O363 O 0.38325 0.56848 0.87991 0.0
Co364 Co 0.29581 0.69798 0.77001 0.0
O365 O 0.27307 0.68661 0.79895 0.0
O366 O 0.27427 0.70978 0.80371 0.0
C367 C 0.29579 0.68691 0.69754 0.0
O368 O 0.31589 0.71328 0.74188 0.0
Co369 Co 0.34078 0.68558 0.74417 0.0
O370 O 0.34602 0.70323 0.70803 0.0
C371 C 0.33238 0.69223 0.84633 0.0
C372 C 0.26429 0.69812 0.81502 0.0
C373 C 0.3338 0.7139 0.7158 0.0
O374 O 0.31344 0.69697 0.83226 0.0
O375 O 0.34648 0.68672 0.81692 0.0
O376 O 0.28156 0.6968 0.70714 0.0
O377 O 0.30863 0.68302 0.7335 0.0
Co378 Co 0.11776 0.4134 0.3766 0.0
O379 O 0.13698 0.4073 0.42911 0.0
O380 O 0.12362 0.39358 0.37058 0.0
C381 C 0.13731 0.43298 0.35754 0.0
O382 O 0.09828 0.41557 0.31598 0.0
Co383 Co 0.0928 0.44207 0.37777 0.0
O384 O 0.08472 0.43738 0.30914 0.0
C385 C 0.07499 0.4179 0.43443 0.0
C386 C 0.1358 0.39488 0.4098 0.0
C387 C 0.08723 0.425 0.29268 0.0
O388 O 0.09024 0.40964 0.41776 0.0
O389 O 0.07449 0.43106 0.42547 0.0
O390 O 0.14355 0.42091 0.3402 0.0
O391 O 0.12085 0.43262 0.38786 0.0
Co392 Co 0.18958 0.69407 0.23798 0.0
O393 O 0.20864 0.67951 0.21452 0.0
O394 O 0.21598 0.70218 0.20757 0.0
C395 C 0.1835 0.68426 0.31153 0.0
O396 O 0.17436 0.71201 0.26111 0.0
Co397 Co 0.14081 0.688 0.25693 0.0
O398 O 0.1401 0.70663 0.28863 0.0
C399 C 0.15458 0.69236 0.15585 0.0
C400 C 0.22204 0.68927 0.19981 0.0
C401 C 0.15597 0.71533 0.2827 0.0
O402 O 0.17413 0.69484 0.17282 0.0
O403 O 0.13829 0.68869 0.18333 0.0
O404 O 0.20102 0.69186 0.30314 0.0
O405 O 0.17087 0.68155 0.2739 0.0
Co406 Co 0.12523 0.58892 0.12641 0.0
O407 O 0.14855 0.59548 0.08343 0.0
O408 O 0.1301 0.60868 0.13661 0.0
C409 C 0.14258 0.56914 0.15174 0.0
O410 O 0.10085 0.58622 0.17733 0.0
Co411 Co 0.10075 0.56057 0.10907 0.0
O412 O 0.08542 0.56485 0.17202 0.0
C413 C 0.09161 0.58478 0.0449 0.0
C414 C 0.14519 0.60779 0.10244 0.0
C415 C 0.08718 0.57679 0.19252 0.0
O416 O 0.10207 0.59303 0.07439 0.0
O417 O 0.09147 0.57145 0.04959 0.0
O418 O 0.14732 0.58106 0.17241 0.0
O419 O 0.12928 0.56985 0.11474 0.0
Co420 Co 0.30812 0.30919 0.72984 0.0
O421 O 0.28768 0.32244 0.70263 0.0
O422 O 0.28276 0.29944 0.70119 0.0
C423 C 0.31313 0.32062 0.80079 0.0
O424 O 0.32515 0.29242 0.75729 0.0
Co425 Co 0.35621 0.31762 0.74686 0.0
O426 O 0.35871 0.29978 0.78331 0.0
C427 C 0.3431 0.31045 0.64742 0.0
C428 C 0.27547 0.31187 0.68988 0.0
C429 C 0.34383 0.29033 0.77955 0.0
O430 O 0.32379 0.30768 0.66513 0.0
O431 O 0.35901 0.31531 0.67366 0.0
O432 O 0.29629 0.31228 0.79434 0.0
O433 O 0.32549 0.32307 0.76251 0.0
Co434 Co 0.37711 0.41145 0.62848 0.0
O435 O 0.35363 0.40626 0.58392 0.0
O436 O 0.37017 0.39186 0.63641 0.0
C437 C 0.36138 0.43163 0.65468 0.0
O438 O 0.40109 0.4129 0.68101 0.0
Co439 Co 0.40456 0.43885 0.61386 0.0
O440 O 0.41795 0.4339 0.67823 0.0
C441 C 0.41232 0.4146 0.54942 0.0
C442 C 0.35537 0.39374 0.60214 0.0
C443 C 0.41509 0.42192 0.69784 0.0
O444 O 0.40054 0.40672 0.5777 0.0
O445 O 0.41377 0.42788 0.55453 0.0
O446 O 0.35514 0.41975 0.67363 0.0
O447 O 0.37512 0.43072 0.61845 0.0
H448 H 0.19344 0.15715 0.68476 0.0
H449 H 0.21202 0.14643 0.61353 0.0
H450 H 0.21185 0.1864 0.53998 0.0
H451 H 0.19346 0.19702 0.61082 0.0
H452 H 0.20666 0.16241 0.47589 0.0
H453 H 0.27887 0.15834 0.60449 0.0
H454 H 0.25323 0.14957 0.62006 0.0
H455 H 0.25429 0.16833 0.61995 0.0
C456 C 0.19629 0.1634 0.65219 0.0
C457 C 0.1918 0.17783 0.65265 0.0
C458 C 0.20718 0.15734 0.61189 0.0
C459 C 0.21365 0.16569 0.57189 0.0
C460 C 0.207 0.17977 0.57044 0.0
H461 H 0.30831 0.19247 0.39115 0.0
H462 H 0.2888 0.18245 0.46146 0.0
C463 C 0.19632 0.18582 0.6107 0.0
C464 C 0.23016 0.16075 0.53517 0.0
H465 H 0.28662 0.15752 0.52054 0.0
C466 C 0.22407 0.16085 0.4855 0.0
C467 C 0.25287 0.15881 0.54806 0.0
C468 C 0.2604 0.15879 0.60095 0.0
C469 C 0.24027 0.16022 0.44827 0.0
C470 C 0.26316 0.15935 0.46123 0.0
C471 C 0.26908 0.15809 0.51082 0.0
C472 C 0.28083 0.16292 0.42515 0.0
C473 C 0.23291 0.16182 0.39556 0.0
C474 C 0.28442 0.15481 0.38286 0.0
C475 C 0.29595 0.16051 0.34275 0.0
C476 C 0.30393 0.17432 0.3448 0.0
C477 C 0.30265 0.18171 0.38914 0.0
C478 C 0.29132 0.17601 0.42917 0.0
H479 H 0.21464 0.16363 0.39225 0.0
H480 H 0.24179 0.17072 0.37802 0.0
H481 H 0.23713 0.15218 0.37482 0.0
H482 H 0.27665 0.14463 0.37927 0.0
H483 H 0.29632 0.15475 0.30849 0.0
H484 H 0.14412 0.9336 0.75335 0.0
H485 H 0.1502 0.95723 0.78659 0.0
H486 H 0.16717 0.97206 0.6417 0.0
H487 H 0.16 0.94872 0.60831 0.0
H488 H 0.18305 0.97726 0.78978 0.0
H489 H 0.11299 0.9953 0.67248 0.0
H490 H 0.11984 0.97706 0.67964 0.0
H491 H 0.13553 0.98787 0.63786 0.0
C492 C 0.14977 0.94185 0.72903 0.0
C493 C 0.15158 0.93945 0.67838 0.0
C494 C 0.15313 0.95534 0.74791 0.0
C495 C 0.15852 0.9665 0.71635 0.0
C496 C 0.16237 0.96372 0.66649 0.0
H497 H 0.15958 0.05739 0.76436 0.0
H498 H 0.16912 0.03402 0.7326 0.0
C499 C 0.15852 0.95037 0.64753 0.0
C500 C 0.15815 0.98118 0.73442 0.0
H501 H 0.13231 0.0127 0.71695 0.0
C502 C 0.17202 0.98501 0.77376 0.0
C503 C 0.14355 0.99129 0.71381 0.0
C504 C 0.12697 0.98766 0.67399 0.0
C505 C 0.17173 0.9987 0.79283 0.0
C506 C 0.15727 0.00875 0.7719 0.0
C507 C 0.14365 0.00499 0.73227 0.0
C508 C 0.15425 0.02284 0.79347 0.0
C509 C 0.1867 0.00234 0.83543 0.0
C510 C 0.14281 0.02422 0.83806 0.0
C511 C 0.1371 0.03745 0.85575 0.0
C512 C 0.14286 0.04957 0.82937 0.0
C513 C 0.15506 0.04822 0.78555 0.0
C514 C 0.1605 0.03491 0.76743 0.0
H515 H 0.20002 0.99439 0.84093 0.0
H516 H 0.19458 0.01274 0.82971 0.0
H517 H 0.17654 0.00291 0.86945 0.0
H518 H 0.13754 0.01503 0.85827 0.0
H519 H 0.12773 0.03816 0.88968 0.0
H520 H 0.30876 0.81515 0.10843 0.0
H521 H 0.29151 0.82677 0.03843 0.0
H522 H 0.2763 0.86253 0.1292 0.0
H523 H 0.29394 0.85083 0.19949 0.0
H524 H 0.23908 0.84975 0.09307 0.0
H525 H 0.29737 0.8584 0.93989 0.0
H526 H 0.30223 0.84149 0.96633 0.0
H527 H 0.30673 0.85699 0.00281 0.0
C528 C 0.30298 0.82583 0.11258 0.0
C529 C 0.30296 0.83222 0.15883 0.0
C530 C 0.29307 0.8325 0.07257 0.0
C531 C 0.2827 0.84559 0.07838 0.0
C532 C 0.28442 0.85252 0.12373 0.0
H533 H 0.2033 0.84808 0.81149 0.0
H534 H 0.2198 0.86076 0.88111 0.0
C535 C 0.29466 0.84589 0.16371 0.0
C536 C 0.26624 0.85015 0.04097 0.0
H537 H 0.25959 0.85026 0.91681 0.0
C538 C 0.24358 0.85041 0.05457 0.0
C539 C 0.27197 0.85131 0.99083 0.0
C540 C 0.29595 0.85219 0.97424 0.0
C541 C 0.22662 0.84993 0.01906 0.0
C542 C 0.23251 0.84907 0.96894 0.0
C543 C 0.25501 0.85069 0.95531 0.0
C544 C 0.21683 0.84341 0.93178 0.0
C545 C 0.20262 0.84932 0.03563 0.0
C546 C 0.20885 0.82969 0.93778 0.0
C547 C 0.19967 0.82247 0.89817 0.0
C548 C 0.19802 0.82889 0.8521 0.0
C549 C 0.20392 0.84305 0.84711 0.0
C550 C 0.21351 0.85024 0.88669 0.0
H551 H 0.20023 0.85535 0.0701 0.0
H552 H 0.19115 0.85348 0.00711 0.0
H553 H 0.19803 0.83828 0.04328 0.0
H554 H 0.21168 0.82408 0.97176 0.0
H555 H 0.19567 0.81147 0.90245 0.0
H556 H 0.37668 0.04268 0.10342 0.0
H557 H 0.36747 0.01972 0.13631 0.0
H558 H 0.34416 0.03885 0.27033 0.0
H559 H 0.35294 0.06213 0.23673 0.0
H560 H 0.38797 0.00933 0.21701 0.0
H561 H 0.29592 0.0093 0.2434 0.0
H562 H 0.31002 0.02194 0.20501 0.0
H563 H 0.31034 0.02386 0.2706 0.0
C564 C 0.36926 0.04205 0.13964 0.0
C565 C 0.36567 0.05418 0.16773 0.0
C566 C 0.36395 0.02891 0.15831 0.0
C567 C 0.35503 0.02755 0.20563 0.0
C568 C 0.35065 0.03967 0.23333 0.0
H569 H 0.36797 0.95688 0.3949 0.0
H570 H 0.36186 0.97999 0.35933 0.0
C571 C 0.35577 0.05294 0.2143 0.0
C572 C 0.35286 0.01338 0.22721 0.0
H573 H 0.31603 0.98994 0.2768 0.0
C574 C 0.37218 0.00508 0.22971 0.0
C575 C 0.33225 0.00784 0.2437 0.0
C576 C 0.31088 0.01613 0.24025 0.0
C577 C 0.37154 0.99147 0.24861 0.0
C578 C 0.35108 0.98603 0.26588 0.0
C579 C 0.33165 0.9942 0.26325 0.0
C580 C 0.35034 0.97213 0.28943 0.0
C581 C 0.3928 0.98299 0.25063 0.0
C582 C 0.34524 0.96009 0.26211 0.0
C583 C 0.34871 0.94677 0.28241 0.0
C584 C 0.3575 0.94545 0.33001 0.0
C585 C 0.36134 0.95758 0.35798 0.0
C586 C 0.35775 0.97079 0.33789 0.0
H587 H 0.40674 0.98812 0.23056 0.0
H588 H 0.3979 0.98158 0.28949 0.0
H589 H 0.39 0.97243 0.23475 0.0
H590 H 0.33968 0.96099 0.22441 0.0
H591 H 0.34567 0.93759 0.26007 0.0
H592 H 0.79791 0.81063 0.38929 0.0
H593 H 0.78098 0.82256 0.45913 0.0
H594 H 0.78137 0.86142 0.37851 0.0
H595 H 0.79862 0.84938 0.30816 0.0
H596 H 0.78791 0.84748 0.51844 0.0
H597 H 0.71417 0.85054 0.39366 0.0
H598 H 0.7381 0.83998 0.37796 0.0
H599 H 0.74004 0.8587 0.3759 0.0
C600 C 0.7954 0.82186 0.38741 0.0
C601 C 0.79962 0.82913 0.34374 0.0
C602 C 0.78563 0.82867 0.42719 0.0
C603 C 0.77957 0.84282 0.42366 0.0
C604 C 0.78578 0.85047 0.38177 0.0
H605 H 0.6985 0.8507 0.68995 0.0
H606 H 0.71652 0.8624 0.61996 0.0
C607 C 0.79586 0.84364 0.34191 0.0
C608 C 0.76367 0.84842 0.46044 0.0
H609 H 0.70727 0.8504 0.47804 0.0
C610 C 0.77034 0.84872 0.50974 0.0
C611 C 0.74075 0.84999 0.44875 0.0
C612 C 0.73265 0.84978 0.39629 0.0
C613 C 0.75454 0.84902 0.54783 0.0
C614 C 0.73148 0.84911 0.53605 0.0
C615 C 0.72494 0.85036 0.48683 0.0
C616 C 0.7147 0.84431 0.57234 0.0
C617 C 0.76256 0.84769 0.60016 0.0
C618 C 0.70618 0.8307 0.5673 0.0
C619 C 0.69591 0.82408 0.6069 0.0
C620 C 0.69367 0.83105 0.65187 0.0
C621 C 0.69968 0.84523 0.65521 0.0
C622 C 0.71023 0.85185 0.61552 0.0
H623 H 0.78105 0.847 0.60268 0.0
H624 H 0.75698 0.85691 0.62163 0.0
H625 H 0.75527 0.8382 0.61743 0.0
H626 H 0.70945 0.82469 0.53433 0.0
H627 H 0.69169 0.81308 0.60384 0.0
H628 H 0.8879 0.03942 0.33552 0.0
H629 H 0.87453 0.01707 0.30568 0.0
H630 H 0.8124 0.03622 0.26154 0.0
H631 H 0.82635 0.0591 0.28975 0.0
H632 H 0.84004 0.00155 0.33404 0.0
H633 H 0.82957 0.01619 0.13742 0.0
H634 H 0.84348 0.02753 0.18053 0.0
H635 H 0.81358 0.02594 0.18149 0.0
C636 C 0.87145 0.03899 0.31915 0.0
C637 C 0.85826 0.05108 0.31461 0.0
C638 C 0.86373 0.02613 0.30234 0.0
C639 C 0.84248 0.02491 0.28109 0.0
C640 C 0.82902 0.03693 0.27697 0.0
H641 H 0.82787 0.93434 0.2135 0.0
H642 H 0.81449 0.95701 0.245 0.0
C643 C 0.83696 0.04997 0.29322 0.0
C644 C 0.83529 0.01094 0.263 0.0
H645 H 0.82724 0.99249 0.15725 0.0
C646 C 0.83682 0.99955 0.29549 0.0
C647 C 0.83086 0.00837 0.2128 0.0
C648 C 0.82938 0.0201 0.17582 0.0
C649 C 0.83644 0.98567 0.27852 0.0
C650 C 0.83351 0.98311 0.22776 0.0
C651 C 0.82959 0.99448 0.19611 0.0
C652 C 0.839 0.96933 0.20547 0.0
C653 C 0.84122 0.97402 0.31447 0.0
C654 C 0.85647 0.96874 0.17126 0.0
C655 C 0.86375 0.95598 0.15274 0.0
C656 C 0.85395 0.94337 0.1683 0.0
C657 C 0.8359 0.94388 0.20129 0.0
C658 C 0.82834 0.95681 0.21948 0.0
H659 H 0.84654 0.97804 0.3509 0.0
H660 H 0.82589 0.96768 0.31985 0.0
H661 H 0.85454 0.96703 0.30019 0.0
H662 H 0.86504 0.97819 0.15985 0.0
H663 H 0.87754 0.95603 0.12699 0.0
H664 H 0.67291 0.18946 0.89243 0.0
H665 H 0.68642 0.1807 0.97086 0.0
H666 H 0.68731 0.13869 0.9128 0.0
H667 H 0.67427 0.14764 0.83332 0.0
H668 H 0.68091 0.16113 0.04351 0.0
H669 H 0.75326 0.14779 0.92306 0.0
H670 H 0.72936 0.15711 0.89985 0.0
H671 H 0.72746 0.13869 0.91256 0.0
C672 C 0.6747 0.17825 0.89733 0.0
C673 C 0.67258 0.16921 0.85714 0.0
C674 C 0.68261 0.17324 0.9421 0.0
C675 C 0.68861 0.1591 0.94717 0.0
C676 C 0.68329 0.14969 0.90927 0.0
H677 H 0.77209 0.15852 0.21436 0.0
H678 H 0.74709 0.1471 0.15486 0.0
C679 C 0.67545 0.15476 0.86416 0.0
C680 C 0.70429 0.15529 0.98726 0.0
H681 H 0.76019 0.15044 0.00627 0.0
C682 C 0.69812 0.15836 0.03578 0.0
C683 C 0.72683 0.15176 0.97687 0.0
C684 C 0.73479 0.14871 0.92534 0.0
C685 C 0.71417 0.1593 0.07328 0.0
C686 C 0.73692 0.15677 0.06203 0.0
C687 C 0.74274 0.15237 0.01463 0.0
C688 C 0.75511 0.16129 0.09547 0.0
C689 C 0.7069 0.16427 0.12341 0.0
C690 C 0.76897 0.17241 0.08083 0.0
C691 C 0.78344 0.17871 0.11432 0.0
C692 C 0.78444 0.1739 0.16279 0.0
C693 C 0.77182 0.16217 0.17671 0.0
C694 C 0.75735 0.1558 0.14304 0.0
H695 H 0.68907 0.16751 0.1241 0.0
H696 H 0.70912 0.15569 0.15039 0.0
H697 H 0.71728 0.17326 0.13547 0.0
H698 H 0.7675 0.17684 0.04436 0.0
H699 H 0.7927 0.18794 0.10329 0.0
H700 H 0.66289 0.94334 0.76403 0.0
H701 H 0.67156 0.96683 0.73193 0.0
H702 H 0.6408 0.98543 0.85934 0.0
H703 H 0.63199 0.96227 0.89105 0.0
H704 H 0.62299 0.99436 0.76953 0.0
H705 H 0.71565 0.99871 0.77287 0.0
H706 H 0.70427 0.98309 0.74567 0.0
H707 H 0.70057 0.98622 0.8101 0.0
C708 C 0.65847 0.95245 0.78557 0.0
C709 C 0.64662 0.95098 0.82981 0.0
C710 C 0.66348 0.96585 0.76733 0.0
C711 C 0.65688 0.97787 0.7934 0.0
C712 C 0.64605 0.97631 0.83865 0.0
H713 H 0.66359 0.0681 0.74001 0.0
H714 H 0.6687 0.04473 0.77663 0.0
C715 C 0.64099 0.96305 0.85664 0.0
C716 C 0.65876 0.99207 0.77171 0.0
H717 H 0.69567 0.01733 0.73509 0.0
C718 C 0.63889 0.99938 0.76215 0.0
C719 C 0.67952 0.99862 0.76243 0.0
C720 C 0.70128 0.99135 0.77355 0.0
C721 C 0.63919 0.013 0.74318 0.0
C722 C 0.6599 0.01949 0.73313 0.0
C723 C 0.67984 0.01229 0.74299 0.0
C724 C 0.66066 0.03349 0.70999 0.0
C725 C 0.61733 0.0204 0.73373 0.0
C726 C 0.65504 0.03483 0.66035 0.0
C727 C 0.65201 0.04803 0.63964 0.0
C728 C 0.65462 0.0602 0.6681 0.0
C729 C 0.66153 0.0589 0.71721 0.0
C730 C 0.66447 0.04559 0.7381 0.0
H731 H 0.60297 0.01488 0.75083 0.0
H732 H 0.61793 0.03128 0.74809 0.0
H733 H 0.61438 0.021 0.69357 0.0
H734 H 0.65202 0.02561 0.63815 0.0
H735 H 0.64686 0.04867 0.60159 0.0
H736 H 0.80799 0.69204 0.89821 0.0
H737 H 0.79015 0.6805 0.96772 0.0
H738 H 0.77774 0.64405 0.87832 0.0
H739 H 0.79605 0.65563 0.80857 0.0
H740 H 0.73931 0.657 0.91163 0.0
H741 H 0.79637 0.64899 0.06776 0.0
H742 H 0.80098 0.66581 0.04039 0.0
H743 H 0.80622 0.65019 0.00512 0.0
C744 C 0.80268 0.68125 0.89434 0.0
C745 C 0.80363 0.67462 0.84853 0.0
C746 C 0.79243 0.67464 0.93405 0.0
C747 C 0.78269 0.66136 0.92836 0.0
C748 C 0.78537 0.65422 0.88366 0.0
H749 H 0.70097 0.65589 0.1915 0.0
H750 H 0.71847 0.64426 0.12089 0.0
C751 C 0.796 0.66078 0.84401 0.0
C752 C 0.76593 0.65671 0.96498 0.0
H753 H 0.75806 0.65614 0.08879 0.0
C754 C 0.74343 0.65628 0.95032 0.0
C755 C 0.77122 0.65555 0.01534 0.0
C756 C 0.79506 0.65501 0.03298 0.0
C757 C 0.72611 0.65644 0.98504 0.0
C758 C 0.73147 0.65711 0.03546 0.0
C759 C 0.75389 0.6558 0.05006 0.0
C760 C 0.71512 0.66208 0.07245 0.0
C761 C 0.70226 0.65685 0.9674 0.0
C762 C 0.70654 0.6757 0.06791 0.0
C763 C 0.69674 0.68233 0.10812 0.0
C764 C 0.69506 0.67539 0.15324 0.0
C765 C 0.70155 0.6613 0.15655 0.0
C766 C 0.71173 0.6547 0.11643 0.0
H767 H 0.70043 0.65114 0.93208 0.0
H768 H 0.69069 0.65221 0.99484 0.0
H769 H 0.69729 0.66789 0.961 0.0
H770 H 0.7094 0.68173 0.03482 0.0
H771 H 0.69237 0.69331 0.10524 0.0
H772 H 0.67338 0.5635 0.28814 0.0
H773 H 0.68464 0.54054 0.25541 0.0
H774 H 0.63031 0.5211 0.33417 0.0
H775 H 0.62 0.5435 0.36866 0.0
H776 H 0.66572 0.50544 0.34114 0.0
H777 H 0.65494 0.52053 0.14515 0.0
H778 H 0.67566 0.53012 0.17882 0.0
H779 H 0.64663 0.53191 0.19458 0.0
C780 C 0.66397 0.55427 0.29847 0.0
C781 C 0.64566 0.55536 0.33059 0.0
C782 C 0.67032 0.54117 0.27955 0.0
C783 C 0.65811 0.52905 0.29163 0.0
C784 C 0.64009 0.53021 0.32426 0.0
H785 H 0.61336 0.45923 0.14644 0.0
H786 H 0.62568 0.48151 0.17865 0.0
C787 C 0.63407 0.54313 0.34375 0.0
C788 C 0.66308 0.51507 0.26994 0.0
H789 H 0.6608 0.49691 0.16215 0.0
C790 C 0.66495 0.50356 0.30191 0.0
C791 C 0.66226 0.51263 0.21872 0.0
C792 C 0.65961 0.5244 0.18221 0.0
C793 C 0.66386 0.48972 0.28462 0.0
C794 C 0.66186 0.48728 0.23356 0.0
C795 C 0.66218 0.49878 0.20131 0.0
C796 C 0.65551 0.47335 0.21334 0.0
C797 C 0.66304 0.47795 0.32156 0.0
C798 C 0.66812 0.46114 0.22191 0.0
C799 C 0.66067 0.44811 0.20437 0.0
C800 C 0.64077 0.44718 0.17712 0.0
C801 C 0.62866 0.45948 0.16756 0.0
C802 C 0.63582 0.47233 0.18571 0.0
H803 H 0.66051 0.48184 0.3596 0.0
H804 H 0.64934 0.47054 0.31273 0.0
H805 H 0.67905 0.47212 0.32061 0.0
H806 H 0.68366 0.46167 0.24211 0.0
H807 H 0.67049 0.43883 0.2118 0.0
H808 H 0.69016 0.31268 0.40614 0.0
H809 H 0.70626 0.32587 0.47393 0.0
H810 H 0.71512 0.36154 0.37882 0.0
H811 H 0.69859 0.34828 0.31075 0.0
H812 H 0.75458 0.351 0.41379 0.0
H813 H 0.69704 0.35797 0.56943 0.0
H814 H 0.6942 0.34065 0.54491 0.0
H815 H 0.68721 0.35554 0.50723 0.0
C816 C 0.69425 0.32361 0.40058 0.0
C817 C 0.69293 0.32955 0.35366 0.0
C818 C 0.7035 0.33118 0.43933 0.0
C819 C 0.71185 0.34474 0.43158 0.0
C820 C 0.70859 0.35116 0.38573 0.0
H821 H 0.79205 0.35451 0.69417 0.0
H822 H 0.77329 0.36526 0.62345 0.0
C823 C 0.69895 0.34363 0.34702 0.0
C824 C 0.72805 0.3505 0.46743 0.0
H825 H 0.73601 0.35217 0.59102 0.0
C826 C 0.75043 0.35179 0.45245 0.0
C827 C 0.72274 0.35181 0.51772 0.0
C828 C 0.69891 0.35157 0.53562 0.0
C829 C 0.76779 0.35258 0.48696 0.0
C830 C 0.76259 0.35192 0.53749 0.0
C831 C 0.7401 0.35244 0.55224 0.0
C832 C 0.77947 0.34781 0.57465 0.0
C833 C 0.79159 0.35315 0.46897 0.0
C834 C 0.79004 0.33474 0.57002 0.0
C835 C 0.80069 0.32864 0.61025 0.0
C836 C 0.80113 0.33558 0.6555 0.0
C837 C 0.79243 0.34918 0.65908 0.0
C838 C 0.78156 0.35525 0.61888 0.0
H839 H 0.79271 0.35904 0.43388 0.0
H840 H 0.80278 0.35814 0.49638 0.0
H841 H 0.79761 0.34235 0.46192 0.0
H842 H 0.78819 0.32862 0.53681 0.0
H843 H 0.80673 0.31798 0.60723 0.0
H844 H 0.88892 0.46119 0.86135 0.0
H845 H 0.87669 0.48391 0.83282 0.0
H846 H 0.81638 0.46552 0.77488 0.0
H847 H 0.8292 0.44227 0.80199 0.0
H848 H 0.83273 0.48297 0.71109 0.0
H849 H 0.83302 0.51087 0.88688 0.0
H850 H 0.8597 0.50267 0.87991 0.0
H851 H 0.83482 0.49203 0.88381 0.0
C852 C 0.87297 0.46189 0.8428 0.0
C853 C 0.86002 0.44988 0.83401 0.0
C854 C 0.86582 0.47501 0.82706 0.0
C855 C 0.84524 0.47659 0.80312 0.0
C856 C 0.83218 0.46461 0.79398 0.0
H857 H 0.83456 0.56638 0.72786 0.0
H858 H 0.82183 0.54393 0.76258 0.0
C859 C 0.83952 0.45134 0.80934 0.0
C860 C 0.83879 0.49066 0.78429 0.0
H861 H 0.84276 0.52525 0.81449 0.0
C862 C 0.83431 0.4922 0.73402 0.0
C863 C 0.83992 0.50279 0.81414 0.0
C864 C 0.84185 0.50195 0.86927 0.0
C865 C 0.83341 0.50549 0.71212 0.0
C866 C 0.83797 0.51753 0.74088 0.0
C867 C 0.83994 0.51606 0.79195 0.0
C868 C 0.84394 0.5312 0.71812 0.0
C869 C 0.8283 0.50642 0.658 0.0
C870 C 0.86078 0.53157 0.68237 0.0
C871 C 0.8678 0.54423 0.6624 0.0
C872 C 0.85862 0.55698 0.67844 0.0
C873 C 0.84191 0.55673 0.7147 0.0
C874 C 0.83462 0.54391 0.73444 0.0
H875 H 0.81619 0.49817 0.6471 0.0
H876 H 0.82132 0.51679 0.64787 0.0
H877 H 0.84385 0.50462 0.63673 0.0
H878 H 0.86896 0.52205 0.6705 0.0
H879 H 0.8808 0.54397 0.63476 0.0
H880 H 0.30577 0.3486 0.80433 0.0
H881 H 0.28944 0.36078 0.87512 0.0
H882 H 0.30151 0.32435 0.96485 0.0
H883 H 0.31741 0.31225 0.89437 0.0
H884 H 0.25119 0.34895 0.91004 0.0
H885 H 0.30921 0.3554 0.06488 0.0
H886 H 0.3188 0.35402 0.00208 0.0
H887 H 0.31312 0.3385 0.03766 0.0
C888 C 0.30615 0.34358 0.83998 0.0
C889 C 0.31303 0.32959 0.84439 0.0
C890 C 0.29666 0.35049 0.88027 0.0
C891 C 0.29435 0.34353 0.92544 0.0
C892 C 0.30354 0.33009 0.93084 0.0
H893 H 0.2047 0.31045 0.09686 0.0
H894 H 0.22321 0.32272 0.02969 0.0
C895 C 0.31266 0.32314 0.89054 0.0
C896 C 0.27809 0.34845 0.96272 0.0
H897 H 0.27081 0.34793 0.08674 0.0
C898 C 0.25554 0.34931 0.94866 0.0
C899 C 0.28364 0.34918 0.01306 0.0
C900 C 0.30758 0.34938 0.03018 0.0
C901 C 0.2384 0.34896 0.98376 0.0
C902 C 0.244 0.34765 0.03388 0.0
C903 C 0.26649 0.34871 0.04817 0.0
C904 C 0.22783 0.34204 0.07003 0.0
C905 C 0.21445 0.34885 0.9667 0.0
C906 C 0.22362 0.34897 0.11454 0.0
C907 C 0.21259 0.34199 0.1528 0.0
C908 C 0.20624 0.32792 0.14717 0.0
C909 C 0.20918 0.32135 0.10166 0.0
C910 C 0.21974 0.32838 0.0633 0.0
H911 H 0.21252 0.35485 0.93202 0.0
H912 H 0.20925 0.3379 0.95939 0.0
H913 H 0.20313 0.35333 0.99494 0.0
H914 H 0.23 0.35943 0.12064 0.0
H915 H 0.21089 0.34715 0.18801 0.0
H916 H 0.38036 0.45668 0.63396 0.0
H917 H 0.37155 0.47941 0.66834 0.0
H918 H 0.3183 0.46101 0.75354 0.0
H919 H 0.32803 0.43781 0.72085 0.0
H920 H 0.33623 0.49545 0.66421 0.0
H921 H 0.35142 0.48097 0.85927 0.0
H922 H 0.35828 0.46938 0.80936 0.0
H923 H 0.32975 0.47131 0.82896 0.0
C924 C 0.36686 0.45738 0.66025 0.0
C925 C 0.35509 0.4454 0.67521 0.0
C926 C 0.36171 0.47046 0.67968 0.0
C927 C 0.34442 0.47197 0.71403 0.0
C928 C 0.33208 0.46008 0.72802 0.0
H929 H 0.3292 0.56185 0.79545 0.0
H930 H 0.31772 0.53877 0.76417 0.0
C931 C 0.33756 0.44685 0.70917 0.0
C932 C 0.34025 0.48605 0.73549 0.0
H933 H 0.34415 0.50449 0.84241 0.0
C934 C 0.3377 0.49744 0.70328 0.0
C935 C 0.34208 0.48862 0.7865 0.0
C936 C 0.3457 0.47697 0.8231 0.0
C937 C 0.33874 0.51133 0.72006 0.0
C938 C 0.34148 0.51389 0.77084 0.0
C939 C 0.34214 0.50249 0.80346 0.0
C940 C 0.34725 0.52797 0.7903 0.0
C941 C 0.33858 0.52303 0.68283 0.0
C942 C 0.3673 0.52954 0.81633 0.0
C943 C 0.37354 0.54251 0.83499 0.0
C944 C 0.36009 0.55436 0.82751 0.0
C945 C 0.34001 0.55291 0.80128 0.0
C946 C 0.3335 0.53975 0.78324 0.0
H947 H 0.34079 0.5191 0.64475 0.0
H948 H 0.32234 0.52859 0.68465 0.0
H949 H 0.35205 0.5307 0.69066 0.0
H950 H 0.37829 0.52068 0.82209 0.0
H951 H 0.38908 0.5432 0.85511 0.0
H952 H 0.18351 0.69413 0.40364 0.0
H953 H 0.2002 0.68209 0.47338 0.0
H954 H 0.20245 0.64375 0.38991 0.0
H955 H 0.18553 0.65591 0.31967 0.0
H956 H 0.19664 0.65688 0.53175 0.0
H957 H 0.26843 0.65678 0.40084 0.0
H958 H 0.24325 0.66637 0.38713 0.0
H959 H 0.2432 0.64759 0.38504 0.0
C960 C 0.18636 0.68295 0.40119 0.0
C961 C 0.18325 0.67592 0.35663 0.0
C962 C 0.19602 0.67607 0.44094 0.0
C963 C 0.20301 0.6621 0.4364 0.0
C964 C 0.19737 0.65456 0.39392 0.0
H965 H 0.29199 0.65846 0.6922 0.0
H966 H 0.27278 0.64568 0.62606 0.0
C967 C 0.18745 0.66147 0.35408 0.0
C968 C 0.21991 0.65692 0.47168 0.0
H969 H 0.27664 0.65737 0.48442 0.0
C970 C 0.21413 0.65634 0.52152 0.0
C971 C 0.24274 0.65624 0.45802 0.0
C972 C 0.24996 0.65679 0.40494 0.0
C973 C 0.2306 0.65677 0.55818 0.0
C974 C 0.25335 0.65774 0.54436 0.0
C975 C 0.25918 0.65661 0.4947 0.0
C976 C 0.26999 0.66374 0.57854 0.0
C977 C 0.22347 0.65781 0.6112 0.0
C978 C 0.27595 0.67783 0.57222 0.0
C979 C 0.28673 0.68507 0.60966 0.0
C980 C 0.29206 0.6783 0.65372 0.0
C981 C 0.28829 0.66383 0.65815 0.0
C982 C 0.27715 0.65657 0.6207 0.0
H983 H 0.20506 0.6571 0.61562 0.0
H984 H 0.23129 0.64925 0.63267 0.0
H985 H 0.22922 0.6679 0.627 0.0
H986 H 0.27056 0.68355 0.53997 0.0
H987 H 0.28935 0.69624 0.6057 0.0
H988 H 0.13172 0.4583 0.39989 0.0
H989 H 0.13928 0.48125 0.36447 0.0
H990 H 0.16814 0.46169 0.23679 0.0
H991 H 0.16065 0.43844 0.27234 0.0
H992 H 0.19036 0.4894 0.28523 0.0
H993 H 0.10031 0.49105 0.23436 0.0
H994 H 0.1069 0.48552 0.29583 0.0
H995 H 0.11501 0.4748 0.24477 0.0
C996 C 0.14005 0.45883 0.36463 0.0
C997 C 0.14541 0.44657 0.33863 0.0
C998 C 0.14441 0.47197 0.34457 0.0
C999 C 0.15414 0.47313 0.29804 0.0
C1000 C 0.16069 0.46096 0.27293 0.0
H1001 H 0.13889 0.54405 0.10661 0.0
H1002 H 0.14485 0.52089 0.14142 0.0
C1003 C 0.1564 0.44771 0.2932 0.0
C1004 C 0.15499 0.48701 0.27401 0.0
H1005 H 0.12108 0.51175 0.22314 0.0
C1006 C 0.17531 0.4943 0.27128 0.0
C1007 C 0.13528 0.49331 0.25598 0.0
C1008 C 0.1131 0.48579 0.25744 0.0
C1009 C 0.17631 0.50789 0.25132 0.0
C1010 C 0.15647 0.51428 0.23421 0.0
C1011 C 0.13626 0.50686 0.23651 0.0
C1012 C 0.15608 0.52846 0.212 0.0
C1013 C 0.19854 0.51524 0.24811 0.0
C1014 C 0.16082 0.54049 0.2399 0.0
C1015 C 0.15744 0.55387 0.21993 0.0
C1016 C 0.14908 0.55536 0.172 0.0
C1017 C 0.1452 0.54328 0.14378 0.0
C1018 C 0.14864 0.53 0.16356 0.0
H1019 H 0.21273 0.5079 0.25346 0.0
H1020 H 0.20044 0.5205 0.21199 0.0
H1021 H 0.19943 0.52339 0.27704 0.0
H1022 H 0.16624 0.53953 0.27768 0.0
H1023 H 0.16046 0.563 0.24257 0.0
H1024 H 0.14764 0.12652 0.86309 0.0
H1025 H 0.16964 0.14489 0.90362 0.0
H1026 H 0.1725 0.11981 0.03517 0.0
H1027 H 0.1514 0.10133 0.99456 0.0
H1028 H 0.16262 0.16068 0.98444 0.0
H1029 H 0.23747 0.12797 0.01426 0.0
H1030 H 0.21532 0.12284 0.97313 0.0
H1031 H 0.21303 0.11956 0.03811 0.0
C1032 C 0.15306 0.12494 0.90061 0.0
C1033 C 0.14807 0.11242 0.92549 0.0
C1034 C 0.16559 0.13543 0.92369 0.0
C1035 C 0.17319 0.13358 0.97201 0.0
C1036 C 0.16747 0.12129 0.99734 0.0
H1037 H 0.23791 0.17274 0.20729 0.0
H1038 H 0.21153 0.16156 0.15138 0.0
C1039 C 0.15527 0.11076 0.97417 0.0
C1040 C 0.18695 0.14441 0.99666 0.0
H1041 H 0.23437 0.14839 0.06464 0.0
C1042 C 0.17847 0.15807 0.0014 0.0
C1043 C 0.20781 0.14106 0.01808 0.0
C1044 C 0.21906 0.1271 0.01013 0.0
C1045 C 0.1897 0.1682 0.02963 0.0
C1046 C 0.20974 0.16449 0.05352 0.0
C1047 C 0.21869 0.15107 0.04698 0.0
C1048 C 0.22124 0.17389 0.08833 0.0
C1049 C 0.17974 0.18258 0.03547 0.0
C1050 C 0.23467 0.18498 0.07169 0.0
C1051 C 0.24962 0.19155 0.10399 0.0
C1052 C 0.25129 0.18693 0.15277 0.0
C1053 C 0.23666 0.17657 0.16993 0.0
C1054 C 0.22168 0.17015 0.13803 0.0
H1055 H 0.1628 0.1833 0.01904 0.0
H1056 H 0.17869 0.18539 0.07495 0.0
H1057 H 0.19077 0.19036 0.01734 0.0
H1058 H 0.23473 0.18784 0.03321 0.0
H1059 H 0.26115 0.1993 0.08985 0.0
H1060 H 0.26162 0.83617 0.37105 0.0
H1061 H 0.23046 0.83991 0.42644 0.0
H1062 H 0.20808 0.79754 0.40305 0.0
H1063 H 0.2397 0.7936 0.34643 0.0
H1064 H 0.17605 0.8264 0.39099 0.0
H1065 H 0.22166 0.81866 0.56698 0.0
H1066 H 0.23729 0.82061 0.51051 0.0
H1067 H 0.2209 0.80534 0.51979 0.0
C1068 C 0.25013 0.82759 0.37737 0.0
C1069 C 0.25301 0.81461 0.35407 0.0
C1070 C 0.23239 0.82974 0.40926 0.0
C1071 C 0.21711 0.819 0.4187 0.0
C1072 C 0.2198 0.80593 0.39599 0.0
H1073 H 0.13135 0.8622 0.63214 0.0
H1074 H 0.14582 0.84093 0.59247 0.0
C1075 C 0.23781 0.80371 0.36388 0.0
C1076 C 0.19822 0.82222 0.45137 0.0
H1077 H 0.19142 0.83467 0.56759 0.0
C1078 C 0.17884 0.82771 0.43007 0.0
C1079 C 0.20181 0.82372 0.50224 0.0
C1080 C 0.22146 0.81678 0.52675 0.0
C1081 C 0.1643 0.83615 0.45745 0.0
C1082 C 0.16979 0.83943 0.5066 0.0
C1083 C 0.18758 0.83245 0.52947 0.0
C1084 C 0.16028 0.85194 0.53082 0.0
C1085 C 0.14419 0.8424 0.43244 0.0
C1086 C 0.16417 0.86514 0.50989 0.0
C1087 C 0.15625 0.87723 0.53254 0.0
C1088 C 0.14423 0.87639 0.57668 0.0
C1089 C 0.1405 0.86316 0.59799 0.0
C1090 C 0.14866 0.85101 0.5754 0.0
H1091 H 0.13791 0.83538 0.403 0.0
H1092 H 0.1305 0.84441 0.45905 0.0
H1093 H 0.14899 0.85248 0.41517 0.0
H1094 H 0.1736 0.8661 0.47609 0.0
H1095 H 0.15945 0.88724 0.51522 0.0
H1096 H 0.34088 0.89327 0.48675 0.0
H1097 H 0.32221 0.8735 0.52503 0.0
H1098 H 0.34239 0.8468 0.40523 0.0
H1099 H 0.36183 0.86669 0.36683 0.0
H1100 H 0.28752 0.85821 0.48368 0.0
H1101 H 0.36034 0.82413 0.52903 0.0
H1102 H 0.36359 0.84268 0.51842 0.0
H1103 H 0.35798 0.83121 0.46797 0.0
C1104 C 0.34144 0.88322 0.46843 0.0
C1105 C 0.35277 0.88154 0.42372 0.0
C1106 C 0.3308 0.87191 0.49044 0.0
C1107 C 0.33109 0.85867 0.46818 0.0
C1108 C 0.34232 0.85689 0.42338 0.0
H1109 H 0.24644 0.79561 0.61499 0.0
H1110 H 0.27295 0.80423 0.5527 0.0
C1111 C 0.35323 0.86826 0.40138 0.0
C1112 C 0.31864 0.84716 0.49198 0.0
H1113 H 0.32564 0.81816 0.56364 0.0
C1114 C 0.29576 0.84923 0.50008 0.0
C1115 C 0.3295 0.83556 0.51367 0.0
C1116 C 0.35422 0.83318 0.50722 0.0
C1117 C 0.28378 0.84072 0.53239 0.0
C1118 C 0.29478 0.82941 0.55562 0.0
C1119 C 0.31728 0.82669 0.54497 0.0
C1120 C 0.28395 0.82185 0.5963 0.0
C1121 C 0.26003 0.84492 0.54403 0.0
C1122 C 0.2824 0.82854 0.64189 0.0
C1123 C 0.26725 0.82378 0.67685 0.0
C1124 C 0.25369 0.81214 0.667 0.0
C1125 C 0.25697 0.80451 0.62352 0.0
C1126 C 0.27199 0.80944 0.58796 0.0
H1127 H 0.25035 0.84592 0.50944 0.0
H1128 H 0.25125 0.83758 0.56881 0.0
H1129 H 0.26008 0.85541 0.56158 0.0
H1130 H 0.29152 0.83814 0.64878 0.0
H1131 H 0.26498 0.8298 0.71019 0.0
H1132 H 0.20524 0.17025 0.8988 0.0
H1133 H 0.23114 0.15831 0.95292 0.0
H1134 H 0.28465 0.18496 0.9029 0.0
H1135 H 0.25836 0.1972 0.84832 0.0
H1136 H 0.26244 0.14297 0.92671 0.0
H1137 H 0.29686 0.18315 0.04709 0.0
H1138 H 0.27589 0.18746 0.00245 0.0
H1139 H 0.30505 0.18777 0.98569 0.0
C1140 C 0.22242 0.17382 0.90025 0.0
C1141 C 0.22992 0.18457 0.86931 0.0
C1142 C 0.23719 0.16702 0.93148 0.0
C1143 C 0.25983 0.17074 0.93257 0.0
C1144 C 0.26718 0.18203 0.90347 0.0
H1145 H 0.35954 0.10784 0.99275 0.0
H1146 H 0.33387 0.12482 0.95659 0.0
C1147 C 0.25221 0.18902 0.87229 0.0
C1148 C 0.27586 0.16171 0.95963 0.0
H1149 H 0.32034 0.16215 0.038 0.0
C1150 C 0.27492 0.1472 0.95147 0.0
C1151 C 0.29181 0.16706 0.99294 0.0
C1152 C 0.29224 0.18223 0.00779 0.0
C1153 C 0.28978 0.13799 0.97451 0.0
C1154 C 0.30703 0.14347 0.00448 0.0
C1155 C 0.30754 0.15793 0.01402 0.0
C1156 C 0.3246 0.13433 0.02591 0.0
C1157 C 0.28641 0.12246 0.9671 0.0
C1158 C 0.32939 0.13474 0.07643 0.0
C1159 C 0.34486 0.1254 0.09683 0.0
C1160 C 0.35538 0.11537 0.06712 0.0
C1161 C 0.35128 0.11533 0.01647 0.0
C1162 C 0.33644 0.12493 0.99591 0.0
H1163 H 0.26872 0.12 0.95822 0.0
H1164 H 0.2967 0.11889 0.93564 0.0
H1165 H 0.29124 0.11642 0.00024 0.0
H1166 H 0.32069 0.14198 0.10032 0.0
H1167 H 0.34784 0.12562 0.13604 0.0
H1168 H 0.86744 0.86494 0.12723 0.0
H1169 H 0.85191 0.84465 0.0835 0.0
H1170 H 0.83227 0.87162 0.9641 0.0
H1171 H 0.84768 0.89178 0.00706 0.0
H1172 H 0.80771 0.84064 0.05185 0.0
H1173 H 0.86538 0.83973 0.89437 0.0
H1174 H 0.87193 0.84868 0.95104 0.0
H1175 H 0.85528 0.85716 0.90464 0.0
C1176 C 0.85989 0.8665 0.09153 0.0
C1177 C 0.85882 0.87995 0.07045 0.0
C1178 C 0.85111 0.85491 0.06665 0.0
C1179 C 0.84145 0.85661 0.02014 0.0
C1180 C 0.84021 0.87004 -0.0006 0.0
H1181 H 0.75228 0.83876 0.81491 0.0
H1182 H 0.78362 0.8443 0.86799 0.0
C1183 C 0.84884 0.88158 0.02421 0.0
C1184 C 0.8312 0.84472 0.99374 0.0
H1185 H 0.82722 0.83173 0.87769 0.0
C1186 C 0.81232 0.83828 0.01425 0.0
C1187 C 0.83761 0.84141 0.94521 0.0
C1188 C 0.85883 0.84701 0.92278 0.0
C1189 C 0.79819 0.82991 0.9854 0.0
C1190 C 0.8032 0.82806 0.9351 0.0
C1191 C 0.8233 0.83332 0.91617 0.0
C1192 C 0.78586 0.8236 0.89985 0.0
C1193 C 0.77712 0.82408 0.00773 0.0
C1194 C 0.77698 0.80999 0.89954 0.0
C1195 C 0.7589 0.80675 0.86879 0.0
C1196 C 0.74952 0.81713 0.83857 0.0
C1197 C 0.75905 0.83055 0.83797 0.0
C1198 C 0.77705 0.83372 0.86813 0.0
H1199 H 0.77414 0.82807 0.04547 0.0
H1200 H 0.76255 0.82669 0.98448 0.0
H1201 H 0.77832 0.81249 0.00929 0.0
H1202 H 0.78365 0.80203 0.92377 0.0
H1203 H 0.75179 0.79633 0.86998 0.0
H1204 H 0.71691 0.15197 0.65096 0.0
H1205 H 0.74606 0.14308 0.59719 0.0
H1206 H 0.78169 0.18216 0.60975 0.0
H1207 H 0.75228 0.19125 0.66414 0.0
H1208 H 0.76001 0.15442 0.50673 0.0
H1209 H 0.82882 0.15197 0.64422 0.0
H1210 H 0.7999 0.15374 0.66201 0.0
H1211 H 0.81462 0.16844 0.63687 0.0
C1212 C 0.73103 0.15867 0.64281 0.0
C1213 C 0.73232 0.17232 0.66181 0.0
C1214 C 0.7476 0.15359 0.61177 0.0
C1215 C 0.76603 0.16194 0.59969 0.0
C1216 C 0.76768 0.17551 0.61916 0.0
H1217 H 0.8577 0.12786 0.37492 0.0
H1218 H 0.83525 0.14505 0.42016 0.0
C1219 C 0.75089 0.18068 0.65007 0.0
C1220 C 0.78328 0.15616 0.56661 0.0
H1221 H 0.83595 0.14251 0.56627 0.0
C1222 C 0.77683 0.15213 0.51916 0.0
C1223 C 0.80504 0.15303 0.58346 0.0
C1224 C 0.81261 0.15692 0.63449 0.0
C1225 C 0.79131 0.14455 0.48865 0.0
C1226 C 0.8127 0.14087 0.50635 0.0
C1227 C 0.81951 0.14541 0.55297 0.0
C1228 C 0.82712 0.13092 0.47956 0.0
C1229 C 0.78322 0.13987 0.43885 0.0
C1230 C 0.83021 0.11741 0.49851 0.0
C1231 C 0.84292 0.1076 0.47288 0.0
C1232 C 0.85291 0.11116 0.42792 0.0
C1233 C 0.85016 0.1248 0.40944 0.0
C1234 C 0.83732 0.13462 0.43509 0.0
H1235 H 0.76527 0.14232 0.43292 0.0
H1236 H 0.79308 0.14522 0.4099 0.0
H1237 H 0.78572 0.12842 0.43443 0.0
H1238 H 0.82242 0.11439 0.53283 0.0
H1239 H 0.84478 0.09719 0.48814 0.0
H1240 H 0.64006 0.13996 0.61827 0.0
H1241 H 0.65719 0.16077 0.58092 0.0
H1242 H 0.70186 0.13425 0.49857 0.0
H1243 H 0.68472 0.11353 0.53486 0.0
H1244 H 0.70128 0.171 0.57668 0.0
H1245 H 0.67022 0.15732 0.39213 0.0
H1246 H 0.65956 0.14922 0.44728 0.0
H1247 H 0.68498 0.14296 0.41949 0.0
C1248 C 0.65363 0.13859 0.59241 0.0
C1249 C 0.66084 0.12509 0.5789 0.0
C1250 C 0.66336 0.15048 0.57113 0.0
C1251 C 0.68034 0.149 0.53601 0.0
C1252 C 0.68832 0.13558 0.52457 0.0
H1253 H 0.78819 0.1844 0.41194 0.0
H1254 H 0.75932 0.17768 0.47044 0.0
C1255 C 0.67858 0.12375 0.54552 0.0
C1256 C 0.6897 0.16131 0.51012 0.0
H1257 H 0.70237 0.17264 0.39479 0.0
C1258 C 0.70136 0.17148 0.53699 0.0
C1259 C 0.68879 0.16236 0.45837 0.0
C1260 C 0.67498 0.15246 0.42768 0.0
C1261 C 0.71396 0.18185 0.51306 0.0
C1262 C 0.7151 0.18183 0.46135 0.0
C1263 C 0.7017 0.17253 0.43459 0.0
C1264 C 0.73294 0.18931 0.43461 0.0
C1265 C 0.72639 0.19263 0.54273 0.0
C1266 C 0.72786 0.19855 0.39606 0.0
C1267 C 0.74456 0.20265 0.36301 0.0
C1268 C 0.76623 0.19721 0.36761 0.0
C1269 C 0.77157 0.18876 0.40798 0.0
C1270 C 0.7551 0.18496 0.44148 0.0
H1271 H 0.74439 0.18995 0.54358 0.0
H1272 H 0.72477 0.20311 0.52545 0.0
H1273 H 0.72015 0.19321 0.58103 0.0
H1274 H 0.71081 0.20187 0.3898 0.0
H1275 H 0.74009 0.20903 0.33164 0.0
H1276 H 0.66183 0.89835 0.98195 0.0
H1277 H 0.67905 0.87782 0.02018 0.0
H1278 H 0.65179 0.85137 0.90693 0.0
H1279 H 0.63445 0.87186 0.86819 0.0
H1280 H 0.64922 0.84729 0.03754 0.0
H1281 H 0.72772 0.84848 0.92753 0.0
H1282 H 0.71428 0.86487 0.9423 0.0
H1283 H 0.7009 0.85285 0.90125 0.0
C1284 C 0.65949 0.88819 0.96512 0.0
C1285 C 0.64682 0.88673 0.92205 0.0
C1286 C 0.66928 0.87649 0.98702 0.0
C1287 C 0.66657 0.86316 0.96628 0.0
C1288 C 0.65397 0.86161 0.92336 0.0
H1289 H 0.7548 0.79967 0.09625 0.0
H1290 H 0.72586 0.80799 0.03913 0.0
C1291 C 0.64416 0.87332 0.90133 0.0
C1292 C 0.67729 0.85101 0.98986 0.0
H1293 H 0.72801 0.83532 0.00079 0.0
C1294 C 0.6663 0.8444 0.02895 0.0
C1295 C 0.69932 0.84709 0.97769 0.0
C1296 C 0.71137 0.8536 0.93478 0.0
C1297 C 0.6775 0.83465 0.05863 0.0
C1298 C 0.70029 0.83178 0.04943 0.0
C1299 C 0.71061 0.83756 0.00788 0.0
C1300 C 0.71462 0.82483 0.08637 0.0
C1301 C 0.66516 0.8278 0.10045 0.0
C1302 C 0.71777 0.83146 0.13173 0.0
C1303 C 0.73442 0.82691 0.16358 0.0
C1304 C 0.74808 0.81554 0.15098 0.0
C1305 C 0.74413 0.8083 0.10701 0.0
C1306 C 0.72766 0.81306 0.07444 0.0
H1307 H 0.64683 0.8279 0.0942 0.0
H1308 H 0.67077 0.81681 0.1055 0.0
H1309 H 0.66855 0.83362 0.13487 0.0
H1310 H 0.70834 0.84076 0.14118 0.0
H1311 H 0.7373 0.8327 0.1972 0.0
H1312 H 0.63517 0.63459 0.38095 0.0
H1313 H 0.65351 0.65467 0.42019 0.0
H1314 H 0.68585 0.62678 0.52232 0.0
H1315 H 0.66772 0.60673 0.48354 0.0
H1316 H 0.65198 0.6628 0.52588 0.0
H1317 H 0.73694 0.65038 0.45794 0.0
H1318 H 0.71202 0.64339 0.42972 0.0
H1319 H 0.72306 0.63555 0.48466 0.0
C1320 C 0.64627 0.63274 0.41166 0.0
C1321 C 0.65012 0.61907 0.42904 0.0
C1322 C 0.65662 0.64422 0.43407 0.0
C1323 C 0.67111 0.64215 0.47378 0.0
C1324 C 0.67488 0.62854 0.4913 0.0
H1325 H 0.73627 0.67502 0.71084 0.0
H1326 H 0.70756 0.66695 0.65368 0.0
C1327 C 0.6645 0.6171 0.46915 0.0
C1328 C 0.68256 0.65406 0.49748 0.0
H1329 H 0.73456 0.66436 0.53136 0.0
C1330 C 0.67005 0.66356 0.52572 0.0
C1331 C 0.70609 0.65504 0.49695 0.0
C1332 C 0.72033 0.64563 0.4653 0.0
C1333 C 0.6807 0.67339 0.55623 0.0
C1334 C 0.70425 0.67362 0.55821 0.0
C1335 C 0.71659 0.66459 0.52815 0.0
C1336 C 0.71666 0.68144 0.59613 0.0
C1337 C 0.66682 0.68288 0.5882 0.0
C1338 C 0.73073 0.69262 0.58314 0.0
C1339 C 0.74693 0.69743 0.61623 0.0
C1340 C 0.74947 0.69085 0.66195 0.0
C1341 C 0.73444 0.68031 0.67587 0.0
C1342 C 0.71801 0.67573 0.64338 0.0
H1343 H 0.64962 0.68413 0.57348 0.0
H1344 H 0.66565 0.67828 0.62552 0.0
H1345 H 0.67467 0.69337 0.59165 0.0
H1346 H 0.73016 0.69695 0.54641 0.0
H1347 H 0.75866 0.7054 0.60446 0.0
H1348 H 0.65543 0.39644 0.01398 0.0
H1349 H 0.67467 0.37679 0.97505 0.0
H1350 H 0.6528 0.34938 0.09132 0.0
H1351 H 0.63358 0.36903 0.13077 0.0
H1352 H 0.69807 0.34717 0.07134 0.0
H1353 H 0.64911 0.34323 0.90006 0.0
H1354 H 0.65792 0.36088 0.9115 0.0
H1355 H 0.63903 0.35244 0.95361 0.0
C1356 C 0.65458 0.38622 0.03112 0.0
C1357 C 0.64297 0.38429 0.07539 0.0
C1358 C 0.66541 0.37497 0.00862 0.0
C1359 C 0.66476 0.36157 0.02981 0.0
C1360 C 0.65327 0.35961 0.07412 0.0
H1361 H 0.74149 0.30169 0.84833 0.0
H1362 H 0.71118 0.30816 0.9054 0.0
C1363 C 0.64236 0.37085 0.09659 0.0
C1364 C 0.67751 0.34998 0.00713 0.0
H1365 H 0.68729 0.33458 0.89623 0.0
C1366 C 0.69541 0.34416 0.03341 0.0
C1367 C 0.67365 0.34571 0.95815 0.0
C1368 C 0.65372 0.35078 0.92938 0.0
C1369 C 0.71087 0.33533 0.01022 0.0
C1370 C 0.70839 0.33238 0.95975 0.0
C1371 C 0.68926 0.33699 0.9349 0.0
C1372 C 0.72736 0.32713 0.93036 0.0
C1373 C 0.73039 0.3297 0.03897 0.0
C1374 C 0.74634 0.33561 0.92591 0.0
C1375 C 0.76334 0.33205 0.89352 0.0
C1376 C 0.76172 0.31992 0.86468 0.0
C1377 C 0.74313 0.31107 0.87036 0.0
C1378 C 0.72587 0.31475 0.90275 0.0
H1379 H 0.7275 0.33041 0.07917 0.0
H1380 H 0.73361 0.31861 0.02893 0.0
H1381 H 0.7456 0.33578 0.02994 0.0
H1382 H 0.7476 0.34536 0.94611 0.0
H1383 H 0.77753 0.33903 0.89016 0.0
H1384 H 0.76447 0.3306 0.23346 0.0
H1385 H 0.79206 0.34178 0.18036 0.0
H1386 H 0.77588 0.31282 0.06428 0.0
H1387 H 0.74835 0.30136 0.11813 0.0
H1388 H 0.82304 0.32271 0.06765 0.0
H1389 H 0.75917 0.36434 0.07068 0.0
H1390 H 0.77158 0.36245 0.13019 0.0
H1391 H 0.75549 0.34835 0.10474 0.0
C1392 C 0.76753 0.32623 0.19736 0.0
C1393 C 0.75439 0.31517 0.17967 0.0
C1394 C 0.78318 0.33265 0.16701 0.0
C1395 C 0.78554 0.32833 0.11812 0.0
C1396 C 0.77417 0.31632 0.10191 0.0
H1397 H 0.85511 0.37315 0.88026 0.0
H1398 H 0.83543 0.35496 0.92651 0.0
C1399 C 0.7586 0.30973 0.1327 0.0
C1400 C 0.79706 0.33765 0.08289 0.0
H1401 H 0.79508 0.37081 0.03676 0.0
C1402 C 0.81691 0.33319 0.0604 0.0
C1403 C 0.78889 0.3513 0.07343 0.0
C1404 C 0.7675 0.3568 0.09575 0.0
C1405 C 0.82948 0.34234 0.03073 0.0
C1406 C 0.82155 0.35611 0.02246 0.0
C1407 C 0.80123 0.36029 0.04336 0.0
C1408 C 0.83438 0.36673 0.99439 0.0
C1409 C 0.85163 0.33744 0.01066 0.0
C1410 C 0.83973 0.37957 0.01663 0.0
C1411 C 0.85045 0.39009 0.99 0.0
C1412 C 0.8562 0.38794 0.94063 0.0
C1413 C 0.85101 0.37505 0.91841 0.0
C1414 C 0.83999 0.36458 0.94493 0.0
H1415 H 0.85737 0.32762 0.02849 0.0
H1416 H 0.85 0.33542 0.97076 0.0
H1417 H 0.86461 0.34561 0.01576 0.0
H1418 H 0.83545 0.38149 0.05469 0.0
H1419 H 0.85431 0.39988 0.00816 0.0
H1420 H 0.74671 0.6643 0.32629 0.0
H1421 H 0.77741 0.65733 0.37891 0.0
H1422 H 0.7861 0.70009 0.42592 0.0
H1423 H 0.75489 0.7073 0.3724 0.0
H1424 H 0.82429 0.66836 0.38247 0.0
H1425 H 0.77237 0.67396 0.55116 0.0
H1426 H 0.76092 0.67634 0.49014 0.0
H1427 H 0.77848 0.68943 0.51583 0.0
C1428 C 0.7552 0.67231 0.34733 0.0
C1429 C 0.74834 0.68636 0.34532 0.0
C1430 C 0.77286 0.6683 0.3772 0.0
C1431 C 0.78405 0.67819 0.40601 0.0
C1432 C 0.77767 0.69233 0.40367 0.0
H1433 H 0.86914 0.63511 0.62425 0.0
H1434 H 0.85222 0.65526 0.58232 0.0
C1435 C 0.75991 0.69642 0.37317 0.0
C1436 C 0.80112 0.67301 0.44064 0.0
H1437 H 0.80463 0.65987 0.55689 0.0
C1438 C 0.82043 0.66688 0.42103 0.0
C1439 C 0.79601 0.67113 0.49084 0.0
C1440 C 0.77581 0.67797 0.51362 0.0
C1441 C 0.83372 0.6579 0.44933 0.0
C1442 C 0.82728 0.65485 0.49808 0.0
C1443 C 0.80925 0.66205 0.51916 0.0
C1444 C 0.83712 0.64287 0.52482 0.0
C1445 C 0.85379 0.65108 0.42593 0.0
C1446 C 0.8337 0.62926 0.50697 0.0
C1447 C 0.84314 0.61778 0.53084 0.0
C1448 C 0.85622 0.61968 0.5731 0.0
C1449 C 0.85921 0.63332 0.59163 0.0
C1450 C 0.8496 0.64483 0.56779 0.0
H1451 H 0.86029 0.65744 0.39489 0.0
H1452 H 0.86738 0.64952 0.45312 0.0
H1453 H 0.84889 0.64069 0.41129 0.0
H1454 H 0.82377 0.62753 0.47428 0.0
H1455 H 0.84045 0.60743 0.51572 0.0
H1456 H 0.31556 0.39557 0.55477 0.0
H1457 H 0.2945 0.37664 0.51622 0.0
H1458 H 0.34413 0.34691 0.56457 0.0
H1459 H 0.36463 0.36576 0.60546 0.0
H1460 H 0.30838 0.36191 0.44286 0.0
H1461 H 0.28846 0.32501 0.59336 0.0
H1462 H 0.2935 0.34342 0.60308 0.0
H1463 H 0.31651 0.33165 0.59488 0.0
C1464 C 0.32172 0.38495 0.55801 0.0
C1465 C 0.34171 0.38211 0.58299 0.0
C1466 C 0.30967 0.37414 0.53603 0.0
C1467 C 0.31754 0.3603 0.53792 0.0
C1468 C 0.3373 0.3574 0.56383 0.0
H1469 H 0.27668 0.30806 0.29566 0.0
H1470 H 0.30078 0.31865 0.35781 0.0
C1471 C 0.34914 0.36821 0.58678 0.0
C1472 C 0.30641 0.34931 0.50818 0.0
H1473 H 0.28431 0.31636 0.51236 0.0
C1474 C 0.30306 0.35197 0.45816 0.0
C1475 C 0.29884 0.33653 0.52836 0.0
C1476 C 0.29923 0.33397 0.58293 0.0
C1477 C 0.29249 0.34223 0.42765 0.0
C1478 C 0.28666 0.32889 0.44672 0.0
C1479 C 0.28964 0.3263 0.49713 0.0
C1480 C 0.27576 0.31813 0.41531 0.0
C1481 C 0.28668 0.34678 0.37606 0.0
C1482 C 0.25497 0.31251 0.4289 0.0
C1483 C 0.24174 0.3057 0.39401 0.0
C1484 C 0.24898 0.30473 0.34515 0.0
C1485 C 0.27085 0.30863 0.33326 0.0
C1486 C 0.28439 0.31497 0.36856 0.0
H1487 H 0.28568 0.35837 0.37305 0.0
H1488 H 0.2999 0.34322 0.35041 0.0
H1489 H 0.2704 0.34238 0.36413 0.0
H1490 H 0.24803 0.3145 0.46492 0.0
H1491 H 0.22485 0.30275 0.40379 0.0
H1492 H 0.34411 0.60206 0.00301 0.0
H1493 H 0.32353 0.61982 0.04858 0.0
H1494 H 0.33351 0.64928 0.93063 0.0
H1495 H 0.35484 0.63156 0.88503 0.0
H1496 H 0.33972 0.66099 0.02527 0.0
H1497 H 0.26017 0.63134 0.01534 0.0
H1498 H 0.2829 0.62111 0.0386 0.0
H1499 H 0.28374 0.62742 0.97634 0.0
C1500 C 0.34191 0.61229 0.9866 0.0
C1501 C 0.35084 0.61536 0.94017 0.0
C1502 C 0.3301 0.62243 0.01267 0.0
C1503 C 0.3266 0.63576 0.99252 0.0
C1504 C 0.33592 0.63901 0.94663 0.0
H1505 H 0.24003 0.70094 0.11684 0.0
H1506 H 0.26884 0.69013 0.0645 0.0
C1507 C 0.34799 0.62888 0.92062 0.0
C1508 C 0.31281 0.64609 0.01945 0.0
H1509 H 0.26195 0.64976 0.0742 0.0
C1510 C 0.32254 0.65872 0.03513 0.0
C1511 C 0.29047 0.64303 0.03246 0.0
C1512 C 0.27862 0.63006 0.01441 0.0
C1513 C 0.31075 0.66806 0.06551 0.0
C1514 C 0.28876 0.66467 0.07994 0.0
C1515 C 0.2789 0.65226 0.06311 0.0
C1516 C 0.27579 0.67319 0.11503 0.0
C1517 C 0.32233 0.6809 0.08517 0.0
C1518 C 0.27068 0.66741 0.16092 0.0
C1519 C 0.25421 0.67341 0.19017 0.0
C1520 C 0.24272 0.68537 0.17428 0.0
C1521 C 0.24897 0.69183 0.13006 0.0
C1522 C 0.26535 0.68567 0.10025 0.0
H1523 H 0.33848 0.68288 0.06632 0.0
H1524 H 0.31153 0.69025 0.08124 0.0
H1525 H 0.32558 0.67945 0.12496 0.0
H1526 H 0.27843 0.65772 0.17268 0.0
H1527 H 0.2496 0.66825 0.22413 0.0
H1528 H 0.26188 0.70833 0.90793 0.0
H1529 H 0.23712 0.6991 0.97226 0.0
H1530 H 0.20032 0.67601 0.86292 0.0
H1531 H 0.22523 0.68493 0.79914 0.0
H1532 H 0.17412 0.68531 0.94922 0.0
H1533 H 0.25171 0.65529 0.98109 0.0
H1534 H 0.25461 0.67366 0.99489 0.0
H1535 H 0.24921 0.66798 0.93317 0.0
C1536 C 0.24774 0.7019 0.89751 0.0
C1537 C 0.24529 0.69732 0.84885 0.0
C1538 C 0.2337 0.69659 0.93421 0.0
C1539 C 0.21703 0.68682 0.92223 0.0
C1540 C 0.213 0.6836 0.87282 0.0
H1541 H 0.17394 0.60916 0.02517 0.0
H1542 H 0.19131 0.62995 0.99002 0.0
C1543 C 0.22721 0.68869 0.83642 0.0
C1544 C 0.20739 0.67756 0.96021 0.0
H1545 H 0.22061 0.64893 0.02925 0.0
C1546 C 0.18425 0.6776 0.96798 0.0
C1547 C 0.22069 0.66716 0.98277 0.0
C1548 C 0.24539 0.6659 0.97236 0.0
C1549 C 0.17394 0.66736 0.99727 0.0
C1550 C 0.18723 0.65682 0.01926 0.0
C1551 C 0.21049 0.6571 0.01278 0.0
C1552 C 0.17724 0.64433 0.04308 0.0
C1553 C 0.14882 0.66736 0.00176 0.0
C1554 C 0.16386 0.64546 0.08523 0.0
C1555 C 0.15372 0.63354 0.10528 0.0
C1556 C 0.15702 0.6203 0.08378 0.0
C1557 C 0.17103 0.61919 0.0426 0.0
C1558 C 0.181 0.63107 0.02247 0.0
H1559 H 0.14086 0.67517 0.97713 0.0
H1560 H 0.14202 0.65683 0.99304 0.0
H1561 H 0.14404 0.66991 0.04004 0.0
H1562 H 0.16114 0.65554 0.10239 0.0
H1563 H 0.14313 0.63472 0.13724 0.0
H1564 H 0.24534 0.33217 0.70588 0.0
H1565 H 0.21642 0.34024 0.6495 0.0
H1566 H 0.23177 0.30623 0.55099 0.0
H1567 H 0.26066 0.29788 0.60842 0.0
H1568 H 0.23545 0.33536 0.51255 0.0
H1569 H 0.15423 0.32445 0.60227 0.0
H1570 H 0.17493 0.3315 0.64319 0.0
H1571 H 0.17933 0.31463 0.61565 0.0
C1572 C 0.24199 0.32613 0.67303 0.0
C1573 C 0.25498 0.31436 0.66155 0.0
C1574 C 0.22549 0.33073 0.6409 0.0
C1575 C 0.22191 0.32378 0.59633 0.0
C1576 C 0.23418 0.31163 0.58554 0.0
H1577 H 0.13539 0.36739 0.38006 0.0
H1578 H 0.15553 0.34764 0.4175 0.0
C1579 C 0.25049 0.30681 0.61842 0.0
C1580 C 0.20746 0.3305 0.55926 0.0
H1581 H 0.15488 0.34359 0.54427 0.0
C1582 C 0.21769 0.33681 0.51851 0.0
C1583 C 0.18434 0.33238 0.56729 0.0
C1584 C 0.17247 0.32527 0.60924 0.0
C1585 C 0.20561 0.34575 0.48745 0.0
C1586 C 0.18294 0.34853 0.49793 0.0
C1587 C 0.17234 0.34148 0.53662 0.0
C1588 C 0.17103 0.36021 0.47399 0.0
C1589 C 0.21734 0.35276 0.44512 0.0
C1590 C 0.17311 0.37369 0.49365 0.0
C1591 C 0.16165 0.38491 0.4727 0.0
C1592 C 0.14788 0.38286 0.43156 0.0
C1593 C 0.14587 0.3693 0.41175 0.0
C1594 C 0.15734 0.35802 0.43297 0.0
H1595 H 0.23405 0.3481 0.43795 0.0
H1596 H 0.20705 0.35192 0.41135 0.0
H1597 H 0.2195 0.36405 0.45342 0.0
H1598 H 0.18358 0.37552 0.52546 0.0
H1599 H 0.16359 0.3952 0.48883 0.0
H1600 H 0.38113 0.19247 0.10235 0.0
H1601 H 0.39009 0.20436 0.0246 0.0
H1602 H 0.32076 0.21542 0.00685 0.0
H1603 H 0.31175 0.20401 0.08349 0.0
H1604 H 0.34416 0.20652 0.91674 0.0
H1605 H 0.38659 0.24846 0.0246 0.0
H1606 H 0.39528 0.23056 0.03266 0.0
H1607 H 0.36825 0.23598 0.0537 0.0
C1608 C 0.36776 0.19717 0.08128 0.0
C1609 C 0.34571 0.1972 0.09928 0.0
C1610 C 0.37291 0.20397 0.03699 0.0
C1611 C 0.35605 0.21079 0.01019 0.0
C1612 C 0.33398 0.21015 0.02679 0.0
H1613 H 0.31329 0.2704 0.80615 0.0
H1614 H 0.32008 0.24929 0.85447 0.0
C1615 C 0.32889 0.20355 0.07083 0.0
C1616 C 0.36104 0.22001 0.96801 0.0
H1617 H 0.37682 0.25358 0.94373 0.0
C1618 C 0.35184 0.21669 0.92208 0.0
C1619 C 0.371 0.23326 0.97523 0.0
C1620 C 0.38082 0.23741 0.02414 0.0
C1621 C 0.35134 0.22655 0.88386 0.0
C1622 C 0.35973 0.24019 0.89236 0.0
C1623 C 0.37028 0.24316 0.93723 0.0
C1624 C 0.35601 0.25193 0.85754 0.0
C1625 C 0.34136 0.22232 0.83525 0.0
C1626 C 0.37385 0.26059 0.84357 0.0
C1627 C 0.36995 0.27282 0.81684 0.0
C1628 C 0.3481 0.27664 0.80329 0.0
C1629 C 0.33033 0.26769 0.81561 0.0
C1630 C 0.33423 0.25554 0.84292 0.0
H1631 H 0.34371 0.21095 0.82844 0.0
H1632 H 0.32312 0.22438 0.83591 0.0
H1633 H 0.34888 0.22826 0.80436 0.0
H1634 H 0.39077 0.25808 0.8546 0.0
H1635 H 0.38403 0.27944 0.80768 0.0
H1636 H 0.93238 0.93911 0.28904 0.0
H1637 H 0.95757 0.93174 0.35442 0.0
H1638 H 0.94278 0.88849 0.3232 0.0
H1639 H 0.91757 0.89572 0.25724 0.0
H1640 H 0.95295 0.91369 0.43973 0.0
H1641 H 0.01113 0.89293 0.29711 0.0
H1642 H 0.98823 0.9044 0.28164 0.0
H1643 H 0.98287 0.88651 0.29782 0.0
C1644 C 0.93411 0.92803 0.29654 0.0
C1645 C 0.92321 0.91802 0.2673 0.0
C1646 C 0.94849 0.92384 0.33402 0.0
C1647 C 0.95228 0.90958 0.34291 0.0
C1648 C 0.94027 0.89954 0.31631 0.0
H1649 H 0.06407 0.89102 0.5479 0.0
H1650 H 0.03141 0.88538 0.49673 0.0
C1651 C 0.92579 0.90372 0.2788 0.0
C1652 C 0.97037 0.90549 0.37688 0.0
H1653 H 0.02511 0.89539 0.37691 0.0
C1654 C 0.96853 0.90931 0.42639 0.0
C1655 C 0.99068 0.8998 0.35915 0.0
C1656 C 0.99356 0.8957 0.30602 0.0
C1657 C 0.98694 0.90841 0.45798 0.0
C1658 C 0.00762 0.90368 0.43935 0.0
C1659 C 0.0091 0.89892 0.39087 0.0
C1660 C 0.02843 0.90624 0.46669 0.0
C1661 C 0.9847 0.91343 0.51023 0.0
C1662 C 0.03774 0.91967 0.46523 0.0
C1663 C 0.05622 0.9229 0.49398 0.0
C1664 C 0.06579 0.91275 0.52489 0.0
C1665 C 0.05709 0.89906 0.52444 0.0
C1666 C 0.03844 0.89582 0.49548 0.0
H1667 H 0.96693 0.91434 0.5216 0.0
H1668 H 0.99344 0.90618 0.53567 0.0
H1669 H 0.99265 0.92388 0.51373 0.0
H1670 H 0.03025 0.92778 0.44281 0.0
H1671 H 0.06259 0.93351 0.49299 0.0
H1672 H 0.11715 0.729 0.3044 0.0
H1673 H 0.11283 0.75097 0.34921 0.0
H1674 H 0.18451 0.75525 0.35648 0.0
H1675 H 0.1889 0.73358 0.31 0.0
H1676 H 0.12501 0.75451 0.43904 0.0
H1677 H 0.16859 0.79497 0.3311 0.0
H1678 H 0.16109 0.77822 0.30513 0.0
H1679 H 0.18645 0.78017 0.34021 0.0
C1680 C 0.13199 0.7348 0.31456 0.0
C1681 C 0.15338 0.72952 0.30381 0.0
C1682 C 0.12949 0.74738 0.34009 0.0
C1683 C 0.14831 0.75492 0.3558 0.0
C1684 C 0.16969 0.74992 0.34355 0.0
H1685 H 0.194 0.79791 0.59216 0.0
H1686 H 0.18556 0.78794 0.5126 0.0
C1687 C 0.1722 0.73743 0.3173 0.0
C1688 C 0.14573 0.76679 0.39072 0.0
H1689 H 0.16643 0.79905 0.41935 0.0
C1690 C 0.13352 0.76442 0.43402 0.0
C1691 C 0.15672 0.77978 0.38427 0.0
C1692 C 0.16873 0.78348 0.33735 0.0
C1693 C 0.13355 0.77416 0.47253 0.0
C1694 C 0.14599 0.78665 0.46751 0.0
C1695 C 0.15692 0.78947 0.42305 0.0
C1696 C 0.15142 0.79526 0.511 0.0
C1697 C 0.12173 0.77055 0.51983 0.0
C1698 C 0.13515 0.80314 0.53589 0.0
C1699 C 0.13995 0.80899 0.58197 0.0
C1700 C 0.16106 0.80697 0.60363 0.0
C1701 C 0.17754 0.79971 0.57695 0.0
C1702 C 0.1728 0.79401 0.53117 0.0
H1703 H 0.11393 0.76001 0.51872 0.0
H1704 H 0.13368 0.77091 0.55098 0.0
H1705 H 0.10844 0.77838 0.52712 0.0
H1706 H 0.11854 0.80424 0.52069 0.0
H1707 H 0.12689 0.81453 0.60143 0.0
H1708 H 0.55797 0.06441 0.72115 0.0
H1709 H 0.52988 0.07091 0.78194 0.0
H1710 H 0.56258 0.11059 0.80415 0.0
H1711 H 0.5909 0.10424 0.74315 0.0
H1712 H 0.54868 0.09506 0.89329 0.0
H1713 H 0.48103 0.10178 0.7565 0.0
H1714 H 0.49646 0.08577 0.74954 0.0
H1715 H 0.51031 0.10226 0.7403 0.0
C1716 C 0.55937 0.07449 0.73911 0.0
C1717 C 0.57664 0.08384 0.72691 0.0
C1718 C 0.5432 0.07821 0.77361 0.0
C1719 C 0.54398 0.09133 0.79668 0.0
C1720 C 0.56162 0.10049 0.78625 0.0
H1721 H 0.44719 0.1083 0.03704 0.0
H1722 H 0.47497 0.11474 0.97413 0.0
C1723 C 0.57778 0.09681 0.75144 0.0
C1724 C 0.52621 0.09527 0.8317 0.0
H1725 H 0.46955 0.09804 0.84006 0.0
C1726 C 0.53142 0.0961 0.88179 0.0
C1727 C 0.50381 0.09678 0.81627 0.0
C1728 C 0.49753 0.09674 0.76266 0.0
C1729 C 0.51447 0.09714 0.91727 0.0
C1730 C 0.49191 0.0975 0.90191 0.0
C1731 C 0.48689 0.09777 0.85165 0.0
C1732 C 0.47351 0.09477 0.93677 0.0
C1733 C 0.52062 0.09674 0.97095 0.0
C1734 C 0.46311 0.08165 0.93535 0.0
C1735 C 0.44751 0.07798 0.97089 0.0
C1736 C 0.44181 0.08739 0.00846 0.0
C1737 C 0.45128 0.10087 0.0084 0.0
C1738 C 0.46719 0.10452 0.9728 0.0
H1739 H 0.53892 0.09572 0.97668 0.0
H1740 H 0.51486 0.1065 0.98908 0.0
H1741 H 0.51213 0.08781 0.98922 0.0
H1742 H 0.46774 0.07402 0.90774 0.0
H1743 H 0.44033 0.06757 0.96968 0.0
H1744 H 0.37422 0.72104 0.67642 0.0
H1745 H 0.3833 0.74187 0.62852 0.0
H1746 H 0.31654 0.75759 0.65126 0.0
H1747 H 0.30751 0.73696 0.70039 0.0
H1748 H 0.36396 0.74798 0.54447 0.0
H1749 H 0.35185 0.79295 0.66901 0.0
H1750 H 0.35396 0.77519 0.69127 0.0
H1751 H 0.32779 0.7818 0.6682 0.0
C1752 C 0.36158 0.72906 0.67208 0.0
C1753 C 0.34008 0.7273 0.69206 0.0
C1754 C 0.36684 0.74099 0.64478 0.0
C1755 C 0.35072 0.75141 0.6367 0.0
C1756 C 0.32947 0.74991 0.65803 0.0
H1757 H 0.3126 0.80851 0.42379 0.0
H1758 H 0.32013 0.79597 0.49971 0.0
C1759 C 0.32426 0.73803 0.68583 0.0
C1760 C 0.35511 0.76279 0.6008 0.0
H1761 H 0.34965 0.79796 0.58194 0.0
C1762 C 0.36134 0.75895 0.55297 0.0
C1763 C 0.35168 0.7771 0.61186 0.0
C1764 C 0.34617 0.78201 0.66305 0.0
C1765 C 0.36281 0.76887 0.5152 0.0
C1766 C 0.35829 0.78309 0.5257 0.0
C1767 C 0.35314 0.78706 0.57401 0.0
C1768 C 0.35546 0.79342 0.48562 0.0
C1769 C 0.36771 0.76389 0.46367 0.0
C1770 C 0.37309 0.79681 0.45368 0.0
C1771 C 0.3688 0.80391 0.40964 0.0
C1772 C 0.34681 0.80769 0.39727 0.0
C1773 C 0.32967 0.80548 0.43178 0.0
C1774 C 0.33395 0.79839 0.47542 0.0
H1775 H 0.36755 0.75229 0.46073 0.0
H1776 H 0.35527 0.76819 0.43747 0.0
H1777 H 0.38448 0.76764 0.45237 0.0
H1778 H 0.38989 0.79323 0.46136 0.0
H1779 H 0.38235 0.80553 0.38392 0.0
H1780 H 0.44712 0.89395 0.43611 0.0
H1781 H 0.47915 0.88801 0.48872 0.0
H1782 H 0.45987 0.92052 0.59009 0.0
H1783 H 0.42837 0.92666 0.53742 0.0
H1784 H 0.51177 0.91078 0.509 0.0
H1785 H 0.47846 0.88617 0.67803 0.0
H1786 H 0.46416 0.88534 0.61959 0.0
H1787 H 0.46227 0.90082 0.65685 0.0
C1788 C 0.44936 0.89948 0.47048 0.0
C1789 C 0.43543 0.91078 0.48287 0.0
C1790 C 0.46764 0.89612 0.50029 0.0
C1791 C 0.4717 0.90378 0.5433 0.0
C1792 C 0.4568 0.91437 0.55736 0.0
H1793 H 0.56649 0.94362 0.70867 0.0
H1794 H 0.54199 0.93466 0.64419 0.0
C1795 C 0.4389 0.9179 0.52722 0.0
C1796 C 0.49303 0.90248 0.56996 0.0
H1797 H 0.51317 0.89886 0.68617 0.0
C1798 C 0.51234 0.90778 0.54738 0.0
C1799 C 0.49367 0.8985 0.61981 0.0
C1800 C 0.47358 0.89226 0.64497 0.0
C1801 C 0.53176 0.91036 0.57469 0.0
C1802 C 0.53169 0.90759 0.62558 0.0
C1803 C 0.51307 0.90111 0.64714 0.0
C1804 C 0.54946 0.91286 0.65826 0.0
C1805 C 0.55181 0.91667 0.54953 0.0
C1806 C 0.56202 0.90356 0.68678 0.0
C1807 C 0.57613 0.90865 0.72347 0.0
C1808 C 0.57756 0.92313 0.73288 0.0
C1809 C 0.56576 0.93243 0.7025 0.0
C1810 C 0.55183 0.92733 0.66548 0.0
H1811 H 0.55164 0.91452 0.50945 0.0
H1812 H 0.55158 0.92818 0.55477 0.0
H1813 H 0.56758 0.91255 0.56543 0.0
H1814 H 0.56027 0.89236 0.68186 0.0
H1815 H 0.58496 0.90115 0.74612 0.0
H1816 H 0.16899 0.19685 0.92036 0.0
H1817 H 0.16094 0.21008 0.99443 0.0
H1818 H 0.09839 0.22378 0.93236 0.0
H1819 H 0.10672 0.21078 0.85676 0.0
H1820 H 0.12536 0.24527 0.95764 0.0
H1821 H 0.12158 0.20869 0.11385 0.0
H1822 H 0.14603 0.2055 0.07763 0.0
H1823 H 0.11878 0.20287 0.05105 0.0
C1824 C 0.15315 0.20231 0.92295 0.0
C1825 C 0.13857 0.20291 0.88251 0.0
C1826 C 0.14846 0.20976 0.96569 0.0
C1827 C 0.12895 0.2178 0.96932 0.0
C1828 C 0.11347 0.21753 0.93049 0.0
H1829 H 0.11932 0.29096 0.16387 0.0
H1830 H 0.10753 0.27162 0.11124 0.0
C1831 C 0.11818 0.21005 0.88742 0.0
C1832 C 0.12708 0.22827 0.00935 0.0
H1833 H 0.13429 0.23239 0.13291 0.0
C1834 C 0.12668 0.24247 0.99611 0.0
C1835 C 0.1291 0.2246 0.05948 0.0
C1836 C 0.12868 0.20956 0.07629 0.0
C1837 C 0.12976 0.25306 0.03111 0.0
C1838 C 0.13276 0.24937 0.08101 0.0
C1839 C 0.13206 0.2352 0.09465 0.0
C1840 C 0.1384 0.26003 0.1186 0.0
C1841 C 0.13123 0.26805 0.01378 0.0
C1842 C 0.15921 0.25958 0.14231 0.0
C1843 C 0.16593 0.27055 0.17293 0.0
C1844 C 0.15197 0.28221 0.18022 0.0
C1845 C 0.13063 0.28224 0.15853 0.0
C1846 C 0.12386 0.27121 0.1283 0.0
H1847 H 0.13344 0.26878 0.97336 0.0
H1848 H 0.11557 0.27361 0.0235 0.0
H1849 H 0.14536 0.27356 0.03176 0.0
H1850 H 0.17066 0.25102 0.13545 0.0
H1851 H 0.18244 0.27016 0.18911 0.0
H1852 H 0.02977 0.0713 0.92652 0.0
H1853 H 0.00016 0.08047 0.97783 0.0
H1854 H 0.04304 0.11418 0.02496 0.0
H1855 H 0.07331 0.10488 0.97314 0.0
H1856 H 0.02464 0.09965 0.10132 0.0
H1857 H 0.95742 0.11308 0.97225 0.0
H1858 H 0.96846 0.09623 0.95668 0.0
H1859 H 0.98622 0.11146 0.95302 0.0
C1860 C 0.03296 0.08076 0.94728 0.0
C1861 C 0.05401 0.08727 0.94621 0.0
C1862 C 0.01581 0.08614 0.97605 0.0
C1863 C 0.01918 0.09819 0.00441 0.0
C1864 C 0.04 0.10498 0.00269 0.0
H1865 H 0.91916 0.10502 0.24238 0.0
H1866 H 0.94319 0.11476 0.17795 0.0
C1867 C 0.05726 0.09964 0.97329 0.0
C1868 C 0.00187 0.10209 0.04071 0.0
H1869 H 0.94507 0.10279 0.05149 0.0
C1870 C 0.00731 0.10095 0.09062 0.0
C1871 C 0.97926 0.1039 0.02683 0.0
C1872 C 0.97258 0.1064 0.97421 0.0
C1873 C 0.99055 0.09986 0.12635 0.0
C1874 C 0.96794 0.0999 0.11157 0.0
C1875 C 0.96248 0.10257 0.06248 0.0
C1876 C 0.95044 0.09471 0.14495 0.0
C1877 C 0.99702 0.09736 0.17914 0.0
C1878 C 0.94613 0.0803 0.14637 0.0
C1879 C 0.93259 0.07468 0.18308 0.0
C1880 C 0.92308 0.08342 0.21893 0.0
C1881 C 0.9262 0.09801 0.21526 0.0
C1882 C 0.93993 0.10361 0.17861 0.0
H1883 H 0.01513 0.09911 0.18553 0.0
H1884 H 0.98735 0.1044 0.20367 0.0
H1885 H 0.9929 0.08642 0.1894 0.0
H1886 H 0.95418 0.07331 0.12052 0.0
H1887 H 0.93043 0.06344 0.18464 0.0
H1888 H 0.62379 0.80294 0.89208 0.0
H1889 H 0.62292 0.79103 0.97168 0.0
H1890 H 0.68886 0.80661 0.00375 0.0
H1891 H 0.68989 0.81839 0.92455 0.0
H1892 H 0.68896 0.77989 0.00642 0.0
H1893 H 0.61698 0.7977 0.11604 0.0
H1894 H 0.60793 0.79202 0.05657 0.0
H1895 H 0.62615 0.80695 0.06188 0.0
C1896 C 0.63761 0.80438 0.91723 0.0
C1897 C 0.65695 0.81151 0.90216 0.0
C1898 C 0.63712 0.79757 0.96281 0.0
C1899 C 0.65583 0.79801 0.99407 0.0
C1900 C 0.6742 0.80625 0.98065 0.0
H1901 H 0.69494 0.73712 0.22202 0.0
H1902 H 0.69287 0.75918 0.17629 0.0
C1903 C 0.67476 0.81297 0.93529 0.0
C1904 C 0.65807 0.78799 0.03558 0.0
H1905 H 0.6312 0.77438 0.13537 0.0
C1906 C 0.67654 0.77891 0.03522 0.0
C1907 C 0.64187 0.78663 0.07308 0.0
C1908 C 0.62226 0.79646 0.07718 0.0
C1909 C 0.6787 0.76808 0.06957 0.0
C1910 C 0.66205 0.76636 0.1059 0.0
C1911 C 0.64397 0.77573 0.1075 0.0
C1912 C 0.66204 0.75402 0.13896 0.0
C1913 C 0.69815 0.7581 0.06489 0.0
C1914 C 0.64497 0.74407 0.13462 0.0
C1915 C 0.64601 0.73152 0.16077 0.0
C1916 C 0.6642 0.72864 0.19198 0.0
C1917 C 0.6808 0.73893 0.19802 0.0
C1918 C 0.67968 0.75153 0.17184 0.0
H1919 H 0.70704 0.7593 0.02933 0.0
H1920 H 0.71029 0.76018 0.09478 0.0
H1921 H 0.69246 0.74708 0.06828 0.0
H1922 H 0.63121 0.74576 0.10948 0.0
H1923 H 0.63282 0.72393 0.15535 0.0
H1924 H 0.06469 0.05727 0.7103 0.0
H1925 H 0.04002 0.06532 0.64495 0.0
H1926 H 0.05756 0.10814 0.67645 0.0
H1927 H 0.08249 0.10022 0.74212 0.0
H1928 H 0.00324 0.08516 0.6692 0.0
H1929 H 0.06047 0.1036 0.5212 0.0
H1930 H 0.06936 0.09079 0.5659 0.0
H1931 H 0.06563 0.10867 0.58395 0.0
C1932 C 0.0637 0.06839 0.70286 0.0
C1933 C 0.07546 0.07809 0.73179 0.0
C1934 C 0.04955 0.07297 0.66554 0.0
C1935 C 0.04693 0.0873 0.65618 0.0
C1936 C 0.05949 0.09702 0.68304 0.0
H1937 H 0.92742 0.10242 0.47218 0.0
H1938 H 0.95596 0.109 0.53297 0.0
C1939 C 0.07374 0.09245 0.72048 0.0
C1940 C 0.02962 0.09186 0.62103 0.0
H1941 H 0.02219 0.1022 0.50238 0.0
C1942 C 0.00724 0.08919 0.63302 0.0
C1943 C 0.03505 0.0972 0.57425 0.0
C1944 C 0.05891 0.10025 0.5601 0.0
C1945 C 0.99021 0.09075 0.59814 0.0
C1946 C 0.99578 0.09524 0.5502 0.0
C1947 C 0.018 0.09885 0.5393 0.0
C1948 C 0.97988 0.09342 0.50914 0.0
C1949 C 0.96671 0.08649 0.61171 0.0
C1950 C 0.9843 0.08293 0.47458 0.0
C1951 C 0.9682 0.07917 0.44027 0.0
C1952 C 0.94727 0.08585 0.43956 0.0
C1953 C 0.94333 0.09701 0.47211 0.0
C1954 C 0.95956 0.10076 0.50685 0.0
H1955 H 0.96574 0.08184 0.64904 0.0
H1956 H 0.95567 0.09581 0.61072 0.0
H1957 H 0.96016 0.07876 0.58491 0.0
H1958 H 0.99987 0.07714 0.47568 0.0
H1959 H 0.97196 0.0707 0.41516 0.0
H1960 H 0.85184 0.29048 0.60811 0.0
H1961 H 0.85497 0.26822 0.56543 0.0
H1962 H 0.81589 0.2482 0.67844 0.0
H1963 H 0.81223 0.2707 0.72131 0.0
H1964 H 0.87398 0.24359 0.59815 0.0
H1965 H 0.78388 0.23605 0.55343 0.0
H1966 H 0.79463 0.2526 0.57481 0.0
H1967 H 0.79102 0.23834 0.617 0.0
C1968 C 0.84379 0.28139 0.62398 0.0
C1969 C 0.83175 0.28239 0.66816 0.0
C1970 C 0.84566 0.26864 0.59953 0.0
C1971 C 0.83562 0.25654 0.61861 0.0
C1972 C 0.82351 0.25744 0.66268 0.0
H1973 H 0.83241 0.18238 0.42511 0.0
H1974 H 0.83358 0.19407 0.50573 0.0
C1975 C 0.82146 0.2703 0.68713 0.0
C1976 C 0.83811 0.24318 0.59141 0.0
H1977 H 0.80943 0.22063 0.51743 0.0
C1978 C 0.85982 0.23838 0.58131 0.0
C1979 C 0.81962 0.23628 0.56989 0.0
C1980 C 0.79595 0.24107 0.57892 0.0
C1981 C 0.86361 0.22758 0.54749 0.0
C1982 C 0.84525 0.22145 0.52315 0.0
C1983 C 0.82347 0.22537 0.53633 0.0
C1984 C 0.84827 0.21318 0.47773 0.0
C1985 C 0.88729 0.22331 0.53602 0.0
C1986 C 0.85645 0.21998 0.43579 0.0
C1987 C 0.85546 0.21346 0.39013 0.0
C1988 C 0.84662 0.19993 0.38572 0.0
C1989 C 0.83972 0.19272 0.42801 0.0
C1990 C 0.84026 0.1994 0.47384 0.0
H1991 H 0.89865 0.22559 0.56726 0.0
H1992 H 0.8883 0.21199 0.52706 0.0
H1993 H 0.89328 0.22932 0.50374 0.0
H1994 H 0.86228 0.2307 0.43785 0.0
H1995 H 0.86055 0.21926 0.35783 0.0
H1996 H 0.44591 0.94123 0.2457 0.0
H1997 H 0.4714 0.93463 0.17979 0.0
H1998 H 0.44758 0.89209 0.18657 0.0
H1999 H 0.42176 0.89858 0.25236 0.0
H2000 H 0.5054 0.91357 0.18874 0.0
H2001 H 0.44494 0.90226 0.03835 0.0
H2002 H 0.43728 0.91245 0.09157 0.0
H2003 H 0.44057 0.89386 0.09669 0.0
C2004 C 0.44584 0.9305 0.23291 0.0
C2005 C 0.43177 0.92044 0.25448 0.0
C2006 C 0.46048 0.92674 0.19533 0.0
C2007 C 0.46133 0.91288 0.17839 0.0
C2008 C 0.447 0.90286 0.19885 0.0
H2009 H 0.57677 0.89861 0.98044 0.0
H2010 H 0.54874 0.8918 0.04215 0.0
C2011 C 0.43227 0.90662 0.23648 0.0
C2012 C 0.47791 0.90904 0.14047 0.0
H2013 H 0.48309 0.90169 0.01849 0.0
C2014 C 0.50062 0.9107 0.15168 0.0
C2015 C 0.47149 0.9052 0.09242 0.0
C2016 C 0.44726 0.90338 0.07862 0.0
C2017 C 0.51708 0.90955 0.11526 0.0
C2018 C 0.51057 0.9065 0.06652 0.0
C2019 C 0.48798 0.90392 0.05602 0.0
C2020 C 0.52611 0.90879 0.02506 0.0
C2021 C 0.54106 0.91266 0.12844 0.0
C2022 C 0.5222 0.9202 0.99402 0.0
C2023 C 0.53801 0.92409 0.95921 0.0
C2024 C 0.55812 0.91661 0.95446 0.0
C2025 C 0.56149 0.90462 0.98352 0.0
C2026 C 0.54557 0.90075 0.0188 0.0
H2027 H 0.54288 0.91627 0.167 0.0
H2028 H 0.55126 0.90306 0.12369 0.0
H2029 H 0.54795 0.92084 0.10373 0.0
H2030 H 0.50729 0.92653 0.9982 0.0
H2031 H 0.53469 0.93323 0.93687 0.0
H2032 H 0.62301 0.27897 0.31286 0.0
H2033 H 0.61568 0.25832 0.36301 0.0
H2034 H 0.68618 0.24918 0.36725 0.0
H2035 H 0.69369 0.26977 0.31598 0.0
H2036 H 0.65848 0.22492 0.35899 0.0
H2037 H 0.63074 0.26026 0.50929 0.0
H2038 H 0.61587 0.26236 0.45256 0.0
H2039 H 0.6451 0.2666 0.45554 0.0
C2040 C 0.63698 0.27249 0.32389 0.0
C2041 C 0.65899 0.27614 0.31099 0.0
C2042 C 0.63273 0.2607 0.35265 0.0
C2043 C 0.65041 0.2524 0.36975 0.0
C2044 C 0.6723 0.2555 0.35461 0.0
H2045 H 0.67956 0.19315 0.58862 0.0
H2046 H 0.67663 0.20573 0.51179 0.0
C2047 C 0.67657 0.26727 0.32534 0.0
C2048 C 0.64623 0.24123 0.40646 0.0
H2049 H 0.62856 0.23612 0.52424 0.0
C2050 C 0.65179 0.22732 0.39502 0.0
C2051 C 0.63746 0.24439 0.45344 0.0
C2052 C 0.63211 0.25921 0.46878 0.0
C2053 C 0.64901 0.21652 0.42958 0.0
C2054 C 0.64075 0.21977 0.47693 0.0
C2055 C 0.6346 0.2336 0.48774 0.0
C2056 C 0.64111 0.20956 0.51798 0.0
C2057 C 0.65506 0.20175 0.41523 0.0
C2058 C 0.62206 0.2073 0.54721 0.0
C2059 C 0.62374 0.20002 0.59177 0.0
C2060 C 0.64458 0.19506 0.608 0.0
C2061 C 0.66324 0.19666 0.57709 0.0
C2062 C 0.66156 0.20383 0.53276 0.0
H2063 H 0.65382 0.20021 0.3749 0.0
H2064 H 0.67258 0.19962 0.42613 0.0
H2065 H 0.64413 0.194 0.43387 0.0
H2066 H 0.60612 0.21176 0.53669 0.0
H2067 H 0.60905 0.19904 0.61474 0.0
H2068 H 0.43245 0.10561 0.23039 0.0
H2069 H 0.45911 0.11407 0.29183 0.0
H2070 H 0.47651 0.07152 0.32776 0.0
H2071 H 0.45002 0.06293 0.26667 0.0
H2072 H 0.47066 0.09157 0.41143 0.0
H2073 H 0.52845 0.10937 0.26338 0.0
H2074 H 0.49971 0.11495 0.26179 0.0
H2075 H 0.50643 0.09691 0.25152 0.0
C2076 C 0.44165 0.09803 0.25196 0.0
C2077 C 0.43925 0.08357 0.24323 0.0
C2078 C 0.45693 0.10291 0.28687 0.0
C2079 C 0.4699 0.09341 0.3138 0.0
C2080 C 0.46666 0.079 0.30716 0.0
H2081 H 0.588 0.07697 0.45007 0.0
H2082 H 0.55723 0.08275 0.39501 0.0
C2083 C 0.45154 0.07412 0.27213 0.0
C2084 C 0.48805 0.09825 0.34647 0.0
H2085 H 0.54259 0.10868 0.34358 0.0
C2086 C 0.48622 0.09567 0.39696 0.0
C2087 C 0.50829 0.10354 0.32717 0.0
C2088 C 0.51107 0.10635 0.273 0.0
C2089 C 0.50457 0.09749 0.42837 0.0
C2090 C 0.52521 0.102 0.40858 0.0
C2091 C 0.52666 0.10535 0.35857 0.0
C2092 C 0.54612 0.10064 0.43707 0.0
C2093 C 0.50228 0.09359 0.48182 0.0
C2094 C 0.55065 0.10921 0.47773 0.0
C2095 C 0.56848 0.106 0.50916 0.0
C2096 C 0.58169 0.09408 0.50044 0.0
C2097 C 0.578 0.08617 0.45777 0.0
C2098 C 0.56046 0.08947 0.42626 0.0
H2099 H 0.48544 0.08941 0.49066 0.0
H2100 H 0.51496 0.0856 0.49177 0.0
H2101 H 0.50532 0.10296 0.50496 0.0
H2102 H 0.53979 0.11793 0.48643 0.0
H2103 H 0.5709 0.11222 0.54197 0.0
H2104 H 0.87932 0.80555 0.11517 0.0
H2105 H 0.88708 0.79305 0.03839 0.0
H2106 H 0.81814 0.79768 0.99542 0.0
H2107 H 0.8103 0.80992 0.07183 0.0
H2108 H 0.86498 0.76799 0.02464 0.0
H2109 H 0.85102 0.80236 0.86513 0.0
H2110 H 0.85459 0.80916 0.92653 0.0
H2111 H 0.8277 0.80288 0.90625 0.0
C2112 C 0.86605 0.80438 0.08849 0.0
C2113 C 0.84415 0.80862 0.09969 0.0
C2114 C 0.87048 0.7972 0.04468 0.0
C2115 C 0.8532 0.79444 0.01111 0.0
C2116 C 0.83183 0.79983 0.02031 0.0
H2117 H 0.80886 0.73376 0.8054 0.0
H2118 H 0.81569 0.75453 0.85594 0.0
C2119 C 0.82734 0.80679 0.06421 0.0
C2120 C 0.8561 0.78382 0.97193 0.0
H2121 H 0.84517 0.77738 0.85096 0.0
C2122 C 0.86121 0.77009 0.9864 0.0
C2123 C 0.85088 0.78654 0.92222 0.0
C2124 C 0.84596 0.8011 0.90412 0.0
C2125 C 0.85995 0.75889 0.95324 0.0
C2126 C 0.85394 0.76155 0.90384 0.0
C2127 C 0.84974 0.77535 0.88884 0.0
C2128 C 0.85066 0.74998 0.86826 0.0
C2129 C 0.86377 0.74423 0.97217 0.0
C2130 C 0.86823 0.74082 0.85702 0.0
C2131 C 0.86433 0.72889 0.82867 0.0
C2132 C 0.84284 0.726 0.81032 0.0
C2133 C 0.82558 0.73567 0.81903 0.0
C2134 C 0.82946 0.74754 0.84788 0.0
H2135 H 0.86308 0.74373 0.01289 0.0
H2136 H 0.85115 0.73688 0.95711 0.0
H2137 H 0.88055 0.74059 0.96048 0.0
H2138 H 0.88483 0.74268 0.8714 0.0
H2139 H 0.87809 0.72177 0.82204 0.0
H2140 H 0.08433 0.89689 0.75437 0.0
H2141 H 0.05757 0.8902 0.81791 0.0
H2142 H 0.03225 0.93243 0.82156 0.0
H2143 H 0.05876 0.93925 0.75772 0.0
H2144 H 0.05069 0.90067 0.91334 0.0
H2145 H 0.9763 0.90826 0.79566 0.0
H2146 H 0.00428 0.90707 0.77111 0.0
H2147 H 0.99429 0.9233 0.79646 0.0
C2148 C 0.07318 0.90481 0.76884 0.0
C2149 C 0.07357 0.91861 0.75054 0.0
C2150 C 0.05788 0.90093 0.80509 0.0
C2151 C 0.04264 0.91074 0.82347 0.0
C2152 C 0.04357 0.92463 0.80689 0.0
H2153 H 0.96943 0.92682 0.07119 0.0
H2154 H 0.99783 0.9209 0.01091 0.0
C2155 C 0.05887 0.92854 0.7707 0.0
C2156 C 0.02575 0.90657 0.86024 0.0
H2157 H 0.96978 0.90784 0.88284 0.0
C2158 C 0.03297 0.90198 0.90649 0.0
C2159 C 0.00262 0.90787 0.85073 0.0
C2160 C 0.99387 0.91174 0.80061 0.0
C2161 C 0.01769 0.8998 0.94479 0.0
C2162 C 0.99476 0.90248 0.93657 0.0
C2163 C 0.9874 0.90591 0.8892 0.0
C2164 C 0.97882 0.90414 0.97762 0.0
C2165 C 0.0263 0.89517 0.9942 0.0
C2166 C 0.95865 0.89663 0.97905 0.0
C2167 C 0.94223 0.90001 0.01378 0.0
C2168 C 0.94567 0.91116 0.04659 0.0
C2169 C 0.96623 0.91825 0.04611 0.0
C2170 C 0.98261 0.91477 0.01202 0.0
H2171 H 0.04176 0.88884 0.99029 0.0
H2172 H 0.03046 0.90454 0.01648 0.0
H2173 H 0.01361 0.88892 0.01433 0.0
H2174 H 0.95534 0.88848 0.95236 0.0
H2175 H 0.92649 0.89442 0.01329 0.0
H2176 H 0.80577 0.76826 0.27887 0.0
H2177 H 0.80938 0.74679 0.32737 0.0
H2178 H 0.87018 0.76247 0.39182 0.0
H2179 H 0.86701 0.7838 0.34323 0.0
H2180 H 0.8714 0.73319 0.36961 0.0
H2181 H 0.79581 0.74879 0.47535 0.0
H2182 H 0.79212 0.74731 0.41014 0.0
H2183 H 0.81005 0.76069 0.43457 0.0
C2184 C 0.82009 0.76708 0.30285 0.0
C2185 C 0.83593 0.77787 0.30756 0.0
C2186 C 0.82209 0.7548 0.33059 0.0
C2187 C 0.83989 0.75314 0.36367 0.0
C2188 C 0.85631 0.76355 0.36655 0.0
H2189 H 0.87627 0.70431 0.61523 0.0
H2190 H 0.87844 0.71672 0.53658 0.0
C2191 C 0.85437 0.77579 0.33886 0.0
C2192 C 0.84047 0.74124 0.39857 0.0
H2193 H 0.8136 0.72807 0.49871 0.0
C2194 C 0.85868 0.73195 0.39762 0.0
C2195 C 0.82392 0.73971 0.43521 0.0
C2196 C 0.80444 0.74969 0.43938 0.0
C2197 C 0.86076 0.72116 0.43253 0.0
C2198 C 0.84443 0.71984 0.46976 0.0
C2199 C 0.82606 0.729 0.46999 0.0
C2200 C 0.84616 0.7096 0.51064 0.0
C2201 C 0.8803 0.71125 0.42906 0.0
C2202 C 0.82771 0.70114 0.52168 0.0
C2203 C 0.82626 0.69436 0.56687 0.0
C2204 C 0.84343 0.69566 0.60157 0.0
C2205 C 0.86295 0.70296 0.58876 0.0
C2206 C 0.8642 0.71003 0.54371 0.0
H2207 H 0.88699 0.71076 0.39105 0.0
H2208 H 0.89389 0.71503 0.45336 0.0
H2209 H 0.87556 0.70053 0.44088 0.0
H2210 H 0.81365 0.70068 0.4968 0.0
H2211 H 0.811 0.6889 0.57623 0.0
H2212 H 0.41848 0.39623 0.74252 0.0
H2213 H 0.44462 0.38929 0.80721 0.0
H2214 H 0.47066 0.43134 0.81208 0.0
H2215 H 0.44492 0.43836 0.74731 0.0
H2216 H 0.50371 0.40995 0.80543 0.0
H2217 H 0.44192 0.39987 0.95439 0.0
H2218 H 0.43779 0.39114 0.8966 0.0
H2219 H 0.43483 0.40979 0.90019 0.0
C2220 C 0.42961 0.40405 0.75768 0.0
C2221 C 0.42956 0.41788 0.73967 0.0
C2222 C 0.44452 0.40004 0.79466 0.0
C2223 C 0.4595 0.40981 0.81445 0.0
C2224 C 0.45927 0.42363 0.79709 0.0
H2225 H 0.53059 0.43047 0.05844 0.0
H2226 H 0.50413 0.42388 0.99508 0.0
C2227 C 0.44446 0.42764 0.76016 0.0
C2228 C 0.47575 0.40583 0.85291 0.0
H2229 H 0.47986 0.39904 0.97549 0.0
C2230 C 0.49859 0.40728 0.84246 0.0
C2231 C 0.46891 0.40227 0.90096 0.0
C2232 C 0.44455 0.40072 0.91413 0.0
C2233 C 0.51474 0.40621 0.87958 0.0
C2234 C 0.50779 0.40347 0.92825 0.0
C2235 C 0.48508 0.40105 0.93802 0.0
C2236 C 0.52297 0.4059 0.97024 0.0
C2237 C 0.53888 0.4091 0.86716 0.0
C2238 C 0.54217 0.39774 0.97816 0.0
C2239 C 0.55756 0.40154 0.01465 0.0
C2240 C 0.55393 0.41359 0.0433 0.0
C2241 C 0.53412 0.42126 0.03657 0.0
C2242 C 0.51884 0.41745 0.00056 0.0
H2243 H 0.5411 0.41244 0.8284 0.0
H2244 H 0.54565 0.4174 0.89149 0.0
H2245 H 0.54889 0.39948 0.87317 0.0
H2246 H 0.54551 0.38869 0.95539 0.0
H2247 H 0.57261 0.39538 0.01916 0.0
H2248 H 0.62976 0.3003 0.10705 0.0
H2249 H 0.62964 0.28776 0.02851 0.0
H2250 H 0.6982 0.29977 0.00404 0.0
H2251 H 0.69871 0.31159 0.08356 0.0
H2252 H 0.64033 0.29199 0.92768 0.0
H2253 H 0.70174 0.25739 0.02159 0.0
H2254 H 0.68645 0.27081 0.05375 0.0
H2255 H 0.70999 0.27538 0.01601 0.0
C2256 C 0.64455 0.30064 0.08416 0.0
C2257 C 0.66435 0.30677 0.10152 0.0
C2258 C 0.64449 0.29346 0.03933 0.0
C2259 C 0.66412 0.29251 0.0112 0.0
C2260 C 0.68305 0.30008 0.02578 0.0
H2261 H 0.69533 0.22622 0.79885 0.0
H2262 H 0.69775 0.24841 0.84373 0.0
C2263 C 0.68326 0.30695 0.07095 0.0
C2264 C 0.66575 0.28203 0.97125 0.0
H2265 H 0.6906 0.2509 0.94256 0.0
C2266 C 0.65147 0.28308 0.9306 0.0
C2267 C 0.68031 0.27038 0.97522 0.0
C2268 C 0.69537 0.2683 0.01911 0.0
C2269 C 0.65109 0.27265 0.89419 0.0
C2270 C 0.66512 0.2608 0.89907 0.0
C2271 C 0.67996 0.26003 0.93875 0.0
C2272 C 0.66314 0.24838 0.86671 0.0
C2273 C 0.63552 0.27435 0.8511 0.0
C2274 C 0.64293 0.24099 0.86486 0.0
C2275 C 0.64151 0.22833 0.83956 0.0
C2276 C 0.66035 0.22268 0.81571 0.0
C2277 C 0.6805 0.23026 0.81669 0.0
C2278 C 0.6819 0.24295 0.84223 0.0
H2279 H 0.63185 0.28557 0.84393 0.0
H2280 H 0.64265 0.26962 0.81731 0.0
H2281 H 0.61947 0.26905 0.85939 0.0
H2282 H 0.6284 0.24475 0.88456 0.0
H2283 H 0.62569 0.22283 0.83968 0.0
H2284 H 0.93397 0.56696 0.47604 0.0
H2285 H 0.9617 0.57259 0.41386 0.0
H2286 H 0.97034 0.61363 0.477 0.0
H2287 H 0.94229 0.608 0.54023 0.0
H2288 H 0.96441 0.59582 0.34419 0.0
H2289 H 0.03365 0.59424 0.48124 0.0
H2290 H 0.00659 0.58682 0.49469 0.0
H2291 H 0.00997 0.60545 0.49224 0.0
C2292 C 0.94155 0.57725 0.47655 0.0
C2293 C 0.93615 0.58699 0.51336 0.0
C2294 C 0.95734 0.58047 0.44084 0.0
C2295 C 0.96822 0.59344 0.44125 0.0
C2296 C 0.96222 0.6035 0.47648 0.0
H2297 H 0.08622 0.60078 0.2481 0.0
H2298 H 0.0579 0.60765 0.30841 0.0
C2299 C 0.94614 0.60031 0.51227 0.0
C2300 C 0.98671 0.59571 0.40617 0.0
H2301 H 0.04348 0.59302 0.39799 0.0
C2302 C 0.98173 0.59557 0.35587 0.0
C2303 C 0.00926 0.5954 0.42163 0.0
C2304 C 0.01539 0.59544 0.47534 0.0
C2305 C 0.99867 0.59424 0.32066 0.0
C2306 C 0.02106 0.59278 0.33631 0.0
C2307 C 0.02623 0.59401 0.38632 0.0
C2308 C 0.03885 0.58853 0.30173 0.0
C2309 C 0.99242 0.59383 0.26705 0.0
C2310 C 0.03784 0.57532 0.27938 0.0
C2311 C 0.054 0.5713 0.24527 0.0
C2312 C 0.07152 0.58043 0.23277 0.0
C2313 C 0.07291 0.59349 0.25665 0.0
C2314 C 0.05674 0.59747 0.29105 0.0
H2315 H 0.97605 0.59896 0.26037 0.0
H2316 H 0.00533 0.59903 0.24416 0.0
H2317 H 0.99107 0.58276 0.25505 0.0
H2318 H 0.02434 0.56817 0.28794 0.0
H2319 H 0.0524 0.56116 0.22783 0.0
H2320 H 0.88623 0.29661 0.84041 0.0
H2321 H 0.89294 0.28108 0.91073 0.0
H2322 H 0.83832 0.30038 0.98851 0.0
H2323 H 0.83124 0.31563 0.9183 0.0
H2324 H 0.88901 0.28636 0.03862 0.0
H2325 H 0.82635 0.25609 0.93039 0.0
H2326 H 0.84675 0.26718 0.90088 0.0
H2327 H 0.82382 0.27486 0.93349 0.0
C2328 C 0.87641 0.29799 0.87345 0.0
C2329 C 0.85814 0.30722 0.87397 0.0
C2330 C 0.88022 0.2891 0.9135 0.0
C2331 C 0.86601 0.28958 0.95446 0.0
C2332 C 0.84947 0.29992 0.95721 0.0
H2333 H 0.81018 0.23406 0.16444 0.0
H2334 H 0.82023 0.25278 0.10769 0.0
C2335 C 0.84545 0.30861 0.9171 0.0
C2336 C 0.86489 0.27765 0.98876 0.0
H2337 H 0.8351 0.24778 0.00909 0.0
C2338 C 0.87751 0.2778 0.03208 0.0
C2339 C 0.84974 0.26659 0.97989 0.0
C2340 C 0.83587 0.26603 0.93365 0.0
C2341 C 0.87483 0.26724 0.06767 0.0
C2342 C 0.85919 0.25639 0.05928 0.0
C2343 C 0.84704 0.25613 0.01534 0.0
C2344 C 0.8541 0.24557 0.09647 0.0
C2345 C 0.88804 0.26801 0.1147 0.0
C2346 C 0.86985 0.23529 0.10885 0.0
C2347 C 0.86413 0.2245 0.14124 0.0
C2348 C 0.84253 0.22379 0.16164 0.0
C2349 C 0.82693 0.23424 0.14945 0.0
C2350 C 0.83265 0.24498 0.11708 0.0
H2351 H 0.8968 0.2782 0.1188 0.0
H2352 H 0.8769 0.26642 0.14683 0.0
H2353 H 0.90072 0.25954 0.11501 0.0
H2354 H 0.88637 0.23545 0.09264 0.0
H2355 H 0.87655 0.21662 0.14981 0.0
H2356 H 0.97472 0.42717 0.92181 0.0
H2357 H 0.00263 0.42067 0.98227 0.0
H2358 H 0.95666 0.39114 0.04674 0.0
H2359 H 0.92823 0.39777 0.98589 0.0
H2360 H 0.9727 0.40992 0.11282 0.0
H2361 H 0.04375 0.38809 0.00954 0.0
H2362 H 0.0344 0.404 0.98143 0.0
H2363 H 0.01594 0.38911 0.98397 0.0
C2364 C 0.97062 0.41909 0.9482 0.0
C2365 C 0.94919 0.41309 0.94947 0.0
C2366 C 0.98675 0.41524 0.98241 0.0
C2367 C 0.98188 0.40528 0.01861 0.0
C2368 C 0.96082 0.39875 0.0187 0.0
H2369 H 0.08421 0.39891 0.25088 0.0
H2370 H 0.05881 0.39154 0.18535 0.0
C2371 C 0.94463 0.40254 0.984 0.0
C2372 C 0.99759 0.40357 0.06015 0.0
H2373 H 0.05334 0.40084 0.08488 0.0
C2374 C 0.99023 0.40755 0.107 0.0
C2375 C 0.02041 0.40032 0.0528 0.0
C2376 C 0.02901 0.39499 0.00424 0.0
C2377 C 0.00538 0.40956 0.14554 0.0
C2378 C 0.02848 0.40774 0.13668 0.0
C2379 C 0.03565 0.40255 0.09119 0.0
C2380 C 0.04532 0.41224 0.17307 0.0
C2381 C 0.99664 0.41414 0.19493 0.0
C2382 C 0.04676 0.4264 0.18624 0.0
C2383 C 0.06125 0.43067 0.22341 0.0
C2384 C 0.07465 0.42085 0.24811 0.0
C2385 C 0.07407 0.40676 0.23282 0.0
C2386 C 0.05954 0.4025 0.19548 0.0
H2387 H 0.97886 0.41111 0.19994 0.0
H2388 H 0.00665 0.40954 0.22522 0.0
H2389 H 0.99772 0.42571 0.19765 0.0
H2390 H 0.03623 0.43411 0.16851 0.0
H2391 H 0.06136 0.44161 0.23383 0.0
H2392 H 0.62198 0.70596 0.38282 0.0
H2393 H 0.61941 0.7186 0.46102 0.0
H2394 H 0.68322 0.70174 0.50463 0.0
H2395 H 0.68589 0.68918 0.42691 0.0
H2396 H 0.62383 0.71382 0.56565 0.0
H2397 H 0.69471 0.74376 0.48574 0.0
H2398 H 0.67866 0.73137 0.45048 0.0
H2399 H 0.69976 0.72534 0.49244 0.0
C2400 C 0.63496 0.70449 0.41001 0.0
C2401 C 0.65429 0.69681 0.3986 0.0
C2402 C 0.63354 0.71175 0.45458 0.0
C2403 C 0.65136 0.71133 0.48809 0.0
C2404 C 0.66941 0.70234 0.47903 0.0
H2405 H 0.69099 0.77059 0.7142 0.0
H2406 H 0.68734 0.74919 0.66563 0.0
C2407 C 0.67091 0.69517 0.4346 0.0
C2408 C 0.65278 0.7218 0.52805 0.0
H2409 H 0.68271 0.75039 0.5644 0.0
C2410 C 0.63673 0.72179 0.56562 0.0
C2411 C 0.66956 0.73226 0.52761 0.0
C2412 C 0.68654 0.73332 0.48673 0.0
C2413 C 0.63713 0.73195 0.60302 0.0
C2414 C 0.65389 0.7424 0.60236 0.0
C2415 C 0.67003 0.74228 0.56511 0.0
C2416 C 0.65443 0.75416 0.63787 0.0
C2417 C 0.61971 0.73141 0.64296 0.0
C2418 C 0.63703 0.76398 0.63879 0.0
C2419 C 0.63908 0.77625 0.66634 0.0
C2420 C 0.65866 0.77899 0.69336 0.0
C2421 C 0.67569 0.76884 0.6939 0.0
C2422 C 0.67363 0.75659 0.66621 0.0
H2423 H 0.61218 0.72082 0.64614 0.0
H2424 H 0.62696 0.7344 0.67898 0.0
H2425 H 0.60615 0.73892 0.63414 0.0
H2426 H 0.62228 0.76248 0.61638 0.0
H2427 H 0.62561 0.78381 0.66504 0.0
H2428 H 0.56577 0.57068 0.52344 0.0
H2429 H 0.536 0.57813 0.57857 0.0
H2430 H 0.53105 0.61745 0.50165 0.0
H2431 H 0.56131 0.61006 0.44601 0.0
H2432 H 0.53107 0.60617 0.63762 0.0
H2433 H 0.46795 0.59425 0.49297 0.0
H2434 H 0.49512 0.58608 0.49108 0.0
H2435 H 0.49254 0.60444 0.47907 0.0
C2436 C 0.55863 0.58101 0.51863 0.0
C2437 C 0.56571 0.58975 0.4802 0.0
C2438 C 0.54169 0.58526 0.55025 0.0
C2439 C 0.53133 0.59827 0.54384 0.0
C2440 C 0.53893 0.60736 0.50698 0.0
H2441 H 0.42341 0.60704 0.76329 0.0
H2442 H 0.44856 0.61554 0.69875 0.0
C2443 C 0.55621 0.60315 0.47546 0.0
C2444 C 0.5114 0.60144 0.57373 0.0
H2445 H 0.4554 0.59481 0.57489 0.0
C2446 C 0.51436 0.60423 0.62381 0.0
C2447 C 0.48976 0.59875 0.55534 0.0
C2448 C 0.48593 0.59571 0.50167 0.0
C2449 C 0.49639 0.60334 0.65673 0.0
C2450 C 0.47506 0.59952 0.63886 0.0
C2451 C 0.4718 0.59777 0.58828 0.0
C2452 C 0.4573 0.59487 0.67276 0.0
C2453 C 0.50063 0.60529 0.71089 0.0
C2454 C 0.4534 0.58049 0.67819 0.0
C2455 C 0.43921 0.57559 0.71499 0.0
C2456 C 0.42852 0.58502 0.74687 0.0
C2457 C 0.43138 0.5995 0.73932 0.0
C2458 C 0.44578 0.60439 0.70263 0.0
H2459 H 0.51841 0.60772 0.71892 0.0
H2460 H 0.49015 0.61399 0.72497 0.0
H2461 H 0.49586 0.59567 0.73119 0.0
H2462 H 0.46218 0.573 0.65536 0.0
H2463 H 0.43726 0.5644 0.71954 0.0
H2464 H 0.20104 0.23689 0.70599 0.0
H2465 H 0.20221 0.25934 0.66192 0.0
H2466 H 0.13436 0.25301 0.61369 0.0
H2467 H 0.13291 0.23095 0.65755 0.0
H2468 H 0.19739 0.2621 0.56317 0.0
H2469 H 0.13227 0.29367 0.65375 0.0
H2470 H 0.14403 0.27818 0.6817 0.0
H2471 H 0.12166 0.27673 0.63771 0.0
C2472 C 0.18627 0.24043 0.68673 0.0
C2473 C 0.16694 0.23206 0.68515 0.0
C2474 C 0.18694 0.25326 0.66164 0.0
C2475 C 0.16821 0.258 0.63528 0.0
C2476 C 0.1488 0.24981 0.63483 0.0
H2477 H 0.13038 0.30494 0.38757 0.0
H2478 H 0.13125 0.2936 0.46848 0.0
C2479 C 0.14813 0.23705 0.65952 0.0
C2480 C 0.16946 0.27052 0.60309 0.0
H2481 H 0.13987 0.29948 0.56833 0.0
C2482 C 0.18519 0.27048 0.56497 0.0
C2483 C 0.15348 0.28144 0.60541 0.0
C2484 C 0.13707 0.28259 0.64722 0.0
C2485 C 0.18439 0.28043 0.52714 0.0
C2486 C 0.16761 0.29091 0.52802 0.0
C2487 C 0.15258 0.29139 0.56749 0.0
C2488 C 0.1646 0.30074 0.48636 0.0
C2489 C 0.20068 0.27903 0.48501 0.0
C2490 C 0.18228 0.30933 0.47137 0.0
C2491 C 0.18157 0.31603 0.42598 0.0
C2492 C 0.16327 0.31408 0.39451 0.0
C2493 C 0.1445 0.30677 0.41157 0.0
C2494 C 0.14514 0.30016 0.45752 0.0
H2495 H 0.20878 0.26857 0.48425 0.0
H2496 H 0.19224 0.28075 0.44923 0.0
H2497 H 0.21405 0.287 0.48898 0.0
H2498 H 0.19741 0.3099 0.49287 0.0
H2499 H 0.19625 0.32161 0.4134 0.0
H2500 H 0.56602 0.56193 0.22443 0.0
H2501 H 0.5412 0.56983 0.15873 0.0
H2502 H 0.55406 0.6128 0.19775 0.0
H2503 H 0.57915 0.60506 0.26318 0.0
H2504 H 0.50661 0.60295 0.19681 0.0
H2505 H 0.55333 0.59171 0.02529 0.0
H2506 H 0.5546 0.5781 0.07083 0.0
H2507 H 0.56699 0.59483 0.0835 0.0
C2508 C 0.56392 0.57306 0.21848 0.0
C2509 C 0.57449 0.58285 0.24916 0.0
C2510 C 0.54984 0.57755 0.1808 0.0
C2511 C 0.54599 0.59188 0.1734 0.0
C2512 C 0.55702 0.6017 0.20279 0.0
H2513 H 0.44623 0.60825 0.9415 0.0
H2514 H 0.47615 0.61498 -0.00103 0.0
C2515 C 0.57135 0.59723 0.24008 0.0
C2516 C 0.52856 0.59635 0.13853 0.0
H2517 H 0.51338 0.59333 0.01848 0.0
C2518 C 0.50822 0.60123 0.15761 0.0
C2519 C 0.53086 0.59423 0.08752 0.0
C2520 C 0.55269 0.58955 0.06534 0.0
C2521 C 0.48948 0.60285 0.1273 0.0
C2522 C 0.49129 0.59953 0.07699 0.0
C2523 C 0.51211 0.59586 0.0572 0.0
C2524 C 0.47128 0.59713 0.04665 0.0
C2525 C 0.46753 0.60724 0.14961 0.0
C2526 C 0.45865 0.58503 0.05514 0.0
C2527 C 0.44204 0.58107 0.02224 0.0
C2528 C 0.43757 0.58927 0.98066 0.0
C2529 C 0.4493 0.60185 0.97363 0.0
C2530 C 0.46635 0.60567 0.00619 0.0
H2531 H 0.46998 0.61279 0.18505 0.0
H2532 H 0.45814 0.61414 0.12412 0.0
H2533 H 0.45722 0.59779 0.15661 0.0
H2534 H 0.46244 0.57824 0.08591 0.0
H2535 H 0.43318 0.57134 0.02841 0.0
H2536 H 0.36878 0.78501 0.14802 0.0
H2537 H 0.3713 0.76363 0.09912 0.0
H2538 H 0.31048 0.74844 0.16498 0.0
H2539 H 0.30761 0.76983 0.21384 0.0
H2540 H 0.37087 0.73359 0.12453 0.0
H2541 H 0.29774 0.75131 0.01489 0.0
H2542 H 0.31312 0.76294 0.05461 0.0
H2543 H 0.29356 0.75069 0.08017 0.0
C2544 C 0.35603 0.77709 0.15256 0.0
C2545 C 0.33782 0.77925 0.18446 0.0
C2546 C 0.35759 0.76483 0.12475 0.0
C2547 C 0.34099 0.75455 0.1282 0.0
C2548 C 0.32336 0.75635 0.16156 0.0
H2549 H 0.30549 0.68944 0.92528 0.0
H2550 H 0.30963 0.70192 0.00262 0.0
C2551 C 0.32176 0.7686 0.18937 0.0
C2552 C 0.34101 0.74258 0.09374 0.0
H2553 H 0.31296 0.72944 0.99525 0.0
C2554 C 0.35816 0.73257 0.09639 0.0
C2555 C 0.3245 0.7414 0.05694 0.0
C2556 C 0.30626 0.75219 0.05097 0.0
C2557 C 0.35907 0.72128 0.06327 0.0
C2558 C 0.34259 0.72016 0.02628 0.0
C2559 C 0.32543 0.73017 0.02402 0.0
C2560 C 0.3431 0.70932 0.98732 0.0
C2561 C 0.37754 0.71065 0.06832 0.0
C2562 C 0.36098 0.70871 0.95389 0.0
C2563 C 0.35866 0.70147 0.90946 0.0
C2564 C 0.33831 0.69496 0.89786 0.0
C2565 C 0.32137 0.69438 0.93347 0.0
C2566 C 0.32373 0.70151 0.97773 0.0
H2567 H 0.38411 0.71032 0.10644 0.0
H2568 H 0.37176 0.70002 0.05791 0.0
H2569 H 0.39152 0.7136 0.04366 0.0
H2570 H 0.37591 0.71487 0.95994 0.0
H2571 H 0.37181 0.70224 0.88227 0.0
H2572 H 0.07148 0.39226 0.48128 0.0
H2573 H 0.03962 0.3838 0.53047 0.0
H2574 H 0.00435 0.42225 0.50079 0.0
H2575 H 0.03538 0.43062 0.45234 0.0
H2576 H 0.02281 0.39693 0.61398 0.0
H2577 H 0.95599 0.39341 0.47607 0.0
H2578 H 0.98525 0.39329 0.45952 0.0
H2579 H 0.97069 0.40961 0.46873 0.0
C2580 C 0.05679 0.39879 0.48493 0.0
C2581 C 0.05609 0.41216 0.4632 0.0
C2582 C 0.03862 0.39394 0.51277 0.0
C2583 C 0.0194 0.40226 0.51819 0.0
C2584 C 0.01868 0.41546 0.49592 0.0
H2585 H 0.93096 0.43749 0.6974 0.0
H2586 H 0.95381 0.42754 0.63183 0.0
C2587 C 0.0367 0.42032 0.46876 0.0
C2588 C 0.00091 0.39833 0.55152 0.0
H2589 H 0.94423 0.40168 0.55838 0.0
C2590 C 0.00557 0.39735 0.60184 0.0
C2591 C 0.97841 0.39876 0.5356 0.0
C2592 C 0.97233 0.39867 0.4819 0.0
C2593 C 0.98844 0.39852 0.63677 0.0
C2594 C 0.96627 0.40072 0.62068 0.0
C2595 C 0.96133 0.40018 0.57049 0.0
C2596 C 0.94916 0.40607 0.65481 0.0
C2597 C 0.99433 0.39876 0.6906 0.0
C2598 C 0.93834 0.39719 0.68809 0.0
C2599 C 0.92511 0.40284 0.7255 0.0
C2600 C 0.92277 0.41746 0.73039 0.0
C2601 C 0.93252 0.42621 0.6949 0.0
C2602 C 0.94554 0.42055 0.65736 0.0
H2603 H 0.0123 0.39653 0.69712 0.0
H2604 H 0.99032 0.4092 0.70625 0.0
H2605 H 0.98419 0.39088 0.7106 0.0
H2606 H 0.94099 0.38599 0.68652 0.0
H2607 H 0.91786 0.39579 0.75225 0.0
H2608 H 0.18589 0.69656 0.08477 0.0
H2609 H 0.1805 0.70879 0.00743 0.0
H2610 H 0.10919 0.70828 0.02964 0.0
H2611 H 0.11444 0.69642 0.10864 0.0
H2612 H 0.15534 0.7058 0.9188 0.0
H2613 H 0.12656 0.75006 0.03619 0.0
H2614 H 0.13947 0.73465 0.06173 0.0
H2615 H 0.11107 0.734 0.04063 0.0
C2616 C 0.16897 0.69879 0.07297 0.0
C2617 C 0.15061 0.69588 0.10363 0.0
C2618 C 0.16594 0.70572 0.02849 0.0
C2619 C 0.14451 0.7097 0.0134 0.0
C2620 C 0.12592 0.70547 0.04116 0.0
H2621 H 0.12348 0.78103 0.81925 0.0
H2622 H 0.11577 0.75973 0.8657 0.0
C2623 C 0.12894 0.69863 0.08615 0.0
C2624 C 0.14231 0.72 0.97307 0.0
H2625 H 0.13263 0.75472 0.95335 0.0
C2626 C 0.15005 0.71645 0.92605 0.0
C2627 C 0.13549 0.73391 0.98271 0.0
C2628 C 0.12781 0.73849 0.03304 0.0
C2629 C 0.15171 0.72654 0.8887 0.0
C2630 C 0.14578 0.74058 0.89903 0.0
C2631 C 0.13712 0.74396 0.94542 0.0
C2632 C 0.14986 0.75222 0.86408 0.0
C2633 C 0.16004 0.72208 0.83886 0.0
C2634 C 0.17156 0.75501 0.84703 0.0
C2635 C 0.17602 0.76716 0.8201 0.0
C2636 C 0.15892 0.77688 0.8105 0.0
C2637 C 0.13708 0.77383 0.8263 0.0
C2638 C 0.13261 0.76162 0.85273 0.0
H2639 H 0.15631 0.71086 0.83181 0.0
H2640 H 0.15249 0.72847 0.80915 0.0
H2641 H 0.17846 0.72338 0.83744 0.0
H2642 H 0.18529 0.74814 0.85644 0.0
H2643 H 0.19305 0.76923 0.80876 0.0
H2644 H 0.92866 0.60545 0.73682 0.0
H2645 H 0.95602 0.61319 0.79782 0.0
H2646 H 0.97247 0.57023 0.82965 0.0
H2647 H 0.94529 0.56233 0.76878 0.0
H2648 H 0.96654 0.59073 0.91536 0.0
H2649 H 0.02576 0.60697 0.76779 0.0
H2650 H 0.99707 0.61264 0.76512 0.0
H2651 H 0.00368 0.59453 0.75611 0.0
C2652 C 0.93783 0.59762 0.7573 0.0
C2653 C 0.93491 0.58324 0.74757 0.0
C2654 C 0.95348 0.60209 0.79201 0.0
C2655 C 0.96632 0.59227 0.81772 0.0
C2656 C 0.96269 0.57795 0.80996 0.0
H2657 H 0.08258 0.57334 0.95623 0.0
H2658 H 0.05245 0.57981 0.9005 0.0
C2659 C 0.94718 0.57346 0.77509 0.0
C2660 C 0.98462 0.59673 0.85051 0.0
H2661 H 0.03972 0.60588 0.84819 0.0
C2662 C 0.9824 0.59441 0.90105 0.0
C2663 C 0.00521 0.6015 0.83136 0.0
C2664 C 0.0083 0.60406 0.77713 0.0
C2665 C 0.00071 0.59593 0.93275 0.0
C2666 C 0.02168 0.59987 0.91314 0.0
C2667 C 0.02354 0.603 0.86301 0.0
C2668 C 0.04237 0.59805 0.94201 0.0
C2669 C 0.99796 0.59232 0.98634 0.0
C2670 C 0.04729 0.60656 0.98259 0.0
C2671 C 0.06474 0.60294 0.01445 0.0
C2672 C 0.07717 0.59067 0.00622 0.0
C2673 C 0.07315 0.58279 0.96361 0.0
C2674 C 0.05599 0.58649 0.93169 0.0
H2675 H 0.98083 0.58858 0.99503 0.0
H2676 H 0.01009 0.58406 0.99696 0.0
H2677 H 0.00148 0.6017 0.00906 0.0
H2678 H 0.03699 0.61558 0.99087 0.0
H2679 H 0.06745 0.60915 0.04717 0.0
H2680 H 0.38328 0.30707 0.59943 0.0
H2681 H 0.38896 0.29552 0.51986 0.0
H2682 H 0.31761 0.29276 0.50027 0.0
H2683 H 0.31182 0.30396 0.57882 0.0
H2684 H 0.3723 0.26834 0.50815 0.0
H2685 H 0.33749 0.30228 0.36201 0.0
H2686 H 0.3486 0.30913 0.41894 0.0
H2687 H 0.32105 0.30172 0.41716 0.0
C2688 C 0.36884 0.30442 0.57736 0.0
C2689 C 0.3471 0.30644 0.59562 0.0
C2690 C 0.37212 0.29784 0.53194 0.0
C2691 C 0.35371 0.29346 0.50384 0.0
C2692 C 0.33208 0.29635 0.52057 0.0
H2693 H 0.30619 0.23179 0.30917 0.0
H2694 H 0.31349 0.2529 0.35777 0.0
C2695 C 0.32881 0.30272 0.56591 0.0
C2696 C 0.35651 0.28371 0.46209 0.0
H2697 H 0.33803 0.27755 0.34553 0.0
C2698 C 0.3654 0.27044 0.47208 0.0
C2699 C 0.34722 0.28647 0.4154 0.0
C2700 C 0.33823 0.30072 0.40239 0.0
C2701 C 0.36381 0.25953 0.43789 0.0
C2702 C 0.35359 0.26209 0.39185 0.0
C2703 C 0.34577 0.27559 0.38086 0.0
C2704 C 0.34947 0.2506 0.35645 0.0
C2705 C 0.37172 0.24512 0.45279 0.0
C2706 C 0.36728 0.24265 0.33804 0.0
C2707 C 0.36315 0.23051 0.31106 0.0
C2708 C 0.34111 0.22626 0.30107 0.0
C2709 C 0.32332 0.23479 0.31639 0.0
C2710 C 0.32748 0.24685 0.34409 0.0
H2711 H 0.37433 0.24428 0.49306 0.0
H2712 H 0.35952 0.23698 0.44149 0.0
H2713 H 0.38788 0.24286 0.43452 0.0
H2714 H 0.38438 0.24555 0.34607 0.0
H2715 H 0.37722 0.22427 0.29899 0.0
H2716 H 0.42142 0.42443 0.45848 0.0
H2717 H 0.45246 0.41746 0.40579 0.0
H2718 H 0.46892 0.38408 0.50602 0.0
H2719 H 0.43737 0.39089 0.55872 0.0
H2720 H 0.50341 0.40512 0.48828 0.0
H2721 H 0.46897 0.38376 0.31527 0.0
H2722 H 0.4543 0.39899 0.33664 0.0
H2723 H 0.45387 0.38323 0.37278 0.0
C2724 C 0.43115 0.41529 0.46834 0.0
C2725 C 0.42706 0.40818 0.5125 0.0
C2726 C 0.44882 0.41129 0.43818 0.0
C2727 C 0.46287 0.40022 0.45194 0.0
C2728 C 0.45808 0.39256 0.49463 0.0
H2729 H 0.57653 0.39611 0.24973 0.0
H2730 H 0.55091 0.38718 0.31218 0.0
C2731 C 0.44004 0.39641 0.52448 0.0
C2732 C 0.48425 0.39839 0.42562 0.0
H2733 H 0.50485 0.39535 0.30952 0.0
C2734 C 0.50393 0.40257 0.4495 0.0
C2735 C 0.48488 0.39498 0.37523 0.0
C2736 C 0.4644 0.38985 0.34852 0.0
C2737 C 0.52379 0.40466 0.42316 0.0
C2738 C 0.52382 0.40254 0.37187 0.0
C2739 C 0.50471 0.39711 0.34886 0.0
C2740 C 0.54225 0.4076 0.34045 0.0
C2741 C 0.54427 0.40977 0.4499 0.0
C2742 C 0.54617 0.42204 0.33646 0.0
C2743 C 0.56062 0.42722 0.30054 0.0
C2744 C 0.57144 0.41803 0.26802 0.0
C2745 C 0.56852 0.4035 0.2742 0.0
C2746 C 0.55386 0.39834 0.30982 0.0
H2747 H 0.54371 0.40691 0.48941 0.0
H2748 H 0.55972 0.40539 0.43335 0.0
H2749 H 0.5451 0.42135 0.44727 0.0
H2750 H 0.5371 0.42937 0.35934 0.0
H2751 H 0.56252 0.43844 0.29687 0.0
loop_
_geom_bond_atom_site_label_1
_geom_bond_atom_site_label_2
_geom_bond_distance
_geom_bond_site_symmetry_2
_ccdc_geom_bond_type
Co0 O1 2.216 . S
Co0 O2 2.091 . S
Co0 O4 2.004 . S
Co0 O10 2.021 . S
Co0 O12 2.137 . S
Co0 O13 2.244 . S
O1 Co0 2.216 . S
O1 C8 1.247 . S
O2 Co0 2.091 . S
O2 C8 1.261 . S
C3 O12 1.247 . S
C3 O13 1.272 . S
O4 Co0 2.004 . S
O4 C9 1.259 . S
Co5 O6 2.061 . S
Co5 O11 2.052 . S
Co5 O13 2.135 . S
O6 Co5 2.061 . S
O6 C9 1.235 . S
C7 O10 1.238 . S
C7 O11 1.241 . S
C8 O1 1.247 . S
C8 O2 1.261 . S
C9 O4 1.259 . S
C9 O6 1.235 . S
O10 Co0 2.021 . S
O10 C7 1.238 . S
O11 Co5 2.052 . S
O11 C7 1.241 . S
O12 Co0 2.137 . S
O12 C3 1.247 . S
O13 Co0 2.244 . S
O13 C3 1.272 . S
O13 Co5 2.135 . S
Co14 O15 2.216 . S
Co14 O16 2.091 . S
Co14 O18 2.004 . S
Co14 O24 2.021 . S
Co14 O26 2.137 . S
Co14 O27 2.244 . S
O15 Co14 2.216 . S
O15 C22 1.247 . S
O16 Co14 2.091 . S
O16 C22 1.261 . S
C17 O26 1.247 . S
C17 O27 1.272 . S
O18 Co14 2.004 . S
O18 C23 1.259 . S
Co19 O20 2.061 . S
Co19 O25 2.052 . S
Co19 O27 2.135 . S
O20 Co19 2.061 . S
O20 C23 1.235 . S
C21 O24 1.238 . S
C21 O25 1.241 . S
C22 O15 1.247 . S
C22 O16 1.261 . S
C23 O18 1.259 . S
C23 O20 1.235 . S
O24 Co14 2.021 . S
O24 C21 1.238 . S
O25 Co19 2.052 . S
O25 C21 1.241 . S
O26 Co14 2.137 . S
O26 C17 1.247 . S
O27 Co14 2.244 . S
O27 C17 1.272 . S
O27 Co19 2.135 . S
Co28 O29 2.216 . S
Co28 O30 2.091 . S
Co28 O32 2.004 . S
Co28 O38 2.021 . S
Co28 O40 2.137 . S
Co28 O41 2.244 . S
O29 Co28 2.216 . S
O29 C36 1.247 . S
O30 Co28 2.091 . S
O30 C36 1.261 . S
C31 O40 1.247 . S
C31 O41 1.272 . S
O32 Co28 2.004 . S
O32 C37 1.259 . S
Co33 O34 2.061 . S
Co33 O39 2.052 . S
Co33 O41 2.135 . S
O34 Co33 2.061 . S
O34 C37 1.235 . S
C35 O38 1.238 . S
C35 O39 1.241 . S
C36 O29 1.247 . S
C36 O30 1.261 . S
C37 O32 1.259 . S
C37 O34 1.235 . S
O38 Co28 2.021 . S
O38 C35 1.238 . S
O39 Co33 2.052 . S
O39 C35 1.241 . S
O40 Co28 2.137 . S
O40 C31 1.247 . S
O41 Co28 2.244 . S
O41 C31 1.272 . S
O41 Co33 2.135 . S
Co42 O43 2.216 . S
Co42 O44 2.091 . S
Co42 O46 2.004 . S
Co42 O52 2.021 . S
Co42 O54 2.137 . S
Co42 O55 2.244 . S
O43 Co42 2.216 . S
O43 C50 1.247 . S
O44 Co42 2.091 . S
O44 C50 1.261 . S
C45 O54 1.247 . S
C45 O55 1.272 . S
O46 Co42 2.004 . S
O46 C51 1.259 . S
Co47 O48 2.061 . S
Co47 O53 2.052 . S
Co47 O55 2.135 . S
O48 Co47 2.061 . S
O48 C51 1.235 . S
C49 O52 1.238 . S
C49 O53 1.241 . S
C50 O43 1.247 . S
C50 O44 1.261 . S
C51 O46 1.259 . S
C51 O48 1.235 . S
O52 Co42 2.021 . S
O52 C49 1.238 . S
O53 Co47 2.052 . S
O53 C49 1.241 . S
O54 Co42 2.137 . S
O54 C45 1.247 . S
O55 Co42 2.244 . S
O55 C45 1.272 . S
O55 Co47 2.135 . S
Co56 O57 2.216 . S
Co56 O58 2.091 . S
Co56 O60 2.004 . S
Co56 O66 2.021 . S
Co56 O68 2.137 . S
Co56 O69 2.244 . S
O57 Co56 2.216 . S
O57 C64 1.247 . S
O58 Co56 2.091 . S
O58 C64 1.261 . S
C59 O68 1.247 . S
C59 O69 1.272 . S
O60 Co56 2.004 . S
O60 C65 1.259 . S
Co61 O62 2.061 . S
Co61 O67 2.052 . S
Co61 O69 2.135 . S
O62 Co61 2.061 . S
O62 C65 1.235 . S
C63 O66 1.238 . S
C63 O67 1.241 . S
C64 O57 1.247 . S
C64 O58 1.261 . S
C65 O60 1.259 . S
C65 O62 1.235 . S
O66 Co56 2.021 . S
O66 C63 1.238 . S
O67 Co61 2.052 . S
O67 C63 1.241 . S
O68 Co56 2.137 . S
O68 C59 1.247 . S
O69 Co56 2.244 . S
O69 C59 1.272 . S
O69 Co61 2.135 . S
Co70 O71 2.216 . S
Co70 O72 2.091 . S
Co70 O74 2.004 . S
Co70 O80 2.021 . S
Co70 O82 2.137 . S
Co70 O83 2.244 . S
O71 Co70 2.216 . S
O71 C78 1.247 . S
O72 Co70 2.091 . S
O72 C78 1.261 . S
C73 O82 1.247 . S
C73 O83 1.272 . S
O74 Co70 2.004 . S
O74 C79 1.259 . S
Co75 O76 2.061 . S
Co75 O81 2.052 . S
Co75 O83 2.135 . S
O76 Co75 2.061 . S
O76 C79 1.235 . S
C77 O80 1.238 . S
C77 O81 1.241 . S
C78 O71 1.247 . S
C78 O72 1.261 . S
C79 O74 1.259 . S
C79 O76 1.235 . S
O80 Co70 2.021 . S
O80 C77 1.238 . S
O81 Co75 2.052 . S
O81 C77 1.241 . S
O82 Co70 2.137 . S
O82 C73 1.247 . S
O83 Co70 2.244 . S
O83 C73 1.272 . S
O83 Co75 2.135 . S
Co84 O85 2.216 . S
Co84 O86 2.091 . S
Co84 O88 2.004 . S
Co84 O94 2.021 . S
Co84 O96 2.137 . S
Co84 O97 2.244 . S
O85 Co84 2.216 . S
O85 C92 1.247 . S
O86 Co84 2.091 . S
O86 C92 1.261 . S
C87 O96 1.247 . S
C87 O97 1.272 . S
O88 Co84 2.004 . S
O88 C93 1.259 . S
Co89 O90 2.061 . S
Co89 O95 2.052 . S
Co89 O97 2.135 . S
O90 Co89 2.061 . S
O90 C93 1.235 . S
C91 O94 1.238 . S
C91 O95 1.241 . S
C92 O85 1.247 . S
C92 O86 1.261 . S
C93 O88 1.259 . S
C93 O90 1.235 . S
O94 Co84 2.021 . S
O94 C91 1.238 . S
O95 Co89 2.052 . S
O95 C91 1.241 . S
O96 Co84 2.137 . S
O96 C87 1.247 . S
O97 Co84 2.244 . S
O97 C87 1.272 . S
O97 Co89 2.135 . S
Co98 O99 2.216 . S
Co98 O100 2.091 . S
Co98 O102 2.004 . S
Co98 O108 2.021 . S
Co98 O110 2.137 . S
Co98 O111 2.244 . S
O99 Co98 2.216 . S
O99 C106 1.247 . S
O100 Co98 2.091 . S
O100 C106 1.261 . S
C101 O110 1.247 . S
C101 O111 1.272 . S
O102 Co98 2.004 . S
O102 C107 1.259 . S
Co103 O104 2.061 . S
Co103 O109 2.052 . S
Co103 O111 2.135 . S
O104 Co103 2.061 . S
O104 C107 1.235 . S
C105 O108 1.238 . S
C105 O109 1.241 . S
C106 O99 1.247 . S
C106 O100 1.261 . S
C107 O102 1.259 . S
C107 O104 1.235 . S
O108 Co98 2.021 . S
O108 C105 1.238 . S
O109 Co103 2.052 . S
O109 C105 1.241 . S
O110 Co98 2.137 . S
O110 C101 1.247 . S
O111 Co98 2.244 . S
O111 C101 1.272 . S
O111 Co103 2.135 . S
Co112 O113 2.216 . S
Co112 O114 2.091 . S
Co112 O116 2.004 . S
Co112 O122 2.021 . S
Co112 O124 2.137 . S
Co112 O125 2.244 . S
O113 Co112 2.216 . S
O113 C120 1.247 . S
O114 Co112 2.091 . S
O114 C120 1.261 . S
C115 O124 1.247 . S
C115 O125 1.272 . S
O116 Co112 2.004 . S
O116 C121 1.259 . S
Co117 O118 2.061 . S
Co117 O123 2.052 . S
Co117 O125 2.135 . S
O118 Co117 2.061 . S
O118 C121 1.235 . S
C119 O122 1.238 . S
C119 O123 1.241 . S
C120 O113 1.247 . S
C120 O114 1.261 . S
C121 O116 1.259 . S
C121 O118 1.235 . S
O122 Co112 2.021 . S
O122 C119 1.238 . S
O123 Co117 2.052 . S
O123 C119 1.241 . S
O124 Co112 2.137 . S
O124 C115 1.247 . S
O125 Co112 2.244 . S
O125 C115 1.272 . S
O125 Co117 2.135 . S
Co126 O127 2.216 . S
Co126 O128 2.091 . S
Co126 O130 2.004 . S
Co126 O136 2.021 . S
Co126 O138 2.137 . S
Co126 O139 2.244 . S
O127 Co126 2.216 . S
O127 C134 1.247 . S
O128 Co126 2.091 . S
O128 C134 1.261 . S
C129 O138 1.247 . S
C129 O139 1.272 . S
O130 Co126 2.004 . S
O130 C135 1.259 . S
Co131 O132 2.061 . S
Co131 O137 2.052 . S
Co131 O139 2.135 . S
O132 Co131 2.061 . S
O132 C135 1.235 . S
C133 O136 1.238 . S
C133 O137 1.241 . S
C134 O127 1.247 . S
C134 O128 1.261 . S
C135 O130 1.259 . S
C135 O132 1.235 . S
O136 Co126 2.021 . S
O136 C133 1.238 . S
O137 Co131 2.052 . S
O137 C133 1.241 . S
O138 Co126 2.137 . S
O138 C129 1.247 . S
O139 Co126 2.244 . S
O139 C129 1.272 . S
O139 Co131 2.135 . S
Co140 O141 2.216 . S
Co140 O142 2.091 . S
Co140 O144 2.004 . S
Co140 O150 2.021 . S
Co140 O152 2.137 . S
Co140 O153 2.244 . S
O141 Co140 2.216 . S
O141 C148 1.247 . S
O142 Co140 2.091 . S
O142 C148 1.261 . S
C143 O152 1.247 . S
C143 O153 1.272 . S
O144 Co140 2.004 . S
O144 C149 1.259 . S
Co145 O146 2.061 . S
Co145 O151 2.052 . S
Co145 O153 2.135 . S
O146 Co145 2.061 . S
O146 C149 1.235 . S
C147 O150 1.238 . S
C147 O151 1.241 . S
C148 O141 1.247 . S
C148 O142 1.261 . S
C149 O144 1.259 . S
C149 O146 1.235 . S
O150 Co140 2.021 . S
O150 C147 1.238 . S
O151 Co145 2.052 . S
O151 C147 1.241 . S
O152 Co140 2.137 . S
O152 C143 1.247 . S
O153 Co140 2.244 . S
O153 C143 1.272 . S
O153 Co145 2.135 . S
Co154 O155 2.216 . S
Co154 O156 2.091 . S
Co154 O158 2.004 . S
Co154 O164 2.021 . S
Co154 O166 2.137 . S
Co154 O167 2.244 . S
O155 Co154 2.216 . S
O155 C162 1.247 . S
O156 Co154 2.091 . S
O156 C162 1.261 . S
C157 O166 1.247 . S
C157 O167 1.272 . S
O158 Co154 2.004 . S
O158 C163 1.259 . S
Co159 O160 2.061 . S
Co159 O165 2.052 . S
Co159 O167 2.135 . S
O160 Co159 2.061 . S
O160 C163 1.235 . S
C161 O164 1.238 . S
C161 O165 1.241 . S
C162 O155 1.247 . S
C162 O156 1.261 . S
C163 O158 1.259 . S
C163 O160 1.235 . S
O164 Co154 2.021 . S
O164 C161 1.238 . S
O165 Co159 2.052 . S
O165 C161 1.241 . S
O166 Co154 2.137 . S
O166 C157 1.247 . S
O167 Co154 2.244 . S
O167 C157 1.272 . S
O167 Co159 2.135 . S
Co168 O169 2.216 . S
Co168 O170 2.091 . S
Co168 O172 2.004 . S
Co168 O178 2.021 . S
Co168 O180 2.137 . S
Co168 O181 2.244 . S
O169 Co168 2.216 . S
O169 C176 1.247 . S
O170 Co168 2.091 . S
O170 C176 1.261 . S
C171 O180 1.247 . S
C171 O181 1.272 . S
O172 Co168 2.004 . S
O172 C177 1.259 . S
Co173 O174 2.061 . S
Co173 O179 2.052 . S
Co173 O181 2.135 . S
O174 Co173 2.061 . S
O174 C177 1.235 . S
C175 O178 1.238 . S
C175 O179 1.241 . S
C176 O169 1.247 . S
C176 O170 1.261 . S
C177 O172 1.259 . S
C177 O174 1.235 . S
O178 Co168 2.021 . S
O178 C175 1.238 . S
O179 Co173 2.052 . S
O179 C175 1.241 . S
O180 Co168 2.137 . S
O180 C171 1.247 . S
O181 Co168 2.244 . S
O181 C171 1.272 . S
O181 Co173 2.135 . S
Co182 O183 2.216 . S
Co182 O184 2.091 . S
Co182 O186 2.004 . S
Co182 O192 2.021 . S
Co182 O194 2.137 . S
Co182 O195 2.244 . S
O183 Co182 2.216 . S
O183 C190 1.247 . S
O184 Co182 2.091 . S
O184 C190 1.261 . S
C185 O194 1.247 . S
C185 O195 1.272 . S
O186 Co182 2.004 . S
O186 C191 1.259 . S
Co187 O188 2.061 . S
Co187 O193 2.052 . S
Co187 O195 2.135 . S
O188 Co187 2.061 . S
O188 C191 1.235 . S
C189 O192 1.238 . S
C189 O193 1.241 . S
C190 O183 1.247 . S
C190 O184 1.261 . S
C191 O186 1.259 . S
C191 O188 1.235 . S
O192 Co182 2.021 . S
O192 C189 1.238 . S
O193 Co187 2.052 . S
O193 C189 1.241 . S
O194 Co182 2.137 . S
O194 C185 1.247 . S
O195 Co182 2.244 . S
O195 C185 1.272 . S
O195 Co187 2.135 . S
Co196 O197 2.216 . S
Co196 O198 2.091 . S
Co196 O200 2.004 . S
Co196 O206 2.021 . S
Co196 O208 2.137 . S
Co196 O209 2.244 . S
O197 Co196 2.216 . S
O197 C204 1.247 . S
O198 Co196 2.091 . S
O198 C204 1.261 . S
C199 O208 1.247 . S
C199 O209 1.272 . S
O200 Co196 2.004 . S
O200 C205 1.259 . S
Co201 O202 2.061 . S
Co201 O207 2.052 . S
Co201 O209 2.135 . S
O202 Co201 2.061 . S
O202 C205 1.235 . S
C203 O206 1.238 . S
C203 O207 1.241 . S
C204 O197 1.247 . S
C204 O198 1.261 . S
C205 O200 1.259 . S
C205 O202 1.235 . S
O206 Co196 2.021 . S
O206 C203 1.238 . S
O207 Co201 2.052 . S
O207 C203 1.241 . S
O208 Co196 2.137 . S
O208 C199 1.247 . S
O209 Co196 2.244 . S
O209 C199 1.272 . S
O209 Co201 2.135 . S
Co210 O211 2.216 . S
Co210 O212 2.091 . S
Co210 O214 2.004 . S
Co210 O220 2.021 . S
Co210 O222 2.137 . S
Co210 O223 2.244 . S
O211 Co210 2.216 . S
O211 C218 1.247 . S
O212 Co210 2.091 . S
O212 C218 1.261 . S
C213 O222 1.247 . S
C213 O223 1.272 . S
O214 Co210 2.004 . S
O214 C219 1.259 . S
Co215 O216 2.061 . S
Co215 O221 2.052 . S
Co215 O223 2.135 . S
O216 Co215 2.061 . S
O216 C219 1.235 . S
C217 O220 1.238 . S
C217 O221 1.241 . S
C218 O211 1.247 . S
C218 O212 1.261 . S
C219 O214 1.259 . S
C219 O216 1.235 . S
O220 Co210 2.021 . S
O220 C217 1.238 . S
O221 Co215 2.052 . S
O221 C217 1.241 . S
O222 Co210 2.137 . S
O222 C213 1.247 . S
O223 Co210 2.244 . S
O223 C213 1.272 . S
O223 Co215 2.135 . S
Co224 O225 2.216 . S
Co224 O226 2.091 . S
Co224 O228 2.004 . S
Co224 O234 2.021 . S
Co224 O236 2.137 . S
Co224 O237 2.244 . S
O225 Co224 2.216 . S
O225 C232 1.247 . S
O226 Co224 2.091 . S
O226 C232 1.261 . S
C227 O236 1.247 . S
C227 O237 1.272 . S
O228 Co224 2.004 . S
O228 C233 1.259 . S
Co229 O230 2.061 . S
Co229 O235 2.052 . S
Co229 O237 2.135 . S
O230 Co229 2.061 . S
O230 C233 1.235 . S
C231 O234 1.238 . S
C231 O235 1.241 . S
C232 O225 1.247 . S
C232 O226 1.261 . S
C233 O228 1.259 . S
C233 O230 1.235 . S
O234 Co224 2.021 . S
O234 C231 1.238 . S
O235 Co229 2.052 . S
O235 C231 1.241 . S
O236 Co224 2.137 . S
O236 C227 1.247 . S
O237 Co224 2.244 . S
O237 C227 1.272 . S
O237 Co229 2.135 . S
Co238 O239 2.216 . S
Co238 O240 2.091 . S
Co238 O242 2.004 . S
Co238 O248 2.021 . S
Co238 O250 2.137 . S
Co238 O251 2.244 . S
O239 Co238 2.216 . S
O239 C246 1.247 . S
O240 Co238 2.091 . S
O240 C246 1.261 . S
C241 O250 1.247 . S
C241 O251 1.272 . S
O242 Co238 2.004 . S
O242 C247 1.259 . S
Co243 O244 2.061 . S
Co243 O249 2.052 . S
Co243 O251 2.135 . S
O244 Co243 2.061 . S
O244 C247 1.235 . S
C245 O248 1.238 . S
C245 O249 1.241 . S
C246 O239 1.247 . S
C246 O240 1.261 . S
C247 O242 1.259 . S
C247 O244 1.235 . S
O248 Co238 2.021 . S
O248 C245 1.238 . S
O249 Co243 2.052 . S
O249 C245 1.241 . S
O250 Co238 2.137 . S
O250 C241 1.247 . S
O251 Co238 2.244 . S
O251 C241 1.272 . S
O251 Co243 2.135 . S
Co252 O253 2.216 . S
Co252 O254 2.091 . S
Co252 O256 2.004 . S
Co252 O262 2.021 . S
Co252 O264 2.137 . S
Co252 O265 2.244 . S
O253 Co252 2.216 . S
O253 C260 1.247 . S
O254 Co252 2.091 . S
O254 C260 1.261 . S
C255 O264 1.247 . S
C255 O265 1.272 . S
O256 Co252 2.004 . S
O256 C261 1.259 . S
Co257 O258 2.061 . S
Co257 O263 2.052 . S
Co257 O265 2.135 . S
O258 Co257 2.061 . S
O258 C261 1.235 . S
C259 O262 1.238 . S
C259 O263 1.241 . S
C260 O253 1.247 . S
C260 O254 1.261 . S
C261 O256 1.259 . S
C261 O258 1.235 . S
O262 Co252 2.021 . S
O262 C259 1.238 . S
O263 Co257 2.052 . S
O263 C259 1.241 . S
O264 Co252 2.137 . S
O264 C255 1.247 . S
O265 Co252 2.244 . S
O265 C255 1.272 . S
O265 Co257 2.135 . S
Co266 O267 2.216 . S
Co266 O268 2.091 . S
Co266 O270 2.004 . S
Co266 O276 2.021 . S
Co266 O278 2.137 . S
Co266 O279 2.244 . S
O267 Co266 2.216 . S
O267 C274 1.247 . S
O268 Co266 2.091 . S
O268 C274 1.261 . S
C269 O278 1.247 . S
C269 O279 1.272 . S
O270 Co266 2.004 . S
O270 C275 1.259 . S
Co271 O272 2.061 . S
Co271 O277 2.052 . S
Co271 O279 2.135 . S
O272 Co271 2.061 . S
O272 C275 1.235 . S
C273 O276 1.238 . S
C273 O277 1.241 . S
C274 O267 1.247 . S
C274 O268 1.261 . S
C275 O270 1.259 . S
C275 O272 1.235 . S
O276 Co266 2.021 . S
O276 C273 1.238 . S
O277 Co271 2.052 . S
O277 C273 1.241 . S
O278 Co266 2.137 . S
O278 C269 1.247 . S
O279 Co266 2.244 . S
O279 C269 1.272 . S
O279 Co271 2.135 . S
Co280 O281 2.216 . S
Co280 O282 2.091 . S
Co280 O284 2.004 . S
Co280 O290 2.021 . S
Co280 O292 2.137 . S
Co280 O293 2.244 . S
O281 Co280 2.216 . S
O281 C288 1.247 . S
O282 Co280 2.091 . S
O282 C288 1.261 . S
C283 O292 1.247 . S
C283 O293 1.272 . S
O284 Co280 2.004 . S
O284 C289 1.259 . S
Co285 O286 2.061 . S
Co285 O291 2.052 . S
Co285 O293 2.135 . S
O286 Co285 2.061 . S
O286 C289 1.235 . S
C287 O290 1.238 . S
C287 O291 1.241 . S
C288 O281 1.247 . S
C288 O282 1.261 . S
C289 O284 1.259 . S
C289 O286 1.235 . S
O290 Co280 2.021 . S
O290 C287 1.238 . S
O291 Co285 2.052 . S
O291 C287 1.241 . S
O292 Co280 2.137 . S
O292 C283 1.247 . S
O293 Co280 2.244 . S
O293 C283 1.272 . S
O293 Co285 2.135 . S
Co294 O295 2.216 . S
Co294 O296 2.091 . S
Co294 O298 2.004 . S
Co294 O304 2.021 . S
Co294 O306 2.137 . S
Co294 O307 2.244 . S
O295 Co294 2.216 . S
O295 C302 1.247 . S
O296 Co294 2.091 . S
O296 C302 1.261 . S
C297 O306 1.247 . S
C297 O307 1.272 . S
O298 Co294 2.004 . S
O298 C303 1.259 . S
Co299 O300 2.061 . S
Co299 O305 2.052 . S
Co299 O307 2.135 . S
O300 Co299 2.061 . S
O300 C303 1.235 . S
C301 O304 1.238 . S
C301 O305 1.241 . S
C302 O295 1.247 . S
C302 O296 1.261 . S
C303 O298 1.259 . S
C303 O300 1.235 . S
O304 Co294 2.021 . S
O304 C301 1.238 . S
O305 Co299 2.052 . S
O305 C301 1.241 . S
O306 Co294 2.137 . S
O306 C297 1.247 . S
O307 Co294 2.244 . S
O307 C297 1.272 . S
O307 Co299 2.135 . S
Co308 O309 2.216 . S
Co308 O310 2.091 . S
Co308 O312 2.004 . S
Co308 O318 2.021 . S
Co308 O320 2.137 . S
Co308 O321 2.244 . S
O309 Co308 2.216 . S
O309 C316 1.247 . S
O310 Co308 2.091 . S
O310 C316 1.261 . S
C311 O320 1.247 . S
C311 O321 1.272 . S
O312 Co308 2.004 . S
O312 C317 1.259 . S
Co313 O314 2.061 . S
Co313 O319 2.052 . S
Co313 O321 2.135 . S
O314 Co313 2.061 . S
O314 C317 1.235 . S
C315 O318 1.238 . S
C315 O319 1.241 . S
C316 O309 1.247 . S
C316 O310 1.261 . S
C317 O312 1.259 . S
C317 O314 1.235 . S
O318 Co308 2.021 . S
O318 C315 1.238 . S
O319 Co313 2.052 . S
O319 C315 1.241 . S
O320 Co308 2.137 . S
O320 C311 1.247 . S
O321 Co308 2.244 . S
O321 C311 1.272 . S
O321 Co313 2.135 . S
Co322 O323 2.216 . S
Co322 O324 2.091 . S
Co322 O326 2.004 . S
Co322 O332 2.021 . S
Co322 O334 2.137 . S
Co322 O335 2.244 . S
O323 Co322 2.216 . S
O323 C330 1.247 . S
O324 Co322 2.091 . S
O324 C330 1.261 . S
C325 O334 1.247 . S
C325 O335 1.272 . S
O326 Co322 2.004 . S
O326 C331 1.259 . S
Co327 O328 2.061 . S
Co327 O333 2.052 . S
Co327 O335 2.135 . S
O328 Co327 2.061 . S
O328 C331 1.235 . S
C329 O332 1.238 . S
C329 O333 1.241 . S
C330 O323 1.247 . S
C330 O324 1.261 . S
C331 O326 1.259 . S
C331 O328 1.235 . S
O332 Co322 2.021 . S
O332 C329 1.238 . S
O333 Co327 2.052 . S
O333 C329 1.241 . S
O334 Co322 2.137 . S
O334 C325 1.247 . S
O335 Co322 2.244 . S
O335 C325 1.272 . S
O335 Co327 2.135 . S
Co336 O337 2.216 . S
Co336 O338 2.091 . S
Co336 O340 2.004 . S
Co336 O346 2.021 . S
Co336 O348 2.137 . S
Co336 O349 2.244 . S
O337 Co336 2.216 . S
O337 C344 1.247 . S
O338 Co336 2.091 . S
O338 C344 1.261 . S
C339 O348 1.247 . S
C339 O349 1.272 . S
O340 Co336 2.004 . S
O340 C345 1.259 . S
Co341 O342 2.061 . S
Co341 O347 2.052 . S
Co341 O349 2.135 . S
O342 Co341 2.061 . S
O342 C345 1.235 . S
C343 O346 1.238 . S
C343 O347 1.241 . S
C344 O337 1.247 . S
C344 O338 1.261 . S
C345 O340 1.259 . S
C345 O342 1.235 . S
O346 Co336 2.021 . S
O346 C343 1.238 . S
O347 Co341 2.052 . S
O347 C343 1.241 . S
O348 Co336 2.137 . S
O348 C339 1.247 . S
O349 Co336 2.244 . S
O349 C339 1.272 . S
O349 Co341 2.135 . S
Co350 O351 2.216 . S
Co350 O352 2.091 . S
Co350 O354 2.004 . S
Co350 O360 2.021 . S
Co350 O362 2.137 . S
Co350 O363 2.244 . S
O351 Co350 2.216 . S
O351 C358 1.247 . S
O352 Co350 2.091 . S
O352 C358 1.261 . S
C353 O362 1.247 . S
C353 O363 1.272 . S
O354 Co350 2.004 . S
O354 C359 1.259 . S
Co355 O356 2.061 . S
Co355 O361 2.052 . S
Co355 O363 2.135 . S
O356 Co355 2.061 . S
O356 C359 1.235 . S
C357 O360 1.238 . S
C357 O361 1.241 . S
C358 O351 1.247 . S
C358 O352 1.261 . S
C359 O354 1.259 . S
C359 O356 1.235 . S
O360 Co350 2.021 . S
O360 C357 1.238 . S
O361 Co355 2.052 . S
O361 C357 1.241 . S
O362 Co350 2.137 . S
O362 C353 1.247 . S
O363 Co350 2.244 . S
O363 C353 1.272 . S
O363 Co355 2.135 . S
Co364 O365 2.216 . S
Co364 O366 2.091 . S
Co364 O368 2.004 . S
Co364 O374 2.021 . S
Co364 O376 2.137 . S
Co364 O377 2.244 . S
O365 Co364 2.216 . S
O365 C372 1.247 . S
O366 Co364 2.091 . S
O366 C372 1.261 . S
C367 O376 1.247 . S
C367 O377 1.272 . S
O368 Co364 2.004 . S
O368 C373 1.259 . S
Co369 O370 2.061 . S
Co369 O375 2.052 . S
Co369 O377 2.135 . S
O370 Co369 2.061 . S
O370 C373 1.235 . S
C371 O374 1.238 . S
C371 O375 1.241 . S
C372 O365 1.247 . S
C372 O366 1.261 . S
C373 O368 1.259 . S
C373 O370 1.235 . S
O374 Co364 2.021 . S
O374 C371 1.238 . S
O375 Co369 2.052 . S
O375 C371 1.241 . S
O376 Co364 2.137 . S
O376 C367 1.247 . S
O377 Co364 2.244 . S
O377 C367 1.272 . S
O377 Co369 2.135 . S
Co378 O379 2.216 . S
Co378 O380 2.091 . S
Co378 O382 2.004 . S
Co378 O388 2.021 . S
Co378 O390 2.137 . S
Co378 O391 2.244 . S
O379 Co378 2.216 . S
O379 C386 1.247 . S
O380 Co378 2.091 . S
O380 C386 1.261 . S
C381 O390 1.247 . S
C381 O391 1.272 . S
O382 Co378 2.004 . S
O382 C387 1.259 . S
Co383 O384 2.061 . S
Co383 O389 2.052 . S
Co383 O391 2.135 . S
O384 Co383 2.061 . S
O384 C387 1.235 . S
C385 O388 1.238 . S
C385 O389 1.241 . S
C386 O379 1.247 . S
C386 O380 1.261 . S
C387 O382 1.259 . S
C387 O384 1.235 . S
O388 Co378 2.021 . S
O388 C385 1.238 . S
O389 Co383 2.052 . S
O389 C385 1.241 . S
O390 Co378 2.137 . S
O390 C381 1.247 . S
O391 Co378 2.244 . S
O391 C381 1.272 . S
O391 Co383 2.135 . S
Co392 O393 2.216 . S
Co392 O394 2.091 . S
Co392 O396 2.004 . S
Co392 O402 2.021 . S
Co392 O404 2.137 . S
Co392 O405 2.244 . S
O393 Co392 2.216 . S
O393 C400 1.247 . S
O394 Co392 2.091 . S
O394 C400 1.261 . S
C395 O404 1.247 . S
C395 O405 1.272 . S
O396 Co392 2.004 . S
O396 C401 1.259 . S
Co397 O398 2.061 . S
Co397 O403 2.052 . S
Co397 O405 2.135 . S
O398 Co397 2.061 . S
O398 C401 1.235 . S
C399 O402 1.238 . S
C399 O403 1.241 . S
C400 O393 1.247 . S
C400 O394 1.261 . S
C401 O396 1.259 . S
C401 O398 1.235 . S
O402 Co392 2.021 . S
O402 C399 1.238 . S
O403 Co397 2.052 . S
O403 C399 1.241 . S
O404 Co392 2.137 . S
O404 C395 1.247 . S
O405 Co392 2.244 . S
O405 C395 1.272 . S
O405 Co397 2.135 . S
Co406 O407 2.216 . S
Co406 O408 2.091 . S
Co406 O410 2.004 . S
Co406 O416 2.021 . S
Co406 O418 2.137 . S
Co406 O419 2.244 . S
O407 Co406 2.216 . S
O407 C414 1.247 . S
O408 Co406 2.091 . S
O408 C414 1.261 . S
C409 O418 1.247 . S
C409 O419 1.272 . S
O410 Co406 2.004 . S
O410 C415 1.259 . S
Co411 O412 2.061 . S
Co411 O417 2.052 . S
Co411 O419 2.135 . S
O412 Co411 2.061 . S
O412 C415 1.235 . S
C413 O416 1.238 . S
C413 O417 1.241 . S
C414 O407 1.247 . S
C414 O408 1.261 . S
C415 O410 1.259 . S
C415 O412 1.235 . S
O416 Co406 2.021 . S
O416 C413 1.238 . S
O417 Co411 2.052 . S
O417 C413 1.241 . S
O418 Co406 2.137 . S
O418 C409 1.247 . S
O419 Co406 2.244 . S
O419 C409 1.272 . S
O419 Co411 2.135 . S
Co420 O421 2.216 . S
Co420 O422 2.091 . S
Co420 O424 2.004 . S
Co420 O430 2.021 . S
Co420 O432 2.137 . S
Co420 O433 2.244 . S
O421 Co420 2.216 . S
O421 C428 1.247 . S
O422 Co420 2.091 . S
O422 C428 1.261 . S
C423 O432 1.247 . S
C423 O433 1.272 . S
O424 Co420 2.004 . S
O424 C429 1.259 . S
Co425 O426 2.061 . S
Co425 O431 2.052 . S
Co425 O433 2.135 . S
O426 Co425 2.061 . S
O426 C429 1.235 . S
C427 O430 1.238 . S
C427 O431 1.241 . S
C428 O421 1.247 . S
C428 O422 1.261 . S
C429 O424 1.259 . S
C429 O426 1.235 . S
O430 Co420 2.021 . S
O430 C427 1.238 . S
O431 Co425 2.052 . S
O431 C427 1.241 . S
O432 Co420 2.137 . S
O432 C423 1.247 . S
O433 Co420 2.244 . S
O433 C423 1.272 . S
O433 Co425 2.135 . S
Co434 O435 2.216 . S
Co434 O436 2.091 . S
Co434 O438 2.004 . S
Co434 O444 2.021 . S
Co434 O446 2.137 . S
Co434 O447 2.244 . S
O435 Co434 2.216 . S
O435 C442 1.247 . S
O436 Co434 2.091 . S
O436 C442 1.261 . S
C437 O446 1.247 . S
C437 O447 1.272 . S
O438 Co434 2.004 . S
O438 C443 1.259 . S
Co439 O440 2.061 . S
Co439 O445 2.052 . S
Co439 O447 2.135 . S
O440 Co439 2.061 . S
O440 C443 1.235 . S
C441 O444 1.238 . S
C441 O445 1.241 . S
C442 O435 1.247 . S
C442 O436 1.261 . S
C443 O438 1.259 . S
C443 O440 1.235 . S
O444 Co434 2.021 . S
O444 C441 1.238 . S
O445 Co439 2.052 . S
O445 C441 1.241 . S
O446 Co434 2.137 . S
O446 C437 1.247 . S
O447 Co434 2.244 . S
O447 C437 1.272 . S
O447 Co439 2.135 . S
H448 C456 0.929 . S
H449 C458 0.930 . S
H450 C460 0.930 . S
H451 C463 0.929 . S
H452 C466 0.930 . S
H453 C468 0.960 . S
H454 C468 0.960 . S
H455 C468 0.960 . S
C456 H448 0.929 . S
C456 C457 1.377 . S
C456 C458 1.384 . S
C457 C456 1.377 . S
C457 C463 1.390 . S
C458 H449 0.930 . S
C458 C456 1.384 . S
C458 C459 1.372 . S
C459 C458 1.372 . S
C459 C460 1.400 . S
C459 C464 1.490 . S
C460 H450 0.930 . S
C460 C459 1.400 . S
C460 C463 1.386 . S
H461 C477 0.930 . S
H462 C478 0.931 . S
C463 H451 0.929 . S
C463 C457 1.390 . S
C463 C460 1.386 . S
C464 C459 1.490 . S
C464 C466 1.395 . S
C464 C467 1.403 . S
H465 C471 0.930 . S
C466 H452 0.930 . S
C466 C464 1.395 . S
C466 C469 1.403 . S
C467 C464 1.403 . S
C467 C468 1.524 . S
C467 C471 1.400 . S
C468 H453 0.960 . S
C468 H454 0.960 . S
C468 H455 0.960 . S
C468 C467 1.524 . S
C469 C466 1.403 . S
C469 C470 1.392 . S
C469 C473 1.495 . S
C470 C469 1.392 . S
C470 C471 1.385 . S
C470 C472 1.478 . S
C471 H465 0.930 . S
C471 C467 1.400 . S
C471 C470 1.385 . S
C472 C470 1.478 . S
C472 C474 1.381 . S
C472 C478 1.383 . S
C473 C469 1.495 . S
C473 H479 0.959 . S
C473 H480 0.961 . S
C473 H481 0.960 . S
C474 C472 1.381 . S
C474 C475 1.394 . S
C474 H482 0.930 . S
C475 C474 1.394 . S
C475 C476 1.383 . S
C475 H483 0.929 . S
C476 C475 1.383 . S
C476 C477 1.377 . S
C477 H461 0.930 . S
C477 C476 1.377 . S
C477 C478 1.379 . S
C478 H462 0.931 . S
C478 C472 1.383 . S
C478 C477 1.379 . S
H479 C473 0.959 . S
H480 C473 0.961 . S
H481 C473 0.960 . S
H482 C474 0.930 . S
H483 C475 0.929 . S
H484 C492 0.929 . S
H485 C494 0.930 . S
H486 C496 0.930 . S
H487 C499 0.929 . S
H488 C502 0.930 . S
H489 C504 0.960 1_545 S
H490 C504 0.960 . S
H491 C504 0.960 . S
C492 H484 0.929 . S
C492 C493 1.377 . S
C492 C494 1.384 . S
C493 C492 1.377 . S
C493 C499 1.390 . S
C494 H485 0.930 . S
C494 C492 1.384 . S
C494 C495 1.372 . S
C495 C494 1.372 . S
C495 C496 1.400 . S
C495 C500 1.490 . S
C496 H486 0.930 . S
C496 C495 1.400 . S
C496 C499 1.386 . S
H497 C513 0.930 . S
H498 C514 0.931 . S
C499 H487 0.929 . S
C499 C493 1.390 . S
C499 C496 1.386 . S
C500 C495 1.490 . S
C500 C502 1.395 . S
C500 C503 1.403 . S
H501 C507 0.930 . S
C502 H488 0.930 . S
C502 C500 1.395 . S
C502 C505 1.403 1_565 S
C503 C500 1.403 . S
C503 C504 1.524 . S
C503 C507 1.400 1_565 S
C504 H489 0.960 1_565 S
C504 H490 0.960 . S
C504 H491 0.960 . S
C504 C503 1.524 . S
C505 C502 1.403 1_545 S
C505 C506 1.392 . S
C505 C509 1.495 . S
C506 C505 1.392 . S
C506 C507 1.385 . S
C506 C508 1.478 . S
C507 H501 0.930 . S
C507 C503 1.400 1_545 S
C507 C506 1.385 . S
C508 C506 1.478 . S
C508 C510 1.381 . S
C508 C514 1.383 . S
C509 C505 1.495 . S
C509 H515 0.959 1_545 S
C509 H516 0.961 . S
C509 H517 0.960 . S
C510 C508 1.381 . S
C510 C511 1.394 . S
C510 H518 0.930 . S
C511 C510 1.394 . S
C511 C512 1.383 . S
C511 H519 0.929 . S
C512 C511 1.383 . S
C512 C513 1.377 . S
C513 H497 0.930 . S
C513 C512 1.377 . S
C513 C514 1.379 . S
C514 H498 0.931 . S
C514 C508 1.383 . S
C514 C513 1.379 . S
H515 C509 0.959 1_565 S
H516 C509 0.961 . S
H517 C509 0.960 . S
H518 C510 0.930 . S
H519 C511 0.929 . S
H520 C528 0.929 . S
H521 C530 0.930 . S
H522 C532 0.930 . S
H523 C535 0.929 . S
H524 C538 0.930 . S
H525 C540 0.960 . S
H526 C540 0.960 . S
H527 C540 0.960 . S
C528 H520 0.929 . S
C528 C529 1.377 . S
C528 C530 1.384 . S
C529 C528 1.377 . S
C529 C535 1.390 . S
C530 H521 0.930 . S
C530 C528 1.384 . S
C530 C531 1.372 . S
C531 C530 1.372 . S
C531 C532 1.400 . S
C531 C536 1.490 . S
C532 H522 0.930 . S
C532 C531 1.400 . S
C532 C535 1.386 . S
H533 C549 0.930 . S
H534 C550 0.931 . S
C535 H523 0.929 . S
C535 C529 1.390 . S
C535 C532 1.386 . S
C536 C531 1.490 . S
C536 C538 1.395 . S
C536 C539 1.403 1_554 S
H537 C543 0.930 . S
C538 H524 0.930 . S
C538 C536 1.395 . S
C538 C541 1.403 . S
C539 C536 1.403 1_556 S
C539 C540 1.524 . S
C539 C543 1.400 . S
C540 H525 0.960 . S
C540 H526 0.960 . S
C540 H527 0.960 . S
C540 C539 1.524 . S
C541 C538 1.403 . S
C541 C542 1.392 1_554 S
C541 C545 1.495 . S
C542 C541 1.392 1_556 S
C542 C543 1.385 . S
C542 C544 1.478 . S
C543 H537 0.930 . S
C543 C539 1.400 . S
C543 C542 1.385 . S
C544 C542 1.478 . S
C544 C546 1.381 . S
C544 C550 1.383 . S
C545 C541 1.495 . S
C545 H551 0.959 . S
C545 H552 0.961 . S
C545 H553 0.960 . S
C546 C544 1.381 . S
C546 C547 1.394 . S
C546 H554 0.930 . S
C547 C546 1.394 . S
C547 C548 1.383 . S
C547 H555 0.929 . S
C548 C547 1.383 . S
C548 C549 1.377 . S
C549 H533 0.930 . S
C549 C548 1.377 . S
C549 C550 1.379 . S
C550 H534 0.931 . S
C550 C544 1.383 . S
C550 C549 1.379 . S
H551 C545 0.959 . S
H552 C545 0.961 . S
H553 C545 0.960 . S
H554 C546 0.930 . S
H555 C547 0.929 . S
H556 C564 0.929 . S
H557 C566 0.930 . S
H558 C568 0.930 . S
H559 C571 0.929 . S
H560 C574 0.930 . S
H561 C576 0.960 . S
H562 C576 0.960 . S
H563 C576 0.960 . S
C564 H556 0.929 . S
C564 C565 1.377 . S
C564 C566 1.384 . S
C565 C564 1.377 . S
C565 C571 1.390 . S
C566 H557 0.930 . S
C566 C564 1.384 . S
C566 C567 1.372 . S
C567 C566 1.372 . S
C567 C568 1.400 . S
C567 C572 1.490 . S
C568 H558 0.930 . S
C568 C567 1.400 . S
C568 C571 1.386 . S
H569 C585 0.930 . S
H570 C586 0.931 . S
C571 H559 0.929 . S
C571 C565 1.390 . S
C571 C568 1.386 . S
C572 C567 1.490 . S
C572 C574 1.395 . S
C572 C575 1.403 . S
H573 C579 0.930 . S
C574 H560 0.930 . S
C574 C572 1.395 . S
C574 C577 1.403 1_545 S
C575 C572 1.403 . S
C575 C576 1.524 . S
C575 C579 1.400 1_545 S
C576 H561 0.960 . S
C576 H562 0.960 . S
C576 H563 0.960 . S
C576 C575 1.524 . S
C577 C574 1.403 1_565 S
C577 C578 1.392 . S
C577 C581 1.495 . S
C578 C577 1.392 . S
C578 C579 1.385 . S
C578 C580 1.478 . S
C579 H573 0.930 . S
C579 C575 1.400 1_565 S
C579 C578 1.385 . S
C580 C578 1.478 . S
C580 C582 1.381 . S
C580 C586 1.383 . S
C581 C577 1.495 . S
C581 H587 0.959 . S
C581 H588 0.961 . S
C581 H589 0.960 . S
C582 C580 1.381 . S
C582 C583 1.394 . S
C582 H590 0.930 . S
C583 C582 1.394 . S
C583 C584 1.383 . S
C583 H591 0.929 . S
C584 C583 1.383 . S
C584 C585 1.377 . S
C585 H569 0.930 . S
C585 C584 1.377 . S
C585 C586 1.379 . S
C586 H570 0.931 . S
C586 C580 1.383 . S
C586 C585 1.379 . S
H587 C581 0.959 . S
H588 C581 0.961 . S
H589 C581 0.960 . S
H590 C582 0.930 . S
H591 C583 0.929 . S
H592 C600 0.929 . S
H593 C602 0.930 . S
H594 C604 0.930 . S
H595 C607 0.929 . S
H596 C610 0.930 . S
H597 C612 0.960 . S
H598 C612 0.960 . S
H599 C612 0.960 . S
C600 H592 0.929 . S
C600 C601 1.377 . S
C600 C602 1.384 . S
C601 C600 1.377 . S
C601 C607 1.390 . S
C602 H593 0.930 . S
C602 C600 1.384 . S
C602 C603 1.372 . S
C603 C602 1.372 . S
C603 C604 1.400 . S
C603 C608 1.490 . S
C604 H594 0.930 . S
C604 C603 1.400 . S
C604 C607 1.386 . S
H605 C621 0.930 . S
H606 C622 0.931 . S
C607 H595 0.929 . S
C607 C601 1.390 . S
C607 C604 1.386 . S
C608 C603 1.490 . S
C608 C610 1.395 . S
C608 C611 1.403 . S
H609 C615 0.930 . S
C610 H596 0.930 . S
C610 C608 1.395 . S
C610 C613 1.403 . S
C611 C608 1.403 . S
C611 C612 1.524 . S
C611 C615 1.400 . S
C612 H597 0.960 . S
C612 H598 0.960 . S
C612 H599 0.960 . S
C612 C611 1.524 . S
C613 C610 1.403 . S
C613 C614 1.392 . S
C613 C617 1.495 . S
C614 C613 1.392 . S
C614 C615 1.385 . S
C614 C616 1.478 . S
C615 H609 0.930 . S
C615 C611 1.400 . S
C615 C614 1.385 . S
C616 C614 1.478 . S
C616 C618 1.381 . S
C616 C622 1.383 . S
C617 C613 1.495 . S
C617 H623 0.959 . S
C617 H624 0.961 . S
C617 H625 0.960 . S
C618 C616 1.381 . S
C618 C619 1.394 . S
C618 H626 0.930 . S
C619 C618 1.394 . S
C619 C620 1.383 . S
C619 H627 0.929 . S
C620 C619 1.383 . S
C620 C621 1.377 . S
C621 H605 0.930 . S
C621 C620 1.377 . S
C621 C622 1.379 . S
C622 H606 0.931 . S
C622 C616 1.383 . S
C622 C621 1.379 . S
H623 C617 0.959 . S
H624 C617 0.961 . S
H625 C617 0.960 . S
H626 C618 0.930 . S
H627 C619 0.929 . S
H628 C636 0.929 . S
H629 C638 0.930 . S
H630 C640 0.930 . S
H631 C643 0.929 . S
H632 C646 0.930 . S
H633 C648 0.960 . S
H634 C648 0.960 . S
H635 C648 0.960 . S
C636 H628 0.929 . S
C636 C637 1.377 . S
C636 C638 1.384 . S
C637 C636 1.377 . S
C637 C643 1.390 . S
C638 H629 0.930 . S
C638 C636 1.384 . S
C638 C639 1.372 . S
C639 C638 1.372 . S
C639 C640 1.400 . S
C639 C644 1.490 . S
C640 H630 0.930 . S
C640 C639 1.400 . S
C640 C643 1.386 . S
H641 C657 0.930 . S
H642 C658 0.931 . S
C643 H631 0.929 . S
C643 C637 1.390 . S
C643 C640 1.386 . S
C644 C639 1.490 . S
C644 C646 1.395 . S
C644 C647 1.403 . S
H645 C651 0.930 . S
C646 H632 0.930 . S
C646 C644 1.395 . S
C646 C649 1.403 1_545 S
C647 C644 1.403 . S
C647 C648 1.524 . S
C647 C651 1.400 1_545 S
C648 H633 0.960 . S
C648 H634 0.960 . S
C648 H635 0.960 . S
C648 C647 1.524 . S
C649 C646 1.403 1_565 S
C649 C650 1.392 . S
C649 C653 1.495 . S
C650 C649 1.392 . S
C650 C651 1.385 . S
C650 C652 1.478 . S
C651 H645 0.930 . S
C651 C647 1.400 1_565 S
C651 C650 1.385 . S
C652 C650 1.478 . S
C652 C654 1.381 . S
C652 C658 1.383 . S
C653 C649 1.495 . S
C653 H659 0.959 . S
C653 H660 0.961 . S
C653 H661 0.960 . S
C654 C652 1.381 . S
C654 C655 1.394 . S
C654 H662 0.930 . S
C655 C654 1.394 . S
C655 C656 1.383 . S
C655 H663 0.929 . S
C656 C655 1.383 . S
C656 C657 1.377 . S
C657 H641 0.930 . S
C657 C656 1.377 . S
C657 C658 1.379 . S
C658 H642 0.931 . S
C658 C652 1.383 . S
C658 C657 1.379 . S
H659 C653 0.959 . S
H660 C653 0.961 . S
H661 C653 0.960 . S
H662 C654 0.930 . S
H663 C655 0.929 . S
H664 C672 0.929 . S
H665 C674 0.930 . S
H666 C676 0.930 . S
H667 C679 0.929 . S
H668 C682 0.930 . S
H669 C684 0.960 . S
H670 C684 0.960 . S
H671 C684 0.960 . S
C672 H664 0.929 . S
C672 C673 1.377 . S
C672 C674 1.384 . S
C673 C672 1.377 . S
C673 C679 1.390 . S
C674 H665 0.930 . S
C674 C672 1.384 . S
C674 C675 1.372 . S
C675 C674 1.372 . S
C675 C676 1.400 . S
C675 C680 1.490 . S
C676 H666 0.930 . S
C676 C675 1.400 . S
C676 C679 1.386 . S
H677 C693 0.930 . S
H678 C694 0.931 . S
C679 H667 0.929 . S
C679 C673 1.390 . S
C679 C676 1.386 . S
C680 C675 1.490 . S
C680 C682 1.395 1_556 S
C680 C683 1.403 . S
H681 C687 0.930 . S
C682 H668 0.930 . S
C682 C680 1.395 1_554 S
C682 C685 1.403 . S
C683 C680 1.403 . S
C683 C684 1.524 . S
C683 C687 1.400 . S
C684 H669 0.960 . S
C684 H670 0.960 . S
C684 H671 0.960 . S
C684 C683 1.524 . S
C685 C682 1.403 . S
C685 C686 1.392 . S
C685 C689 1.495 . S
C686 C685 1.392 . S
C686 C687 1.385 1_554 S
C686 C688 1.478 . S
C687 H681 0.930 . S
C687 C683 1.400 . S
C687 C686 1.385 1_556 S
C688 C686 1.478 . S
C688 C690 1.381 . S
C688 C694 1.383 . S
C689 C685 1.495 . S
C689 H695 0.959 . S
C689 H696 0.961 . S
C689 H697 0.960 . S
C690 C688 1.381 . S
C690 C691 1.394 . S
C690 H698 0.930 . S
C691 C690 1.394 . S
C691 C692 1.383 . S
C691 H699 0.929 . S
C692 C691 1.383 . S
C692 C693 1.377 . S
C693 H677 0.930 . S
C693 C692 1.377 . S
C693 C694 1.379 . S
C694 H678 0.931 . S
C694 C688 1.383 . S
C694 C693 1.379 . S
H695 C689 0.959 . S
H696 C689 0.961 . S
H697 C689 0.960 . S
H698 C690 0.930 . S
H699 C691 0.929 . S
H700 C708 0.929 . S
H701 C710 0.930 . S
H702 C712 0.930 . S
H703 C715 0.929 . S
H704 C718 0.930 . S
H705 C720 0.960 1_545 S
H706 C720 0.960 . S
H707 C720 0.960 . S
C708 H700 0.929 . S
C708 C709 1.377 . S
C708 C710 1.384 . S
C709 C708 1.377 . S
C709 C715 1.390 . S
C710 H701 0.930 . S
C710 C708 1.384 . S
C710 C711 1.372 . S
C711 C710 1.372 . S
C711 C712 1.400 . S
C711 C716 1.490 . S
C712 H702 0.930 . S
C712 C711 1.400 . S
C712 C715 1.386 . S
H713 C729 0.930 . S
H714 C730 0.931 . S
C715 H703 0.929 . S
C715 C709 1.390 . S
C715 C712 1.386 . S
C716 C711 1.490 . S
C716 C718 1.395 . S
C716 C719 1.403 . S
H717 C723 0.930 . S
C718 H704 0.930 . S
C718 C716 1.395 . S
C718 C721 1.403 1_565 S
C719 C716 1.403 . S
C719 C720 1.524 . S
C719 C723 1.400 1_565 S
C720 H705 0.960 1_565 S
C720 H706 0.960 . S
C720 H707 0.960 . S
C720 C719 1.524 . S
C721 C718 1.403 1_545 S
C721 C722 1.392 . S
C721 C725 1.495 . S
C722 C721 1.392 . S
C722 C723 1.385 . S
C722 C724 1.478 . S
C723 H717 0.930 . S
C723 C719 1.400 1_545 S
C723 C722 1.385 . S
C724 C722 1.478 . S
C724 C726 1.381 . S
C724 C730 1.383 . S
C725 C721 1.495 . S
C725 H731 0.959 1_545 S
C725 H732 0.961 . S
C725 H733 0.960 . S
C726 C724 1.381 . S
C726 C727 1.394 . S
C726 H734 0.930 . S
C727 C726 1.394 . S
C727 C728 1.383 . S
C727 H735 0.929 . S
C728 C727 1.383 . S
C728 C729 1.377 . S
C729 H713 0.930 . S
C729 C728 1.377 . S
C729 C730 1.379 . S
C730 H714 0.931 . S
C730 C724 1.383 . S
C730 C729 1.379 . S
H731 C725 0.959 1_565 S
H732 C725 0.961 . S
H733 C725 0.960 . S
H734 C726 0.930 . S
H735 C727 0.929 . S
H736 C744 0.929 . S
H737 C746 0.930 . S
H738 C748 0.930 . S
H739 C751 0.929 . S
H740 C754 0.930 . S
H741 C756 0.957 1_554 S
H742 C756 0.959 1_554 S
H743 C756 0.964 . S
C744 H736 0.929 . S
C744 C745 1.377 . S
C744 C746 1.384 . S
C745 C744 1.377 . S
C745 C751 1.390 . S
C746 H737 0.930 . S
C746 C744 1.384 . S
C746 C747 1.372 . S
C747 C746 1.372 . S
C747 C748 1.400 . S
C747 C752 1.490 . S
C748 H738 0.930 . S
C748 C747 1.400 . S
C748 C751 1.386 . S
H749 C765 0.930 . S
H750 C766 0.931 . S
C751 H739 0.929 . S
C751 C745 1.390 . S
C751 C748 1.386 . S
C752 C747 1.490 . S
C752 C754 1.395 . S
C752 C755 1.403 . S
H753 C759 0.930 . S
C754 H740 0.930 . S
C754 C752 1.395 . S
C754 C757 1.403 1_556 S
C755 C752 1.403 . S
C755 C756 1.524 . S
C755 C759 1.400 1_556 S
C756 H741 0.957 1_556 S
C756 H742 0.959 1_556 S
C756 H743 0.964 . S
C756 C755 1.524 . S
C757 C754 1.403 1_554 S
C757 C758 1.392 . S
C757 C761 1.495 . S
C758 C757 1.392 . S
C758 C759 1.385 . S
C758 C760 1.478 . S
C759 H753 0.930 . S
C759 C755 1.400 1_554 S
C759 C758 1.385 . S
C760 C758 1.478 . S
C760 C762 1.381 . S
C760 C766 1.383 . S
C761 C757 1.495 . S
C761 H767 0.959 1_554 S
C761 H768 0.961 1_554 S
C761 H769 0.960 . S
C762 C760 1.381 . S
C762 C763 1.394 . S
C762 H770 0.930 . S
C763 C762 1.394 . S
C763 C764 1.383 . S
C763 H771 0.929 . S
C764 C763 1.383 . S
C764 C765 1.377 . S
C765 H749 0.930 . S
C765 C764 1.377 . S
C765 C766 1.379 . S
C766 H750 0.931 . S
C766 C760 1.383 . S
C766 C765 1.379 . S
H767 C761 0.959 1_556 S
H768 C761 0.961 1_556 S
H769 C761 0.960 . S
H770 C762 0.930 . S
H771 C763 0.929 . S
H772 C780 0.929 . S
H773 C782 0.930 . S
H774 C784 0.930 . S
H775 C787 0.929 . S
H776 C790 0.930 . S
H777 C792 0.960 . S
H778 C792 0.960 . S
H779 C792 0.960 . S
C780 H772 0.929 . S
C780 C781 1.377 . S
C780 C782 1.384 . S
C781 C780 1.377 . S
C781 C787 1.390 . S
C782 H773 0.930 . S
C782 C780 1.384 . S
C782 C783 1.372 . S
C783 C782 1.372 . S
C783 C784 1.400 . S
C783 C788 1.490 . S
C784 H774 0.930 . S
C784 C783 1.400 . S
C784 C787 1.386 . S
H785 C801 0.930 . S
H786 C802 0.931 . S
C787 H775 0.929 . S
C787 C781 1.390 . S
C787 C784 1.386 . S
C788 C783 1.490 . S
C788 C790 1.395 . S
C788 C791 1.403 . S
H789 C795 0.930 . S
C790 H776 0.930 . S
C790 C788 1.395 . S
C790 C793 1.403 . S
C791 C788 1.403 . S
C791 C792 1.524 . S
C791 C795 1.400 . S
C792 H777 0.960 . S
C792 H778 0.960 . S
C792 H779 0.960 . S
C792 C791 1.524 . S
C793 C790 1.403 . S
C793 C794 1.392 . S
C793 C797 1.495 . S
C794 C793 1.392 . S
C794 C795 1.385 . S
C794 C796 1.478 . S
C795 H789 0.930 . S
C795 C791 1.400 . S
C795 C794 1.385 . S
C796 C794 1.478 . S
C796 C798 1.381 . S
C796 C802 1.383 . S
C797 C793 1.495 . S
C797 H803 0.959 . S
C797 H804 0.961 . S
C797 H805 0.960 . S
C798 C796 1.381 . S
C798 C799 1.394 . S
C798 H806 0.930 . S
C799 C798 1.394 . S
C799 C800 1.383 . S
C799 H807 0.929 . S
C800 C799 1.383 . S
C800 C801 1.377 . S
C801 H785 0.930 . S
C801 C800 1.377 . S
C801 C802 1.379 . S
C802 H786 0.931 . S
C802 C796 1.383 . S
C802 C801 1.379 . S
H803 C797 0.959 . S
H804 C797 0.961 . S
H805 C797 0.960 . S
H806 C798 0.930 . S
H807 C799 0.929 . S
H808 C816 0.929 . S
H809 C818 0.930 . S
H810 C820 0.930 . S
H811 C823 0.929 . S
H812 C826 0.930 . S
H813 C828 0.960 . S
H814 C828 0.960 . S
H815 C828 0.960 . S
C816 H808 0.929 . S
C816 C817 1.377 . S
C816 C818 1.384 . S
C817 C816 1.377 . S
C817 C823 1.390 . S
C818 H809 0.930 . S
C818 C816 1.384 . S
C818 C819 1.372 . S
C819 C818 1.372 . S
C819 C820 1.400 . S
C819 C824 1.490 . S
C820 H810 0.930 . S
C820 C819 1.400 . S
C820 C823 1.386 . S
H821 C837 0.930 . S
H822 C838 0.931 . S
C823 H811 0.929 . S
C823 C817 1.390 . S
C823 C820 1.386 . S
C824 C819 1.490 . S
C824 C826 1.395 . S
C824 C827 1.403 . S
H825 C831 0.930 . S
C826 H812 0.930 . S
C826 C824 1.395 . S
C826 C829 1.403 . S
C827 C824 1.403 . S
C827 C828 1.524 . S
C827 C831 1.400 . S
C828 H813 0.960 . S
C828 H814 0.960 . S
C828 H815 0.960 . S
C828 C827 1.524 . S
C829 C826 1.403 . S
C829 C830 1.392 . S
C829 C833 1.495 . S
C830 C829 1.392 . S
C830 C831 1.385 . S
C830 C832 1.478 . S
C831 H825 0.930 . S
C831 C827 1.400 . S
C831 C830 1.385 . S
C832 C830 1.478 . S
C832 C834 1.381 . S
C832 C838 1.383 . S
C833 C829 1.495 . S
C833 H839 0.959 . S
C833 H840 0.961 . S
C833 H841 0.960 . S
C834 C832 1.381 . S
C834 C835 1.394 . S
C834 H842 0.930 . S
C835 C834 1.394 . S
C835 C836 1.383 . S
C835 H843 0.929 . S
C836 C835 1.383 . S
C836 C837 1.377 . S
C837 H821 0.930 . S
C837 C836 1.377 . S
C837 C838 1.379 . S
C838 H822 0.931 . S
C838 C832 1.383 . S
C838 C837 1.379 . S
H839 C833 0.959 . S
H840 C833 0.961 . S
H841 C833 0.960 . S
H842 C834 0.930 . S
H843 C835 0.929 . S
H844 C852 0.929 . S
H845 C854 0.930 . S
H846 C856 0.930 . S
H847 C859 0.929 . S
H848 C862 0.930 . S
H849 C864 0.960 . S
H850 C864 0.960 . S
H851 C864 0.960 . S
C852 H844 0.929 . S
C852 C853 1.377 . S
C852 C854 1.384 . S
C853 C852 1.377 . S
C853 C859 1.390 . S
C854 H845 0.930 . S
C854 C852 1.384 . S
C854 C855 1.372 . S
C855 C854 1.372 . S
C855 C856 1.400 . S
C855 C860 1.490 . S
C856 H846 0.930 . S
C856 C855 1.400 . S
C856 C859 1.386 . S
H857 C873 0.930 . S
H858 C874 0.931 . S
C859 H847 0.929 . S
C859 C853 1.390 . S
C859 C856 1.386 . S
C860 C855 1.490 . S
C860 C862 1.395 . S
C860 C863 1.403 . S
H861 C867 0.930 . S
C862 H848 0.930 . S
C862 C860 1.395 . S
C862 C865 1.403 . S
C863 C860 1.403 . S
C863 C864 1.524 . S
C863 C867 1.400 . S
C864 H849 0.960 . S
C864 H850 0.960 . S
C864 H851 0.960 . S
C864 C863 1.524 . S
C865 C862 1.403 . S
C865 C866 1.392 . S
C865 C869 1.495 . S
C866 C865 1.392 . S
C866 C867 1.385 . S
C866 C868 1.478 . S
C867 H861 0.930 . S
C867 C863 1.400 . S
C867 C866 1.385 . S
C868 C866 1.478 . S
C868 C870 1.381 . S
C868 C874 1.383 . S
C869 C865 1.495 . S
C869 H875 0.959 . S
C869 H876 0.961 . S
C869 H877 0.960 . S
C870 C868 1.381 . S
C870 C871 1.394 . S
C870 H878 0.930 . S
C871 C870 1.394 . S
C871 C872 1.383 . S
C871 H879 0.929 . S
C872 C871 1.383 . S
C872 C873 1.377 . S
C873 H857 0.930 . S
C873 C872 1.377 . S
C873 C874 1.379 . S
C874 H858 0.931 . S
C874 C868 1.383 . S
C874 C873 1.379 . S
H875 C869 0.959 . S
H876 C869 0.961 . S
H877 C869 0.960 . S
H878 C870 0.930 . S
H879 C871 0.929 . S
H880 C888 0.929 . S
H881 C890 0.930 . S
H882 C892 0.930 . S
H883 C895 0.929 . S
H884 C898 0.930 . S
H885 C900 0.960 . S
H886 C900 0.960 1_556 S
H887 C900 0.960 . S
C888 H880 0.929 . S
C888 C889 1.377 . S
C888 C890 1.384 . S
C889 C888 1.377 . S
C889 C895 1.390 . S
C890 H881 0.930 . S
C890 C888 1.384 . S
C890 C891 1.372 . S
C891 C890 1.372 . S
C891 C892 1.400 . S
C891 C896 1.490 . S
C892 H882 0.930 . S
C892 C891 1.400 . S
C892 C895 1.386 . S
H893 C909 0.930 . S
H894 C910 0.931 . S
C895 H883 0.929 . S
C895 C889 1.390 . S
C895 C892 1.386 . S
C896 C891 1.490 . S
C896 C898 1.395 . S
C896 C899 1.403 1_556 S
H897 C903 0.930 . S
C898 H884 0.930 . S
C898 C896 1.395 . S
C898 C901 1.403 . S
C899 C896 1.403 1_554 S
C899 C900 1.524 . S
C899 C903 1.400 . S
C900 H885 0.960 . S
C900 H886 0.960 1_554 S
C900 H887 0.960 . S
C900 C899 1.524 . S
C901 C898 1.403 . S
C901 C902 1.392 1_556 S
C901 C905 1.495 . S
C902 C901 1.392 1_554 S
C902 C903 1.385 . S
C902 C904 1.478 . S
C903 H897 0.930 . S
C903 C899 1.400 . S
C903 C902 1.385 . S
C904 C902 1.478 . S
C904 C906 1.381 . S
C904 C910 1.383 . S
C905 C901 1.495 . S
C905 H911 0.959 . S
C905 H912 0.961 1_556 S
C905 H913 0.960 . S
C906 C904 1.381 . S
C906 C907 1.394 . S
C906 H914 0.930 . S
C907 C906 1.394 . S
C907 C908 1.383 . S
C907 H915 0.929 . S
C908 C907 1.383 . S
C908 C909 1.377 . S
C909 H893 0.930 . S
C909 C908 1.377 . S
C909 C910 1.379 . S
C910 H894 0.931 . S
C910 C904 1.383 . S
C910 C909 1.379 . S
H911 C905 0.959 . S
H912 C905 0.961 1_554 S
H913 C905 0.960 . S
H914 C906 0.930 . S
H915 C907 0.929 . S
H916 C924 0.929 . S
H917 C926 0.930 . S
H918 C928 0.930 . S
H919 C931 0.929 . S
H920 C934 0.930 . S
H921 C936 0.960 . S
H922 C936 0.960 . S
H923 C936 0.960 . S
C924 H916 0.929 . S
C924 C925 1.377 . S
C924 C926 1.384 . S
C925 C924 1.377 . S
C925 C931 1.390 . S
C926 H917 0.930 . S
C926 C924 1.384 . S
C926 C927 1.372 . S
C927 C926 1.372 . S
C927 C928 1.400 . S
C927 C932 1.490 . S
C928 H918 0.930 . S
C928 C927 1.400 . S
C928 C931 1.386 . S
H929 C945 0.930 . S
H930 C946 0.931 . S
C931 H919 0.929 . S
C931 C925 1.390 . S
C931 C928 1.386 . S
C932 C927 1.490 . S
C932 C934 1.395 . S
C932 C935 1.403 . S
H933 C939 0.930 . S
C934 H920 0.930 . S
C934 C932 1.395 . S
C934 C937 1.403 . S
C935 C932 1.403 . S
C935 C936 1.524 . S
C935 C939 1.400 . S
C936 H921 0.960 . S
C936 H922 0.960 . S
C936 H923 0.960 . S
C936 C935 1.524 . S
C937 C934 1.403 . S
C937 C938 1.392 . S
C937 C941 1.495 . S
C938 C937 1.392 . S
C938 C939 1.385 . S
C938 C940 1.478 . S
C939 H933 0.930 . S
C939 C935 1.400 . S
C939 C938 1.385 . S
C940 C938 1.478 . S
C940 C942 1.381 . S
C940 C946 1.383 . S
C941 C937 1.495 . S
C941 H947 0.959 . S
C941 H948 0.961 . S
C941 H949 0.960 . S
C942 C940 1.381 . S
C942 C943 1.394 . S
C942 H950 0.930 . S
C943 C942 1.394 . S
C943 C944 1.383 . S
C943 H951 0.929 . S
C944 C943 1.383 . S
C944 C945 1.377 . S
C945 H929 0.930 . S
C945 C944 1.377 . S
C945 C946 1.379 . S
C946 H930 0.931 . S
C946 C940 1.383 . S
C946 C945 1.379 . S
H947 C941 0.959 . S
H948 C941 0.961 . S
H949 C941 0.960 . S
H950 C942 0.930 . S
H951 C943 0.929 . S
H952 C960 0.929 . S
H953 C962 0.930 . S
H954 C964 0.930 . S
H955 C967 0.929 . S
H956 C970 0.930 . S
H957 C972 0.960 . S
H958 C972 0.960 . S
H959 C972 0.960 . S
C960 H952 0.929 . S
C960 C961 1.377 . S
C960 C962 1.384 . S
C961 C960 1.377 . S
C961 C967 1.390 . S
C962 H953 0.930 . S
C962 C960 1.384 . S
C962 C963 1.372 . S
C963 C962 1.372 . S
C963 C964 1.400 . S
C963 C968 1.490 . S
C964 H954 0.930 . S
C964 C963 1.400 . S
C964 C967 1.386 . S
H965 C981 0.930 . S
H966 C982 0.931 . S
C967 H955 0.929 . S
C967 C961 1.390 . S
C967 C964 1.386 . S
C968 C963 1.490 . S
C968 C970 1.395 . S
C968 C971 1.403 . S
H969 C975 0.930 . S
C970 H956 0.930 . S
C970 C968 1.395 . S
C970 C973 1.403 . S
C971 C968 1.403 . S
C971 C972 1.524 . S
C971 C975 1.400 . S
C972 H957 0.960 . S
C972 H958 0.960 . S
C972 H959 0.960 . S
C972 C971 1.524 . S
C973 C970 1.403 . S
C973 C974 1.392 . S
C973 C977 1.495 . S
C974 C973 1.392 . S
C974 C975 1.385 . S
C974 C976 1.478 . S
C975 H969 0.930 . S
C975 C971 1.400 . S
C975 C974 1.385 . S
C976 C974 1.478 . S
C976 C978 1.381 . S
C976 C982 1.383 . S
C977 C973 1.495 . S
C977 H983 0.959 . S
C977 H984 0.961 . S
C977 H985 0.960 . S
C978 C976 1.381 . S
C978 C979 1.394 . S
C978 H986 0.930 . S
C979 C978 1.394 . S
C979 C980 1.383 . S
C979 H987 0.929 . S
C980 C979 1.383 . S
C980 C981 1.377 . S
C981 H965 0.930 . S
C981 C980 1.377 . S
C981 C982 1.379 . S
C982 H966 0.931 . S
C982 C976 1.383 . S
C982 C981 1.379 . S
H983 C977 0.959 . S
H984 C977 0.961 . S
H985 C977 0.960 . S
H986 C978 0.930 . S
H987 C979 0.929 . S
H988 C996 0.929 . S
H989 C998 0.930 . S
H990 C1000 0.930 . S
H991 C1003 0.929 . S
H992 C1006 0.930 . S
H993 C1008 0.960 . S
H994 C1008 0.960 . S
H995 C1008 0.960 . S
C996 H988 0.929 . S
C996 C997 1.377 . S
C996 C998 1.384 . S
C997 C996 1.377 . S
C997 C1003 1.390 . S
C998 H989 0.930 . S
C998 C996 1.384 . S
C998 C999 1.372 . S
C999 C998 1.372 . S
C999 C1000 1.400 . S
C999 C1004 1.490 . S
C1000 H990 0.930 . S
C1000 C999 1.400 . S
C1000 C1003 1.386 . S
H1001 C1017 0.930 . S
H1002 C1018 0.931 . S
C1003 H991 0.929 . S
C1003 C997 1.390 . S
C1003 C1000 1.386 . S
C1004 C999 1.490 . S
C1004 C1006 1.395 . S
C1004 C1007 1.403 . S
H1005 C1011 0.930 . S
C1006 H992 0.930 . S
C1006 C1004 1.395 . S
C1006 C1009 1.403 . S
C1007 C1004 1.403 . S
C1007 C1008 1.524 . S
C1007 C1011 1.400 . S
C1008 H993 0.960 . S
C1008 H994 0.960 . S
C1008 H995 0.960 . S
C1008 C1007 1.524 . S
C1009 C1006 1.403 . S
C1009 C1010 1.392 . S
C1009 C1013 1.495 . S
C1010 C1009 1.392 . S
C1010 C1011 1.385 . S
C1010 C1012 1.478 . S
C1011 H1005 0.930 . S
C1011 C1007 1.400 . S
C1011 C1010 1.385 . S
C1012 C1010 1.478 . S
C1012 C1014 1.381 . S
C1012 C1018 1.383 . S
C1013 C1009 1.495 . S
C1013 H1019 0.959 . S
C1013 H1020 0.961 . S
C1013 H1021 0.960 . S
C1014 C1012 1.381 . S
C1014 C1015 1.394 . S
C1014 H1022 0.930 . S
C1015 C1014 1.394 . S
C1015 C1016 1.383 . S
C1015 H1023 0.929 . S
C1016 C1015 1.383 . S
C1016 C1017 1.377 . S
C1017 H1001 0.930 . S
C1017 C1016 1.377 . S
C1017 C1018 1.379 . S
C1018 H1002 0.931 . S
C1018 C1012 1.383 . S
C1018 C1017 1.379 . S
H1019 C1013 0.959 . S
H1020 C1013 0.961 . S
H1021 C1013 0.960 . S
H1022 C1014 0.930 . S
H1023 C1015 0.929 . S
H1024 C1032 0.929 . S
H1025 C1034 0.930 . S
H1026 C1036 0.930 . S
H1027 C1039 0.929 . S
H1028 C1042 0.930 . S
H1029 C1044 0.960 . S
H1030 C1044 0.960 . S
H1031 C1044 0.960 . S
C1032 H1024 0.929 . S
C1032 C1033 1.377 . S
C1032 C1034 1.384 . S
C1033 C1032 1.377 . S
C1033 C1039 1.390 . S
C1034 H1025 0.930 . S
C1034 C1032 1.384 . S
C1034 C1035 1.372 . S
C1035 C1034 1.372 . S
C1035 C1036 1.400 . S
C1035 C1040 1.490 . S
C1036 H1026 0.930 . S
C1036 C1035 1.400 . S
C1036 C1039 1.386 . S
H1037 C1053 0.930 . S
H1038 C1054 0.931 . S
C1039 H1027 0.929 . S
C1039 C1033 1.390 . S
C1039 C1036 1.386 . S
C1040 C1035 1.490 . S
C1040 C1042 1.395 1_556 S
C1040 C1043 1.403 1_556 S
H1041 C1047 0.930 . S
C1042 H1028 0.930 . S
C1042 C1040 1.395 1_554 S
C1042 C1045 1.403 . S
C1043 C1040 1.403 1_554 S
C1043 C1044 1.524 1_554 S
C1043 C1047 1.400 . S
C1044 H1029 0.960 . S
C1044 H1030 0.960 . S
C1044 H1031 0.960 . S
C1044 C1043 1.524 1_556 S
C1045 C1042 1.403 . S
C1045 C1046 1.392 . S
C1045 C1049 1.495 . S
C1046 C1045 1.392 . S
C1046 C1047 1.385 . S
C1046 C1048 1.478 . S
C1047 H1041 0.930 . S
C1047 C1043 1.400 . S
C1047 C1046 1.385 . S
C1048 C1046 1.478 . S
C1048 C1050 1.381 . S
C1048 C1054 1.383 . S
C1049 C1045 1.495 . S
C1049 H1055 0.959 . S
C1049 H1056 0.961 . S
C1049 H1057 0.960 . S
C1050 C1048 1.381 . S
C1050 C1051 1.394 . S
C1050 H1058 0.930 . S
C1051 C1050 1.394 . S
C1051 C1052 1.383 . S
C1051 H1059 0.929 . S
C1052 C1051 1.383 . S
C1052 C1053 1.377 . S
C1053 H1037 0.930 . S
C1053 C1052 1.377 . S
C1053 C1054 1.379 . S
C1054 H1038 0.931 . S
C1054 C1048 1.383 . S
C1054 C1053 1.379 . S
H1055 C1049 0.959 . S
H1056 C1049 0.961 . S
H1057 C1049 0.960 . S
H1058 C1050 0.930 . S
H1059 C1051 0.929 . S
H1060 C1068 0.929 . S
H1061 C1070 0.930 . S
H1062 C1072 0.930 . S
H1063 C1075 0.929 . S
H1064 C1078 0.930 . S
H1065 C1080 0.960 . S
H1066 C1080 0.960 . S
H1067 C1080 0.960 . S
C1068 H1060 0.929 . S
C1068 C1069 1.377 . S
C1068 C1070 1.384 . S
C1069 C1068 1.377 . S
C1069 C1075 1.390 . S
C1070 H1061 0.930 . S
C1070 C1068 1.384 . S
C1070 C1071 1.372 . S
C1071 C1070 1.372 . S
C1071 C1072 1.400 . S
C1071 C1076 1.490 . S
C1072 H1062 0.930 . S
C1072 C1071 1.400 . S
C1072 C1075 1.386 . S
H1073 C1089 0.930 . S
H1074 C1090 0.931 . S
C1075 H1063 0.929 . S
C1075 C1069 1.390 . S
C1075 C1072 1.386 . S
C1076 C1071 1.490 . S
C1076 C1078 1.395 . S
C1076 C1079 1.403 . S
H1077 C1083 0.930 . S
C1078 H1064 0.930 . S
C1078 C1076 1.395 . S
C1078 C1081 1.403 . S
C1079 C1076 1.403 . S
C1079 C1080 1.524 . S
C1079 C1083 1.400 . S
C1080 H1065 0.960 . S
C1080 H1066 0.960 . S
C1080 H1067 0.960 . S
C1080 C1079 1.524 . S
C1081 C1078 1.403 . S
C1081 C1082 1.392 . S
C1081 C1085 1.495 . S
C1082 C1081 1.392 . S
C1082 C1083 1.385 . S
C1082 C1084 1.478 . S
C1083 H1077 0.930 . S
C1083 C1079 1.400 . S
C1083 C1082 1.385 . S
C1084 C1082 1.478 . S
C1084 C1086 1.381 . S
C1084 C1090 1.383 . S
C1085 C1081 1.495 . S
C1085 H1091 0.959 . S
C1085 H1092 0.961 . S
C1085 H1093 0.960 . S
C1086 C1084 1.381 . S
C1086 C1087 1.394 . S
C1086 H1094 0.930 . S
C1087 C1086 1.394 . S
C1087 C1088 1.383 . S
C1087 H1095 0.929 . S
C1088 C1087 1.383 . S
C1088 C1089 1.377 . S
C1089 H1073 0.930 . S
C1089 C1088 1.377 . S
C1089 C1090 1.379 . S
C1090 H1074 0.931 . S
C1090 C1084 1.383 . S
C1090 C1089 1.379 . S
H1091 C1085 0.959 . S
H1092 C1085 0.961 . S
H1093 C1085 0.960 . S
H1094 C1086 0.930 . S
H1095 C1087 0.929 . S
H1096 C1104 0.929 . S
H1097 C1106 0.930 . S
H1098 C1108 0.930 . S
H1099 C1111 0.929 . S
H1100 C1114 0.930 . S
H1101 C1116 0.960 . S
H1102 C1116 0.960 . S
H1103 C1116 0.960 . S
C1104 H1096 0.929 . S
C1104 C1105 1.377 . S
C1104 C1106 1.384 . S
C1105 C1104 1.377 . S
C1105 C1111 1.390 . S
C1106 H1097 0.930 . S
C1106 C1104 1.384 . S
C1106 C1107 1.372 . S
C1107 C1106 1.372 . S
C1107 C1108 1.400 . S
C1107 C1112 1.490 . S
C1108 H1098 0.930 . S
C1108 C1107 1.400 . S
C1108 C1111 1.386 . S
H1109 C1125 0.930 . S
H1110 C1126 0.931 . S
C1111 H1099 0.929 . S
C1111 C1105 1.390 . S
C1111 C1108 1.386 . S
C1112 C1107 1.490 . S
C1112 C1114 1.395 . S
C1112 C1115 1.403 . S
H1113 C1119 0.930 . S
C1114 H1100 0.930 . S
C1114 C1112 1.395 . S
C1114 C1117 1.403 . S
C1115 C1112 1.403 . S
C1115 C1116 1.524 . S
C1115 C1119 1.400 . S
C1116 H1101 0.960 . S
C1116 H1102 0.960 . S
C1116 H1103 0.960 . S
C1116 C1115 1.524 . S
C1117 C1114 1.403 . S
C1117 C1118 1.392 . S
C1117 C1121 1.495 . S
C1118 C1117 1.392 . S
C1118 C1119 1.385 . S
C1118 C1120 1.478 . S
C1119 H1113 0.930 . S
C1119 C1115 1.400 . S
C1119 C1118 1.385 . S
C1120 C1118 1.478 . S
C1120 C1122 1.381 . S
C1120 C1126 1.383 . S
C1121 C1117 1.495 . S
C1121 H1127 0.959 . S
C1121 H1128 0.961 . S
C1121 H1129 0.960 . S
C1122 C1120 1.381 . S
C1122 C1123 1.394 . S
C1122 H1130 0.930 . S
C1123 C1122 1.394 . S
C1123 C1124 1.383 . S
C1123 H1131 0.929 . S
C1124 C1123 1.383 . S
C1124 C1125 1.377 . S
C1125 H1109 0.930 . S
C1125 C1124 1.377 . S
C1125 C1126 1.379 . S
C1126 H1110 0.931 . S
C1126 C1120 1.383 . S
C1126 C1125 1.379 . S
H1127 C1121 0.959 . S
H1128 C1121 0.961 . S
H1129 C1121 0.960 . S
H1130 C1122 0.930 . S
H1131 C1123 0.929 . S
H1132 C1140 0.929 . S
H1133 C1142 0.930 . S
H1134 C1144 0.930 . S
H1135 C1147 0.929 . S
H1136 C1150 0.930 . S
H1137 C1152 0.960 . S
H1138 C1152 0.960 . S
H1139 C1152 0.960 . S
C1140 H1132 0.929 . S
C1140 C1141 1.377 . S
C1140 C1142 1.384 . S
C1141 C1140 1.377 . S
C1141 C1147 1.390 . S
C1142 H1133 0.930 . S
C1142 C1140 1.384 . S
C1142 C1143 1.372 . S
C1143 C1142 1.372 . S
C1143 C1144 1.400 . S
C1143 C1148 1.490 . S
C1144 H1134 0.930 . S
C1144 C1143 1.400 . S
C1144 C1147 1.386 . S
H1145 C1161 0.930 . S
H1146 C1162 0.931 1_556 S
C1147 H1135 0.929 . S
C1147 C1141 1.390 . S
C1147 C1144 1.386 . S
C1148 C1143 1.490 . S
C1148 C1150 1.395 . S
C1148 C1151 1.403 . S
H1149 C1155 0.930 1_554 S
C1150 H1136 0.930 . S
C1150 C1148 1.395 . S
C1150 C1153 1.403 . S
C1151 C1148 1.403 . S
C1151 C1152 1.524 . S
C1151 C1155 1.400 . S
C1152 H1137 0.960 . S
C1152 H1138 0.960 . S
C1152 H1139 0.960 . S
C1152 C1151 1.524 . S
C1153 C1150 1.403 . S
C1153 C1154 1.392 1_556 S
C1153 C1157 1.495 . S
C1154 C1153 1.392 1_554 S
C1154 C1155 1.385 1_554 S
C1154 C1156 1.478 . S
C1155 H1149 0.930 1_556 S
C1155 C1151 1.400 . S
C1155 C1154 1.385 1_556 S
C1156 C1154 1.478 . S
C1156 C1158 1.381 . S
C1156 C1162 1.383 . S
C1157 C1153 1.495 . S
C1157 H1163 0.959 . S
C1157 H1164 0.961 . S
C1157 H1165 0.960 1_556 S
C1158 C1156 1.381 . S
C1158 C1159 1.394 . S
C1158 H1166 0.930 . S
C1159 C1158 1.394 . S
C1159 C1160 1.383 . S
C1159 H1167 0.929 . S
C1160 C1159 1.383 . S
C1160 C1161 1.377 . S
C1161 H1145 0.930 . S
C1161 C1160 1.377 . S
C1161 C1162 1.379 . S
C1162 H1146 0.931 1_554 S
C1162 C1156 1.383 . S
C1162 C1161 1.379 . S
H1163 C1157 0.959 . S
H1164 C1157 0.961 . S
H1165 C1157 0.960 1_554 S
H1166 C1158 0.930 . S
H1167 C1159 0.929 . S
H1168 C1176 0.929 . S
H1169 C1178 0.930 . S
H1170 C1180 0.930 1_556 S
H1171 C1183 0.929 . S
H1172 C1186 0.930 . S
H1173 C1188 0.960 . S
H1174 C1188 0.960 . S
H1175 C1188 0.960 . S
C1176 H1168 0.929 . S
C1176 C1177 1.377 . S
C1176 C1178 1.384 . S
C1177 C1176 1.377 . S
C1177 C1183 1.390 . S
C1178 H1169 0.930 . S
C1178 C1176 1.384 . S
C1178 C1179 1.372 . S
C1179 C1178 1.372 . S
C1179 C1180 1.400 . S
C1179 C1184 1.490 . S
C1180 H1170 0.930 1_554 S
C1180 C1179 1.400 . S
C1180 C1183 1.386 . S
H1181 C1197 0.930 . S
H1182 C1198 0.931 . S
C1183 H1171 0.929 . S
C1183 C1177 1.390 . S
C1183 C1180 1.386 . S
C1184 C1179 1.490 . S
C1184 C1186 1.395 . S
C1184 C1187 1.403 1_554 S
H1185 C1191 0.930 . S
C1186 H1172 0.930 . S
C1186 C1184 1.395 . S
C1186 C1189 1.403 1_554 S
C1187 C1184 1.403 1_556 S
C1187 C1188 1.524 . S
C1187 C1191 1.400 . S
C1188 H1173 0.960 . S
C1188 H1174 0.960 . S
C1188 H1175 0.960 . S
C1188 C1187 1.524 . S
C1189 C1186 1.403 1_556 S
C1189 C1190 1.392 . S
C1189 C1193 1.495 1_556 S
C1190 C1189 1.392 . S
C1190 C1191 1.385 . S
C1190 C1192 1.478 . S
C1191 H1185 0.930 . S
C1191 C1187 1.400 . S
C1191 C1190 1.385 . S
C1192 C1190 1.478 . S
C1192 C1194 1.381 . S
C1192 C1198 1.383 . S
C1193 C1189 1.495 1_554 S
C1193 H1199 0.959 . S
C1193 H1200 0.961 1_554 S
C1193 H1201 0.960 . S
C1194 C1192 1.381 . S
C1194 C1195 1.394 . S
C1194 H1202 0.930 . S
C1195 C1194 1.394 . S
C1195 C1196 1.383 . S
C1195 H1203 0.929 . S
C1196 C1195 1.383 . S
C1196 C1197 1.377 . S
C1197 H1181 0.930 . S
C1197 C1196 1.377 . S
C1197 C1198 1.379 . S
C1198 H1182 0.931 . S
C1198 C1192 1.383 . S
C1198 C1197 1.379 . S
H1199 C1193 0.959 . S
H1200 C1193 0.961 1_556 S
H1201 C1193 0.960 . S
H1202 C1194 0.930 . S
H1203 C1195 0.929 . S
H1204 C1212 0.929 . S
H1205 C1214 0.930 . S
H1206 C1216 0.930 . S
H1207 C1219 0.929 . S
H1208 C1222 0.930 . S
H1209 C1224 0.960 . S
H1210 C1224 0.960 . S
H1211 C1224 0.960 . S
C1212 H1204 0.929 . S
C1212 C1213 1.377 . S
C1212 C1214 1.384 . S
C1213 C1212 1.377 . S
C1213 C1219 1.390 . S
C1214 H1205 0.930 . S
C1214 C1212 1.384 . S
C1214 C1215 1.372 . S
C1215 C1214 1.372 . S
C1215 C1216 1.400 . S
C1215 C1220 1.490 . S
C1216 H1206 0.930 . S
C1216 C1215 1.400 . S
C1216 C1219 1.386 . S
H1217 C1233 0.930 . S
H1218 C1234 0.931 . S
C1219 H1207 0.929 . S
C1219 C1213 1.390 . S
C1219 C1216 1.386 . S
C1220 C1215 1.490 . S
C1220 C1222 1.395 . S
C1220 C1223 1.403 . S
H1221 C1227 0.930 . S
C1222 H1208 0.930 . S
C1222 C1220 1.395 . S
C1222 C1225 1.403 . S
C1223 C1220 1.403 . S
C1223 C1224 1.524 . S
C1223 C1227 1.400 . S
C1224 H1209 0.960 . S
C1224 H1210 0.960 . S
C1224 H1211 0.960 . S
C1224 C1223 1.524 . S
C1225 C1222 1.403 . S
C1225 C1226 1.392 . S
C1225 C1229 1.495 . S
C1226 C1225 1.392 . S
C1226 C1227 1.385 . S
C1226 C1228 1.478 . S
C1227 H1221 0.930 . S
C1227 C1223 1.400 . S
C1227 C1226 1.385 . S
C1228 C1226 1.478 . S
C1228 C1230 1.381 . S
C1228 C1234 1.383 . S
C1229 C1225 1.495 . S
C1229 H1235 0.959 . S
C1229 H1236 0.961 . S
C1229 H1237 0.960 . S
C1230 C1228 1.381 . S
C1230 C1231 1.394 . S
C1230 H1238 0.930 . S
C1231 C1230 1.394 . S
C1231 C1232 1.383 . S
C1231 H1239 0.929 . S
C1232 C1231 1.383 . S
C1232 C1233 1.377 . S
C1233 H1217 0.930 . S
C1233 C1232 1.377 . S
C1233 C1234 1.379 . S
C1234 H1218 0.931 . S
C1234 C1228 1.383 . S
C1234 C1233 1.379 . S
H1235 C1229 0.959 . S
H1236 C1229 0.961 . S
H1237 C1229 0.960 . S
H1238 C1230 0.930 . S
H1239 C1231 0.929 . S
H1240 C1248 0.929 . S
H1241 C1250 0.930 . S
H1242 C1252 0.930 . S
H1243 C1255 0.929 . S
H1244 C1258 0.930 . S
H1245 C1260 0.960 . S
H1246 C1260 0.960 . S
H1247 C1260 0.960 . S
C1248 H1240 0.929 . S
C1248 C1249 1.377 . S
C1248 C1250 1.384 . S
C1249 C1248 1.377 . S
C1249 C1255 1.390 . S
C1250 H1241 0.930 . S
C1250 C1248 1.384 . S
C1250 C1251 1.372 . S
C1251 C1250 1.372 . S
C1251 C1252 1.400 . S
C1251 C1256 1.490 . S
C1252 H1242 0.930 . S
C1252 C1251 1.400 . S
C1252 C1255 1.386 . S
H1253 C1269 0.930 . S
H1254 C1270 0.931 . S
C1255 H1243 0.929 . S
C1255 C1249 1.390 . S
C1255 C1252 1.386 . S
C1256 C1251 1.490 . S
C1256 C1258 1.395 . S
C1256 C1259 1.403 . S
H1257 C1263 0.930 . S
C1258 H1244 0.930 . S
C1258 C1256 1.395 . S
C1258 C1261 1.403 . S
C1259 C1256 1.403 . S
C1259 C1260 1.524 . S
C1259 C1263 1.400 . S
C1260 H1245 0.960 . S
C1260 H1246 0.960 . S
C1260 H1247 0.960 . S
C1260 C1259 1.524 . S
C1261 C1258 1.403 . S
C1261 C1262 1.392 . S
C1261 C1265 1.495 . S
C1262 C1261 1.392 . S
C1262 C1263 1.385 . S
C1262 C1264 1.478 . S
C1263 H1257 0.930 . S
C1263 C1259 1.400 . S
C1263 C1262 1.385 . S
C1264 C1262 1.478 . S
C1264 C1266 1.381 . S
C1264 C1270 1.383 . S
C1265 C1261 1.495 . S
C1265 H1271 0.959 . S
C1265 H1272 0.961 . S
C1265 H1273 0.960 . S
C1266 C1264 1.381 . S
C1266 C1267 1.394 . S
C1266 H1274 0.930 . S
C1267 C1266 1.394 . S
C1267 C1268 1.383 . S
C1267 H1275 0.929 . S
C1268 C1267 1.383 . S
C1268 C1269 1.377 . S
C1269 H1253 0.930 . S
C1269 C1268 1.377 . S
C1269 C1270 1.379 . S
C1270 H1254 0.931 . S
C1270 C1264 1.383 . S
C1270 C1269 1.379 . S
H1271 C1265 0.959 . S
H1272 C1265 0.961 . S
H1273 C1265 0.960 . S
H1274 C1266 0.930 . S
H1275 C1267 0.929 . S
H1276 C1284 0.929 . S
H1277 C1286 0.930 1_554 S
H1278 C1288 0.930 . S
H1279 C1291 0.929 . S
H1280 C1294 0.930 . S
H1281 C1296 0.960 . S
H1282 C1296 0.960 . S
H1283 C1296 0.960 . S
C1284 H1276 0.929 . S
C1284 C1285 1.377 . S
C1284 C1286 1.384 . S
C1285 C1284 1.377 . S
C1285 C1291 1.390 . S
C1286 H1277 0.930 1_556 S
C1286 C1284 1.384 . S
C1286 C1287 1.372 . S
C1287 C1286 1.372 . S
C1287 C1288 1.400 . S
C1287 C1292 1.490 1_556 S
C1288 H1278 0.930 . S
C1288 C1287 1.400 . S
C1288 C1291 1.386 . S
H1289 C1305 0.930 . S
H1290 C1306 0.931 . S
C1291 H1279 0.929 . S
C1291 C1285 1.390 . S
C1291 C1288 1.386 . S
C1292 C1287 1.490 1_554 S
C1292 C1294 1.395 . S
C1292 C1295 1.403 . S
H1293 C1299 0.930 . S
C1294 H1280 0.930 . S
C1294 C1292 1.395 . S
C1294 C1297 1.403 . S
C1295 C1292 1.403 . S
C1295 C1296 1.524 1_554 S
C1295 C1299 1.400 . S
C1296 H1281 0.960 . S
C1296 H1282 0.960 . S
C1296 H1283 0.960 . S
C1296 C1295 1.524 1_556 S
C1297 C1294 1.403 . S
C1297 C1298 1.392 . S
C1297 C1301 1.495 . S
C1298 C1297 1.392 . S
C1298 C1299 1.385 . S
C1298 C1300 1.478 . S
C1299 H1293 0.930 . S
C1299 C1295 1.400 . S
C1299 C1298 1.385 . S
C1300 C1298 1.478 . S
C1300 C1302 1.381 . S
C1300 C1306 1.383 . S
C1301 C1297 1.495 . S
C1301 H1307 0.959 . S
C1301 H1308 0.961 . S
C1301 H1309 0.960 . S
C1302 C1300 1.381 . S
C1302 C1303 1.394 . S
C1302 H1310 0.930 . S
C1303 C1302 1.394 . S
C1303 C1304 1.383 . S
C1303 H1311 0.929 . S
C1304 C1303 1.383 . S
C1304 C1305 1.377 . S
C1305 H1289 0.930 . S
C1305 C1304 1.377 . S
C1305 C1306 1.379 . S
C1306 H1290 0.931 . S
C1306 C1300 1.383 . S
C1306 C1305 1.379 . S
H1307 C1301 0.959 . S
H1308 C1301 0.961 . S
H1309 C1301 0.960 . S
H1310 C1302 0.930 . S
H1311 C1303 0.929 . S
H1312 C1320 0.929 . S
H1313 C1322 0.930 . S
H1314 C1324 0.930 . S
H1315 C1327 0.929 . S
H1316 C1330 0.930 . S
H1317 C1332 0.960 . S
H1318 C1332 0.960 . S
H1319 C1332 0.960 . S
C1320 H1312 0.929 . S
C1320 C1321 1.377 . S
C1320 C1322 1.384 . S
C1321 C1320 1.377 . S
C1321 C1327 1.390 . S
C1322 H1313 0.930 . S
C1322 C1320 1.384 . S
C1322 C1323 1.372 . S
C1323 C1322 1.372 . S
C1323 C1324 1.400 . S
C1323 C1328 1.490 . S
C1324 H1314 0.930 . S
C1324 C1323 1.400 . S
C1324 C1327 1.386 . S
H1325 C1341 0.930 . S
H1326 C1342 0.931 . S
C1327 H1315 0.929 . S
C1327 C1321 1.390 . S
C1327 C1324 1.386 . S
C1328 C1323 1.490 . S
C1328 C1330 1.395 . S
C1328 C1331 1.403 . S
H1329 C1335 0.930 . S
C1330 H1316 0.930 . S
C1330 C1328 1.395 . S
C1330 C1333 1.403 . S
C1331 C1328 1.403 . S
C1331 C1332 1.524 . S
C1331 C1335 1.400 . S
C1332 H1317 0.960 . S
C1332 H1318 0.960 . S
C1332 H1319 0.960 . S
C1332 C1331 1.524 . S
C1333 C1330 1.403 . S
C1333 C1334 1.392 . S
C1333 C1337 1.495 . S
C1334 C1333 1.392 . S
C1334 C1335 1.385 . S
C1334 C1336 1.478 . S
C1335 H1329 0.930 . S
C1335 C1331 1.400 . S
C1335 C1334 1.385 . S
C1336 C1334 1.478 . S
C1336 C1338 1.381 . S
C1336 C1342 1.383 . S
C1337 C1333 1.495 . S
C1337 H1343 0.959 . S
C1337 H1344 0.961 . S
C1337 H1345 0.960 . S
C1338 C1336 1.381 . S
C1338 C1339 1.394 . S
C1338 H1346 0.930 . S
C1339 C1338 1.394 . S
C1339 C1340 1.383 . S
C1339 H1347 0.929 . S
C1340 C1339 1.383 . S
C1340 C1341 1.377 . S
C1341 H1325 0.930 . S
C1341 C1340 1.377 . S
C1341 C1342 1.379 . S
C1342 H1326 0.931 . S
C1342 C1336 1.383 . S
C1342 C1341 1.379 . S
H1343 C1337 0.959 . S
H1344 C1337 0.961 . S
H1345 C1337 0.960 . S
H1346 C1338 0.930 . S
H1347 C1339 0.929 . S
H1348 C1356 0.929 . S
H1349 C1358 0.930 . S
H1350 C1360 0.930 . S
H1351 C1363 0.929 . S
H1352 C1366 0.930 . S
H1353 C1368 0.960 . S
H1354 C1368 0.960 . S
H1355 C1368 0.960 . S
C1356 H1348 0.929 . S
C1356 C1357 1.377 . S
C1356 C1358 1.384 . S
C1357 C1356 1.377 . S
C1357 C1363 1.390 . S
C1358 H1349 0.930 . S
C1358 C1356 1.384 . S
C1358 C1359 1.372 . S
C1359 C1358 1.372 . S
C1359 C1360 1.400 . S
C1359 C1364 1.490 . S
C1360 H1350 0.930 . S
C1360 C1359 1.400 . S
C1360 C1363 1.386 . S
H1361 C1377 0.930 . S
H1362 C1378 0.931 . S
C1363 H1351 0.929 . S
C1363 C1357 1.390 . S
C1363 C1360 1.386 . S
C1364 C1359 1.490 . S
C1364 C1366 1.395 . S
C1364 C1367 1.403 1_554 S
H1365 C1371 0.930 . S
C1366 H1352 0.930 . S
C1366 C1364 1.395 . S
C1366 C1369 1.403 1_554 S
C1367 C1364 1.403 1_556 S
C1367 C1368 1.524 . S
C1367 C1371 1.400 . S
C1368 H1353 0.960 . S
C1368 H1354 0.960 . S
C1368 H1355 0.960 . S
C1368 C1367 1.524 . S
C1369 C1366 1.403 1_556 S
C1369 C1370 1.392 . S
C1369 C1373 1.495 1_556 S
C1370 C1369 1.392 . S
C1370 C1371 1.385 . S
C1370 C1372 1.478 . S
C1371 H1365 0.930 . S
C1371 C1367 1.400 . S
C1371 C1370 1.385 . S
C1372 C1370 1.478 . S
C1372 C1374 1.381 . S
C1372 C1378 1.383 . S
C1373 C1369 1.495 1_554 S
C1373 H1379 0.959 . S
C1373 H1380 0.961 . S
C1373 H1381 0.960 . S
C1374 C1372 1.381 . S
C1374 C1375 1.394 . S
C1374 H1382 0.930 . S
C1375 C1374 1.394 . S
C1375 C1376 1.383 . S
C1375 H1383 0.929 . S
C1376 C1375 1.383 . S
C1376 C1377 1.377 . S
C1377 H1361 0.930 . S
C1377 C1376 1.377 . S
C1377 C1378 1.379 . S
C1378 H1362 0.931 . S
C1378 C1372 1.383 . S
C1378 C1377 1.379 . S
H1379 C1373 0.959 . S
H1380 C1373 0.961 . S
H1381 C1373 0.960 . S
H1382 C1374 0.930 . S
H1383 C1375 0.929 . S
H1384 C1392 0.929 . S
H1385 C1394 0.930 . S
H1386 C1396 0.930 . S
H1387 C1399 0.929 . S
H1388 C1402 0.930 . S
H1389 C1404 0.960 . S
H1390 C1404 0.960 1_554 S
H1391 C1404 0.960 . S
C1392 H1384 0.929 . S
C1392 C1393 1.377 . S
C1392 C1394 1.384 . S
C1393 C1392 1.377 . S
C1393 C1399 1.390 . S
C1394 H1385 0.930 . S
C1394 C1392 1.384 . S
C1394 C1395 1.372 . S
C1395 C1394 1.372 . S
C1395 C1396 1.400 . S
C1395 C1400 1.490 . S
C1396 H1386 0.930 . S
C1396 C1395 1.400 . S
C1396 C1399 1.386 . S
H1397 C1413 0.930 . S
H1398 C1414 0.931 . S
C1399 H1387 0.929 . S
C1399 C1393 1.390 . S
C1399 C1396 1.386 . S
C1400 C1395 1.490 . S
C1400 C1402 1.395 . S
C1400 C1403 1.403 . S
H1401 C1407 0.930 . S
C1402 H1388 0.930 . S
C1402 C1400 1.395 . S
C1402 C1405 1.403 . S
C1403 C1400 1.403 . S
C1403 C1404 1.524 1_554 S
C1403 C1407 1.400 1_554 S
C1404 H1389 0.960 . S
C1404 H1390 0.960 1_556 S
C1404 H1391 0.960 . S
C1404 C1403 1.524 1_556 S
C1405 C1402 1.403 . S
C1405 C1406 1.392 . S
C1405 C1409 1.495 . S
C1406 C1405 1.392 . S
C1406 C1407 1.385 1_554 S
C1406 C1408 1.478 1_554 S
C1407 H1401 0.930 . S
C1407 C1403 1.400 1_556 S
C1407 C1406 1.385 1_556 S
C1408 C1406 1.478 1_556 S
C1408 C1410 1.381 . S
C1408 C1414 1.383 . S
C1409 C1405 1.495 . S
C1409 H1415 0.959 . S
C1409 H1416 0.961 . S
C1409 H1417 0.960 . S
C1410 C1408 1.381 . S
C1410 C1411 1.394 . S
C1410 H1418 0.930 1_556 S
C1411 C1410 1.394 . S
C1411 C1412 1.383 . S
C1411 H1419 0.929 . S
C1412 C1411 1.383 . S
C1412 C1413 1.377 . S
C1413 H1397 0.930 . S
C1413 C1412 1.377 . S
C1413 C1414 1.379 . S
C1414 H1398 0.931 . S
C1414 C1408 1.383 . S
C1414 C1413 1.379 . S
H1415 C1409 0.959 . S
H1416 C1409 0.961 . S
H1417 C1409 0.960 . S
H1418 C1410 0.930 1_554 S
H1419 C1411 0.929 . S
H1420 C1428 0.929 . S
H1421 C1430 0.930 . S
H1422 C1432 0.930 . S
H1423 C1435 0.929 . S
H1424 C1438 0.930 . S
H1425 C1440 0.960 . S
H1426 C1440 0.960 . S
H1427 C1440 0.960 . S
C1428 H1420 0.929 . S
C1428 C1429 1.377 . S
C1428 C1430 1.384 . S
C1429 C1428 1.377 . S
C1429 C1435 1.390 . S
C1430 H1421 0.930 . S
C1430 C1428 1.384 . S
C1430 C1431 1.372 . S
C1431 C1430 1.372 . S
C1431 C1432 1.400 . S
C1431 C1436 1.490 . S
C1432 H1422 0.930 . S
C1432 C1431 1.400 . S
C1432 C1435 1.386 . S
H1433 C1449 0.930 . S
H1434 C1450 0.931 . S
C1435 H1423 0.929 . S
C1435 C1429 1.390 . S
C1435 C1432 1.386 . S
C1436 C1431 1.490 . S
C1436 C1438 1.395 . S
C1436 C1439 1.403 . S
H1437 C1443 0.930 . S
C1438 H1424 0.930 . S
C1438 C1436 1.395 . S
C1438 C1441 1.403 . S
C1439 C1436 1.403 . S
C1439 C1440 1.524 . S
C1439 C1443 1.400 . S
C1440 H1425 0.960 . S
C1440 H1426 0.960 . S
C1440 H1427 0.960 . S
C1440 C1439 1.524 . S
C1441 C1438 1.403 . S
C1441 C1442 1.392 . S
C1441 C1445 1.495 . S
C1442 C1441 1.392 . S
C1442 C1443 1.385 . S
C1442 C1444 1.478 . S
C1443 H1437 0.930 . S
C1443 C1439 1.400 . S
C1443 C1442 1.385 . S
C1444 C1442 1.478 . S
C1444 C1446 1.381 . S
C1444 C1450 1.383 . S
C1445 C1441 1.495 . S
C1445 H1451 0.959 . S
C1445 H1452 0.961 . S
C1445 H1453 0.960 . S
C1446 C1444 1.381 . S
C1446 C1447 1.394 . S
C1446 H1454 0.930 . S
C1447 C1446 1.394 . S
C1447 C1448 1.383 . S
C1447 H1455 0.929 . S
C1448 C1447 1.383 . S
C1448 C1449 1.377 . S
C1449 H1433 0.930 . S
C1449 C1448 1.377 . S
C1449 C1450 1.379 . S
C1450 H1434 0.931 . S
C1450 C1444 1.383 . S
C1450 C1449 1.379 . S
H1451 C1445 0.959 . S
H1452 C1445 0.961 . S
H1453 C1445 0.960 . S
H1454 C1446 0.930 . S
H1455 C1447 0.929 . S
H1456 C1464 0.929 . S
H1457 C1466 0.930 . S
H1458 C1468 0.930 . S
H1459 C1471 0.929 . S
H1460 C1474 0.930 . S
H1461 C1476 0.960 . S
H1462 C1476 0.960 . S
H1463 C1476 0.960 . S
C1464 H1456 0.929 . S
C1464 C1465 1.377 . S
C1464 C1466 1.384 . S
C1465 C1464 1.377 . S
C1465 C1471 1.390 . S
C1466 H1457 0.930 . S
C1466 C1464 1.384 . S
C1466 C1467 1.372 . S
C1467 C1466 1.372 . S
C1467 C1468 1.400 . S
C1467 C1472 1.490 . S
C1468 H1458 0.930 . S
C1468 C1467 1.400 . S
C1468 C1471 1.386 . S
H1469 C1485 0.930 . S
H1470 C1486 0.931 . S
C1471 H1459 0.929 . S
C1471 C1465 1.390 . S
C1471 C1468 1.386 . S
C1472 C1467 1.490 . S
C1472 C1474 1.395 . S
C1472 C1475 1.403 . S
H1473 C1479 0.930 . S
C1474 H1460 0.930 . S
C1474 C1472 1.395 . S
C1474 C1477 1.403 . S
C1475 C1472 1.403 . S
C1475 C1476 1.524 . S
C1475 C1479 1.400 . S
C1476 H1461 0.960 . S
C1476 H1462 0.960 . S
C1476 H1463 0.960 . S
C1476 C1475 1.524 . S
C1477 C1474 1.403 . S
C1477 C1478 1.392 . S
C1477 C1481 1.495 . S
C1478 C1477 1.392 . S
C1478 C1479 1.385 . S
C1478 C1480 1.478 . S
C1479 H1473 0.930 . S
C1479 C1475 1.400 . S
C1479 C1478 1.385 . S
C1480 C1478 1.478 . S
C1480 C1482 1.381 . S
C1480 C1486 1.383 . S
C1481 C1477 1.495 . S
C1481 H1487 0.959 . S
C1481 H1488 0.961 . S
C1481 H1489 0.960 . S
C1482 C1480 1.381 . S
C1482 C1483 1.394 . S
C1482 H1490 0.930 . S
C1483 C1482 1.394 . S
C1483 C1484 1.383 . S
C1483 H1491 0.929 . S
C1484 C1483 1.383 . S
C1484 C1485 1.377 . S
C1485 H1469 0.930 . S
C1485 C1484 1.377 . S
C1485 C1486 1.379 . S
C1486 H1470 0.931 . S
C1486 C1480 1.383 . S
C1486 C1485 1.379 . S
H1487 C1481 0.959 . S
H1488 C1481 0.961 . S
H1489 C1481 0.960 . S
H1490 C1482 0.930 . S
H1491 C1483 0.929 . S
H1492 C1500 0.929 . S
H1493 C1502 0.930 1_554 S
H1494 C1504 0.930 . S
H1495 C1507 0.929 . S
H1496 C1510 0.930 . S
H1497 C1512 0.960 . S
H1498 C1512 0.960 . S
H1499 C1512 0.960 . S
C1500 H1492 0.929 . S
C1500 C1501 1.377 . S
C1500 C1502 1.384 . S
C1501 C1500 1.377 . S
C1501 C1507 1.390 . S
C1502 H1493 0.930 1_556 S
C1502 C1500 1.384 . S
C1502 C1503 1.372 . S
C1503 C1502 1.372 . S
C1503 C1504 1.400 . S
C1503 C1508 1.490 1_556 S
C1504 H1494 0.930 . S
C1504 C1503 1.400 . S
C1504 C1507 1.386 . S
H1505 C1521 0.930 . S
H1506 C1522 0.931 . S
C1507 H1495 0.929 . S
C1507 C1501 1.390 . S
C1507 C1504 1.386 . S
C1508 C1503 1.490 1_554 S
C1508 C1510 1.395 . S
C1508 C1511 1.403 . S
H1509 C1515 0.930 . S
C1510 H1496 0.930 . S
C1510 C1508 1.395 . S
C1510 C1513 1.403 . S
C1511 C1508 1.403 . S
C1511 C1512 1.524 1_554 S
C1511 C1515 1.400 . S
C1512 H1497 0.960 . S
C1512 H1498 0.960 . S
C1512 H1499 0.960 . S
C1512 C1511 1.524 1_556 S
C1513 C1510 1.403 . S
C1513 C1514 1.392 . S
C1513 C1517 1.495 . S
C1514 C1513 1.392 . S
C1514 C1515 1.385 . S
C1514 C1516 1.478 . S
C1515 H1509 0.930 . S
C1515 C1511 1.400 . S
C1515 C1514 1.385 . S
C1516 C1514 1.478 . S
C1516 C1518 1.381 . S
C1516 C1522 1.383 . S
C1517 C1513 1.495 . S
C1517 H1523 0.959 . S
C1517 H1524 0.961 . S
C1517 H1525 0.960 . S
C1518 C1516 1.381 . S
C1518 C1519 1.394 . S
C1518 H1526 0.930 . S
C1519 C1518 1.394 . S
C1519 C1520 1.383 . S
C1519 H1527 0.929 . S
C1520 C1519 1.383 . S
C1520 C1521 1.377 . S
C1521 H1505 0.930 . S
C1521 C1520 1.377 . S
C1521 C1522 1.379 . S
C1522 H1506 0.931 . S
C1522 C1516 1.383 . S
C1522 C1521 1.379 . S
H1523 C1517 0.959 . S
H1524 C1517 0.961 . S
H1525 C1517 0.960 . S
H1526 C1518 0.930 . S
H1527 C1519 0.929 . S
H1528 C1536 0.929 . S
H1529 C1538 0.930 . S
H1530 C1540 0.930 . S
H1531 C1543 0.929 . S
H1532 C1546 0.930 . S
H1533 C1548 0.960 . S
H1534 C1548 0.960 . S
H1535 C1548 0.960 . S
C1536 H1528 0.929 . S
C1536 C1537 1.377 . S
C1536 C1538 1.384 . S
C1537 C1536 1.377 . S
C1537 C1543 1.390 . S
C1538 H1529 0.930 . S
C1538 C1536 1.384 . S
C1538 C1539 1.372 . S
C1539 C1538 1.372 . S
C1539 C1540 1.400 . S
C1539 C1544 1.490 . S
C1540 H1530 0.930 . S
C1540 C1539 1.400 . S
C1540 C1543 1.386 . S
H1541 C1557 0.930 . S
H1542 C1558 0.931 1_556 S
C1543 H1531 0.929 . S
C1543 C1537 1.390 . S
C1543 C1540 1.386 . S
C1544 C1539 1.490 . S
C1544 C1546 1.395 . S
C1544 C1547 1.403 . S
H1545 C1551 0.930 . S
C1546 H1532 0.930 . S
C1546 C1544 1.395 . S
C1546 C1549 1.415 . S
C1547 C1544 1.403 . S
C1547 C1548 1.524 . S
C1547 C1551 1.400 . S
C1548 H1533 0.960 . S
C1548 H1534 0.960 . S
C1548 H1535 0.960 . S
C1548 C1547 1.524 . S
C1549 C1546 1.415 . S
C1549 C1550 1.390 1_556 S
C1549 C1553 1.487 1_556 S
C1550 C1549 1.390 1_554 S
C1550 C1551 1.385 1_554 S
C1550 C1552 1.478 . S
C1551 H1545 0.930 . S
C1551 C1547 1.400 . S
C1551 C1550 1.385 1_556 S
C1552 C1550 1.478 . S
C1552 C1554 1.381 . S
C1552 C1558 1.383 . S
C1553 C1549 1.487 1_554 S
C1553 H1559 0.959 . S
C1553 H1560 0.961 . S
C1553 H1561 0.960 . S
C1554 C1552 1.381 . S
C1554 C1555 1.394 . S
C1554 H1562 0.930 . S
C1555 C1554 1.394 . S
C1555 C1556 1.383 . S
C1555 H1563 0.929 . S
C1556 C1555 1.383 . S
C1556 C1557 1.377 . S
C1557 H1541 0.930 . S
C1557 C1556 1.377 . S
C1557 C1558 1.379 . S
C1558 H1542 0.931 1_554 S
C1558 C1552 1.383 . S
C1558 C1557 1.379 . S
H1559 C1553 0.959 . S
H1560 C1553 0.961 . S
H1561 C1553 0.960 . S
H1562 C1554 0.930 . S
H1563 C1555 0.929 . S
H1564 C1572 0.929 . S
H1565 C1574 0.930 . S
H1566 C1576 0.930 . S
H1567 C1579 0.929 . S
H1568 C1582 0.930 . S
H1569 C1584 0.960 . S
H1570 C1584 0.960 . S
H1571 C1584 0.960 . S
C1572 H1564 0.929 . S
C1572 C1573 1.377 . S
C1572 C1574 1.384 . S
C1573 C1572 1.377 . S
C1573 C1579 1.390 . S
C1574 H1565 0.930 . S
C1574 C1572 1.384 . S
C1574 C1575 1.372 . S
C1575 C1574 1.372 . S
C1575 C1576 1.400 . S
C1575 C1580 1.490 . S
C1576 H1566 0.930 . S
C1576 C1575 1.400 . S
C1576 C1579 1.386 . S
H1577 C1593 0.930 . S
H1578 C1594 0.931 . S
C1579 H1567 0.929 . S
C1579 C1573 1.390 . S
C1579 C1576 1.386 . S
C1580 C1575 1.490 . S
C1580 C1582 1.395 . S
C1580 C1583 1.403 . S
H1581 C1587 0.930 . S
C1582 H1568 0.930 . S
C1582 C1580 1.395 . S
C1582 C1585 1.403 . S
C1583 C1580 1.403 . S
C1583 C1584 1.524 . S
C1583 C1587 1.400 . S
C1584 H1569 0.960 . S
C1584 H1570 0.960 . S
C1584 H1571 0.960 . S
C1584 C1583 1.524 . S
C1585 C1582 1.403 . S
C1585 C1586 1.392 . S
C1585 C1589 1.495 . S
C1586 C1585 1.392 . S
C1586 C1587 1.385 . S
C1586 C1588 1.478 . S
C1587 H1581 0.930 . S
C1587 C1583 1.400 . S
C1587 C1586 1.385 . S
C1588 C1586 1.478 . S
C1588 C1590 1.381 . S
C1588 C1594 1.383 . S
C1589 C1585 1.495 . S
C1589 H1595 0.959 . S
C1589 H1596 0.961 . S
C1589 H1597 0.960 . S
C1590 C1588 1.381 . S
C1590 C1591 1.394 . S
C1590 H1598 0.930 . S
C1591 C1590 1.394 . S
C1591 C1592 1.383 . S
C1591 H1599 0.929 . S
C1592 C1591 1.383 . S
C1592 C1593 1.377 . S
C1593 H1577 0.930 . S
C1593 C1592 1.377 . S
C1593 C1594 1.379 . S
C1594 H1578 0.931 . S
C1594 C1588 1.383 . S
C1594 C1593 1.379 . S
H1595 C1589 0.959 . S
H1596 C1589 0.961 . S
H1597 C1589 0.960 . S
H1598 C1590 0.930 . S
H1599 C1591 0.929 . S
H1600 C1608 0.929 . S
H1601 C1610 0.930 . S
H1602 C1612 0.930 . S
H1603 C1615 0.929 . S
H1604 C1618 0.930 . S
H1605 C1620 0.960 . S
H1606 C1620 0.960 . S
H1607 C1620 0.960 . S
C1608 H1600 0.929 . S
C1608 C1609 1.377 . S
C1608 C1610 1.384 . S
C1609 C1608 1.377 . S
C1609 C1615 1.390 . S
C1610 H1601 0.930 . S
C1610 C1608 1.384 . S
C1610 C1611 1.372 . S
C1611 C1610 1.372 . S
C1611 C1612 1.400 . S
C1611 C1616 1.490 . S
C1612 H1602 0.930 . S
C1612 C1611 1.400 . S
C1612 C1615 1.386 . S
H1613 C1629 0.930 . S
H1614 C1630 0.931 . S
C1615 H1603 0.929 . S
C1615 C1609 1.390 . S
C1615 C1612 1.386 . S
C1616 C1611 1.490 . S
C1616 C1618 1.395 1_554 S
C1616 C1619 1.403 . S
H1617 C1623 0.930 . S
C1618 H1604 0.930 . S
C1618 C1616 1.395 1_556 S
C1618 C1621 1.403 . S
C1619 C1616 1.403 . S
C1619 C1620 1.524 . S
C1619 C1623 1.400 1_554 S
C1620 H1605 0.960 . S
C1620 H1606 0.960 . S
C1620 H1607 0.960 . S
C1620 C1619 1.524 . S
C1621 C1618 1.403 . S
C1621 C1622 1.392 . S
C1621 C1625 1.495 . S
C1622 C1621 1.392 . S
C1622 C1623 1.385 . S
C1622 C1624 1.478 . S
C1623 H1617 0.930 . S
C1623 C1619 1.400 1_556 S
C1623 C1622 1.385 . S
C1624 C1622 1.478 . S
C1624 C1626 1.381 . S
C1624 C1630 1.383 . S
C1625 C1621 1.495 . S
C1625 H1631 0.959 . S
C1625 H1632 0.961 . S
C1625 H1633 0.960 . S
C1626 C1624 1.381 . S
C1626 C1627 1.394 . S
C1626 H1634 0.930 . S
C1627 C1626 1.394 . S
C1627 C1628 1.383 . S
C1627 H1635 0.929 . S
C1628 C1627 1.383 . S
C1628 C1629 1.377 . S
C1629 H1613 0.930 . S
C1629 C1628 1.377 . S
C1629 C1630 1.379 . S
C1630 H1614 0.931 . S
C1630 C1624 1.383 . S
C1630 C1629 1.379 . S
H1631 C1625 0.959 . S
H1632 C1625 0.961 . S
H1633 C1625 0.960 . S
H1634 C1626 0.930 . S
H1635 C1627 0.929 . S
H1636 C1644 0.929 . S
H1637 C1646 0.930 . S
H1638 C1648 0.930 . S
H1639 C1651 0.929 . S
H1640 C1654 0.930 . S
H1641 C1656 0.960 . S
H1642 C1656 0.960 . S
H1643 C1656 0.960 1_655 S
C1644 H1636 0.929 . S
C1644 C1645 1.377 . S
C1644 C1646 1.384 . S
C1645 C1644 1.377 . S
C1645 C1651 1.390 . S
C1646 H1637 0.930 . S
C1646 C1644 1.384 . S
C1646 C1647 1.372 . S
C1647 C1646 1.372 . S
C1647 C1648 1.400 . S
C1647 C1652 1.490 . S
C1648 H1638 0.930 . S
C1648 C1647 1.400 . S
C1648 C1651 1.386 . S
H1649 C1665 0.930 . S
H1650 C1666 0.931 . S
C1651 H1639 0.929 . S
C1651 C1645 1.390 . S
C1651 C1648 1.386 . S
C1652 C1647 1.490 . S
C1652 C1654 1.395 . S
C1652 C1655 1.403 1_655 S
H1653 C1659 0.930 . S
C1654 H1640 0.930 . S
C1654 C1652 1.395 . S
C1654 C1657 1.403 . S
C1655 C1652 1.403 1_455 S
C1655 C1656 1.524 . S
C1655 C1659 1.400 . S
C1656 H1641 0.960 . S
C1656 H1642 0.960 . S
C1656 H1643 0.960 1_455 S
C1656 C1655 1.524 . S
C1657 C1654 1.403 . S
C1657 C1658 1.392 1_655 S
C1657 C1661 1.495 . S
C1658 C1657 1.392 1_455 S
C1658 C1659 1.385 . S
C1658 C1660 1.478 . S
C1659 H1653 0.930 . S
C1659 C1655 1.400 . S
C1659 C1658 1.385 . S
C1660 C1658 1.478 . S
C1660 C1662 1.381 . S
C1660 C1666 1.383 . S
C1661 C1657 1.495 . S
C1661 H1667 0.959 . S
C1661 H1668 0.961 . S
C1661 H1669 0.960 1_655 S
C1662 C1660 1.381 . S
C1662 C1663 1.394 . S
C1662 H1670 0.930 . S
C1663 C1662 1.394 . S
C1663 C1664 1.383 . S
C1663 H1671 0.929 . S
C1664 C1663 1.383 . S
C1664 C1665 1.377 . S
C1665 H1649 0.930 . S
C1665 C1664 1.377 . S
C1665 C1666 1.379 . S
C1666 H1650 0.931 . S
C1666 C1660 1.383 . S
C1666 C1665 1.379 . S
H1667 C1661 0.959 . S
H1668 C1661 0.961 . S
H1669 C1661 0.960 1_455 S
H1670 C1662 0.930 . S
H1671 C1663 0.929 . S
H1672 C1680 0.929 . S
H1673 C1682 0.930 . S
H1674 C1684 0.930 . S
H1675 C1687 0.929 . S
H1676 C1690 0.930 . S
H1677 C1692 0.960 . S
H1678 C1692 0.960 . S
H1679 C1692 0.960 . S
C1680 H1672 0.929 . S
C1680 C1681 1.377 . S
C1680 C1682 1.384 . S
C1681 C1680 1.377 . S
C1681 C1687 1.390 . S
C1682 H1673 0.930 . S
C1682 C1680 1.384 . S
C1682 C1683 1.372 . S
C1683 C1682 1.372 . S
C1683 C1684 1.400 . S
C1683 C1688 1.490 . S
C1684 H1674 0.930 . S
C1684 C1683 1.400 . S
C1684 C1687 1.386 . S
H1685 C1701 0.930 . S
H1686 C1702 0.931 . S
C1687 H1675 0.929 . S
C1687 C1681 1.390 . S
C1687 C1684 1.386 . S
C1688 C1683 1.490 . S
C1688 C1690 1.395 . S
C1688 C1691 1.403 . S
H1689 C1695 0.930 . S
C1690 H1676 0.930 . S
C1690 C1688 1.395 . S
C1690 C1693 1.403 . S
C1691 C1688 1.403 . S
C1691 C1692 1.524 . S
C1691 C1695 1.400 . S
C1692 H1677 0.960 . S
C1692 H1678 0.960 . S
C1692 H1679 0.960 . S
C1692 C1691 1.524 . S
C1693 C1690 1.403 . S
C1693 C1694 1.392 . S
C1693 C1697 1.495 . S
C1694 C1693 1.392 . S
C1694 C1695 1.385 . S
C1694 C1696 1.478 . S
C1695 H1689 0.930 . S
C1695 C1691 1.400 . S
C1695 C1694 1.385 . S
C1696 C1694 1.478 . S
C1696 C1698 1.381 . S
C1696 C1702 1.383 . S
C1697 C1693 1.495 . S
C1697 H1703 0.959 . S
C1697 H1704 0.961 . S
C1697 H1705 0.960 . S
C1698 C1696 1.381 . S
C1698 C1699 1.394 . S
C1698 H1706 0.930 . S
C1699 C1698 1.394 . S
C1699 C1700 1.383 . S
C1699 H1707 0.929 . S
C1700 C1699 1.383 . S
C1700 C1701 1.377 . S
C1701 H1685 0.930 . S
C1701 C1700 1.377 . S
C1701 C1702 1.379 . S
C1702 H1686 0.931 . S
C1702 C1696 1.383 . S
C1702 C1701 1.379 . S
H1703 C1697 0.959 . S
H1704 C1697 0.961 . S
H1705 C1697 0.960 . S
H1706 C1698 0.930 . S
H1707 C1699 0.929 . S
H1708 C1716 0.929 . S
H1709 C1718 0.930 . S
H1710 C1720 0.930 . S
H1711 C1723 0.929 . S
H1712 C1726 0.930 . S
H1713 C1728 0.960 . S
H1714 C1728 0.960 . S
H1715 C1728 0.960 . S
C1716 H1708 0.929 . S
C1716 C1717 1.377 . S
C1716 C1718 1.384 . S
C1717 C1716 1.377 . S
C1717 C1723 1.390 . S
C1718 H1709 0.930 . S
C1718 C1716 1.384 . S
C1718 C1719 1.372 . S
C1719 C1718 1.372 . S
C1719 C1720 1.400 . S
C1719 C1724 1.490 . S
C1720 H1710 0.930 . S
C1720 C1719 1.400 . S
C1720 C1723 1.386 . S
H1721 C1737 0.930 . S
H1722 C1738 0.931 . S
C1723 H1711 0.929 . S
C1723 C1717 1.390 . S
C1723 C1720 1.386 . S
C1724 C1719 1.490 . S
C1724 C1726 1.395 . S
C1724 C1727 1.403 . S
H1725 C1731 0.930 . S
C1726 H1712 0.930 . S
C1726 C1724 1.395 . S
C1726 C1729 1.403 . S
C1727 C1724 1.403 . S
C1727 C1728 1.524 . S
C1727 C1731 1.400 . S
C1728 H1713 0.960 . S
C1728 H1714 0.960 . S
C1728 H1715 0.960 . S
C1728 C1727 1.524 . S
C1729 C1726 1.403 . S
C1729 C1730 1.392 . S
C1729 C1733 1.495 . S
C1730 C1729 1.392 . S
C1730 C1731 1.385 . S
C1730 C1732 1.478 . S
C1731 H1725 0.930 . S
C1731 C1727 1.400 . S
C1731 C1730 1.385 . S
C1732 C1730 1.478 . S
C1732 C1734 1.381 . S
C1732 C1738 1.383 1_556 S
C1733 C1729 1.495 . S
C1733 H1739 0.959 . S
C1733 H1740 0.961 1_556 S
C1733 H1741 0.960 . S
C1734 C1732 1.381 . S
C1734 C1735 1.394 1_556 S
C1734 H1742 0.930 . S
C1735 C1734 1.394 1_554 S
C1735 C1736 1.383 . S
C1735 H1743 0.929 . S
C1736 C1735 1.383 . S
C1736 C1737 1.377 . S
C1737 H1721 0.930 . S
C1737 C1736 1.377 . S
C1737 C1738 1.379 . S
C1738 H1722 0.931 . S
C1738 C1732 1.383 1_554 S
C1738 C1737 1.379 . S
H1739 C1733 0.959 . S
H1740 C1733 0.961 1_554 S
H1741 C1733 0.960 . S
H1742 C1734 0.930 . S
H1743 C1735 0.929 . S
H1744 C1752 0.929 . S
H1745 C1754 0.930 . S
H1746 C1756 0.930 . S
H1747 C1759 0.929 . S
H1748 C1762 0.930 . S
H1749 C1764 0.960 . S
H1750 C1764 0.960 . S
H1751 C1764 0.960 . S
C1752 H1744 0.929 . S
C1752 C1753 1.377 . S
C1752 C1754 1.384 . S
C1753 C1752 1.377 . S
C1753 C1759 1.390 . S
C1754 H1745 0.930 . S
C1754 C1752 1.384 . S
C1754 C1755 1.372 . S
C1755 C1754 1.372 . S
C1755 C1756 1.400 . S
C1755 C1760 1.490 . S
C1756 H1746 0.930 . S
C1756 C1755 1.400 . S
C1756 C1759 1.386 . S
H1757 C1773 0.930 . S
H1758 C1774 0.931 . S
C1759 H1747 0.929 . S
C1759 C1753 1.390 . S
C1759 C1756 1.386 . S
C1760 C1755 1.490 . S
C1760 C1762 1.395 . S
C1760 C1763 1.403 . S
H1761 C1767 0.930 . S
C1762 H1748 0.930 . S
C1762 C1760 1.395 . S
C1762 C1765 1.403 . S
C1763 C1760 1.403 . S
C1763 C1764 1.524 . S
C1763 C1767 1.400 . S
C1764 H1749 0.960 . S
C1764 H1750 0.960 . S
C1764 H1751 0.960 . S
C1764 C1763 1.524 . S
C1765 C1762 1.403 . S
C1765 C1766 1.392 . S
C1765 C1769 1.495 . S
C1766 C1765 1.392 . S
C1766 C1767 1.385 . S
C1766 C1768 1.478 . S
C1767 H1761 0.930 . S
C1767 C1763 1.400 . S
C1767 C1766 1.385 . S
C1768 C1766 1.478 . S
C1768 C1770 1.381 . S
C1768 C1774 1.383 . S
C1769 C1765 1.495 . S
C1769 H1775 0.959 . S
C1769 H1776 0.961 . S
C1769 H1777 0.960 . S
C1770 C1768 1.381 . S
C1770 C1771 1.394 . S
C1770 H1778 0.930 . S
C1771 C1770 1.394 . S
C1771 C1772 1.383 . S
C1771 H1779 0.929 . S
C1772 C1771 1.383 . S
C1772 C1773 1.377 . S
C1773 H1757 0.930 . S
C1773 C1772 1.377 . S
C1773 C1774 1.379 . S
C1774 H1758 0.931 . S
C1774 C1768 1.383 . S
C1774 C1773 1.379 . S
H1775 C1769 0.959 . S
H1776 C1769 0.961 . S
H1777 C1769 0.960 . S
H1778 C1770 0.930 . S
H1779 C1771 0.929 . S
H1780 C1788 0.929 . S
H1781 C1790 0.930 . S
H1782 C1792 0.930 . S
H1783 C1795 0.929 . S
H1784 C1798 0.930 . S
H1785 C1800 0.960 . S
H1786 C1800 0.960 . S
H1787 C1800 0.960 . S
C1788 H1780 0.929 . S
C1788 C1789 1.377 . S
C1788 C1790 1.384 . S
C1789 C1788 1.377 . S
C1789 C1795 1.390 . S
C1790 H1781 0.930 . S
C1790 C1788 1.384 . S
C1790 C1791 1.372 . S
C1791 C1790 1.372 . S
C1791 C1792 1.400 . S
C1791 C1796 1.490 . S
C1792 H1782 0.930 . S
C1792 C1791 1.400 . S
C1792 C1795 1.386 . S
H1793 C1809 0.930 . S
H1794 C1810 0.931 . S
C1795 H1783 0.929 . S
C1795 C1789 1.390 . S
C1795 C1792 1.386 . S
C1796 C1791 1.490 . S
C1796 C1798 1.395 . S
C1796 C1799 1.403 . S
H1797 C1803 0.930 . S
C1798 H1784 0.930 . S
C1798 C1796 1.395 . S
C1798 C1801 1.403 . S
C1799 C1796 1.403 . S
C1799 C1800 1.524 . S
C1799 C1803 1.400 . S
C1800 H1785 0.960 . S
C1800 H1786 0.960 . S
C1800 H1787 0.960 . S
C1800 C1799 1.524 . S
C1801 C1798 1.403 . S
C1801 C1802 1.392 . S
C1801 C1805 1.495 . S
C1802 C1801 1.392 . S
C1802 C1803 1.385 . S
C1802 C1804 1.478 . S
C1803 H1797 0.930 . S
C1803 C1799 1.400 . S
C1803 C1802 1.385 . S
C1804 C1802 1.478 . S
C1804 C1806 1.381 . S
C1804 C1810 1.383 . S
C1805 C1801 1.495 . S
C1805 H1811 0.959 . S
C1805 H1812 0.961 . S
C1805 H1813 0.960 . S
C1806 C1804 1.381 . S
C1806 C1807 1.394 . S
C1806 H1814 0.930 . S
C1807 C1806 1.394 . S
C1807 C1808 1.383 . S
C1807 H1815 0.929 . S
C1808 C1807 1.383 . S
C1808 C1809 1.377 . S
C1809 H1793 0.930 . S
C1809 C1808 1.377 . S
C1809 C1810 1.379 . S
C1810 H1794 0.931 . S
C1810 C1804 1.383 . S
C1810 C1809 1.379 . S
H1811 C1805 0.959 . S
H1812 C1805 0.961 . S
H1813 C1805 0.960 . S
H1814 C1806 0.930 . S
H1815 C1807 0.929 . S
H1816 C1824 0.929 . S
H1817 C1826 0.930 . S
H1818 C1828 0.930 . S
H1819 C1831 0.929 . S
H1820 C1834 0.930 . S
H1821 C1836 0.960 . S
H1822 C1836 0.960 . S
H1823 C1836 0.960 . S
C1824 H1816 0.929 . S
C1824 C1825 1.377 . S
C1824 C1826 1.384 . S
C1825 C1824 1.377 . S
C1825 C1831 1.390 . S
C1826 H1817 0.930 . S
C1826 C1824 1.384 . S
C1826 C1827 1.372 . S
C1827 C1826 1.372 . S
C1827 C1828 1.400 . S
C1827 C1832 1.490 . S
C1828 H1818 0.930 . S
C1828 C1827 1.400 . S
C1828 C1831 1.386 . S
H1829 C1845 0.930 . S
H1830 C1846 0.931 . S
C1831 H1819 0.929 . S
C1831 C1825 1.390 . S
C1831 C1828 1.386 . S
C1832 C1827 1.490 . S
C1832 C1834 1.395 . S
C1832 C1835 1.403 1_556 S
H1833 C1839 0.930 . S
C1834 H1820 0.930 . S
C1834 C1832 1.395 . S
C1834 C1837 1.403 . S
C1835 C1832 1.403 1_554 S
C1835 C1836 1.524 . S
C1835 C1839 1.400 . S
C1836 H1821 0.960 . S
C1836 H1822 0.960 . S
C1836 H1823 0.960 . S
C1836 C1835 1.524 . S
C1837 C1834 1.403 . S
C1837 C1838 1.392 1_556 S
C1837 C1841 1.495 . S
C1838 C1837 1.392 1_554 S
C1838 C1839 1.385 . S
C1838 C1840 1.478 . S
C1839 H1833 0.930 . S
C1839 C1835 1.400 . S
C1839 C1838 1.385 . S
C1840 C1838 1.478 . S
C1840 C1842 1.381 . S
C1840 C1846 1.383 . S
C1841 C1837 1.495 . S
C1841 H1847 0.959 . S
C1841 H1848 0.961 . S
C1841 H1849 0.960 . S
C1842 C1840 1.381 . S
C1842 C1843 1.394 . S
C1842 H1850 0.930 . S
C1843 C1842 1.394 . S
C1843 C1844 1.383 . S
C1843 H1851 0.929 . S
C1844 C1843 1.383 . S
C1844 C1845 1.377 . S
C1845 H1829 0.930 . S
C1845 C1844 1.377 . S
C1845 C1846 1.379 . S
C1846 H1830 0.931 . S
C1846 C1840 1.383 . S
C1846 C1845 1.379 . S
H1847 C1841 0.959 . S
H1848 C1841 0.961 . S
H1849 C1841 0.960 . S
H1850 C1842 0.930 . S
H1851 C1843 0.929 . S
H1852 C1860 0.929 . S
H1853 C1862 0.930 . S
H1854 C1864 0.930 . S
H1855 C1867 0.929 . S
H1856 C1870 0.930 . S
H1857 C1872 0.960 . S
H1858 C1872 0.960 1_556 S
H1859 C1872 0.960 1_455 S
C1860 H1852 0.929 . S
C1860 C1861 1.377 . S
C1860 C1862 1.384 . S
C1861 C1860 1.377 . S
C1861 C1867 1.390 . S
C1862 H1853 0.930 . S
C1862 C1860 1.384 . S
C1862 C1863 1.372 1_556 S
C1863 C1862 1.372 1_554 S
C1863 C1864 1.400 . S
C1863 C1868 1.490 . S
C1864 H1854 0.930 . S
C1864 C1863 1.400 . S
C1864 C1867 1.386 1_554 S
H1865 C1881 0.930 . S
H1866 C1882 0.931 . S
C1867 H1855 0.929 . S
C1867 C1861 1.390 . S
C1867 C1864 1.386 1_556 S
C1868 C1863 1.490 . S
C1868 C1870 1.395 . S
C1868 C1871 1.393 1_455 S
H1869 C1875 0.930 . S
C1870 H1856 0.930 . S
C1870 C1868 1.395 . S
C1870 C1873 1.389 1_455 S
C1871 C1868 1.393 1_655 S
C1871 C1872 1.525 . S
C1871 C1875 1.410 . S
C1872 H1857 0.960 . S
C1872 H1858 0.960 1_554 S
C1872 H1859 0.960 1_655 S
C1872 C1871 1.525 . S
C1873 C1870 1.389 1_655 S
C1873 C1874 1.407 . S
C1873 C1877 1.495 1_655 S
C1874 C1873 1.407 . S
C1874 C1875 1.385 . S
C1874 C1876 1.478 . S
C1875 H1869 0.930 . S
C1875 C1871 1.410 . S
C1875 C1874 1.385 . S
C1876 C1874 1.478 . S
C1876 C1878 1.381 . S
C1876 C1882 1.383 . S
C1877 C1873 1.495 1_455 S
C1877 H1883 0.967 . S
C1877 H1884 0.963 . S
C1877 H1885 0.951 1_455 S
C1878 C1876 1.381 . S
C1878 C1879 1.394 . S
C1878 H1886 0.930 . S
C1879 C1878 1.394 . S
C1879 C1880 1.383 . S
C1879 H1887 0.929 . S
C1880 C1879 1.383 . S
C1880 C1881 1.377 . S
C1881 H1865 0.930 . S
C1881 C1880 1.377 . S
C1881 C1882 1.379 . S
C1882 H1866 0.931 . S
C1882 C1876 1.383 . S
C1882 C1881 1.379 . S
H1883 C1877 0.967 . S
H1884 C1877 0.963 . S
H1885 C1877 0.951 1_655 S
H1886 C1878 0.930 . S
H1887 C1879 0.929 . S
H1888 C1896 0.929 . S
H1889 C1898 0.930 . S
H1890 C1900 0.930 . S
H1891 C1903 0.929 . S
H1892 C1906 0.930 . S
H1893 C1908 0.960 1_554 S
H1894 C1908 0.960 . S
H1895 C1908 0.960 1_554 S
C1896 H1888 0.929 . S
C1896 C1897 1.377 . S
C1896 C1898 1.384 . S
C1897 C1896 1.377 . S
C1897 C1903 1.390 . S
C1898 H1889 0.930 . S
C1898 C1896 1.384 . S
C1898 C1899 1.372 . S
C1899 C1898 1.372 . S
C1899 C1900 1.400 . S
C1899 C1904 1.490 . S
C1900 H1890 0.930 . S
C1900 C1899 1.400 . S
C1900 C1903 1.386 . S
H1901 C1917 0.930 . S
H1902 C1918 0.931 . S
C1903 H1891 0.929 . S
C1903 C1897 1.390 . S
C1903 C1900 1.386 . S
C1904 C1899 1.490 . S
C1904 C1906 1.395 . S
C1904 C1907 1.403 1_556 S
H1905 C1911 0.930 . S
C1906 H1892 0.930 . S
C1906 C1904 1.395 . S
C1906 C1909 1.403 1_556 S
C1907 C1904 1.403 1_554 S
C1907 C1908 1.524 1_554 S
C1907 C1911 1.400 . S
C1908 H1893 0.960 1_556 S
C1908 H1894 0.960 . S
C1908 H1895 0.960 1_556 S
C1908 C1907 1.524 1_556 S
C1909 C1906 1.403 1_554 S
C1909 C1910 1.392 . S
C1909 C1913 1.495 . S
C1910 C1909 1.392 . S
C1910 C1911 1.385 . S
C1910 C1912 1.478 . S
C1911 H1905 0.930 . S
C1911 C1907 1.400 . S
C1911 C1910 1.385 . S
C1912 C1910 1.478 . S
C1912 C1914 1.381 . S
C1912 C1918 1.383 . S
C1913 C1909 1.495 . S
C1913 H1919 0.959 . S
C1913 H1920 0.961 . S
C1913 H1921 0.960 . S
C1914 C1912 1.381 . S
C1914 C1915 1.394 . S
C1914 H1922 0.930 . S
C1915 C1914 1.394 . S
C1915 C1916 1.383 . S
C1915 H1923 0.929 . S
C1916 C1915 1.383 . S
C1916 C1917 1.377 . S
C1917 H1901 0.930 . S
C1917 C1916 1.377 . S
C1917 C1918 1.379 . S
C1918 H1902 0.931 . S
C1918 C1912 1.383 . S
C1918 C1917 1.379 . S
H1919 C1913 0.959 . S
H1920 C1913 0.961 . S
H1921 C1913 0.960 . S
H1922 C1914 0.930 . S
H1923 C1915 0.929 . S
H1924 C1932 0.929 . S
H1925 C1934 0.930 . S
H1926 C1936 0.930 . S
H1927 C1939 0.929 . S
H1928 C1942 0.930 . S
H1929 C1944 0.972 . S
H1930 C1944 0.960 . S
H1931 C1944 0.960 . S
C1932 H1924 0.929 . S
C1932 C1933 1.377 . S
C1932 C1934 1.384 . S
C1933 C1932 1.377 . S
C1933 C1939 1.390 . S
C1934 H1925 0.930 . S
C1934 C1932 1.384 . S
C1934 C1935 1.372 . S
C1935 C1934 1.372 . S
C1935 C1936 1.400 . S
C1935 C1940 1.490 . S
C1936 H1926 0.930 . S
C1936 C1935 1.400 . S
C1936 C1939 1.386 . S
H1937 C1953 0.930 . S
H1938 C1954 0.931 . S
C1939 H1927 0.929 . S
C1939 C1933 1.390 . S
C1939 C1936 1.386 . S
C1940 C1935 1.490 . S
C1940 C1942 1.395 . S
C1940 C1943 1.403 . S
H1941 C1947 0.930 . S
C1942 H1928 0.930 . S
C1942 C1940 1.395 . S
C1942 C1945 1.403 1_455 S
C1943 C1940 1.403 . S
C1943 C1944 1.524 . S
C1943 C1947 1.400 1_455 S
C1944 H1929 0.972 . S
C1944 H1930 0.960 . S
C1944 H1931 0.960 . S
C1944 C1943 1.524 . S
C1945 C1942 1.403 1_655 S
C1945 C1946 1.392 . S
C1945 C1949 1.495 . S
C1946 C1945 1.392 . S
C1946 C1947 1.385 . S
C1946 C1948 1.478 . S
C1947 H1941 0.930 . S
C1947 C1943 1.400 1_655 S
C1947 C1946 1.385 . S
C1948 C1946 1.478 . S
C1948 C1950 1.381 . S
C1948 C1954 1.383 . S
C1949 C1945 1.495 . S
C1949 H1955 0.959 1_655 S
C1949 H1956 0.961 . S
C1949 H1957 0.960 . S
C1950 C1948 1.381 . S
C1950 C1951 1.394 . S
C1950 H1958 0.930 . S
C1951 C1950 1.394 . S
C1951 C1952 1.383 . S
C1951 H1959 0.929 . S
C1952 C1951 1.383 . S
C1952 C1953 1.377 . S
C1953 H1937 0.930 . S
C1953 C1952 1.377 . S
C1953 C1954 1.379 . S
C1954 H1938 0.931 . S
C1954 C1948 1.383 . S
C1954 C1953 1.379 . S
H1955 C1949 0.959 1_455 S
H1956 C1949 0.961 . S
H1957 C1949 0.960 . S
H1958 C1950 0.930 . S
H1959 C1951 0.929 . S
H1960 C1968 0.929 . S
H1961 C1970 0.930 . S
H1962 C1972 0.930 . S
H1963 C1975 0.929 . S
H1964 C1978 0.930 . S
H1965 C1980 0.960 . S
H1966 C1980 0.960 . S
H1967 C1980 0.960 . S
C1968 H1960 0.929 . S
C1968 C1969 1.377 . S
C1968 C1970 1.384 . S
C1969 C1968 1.377 . S
C1969 C1975 1.390 . S
C1970 H1961 0.930 . S
C1970 C1968 1.384 . S
C1970 C1971 1.372 . S
C1971 C1970 1.372 . S
C1971 C1972 1.400 . S
C1971 C1976 1.490 . S
C1972 H1962 0.930 . S
C1972 C1971 1.400 . S
C1972 C1975 1.386 . S
H1973 C1989 0.930 . S
H1974 C1990 0.931 . S
C1975 H1963 0.929 . S
C1975 C1969 1.390 . S
C1975 C1972 1.386 . S
C1976 C1971 1.490 . S
C1976 C1978 1.395 . S
C1976 C1979 1.403 . S
H1977 C1983 0.930 . S
C1978 H1964 0.930 . S
C1978 C1976 1.395 . S
C1978 C1981 1.403 . S
C1979 C1976 1.403 . S
C1979 C1980 1.524 . S
C1979 C1983 1.400 . S
C1980 H1965 0.960 . S
C1980 H1966 0.960 . S
C1980 H1967 0.960 . S
C1980 C1979 1.524 . S
C1981 C1978 1.403 . S
C1981 C1982 1.392 . S
C1981 C1985 1.495 . S
C1982 C1981 1.392 . S
C1982 C1983 1.385 . S
C1982 C1984 1.478 . S
C1983 H1977 0.930 . S
C1983 C1979 1.400 . S
C1983 C1982 1.385 . S
C1984 C1982 1.478 . S
C1984 C1986 1.381 . S
C1984 C1990 1.383 . S
C1985 C1981 1.495 . S
C1985 H1991 0.959 . S
C1985 H1992 0.961 . S
C1985 H1993 0.960 . S
C1986 C1984 1.381 . S
C1986 C1987 1.394 . S
C1986 H1994 0.930 . S
C1987 C1986 1.394 . S
C1987 C1988 1.383 . S
C1987 H1995 0.929 . S
C1988 C1987 1.383 . S
C1988 C1989 1.377 . S
C1989 H1973 0.930 . S
C1989 C1988 1.377 . S
C1989 C1990 1.379 . S
C1990 H1974 0.931 . S
C1990 C1984 1.383 . S
C1990 C1989 1.379 . S
H1991 C1985 0.959 . S
H1992 C1985 0.961 . S
H1993 C1985 0.960 . S
H1994 C1986 0.930 . S
H1995 C1987 0.929 . S
H1996 C2004 0.929 . S
H1997 C2006 0.930 . S
H1998 C2008 0.930 . S
H1999 C2011 0.929 . S
H2000 C2014 0.930 . S
H2001 C2016 0.960 . S
H2002 C2016 0.960 . S
H2003 C2016 0.960 . S
C2004 H1996 0.929 . S
C2004 C2005 1.377 . S
C2004 C2006 1.384 . S
C2005 C2004 1.377 . S
C2005 C2011 1.390 . S
C2006 H1997 0.930 . S
C2006 C2004 1.384 . S
C2006 C2007 1.372 . S
C2007 C2006 1.372 . S
C2007 C2008 1.400 . S
C2007 C2012 1.490 . S
C2008 H1998 0.930 . S
C2008 C2007 1.400 . S
C2008 C2011 1.386 . S
H2009 C2025 0.930 . S
H2010 C2026 0.931 . S
C2011 H1999 0.929 . S
C2011 C2005 1.390 . S
C2011 C2008 1.386 . S
C2012 C2007 1.490 . S
C2012 C2014 1.395 . S
C2012 C2015 1.403 . S
H2013 C2019 0.930 . S
C2014 H2000 0.930 . S
C2014 C2012 1.395 . S
C2014 C2017 1.403 . S
C2015 C2012 1.403 . S
C2015 C2016 1.524 . S
C2015 C2019 1.400 . S
C2016 H2001 0.960 . S
C2016 H2002 0.960 . S
C2016 H2003 0.960 . S
C2016 C2015 1.524 . S
C2017 C2014 1.403 . S
C2017 C2018 1.392 . S
C2017 C2021 1.495 . S
C2018 C2017 1.392 . S
C2018 C2019 1.385 . S
C2018 C2020 1.478 . S
C2019 H2013 0.930 . S
C2019 C2015 1.400 . S
C2019 C2018 1.385 . S
C2020 C2018 1.478 . S
C2020 C2022 1.381 1_554 S
C2020 C2026 1.383 . S
C2021 C2017 1.495 . S
C2021 H2027 0.959 . S
C2021 H2028 0.961 . S
C2021 H2029 0.960 . S
C2022 C2020 1.381 1_556 S
C2022 C2023 1.394 . S
C2022 H2030 0.930 . S
C2023 C2022 1.394 . S
C2023 C2024 1.383 . S
C2023 H2031 0.929 . S
C2024 C2023 1.383 . S
C2024 C2025 1.377 . S
C2025 H2009 0.930 . S
C2025 C2024 1.377 . S
C2025 C2026 1.379 1_556 S
C2026 H2010 0.931 . S
C2026 C2020 1.383 . S
C2026 C2025 1.379 1_554 S
H2027 C2021 0.959 . S
H2028 C2021 0.961 . S
H2029 C2021 0.960 . S
H2030 C2022 0.930 . S
H2031 C2023 0.929 . S
H2032 C2040 0.929 . S
H2033 C2042 0.930 . S
H2034 C2044 0.930 . S
H2035 C2047 0.929 . S
H2036 C2050 0.930 . S
H2037 C2052 0.960 . S
H2038 C2052 0.960 . S
H2039 C2052 0.960 . S
C2040 H2032 0.929 . S
C2040 C2041 1.377 . S
C2040 C2042 1.384 . S
C2041 C2040 1.377 . S
C2041 C2047 1.390 . S
C2042 H2033 0.930 . S
C2042 C2040 1.384 . S
C2042 C2043 1.372 . S
C2043 C2042 1.372 . S
C2043 C2044 1.400 . S
C2043 C2048 1.490 . S
C2044 H2034 0.930 . S
C2044 C2043 1.400 . S
C2044 C2047 1.386 . S
H2045 C2061 0.930 . S
H2046 C2062 0.931 . S
C2047 H2035 0.929 . S
C2047 C2041 1.390 . S
C2047 C2044 1.386 . S
C2048 C2043 1.490 . S
C2048 C2050 1.395 . S
C2048 C2051 1.403 . S
H2049 C2055 0.930 . S
C2050 H2036 0.930 . S
C2050 C2048 1.395 . S
C2050 C2053 1.403 . S
C2051 C2048 1.403 . S
C2051 C2052 1.524 . S
C2051 C2055 1.400 . S
C2052 H2037 0.960 . S
C2052 H2038 0.960 . S
C2052 H2039 0.960 . S
C2052 C2051 1.524 . S
C2053 C2050 1.403 . S
C2053 C2054 1.392 . S
C2053 C2057 1.495 . S
C2054 C2053 1.392 . S
C2054 C2055 1.385 . S
C2054 C2056 1.478 . S
C2055 H2049 0.930 . S
C2055 C2051 1.400 . S
C2055 C2054 1.385 . S
C2056 C2054 1.478 . S
C2056 C2058 1.381 . S
C2056 C2062 1.383 . S
C2057 C2053 1.495 . S
C2057 H2063 0.959 . S
C2057 H2064 0.961 . S
C2057 H2065 0.960 . S
C2058 C2056 1.381 . S
C2058 C2059 1.394 . S
C2058 H2066 0.930 . S
C2059 C2058 1.394 . S
C2059 C2060 1.383 . S
C2059 H2067 0.929 . S
C2060 C2059 1.383 . S
C2060 C2061 1.377 . S
C2061 H2045 0.930 . S
C2061 C2060 1.377 . S
C2061 C2062 1.379 . S
C2062 H2046 0.931 . S
C2062 C2056 1.383 . S
C2062 C2061 1.379 . S
H2063 C2057 0.959 . S
H2064 C2057 0.961 . S
H2065 C2057 0.960 . S
H2066 C2058 0.930 . S
H2067 C2059 0.929 . S
H2068 C2076 0.929 . S
H2069 C2078 0.930 . S
H2070 C2080 0.930 . S
H2071 C2083 0.929 . S
H2072 C2086 0.930 . S
H2073 C2088 0.960 . S
H2074 C2088 0.960 . S
H2075 C2088 0.960 . S
C2076 H2068 0.929 . S
C2076 C2077 1.377 . S
C2076 C2078 1.384 . S
C2077 C2076 1.377 . S
C2077 C2083 1.390 . S
C2078 H2069 0.930 . S
C2078 C2076 1.384 . S
C2078 C2079 1.372 . S
C2079 C2078 1.372 . S
C2079 C2080 1.400 . S
C2079 C2084 1.490 . S
C2080 H2070 0.930 . S
C2080 C2079 1.400 . S
C2080 C2083 1.386 . S
H2081 C2097 0.930 . S
H2082 C2098 0.931 . S
C2083 H2071 0.929 . S
C2083 C2077 1.390 . S
C2083 C2080 1.386 . S
C2084 C2079 1.490 . S
C2084 C2086 1.395 . S
C2084 C2087 1.403 . S
H2085 C2091 0.930 . S
C2086 H2072 0.930 . S
C2086 C2084 1.395 . S
C2086 C2089 1.403 . S
C2087 C2084 1.403 . S
C2087 C2088 1.524 . S
C2087 C2091 1.400 . S
C2088 H2073 0.960 . S
C2088 H2074 0.960 . S
C2088 H2075 0.960 . S
C2088 C2087 1.524 . S
C2089 C2086 1.403 . S
C2089 C2090 1.392 . S
C2089 C2093 1.495 . S
C2090 C2089 1.392 . S
C2090 C2091 1.385 . S
C2090 C2092 1.478 . S
C2091 H2085 0.930 . S
C2091 C2087 1.400 . S
C2091 C2090 1.385 . S
C2092 C2090 1.478 . S
C2092 C2094 1.381 . S
C2092 C2098 1.383 . S
C2093 C2089 1.495 . S
C2093 H2099 0.959 . S
C2093 H2100 0.961 . S
C2093 H2101 0.960 . S
C2094 C2092 1.381 . S
C2094 C2095 1.394 . S
C2094 H2102 0.930 . S
C2095 C2094 1.394 . S
C2095 C2096 1.383 . S
C2095 H2103 0.929 . S
C2096 C2095 1.383 . S
C2096 C2097 1.377 . S
C2097 H2081 0.930 . S
C2097 C2096 1.377 . S
C2097 C2098 1.379 . S
C2098 H2082 0.931 . S
C2098 C2092 1.383 . S
C2098 C2097 1.379 . S
H2099 C2093 0.959 . S
H2100 C2093 0.961 . S
H2101 C2093 0.960 . S
H2102 C2094 0.930 . S
H2103 C2095 0.929 . S
H2104 C2112 0.929 . S
H2105 C2114 0.930 . S
H2106 C2116 0.930 . S
H2107 C2119 0.929 . S
H2108 C2122 0.930 . S
H2109 C2124 0.960 . S
H2110 C2124 0.960 . S
H2111 C2124 0.960 1_554 S
C2112 H2104 0.929 . S
C2112 C2113 1.377 . S
C2112 C2114 1.384 . S
C2113 C2112 1.377 . S
C2113 C2119 1.390 . S
C2114 H2105 0.930 . S
C2114 C2112 1.384 . S
C2114 C2115 1.372 . S
C2115 C2114 1.372 . S
C2115 C2116 1.400 . S
C2115 C2120 1.490 . S
C2116 H2106 0.930 . S
C2116 C2115 1.400 . S
C2116 C2119 1.386 . S
H2117 C2133 0.930 . S
H2118 C2134 0.931 . S
C2119 H2107 0.929 . S
C2119 C2113 1.390 . S
C2119 C2116 1.386 . S
C2120 C2115 1.490 . S
C2120 C2122 1.395 . S
C2120 C2123 1.403 1_554 S
H2121 C2127 0.930 . S
C2122 H2108 0.930 . S
C2122 C2120 1.395 . S
C2122 C2125 1.403 1_554 S
C2123 C2120 1.403 1_556 S
C2123 C2124 1.524 . S
C2123 C2127 1.400 . S
C2124 H2109 0.960 . S
C2124 H2110 0.960 . S
C2124 H2111 0.960 1_556 S
C2124 C2123 1.524 . S
C2125 C2122 1.403 1_556 S
C2125 C2126 1.392 . S
C2125 C2129 1.495 . S
C2126 C2125 1.392 . S
C2126 C2127 1.385 . S
C2126 C2128 1.478 . S
C2127 H2121 0.930 . S
C2127 C2123 1.400 . S
C2127 C2126 1.385 . S
C2128 C2126 1.478 . S
C2128 C2130 1.381 . S
C2128 C2134 1.383 . S
C2129 C2125 1.495 . S
C2129 H2135 0.959 . S
C2129 H2136 0.961 . S
C2129 H2137 0.960 . S
C2130 C2128 1.381 . S
C2130 C2131 1.394 . S
C2130 H2138 0.930 . S
C2131 C2130 1.394 . S
C2131 C2132 1.383 . S
C2131 H2139 0.929 . S
C2132 C2131 1.383 . S
C2132 C2133 1.377 . S
C2133 H2117 0.930 . S
C2133 C2132 1.377 . S
C2133 C2134 1.379 . S
C2134 H2118 0.931 . S
C2134 C2128 1.383 . S
C2134 C2133 1.379 . S
H2135 C2129 0.959 . S
H2136 C2129 0.961 . S
H2137 C2129 0.960 . S
H2138 C2130 0.930 . S
H2139 C2131 0.929 . S
H2140 C2148 0.929 . S
H2141 C2150 0.930 . S
H2142 C2152 0.930 . S
H2143 C2155 0.929 . S
H2144 C2158 0.930 . S
H2145 C2160 0.960 1_655 S
H2146 C2160 0.960 . S
H2147 C2160 0.960 . S
C2148 H2140 0.929 . S
C2148 C2149 1.377 . S
C2148 C2150 1.384 . S
C2149 C2148 1.377 . S
C2149 C2155 1.390 . S
C2150 H2141 0.930 . S
C2150 C2148 1.384 . S
C2150 C2151 1.372 . S
C2151 C2150 1.372 . S
C2151 C2152 1.400 . S
C2151 C2156 1.490 . S
C2152 H2142 0.930 . S
C2152 C2151 1.400 . S
C2152 C2155 1.386 . S
H2153 C2169 0.930 . S
H2154 C2170 0.931 . S
C2155 H2143 0.929 . S
C2155 C2149 1.390 . S
C2155 C2152 1.386 . S
C2156 C2151 1.490 . S
C2156 C2158 1.395 . S
C2156 C2159 1.403 . S
H2157 C2163 0.930 . S
C2158 H2144 0.930 . S
C2158 C2156 1.395 . S
C2158 C2161 1.403 1_455 S
C2159 C2156 1.403 . S
C2159 C2160 1.524 . S
C2159 C2163 1.400 1_455 S
C2160 H2145 0.960 1_455 S
C2160 H2146 0.960 . S
C2160 H2147 0.960 . S
C2160 C2159 1.524 . S
C2161 C2158 1.403 1_655 S
C2161 C2162 1.392 . S
C2161 C2165 1.495 . S
C2162 C2161 1.392 . S
C2162 C2163 1.385 . S
C2162 C2164 1.478 . S
C2163 H2157 0.930 . S
C2163 C2159 1.400 1_655 S
C2163 C2162 1.385 . S
C2164 C2162 1.478 . S
C2164 C2166 1.381 . S
C2164 C2170 1.383 1_556 S
C2165 C2161 1.495 . S
C2165 H2171 0.959 1_655 S
C2165 H2172 0.969 1_556 S
C2165 H2173 0.960 . S
C2166 C2164 1.381 . S
C2166 C2167 1.394 1_556 S
C2166 H2174 0.930 . S
C2167 C2166 1.394 1_554 S
C2167 C2168 1.383 . S
C2167 H2175 0.929 . S
C2168 C2167 1.383 . S
C2168 C2169 1.377 . S
C2169 H2153 0.930 . S
C2169 C2168 1.377 . S
C2169 C2170 1.379 . S
C2170 H2154 0.931 . S
C2170 C2164 1.383 1_554 S
C2170 C2169 1.379 . S
H2171 C2165 0.959 1_455 S
H2172 C2165 0.969 1_554 S
H2173 C2165 0.960 . S
H2174 C2166 0.930 . S
H2175 C2167 0.929 . S
H2176 C2184 0.929 . S
H2177 C2186 0.930 . S
H2178 C2188 0.930 . S
H2179 C2191 0.929 . S
H2180 C2194 0.930 . S
H2181 C2196 0.960 . S
H2182 C2196 0.960 . S
H2183 C2196 0.960 . S
C2184 H2176 0.929 . S
C2184 C2185 1.377 . S
C2184 C2186 1.384 . S
C2185 C2184 1.377 . S
C2185 C2191 1.390 . S
C2186 H2177 0.930 . S
C2186 C2184 1.384 . S
C2186 C2187 1.372 . S
C2187 C2186 1.372 . S
C2187 C2188 1.400 . S
C2187 C2192 1.490 . S
C2188 H2178 0.930 . S
C2188 C2187 1.400 . S
C2188 C2191 1.386 . S
H2189 C2205 0.930 . S
H2190 C2206 0.931 . S
C2191 H2179 0.929 . S
C2191 C2185 1.390 . S
C2191 C2188 1.386 . S
C2192 C2187 1.490 . S
C2192 C2194 1.395 . S
C2192 C2195 1.403 . S
H2193 C2199 0.930 . S
C2194 H2180 0.930 . S
C2194 C2192 1.395 . S
C2194 C2197 1.403 . S
C2195 C2192 1.403 . S
C2195 C2196 1.524 . S
C2195 C2199 1.400 . S
C2196 H2181 0.960 . S
C2196 H2182 0.960 . S
C2196 H2183 0.960 . S
C2196 C2195 1.524 . S
C2197 C2194 1.403 . S
C2197 C2198 1.392 . S
C2197 C2201 1.495 . S
C2198 C2197 1.392 . S
C2198 C2199 1.385 . S
C2198 C2200 1.478 . S
C2199 H2193 0.930 . S
C2199 C2195 1.400 . S
C2199 C2198 1.385 . S
C2200 C2198 1.478 . S
C2200 C2202 1.381 . S
C2200 C2206 1.383 . S
C2201 C2197 1.495 . S
C2201 H2207 0.959 . S
C2201 H2208 0.961 . S
C2201 H2209 0.960 . S
C2202 C2200 1.381 . S
C2202 C2203 1.394 . S
C2202 H2210 0.930 . S
C2203 C2202 1.394 . S
C2203 C2204 1.383 . S
C2203 H2211 0.929 . S
C2204 C2203 1.383 . S
C2204 C2205 1.377 . S
C2205 H2189 0.930 . S
C2205 C2204 1.377 . S
C2205 C2206 1.379 . S
C2206 H2190 0.931 . S
C2206 C2200 1.383 . S
C2206 C2205 1.379 . S
H2207 C2201 0.959 . S
H2208 C2201 0.961 . S
H2209 C2201 0.960 . S
H2210 C2202 0.930 . S
H2211 C2203 0.929 . S
H2212 C2220 0.929 . S
H2213 C2222 0.930 . S
H2214 C2224 0.930 . S
H2215 C2227 0.929 . S
H2216 C2230 0.930 . S
H2217 C2232 0.960 . S
H2218 C2232 0.960 . S
H2219 C2232 0.960 . S
C2220 H2212 0.929 . S
C2220 C2221 1.377 . S
C2220 C2222 1.384 . S
C2221 C2220 1.377 . S
C2221 C2227 1.390 . S
C2222 H2213 0.930 . S
C2222 C2220 1.384 . S
C2222 C2223 1.372 . S
C2223 C2222 1.372 . S
C2223 C2224 1.400 . S
C2223 C2228 1.490 . S
C2224 H2214 0.930 . S
C2224 C2223 1.400 . S
C2224 C2227 1.386 . S
H2225 C2241 0.930 . S
H2226 C2242 0.931 . S
C2227 H2215 0.929 . S
C2227 C2221 1.390 . S
C2227 C2224 1.386 . S
C2228 C2223 1.490 . S
C2228 C2230 1.395 . S
C2228 C2231 1.403 . S
H2229 C2235 0.930 . S
C2230 H2216 0.930 . S
C2230 C2228 1.395 . S
C2230 C2233 1.403 . S
C2231 C2228 1.403 . S
C2231 C2232 1.524 . S
C2231 C2235 1.400 . S
C2232 H2217 0.960 . S
C2232 H2218 0.960 . S
C2232 H2219 0.960 . S
C2232 C2231 1.524 . S
C2233 C2230 1.403 . S
C2233 C2234 1.392 . S
C2233 C2237 1.495 . S
C2234 C2233 1.392 . S
C2234 C2235 1.385 . S
C2234 C2236 1.478 . S
C2235 H2229 0.930 . S
C2235 C2231 1.400 . S
C2235 C2234 1.385 . S
C2236 C2234 1.478 . S
C2236 C2238 1.381 . S
C2236 C2242 1.383 1_556 S
C2237 C2233 1.495 . S
C2237 H2243 0.959 . S
C2237 H2244 0.961 . S
C2237 H2245 0.960 . S
C2238 C2236 1.381 . S
C2238 C2239 1.394 1_556 S
C2238 H2246 0.930 . S
C2239 C2238 1.394 1_554 S
C2239 C2240 1.383 . S
C2239 H2247 0.929 . S
C2240 C2239 1.383 . S
C2240 C2241 1.377 . S
C2241 H2225 0.930 . S
C2241 C2240 1.377 . S
C2241 C2242 1.379 . S
C2242 H2226 0.931 . S
C2242 C2236 1.383 1_554 S
C2242 C2241 1.379 . S
H2243 C2237 0.959 . S
H2244 C2237 0.961 . S
H2245 C2237 0.960 . S
H2246 C2238 0.930 . S
H2247 C2239 0.929 . S
H2248 C2256 0.929 . S
H2249 C2258 0.930 . S
H2250 C2260 0.930 . S
H2251 C2263 0.929 . S
H2252 C2266 0.930 . S
H2253 C2268 0.960 1_556 S
H2254 C2268 0.960 . S
H2255 C2268 0.960 . S
C2256 H2248 0.929 . S
C2256 C2257 1.377 . S
C2256 C2258 1.384 . S
C2257 C2256 1.377 . S
C2257 C2263 1.390 . S
C2258 H2249 0.930 . S
C2258 C2256 1.384 . S
C2258 C2259 1.372 . S
C2259 C2258 1.372 . S
C2259 C2260 1.400 . S
C2259 C2264 1.490 . S
C2260 H2250 0.930 . S
C2260 C2259 1.400 . S
C2260 C2263 1.386 . S
H2261 C2277 0.930 . S
H2262 C2278 0.931 . S
C2263 H2251 0.929 . S
C2263 C2257 1.390 . S
C2263 C2260 1.386 . S
C2264 C2259 1.490 . S
C2264 C2266 1.395 . S
C2264 C2267 1.403 1_554 S
H2265 C2271 0.930 . S
C2266 H2252 0.930 . S
C2266 C2264 1.395 . S
C2266 C2269 1.403 1_554 S
C2267 C2264 1.403 1_556 S
C2267 C2268 1.524 1_556 S
C2267 C2271 1.400 . S
C2268 H2253 0.960 1_554 S
C2268 H2254 0.960 . S
C2268 H2255 0.960 . S
C2268 C2267 1.524 1_554 S
C2269 C2266 1.403 1_556 S
C2269 C2270 1.392 . S
C2269 C2273 1.495 . S
C2270 C2269 1.392 . S
C2270 C2271 1.385 . S
C2270 C2272 1.478 . S
C2271 H2265 0.930 . S
C2271 C2267 1.400 . S
C2271 C2270 1.385 . S
C2272 C2270 1.478 . S
C2272 C2274 1.381 . S
C2272 C2278 1.383 . S
C2273 C2269 1.495 . S
C2273 H2279 0.959 . S
C2273 H2280 0.961 . S
C2273 H2281 0.960 . S
C2274 C2272 1.381 . S
C2274 C2275 1.394 . S
C2274 H2282 0.930 . S
C2275 C2274 1.394 . S
C2275 C2276 1.383 . S
C2275 H2283 0.929 . S
C2276 C2275 1.383 . S
C2276 C2277 1.377 . S
C2277 H2261 0.930 . S
C2277 C2276 1.377 . S
C2277 C2278 1.379 . S
C2278 H2262 0.931 . S
C2278 C2272 1.383 . S
C2278 C2277 1.379 . S
H2279 C2273 0.959 . S
H2280 C2273 0.961 . S
H2281 C2273 0.960 . S
H2282 C2274 0.930 . S
H2283 C2275 0.929 . S
H2284 C2292 0.929 . S
H2285 C2294 0.930 . S
H2286 C2296 0.930 . S
H2287 C2299 0.929 . S
H2288 C2302 0.930 . S
H2289 C2304 0.960 . S
H2290 C2304 0.959 1_655 S
H2291 C2304 0.960 . S
C2292 H2284 0.929 . S
C2292 C2293 1.377 . S
C2292 C2294 1.384 . S
C2293 C2292 1.377 . S
C2293 C2299 1.390 . S
C2294 H2285 0.930 . S
C2294 C2292 1.384 . S
C2294 C2295 1.372 . S
C2295 C2294 1.372 . S
C2295 C2296 1.400 . S
C2295 C2300 1.490 . S
C2296 H2286 0.930 . S
C2296 C2295 1.400 . S
C2296 C2299 1.386 . S
H2297 C2313 0.930 . S
H2298 C2314 0.931 . S
C2299 H2287 0.929 . S
C2299 C2293 1.390 . S
C2299 C2296 1.386 . S
C2300 C2295 1.490 . S
C2300 C2302 1.395 . S
C2300 C2303 1.403 1_655 S
H2301 C2307 0.930 . S
C2302 H2288 0.930 . S
C2302 C2300 1.395 . S
C2302 C2305 1.403 . S
C2303 C2300 1.403 1_455 S
C2303 C2304 1.524 . S
C2303 C2307 1.400 . S
C2304 H2289 0.960 . S
C2304 H2290 0.959 1_455 S
C2304 H2291 0.960 . S
C2304 C2303 1.524 . S
C2305 C2302 1.403 . S
C2305 C2306 1.392 1_655 S
C2305 C2309 1.495 . S
C2306 C2305 1.392 1_455 S
C2306 C2307 1.385 . S
C2306 C2308 1.478 . S
C2307 H2301 0.930 . S
C2307 C2303 1.400 . S
C2307 C2306 1.385 . S
C2308 C2306 1.478 . S
C2308 C2310 1.381 . S
C2308 C2314 1.383 . S
C2309 C2305 1.495 . S
C2309 H2315 0.959 . S
C2309 H2316 0.961 . S
C2309 H2317 0.960 . S
C2310 C2308 1.381 . S
C2310 C2311 1.394 . S
C2310 H2318 0.930 . S
C2311 C2310 1.394 . S
C2311 C2312 1.383 . S
C2311 H2319 0.929 . S
C2312 C2311 1.383 . S
C2312 C2313 1.377 . S
C2313 H2297 0.930 . S
C2313 C2312 1.377 . S
C2313 C2314 1.379 . S
C2314 H2298 0.931 . S
C2314 C2308 1.383 . S
C2314 C2313 1.379 . S
H2315 C2309 0.959 . S
H2316 C2309 0.961 . S
H2317 C2309 0.960 . S
H2318 C2310 0.930 . S
H2319 C2311 0.929 . S
H2320 C2328 0.929 . S
H2321 C2330 0.930 . S
H2322 C2332 0.930 . S
H2323 C2335 0.929 . S
H2324 C2338 0.930 . S
H2325 C2340 0.960 1_554 S
H2326 C2340 0.960 . S
H2327 C2340 0.960 . S
C2328 H2320 0.929 . S
C2328 C2329 1.377 . S
C2328 C2330 1.384 . S
C2329 C2328 1.377 . S
C2329 C2335 1.390 . S
C2330 H2321 0.930 . S
C2330 C2328 1.384 . S
C2330 C2331 1.372 . S
C2331 C2330 1.372 . S
C2331 C2332 1.400 . S
C2331 C2336 1.490 . S
C2332 H2322 0.930 . S
C2332 C2331 1.400 . S
C2332 C2335 1.386 . S
H2333 C2349 0.930 . S
H2334 C2350 0.931 . S
C2335 H2323 0.929 . S
C2335 C2329 1.390 . S
C2335 C2332 1.386 . S
C2336 C2331 1.490 . S
C2336 C2338 1.395 . S
C2336 C2339 1.403 1_556 S
H2337 C2343 0.930 . S
C2338 H2324 0.930 . S
C2338 C2336 1.395 . S
C2338 C2341 1.403 1_556 S
C2339 C2336 1.403 1_554 S
C2339 C2340 1.524 1_554 S
C2339 C2343 1.400 . S
C2340 H2325 0.960 1_556 S
C2340 H2326 0.960 . S
C2340 H2327 0.960 . S
C2340 C2339 1.524 1_556 S
C2341 C2338 1.403 1_554 S
C2341 C2342 1.392 . S
C2341 C2345 1.495 . S
C2342 C2341 1.392 . S
C2342 C2343 1.385 . S
C2342 C2344 1.478 . S
C2343 H2337 0.930 . S
C2343 C2339 1.400 . S
C2343 C2342 1.385 . S
C2344 C2342 1.478 . S
C2344 C2346 1.381 . S
C2344 C2350 1.383 . S
C2345 C2341 1.495 . S
C2345 H2351 0.959 . S
C2345 H2352 0.961 . S
C2345 H2353 0.960 . S
C2346 C2344 1.381 . S
C2346 C2347 1.394 . S
C2346 H2354 0.930 . S
C2347 C2346 1.394 . S
C2347 C2348 1.383 . S
C2347 H2355 0.929 . S
C2348 C2347 1.383 . S
C2348 C2349 1.377 . S
C2349 H2333 0.930 . S
C2349 C2348 1.377 . S
C2349 C2350 1.379 . S
C2350 H2334 0.931 . S
C2350 C2344 1.383 . S
C2350 C2349 1.379 . S
H2351 C2345 0.959 . S
H2352 C2345 0.961 . S
H2353 C2345 0.960 . S
H2354 C2346 0.930 . S
H2355 C2347 0.929 . S
H2356 C2364 0.929 . S
H2357 C2366 0.930 . S
H2358 C2368 0.930 . S
H2359 C2371 0.929 . S
H2360 C2374 0.930 . S
H2361 C2376 0.986 . S
H2362 C2376 0.960 . S
H2363 C2376 0.960 . S
C2364 H2356 0.929 . S
C2364 C2365 1.377 . S
C2364 C2366 1.384 . S
C2365 C2364 1.377 . S
C2365 C2371 1.390 . S
C2366 H2357 0.930 . S
C2366 C2364 1.384 . S
C2366 C2367 1.372 1_556 S
C2367 C2366 1.372 1_554 S
C2367 C2368 1.400 . S
C2367 C2372 1.490 . S
C2368 H2358 0.930 . S
C2368 C2367 1.400 . S
C2368 C2371 1.386 1_554 S
H2369 C2385 0.930 . S
H2370 C2386 0.931 . S
C2371 H2359 0.929 . S
C2371 C2365 1.390 . S
C2371 C2368 1.386 1_556 S
C2372 C2367 1.490 . S
C2372 C2374 1.395 . S
C2372 C2375 1.403 . S
H2373 C2379 0.930 . S
C2374 H2360 0.930 . S
C2374 C2372 1.395 . S
C2374 C2377 1.403 1_655 S
C2375 C2372 1.403 . S
C2375 C2376 1.524 . S
C2375 C2379 1.400 1_655 S
C2376 H2361 0.986 . S
C2376 H2362 0.960 . S
C2376 H2363 0.960 . S
C2376 C2375 1.524 . S
C2377 C2374 1.403 1_455 S
C2377 C2378 1.392 . S
C2377 C2381 1.495 . S
C2378 C2377 1.392 . S
C2378 C2379 1.385 . S
C2378 C2380 1.478 . S
C2379 H2373 0.930 . S
C2379 C2375 1.400 1_455 S
C2379 C2378 1.385 . S
C2380 C2378 1.478 . S
C2380 C2382 1.381 . S
C2380 C2386 1.383 . S
C2381 C2377 1.495 . S
C2381 H2387 0.959 . S
C2381 H2388 0.961 . S
C2381 H2389 0.960 . S
C2382 C2380 1.381 . S
C2382 C2383 1.394 . S
C2382 H2390 0.930 . S
C2383 C2382 1.394 . S
C2383 C2384 1.383 . S
C2383 H2391 0.929 . S
C2384 C2383 1.383 . S
C2384 C2385 1.377 . S
C2385 H2369 0.930 . S
C2385 C2384 1.377 . S
C2385 C2386 1.379 . S
C2386 H2370 0.931 . S
C2386 C2380 1.383 . S
C2386 C2385 1.379 . S
H2387 C2381 0.959 . S
H2388 C2381 0.961 . S
H2389 C2381 0.960 . S
H2390 C2382 0.930 . S
H2391 C2383 0.929 . S
H2392 C2400 0.929 . S
H2393 C2402 0.930 . S
H2394 C2404 0.930 . S
H2395 C2407 0.929 . S
H2396 C2410 0.930 . S
H2397 C2412 0.960 . S
H2398 C2412 0.960 . S
H2399 C2412 0.960 . S
C2400 H2392 0.929 . S
C2400 C2401 1.377 . S
C2400 C2402 1.384 . S
C2401 C2400 1.377 . S
C2401 C2407 1.390 . S
C2402 H2393 0.930 . S
C2402 C2400 1.384 . S
C2402 C2403 1.372 . S
C2403 C2402 1.372 . S
C2403 C2404 1.400 . S
C2403 C2408 1.490 . S
C2404 H2394 0.930 . S
C2404 C2403 1.400 . S
C2404 C2407 1.386 . S
H2405 C2421 0.930 . S
H2406 C2422 0.931 . S
C2407 H2395 0.929 . S
C2407 C2401 1.390 . S
C2407 C2404 1.386 . S
C2408 C2403 1.490 . S
C2408 C2410 1.395 . S
C2408 C2411 1.403 . S
H2409 C2415 0.930 . S
C2410 H2396 0.930 . S
C2410 C2408 1.395 . S
C2410 C2413 1.403 . S
C2411 C2408 1.403 . S
C2411 C2412 1.524 . S
C2411 C2415 1.400 . S
C2412 H2397 0.960 . S
C2412 H2398 0.960 . S
C2412 H2399 0.960 . S
C2412 C2411 1.524 . S
C2413 C2410 1.403 . S
C2413 C2414 1.392 . S
C2413 C2417 1.495 . S
C2414 C2413 1.392 . S
C2414 C2415 1.385 . S
C2414 C2416 1.478 . S
C2415 H2409 0.930 . S
C2415 C2411 1.400 . S
C2415 C2414 1.385 . S
C2416 C2414 1.478 . S
C2416 C2418 1.381 . S
C2416 C2422 1.383 . S
C2417 C2413 1.495 . S
C2417 H2423 0.959 . S
C2417 H2424 0.961 . S
C2417 H2425 0.960 . S
C2418 C2416 1.381 . S
C2418 C2419 1.394 . S
C2418 H2426 0.930 . S
C2419 C2418 1.394 . S
C2419 C2420 1.383 . S
C2419 H2427 0.929 . S
C2420 C2419 1.383 . S
C2420 C2421 1.377 . S
C2421 H2405 0.930 . S
C2421 C2420 1.377 . S
C2421 C2422 1.379 . S
C2422 H2406 0.931 . S
C2422 C2416 1.383 . S
C2422 C2421 1.379 . S
H2423 C2417 0.959 . S
H2424 C2417 0.961 . S
H2425 C2417 0.960 . S
H2426 C2418 0.930 . S
H2427 C2419 0.929 . S
H2428 C2436 0.929 . S
H2429 C2438 0.930 . S
H2430 C2440 0.930 . S
H2431 C2443 0.929 . S
H2432 C2446 0.930 . S
H2433 C2448 0.960 . S
H2434 C2448 0.960 . S
H2435 C2448 0.960 . S
C2436 H2428 0.929 . S
C2436 C2437 1.377 . S
C2436 C2438 1.384 . S
C2437 C2436 1.377 . S
C2437 C2443 1.390 . S
C2438 H2429 0.930 . S
C2438 C2436 1.384 . S
C2438 C2439 1.372 . S
C2439 C2438 1.372 . S
C2439 C2440 1.400 . S
C2439 C2444 1.490 . S
C2440 H2430 0.930 . S
C2440 C2439 1.400 . S
C2440 C2443 1.386 . S
H2441 C2457 0.930 . S
H2442 C2458 0.931 . S
C2443 H2431 0.929 . S
C2443 C2437 1.390 . S
C2443 C2440 1.386 . S
C2444 C2439 1.490 . S
C2444 C2446 1.395 . S
C2444 C2447 1.403 . S
H2445 C2451 0.930 . S
C2446 H2432 0.930 . S
C2446 C2444 1.395 . S
C2446 C2449 1.403 . S
C2447 C2444 1.403 . S
C2447 C2448 1.524 . S
C2447 C2451 1.400 . S
C2448 H2433 0.960 . S
C2448 H2434 0.960 . S
C2448 H2435 0.960 . S
C2448 C2447 1.524 . S
C2449 C2446 1.403 . S
C2449 C2450 1.392 . S
C2449 C2453 1.495 . S
C2450 C2449 1.392 . S
C2450 C2451 1.385 . S
C2450 C2452 1.478 . S
C2451 H2445 0.930 . S
C2451 C2447 1.400 . S
C2451 C2450 1.385 . S
C2452 C2450 1.478 . S
C2452 C2454 1.381 . S
C2452 C2458 1.383 . S
C2453 C2449 1.495 . S
C2453 H2459 0.959 . S
C2453 H2460 0.961 . S
C2453 H2461 0.960 . S
C2454 C2452 1.381 . S
C2454 C2455 1.394 . S
C2454 H2462 0.930 . S
C2455 C2454 1.394 . S
C2455 C2456 1.383 . S
C2455 H2463 0.929 . S
C2456 C2455 1.383 . S
C2456 C2457 1.377 . S
C2457 H2441 0.930 . S
C2457 C2456 1.377 . S
C2457 C2458 1.379 . S
C2458 H2442 0.931 . S
C2458 C2452 1.383 . S
C2458 C2457 1.379 . S
H2459 C2453 0.959 . S
H2460 C2453 0.961 . S
H2461 C2453 0.960 . S
H2462 C2454 0.930 . S
H2463 C2455 0.929 . S
H2464 C2472 0.929 . S
H2465 C2474 0.930 . S
H2466 C2476 0.930 . S
H2467 C2479 0.929 . S
H2468 C2482 0.930 . S
H2469 C2484 0.960 . S
H2470 C2484 0.960 . S
H2471 C2484 0.960 . S
C2472 H2464 0.929 . S
C2472 C2473 1.377 . S
C2472 C2474 1.384 . S
C2473 C2472 1.377 . S
C2473 C2479 1.390 . S
C2474 H2465 0.930 . S
C2474 C2472 1.384 . S
C2474 C2475 1.372 . S
C2475 C2474 1.372 . S
C2475 C2476 1.400 . S
C2475 C2480 1.490 . S
C2476 H2466 0.930 . S
C2476 C2475 1.400 . S
C2476 C2479 1.386 . S
H2477 C2493 0.930 . S
H2478 C2494 0.931 . S
C2479 H2467 0.929 . S
C2479 C2473 1.390 . S
C2479 C2476 1.386 . S
C2480 C2475 1.490 . S
C2480 C2482 1.395 . S
C2480 C2483 1.403 . S
H2481 C2487 0.930 . S
C2482 H2468 0.930 . S
C2482 C2480 1.395 . S
C2482 C2485 1.403 . S
C2483 C2480 1.403 . S
C2483 C2484 1.524 . S
C2483 C2487 1.400 . S
C2484 H2469 0.960 . S
C2484 H2470 0.960 . S
C2484 H2471 0.960 . S
C2484 C2483 1.524 . S
C2485 C2482 1.403 . S
C2485 C2486 1.392 . S
C2485 C2489 1.495 . S
C2486 C2485 1.392 . S
C2486 C2487 1.385 . S
C2486 C2488 1.478 . S
C2487 H2481 0.930 . S
C2487 C2483 1.400 . S
C2487 C2486 1.385 . S
C2488 C2486 1.478 . S
C2488 C2490 1.381 . S
C2488 C2494 1.383 . S
C2489 C2485 1.495 . S
C2489 H2495 0.959 . S
C2489 H2496 0.961 . S
C2489 H2497 0.960 . S
C2490 C2488 1.381 . S
C2490 C2491 1.394 . S
C2490 H2498 0.930 . S
C2491 C2490 1.394 . S
C2491 C2492 1.383 . S
C2491 H2499 0.929 . S
C2492 C2491 1.383 . S
C2492 C2493 1.377 . S
C2493 H2477 0.930 . S
C2493 C2492 1.377 . S
C2493 C2494 1.379 . S
C2494 H2478 0.931 . S
C2494 C2488 1.383 . S
C2494 C2493 1.379 . S
H2495 C2489 0.959 . S
H2496 C2489 0.961 . S
H2497 C2489 0.960 . S
H2498 C2490 0.930 . S
H2499 C2491 0.929 . S
H2500 C2508 0.929 . S
H2501 C2510 0.930 . S
H2502 C2512 0.930 . S
H2503 C2515 0.929 . S
H2504 C2518 0.930 . S
H2505 C2520 0.960 . S
H2506 C2520 0.960 . S
H2507 C2520 0.960 . S
C2508 H2500 0.929 . S
C2508 C2509 1.377 . S
C2508 C2510 1.384 . S
C2509 C2508 1.377 . S
C2509 C2515 1.390 . S
C2510 H2501 0.930 . S
C2510 C2508 1.384 . S
C2510 C2511 1.372 . S
C2511 C2510 1.372 . S
C2511 C2512 1.400 . S
C2511 C2516 1.490 . S
C2512 H2502 0.930 . S
C2512 C2511 1.400 . S
C2512 C2515 1.386 . S
H2513 C2529 0.930 . S
H2514 C2530 0.931 . S
C2515 H2503 0.929 . S
C2515 C2509 1.390 . S
C2515 C2512 1.386 . S
C2516 C2511 1.490 . S
C2516 C2518 1.395 . S
C2516 C2519 1.403 . S
H2517 C2523 0.930 . S
C2518 H2504 0.930 . S
C2518 C2516 1.395 . S
C2518 C2521 1.403 . S
C2519 C2516 1.403 . S
C2519 C2520 1.524 . S
C2519 C2523 1.400 . S
C2520 H2505 0.960 . S
C2520 H2506 0.960 . S
C2520 H2507 0.960 . S
C2520 C2519 1.524 . S
C2521 C2518 1.403 . S
C2521 C2522 1.392 . S
C2521 C2525 1.495 . S
C2522 C2521 1.392 . S
C2522 C2523 1.385 . S
C2522 C2524 1.478 . S
C2523 H2517 0.930 . S
C2523 C2519 1.400 . S
C2523 C2522 1.385 . S
C2524 C2522 1.478 . S
C2524 C2526 1.381 . S
C2524 C2530 1.383 1_554 S
C2525 C2521 1.495 . S
C2525 H2531 0.959 . S
C2525 H2532 0.961 . S
C2525 H2533 0.960 . S
C2526 C2524 1.381 . S
C2526 C2527 1.394 1_554 S
C2526 H2534 0.930 . S
C2527 C2526 1.394 1_556 S
C2527 C2528 1.383 . S
C2527 H2535 0.929 . S
C2528 C2527 1.383 . S
C2528 C2529 1.377 . S
C2529 H2513 0.930 . S
C2529 C2528 1.377 . S
C2529 C2530 1.379 . S
C2530 H2514 0.931 . S
C2530 C2524 1.383 1_556 S
C2530 C2529 1.379 . S
H2531 C2525 0.959 . S
H2532 C2525 0.961 . S
H2533 C2525 0.960 . S
H2534 C2526 0.930 . S
H2535 C2527 0.929 . S
H2536 C2544 0.929 . S
H2537 C2546 0.930 . S
H2538 C2548 0.930 . S
H2539 C2551 0.929 . S
H2540 C2554 0.930 . S
H2541 C2556 0.960 . S
H2542 C2556 0.960 . S
H2543 C2556 0.960 . S
C2544 H2536 0.929 . S
C2544 C2545 1.377 . S
C2544 C2546 1.384 . S
C2545 C2544 1.377 . S
C2545 C2551 1.390 . S
C2546 H2537 0.930 . S
C2546 C2544 1.384 . S
C2546 C2547 1.372 . S
C2547 C2546 1.372 . S
C2547 C2548 1.400 . S
C2547 C2552 1.490 . S
C2548 H2538 0.930 . S
C2548 C2547 1.400 . S
C2548 C2551 1.386 . S
H2549 C2565 0.930 . S
H2550 C2566 0.931 . S
C2551 H2539 0.929 . S
C2551 C2545 1.390 . S
C2551 C2548 1.386 . S
C2552 C2547 1.490 . S
C2552 C2554 1.395 . S
C2552 C2555 1.403 . S
H2553 C2559 0.930 . S
C2554 H2540 0.930 . S
C2554 C2552 1.395 . S
C2554 C2557 1.403 . S
C2555 C2552 1.403 . S
C2555 C2556 1.524 . S
C2555 C2559 1.400 1_554 S
C2556 H2541 0.960 . S
C2556 H2542 0.960 . S
C2556 H2543 0.960 . S
C2556 C2555 1.524 . S
C2557 C2554 1.403 . S
C2557 C2558 1.392 1_554 S
C2557 C2561 1.495 . S
C2558 C2557 1.392 1_556 S
C2558 C2559 1.385 . S
C2558 C2560 1.478 . S
C2559 H2553 0.930 . S
C2559 C2555 1.400 1_556 S
C2559 C2558 1.385 . S
C2560 C2558 1.478 . S
C2560 C2562 1.381 . S
C2560 C2566 1.383 . S
C2561 C2557 1.495 . S
C2561 H2567 0.959 . S
C2561 H2568 0.961 . S
C2561 H2569 0.960 1_554 S
C2562 C2560 1.381 . S
C2562 C2563 1.394 . S
C2562 H2570 0.930 . S
C2563 C2562 1.394 . S
C2563 C2564 1.383 . S
C2563 H2571 0.929 . S
C2564 C2563 1.383 . S
C2564 C2565 1.377 . S
C2565 H2549 0.930 . S
C2565 C2564 1.377 . S
C2565 C2566 1.379 . S
C2566 H2550 0.931 . S
C2566 C2560 1.383 . S
C2566 C2565 1.379 . S
H2567 C2561 0.959 . S
H2568 C2561 0.961 . S
H2569 C2561 0.960 1_556 S
H2570 C2562 0.930 . S
H2571 C2563 0.929 . S
H2572 C2580 0.929 . S
H2573 C2582 0.930 . S
H2574 C2584 0.930 . S
H2575 C2587 0.929 . S
H2576 C2590 0.930 . S
H2577 C2592 0.960 . S
H2578 C2592 0.960 . S
H2579 C2592 0.960 . S
C2580 H2572 0.929 . S
C2580 C2581 1.377 . S
C2580 C2582 1.384 . S
C2581 C2580 1.377 . S
C2581 C2587 1.390 . S
C2582 H2573 0.930 . S
C2582 C2580 1.384 . S
C2582 C2583 1.372 . S
C2583 C2582 1.372 . S
C2583 C2584 1.400 . S
C2583 C2588 1.490 . S
C2584 H2574 0.930 . S
C2584 C2583 1.400 . S
C2584 C2587 1.386 . S
H2585 C2601 0.930 . S
H2586 C2602 0.931 . S
C2587 H2575 0.929 . S
C2587 C2581 1.390 . S
C2587 C2584 1.386 . S
C2588 C2583 1.490 . S
C2588 C2590 1.395 . S
C2588 C2591 1.403 1_455 S
H2589 C2595 0.930 . S
C2590 H2576 0.930 . S
C2590 C2588 1.395 . S
C2590 C2593 1.403 . S
C2591 C2588 1.403 1_655 S
C2591 C2592 1.524 . S
C2591 C2595 1.400 . S
C2592 H2577 0.960 . S
C2592 H2578 0.960 . S
C2592 H2579 0.960 . S
C2592 C2591 1.524 . S
C2593 C2590 1.403 . S
C2593 C2594 1.392 1_455 S
C2593 C2597 1.495 . S
C2594 C2593 1.392 1_655 S
C2594 C2595 1.385 . S
C2594 C2596 1.478 . S
C2595 H2589 0.930 . S
C2595 C2591 1.400 . S
C2595 C2594 1.385 . S
C2596 C2594 1.478 . S
C2596 C2598 1.381 . S
C2596 C2602 1.383 . S
C2597 C2593 1.495 . S
C2597 H2603 0.959 . S
C2597 H2604 0.961 . S
C2597 H2605 0.960 . S
C2598 C2596 1.381 . S
C2598 C2599 1.394 . S
C2598 H2606 0.930 . S
C2599 C2598 1.394 . S
C2599 C2600 1.383 . S
C2599 H2607 0.929 . S
C2600 C2599 1.383 . S
C2600 C2601 1.377 . S
C2601 H2585 0.930 . S
C2601 C2600 1.377 . S
C2601 C2602 1.379 . S
C2602 H2586 0.931 . S
C2602 C2596 1.383 . S
C2602 C2601 1.379 . S
H2603 C2597 0.959 . S
H2604 C2597 0.961 . S
H2605 C2597 0.960 . S
H2606 C2598 0.930 . S
H2607 C2599 0.929 . S
H2608 C2616 0.929 . S
H2609 C2618 0.930 . S
H2610 C2620 0.930 . S
H2611 C2623 0.929 . S
H2612 C2626 0.930 . S
H2613 C2628 0.960 . S
H2614 C2628 0.960 . S
H2615 C2628 0.960 . S
C2616 H2608 0.929 . S
C2616 C2617 1.377 . S
C2616 C2618 1.384 . S
C2617 C2616 1.377 . S
C2617 C2623 1.390 . S
C2618 H2609 0.930 . S
C2618 C2616 1.384 . S
C2618 C2619 1.372 . S
C2619 C2618 1.372 . S
C2619 C2620 1.400 . S
C2619 C2624 1.490 . S
C2620 H2610 0.930 . S
C2620 C2619 1.400 . S
C2620 C2623 1.386 . S
H2621 C2637 0.930 . S
H2622 C2638 0.931 . S
C2623 H2611 0.929 . S
C2623 C2617 1.390 . S
C2623 C2620 1.386 . S
C2624 C2619 1.490 . S
C2624 C2626 1.395 1_554 S
C2624 C2627 1.403 . S
H2625 C2631 0.930 . S
C2626 H2612 0.930 . S
C2626 C2624 1.395 1_556 S
C2626 C2629 1.403 . S
C2627 C2624 1.403 . S
C2627 C2628 1.524 . S
C2627 C2631 1.400 1_554 S
C2628 H2613 0.960 . S
C2628 H2614 0.960 . S
C2628 H2615 0.960 . S
C2628 C2627 1.524 . S
C2629 C2626 1.403 . S
C2629 C2630 1.392 . S
C2629 C2633 1.495 . S
C2630 C2629 1.392 . S
C2630 C2631 1.385 . S
C2630 C2632 1.478 . S
C2631 H2625 0.930 . S
C2631 C2627 1.400 1_556 S
C2631 C2630 1.385 . S
C2632 C2630 1.478 . S
C2632 C2634 1.381 . S
C2632 C2638 1.383 . S
C2633 C2629 1.495 . S
C2633 H2639 0.959 . S
C2633 H2640 0.961 . S
C2633 H2641 0.960 . S
C2634 C2632 1.381 . S
C2634 C2635 1.394 . S
C2634 H2642 0.930 . S
C2635 C2634 1.394 . S
C2635 C2636 1.383 . S
C2635 H2643 0.929 . S
C2636 C2635 1.383 . S
C2636 C2637 1.377 . S
C2637 H2621 0.930 . S
C2637 C2636 1.377 . S
C2637 C2638 1.379 . S
C2638 H2622 0.931 . S
C2638 C2632 1.383 . S
C2638 C2637 1.379 . S
H2639 C2633 0.959 . S
H2640 C2633 0.961 . S
H2641 C2633 0.960 . S
H2642 C2634 0.930 . S
H2643 C2635 0.929 . S
H2644 C2652 0.929 . S
H2645 C2654 0.930 . S
H2646 C2656 0.930 . S
H2647 C2659 0.929 . S
H2648 C2662 0.930 . S
H2649 C2664 0.960 . S
H2650 C2664 0.960 . S
H2651 C2664 0.960 . S
C2652 H2644 0.929 . S
C2652 C2653 1.377 . S
C2652 C2654 1.384 . S
C2653 C2652 1.377 . S
C2653 C2659 1.390 . S
C2654 H2645 0.930 . S
C2654 C2652 1.384 . S
C2654 C2655 1.372 . S
C2655 C2654 1.372 . S
C2655 C2656 1.400 . S
C2655 C2660 1.490 . S
C2656 H2646 0.930 . S
C2656 C2655 1.400 . S
C2656 C2659 1.386 . S
H2657 C2673 0.930 . S
H2658 C2674 0.931 . S
C2659 H2647 0.929 . S
C2659 C2653 1.390 . S
C2659 C2656 1.386 . S
C2660 C2655 1.490 . S
C2660 C2662 1.395 . S
C2660 C2663 1.403 1_655 S
H2661 C2667 0.930 . S
C2662 H2648 0.930 . S
C2662 C2660 1.395 . S
C2662 C2665 1.403 . S
C2663 C2660 1.403 1_455 S
C2663 C2664 1.524 . S
C2663 C2667 1.400 . S
C2664 H2649 0.960 . S
C2664 H2650 0.960 . S
C2664 H2651 0.960 . S
C2664 C2663 1.524 . S
C2665 C2662 1.403 . S
C2665 C2666 1.392 1_655 S
C2665 C2669 1.495 1_556 S
C2666 C2665 1.392 1_455 S
C2666 C2667 1.385 . S
C2666 C2668 1.478 . S
C2667 H2661 0.930 . S
C2667 C2663 1.400 . S
C2667 C2666 1.385 . S
C2668 C2666 1.478 . S
C2668 C2670 1.381 1_556 S
C2668 C2674 1.383 . S
C2669 C2665 1.495 1_554 S
C2669 H2675 0.959 . S
C2669 H2676 0.961 . S
C2669 H2677 0.960 . S
C2670 C2668 1.381 1_554 S
C2670 C2671 1.394 . S
C2670 H2678 0.930 . S
C2671 C2670 1.394 . S
C2671 C2672 1.383 . S
C2671 H2679 0.929 . S
C2672 C2671 1.383 . S
C2672 C2673 1.377 . S
C2673 H2657 0.930 . S
C2673 C2672 1.377 . S
C2673 C2674 1.379 1_554 S
C2674 H2658 0.931 . S
C2674 C2668 1.383 . S
C2674 C2673 1.379 1_556 S
H2675 C2669 0.959 . S
H2676 C2669 0.961 . S
H2677 C2669 0.960 . S
H2678 C2670 0.930 . S
H2679 C2671 0.929 . S
H2680 C2688 0.929 . S
H2681 C2690 0.930 . S
H2682 C2692 0.930 . S
H2683 C2695 0.929 . S
H2684 C2698 0.930 . S
H2685 C2700 0.960 . S
H2686 C2700 0.960 . S
H2687 C2700 0.960 . S
C2688 H2680 0.929 . S
C2688 C2689 1.377 . S
C2688 C2690 1.384 . S
C2689 C2688 1.377 . S
C2689 C2695 1.390 . S
C2690 H2681 0.930 . S
C2690 C2688 1.384 . S
C2690 C2691 1.372 . S
C2691 C2690 1.372 . S
C2691 C2692 1.400 . S
C2691 C2696 1.490 . S
C2692 H2682 0.930 . S
C2692 C2691 1.400 . S
C2692 C2695 1.386 . S
H2693 C2709 0.930 . S
H2694 C2710 0.931 . S
C2695 H2683 0.929 . S
C2695 C2689 1.390 . S
C2695 C2692 1.386 . S
C2696 C2691 1.490 . S
C2696 C2698 1.395 . S
C2696 C2699 1.403 . S
H2697 C2703 0.930 . S
C2698 H2684 0.930 . S
C2698 C2696 1.395 . S
C2698 C2701 1.403 . S
C2699 C2696 1.403 . S
C2699 C2700 1.524 . S
C2699 C2703 1.400 . S
C2700 H2685 0.960 . S
C2700 H2686 0.960 . S
C2700 H2687 0.960 . S
C2700 C2699 1.524 . S
C2701 C2698 1.403 . S
C2701 C2702 1.392 . S
C2701 C2705 1.495 . S
C2702 C2701 1.392 . S
C2702 C2703 1.385 . S
C2702 C2704 1.478 . S
C2703 H2697 0.930 . S
C2703 C2699 1.400 . S
C2703 C2702 1.385 . S
C2704 C2702 1.478 . S
C2704 C2706 1.381 . S
C2704 C2710 1.383 . S
C2705 C2701 1.495 . S
C2705 H2711 0.959 . S
C2705 H2712 0.961 . S
C2705 H2713 0.960 . S
C2706 C2704 1.381 . S
C2706 C2707 1.394 . S
C2706 H2714 0.930 . S
C2707 C2706 1.394 . S
C2707 C2708 1.383 . S
C2707 H2715 0.929 . S
C2708 C2707 1.383 . S
C2708 C2709 1.377 . S
C2709 H2693 0.930 . S
C2709 C2708 1.377 . S
C2709 C2710 1.379 . S
C2710 H2694 0.931 . S
C2710 C2704 1.383 . S
C2710 C2709 1.379 . S
H2711 C2705 0.959 . S
H2712 C2705 0.961 . S
H2713 C2705 0.960 . S
H2714 C2706 0.930 . S
H2715 C2707 0.929 . S
H2716 C2724 0.929 . S
H2717 C2726 0.930 . S
H2718 C2728 0.930 . S
H2719 C2731 0.929 . S
H2720 C2734 0.930 . S
H2721 C2736 0.960 . S
H2722 C2736 0.960 . S
H2723 C2736 0.960 . S
C2724 H2716 0.929 . S
C2724 C2725 1.377 . S
C2724 C2726 1.384 . S
C2725 C2724 1.377 . S
C2725 C2731 1.390 . S
C2726 H2717 0.930 . S
C2726 C2724 1.384 . S
C2726 C2727 1.372 . S
C2727 C2726 1.372 . S
C2727 C2728 1.400 . S
C2727 C2732 1.490 . S
C2728 H2718 0.930 . S
C2728 C2727 1.400 . S
C2728 C2731 1.386 . S
H2729 C2745 0.930 . S
H2730 C2746 0.931 . S
C2731 H2719 0.929 . S
C2731 C2725 1.390 . S
C2731 C2728 1.386 . S
C2732 C2727 1.490 . S
C2732 C2734 1.395 . S
C2732 C2735 1.403 . S
H2733 C2739 0.930 . S
C2734 H2720 0.930 . S
C2734 C2732 1.395 . S
C2734 C2737 1.403 . S
C2735 C2732 1.403 . S
C2735 C2736 1.524 . S
C2735 C2739 1.400 . S
C2736 H2721 0.960 . S
C2736 H2722 0.960 . S
C2736 H2723 0.960 . S
C2736 C2735 1.524 . S
C2737 C2734 1.403 . S
C2737 C2738 1.392 . S
C2737 C2741 1.495 . S
C2738 C2737 1.392 . S
C2738 C2739 1.385 . S
C2738 C2740 1.478 . S
C2739 H2733 0.930 . S
C2739 C2735 1.400 . S
C2739 C2738 1.385 . S
C2740 C2738 1.478 . S
C2740 C2742 1.381 . S
C2740 C2746 1.383 . S
C2741 C2737 1.495 . S
C2741 H2747 0.959 . S
C2741 H2748 0.961 . S
C2741 H2749 0.960 . S
C2742 C2740 1.381 . S
C2742 C2743 1.394 . S
C2742 H2750 0.930 . S
C2743 C2742 1.394 . S
C2743 C2744 1.383 . S
C2743 H2751 0.929 . S
C2744 C2743 1.383 . S
C2744 C2745 1.377 . S
C2745 H2729 0.930 . S
C2745 C2744 1.377 . S
C2745 C2746 1.379 . S
C2746 H2730 0.931 . S
C2746 C2740 1.383 . S
C2746 C2745 1.379 . S
H2747 C2741 0.959 . S
H2748 C2741 0.961 . S
H2749 C2741 0.960 . S
H2750 C2742 0.930 . S
H2751 C2743 0.929 . S
C457 C87 2.094 . S
C476 C3 2.050 . S
C493 C17 1.311 . S
C512 C101 1.315 . S
C529 C59 2.090 . S
C548 C31 2.092 . S
C565 C45 1.317 . S
C584 C73 1.302 . S
C601 C199 2.084 . S
C620 C115 2.053 . S
C637 C129 1.314 . S
C656 C213 1.302 . S
C673 C171 2.081 . S
C692 C143 2.050 . S
C709 C157 1.317 . S
C728 C185 1.301 . S
C745 C227 2.094 . S
C764 C311 2.074 . S
C781 C325 1.316 . S
C800 C241 1.321 . S
C817 C255 2.090 . S
C836 C283 2.092 . S
C853 C297 1.311 . S
C872 C269 1.315 . S
C889 C423 2.090 . S
C908 C339 2.078 . S
C925 C437 1.313 . S
C944 C353 1.307 . S
C961 C395 2.082 . S
C980 C367 2.068 . S
C997 C381 1.313 . S
C1016 C409 1.325 . S
C1033 C106 1.257 . S
C1052 C8 1.251 . S
C1069 C64 1.258 . S
C1088 C22 1.249 . S
C1105 C78 1.252 . S
C1124 C36 1.257 . S
C1141 C92 1.258 . S
C1160 C50 1.255 . S
C1177 C218 1.254 . S
C1196 C120 1.260 . S
C1213 C176 1.257 . S
C1232 C134 1.261 . S
C1249 C190 1.253 . S
C1268 C148 1.259 . S
C1285 C162 1.254 . S
C1304 C204 1.252 . S
C1321 C330 1.257 . S
C1340 C232 1.252 . S
C1357 C246 1.253 . S
C1376 C288 1.259 . S
C1393 C260 1.258 . S
C1412 C302 1.242 . S
C1429 C316 1.258 . S
C1448 C274 1.242 . S
C1465 C442 1.256 . S
C1484 C344 1.258 . S
C1501 C358 1.253 . S
C1520 C400 1.251 . S
C1537 C372 1.258 . S
C1556 C414 1.250 . S
C1573 C428 1.257 . S
C1592 C386 1.262 . S
C1609 C7 1.806 . S
C1628 C429 1.904 . S
C1645 C219 1.128 . S
C1664 C21 1.093 . S
C1681 C401 1.892 . S
C1700 C35 1.802 . S
C1717 C191 1.128 . S
C1736 C49 1.093 . S
C1753 C373 1.892 . S
C1772 C63 1.796 . S
C1789 C77 1.139 . S
C1808 C163 1.144 . S
C1825 C91 1.800 . S
C1844 C345 1.873 . S
C1861 C105 1.126 . S
C1880 C135 1.095 . S
C1897 C119 1.799 . S
C1916 C317 1.902 . S
C1933 C107 1.141 . S
C1952 C133 1.099 . S
C1969 C289 1.892 . S
C1988 C147 1.800 . S
C2005 C79 1.137 . S
C2024 C161 1.118 . S
C2041 C261 1.886 . S
C2060 C175 1.819 . S
C2077 C51 1.140 . S
C2096 C189 1.097 . S
C2113 C203 1.807 . S
C2132 C233 1.867 . S
C2149 C23 1.130 . S
C2168 C217 1.144 . S
C2185 C205 1.894 . S
C2204 C231 1.826 . S
C2221 C443 1.140 . S
C2240 C245 1.135 . S
C2257 C259 1.795 . S
C2276 C177 1.869 . S
C2293 C273 1.127 . S
C2312 C415 1.135 . S
C2329 C287 1.795 . S
C2348 C149 1.870 . S
C2365 C301 1.129 . S
C2384 C387 1.097 . S
C2401 C315 1.800 . S
C2420 C121 1.890 . S
C2437 C329 1.125 . S
C2456 C359 1.126 . S
C2473 C93 1.894 . S
C2492 C343 1.768 . S
C2509 C331 1.127 . S
C2528 C357 1.166 . S
C2545 C65 1.888 . S
C2564 C371 1.823 . S
C2581 C385 1.136 . S
C2600 C303 1.105 . S
C2617 C399 1.797 . S
C2636 C37 1.906 . S
C2653 C275 1.140 . S
C2672 C413 1.095 . S
C2689 C427 1.808 . S
C2708 C9 1.867 . S
C2725 C441 1.133 . S
C2744 C247 1.131 . S
