# Generated by pormake.
# Topology vcc, (6)-cn, num edge types: 1
# Building blocks:
#     Node 0, Type 0, BuildingBlock: JUFBIX_clean_sbu_0, # of connection points: 6
#     Node 1, Type 0, BuildingBlock: JUFBIX_clean_sbu_0, # of connection points: 6
#     Node 2, Type 0, BuildingBlock: JUFBIX_clean_sbu_0, # of connection points: 6
#     Node 3, Type 0, BuildingBlock: JUFBIX_clean_sbu_0, # of connection points: 6
#     Node 4, Type 0, BuildingBlock: JUFBIX_clean_sbu_0, # of connection points: 6
#     Node 5, Type 0, BuildingBlock: JUFBIX_clean_sbu_0, # of connection points: 6
#     Node 6, Type 0, BuildingBlock: JUFBIX_clean_sbu_0, # of connection points: 6
#     Node 7, Type 0, BuildingBlock: JUFBIX_clean_sbu_0, # of connection points: 6
#     Node 8, Type 0, BuildingBlock: JUFBIX_clean_sbu_0, # of connection points: 6
#     Node 9, Type 0, BuildingBlock: JUFBIX_clean_sbu_0, # of connection points: 6
#     Node 10, Type 0, BuildingBlock: JUFBIX_clean_sbu_0, # of connection points: 6
#     Node 11, Type 0, BuildingBlock: JUFBIX_clean_sbu_0, # of connection points: 6
#     Node 12, Type 0, BuildingBlock: JUFBIX_clean_sbu_0, # of connection points: 6
#     Node 13, Type 0, BuildingBlock: JUFBIX_clean_sbu_0, # of connection points: 6
#     Node 14, Type 0, BuildingBlock: JUFBIX_clean_sbu_0, # of connection points: 6
#     Node 15, Type 0, BuildingBlock: JUFBIX_clean_sbu_0, # of connection points: 6
#     Node 16, Type 0, BuildingBlock: JUFBIX_clean_sbu_0, # of connection points: 6
#     Node 17, Type 0, BuildingBlock: JUFBIX_clean_sbu_0, # of connection points: 6
#     Node 18, Type 0, BuildingBlock: JUFBIX_clean_sbu_0, # of connection points: 6
#     Node 19, Type 0, BuildingBlock: JUFBIX_clean_sbu_0, # of connection points: 6
#     Node 20, Type 0, BuildingBlock: JUFBIX_clean_sbu_0, # of connection points: 6
#     Node 21, Type 0, BuildingBlock: JUFBIX_clean_sbu_0, # of connection points: 6
#     Node 22, Type 0, BuildingBlock: JUFBIX_clean_sbu_0, # of connection points: 6
#     Node 23, Type 0, BuildingBlock: JUFBIX_clean_sbu_0, # of connection points: 6
#     Node 24, Type 0, BuildingBlock: JUFBIX_clean_sbu_0, # of connection points: 6
#     Node 25, Type 0, BuildingBlock: JUFBIX_clean_sbu_0, # of connection points: 6
#     Node 26, Type 0, BuildingBlock: JUFBIX_clean_sbu_0, # of connection points: 6
#     Node 27, Type 0, BuildingBlock: JUFBIX_clean_sbu_0, # of connection points: 6
#     Node 28, Type 0, BuildingBlock: JUFBIX_clean_sbu_0, # of connection points: 6
#     Node 29, Type 0, BuildingBlock: JUFBIX_clean_sbu_0, # of connection points: 6
#     Node 30, Type 0, BuildingBlock: JUFBIX_clean_sbu_0, # of connection points: 6
#     Node 31, Type 0, BuildingBlock: JUFBIX_clean_sbu_0, # of connection points: 6
#     Edge 32, Type (0, 0), BuildingBlock: UVAHIK_clean_linker_0, # of connection points: 2
#     Edge 33, Type (0, 0), BuildingBlock: UVAHIK_clean_linker_0, # of connection points: 2
#     Edge 34, Type (0, 0), BuildingBlock: UVAHIK_clean_linker_0, # of connection points: 2
#     Edge 35, Type (0, 0), BuildingBlock: UVAHIK_clean_linker_0, # of connection points: 2
#     Edge 36, Type (0, 0), BuildingBlock: UVAHIK_clean_linker_0, # of connection points: 2
#     Edge 37, Type (0, 0), BuildingBlock: UVAHIK_clean_linker_0, # of connection points: 2
#     Edge 38, Type (0, 0), BuildingBlock: UVAHIK_clean_linker_0, # of connection points: 2
#     Edge 39, Type (0, 0), BuildingBlock: UVAHIK_clean_linker_0, # of connection points: 2
#     Edge 40, Type (0, 0), BuildingBlock: UVAHIK_clean_linker_0, # of connection points: 2
#     Edge 41, Type (0, 0), BuildingBlock: UVAHIK_clean_linker_0, # of connection points: 2
#     Edge 42, Type (0, 0), BuildingBlock: UVAHIK_clean_linker_0, # of connection points: 2
#     Edge 43, Type (0, 0), BuildingBlock: UVAHIK_clean_linker_0, # of connection points: 2
#     Edge 44, Type (0, 0), BuildingBlock: UVAHIK_clean_linker_0, # of connection points: 2
#     Edge 45, Type (0, 0), BuildingBlock: UVAHIK_clean_linker_0, # of connection points: 2
#     Edge 46, Type (0, 0), BuildingBlock: UVAHIK_clean_linker_0, # of connection points: 2
#     Edge 47, Type (0, 0), BuildingBlock: UVAHIK_clean_linker_0, # of connection points: 2
#     Edge 48, Type (0, 0), BuildingBlock: UVAHIK_clean_linker_0, # of connection points: 2
#     Edge 49, Type (0, 0), BuildingBlock: UVAHIK_clean_linker_0, # of connection points: 2
#     Edge 50, Type (0, 0), BuildingBlock: UVAHIK_clean_linker_0, # of connection points: 2
#     Edge 51, Type (0, 0), BuildingBlock: UVAHIK_clean_linker_0, # of connection points: 2
#     Edge 52, Type (0, 0), BuildingBlock: UVAHIK_clean_linker_0, # of connection points: 2
#     Edge 53, Type (0, 0), BuildingBlock: UVAHIK_clean_linker_0, # of connection points: 2
#     Edge 54, Type (0, 0), BuildingBlock: UVAHIK_clean_linker_0, # of connection points: 2
#     Edge 55, Type (0, 0), BuildingBlock: UVAHIK_clean_linker_0, # of connection points: 2
#     Edge 56, Type (0, 0), BuildingBlock: UVAHIK_clean_linker_0, # of connection points: 2
#     Edge 57, Type (0, 0), BuildingBlock: UVAHIK_clean_linker_0, # of connection points: 2
#     Edge 58, Type (0, 0), BuildingBlock: UVAHIK_clean_linker_0, # of connection points: 2
#     Edge 59, Type (0, 0), BuildingBlock: UVAHIK_clean_linker_0, # of connection points: 2
#     Edge 60, Type (0, 0), BuildingBlock: UVAHIK_clean_linker_0, # of connection points: 2
#     Edge 61, Type (0, 0), BuildingBlock: UVAHIK_clean_linker_0, # of connection points: 2
#     Edge 62, Type (0, 0), BuildingBlock: UVAHIK_clean_linker_0, # of connection points: 2
#     Edge 63, Type (0, 0), BuildingBlock: UVAHIK_clean_linker_0, # of connection points: 2
#     Edge 64, Type (0, 0), BuildingBlock: UVAHIK_clean_linker_0, # of connection points: 2
#     Edge 65, Type (0, 0), BuildingBlock: UVAHIK_clean_linker_0, # of connection points: 2
#     Edge 66, Type (0, 0), BuildingBlock: UVAHIK_clean_linker_0, # of connection points: 2
#     Edge 67, Type (0, 0), BuildingBlock: UVAHIK_clean_linker_0, # of connection points: 2
#     Edge 68, Type (0, 0), BuildingBlock: UVAHIK_clean_linker_0, # of connection points: 2
#     Edge 69, Type (0, 0), BuildingBlock: UVAHIK_clean_linker_0, # of connection points: 2
#     Edge 70, Type (0, 0), BuildingBlock: UVAHIK_clean_linker_0, # of connection points: 2
#     Edge 71, Type (0, 0), BuildingBlock: UVAHIK_clean_linker_0, # of connection points: 2
#     Edge 72, Type (0, 0), BuildingBlock: UVAHIK_clean_linker_0, # of connection points: 2
#     Edge 73, Type (0, 0), BuildingBlock: UVAHIK_clean_linker_0, # of connection points: 2
#     Edge 74, Type (0, 0), BuildingBlock: UVAHIK_clean_linker_0, # of connection points: 2
#     Edge 75, Type (0, 0), BuildingBlock: UVAHIK_clean_linker_0, # of connection points: 2
#     Edge 76, Type (0, 0), BuildingBlock: UVAHIK_clean_linker_0, # of connection points: 2
#     Edge 77, Type (0, 0), BuildingBlock: UVAHIK_clean_linker_0, # of connection points: 2
#     Edge 78, Type (0, 0), BuildingBlock: UVAHIK_clean_linker_0, # of connection points: 2
#     Edge 79, Type (0, 0), BuildingBlock: UVAHIK_clean_linker_0, # of connection points: 2
#     Edge 80, Type (0, 0), BuildingBlock: UVAHIK_clean_linker_0, # of connection points: 2
#     Edge 81, Type (0, 0), BuildingBlock: UVAHIK_clean_linker_0, # of connection points: 2
#     Edge 82, Type (0, 0), BuildingBlock: UVAHIK_clean_linker_0, # of connection points: 2
#     Edge 83, Type (0, 0), BuildingBlock: UVAHIK_clean_linker_0, # of connection points: 2
#     Edge 84, Type (0, 0), BuildingBlock: UVAHIK_clean_linker_0, # of connection points: 2
#     Edge 85, Type (0, 0), BuildingBlock: UVAHIK_clean_linker_0, # of connection points: 2
#     Edge 86, Type (0, 0), BuildingBlock: UVAHIK_clean_linker_0, # of connection points: 2
#     Edge 87, Type (0, 0), BuildingBlock: UVAHIK_clean_linker_0, # of connection points: 2
#     Edge 88, Type (0, 0), BuildingBlock: UVAHIK_clean_linker_0, # of connection points: 2
#     Edge 89, Type (0, 0), BuildingBlock: UVAHIK_clean_linker_0, # of connection points: 2
#     Edge 90, Type (0, 0), BuildingBlock: UVAHIK_clean_linker_0, # of connection points: 2
#     Edge 91, Type (0, 0), BuildingBlock: UVAHIK_clean_linker_0, # of connection points: 2
#     Edge 92, Type (0, 0), BuildingBlock: UVAHIK_clean_linker_0, # of connection points: 2
#     Edge 93, Type (0, 0), BuildingBlock: UVAHIK_clean_linker_0, # of connection points: 2
#     Edge 94, Type (0, 0), BuildingBlock: UVAHIK_clean_linker_0, # of connection points: 2
#     Edge 95, Type (0, 0), BuildingBlock: UVAHIK_clean_linker_0, # of connection points: 2
#     Edge 96, Type (0, 0), BuildingBlock: UVAHIK_clean_linker_0, # of connection points: 2
#     Edge 97, Type (0, 0), BuildingBlock: UVAHIK_clean_linker_0, # of connection points: 2
#     Edge 98, Type (0, 0), BuildingBlock: UVAHIK_clean_linker_0, # of connection points: 2
#     Edge 99, Type (0, 0), BuildingBlock: UVAHIK_clean_linker_0, # of connection points: 2
#     Edge 100, Type (0, 0), BuildingBlock: UVAHIK_clean_linker_0, # of connection points: 2
#     Edge 101, Type (0, 0), BuildingBlock: UVAHIK_clean_linker_0, # of connection points: 2
#     Edge 102, Type (0, 0), BuildingBlock: UVAHIK_clean_linker_0, # of connection points: 2
#     Edge 103, Type (0, 0), BuildingBlock: UVAHIK_clean_linker_0, # of connection points: 2
#     Edge 104, Type (0, 0), BuildingBlock: UVAHIK_clean_linker_0, # of connection points: 2
#     Edge 105, Type (0, 0), BuildingBlock: UVAHIK_clean_linker_0, # of connection points: 2
#     Edge 106, Type (0, 0), BuildingBlock: UVAHIK_clean_linker_0, # of connection points: 2
#     Edge 107, Type (0, 0), BuildingBlock: UVAHIK_clean_linker_0, # of connection points: 2
#     Edge 108, Type (0, 0), BuildingBlock: UVAHIK_clean_linker_0, # of connection points: 2
#     Edge 109, Type (0, 0), BuildingBlock: UVAHIK_clean_linker_0, # of connection points: 2
#     Edge 110, Type (0, 0), BuildingBlock: UVAHIK_clean_linker_0, # of connection points: 2
#     Edge 111, Type (0, 0), BuildingBlock: UVAHIK_clean_linker_0, # of connection points: 2
#     Edge 112, Type (0, 0), BuildingBlock: UVAHIK_clean_linker_0, # of connection points: 2
#     Edge 113, Type (0, 0), BuildingBlock: UVAHIK_clean_linker_0, # of connection points: 2
#     Edge 114, Type (0, 0), BuildingBlock: UVAHIK_clean_linker_0, # of connection points: 2
#     Edge 115, Type (0, 0), BuildingBlock: UVAHIK_clean_linker_0, # of connection points: 2
#     Edge 116, Type (0, 0), BuildingBlock: UVAHIK_clean_linker_0, # of connection points: 2
#     Edge 117, Type (0, 0), BuildingBlock: UVAHIK_clean_linker_0, # of connection points: 2
#     Edge 118, Type (0, 0), BuildingBlock: UVAHIK_clean_linker_0, # of connection points: 2
#     Edge 119, Type (0, 0), BuildingBlock: UVAHIK_clean_linker_0, # of connection points: 2
#     Edge 120, Type (0, 0), BuildingBlock: UVAHIK_clean_linker_0, # of connection points: 2
#     Edge 121, Type (0, 0), BuildingBlock: UVAHIK_clean_linker_0, # of connection points: 2
#     Edge 122, Type (0, 0), BuildingBlock: UVAHIK_clean_linker_0, # of connection points: 2
#     Edge 123, Type (0, 0), BuildingBlock: UVAHIK_clean_linker_0, # of connection points: 2
#     Edge 124, Type (0, 0), BuildingBlock: UVAHIK_clean_linker_0, # of connection points: 2
#     Edge 125, Type (0, 0), BuildingBlock: UVAHIK_clean_linker_0, # of connection points: 2
#     Edge 126, Type (0, 0), BuildingBlock: UVAHIK_clean_linker_0, # of connection points: 2
#     Edge 127, Type (0, 0), BuildingBlock: UVAHIK_clean_linker_0, # of connection points: 2
# Relax obj value: 0.241
# Max RMSD: 0.172
# Mean RMSD: 0.172
data_MOF--net-vcc--node1-JUFBIX_clean_sbu_0--edge1-UVAHIK_clean_linker_0
_symmetry_space_group_name_H-M    P1
_symmetry_Int_Tables_number       1
_symmetry_cell_setting            triclinic
loop_
_symmetry_equiv_pos_as_xyz
'x, y, z'
_cell_length_a     77.793197
_cell_length_b     72.77705
_cell_length_c     46.005207
_cell_angle_alpha  89.805546
_cell_angle_beta   89.988824
_cell_angle_gamma 90.018156
loop_
_atom_site_label
_atom_site_type_symbol
_atom_site_fract_x
_atom_site_fract_y
_atom_site_fract_z
_atom_type_partial_charge
Co0 Co 0.33997 1.01314 0.11856 0.0
C1 C 0.33224 0.97636 0.1062 0.0
Co2 Co 0.31542 1.00955 0.0964 0.0
C3 C 0.36972 0.02777 0.15024 0.0
C4 C 0.37464 1.00294 0.12684 0.0
N5 N 0.36196 1.01477 0.13388 0.0
N6 N 0.38668 0.0243 0.15375 0.0
C7 C 0.38971 1.00866 0.13905 0.0
H8 H 0.36318 0.03972 0.15875 0.0
H9 H 0.37325 0.99127 0.11254 0.0
C10 C 0.32433 0.0464 0.11008 0.0
N11 N 0.29354 1.00728 0.08141 0.0
C12 C 0.28695 0.99449 0.06333 0.0
C13 C 0.27979 1.0166 0.09155 0.0
N14 N 0.26965 0.99534 0.06247 0.0
C15 C 0.2651 1.00923 0.08004 0.0
C16 C 0.31301 1.00925 0.15836 0.0
O17 O 0.33828 0.03884 0.11771 0.0
O18 O 0.31224 0.03628 0.1003 0.0
O19 O 0.30561 1.00621 0.13426 0.0
O20 O 0.32911 1.01303 0.15779 0.0
O21 O 0.31927 0.98294 0.09281 0.0
H22 H 0.28033 0.02734 0.10771 0.0
H23 H 0.29452 0.98409 0.05248 0.0
O24 O 0.34187 0.98725 0.12 0.0
O25 O 0.35018 1.01342 0.07885 0.0
O26 O 0.32486 1.01281 0.05829 0.0
C27 C 0.34112 1.01355 0.0556 0.0
H28 H 0.40214 1.00226 0.13608 0.0
H29 H 0.25203 1.01336 0.0848 0.0
Co30 Co 0.91846 0.26934 0.1184 0.0
C31 C 0.92471 0.30613 0.10419 0.0
Co32 Co 0.94237 0.27333 0.09442 0.0
C33 C 0.89516 0.25631 0.16254 0.0
C34 C 0.88374 0.27664 0.13477 0.0
N35 N 0.89829 0.2669 0.13898 0.0
N36 N 0.87933 0.25932 0.17335 0.0
C37 C 0.8721 0.2721 0.15606 0.0
H38 H 0.90451 0.24713 0.17223 0.0
H39 H 0.88191 0.28675 0.11776 0.0
C40 C 0.93491 0.23645 0.10993 0.0
N41 N 0.96259 0.2754 0.07378 0.0
C42 C 0.97648 0.2861 0.07868 0.0
C43 C 0.96725 0.26416 0.05191 0.0
N44 N 0.98966 0.28168 0.06098 0.0
C45 C 0.98387 0.26796 0.04404 0.0
C46 C 0.9479 0.27437 0.15473 0.0
O47 O 0.92107 0.24374 0.11862 0.0
O48 O 0.94641 0.24677 0.09869 0.0
O49 O 0.95482 0.27711 0.13005 0.0
O50 O 0.9318 0.2707 0.15528 0.0
O51 O 0.93779 0.29986 0.09061 0.0
H52 H 0.95929 0.25336 0.04303 0.0
H53 H 0.97722 0.29623 0.09582 0.0
O54 O 0.91549 0.29505 0.11863 0.0
O55 O 0.9056 0.26784 0.08099 0.0
O56 O 0.93025 0.2695 0.05858 0.0
C57 C 0.91402 0.26795 0.05707 0.0
H58 H 0.85938 0.27787 0.1589 0.0
H59 H 0.99129 0.26094 1.02755 0.0
Co60 Co 0.3401 0.26953 0.19912 0.0
C61 C 0.33065 0.30574 0.21338 0.0
Co62 Co 0.31532 0.27171 0.22136 0.0
C63 C 0.37042 0.25701 0.16701 0.0
C64 C 0.37429 0.28183 0.191 0.0
N65 N 0.36213 0.26943 0.18372 0.0
N66 N 0.3872 0.26136 0.16353 0.0
C67 C 0.38958 0.27699 0.17858 0.0
H68 H 0.36441 0.24482 0.15822 0.0
H69 H 0.37242 0.29325 0.20563 0.0
C70 C 0.32588 0.23547 0.20559 0.0
N71 N 0.29325 0.27209 0.23638 0.0
C72 C 0.28529 0.28392 0.25455 0.0
C73 C 0.28075 0.26058 0.2274 0.0
N74 N 0.26835 0.28005 0.25727 0.0
C75 C 0.26556 0.26536 0.24018 0.0
C76 C 0.31303 0.27308 0.15949 0.0
O77 O 0.33951 0.24372 0.19808 0.0
O78 O 0.31364 0.24492 0.21631 0.0
O79 O 0.30539 0.27508 0.18367 0.0
O80 O 0.32929 0.27021 0.15998 0.0
O81 O 0.31774 0.29844 0.22607 0.0
H82 H 0.28232 0.24988 0.21138 0.0
H83 H 0.29168 0.29533 0.26502 0.0
O84 O 0.34086 0.29549 0.19954 0.0
O85 O 0.35026 0.2687 0.23872 0.0
O86 O 0.32492 0.26839 0.25931 0.0
C87 C 0.3412 0.26804 0.26195 0.0
H88 H 0.40173 0.28397 0.18166 0.0
H89 H 0.25322 0.25902 0.23602 0.0
Co90 Co 0.91952 1.01498 0.19958 0.0
C91 C 0.92716 0.97812 0.21193 0.0
Co92 Co 0.94421 1.01124 0.22159 0.0
C93 C 0.88995 0.03207 0.17159 0.0
C94 C 0.88464 1.00508 0.18787 0.0
N95 N 0.89754 1.01725 0.18397 0.0
N96 N 0.87286 0.02967 0.16818 0.0
C97 C 0.86956 1.01259 0.17806 0.0
H98 H 0.89661 0.04476 0.1667 0.0
H99 H 0.88583 0.99191 0.19861 0.0
C100 C 0.9355 0.04818 0.20793 0.0
N101 N 0.96617 1.00918 0.23672 0.0
C102 C 0.97333 0.99742 0.25607 0.0
C103 C 0.97932 0.01972 0.22729 0.0
N104 N 0.99038 1.00051 0.25915 0.0
C105 C 0.9941 1.01451 0.24102 0.0
C106 C 0.94651 1.01122 0.15974 0.0
O107 O 0.92157 0.04066 0.20034 0.0
O108 O 0.94745 0.03799 0.21788 0.0
O109 O 0.95406 1.00818 0.18375 0.0
O110 O 0.93039 1.01484 0.16047 0.0
O111 O 0.94033 0.98458 0.22496 0.0
H112 H 0.9784 0.0302 0.21065 0.0
H113 H 0.96626 0.98678 0.26741 0.0
O114 O 0.91737 0.9891 0.19844 0.0
O115 O 0.90928 1.01529 0.23903 0.0
O116 O 0.9346 1.0143 0.25968 0.0
C117 C 0.91833 1.01525 0.26229 0.0
H118 H 0.85706 1.00607 0.17881 0.0
H119 H 0.00676 0.02018 0.23715 0.0
Co120 Co 0.69448 0.02331 0.97161 0.0
C121 C 0.68722 0.98561 0.96025 0.0
Co122 Co 0.66984 0.01761 0.95088 0.0
C123 C 0.72321 0.03766 1.00639 0.0
C124 C 0.7301 0.01775 0.97424 0.0
N125 N 0.7165 0.02667 0.98564 0.0
N126 N 0.74048 0.03571 1.00832 0.0
C127 C 0.74474 0.02326 0.98797 0.0
H128 H 0.71562 0.04677 1.0198 0.0
H129 H 0.72946 1.00801 0.95656 0.0
C130 C 0.67581 0.05516 0.9606 0.0
N131 N 0.64788 1.01407 0.93636 0.0
C132 C 0.64119 0.99979 0.92142 0.0
C133 C 0.63424 0.02464 0.94328 0.0
N134 N 0.6239 1.00097 0.91923 0.0
C135 C 0.61957 1.0167 0.9327 0.0
C136 C 0.66938 0.0186 1.01375 0.0
O137 O 0.68948 0.04988 0.97361 0.0
O138 O 0.66652 0.04316 0.94841 0.0
O139 O 0.66011 0.01751 0.99083 0.0
O140 O 0.68555 0.02042 1.01044 0.0
O141 O 0.67285 0.99224 0.95292 0.0
H142 H 0.6348 0.03696 0.95632 0.0
H143 H 0.64871 0.98832 0.91359 0.0
O144 O 0.69889 0.99658 0.96905 0.0
O145 O 0.70364 0.02629 0.93321 0.0
O146 O 0.68024 0.01755 0.91115 0.0
C147 C 0.69611 0.02224 0.90963 0.0
H148 H 0.75763 0.0187 0.98288 0.0
H149 H 0.60666 0.02203 0.93508 0.0
Co150 Co 0.0658 0.763 0.97443 0.0
C151 C 0.07265 0.80054 0.96161 0.0
Co152 Co 0.09009 0.76843 0.95209 0.0
C153 C 0.03173 0.74851 0.98635 0.0
C154 C 0.03915 0.77051 1.0146 0.0
N155 N 0.04498 0.75977 0.99289 0.0
N156 N 0.01785 0.7521 1.00292 0.0
C157 C 0.02245 0.76589 1.02069 0.0
H158 H 0.03193 0.73863 0.9688 0.0
H159 H 0.04636 0.78156 1.0245 0.0
C160 C 0.08432 0.73097 0.96329 0.0
N161 N 0.11142 0.77193 0.93477 0.0
C162 C 0.11786 0.78667 0.92041 0.0
C163 C 0.1251 0.76088 0.93929 0.0
N164 N 0.13501 0.78527 0.91637 0.0
C165 C 0.13951 0.76895 0.92793 0.0
C166 C 0.09274 0.76821 1.01408 0.0
O167 O 0.07086 0.73641 0.9767 0.0
O168 O 0.09345 0.74285 0.95039 0.0
O169 O 0.10154 0.76918 0.99065 0.0
O170 O 0.0766 0.76615 1.01167 0.0
O171 O 0.08685 0.79388 0.95344 0.0
H172 H 0.12489 0.74817 0.9515 0.0
H173 H 0.11036 0.79865 0.91456 0.0
O174 O 0.06119 0.78962 0.9715 0.0
O175 O 0.05477 0.7599 0.93752 0.0
O176 O 0.07804 0.76778 0.9138 0.0
C177 C 0.06203 0.76346 0.91337 0.0
H178 H 0.01411 0.77248 0.03636 0.0
H179 H 0.15241 0.7634 0.92871 0.0
Co180 Co 0.69442 0.76168 0.84585 0.0
C181 C 0.68616 0.79861 0.86019 0.0
Co182 Co 0.67 0.76554 0.86854 0.0
C183 C 0.72224 0.74748 0.80925 0.0
C184 C 0.72927 0.77048 0.83566 0.0
N185 N 0.71585 0.75958 0.82871 0.0
N186 N 0.73902 0.75073 0.80363 0.0
C187 C 0.74341 0.76518 0.82021 0.0
H188 H 0.71481 0.73652 0.79952 0.0
H189 H 0.72898 0.78134 0.85163 0.0
C190 C 0.67703 0.7287 0.85567 0.0
N191 N 0.64904 0.76784 0.88671 0.0
C192 C 0.64478 0.77905 0.90889 0.0
C193 C 0.63483 0.75772 0.88159 0.0
N194 N 0.62856 0.77609 0.91797 0.0
C195 C 0.62225 0.76266 0.90102 0.0
C196 C 0.66752 0.76645 0.80632 0.0
O197 O 0.6903 0.73508 0.84271 0.0
O198 O 0.66732 0.73972 0.86915 0.0
O199 O 0.65868 0.76665 0.82984 0.0
O200 O 0.68379 0.76503 0.80851 0.0
O201 O 0.67228 0.79121 0.86849 0.0
H202 H 0.63383 0.74714 0.86521 0.0
H203 H 0.65356 0.7887 0.91885 0.0
O204 O 0.69781 0.78837 0.84945 0.0
O205 O 0.70538 0.75836 0.88286 0.0
O206 O 0.68189 0.7646 0.90671 0.0
C207 C 0.69801 0.76111 0.90708 0.0
H208 H 0.75614 0.77111 0.82174 0.0
H209 H 0.60951 0.75677 0.90281 0.0
Co210 Co 0.06419 0.02455 0.84438 0.0
C211 C 0.07297 0.98777 0.85928 0.0
Co212 Co 0.08879 0.02116 0.8667 0.0
C213 C 0.03511 0.03817 0.80958 0.0
C214 C 0.0292 1.0156 0.83786 0.0
N215 N 0.04229 0.02638 0.82888 0.0
N216 N 0.01813 0.03483 0.80607 0.0
C217 C 0.01446 0.02066 0.82387 0.0
H218 H 0.04211 0.04901 0.79858 0.0
H219 H 0.03011 1.00504 0.85438 0.0
C220 C 0.08119 0.05784 0.85339 0.0
N221 N 0.11051 0.01915 0.88263 0.0
C222 C 0.11719 1.00565 0.89937 0.0
C223 C 0.12403 0.02984 0.87541 0.0
N224 N 0.13437 1.00737 0.90238 0.0
C225 C 0.13867 0.02269 0.88757 0.0
C226 C 0.09025 0.02026 0.80398 0.0
O227 O 0.06801 0.05121 0.84055 0.0
O228 O 0.09103 0.04702 0.86709 0.0
O229 O 0.0992 0.02036 0.82734 0.0
O230 O 0.07397 0.02123 0.80642 0.0
O231 O 0.08683 0.99545 0.86686 0.0
H232 H 0.12345 0.04162 0.86105 0.0
H233 H 0.10978 0.99422 0.9078 0.0
O234 O 0.06107 0.99779 0.84866 0.0
O235 O 0.05411 0.02788 0.88201 0.0
O236 O 0.07777 0.02178 0.90565 0.0
C237 C 0.06162 0.02521 0.90616 0.0
H238 H 1.00184 1.01479 0.82734 0.0
H239 H 0.15154 0.02814 0.88518 0.0
Co240 Co 0.33876 0.51344 0.61674 0.0
C241 C 0.3323 0.4764 0.60439 0.0
Co242 Co 0.31421 0.50898 0.59514 0.0
C243 C 0.36779 0.52823 0.65059 0.0
C244 C 0.37369 0.50471 0.62456 0.0
N245 N 0.36062 0.51584 0.63237 0.0
N246 N 0.38474 0.52491 0.65462 0.0
C247 C 0.38839 0.51014 0.63824 0.0
H248 H 0.36083 0.53949 0.66043 0.0
H249 H 0.37275 0.49357 0.60914 0.0
C250 C 0.32181 0.54607 0.60895 0.0
N251 N 0.29282 0.50578 0.57885 0.0
C252 C 0.28857 0.49601 0.55503 0.0
C253 C 0.27778 0.51208 0.58945 0.0
N254 N 0.27145 0.49578 0.55061 0.0
C255 C 0.2646 0.50588 0.57219 0.0
C256 C 0.31173 0.50854 0.65679 0.0
O257 O 0.33612 0.53902 0.61599 0.0
O258 O 0.30993 0.53552 0.59944 0.0
O259 O 0.30426 0.50505 0.63286 0.0
O260 O 0.32771 0.51287 0.65585 0.0
O261 O 0.31905 0.4825 0.59118 0.0
H262 H 0.27647 0.52046 0.6087 0.0
H263 H 0.29782 0.48886 0.54159 0.0
O264 O 0.34158 0.48766 0.61812 0.0
O265 O 0.34916 0.51423 0.57712 0.0
O266 O 0.32374 0.51294 0.5573 0.0
C267 C 0.3399 0.51423 0.55412 0.0
H268 H 0.401 0.50407 0.63554 0.0
H269 H 0.25105 0.50871 0.5751 0.0
Co270 Co 0.9204 0.76599 0.61746 0.0
C271 C 0.92655 0.80331 0.60608 0.0
Co272 Co 0.94488 0.77104 0.59559 0.0
C273 C 0.8923 0.74819 0.64896 0.0
C274 C 0.88537 0.77394 0.62958 0.0
N275 N 0.89894 0.7628 0.63452 0.0
N276 N 0.87514 0.74976 0.65261 0.0
C277 C 0.87082 0.76603 0.64073 0.0
H278 H 0.89966 0.73616 0.65505 0.0
H279 H 0.88576 0.78657 0.61714 0.0
C280 C 0.93749 0.73361 0.60862 0.0
N281 N 0.96583 0.77391 0.57739 0.0
C282 C 0.97907 0.7853 0.58345 0.0
C283 C 0.9717 0.76277 0.55622 0.0
N284 N 0.99298 0.7814 0.5671 0.0
C285 C 0.98841 0.76729 0.54997 0.0
C286 C 0.94832 0.7708 0.65662 0.0
O287 O 0.92332 0.74056 0.61632 0.0
O288 O 0.94922 0.74431 0.599 0.0
O289 O 0.95573 0.77423 0.63255 0.0
O290 O 0.93228 0.7666 0.65597 0.0
O291 O 0.94004 0.79772 0.59288 0.0
H292 H 0.96449 0.7516 0.54672 0.0
H293 H 0.97882 0.79556 0.60044 0.0
O294 O 0.91729 0.79154 0.61897 0.0
O295 O 0.90916 0.7653 0.57865 0.0
O296 O 0.93433 0.76782 0.55829 0.0
C297 C 0.9182 0.76603 0.55546 0.0
H298 H 0.85794 0.77161 0.63947 0.0
H299 H 0.99673 0.76047 0.53452 0.0
Co300 Co 0.34043 0.76621 0.70266 0.0
C301 C 0.33348 0.80333 0.71444 0.0
Co302 Co 0.31541 0.7707 0.72309 0.0
C303 C 0.37004 0.74937 0.67438 0.0
C304 C 0.37591 0.77457 0.69609 0.0
N305 N 0.36269 0.76349 0.68883 0.0
N306 N 0.38731 0.75115 0.67283 0.0
C307 C 0.39096 0.76712 0.68619 0.0
H308 H 0.363 0.73756 0.66651 0.0
H309 H 0.37483 0.78691 0.70901 0.0
C310 C 0.32353 0.73347 0.70971 0.0
N311 N 0.2931 0.77327 0.73641 0.0
C312 C 0.28566 0.78474 0.75579 0.0
C313 C 0.27997 0.76352 0.7251 0.0
N314 N 0.26843 0.78226 0.757 0.0
C315 C 0.26492 0.76896 0.73762 0.0
C316 C 0.31461 0.77103 0.66108 0.0
O317 O 0.33782 0.74061 0.70306 0.0
O318 O 0.31164 0.74397 0.71906 0.0
O319 O 0.3067 0.77421 0.68466 0.0
O320 O 0.33059 0.76685 0.6627 0.0
O321 O 0.31985 0.79728 0.72671 0.0
H322 H 0.28116 0.75343 0.70802 0.0
H323 H 0.2927 0.79472 0.7685 0.0
O324 O 0.34326 0.79202 0.70172 0.0
O325 O 0.34958 0.76541 0.74296 0.0
O326 O 0.32384 0.76726 0.76186 0.0
C327 C 0.33999 0.76576 0.76559 0.0
H328 H 0.40366 0.77292 0.68904 0.0
H329 H 0.25225 0.76389 0.73211 0.0
Co330 Co 0.91838 0.51234 0.69979 0.0
C331 C 0.92579 0.47552 0.71331 0.0
Co332 Co 0.94271 0.5087 0.7229 0.0
C333 C 0.89015 0.5273 0.66444 0.0
C334 C 0.88436 0.50175 0.6855 0.0
N335 N 0.89715 0.51404 0.68142 0.0
N336 N 0.87364 0.52346 0.65758 0.0
C337 C 0.87005 0.50739 0.67078 0.0
H338 H 0.89687 0.53963 0.65771 0.0
H339 H 0.88506 0.48973 0.69932 0.0
C340 C 0.93441 0.54551 0.70796 0.0
N341 N 0.96332 0.50673 0.74245 0.0
C342 C 0.97634 0.49469 0.73864 0.0
C343 C 0.96795 0.51695 0.76558 0.0
N344 N 0.9887 0.4969 0.75887 0.0
C345 C 0.98349 0.51082 0.77586 0.0
C346 C 0.94705 0.5083 0.66215 0.0
O347 O 0.92046 0.53808 0.69991 0.0
O348 O 0.94619 0.53531 0.71869 0.0
O349 O 0.95434 0.50539 0.68652 0.0
O350 O 0.93087 0.5117 0.66216 0.0
O351 O 0.93875 0.48206 0.72677 0.0
H352 H 0.96034 0.52794 0.77473 0.0
H353 H 0.97652 0.4842 0.72202 0.0
O354 O 0.9163 0.48644 0.69918 0.0
O355 O 0.9064 0.51317 0.73791 0.0
O356 O 0.93133 0.51211 0.75937 0.0
C357 C 0.91511 0.51322 0.76147 0.0
H358 H 0.85765 0.50062 0.67092 0.0
H359 H 0.99043 0.51611 0.79443 0.0
Co360 Co 0.69227 0.52381 0.47071 0.0
C361 C 0.68683 0.48592 0.4598 0.0
Co362 Co 0.66792 0.51706 0.44961 0.0
C363 C 0.7193 0.54231 0.50375 0.0
C364 C 0.72826 0.52056 0.47636 0.0
N365 N 0.71381 0.52893 0.48564 0.0
N366 N 0.73664 0.54268 0.50559 0.0
C367 C 0.74224 0.52892 0.48855 0.0
H368 H 0.71085 0.55197 0.51444 0.0
H369 H 0.72867 0.50944 0.46083 0.0
C370 C 0.67187 0.55468 0.45905 0.0
N371 N 0.64667 0.512 0.43383 0.0
C372 C 0.6424 0.50023 0.41238 0.0
C373 C 0.6316 0.5188 0.4435 0.0
N374 N 0.62522 0.49924 0.40869 0.0
C375 C 0.6184 0.51094 0.42816 0.0
C376 C 0.66685 0.51805 0.51228 0.0
O377 O 0.68586 0.55004 0.47166 0.0
O378 O 0.66295 0.54226 0.4471 0.0
O379 O 0.65779 0.51627 0.48923 0.0
O380 O 0.68292 0.52085 0.50922 0.0
O381 O 0.67236 0.49196 0.4517 0.0
H382 H 0.63029 0.52865 0.46091 0.0
H383 H 0.65164 0.49214 0.40035 0.0
O384 O 0.698 0.49735 0.46908 0.0
O385 O 0.70193 0.52678 0.43271 0.0
O386 O 0.67876 0.51768 0.41038 0.0
C387 C 0.69456 0.52255 0.40908 0.0
H388 H 0.75556 0.52518 0.48513 0.0
H389 H 0.60482 0.51367 0.43099 0.0
Co390 Co 0.06524 0.26372 0.47251 0.0
C391 C 0.07184 0.30138 0.46025 0.0
Co392 Co 0.0895 0.26952 0.45036 0.0
C393 C 0.03109 0.24921 0.48499 0.0
C394 C 0.03889 0.2712 0.51296 0.0
N395 N 0.04446 0.26041 0.49112 0.0
N396 N 0.01738 0.25292 0.50193 0.0
C397 C 0.02225 0.26667 0.51957 0.0
H398 H 0.03112 0.2392 0.46763 0.0
H399 H 0.04626 0.28216 0.52275 0.0
C400 C 0.084 0.23195 0.46103 0.0
N401 N 0.11071 0.27327 0.433 0.0
C402 C 0.11668 0.28771 0.41739 0.0
C403 C 0.12471 0.26286 0.43847 0.0
N404 N 0.13386 0.28677 0.41349 0.0
C405 C 0.13888 0.27106 0.42646 0.0
C406 C 0.09222 0.26895 0.51224 0.0
O407 O 0.07042 0.23716 0.47433 0.0
O408 O 0.09309 0.244 0.44842 0.0
O409 O 0.10099 0.27022 0.48884 0.0
O410 O 0.07611 0.26668 0.50979 0.0
O411 O 0.0861 0.29492 0.45194 0.0
H412 H 0.12481 0.25054 0.45168 0.0
H413 H 0.1088 0.29917 0.41046 0.0
O414 O 0.06051 0.29029 0.47001 0.0
O415 O 0.05414 0.26083 0.43556 0.0
O416 O 0.07745 0.26894 0.41213 0.0
C417 C 0.06145 0.26461 0.41151 0.0
H418 H 0.0142 0.27318 0.53576 0.0
H419 H 0.15194 0.266 0.42766 0.0
Co420 Co 0.69366 0.26313 0.3425 0.0
C421 C 0.68625 0.3 0.35693 0.0
Co422 Co 0.66953 0.26713 0.36593 0.0
C423 C 0.72777 0.24954 0.32944 0.0
C424 C 0.71992 0.27191 0.30203 0.0
N425 N 0.71434 0.26069 0.32344 0.0
N426 N 0.74154 0.25367 0.31287 0.0
C427 C 0.73667 0.26768 0.2956 0.0
H428 H 0.7278 0.23937 0.34667 0.0
H429 H 0.7125 0.283 0.2926 0.0
C430 C 0.67613 0.23032 0.35293 0.0
N431 N 0.6483 0.26984 0.38397 0.0
C432 C 0.64157 0.28452 0.39791 0.0
C433 C 0.63491 0.25827 0.38031 0.0
N434 N 0.62451 0.2826 0.40245 0.0
C435 C 0.62037 0.266 0.39172 0.0
C436 C 0.66621 0.268 0.30405 0.0
O437 O 0.68909 0.23666 0.3391 0.0
O438 O 0.66683 0.24135 0.36716 0.0
O439 O 0.65767 0.268 0.32778 0.0
O440 O 0.68246 0.2668 0.3058 0.0
O441 O 0.67225 0.29278 0.36507 0.0
H442 H 0.63536 0.24545 0.36852 0.0
H443 H 0.64873 0.29686 0.40297 0.0
O444 O 0.69785 0.28961 0.34634 0.0
O445 O 0.70509 0.25952 0.37906 0.0
O446 O 0.68188 0.26634 0.40368 0.0
C447 C 0.69798 0.26249 0.40351 0.0
H448 H 0.74484 0.27469 0.28007 0.0
H449 H 0.60761 0.26007 0.39137 0.0
Co450 Co 0.06485 0.5254 0.34619 0.0
C451 C 0.07171 0.48826 0.36002 0.0
Co452 Co 0.08906 0.52072 0.36902 0.0
C453 C 0.03838 0.54218 0.30997 0.0
C454 C 0.02935 0.51988 0.33647 0.0
N455 N 0.04377 0.52894 0.32854 0.0
N456 N 0.02117 0.54175 0.30658 0.0
C457 C 0.01545 0.52777 0.32309 0.0
H458 H 0.04669 0.5525 0.30046 0.0
H459 H 0.02881 0.5089 0.35233 0.0
C460 C 0.08352 0.55771 0.35667 0.0
N461 N 0.10951 0.51721 0.38834 0.0
C462 C 0.12232 0.50521 0.38276 0.0
C463 C 0.11397 0.52543 0.41347 0.0
N464 N 0.13437 0.50546 0.40377 0.0
C465 C 0.1292 0.51814 0.4231 0.0
C466 C 0.09203 0.52009 0.30707 0.0
O467 O 0.07014 0.55181 0.34358 0.0
O468 O 0.09288 0.54631 0.37019 0.0
O469 O 0.10081 0.51961 0.33067 0.0
O470 O 0.07577 0.52188 0.30914 0.0
O471 O 0.08574 0.49526 0.3684 0.0
H472 H 0.10638 0.53573 0.42448 0.0
H473 H 0.12243 0.49594 0.3644 0.0
O474 O 0.06025 0.49885 0.34935 0.0
O475 O 0.05355 0.52888 0.38289 0.0
O476 O 0.07668 0.52156 0.40682 0.0
C477 C 0.06068 0.52551 0.40711 0.0
H478 H 1.0021 0.52395 0.32589 0.0
H479 H 0.13591 0.5217 0.44293 0.0
Co480 Co 0.8398 1.01697 0.61737 0.0
C481 C 0.83695 0.9791 0.60784 0.0
Co482 Co 0.81587 1.00937 0.5958 0.0
C483 C 0.86653 0.03753 0.64795 0.0
C484 C 0.87558 1.0132 0.62679 0.0
N485 N 0.8611 0.0226 0.63308 0.0
N486 N 0.88382 0.03783 0.65063 0.0
C487 C 0.88948 0.02244 0.6376 0.0
H488 H 0.85811 0.04841 0.65528 0.0
H489 H 0.87612 1.00082 0.61389 0.0
C490 C 0.82006 0.04742 0.6064 0.0
N491 N 0.79487 1.00355 0.57949 0.0
C492 C 0.79125 0.99405 0.55506 0.0
C493 C 0.77942 1.0081 0.59069 0.0
N494 N 0.77415 0.99232 0.55094 0.0
C495 C 0.7667 1.00114 0.5733 0.0
C496 C 0.81298 1.01073 0.6574 0.0
O497 O 0.83477 0.04197 0.61437 0.0
O498 O 0.80916 0.03553 0.59762 0.0
O499 O 0.80602 1.00579 0.63369 0.0
O500 O 0.82856 1.01648 0.65633 0.0
O501 O 0.8231 0.98334 0.59445 0.0
H502 H 0.77752 1.0161 0.61021 0.0
H503 H 0.80093 0.98842 0.54071 0.0
O504 O 0.8451 0.99178 0.62061 0.0
O505 O 0.85042 0.0176 0.57823 0.0
O506 O 0.82553 1.01296 0.55769 0.0
C507 C 0.84157 1.01584 0.555 0.0
H508 H 0.90279 0.01828 0.63564 0.0
H509 H 0.75299 1.00285 0.57642 0.0
Co510 Co 0.41878 0.26947 0.61773 0.0
C511 C 0.42709 0.30596 0.60389 0.0
Co512 Co 0.44339 0.27236 0.59523 0.0
C513 C 0.38889 0.25394 0.64713 0.0
C514 C 0.38422 0.28053 0.62879 0.0
N515 N 0.39683 0.26814 0.63364 0.0
N516 N 0.37186 0.25693 0.65031 0.0
C517 C 0.36897 0.27375 0.63912 0.0
H518 H 0.39521 0.24119 0.65288 0.0
H519 H 0.38571 0.2933 0.61699 0.0
C520 C 0.43387 0.23576 0.61031 0.0
N521 N 0.46528 0.27367 0.5797 0.0
C522 C 0.47253 0.28518 0.56008 0.0
C523 C 0.4783 0.26296 0.58912 0.0
N524 N 0.48953 0.28182 0.55686 0.0
C525 C 0.4931 0.26787 0.57516 0.0
C526 C 0.44605 0.27338 0.65699 0.0
O527 O 0.42016 0.24372 0.61791 0.0
O528 O 0.44603 0.24554 0.59994 0.0
O529 O 0.45349 0.27584 0.63272 0.0
O530 O 0.42988 0.26994 0.6567 0.0
O531 O 0.44005 0.29905 0.59082 0.0
H532 H 0.47728 0.25262 0.60597 0.0
H533 H 0.46557 0.29589 0.54872 0.0
O534 O 0.41725 0.29536 0.61798 0.0
O535 O 0.40834 0.26885 0.57836 0.0
O536 O 0.4336 0.26897 0.55747 0.0
C537 C 0.41731 0.26841 0.55503 0.0
H538 H 0.3566 0.28051 0.63774 0.0
H539 H 0.5057 0.26205 0.57908 0.0
Co540 Co 0.83883 0.26652 0.69905 0.0
C541 C 0.83264 0.30349 0.71175 0.0
Co542 Co 0.81415 0.27096 0.72066 0.0
C543 C 0.86489 0.25222 0.66069 0.0
C544 C 0.87497 0.27126 0.69174 0.0
N545 N 0.86024 0.26339 0.68271 0.0
N546 N 0.88199 0.25269 0.65584 0.0
C547 C 0.88835 0.26472 0.67529 0.0
H548 H 0.85594 0.24358 0.64899 0.0
H549 H 0.87592 0.28101 0.70937 0.0
C550 C 0.82168 0.23382 0.70627 0.0
N551 N 0.7923 0.2737 0.73597 0.0
C552 C 0.78551 0.28558 0.75542 0.0
C553 C 0.77886 0.26349 0.72685 0.0
N554 N 0.76843 0.28283 0.7589 0.0
C555 C 0.7643 0.26897 0.74091 0.0
C556 C 0.81189 0.27175 0.65901 0.0
O557 O 0.83582 0.24097 0.69877 0.0
O558 O 0.81012 0.24428 0.71681 0.0
O559 O 0.80426 0.27458 0.68295 0.0
O560 O 0.82792 0.26784 0.65996 0.0
O561 O 0.81896 0.29747 0.72399 0.0
H562 H 0.77946 0.25301 0.71028 0.0
H563 H 0.79287 0.296 0.76663 0.0
O564 O 0.84231 0.29219 0.69871 0.0
O565 O 0.84907 0.26508 0.73872 0.0
O566 O 0.82366 0.26741 0.75875 0.0
C567 C 0.83984 0.26564 0.7618 0.0
H568 H 0.90171 0.26868 0.67732 0.0
H569 H 0.7515 0.26357 0.73747 0.0
Co570 Co 0.41695 1.0123 0.6984 0.0
C571 C 0.42587 0.97568 0.71186 0.0
Co572 Co 0.44177 1.00936 0.72018 0.0
C573 C 0.38667 0.02577 0.66709 0.0
C574 C 0.38252 1.00076 0.69072 0.0
N575 N 0.39485 1.01299 0.68342 0.0
N576 N 0.36979 0.02181 0.6639 0.0
C577 C 0.36724 1.00606 0.67871 0.0
H578 H 0.39285 0.03793 0.65839 0.0
H579 H 0.38429 0.98914 0.70511 0.0
C580 C 0.43174 0.04601 0.7054 0.0
N581 N 0.46392 1.00849 0.73473 0.0
C582 C 0.47162 0.99761 0.75474 0.0
C583 C 0.47663 0.01917 0.72409 0.0
N584 N 0.48861 1.00134 0.75701 0.0
C585 C 0.4917 1.01486 0.73767 0.0
C586 C 0.44372 1.0089 0.65815 0.0
O587 O 0.41791 0.03813 0.69801 0.0
O588 O 0.44391 0.03617 0.71557 0.0
O589 O 0.45141 1.00624 0.68214 0.0
O590 O 0.42752 1.01206 0.65902 0.0
O591 O 0.43895 0.98262 0.72454 0.0
H592 H 0.47518 0.02913 0.70677 0.0
H593 H 0.46496 0.98713 0.76715 0.0
O594 O 0.41581 0.98629 0.69823 0.0
O595 O 0.40701 1.01277 0.73822 0.0
O596 O 0.43245 1.01247 0.75844 0.0
C597 C 0.41618 1.01306 0.76133 0.0
H598 H 0.35499 0.9993 0.68194 0.0
H599 H 0.50414 0.02083 0.73289 0.0
Co600 Co 0.19251 0.02463 0.46966 0.0
C601 C 0.18752 0.98655 0.45934 0.0
Co602 Co 0.16831 0.01742 0.44861 0.0
C603 C 0.21915 0.04343 0.50276 0.0
C604 C 0.22861 0.02216 0.47492 0.0
N605 N 0.21398 0.03012 0.48429 0.0
N606 N 0.23646 0.04417 0.50484 0.0
C607 C 0.24239 0.03071 0.48749 0.0
H608 H 0.21044 0.05271 0.51373 0.0
H609 H 0.22926 1.01114 0.45924 0.0
C610 C 0.17192 0.05527 0.45758 0.0
N611 N 0.14673 1.01213 0.43378 0.0
C612 C 0.14098 0.99727 0.41909 0.0
C613 C 0.13244 0.02174 0.44044 0.0
N614 N 0.12366 0.9972 0.41686 0.0
C615 C 0.11833 1.01269 0.43 0.0
C616 C 0.16731 0.01896 0.51127 0.0
O617 O 0.18582 0.05081 0.4706 0.0
O618 O 0.16337 0.0427 0.44531 0.0
O619 O 0.15827 1.01712 0.48822 0.0
O620 O 0.18338 0.02167 0.50826 0.0
O621 O 0.17291 0.99235 0.45153 0.0
H622 H 0.13219 0.03417 0.45326 0.0
H623 H 0.14921 0.9863 0.41152 0.0
O624 O 0.19861 0.99822 0.46816 0.0
O625 O 0.20193 0.02761 0.43153 0.0
O626 O 0.17904 0.01756 0.40923 0.0
C627 C 0.19475 0.02287 0.40795 0.0
H628 H 0.25577 0.02718 0.48427 0.0
H629 H 0.1051 1.01708 0.43224 0.0
Co630 Co 0.56705 0.76388 0.47022 0.0
C631 C 0.57335 0.80172 0.45837 0.0
Co632 Co 0.59154 0.7702 0.44915 0.0
C633 C 0.53901 0.74897 0.50638 0.0
C634 C 0.53141 0.76898 0.47461 0.0
N635 N 0.54526 0.75999 0.48512 0.0
N636 N 0.52184 0.75107 0.50954 0.0
C637 C 0.5171 0.76358 0.48951 0.0
H638 H 0.54687 0.73986 0.51945 0.0
H639 H 0.53167 0.77884 0.45697 0.0
C640 C 0.58659 0.73257 0.45952 0.0
N641 N 0.6129 0.77447 0.43323 0.0
C642 C 0.61721 0.78554 0.41078 0.0
C643 C 0.62793 0.76776 0.44328 0.0
N644 N 0.63437 0.78617 0.40676 0.0
C645 C 0.64115 0.77499 0.42712 0.0
C646 C 0.59245 0.76937 0.51183 0.0
O647 O 0.5726 0.73749 0.4719 0.0
O648 O 0.59584 0.74481 0.44762 0.0
O649 O 0.6016 0.77107 0.48883 0.0
O650 O 0.57637 0.76674 0.50868 0.0
O651 O 0.58773 0.79551 0.45026 0.0
H652 H 0.62919 0.75838 0.46144 0.0
H653 H 0.608 0.79337 0.39817 0.0
O654 O 0.56213 0.79044 0.46796 0.0
O655 O 0.55745 0.76093 0.43224 0.0
O656 O 0.58083 0.76944 0.40988 0.0
C657 C 0.56498 0.76481 0.40856 0.0
H658 H 0.50411 0.76835 0.48568 0.0
H659 H 0.65471 0.77215 0.42996 0.0
Co660 Co 0.19475 0.76251 0.34699 0.0
C661 C 0.18884 0.79971 0.36109 0.0
Co662 Co 0.17087 0.7676 0.37034 0.0
C663 C 0.21887 0.74803 0.30511 0.0
C664 C 0.23079 0.76479 0.33763 0.0
N665 N 0.2154 0.75851 0.32854 0.0
N666 N 0.23588 0.74731 0.29964 0.0
C667 C 0.24342 0.75785 0.31998 0.0
H668 H 0.20921 0.74065 0.29287 0.0
H669 H 0.23273 0.77357 0.35626 0.0
C670 C 0.17559 0.73055 0.35761 0.0
N671 N 0.15031 0.77138 0.38931 0.0
C672 C 0.14707 0.78188 0.41283 0.0
C673 C 0.13537 0.76268 0.38361 0.0
N674 N 0.13078 0.77981 0.42214 0.0
C675 C 0.12337 0.76772 0.40398 0.0
C676 C 0.16769 0.7686 0.30832 0.0
O677 O 0.18883 0.73628 0.3439 0.0
O678 O 0.16673 0.74203 0.37177 0.0
O679 O 0.15901 0.76903 0.332 0.0
O680 O 0.18389 0.76674 0.31027 0.0
O681 O 0.17464 0.79302 0.36945 0.0
H682 H 0.13352 0.75282 0.36635 0.0
H683 H 0.15665 0.79021 0.42366 0.0
O684 O 0.20012 0.78887 0.35051 0.0
O685 O 0.20601 0.75825 0.38349 0.0
O686 O 0.18329 0.76627 0.40807 0.0
C687 C 0.19916 0.76167 0.40791 0.0
H688 H 0.25709 0.76037 0.32187 0.0
H689 H 0.11033 0.76264 0.40577 0.0
Co690 Co 0.56513 0.02588 0.34553 0.0
C691 C 0.57223 0.98878 0.35965 0.0
Co692 Co 0.58908 0.02139 0.36936 0.0
C693 C 0.53855 0.04309 0.30987 0.0
C694 C 0.53009 0.01913 0.33298 0.0
N695 N 0.54422 0.02922 0.32703 0.0
N696 N 0.52141 0.04209 0.30548 0.0
C697 C 0.51613 0.02694 0.31976 0.0
H698 H 0.5466 0.0542 0.30209 0.0
H699 H 0.5297 1.00736 0.34737 0.0
C700 C 0.58343 0.05832 0.35666 0.0
N701 N 0.60934 0.01812 0.38953 0.0
C702 C 0.62272 1.00689 0.38369 0.0
C703 C 0.61316 0.02592 0.41529 0.0
N704 N 0.63452 1.00722 0.40513 0.0
C705 C 0.62858 0.01913 0.42504 0.0
C706 C 0.59287 0.02087 0.30747 0.0
O707 O 0.57024 0.05232 0.34312 0.0
O708 O 0.59265 0.047 0.37062 0.0
O709 O 0.60136 0.0204 0.33139 0.0
O710 O 0.57659 0.02252 0.30897 0.0
O711 O 0.58605 0.99592 0.36866 0.0
H712 H 0.60506 0.03565 0.42657 0.0
H713 H 0.62349 0.99817 0.36472 0.0
O714 O 0.56083 0.99926 0.34851 0.0
O715 O 0.55325 0.02923 0.38169 0.0
O716 O 0.57605 0.02213 0.40668 0.0
C717 C 0.56001 0.02595 0.40623 0.0
H718 H 0.503 0.02206 0.32102 0.0
H719 H 0.63493 0.02258 0.44524 0.0
Co720 Co 0.83838 0.51383 0.1179 0.0
C721 C 0.83086 0.47734 0.10396 0.0
Co722 Co 0.81403 0.51076 0.09492 0.0
C723 C 0.8668 0.52971 0.15066 0.0
C724 C 0.8729 0.50389 0.13104 0.0
N725 N 0.85975 0.51563 0.13568 0.0
N726 N 0.88382 0.52727 0.15495 0.0
C727 C 0.88762 0.51094 0.14291 0.0
H728 H 0.85989 0.54204 0.15665 0.0
H729 H 0.87214 0.49146 0.11829 0.0
C730 C 0.82256 0.5473 0.11027 0.0
N731 N 0.79317 0.50922 0.07622 0.0
C732 C 0.77972 0.49791 0.08126 0.0
C733 C 0.78764 0.52115 0.0558 0.0
N734 N 0.76595 0.50261 0.06506 0.0
C735 C 0.77091 0.51716 0.04895 0.0
C736 C 0.80998 0.50957 0.15585 0.0
O737 O 0.83644 0.53956 0.11778 0.0
O738 O 0.81057 0.53736 0.09978 0.0
O739 O 0.80273 0.50696 0.13143 0.0
O740 O 0.82616 0.51306 0.15591 0.0
O741 O 0.81796 0.48416 0.09051 0.0
H742 H 0.79515 0.5324 0.04707 0.0
H743 H 0.77978 0.487 0.09731 0.0
O744 O 0.84041 0.48799 0.11843 0.0
O745 O 0.85003 0.51473 0.07945 0.0
O746 O 0.825 0.51458 0.0582 0.0
C747 C 0.84124 0.51524 0.05597 0.0
H748 H 0.90028 0.5048 0.14192 0.0
H749 H 0.76291 0.52447 1.03351 0.0
Co750 Co 0.41946 0.76799 0.121 0.0
C751 C 0.42465 0.80444 0.10518 0.0
Co752 Co 0.4429 0.77175 0.09561 0.0
C753 C 0.38645 0.75378 0.13803 0.0
C754 C 0.39654 0.773 0.16884 0.0
N755 N 0.39989 0.76507 0.143 0.0
N756 N 0.37501 0.7542 0.15999 0.0
C757 C 0.38128 0.76624 0.17943 0.0
H758 H 0.38534 0.74499 0.11918 0.0
H759 H 0.4048 0.78286 0.17949 0.0
C760 C 0.43667 0.73521 0.11358 0.0
N761 N 0.46255 0.77424 0.07369 0.0
C762 C 0.47576 0.78611 0.0769 0.0
C763 C 0.46754 0.76263 0.05252 0.0
N764 N 0.48883 0.78209 0.05881 0.0
C765 C 0.48375 0.76736 0.04347 0.0
C766 C 0.44956 0.77399 0.15531 0.0
O767 O 0.42292 0.74254 0.12254 0.0
O768 O 0.44761 0.74532 0.10038 0.0
O769 O 0.45604 0.77623 0.1302 0.0
O770 O 0.4335 0.77032 0.15685 0.0
O771 O 0.43766 0.79811 0.09148 0.0
H772 H 0.46015 0.75097 0.04506 0.0
H773 H 0.47619 0.79676 0.09325 0.0
O774 O 0.41563 0.7935 0.12028 0.0
O775 O 0.40596 0.76556 0.08437 0.0
O776 O 0.43024 0.76726 0.06081 0.0
C777 C 0.41402 0.76549 0.0601 0.0
H778 H 0.37521 0.7699 0.19979 0.0
H779 H 0.49148 0.76019 1.02754 0.0
Co780 Co 0.84137 0.7678 0.19842 0.0
C781 C 0.83596 0.80476 0.21139 0.0
Co782 Co 0.8175 0.77232 0.22228 0.0
C783 C 0.86422 0.75398 0.15414 0.0
C784 C 0.87624 0.77381 0.1819 0.0
N785 N 0.8614 0.76458 0.1777 0.0
N786 N 0.88014 0.75651 0.14333 0.0
C787 C 0.88774 0.76898 0.16061 0.0
H788 H 0.8546 0.74518 0.14441 0.0
H789 H 0.87836 0.78382 0.19885 0.0
C790 C 0.82408 0.73528 0.20808 0.0
N791 N 0.79762 0.77551 0.24343 0.0
C792 C 0.78505 0.78815 0.24014 0.0
C793 C 0.79319 0.76579 0.26731 0.0
N794 N 0.77319 0.78682 0.26139 0.0
C795 C 0.77824 0.77282 0.27852 0.0
C796 C 0.81183 0.77307 0.16228 0.0
O797 O 0.83803 0.74226 0.19913 0.0
O798 O 0.81274 0.74587 0.21909 0.0
O799 O 0.80496 0.77608 0.18689 0.0
O800 O 0.82789 0.76919 0.16175 0.0
O801 O 0.82279 0.79875 0.22505 0.0
H802 H 0.80053 0.7545 0.27627 0.0
H803 H 0.78485 0.79841 0.22304 0.0
O804 O 0.84503 0.79345 0.19725 0.0
O805 O 0.85434 0.76627 0.23567 0.0
O806 O 0.82971 0.7685 0.25791 0.0
C807 C 0.84589 0.76667 0.25952 0.0
H808 H 0.9006 0.77437 0.15772 0.0
H809 H 0.77154 0.76801 0.29773 0.0
Co810 Co 0.41852 0.51445 0.198 0.0
C811 C 0.42312 0.47773 0.2123 0.0
Co812 Co 0.44202 0.51005 0.22306 0.0
C813 C 0.38567 0.52928 0.18067 0.0
C814 C 0.39606 0.51058 0.14936 0.0
N815 N 0.39915 0.51805 0.17563 0.0
N816 N 0.37448 0.52927 0.15833 0.0
C817 C 0.38094 0.51755 0.13858 0.0
H818 H 0.38435 0.53771 0.19989 0.0
H819 H 0.40437 0.50084 0.13856 0.0
C820 C 0.43629 0.54686 0.20665 0.0
N821 N 0.46136 0.50671 0.24561 0.0
C822 C 0.47393 0.49398 0.24338 0.0
C823 C 0.46531 0.51649 0.26956 0.0
N824 N 0.48533 0.49532 0.26534 0.0
C825 C 0.47997 0.50943 0.28184 0.0
C826 C 0.44886 0.50868 0.1636 0.0
O827 O 0.42244 0.5398 0.19752 0.0
O828 O 0.44716 0.53647 0.2195 0.0
O829 O 0.45538 0.50595 0.18857 0.0
O830 O 0.43281 0.51244 0.16231 0.0
O831 O 0.43629 0.48367 0.22602 0.0
H832 H 0.45788 0.52791 0.27776 0.0
H833 H 0.47449 0.48371 0.22644 0.0
O834 O 0.41423 0.48903 0.1977 0.0
O835 O 0.40479 0.5166 0.23446 0.0
O836 O 0.42909 0.51419 0.25774 0.0
C837 C 0.41291 0.51621 0.25867 0.0
H838 H 0.37508 0.51424 0.11791 0.0
H839 H 0.48632 0.51436 0.30126 0.0
Co840 Co 0.19285 0.5236 0.97138 0.0
C841 C 0.18897 0.48559 0.96047 0.0
Co842 Co 0.16888 0.51595 0.94998 0.0
C843 C 0.21721 0.5398 1.01165 0.0
C844 C 0.22921 0.52477 0.97718 0.0
N845 N 0.21372 0.52963 0.98785 0.0
N846 N 0.23429 0.54166 1.01584 0.0
C847 C 0.24186 0.53222 0.99423 0.0
H848 H 0.20746 0.54587 1.0254 0.0
H849 H 0.2312 0.51632 0.95818 0.0
C850 C 0.17132 0.55371 0.95972 0.0
N851 N 0.14803 0.51003 0.93333 0.0
C852 C 0.14454 0.49905 0.91046 0.0
C853 C 0.13255 0.51558 0.94316 0.0
N854 N 0.12747 0.49736 0.90603 0.0
C855 C 0.11991 0.50776 0.92652 0.0
C856 C 0.16713 0.51681 1.01242 0.0
O857 O 0.1854 0.54953 0.97248 0.0
O858 O 0.16297 0.541 0.94733 0.0
O859 O 0.15821 0.51477 0.98929 0.0
O860 O 0.18311 0.52 1.00946 0.0
O861 O 0.17428 0.49099 0.95231 0.0
H862 H 0.13058 0.5247 0.96137 0.0
H863 H 0.15428 0.49214 0.89772 0.0
O864 O 0.19973 0.49751 0.96969 0.0
O865 O 0.20292 0.52721 0.93367 0.0
O866 O 0.18024 0.51699 0.91111 0.0
C867 C 0.19587 0.52249 0.90997 0.0
H868 H 0.25558 0.5305 0.99136 0.0
H869 H 0.10619 0.50976 0.929 0.0
Co870 Co 0.56561 0.26122 0.96891 0.0
C871 C 0.5701 0.29945 0.95863 0.0
Co872 Co 0.58982 0.26902 0.94826 0.0
C873 C 0.53894 0.2421 1.00176 0.0
C874 C 0.52942 0.26299 0.97306 0.0
N875 N 0.54408 0.25534 0.98302 0.0
N876 N 0.52162 0.24109 1.00346 0.0
C877 C 0.51566 0.25432 0.98556 0.0
H878 H 0.54769 0.23307 1.01326 0.0
H879 H 0.52876 0.27391 0.9571 0.0
C880 C 0.58671 0.23104 0.95735 0.0
N881 N 0.61147 0.27465 0.93399 0.0
C882 C 0.61719 0.2893 0.91861 0.0
C883 C 0.62581 0.26542 0.94173 0.0
N884 N 0.63454 0.28961 0.91697 0.0
C885 C 0.63992 0.2745 0.93125 0.0
C886 C 0.59029 0.26734 1.01098 0.0
O887 O 0.57263 0.23516 0.97005 0.0
O888 O 0.59517 0.24384 0.94532 0.0
O889 O 0.59945 0.26949 0.98812 0.0
O890 O 0.57432 0.26419 1.00766 0.0
O891 O 0.58483 0.29403 0.95086 0.0
H892 H 0.62606 0.25323 0.95522 0.0
H893 H 0.6089 0.29995 0.91001 0.0
O894 O 0.55918 0.28751 0.96727 0.0
O895 O 0.5566 0.25821 0.93063 0.0
O896 O 0.57946 0.26871 0.90863 0.0
C897 C 0.56387 0.26307 0.90714 0.0
H898 H 0.50226 0.25764 0.98196 0.0
H899 H 0.65317 0.27033 0.93413 0.0
Co900 Co 0.19331 0.26225 0.84639 0.0
C901 C 0.18779 0.29953 0.8603 0.0
Co902 Co 0.16921 0.26762 0.86897 0.0
C903 C 0.21897 0.24528 0.80943 0.0
C904 C 0.22941 0.2648 0.83947 0.0
N905 N 0.21444 0.25766 0.82985 0.0
N906 N 0.23618 0.24427 0.80654 0.0
C907 C 0.2428 0.25651 0.82527 0.0
H908 H 0.20995 0.2366 0.79795 0.0
H909 H 0.23054 0.27483 0.85666 0.0
C910 C 0.17343 0.23053 0.85669 0.0
N911 N 0.14822 0.27209 0.88603 0.0
C912 C 0.14424 0.28347 0.90816 0.0
C913 C 0.13308 0.26504 0.87721 0.0
N914 N 0.12715 0.28393 0.9132 0.0
C915 C 0.12012 0.27229 0.89383 0.0
C916 C 0.16727 0.26845 0.80638 0.0
O917 O 0.18697 0.23604 0.84355 0.0
O918 O 0.1645 0.24219 0.87039 0.0
O919 O 0.15838 0.26914 0.82979 0.0
O920 O 0.18343 0.2663 0.80879 0.0
O921 O 0.17347 0.29292 0.86816 0.0
H922 H 0.13155 0.25535 0.85962 0.0
H923 H 0.15363 0.29156 0.91985 0.0
O924 O 0.19902 0.2886 0.84978 0.0
O925 O 0.20362 0.25815 0.88366 0.0
O926 O 0.18067 0.26627 0.90755 0.0
C927 C 0.19654 0.26165 0.90786 0.0
H928 H 0.25637 0.25899 0.82872 0.0
H929 H 0.10657 0.26908 0.89202 0.0
Co930 Co 0.56579 0.52373 0.84777 0.0
C931 C 0.57168 0.48619 0.86028 0.0
Co932 Co 0.59023 0.51798 0.86933 0.0
C933 C 0.53843 0.54178 0.81461 0.0
C934 C 0.52991 0.51951 0.84157 0.0
N935 N 0.54419 0.52836 0.83253 0.0
N936 N 0.52108 0.54171 0.81265 0.0
C937 C 0.51577 0.52762 0.8294 0.0
H938 H 0.54668 0.55182 0.80421 0.0
H939 H 0.52969 0.50827 0.85701 0.0
C940 C 0.58565 0.55531 0.85838 0.0
N941 N 0.61139 0.51325 0.88555 0.0
C942 C 0.61535 0.50141 0.90717 0.0
C943 C 0.62654 0.52038 0.87687 0.0
N944 N 0.63243 0.50074 0.91213 0.0
C945 C 0.6395 0.51272 0.89316 0.0
C946 C 0.59146 0.51823 0.80666 0.0
O947 O 0.57187 0.55 0.8458 0.0
O948 O 0.59489 0.54344 0.87114 0.0
O949 O 0.60052 0.51702 0.82985 0.0
O950 O 0.57531 0.52053 0.80948 0.0
O951 O 0.58603 0.49267 0.86809 0.0
H952 H 0.62807 0.5304 0.85965 0.0
H953 H 0.60591 0.49316 0.91856 0.0
O954 O 0.5604 0.49727 0.85028 0.0
O955 O 0.55595 0.52691 0.8857 0.0
O956 O 0.57935 0.51876 0.90834 0.0
C957 C 0.56344 0.52315 0.90949 0.0
H958 H 0.50254 0.52348 0.83272 0.0
H959 H 0.65305 0.51592 0.89143 0.0
C960 C 0.4169 0.83291 0.07627 0.0
C961 C 0.41886 0.82391 0.10318 0.0
C962 C 0.40788 0.8497 0.07439 0.0
C963 C 0.39302 0.8894 0.11831 0.0
H964 H 0.35577 0.89374 0.06275 0.0
C965 C 0.34423 0.94823 0.12959 0.0
C966 C 0.33766 0.95677 0.10452 0.0
C967 C 0.35339 0.93171 0.12788 0.0
C968 C 0.36624 0.89295 0.07819 0.0
H969 H 0.41333 0.82575 0.1492 0.0
H970 H 0.39841 0.85514 0.14617 0.0
H971 H 0.37461 0.86678 0.06171 0.0
H972 H 0.33531 0.95436 0.05786 0.0
H973 H 0.35162 0.92557 0.05457 0.0
H974 H 0.38512 0.9155 0.13459 0.0
C975 C 0.40365 0.84931 0.12644 0.0
C976 C 0.37708 0.87744 0.07755 0.0
C977 C 0.41228 0.83245 0.1282 0.0
C978 C 0.33986 0.9479 0.07766 0.0
C979 C 0.34935 0.93142 0.07583 0.0
C980 C 0.38238 0.90494 0.11874 0.0
C981 C 0.40095 0.85801 0.09947 0.0
C982 C 0.39044 0.8753 0.09795 0.0
C983 C 0.35675 0.92334 0.10087 0.0
C984 C 0.36854 0.90688 0.09912 0.0
H985 H 0.42149 0.82649 0.05653 0.0
H986 H 0.40611 0.85606 0.05328 0.0
H987 H 0.40332 0.8884 0.13407 0.0
H988 H 0.34285 0.95477 0.15059 0.0
H989 H 0.35824 0.92578 0.14786 0.0
C990 C 0.84244 0.44881 0.1269 0.0
C991 C 0.83619 0.45771 0.10186 0.0
C992 C 0.85114 0.43199 0.12504 0.0
C993 C 0.87838 0.40464 0.07594 0.0
H994 H 0.87072 0.36606 0.13267 0.0
C995 C 0.91646 0.33458 0.07559 0.0
C996 C 0.91882 0.32561 0.10242 0.0
C997 C 0.90671 0.35093 0.07381 0.0
C998 C 0.87336 0.37676 0.11689 0.0
H999 H 0.83428 0.45582 0.05506 0.0
H1000 H 0.84969 0.42631 0.05166 0.0
H1001 H 0.85224 0.39295 0.13236 0.0
H1002 H 0.91361 0.32731 0.14851 0.0
H1003 H 0.89774 0.35601 0.14586 0.0
H1004 H 0.89984 0.38866 0.06097 0.0
C1005 C 0.84762 0.43234 0.07286 0.0
C1006 C 0.86256 0.3922 0.11659 0.0
C1007 C 0.83854 0.44909 0.07482 0.0
C1008 C 0.9121 0.33391 0.12751 0.0
C1009 C 0.90267 0.35028 0.12585 0.0
C1010 C 0.88936 0.38922 0.07643 0.0
C1011 C 0.85427 0.42368 0.09797 0.0
C1012 C 0.86498 0.4065 0.09636 0.0
C1013 C 0.89919 0.35876 0.09888 0.0
C1014 C 0.88721 0.37511 0.09724 0.0
H1015 H 0.84115 0.45525 0.14798 0.0
H1016 H 0.85617 0.42592 0.14482 0.0
H1017 H 0.88076 0.41543 0.06018 0.0
H1018 H 0.92113 0.32833 0.05577 0.0
H1019 H 0.90438 0.35687 0.05258 0.0
C1020 C 0.40893 0.4506 0.18943 0.0
C1021 C 0.41695 0.45833 0.21393 0.0
C1022 C 0.40018 0.43382 0.19127 0.0
C1023 C 0.37633 0.40407 0.2422 0.0
H1024 H 0.38021 0.36832 0.18038 0.0
C1025 C 0.33939 0.33339 0.24271 0.0
C1026 C 0.33533 0.32551 0.2157 0.0
C1027 C 0.3488 0.34995 0.24418 0.0
C1028 C 0.37862 0.37823 0.19765 0.0
H1029 H 0.42204 0.45427 0.25974 0.0
H1030 H 0.4065 0.4248 0.26313 0.0
H1031 H 0.39857 0.3953 0.18008 0.0
H1032 H 0.33725 0.32925 0.16919 0.0
H1033 H 0.35248 0.3584 0.17154 0.0
H1034 H 0.35604 0.38719 0.25942 0.0
C1035 C 0.40718 0.43179 0.24235 0.0
C1036 C 0.38935 0.39372 0.19757 0.0
C1037 C 0.41629 0.44854 0.24034 0.0
C1038 C 0.33998 0.33508 0.19034 0.0
C1039 C 0.34909 0.35168 0.19176 0.0
C1040 C 0.3654 0.3886 0.24214 0.0
C1041 C 0.39883 0.4243 0.21784 0.0
C1042 C 0.38828 0.40701 0.21963 0.0
C1043 C 0.35432 0.35906 0.21864 0.0
C1044 C 0.36619 0.37551 0.2196 0.0
H1045 H 0.40899 0.45788 0.16883 0.0
H1046 H 0.39383 0.42866 0.172 0.0
H1047 H 0.37501 0.41407 0.25944 0.0
H1048 H 0.33643 0.32607 0.26264 0.0
H1049 H 0.35256 0.35499 0.26535 0.0
C1050 C 0.84967 0.83214 0.188 0.0
C1051 C 0.84195 0.82423 0.21272 0.0
C1052 C 0.85821 0.84907 0.18959 0.0
C1053 C 0.88255 0.87866 0.23934 0.0
H1054 H 0.87617 0.91561 0.17954 0.0
C1055 C 0.91903 0.94957 0.24016 0.0
C1056 C 0.92183 0.95846 0.21339 0.0
C1057 C 0.90968 0.93295 0.24152 0.0
C1058 C 0.87849 0.90538 0.19619 0.0
H1059 H 0.83726 0.82804 0.25867 0.0
H1060 H 0.85253 0.85768 0.26163 0.0
H1061 H 0.85844 0.88815 0.17946 0.0
H1062 H 0.91777 0.95642 0.16704 0.0
H1063 H 0.90275 0.92716 0.16897 0.0
H1064 H 0.90303 0.89557 0.25555 0.0
C1065 C 0.85171 0.85077 0.24087 0.0
C1066 C 0.86809 0.88961 0.19626 0.0
C1067 C 0.84276 0.83392 0.23911 0.0
C1068 C 0.91595 0.94985 0.18799 0.0
C1069 C 0.90697 0.93316 0.18924 0.0
C1070 C 0.89319 0.89436 0.23903 0.0
C1071 C 0.85971 0.85848 0.21613 0.0
C1072 C 0.87003 0.87593 0.21766 0.0
C1073 C 0.90304 0.9247 0.21607 0.0
C1074 C 0.8915 0.90794 0.21721 0.0
H1075 H 0.8495 0.82494 0.16743 0.0
H1076 H 0.86429 0.85444 0.17015 0.0
H1077 H 0.88453 0.86834 0.25602 0.0
H1078 H 0.92301 0.95608 0.2602 0.0
H1079 H 0.90696 0.92711 0.26268 0.0
C1080 C 0.65777 0.07974 0.93811 0.0
C1081 C 0.66949 0.07459 0.96 0.0
C1082 C 0.64938 0.09671 0.93871 0.0
C1083 C 0.63604 0.13475 0.9876 0.0
H1084 H 0.62654 0.15905 0.91427 0.0
C1085 C 0.58918 0.19817 0.97677 0.0
C1086 C 0.59443 0.21215 0.95747 0.0
C1087 C 0.59817 0.18129 0.9781 0.0
C1088 C 0.62911 0.15262 0.93507 0.0
H1089 H 0.68168 0.08371 0.9997 0.0
H1090 H 0.66712 0.11382 1.00059 0.0
H1091 H 0.64395 0.13146 0.91499 0.0
H1092 H 0.61323 0.21899 0.92424 0.0
H1093 H 0.6286 0.19024 0.92666 0.0
H1094 H 0.62137 0.15637 1.00762 0.0
C1095 C 0.66437 0.10443 0.98298 0.0
C1096 C 0.63903 0.13656 0.93546 0.0
C1097 C 0.67292 0.08728 0.98229 0.0
C1098 C 0.60864 0.20863 0.93932 0.0
C1099 C 0.6175 0.19195 0.9406 0.0
C1100 C 0.62606 0.15095 0.98722 0.0
C1101 C 0.65234 0.10933 0.96124 0.0
C1102 C 0.64261 0.12724 0.96165 0.0
C1103 C 0.61253 0.17796 0.96002 0.0
C1104 C 0.62247 0.16018 0.9609 0.0
H1105 H 0.65467 0.07035 0.92064 0.0
H1106 H 0.6401 0.09965 0.9218 0.0
H1107 H 0.63834 0.12794 1.0082 0.0
H1108 H 0.57843 0.20041 0.99128 0.0
H1109 H 0.59384 0.17084 0.99322 0.0
C1110 C 0.08702 0.69882 0.98539 0.0
C1111 C 0.09052 0.71148 0.96294 0.0
C1112 C 0.09533 0.68153 0.9861 0.0
C1113 C 0.11976 0.6489 0.93842 0.0
H1114 H 0.1377 0.62879 1.01038 0.0
C1115 C 0.14918 0.57625 0.94242 0.0
C1116 C 0.16358 0.5726 0.96012 0.0
C1117 C 0.14049 0.59305 0.94378 0.0
C1118 C 0.13291 0.63428 0.99003 0.0
H1119 H 0.10521 0.71549 0.92332 0.0
H1120 H 0.11934 0.68592 0.9245 0.0
H1121 H 0.12123 0.65755 1.01102 0.0
H1122 H 0.18004 0.58421 0.99326 0.0
H1123 H 0.16492 0.61392 0.99536 0.0
H1124 H 0.13163 0.62611 0.91722 0.0
C1125 C 0.11019 0.68903 0.94154 0.0
C1126 C 0.12323 0.65068 0.99046 0.0
C1127 C 0.10207 0.70615 0.94093 0.0
C1128 C 0.16913 0.58654 0.97911 0.0
C1129 C 0.16031 0.60351 0.98053 0.0
C1130 C 0.12937 0.63262 0.938 0.0
C1131 C 0.10716 0.67643 0.96421 0.0
C1132 C 0.11657 0.65831 0.96458 0.0
C1133 C 0.14581 0.607 0.96284 0.0
C1134 C 0.13611 0.62495 0.96374 0.0
H1135 H 0.07839 0.70251 1.00288 0.0
H1136 H 0.09253 0.67217 1.00383 0.0
H1137 H 0.11476 0.6541 0.91802 0.0
H1138 H 0.14434 0.56594 0.9276 0.0
H1139 H 0.12927 0.59489 0.93015 0.0
C1140 C 0.66816 0.70049 0.82764 0.0
C1141 C 0.67163 0.70908 0.85432 0.0
C1142 C 0.65882 0.68387 0.82668 0.0
C1143 C 0.62907 0.65543 0.87389 0.0
H1144 H 0.63329 0.6196 0.81221 0.0
C1145 C 0.60085 0.5818 0.88149 0.0
C1146 C 0.59199 0.57467 0.85736 0.0
C1147 C 0.6094 0.59873 0.87987 0.0
C1148 C 0.63183 0.62958 0.82944 0.0
H1149 H 0.66872 0.70656 0.90088 0.0
H1150 H 0.65376 0.67725 0.89957 0.0
H1151 H 0.65173 0.64685 0.81205 0.0
H1152 H 0.58529 0.57985 0.81243 0.0
H1153 H 0.60063 0.60946 0.80935 0.0
H1154 H 0.60965 0.63776 0.89179 0.0
C1155 C 0.65743 0.68349 0.87911 0.0
C1156 C 0.64243 0.64531 0.82939 0.0
C1157 C 0.66639 0.7002 0.87998 0.0
C1158 C 0.59171 0.58512 0.83156 0.0
C1159 C 0.60068 0.60195 0.82971 0.0
C1160 C 0.61874 0.63961 0.87419 0.0
C1161 C 0.65285 0.67531 0.85244 0.0
C1162 C 0.64138 0.65848 0.85181 0.0
C1163 C 0.60977 0.60891 0.85383 0.0
C1164 C 0.62002 0.62639 0.8521 0.0
H1165 H 0.67164 0.70723 0.80745 0.0
H1166 H 0.65558 0.67828 0.80562 0.0
H1167 H 0.62723 0.66533 0.8911 0.0
H1168 H 0.6015 0.57403 0.90158 0.0
H1169 H 0.61632 0.60354 0.89881 0.0
C1170 C 0.15891 0.20359 0.87986 0.0
C1171 C 0.1669 0.21126 0.85526 0.0
C1172 C 0.14966 0.1871 0.8781 0.0
C1173 C 0.13915 0.14688 0.82938 0.0
H1174 H 0.10033 0.14276 0.88188 0.0
C1175 C 0.08903 0.08634 0.82477 0.0
C1176 C 0.08635 0.07754 0.85168 0.0
C1177 C 0.09793 0.10323 0.82328 0.0
C1178 C 0.11113 0.14364 0.86706 0.0
H1179 H 0.17162 0.20732 0.80939 0.0
H1180 H 0.15506 0.17872 0.80588 0.0
H1181 H 0.11815 0.17016 0.8828 0.0
H1182 H 0.09058 0.07978 0.89801 0.0
H1183 H 0.1052 0.10943 0.8956 0.0
H1184 H 0.13159 0.12032 0.81329 0.0
C1185 C 0.15627 0.18518 0.82692 0.0
C1186 C 0.12156 0.15937 0.86775 0.0
C1187 C 0.16588 0.20161 0.82888 0.0
C1188 C 0.09211 0.08638 0.87702 0.0
C1189 C 0.1006 0.10336 0.8756 0.0
C1190 C 0.12849 0.13121 0.82841 0.0
C1191 C 0.1476 0.17787 0.85141 0.0
C1192 C 0.13602 0.16119 0.84936 0.0
C1193 C 0.10403 0.11186 0.8487 0.0
C1194 C 0.11448 0.12924 0.84759 0.0
H1195 H 0.15944 0.21066 0.90054 0.0
H1196 H 0.14386 0.18181 0.8978 0.0
H1197 H 0.15012 0.14749 0.81493 0.0
H1198 H 0.08517 0.07966 0.80481 0.0
H1199 H 0.10028 0.10941 0.8022 0.0
C1200 C 0.41611 0.33462 0.62687 0.0
C1201 C 0.42198 0.32564 0.60174 0.0
C1202 C 0.40732 0.3514 0.62507 0.0
C1203 C 0.37915 0.37826 0.57654 0.0
H1204 H 0.38719 0.41715 0.63216 0.0
C1205 C 0.34042 0.44789 0.57615 0.0
C1206 C 0.33834 0.45698 0.60286 0.0
C1207 C 0.35029 0.43164 0.57437 0.0
C1208 C 0.38445 0.40636 0.61672 0.0
H1209 H 0.42314 0.32735 0.55483 0.0
H1210 H 0.4076 0.35679 0.55153 0.0
H1211 H 0.40592 0.39046 0.63168 0.0
H1212 H 0.34419 0.45557 0.64876 0.0
H1213 H 0.36028 0.42702 0.64615 0.0
H1214 H 0.35734 0.39395 0.56209 0.0
C1215 C 0.41004 0.35087 0.57276 0.0
C1216 C 0.39539 0.39104 0.61631 0.0
C1217 C 0.4192 0.33416 0.57464 0.0
C1218 C 0.34547 0.44888 0.62786 0.0
C1219 C 0.35503 0.4326 0.62621 0.0
C1220 C 0.36802 0.39357 0.57715 0.0
C1221 C 0.40373 0.35958 0.59797 0.0
C1222 C 0.39283 0.37664 0.59646 0.0
C1223 C 0.35822 0.42402 0.59931 0.0
C1224 C 0.37033 0.40779 0.59757 0.0
H1225 H 0.4177 0.32823 0.64801 0.0
H1226 H 0.40256 0.35751 0.64494 0.0
H1227 H 0.37665 0.36739 0.5611 0.0
H1228 H 0.33542 0.45399 0.55637 0.0
H1229 H 0.35239 0.42562 0.55319 0.0
C1230 C 0.83967 0.9463 0.58832 0.0
C1231 C 0.84481 0.96026 0.60762 0.0
C1232 C 0.84876 0.92947 0.58703 0.0
C1233 C 0.88008 0.90099 0.63015 0.0
H1234 H 0.88868 0.87592 0.55741 0.0
C1235 C 0.90906 0.82825 0.62851 0.0
C1236 C 0.92038 0.82281 0.60624 0.0
C1237 C 0.90065 0.84521 0.62764 0.0
C1238 C 0.88658 0.88284 0.5779 0.0
H1239 H 0.8636 0.96708 0.64081 0.0
H1240 H 0.87917 0.93849 0.63834 0.0
H1241 H 0.87167 0.90431 0.55775 0.0
H1242 H 0.93183 0.83143 0.56555 0.0
H1243 H 0.91728 0.86156 0.56421 0.0
H1244 H 0.89521 0.88003 0.65034 0.0
C1245 C 0.86804 0.94014 0.62444 0.0
C1246 C 0.87656 0.89903 0.57815 0.0
C1247 C 0.85906 0.95675 0.62574 0.0
C1248 C 0.92341 0.83524 0.58328 0.0
C1249 C 0.91484 0.85239 0.58233 0.0
C1250 C 0.89007 0.88497 0.62989 0.0
C1251 C 0.86314 0.92616 0.6051 0.0
C1252 C 0.87317 0.9084 0.60434 0.0
C1253 C 0.90319 0.85757 0.60447 0.0
C1254 C 0.89342 0.87549 0.60385 0.0
H1255 H 0.8289 0.94852 0.57383 0.0
H1256 H 0.84446 0.91905 0.57196 0.0
H1257 H 0.87767 0.90749 0.65089 0.0
H1258 H 0.90625 0.81908 0.64651 0.0
H1259 H 0.89165 0.84832 0.64488 0.0
C1260 C 0.41857 0.94725 0.74109 0.0
C1261 C 0.42088 0.95593 0.71399 0.0
C1262 C 0.40961 0.93041 0.74316 0.0
C1263 C 0.39495 0.89013 0.69987 0.0
H1264 H 0.35766 0.88635 0.75547 0.0
C1265 C 0.34611 0.83094 0.69031 0.0
C1266 C 0.33922 0.82288 0.71556 0.0
C1267 C 0.35541 0.84742 0.69153 0.0
C1268 C 0.36814 0.88697 0.74002 0.0
H1269 H 0.41594 0.95351 0.66789 0.0
H1270 H 0.40117 0.92399 0.67124 0.0
H1271 H 0.37652 0.9133 0.75586 0.0
H1272 H 0.33656 0.8261 0.76203 0.0
H1273 H 0.35309 0.8548 0.76448 0.0
H1274 H 0.38705 0.86385 0.68426 0.0
C1275 C 0.40614 0.93009 0.69098 0.0
C1276 C 0.379 0.9025 0.74028 0.0
C1277 C 0.41471 0.947 0.68902 0.0
C1278 C 0.34134 0.83217 0.74208 0.0
C1279 C 0.35096 0.84862 0.74342 0.0
C1280 C 0.38429 0.87456 0.69983 0.0
C1281 C 0.40304 0.92172 0.71811 0.0
C1282 C 0.39241 0.90445 0.71988 0.0
C1283 C 0.35862 0.85626 0.71822 0.0
C1284 C 0.37043 0.87279 0.7195 0.0
H1285 H 0.42273 0.954 0.76082 0.0
H1286 H 0.40755 0.92435 0.76441 0.0
H1287 H 0.40527 0.89095 0.68412 0.0
H1288 H 0.34482 0.82407 0.66956 0.0
H1289 H 0.36043 0.85297 0.67139 0.0
C1290 C 0.83941 0.33252 0.73981 0.0
C1291 C 0.83846 0.323 0.71327 0.0
C1292 C 0.84849 0.34928 0.74177 0.0
C1293 C 0.8655 0.38808 0.69738 0.0
H1294 H 0.90011 0.3935 0.75735 0.0
C1295 C 0.91456 0.4472 0.68957 0.0
C1296 C 0.92027 0.45592 0.715 0.0
C1297 C 0.9053 0.43069 0.69082 0.0
C1298 C 0.89038 0.39243 0.74063 0.0
H1299 H 0.84591 0.32392 0.66796 0.0
H1300 H 0.86093 0.35327 0.67102 0.0
H1301 H 0.8812 0.36659 0.75752 0.0
H1302 H 0.92084 0.45388 0.76188 0.0
H1303 H 0.90435 0.42518 0.76434 0.0
H1304 H 0.87416 0.41389 0.6807 0.0
C1305 C 0.85484 0.34786 0.69042 0.0
C1306 C 0.87949 0.37692 0.74077 0.0
C1307 C 0.84615 0.33102 0.68863 0.0
C1308 C 0.91702 0.44728 0.74183 0.0
C1309 C 0.90741 0.43082 0.74317 0.0
C1310 C 0.87617 0.40364 0.69745 0.0
C1311 C 0.85651 0.35708 0.7171 0.0
C1312 C 0.86707 0.37438 0.71885 0.0
C1313 C 0.90092 0.42251 0.71767 0.0
C1314 C 0.88907 0.406 0.71871 0.0
H1315 H 0.83397 0.32652 0.75933 0.0
H1316 H 0.84943 0.35603 0.76265 0.0
H1317 H 0.85594 0.38679 0.6804 0.0
H1318 H 0.91672 0.45358 0.66856 0.0
H1319 H 0.9012 0.42461 0.67053 0.0
C1320 C 0.66998 0.58732 0.47903 0.0
C1321 C 0.66486 0.57385 0.45891 0.0
C1322 C 0.6615 0.60449 0.4801 0.0
C1323 C 0.63312 0.63507 0.43537 0.0
H1324 H 0.62139 0.65819 0.50851 0.0
C1325 C 0.60599 0.70855 0.439 0.0
C1326 C 0.59318 0.71325 0.45929 0.0
C1327 C 0.61414 0.69146 0.43986 0.0
C1328 C 0.62441 0.65183 0.4879 0.0
H1329 H 0.64696 0.56821 0.42384 0.0
H1330 H 0.6325 0.59754 0.42571 0.0
H1331 H 0.63767 0.62929 0.50842 0.0
H1332 H 0.57883 0.70323 0.49643 0.0
H1333 H 0.59304 0.67294 0.49778 0.0
H1334 H 0.61971 0.65718 0.41475 0.0
C1335 C 0.64306 0.59516 0.44058 0.0
C1336 C 0.63399 0.63536 0.48783 0.0
C1337 C 0.65139 0.57817 0.43961 0.0
C1338 C 0.58849 0.70004 0.48027 0.0
C1339 C 0.59681 0.68277 0.48124 0.0
C1340 C 0.62362 0.65141 0.43544 0.0
C1341 C 0.64785 0.60862 0.46088 0.0
C1342 C 0.63844 0.62669 0.46151 0.0
C1343 C 0.60984 0.67828 0.46105 0.0
C1344 C 0.61915 0.66015 0.46164 0.0
H1345 H 0.68017 0.58444 0.49441 0.0
H1346 H 0.66566 0.61454 0.49591 0.0
H1347 H 0.63639 0.62904 0.41461 0.0
H1348 H 0.61006 0.71831 0.42254 0.0
H1349 H 0.62423 0.68879 0.4242 0.0
C1350 C 0.15058 0.07822 0.43903 0.0
C1351 C 0.16449 0.07428 0.45766 0.0
C1352 C 0.14188 0.095 0.44033 0.0
C1353 C 0.1331 0.13548 0.48762 0.0
H1354 H 0.11621 0.15608 0.41528 0.0
C1355 C 0.08674 0.19963 0.48254 0.0
C1356 C 0.09043 0.21254 0.46054 0.0
C1357 C 0.09522 0.18243 0.48321 0.0
C1358 C 0.12085 0.15068 0.43578 0.0
H1359 H 0.18013 0.08539 0.49234 0.0
H1360 H 0.16502 0.11513 0.49432 0.0
H1361 H 0.13339 0.12834 0.41449 0.0
H1362 H 0.10568 0.2171 0.42166 0.0
H1363 H 0.12014 0.18775 0.42282 0.0
H1364 H 0.12078 0.15834 0.5087 0.0
C1365 C 0.16078 0.10493 0.4788 0.0
C1366 C 0.13064 0.13452 0.43535 0.0
C1367 C 0.16961 0.08796 0.47745 0.0
C1368 C 0.10237 0.20757 0.43893 0.0
C1369 C 0.11069 0.19056 0.43951 0.0
C1370 C 0.12325 0.15177 0.48804 0.0
C1371 C 0.14671 0.10867 0.46026 0.0
C1372 C 0.13691 0.12655 0.46121 0.0
C1373 C 0.10744 0.1777 0.46173 0.0
C1374 C 0.11704 0.15969 0.46205 0.0
H1375 H 0.14609 0.06811 0.42357 0.0
H1376 H 0.13099 0.09703 0.42601 0.0
H1377 H 0.1375 0.12974 0.50804 0.0
H1378 H 0.07779 0.20305 0.49973 0.0
H1379 H 0.09225 0.17287 0.50058 0.0
C1380 C 0.66731 0.20209 0.3249 0.0
C1381 C 0.6705 0.21079 0.35159 0.0
C1382 C 0.65775 0.18562 0.32382 0.0
C1383 C 0.62656 0.15853 0.3699 0.0
H1384 H 0.63186 0.12132 0.31053 0.0
C1385 C 0.59722 0.08566 0.3796 0.0
C1386 C 0.58934 0.07778 0.3551 0.0
C1387 C 0.60582 0.10253 0.37765 0.0
C1388 C 0.63009 0.1317 0.32707 0.0
H1389 H 0.66694 0.20858 0.39808 0.0
H1390 H 0.6515 0.17957 0.39657 0.0
H1391 H 0.6507 0.14828 0.31034 0.0
H1392 H 0.58434 0.08159 0.30921 0.0
H1393 H 0.59969 0.11115 0.30561 0.0
H1394 H 0.60637 0.14163 0.38716 0.0
C1395 C 0.65559 0.18562 0.37619 0.0
C1396 C 0.64092 0.14724 0.327 0.0
C1397 C 0.6648 0.20215 0.37718 0.0
C1398 C 0.58998 0.08746 0.3286 0.0
C1399 C 0.59897 0.10426 0.32647 0.0
C1400 C 0.61596 0.14294 0.3702 0.0
C1401 C 0.65127 0.17738 0.34946 0.0
C1402 C 0.6395 0.16085 0.34867 0.0
C1403 C 0.60718 0.11191 0.35096 0.0
C1404 C 0.61764 0.12921 0.34898 0.0
H1405 H 0.67117 0.20864 0.30475 0.0
H1406 H 0.65472 0.17992 0.30274 0.0
H1407 H 0.62448 0.16883 0.38644 0.0
H1408 H 0.59718 0.07844 0.40024 0.0
H1409 H 0.61206 0.10788 0.3969 0.0
C1410 C 0.16219 0.70319 0.38138 0.0
C1411 C 0.16928 0.71122 0.35629 0.0
C1412 C 0.15302 0.68664 0.37998 0.0
C1413 C 0.14103 0.64711 0.33078 0.0
H1414 H 0.10433 0.64169 0.38721 0.0
C1415 C 0.09046 0.58687 0.32892 0.0
C1416 C 0.08935 0.57721 0.35541 0.0
C1417 C 0.09934 0.60375 0.32726 0.0
C1418 C 0.11452 0.64296 0.37128 0.0
H1419 H 0.17244 0.70795 0.3099 0.0
H1420 H 0.15596 0.67928 0.30706 0.0
H1421 H 0.12195 0.66924 0.38742 0.0
H1422 H 0.09625 0.57799 0.40096 0.0
H1423 H 0.11086 0.60766 0.39842 0.0
H1424 H 0.13297 0.62082 0.31428 0.0
C1425 C 0.15787 0.68546 0.32817 0.0
C1426 C 0.12486 0.65876 0.37155 0.0
C1427 C 0.16743 0.70192 0.32973 0.0
C1428 C 0.09666 0.58519 0.38032 0.0
C1429 C 0.1051 0.60219 0.37883 0.0
C1430 C 0.13043 0.6314 0.33021 0.0
C1431 C 0.1501 0.67775 0.35322 0.0
C1432 C 0.13857 0.66102 0.35171 0.0
C1433 C 0.10693 0.61154 0.3522 0.0
C1434 C 0.1172 0.62898 0.35078 0.0
H1435 H 0.16336 0.71002 0.40218 0.0
H1436 H 0.14795 0.68105 0.40004 0.0
H1437 H 0.15142 0.64806 0.31522 0.0
H1438 H 0.08528 0.5809 0.30923 0.0
H1439 H 0.10045 0.61062 0.30643 0.0
C1440 C 0.30735 1.01725 0.21206 0.0
C1441 C 0.30205 1.00928 0.18563 0.0
C1442 C 0.29589 0.01864 0.236 0.0
C1443 C 0.24816 1.01637 0.25439 0.0
H1444 H 0.26426 1.014 0.33387 0.0
C1445 C 0.20048 1.01384 0.35465 0.0
C1446 C 0.20564 0.02252 0.38059 0.0
C1447 C 0.21189 1.0123 0.33066 0.0
C1448 C 0.25942 1.01493 0.31186 0.0
H1449 H 0.28036 0.99606 0.16467 0.0
H1450 H 0.26098 0.99802 0.20574 0.0
H1451 H 0.28474 1.01132 0.29404 0.0
H1452 H 0.2271 0.03676 0.40063 0.0
H1453 H 0.24643 0.03437 0.35955 0.0
H1454 H 0.22282 0.01991 0.27226 0.0
C1455 C 0.27375 1.00371 0.20812 0.0
C1456 C 0.27132 1.01338 0.28876 0.0
C1457 C 0.28509 1.0024 0.18438 0.0
C1458 C 0.22245 0.02989 0.38132 0.0
C1459 C 0.23376 0.02834 0.35759 0.0
C1460 C 0.23625 0.01787 0.27749 0.0
C1461 C 0.27873 1.01211 0.23438 0.0
C1462 C 0.26598 1.01405 0.25946 0.0
C1463 C 0.22889 0.01931 0.33183 0.0
C1464 C 0.24161 1.01724 0.30677 0.0
H1465 H 0.32018 0.02289 0.21401 0.0
H1466 H 0.30041 0.02532 0.25554 0.0
H1467 H 0.2433 1.01736 0.23241 0.0
H1468 H 0.18778 1.00782 0.3531 0.0
H1469 H 0.2075 1.00514 0.31147 0.0
C1470 C 0.03321 0.25968 0.3851 0.0
C1471 C 0.05071 0.26483 0.38397 0.0
C1472 C 0.02249 0.2607 0.36046 0.0
C1473 C 0.01884 0.282 0.28557 0.0
H1474 H 0.98135 0.24733 0.27734 0.0
C1475 C 0.9766 0.27924 0.17998 0.0
C1476 C 0.95904 0.27444 0.18182 0.0
C1477 C 0.98755 0.27836 0.20438 0.0
C1478 C 0.99157 0.25735 0.27929 0.0
H1479 H 0.0704 0.27509 0.35491 0.0
H1480 H 0.05184 0.27661 0.31177 0.0
H1481 H 1.00086 0.2448 0.31852 0.0
H1482 H 0.93947 0.26495 0.21178 0.0
H1483 H 0.95843 0.26355 0.25436 0.0
H1484 H 0.00955 0.29449 0.2462 0.0
C1485 C 0.0463 0.27195 0.33206 0.0
C1486 C 1.00291 0.25589 0.30318 0.0
C1487 C 0.05709 0.27092 0.35689 0.0
C1488 C 0.95283 0.26885 0.20927 0.0
C1489 C 0.96384 0.26788 0.23378 0.0
C1490 C 0.0075 0.28344 0.26162 0.0
C1491 C 0.02871 0.2669 0.33333 0.0
C1492 C 0.0168 0.26822 0.30698 0.0
C1493 C 0.98149 0.27255 0.23184 0.0
C1494 C 0.99358 0.27116 0.25793 0.0
H1495 H 0.02757 0.25503 0.40537 0.0
H1496 H 0.00911 0.25697 0.36304 0.0
H1497 H 0.02905 0.29204 0.28752 0.0
H1498 H 0.98206 0.28352 0.15938 0.0
H1499 H 1.00096 0.28184 0.20141 0.0
C1500 C 0.2019 0.26844 0.96193 0.0
C1501 C 0.20759 0.26157 0.93498 0.0
C1502 C 0.2132 0.26963 0.98604 0.0
C1503 C 0.25667 0.25299 1.01361 0.0
H1504 H 0.25244 0.2937 0.06702 0.0
C1505 C 0.3083 0.26688 0.10499 0.0
C1506 C 0.30226 0.27321 0.13206 0.0
C1507 C 0.29718 0.26572 0.0806 0.0
C1508 C 0.25381 0.28208 0.0526 0.0
H1509 H 0.22996 0.25045 0.913 0.0
H1510 H 0.24929 0.25263 0.95412 0.0
H1511 H 0.23207 0.29062 1.02712 0.0
H1512 H 0.27948 0.2835 0.15391 0.0
H1513 H 0.26053 0.28148 0.1123 0.0
H1514 H 0.27845 0.24449 0.0391 0.0
C1515 C 0.23608 0.25687 0.95716 0.0
C1516 C 0.24197 0.28028 1.02951 0.0
C1517 C 0.22487 0.2557 0.93325 0.0
C1518 C 0.28484 0.27863 0.13361 0.0
C1519 C 0.27384 0.27756 0.10942 0.0
C1520 C 0.26854 0.25481 0.03668 0.0
C1521 C 0.2306 0.26397 0.98409 0.0
C1522 C 0.24311 0.26569 1.00947 0.0
C1523 C 0.27967 0.27097 0.08239 0.0
C1524 C 0.26734 0.26936 0.05677 0.0
H1525 H 0.18879 0.27321 0.96429 0.0
H1526 H 0.20823 0.27499 1.00629 0.0
H1527 H 0.25804 0.24134 0.99924 0.0
H1528 H 0.32153 0.26246 0.10277 0.0
H1529 H 0.30237 0.26073 0.06028 0.0
C1530 C 0.95125 0.01839 0.10545 0.0
C1531 C 0.95729 1.01155 0.13228 0.0
C1532 C 0.96234 0.01992 0.08106 0.0
C1533 C 0.00978 0.02094 0.06128 0.0
H1534 H 0.9933 1.01356 0.98284 0.0
C1535 C 0.05682 0.01837 0.96051 0.0
C1536 C 0.0508 0.02505 0.93356 0.0
C1537 C 0.04569 1.01693 0.98486 0.0
C1538 C 0.99822 1.01593 1.00451 0.0
H1539 H 0.97998 1.00055 0.15357 0.0
H1540 H 0.99881 1.00285 0.11178 0.0
H1541 H 0.97342 1.01085 1.02356 0.0
H1542 H 0.02811 0.03587 0.91202 0.0
H1543 H 0.00923 0.03375 0.95378 0.0
H1544 H 0.03457 0.02603 0.04224 0.0
C1545 C 0.98567 1.00749 0.10939 0.0
C1546 C 0.98667 1.01436 1.0281 0.0
C1547 C 0.97467 1.00598 0.13356 0.0
C1548 C 0.03341 0.03056 0.93214 0.0
C1549 C 0.02238 0.02916 0.95629 0.0
C1550 C 0.02133 0.02252 0.03769 0.0
C1551 C 0.97988 1.01471 0.08267 0.0
C1552 C 0.99218 1.01678 0.05704 0.0
C1553 C 0.02815 0.02209 0.98313 0.0
C1554 C 0.01582 0.02009 1.00874 0.0
H1555 H 0.93806 0.02298 0.10345 0.0
H1556 H 0.95723 0.02567 0.06113 0.0
H1557 H 0.01469 0.0233 0.08295 0.0
H1558 H 0.07001 1.01383 0.96262 0.0
H1559 H 0.0508 1.01129 1.00487 0.0
C1560 C 0.70137 1.01365 0.85595 0.0
C1561 C 0.70673 0.02216 0.88192 0.0
C1562 C 0.71254 1.01244 0.83156 0.0
C1563 C 0.75422 0.03202 0.80065 0.0
H1564 H 0.7536 0.98864 0.75229 0.0
C1565 C 0.80708 0.01955 0.71071 0.0
C1566 C 0.80204 1.0108 0.68475 0.0
C1567 C 0.79573 0.02074 0.73482 0.0
C1568 C 0.75395 1.00102 0.76522 0.0
H1569 H 0.72834 0.03626 0.90169 0.0
H1570 H 0.74735 0.03415 0.86018 0.0
H1571 H 0.73305 0.99155 0.79201 0.0
H1572 H 0.78075 0.9963 0.6647 0.0
H1573 H 0.76138 0.99843 0.7058 0.0
H1574 H 0.77509 0.04151 0.77389 0.0
C1575 C 0.73453 0.02854 0.8581 0.0
C1576 C 0.74199 1.0027 0.78825 0.0
C1577 C 0.72349 0.02966 0.88228 0.0
C1578 C 0.78537 1.00307 0.68412 0.0
C1579 C 0.77413 1.00421 0.70806 0.0
C1580 C 0.76617 0.03034 0.77763 0.0
C1581 C 0.72943 0.0198 0.83219 0.0
C1582 C 0.74187 0.01822 0.80658 0.0
C1583 C 0.77893 1.01317 0.73395 0.0
C1584 C 0.76633 1.0148 0.75934 0.0
H1585 H 0.6887 1.00755 0.85463 0.0
H1586 H 0.70787 1.00573 0.81215 0.0
H1587 H 0.75458 0.0444 0.8136 0.0
H1588 H 0.81968 0.0258 0.71223 0.0
H1589 H 0.80021 0.02759 0.75424 0.0
C1590 C 0.03387 0.75755 0.88725 0.0
C1591 C 0.05119 0.76336 0.88593 0.0
C1592 C 0.023 0.75827 0.86278 0.0
C1593 C 0.01815 0.78011 0.78862 0.0
H1594 H 0.9821 0.74379 0.77955 0.0
C1595 C 0.97636 0.77677 0.683 0.0
C1596 C 0.95904 0.77095 0.68418 0.0
C1597 C 0.98717 0.77606 0.70755 0.0
C1598 C 0.99189 0.75427 0.78175 0.0
H1599 H 0.0704 0.77448 0.85672 0.0
H1600 H 0.05155 0.77556 0.81388 0.0
H1601 H 1.00183 0.7417 0.82056 0.0
H1602 H 0.93976 0.75982 0.71324 0.0
H1603 H 0.9585 0.75877 0.75625 0.0
H1604 H 0.00821 0.79268 0.74983 0.0
C1605 C 0.04628 0.77057 0.8342 0.0
C1606 C 1.00337 0.75305 0.80553 0.0
C1607 C 0.05724 0.76979 0.85884 0.0
C1608 C 0.95292 0.76452 0.71123 0.0
C1609 C 0.96382 0.76376 0.73597 0.0
C1610 C 0.00667 0.78132 0.76485 0.0
C1611 C 0.02887 0.76487 0.83567 0.0
C1612 C 0.01677 0.76595 0.80955 0.0
C1613 C 0.98123 0.76948 0.73462 0.0
C1614 C 0.99328 0.76841 0.76081 0.0
H1615 H 0.0285 0.75259 0.90753 0.0
H1616 H 0.00976 0.75402 0.86547 0.0
H1617 H 0.02794 0.79058 0.79082 0.0
H1618 H 0.9818 0.78173 0.66277 0.0
H1619 H 1.00041 0.78032 0.70494 0.0
C1620 C 0.70227 0.76698 0.96165 0.0
C1621 C 0.70876 0.76128 0.93452 0.0
C1622 C 0.71309 0.7682 0.98637 0.0
C1623 C 0.75671 0.75315 1.01502 0.0
H1624 H 0.7499 0.79212 0.07091 0.0
C1625 C 0.80687 0.76721 0.108 0.0
C1626 C 0.80068 0.77296 0.13531 0.0
C1627 C 0.79581 0.76601 0.08362 0.0
C1628 C 0.75199 0.78097 0.05581 0.0
H1629 H 0.73207 0.75235 0.91283 0.0
H1630 H 0.75059 0.75452 0.95508 0.0
H1631 H 0.73028 0.78912 1.02988 0.0
H1632 H 0.77767 0.78207 0.15767 0.0
H1633 H 0.75868 0.77992 0.11587 0.0
H1634 H 0.7784 0.74499 0.04091 0.0
C1635 C 0.73712 0.75784 0.95773 0.0
C1636 C 0.74059 0.77922 1.03205 0.0
C1637 C 0.72638 0.75667 0.93318 0.0
C1638 C 0.78311 0.77768 0.13716 0.0
C1639 C 0.77211 0.77653 0.11289 0.0
C1640 C 0.7681 0.7549 0.03875 0.0
C1641 C 0.73079 0.76371 0.98489 0.0
C1642 C 0.74272 0.7653 1.01105 0.0
C1643 C 0.77815 0.77055 0.08559 0.0
C1644 C 0.76602 0.76885 0.0597 0.0
H1645 H 0.68886 0.77076 0.96374 0.0
H1646 H 0.7075 0.7726 1.00674 0.0
H1647 H 0.7588 0.74199 0.99994 0.0
H1648 H 0.82024 0.76338 0.10551 0.0
H1649 H 0.8012 0.76158 0.06312 0.0
C1650 C 0.22366 0.52919 0.88314 0.0
C1651 C 0.20671 0.52221 0.88252 0.0
C1652 C 0.23475 0.52777 0.85904 0.0
C1653 C 0.24134 0.50206 0.7886 0.0
H1654 H 0.27601 0.53938 0.77505 0.0
C1655 C 0.28392 0.50203 0.68364 0.0
C1656 C 0.30099 0.50867 0.68436 0.0
C1657 C 0.27291 0.50335 0.70786 0.0
C1658 C 0.26662 0.52862 0.77857 0.0
H1659 H 0.1884 0.50825 0.85492 0.0
H1660 H 0.20759 0.50601 0.81264 0.0
H1661 H 0.25575 0.5428 0.81506 0.0
H1662 H 0.3196 0.52193 0.71225 0.0
H1663 H 0.3005 0.52409 0.75471 0.0
H1664 H 0.25218 0.48792 0.75203 0.0
C1665 C 0.21242 0.51247 0.83215 0.0
C1666 C 0.25483 0.5306 0.80177 0.0
C1667 C 0.20123 0.51393 0.85644 0.0
C1668 C 0.30667 0.51651 0.71066 0.0
C1669 C 0.29555 0.51793 0.73504 0.0
C1670 C 0.25311 0.50009 0.76538 0.0
C1671 C 0.2295 0.51928 0.83299 0.0
C1672 C 0.24191 0.51735 0.80739 0.0
C1673 C 0.27836 0.51145 0.7341 0.0
C1674 C 0.26602 0.51334 0.75977 0.0
H1675 H 0.22861 0.53556 0.90267 0.0
H1676 H 0.24772 0.53296 0.86129 0.0
H1677 H 0.23196 0.49128 0.79211 0.0
H1678 H 0.27883 0.49599 0.66396 0.0
H1679 H 0.25986 0.49842 0.70558 0.0
C1680 C 0.20482 0.76851 0.46178 0.0
C1681 C 0.21033 0.7614 0.43487 0.0
C1682 C 0.21616 0.76949 0.48585 0.0
C1683 C 0.25888 0.75153 0.51414 0.0
H1684 H 0.25617 0.79328 0.56579 0.0
C1685 C 0.31023 0.76387 0.60673 0.0
C1686 C 0.30428 0.7713 0.63316 0.0
C1687 C 0.29933 0.76289 0.58201 0.0
C1688 C 0.2571 0.78134 0.55192 0.0
H1689 H 0.23237 0.74955 0.41294 0.0
H1690 H 0.25178 0.75124 0.45417 0.0
H1691 H 0.23589 0.79054 0.52576 0.0
H1692 H 0.28193 0.78369 0.65347 0.0
H1693 H 0.26337 0.78188 0.61146 0.0
H1694 H 0.28007 0.7423 0.54041 0.0
C1695 C 0.23869 0.75593 0.45709 0.0
C1696 C 0.24531 0.77976 0.52873 0.0
C1697 C 0.22745 0.75503 0.43315 0.0
C1698 C 0.28722 0.77795 0.63371 0.0
C1699 C 0.27645 0.77701 0.60924 0.0
C1700 C 0.27066 0.75309 0.5374 0.0
C1701 C 0.23339 0.76331 0.48394 0.0
C1702 C 0.2459 0.76481 0.50932 0.0
C1703 C 0.28214 0.76937 0.58284 0.0
C1704 C 0.26999 0.768 0.55692 0.0
H1705 H 0.19184 0.77366 0.46413 0.0
H1706 H 0.21135 0.77508 0.50604 0.0
H1707 H 0.2598 0.73963 0.50018 0.0
H1708 H 0.32316 0.75847 0.60529 0.0
H1709 H 0.30444 0.75704 0.56221 0.0
C1710 C 0.03217 0.52957 0.43303 0.0
C1711 C 0.04978 0.52492 0.43439 0.0
C1712 C 0.02132 0.52789 0.45742 0.0
C1713 C 0.01772 0.5049 0.53085 0.0
H1714 H 0.97965 0.53861 0.54096 0.0
C1715 C 0.97559 0.50428 0.63628 0.0
C1716 C 0.95797 0.50886 0.63488 0.0
C1717 C 0.98644 0.50594 0.61189 0.0
C1718 C 0.99003 0.52885 0.53844 0.0
H1719 H 0.06955 0.51488 0.46347 0.0
H1720 H 0.05076 0.51217 0.50614 0.0
H1721 H 0.99924 0.54256 0.50009 0.0
H1722 H 0.93817 0.51877 0.60572 0.0
H1723 H 0.95698 0.52146 0.56306 0.0
H1724 H 0.00852 0.4912 0.56922 0.0
C1725 C 0.04524 0.51697 0.4859 0.0
C1726 C 1.00141 0.53114 0.51476 0.0
C1727 C 0.05616 0.5187 0.46137 0.0
C1728 C 0.95158 0.515 0.60785 0.0
C1729 C 0.9625 0.51672 0.58333 0.0
C1730 C 0.00634 0.50261 0.55453 0.0
C1731 C 0.02754 0.52144 0.4844 0.0
C1732 C 0.01552 0.51921 0.51038 0.0
C1733 C 0.98022 0.51231 0.58488 0.0
C1734 C 0.99223 0.51454 0.5589 0.0
H1735 H 0.02657 0.53428 0.41278 0.0
H1736 H 0.00786 0.53123 0.45476 0.0
H1737 H 0.0281 0.49513 0.52833 0.0
H1738 H 0.98119 0.49961 0.65655 0.0
H1739 H 0.99991 0.50263 0.61457 0.0
C1740 C 0.80476 0.51631 0.20996 0.0
C1741 C 0.79894 0.50957 0.183 0.0
C1742 C 0.79353 0.51757 0.23416 0.0
C1743 C 0.74596 0.51749 0.25359 0.0
H1744 H 0.7627 0.5114 0.33223 0.0
C1745 C 0.69935 0.51459 0.35516 0.0
C1746 C 0.70523 0.52219 0.38151 0.0
C1747 C 0.7104 0.5131 0.33071 0.0
C1748 C 0.7577 0.51338 0.31049 0.0
H1749 H 0.7765 0.49846 0.16124 0.0
H1750 H 0.75741 0.50022 0.20283 0.0
H1751 H 0.78258 0.50877 0.29156 0.0
H1752 H 0.7276 0.53451 0.40188 0.0
H1753 H 0.74635 0.53218 0.36 0.0
H1754 H 0.72106 0.52202 0.27261 0.0
C1755 C 0.77049 0.50502 0.20544 0.0
C1756 C 0.76925 0.51187 0.28691 0.0
C1757 C 0.78163 0.50382 0.18139 0.0
C1758 C 0.7224 0.5285 0.38225 0.0
C1759 C 0.73336 0.52699 0.35804 0.0
C1760 C 0.7344 0.51895 0.27719 0.0
C1761 C 0.77607 0.51213 0.23232 0.0
C1762 C 0.76367 0.5139 0.25789 0.0
C1763 C 0.72774 0.51905 0.33181 0.0
C1764 C 0.74002 0.51701 0.30619 0.0
H1765 H 0.81789 0.52104 0.2122 0.0
H1766 H 0.79851 0.52329 0.25415 0.0
H1767 H 0.74095 0.51953 0.23188 0.0
H1768 H 0.68633 0.50942 0.35359 0.0
H1769 H 0.70543 0.5068 0.31116 0.0
C1770 C 0.72645 0.25708 0.42895 0.0
C1771 C 0.70902 0.26241 0.43065 0.0
C1772 C 0.73746 0.258 0.45321 0.0
C1773 C 0.74225 0.27996 0.52688 0.0
H1774 H 0.77889 0.24435 0.53631 0.0
C1775 C 0.78394 0.27744 0.63236 0.0
C1776 C 0.80134 0.27196 0.63131 0.0
C1777 C 0.77321 0.27655 0.60778 0.0
C1778 C 0.76893 0.25463 0.53397 0.0
H1779 H 0.68973 0.27282 0.46023 0.0
H1780 H 0.70882 0.27425 0.50268 0.0
H1781 H 0.75908 0.24177 0.49546 0.0
H1782 H 0.8209 0.26126 0.6025 0.0
H1783 H 0.80228 0.25992 0.55935 0.0
H1784 H 0.75209 0.29285 0.56531 0.0
C1785 C 0.71407 0.26949 0.48225 0.0
C1786 C 0.75742 0.25313 0.51032 0.0
C1787 C 0.70298 0.26852 0.45785 0.0
C1788 C 0.80767 0.26572 0.60436 0.0
C1789 C 0.79684 0.26479 0.57957 0.0
C1790 C 0.75376 0.28147 0.55049 0.0
C1791 C 0.73159 0.26433 0.4804 0.0
C1792 C 0.74379 0.26575 0.50625 0.0
C1793 C 0.77933 0.27013 0.58082 0.0
C1794 C 0.76734 0.26881 0.55467 0.0
H1795 H 0.73179 0.25239 0.40854 0.0
H1796 H 0.75078 0.25413 0.4503 0.0
H1797 H 0.73228 0.29023 0.52456 0.0
H1798 H 0.77836 0.28222 0.65254 0.0
H1799 H 0.75989 0.28051 0.61029 0.0
C1800 C 0.53649 0.25534 0.88027 0.0
C1801 C 0.55315 0.26309 0.87961 0.0
C1802 C 0.5253 0.25647 0.85634 0.0
C1803 C 0.51738 0.28238 0.78641 0.0
H1804 H 0.48396 0.2437 0.77361 0.0
C1805 C 0.47392 0.28069 0.68274 0.0
C1806 C 0.45699 0.27372 0.68423 0.0
C1807 C 0.48519 0.2798 0.70662 0.0
C1808 C 0.493 0.25481 0.77696 0.0
H1809 H 0.57087 0.27807 0.85208 0.0
H1810 H 0.55147 0.27977 0.8099 0.0
H1811 H 0.50482 0.24079 0.81281 0.0
H1812 H 0.43886 0.26037 0.71308 0.0
H1813 H 0.4585 0.25887 0.75497 0.0
H1814 H 0.5056 0.29629 0.7503 0.0
C1815 C 0.54697 0.27294 0.8294 0.0
C1816 C 0.50512 0.25315 0.79967 0.0
C1817 C 0.55827 0.2718 0.85359 0.0
C1818 C 0.45168 0.26602 0.71093 0.0
C1819 C 0.46309 0.265 0.73496 0.0
C1820 C 0.50529 0.28401 0.76361 0.0
C1821 C 0.53017 0.26537 0.83036 0.0
C1822 C 0.51757 0.26692 0.80503 0.0
C1823 C 0.48015 0.27179 0.7332 0.0
C1824 C 0.49281 0.27027 0.75838 0.0
H1825 H 0.53181 0.24859 0.89975 0.0
H1826 H 0.51255 0.25072 0.8587 0.0
H1827 H 0.52638 0.29351 0.78975 0.0
H1828 H 0.47869 0.28667 0.66271 0.0
H1829 H 0.49813 0.28498 0.70381 0.0
C1830 C 0.44823 1.01609 0.60376 0.0
C1831 C 0.45443 1.00941 0.63059 0.0
C1832 C 0.45928 0.01792 0.57934 0.0
C1833 C 0.5067 0.0204 0.55976 0.0
H1834 H 0.49074 1.01256 0.48113 0.0
C1835 C 0.5545 0.01902 0.46025 0.0
C1836 C 0.54865 0.02537 0.433 0.0
C1837 C 0.54313 1.01731 0.48422 0.0
C1838 C 0.49551 1.01507 0.50285 0.0
H1839 H 0.47738 0.999 0.65183 0.0
H1840 H 0.49614 1.00183 0.61003 0.0
H1841 H 0.47076 1.0093 0.52167 0.0
H1842 H 0.52593 0.03518 0.41042 0.0
H1843 H 0.50656 0.03261 0.45163 0.0
H1844 H 0.53143 0.02621 0.54103 0.0
C1845 C 0.48289 1.00611 0.60764 0.0
C1846 C 0.4839 1.01317 0.52634 0.0
C1847 C 0.47193 1.00429 0.63182 0.0
C1848 C 0.5311 0.0302 0.43084 0.0
C1849 C 0.51981 0.02852 0.45466 0.0
C1850 C 0.5183 0.02232 0.5363 0.0
C1851 C 0.47695 1.01321 0.58093 0.0
C1852 C 0.48925 1.0157 0.55536 0.0
C1853 C 0.52547 0.02187 0.48186 0.0
C1854 C 0.51299 0.01969 0.50727 0.0
H1855 H 0.43494 0.02034 0.60178 0.0
H1856 H 0.45404 0.02354 0.55942 0.0
H1857 H 0.51148 0.0229 0.58148 0.0
H1858 H 0.5678 1.01499 0.46295 0.0
H1859 H 0.54818 1.01197 0.50447 0.0
C1860 C 0.45534 0.76903 0.20956 0.0
C1861 C 0.4611 0.77445 0.18177 0.0
C1862 C 0.46673 0.76829 0.23353 0.0
C1863 C 0.51432 0.76738 0.25231 0.0
H1864 H 0.49786 0.77703 0.33017 0.0
C1865 C 0.56072 0.77173 0.35409 0.0
C1866 C 0.55446 0.76498 0.38085 0.0
C1867 C 0.54987 0.77297 0.32937 0.0
C1868 C 0.50276 0.77406 0.30867 0.0
H1869 H 0.48365 0.78366 0.15812 0.0
H1870 H 0.50313 0.7828 0.19945 0.0
H1871 H 0.47811 0.7791 0.2893 0.0
H1872 H 0.53164 0.7539 0.4017 0.0
H1873 H 0.5132 0.75585 0.35939 0.0
H1874 H 0.53904 0.76246 0.27185 0.0
C1875 C 0.48992 0.77869 0.20289 0.0
C1876 C 0.49129 0.77523 0.28498 0.0
C1877 C 0.47859 0.77937 0.179 0.0
C1878 C 0.53712 0.75926 0.38176 0.0
C1879 C 0.52635 0.76054 0.3573 0.0
C1880 C 0.52582 0.76627 0.27604 0.0
C1881 C 0.48432 0.77297 0.23067 0.0
C1882 C 0.49676 0.77184 0.25624 0.0
C1883 C 0.53236 0.76763 0.33064 0.0
C1884 C 0.52026 0.76946 0.30477 0.0
H1885 H 0.44207 0.76498 0.21271 0.0
H1886 H 0.46174 0.76359 0.25422 0.0
H1887 H 0.51922 0.76433 0.23084 0.0
H1888 H 0.5739 0.7764 0.35237 0.0
H1889 H 0.55511 0.77859 0.30944 0.0
C1890 C 0.47789 0.50411 0.13933 0.0
C1891 C 0.46033 0.50878 0.137 0.0
C1892 C 0.48911 0.50537 0.11531 0.0
C1893 C 0.49006 0.51022 1.03332 0.0
H1894 H 0.53767 0.52361 0.04634 0.0
C1895 C 0.53543 0.52797 0.93638 0.0
C1896 C 0.55289 0.52266 0.93716 0.0
C1897 C 0.5247 0.52626 0.96087 0.0
C1898 C 0.52449 0.51964 0.04215 0.0
H1899 H 0.44105 0.51847 0.10668 0.0
H1900 H 0.46049 0.52086 0.065 0.0
H1901 H 0.51807 0.52072 0.08751 0.0
H1902 H 0.57255 0.51149 0.96543 0.0
H1903 H 0.55386 0.50854 1.00832 0.0
H1904 H 0.49645 0.50924 0.98798 0.0
C1905 C 0.46564 0.51589 0.08542 0.0
C1906 C 0.51311 0.51795 0.06599 0.0
C1907 C 0.45438 0.51458 0.10951 0.0
C1908 C 0.55928 0.51588 0.96381 0.0
C1909 C 0.54848 0.5142 0.98852 0.0
C1910 C 0.50141 0.51197 1.00952 0.0
C1911 C 0.48331 0.51146 0.08784 0.0
C1912 C 0.49561 0.51323 0.06213 0.0
C1913 C 0.53087 0.51913 0.98742 0.0
C1914 C 0.51886 0.5168 1.01335 0.0
H1915 H 0.4831 0.49956 0.15996 0.0
H1916 H 0.50239 0.50143 0.11841 0.0
H1917 H 0.47691 0.5062 1.02902 0.0
H1918 H 0.52985 0.53331 0.91651 0.0
H1919 H 0.51146 0.53065 0.95889 0.0
C1920 C 0.33876 1.0141 1.0005 0.0
C1921 C 0.34917 1.01407 1.02563 0.0
C1922 C 0.34597 1.01418 0.97238 0.0
C1923 C 0.38715 0.02336 0.9311 0.0
H1924 H 0.36371 0.99748 0.86921 0.0
C1925 C 0.4187 1.01384 0.81643 0.0
C1926 C 0.40824 1.01367 0.79136 0.0
C1927 C 0.41154 1.01407 0.8446 0.0
C1928 C 0.3704 1.00503 0.88599 0.0
H1929 H 0.37565 1.01413 0.04009 0.0
H1930 H 0.38824 1.01413 0.99127 0.0
H1931 H 0.35165 0.9974 0.91807 0.0
H1932 H 0.38172 1.01364 0.77706 0.0
H1933 H 0.36924 1.01425 0.82591 0.0
H1934 H 0.40591 0.03097 0.89901 0.0
C1935 C 0.37438 1.01432 0.99325 0.0
C1936 C 0.36342 1.00498 0.91433 0.0
C1937 C 0.36713 1.01422 1.02148 0.0
C1938 C 0.39028 1.01376 0.79561 0.0
C1939 C 0.38309 1.01398 0.82387 0.0
C1940 C 0.39413 0.0234 0.90275 0.0
C1941 C 0.36394 1.01423 0.96805 0.0
C1942 C 0.37161 1.01416 0.93755 0.0
C1943 C 0.39357 1.01413 0.84901 0.0
C1944 C 0.38593 1.01424 0.87953 0.0
H1945 H 0.32489 1.01403 1.00249 0.0
H1946 H 0.33733 1.01444 0.95395 0.0
H1947 H 0.39385 0.03089 0.94789 0.0
H1948 H 0.43256 1.01367 0.81436 0.0
H1949 H 0.42021 1.01387 0.86299 0.0
C1950 C 0.91586 0.26612 1.00214 0.0
C1951 C 0.90558 0.2668 1.02741 0.0
C1952 C 0.90859 0.26568 0.97411 0.0
C1953 C 0.86728 0.25699 0.93302 0.0
H1954 H 0.89181 0.28099 0.87016 0.0
C1955 C 0.83693 0.2654 0.81688 0.0
C1956 C 0.84758 0.26492 0.79204 0.0
C1957 C 0.84383 0.26532 0.84525 0.0
C1958 C 0.8848 0.27395 0.8872 0.0
H1959 H 0.87916 0.26741 0.04213 0.0
H1960 H 0.8664 0.26679 0.99329 0.0
H1961 H 0.90348 0.28169 0.9192 0.0
H1962 H 0.8742 0.26391 0.77842 0.0
H1963 H 0.88625 0.2636 0.82763 0.0
H1964 H 0.84855 0.24933 0.90093 0.0
C1965 C 0.88026 0.2664 0.9952 0.0
C1966 C 0.89156 0.27435 0.91569 0.0
C1967 C 0.88759 0.26683 1.02343 0.0
C1968 C 0.86549 0.26428 0.79676 0.0
C1969 C 0.87243 0.26425 0.82523 0.0
C1970 C 0.86049 0.25661 0.90449 0.0
C1971 C 0.89063 0.26595 0.96987 0.0
C1972 C 0.88301 0.26582 0.93928 0.0
C1973 C 0.86174 0.26481 0.85014 0.0
C1974 C 0.86912 0.26505 0.88089 0.0
H1975 H 0.92975 0.26596 1.0039 0.0
H1976 H 0.91721 0.26492 0.95568 0.0
H1977 H 0.86027 0.24998 0.95009 0.0
H1978 H 0.82309 0.266 0.81449 0.0
H1979 H 0.83501 0.26606 0.8634 0.0
C1980 C 0.33889 0.26702 0.31701 0.0
C1981 C 0.34927 0.26741 0.29185 0.0
C1982 C 0.34614 0.26689 0.34509 0.0
C1983 C 0.38743 0.25801 0.38592 0.0
H1984 H 0.36407 0.28359 0.4482 0.0
C1985 C 0.41945 0.26763 0.49996 0.0
C1986 C 0.40915 0.26772 0.52521 0.0
C1987 C 0.41212 0.26736 0.47195 0.0
C1988 C 0.37074 0.27612 0.43131 0.0
H1989 H 0.37573 0.26795 0.27725 0.0
H1990 H 0.38838 0.26782 0.326 0.0
H1991 H 0.35183 0.28369 0.39947 0.0
H1992 H 0.38273 0.26755 0.54005 0.0
H1993 H 0.36994 0.26686 0.49141 0.0
H1994 H 0.40633 0.25043 0.41775 0.0
C1995 C 0.37452 0.2674 0.32407 0.0
C1996 C 0.36365 0.27619 0.40305 0.0
C1997 C 0.36723 0.26756 0.29589 0.0
C1998 C 0.39117 0.2675 0.52132 0.0
C1999 C 0.38381 0.26723 0.49321 0.0
C2000 C 0.3945 0.25793 0.41418 0.0
C2001 C 0.36412 0.26713 0.3493 0.0
C2002 C 0.37184 0.26713 0.37971 0.0
C2003 C 0.39414 0.26716 0.46789 0.0
C2004 C 0.38634 0.26702 0.43752 0.0
H2005 H 0.32502 0.26686 0.31509 0.0
H2006 H 0.33755 0.26636 0.36357 0.0
H2007 H 0.39411 0.25057 0.369 0.0
H2008 H 0.43333 0.26791 0.50176 0.0
H2009 H 0.42068 0.26765 0.4534 0.0
C2010 C 0.89223 1.01557 0.29608 0.0
C2011 C 0.91021 1.01593 0.29215 0.0
C2012 C 0.88486 1.01582 0.32418 0.0
C2013 C 0.89581 1.00838 0.40378 0.0
H2014 H 0.85194 0.03211 0.41678 0.0
C2015 C 0.86758 0.01829 0.52123 0.0
C2016 C 0.84967 1.01659 0.52512 0.0
C2017 C 0.87498 0.01844 0.49314 0.0
C2018 C 0.86413 0.02521 0.41368 0.0
H2019 H 0.93438 1.01702 0.31552 0.0
H2020 H 0.92172 0.01781 0.36388 0.0
H2021 H 0.86439 0.03188 0.36817 0.0
H2022 H 0.82563 1.01372 0.50171 0.0
H2023 H 0.83837 1.01396 0.45331 0.0
H2024 H 0.89556 1.00181 0.44936 0.0
C2025 C 0.91316 1.01696 0.34539 0.0
C2026 C 0.87133 0.02505 0.38549 0.0
C2027 C 0.9205 1.01665 0.31736 0.0
C2028 C 0.83945 1.01516 0.49988 0.0
C2029 C 0.84681 1.0154 0.47187 0.0
C2030 C 0.88863 1.0086 0.43198 0.0
C2031 C 0.89517 1.01647 0.3495 0.0
C2032 C 0.88734 1.01662 0.37988 0.0
C2033 C 0.86474 1.01699 0.46784 0.0
C2034 C 0.87261 1.01699 0.43755 0.0
H2035 H 0.88379 1.01492 0.27739 0.0
H2036 H 0.871 1.01517 0.32598 0.0
H2037 H 0.90794 1.00139 0.40074 0.0
H2038 H 0.87596 0.01941 0.53994 0.0
H2039 H 0.88878 0.01991 0.4913 0.0
C2040 C 0.64366 0.01743 0.04842 0.0
C2041 C 0.66159 0.01818 0.04397 0.0
C2042 C 0.63654 0.0175 0.07673 0.0
C2043 C 0.64774 1.00998 0.15615 0.0
H2044 H 0.6047 0.03521 0.16972 0.0
C2045 C 0.61946 0.01961 0.27434 0.0
C2046 C 0.60145 0.01994 0.27789 0.0
C2047 C 0.62705 0.01927 0.2463 0.0
C2048 C 0.61662 0.02781 0.16654 0.0
H2049 H 0.68594 0.01955 0.06676 0.0
H2050 H 0.67368 0.01971 0.11556 0.0
H2051 H 0.6169 0.03457 0.12105 0.0
H2052 H 0.57748 0.01989 0.25382 0.0
H2053 H 0.59043 0.01894 0.20586 0.0
H2054 H 0.64742 1.00316 0.20167 0.0
C2055 C 0.665 0.01887 0.09724 0.0
C2056 C 0.62369 0.02747 0.13826 0.0
C2057 C 0.6721 0.01888 0.06897 0.0
C2058 C 0.59137 0.01974 0.25237 0.0
C2059 C 0.5989 0.01936 0.2245 0.0
C2060 C 0.64063 1.01027 0.18446 0.0
C2061 C 0.64705 0.01824 0.1018 0.0
C2062 C 0.63941 0.01852 0.13236 0.0
C2063 C 0.61691 0.01925 0.22071 0.0
C2064 C 0.62486 0.01915 0.19032 0.0
H2065 H 0.63505 1.01687 1.02995 0.0
H2066 H 0.6227 1.01675 0.07889 0.0
H2067 H 0.6597 1.00268 0.15288 0.0
H2068 H 0.62775 0.0198 0.29324 0.0
H2069 H 0.64093 0.01938 0.24478 0.0
C2070 C 0.09035 0.76876 0.0691 0.0
C2071 C 0.1008 0.76908 0.044 0.0
C2072 C 0.09749 0.76917 0.09725 0.0
C2073 C 0.13859 0.76104 0.13871 0.0
H2074 H 0.11457 0.78627 0.20067 0.0
C2075 C 0.16982 0.7697 0.25335 0.0
C2076 C 0.15944 0.76959 0.27853 0.0
C2077 C 0.16261 0.76993 0.22527 0.0
C2078 C 0.12143 0.77891 0.18388 0.0
H2079 H 0.12729 0.77013 1.02964 0.0
H2080 H 0.13976 0.77095 0.07859 0.0
H2081 H 0.10269 0.78635 0.15164 0.0
H2082 H 0.13299 0.76969 0.29311 0.0
H2083 H 0.12036 0.76991 0.24424 0.0
H2084 H 0.15727 0.75348 0.1709 0.0
C2085 C 0.12592 0.7702 0.0765 0.0
C2086 C 0.11456 0.77897 0.15544 0.0
C2087 C 0.11874 0.76987 0.04822 0.0
C2088 C 0.14148 0.76986 0.27446 0.0
C2089 C 0.13422 0.77006 0.2462 0.0
C2090 C 0.14544 0.76094 0.16715 0.0
C2091 C 0.11542 0.76986 0.10165 0.0
C2092 C 0.12299 0.77004 0.1322 0.0
C2093 C 0.14465 0.76999 0.22096 0.0
C2094 C 0.13705 0.7699 0.1904 0.0
H2095 H 0.0765 0.76809 0.06707 0.0
H2096 H 0.08882 0.76858 0.11564 0.0
H2097 H 0.14544 0.75368 0.1219 0.0
H2098 H 0.1837 0.76956 0.25523 0.0
H2099 H 0.17127 0.77026 0.20686 0.0
C2100 C 0.6413 0.76752 0.77253 0.0
C2101 C 0.65929 0.76748 0.77649 0.0
C2102 C 0.63396 0.76805 0.74436 0.0
C2103 C 0.64449 0.77899 0.66571 0.0
H2104 H 0.6028 0.75185 0.64949 0.0
C2105 C 0.61814 0.77119 0.54649 0.0
C2106 C 0.60025 0.7699 0.542 0.0
C2107 C 0.62523 0.77114 0.57482 0.0
C2108 C 0.61433 0.75978 0.65346 0.0
H2109 H 0.68347 0.76797 0.75304 0.0
H2110 H 0.67085 0.76884 0.70466 0.0
H2111 H 0.61479 0.75159 0.69841 0.0
H2112 H 0.57591 0.7677 0.56471 0.0
H2113 H 0.58805 0.76797 0.61347 0.0
H2114 H 0.64402 0.78726 0.62086 0.0
C2115 C 0.66228 0.76869 0.7232 0.0
C2116 C 0.62128 0.75961 0.68186 0.0
C2117 C 0.66959 0.76807 0.75123 0.0
C2118 C 0.58974 0.76867 0.56695 0.0
C2119 C 0.5968 0.76866 0.59521 0.0
C2120 C 0.63752 0.77921 0.63735 0.0
C2121 C 0.6443 0.76867 0.71906 0.0
C2122 C 0.63655 0.76916 0.68861 0.0
C2123 C 0.61472 0.76981 0.59987 0.0
C2124 C 0.62228 0.76959 0.63051 0.0
H2125 H 0.63285 0.76706 0.79123 0.0
H2126 H 0.62009 0.76821 0.7425 0.0
H2127 H 0.65607 0.78684 0.66971 0.0
H2128 H 0.62675 0.77206 0.52803 0.0
H2129 H 0.63907 0.7718 0.57697 0.0
C2130 C 0.11649 0.01981 0.77048 0.0
C2131 C 0.0985 0.01945 0.77421 0.0
C2132 C 0.12398 0.01948 0.74245 0.0
C2133 C 0.1142 1.00839 0.66385 0.0
H2134 H 0.15541 0.03659 0.6483 0.0
C2135 C 0.14141 1.01679 0.54533 0.0
C2136 C 0.15931 0.01841 0.54127 0.0
C2137 C 0.13408 1.01672 0.57347 0.0
C2138 C 0.14403 0.02837 0.6521 0.0
H2139 H 0.07442 0.01844 0.75054 0.0
H2140 H 0.0873 0.01793 0.70226 0.0
H2141 H 0.14297 0.0366 0.69689 0.0
H2142 H 0.18342 0.0211 0.56448 0.0
H2143 H 0.17086 0.02063 0.61298 0.0
H2144 H 0.11528 1.00007 0.61915 0.0
C2145 C 0.09577 0.01825 0.72092 0.0
C2146 C 0.13682 0.0284 0.68029 0.0
C2147 C 0.0883 0.01866 0.74886 0.0
C2148 C 0.16959 0.01987 0.56642 0.0
C2149 C 0.16229 0.01976 0.5945 0.0
C2150 C 0.12144 1.00831 0.63569 0.0
C2151 C 0.11376 0.01869 0.71705 0.0
C2152 C 0.12172 0.01844 0.68679 0.0
C2153 C 0.14436 0.01825 0.59872 0.0
C2154 C 0.13652 0.01832 0.62912 0.0
H2155 H 0.12486 0.02042 0.78926 0.0
H2156 H 0.13786 0.01964 0.74078 0.0
H2157 H 0.10277 1.00025 0.66769 0.0
H2158 H 0.13297 1.01573 0.52669 0.0
H2159 H 0.12023 1.01579 0.5753 0.0
C2160 C 0.33661 0.51492 0.49924 0.0
C2161 C 0.34746 0.51523 0.52383 0.0
C2162 C 0.34327 0.51548 0.47076 0.0
C2163 C 0.38321 0.52692 0.42766 0.0
H2164 H 0.35995 0.50038 0.36624 0.0
C2165 C 0.41452 0.51795 0.31347 0.0
C2166 C 0.40429 0.51739 0.28813 0.0
C2167 C 0.4072 0.51824 0.34142 0.0
C2168 C 0.36655 0.50812 0.3829 0.0
H2169 H 0.37416 0.51636 0.53694 0.0
H2170 H 0.38583 0.51721 0.48744 0.0
H2171 H 0.34858 0.49946 0.41565 0.0
H2172 H 0.37792 0.51675 0.27317 0.0
H2173 H 0.36504 0.5174 0.32203 0.0
H2174 H 0.40119 0.53556 0.39499 0.0
C2175 C 0.37201 0.51677 0.49016 0.0
C2176 C 0.35999 0.50759 0.41155 0.0
C2177 C 0.36531 0.51618 0.51877 0.0
C2178 C 0.3863 0.51724 0.29194 0.0
C2179 C 0.37891 0.51747 0.32015 0.0
C2180 C 0.38976 0.52745 0.39905 0.0
C2181 C 0.36112 0.51638 0.4655 0.0
C2182 C 0.36821 0.51693 0.43462 0.0
C2183 C 0.38925 0.51797 0.3455 0.0
C2184 C 0.38165 0.51798 0.37604 0.0
H2185 H 0.32279 0.51422 0.50192 0.0
H2186 H 0.33429 0.51547 0.4528 0.0
H2187 H 0.38985 0.53466 0.44429 0.0
H2188 H 0.42841 0.518 0.31185 0.0
H2189 H 0.41578 0.51826 0.35993 0.0
C2190 C 0.92126 0.76561 0.50059 0.0
C2191 C 0.91048 0.76524 0.52528 0.0
C2192 C 0.91451 0.76534 0.47219 0.0
C2193 C 0.87437 0.75497 0.42911 0.0
H2194 H 0.89813 0.78163 0.36807 0.0
C2195 C 0.84373 0.76507 0.31436 0.0
C2196 C 0.85418 0.76552 0.28925 0.0
C2197 C 0.85084 0.76458 0.34247 0.0
C2198 C 0.89138 0.77386 0.38462 0.0
H2199 H 0.88381 0.76426 0.53864 0.0
H2200 H 0.87199 0.76396 0.48921 0.0
H2201 H 0.90939 0.78198 0.41751 0.0
H2202 H 0.88067 0.76578 0.27488 0.0
H2203 H 0.89315 0.76481 0.32396 0.0
H2204 H 0.85632 0.74691 0.39624 0.0
C2205 C 0.88581 0.76423 0.49182 0.0
C2206 C 0.89788 0.77406 0.41329 0.0
C2207 C 0.8926 0.76449 0.52038 0.0
C2208 C 0.87213 0.7654 0.29346 0.0
C2209 C 0.8793 0.76498 0.3218 0.0
C2210 C 0.86786 0.75478 0.40046 0.0
C2211 C 0.89664 0.76473 0.46707 0.0
C2212 C 0.88952 0.76463 0.43621 0.0
C2213 C 0.86876 0.76455 0.34693 0.0
C2214 C 0.87618 0.76428 0.37757 0.0
H2215 H 0.93509 0.7661 0.50313 0.0
H2216 H 0.92346 0.76538 0.45416 0.0
H2217 H 0.86759 0.7472 0.44563 0.0
H2218 H 0.82986 0.76522 0.3124 0.0
H2219 H 0.84213 0.76462 0.36082 0.0
C2220 C 0.36519 0.76371 0.80113 0.0
C2221 C 0.34736 0.76491 0.79601 0.0
C2222 C 0.37187 0.76325 0.82971 0.0
C2223 C 0.3602 0.77326 0.9081 0.0
H2224 H 0.40106 0.74476 0.92469 0.0
C2225 C 0.38721 0.7645 1.02738 0.0
C2226 C 0.40522 0.76411 1.03083 0.0
C2227 C 0.37962 0.76408 0.99936 0.0
C2228 C 0.38974 0.75301 0.92061 0.0
H2229 H 0.32268 0.76649 0.8178 0.0
H2230 H 0.33418 0.76546 0.86705 0.0
H2231 H 0.38943 0.74531 0.87561 0.0
H2232 H 0.42917 0.76286 1.00668 0.0
H2233 H 0.41619 0.76227 0.95885 0.0
H2234 H 0.36057 0.78097 0.9532 0.0
C2235 C 0.34315 0.76515 0.84907 0.0
C2236 C 0.38301 0.75334 0.89213 0.0
C2237 C 0.33648 0.76559 0.82056 0.0
C2238 C 0.41527 0.76311 1.00532 0.0
C2239 C 0.40775 0.76263 0.97754 0.0
C2240 C 0.36694 0.77293 0.93664 0.0
C2241 C 0.36099 0.76399 0.85433 0.0
C2242 C 0.36814 0.76354 0.88516 0.0
C2243 C 0.38977 0.76315 0.97382 0.0
C2244 C 0.38194 0.7629 0.94348 0.0
H2245 H 0.37406 0.76325 0.783 0.0
H2246 H 0.38568 0.76261 0.83241 0.0
H2247 H 0.34889 0.78153 0.90396 0.0
H2248 H 0.37897 0.76532 0.0463 0.0
H2249 H 0.36574 0.76434 0.99776 0.0
C2250 C 0.91746 0.51415 0.81633 0.0
C2251 C 0.90697 0.51413 0.79129 0.0
C2252 C 0.91038 0.51455 0.84447 0.0
C2253 C 0.8699 0.52504 0.88614 0.0
H2254 H 0.89297 0.49841 0.94794 0.0
C2255 C 0.83885 0.51661 1.0011 0.0
C2256 C 0.84935 0.51598 1.02612 0.0
C2257 C 0.84593 0.51671 0.97294 0.0
C2258 C 0.88641 0.50618 0.93119 0.0
H2259 H 0.88047 0.5146 0.77698 0.0
H2260 H 0.86805 0.51521 0.82604 0.0
H2261 H 0.90456 0.4977 0.89877 0.0
H2262 H 0.87585 0.51503 0.04036 0.0
H2263 H 0.88826 0.51543 0.99132 0.0
H2264 H 0.85176 0.53354 0.91857 0.0
C2265 C 0.8819 0.51509 0.82386 0.0
C2266 C 0.8931 0.50576 0.90268 0.0
C2267 C 0.88903 0.51466 0.79554 0.0
C2268 C 0.86728 0.51554 1.02182 0.0
C2269 C 0.87441 0.51563 0.9935 0.0
C2270 C 0.86321 0.52548 0.91467 0.0
C2271 C 0.89245 0.51494 0.84893 0.0
C2272 C 0.88501 0.51519 0.87952 0.0
C2273 C 0.86385 0.51619 0.96843 0.0
C2274 C 0.87131 0.51604 0.93783 0.0
H2275 H 0.93133 0.51384 0.81429 0.0
H2276 H 0.91909 0.51479 0.8628 0.0
H2277 H 0.86333 0.53277 0.86936 0.0
H2278 H 0.82499 0.51687 1.00319 0.0
H2279 H 0.8372 0.51682 0.95463 0.0
C2280 C 0.61743 0.51683 0.77254 0.0
C2281 C 0.59947 0.51743 0.77665 0.0
C2282 C 0.62471 0.51661 0.74434 0.0
C2283 C 0.61399 0.50747 0.66542 0.0
H2284 H 0.65626 0.53392 0.6503 0.0
C2285 C 0.64102 0.51612 0.54665 0.0
C2286 C 0.65894 0.51733 0.54238 0.0
C2287 C 0.63381 0.51595 0.5749 0.0
C2288 C 0.64457 0.52617 0.65394 0.0
H2289 H 0.57523 0.51823 0.75343 0.0
H2290 H 0.58776 0.51783 0.70485 0.0
H2291 H 0.64413 0.53366 0.69911 0.0
H2292 H 0.6832 0.5191 0.56538 0.0
H2293 H 0.67086 0.51837 0.61399 0.0
H2294 H 0.61447 0.49983 0.62038 0.0
C2295 C 0.59635 0.51735 0.72335 0.0
C2296 C 0.63754 0.52606 0.68227 0.0
C2297 C 0.58909 0.51769 0.75148 0.0
C2298 C 0.66935 0.51822 0.56745 0.0
C2299 C 0.66218 0.51796 0.59564 0.0
C2300 C 0.62107 0.5075 0.63712 0.0
C2301 C 0.61432 0.51686 0.7191 0.0
C2302 C 0.62206 0.51674 0.68866 0.0
C2303 C 0.64423 0.51691 0.6001 0.0
C2304 C 0.63653 0.51687 0.63066 0.0
H2305 H 0.62594 0.51663 0.79117 0.0
H2306 H 0.63857 0.51602 0.74238 0.0
H2307 H 0.60224 0.49984 0.66914 0.0
H2308 H 0.63248 0.51552 0.52809 0.0
H2309 H 0.61996 0.51539 0.57686 0.0
C2310 C 0.16958 0.26954 0.75134 0.0
C2311 C 0.15918 0.26952 0.77649 0.0
C2312 C 0.16237 0.26996 0.72323 0.0
C2313 C 0.12137 0.26103 0.68202 0.0
H2314 H 0.14463 0.28729 0.62004 0.0
C2315 C 0.08989 0.26922 0.56726 0.0
C2316 C 0.10031 0.2697 0.54215 0.0
C2317 C 0.09705 0.26948 0.59539 0.0
C2318 C 0.13799 0.27963 0.63683 0.0
H2319 H 0.13271 0.26995 0.79101 0.0
H2320 H 0.12012 0.27076 0.74214 0.0
H2321 H 0.15661 0.28744 0.66899 0.0
H2322 H 0.12677 0.27088 0.52772 0.0
H2323 H 0.13931 0.27109 0.5766 0.0
H2324 H 0.10283 0.25308 0.64991 0.0
C2325 C 0.13397 0.27031 0.74415 0.0
C2326 C 0.14491 0.27974 0.66522 0.0
C2327 C 0.14122 0.26998 0.77238 0.0
C2328 C 0.11824 0.27056 0.54633 0.0
C2329 C 0.12545 0.27078 0.57459 0.0
C2330 C 0.11447 0.26087 0.65362 0.0
C2331 C 0.14441 0.27029 0.71895 0.0
C2332 C 0.13676 0.27043 0.68846 0.0
C2333 C 0.115 0.27016 0.59979 0.0
C2334 C 0.1226 0.27019 0.63035 0.0
H2335 H 0.18345 0.2691 0.75328 0.0
H2336 H 0.17099 0.26964 0.70477 0.0
H2337 H 0.11474 0.25338 0.69885 0.0
H2338 H 0.07602 0.26865 0.56526 0.0
H2339 H 0.08836 0.26936 0.61377 0.0
C2340 C 0.61584 0.27026 0.0455 0.0
C2341 C 0.59801 0.2681 0.04111 0.0
C2342 C 0.62294 0.27052 0.07378 0.0
C2343 C 0.61129 0.27676 0.15294 0.0
H2344 H 0.65558 0.25409 0.16659 0.0
C2345 C 0.63975 0.26795 0.27088 0.0
C2346 C 0.65773 0.26883 0.2745 0.0
C2347 C 0.63224 0.26804 0.24285 0.0
C2348 C 0.6433 0.26077 0.16335 0.0
H2349 H 0.5738 0.26459 0.06382 0.0
H2350 H 0.58606 0.26501 0.11261 0.0
H2351 H 0.64341 0.25419 0.11788 0.0
H2352 H 0.68174 0.27085 0.25071 0.0
H2353 H 0.66885 0.27139 0.20264 0.0
H2354 H 0.61122 0.2834 0.19842 0.0
C2355 C 0.59464 0.2667 0.09428 0.0
C2356 C 0.63625 0.2608 0.1351 0.0
C2357 C 0.58757 0.26634 0.06605 0.0
C2358 C 0.66786 0.27003 0.24912 0.0
C2359 C 0.6604 0.27018 0.22124 0.0
C2360 C 0.61838 0.27678 0.18122 0.0
C2361 C 0.61249 0.26873 0.09878 0.0
C2362 C 0.6201 0.26881 0.12924 0.0
C2363 C 0.64243 0.26904 0.21739 0.0
C2364 C 0.63457 0.26882 0.18706 0.0
H2365 H 0.62438 0.27167 1.02704 0.0
H2366 H 0.63668 0.27235 0.07598 0.0
H2367 H 0.59896 0.28332 0.14961 0.0
H2368 H 0.63146 0.26693 0.28972 0.0
H2369 H 0.6184 0.26695 0.24121 0.0
C2370 C 0.16967 0.51757 0.06754 0.0
C2371 C 0.15923 0.51612 0.04254 0.0
C2372 C 0.16257 0.51753 0.09577 0.0
C2373 C 0.12117 0.52505 0.13675 0.0
H2374 H 0.1458 0.50215 0.20047 0.0
C2375 C 0.08992 0.51842 0.25203 0.0
C2376 C 0.10026 0.51896 0.27723 0.0
C2377 C 0.09718 0.51781 0.22396 0.0
C2378 C 0.13875 0.50888 0.18319 0.0
H2379 H 0.13279 0.5135 1.02848 0.0
H2380 H 0.1204 0.51339 0.07749 0.0
H2381 H 0.15783 0.50142 0.15155 0.0
H2382 H 0.12671 0.51926 0.29181 0.0
H2383 H 0.1394 0.51851 0.24305 0.0
H2384 H 0.1022 0.53272 0.16829 0.0
C2385 C 0.1342 0.51468 0.07528 0.0
C2386 C 0.14571 0.50842 0.15479 0.0
C2387 C 0.14134 0.51461 0.04696 0.0
C2388 C 0.11823 0.51878 0.27317 0.0
C2389 C 0.12553 0.51825 0.24494 0.0
C2390 C 0.11425 0.52558 0.16514 0.0
C2391 C 0.14467 0.51616 0.10034 0.0
C2392 C 0.13707 0.51648 0.13091 0.0
C2393 C 0.11515 0.51783 0.21964 0.0
C2394 C 0.12284 0.51746 0.18907 0.0
H2395 H 0.18348 0.51887 0.06536 0.0
H2396 H 0.1712 0.51897 0.11408 0.0
H2397 H 0.11413 0.53175 0.11941 0.0
H2398 H 0.07605 0.51843 0.2539 0.0
H2399 H 0.08853 0.51709 0.20558 0.0
C2400 C 0.30791 0.20677 0.19808 0.0
C2401 C 0.32406 0.21548 0.19894 0.0
C2402 C 0.30632 0.18862 0.18783 0.0
C2403 C 0.32992 0.15483 0.14169 0.0
H2404 H 0.29878 0.11877 0.17467 0.0
C2405 C 0.33699 0.07751 0.11876 0.0
C2406 C 0.32226 0.06654 0.11501 0.0
C2407 C 0.33563 0.09594 0.12694 0.0
C2408 C 0.30737 0.12876 0.16492 0.0
H2409 H 0.35129 0.21147 0.191 0.0
H2410 H 0.34861 0.18007 0.17406 0.0
H2411 H 0.29951 0.15 0.19443 0.0
H2412 H 0.29444 0.06658 0.1167 0.0
H2413 H 0.29202 0.09901 0.13115 0.0
H2414 H 0.33801 0.13364 0.11256 0.0
C2415 C 0.33704 0.18729 0.18041 0.0
C2416 C 0.30781 0.14669 0.1763 0.0
C2417 C 0.33861 0.20533 0.19047 0.0
C2418 C 0.30603 0.07468 0.1191 0.0
C2419 C 0.30467 0.0932 0.12769 0.0
C2420 C 0.32952 0.13698 0.13044 0.0
C2421 C 0.32085 0.17876 0.17822 0.0
C2422 C 0.31936 0.1599 0.1652 0.0
C2423 C 0.31949 0.10404 0.13191 0.0
C2424 C 0.31848 0.12356 0.14219 0.0
H2425 H 0.29641 0.2142 0.20424 0.0
H2426 H 0.29362 0.18258 0.18646 0.0
H2427 H 0.33862 0.16467 0.13189 0.0
H2428 H 0.34972 0.07172 0.11597 0.0
H2429 H 0.34734 0.10369 0.13029 0.0
C2430 C 0.92331 0.07905 0.19592 0.0
C2431 C 0.93784 0.06818 0.20197 0.0
C2432 C 0.92502 0.09701 0.18553 0.0
C2433 C 0.9547 0.13658 0.1763 0.0
H2434 H 0.92254 0.14925 0.11503 0.0
C2435 C 0.95396 0.20854 0.11776 0.0
C2436 C 0.93749 0.2164 0.1151 0.0
C2437 C 0.95588 0.19006 0.1265 0.0
C2438 C 0.93159 0.14603 0.1322 0.0
H2439 H 0.96568 0.06817 0.20295 0.0
H2440 H 0.96871 0.09982 0.18473 0.0
H2441 H 0.92244 0.1184 0.13538 0.0
H2442 H 0.9102 0.21076 0.11876 0.0
H2443 H 0.9135 0.17893 0.1334 0.0
H2444 H 0.96366 0.16449 0.17313 0.0
C2445 C 0.95594 0.09431 0.18816 0.0
C2446 C 0.9315 0.12828 0.14399 0.0
C2447 C 0.95422 0.07618 0.1987 0.0
C2448 C 0.92308 0.20521 0.12044 0.0
C2449 C 0.92498 0.18684 0.12879 0.0
C2450 C 0.95479 0.15444 0.16443 0.0
C2451 C 0.94133 0.10477 0.18064 0.0
C2452 C 0.94274 0.12338 0.16671 0.0
C2453 C 0.94137 0.179 0.13229 0.0
C2454 C 0.94294 0.15952 0.14267 0.0
H2455 H 0.91047 0.07347 0.19842 0.0
H2456 H 0.91346 0.10475 0.18082 0.0
H2457 H 0.96355 0.13332 0.19374 0.0
H2458 H 0.96533 0.21682 0.1141 0.0
H2459 H 0.9687 0.18446 0.12883 0.0
C2460 C 0.70525 0.82653 0.86725 0.0
C2461 C 0.68876 0.81861 0.86565 0.0
C2462 C 0.70734 0.8449 0.87619 0.0
C2463 C 0.68288 0.88865 0.88516 0.0
H2464 H 0.71716 0.90109 0.94306 0.0
C2465 C 0.67589 0.954 0.952 0.0
C2466 C 0.69021 0.96565 0.9551 0.0
C2467 C 0.67772 0.93616 0.94143 0.0
C2468 C 0.70765 0.89789 0.92665 0.0
H2469 H 0.66157 0.82405 0.87157 0.0
H2470 H 0.66516 0.85566 0.88673 0.0
H2471 H 0.71677 0.87016 0.92183 0.0
H2472 H 0.71791 0.96715 0.95089 0.0
H2473 H 0.72117 0.93558 0.93248 0.0
H2474 H 0.6735 0.91606 0.89021 0.0
C2475 C 0.67653 0.8479 0.881 0.0
C2476 C 0.70744 0.88017 0.91441 0.0
C2477 C 0.67447 0.82965 0.87236 0.0
C2478 C 0.70663 0.9585 0.94898 0.0
C2479 C 0.70848 0.94045 0.9383 0.0
C2480 C 0.68304 0.90621 0.89739 0.0
C2481 C 0.69298 0.85581 0.88337 0.0
C2482 C 0.69477 0.87518 0.89399 0.0
C2483 C 0.69393 0.9293 0.93346 0.0
C2484 C 0.69513 0.91098 0.91884 0.0
H2485 H 0.71655 0.81837 0.86252 0.0
H2486 H 0.7202 0.85055 0.87759 0.0
H2487 H 0.6732 0.88554 0.86899 0.0
H2488 H 0.66305 0.95894 0.95672 0.0
H2489 H 0.66628 0.92784 0.93877 0.0
C2490 C 0.05319 0.82784 0.95151 0.0
C2491 C 0.06965 0.82058 0.957 0.0
C2492 C 0.05121 0.84627 0.94247 0.0
C2493 C 0.07452 0.89118 0.9398 0.0
H2494 H 0.0457 0.90231 0.87328 0.0
C2495 C 0.0849 0.95732 0.87458 0.0
C2496 C 0.07057 0.96785 0.86612 0.0
C2497 C 0.08293 0.93952 0.88558 0.0
C2498 C 0.05365 0.89949 0.89209 0.0
H2499 H 0.09681 0.82725 0.9582 0.0
H2500 H 0.0934 0.85896 0.94306 0.0
H2501 H 0.04521 0.87138 0.89474 0.0
H2502 H 0.04285 0.96739 0.86157 0.0
H2503 H 0.03939 0.936 0.88074 0.0
H2504 H 0.08321 0.91901 0.93705 0.0
C2505 C 0.08195 0.85065 0.94569 0.0
C2506 C 0.05334 0.88176 0.90447 0.0
C2507 C 0.08392 0.83235 0.95434 0.0
C2508 C 0.05419 0.95966 0.8677 0.0
C2509 C 0.0522 0.94168 0.87878 0.0
C2510 C 0.07485 0.90878 0.92748 0.0
C2511 C 0.06563 0.85787 0.93917 0.0
C2512 C 0.0641 0.87724 0.92809 0.0
C2513 C 0.06655 0.93157 0.88862 0.0
C2514 C 0.06476 0.91312 0.903 0.0
H2515 H 0.04195 0.8191 0.953 0.0
H2516 H 0.03843 0.85138 0.93783 0.0
H2517 H 0.08268 0.88842 0.95838 0.0
H2518 H 0.09775 0.96303 0.87351 0.0
H2519 H 0.09434 0.93205 0.89216 0.0
C2520 C 0.3351 0.70249 0.69674 0.0
C2521 C 0.32079 0.71356 0.7033 0.0
C2522 C 0.33304 0.68468 0.68605 0.0
C2523 C 0.30307 0.64548 0.6774 0.0
H2524 H 0.33396 0.63341 0.61411 0.0
C2525 C 0.30277 0.57375 0.61876 0.0
C2526 C 0.31918 0.5661 0.61429 0.0
C2527 C 0.30098 0.59217 0.62777 0.0
C2528 C 0.32528 0.63644 0.63187 0.0
H2529 H 0.29296 0.71403 0.70486 0.0
H2530 H 0.28932 0.68258 0.68626 0.0
H2531 H 0.33451 0.66405 0.63493 0.0
H2532 H 0.34649 0.57208 0.61508 0.0
H2533 H 0.34342 0.60374 0.63031 0.0
H2534 H 0.29409 0.61758 0.67448 0.0
C2535 C 0.30219 0.68787 0.68945 0.0
C2536 C 0.32561 0.65407 0.64389 0.0
C2537 C 0.30427 0.70588 0.7002 0.0
C2538 C 0.33363 0.57746 0.61814 0.0
C2539 C 0.33186 0.59574 0.62682 0.0
C2540 C 0.30277 0.6277 0.66535 0.0
C2541 C 0.31659 0.67723 0.68144 0.0
C2542 C 0.31483 0.65877 0.66729 0.0
C2543 C 0.31556 0.60339 0.63212 0.0
C2544 C 0.31418 0.62281 0.64284 0.0
H2545 H 0.34805 0.7078 0.69904 0.0
H2546 H 0.34445 0.6768 0.6809 0.0
H2547 H 0.29457 0.64859 0.69537 0.0
H2548 H 0.29137 0.56535 0.61631 0.0
H2549 H 0.28821 0.59759 0.63146 0.0
C2550 C 0.92555 0.70223 0.61694 0.0
C2551 C 0.9401 0.71356 0.61384 0.0
C2552 C 0.92701 0.68424 0.62731 0.0
C2553 C 0.95649 0.64527 0.64188 0.0
H2554 H 0.9212 0.63243 0.69797 0.0
C2555 C 0.95346 0.57354 0.701 0.0
C2556 C 0.93699 0.56554 0.70219 0.0
C2557 C 0.95558 0.59194 0.69197 0.0
C2558 C 0.93111 0.63567 0.68222 0.0
H2559 H 0.96782 0.71435 0.61795 0.0
H2560 H 0.97044 0.68258 0.6361 0.0
H2561 H 0.92191 0.66318 0.67729 0.0
H2562 H 0.90985 0.57088 0.69538 0.0
H2563 H 0.91348 0.60255 0.6801 0.0
H2564 H 0.9655 0.61747 0.64672 0.0
C2565 C 0.95784 0.68779 0.63039 0.0
C2566 C 0.93151 0.65337 0.67028 0.0
C2567 C 0.95637 0.70597 0.61986 0.0
C2568 C 0.92273 0.57653 0.69493 0.0
C2569 C 0.92482 0.59482 0.68621 0.0
C2570 C 0.95607 0.62742 0.65388 0.0
C2571 C 0.94307 0.67691 0.63514 0.0
C2572 C 0.94392 0.65835 0.64941 0.0
C2573 C 0.94126 0.60281 0.6843 0.0
C2574 C 0.94311 0.62226 0.67375 0.0
H2575 H 0.91281 0.7075 0.61228 0.0
H2576 H 0.91539 0.67618 0.62983 0.0
H2577 H 0.96625 0.64859 0.62592 0.0
H2578 H 0.96474 0.56545 0.70616 0.0
H2579 H 0.96842 0.59765 0.69096 0.0
C2580 C 0.67484 0.33111 0.3693 0.0
C2581 C 0.68904 0.31996 0.36253 0.0
C2582 C 0.67703 0.34928 0.37827 0.0
C2583 C 0.70827 0.3811 0.41217 0.0
H2584 H 0.67409 0.41719 0.3897 0.0
C2585 C 0.70689 0.4595 0.4477 0.0
C2586 C 0.69043 0.46604 0.45509 0.0
C2587 C 0.709 0.44154 0.43677 0.0
C2588 C 0.68372 0.40728 0.39633 0.0
H2589 H 0.71683 0.31948 0.35956 0.0
H2590 H 0.72072 0.35154 0.3751 0.0
H2591 H 0.67373 0.38694 0.36751 0.0
H2592 H 0.66358 0.45835 0.45888 0.0
H2593 H 0.66728 0.42741 0.4404 0.0
H2594 H 0.71815 0.40176 0.44118 0.0
C2595 C 0.70782 0.34602 0.37355 0.0
C2596 C 0.68351 0.38987 0.38359 0.0
C2597 C 0.7056 0.32772 0.36432 0.0
C2598 C 0.67643 0.45386 0.45318 0.0
C2599 C 0.67852 0.43612 0.44233 0.0
C2600 C 0.70854 0.3987 0.42487 0.0
C2601 C 0.69353 0.35702 0.38085 0.0
C2602 C 0.69545 0.37631 0.39186 0.0
C2603 C 0.69468 0.4299 0.43296 0.0
C2604 C 0.69594 0.41182 0.41768 0.0
H2605 H 0.66189 0.32565 0.36835 0.0
H2606 H 0.6657 0.35708 0.3841 0.0
H2607 H 0.71765 0.37103 0.41917 0.0
H2608 H 0.71791 0.46859 0.44864 0.0
H2609 H 0.72165 0.43713 0.42986 0.0
C2610 C 0.05198 0.32843 0.45109 0.0
C2611 C 0.06859 0.32137 0.45587 0.0
C2612 C 0.04968 0.34685 0.44233 0.0
C2613 C 0.07255 0.39197 0.43921 0.0
H2614 H 0.04295 0.40303 0.37361 0.0
C2615 C 0.08298 0.45712 0.37247 0.0
C2616 C 0.06876 0.46834 0.3659 0.0
C2617 C 0.08075 0.43934 0.3833 0.0
C2618 C 0.05111 0.40021 0.39217 0.0
H2619 H 0.09569 0.32835 0.4561 0.0
H2620 H 0.09174 0.36005 0.44137 0.0
H2621 H 0.04279 0.37207 0.39509 0.0
H2622 H 0.04094 0.4691 0.36419 0.0
H2623 H 0.03702 0.43762 0.38298 0.0
H2624 H 0.08123 0.41979 0.43599 0.0
C2625 C 0.08042 0.35159 0.44438 0.0
C2626 C 0.05099 0.38248 0.40456 0.0
C2627 C 0.0827 0.3333 0.45278 0.0
C2628 C 0.05216 0.46081 0.36887 0.0
C2629 C 0.04993 0.44281 0.37975 0.0
C2630 C 0.07272 0.40955 0.42683 0.0
C2631 C 0.06393 0.35863 0.4386 0.0
C2632 C 0.06207 0.378 0.42778 0.0
C2633 C 0.06424 0.4321 0.38797 0.0
C2634 C 0.06237 0.41381 0.40266 0.0
H2635 H 0.04086 0.31955 0.45294 0.0
H2636 H 0.03679 0.35183 0.43823 0.0
H2637 H 0.08094 0.38924 0.4575 0.0
H2638 H 0.09596 0.46232 0.37021 0.0
H2639 H 0.09208 0.43135 0.38865 0.0
C2640 C 0.79974 0.07356 0.61867 0.0
C2641 C 0.81605 0.06731 0.60989 0.0
C2642 C 0.79737 0.09197 0.62736 0.0
C2643 C 0.81841 0.13829 0.62425 0.0
H2644 H 0.7943 0.14809 0.69634 0.0
C2645 C 0.83244 0.20333 0.68916 0.0
C2646 C 0.81863 0.21402 0.69938 0.0
C2647 C 0.82978 0.18567 0.67822 0.0
C2648 C 0.80089 0.14562 0.67599 0.0
H2649 H 0.84241 0.07569 0.60233 0.0
H2650 H 0.83832 0.10734 0.61686 0.0
H2651 H 0.79341 0.11716 0.67513 0.0
H2652 H 0.79116 0.21392 0.70721 0.0
H2653 H 0.78653 0.18264 0.68838 0.0
H2654 H 0.82635 0.16643 0.62543 0.0
C2655 C 0.82726 0.0983 0.61707 0.0
C2656 C 0.80035 0.1279 0.66375 0.0
C2657 C 0.82964 0.08004 0.60875 0.0
C2658 C 0.80211 0.20608 0.69966 0.0
C2659 C 0.79945 0.18818 0.68879 0.0
C2660 C 0.81903 0.15585 0.6365 0.0
C2661 C 0.8112 0.10454 0.62703 0.0
C2662 C 0.8095 0.12387 0.63808 0.0
C2663 C 0.81323 0.17797 0.67717 0.0
C2664 C 0.81068 0.15968 0.66293 0.0
H2665 H 0.78907 0.06404 0.62022 0.0
H2666 H 0.78479 0.09629 0.63473 0.0
H2667 H 0.82526 0.13593 0.60411 0.0
H2668 H 0.84539 0.20881 0.68872 0.0
H2669 H 0.84076 0.1781 0.67011 0.0
C2670 C 0.45176 0.20714 0.61967 0.0
C2671 C 0.43564 0.21566 0.61624 0.0
C2672 C 0.45292 0.18885 0.62971 0.0
C2673 C 0.42686 0.15434 0.67095 0.0
H2674 H 0.46016 0.11882 0.64345 0.0
C2675 C 0.41919 0.07682 0.69318 0.0
C2676 C 0.43376 0.0661 0.69965 0.0
C2677 C 0.42081 0.09524 0.68479 0.0
C2678 C 0.45092 0.12865 0.65166 0.0
H2679 H 0.40813 0.21117 0.61912 0.0
H2680 H 0.41011 0.17958 0.63562 0.0
H2681 H 0.46046 0.15022 0.62396 0.0
H2682 H 0.46156 0.06661 0.70245 0.0
H2683 H 0.46441 0.09896 0.6877 0.0
H2684 H 0.41714 0.13286 0.69827 0.0
C2685 C 0.42193 0.18702 0.63155 0.0
C2686 C 0.45108 0.14668 0.64044 0.0
C2687 C 0.42078 0.20518 0.62175 0.0
C2688 C 0.45006 0.07448 0.6979 0.0
C2689 C 0.4517 0.09297 0.68915 0.0
C2690 C 0.42666 0.1364 0.68202 0.0
C2691 C 0.43798 0.17867 0.6365 0.0
C2692 C 0.43882 0.15971 0.64953 0.0
C2693 C 0.43707 0.10359 0.68234 0.0
C2694 C 0.43847 0.12316 0.67222 0.0
H2695 H 0.46347 0.21484 0.61583 0.0
H2696 H 0.46552 0.18294 0.63323 0.0
H2697 H 0.41753 0.16404 0.67924 0.0
H2698 H 0.40644 0.07087 0.69409 0.0
H2699 H 0.40926 0.10282 0.6794 0.0
C2700 C 0.17782 0.83133 0.37073 0.0
C2701 C 0.19199 0.8197 0.366 0.0
C2702 C 0.18008 0.84959 0.37913 0.0
C2703 C 0.21048 0.8813 0.41526 0.0
H2704 H 0.17778 0.91759 0.38779 0.0
C2705 C 0.20807 0.96021 0.44877 0.0
C2706 C 0.19137 0.96669 0.45465 0.0
C2707 C 0.21063 0.9422 0.43824 0.0
C2708 C 0.18701 0.90764 0.39578 0.0
H2709 H 0.2198 0.81846 0.36612 0.0
H2710 H 0.22383 0.85073 0.38073 0.0
H2711 H 0.17799 0.8871 0.36641 0.0
H2712 H 0.16448 0.95879 0.45604 0.0
H2713 H 0.16892 0.92786 0.43809 0.0
H2714 H 0.21937 0.90218 0.44484 0.0
C2715 C 0.2109 0.84551 0.37796 0.0
C2716 C 0.18712 0.89008 0.38353 0.0
C2717 C 0.20861 0.82708 0.36926 0.0
C2718 C 0.17752 0.95441 0.45152 0.0
C2719 C 0.18004 0.93664 0.44099 0.0
C2720 C 0.21045 0.89906 0.42747 0.0
C2721 C 0.19661 0.85699 0.3832 0.0
C2722 C 0.19847 0.87643 0.39364 0.0
C2723 C 0.19651 0.93046 0.43325 0.0
C2724 C 0.19834 0.91226 0.41844 0.0
H2725 H 0.16481 0.82617 0.36861 0.0
H2726 H 0.16873 0.85776 0.38338 0.0
H2727 H 0.21939 0.87118 0.42369 0.0
H2728 H 0.21901 0.96934 0.4507 0.0
H2729 H 0.2235 0.93782 0.43258 0.0
C2730 C 0.58378 0.83386 0.45175 0.0
C2731 C 0.56983 0.82166 0.45407 0.0
C2732 C 0.58132 0.85214 0.44344 0.0
C2733 C 0.55209 0.88261 0.4025 0.0
H2734 H 0.58115 0.92035 0.43577 0.0
C2735 C 0.55284 0.96108 0.36745 0.0
C2736 C 0.56939 0.96881 0.3653 0.0
C2737 C 0.55062 0.94303 0.37811 0.0
C2738 C 0.57297 0.90999 0.42611 0.0
H2739 H 0.54219 0.81931 0.44985 0.0
H2740 H 0.53781 0.85158 0.43528 0.0
H2741 H 0.58095 0.88973 0.45704 0.0
H2742 H 0.59658 0.96311 0.3708 0.0
H2743 H 0.59273 0.93205 0.38888 0.0
H2744 H 0.54431 0.90311 0.37129 0.0
C2745 C 0.55072 0.84683 0.43993 0.0
C2746 C 0.57285 0.89238 0.43835 0.0
C2747 C 0.55319 0.82842 0.44861 0.0
C2748 C 0.58362 0.95775 0.37244 0.0
C2749 C 0.58141 0.93992 0.38305 0.0
C2750 C 0.55216 0.90038 0.39025 0.0
C2751 C 0.56482 0.85889 0.43698 0.0
C2752 C 0.56281 0.87826 0.42626 0.0
C2753 C 0.56491 0.93247 0.38693 0.0
C2754 C 0.56301 0.91413 0.40142 0.0
H2755 H 0.5968 0.82914 0.45561 0.0
H2756 H 0.59254 0.86083 0.44104 0.0
H2757 H 0.54424 0.87208 0.39253 0.0
H2758 H 0.5416 0.96925 0.3623 0.0
H2759 H 0.53772 0.93766 0.38071 0.0
C2760 C 0.80403 0.57553 0.11894 0.0
C2761 C 0.82035 0.56726 0.11676 0.0
C2762 C 0.80233 0.5936 0.12957 0.0
C2763 C 0.82619 0.62696 0.17565 0.0
H2764 H 0.79546 0.66389 0.14412 0.0
C2765 C 0.8355 0.70371 0.19928 0.0
C2766 C 0.82119 0.71524 0.20339 0.0
C2767 C 0.83344 0.68537 0.19107 0.0
C2768 C 0.80392 0.65365 0.15349 0.0
H2769 H 0.84767 0.57202 0.12251 0.0
H2770 H 0.84474 0.60317 0.1403 0.0
H2771 H 0.79551 0.63278 0.12364 0.0
H2772 H 0.79338 0.71629 0.20232 0.0
H2773 H 0.78973 0.68396 0.18782 0.0
H2774 H 0.83481 0.64768 0.20514 0.0
C2775 C 0.83318 0.59569 0.13463 0.0
C2776 C 0.80398 0.6358 0.14169 0.0
C2777 C 0.83487 0.57779 0.12412 0.0
C2778 C 0.80466 0.70774 0.19967 0.0
C2779 C 0.80259 0.68928 0.19104 0.0
C2780 C 0.82614 0.64468 0.18736 0.0
C2781 C 0.81689 0.60374 0.13832 0.0
C2782 C 0.81544 0.62234 0.15216 0.0
C2783 C 0.817 0.67789 0.18643 0.0
C2784 C 0.81531 0.65844 0.17606 0.0
H2785 H 0.79257 0.5678 0.11362 0.0
H2786 H 0.78957 0.59934 0.13205 0.0
H2787 H 0.83485 0.61687 0.18491 0.0
H2788 H 0.84843 0.70899 0.20179 0.0
H2789 H 0.84487 0.6772 0.1874 0.0
C2790 C 0.45319 0.57676 0.21168 0.0
C2791 C 0.43995 0.56642 0.19878 0.0
C2792 C 0.45628 0.59506 0.20275 0.0
C2793 C 0.44989 0.62683 0.14049 0.0
H2794 H 0.44884 0.66623 0.19686 0.0
C2795 C 0.45353 0.70528 0.10939 0.0
C2796 C 0.44015 0.71567 0.12177 0.0
C2797 C 0.45654 0.68704 0.11859 0.0
C2798 C 0.44934 0.65537 0.18084 0.0
H2799 H 0.41987 0.56729 0.16593 0.0
H2800 H 0.42547 0.59854 0.15038 0.0
H2801 H 0.44893 0.63421 0.21355 0.0
H2802 H 0.41969 0.71491 0.15395 0.0
H2803 H 0.42514 0.6837 0.16999 0.0
H2804 H 0.44984 0.64797 0.10776 0.0
C2805 C 0.43341 0.5927 0.16741 0.0
C2806 C 0.44951 0.63703 0.19044 0.0
C2807 C 0.43011 0.57475 0.17664 0.0
C2808 C 0.43005 0.70741 0.14366 0.0
C2809 C 0.43327 0.68949 0.15317 0.0
C2810 C 0.45001 0.64516 0.1309 0.0
C2811 C 0.44651 0.60314 0.18025 0.0
C2812 C 0.44926 0.62252 0.17037 0.0
C2813 C 0.44652 0.67903 0.14085 0.0
C2814 C 0.44921 0.65967 0.15093 0.0
H2815 H 0.46105 0.57079 0.22868 0.0
H2816 H 0.46645 0.60279 0.21314 0.0
H2817 H 0.4498 0.61596 0.12446 0.0
H2818 H 0.46158 0.7112 0.09259 0.0
H2819 H 0.46684 0.6793 0.10861 0.0
C2820 C 0.20957 0.45967 0.94828 0.0
C2821 C 0.19315 0.46575 0.95679 0.0
C2822 C 0.21215 0.4413 0.9395 0.0
C2823 C 0.19142 0.39479 0.94199 0.0
H2824 H 0.21617 0.38522 0.87043 0.0
C2825 C 0.17747 0.33052 0.87564 0.0
C2826 C 0.19125 0.31932 0.86671 0.0
C2827 C 0.18029 0.34814 0.88657 0.0
C2828 C 0.20942 0.38763 0.89064 0.0
H2829 H 0.16681 0.45711 0.96375 0.0
H2830 H 0.17126 0.42554 0.94907 0.0
H2831 H 0.21675 0.41613 0.8918 0.0
H2832 H 0.21889 0.31854 0.86102 0.0
H2833 H 0.22382 0.34985 0.87977 0.0
H2834 H 0.18355 0.36663 0.9404 0.0
C2835 C 0.18224 0.43468 0.94914 0.0
C2836 C 0.20978 0.40534 0.90297 0.0
C2837 C 0.17966 0.4529 0.95754 0.0
C2838 C 0.20797 0.32678 0.86755 0.0
C2839 C 0.2108 0.34467 0.87839 0.0
C2840 C 0.19097 0.37726 0.92963 0.0
C2841 C 0.19843 0.4286 0.93948 0.0
C2842 C 0.20036 0.40929 0.92842 0.0
C2843 C 0.19698 0.35533 0.88886 0.0
C2844 C 0.19955 0.37352 0.90339 0.0
H2845 H 0.22018 0.46929 0.94702 0.0
H2846 H 0.22482 0.43712 0.93237 0.0
H2847 H 0.18438 0.39708 0.96195 0.0
H2848 H 0.16438 0.32545 0.87514 0.0
H2849 H 0.16932 0.35607 0.8938 0.0
C2850 C 0.54958 0.32561 0.94714 0.0
C2851 C 0.56604 0.31934 0.95507 0.0
C2852 C 0.54704 0.34406 0.9386 0.0
C2853 C 0.56816 0.39035 0.94078 0.0
H2854 H 0.54273 0.40067 0.87009 0.0
C2855 C 0.58197 0.45492 0.87448 0.0
C2856 C 0.56817 0.46635 0.8663 0.0
C2857 C 0.57913 0.43722 0.88525 0.0
C2858 C 0.54968 0.39804 0.89006 0.0
H2859 H 0.59253 0.32772 0.96123 0.0
H2860 H 0.58816 0.3594 0.94689 0.0
H2861 H 0.5421 0.36961 0.89126 0.0
H2862 H 0.54047 0.46749 0.86171 0.0
H2863 H 0.53549 0.43606 0.88017 0.0
H2864 H 0.57628 0.41843 0.93911 0.0
C2865 C 0.57711 0.35035 0.94727 0.0
C2866 C 0.54929 0.38025 0.90228 0.0
C2867 C 0.57965 0.33206 0.95546 0.0
C2868 C 0.5514 0.45906 0.86765 0.0
C2869 C 0.54855 0.4411 0.87833 0.0
C2870 C 0.56865 0.40795 0.92852 0.0
C2871 C 0.56086 0.35664 0.93822 0.0
C2872 C 0.55895 0.37604 0.9274 0.0
C2873 C 0.56239 0.4302 0.88811 0.0
C2874 C 0.55983 0.41195 0.90258 0.0
H2875 H 0.53888 0.3161 0.9462 0.0
H2876 H 0.53432 0.34841 0.93193 0.0
H2877 H 0.5754 0.38784 0.9605 0.0
H2878 H 0.59509 0.45988 0.87357 0.0
H2879 H 0.59011 0.4291 0.89195 0.0
C2880 C 0.25849 0.98181 1.01753 0.0
C2881 C 0.25799 0.98334 0.04782 0.0
C2882 C 0.24465 0.97395 1.0027 0.0
C2883 C 0.21338 0.95699 0.97436 0.0
H2884 H 0.17267 0.97984 1.00673 0.0
C2885 C 0.14093 0.98524 0.94171 0.0
C2886 C 0.14601 0.99497 0.91673 0.0
C2887 C 0.15297 0.97503 0.95755 0.0
C2888 C 0.18368 0.97282 0.99759 0.0
H2889 H 0.24407 0.97609 0.08684 0.0
H2890 H 0.22019 0.96156 0.06121 0.0
H2891 H 0.19817 0.97708 0.03616 0.0
H2892 H 0.16713 1.00011 0.88707 0.0
H2893 H 0.18814 0.98286 0.91489 0.0
H2894 H 0.19899 0.95408 0.93493 0.0
C2895 C 0.23083 0.96699 0.04866 0.0
C2896 C 0.19843 0.97121 1.01457 0.0
C2897 C 0.24447 0.9752 0.06335 0.0
C2898 C 0.16296 0.99316 0.90667 0.0
C2899 C 0.17494 0.98294 0.92236 0.0
C2900 C 0.19858 0.95865 0.9573 0.0
C2901 C 0.23025 0.96729 1.01811 0.0
C2902 C 0.21372 0.96415 1.0027 0.0
C2903 C 0.17024 0.97431 0.94854 0.0
C2904 C 0.18389 0.96748 0.96831 0.0
H2905 H 0.26885 0.9881 1.00531 0.0
H2906 H 0.24464 0.97455 0.97918 0.0
H2907 H 0.22483 0.95109 0.96479 0.0
H2908 H 0.12791 0.98631 0.94983 0.0
H2909 H 0.14894 0.96838 0.97752 0.0
C2910 C 0.10117 0.30003 0.92957 0.0
C2911 C 0.11805 0.29419 0.93496 0.0
C2912 C 0.09122 0.30742 0.95179 0.0
C2913 C 0.08659 0.30139 1.02948 0.0
H2914 H 0.04578 0.33021 1.01331 0.0
C2915 C 0.00998 0.30775 0.06287 0.0
C2916 C 0.00686 0.28879 0.06122 0.0
C2917 C 0.02661 0.31464 0.05836 0.0
C2918 C 0.05726 0.32255 1.01884 0.0
H2919 H 0.13828 0.29288 0.96722 0.0
H2920 H 0.12083 0.30589 1.00642 0.0
H2921 H 0.0709 0.33345 0.98228 0.0
H2922 H 0.01863 0.26206 0.05645 0.0
H2923 H 0.0474 0.27381 0.04846 0.0
H2924 H 0.07268 0.28991 0.06529 0.0
C2925 C 0.11525 0.30458 0.98496 0.0
C2926 C 0.07162 0.32425 1.00079 0.0
C2927 C 0.12526 0.29721 0.96253 0.0
C2928 C 0.02072 0.27675 0.05736 0.0
C2929 C 0.03726 0.28354 0.05322 0.0
C2930 C 0.07231 0.29985 0.04772 0.0
C2931 C 0.09791 0.30916 0.98006 0.0
C2932 C 0.0859 0.31263 1.00458 0.0
C2933 C 0.04034 0.30258 0.05262 0.0
C2934 C 0.05704 0.30934 0.04119 0.0
H2935 H 0.09541 0.29821 0.90836 0.0
H2936 H 0.07789 0.31055 0.94715 0.0
H2937 H 0.0974 0.29233 1.03329 0.0
H2938 H 0.99942 0.31725 0.06592 0.0
H2939 H 0.02859 0.32937 0.05813 0.0
C2940 C 0.25648 0.30898 0.2777 0.0
C2941 C 0.25526 0.28992 0.2729 0.0
C2942 C 0.24268 0.31857 0.29021 0.0
C2943 C 0.1961 0.31488 0.29907 0.0
H2944 H 0.20082 0.33591 0.37586 0.0
C2945 C 0.16196 0.30196 0.40949 0.0
C2946 C 0.14502 0.29988 0.3996 0.0
C2947 C 0.17397 0.31159 0.39301 0.0
C2948 C 0.19924 0.33038 0.35421 0.0
H2949 H 0.23921 0.26587 0.2793 0.0
H2950 H 0.21533 0.28247 0.30037 0.0
H2951 H 0.22642 0.33071 0.34617 0.0
H2952 H 0.12674 0.30817 0.36664 0.0
H2953 H 0.14777 0.3253 0.33762 0.0
H2954 H 0.16937 0.31246 0.30789 0.0
C2955 C 0.22667 0.29011 0.29388 0.0
C2956 C 0.2139 0.32759 0.33715 0.0
C2957 C 0.24037 0.2806 0.28186 0.0
C2958 C 0.1398 0.30937 0.3745 0.0
C2959 C 0.15187 0.31911 0.35789 0.0
C2960 C 0.18151 0.31751 0.31612 0.0
C2961 C 0.22752 0.3092 0.29764 0.0
C2962 C 0.21248 0.31858 0.31037 0.0
C2963 C 0.16932 0.31944 0.36616 0.0
C2964 C 0.18308 0.32393 0.34479 0.0
H2965 H 0.26779 0.31653 0.27098 0.0
H2966 H 0.24367 0.33327 0.29338 0.0
H2967 H 0.19472 0.30816 0.27822 0.0
H2968 H 0.16618 0.29524 0.42926 0.0
H2969 H 0.18721 0.31139 0.40023 0.0
C2970 C 1.00163 0.97175 0.28131 0.0
C2971 C 1.00277 0.99084 0.27663 0.0
C2972 C 0.01519 0.96229 0.2949 0.0
C2973 C 0.06136 0.96629 0.30475 0.0
H2974 H 0.05717 0.94651 0.38266 0.0
C2975 C 0.09595 0.98107 0.41431 0.0
C2976 C 0.11272 0.98359 0.4038 0.0
C2977 C 0.08399 0.97101 0.39844 0.0
C2978 C 0.0586 0.95172 0.36072 0.0
H2979 H 0.01819 1.01512 0.28448 0.0
H2980 H 0.04167 0.99877 0.30762 0.0
H2981 H 0.03137 0.95105 0.3531 0.0
H2982 H 0.13084 0.97551 0.37051 0.0
H2983 H 0.10998 0.95753 0.34276 0.0
H2984 H 0.08809 0.96914 0.31301 0.0
C2985 C 0.0306 0.99101 0.30026 0.0
C2986 C 0.04383 0.95411 0.34374 0.0
C2987 C 0.01716 1.00037 0.28708 0.0
C2988 C 0.1179 0.97402 0.37885 0.0
C2989 C 0.10591 0.96381 0.36293 0.0
C2990 C 0.07604 0.96409 0.32171 0.0
C2991 C 0.02998 0.97188 0.3036 0.0
C2992 C 0.04506 0.96264 0.31648 0.0
C2993 C 0.08854 0.96312 0.37166 0.0
C2994 C 0.07468 0.95816 0.35075 0.0
H2995 H 0.99065 0.9641 0.27342 0.0
H2996 H 0.01439 0.94753 0.29772 0.0
H2997 H 0.06257 0.9727 0.28355 0.0
H2998 H 0.09175 0.98778 0.43403 0.0
H2999 H 0.07083 0.97093 0.40608 0.0
C3000 C 0.84321 0.04151 0.16709 0.0
C3001 C 0.86038 0.04281 0.15795 0.0
C3002 C 0.83055 0.05238 0.15433 0.0
C3003 C 0.8042 0.07549 0.12454 0.0
H3004 H 0.81041 0.06889 0.04173 0.0
C3005 C 0.74956 0.06263 0.03778 0.0
C3006 C 0.75241 0.04467 1.02752 0.0
C3007 C 0.76226 0.07163 0.05415 0.0
C3008 C 0.80854 0.07142 0.06472 0.0
H3009 H 0.87805 0.05797 0.13046 0.0
H3010 H 0.85591 0.07727 0.10832 0.0
H3011 H 0.83533 0.06936 0.07316 0.0
H3012 H 0.77017 0.02169 1.02819 0.0
H3013 H 0.79215 0.03735 0.05581 0.0
H3014 H 0.77709 0.07514 0.11588 0.0
C3015 C 0.85217 0.06749 0.12495 0.0
C3016 C 0.82286 0.07176 0.08287 0.0
C3017 C 0.86488 0.05647 0.13768 0.0
C3018 C 0.76778 0.0357 0.03488 0.0
C3019 C 0.78038 0.04466 0.05072 0.0
C3020 C 0.78981 0.07494 0.10631 0.0
C3021 C 0.83473 0.06496 0.13216 0.0
C3022 C 0.82077 0.07226 0.11322 0.0
C3023 C 0.77793 0.06278 0.06 0.0
C3024 C 0.79192 0.07149 0.07658 0.0
H3025 H 0.83937 0.03157 0.18338 0.0
H3026 H 0.81732 0.04982 0.16046 0.0
H3027 H 0.80218 0.07656 0.14777 0.0
H3028 H 0.73781 0.06985 1.03246 0.0
H3029 H 0.76005 0.08553 0.06161 0.0
C3030 C 0.99788 0.72582 1.00404 0.0
C3031 C 1.00088 0.74468 1.00033 0.0
C3032 C 0.98104 0.71929 1.00749 0.0
C3033 C 0.94839 0.7167 0.04416 0.0
H3034 H 0.90897 0.74256 1.01267 0.0
C3035 C 0.89444 0.76061 0.09645 0.0
C3036 C 0.8873 0.74888 0.11739 0.0
C3037 C 0.90357 0.75344 0.07306 0.0
C3038 C 0.91973 0.73484 1.02135 0.0
H3039 H 0.98907 0.77128 0.99462 0.0
H3040 H 0.95981 0.76014 1.00029 0.0
H3041 H 0.93557 0.74109 0.98459 0.0
H3042 H 0.88325 0.7206 0.13007 0.0
H3043 H 0.90001 0.70783 0.08937 0.0
H3044 H 0.93298 0.71173 0.08189 0.0
C3045 C 0.97019 0.75021 1.00055 0.0
C3046 C 0.93495 0.73403 1.00534 0.0
C3047 C 0.98693 0.75669 0.9976 0.0
C3048 C 0.88867 0.72979 0.11394 0.0
C3049 C 0.89819 0.72256 0.09079 0.0
C3050 C 0.93311 0.71741 0.06009 0.0
C3051 C 0.96706 0.73157 1.00675 0.0
C3052 C 0.9498 0.72616 1.01757 0.0
C3053 C 0.90603 0.73438 0.07049 0.0
C3054 C 0.91908 0.72763 0.04968 0.0
H3055 H 0.00858 0.7164 1.00625 0.0
H3056 H 0.97901 0.70486 1.01221 0.0
H3057 H 0.95957 0.71051 0.05423 0.0
H3058 H 0.89344 0.77537 0.09884 0.0
H3059 H 0.9097 0.76292 0.0581 0.0
C3060 C 0.84666 0.73522 0.65323 0.0
C3061 C 0.86335 0.73653 0.66458 0.0
C3062 C 0.83409 0.72508 0.66765 0.0
C3063 C 0.8078 0.70408 0.70142 0.0
H3064 H 0.80922 0.72258 0.78022 0.0
C3065 C 0.75072 0.72148 0.78458 0.0
C3066 C 0.75063 0.74081 0.78521 0.0
C3067 C 0.76414 0.71208 0.77063 0.0
C3068 C 0.80875 0.71673 0.75859 0.0
H3069 H 0.88056 0.72664 0.69806 0.0
H3070 H 0.85851 0.7087 0.72357 0.0
H3071 H 0.83568 0.72023 0.75267 0.0
H3072 H 0.76348 0.76541 0.77004 0.0
H3073 H 0.78675 0.74913 0.74583 0.0
H3074 H 0.78039 0.70286 0.70672 0.0
C3075 C 0.85507 0.7158 0.70368 0.0
C3076 C 0.82394 0.71531 0.74271 0.0
C3077 C 0.86771 0.726 0.6891 0.0
C3078 C 0.76343 0.75053 0.7702 0.0
C3079 C 0.7767 0.74125 0.75642 0.0
C3080 C 0.79254 0.70567 0.71732 0.0
C3081 C 0.8379 0.71597 0.69387 0.0
C3082 C 0.82348 0.71031 0.71322 0.0
C3083 C 0.77745 0.72203 0.75727 0.0
C3084 C 0.79288 0.71314 0.74533 0.0
H3085 H 0.84308 0.7428 0.63387 0.0
H3086 H 0.82108 0.72574 0.65938 0.0
H3087 H 0.80707 0.69969 0.67899 0.0
H3088 H 0.74099 0.71373 0.79616 0.0
H3089 H 0.76453 0.69721 0.77131 0.0
C3090 C 0.88941 0.06054 0.68938 0.0
C3091 C 0.89452 0.05159 0.66383 0.0
C3092 C 0.90138 0.07068 0.70548 0.0
C3093 C 0.9317 0.07 0.74577 0.0
H3094 H 0.97577 0.08491 0.71397 0.0
C3095 C 0.99176 0.03469 0.77713 0.0
C3096 C 0.00573 0.04446 0.78859 0.0
C3097 C 0.97811 0.04389 0.76427 0.0
C3098 C 0.96347 0.08131 0.72346 0.0
H3099 H 0.91524 0.04842 0.63283 0.0
H3100 H 0.93613 0.06523 0.66098 0.0
H3101 H 0.94958 0.08946 0.68538 0.0
H3102 H 0.01693 0.07151 0.7939 0.0
H3103 H 0.99281 0.08784 0.77026 0.0
H3104 H 0.94574 0.06083 0.78301 0.0
C3105 C 0.92305 0.0647 0.66897 0.0
C3106 C 0.94848 0.08371 0.70704 0.0
C3107 C 0.91113 0.0547 0.65296 0.0
C3108 C 0.00629 0.06368 0.78519 0.0
C3109 C 0.99252 0.073 0.77196 0.0
C3110 C 0.9466 0.06778 0.76218 0.0
C3111 C 0.91864 0.07192 0.6963 0.0
C3112 C 0.93264 0.07668 0.71708 0.0
C3113 C 0.9781 0.06311 0.76232 0.0
C3114 C 0.96269 0.07214 0.75026 0.0
H3115 H 0.87659 0.05856 0.698 0.0
H3116 H 0.89741 0.07643 0.7261 0.0
H3117 H 0.91985 0.06446 0.75449 0.0
H3118 H 0.99119 0.01986 0.77883 0.0
H3119 H 0.96733 0.03595 0.75622 0.0
C3120 C 0.26862 0.48686 0.49908 0.0
C3121 C 0.26219 0.48689 0.52762 0.0
C3122 C 0.25842 0.48047 0.47616 0.0
C3123 C 0.21725 0.4564 0.45953 0.0
H3124 H 0.21009 0.49676 0.40571 0.0
C3125 C 0.15265 0.48539 0.43317 0.0
C3126 C 0.14923 0.494 0.40654 0.0
C3127 C 0.16837 0.47679 0.43796 0.0
C3128 C 0.21217 0.485 0.41977 0.0
H3129 H 0.24087 0.47889 0.55507 0.0
H3130 H 0.22307 0.46782 0.51541 0.0
H3131 H 0.23635 0.49549 0.43418 0.0
H3132 H 0.15885 0.49951 0.3633 0.0
H3133 H 0.18692 0.48483 0.37193 0.0
H3134 H 0.19232 0.44687 0.44692 0.0
C3135 C 0.23591 0.47266 0.51046 0.0
C3136 C 0.22726 0.48428 0.43616 0.0
C3137 C 0.24598 0.47924 0.53318 0.0
C3138 C 0.16133 0.49288 0.38398 0.0
C3139 C 0.17729 0.48453 0.38894 0.0
C3140 C 0.20216 0.45714 0.44315 0.0
C3141 C 0.24177 0.47374 0.48159 0.0
C3142 C 0.22937 0.47068 0.45763 0.0
C3143 C 0.18113 0.4769 0.41632 0.0
C3144 C 0.19898 0.47215 0.42464 0.0
H3145 H 0.28111 0.49271 0.49432 0.0
H3146 H 0.26325 0.48147 0.45413 0.0
H3147 H 0.21874 0.44554 0.47549 0.0
H3148 H 0.14339 0.48606 0.45072 0.0
H3149 H 0.17097 0.47131 0.45944 0.0
C3150 C 0.11628 0.77506 0.46868 0.0
C3151 C 0.12321 0.7871 0.44799 0.0
C3152 C 0.1069 0.78184 0.49208 0.0
C3153 C 0.09067 0.79989 0.54432 0.0
H3154 H 0.05006 0.82342 0.51266 0.0
C3155 C 0.01263 0.80793 0.56465 0.0
C3156 C 0.00989 0.78908 0.56898 0.0
C3157 C 0.02934 0.81463 0.56031 0.0
C3158 C 0.06146 0.81745 0.52238 0.0
H3159 H 0.12655 0.81554 0.43565 0.0
H3160 H 0.10935 0.82761 0.47638 0.0
H3161 H 0.07637 0.82267 0.48415 0.0
H3162 H 0.02209 0.76269 0.57488 0.0
H3163 H 0.05112 0.77413 0.56764 0.0
H3164 H 0.07537 0.79346 0.58165 0.0
C3165 C 0.11153 0.81295 0.47477 0.0
C3166 C 0.07656 0.817 0.50595 0.0
C3167 C 0.1213 0.80612 0.45161 0.0
C3168 C 0.02402 0.77728 0.57144 0.0
C3169 C 0.04064 0.78392 0.56757 0.0
C3170 C 0.07562 0.80046 0.56083 0.0
C3171 C 0.10398 0.80081 0.4949 0.0
C3172 C 0.09089 0.80711 0.51598 0.0
C3173 C 0.04347 0.80253 0.56074 0.0
C3174 C 0.06051 0.80806 0.5491 0.0
H3175 H 0.11768 0.76035 0.4661 0.0
H3176 H 0.101 0.77211 0.50692 0.0
H3177 H 0.10166 0.79242 0.5527 0.0
H3178 H 1.0018 0.81719 0.56263 0.0
H3179 H 0.03114 0.82903 0.55515 0.0
C3180 C 0.25794 0.81033 0.78211 0.0
C3181 C 0.2558 0.7918 0.77413 0.0
C3182 C 0.24457 0.81979 0.79615 0.0
C3183 C 0.19777 0.81784 0.80474 0.0
H3184 H 0.20353 0.83345 0.88451 0.0
C3185 C 0.16364 0.79943 0.9137 0.0
C3186 C 0.14659 0.79852 0.90386 0.0
C3187 C 0.1759 0.80945 0.89836 0.0
C3188 C 0.20167 0.82942 0.8621 0.0
H3189 H 0.23857 0.76841 0.77648 0.0
H3190 H 0.21548 0.78478 0.8002 0.0
H3191 H 0.22882 0.82919 0.85371 0.0
H3192 H 0.12849 0.80922 0.87238 0.0
H3193 H 0.14994 0.82709 0.84547 0.0
H3194 H 0.17101 0.81586 0.81357 0.0
C3195 C 0.22718 0.79219 0.79501 0.0
C3196 C 0.21616 0.82719 0.84441 0.0
C3197 C 0.24044 0.7828 0.78146 0.0
C3198 C 0.14162 0.80948 0.88016 0.0
C3199 C 0.15394 0.81964 0.86473 0.0
C3200 C 0.18335 0.81986 0.8224 0.0
C3201 C 0.22893 0.81084 0.80195 0.0
C3202 C 0.21433 0.82007 0.81632 0.0
C3203 C 0.17142 0.81892 0.87276 0.0
C3204 C 0.18526 0.82424 0.85198 0.0
H3205 H 0.26966 0.8176 0.77672 0.0
H3206 H 0.24627 0.83411 0.8018 0.0
H3207 H 0.19607 0.81262 0.78289 0.0
H3208 H 0.16773 0.79158 0.93249 0.0
H3209 H 0.18915 0.80839 0.90536 0.0
C3210 C 0.12469 0.48728 0.85502 0.0
C3211 C 0.11873 0.48715 0.88384 0.0
C3212 C 0.11445 0.48007 0.83272 0.0
C3213 C 0.07391 0.45389 0.81872 0.0
H3214 H 0.06487 0.49283 0.76311 0.0
C3215 C 0.00783 0.47917 0.79039 0.0
C3216 C 1.00407 0.48638 0.76287 0.0
C3217 C 0.02397 0.47176 0.79619 0.0
C3218 C 0.06747 0.48148 0.77777 0.0
H3219 H 0.0984 0.47798 0.91247 0.0
H3220 H 0.08058 0.46549 0.87399 0.0
H3221 H 0.09138 0.49322 0.79103 0.0
H3222 H 0.01362 0.49077 0.7193 0.0
H3223 H 0.0424 0.47824 0.72965 0.0
H3224 H 0.0492 0.44314 0.80725 0.0
C3225 C 0.09304 0.47106 0.86826 0.0
C3226 C 0.08271 0.4817 0.79382 0.0
C3227 C 0.10313 0.47842 0.89034 0.0
C3228 C 0.01634 0.48514 0.74062 0.0
C3229 C 0.03272 0.47805 0.74657 0.0
C3230 C 0.05863 0.45373 0.80277 0.0
C3231 C 0.09827 0.4724 0.83907 0.0
C3232 C 0.08555 0.46856 0.81579 0.0
C3233 C 0.0368 0.47175 0.77468 0.0
C3234 C 0.05482 0.46817 0.78349 0.0
H3235 H 0.1367 0.49396 0.84955 0.0
H3236 H 0.11884 0.48123 0.81045 0.0
H3237 H 0.07593 0.44335 0.83505 0.0
H3238 H 0.99846 0.48005 0.80776 0.0
H3239 H 0.02677 0.46731 0.81818 0.0
C3240 C 0.76382 0.55931 0.51191 0.0
C3241 C 0.74744 0.55465 0.52238 0.0
C3242 C 0.77609 0.56687 0.53037 0.0
C3243 C 0.80218 0.58045 0.57305 0.0
H3244 H 0.80119 0.54736 0.63916 0.0
C3245 C 0.86068 0.55364 0.64531 0.0
C3246 C 0.86135 0.53444 0.64198 0.0
C3247 C 0.84665 0.56363 0.63429 0.0
C3248 C 0.80155 0.55706 0.62123 0.0
H3249 H 0.73025 0.55646 0.55921 0.0
H3250 H 0.75168 0.57 0.59172 0.0
H3251 H 0.77478 0.55395 0.61333 0.0
H3252 H 0.84885 0.5109 0.62256 0.0
H3253 H 0.82452 0.52816 0.60363 0.0
H3254 H 0.82951 0.58179 0.57966 0.0
C3255 C 0.75519 0.56739 0.56933 0.0
C3256 C 0.78636 0.56099 0.60646 0.0
C3257 C 0.74287 0.55974 0.55074 0.0
C3258 C 0.84846 0.52562 0.62591 0.0
C3259 C 0.83456 0.53547 0.61516 0.0
C3260 C 0.81746 0.5764 0.58786 0.0
C3261 C 0.77226 0.56997 0.55982 0.0
C3262 C 0.78666 0.57171 0.58097 0.0
C3263 C 0.83324 0.55441 0.62004 0.0
C3264 C 0.81731 0.56377 0.61091 0.0
H3265 H 0.76751 0.55596 0.48986 0.0
H3266 H 0.78901 0.56858 0.52205 0.0
H3267 H 0.80279 0.58915 0.55394 0.0
H3268 H 0.87046 0.56073 0.65772 0.0
H3269 H 0.8459 0.5783 0.63799 0.0
C3270 C 0.98617 0.2567 0.50212 0.0
C3271 C 1.00049 0.24508 0.50089 0.0
C3272 C 0.96989 0.24958 0.50753 0.0
C3273 C 0.93564 0.23264 0.51912 0.0
H3274 H 0.93991 0.20409 0.58997 0.0
C3275 C 0.88423 0.23806 0.60745 0.0
C3276 C 0.89162 0.24271 0.63433 0.0
C3277 C 0.89431 0.23037 0.58539 0.0
C3278 C 0.93841 0.2119 0.57004 0.0
H3279 H 0.00906 0.21684 0.50174 0.0
H3280 H 0.98034 0.20412 0.5116 0.0
H3281 H 0.96405 0.2059 0.55661 0.0
H3282 H 0.91491 0.24145 0.66003 0.0
H3283 H 0.93253 0.22867 0.62174 0.0
H3284 H 0.91071 0.24032 0.53415 0.0
C3285 C 0.98173 0.21879 0.50842 0.0
C3286 C 0.9522 0.21273 0.55064 0.0
C3287 C 0.99811 0.226 0.50266 0.0
C3288 C 0.90894 0.2384 0.63936 0.0
C3289 C 0.91898 0.23072 0.61747 0.0
C3290 C 0.92193 0.232 0.5387 0.0
C3291 C 0.96756 0.23062 0.51212 0.0
C3292 C 0.95138 0.22419 0.52602 0.0
C3293 C 0.91194 0.2271 0.58991 0.0
C3294 C 0.92364 0.22265 0.56535 0.0
H3295 H 0.98778 0.27145 0.50055 0.0
H3296 H 0.95942 0.25919 0.51054 0.0
H3297 H 0.93445 0.24118 0.49989 0.0
H3298 H 0.87089 0.24119 0.60296 0.0
H3299 H 0.88846 0.22761 0.5645 0.0
C3300 C 0.76175 0.22759 0.31244 0.0
C3301 C 0.75861 0.24648 0.31518 0.0
C3302 C 0.77863 0.22116 0.30933 0.0
C3303 C 0.81142 0.21848 0.2729 0.0
H3304 H 0.85044 0.24516 0.30391 0.0
C3305 C 0.86432 0.26328 0.21962 0.0
C3306 C 0.87194 0.25164 0.19918 0.0
C3307 C 0.8553 0.25599 0.2431 0.0
C3308 C 0.83981 0.2372 0.29541 0.0
H3309 H 0.77024 0.27327 0.31953 0.0
H3310 H 0.79957 0.26229 0.31442 0.0
H3311 H 0.8238 0.24347 0.33187 0.0
H3312 H 0.87691 0.2234 0.18749 0.0
H3313 H 0.86029 0.2104 0.22831 0.0
H3314 H 0.82697 0.21354 0.23537 0.0
C3315 C 0.78925 0.25228 0.31463 0.0
C3316 C 0.82457 0.23625 0.31135 0.0
C3317 C 0.77248 0.25866 0.31722 0.0
C3318 C 0.8711 0.23254 0.2032 0.0
C3319 C 0.86167 0.22517 0.22643 0.0
C3320 C 0.82672 0.21932 0.25704 0.0
C3321 C 0.79252 0.23356 0.30951 0.0
C3322 C 0.80984 0.22812 0.2992 0.0
C3323 C 0.85343 0.23688 0.24627 0.0
C3324 C 0.84057 0.22986 0.26724 0.0
H3325 H 0.75112 0.21803 0.31083 0.0
H3326 H 0.78077 0.20667 0.30539 0.0
H3327 H 0.80033 0.21209 0.26293 0.0
H3328 H 0.86495 0.27805 0.21686 0.0
H3329 H 0.84883 0.26537 0.25771 0.0
C3330 C 0.89153 0.55104 0.19095 0.0
C3331 C 0.89595 0.54 0.16712 0.0
C3332 C 0.90411 0.56155 0.20494 0.0
C3333 C 0.93568 0.56498 0.24313 0.0
H3334 H 0.97676 0.58343 0.20514 0.0
C3335 C 0.01029 0.55389 0.26045 0.0
C3336 C 0.01042 0.5542 0.29084 0.0
C3337 C 0.99653 0.56166 0.24519 0.0
C3338 C 0.96534 0.57849 0.21614 0.0
H3339 H 0.91643 0.53273 0.1374 0.0
H3340 H 0.93835 0.55058 0.16192 0.0
H3341 H 0.95026 0.57981 0.17723 0.0
H3342 H 0.99771 0.56437 0.32926 0.0
H3343 H 0.97396 0.57869 0.30276 0.0
H3344 H 0.95083 0.56236 0.28141 0.0
C3345 C 0.92528 0.55128 0.16996 0.0
C3346 C 0.95016 0.57645 0.20019 0.0
C3347 C 0.91278 0.54076 0.15618 0.0
C3348 C 0.9977 0.56402 0.30573 0.0
C3349 C 0.9841 0.57205 0.29055 0.0
C3350 C 0.9508 0.56701 0.25903 0.0
C3351 C 0.92126 0.5613 0.19511 0.0
C3352 C 0.93545 0.56872 0.21318 0.0
C3353 C 0.9828 0.56995 0.26026 0.0
C3354 C 0.96605 0.57288 0.24538 0.0
H3355 H 0.8786 0.55077 0.19964 0.0
H3356 H 0.9006 0.56925 0.22415 0.0
H3357 H 0.92466 0.55886 0.25382 0.0
H3358 H 0.01998 0.54619 0.24875 0.0
H3359 H 0.99594 0.55964 0.22191 0.0
C3360 C 0.77101 0.98664 0.49829 0.0
C3361 C 0.76526 0.98405 0.52696 0.0
C3362 C 0.7605 0.98166 0.47486 0.0
C3363 C 0.71914 0.95811 0.45626 0.0
H3364 H 0.71106 1.00168 0.40955 0.0
C3365 C 0.6536 0.98744 0.43366 0.0
C3366 C 0.64996 0.99661 0.40756 0.0
C3367 C 0.66962 0.9794 0.43812 0.0
C3368 C 0.71338 0.98913 0.42165 0.0
H3369 H 0.74502 0.97271 0.55376 0.0
H3370 H 0.7267 0.96412 0.51333 0.0
H3371 H 0.73767 0.99884 0.43688 0.0
H3372 H 0.65966 1.00391 0.36504 0.0
H3373 H 0.68825 0.99028 0.37317 0.0
H3374 H 0.69407 0.94928 0.44304 0.0
C3375 C 0.73922 0.96991 0.50857 0.0
C3376 C 0.72867 0.98747 0.43736 0.0
C3377 C 0.7496 0.97503 0.53183 0.0
C3378 C 0.66228 0.9968 0.38527 0.0
C3379 C 0.67854 0.98906 0.38995 0.0
C3380 C 0.7038 0.95983 0.44071 0.0
C3381 C 0.74422 0.97382 0.47982 0.0
C3382 C 0.73122 0.97249 0.45626 0.0
C3383 C 0.68247 0.98066 0.41673 0.0
C3384 C 0.70037 0.97588 0.42469 0.0
H3385 H 0.78306 0.99359 0.49405 0.0
H3386 H 0.76475 0.98474 0.45295 0.0
H3387 H 0.72092 0.94619 0.47011 0.0
H3388 H 0.64419 0.98713 0.45102 0.0
H3389 H 0.67232 0.97329 0.45914 0.0
C3390 C 0.50053 0.3103 0.53335 0.0
C3391 C 0.50197 0.29135 0.53925 0.0
C3392 C 0.51396 0.31967 0.51922 0.0
C3393 C 0.56008 0.31689 0.50995 0.0
H3394 H 0.55584 0.33159 0.42929 0.0
C3395 C 0.59568 0.29631 0.40388 0.0
C3396 C 0.61265 0.29581 0.41412 0.0
C3397 C 0.58324 0.30662 0.4182 0.0
C3398 C 0.55728 0.32788 0.45198 0.0
H3399 H 0.51787 0.26722 0.53306 0.0
H3400 H 0.54114 0.28347 0.50915 0.0
H3401 H 0.53 0.32815 0.45913 0.0
H3402 H 0.63044 0.30731 0.44531 0.0
H3403 H 0.60863 0.32556 0.47059 0.0
H3404 H 0.58695 0.31438 0.50239 0.0
C3405 C 0.52992 0.29117 0.51594 0.0
C3406 C 0.54248 0.32611 0.46908 0.0
C3407 C 0.51659 0.28187 0.5296 0.0
C3408 C 0.61737 0.30729 0.43724 0.0
C3409 C 0.60487 0.31768 0.4517 0.0
C3410 C 0.57481 0.3185 0.4929 0.0
C3411 C 0.52892 0.31017 0.51123 0.0
C3412 C 0.54377 0.31932 0.49752 0.0
C3413 C 0.58748 0.31673 0.4432 0.0
C3414 C 0.57344 0.32258 0.46309 0.0
H3415 H 0.4894 0.31793 0.54057 0.0
H3416 H 0.51289 0.33431 0.51534 0.0
H3417 H 0.56132 0.31175 0.53199 0.0
H3418 H 0.5918 0.28801 0.38553 0.0
H3419 H 0.57006 0.30534 0.41096 0.0
C3420 C 0.75728 0.31181 0.78003 0.0
C3421 C 0.75636 0.29262 0.77669 0.0
C3422 C 0.74373 0.32135 0.79343 0.0
C3423 C 0.69776 0.31685 0.80381 0.0
H3424 H 0.70134 0.33918 0.87984 0.0
C3425 C 0.66213 0.30595 0.91391 0.0
C3426 C 0.64549 0.30297 0.90314 0.0
C3427 C 0.67425 0.31544 0.89742 0.0
C3428 C 0.70008 0.33323 0.8584 0.0
H3429 H 0.74148 0.26827 0.78677 0.0
H3430 H 0.71803 0.28473 0.80975 0.0
H3431 H 0.72736 0.33384 0.85118 0.0
H3432 H 0.62774 0.30975 0.86853 0.0
H3433 H 0.64886 0.32678 0.83968 0.0
H3434 H 0.67099 0.31414 0.81182 0.0
C3435 C 0.72889 0.29249 0.8015 0.0
C3436 C 0.71498 0.33038 0.84193 0.0
C3437 C 0.74231 0.28308 0.78845 0.0
C3438 C 0.64057 0.31161 0.87712 0.0
C3439 C 0.65272 0.32127 0.86057 0.0
C3440 C 0.68295 0.31951 0.82027 0.0
C3441 C 0.7292 0.31171 0.80333 0.0
C3442 C 0.71396 0.32101 0.81543 0.0
C3443 C 0.67 0.3223 0.86972 0.0
C3444 C 0.68408 0.32645 0.84872 0.0
H3445 H 0.76799 0.31945 0.77108 0.0
H3446 H 0.74427 0.33618 0.79503 0.0
H3447 H 0.69671 0.30977 0.78319 0.0
H3448 H 0.66612 0.29995 0.93439 0.0
H3449 H 0.68733 0.31584 0.90543 0.0
C3450 C 0.50035 0.97392 0.78252 0.0
C3451 C 0.50142 0.99264 0.77492 0.0
C3452 C 0.51405 0.96531 0.79709 0.0
C3453 C 0.5604 0.97019 0.80665 0.0
H3454 H 0.55548 0.9531 0.88602 0.0
C3455 C 0.59517 0.98698 0.91606 0.0
C3456 C 0.61217 0.98818 0.90601 0.0
C3457 C 0.58284 0.97734 0.90037 0.0
C3458 C 0.55711 0.95756 0.86371 0.0
H3459 H 0.51699 1.01725 0.77854 0.0
H3460 H 0.5407 1.00234 0.80323 0.0
H3461 H 0.52995 0.95669 0.85548 0.0
H3462 H 0.63008 0.97838 0.87354 0.0
H3463 H 0.60853 0.96116 0.84613 0.0
H3464 H 0.5871 0.97312 0.81531 0.0
C3465 C 0.52958 0.99417 0.79738 0.0
C3466 C 0.54249 0.95942 0.84619 0.0
C3467 C 0.51598 1.00271 0.78327 0.0
C3468 C 0.61701 0.9779 0.88157 0.0
C3469 C 0.60464 0.96811 0.86584 0.0
C3470 C 0.57493 0.9685 0.82412 0.0
C3471 C 0.52894 0.97535 0.80384 0.0
C3472 C 0.54398 0.96695 0.81823 0.0
C3473 C 0.58722 0.96854 0.87423 0.0
C3474 C 0.57331 0.96346 0.85353 0.0
H3475 H 0.48927 0.96584 0.77633 0.0
H3476 H 0.51323 0.95082 0.80232 0.0
H3477 H 0.56183 0.9758 0.78493 0.0
H3478 H 0.59117 0.99427 0.93538 0.0
H3479 H 0.56962 0.97814 0.90763 0.0
C3480 C 0.24136 0.06145 0.55028 0.0
C3481 C 0.24689 0.05599 0.52258 0.0
C3482 C 0.25308 0.06904 0.56998 0.0
C3483 C 0.28239 0.06228 0.61081 0.0
H3484 H 0.32735 0.08012 0.58757 0.0
C3485 C 0.34183 0.02366 0.63945 0.0
C3486 C 0.35654 0.03253 0.65012 0.0
C3487 C 0.32797 0.03377 0.62914 0.0
C3488 C 0.3148 0.07554 0.59481 0.0
H3489 H 0.26813 0.05677 0.4922 0.0
H3490 H 0.28861 0.06906 0.5264 0.0
H3491 H 0.302 0.08878 0.55929 0.0
H3492 H 0.36856 0.05905 0.6571 0.0
H3493 H 0.34416 0.07692 0.63797 0.0
H3494 H 0.29529 0.0484 0.64548 0.0
C3495 C 0.27539 0.06771 0.53338 0.0
C3496 C 0.30028 0.08033 0.57849 0.0
C3497 C 0.26369 0.06029 0.51377 0.0
C3498 C 0.35739 0.05184 0.64894 0.0
C3499 C 0.34343 0.06206 0.63827 0.0
C3500 C 0.29682 0.05768 0.62718 0.0
C3501 C 0.27052 0.07111 0.56232 0.0
C3502 C 0.28412 0.07254 0.585 0.0
C3503 C 0.32844 0.05304 0.629 0.0
C3504 C 0.31326 0.06313 0.61805 0.0
H3505 H 0.22839 0.05853 0.55749 0.0
H3506 H 0.24875 0.07198 0.59185 0.0
H3507 H 0.27026 0.05604 0.6168 0.0
H3508 H 0.34095 1.00882 0.63931 0.0
H3509 H 0.3168 0.02644 0.62116 0.0
C3510 C 0.39534 0.72751 0.63668 0.0
C3511 C 0.39961 0.7386 0.66054 0.0
C3512 C 0.40814 0.7177 0.62199 0.0
C3513 C 0.43828 0.71738 0.58114 0.0
H3514 H 0.48319 0.70799 0.6147 0.0
C3515 C 0.49645 0.75252 0.54072 0.0
C3516 C 0.51034 0.7424 0.52979 0.0
C3517 C 0.4835 0.74389 0.55638 0.0
C3518 C 0.47068 0.70999 0.60487 0.0
H3519 H 0.42017 0.74617 0.68997 0.0
H3520 H 0.44242 0.73005 0.66392 0.0
H3521 H 0.45743 0.70483 0.64487 0.0
H3522 H 0.52225 0.71552 0.52827 0.0
H3523 H 0.49934 0.70022 0.55676 0.0
H3524 H 0.45164 0.72364 0.54173 0.0
C3525 C 0.42931 0.72862 0.65636 0.0
C3526 C 0.45593 0.70841 0.62214 0.0
C3527 C 0.41656 0.73827 0.67105 0.0
C3528 C 0.51164 0.72357 0.53653 0.0
C3529 C 0.49856 0.71485 0.55254 0.0
C3530 C 0.45295 0.71878 0.56392 0.0
C3531 C 0.42545 0.7189 0.63082 0.0
C3532 C 0.43971 0.71349 0.61101 0.0
C3533 C 0.48416 0.72494 0.56166 0.0
C3534 C 0.46929 0.71636 0.5762 0.0
H3535 H 0.38234 0.72729 0.6283 0.0
H3536 H 0.40462 0.71004 0.60274 0.0
H3537 H 0.42611 0.72138 0.5716 0.0
H3538 H 0.49535 0.7671 0.53639 0.0
H3539 H 0.47271 0.75201 0.56388 0.0
C3540 C 0.34789 0.74245 0.1394 0.0
C3541 C 0.35945 0.74379 0.16275 0.0
C3542 C 0.33168 0.73451 0.14355 0.0
C3543 C 0.30542 0.70729 0.19555 0.0
H3544 H 0.27139 0.74561 0.18501 0.0
C3545 C 0.2603 0.72885 0.28317 0.0
C3546 C 0.24458 0.73742 0.2771 0.0
C3547 C 0.27035 0.72187 0.26077 0.0
C3548 C 0.28042 0.73438 0.18734 0.0
H3549 H 0.36394 0.7367 0.20776 0.0
H3550 H 0.33585 0.72261 0.21505 0.0
H3551 H 0.29838 0.74727 0.15859 0.0
H3552 H 0.22631 0.74429 0.24334 0.0
H3553 H 0.24416 0.73231 0.20359 0.0
H3554 H 0.28798 0.69518 0.22607 0.0
C3555 C 0.33914 0.72769 0.19359 0.0
C3556 C 0.29595 0.73536 0.17217 0.0
C3557 C 0.35512 0.73594 0.1896 0.0
C3558 C 0.23844 0.73773 0.24841 0.0
C3559 C 0.24865 0.73093 0.22577 0.0
C3560 C 0.28986 0.70625 0.21058 0.0
C3561 C 0.32705 0.7274 0.1709 0.0
C3562 C 0.30903 0.72253 0.17777 0.0
C3563 C 0.26498 0.72348 0.23169 0.0
C3564 C 0.27777 0.72053 0.20825 0.0
H3565 H 0.35105 0.74848 0.11852 0.0
H3566 H 0.32254 0.73454 0.12579 0.0
H3567 H 0.31522 0.69706 0.19984 0.0
H3568 H 0.26515 0.72828 0.30522 0.0
H3569 H 0.28293 0.71648 0.26617 0.0
C3570 C 0.51556 0.06216 0.26319 0.0
C3571 C 0.51046 0.05461 0.28993 0.0
C3572 C 0.50342 0.07073 0.24517 0.0
C3573 C 0.47347 0.06594 0.20472 0.0
H3574 H 0.42876 0.08141 0.23283 0.0
C3575 C 0.41441 0.02668 0.17877 0.0
C3576 C 0.39961 0.03527 0.16781 0.0
C3577 C 0.4281 0.03703 0.189 0.0
C3578 C 0.44122 0.07759 0.22425 0.0
H3579 H 0.48954 0.05237 0.32073 0.0
H3580 H 0.46839 0.06659 0.28948 0.0
H3581 H 0.45457 0.08892 0.26072 0.0
H3582 H 0.38719 0.06156 0.16049 0.0
H3583 H 0.4113 0.07988 0.17967 0.0
H3584 H 0.46001 0.05365 0.16926 0.0
C3585 C 0.48157 0.06613 0.28196 0.0
C3586 C 0.456 0.08172 0.24031 0.0
C3587 C 0.49364 0.05764 0.29981 0.0
C3588 C 0.39844 0.05457 0.16884 0.0
C3589 C 0.41223 0.06504 0.17951 0.0
C3590 C 0.45877 0.06197 0.18865 0.0
C3591 C 0.48603 0.07181 0.25369 0.0
C3592 C 0.47211 0.0746 0.23191 0.0
C3593 C 0.42734 0.05627 0.18887 0.0
C3594 C 0.44246 0.06654 0.19944 0.0
H3595 H 0.52853 0.06017 0.25529 0.0
H3596 H 0.50739 0.0753 0.22378 0.0
H3597 H 0.48556 0.06028 0.1973 0.0
H3598 H 0.41553 1.01185 0.17906 0.0
H3599 H 0.4394 0.02992 0.19702 0.0
C3600 C 0.65854 0.48484 0.92887 0.0
C3601 C 0.64141 0.49002 0.93365 0.0
C3602 C 0.66815 0.4768 0.95104 0.0
C3603 C 0.67064 0.47941 1.02957 0.0
H3604 H 0.71283 0.45312 1.01319 0.0
C3605 C 0.74694 0.47543 0.06512 0.0
C3606 C 0.74911 0.49458 0.06525 0.0
C3607 C 0.73067 0.46783 0.05993 0.0
C3608 C 0.70095 0.46001 1.01877 0.0
H3609 H 0.62045 0.48945 0.96468 0.0
H3610 H 0.63726 0.47521 1.00361 0.0
H3611 H 0.68858 0.45028 0.98028 0.0
H3612 H 0.73604 0.52075 0.0632 0.0
H3613 H 0.7079 0.50778 0.05397 0.0
H3614 H 0.68327 0.48971 0.06744 0.0
C3615 C 0.64332 0.4776 0.98274 0.0
C3616 C 0.68709 0.45857 0.99963 0.0
C3617 C 0.63366 0.48568 0.96042 0.0
C3618 C 0.73467 0.50595 0.06271 0.0
C3619 C 0.71849 0.49844 0.05786 0.0
C3620 C 0.68441 0.48064 0.04891 0.0
C3621 C 0.66086 0.47368 0.97861 0.0
C3622 C 0.67234 0.46945 1.00359 0.0
C3623 C 0.71638 0.47932 0.05521 0.0
C3624 C 0.70018 0.47219 0.04238 0.0
H3625 H 0.66473 0.48763 0.90825 0.0
H3626 H 0.68164 0.47422 0.947 0.0
H3627 H 0.65943 0.48784 1.03359 0.0
H3628 H 0.75796 0.46643 0.06714 0.0
H3629 H 0.72944 0.45305 0.05818 0.0
C3630 C 0.61852 0.80355 0.94413 0.0
C3631 C 0.62006 0.78438 0.94217 0.0
C3632 C 0.60835 0.81139 0.96594 0.0
C3633 C 0.57262 0.81674 0.99491 0.0
H3634 H 0.5707 0.79619 0.07271 0.0
C3635 C 0.51997 0.77825 0.06115 0.0
C3636 C 0.50573 0.78987 0.05862 0.0
C3637 C 0.53649 0.78505 0.05686 0.0
C3638 C 0.57117 0.80242 0.0513 0.0
H3639 H 0.61339 0.75839 0.96196 0.0
H3640 H 0.59601 0.77194 1.0005 0.0
H3641 H 0.59737 0.79439 0.04489 0.0
H3642 H 0.49728 0.81778 0.0513 0.0
H3643 H 0.52647 0.82984 0.04273 0.0
H3644 H 0.54594 0.82299 1.00003 0.0
C3645 C 0.60249 0.78099 0.98529 0.0
C3646 C 0.58643 0.80142 0.03545 0.0
C3647 C 0.61224 0.7732 0.96316 0.0
C3648 C 0.50822 0.80867 0.05334 0.0
C3649 C 0.52483 0.8155 0.04847 0.0
C3650 C 0.5573 0.81763 1.01071 0.0
C3651 C 0.60008 0.80011 0.98648 0.0
C3652 C 0.58689 0.80743 1.00643 0.0
C3653 C 0.53908 0.80362 0.04949 0.0
C3654 C 0.55614 0.80925 0.03822 0.0
H3655 H 0.62447 0.81232 0.92794 0.0
H3656 H 0.60652 0.82614 0.96629 0.0
H3657 H 0.57266 0.82147 0.97255 0.0
H3658 H 0.51822 0.76372 0.06537 0.0
H3659 H 0.54711 0.77543 0.05731 0.0
C3660 C 0.63773 0.798 0.35668 0.0
C3661 C 0.64377 0.79649 0.38536 0.0
C3662 C 0.64818 0.80573 0.33505 0.0
C3663 C 0.68938 0.83101 0.32324 0.0
H3664 H 0.69737 0.79421 0.26406 0.0
C3665 C 0.7546 0.80462 0.29358 0.0
C3666 C 0.75823 0.79793 0.26576 0.0
C3667 C 0.73873 0.81259 0.29956 0.0
C3668 C 0.69508 0.80502 0.27972 0.0
H3669 H 0.66461 0.80322 0.41456 0.0
H3670 H 0.68283 0.8166 0.37718 0.0
H3671 H 0.67085 0.7935 0.29193 0.0
H3672 H 0.74879 0.79518 0.2218 0.0
H3673 H 0.72049 0.80874 0.23242 0.0
H3674 H 0.71435 0.84149 0.3127 0.0
C3675 C 0.67011 0.81191 0.37111 0.0
C3676 C 0.67983 0.80461 0.29576 0.0
C3677 C 0.6598 0.80401 0.39251 0.0
C3678 C 0.74617 0.80036 0.24339 0.0
C3679 C 0.73006 0.80805 0.24949 0.0
C3680 C 0.70464 0.8314 0.30725 0.0
C3681 C 0.66468 0.81232 0.34197 0.0
C3682 C 0.67738 0.81683 0.31898 0.0
C3683 C 0.72604 0.81373 0.27789 0.0
C3684 C 0.70809 0.81765 0.2867 0.0
H3685 H 0.62539 0.79228 0.35071 0.0
H3686 H 0.64366 0.80589 0.31279 0.0
H3687 H 0.68765 0.84086 0.3406 0.0
H3688 H 0.76381 0.8029 0.31103 0.0
H3689 H 0.73598 0.81656 0.32175 0.0
C3690 C 0.51239 0.48133 0.24844 0.0
C3691 C 0.50032 0.48436 0.27059 0.0
C3692 C 0.52849 0.4738 0.25511 0.0
C3693 C 0.56355 0.47742 0.2848 0.0
H3694 H 0.57108 0.44309 0.34814 0.0
C3695 C 0.59988 0.48071 0.39661 0.0
C3696 C 0.61578 0.48818 0.38843 0.0
C3697 C 0.58935 0.47232 0.3761 0.0
C3698 C 0.56931 0.45252 0.33013 0.0
H3699 H 0.49474 0.48056 0.31621 0.0
H3700 H 0.52258 0.46723 0.32796 0.0
H3701 H 0.54416 0.44208 0.3209 0.0
H3702 H 0.63376 0.49166 0.35295 0.0
H3703 H 0.61513 0.47712 0.31658 0.0
H3704 H 0.58797 0.48897 0.2956 0.0
C3705 C 0.51983 0.47061 0.30549 0.0
C3706 C 0.55393 0.45191 0.31451 0.0
C3707 C 0.50395 0.47841 0.29891 0.0
C3708 C 0.62152 0.48601 0.3597 0.0
C3709 C 0.61086 0.47775 0.33896 0.0
C3710 C 0.57891 0.47808 0.30048 0.0
C3711 C 0.53252 0.46889 0.28392 0.0
C3712 C 0.55047 0.46513 0.29296 0.0
C3713 C 0.59444 0.47131 0.34681 0.0
C3714 C 0.58144 0.46642 0.32452 0.0
H3715 H 0.50978 0.48592 0.22646 0.0
H3716 H 0.53805 0.47263 0.2381 0.0
H3717 H 0.56126 0.48783 0.26835 0.0
H3718 H 0.5953 0.482 0.41874 0.0
H3719 H 0.57672 0.46775 0.3829 0.0
C3720 C 0.35495 0.54811 0.12894 0.0
C3721 C 0.3589 0.53965 0.15551 0.0
C3722 C 0.33894 0.55623 0.12463 0.0
C3723 C 0.29537 0.54772 0.14343 0.0
H3724 H 0.28774 0.58988 0.09332 0.0
C3725 C 0.23739 0.54884 0.068 0.0
C3726 C 0.24307 0.55074 0.03917 0.0
C3727 C 0.24793 0.55447 0.09102 0.0
C3728 C 0.28954 0.5782 0.10765 0.0
H3729 H 0.34974 0.53366 0.1989 0.0
H3730 H 0.32119 0.5474 0.19102 0.0
H3731 H 0.31491 0.58686 0.11947 0.0
H3732 H 0.26314 0.56159 1.01152 0.0
H3733 H 0.28151 0.57129 0.05121 0.0
H3734 H 0.2708 0.53808 0.12953 0.0
C3735 C 0.33065 0.54801 0.17377 0.0
C3736 C 0.30506 0.57652 0.12267 0.0
C3737 C 0.34689 0.5402 0.17828 0.0
C3738 C 0.25863 0.5598 1.03362 0.0
C3739 C 0.26904 0.56555 0.05644 0.0
C3740 C 0.2799 0.54931 0.12822 0.0
C3741 C 0.32643 0.55576 0.14666 0.0
C3742 C 0.3085 0.5607 0.13925 0.0
C3743 C 0.26417 0.56226 0.08544 0.0
C3744 C 0.27731 0.56397 0.1087 0.0
H3745 H 0.36412 0.54792 0.11122 0.0
H3746 H 0.33599 0.56183 0.10336 0.0
H3747 H 0.29769 0.53536 0.15602 0.0
H3748 H 0.22541 0.54188 0.07275 0.0
H3749 H 0.24377 0.55187 0.11313 0.0
C3750 C 0.40017 0.23176 0.14818 0.0
C3751 C 0.40056 0.25109 0.14933 0.0
C3752 C 0.41432 0.22199 0.13727 0.0
C3753 C 0.46075 0.22775 0.1257 0.0
H3754 H 0.45628 0.19619 0.05852 0.0
C3755 C 0.51664 0.22422 0.04944 0.0
C3756 C 0.51121 0.22934 1.02147 0.0
C3757 C 0.50488 0.2167 0.06924 0.0
C3758 C 0.4578 0.20478 0.07752 0.0
H3759 H 0.41545 0.27527 0.13815 0.0
H3760 H 0.43992 0.25841 0.11952 0.0
H3761 H 0.43072 0.20439 0.08657 0.0
H3762 H 0.49012 0.22804 0.99083 0.0
H3763 H 0.46957 0.21588 1.02518 0.0
H3764 H 0.48728 0.22992 0.11537 0.0
C3765 C 0.42899 0.25074 0.12772 0.0
C3766 C 0.44316 0.20932 0.0937 0.0
C3767 C 0.41495 0.26041 0.1383 0.0
C3768 C 0.49449 0.22478 1.01258 0.0
C3769 C 0.48275 0.21744 1.03229 0.0
C3770 C 0.47529 0.22339 0.10947 0.0
C3771 C 0.42901 0.23146 0.12768 0.0
C3772 C 0.44443 0.22184 0.1167 0.0
C3773 C 0.4875 0.21437 0.0614 0.0
C3774 C 0.4738 0.21293 0.08394 0.0
H3775 H 0.38926 0.22421 0.15663 0.0
H3776 H 0.41398 0.20711 0.13706 0.0
H3777 H 0.46207 0.23713 0.14381 0.0
H3778 H 0.52953 0.22734 0.05674 0.0
H3779 H 0.50911 0.21402 0.09127 0.0
C3780 C 0.36293 0.2318 0.68336 0.0
C3781 C 0.35904 0.24441 0.66115 0.0
C3782 C 0.34985 0.22137 0.69624 0.0
C3783 C 0.31875 0.21795 0.73509 0.0
H3784 H 0.2758 0.2056 0.69706 0.0
C3785 C 0.24562 0.23441 0.75826 0.0
C3786 C 0.24599 0.23226 0.78849 0.0
C3787 C 0.25846 0.22645 0.74117 0.0
C3788 C 0.28774 0.20881 0.70803 0.0
H3789 H 0.33883 0.25453 0.63288 0.0
H3790 H 0.31608 0.23699 0.65576 0.0
H3791 H 0.30206 0.20856 0.66827 0.0
H3792 H 0.25848 0.21872 0.82455 0.0
H3793 H 0.28054 0.20406 0.79473 0.0
H3794 H 0.30447 0.2195 0.77442 0.0
C3795 C 0.32912 0.23495 0.66332 0.0
C3796 C 0.30277 0.21049 0.69157 0.0
C3797 C 0.34214 0.24533 0.65054 0.0
C3798 C 0.25816 0.22055 0.80118 0.0
C3799 C 0.27078 0.2123 0.78413 0.0
C3800 C 0.30378 0.21626 0.75149 0.0
C3801 C 0.33269 0.22335 0.68703 0.0
C3802 C 0.31823 0.21608 0.70474 0.0
C3803 C 0.27172 0.2161 0.75418 0.0
C3804 C 0.28792 0.21263 0.73796 0.0
H3805 H 0.37588 0.23071 0.69178 0.0
H3806 H 0.35305 0.21238 0.71425 0.0
H3807 H 0.33035 0.22242 0.74599 0.0
H3808 H 0.23633 0.24354 0.74827 0.0
H3809 H 0.25881 0.22982 0.71823 0.0
C3810 C 0.49345 0.55754 0.80645 0.0
C3811 C 0.51004 0.55368 0.79616 0.0
C3812 C 0.48113 0.5652 0.78813 0.0
C3813 C 0.45503 0.57922 0.74571 0.0
H3814 H 0.45767 0.5489 0.67683 0.0
C3815 C 0.39699 0.55436 0.67212 0.0
C3816 C 0.39717 0.53504 0.67122 0.0
C3817 C 0.41093 0.56396 0.68423 0.0
C3818 C 0.45682 0.55779 0.69564 0.0
H3819 H 0.52748 0.55705 0.75991 0.0
H3820 H 0.50598 0.57086 0.72769 0.0
H3821 H 0.48356 0.5552 0.70413 0.0
H3822 H 0.41114 0.51065 0.68431 0.0
H3823 H 0.43526 0.52721 0.70511 0.0
H3824 H 0.42776 0.58 0.73832 0.0
C3825 C 0.50234 0.56747 0.74979 0.0
C3826 C 0.47173 0.56159 0.71125 0.0
C3827 C 0.5147 0.55968 0.76823 0.0
C3828 C 0.41087 0.52553 0.68413 0.0
C3829 C 0.42469 0.535 0.69592 0.0
C3830 C 0.44003 0.57528 0.73008 0.0
C3831 C 0.48513 0.56926 0.759 0.0
C3832 C 0.47086 0.57128 0.7376 0.0
C3833 C 0.42512 0.55425 0.69528 0.0
C3834 C 0.44075 0.56355 0.70601 0.0
H3835 H 0.48967 0.55351 0.82821 0.0
H3836 H 0.4681 0.56628 0.79622 0.0
H3837 H 0.45397 0.58718 0.76547 0.0
H3838 H 0.38656 0.56198 0.66223 0.0
H3839 H 0.41095 0.57884 0.68389 0.0
loop_
_geom_bond_atom_site_label_1
_geom_bond_atom_site_label_2
_geom_bond_distance
_geom_bond_site_symmetry_2
_ccdc_geom_bond_type
Co0 N5 2.056 . S
Co0 O17 2.021 . S
Co0 O20 2.062 . S
Co0 O24 2.117 1_545 S
Co0 O25 2.020 . S
C1 O21 1.259 . S
C1 O24 1.258 . S
Co2 N11 2.049 1_565 S
Co2 O18 2.071 1_565 S
Co2 O19 2.022 . S
Co2 O21 2.067 . S
Co2 O26 2.058 1_565 S
C3 N5 1.314 . S
C3 N6 1.347 . S
C3 H8 0.931 . S
C4 N5 1.377 1_565 S
C4 C7 1.350 . S
C4 H9 0.930 . S
N5 Co0 2.056 . S
N5 C3 1.314 . S
N5 C4 1.377 1_545 S
N6 C3 1.347 . S
N6 C7 1.373 1_545 S
C7 C4 1.350 . S
C7 N6 1.373 1_565 S
C7 H28 0.931 . S
H8 C3 0.931 . S
H9 C4 0.930 . S
C10 O17 1.259 . S
C10 O18 1.258 . S
N11 Co2 2.049 1_545 S
N11 C12 1.316 1_545 S
N11 C13 1.375 . S
C12 N11 1.316 1_565 S
C12 N14 1.320 1_565 S
C12 H23 0.931 . S
C13 N11 1.375 . S
C13 C15 1.350 . S
C13 H22 0.930 . S
N14 C12 1.320 1_545 S
N14 C15 1.434 . S
C15 C13 1.350 . S
C15 N14 1.434 . S
C15 H29 0.931 . S
C16 O19 1.256 . S
C16 O20 1.254 1_565 S
O17 Co0 2.021 . S
O17 C10 1.259 . S
O18 Co2 2.071 1_545 S
O18 C10 1.258 . S
O19 Co2 2.022 . S
O19 C16 1.256 . S
O20 Co0 2.062 . S
O20 C16 1.254 1_545 S
O21 C1 1.259 . S
O21 Co2 2.067 . S
H22 C13 0.930 . S
H23 C12 0.931 . S
O24 Co0 2.117 1_565 S
O24 C1 1.258 . S
O25 Co0 2.020 . S
O25 C27 1.256 . S
O26 Co2 2.058 1_545 S
O26 C27 1.255 . S
C27 O25 1.256 . S
C27 O26 1.255 . S
H28 C7 0.931 . S
H29 C15 0.931 . S
Co30 N35 2.057 . S
Co30 O47 2.021 . S
Co30 O50 2.062 . S
Co30 O54 2.117 . S
Co30 O55 2.020 . S
C31 O51 1.259 . S
C31 O54 1.258 . S
Co32 N41 2.057 . S
Co32 O48 2.117 . S
Co32 O49 2.020 . S
Co32 O51 2.021 . S
Co32 O56 2.062 . S
C33 N35 1.316 . S
C33 N36 1.347 . S
C33 H38 0.931 . S
C34 N35 1.375 . S
C34 C37 1.350 . S
C34 H39 0.930 . S
N35 Co30 2.057 . S
N35 C33 1.316 . S
N35 C34 1.375 . S
N36 C33 1.347 . S
N36 C37 1.373 . S
C37 C34 1.350 . S
C37 N36 1.373 . S
C37 H58 0.931 . S
H38 C33 0.931 . S
H39 C34 0.930 . S
C40 O47 1.259 . S
C40 O48 1.258 . S
N41 Co32 2.057 . S
N41 C42 1.316 . S
N41 C43 1.375 . S
C42 N41 1.316 . S
C42 N44 1.347 . S
C42 H53 0.931 . S
C43 N41 1.375 . S
C43 C45 1.350 . S
C43 H52 0.930 . S
N44 C42 1.347 . S
N44 C45 1.373 . S
C45 C43 1.350 . S
C45 N44 1.373 . S
C45 H59 0.931 . S
C46 O49 1.256 . S
C46 O50 1.255 . S
O47 Co30 2.021 . S
O47 C40 1.259 . S
O48 Co32 2.117 . S
O48 C40 1.258 . S
O49 Co32 2.020 . S
O49 C46 1.256 . S
O50 Co30 2.062 . S
O50 C46 1.255 . S
O51 C31 1.259 . S
O51 Co32 2.021 . S
H52 C43 0.930 . S
H53 C42 0.931 . S
O54 Co30 2.117 . S
O54 C31 1.258 . S
O55 Co30 2.020 . S
O55 C57 1.256 . S
O56 Co32 2.062 . S
O56 C57 1.255 . S
C57 O55 1.256 . S
C57 O56 1.255 . S
H58 C37 0.931 . S
H59 C45 0.931 . S
Co60 N65 2.057 . S
Co60 O77 2.021 . S
Co60 O80 2.062 . S
Co60 O84 2.117 . S
Co60 O85 2.020 . S
C61 O81 1.259 . S
C61 O84 1.258 . S
Co62 N71 2.057 . S
Co62 O78 2.117 . S
Co62 O79 2.020 . S
Co62 O81 2.021 . S
Co62 O86 2.062 . S
C63 N65 1.316 . S
C63 N66 1.347 . S
C63 H68 0.931 . S
C64 N65 1.375 . S
C64 C67 1.350 . S
C64 H69 0.930 . S
N65 Co60 2.057 . S
N65 C63 1.316 . S
N65 C64 1.375 . S
N66 C63 1.347 . S
N66 C67 1.373 . S
C67 C64 1.350 . S
C67 N66 1.373 . S
C67 H88 0.931 . S
H68 C63 0.931 . S
H69 C64 0.930 . S
C70 O77 1.259 . S
C70 O78 1.258 . S
N71 Co62 2.057 . S
N71 C72 1.316 . S
N71 C73 1.375 . S
C72 N71 1.316 . S
C72 N74 1.347 . S
C72 H83 0.931 . S
C73 N71 1.375 . S
C73 C75 1.350 . S
C73 H82 0.930 . S
N74 C72 1.347 . S
N74 C75 1.373 . S
C75 C73 1.350 . S
C75 N74 1.373 . S
C75 H89 0.931 . S
C76 O79 1.256 . S
C76 O80 1.255 . S
O77 Co60 2.021 . S
O77 C70 1.259 . S
O78 Co62 2.117 . S
O78 C70 1.258 . S
O79 Co62 2.020 . S
O79 C76 1.256 . S
O80 Co60 2.062 . S
O80 C76 1.255 . S
O81 C61 1.259 . S
O81 Co62 2.021 . S
H82 C73 0.930 . S
H83 C72 0.931 . S
O84 Co60 2.117 . S
O84 C61 1.258 . S
O85 Co60 2.020 . S
O85 C87 1.256 . S
O86 Co62 2.062 . S
O86 C87 1.255 . S
C87 O85 1.256 . S
C87 O86 1.255 . S
H88 C67 0.931 . S
H89 C75 0.931 . S
Co90 N95 2.057 . S
Co90 O107 2.021 . S
Co90 O110 2.062 . S
Co90 O114 2.117 1_545 S
Co90 O115 2.020 . S
C91 O111 1.259 . S
C91 O114 1.258 . S
Co92 N101 2.049 1_565 S
Co92 O108 2.072 1_565 S
Co92 O109 2.022 . S
Co92 O111 2.066 . S
Co92 O116 2.058 1_565 S
C93 N95 1.315 . S
C93 N96 1.347 . S
C93 H98 0.931 . S
C94 N95 1.377 1_565 S
C94 C97 1.350 . S
C94 H99 0.930 . S
N95 Co90 2.057 . S
N95 C93 1.315 . S
N95 C94 1.377 1_545 S
N96 C93 1.347 . S
N96 C97 1.373 1_545 S
C97 C94 1.350 . S
C97 N96 1.373 1_565 S
C97 H118 0.931 . S
H98 C93 0.931 . S
H99 C94 0.930 . S
C100 O107 1.259 . S
C100 O108 1.258 . S
N101 Co92 2.049 1_545 S
N101 C102 1.316 1_545 S
N101 C103 1.375 . S
C102 N101 1.316 1_565 S
C102 N104 1.319 1_565 S
C102 H113 0.931 . S
C103 N101 1.375 . S
C103 C105 1.350 . S
C103 H112 0.930 . S
N104 C102 1.319 1_545 S
N104 C105 1.435 . S
C105 C103 1.350 . S
C105 N104 1.435 . S
C105 H119 0.931 . S
C106 O109 1.256 . S
C106 O110 1.254 1_565 S
O107 Co90 2.021 . S
O107 C100 1.259 . S
O108 Co92 2.072 1_545 S
O108 C100 1.258 . S
O109 Co92 2.022 . S
O109 C106 1.256 . S
O110 Co90 2.062 . S
O110 C106 1.254 1_545 S
O111 C91 1.259 . S
O111 Co92 2.066 . S
H112 C103 0.930 . S
H113 C102 0.931 . S
O114 Co90 2.117 1_565 S
O114 C91 1.258 . S
O115 Co90 2.020 . S
O115 C117 1.256 . S
O116 Co92 2.058 1_545 S
O116 C117 1.255 . S
C117 O115 1.256 . S
C117 O116 1.255 . S
H118 C97 0.931 . S
H119 C105 0.931 . S
Co120 N125 2.049 1_545 S
Co120 O137 2.067 . S
Co120 O140 2.058 1_545 S
Co120 O144 2.071 1_545 S
Co120 O145 2.022 . S
C121 O141 1.259 . S
C121 O144 1.258 . S
Co122 N131 2.056 . S
Co122 O138 2.117 1_565 S
Co122 O139 2.020 . S
Co122 O141 2.021 . S
Co122 O146 2.062 . S
C123 N125 1.316 1_545 S
C123 N126 1.320 1_545 S
C123 H128 0.931 . S
C124 N125 1.375 . S
C124 C127 1.350 . S
C124 H129 0.930 . S
N125 Co120 2.049 1_565 S
N125 C123 1.316 1_565 S
N125 C124 1.375 . S
N126 C123 1.320 1_565 S
N126 C127 1.434 . S
C127 C124 1.350 . S
C127 N126 1.434 . S
C127 H148 0.931 . S
H128 C123 0.931 . S
H129 C124 0.930 . S
C130 O137 1.259 . S
C130 O138 1.258 . S
N131 Co122 2.056 . S
N131 C132 1.314 . S
N131 C133 1.377 1_565 S
C132 N131 1.314 . S
C132 N134 1.347 . S
C132 H143 0.931 . S
C133 N131 1.377 1_545 S
C133 C135 1.350 . S
C133 H142 0.930 . S
N134 C132 1.347 . S
N134 C135 1.373 1_565 S
C135 C133 1.350 . S
C135 N134 1.373 1_545 S
C135 H149 0.931 . S
C136 O139 1.256 . S
C136 O140 1.255 . S
O137 Co120 2.067 . S
O137 C130 1.259 . S
O138 Co122 2.117 1_545 S
O138 C130 1.258 . S
O139 Co122 2.020 . S
O139 C136 1.256 . S
O140 Co120 2.058 1_565 S
O140 C136 1.255 . S
O141 C121 1.259 . S
O141 Co122 2.021 . S
H142 C133 0.930 . S
H143 C132 0.931 . S
O144 Co120 2.071 1_565 S
O144 C121 1.258 . S
O145 Co120 2.022 . S
O145 C147 1.256 . S
O146 Co122 2.062 . S
O146 C147 1.254 1_565 S
C147 O145 1.256 . S
C147 O146 1.254 1_545 S
H148 C127 0.931 . S
H149 C135 0.931 . S
Co150 N155 2.057 . S
Co150 O167 2.021 . S
Co150 O170 2.062 . S
Co150 O174 2.117 . S
Co150 O175 2.020 . S
C151 O171 1.259 . S
C151 O174 1.258 . S
Co152 N161 2.057 . S
Co152 O168 2.117 . S
Co152 O169 2.020 . S
Co152 O171 2.021 . S
Co152 O176 2.062 . S
C153 N155 1.316 . S
C153 N156 1.347 . S
C153 H158 0.931 . S
C154 N155 1.375 . S
C154 C157 1.350 . S
C154 H159 0.930 . S
N155 Co150 2.057 . S
N155 C153 1.316 . S
N155 C154 1.375 . S
N156 C153 1.347 . S
N156 C157 1.373 . S
C157 C154 1.350 . S
C157 N156 1.373 . S
C157 H178 0.931 . S
H158 C153 0.931 . S
H159 C154 0.930 . S
C160 O167 1.259 . S
C160 O168 1.258 . S
N161 Co152 2.057 . S
N161 C162 1.316 . S
N161 C163 1.375 . S
C162 N161 1.316 . S
C162 N164 1.347 . S
C162 H173 0.931 . S
C163 N161 1.375 . S
C163 C165 1.350 . S
C163 H172 0.930 . S
N164 C162 1.347 . S
N164 C165 1.373 . S
C165 C163 1.350 . S
C165 N164 1.373 . S
C165 H179 0.931 . S
C166 O169 1.256 . S
C166 O170 1.255 . S
O167 Co150 2.021 . S
O167 C160 1.259 . S
O168 Co152 2.117 . S
O168 C160 1.258 . S
O169 Co152 2.020 . S
O169 C166 1.256 . S
O170 Co150 2.062 . S
O170 C166 1.255 . S
O171 C151 1.259 . S
O171 Co152 2.021 . S
H172 C163 0.930 . S
H173 C162 0.931 . S
O174 Co150 2.117 . S
O174 C151 1.258 . S
O175 Co150 2.020 . S
O175 C177 1.256 . S
O176 Co152 2.062 . S
O176 C177 1.255 . S
C177 O175 1.256 . S
C177 O176 1.255 . S
H178 C157 0.931 . S
H179 C165 0.931 . S
Co180 N185 2.057 . S
Co180 O197 2.021 . S
Co180 O200 2.062 . S
Co180 O204 2.117 . S
Co180 O205 2.020 . S
C181 O201 1.259 . S
C181 O204 1.258 . S
Co182 N191 2.057 . S
Co182 O198 2.117 . S
Co182 O199 2.020 . S
Co182 O201 2.021 . S
Co182 O206 2.062 . S
C183 N185 1.316 . S
C183 N186 1.347 . S
C183 H188 0.931 . S
C184 N185 1.375 . S
C184 C187 1.350 . S
C184 H189 0.930 . S
N185 Co180 2.057 . S
N185 C183 1.316 . S
N185 C184 1.375 . S
N186 C183 1.347 . S
N186 C187 1.373 . S
C187 C184 1.350 . S
C187 N186 1.373 . S
C187 H208 0.931 . S
H188 C183 0.931 . S
H189 C184 0.930 . S
C190 O197 1.259 . S
C190 O198 1.258 . S
N191 Co182 2.057 . S
N191 C192 1.316 . S
N191 C193 1.375 . S
C192 N191 1.316 . S
C192 N194 1.347 . S
C192 H203 0.931 . S
C193 N191 1.375 . S
C193 C195 1.350 . S
C193 H202 0.930 . S
N194 C192 1.347 . S
N194 C195 1.373 . S
C195 C193 1.350 . S
C195 N194 1.373 . S
C195 H209 0.931 . S
C196 O199 1.256 . S
C196 O200 1.255 . S
O197 Co180 2.021 . S
O197 C190 1.259 . S
O198 Co182 2.117 . S
O198 C190 1.258 . S
O199 Co182 2.020 . S
O199 C196 1.256 . S
O200 Co180 2.062 . S
O200 C196 1.255 . S
O201 C181 1.259 . S
O201 Co182 2.021 . S
H202 C193 0.930 . S
H203 C192 0.931 . S
O204 Co180 2.117 . S
O204 C181 1.258 . S
O205 Co180 2.020 . S
O205 C207 1.256 . S
O206 Co182 2.062 . S
O206 C207 1.255 . S
C207 O205 1.256 . S
C207 O206 1.255 . S
H208 C187 0.931 . S
H209 C195 0.931 . S
Co210 N215 2.049 1_545 S
Co210 O227 2.066 . S
Co210 O230 2.058 1_545 S
Co210 O234 2.072 1_545 S
Co210 O235 2.022 . S
C211 O231 1.259 . S
C211 O234 1.258 . S
Co212 N221 2.057 . S
Co212 O228 2.117 1_565 S
Co212 O229 2.020 . S
Co212 O231 2.021 . S
Co212 O236 2.062 . S
C213 N215 1.316 1_545 S
C213 N216 1.319 1_545 S
C213 H218 0.931 . S
C214 N215 1.375 . S
C214 C217 1.350 . S
C214 H219 0.930 . S
N215 Co210 2.049 1_565 S
N215 C213 1.316 1_565 S
N215 C214 1.375 . S
N216 C213 1.319 1_565 S
N216 C217 1.435 . S
C217 C214 1.350 . S
C217 N216 1.435 . S
C217 H238 0.931 . S
H218 C213 0.931 . S
H219 C214 0.930 . S
C220 O227 1.259 . S
C220 O228 1.258 . S
N221 Co212 2.057 . S
N221 C222 1.315 . S
N221 C223 1.377 1_565 S
C222 N221 1.315 . S
C222 N224 1.347 . S
C222 H233 0.931 . S
C223 N221 1.377 1_545 S
C223 C225 1.350 . S
C223 H232 0.930 . S
N224 C222 1.347 . S
N224 C225 1.373 1_565 S
C225 C223 1.350 . S
C225 N224 1.373 1_545 S
C225 H239 0.931 . S
C226 O229 1.256 . S
C226 O230 1.255 . S
O227 Co210 2.066 . S
O227 C220 1.259 . S
O228 Co212 2.117 1_545 S
O228 C220 1.258 . S
O229 Co212 2.020 . S
O229 C226 1.256 . S
O230 Co210 2.058 1_565 S
O230 C226 1.255 . S
O231 C211 1.259 . S
O231 Co212 2.021 . S
H232 C223 0.930 . S
H233 C222 0.931 . S
O234 Co210 2.072 1_565 S
O234 C211 1.258 . S
O235 Co210 2.022 . S
O235 C237 1.256 . S
O236 Co212 2.062 . S
O236 C237 1.254 1_565 S
C237 O235 1.256 . S
C237 O236 1.254 1_545 S
H238 C217 0.931 . S
H239 C225 0.931 . S
Co240 N245 2.057 . S
Co240 O257 2.021 . S
Co240 O260 2.062 . S
Co240 O264 2.117 . S
Co240 O265 2.020 . S
C241 O261 1.259 . S
C241 O264 1.258 . S
Co242 N251 2.057 . S
Co242 O258 2.117 . S
Co242 O259 2.020 . S
Co242 O261 2.021 . S
Co242 O266 2.062 . S
C243 N245 1.316 . S
C243 N246 1.347 . S
C243 H248 0.931 . S
C244 N245 1.375 . S
C244 C247 1.350 . S
C244 H249 0.930 . S
N245 Co240 2.057 . S
N245 C243 1.316 . S
N245 C244 1.375 . S
N246 C243 1.347 . S
N246 C247 1.373 . S
C247 C244 1.350 . S
C247 N246 1.373 . S
C247 H268 0.931 . S
H248 C243 0.931 . S
H249 C244 0.930 . S
C250 O257 1.259 . S
C250 O258 1.258 . S
N251 Co242 2.057 . S
N251 C252 1.316 . S
N251 C253 1.375 . S
C252 N251 1.316 . S
C252 N254 1.347 . S
C252 H263 0.931 . S
C253 N251 1.375 . S
C253 C255 1.350 . S
C253 H262 0.930 . S
N254 C252 1.347 . S
N254 C255 1.373 . S
C255 C253 1.350 . S
C255 N254 1.373 . S
C255 H269 0.931 . S
C256 O259 1.256 . S
C256 O260 1.255 . S
O257 Co240 2.021 . S
O257 C250 1.259 . S
O258 Co242 2.117 . S
O258 C250 1.258 . S
O259 Co242 2.020 . S
O259 C256 1.256 . S
O260 Co240 2.062 . S
O260 C256 1.255 . S
O261 C241 1.259 . S
O261 Co242 2.021 . S
H262 C253 0.930 . S
H263 C252 0.931 . S
O264 Co240 2.117 . S
O264 C241 1.258 . S
O265 Co240 2.020 . S
O265 C267 1.256 . S
O266 Co242 2.062 . S
O266 C267 1.255 . S
C267 O265 1.256 . S
C267 O266 1.255 . S
H268 C247 0.931 . S
H269 C255 0.931 . S
Co270 N275 2.057 . S
Co270 O287 2.021 . S
Co270 O290 2.062 . S
Co270 O294 2.117 . S
Co270 O295 2.020 . S
C271 O291 1.259 . S
C271 O294 1.258 . S
Co272 N281 2.057 . S
Co272 O288 2.117 . S
Co272 O289 2.020 . S
Co272 O291 2.021 . S
Co272 O296 2.062 . S
C273 N275 1.316 . S
C273 N276 1.347 . S
C273 H278 0.931 . S
C274 N275 1.375 . S
C274 C277 1.350 . S
C274 H279 0.930 . S
N275 Co270 2.057 . S
N275 C273 1.316 . S
N275 C274 1.375 . S
N276 C273 1.347 . S
N276 C277 1.373 . S
C277 C274 1.350 . S
C277 N276 1.373 . S
C277 H298 0.931 . S
H278 C273 0.931 . S
H279 C274 0.930 . S
C280 O287 1.259 . S
C280 O288 1.258 . S
N281 Co272 2.057 . S
N281 C282 1.316 . S
N281 C283 1.375 . S
C282 N281 1.316 . S
C282 N284 1.347 . S
C282 H293 0.931 . S
C283 N281 1.375 . S
C283 C285 1.350 . S
C283 H292 0.930 . S
N284 C282 1.347 . S
N284 C285 1.373 . S
C285 C283 1.350 . S
C285 N284 1.373 . S
C285 H299 0.931 . S
C286 O289 1.256 . S
C286 O290 1.255 . S
O287 Co270 2.021 . S
O287 C280 1.259 . S
O288 Co272 2.117 . S
O288 C280 1.258 . S
O289 Co272 2.020 . S
O289 C286 1.256 . S
O290 Co270 2.062 . S
O290 C286 1.255 . S
O291 C271 1.259 . S
O291 Co272 2.021 . S
H292 C283 0.930 . S
H293 C282 0.931 . S
O294 Co270 2.117 . S
O294 C271 1.258 . S
O295 Co270 2.020 . S
O295 C297 1.256 . S
O296 Co272 2.062 . S
O296 C297 1.255 . S
C297 O295 1.256 . S
C297 O296 1.255 . S
H298 C277 0.931 . S
H299 C285 0.931 . S
Co300 N305 2.057 . S
Co300 O317 2.021 . S
Co300 O320 2.062 . S
Co300 O324 2.117 . S
Co300 O325 2.020 . S
C301 O321 1.259 . S
C301 O324 1.258 . S
Co302 N311 2.057 . S
Co302 O318 2.117 . S
Co302 O319 2.020 . S
Co302 O321 2.021 . S
Co302 O326 2.062 . S
C303 N305 1.316 . S
C303 N306 1.347 . S
C303 H308 0.931 . S
C304 N305 1.375 . S
C304 C307 1.350 . S
C304 H309 0.930 . S
N305 Co300 2.057 . S
N305 C303 1.316 . S
N305 C304 1.375 . S
N306 C303 1.347 . S
N306 C307 1.373 . S
C307 C304 1.350 . S
C307 N306 1.373 . S
C307 H328 0.931 . S
H308 C303 0.931 . S
H309 C304 0.930 . S
C310 O317 1.259 . S
C310 O318 1.258 . S
N311 Co302 2.057 . S
N311 C312 1.316 . S
N311 C313 1.375 . S
C312 N311 1.316 . S
C312 N314 1.347 . S
C312 H323 0.931 . S
C313 N311 1.375 . S
C313 C315 1.350 . S
C313 H322 0.930 . S
N314 C312 1.347 . S
N314 C315 1.373 . S
C315 C313 1.350 . S
C315 N314 1.373 . S
C315 H329 0.931 . S
C316 O319 1.256 . S
C316 O320 1.255 . S
O317 Co300 2.021 . S
O317 C310 1.259 . S
O318 Co302 2.117 . S
O318 C310 1.258 . S
O319 Co302 2.020 . S
O319 C316 1.256 . S
O320 Co300 2.062 . S
O320 C316 1.255 . S
O321 C301 1.259 . S
O321 Co302 2.021 . S
H322 C313 0.930 . S
H323 C312 0.931 . S
O324 Co300 2.117 . S
O324 C301 1.258 . S
O325 Co300 2.020 . S
O325 C327 1.256 . S
O326 Co302 2.062 . S
O326 C327 1.255 . S
C327 O325 1.256 . S
C327 O326 1.255 . S
H328 C307 0.931 . S
H329 C315 0.931 . S
Co330 N335 2.057 . S
Co330 O347 2.021 . S
Co330 O350 2.062 . S
Co330 O354 2.117 . S
Co330 O355 2.020 . S
C331 O351 1.259 . S
C331 O354 1.258 . S
Co332 N341 2.057 . S
Co332 O348 2.117 . S
Co332 O349 2.020 . S
Co332 O351 2.021 . S
Co332 O356 2.062 . S
C333 N335 1.316 . S
C333 N336 1.347 . S
C333 H338 0.931 . S
C334 N335 1.375 . S
C334 C337 1.350 . S
C334 H339 0.930 . S
N335 Co330 2.057 . S
N335 C333 1.316 . S
N335 C334 1.375 . S
N336 C333 1.347 . S
N336 C337 1.373 . S
C337 C334 1.350 . S
C337 N336 1.373 . S
C337 H358 0.931 . S
H338 C333 0.931 . S
H339 C334 0.930 . S
C340 O347 1.259 . S
C340 O348 1.258 . S
N341 Co332 2.057 . S
N341 C342 1.316 . S
N341 C343 1.375 . S
C342 N341 1.316 . S
C342 N344 1.347 . S
C342 H353 0.931 . S
C343 N341 1.375 . S
C343 C345 1.350 . S
C343 H352 0.930 . S
N344 C342 1.347 . S
N344 C345 1.373 . S
C345 C343 1.350 . S
C345 N344 1.373 . S
C345 H359 0.931 . S
C346 O349 1.256 . S
C346 O350 1.255 . S
O347 Co330 2.021 . S
O347 C340 1.259 . S
O348 Co332 2.117 . S
O348 C340 1.258 . S
O349 Co332 2.020 . S
O349 C346 1.256 . S
O350 Co330 2.062 . S
O350 C346 1.255 . S
O351 C331 1.259 . S
O351 Co332 2.021 . S
H352 C343 0.930 . S
H353 C342 0.931 . S
O354 Co330 2.117 . S
O354 C331 1.258 . S
O355 Co330 2.020 . S
O355 C357 1.256 . S
O356 Co332 2.062 . S
O356 C357 1.255 . S
C357 O355 1.256 . S
C357 O356 1.255 . S
H358 C337 0.931 . S
H359 C345 0.931 . S
Co360 N365 2.057 . S
Co360 O377 2.021 . S
Co360 O380 2.062 . S
Co360 O384 2.117 . S
Co360 O385 2.020 . S
C361 O381 1.259 . S
C361 O384 1.258 . S
Co362 N371 2.057 . S
Co362 O378 2.117 . S
Co362 O379 2.020 . S
Co362 O381 2.021 . S
Co362 O386 2.062 . S
C363 N365 1.316 . S
C363 N366 1.347 . S
C363 H368 0.931 . S
C364 N365 1.375 . S
C364 C367 1.350 . S
C364 H369 0.930 . S
N365 Co360 2.057 . S
N365 C363 1.316 . S
N365 C364 1.375 . S
N366 C363 1.347 . S
N366 C367 1.373 . S
C367 C364 1.350 . S
C367 N366 1.373 . S
C367 H388 0.931 . S
H368 C363 0.931 . S
H369 C364 0.930 . S
C370 O377 1.259 . S
C370 O378 1.258 . S
N371 Co362 2.057 . S
N371 C372 1.316 . S
N371 C373 1.375 . S
C372 N371 1.316 . S
C372 N374 1.347 . S
C372 H383 0.931 . S
C373 N371 1.375 . S
C373 C375 1.350 . S
C373 H382 0.930 . S
N374 C372 1.347 . S
N374 C375 1.373 . S
C375 C373 1.350 . S
C375 N374 1.373 . S
C375 H389 0.931 . S
C376 O379 1.256 . S
C376 O380 1.255 . S
O377 Co360 2.021 . S
O377 C370 1.259 . S
O378 Co362 2.117 . S
O378 C370 1.258 . S
O379 Co362 2.020 . S
O379 C376 1.256 . S
O380 Co360 2.062 . S
O380 C376 1.255 . S
O381 C361 1.259 . S
O381 Co362 2.021 . S
H382 C373 0.930 . S
H383 C372 0.931 . S
O384 Co360 2.117 . S
O384 C361 1.258 . S
O385 Co360 2.020 . S
O385 C387 1.256 . S
O386 Co362 2.062 . S
O386 C387 1.255 . S
C387 O385 1.256 . S
C387 O386 1.255 . S
H388 C367 0.931 . S
H389 C375 0.931 . S
Co390 N395 2.057 . S
Co390 O407 2.021 . S
Co390 O410 2.062 . S
Co390 O414 2.117 . S
Co390 O415 2.020 . S
C391 O411 1.259 . S
C391 O414 1.258 . S
Co392 N401 2.057 . S
Co392 O408 2.117 . S
Co392 O409 2.020 . S
Co392 O411 2.021 . S
Co392 O416 2.062 . S
C393 N395 1.316 . S
C393 N396 1.347 . S
C393 H398 0.931 . S
C394 N395 1.375 . S
C394 C397 1.350 . S
C394 H399 0.930 . S
N395 Co390 2.057 . S
N395 C393 1.316 . S
N395 C394 1.375 . S
N396 C393 1.347 . S
N396 C397 1.373 . S
C397 C394 1.350 . S
C397 N396 1.373 . S
C397 H418 0.931 . S
H398 C393 0.931 . S
H399 C394 0.930 . S
C400 O407 1.259 . S
C400 O408 1.258 . S
N401 Co392 2.057 . S
N401 C402 1.316 . S
N401 C403 1.375 . S
C402 N401 1.316 . S
C402 N404 1.347 . S
C402 H413 0.931 . S
C403 N401 1.375 . S
C403 C405 1.350 . S
C403 H412 0.930 . S
N404 C402 1.347 . S
N404 C405 1.373 . S
C405 C403 1.350 . S
C405 N404 1.373 . S
C405 H419 0.931 . S
C406 O409 1.256 . S
C406 O410 1.255 . S
O407 Co390 2.021 . S
O407 C400 1.259 . S
O408 Co392 2.117 . S
O408 C400 1.258 . S
O409 Co392 2.020 . S
O409 C406 1.256 . S
O410 Co390 2.062 . S
O410 C406 1.255 . S
O411 C391 1.259 . S
O411 Co392 2.021 . S
H412 C403 0.930 . S
H413 C402 0.931 . S
O414 Co390 2.117 . S
O414 C391 1.258 . S
O415 Co390 2.020 . S
O415 C417 1.256 . S
O416 Co392 2.062 . S
O416 C417 1.255 . S
C417 O415 1.256 . S
C417 O416 1.255 . S
H418 C397 0.931 . S
H419 C405 0.931 . S
Co420 N425 2.057 . S
Co420 O437 2.021 . S
Co420 O440 2.062 . S
Co420 O444 2.117 . S
Co420 O445 2.020 . S
C421 O441 1.259 . S
C421 O444 1.258 . S
Co422 N431 2.057 . S
Co422 O438 2.117 . S
Co422 O439 2.020 . S
Co422 O441 2.021 . S
Co422 O446 2.062 . S
C423 N425 1.316 . S
C423 N426 1.347 . S
C423 H428 0.931 . S
C424 N425 1.375 . S
C424 C427 1.350 . S
C424 H429 0.930 . S
N425 Co420 2.057 . S
N425 C423 1.316 . S
N425 C424 1.375 . S
N426 C423 1.347 . S
N426 C427 1.373 . S
C427 C424 1.350 . S
C427 N426 1.373 . S
C427 H448 0.931 . S
H428 C423 0.931 . S
H429 C424 0.930 . S
C430 O437 1.259 . S
C430 O438 1.258 . S
N431 Co422 2.057 . S
N431 C432 1.316 . S
N431 C433 1.375 . S
C432 N431 1.316 . S
C432 N434 1.347 . S
C432 H443 0.931 . S
C433 N431 1.375 . S
C433 C435 1.350 . S
C433 H442 0.930 . S
N434 C432 1.347 . S
N434 C435 1.373 . S
C435 C433 1.350 . S
C435 N434 1.373 . S
C435 H449 0.931 . S
C436 O439 1.256 . S
C436 O440 1.255 . S
O437 Co420 2.021 . S
O437 C430 1.259 . S
O438 Co422 2.117 . S
O438 C430 1.258 . S
O439 Co422 2.020 . S
O439 C436 1.256 . S
O440 Co420 2.062 . S
O440 C436 1.255 . S
O441 C421 1.259 . S
O441 Co422 2.021 . S
H442 C433 0.930 . S
H443 C432 0.931 . S
O444 Co420 2.117 . S
O444 C421 1.258 . S
O445 Co420 2.020 . S
O445 C447 1.256 . S
O446 Co422 2.062 . S
O446 C447 1.255 . S
C447 O445 1.256 . S
C447 O446 1.255 . S
H448 C427 0.931 . S
H449 C435 0.931 . S
Co450 N455 2.057 . S
Co450 O467 2.021 . S
Co450 O470 2.062 . S
Co450 O474 2.117 . S
Co450 O475 2.020 . S
C451 O471 1.259 . S
C451 O474 1.258 . S
Co452 N461 2.057 . S
Co452 O468 2.117 . S
Co452 O469 2.020 . S
Co452 O471 2.021 . S
Co452 O476 2.062 . S
C453 N455 1.316 . S
C453 N456 1.347 . S
C453 H458 0.931 . S
C454 N455 1.375 . S
C454 C457 1.350 . S
C454 H459 0.930 . S
N455 Co450 2.057 . S
N455 C453 1.316 . S
N455 C454 1.375 . S
N456 C453 1.347 . S
N456 C457 1.373 . S
C457 C454 1.350 . S
C457 N456 1.373 . S
C457 H478 0.931 . S
H458 C453 0.931 . S
H459 C454 0.930 . S
C460 O467 1.259 . S
C460 O468 1.258 . S
N461 Co452 2.057 . S
N461 C462 1.316 . S
N461 C463 1.375 . S
C462 N461 1.316 . S
C462 N464 1.347 . S
C462 H473 0.931 . S
C463 N461 1.375 . S
C463 C465 1.350 . S
C463 H472 0.930 . S
N464 C462 1.347 . S
N464 C465 1.373 . S
C465 C463 1.350 . S
C465 N464 1.373 . S
C465 H479 0.931 . S
C466 O469 1.256 . S
C466 O470 1.255 . S
O467 Co450 2.021 . S
O467 C460 1.259 . S
O468 Co452 2.117 . S
O468 C460 1.258 . S
O469 Co452 2.020 . S
O469 C466 1.256 . S
O470 Co450 2.062 . S
O470 C466 1.255 . S
O471 C451 1.259 . S
O471 Co452 2.021 . S
H472 C463 0.930 . S
H473 C462 0.931 . S
O474 Co450 2.117 . S
O474 C451 1.258 . S
O475 Co450 2.020 . S
O475 C477 1.256 . S
O476 Co452 2.062 . S
O476 C477 1.255 . S
C477 O475 1.256 . S
C477 O476 1.255 . S
H478 C457 0.931 . S
H479 C465 0.931 . S
Co480 N485 2.057 . S
Co480 O497 2.021 . S
Co480 O500 2.062 . S
Co480 O504 2.117 1_545 S
Co480 O505 2.020 . S
C481 O501 1.259 . S
C481 O504 1.258 . S
Co482 N491 2.049 1_565 S
Co482 O498 2.072 1_565 S
Co482 O499 2.022 . S
Co482 O501 2.066 . S
Co482 O506 2.058 1_565 S
C483 N485 1.315 . S
C483 N486 1.347 . S
C483 H488 0.931 . S
C484 N485 1.377 1_565 S
C484 C487 1.350 . S
C484 H489 0.930 . S
N485 Co480 2.057 . S
N485 C483 1.315 . S
N485 C484 1.377 1_545 S
N486 C483 1.347 . S
N486 C487 1.373 1_545 S
C487 C484 1.350 . S
C487 N486 1.373 1_565 S
C487 H508 0.931 . S
H488 C483 0.931 . S
H489 C484 0.930 . S
C490 O497 1.259 . S
C490 O498 1.258 . S
N491 Co482 2.049 1_545 S
N491 C492 1.316 1_545 S
N491 C493 1.375 . S
C492 N491 1.316 1_565 S
C492 N494 1.320 1_565 S
C492 H503 0.931 . S
C493 N491 1.375 . S
C493 C495 1.350 . S
C493 H502 0.930 . S
N494 C492 1.320 1_545 S
N494 C495 1.434 . S
C495 C493 1.350 . S
C495 N494 1.434 . S
C495 H509 0.931 . S
C496 O499 1.256 . S
C496 O500 1.254 1_565 S
O497 Co480 2.021 . S
O497 C490 1.259 . S
O498 Co482 2.072 1_545 S
O498 C490 1.258 . S
O499 Co482 2.022 . S
O499 C496 1.256 . S
O500 Co480 2.062 . S
O500 C496 1.254 1_545 S
O501 C481 1.259 . S
O501 Co482 2.066 . S
H502 C493 0.930 . S
H503 C492 0.931 . S
O504 Co480 2.117 1_565 S
O504 C481 1.258 . S
O505 Co480 2.020 . S
O505 C507 1.256 . S
O506 Co482 2.058 1_545 S
O506 C507 1.255 . S
C507 O505 1.256 . S
C507 O506 1.255 . S
H508 C487 0.931 . S
H509 C495 0.931 . S
Co510 N515 2.057 . S
Co510 O527 2.021 . S
Co510 O530 2.062 . S
Co510 O534 2.117 . S
Co510 O535 2.020 . S
C511 O531 1.259 . S
C511 O534 1.258 . S
Co512 N521 2.057 . S
Co512 O528 2.117 . S
Co512 O529 2.020 . S
Co512 O531 2.021 . S
Co512 O536 2.062 . S
C513 N515 1.316 . S
C513 N516 1.347 . S
C513 H518 0.931 . S
C514 N515 1.375 . S
C514 C517 1.350 . S
C514 H519 0.930 . S
N515 Co510 2.057 . S
N515 C513 1.316 . S
N515 C514 1.375 . S
N516 C513 1.347 . S
N516 C517 1.373 . S
C517 C514 1.350 . S
C517 N516 1.373 . S
C517 H538 0.931 . S
H518 C513 0.931 . S
H519 C514 0.930 . S
C520 O527 1.259 . S
C520 O528 1.258 . S
N521 Co512 2.057 . S
N521 C522 1.316 . S
N521 C523 1.375 . S
C522 N521 1.316 . S
C522 N524 1.347 . S
C522 H533 0.931 . S
C523 N521 1.375 . S
C523 C525 1.350 . S
C523 H532 0.930 . S
N524 C522 1.347 . S
N524 C525 1.373 . S
C525 C523 1.350 . S
C525 N524 1.373 . S
C525 H539 0.931 . S
C526 O529 1.256 . S
C526 O530 1.255 . S
O527 Co510 2.021 . S
O527 C520 1.259 . S
O528 Co512 2.117 . S
O528 C520 1.258 . S
O529 Co512 2.020 . S
O529 C526 1.256 . S
O530 Co510 2.062 . S
O530 C526 1.255 . S
O531 C511 1.259 . S
O531 Co512 2.021 . S
H532 C523 0.930 . S
H533 C522 0.931 . S
O534 Co510 2.117 . S
O534 C511 1.258 . S
O535 Co510 2.020 . S
O535 C537 1.256 . S
O536 Co512 2.062 . S
O536 C537 1.255 . S
C537 O535 1.256 . S
C537 O536 1.255 . S
H538 C517 0.931 . S
H539 C525 0.931 . S
Co540 N545 2.057 . S
Co540 O557 2.021 . S
Co540 O560 2.062 . S
Co540 O564 2.117 . S
Co540 O565 2.020 . S
C541 O561 1.259 . S
C541 O564 1.258 . S
Co542 N551 2.057 . S
Co542 O558 2.117 . S
Co542 O559 2.020 . S
Co542 O561 2.021 . S
Co542 O566 2.062 . S
C543 N545 1.316 . S
C543 N546 1.347 . S
C543 H548 0.931 . S
C544 N545 1.375 . S
C544 C547 1.350 . S
C544 H549 0.930 . S
N545 Co540 2.057 . S
N545 C543 1.316 . S
N545 C544 1.375 . S
N546 C543 1.347 . S
N546 C547 1.373 . S
C547 C544 1.350 . S
C547 N546 1.373 . S
C547 H568 0.931 . S
H548 C543 0.931 . S
H549 C544 0.930 . S
C550 O557 1.259 . S
C550 O558 1.258 . S
N551 Co542 2.057 . S
N551 C552 1.316 . S
N551 C553 1.375 . S
C552 N551 1.316 . S
C552 N554 1.347 . S
C552 H563 0.931 . S
C553 N551 1.375 . S
C553 C555 1.350 . S
C553 H562 0.930 . S
N554 C552 1.347 . S
N554 C555 1.373 . S
C555 C553 1.350 . S
C555 N554 1.373 . S
C555 H569 0.931 . S
C556 O559 1.256 . S
C556 O560 1.255 . S
O557 Co540 2.021 . S
O557 C550 1.259 . S
O558 Co542 2.117 . S
O558 C550 1.258 . S
O559 Co542 2.020 . S
O559 C556 1.256 . S
O560 Co540 2.062 . S
O560 C556 1.255 . S
O561 C541 1.259 . S
O561 Co542 2.021 . S
H562 C553 0.930 . S
H563 C552 0.931 . S
O564 Co540 2.117 . S
O564 C541 1.258 . S
O565 Co540 2.020 . S
O565 C567 1.256 . S
O566 Co542 2.062 . S
O566 C567 1.255 . S
C567 O565 1.256 . S
C567 O566 1.255 . S
H568 C547 0.931 . S
H569 C555 0.931 . S
Co570 N575 2.056 . S
Co570 O587 2.021 . S
Co570 O590 2.062 . S
Co570 O594 2.117 1_545 S
Co570 O595 2.020 . S
C571 O591 1.259 . S
C571 O594 1.258 . S
Co572 N581 2.049 1_565 S
Co572 O588 2.072 1_565 S
Co572 O589 2.022 . S
Co572 O591 2.066 . S
Co572 O596 2.058 1_565 S
C573 N575 1.314 . S
C573 N576 1.347 . S
C573 H578 0.931 . S
C574 N575 1.377 1_565 S
C574 C577 1.350 . S
C574 H579 0.930 . S
N575 Co570 2.056 . S
N575 C573 1.314 . S
N575 C574 1.377 1_545 S
N576 C573 1.347 . S
N576 C577 1.373 1_545 S
C577 C574 1.350 . S
C577 N576 1.373 1_565 S
C577 H598 0.931 . S
H578 C573 0.931 . S
H579 C574 0.930 . S
C580 O587 1.259 . S
C580 O588 1.258 . S
N581 Co572 2.049 1_545 S
N581 C582 1.316 1_545 S
N581 C583 1.375 . S
C582 N581 1.316 1_565 S
C582 N584 1.319 1_565 S
C582 H593 0.931 . S
C583 N581 1.375 . S
C583 C585 1.350 . S
C583 H592 0.930 . S
N584 C582 1.319 1_545 S
N584 C585 1.435 . S
C585 C583 1.350 . S
C585 N584 1.435 . S
C585 H599 0.931 . S
C586 O589 1.256 . S
C586 O590 1.254 1_565 S
O587 Co570 2.021 . S
O587 C580 1.259 . S
O588 Co572 2.072 1_545 S
O588 C580 1.258 . S
O589 Co572 2.022 . S
O589 C586 1.256 . S
O590 Co570 2.062 . S
O590 C586 1.254 1_545 S
O591 C571 1.259 . S
O591 Co572 2.066 . S
H592 C583 0.930 . S
H593 C582 0.931 . S
O594 Co570 2.117 1_565 S
O594 C571 1.258 . S
O595 Co570 2.020 . S
O595 C597 1.256 . S
O596 Co572 2.058 1_545 S
O596 C597 1.255 . S
C597 O595 1.256 . S
C597 O596 1.255 . S
H598 C577 0.931 . S
H599 C585 0.931 . S
Co600 N605 2.049 1_545 S
Co600 O617 2.066 . S
Co600 O620 2.058 1_545 S
Co600 O624 2.072 1_545 S
Co600 O625 2.022 . S
C601 O621 1.259 . S
C601 O624 1.258 . S
Co602 N611 2.057 . S
Co602 O618 2.117 1_565 S
Co602 O619 2.020 . S
Co602 O621 2.021 . S
Co602 O626 2.062 . S
C603 N605 1.316 1_545 S
C603 N606 1.320 1_545 S
C603 H608 0.931 . S
C604 N605 1.375 . S
C604 C607 1.350 . S
C604 H609 0.930 . S
N605 Co600 2.049 1_565 S
N605 C603 1.316 1_565 S
N605 C604 1.375 . S
N606 C603 1.320 1_565 S
N606 C607 1.434 . S
C607 C604 1.350 . S
C607 N606 1.434 . S
C607 H628 0.931 . S
H608 C603 0.931 . S
H609 C604 0.930 . S
C610 O617 1.259 . S
C610 O618 1.258 . S
N611 Co602 2.057 . S
N611 C612 1.315 . S
N611 C613 1.377 1_565 S
C612 N611 1.315 . S
C612 N614 1.347 . S
C612 H623 0.931 . S
C613 N611 1.377 1_545 S
C613 C615 1.350 . S
C613 H622 0.930 . S
N614 C612 1.347 . S
N614 C615 1.373 1_565 S
C615 C613 1.350 . S
C615 N614 1.373 1_545 S
C615 H629 0.931 . S
C616 O619 1.256 . S
C616 O620 1.255 . S
O617 Co600 2.066 . S
O617 C610 1.259 . S
O618 Co602 2.117 1_545 S
O618 C610 1.258 . S
O619 Co602 2.020 . S
O619 C616 1.256 . S
O620 Co600 2.058 1_565 S
O620 C616 1.255 . S
O621 C601 1.259 . S
O621 Co602 2.021 . S
H622 C613 0.930 . S
H623 C612 0.931 . S
O624 Co600 2.072 1_565 S
O624 C601 1.258 . S
O625 Co600 2.022 . S
O625 C627 1.256 . S
O626 Co602 2.062 . S
O626 C627 1.254 1_565 S
C627 O625 1.256 . S
C627 O626 1.254 1_545 S
H628 C607 0.931 . S
H629 C615 0.931 . S
Co630 N635 2.057 . S
Co630 O647 2.021 . S
Co630 O650 2.062 . S
Co630 O654 2.117 . S
Co630 O655 2.020 . S
C631 O651 1.259 . S
C631 O654 1.258 . S
Co632 N641 2.057 . S
Co632 O648 2.117 . S
Co632 O649 2.020 . S
Co632 O651 2.021 . S
Co632 O656 2.062 . S
C633 N635 1.316 . S
C633 N636 1.347 . S
C633 H638 0.931 . S
C634 N635 1.375 . S
C634 C637 1.350 . S
C634 H639 0.930 . S
N635 Co630 2.057 . S
N635 C633 1.316 . S
N635 C634 1.375 . S
N636 C633 1.347 . S
N636 C637 1.373 . S
C637 C634 1.350 . S
C637 N636 1.373 . S
C637 H658 0.931 . S
H638 C633 0.931 . S
H639 C634 0.930 . S
C640 O647 1.259 . S
C640 O648 1.258 . S
N641 Co632 2.057 . S
N641 C642 1.316 . S
N641 C643 1.375 . S
C642 N641 1.316 . S
C642 N644 1.347 . S
C642 H653 0.931 . S
C643 N641 1.375 . S
C643 C645 1.350 . S
C643 H652 0.930 . S
N644 C642 1.347 . S
N644 C645 1.373 . S
C645 C643 1.350 . S
C645 N644 1.373 . S
C645 H659 0.931 . S
C646 O649 1.256 . S
C646 O650 1.255 . S
O647 Co630 2.021 . S
O647 C640 1.259 . S
O648 Co632 2.117 . S
O648 C640 1.258 . S
O649 Co632 2.020 . S
O649 C646 1.256 . S
O650 Co630 2.062 . S
O650 C646 1.255 . S
O651 C631 1.259 . S
O651 Co632 2.021 . S
H652 C643 0.930 . S
H653 C642 0.931 . S
O654 Co630 2.117 . S
O654 C631 1.258 . S
O655 Co630 2.020 . S
O655 C657 1.256 . S
O656 Co632 2.062 . S
O656 C657 1.255 . S
C657 O655 1.256 . S
C657 O656 1.255 . S
H658 C637 0.931 . S
H659 C645 0.931 . S
Co660 N665 2.057 . S
Co660 O677 2.021 . S
Co660 O680 2.062 . S
Co660 O684 2.117 . S
Co660 O685 2.020 . S
C661 O681 1.259 . S
C661 O684 1.258 . S
Co662 N671 2.057 . S
Co662 O678 2.117 . S
Co662 O679 2.020 . S
Co662 O681 2.021 . S
Co662 O686 2.062 . S
C663 N665 1.316 . S
C663 N666 1.347 . S
C663 H668 0.931 . S
C664 N665 1.375 . S
C664 C667 1.350 . S
C664 H669 0.930 . S
N665 Co660 2.057 . S
N665 C663 1.316 . S
N665 C664 1.375 . S
N666 C663 1.347 . S
N666 C667 1.373 . S
C667 C664 1.350 . S
C667 N666 1.373 . S
C667 H688 0.931 . S
H668 C663 0.931 . S
H669 C664 0.930 . S
C670 O677 1.259 . S
C670 O678 1.258 . S
N671 Co662 2.057 . S
N671 C672 1.316 . S
N671 C673 1.375 . S
C672 N671 1.316 . S
C672 N674 1.347 . S
C672 H683 0.931 . S
C673 N671 1.375 . S
C673 C675 1.350 . S
C673 H682 0.930 . S
N674 C672 1.347 . S
N674 C675 1.373 . S
C675 C673 1.350 . S
C675 N674 1.373 . S
C675 H689 0.931 . S
C676 O679 1.256 . S
C676 O680 1.255 . S
O677 Co660 2.021 . S
O677 C670 1.259 . S
O678 Co662 2.117 . S
O678 C670 1.258 . S
O679 Co662 2.020 . S
O679 C676 1.256 . S
O680 Co660 2.062 . S
O680 C676 1.255 . S
O681 C661 1.259 . S
O681 Co662 2.021 . S
H682 C673 0.930 . S
H683 C672 0.931 . S
O684 Co660 2.117 . S
O684 C661 1.258 . S
O685 Co660 2.020 . S
O685 C687 1.256 . S
O686 Co662 2.062 . S
O686 C687 1.255 . S
C687 O685 1.256 . S
C687 O686 1.255 . S
H688 C667 0.931 . S
H689 C675 0.931 . S
Co690 N695 2.049 1_545 S
Co690 O707 2.066 . S
Co690 O710 2.058 1_545 S
Co690 O714 2.072 1_545 S
Co690 O715 2.022 . S
C691 O711 1.259 . S
C691 O714 1.258 . S
Co692 N701 2.056 . S
Co692 O708 2.117 1_565 S
Co692 O709 2.020 . S
Co692 O711 2.021 . S
Co692 O716 2.062 . S
C693 N695 1.316 1_545 S
C693 N696 1.319 1_545 S
C693 H698 0.931 . S
C694 N695 1.375 . S
C694 C697 1.350 . S
C694 H699 0.930 . S
N695 Co690 2.049 1_565 S
N695 C693 1.316 1_565 S
N695 C694 1.375 . S
N696 C693 1.319 1_565 S
N696 C697 1.435 . S
C697 C694 1.350 . S
C697 N696 1.435 . S
C697 H718 0.931 . S
H698 C693 0.931 . S
H699 C694 0.930 . S
C700 O707 1.259 . S
C700 O708 1.258 . S
N701 Co692 2.056 . S
N701 C702 1.314 . S
N701 C703 1.377 1_565 S
C702 N701 1.314 . S
C702 N704 1.347 . S
C702 H713 0.931 . S
C703 N701 1.377 1_545 S
C703 C705 1.350 . S
C703 H712 0.930 . S
N704 C702 1.347 . S
N704 C705 1.373 1_565 S
C705 C703 1.350 . S
C705 N704 1.373 1_545 S
C705 H719 0.931 . S
C706 O709 1.256 . S
C706 O710 1.255 . S
O707 Co690 2.066 . S
O707 C700 1.259 . S
O708 Co692 2.117 1_545 S
O708 C700 1.258 . S
O709 Co692 2.020 . S
O709 C706 1.256 . S
O710 Co690 2.058 1_565 S
O710 C706 1.255 . S
O711 C691 1.259 . S
O711 Co692 2.021 . S
H712 C703 0.930 . S
H713 C702 0.931 . S
O714 Co690 2.072 1_565 S
O714 C691 1.258 . S
O715 Co690 2.022 . S
O715 C717 1.256 . S
O716 Co692 2.062 . S
O716 C717 1.254 1_565 S
C717 O715 1.256 . S
C717 O716 1.254 1_545 S
H718 C697 0.931 . S
H719 C705 0.931 . S
Co720 N725 2.057 . S
Co720 O737 2.021 . S
Co720 O740 2.062 . S
Co720 O744 2.117 . S
Co720 O745 2.020 . S
C721 O741 1.259 . S
C721 O744 1.258 . S
Co722 N731 2.057 . S
Co722 O738 2.117 . S
Co722 O739 2.020 . S
Co722 O741 2.021 . S
Co722 O746 2.062 . S
C723 N725 1.316 . S
C723 N726 1.347 . S
C723 H728 0.931 . S
C724 N725 1.375 . S
C724 C727 1.350 . S
C724 H729 0.930 . S
N725 Co720 2.057 . S
N725 C723 1.316 . S
N725 C724 1.375 . S
N726 C723 1.347 . S
N726 C727 1.373 . S
C727 C724 1.350 . S
C727 N726 1.373 . S
C727 H748 0.931 . S
H728 C723 0.931 . S
H729 C724 0.930 . S
C730 O737 1.259 . S
C730 O738 1.258 . S
N731 Co722 2.057 . S
N731 C732 1.316 . S
N731 C733 1.375 . S
C732 N731 1.316 . S
C732 N734 1.347 . S
C732 H743 0.931 . S
C733 N731 1.375 . S
C733 C735 1.350 . S
C733 H742 0.930 . S
N734 C732 1.347 . S
N734 C735 1.373 . S
C735 C733 1.350 . S
C735 N734 1.373 . S
C735 H749 0.931 . S
C736 O739 1.256 . S
C736 O740 1.255 . S
O737 Co720 2.021 . S
O737 C730 1.259 . S
O738 Co722 2.117 . S
O738 C730 1.258 . S
O739 Co722 2.020 . S
O739 C736 1.256 . S
O740 Co720 2.062 . S
O740 C736 1.255 . S
O741 C721 1.259 . S
O741 Co722 2.021 . S
H742 C733 0.930 . S
H743 C732 0.931 . S
O744 Co720 2.117 . S
O744 C721 1.258 . S
O745 Co720 2.020 . S
O745 C747 1.256 . S
O746 Co722 2.062 . S
O746 C747 1.255 . S
C747 O745 1.256 . S
C747 O746 1.255 . S
H748 C727 0.931 . S
H749 C735 0.931 . S
Co750 N755 2.057 . S
Co750 O767 2.021 . S
Co750 O770 2.062 . S
Co750 O774 2.117 . S
Co750 O775 2.020 . S
C751 O771 1.259 . S
C751 O774 1.258 . S
Co752 N761 2.057 . S
Co752 O768 2.117 . S
Co752 O769 2.020 . S
Co752 O771 2.021 . S
Co752 O776 2.062 . S
C753 N755 1.316 . S
C753 N756 1.347 . S
C753 H758 0.931 . S
C754 N755 1.375 . S
C754 C757 1.350 . S
C754 H759 0.930 . S
N755 Co750 2.057 . S
N755 C753 1.316 . S
N755 C754 1.375 . S
N756 C753 1.347 . S
N756 C757 1.373 . S
C757 C754 1.350 . S
C757 N756 1.373 . S
C757 H778 0.931 . S
H758 C753 0.931 . S
H759 C754 0.930 . S
C760 O767 1.259 . S
C760 O768 1.258 . S
N761 Co752 2.057 . S
N761 C762 1.316 . S
N761 C763 1.375 . S
C762 N761 1.316 . S
C762 N764 1.347 . S
C762 H773 0.931 . S
C763 N761 1.375 . S
C763 C765 1.350 . S
C763 H772 0.930 . S
N764 C762 1.347 . S
N764 C765 1.373 . S
C765 C763 1.350 . S
C765 N764 1.373 . S
C765 H779 0.931 . S
C766 O769 1.256 . S
C766 O770 1.255 . S
O767 Co750 2.021 . S
O767 C760 1.259 . S
O768 Co752 2.117 . S
O768 C760 1.258 . S
O769 Co752 2.020 . S
O769 C766 1.256 . S
O770 Co750 2.062 . S
O770 C766 1.255 . S
O771 C751 1.259 . S
O771 Co752 2.021 . S
H772 C763 0.930 . S
H773 C762 0.931 . S
O774 Co750 2.117 . S
O774 C751 1.258 . S
O775 Co750 2.020 . S
O775 C777 1.256 . S
O776 Co752 2.062 . S
O776 C777 1.255 . S
C777 O775 1.256 . S
C777 O776 1.255 . S
H778 C757 0.931 . S
H779 C765 0.931 . S
Co780 N785 2.057 . S
Co780 O797 2.021 . S
Co780 O800 2.062 . S
Co780 O804 2.117 . S
Co780 O805 2.020 . S
C781 O801 1.259 . S
C781 O804 1.258 . S
Co782 N791 2.057 . S
Co782 O798 2.117 . S
Co782 O799 2.020 . S
Co782 O801 2.021 . S
Co782 O806 2.062 . S
C783 N785 1.316 . S
C783 N786 1.347 . S
C783 H788 0.931 . S
C784 N785 1.375 . S
C784 C787 1.350 . S
C784 H789 0.930 . S
N785 Co780 2.057 . S
N785 C783 1.316 . S
N785 C784 1.375 . S
N786 C783 1.347 . S
N786 C787 1.373 . S
C787 C784 1.350 . S
C787 N786 1.373 . S
C787 H808 0.931 . S
H788 C783 0.931 . S
H789 C784 0.930 . S
C790 O797 1.259 . S
C790 O798 1.258 . S
N791 Co782 2.057 . S
N791 C792 1.316 . S
N791 C793 1.375 . S
C792 N791 1.316 . S
C792 N794 1.347 . S
C792 H803 0.931 . S
C793 N791 1.375 . S
C793 C795 1.350 . S
C793 H802 0.930 . S
N794 C792 1.347 . S
N794 C795 1.373 . S
C795 C793 1.350 . S
C795 N794 1.373 . S
C795 H809 0.931 . S
C796 O799 1.256 . S
C796 O800 1.255 . S
O797 Co780 2.021 . S
O797 C790 1.259 . S
O798 Co782 2.117 . S
O798 C790 1.258 . S
O799 Co782 2.020 . S
O799 C796 1.256 . S
O800 Co780 2.062 . S
O800 C796 1.255 . S
O801 C781 1.259 . S
O801 Co782 2.021 . S
H802 C793 0.930 . S
H803 C792 0.931 . S
O804 Co780 2.117 . S
O804 C781 1.258 . S
O805 Co780 2.020 . S
O805 C807 1.256 . S
O806 Co782 2.062 . S
O806 C807 1.255 . S
C807 O805 1.256 . S
C807 O806 1.255 . S
H808 C787 0.931 . S
H809 C795 0.931 . S
Co810 N815 2.057 . S
Co810 O827 2.021 . S
Co810 O830 2.062 . S
Co810 O834 2.117 . S
Co810 O835 2.020 . S
C811 O831 1.259 . S
C811 O834 1.258 . S
Co812 N821 2.057 . S
Co812 O828 2.117 . S
Co812 O829 2.020 . S
Co812 O831 2.021 . S
Co812 O836 2.062 . S
C813 N815 1.316 . S
C813 N816 1.347 . S
C813 H818 0.931 . S
C814 N815 1.375 . S
C814 C817 1.350 . S
C814 H819 0.930 . S
N815 Co810 2.057 . S
N815 C813 1.316 . S
N815 C814 1.375 . S
N816 C813 1.347 . S
N816 C817 1.373 . S
C817 C814 1.350 . S
C817 N816 1.373 . S
C817 H838 0.931 . S
H818 C813 0.931 . S
H819 C814 0.930 . S
C820 O827 1.259 . S
C820 O828 1.258 . S
N821 Co812 2.057 . S
N821 C822 1.316 . S
N821 C823 1.375 . S
C822 N821 1.316 . S
C822 N824 1.347 . S
C822 H833 0.931 . S
C823 N821 1.375 . S
C823 C825 1.350 . S
C823 H832 0.930 . S
N824 C822 1.347 . S
N824 C825 1.373 . S
C825 C823 1.350 . S
C825 N824 1.373 . S
C825 H839 0.931 . S
C826 O829 1.256 . S
C826 O830 1.255 . S
O827 Co810 2.021 . S
O827 C820 1.259 . S
O828 Co812 2.117 . S
O828 C820 1.258 . S
O829 Co812 2.020 . S
O829 C826 1.256 . S
O830 Co810 2.062 . S
O830 C826 1.255 . S
O831 C811 1.259 . S
O831 Co812 2.021 . S
H832 C823 0.930 . S
H833 C822 0.931 . S
O834 Co810 2.117 . S
O834 C811 1.258 . S
O835 Co810 2.020 . S
O835 C837 1.256 . S
O836 Co812 2.062 . S
O836 C837 1.255 . S
C837 O835 1.256 . S
C837 O836 1.255 . S
H838 C817 0.931 . S
H839 C825 0.931 . S
Co840 N845 2.057 . S
Co840 O857 2.021 . S
Co840 O860 2.062 . S
Co840 O864 2.117 . S
Co840 O865 2.020 . S
C841 O861 1.259 . S
C841 O864 1.258 . S
Co842 N851 2.057 . S
Co842 O858 2.117 . S
Co842 O859 2.020 . S
Co842 O861 2.021 . S
Co842 O866 2.062 . S
C843 N845 1.316 . S
C843 N846 1.347 . S
C843 H848 0.931 . S
C844 N845 1.375 . S
C844 C847 1.350 . S
C844 H849 0.930 . S
N845 Co840 2.057 . S
N845 C843 1.316 . S
N845 C844 1.375 . S
N846 C843 1.347 . S
N846 C847 1.373 . S
C847 C844 1.350 . S
C847 N846 1.373 . S
C847 H868 0.931 . S
H848 C843 0.931 . S
H849 C844 0.930 . S
C850 O857 1.259 . S
C850 O858 1.258 . S
N851 Co842 2.057 . S
N851 C852 1.316 . S
N851 C853 1.375 . S
C852 N851 1.316 . S
C852 N854 1.347 . S
C852 H863 0.931 . S
C853 N851 1.375 . S
C853 C855 1.350 . S
C853 H862 0.930 . S
N854 C852 1.347 . S
N854 C855 1.373 . S
C855 C853 1.350 . S
C855 N854 1.373 . S
C855 H869 0.931 . S
C856 O859 1.256 . S
C856 O860 1.255 . S
O857 Co840 2.021 . S
O857 C850 1.259 . S
O858 Co842 2.117 . S
O858 C850 1.258 . S
O859 Co842 2.020 . S
O859 C856 1.256 . S
O860 Co840 2.062 . S
O860 C856 1.255 . S
O861 C841 1.259 . S
O861 Co842 2.021 . S
H862 C853 0.930 . S
H863 C852 0.931 . S
O864 Co840 2.117 . S
O864 C841 1.258 . S
O865 Co840 2.020 . S
O865 C867 1.256 . S
O866 Co842 2.062 . S
O866 C867 1.255 . S
C867 O865 1.256 . S
C867 O866 1.255 . S
H868 C847 0.931 . S
H869 C855 0.931 . S
Co870 N875 2.057 . S
Co870 O887 2.021 . S
Co870 O890 2.062 . S
Co870 O894 2.117 . S
Co870 O895 2.020 . S
C871 O891 1.259 . S
C871 O894 1.258 . S
Co872 N881 2.057 . S
Co872 O888 2.117 . S
Co872 O889 2.020 . S
Co872 O891 2.021 . S
Co872 O896 2.062 . S
C873 N875 1.316 . S
C873 N876 1.347 . S
C873 H878 0.931 . S
C874 N875 1.375 . S
C874 C877 1.350 . S
C874 H879 0.930 . S
N875 Co870 2.057 . S
N875 C873 1.316 . S
N875 C874 1.375 . S
N876 C873 1.347 . S
N876 C877 1.373 . S
C877 C874 1.350 . S
C877 N876 1.373 . S
C877 H898 0.931 . S
H878 C873 0.931 . S
H879 C874 0.930 . S
C880 O887 1.259 . S
C880 O888 1.258 . S
N881 Co872 2.057 . S
N881 C882 1.316 . S
N881 C883 1.375 . S
C882 N881 1.316 . S
C882 N884 1.347 . S
C882 H893 0.931 . S
C883 N881 1.375 . S
C883 C885 1.350 . S
C883 H892 0.930 . S
N884 C882 1.347 . S
N884 C885 1.373 . S
C885 C883 1.350 . S
C885 N884 1.373 . S
C885 H899 0.931 . S
C886 O889 1.256 . S
C886 O890 1.255 . S
O887 Co870 2.021 . S
O887 C880 1.259 . S
O888 Co872 2.117 . S
O888 C880 1.258 . S
O889 Co872 2.020 . S
O889 C886 1.256 . S
O890 Co870 2.062 . S
O890 C886 1.255 . S
O891 C871 1.259 . S
O891 Co872 2.021 . S
H892 C883 0.930 . S
H893 C882 0.931 . S
O894 Co870 2.117 . S
O894 C871 1.258 . S
O895 Co870 2.020 . S
O895 C897 1.256 . S
O896 Co872 2.062 . S
O896 C897 1.255 . S
C897 O895 1.256 . S
C897 O896 1.255 . S
H898 C877 0.931 . S
H899 C885 0.931 . S
Co900 N905 2.057 . S
Co900 O917 2.021 . S
Co900 O920 2.062 . S
Co900 O924 2.117 . S
Co900 O925 2.020 . S
C901 O921 1.259 . S
C901 O924 1.258 . S
Co902 N911 2.057 . S
Co902 O918 2.117 . S
Co902 O919 2.020 . S
Co902 O921 2.021 . S
Co902 O926 2.062 . S
C903 N905 1.316 . S
C903 N906 1.347 . S
C903 H908 0.931 . S
C904 N905 1.375 . S
C904 C907 1.350 . S
C904 H909 0.930 . S
N905 Co900 2.057 . S
N905 C903 1.316 . S
N905 C904 1.375 . S
N906 C903 1.347 . S
N906 C907 1.373 . S
C907 C904 1.350 . S
C907 N906 1.373 . S
C907 H928 0.931 . S
H908 C903 0.931 . S
H909 C904 0.930 . S
C910 O917 1.259 . S
C910 O918 1.258 . S
N911 Co902 2.057 . S
N911 C912 1.316 . S
N911 C913 1.375 . S
C912 N911 1.316 . S
C912 N914 1.347 . S
C912 H923 0.931 . S
C913 N911 1.375 . S
C913 C915 1.350 . S
C913 H922 0.930 . S
N914 C912 1.347 . S
N914 C915 1.373 . S
C915 C913 1.350 . S
C915 N914 1.373 . S
C915 H929 0.931 . S
C916 O919 1.256 . S
C916 O920 1.255 . S
O917 Co900 2.021 . S
O917 C910 1.259 . S
O918 Co902 2.117 . S
O918 C910 1.258 . S
O919 Co902 2.020 . S
O919 C916 1.256 . S
O920 Co900 2.062 . S
O920 C916 1.255 . S
O921 C901 1.259 . S
O921 Co902 2.021 . S
H922 C913 0.930 . S
H923 C912 0.931 . S
O924 Co900 2.117 . S
O924 C901 1.258 . S
O925 Co900 2.020 . S
O925 C927 1.256 . S
O926 Co902 2.062 . S
O926 C927 1.255 . S
C927 O925 1.256 . S
C927 O926 1.255 . S
H928 C907 0.931 . S
H929 C915 0.931 . S
Co930 N935 2.057 . S
Co930 O947 2.021 . S
Co930 O950 2.062 . S
Co930 O954 2.117 . S
Co930 O955 2.020 . S
C931 O951 1.259 . S
C931 O954 1.258 . S
Co932 N941 2.057 . S
Co932 O948 2.117 . S
Co932 O949 2.020 . S
Co932 O951 2.021 . S
Co932 O956 2.062 . S
C933 N935 1.316 . S
C933 N936 1.347 . S
C933 H938 0.931 . S
C934 N935 1.375 . S
C934 C937 1.350 . S
C934 H939 0.930 . S
N935 Co930 2.057 . S
N935 C933 1.316 . S
N935 C934 1.375 . S
N936 C933 1.347 . S
N936 C937 1.373 . S
C937 C934 1.350 . S
C937 N936 1.373 . S
C937 H958 0.931 . S
H938 C933 0.931 . S
H939 C934 0.930 . S
C940 O947 1.259 . S
C940 O948 1.258 . S
N941 Co932 2.057 . S
N941 C942 1.316 . S
N941 C943 1.375 . S
C942 N941 1.316 . S
C942 N944 1.347 . S
C942 H953 0.931 . S
C943 N941 1.375 . S
C943 C945 1.350 . S
C943 H952 0.930 . S
N944 C942 1.347 . S
N944 C945 1.373 . S
C945 C943 1.350 . S
C945 N944 1.373 . S
C945 H959 0.931 . S
C946 O949 1.256 . S
C946 O950 1.255 . S
O947 Co930 2.021 . S
O947 C940 1.259 . S
O948 Co932 2.117 . S
O948 C940 1.258 . S
O949 Co932 2.020 . S
O949 C946 1.256 . S
O950 Co930 2.062 . S
O950 C946 1.255 . S
O951 C931 1.259 . S
O951 Co932 2.021 . S
H952 C943 0.930 . S
H953 C942 0.931 . S
O954 Co930 2.117 . S
O954 C931 1.258 . S
O955 Co930 2.020 . S
O955 C957 1.256 . S
O956 Co932 2.062 . S
O956 C957 1.255 . S
C957 O955 1.256 . S
C957 O956 1.255 . S
H958 C937 0.931 . S
H959 C945 0.931 . S
C960 C961 1.349 . S
C960 C962 1.327 . S
C960 H985 0.950 . S
C961 C960 1.349 . S
C961 C977 1.349 . S
C962 C960 1.327 . S
C962 C981 1.429 . S
C962 H986 0.950 . S
C963 C980 1.574 . S
C963 C982 1.368 . S
C963 H987 0.949 . S
H964 C968 0.949 . S
C965 C966 1.349 . S
C965 C967 1.327 . S
C965 H988 0.950 . S
C966 C965 1.349 . S
C966 C978 1.349 . S
C967 C965 1.327 . S
C967 C983 1.429 . S
C967 H989 0.950 . S
C968 H964 0.949 . S
C968 C976 1.574 . S
C968 C984 1.368 . S
H969 C977 0.950 . S
H970 C975 0.950 . S
H971 C976 0.949 . S
H972 C978 0.950 . S
H973 C979 0.950 . S
H974 C980 0.949 . S
C975 H970 0.950 . S
C975 C977 1.327 . S
C975 C981 1.429 . S
C976 C968 1.574 . S
C976 H971 0.949 . S
C976 C982 1.368 . S
C977 C961 1.349 . S
C977 H969 0.950 . S
C977 C975 1.327 . S
C978 C966 1.349 . S
C978 H972 0.950 . S
C978 C979 1.327 . S
C979 H973 0.950 . S
C979 C978 1.327 . S
C979 C983 1.429 . S
C980 C963 1.574 . S
C980 H974 0.949 . S
C980 C984 1.368 . S
C981 C962 1.429 . S
C981 C975 1.429 . S
C981 C982 1.523 . S
C982 C963 1.368 . S
C982 C976 1.368 . S
C982 C981 1.523 . S
C983 C967 1.429 . S
C983 C979 1.429 . S
C983 C984 1.523 . S
C984 C968 1.368 . S
C984 C980 1.368 . S
C984 C983 1.523 . S
H985 C960 0.950 . S
H986 C962 0.950 . S
H987 C963 0.949 . S
H988 C965 0.950 . S
H989 C967 0.950 . S
C990 C991 1.349 . S
C990 C992 1.327 . S
C990 H1015 0.950 . S
C991 C990 1.349 . S
C991 C1007 1.349 . S
C992 C990 1.327 . S
C992 C1011 1.429 . S
C992 H1016 0.950 . S
C993 C1010 1.574 . S
C993 C1012 1.368 . S
C993 H1017 0.949 . S
H994 C998 0.949 . S
C995 C996 1.349 . S
C995 C997 1.327 . S
C995 H1018 0.950 . S
C996 C995 1.349 . S
C996 C1008 1.349 . S
C997 C995 1.327 . S
C997 C1013 1.429 . S
C997 H1019 0.950 . S
C998 H994 0.949 . S
C998 C1006 1.574 . S
C998 C1014 1.368 . S
H999 C1007 0.950 . S
H1000 C1005 0.950 . S
H1001 C1006 0.949 . S
H1002 C1008 0.950 . S
H1003 C1009 0.950 . S
H1004 C1010 0.949 . S
C1005 H1000 0.950 . S
C1005 C1007 1.327 . S
C1005 C1011 1.429 . S
C1006 C998 1.574 . S
C1006 H1001 0.949 . S
C1006 C1012 1.368 . S
C1007 C991 1.349 . S
C1007 H999 0.950 . S
C1007 C1005 1.327 . S
C1008 C996 1.349 . S
C1008 H1002 0.950 . S
C1008 C1009 1.327 . S
C1009 H1003 0.950 . S
C1009 C1008 1.327 . S
C1009 C1013 1.429 . S
C1010 C993 1.574 . S
C1010 H1004 0.949 . S
C1010 C1014 1.368 . S
C1011 C992 1.429 . S
C1011 C1005 1.429 . S
C1011 C1012 1.523 . S
C1012 C993 1.368 . S
C1012 C1006 1.368 . S
C1012 C1011 1.523 . S
C1013 C997 1.429 . S
C1013 C1009 1.429 . S
C1013 C1014 1.523 . S
C1014 C998 1.368 . S
C1014 C1010 1.368 . S
C1014 C1013 1.523 . S
H1015 C990 0.950 . S
H1016 C992 0.950 . S
H1017 C993 0.949 . S
H1018 C995 0.950 . S
H1019 C997 0.950 . S
C1020 C1021 1.349 . S
C1020 C1022 1.327 . S
C1020 H1045 0.950 . S
C1021 C1020 1.349 . S
C1021 C1037 1.349 . S
C1022 C1020 1.327 . S
C1022 C1041 1.429 . S
C1022 H1046 0.950 . S
C1023 C1040 1.574 . S
C1023 C1042 1.368 . S
C1023 H1047 0.949 . S
H1024 C1028 0.949 . S
C1025 C1026 1.349 . S
C1025 C1027 1.327 . S
C1025 H1048 0.950 . S
C1026 C1025 1.349 . S
C1026 C1038 1.349 . S
C1027 C1025 1.327 . S
C1027 C1043 1.429 . S
C1027 H1049 0.950 . S
C1028 H1024 0.949 . S
C1028 C1036 1.574 . S
C1028 C1044 1.368 . S
H1029 C1037 0.950 . S
H1030 C1035 0.950 . S
H1031 C1036 0.949 . S
H1032 C1038 0.950 . S
H1033 C1039 0.950 . S
H1034 C1040 0.949 . S
C1035 H1030 0.950 . S
C1035 C1037 1.327 . S
C1035 C1041 1.429 . S
C1036 C1028 1.574 . S
C1036 H1031 0.949 . S
C1036 C1042 1.368 . S
C1037 C1021 1.349 . S
C1037 H1029 0.950 . S
C1037 C1035 1.327 . S
C1038 C1026 1.349 . S
C1038 H1032 0.950 . S
C1038 C1039 1.327 . S
C1039 H1033 0.950 . S
C1039 C1038 1.327 . S
C1039 C1043 1.429 . S
C1040 C1023 1.574 . S
C1040 H1034 0.949 . S
C1040 C1044 1.368 . S
C1041 C1022 1.429 . S
C1041 C1035 1.429 . S
C1041 C1042 1.523 . S
C1042 C1023 1.368 . S
C1042 C1036 1.368 . S
C1042 C1041 1.523 . S
C1043 C1027 1.429 . S
C1043 C1039 1.429 . S
C1043 C1044 1.523 . S
C1044 C1028 1.368 . S
C1044 C1040 1.368 . S
C1044 C1043 1.523 . S
H1045 C1020 0.950 . S
H1046 C1022 0.950 . S
H1047 C1023 0.949 . S
H1048 C1025 0.950 . S
H1049 C1027 0.950 . S
C1050 C1051 1.349 . S
C1050 C1052 1.327 . S
C1050 H1075 0.950 . S
C1051 C1050 1.349 . S
C1051 C1067 1.349 . S
C1052 C1050 1.327 . S
C1052 C1071 1.429 . S
C1052 H1076 0.950 . S
C1053 C1070 1.574 . S
C1053 C1072 1.368 . S
C1053 H1077 0.949 . S
H1054 C1058 0.949 . S
C1055 C1056 1.349 . S
C1055 C1057 1.327 . S
C1055 H1078 0.950 . S
C1056 C1055 1.349 . S
C1056 C1068 1.349 . S
C1057 C1055 1.327 . S
C1057 C1073 1.429 . S
C1057 H1079 0.950 . S
C1058 H1054 0.949 . S
C1058 C1066 1.574 . S
C1058 C1074 1.368 . S
H1059 C1067 0.950 . S
H1060 C1065 0.950 . S
H1061 C1066 0.949 . S
H1062 C1068 0.950 . S
H1063 C1069 0.950 . S
H1064 C1070 0.949 . S
C1065 H1060 0.950 . S
C1065 C1067 1.327 . S
C1065 C1071 1.429 . S
C1066 C1058 1.574 . S
C1066 H1061 0.949 . S
C1066 C1072 1.368 . S
C1067 C1051 1.349 . S
C1067 H1059 0.950 . S
C1067 C1065 1.327 . S
C1068 C1056 1.349 . S
C1068 H1062 0.950 . S
C1068 C1069 1.327 . S
C1069 H1063 0.950 . S
C1069 C1068 1.327 . S
C1069 C1073 1.429 . S
C1070 C1053 1.574 . S
C1070 H1064 0.949 . S
C1070 C1074 1.368 . S
C1071 C1052 1.429 . S
C1071 C1065 1.429 . S
C1071 C1072 1.523 . S
C1072 C1053 1.368 . S
C1072 C1066 1.368 . S
C1072 C1071 1.523 . S
C1073 C1057 1.429 . S
C1073 C1069 1.429 . S
C1073 C1074 1.523 . S
C1074 C1058 1.368 . S
C1074 C1070 1.368 . S
C1074 C1073 1.523 . S
H1075 C1050 0.950 . S
H1076 C1052 0.950 . S
H1077 C1053 0.949 . S
H1078 C1055 0.950 . S
H1079 C1057 0.950 . S
C1080 C1081 1.349 . S
C1080 C1082 1.327 . S
C1080 H1105 0.950 . S
C1081 C1080 1.349 . S
C1081 C1097 1.349 . S
C1082 C1080 1.327 . S
C1082 C1101 1.429 . S
C1082 H1106 0.950 . S
C1083 C1100 1.574 . S
C1083 C1102 1.368 . S
C1083 H1107 0.949 . S
H1084 C1088 0.949 . S
C1085 C1086 1.349 . S
C1085 C1087 1.327 . S
C1085 H1108 0.950 . S
C1086 C1085 1.349 . S
C1086 C1098 1.349 . S
C1087 C1085 1.327 . S
C1087 C1103 1.429 . S
C1087 H1109 0.950 . S
C1088 H1084 0.949 . S
C1088 C1096 1.574 . S
C1088 C1104 1.368 . S
H1089 C1097 0.950 . S
H1090 C1095 0.950 . S
H1091 C1096 0.949 . S
H1092 C1098 0.950 . S
H1093 C1099 0.950 . S
H1094 C1100 0.949 . S
C1095 H1090 0.950 . S
C1095 C1097 1.327 . S
C1095 C1101 1.429 . S
C1096 C1088 1.574 . S
C1096 H1091 0.949 . S
C1096 C1102 1.368 . S
C1097 C1081 1.349 . S
C1097 H1089 0.950 . S
C1097 C1095 1.327 . S
C1098 C1086 1.349 . S
C1098 H1092 0.950 . S
C1098 C1099 1.327 . S
C1099 H1093 0.950 . S
C1099 C1098 1.327 . S
C1099 C1103 1.429 . S
C1100 C1083 1.574 . S
C1100 H1094 0.949 . S
C1100 C1104 1.368 . S
C1101 C1082 1.429 . S
C1101 C1095 1.429 . S
C1101 C1102 1.523 . S
C1102 C1083 1.368 . S
C1102 C1096 1.368 . S
C1102 C1101 1.523 . S
C1103 C1087 1.429 . S
C1103 C1099 1.429 . S
C1103 C1104 1.523 . S
C1104 C1088 1.368 . S
C1104 C1100 1.368 . S
C1104 C1103 1.523 . S
H1105 C1080 0.950 . S
H1106 C1082 0.950 . S
H1107 C1083 0.949 . S
H1108 C1085 0.950 . S
H1109 C1087 0.950 . S
C1110 C1111 1.349 . S
C1110 C1112 1.327 . S
C1110 H1135 0.950 . S
C1111 C1110 1.349 . S
C1111 C1127 1.349 . S
C1112 C1110 1.327 . S
C1112 C1131 1.429 . S
C1112 H1136 0.950 . S
C1113 C1130 1.574 . S
C1113 C1132 1.368 . S
C1113 H1137 0.949 . S
H1114 C1118 0.949 . S
C1115 C1116 1.349 . S
C1115 C1117 1.327 . S
C1115 H1138 0.950 . S
C1116 C1115 1.349 . S
C1116 C1128 1.349 . S
C1117 C1115 1.327 . S
C1117 C1133 1.429 . S
C1117 H1139 0.950 . S
C1118 H1114 0.949 . S
C1118 C1126 1.574 . S
C1118 C1134 1.368 . S
H1119 C1127 0.950 . S
H1120 C1125 0.950 . S
H1121 C1126 0.949 . S
H1122 C1128 0.950 . S
H1123 C1129 0.950 . S
H1124 C1130 0.949 . S
C1125 H1120 0.950 . S
C1125 C1127 1.327 . S
C1125 C1131 1.429 . S
C1126 C1118 1.574 . S
C1126 H1121 0.949 . S
C1126 C1132 1.368 . S
C1127 C1111 1.349 . S
C1127 H1119 0.950 . S
C1127 C1125 1.327 . S
C1128 C1116 1.349 . S
C1128 H1122 0.950 . S
C1128 C1129 1.327 . S
C1129 H1123 0.950 . S
C1129 C1128 1.327 . S
C1129 C1133 1.429 . S
C1130 C1113 1.574 . S
C1130 H1124 0.949 . S
C1130 C1134 1.368 . S
C1131 C1112 1.429 . S
C1131 C1125 1.429 . S
C1131 C1132 1.523 . S
C1132 C1113 1.368 . S
C1132 C1126 1.368 . S
C1132 C1131 1.523 . S
C1133 C1117 1.429 . S
C1133 C1129 1.429 . S
C1133 C1134 1.523 . S
C1134 C1118 1.368 . S
C1134 C1130 1.368 . S
C1134 C1133 1.523 . S
H1135 C1110 0.950 . S
H1136 C1112 0.950 . S
H1137 C1113 0.949 . S
H1138 C1115 0.950 . S
H1139 C1117 0.950 . S
C1140 C1141 1.349 . S
C1140 C1142 1.327 . S
C1140 H1165 0.950 . S
C1141 C1140 1.349 . S
C1141 C1157 1.349 . S
C1142 C1140 1.327 . S
C1142 C1161 1.429 . S
C1142 H1166 0.950 . S
C1143 C1160 1.574 . S
C1143 C1162 1.368 . S
C1143 H1167 0.949 . S
H1144 C1148 0.949 . S
C1145 C1146 1.349 . S
C1145 C1147 1.327 . S
C1145 H1168 0.950 . S
C1146 C1145 1.349 . S
C1146 C1158 1.349 . S
C1147 C1145 1.327 . S
C1147 C1163 1.429 . S
C1147 H1169 0.950 . S
C1148 H1144 0.949 . S
C1148 C1156 1.574 . S
C1148 C1164 1.368 . S
H1149 C1157 0.950 . S
H1150 C1155 0.950 . S
H1151 C1156 0.949 . S
H1152 C1158 0.950 . S
H1153 C1159 0.950 . S
H1154 C1160 0.949 . S
C1155 H1150 0.950 . S
C1155 C1157 1.327 . S
C1155 C1161 1.429 . S
C1156 C1148 1.574 . S
C1156 H1151 0.949 . S
C1156 C1162 1.368 . S
C1157 C1141 1.349 . S
C1157 H1149 0.950 . S
C1157 C1155 1.327 . S
C1158 C1146 1.349 . S
C1158 H1152 0.950 . S
C1158 C1159 1.327 . S
C1159 H1153 0.950 . S
C1159 C1158 1.327 . S
C1159 C1163 1.429 . S
C1160 C1143 1.574 . S
C1160 H1154 0.949 . S
C1160 C1164 1.368 . S
C1161 C1142 1.429 . S
C1161 C1155 1.429 . S
C1161 C1162 1.523 . S
C1162 C1143 1.368 . S
C1162 C1156 1.368 . S
C1162 C1161 1.523 . S
C1163 C1147 1.429 . S
C1163 C1159 1.429 . S
C1163 C1164 1.523 . S
C1164 C1148 1.368 . S
C1164 C1160 1.368 . S
C1164 C1163 1.523 . S
H1165 C1140 0.950 . S
H1166 C1142 0.950 . S
H1167 C1143 0.949 . S
H1168 C1145 0.950 . S
H1169 C1147 0.950 . S
C1170 C1171 1.349 . S
C1170 C1172 1.327 . S
C1170 H1195 0.950 . S
C1171 C1170 1.349 . S
C1171 C1187 1.349 . S
C1172 C1170 1.327 . S
C1172 C1191 1.429 . S
C1172 H1196 0.950 . S
C1173 C1190 1.574 . S
C1173 C1192 1.368 . S
C1173 H1197 0.949 . S
H1174 C1178 0.949 . S
C1175 C1176 1.349 . S
C1175 C1177 1.327 . S
C1175 H1198 0.950 . S
C1176 C1175 1.349 . S
C1176 C1188 1.349 . S
C1177 C1175 1.327 . S
C1177 C1193 1.429 . S
C1177 H1199 0.950 . S
C1178 H1174 0.949 . S
C1178 C1186 1.574 . S
C1178 C1194 1.368 . S
H1179 C1187 0.950 . S
H1180 C1185 0.950 . S
H1181 C1186 0.949 . S
H1182 C1188 0.950 . S
H1183 C1189 0.950 . S
H1184 C1190 0.949 . S
C1185 H1180 0.950 . S
C1185 C1187 1.327 . S
C1185 C1191 1.429 . S
C1186 C1178 1.574 . S
C1186 H1181 0.949 . S
C1186 C1192 1.368 . S
C1187 C1171 1.349 . S
C1187 H1179 0.950 . S
C1187 C1185 1.327 . S
C1188 C1176 1.349 . S
C1188 H1182 0.950 . S
C1188 C1189 1.327 . S
C1189 H1183 0.950 . S
C1189 C1188 1.327 . S
C1189 C1193 1.429 . S
C1190 C1173 1.574 . S
C1190 H1184 0.949 . S
C1190 C1194 1.368 . S
C1191 C1172 1.429 . S
C1191 C1185 1.429 . S
C1191 C1192 1.523 . S
C1192 C1173 1.368 . S
C1192 C1186 1.368 . S
C1192 C1191 1.523 . S
C1193 C1177 1.429 . S
C1193 C1189 1.429 . S
C1193 C1194 1.523 . S
C1194 C1178 1.368 . S
C1194 C1190 1.368 . S
C1194 C1193 1.523 . S
H1195 C1170 0.950 . S
H1196 C1172 0.950 . S
H1197 C1173 0.949 . S
H1198 C1175 0.950 . S
H1199 C1177 0.950 . S
C1200 C1201 1.349 . S
C1200 C1202 1.327 . S
C1200 H1225 0.950 . S
C1201 C1200 1.349 . S
C1201 C1217 1.349 . S
C1202 C1200 1.327 . S
C1202 C1221 1.429 . S
C1202 H1226 0.950 . S
C1203 C1220 1.574 . S
C1203 C1222 1.368 . S
C1203 H1227 0.949 . S
H1204 C1208 0.949 . S
C1205 C1206 1.349 . S
C1205 C1207 1.327 . S
C1205 H1228 0.950 . S
C1206 C1205 1.349 . S
C1206 C1218 1.349 . S
C1207 C1205 1.327 . S
C1207 C1223 1.429 . S
C1207 H1229 0.950 . S
C1208 H1204 0.949 . S
C1208 C1216 1.574 . S
C1208 C1224 1.368 . S
H1209 C1217 0.950 . S
H1210 C1215 0.950 . S
H1211 C1216 0.949 . S
H1212 C1218 0.950 . S
H1213 C1219 0.950 . S
H1214 C1220 0.949 . S
C1215 H1210 0.950 . S
C1215 C1217 1.327 . S
C1215 C1221 1.429 . S
C1216 C1208 1.574 . S
C1216 H1211 0.949 . S
C1216 C1222 1.368 . S
C1217 C1201 1.349 . S
C1217 H1209 0.950 . S
C1217 C1215 1.327 . S
C1218 C1206 1.349 . S
C1218 H1212 0.950 . S
C1218 C1219 1.327 . S
C1219 H1213 0.950 . S
C1219 C1218 1.327 . S
C1219 C1223 1.429 . S
C1220 C1203 1.574 . S
C1220 H1214 0.949 . S
C1220 C1224 1.368 . S
C1221 C1202 1.429 . S
C1221 C1215 1.429 . S
C1221 C1222 1.523 . S
C1222 C1203 1.368 . S
C1222 C1216 1.368 . S
C1222 C1221 1.523 . S
C1223 C1207 1.429 . S
C1223 C1219 1.429 . S
C1223 C1224 1.523 . S
C1224 C1208 1.368 . S
C1224 C1220 1.368 . S
C1224 C1223 1.523 . S
H1225 C1200 0.950 . S
H1226 C1202 0.950 . S
H1227 C1203 0.949 . S
H1228 C1205 0.950 . S
H1229 C1207 0.950 . S
C1230 C1231 1.349 . S
C1230 C1232 1.327 . S
C1230 H1255 0.950 . S
C1231 C1230 1.349 . S
C1231 C1247 1.349 . S
C1232 C1230 1.327 . S
C1232 C1251 1.429 . S
C1232 H1256 0.950 . S
C1233 C1250 1.574 . S
C1233 C1252 1.368 . S
C1233 H1257 0.949 . S
H1234 C1238 0.949 . S
C1235 C1236 1.349 . S
C1235 C1237 1.327 . S
C1235 H1258 0.950 . S
C1236 C1235 1.349 . S
C1236 C1248 1.349 . S
C1237 C1235 1.327 . S
C1237 C1253 1.429 . S
C1237 H1259 0.950 . S
C1238 H1234 0.949 . S
C1238 C1246 1.574 . S
C1238 C1254 1.368 . S
H1239 C1247 0.950 . S
H1240 C1245 0.950 . S
H1241 C1246 0.949 . S
H1242 C1248 0.950 . S
H1243 C1249 0.950 . S
H1244 C1250 0.949 . S
C1245 H1240 0.950 . S
C1245 C1247 1.327 . S
C1245 C1251 1.429 . S
C1246 C1238 1.574 . S
C1246 H1241 0.949 . S
C1246 C1252 1.368 . S
C1247 C1231 1.349 . S
C1247 H1239 0.950 . S
C1247 C1245 1.327 . S
C1248 C1236 1.349 . S
C1248 H1242 0.950 . S
C1248 C1249 1.327 . S
C1249 H1243 0.950 . S
C1249 C1248 1.327 . S
C1249 C1253 1.429 . S
C1250 C1233 1.574 . S
C1250 H1244 0.949 . S
C1250 C1254 1.368 . S
C1251 C1232 1.429 . S
C1251 C1245 1.429 . S
C1251 C1252 1.523 . S
C1252 C1233 1.368 . S
C1252 C1246 1.368 . S
C1252 C1251 1.523 . S
C1253 C1237 1.429 . S
C1253 C1249 1.429 . S
C1253 C1254 1.523 . S
C1254 C1238 1.368 . S
C1254 C1250 1.368 . S
C1254 C1253 1.523 . S
H1255 C1230 0.950 . S
H1256 C1232 0.950 . S
H1257 C1233 0.949 . S
H1258 C1235 0.950 . S
H1259 C1237 0.950 . S
C1260 C1261 1.349 . S
C1260 C1262 1.327 . S
C1260 H1285 0.950 . S
C1261 C1260 1.349 . S
C1261 C1277 1.349 . S
C1262 C1260 1.327 . S
C1262 C1281 1.429 . S
C1262 H1286 0.950 . S
C1263 C1280 1.574 . S
C1263 C1282 1.368 . S
C1263 H1287 0.949 . S
H1264 C1268 0.949 . S
C1265 C1266 1.349 . S
C1265 C1267 1.327 . S
C1265 H1288 0.950 . S
C1266 C1265 1.349 . S
C1266 C1278 1.349 . S
C1267 C1265 1.327 . S
C1267 C1283 1.429 . S
C1267 H1289 0.950 . S
C1268 H1264 0.949 . S
C1268 C1276 1.574 . S
C1268 C1284 1.368 . S
H1269 C1277 0.950 . S
H1270 C1275 0.950 . S
H1271 C1276 0.949 . S
H1272 C1278 0.950 . S
H1273 C1279 0.950 . S
H1274 C1280 0.949 . S
C1275 H1270 0.950 . S
C1275 C1277 1.327 . S
C1275 C1281 1.429 . S
C1276 C1268 1.574 . S
C1276 H1271 0.949 . S
C1276 C1282 1.368 . S
C1277 C1261 1.349 . S
C1277 H1269 0.950 . S
C1277 C1275 1.327 . S
C1278 C1266 1.349 . S
C1278 H1272 0.950 . S
C1278 C1279 1.327 . S
C1279 H1273 0.950 . S
C1279 C1278 1.327 . S
C1279 C1283 1.429 . S
C1280 C1263 1.574 . S
C1280 H1274 0.949 . S
C1280 C1284 1.368 . S
C1281 C1262 1.429 . S
C1281 C1275 1.429 . S
C1281 C1282 1.523 . S
C1282 C1263 1.368 . S
C1282 C1276 1.368 . S
C1282 C1281 1.523 . S
C1283 C1267 1.429 . S
C1283 C1279 1.429 . S
C1283 C1284 1.523 . S
C1284 C1268 1.368 . S
C1284 C1280 1.368 . S
C1284 C1283 1.523 . S
H1285 C1260 0.950 . S
H1286 C1262 0.950 . S
H1287 C1263 0.949 . S
H1288 C1265 0.950 . S
H1289 C1267 0.950 . S
C1290 C1291 1.349 . S
C1290 C1292 1.327 . S
C1290 H1315 0.950 . S
C1291 C1290 1.349 . S
C1291 C1307 1.349 . S
C1292 C1290 1.327 . S
C1292 C1311 1.429 . S
C1292 H1316 0.950 . S
C1293 C1310 1.574 . S
C1293 C1312 1.368 . S
C1293 H1317 0.949 . S
H1294 C1298 0.949 . S
C1295 C1296 1.349 . S
C1295 C1297 1.327 . S
C1295 H1318 0.950 . S
C1296 C1295 1.349 . S
C1296 C1308 1.349 . S
C1297 C1295 1.327 . S
C1297 C1313 1.429 . S
C1297 H1319 0.950 . S
C1298 H1294 0.949 . S
C1298 C1306 1.574 . S
C1298 C1314 1.368 . S
H1299 C1307 0.950 . S
H1300 C1305 0.950 . S
H1301 C1306 0.949 . S
H1302 C1308 0.950 . S
H1303 C1309 0.950 . S
H1304 C1310 0.949 . S
C1305 H1300 0.950 . S
C1305 C1307 1.327 . S
C1305 C1311 1.429 . S
C1306 C1298 1.574 . S
C1306 H1301 0.949 . S
C1306 C1312 1.368 . S
C1307 C1291 1.349 . S
C1307 H1299 0.950 . S
C1307 C1305 1.327 . S
C1308 C1296 1.349 . S
C1308 H1302 0.950 . S
C1308 C1309 1.327 . S
C1309 H1303 0.950 . S
C1309 C1308 1.327 . S
C1309 C1313 1.429 . S
C1310 C1293 1.574 . S
C1310 H1304 0.949 . S
C1310 C1314 1.368 . S
C1311 C1292 1.429 . S
C1311 C1305 1.429 . S
C1311 C1312 1.523 . S
C1312 C1293 1.368 . S
C1312 C1306 1.368 . S
C1312 C1311 1.523 . S
C1313 C1297 1.429 . S
C1313 C1309 1.429 . S
C1313 C1314 1.523 . S
C1314 C1298 1.368 . S
C1314 C1310 1.368 . S
C1314 C1313 1.523 . S
H1315 C1290 0.950 . S
H1316 C1292 0.950 . S
H1317 C1293 0.949 . S
H1318 C1295 0.950 . S
H1319 C1297 0.950 . S
C1320 C1321 1.349 . S
C1320 C1322 1.327 . S
C1320 H1345 0.950 . S
C1321 C1320 1.349 . S
C1321 C1337 1.349 . S
C1322 C1320 1.327 . S
C1322 C1341 1.429 . S
C1322 H1346 0.950 . S
C1323 C1340 1.574 . S
C1323 C1342 1.368 . S
C1323 H1347 0.949 . S
H1324 C1328 0.949 . S
C1325 C1326 1.349 . S
C1325 C1327 1.327 . S
C1325 H1348 0.950 . S
C1326 C1325 1.349 . S
C1326 C1338 1.349 . S
C1327 C1325 1.327 . S
C1327 C1343 1.429 . S
C1327 H1349 0.950 . S
C1328 H1324 0.949 . S
C1328 C1336 1.574 . S
C1328 C1344 1.368 . S
H1329 C1337 0.950 . S
H1330 C1335 0.950 . S
H1331 C1336 0.949 . S
H1332 C1338 0.950 . S
H1333 C1339 0.950 . S
H1334 C1340 0.949 . S
C1335 H1330 0.950 . S
C1335 C1337 1.327 . S
C1335 C1341 1.429 . S
C1336 C1328 1.574 . S
C1336 H1331 0.949 . S
C1336 C1342 1.368 . S
C1337 C1321 1.349 . S
C1337 H1329 0.950 . S
C1337 C1335 1.327 . S
C1338 C1326 1.349 . S
C1338 H1332 0.950 . S
C1338 C1339 1.327 . S
C1339 H1333 0.950 . S
C1339 C1338 1.327 . S
C1339 C1343 1.429 . S
C1340 C1323 1.574 . S
C1340 H1334 0.949 . S
C1340 C1344 1.368 . S
C1341 C1322 1.429 . S
C1341 C1335 1.429 . S
C1341 C1342 1.523 . S
C1342 C1323 1.368 . S
C1342 C1336 1.368 . S
C1342 C1341 1.523 . S
C1343 C1327 1.429 . S
C1343 C1339 1.429 . S
C1343 C1344 1.523 . S
C1344 C1328 1.368 . S
C1344 C1340 1.368 . S
C1344 C1343 1.523 . S
H1345 C1320 0.950 . S
H1346 C1322 0.950 . S
H1347 C1323 0.949 . S
H1348 C1325 0.950 . S
H1349 C1327 0.950 . S
C1350 C1351 1.349 . S
C1350 C1352 1.327 . S
C1350 H1375 0.950 . S
C1351 C1350 1.349 . S
C1351 C1367 1.349 . S
C1352 C1350 1.327 . S
C1352 C1371 1.429 . S
C1352 H1376 0.950 . S
C1353 C1370 1.574 . S
C1353 C1372 1.368 . S
C1353 H1377 0.949 . S
H1354 C1358 0.949 . S
C1355 C1356 1.349 . S
C1355 C1357 1.327 . S
C1355 H1378 0.950 . S
C1356 C1355 1.349 . S
C1356 C1368 1.349 . S
C1357 C1355 1.327 . S
C1357 C1373 1.429 . S
C1357 H1379 0.950 . S
C1358 H1354 0.949 . S
C1358 C1366 1.574 . S
C1358 C1374 1.368 . S
H1359 C1367 0.950 . S
H1360 C1365 0.950 . S
H1361 C1366 0.949 . S
H1362 C1368 0.950 . S
H1363 C1369 0.950 . S
H1364 C1370 0.949 . S
C1365 H1360 0.950 . S
C1365 C1367 1.327 . S
C1365 C1371 1.429 . S
C1366 C1358 1.574 . S
C1366 H1361 0.949 . S
C1366 C1372 1.368 . S
C1367 C1351 1.349 . S
C1367 H1359 0.950 . S
C1367 C1365 1.327 . S
C1368 C1356 1.349 . S
C1368 H1362 0.950 . S
C1368 C1369 1.327 . S
C1369 H1363 0.950 . S
C1369 C1368 1.327 . S
C1369 C1373 1.429 . S
C1370 C1353 1.574 . S
C1370 H1364 0.949 . S
C1370 C1374 1.368 . S
C1371 C1352 1.429 . S
C1371 C1365 1.429 . S
C1371 C1372 1.523 . S
C1372 C1353 1.368 . S
C1372 C1366 1.368 . S
C1372 C1371 1.523 . S
C1373 C1357 1.429 . S
C1373 C1369 1.429 . S
C1373 C1374 1.523 . S
C1374 C1358 1.368 . S
C1374 C1370 1.368 . S
C1374 C1373 1.523 . S
H1375 C1350 0.950 . S
H1376 C1352 0.950 . S
H1377 C1353 0.949 . S
H1378 C1355 0.950 . S
H1379 C1357 0.950 . S
C1380 C1381 1.349 . S
C1380 C1382 1.327 . S
C1380 H1405 0.950 . S
C1381 C1380 1.349 . S
C1381 C1397 1.349 . S
C1382 C1380 1.327 . S
C1382 C1401 1.429 . S
C1382 H1406 0.950 . S
C1383 C1400 1.574 . S
C1383 C1402 1.368 . S
C1383 H1407 0.949 . S
H1384 C1388 0.949 . S
C1385 C1386 1.349 . S
C1385 C1387 1.327 . S
C1385 H1408 0.950 . S
C1386 C1385 1.349 . S
C1386 C1398 1.349 . S
C1387 C1385 1.327 . S
C1387 C1403 1.429 . S
C1387 H1409 0.950 . S
C1388 H1384 0.949 . S
C1388 C1396 1.574 . S
C1388 C1404 1.368 . S
H1389 C1397 0.950 . S
H1390 C1395 0.950 . S
H1391 C1396 0.949 . S
H1392 C1398 0.950 . S
H1393 C1399 0.950 . S
H1394 C1400 0.949 . S
C1395 H1390 0.950 . S
C1395 C1397 1.327 . S
C1395 C1401 1.429 . S
C1396 C1388 1.574 . S
C1396 H1391 0.949 . S
C1396 C1402 1.368 . S
C1397 C1381 1.349 . S
C1397 H1389 0.950 . S
C1397 C1395 1.327 . S
C1398 C1386 1.349 . S
C1398 H1392 0.950 . S
C1398 C1399 1.327 . S
C1399 H1393 0.950 . S
C1399 C1398 1.327 . S
C1399 C1403 1.429 . S
C1400 C1383 1.574 . S
C1400 H1394 0.949 . S
C1400 C1404 1.368 . S
C1401 C1382 1.429 . S
C1401 C1395 1.429 . S
C1401 C1402 1.523 . S
C1402 C1383 1.368 . S
C1402 C1396 1.368 . S
C1402 C1401 1.523 . S
C1403 C1387 1.429 . S
C1403 C1399 1.429 . S
C1403 C1404 1.523 . S
C1404 C1388 1.368 . S
C1404 C1400 1.368 . S
C1404 C1403 1.523 . S
H1405 C1380 0.950 . S
H1406 C1382 0.950 . S
H1407 C1383 0.949 . S
H1408 C1385 0.950 . S
H1409 C1387 0.950 . S
C1410 C1411 1.349 . S
C1410 C1412 1.327 . S
C1410 H1435 0.950 . S
C1411 C1410 1.349 . S
C1411 C1427 1.349 . S
C1412 C1410 1.327 . S
C1412 C1431 1.429 . S
C1412 H1436 0.950 . S
C1413 C1430 1.574 . S
C1413 C1432 1.368 . S
C1413 H1437 0.949 . S
H1414 C1418 0.949 . S
C1415 C1416 1.349 . S
C1415 C1417 1.327 . S
C1415 H1438 0.950 . S
C1416 C1415 1.349 . S
C1416 C1428 1.349 . S
C1417 C1415 1.327 . S
C1417 C1433 1.429 . S
C1417 H1439 0.950 . S
C1418 H1414 0.949 . S
C1418 C1426 1.574 . S
C1418 C1434 1.368 . S
H1419 C1427 0.950 . S
H1420 C1425 0.950 . S
H1421 C1426 0.949 . S
H1422 C1428 0.950 . S
H1423 C1429 0.950 . S
H1424 C1430 0.949 . S
C1425 H1420 0.950 . S
C1425 C1427 1.327 . S
C1425 C1431 1.429 . S
C1426 C1418 1.574 . S
C1426 H1421 0.949 . S
C1426 C1432 1.368 . S
C1427 C1411 1.349 . S
C1427 H1419 0.950 . S
C1427 C1425 1.327 . S
C1428 C1416 1.349 . S
C1428 H1422 0.950 . S
C1428 C1429 1.327 . S
C1429 H1423 0.950 . S
C1429 C1428 1.327 . S
C1429 C1433 1.429 . S
C1430 C1413 1.574 . S
C1430 H1424 0.949 . S
C1430 C1434 1.368 . S
C1431 C1412 1.429 . S
C1431 C1425 1.429 . S
C1431 C1432 1.523 . S
C1432 C1413 1.368 . S
C1432 C1426 1.368 . S
C1432 C1431 1.523 . S
C1433 C1417 1.429 . S
C1433 C1429 1.429 . S
C1433 C1434 1.523 . S
C1434 C1418 1.368 . S
C1434 C1430 1.368 . S
C1434 C1433 1.523 . S
H1435 C1410 0.950 . S
H1436 C1412 0.950 . S
H1437 C1413 0.949 . S
H1438 C1415 0.950 . S
H1439 C1417 0.950 . S
C1440 C1441 1.391 . S
C1440 C1442 1.327 . S
C1440 H1465 0.950 . S
C1441 C1440 1.391 . S
C1441 C1457 1.307 1_565 S
C1442 C1440 1.327 . S
C1442 C1461 1.447 . S
C1442 H1466 0.950 . S
C1443 C1460 1.574 . S
C1443 C1462 1.362 1_545 S
C1443 H1467 0.949 . S
H1444 C1448 0.949 . S
C1445 C1446 1.391 . S
C1445 C1447 1.327 . S
C1445 H1468 0.950 . S
C1446 C1445 1.391 . S
C1446 C1458 1.308 1_545 S
C1447 C1445 1.327 . S
C1447 C1463 1.447 . S
C1447 H1469 0.950 . S
C1448 H1444 0.949 . S
C1448 C1456 1.574 . S
C1448 C1464 1.362 1_565 S
H1449 C1457 0.950 . S
H1450 C1455 0.950 . S
H1451 C1456 0.949 . S
H1452 C1458 0.950 . S
H1453 C1459 0.950 . S
H1454 C1460 0.949 . S
C1455 H1450 0.950 . S
C1455 C1457 1.327 . S
C1455 C1461 1.411 1_545 S
C1456 C1448 1.574 . S
C1456 H1451 0.949 . S
C1456 C1462 1.375 . S
C1457 C1441 1.307 1_545 S
C1457 H1449 0.950 . S
C1457 C1455 1.327 . S
C1458 C1446 1.308 1_565 S
C1458 H1452 0.950 . S
C1458 C1459 1.327 . S
C1459 H1453 0.950 . S
C1459 C1458 1.327 . S
C1459 C1463 1.411 1_565 S
C1460 C1443 1.574 . S
C1460 H1454 0.949 . S
C1460 C1464 1.374 . S
C1461 C1442 1.447 . S
C1461 C1455 1.411 1_565 S
C1461 C1462 1.523 . S
C1462 C1443 1.362 1_565 S
C1462 C1456 1.375 . S
C1462 C1461 1.523 . S
C1463 C1447 1.447 . S
C1463 C1459 1.411 1_545 S
C1463 C1464 1.523 . S
C1464 C1448 1.362 1_545 S
C1464 C1460 1.374 . S
C1464 C1463 1.523 . S
H1465 C1440 0.950 . S
H1466 C1442 0.950 . S
H1467 C1443 0.949 . S
H1468 C1445 0.950 . S
H1469 C1447 0.950 . S
C1470 C1471 1.349 . S
C1470 C1472 1.327 . S
C1470 H1495 0.950 . S
C1471 C1470 1.349 . S
C1471 C1487 1.349 . S
C1472 C1470 1.327 . S
C1472 C1491 1.429 . S
C1472 H1496 0.950 . S
C1473 C1490 1.573 . S
C1473 C1492 1.368 . S
C1473 H1497 0.949 . S
H1474 C1478 0.949 . S
C1475 C1476 1.349 . S
C1475 C1477 1.327 . S
C1475 H1498 0.950 . S
C1476 C1475 1.349 . S
C1476 C1488 1.349 . S
C1477 C1475 1.327 . S
C1477 C1493 1.429 . S
C1477 H1499 0.950 . S
C1478 H1474 0.949 . S
C1478 C1486 1.573 . S
C1478 C1494 1.368 . S
H1479 C1487 0.950 . S
H1480 C1485 0.950 . S
H1481 C1486 0.949 1_455 S
H1482 C1488 0.950 . S
H1483 C1489 0.950 . S
H1484 C1490 0.949 1_655 S
C1485 H1480 0.950 . S
C1485 C1487 1.327 . S
C1485 C1491 1.429 . S
C1486 C1478 1.573 . S
C1486 H1481 0.949 1_655 S
C1486 C1492 1.369 1_655 S
C1487 C1471 1.349 . S
C1487 H1479 0.950 . S
C1487 C1485 1.327 . S
C1488 C1476 1.349 . S
C1488 H1482 0.950 . S
C1488 C1489 1.327 . S
C1489 H1483 0.950 . S
C1489 C1488 1.327 . S
C1489 C1493 1.429 . S
C1490 C1473 1.573 . S
C1490 H1484 0.949 1_455 S
C1490 C1494 1.369 1_455 S
C1491 C1472 1.429 . S
C1491 C1485 1.429 . S
C1491 C1492 1.523 . S
C1492 C1473 1.368 . S
C1492 C1486 1.369 1_455 S
C1492 C1491 1.523 . S
C1493 C1477 1.429 . S
C1493 C1489 1.429 . S
C1493 C1494 1.523 . S
C1494 C1478 1.368 . S
C1494 C1490 1.369 1_655 S
C1494 C1493 1.523 . S
H1495 C1470 0.950 . S
H1496 C1472 0.950 . S
H1497 C1473 0.949 . S
H1498 C1475 0.950 . S
H1499 C1477 0.950 . S
C1500 C1501 1.349 . S
C1500 C1502 1.327 . S
C1500 H1525 0.950 . S
C1501 C1500 1.349 . S
C1501 C1517 1.349 . S
C1502 C1500 1.327 . S
C1502 C1521 1.429 . S
C1502 H1526 0.950 . S
C1503 C1520 1.574 1_556 S
C1503 C1522 1.368 . S
C1503 H1527 0.949 . S
H1504 C1508 0.949 . S
C1505 C1506 1.349 . S
C1505 C1507 1.327 . S
C1505 H1528 0.950 . S
C1506 C1505 1.349 . S
C1506 C1518 1.349 . S
C1507 C1505 1.327 . S
C1507 C1523 1.429 . S
C1507 H1529 0.950 . S
C1508 H1504 0.949 . S
C1508 C1516 1.574 1_554 S
C1508 C1524 1.368 . S
H1509 C1517 0.950 . S
H1510 C1515 0.950 . S
H1511 C1516 0.949 . S
H1512 C1518 0.950 . S
H1513 C1519 0.950 . S
H1514 C1520 0.949 . S
C1515 H1510 0.950 . S
C1515 C1517 1.327 . S
C1515 C1521 1.429 . S
C1516 C1508 1.574 1_556 S
C1516 H1511 0.949 . S
C1516 C1522 1.368 . S
C1517 C1501 1.349 . S
C1517 H1509 0.950 . S
C1517 C1515 1.327 . S
C1518 C1506 1.349 . S
C1518 H1512 0.950 . S
C1518 C1519 1.327 . S
C1519 H1513 0.950 . S
C1519 C1518 1.327 . S
C1519 C1523 1.429 . S
C1520 C1503 1.574 1_554 S
C1520 H1514 0.949 . S
C1520 C1524 1.368 . S
C1521 C1502 1.429 . S
C1521 C1515 1.429 . S
C1521 C1522 1.523 . S
C1522 C1503 1.368 . S
C1522 C1516 1.368 . S
C1522 C1521 1.523 . S
C1523 C1507 1.429 . S
C1523 C1519 1.429 . S
C1523 C1524 1.523 . S
C1524 C1508 1.368 . S
C1524 C1520 1.368 . S
C1524 C1523 1.523 . S
H1525 C1500 0.950 . S
H1526 C1502 0.950 . S
H1527 C1503 0.949 . S
H1528 C1505 0.950 . S
H1529 C1507 0.950 . S
C1530 C1531 1.391 . S
C1530 C1532 1.327 . S
C1530 H1555 0.950 . S
C1531 C1530 1.391 . S
C1531 C1547 1.307 1_565 S
C1532 C1530 1.327 . S
C1532 C1551 1.447 . S
C1532 H1556 0.950 . S
C1533 C1550 1.574 1_554 S
C1533 C1552 1.362 1_445 S
C1533 H1557 0.949 1_455 S
H1534 C1538 0.949 1_455 S
C1535 C1536 1.391 . S
C1535 C1537 1.327 . S
C1535 H1558 0.950 . S
C1536 C1535 1.391 . S
C1536 C1548 1.307 1_545 S
C1537 C1535 1.327 . S
C1537 C1553 1.447 . S
C1537 H1559 0.950 . S
C1538 H1534 0.949 1_655 S
C1538 C1546 1.574 1_556 S
C1538 C1554 1.362 1_665 S
H1539 C1547 0.950 . S
H1540 C1545 0.950 . S
H1541 C1546 0.949 . S
H1542 C1548 0.950 . S
H1543 C1549 0.950 . S
H1544 C1550 0.949 . S
C1545 H1540 0.950 . S
C1545 C1547 1.327 . S
C1545 C1551 1.411 1_545 S
C1546 C1538 1.574 1_554 S
C1546 H1541 0.949 . S
C1546 C1552 1.374 . S
C1547 C1531 1.307 1_545 S
C1547 H1539 0.950 . S
C1547 C1545 1.327 . S
C1548 C1536 1.307 1_565 S
C1548 H1542 0.950 . S
C1548 C1549 1.327 . S
C1549 H1543 0.950 . S
C1549 C1548 1.327 . S
C1549 C1553 1.411 1_565 S
C1550 C1533 1.574 1_556 S
C1550 H1544 0.949 . S
C1550 C1554 1.374 . S
C1551 C1532 1.447 . S
C1551 C1545 1.411 1_565 S
C1551 C1552 1.523 . S
C1552 C1533 1.362 1_665 S
C1552 C1546 1.374 . S
C1552 C1551 1.523 . S
C1553 C1537 1.447 . S
C1553 C1549 1.411 1_545 S
C1553 C1554 1.523 . S
C1554 C1538 1.362 1_445 S
C1554 C1550 1.374 . S
C1554 C1553 1.523 . S
H1555 C1530 0.950 . S
H1556 C1532 0.950 . S
H1557 C1533 0.949 1_655 S
H1558 C1535 0.950 . S
H1559 C1537 0.950 . S
C1560 C1561 1.308 1_565 S
C1560 C1562 1.327 . S
C1560 H1585 0.950 . S
C1561 C1560 1.308 1_545 S
C1561 C1577 1.390 . S
C1562 C1560 1.327 . S
C1562 C1581 1.411 1_565 S
C1562 H1586 0.950 . S
C1563 C1580 1.574 . S
C1563 C1582 1.374 . S
C1563 H1587 0.949 . S
H1564 C1568 0.949 . S
C1565 C1566 1.308 1_545 S
C1565 C1567 1.327 . S
C1565 H1588 0.950 . S
C1566 C1565 1.308 1_565 S
C1566 C1578 1.390 . S
C1567 C1565 1.327 . S
C1567 C1583 1.411 1_545 S
C1567 H1589 0.950 . S
C1568 H1564 0.949 . S
C1568 C1576 1.574 . S
C1568 C1584 1.374 . S
H1569 C1577 0.950 . S
H1570 C1575 0.950 . S
H1571 C1576 0.949 . S
H1572 C1578 0.950 . S
H1573 C1579 0.950 . S
H1574 C1580 0.949 . S
C1575 H1570 0.950 . S
C1575 C1577 1.327 . S
C1575 C1581 1.447 . S
C1576 C1568 1.574 . S
C1576 H1571 0.949 . S
C1576 C1582 1.362 1_565 S
C1577 C1561 1.390 . S
C1577 H1569 0.950 . S
C1577 C1575 1.327 . S
C1578 C1566 1.390 . S
C1578 H1572 0.950 . S
C1578 C1579 1.327 . S
C1579 H1573 0.950 . S
C1579 C1578 1.327 . S
C1579 C1583 1.446 . S
C1580 C1563 1.574 . S
C1580 H1574 0.949 . S
C1580 C1584 1.362 1_545 S
C1581 C1562 1.411 1_545 S
C1581 C1575 1.447 . S
C1581 C1582 1.523 . S
C1582 C1563 1.374 . S
C1582 C1576 1.362 1_545 S
C1582 C1581 1.523 . S
C1583 C1567 1.411 1_565 S
C1583 C1579 1.446 . S
C1583 C1584 1.523 . S
C1584 C1568 1.374 . S
C1584 C1580 1.362 1_565 S
C1584 C1583 1.523 . S
H1585 C1560 0.950 . S
H1586 C1562 0.950 . S
H1587 C1563 0.949 . S
H1588 C1565 0.950 . S
H1589 C1567 0.950 . S
C1590 C1591 1.349 . S
C1590 C1592 1.327 . S
C1590 H1615 0.950 . S
C1591 C1590 1.349 . S
C1591 C1607 1.349 . S
C1592 C1590 1.327 . S
C1592 C1611 1.429 . S
C1592 H1616 0.950 . S
C1593 C1610 1.576 1_455 S
C1593 C1612 1.368 . S
C1593 H1617 0.949 . S
H1594 C1598 0.949 . S
C1595 C1596 1.349 . S
C1595 C1597 1.327 . S
C1595 H1618 0.950 . S
C1596 C1595 1.349 . S
C1596 C1608 1.349 . S
C1597 C1595 1.327 . S
C1597 C1613 1.429 . S
C1597 H1619 0.950 . S
C1598 H1594 0.949 . S
C1598 C1606 1.576 1_655 S
C1598 C1614 1.368 . S
H1599 C1607 0.950 . S
H1600 C1605 0.950 . S
H1601 C1606 0.949 . S
H1602 C1608 0.950 . S
H1603 C1609 0.950 . S
H1604 C1610 0.949 . S
C1605 H1600 0.950 . S
C1605 C1607 1.327 . S
C1605 C1611 1.429 . S
C1606 C1598 1.576 1_455 S
C1606 H1601 0.949 . S
C1606 C1612 1.366 . S
C1607 C1591 1.349 . S
C1607 H1599 0.950 . S
C1607 C1605 1.327 . S
C1608 C1596 1.349 . S
C1608 H1602 0.950 . S
C1608 C1609 1.327 . S
C1609 H1603 0.950 . S
C1609 C1608 1.327 . S
C1609 C1613 1.429 . S
C1610 C1593 1.576 1_655 S
C1610 H1604 0.949 . S
C1610 C1614 1.366 . S
C1611 C1592 1.429 . S
C1611 C1605 1.429 . S
C1611 C1612 1.523 . S
C1612 C1593 1.368 . S
C1612 C1606 1.366 . S
C1612 C1611 1.523 . S
C1613 C1597 1.429 . S
C1613 C1609 1.429 . S
C1613 C1614 1.523 . S
C1614 C1598 1.368 . S
C1614 C1610 1.366 . S
C1614 C1613 1.523 . S
H1615 C1590 0.950 . S
H1616 C1592 0.950 . S
H1617 C1593 0.949 . S
H1618 C1595 0.950 . S
H1619 C1597 0.950 . S
C1620 C1621 1.349 . S
C1620 C1622 1.327 . S
C1620 H1645 0.950 . S
C1621 C1620 1.349 . S
C1621 C1637 1.349 . S
C1622 C1620 1.327 . S
C1622 C1641 1.429 . S
C1622 H1646 0.950 . S
C1623 C1640 1.574 1_556 S
C1623 C1642 1.368 . S
C1623 H1647 0.949 . S
H1624 C1628 0.949 . S
C1625 C1626 1.349 . S
C1625 C1627 1.327 . S
C1625 H1648 0.950 . S
C1626 C1625 1.349 . S
C1626 C1638 1.349 . S
C1627 C1625 1.327 . S
C1627 C1643 1.429 . S
C1627 H1649 0.950 . S
C1628 H1624 0.949 . S
C1628 C1636 1.574 1_554 S
C1628 C1644 1.368 . S
H1629 C1637 0.950 . S
H1630 C1635 0.950 . S
H1631 C1636 0.949 . S
H1632 C1638 0.950 . S
H1633 C1639 0.950 . S
H1634 C1640 0.949 . S
C1635 H1630 0.950 . S
C1635 C1637 1.327 . S
C1635 C1641 1.429 . S
C1636 C1628 1.574 1_556 S
C1636 H1631 0.949 . S
C1636 C1642 1.368 . S
C1637 C1621 1.349 . S
C1637 H1629 0.950 . S
C1637 C1635 1.327 . S
C1638 C1626 1.349 . S
C1638 H1632 0.950 . S
C1638 C1639 1.327 . S
C1639 H1633 0.950 . S
C1639 C1638 1.327 . S
C1639 C1643 1.429 . S
C1640 C1623 1.574 1_554 S
C1640 H1634 0.949 . S
C1640 C1644 1.368 . S
C1641 C1622 1.429 . S
C1641 C1635 1.429 . S
C1641 C1642 1.523 . S
C1642 C1623 1.368 . S
C1642 C1636 1.368 . S
C1642 C1641 1.523 . S
C1643 C1627 1.429 . S
C1643 C1639 1.429 . S
C1643 C1644 1.523 . S
C1644 C1628 1.368 . S
C1644 C1640 1.368 . S
C1644 C1643 1.523 . S
H1645 C1620 0.950 . S
H1646 C1622 0.950 . S
H1647 C1623 0.949 . S
H1648 C1625 0.950 . S
H1649 C1627 0.950 . S
C1650 C1651 1.349 . S
C1650 C1652 1.327 . S
C1650 H1675 0.950 . S
C1651 C1650 1.349 . S
C1651 C1667 1.349 . S
C1652 C1650 1.327 . S
C1652 C1671 1.429 . S
C1652 H1676 0.950 . S
C1653 C1670 1.574 . S
C1653 C1672 1.368 . S
C1653 H1677 0.949 . S
H1654 C1658 0.949 . S
C1655 C1656 1.349 . S
C1655 C1657 1.327 . S
C1655 H1678 0.950 . S
C1656 C1655 1.349 . S
C1656 C1668 1.349 . S
C1657 C1655 1.327 . S
C1657 C1673 1.429 . S
C1657 H1679 0.950 . S
C1658 H1654 0.949 . S
C1658 C1666 1.574 . S
C1658 C1674 1.368 . S
H1659 C1667 0.950 . S
H1660 C1665 0.950 . S
H1661 C1666 0.949 . S
H1662 C1668 0.950 . S
H1663 C1669 0.950 . S
H1664 C1670 0.949 . S
C1665 H1660 0.950 . S
C1665 C1667 1.327 . S
C1665 C1671 1.429 . S
C1666 C1658 1.574 . S
C1666 H1661 0.949 . S
C1666 C1672 1.368 . S
C1667 C1651 1.349 . S
C1667 H1659 0.950 . S
C1667 C1665 1.327 . S
C1668 C1656 1.349 . S
C1668 H1662 0.950 . S
C1668 C1669 1.327 . S
C1669 H1663 0.950 . S
C1669 C1668 1.327 . S
C1669 C1673 1.429 . S
C1670 C1653 1.574 . S
C1670 H1664 0.949 . S
C1670 C1674 1.368 . S
C1671 C1652 1.429 . S
C1671 C1665 1.429 . S
C1671 C1672 1.523 . S
C1672 C1653 1.368 . S
C1672 C1666 1.368 . S
C1672 C1671 1.523 . S
C1673 C1657 1.429 . S
C1673 C1669 1.429 . S
C1673 C1674 1.523 . S
C1674 C1658 1.368 . S
C1674 C1670 1.368 . S
C1674 C1673 1.523 . S
H1675 C1650 0.950 . S
H1676 C1652 0.950 . S
H1677 C1653 0.949 . S
H1678 C1655 0.950 . S
H1679 C1657 0.950 . S
C1680 C1681 1.349 . S
C1680 C1682 1.327 . S
C1680 H1705 0.950 . S
C1681 C1680 1.349 . S
C1681 C1697 1.349 . S
C1682 C1680 1.327 . S
C1682 C1701 1.429 . S
C1682 H1706 0.950 . S
C1683 C1700 1.574 . S
C1683 C1702 1.368 . S
C1683 H1707 0.949 . S
H1684 C1688 0.949 . S
C1685 C1686 1.349 . S
C1685 C1687 1.327 . S
C1685 H1708 0.950 . S
C1686 C1685 1.349 . S
C1686 C1698 1.349 . S
C1687 C1685 1.327 . S
C1687 C1703 1.429 . S
C1687 H1709 0.950 . S
C1688 H1684 0.949 . S
C1688 C1696 1.574 . S
C1688 C1704 1.368 . S
H1689 C1697 0.950 . S
H1690 C1695 0.950 . S
H1691 C1696 0.949 . S
H1692 C1698 0.950 . S
H1693 C1699 0.950 . S
H1694 C1700 0.949 . S
C1695 H1690 0.950 . S
C1695 C1697 1.327 . S
C1695 C1701 1.429 . S
C1696 C1688 1.574 . S
C1696 H1691 0.949 . S
C1696 C1702 1.368 . S
C1697 C1681 1.349 . S
C1697 H1689 0.950 . S
C1697 C1695 1.327 . S
C1698 C1686 1.349 . S
C1698 H1692 0.950 . S
C1698 C1699 1.327 . S
C1699 H1693 0.950 . S
C1699 C1698 1.327 . S
C1699 C1703 1.429 . S
C1700 C1683 1.574 . S
C1700 H1694 0.949 . S
C1700 C1704 1.368 . S
C1701 C1682 1.429 . S
C1701 C1695 1.429 . S
C1701 C1702 1.523 . S
C1702 C1683 1.368 . S
C1702 C1696 1.368 . S
C1702 C1701 1.523 . S
C1703 C1687 1.429 . S
C1703 C1699 1.429 . S
C1703 C1704 1.523 . S
C1704 C1688 1.368 . S
C1704 C1700 1.368 . S
C1704 C1703 1.523 . S
H1705 C1680 0.950 . S
H1706 C1682 0.950 . S
H1707 C1683 0.949 . S
H1708 C1685 0.950 . S
H1709 C1687 0.950 . S
C1710 C1711 1.349 . S
C1710 C1712 1.327 . S
C1710 H1735 0.950 . S
C1711 C1710 1.349 . S
C1711 C1727 1.349 . S
C1712 C1710 1.327 . S
C1712 C1731 1.429 . S
C1712 H1736 0.950 . S
C1713 C1730 1.575 . S
C1713 C1732 1.368 . S
C1713 H1737 0.949 . S
H1714 C1718 0.949 . S
C1715 C1716 1.349 . S
C1715 C1717 1.327 . S
C1715 H1738 0.950 . S
C1716 C1715 1.349 . S
C1716 C1728 1.349 . S
C1717 C1715 1.327 . S
C1717 C1733 1.429 . S
C1717 H1739 0.950 . S
C1718 H1714 0.949 . S
C1718 C1726 1.575 . S
C1718 C1734 1.368 . S
H1719 C1727 0.950 . S
H1720 C1725 0.950 . S
H1721 C1726 0.949 1_455 S
H1722 C1728 0.950 . S
H1723 C1729 0.950 . S
H1724 C1730 0.949 1_655 S
C1725 H1720 0.950 . S
C1725 C1727 1.327 . S
C1725 C1731 1.429 . S
C1726 C1718 1.575 . S
C1726 H1721 0.949 1_655 S
C1726 C1732 1.367 1_655 S
C1727 C1711 1.349 . S
C1727 H1719 0.950 . S
C1727 C1725 1.327 . S
C1728 C1716 1.349 . S
C1728 H1722 0.950 . S
C1728 C1729 1.327 . S
C1729 H1723 0.950 . S
C1729 C1728 1.327 . S
C1729 C1733 1.429 . S
C1730 C1713 1.575 . S
C1730 H1724 0.949 1_455 S
C1730 C1734 1.367 1_455 S
C1731 C1712 1.429 . S
C1731 C1725 1.429 . S
C1731 C1732 1.523 . S
C1732 C1713 1.368 . S
C1732 C1726 1.367 1_455 S
C1732 C1731 1.523 . S
C1733 C1717 1.429 . S
C1733 C1729 1.429 . S
C1733 C1734 1.523 . S
C1734 C1718 1.368 . S
C1734 C1730 1.367 1_655 S
C1734 C1733 1.523 . S
H1735 C1710 0.950 . S
H1736 C1712 0.950 . S
H1737 C1713 0.949 . S
H1738 C1715 0.950 . S
H1739 C1717 0.950 . S
C1740 C1741 1.349 . S
C1740 C1742 1.327 . S
C1740 H1765 0.950 . S
C1741 C1740 1.349 . S
C1741 C1757 1.349 . S
C1742 C1740 1.327 . S
C1742 C1761 1.429 . S
C1742 H1766 0.950 . S
C1743 C1760 1.574 . S
C1743 C1762 1.368 . S
C1743 H1767 0.949 . S
H1744 C1748 0.949 . S
C1745 C1746 1.349 . S
C1745 C1747 1.327 . S
C1745 H1768 0.950 . S
C1746 C1745 1.349 . S
C1746 C1758 1.349 . S
C1747 C1745 1.327 . S
C1747 C1763 1.429 . S
C1747 H1769 0.950 . S
C1748 H1744 0.949 . S
C1748 C1756 1.574 . S
C1748 C1764 1.368 . S
H1749 C1757 0.950 . S
H1750 C1755 0.950 . S
H1751 C1756 0.949 . S
H1752 C1758 0.950 . S
H1753 C1759 0.950 . S
H1754 C1760 0.949 . S
C1755 H1750 0.950 . S
C1755 C1757 1.327 . S
C1755 C1761 1.429 . S
C1756 C1748 1.574 . S
C1756 H1751 0.949 . S
C1756 C1762 1.368 . S
C1757 C1741 1.349 . S
C1757 H1749 0.950 . S
C1757 C1755 1.327 . S
C1758 C1746 1.349 . S
C1758 H1752 0.950 . S
C1758 C1759 1.327 . S
C1759 H1753 0.950 . S
C1759 C1758 1.327 . S
C1759 C1763 1.429 . S
C1760 C1743 1.574 . S
C1760 H1754 0.949 . S
C1760 C1764 1.368 . S
C1761 C1742 1.429 . S
C1761 C1755 1.429 . S
C1761 C1762 1.523 . S
C1762 C1743 1.368 . S
C1762 C1756 1.368 . S
C1762 C1761 1.523 . S
C1763 C1747 1.429 . S
C1763 C1759 1.429 . S
C1763 C1764 1.523 . S
C1764 C1748 1.368 . S
C1764 C1760 1.368 . S
C1764 C1763 1.523 . S
H1765 C1740 0.950 . S
H1766 C1742 0.950 . S
H1767 C1743 0.949 . S
H1768 C1745 0.950 . S
H1769 C1747 0.950 . S
C1770 C1771 1.349 . S
C1770 C1772 1.327 . S
C1770 H1795 0.950 . S
C1771 C1770 1.349 . S
C1771 C1787 1.349 . S
C1772 C1770 1.327 . S
C1772 C1791 1.429 . S
C1772 H1796 0.950 . S
C1773 C1790 1.574 . S
C1773 C1792 1.368 . S
C1773 H1797 0.949 . S
H1774 C1778 0.949 . S
C1775 C1776 1.349 . S
C1775 C1777 1.327 . S
C1775 H1798 0.950 . S
C1776 C1775 1.349 . S
C1776 C1788 1.349 . S
C1777 C1775 1.327 . S
C1777 C1793 1.429 . S
C1777 H1799 0.950 . S
C1778 H1774 0.949 . S
C1778 C1786 1.574 . S
C1778 C1794 1.368 . S
H1779 C1787 0.950 . S
H1780 C1785 0.950 . S
H1781 C1786 0.949 . S
H1782 C1788 0.950 . S
H1783 C1789 0.950 . S
H1784 C1790 0.949 . S
C1785 H1780 0.950 . S
C1785 C1787 1.327 . S
C1785 C1791 1.429 . S
C1786 C1778 1.574 . S
C1786 H1781 0.949 . S
C1786 C1792 1.368 . S
C1787 C1771 1.349 . S
C1787 H1779 0.950 . S
C1787 C1785 1.327 . S
C1788 C1776 1.349 . S
C1788 H1782 0.950 . S
C1788 C1789 1.327 . S
C1789 H1783 0.950 . S
C1789 C1788 1.327 . S
C1789 C1793 1.429 . S
C1790 C1773 1.574 . S
C1790 H1784 0.949 . S
C1790 C1794 1.368 . S
C1791 C1772 1.429 . S
C1791 C1785 1.429 . S
C1791 C1792 1.523 . S
C1792 C1773 1.368 . S
C1792 C1786 1.368 . S
C1792 C1791 1.523 . S
C1793 C1777 1.429 . S
C1793 C1789 1.429 . S
C1793 C1794 1.523 . S
C1794 C1778 1.368 . S
C1794 C1790 1.368 . S
C1794 C1793 1.523 . S
H1795 C1770 0.950 . S
H1796 C1772 0.950 . S
H1797 C1773 0.949 . S
H1798 C1775 0.950 . S
H1799 C1777 0.950 . S
C1800 C1801 1.349 . S
C1800 C1802 1.327 . S
C1800 H1825 0.950 . S
C1801 C1800 1.349 . S
C1801 C1817 1.349 . S
C1802 C1800 1.327 . S
C1802 C1821 1.429 . S
C1802 H1826 0.950 . S
C1803 C1820 1.574 . S
C1803 C1822 1.368 . S
C1803 H1827 0.949 . S
H1804 C1808 0.949 . S
C1805 C1806 1.349 . S
C1805 C1807 1.327 . S
C1805 H1828 0.950 . S
C1806 C1805 1.349 . S
C1806 C1818 1.349 . S
C1807 C1805 1.327 . S
C1807 C1823 1.429 . S
C1807 H1829 0.950 . S
C1808 H1804 0.949 . S
C1808 C1816 1.574 . S
C1808 C1824 1.368 . S
H1809 C1817 0.950 . S
H1810 C1815 0.950 . S
H1811 C1816 0.949 . S
H1812 C1818 0.950 . S
H1813 C1819 0.950 . S
H1814 C1820 0.949 . S
C1815 H1810 0.950 . S
C1815 C1817 1.327 . S
C1815 C1821 1.429 . S
C1816 C1808 1.574 . S
C1816 H1811 0.949 . S
C1816 C1822 1.368 . S
C1817 C1801 1.349 . S
C1817 H1809 0.950 . S
C1817 C1815 1.327 . S
C1818 C1806 1.349 . S
C1818 H1812 0.950 . S
C1818 C1819 1.327 . S
C1819 H1813 0.950 . S
C1819 C1818 1.327 . S
C1819 C1823 1.429 . S
C1820 C1803 1.574 . S
C1820 H1814 0.949 . S
C1820 C1824 1.368 . S
C1821 C1802 1.429 . S
C1821 C1815 1.429 . S
C1821 C1822 1.523 . S
C1822 C1803 1.368 . S
C1822 C1816 1.368 . S
C1822 C1821 1.523 . S
C1823 C1807 1.429 . S
C1823 C1819 1.429 . S
C1823 C1824 1.523 . S
C1824 C1808 1.368 . S
C1824 C1820 1.368 . S
C1824 C1823 1.523 . S
H1825 C1800 0.950 . S
H1826 C1802 0.950 . S
H1827 C1803 0.949 . S
H1828 C1805 0.950 . S
H1829 C1807 0.950 . S
C1830 C1831 1.391 . S
C1830 C1832 1.327 . S
C1830 H1855 0.950 . S
C1831 C1830 1.391 . S
C1831 C1847 1.308 1_565 S
C1832 C1830 1.327 . S
C1832 C1851 1.447 . S
C1832 H1856 0.950 . S
C1833 C1850 1.574 . S
C1833 C1852 1.362 1_545 S
C1833 H1857 0.949 . S
H1834 C1838 0.949 . S
C1835 C1836 1.391 . S
C1835 C1837 1.327 . S
C1835 H1858 0.950 . S
C1836 C1835 1.391 . S
C1836 C1848 1.308 1_545 S
C1837 C1835 1.327 . S
C1837 C1853 1.447 . S
C1837 H1859 0.950 . S
C1838 H1834 0.949 . S
C1838 C1846 1.574 . S
C1838 C1854 1.362 1_565 S
H1839 C1847 0.950 . S
H1840 C1845 0.950 . S
H1841 C1846 0.949 . S
H1842 C1848 0.950 . S
H1843 C1849 0.950 . S
H1844 C1850 0.949 . S
C1845 H1840 0.950 . S
C1845 C1847 1.327 . S
C1845 C1851 1.411 1_545 S
C1846 C1838 1.574 . S
C1846 H1841 0.949 . S
C1846 C1852 1.374 . S
C1847 C1831 1.308 1_545 S
C1847 H1839 0.950 . S
C1847 C1845 1.327 . S
C1848 C1836 1.308 1_565 S
C1848 H1842 0.950 . S
C1848 C1849 1.327 . S
C1849 H1843 0.950 . S
C1849 C1848 1.327 . S
C1849 C1853 1.411 1_565 S
C1850 C1833 1.574 . S
C1850 H1844 0.949 . S
C1850 C1854 1.374 . S
C1851 C1832 1.447 . S
C1851 C1845 1.411 1_565 S
C1851 C1852 1.523 . S
C1852 C1833 1.362 1_565 S
C1852 C1846 1.374 . S
C1852 C1851 1.523 . S
C1853 C1837 1.447 . S
C1853 C1849 1.411 1_545 S
C1853 C1854 1.523 . S
C1854 C1838 1.362 1_545 S
C1854 C1850 1.374 . S
C1854 C1853 1.523 . S
H1855 C1830 0.950 . S
H1856 C1832 0.950 . S
H1857 C1833 0.949 . S
H1858 C1835 0.950 . S
H1859 C1837 0.950 . S
C1860 C1861 1.349 . S
C1860 C1862 1.327 . S
C1860 H1885 0.950 . S
C1861 C1860 1.349 . S
C1861 C1877 1.349 . S
C1862 C1860 1.327 . S
C1862 C1881 1.429 . S
C1862 H1886 0.950 . S
C1863 C1880 1.574 . S
C1863 C1882 1.368 . S
C1863 H1887 0.949 . S
H1864 C1868 0.949 . S
C1865 C1866 1.349 . S
C1865 C1867 1.327 . S
C1865 H1888 0.950 . S
C1866 C1865 1.349 . S
C1866 C1878 1.349 . S
C1867 C1865 1.327 . S
C1867 C1883 1.429 . S
C1867 H1889 0.950 . S
C1868 H1864 0.949 . S
C1868 C1876 1.574 . S
C1868 C1884 1.368 . S
H1869 C1877 0.950 . S
H1870 C1875 0.950 . S
H1871 C1876 0.949 . S
H1872 C1878 0.950 . S
H1873 C1879 0.950 . S
H1874 C1880 0.949 . S
C1875 H1870 0.950 . S
C1875 C1877 1.327 . S
C1875 C1881 1.429 . S
C1876 C1868 1.574 . S
C1876 H1871 0.949 . S
C1876 C1882 1.368 . S
C1877 C1861 1.349 . S
C1877 H1869 0.950 . S
C1877 C1875 1.327 . S
C1878 C1866 1.349 . S
C1878 H1872 0.950 . S
C1878 C1879 1.327 . S
C1879 H1873 0.950 . S
C1879 C1878 1.327 . S
C1879 C1883 1.429 . S
C1880 C1863 1.574 . S
C1880 H1874 0.949 . S
C1880 C1884 1.368 . S
C1881 C1862 1.429 . S
C1881 C1875 1.429 . S
C1881 C1882 1.523 . S
C1882 C1863 1.368 . S
C1882 C1876 1.368 . S
C1882 C1881 1.523 . S
C1883 C1867 1.429 . S
C1883 C1879 1.429 . S
C1883 C1884 1.523 . S
C1884 C1868 1.368 . S
C1884 C1880 1.368 . S
C1884 C1883 1.523 . S
H1885 C1860 0.950 . S
H1886 C1862 0.950 . S
H1887 C1863 0.949 . S
H1888 C1865 0.950 . S
H1889 C1867 0.950 . S
C1890 C1891 1.349 . S
C1890 C1892 1.327 . S
C1890 H1915 0.950 . S
C1891 C1890 1.349 . S
C1891 C1907 1.349 . S
C1892 C1890 1.327 . S
C1892 C1911 1.429 . S
C1892 H1916 0.950 . S
C1893 C1910 1.574 1_554 S
C1893 C1912 1.368 . S
C1893 H1917 0.949 . S
H1894 C1898 0.949 . S
C1895 C1896 1.349 . S
C1895 C1897 1.327 . S
C1895 H1918 0.950 . S
C1896 C1895 1.349 . S
C1896 C1908 1.349 . S
C1897 C1895 1.327 . S
C1897 C1913 1.429 . S
C1897 H1919 0.950 . S
C1898 H1894 0.949 . S
C1898 C1906 1.574 1_556 S
C1898 C1914 1.368 . S
H1899 C1907 0.950 . S
H1900 C1905 0.950 . S
H1901 C1906 0.949 . S
H1902 C1908 0.950 . S
H1903 C1909 0.950 . S
H1904 C1910 0.949 . S
C1905 H1900 0.950 . S
C1905 C1907 1.327 . S
C1905 C1911 1.429 . S
C1906 C1898 1.574 1_554 S
C1906 H1901 0.949 . S
C1906 C1912 1.368 . S
C1907 C1891 1.349 . S
C1907 H1899 0.950 . S
C1907 C1905 1.327 . S
C1908 C1896 1.349 . S
C1908 H1902 0.950 . S
C1908 C1909 1.327 . S
C1909 H1903 0.950 . S
C1909 C1908 1.327 . S
C1909 C1913 1.429 . S
C1910 C1893 1.574 1_556 S
C1910 H1904 0.949 . S
C1910 C1914 1.368 . S
C1911 C1892 1.429 . S
C1911 C1905 1.429 . S
C1911 C1912 1.523 . S
C1912 C1893 1.368 . S
C1912 C1906 1.368 . S
C1912 C1911 1.523 . S
C1913 C1897 1.429 . S
C1913 C1909 1.429 . S
C1913 C1914 1.523 . S
C1914 C1898 1.368 . S
C1914 C1910 1.368 . S
C1914 C1913 1.523 . S
H1915 C1890 0.950 . S
H1916 C1892 0.950 . S
H1917 C1893 0.949 . S
H1918 C1895 0.950 . S
H1919 C1897 0.950 . S
C1920 C1921 1.349 1_565 S
C1920 C1922 1.327 . S
C1920 H1945 0.950 . S
C1921 C1920 1.349 1_545 S
C1921 C1937 1.349 . S
C1922 C1920 1.327 . S
C1922 C1941 1.429 1_565 S
C1922 H1946 0.950 . S
C1923 C1940 1.574 . S
C1923 C1942 1.368 . S
C1923 H1947 0.949 . S
H1924 C1928 0.949 . S
C1925 C1926 1.349 . S
C1925 C1927 1.327 . S
C1925 H1948 0.950 . S
C1926 C1925 1.349 . S
C1926 C1938 1.349 1_545 S
C1927 C1925 1.327 . S
C1927 C1943 1.429 . S
C1927 H1949 0.950 . S
C1928 H1924 0.949 . S
C1928 C1936 1.574 . S
C1928 C1944 1.368 1_565 S
H1929 C1937 0.950 . S
H1930 C1935 0.950 . S
H1931 C1936 0.949 . S
H1932 C1938 0.950 . S
H1933 C1939 0.950 . S
H1934 C1940 0.949 . S
C1935 H1930 0.950 . S
C1935 C1937 1.327 . S
C1935 C1941 1.429 . S
C1936 C1928 1.574 . S
C1936 H1931 0.949 . S
C1936 C1942 1.368 1_565 S
C1937 C1921 1.349 . S
C1937 H1929 0.950 . S
C1937 C1935 1.327 . S
C1938 C1926 1.349 1_565 S
C1938 H1932 0.950 . S
C1938 C1939 1.327 . S
C1939 H1933 0.950 . S
C1939 C1938 1.327 . S
C1939 C1943 1.429 1_565 S
C1940 C1923 1.574 . S
C1940 H1934 0.949 . S
C1940 C1944 1.368 . S
C1941 C1922 1.429 1_545 S
C1941 C1935 1.429 . S
C1941 C1942 1.523 . S
C1942 C1923 1.368 . S
C1942 C1936 1.368 1_545 S
C1942 C1941 1.523 . S
C1943 C1927 1.429 . S
C1943 C1939 1.429 1_545 S
C1943 C1944 1.523 . S
C1944 C1928 1.368 1_545 S
C1944 C1940 1.368 . S
C1944 C1943 1.523 . S
H1945 C1920 0.950 . S
H1946 C1922 0.950 . S
H1947 C1923 0.949 . S
H1948 C1925 0.950 . S
H1949 C1927 0.950 . S
C1950 C1951 1.349 . S
C1950 C1952 1.327 . S
C1950 H1975 0.950 . S
C1951 C1950 1.349 . S
C1951 C1967 1.349 . S
C1952 C1950 1.327 . S
C1952 C1971 1.429 . S
C1952 H1976 0.950 . S
C1953 C1970 1.574 . S
C1953 C1972 1.368 . S
C1953 H1977 0.949 . S
H1954 C1958 0.949 . S
C1955 C1956 1.349 . S
C1955 C1957 1.327 . S
C1955 H1978 0.950 . S
C1956 C1955 1.349 . S
C1956 C1968 1.349 . S
C1957 C1955 1.327 . S
C1957 C1973 1.429 . S
C1957 H1979 0.950 . S
C1958 H1954 0.949 . S
C1958 C1966 1.574 . S
C1958 C1974 1.368 . S
H1959 C1967 0.950 . S
H1960 C1965 0.950 . S
H1961 C1966 0.949 . S
H1962 C1968 0.950 . S
H1963 C1969 0.950 . S
H1964 C1970 0.949 . S
C1965 H1960 0.950 . S
C1965 C1967 1.327 . S
C1965 C1971 1.429 . S
C1966 C1958 1.574 . S
C1966 H1961 0.949 . S
C1966 C1972 1.368 . S
C1967 C1951 1.349 . S
C1967 H1959 0.950 . S
C1967 C1965 1.327 . S
C1968 C1956 1.349 . S
C1968 H1962 0.950 . S
C1968 C1969 1.327 . S
C1969 H1963 0.950 . S
C1969 C1968 1.327 . S
C1969 C1973 1.429 . S
C1970 C1953 1.574 . S
C1970 H1964 0.949 . S
C1970 C1974 1.368 . S
C1971 C1952 1.429 . S
C1971 C1965 1.429 . S
C1971 C1972 1.523 . S
C1972 C1953 1.368 . S
C1972 C1966 1.368 . S
C1972 C1971 1.523 . S
C1973 C1957 1.429 . S
C1973 C1969 1.429 . S
C1973 C1974 1.523 . S
C1974 C1958 1.368 . S
C1974 C1970 1.368 . S
C1974 C1973 1.523 . S
H1975 C1950 0.950 . S
H1976 C1952 0.950 . S
H1977 C1953 0.949 . S
H1978 C1955 0.950 . S
H1979 C1957 0.950 . S
C1980 C1981 1.349 . S
C1980 C1982 1.327 . S
C1980 H2005 0.950 . S
C1981 C1980 1.349 . S
C1981 C1997 1.349 . S
C1982 C1980 1.327 . S
C1982 C2001 1.429 . S
C1982 H2006 0.950 . S
C1983 C2000 1.574 . S
C1983 C2002 1.368 . S
C1983 H2007 0.949 . S
H1984 C1988 0.949 . S
C1985 C1986 1.349 . S
C1985 C1987 1.327 . S
C1985 H2008 0.950 . S
C1986 C1985 1.349 . S
C1986 C1998 1.349 . S
C1987 C1985 1.327 . S
C1987 C2003 1.429 . S
C1987 H2009 0.950 . S
C1988 H1984 0.949 . S
C1988 C1996 1.574 . S
C1988 C2004 1.368 . S
H1989 C1997 0.950 . S
H1990 C1995 0.950 . S
H1991 C1996 0.949 . S
H1992 C1998 0.950 . S
H1993 C1999 0.950 . S
H1994 C2000 0.949 . S
C1995 H1990 0.950 . S
C1995 C1997 1.327 . S
C1995 C2001 1.429 . S
C1996 C1988 1.574 . S
C1996 H1991 0.949 . S
C1996 C2002 1.368 . S
C1997 C1981 1.349 . S
C1997 H1989 0.950 . S
C1997 C1995 1.327 . S
C1998 C1986 1.349 . S
C1998 H1992 0.950 . S
C1998 C1999 1.327 . S
C1999 H1993 0.950 . S
C1999 C1998 1.327 . S
C1999 C2003 1.429 . S
C2000 C1983 1.574 . S
C2000 H1994 0.949 . S
C2000 C2004 1.368 . S
C2001 C1982 1.429 . S
C2001 C1995 1.429 . S
C2001 C2002 1.523 . S
C2002 C1983 1.368 . S
C2002 C1996 1.368 . S
C2002 C2001 1.523 . S
C2003 C1987 1.429 . S
C2003 C1999 1.429 . S
C2003 C2004 1.523 . S
C2004 C1988 1.368 . S
C2004 C2000 1.368 . S
C2004 C2003 1.523 . S
H2005 C1980 0.950 . S
H2006 C1982 0.950 . S
H2007 C1983 0.949 . S
H2008 C1985 0.950 . S
H2009 C1987 0.950 . S
C2010 C2011 1.349 . S
C2010 C2012 1.327 . S
C2010 H2035 0.950 . S
C2011 C2010 1.349 . S
C2011 C2027 1.349 1_545 S
C2012 C2010 1.327 . S
C2012 C2031 1.429 . S
C2012 H2036 0.950 . S
C2013 C2030 1.574 . S
C2013 C2032 1.368 1_565 S
C2013 H2037 0.949 . S
H2014 C2018 0.949 . S
C2015 C2016 1.349 1_565 S
C2015 C2017 1.327 . S
C2015 H2038 0.950 . S
C2016 C2015 1.349 1_545 S
C2016 C2028 1.349 . S
C2017 C2015 1.327 . S
C2017 C2033 1.429 1_565 S
C2017 H2039 0.950 . S
C2018 H2014 0.949 . S
C2018 C2026 1.574 . S
C2018 C2034 1.368 . S
H2019 C2027 0.950 . S
H2020 C2025 0.950 . S
H2021 C2026 0.949 . S
H2022 C2028 0.950 . S
H2023 C2029 0.950 . S
H2024 C2030 0.949 . S
C2025 H2020 0.950 . S
C2025 C2027 1.327 . S
C2025 C2031 1.429 1_565 S
C2026 C2018 1.574 . S
C2026 H2021 0.949 . S
C2026 C2032 1.368 . S
C2027 C2011 1.349 1_565 S
C2027 H2019 0.950 . S
C2027 C2025 1.327 . S
C2028 C2016 1.349 . S
C2028 H2022 0.950 . S
C2028 C2029 1.327 . S
C2029 H2023 0.950 . S
C2029 C2028 1.327 . S
C2029 C2033 1.429 . S
C2030 C2013 1.574 . S
C2030 H2024 0.949 . S
C2030 C2034 1.368 1_565 S
C2031 C2012 1.429 . S
C2031 C2025 1.429 1_545 S
C2031 C2032 1.523 . S
C2032 C2013 1.368 1_545 S
C2032 C2026 1.368 . S
C2032 C2031 1.523 . S
C2033 C2017 1.429 1_545 S
C2033 C2029 1.429 . S
C2033 C2034 1.523 . S
C2034 C2018 1.368 . S
C2034 C2030 1.368 1_545 S
C2034 C2033 1.523 . S
H2035 C2010 0.950 . S
H2036 C2012 0.950 . S
H2037 C2013 0.949 . S
H2038 C2015 0.950 . S
H2039 C2017 0.950 . S
C2040 C2041 1.349 1_545 S
C2040 C2042 1.327 . S
C2040 H2065 0.950 . S
C2041 C2040 1.349 1_565 S
C2041 C2057 1.349 . S
C2042 C2040 1.327 . S
C2042 C2061 1.429 1_545 S
C2042 H2066 0.950 . S
C2043 C2060 1.574 . S
C2043 C2062 1.368 . S
C2043 H2067 0.949 . S
H2044 C2048 0.949 . S
C2045 C2046 1.349 . S
C2045 C2047 1.327 . S
C2045 H2068 0.950 . S
C2046 C2045 1.349 . S
C2046 C2058 1.349 1_565 S
C2047 C2045 1.327 . S
C2047 C2063 1.429 . S
C2047 H2069 0.950 . S
C2048 H2044 0.949 . S
C2048 C2056 1.574 . S
C2048 C2064 1.368 1_545 S
H2049 C2057 0.950 . S
H2050 C2055 0.950 . S
H2051 C2056 0.949 . S
H2052 C2058 0.950 . S
H2053 C2059 0.950 . S
H2054 C2060 0.949 . S
C2055 H2050 0.950 . S
C2055 C2057 1.327 . S
C2055 C2061 1.429 . S
C2056 C2048 1.574 . S
C2056 H2051 0.949 . S
C2056 C2062 1.368 1_545 S
C2057 C2041 1.349 . S
C2057 H2049 0.950 . S
C2057 C2055 1.327 . S
C2058 C2046 1.349 1_545 S
C2058 H2052 0.950 . S
C2058 C2059 1.327 . S
C2059 H2053 0.950 . S
C2059 C2058 1.327 . S
C2059 C2063 1.429 1_545 S
C2060 C2043 1.574 . S
C2060 H2054 0.949 . S
C2060 C2064 1.368 . S
C2061 C2042 1.429 1_565 S
C2061 C2055 1.429 . S
C2061 C2062 1.523 . S
C2062 C2043 1.368 . S
C2062 C2056 1.368 1_565 S
C2062 C2061 1.523 . S
C2063 C2047 1.429 . S
C2063 C2059 1.429 1_565 S
C2063 C2064 1.523 . S
C2064 C2048 1.368 1_565 S
C2064 C2060 1.368 . S
C2064 C2063 1.523 . S
H2065 C2040 0.950 . S
H2066 C2042 0.950 . S
H2067 C2043 0.949 . S
H2068 C2045 0.950 . S
H2069 C2047 0.950 . S
C2070 C2071 1.349 . S
C2070 C2072 1.327 . S
C2070 H2095 0.950 . S
C2071 C2070 1.349 . S
C2071 C2087 1.349 . S
C2072 C2070 1.327 . S
C2072 C2091 1.429 . S
C2072 H2096 0.950 . S
C2073 C2090 1.574 . S
C2073 C2092 1.368 . S
C2073 H2097 0.949 . S
H2074 C2078 0.949 . S
C2075 C2076 1.349 . S
C2075 C2077 1.327 . S
C2075 H2098 0.950 . S
C2076 C2075 1.349 . S
C2076 C2088 1.349 . S
C2077 C2075 1.327 . S
C2077 C2093 1.429 . S
C2077 H2099 0.950 . S
C2078 H2074 0.949 . S
C2078 C2086 1.574 . S
C2078 C2094 1.368 . S
H2079 C2087 0.950 . S
H2080 C2085 0.950 . S
H2081 C2086 0.949 . S
H2082 C2088 0.950 . S
H2083 C2089 0.950 . S
H2084 C2090 0.949 . S
C2085 H2080 0.950 . S
C2085 C2087 1.327 . S
C2085 C2091 1.429 . S
C2086 C2078 1.574 . S
C2086 H2081 0.949 . S
C2086 C2092 1.368 . S
C2087 C2071 1.349 . S
C2087 H2079 0.950 . S
C2087 C2085 1.327 . S
C2088 C2076 1.349 . S
C2088 H2082 0.950 . S
C2088 C2089 1.327 . S
C2089 H2083 0.950 . S
C2089 C2088 1.327 . S
C2089 C2093 1.429 . S
C2090 C2073 1.574 . S
C2090 H2084 0.949 . S
C2090 C2094 1.368 . S
C2091 C2072 1.429 . S
C2091 C2085 1.429 . S
C2091 C2092 1.523 . S
C2092 C2073 1.368 . S
C2092 C2086 1.368 . S
C2092 C2091 1.523 . S
C2093 C2077 1.429 . S
C2093 C2089 1.429 . S
C2093 C2094 1.523 . S
C2094 C2078 1.368 . S
C2094 C2090 1.368 . S
C2094 C2093 1.523 . S
H2095 C2070 0.950 . S
H2096 C2072 0.950 . S
H2097 C2073 0.949 . S
H2098 C2075 0.950 . S
H2099 C2077 0.950 . S
C2100 C2101 1.349 . S
C2100 C2102 1.327 . S
C2100 H2125 0.950 . S
C2101 C2100 1.349 . S
C2101 C2117 1.349 . S
C2102 C2100 1.327 . S
C2102 C2121 1.429 . S
C2102 H2126 0.950 . S
C2103 C2120 1.574 . S
C2103 C2122 1.368 . S
C2103 H2127 0.949 . S
H2104 C2108 0.949 . S
C2105 C2106 1.349 . S
C2105 C2107 1.327 . S
C2105 H2128 0.950 . S
C2106 C2105 1.349 . S
C2106 C2118 1.349 . S
C2107 C2105 1.327 . S
C2107 C2123 1.429 . S
C2107 H2129 0.950 . S
C2108 H2104 0.949 . S
C2108 C2116 1.574 . S
C2108 C2124 1.368 . S
H2109 C2117 0.950 . S
H2110 C2115 0.950 . S
H2111 C2116 0.949 . S
H2112 C2118 0.950 . S
H2113 C2119 0.950 . S
H2114 C2120 0.949 . S
C2115 H2110 0.950 . S
C2115 C2117 1.327 . S
C2115 C2121 1.429 . S
C2116 C2108 1.574 . S
C2116 H2111 0.949 . S
C2116 C2122 1.368 . S
C2117 C2101 1.349 . S
C2117 H2109 0.950 . S
C2117 C2115 1.327 . S
C2118 C2106 1.349 . S
C2118 H2112 0.950 . S
C2118 C2119 1.327 . S
C2119 H2113 0.950 . S
C2119 C2118 1.327 . S
C2119 C2123 1.429 . S
C2120 C2103 1.574 . S
C2120 H2114 0.949 . S
C2120 C2124 1.368 . S
C2121 C2102 1.429 . S
C2121 C2115 1.429 . S
C2121 C2122 1.523 . S
C2122 C2103 1.368 . S
C2122 C2116 1.368 . S
C2122 C2121 1.523 . S
C2123 C2107 1.429 . S
C2123 C2119 1.429 . S
C2123 C2124 1.523 . S
C2124 C2108 1.368 . S
C2124 C2120 1.368 . S
C2124 C2123 1.523 . S
H2125 C2100 0.950 . S
H2126 C2102 0.950 . S
H2127 C2103 0.949 . S
H2128 C2105 0.950 . S
H2129 C2107 0.950 . S
C2130 C2131 1.349 1_545 S
C2130 C2132 1.327 . S
C2130 H2155 0.950 . S
C2131 C2130 1.349 1_565 S
C2131 C2147 1.349 . S
C2132 C2130 1.327 . S
C2132 C2151 1.429 1_545 S
C2132 H2156 0.950 . S
C2133 C2150 1.574 . S
C2133 C2152 1.368 . S
C2133 H2157 0.949 . S
H2134 C2138 0.949 . S
C2135 C2136 1.349 . S
C2135 C2137 1.327 . S
C2135 H2158 0.950 . S
C2136 C2135 1.349 . S
C2136 C2148 1.349 1_565 S
C2137 C2135 1.327 . S
C2137 C2153 1.429 . S
C2137 H2159 0.950 . S
C2138 H2134 0.949 . S
C2138 C2146 1.574 . S
C2138 C2154 1.368 1_545 S
H2139 C2147 0.950 . S
H2140 C2145 0.950 . S
H2141 C2146 0.949 . S
H2142 C2148 0.950 . S
H2143 C2149 0.950 . S
H2144 C2150 0.949 . S
C2145 H2140 0.950 . S
C2145 C2147 1.327 . S
C2145 C2151 1.429 . S
C2146 C2138 1.574 . S
C2146 H2141 0.949 . S
C2146 C2152 1.368 1_545 S
C2147 C2131 1.349 . S
C2147 H2139 0.950 . S
C2147 C2145 1.327 . S
C2148 C2136 1.349 1_545 S
C2148 H2142 0.950 . S
C2148 C2149 1.327 . S
C2149 H2143 0.950 . S
C2149 C2148 1.327 . S
C2149 C2153 1.429 1_545 S
C2150 C2133 1.574 . S
C2150 H2144 0.949 . S
C2150 C2154 1.368 . S
C2151 C2132 1.429 1_565 S
C2151 C2145 1.429 . S
C2151 C2152 1.523 . S
C2152 C2133 1.368 . S
C2152 C2146 1.368 1_565 S
C2152 C2151 1.523 . S
C2153 C2137 1.429 . S
C2153 C2149 1.429 1_565 S
C2153 C2154 1.523 . S
C2154 C2138 1.368 1_565 S
C2154 C2150 1.368 . S
C2154 C2153 1.523 . S
H2155 C2130 0.950 . S
H2156 C2132 0.950 . S
H2157 C2133 0.949 . S
H2158 C2135 0.950 . S
H2159 C2137 0.950 . S
C2160 C2161 1.349 . S
C2160 C2162 1.327 . S
C2160 H2185 0.950 . S
C2161 C2160 1.349 . S
C2161 C2177 1.349 . S
C2162 C2160 1.327 . S
C2162 C2181 1.429 . S
C2162 H2186 0.950 . S
C2163 C2180 1.574 . S
C2163 C2182 1.368 . S
C2163 H2187 0.949 . S
H2164 C2168 0.949 . S
C2165 C2166 1.349 . S
C2165 C2167 1.327 . S
C2165 H2188 0.950 . S
C2166 C2165 1.349 . S
C2166 C2178 1.349 . S
C2167 C2165 1.327 . S
C2167 C2183 1.429 . S
C2167 H2189 0.950 . S
C2168 H2164 0.949 . S
C2168 C2176 1.574 . S
C2168 C2184 1.368 . S
H2169 C2177 0.950 . S
H2170 C2175 0.950 . S
H2171 C2176 0.949 . S
H2172 C2178 0.950 . S
H2173 C2179 0.950 . S
H2174 C2180 0.949 . S
C2175 H2170 0.950 . S
C2175 C2177 1.327 . S
C2175 C2181 1.429 . S
C2176 C2168 1.574 . S
C2176 H2171 0.949 . S
C2176 C2182 1.368 . S
C2177 C2161 1.349 . S
C2177 H2169 0.950 . S
C2177 C2175 1.327 . S
C2178 C2166 1.349 . S
C2178 H2172 0.950 . S
C2178 C2179 1.327 . S
C2179 H2173 0.950 . S
C2179 C2178 1.327 . S
C2179 C2183 1.429 . S
C2180 C2163 1.574 . S
C2180 H2174 0.949 . S
C2180 C2184 1.368 . S
C2181 C2162 1.429 . S
C2181 C2175 1.429 . S
C2181 C2182 1.523 . S
C2182 C2163 1.368 . S
C2182 C2176 1.368 . S
C2182 C2181 1.523 . S
C2183 C2167 1.429 . S
C2183 C2179 1.429 . S
C2183 C2184 1.523 . S
C2184 C2168 1.368 . S
C2184 C2180 1.368 . S
C2184 C2183 1.523 . S
H2185 C2160 0.950 . S
H2186 C2162 0.950 . S
H2187 C2163 0.949 . S
H2188 C2165 0.950 . S
H2189 C2167 0.950 . S
C2190 C2191 1.349 . S
C2190 C2192 1.327 . S
C2190 H2215 0.950 . S
C2191 C2190 1.349 . S
C2191 C2207 1.349 . S
C2192 C2190 1.327 . S
C2192 C2211 1.429 . S
C2192 H2216 0.950 . S
C2193 C2210 1.574 . S
C2193 C2212 1.368 . S
C2193 H2217 0.949 . S
H2194 C2198 0.949 . S
C2195 C2196 1.349 . S
C2195 C2197 1.327 . S
C2195 H2218 0.950 . S
C2196 C2195 1.349 . S
C2196 C2208 1.349 . S
C2197 C2195 1.327 . S
C2197 C2213 1.429 . S
C2197 H2219 0.950 . S
C2198 H2194 0.949 . S
C2198 C2206 1.574 . S
C2198 C2214 1.368 . S
H2199 C2207 0.950 . S
H2200 C2205 0.950 . S
H2201 C2206 0.949 . S
H2202 C2208 0.950 . S
H2203 C2209 0.950 . S
H2204 C2210 0.949 . S
C2205 H2200 0.950 . S
C2205 C2207 1.327 . S
C2205 C2211 1.429 . S
C2206 C2198 1.574 . S
C2206 H2201 0.949 . S
C2206 C2212 1.368 . S
C2207 C2191 1.349 . S
C2207 H2199 0.950 . S
C2207 C2205 1.327 . S
C2208 C2196 1.349 . S
C2208 H2202 0.950 . S
C2208 C2209 1.327 . S
C2209 H2203 0.950 . S
C2209 C2208 1.327 . S
C2209 C2213 1.429 . S
C2210 C2193 1.574 . S
C2210 H2204 0.949 . S
C2210 C2214 1.368 . S
C2211 C2192 1.429 . S
C2211 C2205 1.429 . S
C2211 C2212 1.523 . S
C2212 C2193 1.368 . S
C2212 C2206 1.368 . S
C2212 C2211 1.523 . S
C2213 C2197 1.429 . S
C2213 C2209 1.429 . S
C2213 C2214 1.523 . S
C2214 C2198 1.368 . S
C2214 C2210 1.368 . S
C2214 C2213 1.523 . S
H2215 C2190 0.950 . S
H2216 C2192 0.950 . S
H2217 C2193 0.949 . S
H2218 C2195 0.950 . S
H2219 C2197 0.950 . S
C2220 C2221 1.349 . S
C2220 C2222 1.327 . S
C2220 H2245 0.950 . S
C2221 C2220 1.349 . S
C2221 C2237 1.349 . S
C2222 C2220 1.327 . S
C2222 C2241 1.429 . S
C2222 H2246 0.950 . S
C2223 C2240 1.574 . S
C2223 C2242 1.368 . S
C2223 H2247 0.949 . S
H2224 C2228 0.949 . S
C2225 C2226 1.349 . S
C2225 C2227 1.327 . S
C2225 H2248 0.950 . S
C2226 C2225 1.349 . S
C2226 C2238 1.349 . S
C2227 C2225 1.327 . S
C2227 C2243 1.429 . S
C2227 H2249 0.950 . S
C2228 H2224 0.949 . S
C2228 C2236 1.574 . S
C2228 C2244 1.368 . S
H2229 C2237 0.950 . S
H2230 C2235 0.950 . S
H2231 C2236 0.949 . S
H2232 C2238 0.950 . S
H2233 C2239 0.950 . S
H2234 C2240 0.949 . S
C2235 H2230 0.950 . S
C2235 C2237 1.327 . S
C2235 C2241 1.429 . S
C2236 C2228 1.574 . S
C2236 H2231 0.949 . S
C2236 C2242 1.368 . S
C2237 C2221 1.349 . S
C2237 H2229 0.950 . S
C2237 C2235 1.327 . S
C2238 C2226 1.349 . S
C2238 H2232 0.950 . S
C2238 C2239 1.327 . S
C2239 H2233 0.950 . S
C2239 C2238 1.327 . S
C2239 C2243 1.429 . S
C2240 C2223 1.574 . S
C2240 H2234 0.949 . S
C2240 C2244 1.368 . S
C2241 C2222 1.429 . S
C2241 C2235 1.429 . S
C2241 C2242 1.523 . S
C2242 C2223 1.368 . S
C2242 C2236 1.368 . S
C2242 C2241 1.523 . S
C2243 C2227 1.429 . S
C2243 C2239 1.429 . S
C2243 C2244 1.523 . S
C2244 C2228 1.368 . S
C2244 C2240 1.368 . S
C2244 C2243 1.523 . S
H2245 C2220 0.950 . S
H2246 C2222 0.950 . S
H2247 C2223 0.949 . S
H2248 C2225 0.950 . S
H2249 C2227 0.950 . S
C2250 C2251 1.349 . S
C2250 C2252 1.327 . S
C2250 H2275 0.950 . S
C2251 C2250 1.349 . S
C2251 C2267 1.349 . S
C2252 C2250 1.327 . S
C2252 C2271 1.429 . S
C2252 H2276 0.950 . S
C2253 C2270 1.574 . S
C2253 C2272 1.368 . S
C2253 H2277 0.949 . S
H2254 C2258 0.949 . S
C2255 C2256 1.349 . S
C2255 C2257 1.327 . S
C2255 H2278 0.950 . S
C2256 C2255 1.349 . S
C2256 C2268 1.349 . S
C2257 C2255 1.327 . S
C2257 C2273 1.429 . S
C2257 H2279 0.950 . S
C2258 H2254 0.949 . S
C2258 C2266 1.574 . S
C2258 C2274 1.368 . S
H2259 C2267 0.950 . S
H2260 C2265 0.950 . S
H2261 C2266 0.949 . S
H2262 C2268 0.950 . S
H2263 C2269 0.950 . S
H2264 C2270 0.949 . S
C2265 H2260 0.950 . S
C2265 C2267 1.327 . S
C2265 C2271 1.429 . S
C2266 C2258 1.574 . S
C2266 H2261 0.949 . S
C2266 C2272 1.368 . S
C2267 C2251 1.349 . S
C2267 H2259 0.950 . S
C2267 C2265 1.327 . S
C2268 C2256 1.349 . S
C2268 H2262 0.950 . S
C2268 C2269 1.327 . S
C2269 H2263 0.950 . S
C2269 C2268 1.327 . S
C2269 C2273 1.429 . S
C2270 C2253 1.574 . S
C2270 H2264 0.949 . S
C2270 C2274 1.368 . S
C2271 C2252 1.429 . S
C2271 C2265 1.429 . S
C2271 C2272 1.523 . S
C2272 C2253 1.368 . S
C2272 C2266 1.368 . S
C2272 C2271 1.523 . S
C2273 C2257 1.429 . S
C2273 C2269 1.429 . S
C2273 C2274 1.523 . S
C2274 C2258 1.368 . S
C2274 C2270 1.368 . S
C2274 C2273 1.523 . S
H2275 C2250 0.950 . S
H2276 C2252 0.950 . S
H2277 C2253 0.949 . S
H2278 C2255 0.950 . S
H2279 C2257 0.950 . S
C2280 C2281 1.349 . S
C2280 C2282 1.327 . S
C2280 H2305 0.950 . S
C2281 C2280 1.349 . S
C2281 C2297 1.349 . S
C2282 C2280 1.327 . S
C2282 C2301 1.429 . S
C2282 H2306 0.950 . S
C2283 C2300 1.574 . S
C2283 C2302 1.368 . S
C2283 H2307 0.949 . S
H2284 C2288 0.949 . S
C2285 C2286 1.349 . S
C2285 C2287 1.327 . S
C2285 H2308 0.950 . S
C2286 C2285 1.349 . S
C2286 C2298 1.349 . S
C2287 C2285 1.327 . S
C2287 C2303 1.429 . S
C2287 H2309 0.950 . S
C2288 H2284 0.949 . S
C2288 C2296 1.574 . S
C2288 C2304 1.368 . S
H2289 C2297 0.950 . S
H2290 C2295 0.950 . S
H2291 C2296 0.949 . S
H2292 C2298 0.950 . S
H2293 C2299 0.950 . S
H2294 C2300 0.949 . S
C2295 H2290 0.950 . S
C2295 C2297 1.327 . S
C2295 C2301 1.429 . S
C2296 C2288 1.574 . S
C2296 H2291 0.949 . S
C2296 C2302 1.368 . S
C2297 C2281 1.349 . S
C2297 H2289 0.950 . S
C2297 C2295 1.327 . S
C2298 C2286 1.349 . S
C2298 H2292 0.950 . S
C2298 C2299 1.327 . S
C2299 H2293 0.950 . S
C2299 C2298 1.327 . S
C2299 C2303 1.429 . S
C2300 C2283 1.574 . S
C2300 H2294 0.949 . S
C2300 C2304 1.368 . S
C2301 C2282 1.429 . S
C2301 C2295 1.429 . S
C2301 C2302 1.523 . S
C2302 C2283 1.368 . S
C2302 C2296 1.368 . S
C2302 C2301 1.523 . S
C2303 C2287 1.429 . S
C2303 C2299 1.429 . S
C2303 C2304 1.523 . S
C2304 C2288 1.368 . S
C2304 C2300 1.368 . S
C2304 C2303 1.523 . S
H2305 C2280 0.950 . S
H2306 C2282 0.950 . S
H2307 C2283 0.949 . S
H2308 C2285 0.950 . S
H2309 C2287 0.950 . S
C2310 C2311 1.349 . S
C2310 C2312 1.327 . S
C2310 H2335 0.950 . S
C2311 C2310 1.349 . S
C2311 C2327 1.349 . S
C2312 C2310 1.327 . S
C2312 C2331 1.429 . S
C2312 H2336 0.950 . S
C2313 C2330 1.574 . S
C2313 C2332 1.368 . S
C2313 H2337 0.949 . S
H2314 C2318 0.949 . S
C2315 C2316 1.349 . S
C2315 C2317 1.327 . S
C2315 H2338 0.950 . S
C2316 C2315 1.349 . S
C2316 C2328 1.349 . S
C2317 C2315 1.327 . S
C2317 C2333 1.429 . S
C2317 H2339 0.950 . S
C2318 H2314 0.949 . S
C2318 C2326 1.574 . S
C2318 C2334 1.368 . S
H2319 C2327 0.950 . S
H2320 C2325 0.950 . S
H2321 C2326 0.949 . S
H2322 C2328 0.950 . S
H2323 C2329 0.950 . S
H2324 C2330 0.949 . S
C2325 H2320 0.950 . S
C2325 C2327 1.327 . S
C2325 C2331 1.429 . S
C2326 C2318 1.574 . S
C2326 H2321 0.949 . S
C2326 C2332 1.368 . S
C2327 C2311 1.349 . S
C2327 H2319 0.950 . S
C2327 C2325 1.327 . S
C2328 C2316 1.349 . S
C2328 H2322 0.950 . S
C2328 C2329 1.327 . S
C2329 H2323 0.950 . S
C2329 C2328 1.327 . S
C2329 C2333 1.429 . S
C2330 C2313 1.574 . S
C2330 H2324 0.949 . S
C2330 C2334 1.368 . S
C2331 C2312 1.429 . S
C2331 C2325 1.429 . S
C2331 C2332 1.523 . S
C2332 C2313 1.368 . S
C2332 C2326 1.368 . S
C2332 C2331 1.523 . S
C2333 C2317 1.429 . S
C2333 C2329 1.429 . S
C2333 C2334 1.523 . S
C2334 C2318 1.368 . S
C2334 C2330 1.368 . S
C2334 C2333 1.523 . S
H2335 C2310 0.950 . S
H2336 C2312 0.950 . S
H2337 C2313 0.949 . S
H2338 C2315 0.950 . S
H2339 C2317 0.950 . S
C2340 C2341 1.349 . S
C2340 C2342 1.327 . S
C2340 H2365 0.950 . S
C2341 C2340 1.349 . S
C2341 C2357 1.349 . S
C2342 C2340 1.327 . S
C2342 C2361 1.429 . S
C2342 H2366 0.950 . S
C2343 C2360 1.574 . S
C2343 C2362 1.368 . S
C2343 H2367 0.949 . S
H2344 C2348 0.949 . S
C2345 C2346 1.349 . S
C2345 C2347 1.327 . S
C2345 H2368 0.950 . S
C2346 C2345 1.349 . S
C2346 C2358 1.349 . S
C2347 C2345 1.327 . S
C2347 C2363 1.429 . S
C2347 H2369 0.950 . S
C2348 H2344 0.949 . S
C2348 C2356 1.574 . S
C2348 C2364 1.368 . S
H2349 C2357 0.950 . S
H2350 C2355 0.950 . S
H2351 C2356 0.949 . S
H2352 C2358 0.950 . S
H2353 C2359 0.950 . S
H2354 C2360 0.949 . S
C2355 H2350 0.950 . S
C2355 C2357 1.327 . S
C2355 C2361 1.429 . S
C2356 C2348 1.574 . S
C2356 H2351 0.949 . S
C2356 C2362 1.368 . S
C2357 C2341 1.349 . S
C2357 H2349 0.950 . S
C2357 C2355 1.327 . S
C2358 C2346 1.349 . S
C2358 H2352 0.950 . S
C2358 C2359 1.327 . S
C2359 H2353 0.950 . S
C2359 C2358 1.327 . S
C2359 C2363 1.429 . S
C2360 C2343 1.574 . S
C2360 H2354 0.949 . S
C2360 C2364 1.368 . S
C2361 C2342 1.429 . S
C2361 C2355 1.429 . S
C2361 C2362 1.523 . S
C2362 C2343 1.368 . S
C2362 C2356 1.368 . S
C2362 C2361 1.523 . S
C2363 C2347 1.429 . S
C2363 C2359 1.429 . S
C2363 C2364 1.523 . S
C2364 C2348 1.368 . S
C2364 C2360 1.368 . S
C2364 C2363 1.523 . S
H2365 C2340 0.950 . S
H2366 C2342 0.950 . S
H2367 C2343 0.949 . S
H2368 C2345 0.950 . S
H2369 C2347 0.950 . S
C2370 C2371 1.349 . S
C2370 C2372 1.327 . S
C2370 H2395 0.950 . S
C2371 C2370 1.349 . S
C2371 C2387 1.349 . S
C2372 C2370 1.327 . S
C2372 C2391 1.429 . S
C2372 H2396 0.950 . S
C2373 C2390 1.574 . S
C2373 C2392 1.368 . S
C2373 H2397 0.949 . S
H2374 C2378 0.949 . S
C2375 C2376 1.349 . S
C2375 C2377 1.327 . S
C2375 H2398 0.950 . S
C2376 C2375 1.349 . S
C2376 C2388 1.349 . S
C2377 C2375 1.327 . S
C2377 C2393 1.429 . S
C2377 H2399 0.950 . S
C2378 H2374 0.949 . S
C2378 C2386 1.574 . S
C2378 C2394 1.368 . S
H2379 C2387 0.950 . S
H2380 C2385 0.950 . S
H2381 C2386 0.949 . S
H2382 C2388 0.950 . S
H2383 C2389 0.950 . S
H2384 C2390 0.949 . S
C2385 H2380 0.950 . S
C2385 C2387 1.327 . S
C2385 C2391 1.429 . S
C2386 C2378 1.574 . S
C2386 H2381 0.949 . S
C2386 C2392 1.368 . S
C2387 C2371 1.349 . S
C2387 H2379 0.950 . S
C2387 C2385 1.327 . S
C2388 C2376 1.349 . S
C2388 H2382 0.950 . S
C2388 C2389 1.327 . S
C2389 H2383 0.950 . S
C2389 C2388 1.327 . S
C2389 C2393 1.429 . S
C2390 C2373 1.574 . S
C2390 H2384 0.949 . S
C2390 C2394 1.368 . S
C2391 C2372 1.429 . S
C2391 C2385 1.429 . S
C2391 C2392 1.523 . S
C2392 C2373 1.368 . S
C2392 C2386 1.368 . S
C2392 C2391 1.523 . S
C2393 C2377 1.429 . S
C2393 C2389 1.429 . S
C2393 C2394 1.523 . S
C2394 C2378 1.368 . S
C2394 C2390 1.368 . S
C2394 C2393 1.523 . S
H2395 C2370 0.950 . S
H2396 C2372 0.950 . S
H2397 C2373 0.949 . S
H2398 C2375 0.950 . S
H2399 C2377 0.950 . S
C2400 C2401 1.349 . S
C2400 C2402 1.327 . S
C2400 H2425 0.950 . S
C2401 C2400 1.349 . S
C2401 C2417 1.349 . S
C2402 C2400 1.327 . S
C2402 C2421 1.429 . S
C2402 H2426 0.950 . S
C2403 C2420 1.574 . S
C2403 C2422 1.368 . S
C2403 H2427 0.949 . S
H2404 C2408 0.949 . S
C2405 C2406 1.349 . S
C2405 C2407 1.327 . S
C2405 H2428 0.950 . S
C2406 C2405 1.349 . S
C2406 C2418 1.349 . S
C2407 C2405 1.327 . S
C2407 C2423 1.429 . S
C2407 H2429 0.950 . S
C2408 H2404 0.949 . S
C2408 C2416 1.574 . S
C2408 C2424 1.368 . S
H2409 C2417 0.950 . S
H2410 C2415 0.950 . S
H2411 C2416 0.949 . S
H2412 C2418 0.950 . S
H2413 C2419 0.950 . S
H2414 C2420 0.949 . S
C2415 H2410 0.950 . S
C2415 C2417 1.327 . S
C2415 C2421 1.429 . S
C2416 C2408 1.574 . S
C2416 H2411 0.949 . S
C2416 C2422 1.368 . S
C2417 C2401 1.349 . S
C2417 H2409 0.950 . S
C2417 C2415 1.327 . S
C2418 C2406 1.349 . S
C2418 H2412 0.950 . S
C2418 C2419 1.327 . S
C2419 H2413 0.950 . S
C2419 C2418 1.327 . S
C2419 C2423 1.429 . S
C2420 C2403 1.574 . S
C2420 H2414 0.949 . S
C2420 C2424 1.368 . S
C2421 C2402 1.429 . S
C2421 C2415 1.429 . S
C2421 C2422 1.523 . S
C2422 C2403 1.368 . S
C2422 C2416 1.368 . S
C2422 C2421 1.523 . S
C2423 C2407 1.429 . S
C2423 C2419 1.429 . S
C2423 C2424 1.523 . S
C2424 C2408 1.368 . S
C2424 C2420 1.368 . S
C2424 C2423 1.523 . S
H2425 C2400 0.950 . S
H2426 C2402 0.950 . S
H2427 C2403 0.949 . S
H2428 C2405 0.950 . S
H2429 C2407 0.950 . S
C2430 C2431 1.349 . S
C2430 C2432 1.327 . S
C2430 H2455 0.950 . S
C2431 C2430 1.349 . S
C2431 C2447 1.349 . S
C2432 C2430 1.327 . S
C2432 C2451 1.429 . S
C2432 H2456 0.950 . S
C2433 C2450 1.574 . S
C2433 C2452 1.368 . S
C2433 H2457 0.949 . S
H2434 C2438 0.949 . S
C2435 C2436 1.349 . S
C2435 C2437 1.327 . S
C2435 H2458 0.950 . S
C2436 C2435 1.349 . S
C2436 C2448 1.349 . S
C2437 C2435 1.327 . S
C2437 C2453 1.429 . S
C2437 H2459 0.950 . S
C2438 H2434 0.949 . S
C2438 C2446 1.574 . S
C2438 C2454 1.368 . S
H2439 C2447 0.950 . S
H2440 C2445 0.950 . S
H2441 C2446 0.949 . S
H2442 C2448 0.950 . S
H2443 C2449 0.950 . S
H2444 C2450 0.949 . S
C2445 H2440 0.950 . S
C2445 C2447 1.327 . S
C2445 C2451 1.429 . S
C2446 C2438 1.574 . S
C2446 H2441 0.949 . S
C2446 C2452 1.368 . S
C2447 C2431 1.349 . S
C2447 H2439 0.950 . S
C2447 C2445 1.327 . S
C2448 C2436 1.349 . S
C2448 H2442 0.950 . S
C2448 C2449 1.327 . S
C2449 H2443 0.950 . S
C2449 C2448 1.327 . S
C2449 C2453 1.429 . S
C2450 C2433 1.574 . S
C2450 H2444 0.949 . S
C2450 C2454 1.368 . S
C2451 C2432 1.429 . S
C2451 C2445 1.429 . S
C2451 C2452 1.523 . S
C2452 C2433 1.368 . S
C2452 C2446 1.368 . S
C2452 C2451 1.523 . S
C2453 C2437 1.429 . S
C2453 C2449 1.429 . S
C2453 C2454 1.523 . S
C2454 C2438 1.368 . S
C2454 C2450 1.368 . S
C2454 C2453 1.523 . S
H2455 C2430 0.950 . S
H2456 C2432 0.950 . S
H2457 C2433 0.949 . S
H2458 C2435 0.950 . S
H2459 C2437 0.950 . S
C2460 C2461 1.349 . S
C2460 C2462 1.327 . S
C2460 H2485 0.950 . S
C2461 C2460 1.349 . S
C2461 C2477 1.349 . S
C2462 C2460 1.327 . S
C2462 C2481 1.429 . S
C2462 H2486 0.950 . S
C2463 C2480 1.574 . S
C2463 C2482 1.368 . S
C2463 H2487 0.949 . S
H2464 C2468 0.949 . S
C2465 C2466 1.349 . S
C2465 C2467 1.327 . S
C2465 H2488 0.950 . S
C2466 C2465 1.349 . S
C2466 C2478 1.349 . S
C2467 C2465 1.327 . S
C2467 C2483 1.429 . S
C2467 H2489 0.950 . S
C2468 H2464 0.949 . S
C2468 C2476 1.574 . S
C2468 C2484 1.368 . S
H2469 C2477 0.950 . S
H2470 C2475 0.950 . S
H2471 C2476 0.949 . S
H2472 C2478 0.950 . S
H2473 C2479 0.950 . S
H2474 C2480 0.949 . S
C2475 H2470 0.950 . S
C2475 C2477 1.327 . S
C2475 C2481 1.429 . S
C2476 C2468 1.574 . S
C2476 H2471 0.949 . S
C2476 C2482 1.368 . S
C2477 C2461 1.349 . S
C2477 H2469 0.950 . S
C2477 C2475 1.327 . S
C2478 C2466 1.349 . S
C2478 H2472 0.950 . S
C2478 C2479 1.327 . S
C2479 H2473 0.950 . S
C2479 C2478 1.327 . S
C2479 C2483 1.429 . S
C2480 C2463 1.574 . S
C2480 H2474 0.949 . S
C2480 C2484 1.368 . S
C2481 C2462 1.429 . S
C2481 C2475 1.429 . S
C2481 C2482 1.523 . S
C2482 C2463 1.368 . S
C2482 C2476 1.368 . S
C2482 C2481 1.523 . S
C2483 C2467 1.429 . S
C2483 C2479 1.429 . S
C2483 C2484 1.523 . S
C2484 C2468 1.368 . S
C2484 C2480 1.368 . S
C2484 C2483 1.523 . S
H2485 C2460 0.950 . S
H2486 C2462 0.950 . S
H2487 C2463 0.949 . S
H2488 C2465 0.950 . S
H2489 C2467 0.950 . S
C2490 C2491 1.349 . S
C2490 C2492 1.327 . S
C2490 H2515 0.950 . S
C2491 C2490 1.349 . S
C2491 C2507 1.349 . S
C2492 C2490 1.327 . S
C2492 C2511 1.429 . S
C2492 H2516 0.950 . S
C2493 C2510 1.574 . S
C2493 C2512 1.368 . S
C2493 H2517 0.949 . S
H2494 C2498 0.949 . S
C2495 C2496 1.349 . S
C2495 C2497 1.327 . S
C2495 H2518 0.950 . S
C2496 C2495 1.349 . S
C2496 C2508 1.349 . S
C2497 C2495 1.327 . S
C2497 C2513 1.429 . S
C2497 H2519 0.950 . S
C2498 H2494 0.949 . S
C2498 C2506 1.574 . S
C2498 C2514 1.368 . S
H2499 C2507 0.950 . S
H2500 C2505 0.950 . S
H2501 C2506 0.949 . S
H2502 C2508 0.950 . S
H2503 C2509 0.950 . S
H2504 C2510 0.949 . S
C2505 H2500 0.950 . S
C2505 C2507 1.327 . S
C2505 C2511 1.429 . S
C2506 C2498 1.574 . S
C2506 H2501 0.949 . S
C2506 C2512 1.368 . S
C2507 C2491 1.349 . S
C2507 H2499 0.950 . S
C2507 C2505 1.327 . S
C2508 C2496 1.349 . S
C2508 H2502 0.950 . S
C2508 C2509 1.327 . S
C2509 H2503 0.950 . S
C2509 C2508 1.327 . S
C2509 C2513 1.429 . S
C2510 C2493 1.574 . S
C2510 H2504 0.949 . S
C2510 C2514 1.368 . S
C2511 C2492 1.429 . S
C2511 C2505 1.429 . S
C2511 C2512 1.523 . S
C2512 C2493 1.368 . S
C2512 C2506 1.368 . S
C2512 C2511 1.523 . S
C2513 C2497 1.429 . S
C2513 C2509 1.429 . S
C2513 C2514 1.523 . S
C2514 C2498 1.368 . S
C2514 C2510 1.368 . S
C2514 C2513 1.523 . S
H2515 C2490 0.950 . S
H2516 C2492 0.950 . S
H2517 C2493 0.949 . S
H2518 C2495 0.950 . S
H2519 C2497 0.950 . S
C2520 C2521 1.349 . S
C2520 C2522 1.327 . S
C2520 H2545 0.950 . S
C2521 C2520 1.349 . S
C2521 C2537 1.349 . S
C2522 C2520 1.327 . S
C2522 C2541 1.429 . S
C2522 H2546 0.950 . S
C2523 C2540 1.574 . S
C2523 C2542 1.368 . S
C2523 H2547 0.949 . S
H2524 C2528 0.949 . S
C2525 C2526 1.349 . S
C2525 C2527 1.327 . S
C2525 H2548 0.950 . S
C2526 C2525 1.349 . S
C2526 C2538 1.349 . S
C2527 C2525 1.327 . S
C2527 C2543 1.429 . S
C2527 H2549 0.950 . S
C2528 H2524 0.949 . S
C2528 C2536 1.574 . S
C2528 C2544 1.368 . S
H2529 C2537 0.950 . S
H2530 C2535 0.950 . S
H2531 C2536 0.949 . S
H2532 C2538 0.950 . S
H2533 C2539 0.950 . S
H2534 C2540 0.949 . S
C2535 H2530 0.950 . S
C2535 C2537 1.327 . S
C2535 C2541 1.429 . S
C2536 C2528 1.574 . S
C2536 H2531 0.949 . S
C2536 C2542 1.368 . S
C2537 C2521 1.349 . S
C2537 H2529 0.950 . S
C2537 C2535 1.327 . S
C2538 C2526 1.349 . S
C2538 H2532 0.950 . S
C2538 C2539 1.327 . S
C2539 H2533 0.950 . S
C2539 C2538 1.327 . S
C2539 C2543 1.429 . S
C2540 C2523 1.574 . S
C2540 H2534 0.949 . S
C2540 C2544 1.368 . S
C2541 C2522 1.429 . S
C2541 C2535 1.429 . S
C2541 C2542 1.523 . S
C2542 C2523 1.368 . S
C2542 C2536 1.368 . S
C2542 C2541 1.523 . S
C2543 C2527 1.429 . S
C2543 C2539 1.429 . S
C2543 C2544 1.523 . S
C2544 C2528 1.368 . S
C2544 C2540 1.368 . S
C2544 C2543 1.523 . S
H2545 C2520 0.950 . S
H2546 C2522 0.950 . S
H2547 C2523 0.949 . S
H2548 C2525 0.950 . S
H2549 C2527 0.950 . S
C2550 C2551 1.349 . S
C2550 C2552 1.327 . S
C2550 H2575 0.950 . S
C2551 C2550 1.349 . S
C2551 C2567 1.349 . S
C2552 C2550 1.327 . S
C2552 C2571 1.429 . S
C2552 H2576 0.950 . S
C2553 C2570 1.574 . S
C2553 C2572 1.368 . S
C2553 H2577 0.949 . S
H2554 C2558 0.949 . S
C2555 C2556 1.349 . S
C2555 C2557 1.327 . S
C2555 H2578 0.950 . S
C2556 C2555 1.349 . S
C2556 C2568 1.349 . S
C2557 C2555 1.327 . S
C2557 C2573 1.429 . S
C2557 H2579 0.950 . S
C2558 H2554 0.949 . S
C2558 C2566 1.574 . S
C2558 C2574 1.368 . S
H2559 C2567 0.950 . S
H2560 C2565 0.950 . S
H2561 C2566 0.949 . S
H2562 C2568 0.950 . S
H2563 C2569 0.950 . S
H2564 C2570 0.949 . S
C2565 H2560 0.950 . S
C2565 C2567 1.327 . S
C2565 C2571 1.429 . S
C2566 C2558 1.574 . S
C2566 H2561 0.949 . S
C2566 C2572 1.368 . S
C2567 C2551 1.349 . S
C2567 H2559 0.950 . S
C2567 C2565 1.327 . S
C2568 C2556 1.349 . S
C2568 H2562 0.950 . S
C2568 C2569 1.327 . S
C2569 H2563 0.950 . S
C2569 C2568 1.327 . S
C2569 C2573 1.429 . S
C2570 C2553 1.574 . S
C2570 H2564 0.949 . S
C2570 C2574 1.368 . S
C2571 C2552 1.429 . S
C2571 C2565 1.429 . S
C2571 C2572 1.523 . S
C2572 C2553 1.368 . S
C2572 C2566 1.368 . S
C2572 C2571 1.523 . S
C2573 C2557 1.429 . S
C2573 C2569 1.429 . S
C2573 C2574 1.523 . S
C2574 C2558 1.368 . S
C2574 C2570 1.368 . S
C2574 C2573 1.523 . S
H2575 C2550 0.950 . S
H2576 C2552 0.950 . S
H2577 C2553 0.949 . S
H2578 C2555 0.950 . S
H2579 C2557 0.950 . S
C2580 C2581 1.349 . S
C2580 C2582 1.327 . S
C2580 H2605 0.950 . S
C2581 C2580 1.349 . S
C2581 C2597 1.349 . S
C2582 C2580 1.327 . S
C2582 C2601 1.429 . S
C2582 H2606 0.950 . S
C2583 C2600 1.574 . S
C2583 C2602 1.368 . S
C2583 H2607 0.949 . S
H2584 C2588 0.949 . S
C2585 C2586 1.349 . S
C2585 C2587 1.327 . S
C2585 H2608 0.950 . S
C2586 C2585 1.349 . S
C2586 C2598 1.349 . S
C2587 C2585 1.327 . S
C2587 C2603 1.429 . S
C2587 H2609 0.950 . S
C2588 H2584 0.949 . S
C2588 C2596 1.574 . S
C2588 C2604 1.368 . S
H2589 C2597 0.950 . S
H2590 C2595 0.950 . S
H2591 C2596 0.949 . S
H2592 C2598 0.950 . S
H2593 C2599 0.950 . S
H2594 C2600 0.949 . S
C2595 H2590 0.950 . S
C2595 C2597 1.327 . S
C2595 C2601 1.429 . S
C2596 C2588 1.574 . S
C2596 H2591 0.949 . S
C2596 C2602 1.368 . S
C2597 C2581 1.349 . S
C2597 H2589 0.950 . S
C2597 C2595 1.327 . S
C2598 C2586 1.349 . S
C2598 H2592 0.950 . S
C2598 C2599 1.327 . S
C2599 H2593 0.950 . S
C2599 C2598 1.327 . S
C2599 C2603 1.429 . S
C2600 C2583 1.574 . S
C2600 H2594 0.949 . S
C2600 C2604 1.368 . S
C2601 C2582 1.429 . S
C2601 C2595 1.429 . S
C2601 C2602 1.523 . S
C2602 C2583 1.368 . S
C2602 C2596 1.368 . S
C2602 C2601 1.523 . S
C2603 C2587 1.429 . S
C2603 C2599 1.429 . S
C2603 C2604 1.523 . S
C2604 C2588 1.368 . S
C2604 C2600 1.368 . S
C2604 C2603 1.523 . S
H2605 C2580 0.950 . S
H2606 C2582 0.950 . S
H2607 C2583 0.949 . S
H2608 C2585 0.950 . S
H2609 C2587 0.950 . S
C2610 C2611 1.349 . S
C2610 C2612 1.327 . S
C2610 H2635 0.950 . S
C2611 C2610 1.349 . S
C2611 C2627 1.349 . S
C2612 C2610 1.327 . S
C2612 C2631 1.429 . S
C2612 H2636 0.950 . S
C2613 C2630 1.574 . S
C2613 C2632 1.368 . S
C2613 H2637 0.949 . S
H2614 C2618 0.949 . S
C2615 C2616 1.349 . S
C2615 C2617 1.327 . S
C2615 H2638 0.950 . S
C2616 C2615 1.349 . S
C2616 C2628 1.349 . S
C2617 C2615 1.327 . S
C2617 C2633 1.429 . S
C2617 H2639 0.950 . S
C2618 H2614 0.949 . S
C2618 C2626 1.574 . S
C2618 C2634 1.368 . S
H2619 C2627 0.950 . S
H2620 C2625 0.950 . S
H2621 C2626 0.949 . S
H2622 C2628 0.950 . S
H2623 C2629 0.950 . S
H2624 C2630 0.949 . S
C2625 H2620 0.950 . S
C2625 C2627 1.327 . S
C2625 C2631 1.429 . S
C2626 C2618 1.574 . S
C2626 H2621 0.949 . S
C2626 C2632 1.368 . S
C2627 C2611 1.349 . S
C2627 H2619 0.950 . S
C2627 C2625 1.327 . S
C2628 C2616 1.349 . S
C2628 H2622 0.950 . S
C2628 C2629 1.327 . S
C2629 H2623 0.950 . S
C2629 C2628 1.327 . S
C2629 C2633 1.429 . S
C2630 C2613 1.574 . S
C2630 H2624 0.949 . S
C2630 C2634 1.368 . S
C2631 C2612 1.429 . S
C2631 C2625 1.429 . S
C2631 C2632 1.523 . S
C2632 C2613 1.368 . S
C2632 C2626 1.368 . S
C2632 C2631 1.523 . S
C2633 C2617 1.429 . S
C2633 C2629 1.429 . S
C2633 C2634 1.523 . S
C2634 C2618 1.368 . S
C2634 C2630 1.368 . S
C2634 C2633 1.523 . S
H2635 C2610 0.950 . S
H2636 C2612 0.950 . S
H2637 C2613 0.949 . S
H2638 C2615 0.950 . S
H2639 C2617 0.950 . S
C2640 C2641 1.349 . S
C2640 C2642 1.327 . S
C2640 H2665 0.950 . S
C2641 C2640 1.349 . S
C2641 C2657 1.349 . S
C2642 C2640 1.327 . S
C2642 C2661 1.429 . S
C2642 H2666 0.950 . S
C2643 C2660 1.574 . S
C2643 C2662 1.368 . S
C2643 H2667 0.949 . S
H2644 C2648 0.949 . S
C2645 C2646 1.349 . S
C2645 C2647 1.327 . S
C2645 H2668 0.950 . S
C2646 C2645 1.349 . S
C2646 C2658 1.349 . S
C2647 C2645 1.327 . S
C2647 C2663 1.429 . S
C2647 H2669 0.950 . S
C2648 H2644 0.949 . S
C2648 C2656 1.574 . S
C2648 C2664 1.368 . S
H2649 C2657 0.950 . S
H2650 C2655 0.950 . S
H2651 C2656 0.949 . S
H2652 C2658 0.950 . S
H2653 C2659 0.950 . S
H2654 C2660 0.949 . S
C2655 H2650 0.950 . S
C2655 C2657 1.327 . S
C2655 C2661 1.429 . S
C2656 C2648 1.574 . S
C2656 H2651 0.949 . S
C2656 C2662 1.368 . S
C2657 C2641 1.349 . S
C2657 H2649 0.950 . S
C2657 C2655 1.327 . S
C2658 C2646 1.349 . S
C2658 H2652 0.950 . S
C2658 C2659 1.327 . S
C2659 H2653 0.950 . S
C2659 C2658 1.327 . S
C2659 C2663 1.429 . S
C2660 C2643 1.574 . S
C2660 H2654 0.949 . S
C2660 C2664 1.368 . S
C2661 C2642 1.429 . S
C2661 C2655 1.429 . S
C2661 C2662 1.523 . S
C2662 C2643 1.368 . S
C2662 C2656 1.368 . S
C2662 C2661 1.523 . S
C2663 C2647 1.429 . S
C2663 C2659 1.429 . S
C2663 C2664 1.523 . S
C2664 C2648 1.368 . S
C2664 C2660 1.368 . S
C2664 C2663 1.523 . S
H2665 C2640 0.950 . S
H2666 C2642 0.950 . S
H2667 C2643 0.949 . S
H2668 C2645 0.950 . S
H2669 C2647 0.950 . S
C2670 C2671 1.349 . S
C2670 C2672 1.327 . S
C2670 H2695 0.950 . S
C2671 C2670 1.349 . S
C2671 C2687 1.349 . S
C2672 C2670 1.327 . S
C2672 C2691 1.429 . S
C2672 H2696 0.950 . S
C2673 C2690 1.574 . S
C2673 C2692 1.368 . S
C2673 H2697 0.949 . S
H2674 C2678 0.949 . S
C2675 C2676 1.349 . S
C2675 C2677 1.327 . S
C2675 H2698 0.950 . S
C2676 C2675 1.349 . S
C2676 C2688 1.349 . S
C2677 C2675 1.327 . S
C2677 C2693 1.429 . S
C2677 H2699 0.950 . S
C2678 H2674 0.949 . S
C2678 C2686 1.574 . S
C2678 C2694 1.368 . S
H2679 C2687 0.950 . S
H2680 C2685 0.950 . S
H2681 C2686 0.949 . S
H2682 C2688 0.950 . S
H2683 C2689 0.950 . S
H2684 C2690 0.949 . S
C2685 H2680 0.950 . S
C2685 C2687 1.327 . S
C2685 C2691 1.429 . S
C2686 C2678 1.574 . S
C2686 H2681 0.949 . S
C2686 C2692 1.368 . S
C2687 C2671 1.349 . S
C2687 H2679 0.950 . S
C2687 C2685 1.327 . S
C2688 C2676 1.349 . S
C2688 H2682 0.950 . S
C2688 C2689 1.327 . S
C2689 H2683 0.950 . S
C2689 C2688 1.327 . S
C2689 C2693 1.429 . S
C2690 C2673 1.574 . S
C2690 H2684 0.949 . S
C2690 C2694 1.368 . S
C2691 C2672 1.429 . S
C2691 C2685 1.429 . S
C2691 C2692 1.523 . S
C2692 C2673 1.368 . S
C2692 C2686 1.368 . S
C2692 C2691 1.523 . S
C2693 C2677 1.429 . S
C2693 C2689 1.429 . S
C2693 C2694 1.523 . S
C2694 C2678 1.368 . S
C2694 C2690 1.368 . S
C2694 C2693 1.523 . S
H2695 C2670 0.950 . S
H2696 C2672 0.950 . S
H2697 C2673 0.949 . S
H2698 C2675 0.950 . S
H2699 C2677 0.950 . S
C2700 C2701 1.349 . S
C2700 C2702 1.327 . S
C2700 H2725 0.950 . S
C2701 C2700 1.349 . S
C2701 C2717 1.349 . S
C2702 C2700 1.327 . S
C2702 C2721 1.429 . S
C2702 H2726 0.950 . S
C2703 C2720 1.574 . S
C2703 C2722 1.368 . S
C2703 H2727 0.949 . S
H2704 C2708 0.949 . S
C2705 C2706 1.349 . S
C2705 C2707 1.327 . S
C2705 H2728 0.950 . S
C2706 C2705 1.349 . S
C2706 C2718 1.349 . S
C2707 C2705 1.327 . S
C2707 C2723 1.429 . S
C2707 H2729 0.950 . S
C2708 H2704 0.949 . S
C2708 C2716 1.574 . S
C2708 C2724 1.368 . S
H2709 C2717 0.950 . S
H2710 C2715 0.950 . S
H2711 C2716 0.949 . S
H2712 C2718 0.950 . S
H2713 C2719 0.950 . S
H2714 C2720 0.949 . S
C2715 H2710 0.950 . S
C2715 C2717 1.327 . S
C2715 C2721 1.429 . S
C2716 C2708 1.574 . S
C2716 H2711 0.949 . S
C2716 C2722 1.368 . S
C2717 C2701 1.349 . S
C2717 H2709 0.950 . S
C2717 C2715 1.327 . S
C2718 C2706 1.349 . S
C2718 H2712 0.950 . S
C2718 C2719 1.327 . S
C2719 H2713 0.950 . S
C2719 C2718 1.327 . S
C2719 C2723 1.429 . S
C2720 C2703 1.574 . S
C2720 H2714 0.949 . S
C2720 C2724 1.368 . S
C2721 C2702 1.429 . S
C2721 C2715 1.429 . S
C2721 C2722 1.523 . S
C2722 C2703 1.368 . S
C2722 C2716 1.368 . S
C2722 C2721 1.523 . S
C2723 C2707 1.429 . S
C2723 C2719 1.429 . S
C2723 C2724 1.523 . S
C2724 C2708 1.368 . S
C2724 C2720 1.368 . S
C2724 C2723 1.523 . S
H2725 C2700 0.950 . S
H2726 C2702 0.950 . S
H2727 C2703 0.949 . S
H2728 C2705 0.950 . S
H2729 C2707 0.950 . S
C2730 C2731 1.349 . S
C2730 C2732 1.327 . S
C2730 H2755 0.950 . S
C2731 C2730 1.349 . S
C2731 C2747 1.349 . S
C2732 C2730 1.327 . S
C2732 C2751 1.429 . S
C2732 H2756 0.950 . S
C2733 C2750 1.574 . S
C2733 C2752 1.368 . S
C2733 H2757 0.949 . S
H2734 C2738 0.949 . S
C2735 C2736 1.349 . S
C2735 C2737 1.327 . S
C2735 H2758 0.950 . S
C2736 C2735 1.349 . S
C2736 C2748 1.349 . S
C2737 C2735 1.327 . S
C2737 C2753 1.429 . S
C2737 H2759 0.950 . S
C2738 H2734 0.949 . S
C2738 C2746 1.574 . S
C2738 C2754 1.368 . S
H2739 C2747 0.950 . S
H2740 C2745 0.950 . S
H2741 C2746 0.949 . S
H2742 C2748 0.950 . S
H2743 C2749 0.950 . S
H2744 C2750 0.949 . S
C2745 H2740 0.950 . S
C2745 C2747 1.327 . S
C2745 C2751 1.429 . S
C2746 C2738 1.574 . S
C2746 H2741 0.949 . S
C2746 C2752 1.368 . S
C2747 C2731 1.349 . S
C2747 H2739 0.950 . S
C2747 C2745 1.327 . S
C2748 C2736 1.349 . S
C2748 H2742 0.950 . S
C2748 C2749 1.327 . S
C2749 H2743 0.950 . S
C2749 C2748 1.327 . S
C2749 C2753 1.429 . S
C2750 C2733 1.574 . S
C2750 H2744 0.949 . S
C2750 C2754 1.368 . S
C2751 C2732 1.429 . S
C2751 C2745 1.429 . S
C2751 C2752 1.523 . S
C2752 C2733 1.368 . S
C2752 C2746 1.368 . S
C2752 C2751 1.523 . S
C2753 C2737 1.429 . S
C2753 C2749 1.429 . S
C2753 C2754 1.523 . S
C2754 C2738 1.368 . S
C2754 C2750 1.368 . S
C2754 C2753 1.523 . S
H2755 C2730 0.950 . S
H2756 C2732 0.950 . S
H2757 C2733 0.949 . S
H2758 C2735 0.950 . S
H2759 C2737 0.950 . S
C2760 C2761 1.349 . S
C2760 C2762 1.327 . S
C2760 H2785 0.950 . S
C2761 C2760 1.349 . S
C2761 C2777 1.349 . S
C2762 C2760 1.327 . S
C2762 C2781 1.429 . S
C2762 H2786 0.950 . S
C2763 C2780 1.574 . S
C2763 C2782 1.368 . S
C2763 H2787 0.949 . S
H2764 C2768 0.949 . S
C2765 C2766 1.349 . S
C2765 C2767 1.327 . S
C2765 H2788 0.950 . S
C2766 C2765 1.349 . S
C2766 C2778 1.349 . S
C2767 C2765 1.327 . S
C2767 C2783 1.429 . S
C2767 H2789 0.950 . S
C2768 H2764 0.949 . S
C2768 C2776 1.574 . S
C2768 C2784 1.368 . S
H2769 C2777 0.950 . S
H2770 C2775 0.950 . S
H2771 C2776 0.949 . S
H2772 C2778 0.950 . S
H2773 C2779 0.950 . S
H2774 C2780 0.949 . S
C2775 H2770 0.950 . S
C2775 C2777 1.327 . S
C2775 C2781 1.429 . S
C2776 C2768 1.574 . S
C2776 H2771 0.949 . S
C2776 C2782 1.368 . S
C2777 C2761 1.349 . S
C2777 H2769 0.950 . S
C2777 C2775 1.327 . S
C2778 C2766 1.349 . S
C2778 H2772 0.950 . S
C2778 C2779 1.327 . S
C2779 H2773 0.950 . S
C2779 C2778 1.327 . S
C2779 C2783 1.429 . S
C2780 C2763 1.574 . S
C2780 H2774 0.949 . S
C2780 C2784 1.368 . S
C2781 C2762 1.429 . S
C2781 C2775 1.429 . S
C2781 C2782 1.523 . S
C2782 C2763 1.368 . S
C2782 C2776 1.368 . S
C2782 C2781 1.523 . S
C2783 C2767 1.429 . S
C2783 C2779 1.429 . S
C2783 C2784 1.523 . S
C2784 C2768 1.368 . S
C2784 C2780 1.368 . S
C2784 C2783 1.523 . S
H2785 C2760 0.950 . S
H2786 C2762 0.950 . S
H2787 C2763 0.949 . S
H2788 C2765 0.950 . S
H2789 C2767 0.950 . S
C2790 C2791 1.349 . S
C2790 C2792 1.327 . S
C2790 H2815 0.950 . S
C2791 C2790 1.349 . S
C2791 C2807 1.349 . S
C2792 C2790 1.327 . S
C2792 C2811 1.429 . S
C2792 H2816 0.950 . S
C2793 C2810 1.574 . S
C2793 C2812 1.368 . S
C2793 H2817 0.949 . S
H2794 C2798 0.949 . S
C2795 C2796 1.349 . S
C2795 C2797 1.327 . S
C2795 H2818 0.950 . S
C2796 C2795 1.349 . S
C2796 C2808 1.349 . S
C2797 C2795 1.327 . S
C2797 C2813 1.429 . S
C2797 H2819 0.950 . S
C2798 H2794 0.949 . S
C2798 C2806 1.574 . S
C2798 C2814 1.368 . S
H2799 C2807 0.950 . S
H2800 C2805 0.950 . S
H2801 C2806 0.949 . S
H2802 C2808 0.950 . S
H2803 C2809 0.950 . S
H2804 C2810 0.949 . S
C2805 H2800 0.950 . S
C2805 C2807 1.327 . S
C2805 C2811 1.429 . S
C2806 C2798 1.574 . S
C2806 H2801 0.949 . S
C2806 C2812 1.368 . S
C2807 C2791 1.349 . S
C2807 H2799 0.950 . S
C2807 C2805 1.327 . S
C2808 C2796 1.349 . S
C2808 H2802 0.950 . S
C2808 C2809 1.327 . S
C2809 H2803 0.950 . S
C2809 C2808 1.327 . S
C2809 C2813 1.429 . S
C2810 C2793 1.574 . S
C2810 H2804 0.949 . S
C2810 C2814 1.368 . S
C2811 C2792 1.429 . S
C2811 C2805 1.429 . S
C2811 C2812 1.523 . S
C2812 C2793 1.368 . S
C2812 C2806 1.368 . S
C2812 C2811 1.523 . S
C2813 C2797 1.429 . S
C2813 C2809 1.429 . S
C2813 C2814 1.523 . S
C2814 C2798 1.368 . S
C2814 C2810 1.368 . S
C2814 C2813 1.523 . S
H2815 C2790 0.950 . S
H2816 C2792 0.950 . S
H2817 C2793 0.949 . S
H2818 C2795 0.950 . S
H2819 C2797 0.950 . S
C2820 C2821 1.349 . S
C2820 C2822 1.327 . S
C2820 H2845 0.950 . S
C2821 C2820 1.349 . S
C2821 C2837 1.349 . S
C2822 C2820 1.327 . S
C2822 C2841 1.429 . S
C2822 H2846 0.950 . S
C2823 C2840 1.574 . S
C2823 C2842 1.368 . S
C2823 H2847 0.949 . S
H2824 C2828 0.949 . S
C2825 C2826 1.349 . S
C2825 C2827 1.327 . S
C2825 H2848 0.950 . S
C2826 C2825 1.349 . S
C2826 C2838 1.349 . S
C2827 C2825 1.327 . S
C2827 C2843 1.429 . S
C2827 H2849 0.950 . S
C2828 H2824 0.949 . S
C2828 C2836 1.574 . S
C2828 C2844 1.368 . S
H2829 C2837 0.950 . S
H2830 C2835 0.950 . S
H2831 C2836 0.949 . S
H2832 C2838 0.950 . S
H2833 C2839 0.950 . S
H2834 C2840 0.949 . S
C2835 H2830 0.950 . S
C2835 C2837 1.327 . S
C2835 C2841 1.429 . S
C2836 C2828 1.574 . S
C2836 H2831 0.949 . S
C2836 C2842 1.368 . S
C2837 C2821 1.349 . S
C2837 H2829 0.950 . S
C2837 C2835 1.327 . S
C2838 C2826 1.349 . S
C2838 H2832 0.950 . S
C2838 C2839 1.327 . S
C2839 H2833 0.950 . S
C2839 C2838 1.327 . S
C2839 C2843 1.429 . S
C2840 C2823 1.574 . S
C2840 H2834 0.949 . S
C2840 C2844 1.368 . S
C2841 C2822 1.429 . S
C2841 C2835 1.429 . S
C2841 C2842 1.523 . S
C2842 C2823 1.368 . S
C2842 C2836 1.368 . S
C2842 C2841 1.523 . S
C2843 C2827 1.429 . S
C2843 C2839 1.429 . S
C2843 C2844 1.523 . S
C2844 C2828 1.368 . S
C2844 C2840 1.368 . S
C2844 C2843 1.523 . S
H2845 C2820 0.950 . S
H2846 C2822 0.950 . S
H2847 C2823 0.949 . S
H2848 C2825 0.950 . S
H2849 C2827 0.950 . S
C2850 C2851 1.349 . S
C2850 C2852 1.327 . S
C2850 H2875 0.950 . S
C2851 C2850 1.349 . S
C2851 C2867 1.349 . S
C2852 C2850 1.327 . S
C2852 C2871 1.429 . S
C2852 H2876 0.950 . S
C2853 C2870 1.574 . S
C2853 C2872 1.368 . S
C2853 H2877 0.949 . S
H2854 C2858 0.949 . S
C2855 C2856 1.349 . S
C2855 C2857 1.327 . S
C2855 H2878 0.950 . S
C2856 C2855 1.349 . S
C2856 C2868 1.349 . S
C2857 C2855 1.327 . S
C2857 C2873 1.429 . S
C2857 H2879 0.950 . S
C2858 H2854 0.949 . S
C2858 C2866 1.574 . S
C2858 C2874 1.368 . S
H2859 C2867 0.950 . S
H2860 C2865 0.950 . S
H2861 C2866 0.949 . S
H2862 C2868 0.950 . S
H2863 C2869 0.950 . S
H2864 C2870 0.949 . S
C2865 H2860 0.950 . S
C2865 C2867 1.327 . S
C2865 C2871 1.429 . S
C2866 C2858 1.574 . S
C2866 H2861 0.949 . S
C2866 C2872 1.368 . S
C2867 C2851 1.349 . S
C2867 H2859 0.950 . S
C2867 C2865 1.327 . S
C2868 C2856 1.349 . S
C2868 H2862 0.950 . S
C2868 C2869 1.327 . S
C2869 H2863 0.950 . S
C2869 C2868 1.327 . S
C2869 C2873 1.429 . S
C2870 C2853 1.574 . S
C2870 H2864 0.949 . S
C2870 C2874 1.368 . S
C2871 C2852 1.429 . S
C2871 C2865 1.429 . S
C2871 C2872 1.523 . S
C2872 C2853 1.368 . S
C2872 C2866 1.368 . S
C2872 C2871 1.523 . S
C2873 C2857 1.429 . S
C2873 C2869 1.429 . S
C2873 C2874 1.523 . S
C2874 C2858 1.368 . S
C2874 C2870 1.368 . S
C2874 C2873 1.523 . S
H2875 C2850 0.950 . S
H2876 C2852 0.950 . S
H2877 C2853 0.949 . S
H2878 C2855 0.950 . S
H2879 C2857 0.950 . S
C2880 C2881 1.349 1_546 S
C2880 C2882 1.327 . S
C2880 H2905 0.950 . S
C2881 C2880 1.349 1_564 S
C2881 C2897 1.349 . S
C2882 C2880 1.327 . S
C2882 C2901 1.429 1_545 S
C2882 H2906 0.950 . S
C2883 C2900 1.574 . S
C2883 C2902 1.368 . S
C2883 H2907 0.949 . S
H2884 C2888 0.949 . S
C2885 C2886 1.349 . S
C2885 C2887 1.327 . S
C2885 H2908 0.950 . S
C2886 C2885 1.349 . S
C2886 C2898 1.349 1_565 S
C2887 C2885 1.327 . S
C2887 C2903 1.429 . S
C2887 H2909 0.950 . S
C2888 H2884 0.949 . S
C2888 C2896 1.574 . S
C2888 C2904 1.368 1_545 S
H2889 C2897 0.950 . S
H2890 C2895 0.950 . S
H2891 C2896 0.949 . S
H2892 C2898 0.950 . S
H2893 C2899 0.950 . S
H2894 C2900 0.949 . S
C2895 H2890 0.950 . S
C2895 C2897 1.327 . S
C2895 C2901 1.429 1_554 S
C2896 C2888 1.574 . S
C2896 H2891 0.949 . S
C2896 C2902 1.368 1_545 S
C2897 C2881 1.349 . S
C2897 H2889 0.950 . S
C2897 C2895 1.327 . S
C2898 C2886 1.349 1_545 S
C2898 H2892 0.950 . S
C2898 C2899 1.327 . S
C2899 H2893 0.950 . S
C2899 C2898 1.327 . S
C2899 C2903 1.429 1_545 S
C2900 C2883 1.574 . S
C2900 H2894 0.949 . S
C2900 C2904 1.368 . S
C2901 C2882 1.429 1_565 S
C2901 C2895 1.429 1_556 S
C2901 C2902 1.523 . S
C2902 C2883 1.368 . S
C2902 C2896 1.368 1_565 S
C2902 C2901 1.523 . S
C2903 C2887 1.429 . S
C2903 C2899 1.429 1_565 S
C2903 C2904 1.523 . S
C2904 C2888 1.368 1_565 S
C2904 C2900 1.368 . S
C2904 C2903 1.523 . S
H2905 C2880 0.950 . S
H2906 C2882 0.950 . S
H2907 C2883 0.949 . S
H2908 C2885 0.950 . S
H2909 C2887 0.950 . S
C2910 C2911 1.349 . S
C2910 C2912 1.327 . S
C2910 H2935 0.950 . S
C2911 C2910 1.349 . S
C2911 C2927 1.349 . S
C2912 C2910 1.327 . S
C2912 C2931 1.429 . S
C2912 H2936 0.950 . S
C2913 C2930 1.574 . S
C2913 C2932 1.368 . S
C2913 H2937 0.949 . S
H2914 C2918 0.949 . S
C2915 C2916 1.349 1_556 S
C2915 C2917 1.327 . S
C2915 H2938 0.950 . S
C2916 C2915 1.349 1_554 S
C2916 C2928 1.349 . S
C2917 C2915 1.327 . S
C2917 C2933 1.429 1_655 S
C2917 H2939 0.951 1_655 S
C2918 H2914 0.949 . S
C2918 C2926 1.574 . S
C2918 C2934 1.368 . S
H2919 C2927 0.950 . S
H2920 C2925 0.950 . S
H2921 C2926 0.949 . S
H2922 C2928 0.950 . S
H2923 C2929 0.948 1_554 S
H2924 C2930 0.949 . S
C2925 H2920 0.950 . S
C2925 C2927 1.327 . S
C2925 C2931 1.429 . S
C2926 C2918 1.574 . S
C2926 H2921 0.949 . S
C2926 C2932 1.368 . S
C2927 C2911 1.349 . S
C2927 H2919 0.950 . S
C2927 C2925 1.327 . S
C2928 C2916 1.349 . S
C2928 H2922 0.950 . S
C2928 C2929 1.327 1_654 S
C2929 H2923 0.948 1_556 S
C2929 C2928 1.327 1_456 S
C2929 C2933 1.429 . S
C2930 C2913 1.574 . S
C2930 H2924 0.949 . S
C2930 C2934 1.368 . S
C2931 C2912 1.429 . S
C2931 C2925 1.429 . S
C2931 C2932 1.523 . S
C2932 C2913 1.368 . S
C2932 C2926 1.368 . S
C2932 C2931 1.523 . S
C2933 C2917 1.429 1_455 S
C2933 C2929 1.429 . S
C2933 C2934 1.523 . S
C2934 C2918 1.368 . S
C2934 C2930 1.368 . S
C2934 C2933 1.523 . S
H2935 C2910 0.950 . S
H2936 C2912 0.950 . S
H2937 C2913 0.949 . S
H2938 C2915 0.950 . S
H2939 C2917 0.951 1_455 S
C2940 C2941 1.349 . S
C2940 C2942 1.327 . S
C2940 H2965 0.950 . S
C2941 C2940 1.349 . S
C2941 C2957 1.349 . S
C2942 C2940 1.327 . S
C2942 C2961 1.429 . S
C2942 H2966 0.950 . S
C2943 C2960 1.574 . S
C2943 C2962 1.368 . S
C2943 H2967 0.949 . S
H2944 C2948 0.949 . S
C2945 C2946 1.349 . S
C2945 C2947 1.327 . S
C2945 H2968 0.950 . S
C2946 C2945 1.349 . S
C2946 C2958 1.349 . S
C2947 C2945 1.327 . S
C2947 C2963 1.429 . S
C2947 H2969 0.950 . S
C2948 H2944 0.949 . S
C2948 C2956 1.574 . S
C2948 C2964 1.368 . S
H2949 C2957 0.950 . S
H2950 C2955 0.950 . S
H2951 C2956 0.949 . S
H2952 C2958 0.950 . S
H2953 C2959 0.950 . S
H2954 C2960 0.949 . S
C2955 H2950 0.950 . S
C2955 C2957 1.327 . S
C2955 C2961 1.429 . S
C2956 C2948 1.574 . S
C2956 H2951 0.949 . S
C2956 C2962 1.368 . S
C2957 C2941 1.349 . S
C2957 H2949 0.950 . S
C2957 C2955 1.327 . S
C2958 C2946 1.349 . S
C2958 H2952 0.950 . S
C2958 C2959 1.327 . S
C2959 H2953 0.950 . S
C2959 C2958 1.327 . S
C2959 C2963 1.429 . S
C2960 C2943 1.574 . S
C2960 H2954 0.949 . S
C2960 C2964 1.368 . S
C2961 C2942 1.429 . S
C2961 C2955 1.429 . S
C2961 C2962 1.523 . S
C2962 C2943 1.368 . S
C2962 C2956 1.368 . S
C2962 C2961 1.523 . S
C2963 C2947 1.429 . S
C2963 C2959 1.429 . S
C2963 C2964 1.523 . S
C2964 C2948 1.368 . S
C2964 C2960 1.368 . S
C2964 C2963 1.523 . S
H2965 C2940 0.950 . S
H2966 C2942 0.950 . S
H2967 C2943 0.949 . S
H2968 C2945 0.950 . S
H2969 C2947 0.950 . S
C2970 C2971 1.349 . S
C2970 C2972 1.327 1_655 S
C2970 H2995 0.950 . S
C2971 C2970 1.349 . S
C2971 C2987 1.349 1_565 S
C2972 C2970 1.327 1_455 S
C2972 C2991 1.429 . S
C2972 H2996 0.950 . S
C2973 C2990 1.574 . S
C2973 C2992 1.368 1_545 S
C2973 H2997 0.949 . S
H2974 C2978 0.949 . S
C2975 C2976 1.349 1_545 S
C2975 C2977 1.327 . S
C2975 H2998 0.950 . S
C2976 C2975 1.349 1_565 S
C2976 C2988 1.349 . S
C2977 C2975 1.327 . S
C2977 C2993 1.429 1_545 S
C2977 H2999 0.950 . S
C2978 H2974 0.949 . S
C2978 C2986 1.574 . S
C2978 C2994 1.368 . S
H2979 C2987 0.950 . S
H2980 C2985 0.952 . S
H2981 C2986 0.949 . S
H2982 C2988 0.950 . S
H2983 C2989 0.950 . S
H2984 C2990 0.949 . S
C2985 H2980 0.952 . S
C2985 C2987 1.327 . S
C2985 C2991 1.429 1_645 S
C2986 C2978 1.574 . S
C2986 H2981 0.949 . S
C2986 C2992 1.368 . S
C2987 C2971 1.349 1_545 S
C2987 H2979 0.950 . S
C2987 C2985 1.327 . S
C2988 C2976 1.349 . S
C2988 H2982 0.950 . S
C2988 C2989 1.327 . S
C2989 H2983 0.950 . S
C2989 C2988 1.327 . S
C2989 C2993 1.429 . S
C2990 C2973 1.574 . S
C2990 H2984 0.949 . S
C2990 C2994 1.368 1_545 S
C2991 C2972 1.429 . S
C2991 C2985 1.429 1_465 S
C2991 C2992 1.523 . S
C2992 C2973 1.368 1_565 S
C2992 C2986 1.368 . S
C2992 C2991 1.523 . S
C2993 C2977 1.429 1_565 S
C2993 C2989 1.429 . S
C2993 C2994 1.523 . S
C2994 C2978 1.368 . S
C2994 C2990 1.368 1_565 S
C2994 C2993 1.523 . S
H2995 C2970 0.950 . S
H2996 C2972 0.950 . S
H2997 C2973 0.949 . S
H2998 C2975 0.950 . S
H2999 C2977 0.950 . S
C3000 C3001 1.349 1_565 S
C3000 C3002 1.327 . S
C3000 H3025 0.950 . S
C3001 C3000 1.349 1_545 S
C3001 C3017 1.349 . S
C3002 C3000 1.327 . S
C3002 C3021 1.429 1_565 S
C3002 H3026 0.950 . S
C3003 C3020 1.574 . S
C3003 C3022 1.368 . S
C3003 H3027 0.949 . S
H3004 C3008 0.949 . S
C3005 C3006 1.349 . S
C3005 C3007 1.326 1_556 S
C3005 H3028 0.950 . S
C3006 C3005 1.349 . S
C3006 C3018 1.349 1_546 S
C3007 C3005 1.326 1_554 S
C3007 C3023 1.431 . S
C3007 H3029 0.949 1_554 S
C3008 H3004 0.949 . S
C3008 C3016 1.574 . S
C3008 C3024 1.368 1_565 S
H3009 C3017 0.950 . S
H3010 C3015 0.950 . S
H3011 C3016 0.949 . S
H3012 C3018 0.950 . S
H3013 C3019 0.950 . S
H3014 C3020 0.949 . S
C3015 H3010 0.950 . S
C3015 C3017 1.327 . S
C3015 C3021 1.429 . S
C3016 C3008 1.574 . S
C3016 H3011 0.949 . S
C3016 C3022 1.368 1_565 S
C3017 C3001 1.349 . S
C3017 H3009 0.950 . S
C3017 C3015 1.327 . S
C3018 C3006 1.349 1_564 S
C3018 H3012 0.950 . S
C3018 C3019 1.327 . S
C3019 H3013 0.950 . S
C3019 C3018 1.327 . S
C3019 C3023 1.429 1_565 S
C3020 C3003 1.574 . S
C3020 H3014 0.949 . S
C3020 C3024 1.368 . S
C3021 C3002 1.429 1_545 S
C3021 C3015 1.429 . S
C3021 C3022 1.523 . S
C3022 C3003 1.368 . S
C3022 C3016 1.368 1_545 S
C3022 C3021 1.523 . S
C3023 C3007 1.431 . S
C3023 C3019 1.429 1_545 S
C3023 C3024 1.523 . S
C3024 C3008 1.368 1_545 S
C3024 C3020 1.368 . S
C3024 C3023 1.523 . S
H3025 C3000 0.950 . S
H3026 C3002 0.950 . S
H3027 C3003 0.949 . S
H3028 C3005 0.950 . S
H3029 C3007 0.949 1_556 S
C3030 C3031 1.349 1_554 S
C3030 C3032 1.327 . S
C3030 H3055 0.950 . S
C3031 C3030 1.349 1_556 S
C3031 C3047 1.349 . S
C3032 C3030 1.327 . S
C3032 C3051 1.429 1_455 S
C3032 H3056 0.953 . S
C3033 C3050 1.574 . S
C3033 C3052 1.368 . S
C3033 H3057 0.949 . S
H3034 C3038 0.949 . S
C3035 C3036 1.349 . S
C3035 C3037 1.327 . S
C3035 H3058 0.950 . S
C3036 C3035 1.349 . S
C3036 C3048 1.349 . S
C3037 C3035 1.327 . S
C3037 C3053 1.429 . S
C3037 H3059 0.950 . S
C3038 H3034 0.949 . S
C3038 C3046 1.574 . S
C3038 C3054 1.368 . S
H3039 C3047 0.950 . S
H3040 C3045 0.950 1_556 S
H3041 C3046 0.949 . S
H3042 C3048 0.950 . S
H3043 C3049 0.950 . S
H3044 C3050 0.949 . S
C3045 H3040 0.950 1_554 S
C3045 C3047 1.327 1_654 S
C3045 C3051 1.429 . S
C3046 C3038 1.574 . S
C3046 H3041 0.949 . S
C3046 C3052 1.368 . S
C3047 C3031 1.349 . S
C3047 H3039 0.950 . S
C3047 C3045 1.327 1_456 S
C3048 C3036 1.349 . S
C3048 H3042 0.950 . S
C3048 C3049 1.327 . S
C3049 H3043 0.950 . S
C3049 C3048 1.327 . S
C3049 C3053 1.429 . S
C3050 C3033 1.574 . S
C3050 H3044 0.949 . S
C3050 C3054 1.368 . S
C3051 C3032 1.429 1_655 S
C3051 C3045 1.429 . S
C3051 C3052 1.523 . S
C3052 C3033 1.368 . S
C3052 C3046 1.368 . S
C3052 C3051 1.523 . S
C3053 C3037 1.429 . S
C3053 C3049 1.429 . S
C3053 C3054 1.523 . S
C3054 C3038 1.368 . S
C3054 C3050 1.368 . S
C3054 C3053 1.523 . S
H3055 C3030 0.950 . S
H3056 C3032 0.953 . S
H3057 C3033 0.949 . S
H3058 C3035 0.950 . S
H3059 C3037 0.950 . S
C3060 C3061 1.349 . S
C3060 C3062 1.327 . S
C3060 H3085 0.950 . S
C3061 C3060 1.349 . S
C3061 C3077 1.349 . S
C3062 C3060 1.327 . S
C3062 C3081 1.429 . S
C3062 H3086 0.950 . S
C3063 C3080 1.574 . S
C3063 C3082 1.368 . S
C3063 H3087 0.949 . S
H3064 C3068 0.949 . S
C3065 C3066 1.349 . S
C3065 C3067 1.327 . S
C3065 H3088 0.950 . S
C3066 C3065 1.349 . S
C3066 C3078 1.349 . S
C3067 C3065 1.327 . S
C3067 C3083 1.429 . S
C3067 H3089 0.950 . S
C3068 H3064 0.949 . S
C3068 C3076 1.574 . S
C3068 C3084 1.368 . S
H3069 C3077 0.950 . S
H3070 C3075 0.950 . S
H3071 C3076 0.949 . S
H3072 C3078 0.950 . S
H3073 C3079 0.950 . S
H3074 C3080 0.949 . S
C3075 H3070 0.950 . S
C3075 C3077 1.327 . S
C3075 C3081 1.429 . S
C3076 C3068 1.574 . S
C3076 H3071 0.949 . S
C3076 C3082 1.368 . S
C3077 C3061 1.349 . S
C3077 H3069 0.950 . S
C3077 C3075 1.327 . S
C3078 C3066 1.349 . S
C3078 H3072 0.950 . S
C3078 C3079 1.327 . S
C3079 H3073 0.950 . S
C3079 C3078 1.327 . S
C3079 C3083 1.429 . S
C3080 C3063 1.574 . S
C3080 H3074 0.949 . S
C3080 C3084 1.368 . S
C3081 C3062 1.429 . S
C3081 C3075 1.429 . S
C3081 C3082 1.523 . S
C3082 C3063 1.368 . S
C3082 C3076 1.368 . S
C3082 C3081 1.523 . S
C3083 C3067 1.429 . S
C3083 C3079 1.429 . S
C3083 C3084 1.523 . S
C3084 C3068 1.368 . S
C3084 C3080 1.368 . S
C3084 C3083 1.523 . S
H3085 C3060 0.950 . S
H3086 C3062 0.950 . S
H3087 C3063 0.949 . S
H3088 C3065 0.950 . S
H3089 C3067 0.950 . S
C3090 C3091 1.349 . S
C3090 C3092 1.327 . S
C3090 H3115 0.950 . S
C3091 C3090 1.349 . S
C3091 C3107 1.349 1_545 S
C3092 C3090 1.327 . S
C3092 C3111 1.429 . S
C3092 H3116 0.950 . S
C3093 C3110 1.574 . S
C3093 C3112 1.368 1_565 S
C3093 H3117 0.949 . S
H3094 C3098 0.949 . S
C3095 C3096 1.349 1_565 S
C3095 C3097 1.327 . S
C3095 H3118 0.950 . S
C3096 C3095 1.349 1_545 S
C3096 C3108 1.349 . S
C3097 C3095 1.327 . S
C3097 C3113 1.429 1_465 S
C3097 H3119 0.950 . S
C3098 H3094 0.949 . S
C3098 C3106 1.574 . S
C3098 C3114 1.368 . S
H3099 C3107 0.950 . S
H3100 C3105 0.950 . S
H3101 C3106 0.949 . S
H3102 C3108 0.950 . S
H3103 C3109 0.950 . S
H3104 C3110 0.949 . S
C3105 H3100 0.950 . S
C3105 C3107 1.327 . S
C3105 C3111 1.429 1_565 S
C3106 C3098 1.574 . S
C3106 H3101 0.949 . S
C3106 C3112 1.368 . S
C3107 C3091 1.349 1_565 S
C3107 H3099 0.950 . S
C3107 C3105 1.327 . S
C3108 C3096 1.349 . S
C3108 H3102 0.950 . S
C3108 C3109 1.327 1_455 S
C3109 H3103 0.950 . S
C3109 C3108 1.327 1_655 S
C3109 C3113 1.429 . S
C3110 C3093 1.574 . S
C3110 H3104 0.949 . S
C3110 C3114 1.368 1_565 S
C3111 C3092 1.429 . S
C3111 C3105 1.429 1_545 S
C3111 C3112 1.523 . S
C3112 C3093 1.368 1_545 S
C3112 C3106 1.368 . S
C3112 C3111 1.523 . S
C3113 C3097 1.429 1_645 S
C3113 C3109 1.429 . S
C3113 C3114 1.523 . S
C3114 C3098 1.368 . S
C3114 C3110 1.368 1_545 S
C3114 C3113 1.523 . S
H3115 C3090 0.950 . S
H3116 C3092 0.950 . S
H3117 C3093 0.949 . S
H3118 C3095 0.950 . S
H3119 C3097 0.950 . S
C3120 C3121 1.349 . S
C3120 C3122 1.327 . S
C3120 H3145 0.950 . S
C3121 C3120 1.349 . S
C3121 C3137 1.349 . S
C3122 C3120 1.327 . S
C3122 C3141 1.429 . S
C3122 H3146 0.950 . S
C3123 C3140 1.574 . S
C3123 C3142 1.368 . S
C3123 H3147 0.949 . S
H3124 C3128 0.949 . S
C3125 C3126 1.349 . S
C3125 C3127 1.327 . S
C3125 H3148 0.950 . S
C3126 C3125 1.349 . S
C3126 C3138 1.349 . S
C3127 C3125 1.327 . S
C3127 C3143 1.429 . S
C3127 H3149 0.950 . S
C3128 H3124 0.949 . S
C3128 C3136 1.574 . S
C3128 C3144 1.368 . S
H3129 C3137 0.950 . S
H3130 C3135 0.950 . S
H3131 C3136 0.949 . S
H3132 C3138 0.950 . S
H3133 C3139 0.950 . S
H3134 C3140 0.949 . S
C3135 H3130 0.950 . S
C3135 C3137 1.327 . S
C3135 C3141 1.429 . S
C3136 C3128 1.574 . S
C3136 H3131 0.949 . S
C3136 C3142 1.368 . S
C3137 C3121 1.349 . S
C3137 H3129 0.950 . S
C3137 C3135 1.327 . S
C3138 C3126 1.349 . S
C3138 H3132 0.950 . S
C3138 C3139 1.327 . S
C3139 H3133 0.950 . S
C3139 C3138 1.327 . S
C3139 C3143 1.429 . S
C3140 C3123 1.574 . S
C3140 H3134 0.949 . S
C3140 C3144 1.368 . S
C3141 C3122 1.429 . S
C3141 C3135 1.429 . S
C3141 C3142 1.523 . S
C3142 C3123 1.368 . S
C3142 C3136 1.368 . S
C3142 C3141 1.523 . S
C3143 C3127 1.429 . S
C3143 C3139 1.429 . S
C3143 C3144 1.523 . S
C3144 C3128 1.368 . S
C3144 C3140 1.368 . S
C3144 C3143 1.523 . S
H3145 C3120 0.950 . S
H3146 C3122 0.950 . S
H3147 C3123 0.949 . S
H3148 C3125 0.950 . S
H3149 C3127 0.950 . S
C3150 C3151 1.349 . S
C3150 C3152 1.327 . S
C3150 H3175 0.950 . S
C3151 C3150 1.349 . S
C3151 C3167 1.349 . S
C3152 C3150 1.327 . S
C3152 C3171 1.429 . S
C3152 H3176 0.950 . S
C3153 C3170 1.574 . S
C3153 C3172 1.368 . S
C3153 H3177 0.949 . S
H3154 C3158 0.949 . S
C3155 C3156 1.349 . S
C3155 C3157 1.327 . S
C3155 H3178 0.950 . S
C3156 C3155 1.349 . S
C3156 C3168 1.349 . S
C3157 C3155 1.327 . S
C3157 C3173 1.429 1_655 S
C3157 H3179 0.950 . S
C3158 H3154 0.949 . S
C3158 C3166 1.574 . S
C3158 C3174 1.368 . S
H3159 C3167 0.950 . S
H3160 C3165 0.950 . S
H3161 C3166 0.949 . S
H3162 C3168 0.950 . S
H3163 C3169 0.950 . S
H3164 C3170 0.949 . S
C3165 H3160 0.950 . S
C3165 C3167 1.327 . S
C3165 C3171 1.429 . S
C3166 C3158 1.574 . S
C3166 H3161 0.949 . S
C3166 C3172 1.368 . S
C3167 C3151 1.349 . S
C3167 H3159 0.950 . S
C3167 C3165 1.327 . S
C3168 C3156 1.349 . S
C3168 H3162 0.950 . S
C3168 C3169 1.327 1_655 S
C3169 H3163 0.950 . S
C3169 C3168 1.327 1_455 S
C3169 C3173 1.429 . S
C3170 C3153 1.574 . S
C3170 H3164 0.949 . S
C3170 C3174 1.368 . S
C3171 C3152 1.429 . S
C3171 C3165 1.429 . S
C3171 C3172 1.523 . S
C3172 C3153 1.368 . S
C3172 C3166 1.368 . S
C3172 C3171 1.523 . S
C3173 C3157 1.429 1_455 S
C3173 C3169 1.429 . S
C3173 C3174 1.523 . S
C3174 C3158 1.368 . S
C3174 C3170 1.368 . S
C3174 C3173 1.523 . S
H3175 C3150 0.950 . S
H3176 C3152 0.950 . S
H3177 C3153 0.949 . S
H3178 C3155 0.950 . S
H3179 C3157 0.950 . S
C3180 C3181 1.349 . S
C3180 C3182 1.327 . S
C3180 H3205 0.950 . S
C3181 C3180 1.349 . S
C3181 C3197 1.349 . S
C3182 C3180 1.327 . S
C3182 C3201 1.429 . S
C3182 H3206 0.950 . S
C3183 C3200 1.574 . S
C3183 C3202 1.368 . S
C3183 H3207 0.949 . S
H3184 C3188 0.949 . S
C3185 C3186 1.349 . S
C3185 C3187 1.327 . S
C3185 H3208 0.950 . S
C3186 C3185 1.349 . S
C3186 C3198 1.349 . S
C3187 C3185 1.327 . S
C3187 C3203 1.429 . S
C3187 H3209 0.950 . S
C3188 H3184 0.949 . S
C3188 C3196 1.574 . S
C3188 C3204 1.368 . S
H3189 C3197 0.950 . S
H3190 C3195 0.950 . S
H3191 C3196 0.949 . S
H3192 C3198 0.950 . S
H3193 C3199 0.950 . S
H3194 C3200 0.949 . S
C3195 H3190 0.950 . S
C3195 C3197 1.327 . S
C3195 C3201 1.429 . S
C3196 C3188 1.574 . S
C3196 H3191 0.949 . S
C3196 C3202 1.368 . S
C3197 C3181 1.349 . S
C3197 H3189 0.950 . S
C3197 C3195 1.327 . S
C3198 C3186 1.349 . S
C3198 H3192 0.950 . S
C3198 C3199 1.327 . S
C3199 H3193 0.950 . S
C3199 C3198 1.327 . S
C3199 C3203 1.429 . S
C3200 C3183 1.574 . S
C3200 H3194 0.949 . S
C3200 C3204 1.368 . S
C3201 C3182 1.429 . S
C3201 C3195 1.429 . S
C3201 C3202 1.523 . S
C3202 C3183 1.368 . S
C3202 C3196 1.368 . S
C3202 C3201 1.523 . S
C3203 C3187 1.429 . S
C3203 C3199 1.429 . S
C3203 C3204 1.523 . S
C3204 C3188 1.368 . S
C3204 C3200 1.368 . S
C3204 C3203 1.523 . S
H3205 C3180 0.950 . S
H3206 C3182 0.950 . S
H3207 C3183 0.949 . S
H3208 C3185 0.950 . S
H3209 C3187 0.950 . S
C3210 C3211 1.349 . S
C3210 C3212 1.327 . S
C3210 H3235 0.950 . S
C3211 C3210 1.349 . S
C3211 C3227 1.349 . S
C3212 C3210 1.327 . S
C3212 C3231 1.429 . S
C3212 H3236 0.950 . S
C3213 C3230 1.574 . S
C3213 C3232 1.368 . S
C3213 H3237 0.949 . S
H3214 C3218 0.949 . S
C3215 C3216 1.349 . S
C3215 C3217 1.327 . S
C3215 H3238 0.950 . S
C3216 C3215 1.349 . S
C3216 C3228 1.349 . S
C3217 C3215 1.327 . S
C3217 C3233 1.429 1_655 S
C3217 H3239 0.957 . S
C3218 H3214 0.949 . S
C3218 C3226 1.574 . S
C3218 C3234 1.368 . S
H3219 C3227 0.950 . S
H3220 C3225 0.950 . S
H3221 C3226 0.949 . S
H3222 C3228 0.950 . S
H3223 C3229 0.950 . S
H3224 C3230 0.949 . S
C3225 H3220 0.950 . S
C3225 C3227 1.327 . S
C3225 C3231 1.429 . S
C3226 C3218 1.574 . S
C3226 H3221 0.949 . S
C3226 C3232 1.368 . S
C3227 C3211 1.349 . S
C3227 H3219 0.950 . S
C3227 C3225 1.327 . S
C3228 C3216 1.349 . S
C3228 H3222 0.950 . S
C3228 C3229 1.327 1_655 S
C3229 H3223 0.950 . S
C3229 C3228 1.327 1_455 S
C3229 C3233 1.429 . S
C3230 C3213 1.574 . S
C3230 H3224 0.949 . S
C3230 C3234 1.368 . S
C3231 C3212 1.429 . S
C3231 C3225 1.429 . S
C3231 C3232 1.523 . S
C3232 C3213 1.368 . S
C3232 C3226 1.368 . S
C3232 C3231 1.523 . S
C3233 C3217 1.429 1_455 S
C3233 C3229 1.429 . S
C3233 C3234 1.523 . S
C3234 C3218 1.368 . S
C3234 C3230 1.368 . S
C3234 C3233 1.523 . S
H3235 C3210 0.950 . S
H3236 C3212 0.950 . S
H3237 C3213 0.949 . S
H3238 C3215 0.950 . S
H3239 C3217 0.957 . S
C3240 C3241 1.349 . S
C3240 C3242 1.327 . S
C3240 H3265 0.950 . S
C3241 C3240 1.349 . S
C3241 C3257 1.349 . S
C3242 C3240 1.327 . S
C3242 C3261 1.429 . S
C3242 H3266 0.950 . S
C3243 C3260 1.574 . S
C3243 C3262 1.368 . S
C3243 H3267 0.949 . S
H3244 C3248 0.949 . S
C3245 C3246 1.349 . S
C3245 C3247 1.327 . S
C3245 H3268 0.950 . S
C3246 C3245 1.349 . S
C3246 C3258 1.349 . S
C3247 C3245 1.327 . S
C3247 C3263 1.429 . S
C3247 H3269 0.950 . S
C3248 H3244 0.949 . S
C3248 C3256 1.574 . S
C3248 C3264 1.368 . S
H3249 C3257 0.950 . S
H3250 C3255 0.950 . S
H3251 C3256 0.949 . S
H3252 C3258 0.950 . S
H3253 C3259 0.950 . S
H3254 C3260 0.949 . S
C3255 H3250 0.950 . S
C3255 C3257 1.327 . S
C3255 C3261 1.429 . S
C3256 C3248 1.574 . S
C3256 H3251 0.949 . S
C3256 C3262 1.368 . S
C3257 C3241 1.349 . S
C3257 H3249 0.950 . S
C3257 C3255 1.327 . S
C3258 C3246 1.349 . S
C3258 H3252 0.950 . S
C3258 C3259 1.327 . S
C3259 H3253 0.950 . S
C3259 C3258 1.327 . S
C3259 C3263 1.429 . S
C3260 C3243 1.574 . S
C3260 H3254 0.949 . S
C3260 C3264 1.368 . S
C3261 C3242 1.429 . S
C3261 C3255 1.429 . S
C3261 C3262 1.523 . S
C3262 C3243 1.368 . S
C3262 C3256 1.368 . S
C3262 C3261 1.523 . S
C3263 C3247 1.429 . S
C3263 C3259 1.429 . S
C3263 C3264 1.523 . S
C3264 C3248 1.368 . S
C3264 C3260 1.368 . S
C3264 C3263 1.523 . S
H3265 C3240 0.950 . S
H3266 C3242 0.950 . S
H3267 C3243 0.949 . S
H3268 C3245 0.950 . S
H3269 C3247 0.950 . S
C3270 C3271 1.349 . S
C3270 C3272 1.327 1_455 S
C3270 H3295 0.950 . S
C3271 C3270 1.349 . S
C3271 C3287 1.349 . S
C3272 C3270 1.327 1_655 S
C3272 C3291 1.429 . S
C3272 H3296 0.950 . S
C3273 C3290 1.574 . S
C3273 C3292 1.368 . S
C3273 H3297 0.949 . S
H3274 C3278 0.949 . S
C3275 C3276 1.349 . S
C3275 C3277 1.327 . S
C3275 H3298 0.950 . S
C3276 C3275 1.349 . S
C3276 C3288 1.349 . S
C3277 C3275 1.327 . S
C3277 C3293 1.429 . S
C3277 H3299 0.950 . S
C3278 H3274 0.949 . S
C3278 C3286 1.574 . S
C3278 C3294 1.368 . S
H3279 C3287 0.950 . S
H3280 C3285 0.955 . S
H3281 C3286 0.949 . S
H3282 C3288 0.950 . S
H3283 C3289 0.950 . S
H3284 C3290 0.949 . S
C3285 H3280 0.955 . S
C3285 C3287 1.327 . S
C3285 C3291 1.429 1_455 S
C3286 C3278 1.574 . S
C3286 H3281 0.949 . S
C3286 C3292 1.368 . S
C3287 C3271 1.349 . S
C3287 H3279 0.950 . S
C3287 C3285 1.327 . S
C3288 C3276 1.349 . S
C3288 H3282 0.950 . S
C3288 C3289 1.327 . S
C3289 H3283 0.950 . S
C3289 C3288 1.327 . S
C3289 C3293 1.429 . S
C3290 C3273 1.574 . S
C3290 H3284 0.949 . S
C3290 C3294 1.368 . S
C3291 C3272 1.429 . S
C3291 C3285 1.429 1_655 S
C3291 C3292 1.523 . S
C3292 C3273 1.368 . S
C3292 C3286 1.368 . S
C3292 C3291 1.523 . S
C3293 C3277 1.429 . S
C3293 C3289 1.429 . S
C3293 C3294 1.523 . S
C3294 C3278 1.368 . S
C3294 C3290 1.368 . S
C3294 C3293 1.523 . S
H3295 C3270 0.950 . S
H3296 C3272 0.950 . S
H3297 C3273 0.949 . S
H3298 C3275 0.950 . S
H3299 C3277 0.950 . S
C3300 C3301 1.349 . S
C3300 C3302 1.327 . S
C3300 H3325 0.950 . S
C3301 C3300 1.349 . S
C3301 C3317 1.349 . S
C3302 C3300 1.327 . S
C3302 C3321 1.429 . S
C3302 H3326 0.950 . S
C3303 C3320 1.574 . S
C3303 C3322 1.368 . S
C3303 H3327 0.949 . S
H3304 C3308 0.949 . S
C3305 C3306 1.349 . S
C3305 C3307 1.327 . S
C3305 H3328 0.950 . S
C3306 C3305 1.349 . S
C3306 C3318 1.349 . S
C3307 C3305 1.327 . S
C3307 C3323 1.429 . S
C3307 H3329 0.950 . S
C3308 H3304 0.949 . S
C3308 C3316 1.574 . S
C3308 C3324 1.368 . S
H3309 C3317 0.950 . S
H3310 C3315 0.950 . S
H3311 C3316 0.949 . S
H3312 C3318 0.950 . S
H3313 C3319 0.950 . S
H3314 C3320 0.949 . S
C3315 H3310 0.950 . S
C3315 C3317 1.327 . S
C3315 C3321 1.429 . S
C3316 C3308 1.574 . S
C3316 H3311 0.949 . S
C3316 C3322 1.368 . S
C3317 C3301 1.349 . S
C3317 H3309 0.950 . S
C3317 C3315 1.327 . S
C3318 C3306 1.349 . S
C3318 H3312 0.950 . S
C3318 C3319 1.327 . S
C3319 H3313 0.950 . S
C3319 C3318 1.327 . S
C3319 C3323 1.429 . S
C3320 C3303 1.574 . S
C3320 H3314 0.949 . S
C3320 C3324 1.368 . S
C3321 C3302 1.429 . S
C3321 C3315 1.429 . S
C3321 C3322 1.523 . S
C3322 C3303 1.368 . S
C3322 C3316 1.368 . S
C3322 C3321 1.523 . S
C3323 C3307 1.429 . S
C3323 C3319 1.429 . S
C3323 C3324 1.523 . S
C3324 C3308 1.368 . S
C3324 C3320 1.368 . S
C3324 C3323 1.523 . S
H3325 C3300 0.950 . S
H3326 C3302 0.950 . S
H3327 C3303 0.949 . S
H3328 C3305 0.950 . S
H3329 C3307 0.950 . S
C3330 C3331 1.349 . S
C3330 C3332 1.327 . S
C3330 H3355 0.950 . S
C3331 C3330 1.349 . S
C3331 C3347 1.349 . S
C3332 C3330 1.327 . S
C3332 C3351 1.429 . S
C3332 H3356 0.950 . S
C3333 C3350 1.574 . S
C3333 C3352 1.368 . S
C3333 H3357 0.949 . S
H3334 C3338 0.949 . S
C3335 C3336 1.349 . S
C3335 C3337 1.327 . S
C3335 H3358 0.950 . S
C3336 C3335 1.349 . S
C3336 C3348 1.349 . S
C3337 C3335 1.327 . S
C3337 C3353 1.429 1_455 S
C3337 H3359 0.950 . S
C3338 H3334 0.949 . S
C3338 C3346 1.574 . S
C3338 C3354 1.368 . S
H3339 C3347 0.950 . S
H3340 C3345 0.950 . S
H3341 C3346 0.949 . S
H3342 C3348 0.950 . S
H3343 C3349 0.950 . S
H3344 C3350 0.949 . S
C3345 H3340 0.950 . S
C3345 C3347 1.327 . S
C3345 C3351 1.429 . S
C3346 C3338 1.574 . S
C3346 H3341 0.949 . S
C3346 C3352 1.368 . S
C3347 C3331 1.349 . S
C3347 H3339 0.950 . S
C3347 C3345 1.327 . S
C3348 C3336 1.349 . S
C3348 H3342 0.950 . S
C3348 C3349 1.327 1_455 S
C3349 H3343 0.950 . S
C3349 C3348 1.327 1_655 S
C3349 C3353 1.429 . S
C3350 C3333 1.574 . S
C3350 H3344 0.949 . S
C3350 C3354 1.368 . S
C3351 C3332 1.429 . S
C3351 C3345 1.429 . S
C3351 C3352 1.523 . S
C3352 C3333 1.368 . S
C3352 C3346 1.368 . S
C3352 C3351 1.523 . S
C3353 C3337 1.429 1_655 S
C3353 C3349 1.429 . S
C3353 C3354 1.523 . S
C3354 C3338 1.368 . S
C3354 C3350 1.368 . S
C3354 C3353 1.523 . S
H3355 C3330 0.950 . S
H3356 C3332 0.950 . S
H3357 C3333 0.949 . S
H3358 C3335 0.950 . S
H3359 C3337 0.950 . S
C3360 C3361 1.349 1_545 S
C3360 C3362 1.327 . S
C3360 H3385 0.950 . S
C3361 C3360 1.349 1_565 S
C3361 C3377 1.349 . S
C3362 C3360 1.327 . S
C3362 C3381 1.429 1_545 S
C3362 H3386 0.950 . S
C3363 C3380 1.574 . S
C3363 C3382 1.368 . S
C3363 H3387 0.949 . S
H3364 C3368 0.949 . S
C3365 C3366 1.349 . S
C3365 C3367 1.327 . S
C3365 H3388 0.950 . S
C3366 C3365 1.349 . S
C3366 C3378 1.349 1_565 S
C3367 C3365 1.327 . S
C3367 C3383 1.429 . S
C3367 H3389 0.950 . S
C3368 H3364 0.949 . S
C3368 C3376 1.574 . S
C3368 C3384 1.368 1_545 S
H3369 C3377 0.950 . S
H3370 C3375 0.950 . S
H3371 C3376 0.949 . S
H3372 C3378 0.950 . S
H3373 C3379 0.950 . S
H3374 C3380 0.949 . S
C3375 H3370 0.950 . S
C3375 C3377 1.327 . S
C3375 C3381 1.429 . S
C3376 C3368 1.574 . S
C3376 H3371 0.949 . S
C3376 C3382 1.368 1_545 S
C3377 C3361 1.349 . S
C3377 H3369 0.950 . S
C3377 C3375 1.327 . S
C3378 C3366 1.349 1_545 S
C3378 H3372 0.950 . S
C3378 C3379 1.327 . S
C3379 H3373 0.950 . S
C3379 C3378 1.327 . S
C3379 C3383 1.429 1_545 S
C3380 C3363 1.574 . S
C3380 H3374 0.949 . S
C3380 C3384 1.368 . S
C3381 C3362 1.429 1_565 S
C3381 C3375 1.429 . S
C3381 C3382 1.523 . S
C3382 C3363 1.368 . S
C3382 C3376 1.368 1_565 S
C3382 C3381 1.523 . S
C3383 C3367 1.429 . S
C3383 C3379 1.429 1_565 S
C3383 C3384 1.523 . S
C3384 C3368 1.368 1_565 S
C3384 C3380 1.368 . S
C3384 C3383 1.523 . S
H3385 C3360 0.950 . S
H3386 C3362 0.950 . S
H3387 C3363 0.949 . S
H3388 C3365 0.950 . S
H3389 C3367 0.950 . S
C3390 C3391 1.349 . S
C3390 C3392 1.327 . S
C3390 H3415 0.950 . S
C3391 C3390 1.349 . S
C3391 C3407 1.349 . S
C3392 C3390 1.327 . S
C3392 C3411 1.429 . S
C3392 H3416 0.950 . S
C3393 C3410 1.574 . S
C3393 C3412 1.368 . S
C3393 H3417 0.949 . S
H3394 C3398 0.949 . S
C3395 C3396 1.349 . S
C3395 C3397 1.327 . S
C3395 H3418 0.950 . S
C3396 C3395 1.349 . S
C3396 C3408 1.349 . S
C3397 C3395 1.327 . S
C3397 C3413 1.429 . S
C3397 H3419 0.950 . S
C3398 H3394 0.949 . S
C3398 C3406 1.574 . S
C3398 C3414 1.368 . S
H3399 C3407 0.950 . S
H3400 C3405 0.950 . S
H3401 C3406 0.949 . S
H3402 C3408 0.950 . S
H3403 C3409 0.950 . S
H3404 C3410 0.949 . S
C3405 H3400 0.950 . S
C3405 C3407 1.327 . S
C3405 C3411 1.429 . S
C3406 C3398 1.574 . S
C3406 H3401 0.949 . S
C3406 C3412 1.368 . S
C3407 C3391 1.349 . S
C3407 H3399 0.950 . S
C3407 C3405 1.327 . S
C3408 C3396 1.349 . S
C3408 H3402 0.950 . S
C3408 C3409 1.327 . S
C3409 H3403 0.950 . S
C3409 C3408 1.327 . S
C3409 C3413 1.429 . S
C3410 C3393 1.574 . S
C3410 H3404 0.949 . S
C3410 C3414 1.368 . S
C3411 C3392 1.429 . S
C3411 C3405 1.429 . S
C3411 C3412 1.523 . S
C3412 C3393 1.368 . S
C3412 C3406 1.368 . S
C3412 C3411 1.523 . S
C3413 C3397 1.429 . S
C3413 C3409 1.429 . S
C3413 C3414 1.523 . S
C3414 C3398 1.368 . S
C3414 C3410 1.368 . S
C3414 C3413 1.523 . S
H3415 C3390 0.950 . S
H3416 C3392 0.950 . S
H3417 C3393 0.949 . S
H3418 C3395 0.950 . S
H3419 C3397 0.950 . S
C3420 C3421 1.349 . S
C3420 C3422 1.327 . S
C3420 H3445 0.950 . S
C3421 C3420 1.349 . S
C3421 C3437 1.349 . S
C3422 C3420 1.327 . S
C3422 C3441 1.429 . S
C3422 H3446 0.950 . S
C3423 C3440 1.574 . S
C3423 C3442 1.368 . S
C3423 H3447 0.949 . S
H3424 C3428 0.949 . S
C3425 C3426 1.349 . S
C3425 C3427 1.327 . S
C3425 H3448 0.950 . S
C3426 C3425 1.349 . S
C3426 C3438 1.349 . S
C3427 C3425 1.327 . S
C3427 C3443 1.429 . S
C3427 H3449 0.950 . S
C3428 H3424 0.949 . S
C3428 C3436 1.574 . S
C3428 C3444 1.368 . S
H3429 C3437 0.950 . S
H3430 C3435 0.950 . S
H3431 C3436 0.949 . S
H3432 C3438 0.950 . S
H3433 C3439 0.950 . S
H3434 C3440 0.949 . S
C3435 H3430 0.950 . S
C3435 C3437 1.327 . S
C3435 C3441 1.429 . S
C3436 C3428 1.574 . S
C3436 H3431 0.949 . S
C3436 C3442 1.368 . S
C3437 C3421 1.349 . S
C3437 H3429 0.950 . S
C3437 C3435 1.327 . S
C3438 C3426 1.349 . S
C3438 H3432 0.950 . S
C3438 C3439 1.327 . S
C3439 H3433 0.950 . S
C3439 C3438 1.327 . S
C3439 C3443 1.429 . S
C3440 C3423 1.574 . S
C3440 H3434 0.949 . S
C3440 C3444 1.368 . S
C3441 C3422 1.429 . S
C3441 C3435 1.429 . S
C3441 C3442 1.523 . S
C3442 C3423 1.368 . S
C3442 C3436 1.368 . S
C3442 C3441 1.523 . S
C3443 C3427 1.429 . S
C3443 C3439 1.429 . S
C3443 C3444 1.523 . S
C3444 C3428 1.368 . S
C3444 C3440 1.368 . S
C3444 C3443 1.523 . S
H3445 C3420 0.950 . S
H3446 C3422 0.950 . S
H3447 C3423 0.949 . S
H3448 C3425 0.950 . S
H3449 C3427 0.950 . S
C3450 C3451 1.349 . S
C3450 C3452 1.327 . S
C3450 H3475 0.950 . S
C3451 C3450 1.349 . S
C3451 C3467 1.349 1_565 S
C3452 C3450 1.327 . S
C3452 C3471 1.429 . S
C3452 H3476 0.950 . S
C3453 C3470 1.574 . S
C3453 C3472 1.368 1_545 S
C3453 H3477 0.949 . S
H3454 C3458 0.949 . S
C3455 C3456 1.349 1_545 S
C3455 C3457 1.327 . S
C3455 H3478 0.950 . S
C3456 C3455 1.349 1_565 S
C3456 C3468 1.349 . S
C3457 C3455 1.327 . S
C3457 C3473 1.429 1_545 S
C3457 H3479 0.950 . S
C3458 H3454 0.949 . S
C3458 C3466 1.574 . S
C3458 C3474 1.368 . S
H3459 C3467 0.950 . S
H3460 C3465 0.950 . S
H3461 C3466 0.949 . S
H3462 C3468 0.950 . S
H3463 C3469 0.950 . S
H3464 C3470 0.949 . S
C3465 H3460 0.950 . S
C3465 C3467 1.327 . S
C3465 C3471 1.429 1_545 S
C3466 C3458 1.574 . S
C3466 H3461 0.949 . S
C3466 C3472 1.368 . S
C3467 C3451 1.349 1_545 S
C3467 H3459 0.950 . S
C3467 C3465 1.327 . S
C3468 C3456 1.349 . S
C3468 H3462 0.950 . S
C3468 C3469 1.327 . S
C3469 H3463 0.950 . S
C3469 C3468 1.327 . S
C3469 C3473 1.429 . S
C3470 C3453 1.574 . S
C3470 H3464 0.949 . S
C3470 C3474 1.368 1_545 S
C3471 C3452 1.429 . S
C3471 C3465 1.429 1_565 S
C3471 C3472 1.523 . S
C3472 C3453 1.368 1_565 S
C3472 C3466 1.368 . S
C3472 C3471 1.523 . S
C3473 C3457 1.429 1_565 S
C3473 C3469 1.429 . S
C3473 C3474 1.523 . S
C3474 C3458 1.368 . S
C3474 C3470 1.368 1_565 S
C3474 C3473 1.523 . S
H3475 C3450 0.950 . S
H3476 C3452 0.950 . S
H3477 C3453 0.949 . S
H3478 C3455 0.950 . S
H3479 C3457 0.950 . S
C3480 C3481 1.349 . S
C3480 C3482 1.327 . S
C3480 H3505 0.950 . S
C3481 C3480 1.349 . S
C3481 C3497 1.349 1_545 S
C3482 C3480 1.327 . S
C3482 C3501 1.429 . S
C3482 H3506 0.950 . S
C3483 C3500 1.574 . S
C3483 C3502 1.368 1_565 S
C3483 H3507 0.949 . S
H3484 C3488 0.949 . S
C3485 C3486 1.349 1_565 S
C3485 C3487 1.327 . S
C3485 H3508 0.950 . S
C3486 C3485 1.349 1_545 S
C3486 C3498 1.349 . S
C3487 C3485 1.327 . S
C3487 C3503 1.429 1_565 S
C3487 H3509 0.950 . S
C3488 H3484 0.949 . S
C3488 C3496 1.574 . S
C3488 C3504 1.368 . S
H3489 C3497 0.950 . S
H3490 C3495 0.950 . S
H3491 C3496 0.949 . S
H3492 C3498 0.950 . S
H3493 C3499 0.950 . S
H3494 C3500 0.949 . S
C3495 H3490 0.950 . S
C3495 C3497 1.327 . S
C3495 C3501 1.429 1_565 S
C3496 C3488 1.574 . S
C3496 H3491 0.949 . S
C3496 C3502 1.368 . S
C3497 C3481 1.349 1_565 S
C3497 H3489 0.950 . S
C3497 C3495 1.327 . S
C3498 C3486 1.349 . S
C3498 H3492 0.950 . S
C3498 C3499 1.327 . S
C3499 H3493 0.950 . S
C3499 C3498 1.327 . S
C3499 C3503 1.429 . S
C3500 C3483 1.574 . S
C3500 H3494 0.949 . S
C3500 C3504 1.368 1_565 S
C3501 C3482 1.429 . S
C3501 C3495 1.429 1_545 S
C3501 C3502 1.523 . S
C3502 C3483 1.368 1_545 S
C3502 C3496 1.368 . S
C3502 C3501 1.523 . S
C3503 C3487 1.429 1_545 S
C3503 C3499 1.429 . S
C3503 C3504 1.523 . S
C3504 C3488 1.368 . S
C3504 C3500 1.368 1_545 S
C3504 C3503 1.523 . S
H3505 C3480 0.950 . S
H3506 C3482 0.950 . S
H3507 C3483 0.949 . S
H3508 C3485 0.950 . S
H3509 C3487 0.950 . S
C3510 C3511 1.349 . S
C3510 C3512 1.327 . S
C3510 H3535 0.950 . S
C3511 C3510 1.349 . S
C3511 C3527 1.349 . S
C3512 C3510 1.327 . S
C3512 C3531 1.429 . S
C3512 H3536 0.950 . S
C3513 C3530 1.574 . S
C3513 C3532 1.368 . S
C3513 H3537 0.949 . S
H3514 C3518 0.949 . S
C3515 C3516 1.349 . S
C3515 C3517 1.327 . S
C3515 H3538 0.950 . S
C3516 C3515 1.349 . S
C3516 C3528 1.349 . S
C3517 C3515 1.327 . S
C3517 C3533 1.429 . S
C3517 H3539 0.950 . S
C3518 H3514 0.949 . S
C3518 C3526 1.574 . S
C3518 C3534 1.368 . S
H3519 C3527 0.950 . S
H3520 C3525 0.950 . S
H3521 C3526 0.949 . S
H3522 C3528 0.950 . S
H3523 C3529 0.950 . S
H3524 C3530 0.949 . S
C3525 H3520 0.950 . S
C3525 C3527 1.327 . S
C3525 C3531 1.429 . S
C3526 C3518 1.574 . S
C3526 H3521 0.949 . S
C3526 C3532 1.368 . S
C3527 C3511 1.349 . S
C3527 H3519 0.950 . S
C3527 C3525 1.327 . S
C3528 C3516 1.349 . S
C3528 H3522 0.950 . S
C3528 C3529 1.327 . S
C3529 H3523 0.950 . S
C3529 C3528 1.327 . S
C3529 C3533 1.429 . S
C3530 C3513 1.574 . S
C3530 H3524 0.949 . S
C3530 C3534 1.368 . S
C3531 C3512 1.429 . S
C3531 C3525 1.429 . S
C3531 C3532 1.523 . S
C3532 C3513 1.368 . S
C3532 C3526 1.368 . S
C3532 C3531 1.523 . S
C3533 C3517 1.429 . S
C3533 C3529 1.429 . S
C3533 C3534 1.523 . S
C3534 C3518 1.368 . S
C3534 C3530 1.368 . S
C3534 C3533 1.523 . S
H3535 C3510 0.950 . S
H3536 C3512 0.950 . S
H3537 C3513 0.949 . S
H3538 C3515 0.950 . S
H3539 C3517 0.950 . S
C3540 C3541 1.349 . S
C3540 C3542 1.327 . S
C3540 H3565 0.950 . S
C3541 C3540 1.349 . S
C3541 C3557 1.349 . S
C3542 C3540 1.327 . S
C3542 C3561 1.429 . S
C3542 H3566 0.950 . S
C3543 C3560 1.574 . S
C3543 C3562 1.368 . S
C3543 H3567 0.949 . S
H3544 C3548 0.949 . S
C3545 C3546 1.349 . S
C3545 C3547 1.327 . S
C3545 H3568 0.950 . S
C3546 C3545 1.349 . S
C3546 C3558 1.349 . S
C3547 C3545 1.327 . S
C3547 C3563 1.429 . S
C3547 H3569 0.950 . S
C3548 H3544 0.949 . S
C3548 C3556 1.574 . S
C3548 C3564 1.368 . S
H3549 C3557 0.950 . S
H3550 C3555 0.950 . S
H3551 C3556 0.949 . S
H3552 C3558 0.950 . S
H3553 C3559 0.950 . S
H3554 C3560 0.949 . S
C3555 H3550 0.950 . S
C3555 C3557 1.327 . S
C3555 C3561 1.429 . S
C3556 C3548 1.574 . S
C3556 H3551 0.949 . S
C3556 C3562 1.368 . S
C3557 C3541 1.349 . S
C3557 H3549 0.950 . S
C3557 C3555 1.327 . S
C3558 C3546 1.349 . S
C3558 H3552 0.950 . S
C3558 C3559 1.327 . S
C3559 H3553 0.950 . S
C3559 C3558 1.327 . S
C3559 C3563 1.429 . S
C3560 C3543 1.574 . S
C3560 H3554 0.949 . S
C3560 C3564 1.368 . S
C3561 C3542 1.429 . S
C3561 C3555 1.429 . S
C3561 C3562 1.523 . S
C3562 C3543 1.368 . S
C3562 C3556 1.368 . S
C3562 C3561 1.523 . S
C3563 C3547 1.429 . S
C3563 C3559 1.429 . S
C3563 C3564 1.523 . S
C3564 C3548 1.368 . S
C3564 C3560 1.368 . S
C3564 C3563 1.523 . S
H3565 C3540 0.950 . S
H3566 C3542 0.950 . S
H3567 C3543 0.949 . S
H3568 C3545 0.950 . S
H3569 C3547 0.950 . S
C3570 C3571 1.349 . S
C3570 C3572 1.327 . S
C3570 H3595 0.950 . S
C3571 C3570 1.349 . S
C3571 C3587 1.349 1_545 S
C3572 C3570 1.327 . S
C3572 C3591 1.429 . S
C3572 H3596 0.950 . S
C3573 C3590 1.574 . S
C3573 C3592 1.368 1_565 S
C3573 H3597 0.949 . S
H3574 C3578 0.949 . S
C3575 C3576 1.349 1_565 S
C3575 C3577 1.327 . S
C3575 H3598 0.950 . S
C3576 C3575 1.349 1_545 S
C3576 C3588 1.349 . S
C3577 C3575 1.327 . S
C3577 C3593 1.429 1_565 S
C3577 H3599 0.950 . S
C3578 H3574 0.949 . S
C3578 C3586 1.574 . S
C3578 C3594 1.368 . S
H3579 C3587 0.950 . S
H3580 C3585 0.950 . S
H3581 C3586 0.949 . S
H3582 C3588 0.950 . S
H3583 C3589 0.950 . S
H3584 C3590 0.949 . S
C3585 H3580 0.950 . S
C3585 C3587 1.327 . S
C3585 C3591 1.429 1_565 S
C3586 C3578 1.574 . S
C3586 H3581 0.949 . S
C3586 C3592 1.368 . S
C3587 C3571 1.349 1_565 S
C3587 H3579 0.950 . S
C3587 C3585 1.327 . S
C3588 C3576 1.349 . S
C3588 H3582 0.950 . S
C3588 C3589 1.327 . S
C3589 H3583 0.950 . S
C3589 C3588 1.327 . S
C3589 C3593 1.429 . S
C3590 C3573 1.574 . S
C3590 H3584 0.949 . S
C3590 C3594 1.368 1_565 S
C3591 C3572 1.429 . S
C3591 C3585 1.429 1_545 S
C3591 C3592 1.523 . S
C3592 C3573 1.368 1_545 S
C3592 C3586 1.368 . S
C3592 C3591 1.523 . S
C3593 C3577 1.429 1_545 S
C3593 C3589 1.429 . S
C3593 C3594 1.523 . S
C3594 C3578 1.368 . S
C3594 C3590 1.368 1_545 S
C3594 C3593 1.523 . S
H3595 C3570 0.950 . S
H3596 C3572 0.950 . S
H3597 C3573 0.949 . S
H3598 C3575 0.950 . S
H3599 C3577 0.950 . S
C3600 C3601 1.349 . S
C3600 C3602 1.327 . S
C3600 H3625 0.950 . S
C3601 C3600 1.349 . S
C3601 C3617 1.349 . S
C3602 C3600 1.327 . S
C3602 C3621 1.429 . S
C3602 H3626 0.950 . S
C3603 C3620 1.574 . S
C3603 C3622 1.368 . S
C3603 H3627 0.949 . S
H3604 C3608 0.949 . S
C3605 C3606 1.349 1_556 S
C3605 C3607 1.327 . S
C3605 H3628 0.950 . S
C3606 C3605 1.349 1_554 S
C3606 C3618 1.349 . S
C3607 C3605 1.327 . S
C3607 C3623 1.429 . S
C3607 H3629 0.950 . S
C3608 H3604 0.949 . S
C3608 C3616 1.574 . S
C3608 C3624 1.368 . S
H3609 C3617 0.950 . S
H3610 C3615 0.950 . S
H3611 C3616 0.949 . S
H3612 C3618 0.950 . S
H3613 C3619 0.948 1_554 S
H3614 C3620 0.949 . S
C3615 H3610 0.950 . S
C3615 C3617 1.327 . S
C3615 C3621 1.429 . S
C3616 C3608 1.574 . S
C3616 H3611 0.949 . S
C3616 C3622 1.368 . S
C3617 C3601 1.349 . S
C3617 H3609 0.950 . S
C3617 C3615 1.327 . S
C3618 C3606 1.349 . S
C3618 H3612 0.950 . S
C3618 C3619 1.327 1_554 S
C3619 H3613 0.948 1_556 S
C3619 C3618 1.327 1_556 S
C3619 C3623 1.429 . S
C3620 C3603 1.574 . S
C3620 H3614 0.949 . S
C3620 C3624 1.368 . S
C3621 C3602 1.429 . S
C3621 C3615 1.429 . S
C3621 C3622 1.523 . S
C3622 C3603 1.368 . S
C3622 C3616 1.368 . S
C3622 C3621 1.523 . S
C3623 C3607 1.429 . S
C3623 C3619 1.429 . S
C3623 C3624 1.523 . S
C3624 C3608 1.368 . S
C3624 C3620 1.368 . S
C3624 C3623 1.523 . S
H3625 C3600 0.950 . S
H3626 C3602 0.950 . S
H3627 C3603 0.949 . S
H3628 C3605 0.950 . S
H3629 C3607 0.950 . S
C3630 C3631 1.349 . S
C3630 C3632 1.327 . S
C3630 H3655 0.950 . S
C3631 C3630 1.349 . S
C3631 C3647 1.349 . S
C3632 C3630 1.327 . S
C3632 C3651 1.429 . S
C3632 H3656 0.950 . S
C3633 C3650 1.574 . S
C3633 C3652 1.368 . S
C3633 H3657 0.949 . S
H3634 C3638 0.949 . S
C3635 C3636 1.349 . S
C3635 C3637 1.327 1_554 S
C3635 H3658 0.950 . S
C3636 C3635 1.349 . S
C3636 C3648 1.349 1_554 S
C3637 C3635 1.327 1_556 S
C3637 C3653 1.429 . S
C3637 H3659 0.947 1_556 S
C3638 H3634 0.949 . S
C3638 C3646 1.574 . S
C3638 C3654 1.368 . S
H3639 C3647 0.950 . S
H3640 C3645 0.950 . S
H3641 C3646 0.949 . S
H3642 C3648 0.950 . S
H3643 C3649 0.950 . S
H3644 C3650 0.949 . S
C3645 H3640 0.950 . S
C3645 C3647 1.327 . S
C3645 C3651 1.429 . S
C3646 C3638 1.574 . S
C3646 H3641 0.949 . S
C3646 C3652 1.368 . S
C3647 C3631 1.349 . S
C3647 H3639 0.950 . S
C3647 C3645 1.327 . S
C3648 C3636 1.349 1_556 S
C3648 H3642 0.950 . S
C3648 C3649 1.327 . S
C3649 H3643 0.950 . S
C3649 C3648 1.327 . S
C3649 C3653 1.429 . S
C3650 C3633 1.574 . S
C3650 H3644 0.949 . S
C3650 C3654 1.368 . S
C3651 C3632 1.429 . S
C3651 C3645 1.429 . S
C3651 C3652 1.523 . S
C3652 C3633 1.368 . S
C3652 C3646 1.368 . S
C3652 C3651 1.523 . S
C3653 C3637 1.429 . S
C3653 C3649 1.429 . S
C3653 C3654 1.523 . S
C3654 C3638 1.368 . S
C3654 C3650 1.368 . S
C3654 C3653 1.523 . S
H3655 C3630 0.950 . S
H3656 C3632 0.950 . S
H3657 C3633 0.949 . S
H3658 C3635 0.950 . S
H3659 C3637 0.947 1_554 S
C3660 C3661 1.349 . S
C3660 C3662 1.327 . S
C3660 H3685 0.950 . S
C3661 C3660 1.349 . S
C3661 C3677 1.349 . S
C3662 C3660 1.327 . S
C3662 C3681 1.429 . S
C3662 H3686 0.950 . S
C3663 C3680 1.574 . S
C3663 C3682 1.368 . S
C3663 H3687 0.949 . S
H3664 C3668 0.949 . S
C3665 C3666 1.349 . S
C3665 C3667 1.327 . S
C3665 H3688 0.950 . S
C3666 C3665 1.349 . S
C3666 C3678 1.349 . S
C3667 C3665 1.327 . S
C3667 C3683 1.429 . S
C3667 H3689 0.950 . S
C3668 H3664 0.949 . S
C3668 C3676 1.574 . S
C3668 C3684 1.368 . S
H3669 C3677 0.950 . S
H3670 C3675 0.950 . S
H3671 C3676 0.949 . S
H3672 C3678 0.950 . S
H3673 C3679 0.950 . S
H3674 C3680 0.949 . S
C3675 H3670 0.950 . S
C3675 C3677 1.327 . S
C3675 C3681 1.429 . S
C3676 C3668 1.574 . S
C3676 H3671 0.949 . S
C3676 C3682 1.368 . S
C3677 C3661 1.349 . S
C3677 H3669 0.950 . S
C3677 C3675 1.327 . S
C3678 C3666 1.349 . S
C3678 H3672 0.950 . S
C3678 C3679 1.327 . S
C3679 H3673 0.950 . S
C3679 C3678 1.327 . S
C3679 C3683 1.429 . S
C3680 C3663 1.574 . S
C3680 H3674 0.949 . S
C3680 C3684 1.368 . S
C3681 C3662 1.429 . S
C3681 C3675 1.429 . S
C3681 C3682 1.523 . S
C3682 C3663 1.368 . S
C3682 C3676 1.368 . S
C3682 C3681 1.523 . S
C3683 C3667 1.429 . S
C3683 C3679 1.429 . S
C3683 C3684 1.523 . S
C3684 C3668 1.368 . S
C3684 C3680 1.368 . S
C3684 C3683 1.523 . S
H3685 C3660 0.950 . S
H3686 C3662 0.950 . S
H3687 C3663 0.949 . S
H3688 C3665 0.950 . S
H3689 C3667 0.950 . S
C3690 C3691 1.349 . S
C3690 C3692 1.327 . S
C3690 H3715 0.950 . S
C3691 C3690 1.349 . S
C3691 C3707 1.349 . S
C3692 C3690 1.327 . S
C3692 C3711 1.429 . S
C3692 H3716 0.950 . S
C3693 C3710 1.574 . S
C3693 C3712 1.368 . S
C3693 H3717 0.949 . S
H3694 C3698 0.949 . S
C3695 C3696 1.349 . S
C3695 C3697 1.327 . S
C3695 H3718 0.950 . S
C3696 C3695 1.349 . S
C3696 C3708 1.349 . S
C3697 C3695 1.327 . S
C3697 C3713 1.429 . S
C3697 H3719 0.950 . S
C3698 H3694 0.949 . S
C3698 C3706 1.574 . S
C3698 C3714 1.368 . S
H3699 C3707 0.950 . S
H3700 C3705 0.950 . S
H3701 C3706 0.949 . S
H3702 C3708 0.950 . S
H3703 C3709 0.950 . S
H3704 C3710 0.949 . S
C3705 H3700 0.950 . S
C3705 C3707 1.327 . S
C3705 C3711 1.429 . S
C3706 C3698 1.574 . S
C3706 H3701 0.949 . S
C3706 C3712 1.368 . S
C3707 C3691 1.349 . S
C3707 H3699 0.950 . S
C3707 C3705 1.327 . S
C3708 C3696 1.349 . S
C3708 H3702 0.950 . S
C3708 C3709 1.327 . S
C3709 H3703 0.950 . S
C3709 C3708 1.327 . S
C3709 C3713 1.429 . S
C3710 C3693 1.574 . S
C3710 H3704 0.949 . S
C3710 C3714 1.368 . S
C3711 C3692 1.429 . S
C3711 C3705 1.429 . S
C3711 C3712 1.523 . S
C3712 C3693 1.368 . S
C3712 C3706 1.368 . S
C3712 C3711 1.523 . S
C3713 C3697 1.429 . S
C3713 C3709 1.429 . S
C3713 C3714 1.523 . S
C3714 C3698 1.368 . S
C3714 C3710 1.368 . S
C3714 C3713 1.523 . S
H3715 C3690 0.950 . S
H3716 C3692 0.950 . S
H3717 C3693 0.949 . S
H3718 C3695 0.950 . S
H3719 C3697 0.950 . S
C3720 C3721 1.349 . S
C3720 C3722 1.327 . S
C3720 H3745 0.950 . S
C3721 C3720 1.349 . S
C3721 C3737 1.349 . S
C3722 C3720 1.327 . S
C3722 C3741 1.429 . S
C3722 H3746 0.950 . S
C3723 C3740 1.574 . S
C3723 C3742 1.368 . S
C3723 H3747 0.949 . S
H3724 C3728 0.949 . S
C3725 C3726 1.349 1_554 S
C3725 C3727 1.327 . S
C3725 H3748 0.950 . S
C3726 C3725 1.349 1_556 S
C3726 C3738 1.349 . S
C3727 C3725 1.327 . S
C3727 C3743 1.429 . S
C3727 H3749 0.950 . S
C3728 H3724 0.949 . S
C3728 C3736 1.574 . S
C3728 C3744 1.368 . S
H3729 C3737 0.950 . S
H3730 C3735 0.950 . S
H3731 C3736 0.949 . S
H3732 C3738 0.950 . S
H3733 C3739 0.948 1_556 S
H3734 C3740 0.949 . S
C3735 H3730 0.950 . S
C3735 C3737 1.327 . S
C3735 C3741 1.429 . S
C3736 C3728 1.574 . S
C3736 H3731 0.949 . S
C3736 C3742 1.368 . S
C3737 C3721 1.349 . S
C3737 H3729 0.950 . S
C3737 C3735 1.327 . S
C3738 C3726 1.349 . S
C3738 H3732 0.950 . S
C3738 C3739 1.323 1_556 S
C3739 H3733 0.948 1_554 S
C3739 C3738 1.323 1_554 S
C3739 C3743 1.434 . S
C3740 C3723 1.574 . S
C3740 H3734 0.949 . S
C3740 C3744 1.368 . S
C3741 C3722 1.429 . S
C3741 C3735 1.429 . S
C3741 C3742 1.523 . S
C3742 C3723 1.368 . S
C3742 C3736 1.368 . S
C3742 C3741 1.523 . S
C3743 C3727 1.429 . S
C3743 C3739 1.434 . S
C3743 C3744 1.523 . S
C3744 C3728 1.368 . S
C3744 C3740 1.368 . S
C3744 C3743 1.523 . S
H3745 C3720 0.950 . S
H3746 C3722 0.950 . S
H3747 C3723 0.949 . S
H3748 C3725 0.950 . S
H3749 C3727 0.950 . S
C3750 C3751 1.349 . S
C3750 C3752 1.327 . S
C3750 H3775 0.950 . S
C3751 C3750 1.349 . S
C3751 C3767 1.349 . S
C3752 C3750 1.327 . S
C3752 C3771 1.429 . S
C3752 H3776 0.950 . S
C3753 C3770 1.574 . S
C3753 C3772 1.368 . S
C3753 H3777 0.949 . S
H3754 C3758 0.949 . S
C3755 C3756 1.349 1_554 S
C3755 C3757 1.327 . S
C3755 H3778 0.950 . S
C3756 C3755 1.349 1_556 S
C3756 C3768 1.349 . S
C3757 C3755 1.327 . S
C3757 C3773 1.429 . S
C3757 H3779 0.950 . S
C3758 H3754 0.949 . S
C3758 C3766 1.574 . S
C3758 C3774 1.368 . S
H3759 C3767 0.950 . S
H3760 C3765 0.950 . S
H3761 C3766 0.949 . S
H3762 C3768 0.950 . S
H3763 C3769 0.950 . S
H3764 C3770 0.949 . S
C3765 H3760 0.950 . S
C3765 C3767 1.327 . S
C3765 C3771 1.429 . S
C3766 C3758 1.574 . S
C3766 H3761 0.949 . S
C3766 C3772 1.368 . S
C3767 C3751 1.349 . S
C3767 H3759 0.950 . S
C3767 C3765 1.327 . S
C3768 C3756 1.349 . S
C3768 H3762 0.950 . S
C3768 C3769 1.327 1_556 S
C3769 H3763 0.950 . S
C3769 C3768 1.327 1_554 S
C3769 C3773 1.429 . S
C3770 C3753 1.574 . S
C3770 H3764 0.949 . S
C3770 C3774 1.368 . S
C3771 C3752 1.429 . S
C3771 C3765 1.429 . S
C3771 C3772 1.523 . S
C3772 C3753 1.368 . S
C3772 C3766 1.368 . S
C3772 C3771 1.523 . S
C3773 C3757 1.429 . S
C3773 C3769 1.429 . S
C3773 C3774 1.523 . S
C3774 C3758 1.368 . S
C3774 C3770 1.368 . S
C3774 C3773 1.523 . S
H3775 C3750 0.950 . S
H3776 C3752 0.950 . S
H3777 C3753 0.949 . S
H3778 C3755 0.950 . S
H3779 C3757 0.950 . S
C3780 C3781 1.349 . S
C3780 C3782 1.327 . S
C3780 H3805 0.950 . S
C3781 C3780 1.349 . S
C3781 C3797 1.349 . S
C3782 C3780 1.327 . S
C3782 C3801 1.429 . S
C3782 H3806 0.950 . S
C3783 C3800 1.574 . S
C3783 C3802 1.368 . S
C3783 H3807 0.949 . S
H3784 C3788 0.949 . S
C3785 C3786 1.349 . S
C3785 C3787 1.327 . S
C3785 H3808 0.950 . S
C3786 C3785 1.349 . S
C3786 C3798 1.349 . S
C3787 C3785 1.327 . S
C3787 C3803 1.429 . S
C3787 H3809 0.950 . S
C3788 H3784 0.949 . S
C3788 C3796 1.574 . S
C3788 C3804 1.368 . S
H3789 C3797 0.950 . S
H3790 C3795 0.950 . S
H3791 C3796 0.949 . S
H3792 C3798 0.950 . S
H3793 C3799 0.950 . S
H3794 C3800 0.949 . S
C3795 H3790 0.950 . S
C3795 C3797 1.327 . S
C3795 C3801 1.429 . S
C3796 C3788 1.574 . S
C3796 H3791 0.949 . S
C3796 C3802 1.368 . S
C3797 C3781 1.349 . S
C3797 H3789 0.950 . S
C3797 C3795 1.327 . S
C3798 C3786 1.349 . S
C3798 H3792 0.950 . S
C3798 C3799 1.327 . S
C3799 H3793 0.950 . S
C3799 C3798 1.327 . S
C3799 C3803 1.429 . S
C3800 C3783 1.574 . S
C3800 H3794 0.949 . S
C3800 C3804 1.368 . S
C3801 C3782 1.429 . S
C3801 C3795 1.429 . S
C3801 C3802 1.523 . S
C3802 C3783 1.368 . S
C3802 C3796 1.368 . S
C3802 C3801 1.523 . S
C3803 C3787 1.429 . S
C3803 C3799 1.429 . S
C3803 C3804 1.523 . S
C3804 C3788 1.368 . S
C3804 C3800 1.368 . S
C3804 C3803 1.523 . S
H3805 C3780 0.950 . S
H3806 C3782 0.950 . S
H3807 C3783 0.949 . S
H3808 C3785 0.950 . S
H3809 C3787 0.950 . S
C3810 C3811 1.349 . S
C3810 C3812 1.327 . S
C3810 H3835 0.950 . S
C3811 C3810 1.349 . S
C3811 C3827 1.349 . S
C3812 C3810 1.327 . S
C3812 C3831 1.429 . S
C3812 H3836 0.950 . S
C3813 C3830 1.574 . S
C3813 C3832 1.368 . S
C3813 H3837 0.949 . S
H3814 C3818 0.949 . S
C3815 C3816 1.349 . S
C3815 C3817 1.327 . S
C3815 H3838 0.950 . S
C3816 C3815 1.349 . S
C3816 C3828 1.349 . S
C3817 C3815 1.327 . S
C3817 C3833 1.429 . S
C3817 H3839 0.950 . S
C3818 H3814 0.949 . S
C3818 C3826 1.574 . S
C3818 C3834 1.368 . S
H3819 C3827 0.950 . S
H3820 C3825 0.950 . S
H3821 C3826 0.949 . S
H3822 C3828 0.950 . S
H3823 C3829 0.950 . S
H3824 C3830 0.949 . S
C3825 H3820 0.950 . S
C3825 C3827 1.327 . S
C3825 C3831 1.429 . S
C3826 C3818 1.574 . S
C3826 H3821 0.949 . S
C3826 C3832 1.368 . S
C3827 C3811 1.349 . S
C3827 H3819 0.950 . S
C3827 C3825 1.327 . S
C3828 C3816 1.349 . S
C3828 H3822 0.950 . S
C3828 C3829 1.327 . S
C3829 H3823 0.950 . S
C3829 C3828 1.327 . S
C3829 C3833 1.429 . S
C3830 C3813 1.574 . S
C3830 H3824 0.949 . S
C3830 C3834 1.368 . S
C3831 C3812 1.429 . S
C3831 C3825 1.429 . S
C3831 C3832 1.523 . S
C3832 C3813 1.368 . S
C3832 C3826 1.368 . S
C3832 C3831 1.523 . S
C3833 C3817 1.429 . S
C3833 C3829 1.429 . S
C3833 C3834 1.523 . S
C3834 C3818 1.368 . S
C3834 C3830 1.368 . S
C3834 C3833 1.523 . S
H3835 C3810 0.950 . S
H3836 C3812 0.950 . S
H3837 C3813 0.949 . S
H3838 C3815 0.950 . S
H3839 C3817 0.950 . S
C961 C751 2.088 . S
C966 C1 2.088 . S
C991 C721 2.088 . S
C996 C31 2.088 . S
C1021 C811 2.088 . S
C1026 C61 2.088 . S
C1051 C781 2.088 . S
C1056 C91 2.088 . S
C1081 C130 2.088 . S
C1086 C880 2.088 . S
C1111 C160 2.088 . S
C1116 C850 2.088 . S
C1141 C190 2.088 . S
C1146 C940 2.088 . S
C1171 C910 2.088 . S
C1176 C220 2.088 . S
C1201 C511 2.088 . S
C1206 C241 2.088 . S
C1231 C481 2.088 . S
C1236 C271 2.088 . S
C1261 C571 2.088 . S
C1266 C301 2.088 . S
C1291 C541 2.088 . S
C1296 C331 2.088 . S
C1321 C370 2.088 . S
C1326 C640 2.088 . S
C1351 C610 2.088 . S
C1356 C400 2.088 . S
C1381 C430 2.088 . S
C1386 C700 2.088 . S
C1411 C670 2.088 . S
C1416 C460 2.088 . S
C1441 C16 2.605 . S
C1446 C627 2.605 . S
C1471 C417 2.605 . S
C1476 C46 2.605 . S
C1501 C927 2.605 . S
C1506 C76 2.605 . S
C1531 C106 2.605 . S
C1536 C237 2.605 . S
C1561 C147 2.605 . S
C1566 C496 2.605 . S
C1591 C177 2.605 . S
C1596 C286 2.605 . S
C1621 C207 2.605 . S
C1626 C796 2.605 . S
C1651 C867 2.605 . S
C1656 C256 2.605 . S
C1681 C687 2.605 . S
C1686 C316 2.605 . S
C1711 C477 2.605 . S
C1716 C346 2.605 . S
C1741 C736 2.605 . S
C1746 C387 2.605 . S
C1771 C447 2.605 . S
C1776 C556 2.605 . S
C1801 C897 2.605 . S
C1806 C526 2.605 . S
C1831 C586 2.605 . S
C1836 C717 2.605 . S
C1861 C766 2.605 . S
C1866 C657 2.605 . S
C1891 C826 2.605 . S
C1896 C957 2.605 . S
C1921 C27 2.256 1_556 S
C1926 C597 2.256 . S
C1951 C57 2.255 1_556 S
C1956 C567 2.255 . S
C1981 C87 2.255 . S
C1986 C537 2.255 . S
C2011 C117 2.255 . S
C2016 C507 2.255 . S
C2041 C136 2.256 1_554 S
C2046 C706 2.256 . S
C2071 C166 2.255 1_554 S
C2076 C676 2.255 . S
C2101 C196 2.255 . S
C2106 C646 2.255 . S
C2131 C226 2.255 . S
C2136 C616 2.255 . S
C2161 C267 2.256 . S
C2166 C837 2.256 . S
C2191 C297 2.255 . S
C2196 C807 2.255 . S
C2221 C327 2.256 . S
C2226 C777 2.255 1_556 S
C2251 C357 2.255 . S
C2256 C747 2.256 1_556 S
C2281 C946 2.256 . S
C2286 C376 2.256 . S
C2311 C916 2.255 . S
C2316 C406 2.255 . S
C2341 C886 2.255 1_554 S
C2346 C436 2.256 . S
C2371 C856 2.256 1_554 S
C2376 C466 2.255 . S
C2401 C70 1.400 . S
C2406 C10 1.400 . S
C2431 C100 1.400 . S
C2436 C40 1.400 . S
C2461 C181 1.400 . S
C2466 C121 1.400 . S
C2491 C151 1.400 . S
C2496 C211 1.400 . S
C2521 C310 1.400 . S
C2526 C250 1.400 . S
C2551 C280 1.400 . S
C2556 C340 1.400 . S
C2581 C421 1.400 . S
C2586 C361 1.400 . S
C2611 C391 1.400 . S
C2616 C451 1.400 . S
C2641 C490 1.400 . S
C2646 C550 1.400 . S
C2671 C520 1.400 . S
C2676 C580 1.400 . S
C2701 C661 1.400 . S
C2706 C601 1.400 . S
C2731 C631 1.400 . S
C2736 C691 1.400 . S
C2761 C730 1.400 . S
C2766 C790 1.400 . S
C2791 C820 1.400 . S
C2796 C760 1.400 . S
C2821 C841 1.400 . S
C2826 C901 1.400 . S
C2851 C871 1.400 . S
C2856 C931 1.400 . S
C2881 N14 0.486 1_565 S
C2886 N224 0.528 . S
C2911 N914 0.528 . S
C2916 N44 0.518 . S
C2941 N74 0.518 . S
C2946 N404 0.528 . S
C2971 N104 0.486 1_565 S
C2976 N614 0.528 . S
C3001 N96 0.528 . S
C3006 N126 0.486 1_545 S
C3031 N156 0.518 . S
C3036 N786 0.528 . S
C3061 N276 0.528 . S
C3066 N186 0.518 . S
C3091 N486 0.528 . S
C3096 N216 0.486 1_545 S
C3121 N254 0.518 . S
C3126 N464 0.528 . S
C3151 N674 0.528 . S
C3156 N284 0.518 . S
C3181 N314 0.518 . S
C3186 N164 0.528 . S
C3211 N854 0.528 . S
C3216 N344 0.518 . S
C3241 N366 0.518 . S
C3246 N336 0.528 . S
C3271 N396 0.518 . S
C3276 N546 0.528 . S
C3301 N426 0.518 . S
C3306 N36 0.528 . S
C3331 N726 0.528 . S
C3336 N456 0.518 . S
C3361 N494 0.486 1_565 S
C3366 N704 0.528 . S
C3391 N524 0.518 . S
C3396 N434 0.528 . S
C3421 N554 0.518 . S
C3426 N884 0.528 . S
C3451 N584 0.486 1_565 S
C3456 N134 0.528 . S
C3481 N606 0.486 1_545 S
C3486 N576 0.528 . S
C3511 N306 0.528 . S
C3516 N636 0.518 . S
C3541 N756 0.528 . S
C3546 N666 0.518 . S
C3571 N696 0.486 1_545 S
C3576 N6 0.528 . S
C3601 N944 0.528 . S
C3606 N734 0.518 . S
C3631 N194 0.528 . S
C3636 N764 0.518 . S
C3661 N644 0.528 . S
C3666 N794 0.518 . S
C3691 N824 0.518 . S
C3696 N374 0.528 . S
C3721 N816 0.528 . S
C3726 N846 0.518 . S
C3751 N66 0.528 . S
C3756 N876 0.518 . S
C3781 N516 0.528 . S
C3786 N906 0.518 . S
C3811 N936 0.518 . S
C3816 N246 0.528 . S
