# Generated by pormake.
# Topology ukn, (4)-cn, num edge types: 1
# Building blocks:
#     Node 0, Type 0, BuildingBlock: NAHDIM_clean_sbu_0, # of connection points: 4
#     Node 1, Type 0, BuildingBlock: NAHDIM_clean_sbu_0, # of connection points: 4
#     Node 2, Type 0, BuildingBlock: NAHDIM_clean_sbu_0, # of connection points: 4
#     Node 3, Type 0, BuildingBlock: NAHDIM_clean_sbu_0, # of connection points: 4
#     Node 4, Type 0, BuildingBlock: NAHDIM_clean_sbu_0, # of connection points: 4
#     Node 5, Type 0, BuildingBlock: NAHDIM_clean_sbu_0, # of connection points: 4
#     Node 6, Type 0, BuildingBlock: NAHDIM_clean_sbu_0, # of connection points: 4
#     Node 7, Type 0, BuildingBlock: NAHDIM_clean_sbu_0, # of connection points: 4
#     Node 8, Type 0, BuildingBlock: NAHDIM_clean_sbu_0, # of connection points: 4
#     Node 9, Type 0, BuildingBlock: NAHDIM_clean_sbu_0, # of connection points: 4
#     Node 10, Type 0, BuildingBlock: NAHDIM_clean_sbu_0, # of connection points: 4
#     Node 11, Type 0, BuildingBlock: NAHDIM_clean_sbu_0, # of connection points: 4
#     Node 12, Type 0, BuildingBlock: NAHDIM_clean_sbu_0, # of connection points: 4
#     Node 13, Type 0, BuildingBlock: NAHDIM_clean_sbu_0, # of connection points: 4
#     Node 14, Type 0, BuildingBlock: NAHDIM_clean_sbu_0, # of connection points: 4
#     Node 15, Type 0, BuildingBlock: NAHDIM_clean_sbu_0, # of connection points: 4
#     Node 16, Type 0, BuildingBlock: NAHDIM_clean_sbu_0, # of connection points: 4
#     Node 17, Type 0, BuildingBlock: NAHDIM_clean_sbu_0, # of connection points: 4
#     Node 18, Type 0, BuildingBlock: NAHDIM_clean_sbu_0, # of connection points: 4
#     Node 19, Type 0, BuildingBlock: NAHDIM_clean_sbu_0, # of connection points: 4
#     Node 20, Type 0, BuildingBlock: NAHDIM_clean_sbu_0, # of connection points: 4
#     Node 21, Type 0, BuildingBlock: NAHDIM_clean_sbu_0, # of connection points: 4
#     Node 22, Type 0, BuildingBlock: NAHDIM_clean_sbu_0, # of connection points: 4
#     Node 23, Type 0, BuildingBlock: NAHDIM_clean_sbu_0, # of connection points: 4
#     Node 24, Type 0, BuildingBlock: NAHDIM_clean_sbu_0, # of connection points: 4
#     Node 25, Type 0, BuildingBlock: NAHDIM_clean_sbu_0, # of connection points: 4
#     Node 26, Type 0, BuildingBlock: NAHDIM_clean_sbu_0, # of connection points: 4
#     Node 27, Type 0, BuildingBlock: NAHDIM_clean_sbu_0, # of connection points: 4
#     Node 28, Type 0, BuildingBlock: NAHDIM_clean_sbu_0, # of connection points: 4
#     Node 29, Type 0, BuildingBlock: NAHDIM_clean_sbu_0, # of connection points: 4
#     Node 30, Type 0, BuildingBlock: NAHDIM_clean_sbu_0, # of connection points: 4
#     Node 31, Type 0, BuildingBlock: NAHDIM_clean_sbu_0, # of connection points: 4
#     Node 32, Type 0, BuildingBlock: NAHDIM_clean_sbu_0, # of connection points: 4
#     Node 33, Type 0, BuildingBlock: NAHDIM_clean_sbu_0, # of connection points: 4
#     Node 34, Type 0, BuildingBlock: NAHDIM_clean_sbu_0, # of connection points: 4
#     Node 35, Type 0, BuildingBlock: NAHDIM_clean_sbu_0, # of connection points: 4
#     Edge 36, Type (0, 0), BuildingBlock: XIVTED_clean_linker_0, # of connection points: 2
#     Edge 37, Type (0, 0), BuildingBlock: XIVTED_clean_linker_0, # of connection points: 2
#     Edge 38, Type (0, 0), BuildingBlock: XIVTED_clean_linker_0, # of connection points: 2
#     Edge 39, Type (0, 0), BuildingBlock: XIVTED_clean_linker_0, # of connection points: 2
#     Edge 40, Type (0, 0), BuildingBlock: XIVTED_clean_linker_0, # of connection points: 2
#     Edge 41, Type (0, 0), BuildingBlock: XIVTED_clean_linker_0, # of connection points: 2
#     Edge 42, Type (0, 0), BuildingBlock: XIVTED_clean_linker_0, # of connection points: 2
#     Edge 43, Type (0, 0), BuildingBlock: XIVTED_clean_linker_0, # of connection points: 2
#     Edge 44, Type (0, 0), BuildingBlock: XIVTED_clean_linker_0, # of connection points: 2
#     Edge 45, Type (0, 0), BuildingBlock: XIVTED_clean_linker_0, # of connection points: 2
#     Edge 46, Type (0, 0), BuildingBlock: XIVTED_clean_linker_0, # of connection points: 2
#     Edge 47, Type (0, 0), BuildingBlock: XIVTED_clean_linker_0, # of connection points: 2
#     Edge 48, Type (0, 0), BuildingBlock: XIVTED_clean_linker_0, # of connection points: 2
#     Edge 49, Type (0, 0), BuildingBlock: XIVTED_clean_linker_0, # of connection points: 2
#     Edge 50, Type (0, 0), BuildingBlock: XIVTED_clean_linker_0, # of connection points: 2
#     Edge 51, Type (0, 0), BuildingBlock: XIVTED_clean_linker_0, # of connection points: 2
#     Edge 52, Type (0, 0), BuildingBlock: XIVTED_clean_linker_0, # of connection points: 2
#     Edge 53, Type (0, 0), BuildingBlock: XIVTED_clean_linker_0, # of connection points: 2
#     Edge 54, Type (0, 0), BuildingBlock: XIVTED_clean_linker_0, # of connection points: 2
#     Edge 55, Type (0, 0), BuildingBlock: XIVTED_clean_linker_0, # of connection points: 2
#     Edge 56, Type (0, 0), BuildingBlock: XIVTED_clean_linker_0, # of connection points: 2
#     Edge 57, Type (0, 0), BuildingBlock: XIVTED_clean_linker_0, # of connection points: 2
#     Edge 58, Type (0, 0), BuildingBlock: XIVTED_clean_linker_0, # of connection points: 2
#     Edge 59, Type (0, 0), BuildingBlock: XIVTED_clean_linker_0, # of connection points: 2
#     Edge 60, Type (0, 0), BuildingBlock: XIVTED_clean_linker_0, # of connection points: 2
#     Edge 61, Type (0, 0), BuildingBlock: XIVTED_clean_linker_0, # of connection points: 2
#     Edge 62, Type (0, 0), BuildingBlock: XIVTED_clean_linker_0, # of connection points: 2
#     Edge 63, Type (0, 0), BuildingBlock: XIVTED_clean_linker_0, # of connection points: 2
#     Edge 64, Type (0, 0), BuildingBlock: XIVTED_clean_linker_0, # of connection points: 2
#     Edge 65, Type (0, 0), BuildingBlock: XIVTED_clean_linker_0, # of connection points: 2
#     Edge 66, Type (0, 0), BuildingBlock: XIVTED_clean_linker_0, # of connection points: 2
#     Edge 67, Type (0, 0), BuildingBlock: XIVTED_clean_linker_0, # of connection points: 2
#     Edge 68, Type (0, 0), BuildingBlock: XIVTED_clean_linker_0, # of connection points: 2
#     Edge 69, Type (0, 0), BuildingBlock: XIVTED_clean_linker_0, # of connection points: 2
#     Edge 70, Type (0, 0), BuildingBlock: XIVTED_clean_linker_0, # of connection points: 2
#     Edge 71, Type (0, 0), BuildingBlock: XIVTED_clean_linker_0, # of connection points: 2
#     Edge 72, Type (0, 0), BuildingBlock: XIVTED_clean_linker_0, # of connection points: 2
#     Edge 73, Type (0, 0), BuildingBlock: XIVTED_clean_linker_0, # of connection points: 2
#     Edge 74, Type (0, 0), BuildingBlock: XIVTED_clean_linker_0, # of connection points: 2
#     Edge 75, Type (0, 0), BuildingBlock: XIVTED_clean_linker_0, # of connection points: 2
#     Edge 76, Type (0, 0), BuildingBlock: XIVTED_clean_linker_0, # of connection points: 2
#     Edge 77, Type (0, 0), BuildingBlock: XIVTED_clean_linker_0, # of connection points: 2
#     Edge 78, Type (0, 0), BuildingBlock: XIVTED_clean_linker_0, # of connection points: 2
#     Edge 79, Type (0, 0), BuildingBlock: XIVTED_clean_linker_0, # of connection points: 2
#     Edge 80, Type (0, 0), BuildingBlock: XIVTED_clean_linker_0, # of connection points: 2
#     Edge 81, Type (0, 0), BuildingBlock: XIVTED_clean_linker_0, # of connection points: 2
#     Edge 82, Type (0, 0), BuildingBlock: XIVTED_clean_linker_0, # of connection points: 2
#     Edge 83, Type (0, 0), BuildingBlock: XIVTED_clean_linker_0, # of connection points: 2
#     Edge 84, Type (0, 0), BuildingBlock: XIVTED_clean_linker_0, # of connection points: 2
#     Edge 85, Type (0, 0), BuildingBlock: XIVTED_clean_linker_0, # of connection points: 2
#     Edge 86, Type (0, 0), BuildingBlock: XIVTED_clean_linker_0, # of connection points: 2
#     Edge 87, Type (0, 0), BuildingBlock: XIVTED_clean_linker_0, # of connection points: 2
#     Edge 88, Type (0, 0), BuildingBlock: XIVTED_clean_linker_0, # of connection points: 2
#     Edge 89, Type (0, 0), BuildingBlock: XIVTED_clean_linker_0, # of connection points: 2
#     Edge 90, Type (0, 0), BuildingBlock: XIVTED_clean_linker_0, # of connection points: 2
#     Edge 91, Type (0, 0), BuildingBlock: XIVTED_clean_linker_0, # of connection points: 2
#     Edge 92, Type (0, 0), BuildingBlock: XIVTED_clean_linker_0, # of connection points: 2
#     Edge 93, Type (0, 0), BuildingBlock: XIVTED_clean_linker_0, # of connection points: 2
#     Edge 94, Type (0, 0), BuildingBlock: XIVTED_clean_linker_0, # of connection points: 2
#     Edge 95, Type (0, 0), BuildingBlock: XIVTED_clean_linker_0, # of connection points: 2
#     Edge 96, Type (0, 0), BuildingBlock: XIVTED_clean_linker_0, # of connection points: 2
#     Edge 97, Type (0, 0), BuildingBlock: XIVTED_clean_linker_0, # of connection points: 2
#     Edge 98, Type (0, 0), BuildingBlock: XIVTED_clean_linker_0, # of connection points: 2
#     Edge 99, Type (0, 0), BuildingBlock: XIVTED_clean_linker_0, # of connection points: 2
#     Edge 100, Type (0, 0), BuildingBlock: XIVTED_clean_linker_0, # of connection points: 2
#     Edge 101, Type (0, 0), BuildingBlock: XIVTED_clean_linker_0, # of connection points: 2
#     Edge 102, Type (0, 0), BuildingBlock: XIVTED_clean_linker_0, # of connection points: 2
#     Edge 103, Type (0, 0), BuildingBlock: XIVTED_clean_linker_0, # of connection points: 2
#     Edge 104, Type (0, 0), BuildingBlock: XIVTED_clean_linker_0, # of connection points: 2
#     Edge 105, Type (0, 0), BuildingBlock: XIVTED_clean_linker_0, # of connection points: 2
#     Edge 106, Type (0, 0), BuildingBlock: XIVTED_clean_linker_0, # of connection points: 2
#     Edge 107, Type (0, 0), BuildingBlock: XIVTED_clean_linker_0, # of connection points: 2
# Relax obj value: 0.143
# Max RMSD: 0.134
# Mean RMSD: 0.134
data_MOF--net-ukn--node1-NAHDIM_clean_sbu_0--edge1-XIVTED_clean_linker_0
_symmetry_space_group_name_H-M    P1
_symmetry_Int_Tables_number       1
_symmetry_cell_setting            triclinic
loop_
_symmetry_equiv_pos_as_xyz
'x, y, z'
_cell_length_a     109.74267
_cell_length_b     109.70212
_cell_length_c     24.066404
_cell_angle_alpha  89.973867
_cell_angle_beta   90.038809
_cell_angle_gamma 119.99754
loop_
_atom_site_label
_atom_site_type_symbol
_atom_site_fract_x
_atom_site_fract_y
_atom_site_fract_z
_atom_type_partial_charge
C0 C 0.04779 0.2614 0.07085 0.0
O1 O 0.05139 0.26362 0.12353 0.0
O2 O 0.07786 0.29377 0.11971 0.0
Zn3 Zn 0.07679 0.28277 0.05127 0.0
O4 O 0.08421 0.2961 0.98656 0.0
C5 C 0.08996 0.26951 0.1103 0.0
O6 O 0.08324 0.27077 0.15309 0.0
O7 O 0.05693 0.26826 0.03389 0.0
C8 C 0.09153 0.29503 0.94802 0.0
O9 O 0.09458 0.28489 0.9501 0.0
C10 C 0.08916 0.30534 0.12793 0.0
O11 O 0.0994 0.30957 0.09148 0.0
O12 O 0.08851 0.27367 0.06277 0.0
C13 C 0.72023 0.76792 0.06349 0.0
O14 O 0.70646 0.76119 0.06766 0.0
O15 O 0.70495 0.78427 0.15673 0.0
Zn16 Zn 0.71547 0.7904 0.08399 0.0
O17 O 0.70169 0.78474 0.021 0.0
C18 C 0.73264 0.81876 0.12613 0.0
O19 O 0.731 0.81236 0.17401 0.0
O20 O 0.72702 0.78115 0.07107 0.0
C21 C 0.6951 0.79124 0.01044 0.0
O22 O 0.69724 0.80194 0.04178 0.0
C23 C 0.69221 0.7744 0.15923 0.0
O24 O 0.68579 0.76774 0.11353 0.0
O25 O 0.72741 0.81144 0.08254 0.0
C26 C 0.22687 0.95007 0.0664 0.0
O27 O 0.23471 0.94434 0.07593 0.0
O28 O 0.214 0.91817 0.14501 0.0
Zn29 Zn 0.20586 0.9216 0.07573 0.0
O30 O 0.21133 0.91419 0.00928 0.0
C31 C 0.17836 0.90828 0.12777 0.0
O32 O 0.18559 0.91211 0.17428 0.0
O33 O 0.21359 0.94224 0.06509 0.0
C34 C 0.20261 0.90293 0.98441 0.0
O35 O 0.18959 0.89578 0.00245 0.0
C36 C 0.2142 0.90675 0.15066 0.0
O37 O 0.20912 0.89733 0.11073 0.0
O38 O 0.18485 0.91165 0.08164 0.0
C39 C 0.2742 0.05317 0.9811 0.0
O40 O 0.28751 0.06132 0.99404 0.0
O41 O 0.28994 0.08408 0.87573 0.0
Zn42 Zn 0.27856 0.07956 0.94619 0.0
O43 O 0.29147 0.08829 0.01148 0.0
C44 C 0.26073 0.08839 0.894 0.0
O45 O 0.26255 0.08219 0.85068 0.0
O46 O 0.26756 0.05862 0.95853 0.0
C47 C 0.30239 0.10043 0.0108 0.0
O48 O 0.30549 0.10816 0.96566 0.0
C49 C 0.30156 0.08422 0.87194 0.0
O50 O 0.30658 0.08103 0.91563 0.0
O51 O 0.26605 0.08796 0.94037 0.0
C52 C 0.94746 0.2111 0.95 0.0
O53 O 0.94375 0.20856 0.8975 0.0
O54 O 0.91674 0.21292 0.89992 0.0
Zn55 Zn 0.91832 0.20335 0.96868 0.0
O56 O 0.91048 0.20872 0.03376 0.0
C57 C 0.90616 0.17686 0.91009 0.0
O58 O 0.91246 0.18492 0.86697 0.0
O59 O 0.93838 0.20953 0.98617 0.0
C60 C 0.89944 0.20007 0.05991 0.0
O61 O 0.89248 0.18684 0.04407 0.0
C62 C 0.90522 0.21276 0.89149 0.0
O63 O 0.89503 0.20658 0.92802 0.0
O64 O 0.90748 0.18246 0.95754 0.0
C65 C 0.76548 0.71522 0.91067 0.0
O66 O 0.75854 0.70139 0.90972 0.0
O67 O 0.77817 0.69939 0.80189 0.0
Zn68 Zn 0.78654 0.70978 0.87371 0.0
O69 O 0.78218 0.69594 0.9358 0.0
C70 C 0.81467 0.72214 0.82594 0.0
O71 O 0.80806 0.71597 0.77982 0.0
O72 O 0.77822 0.72173 0.89472 0.0
C73 C 0.78914 0.6998 0.98085 0.0
O74 O 0.79934 0.7129 0.98615 0.0
C75 C 0.76924 0.68629 0.80207 0.0
O76 O 0.76519 0.6796 0.84972 0.0
O77 O 0.80758 0.72135 0.86885 0.0
C78 C 0.94868 0.73833 0.9363 0.0
O79 O 0.94538 0.73459 0.88414 0.0
O80 O 0.91967 0.70531 0.89207 0.0
Zn81 Zn 0.91984 0.71687 0.95729 0.0
O82 O 0.91303 0.70433 0.02433 0.0
C83 C 0.90581 0.72803 0.89186 0.0
O84 O 0.91349 0.72712 0.85201 0.0
O85 O 0.93936 0.73239 0.97359 0.0
C86 C 0.90781 0.70702 0.06646 0.0
O87 O 0.9065 0.71829 0.06629 0.0
C88 C 0.90859 0.69354 0.8841 0.0
O89 O 0.89801 0.68946 0.91882 0.0
O90 O 0.90701 0.72452 0.94101 0.0
C91 C 0.27467 0.22848 0.89897 0.0
O92 O 0.28843 0.23506 0.89457 0.0
O93 O 0.289 0.21129 0.80368 0.0
Zn94 Zn 0.27896 0.2057 0.87755 0.0
O95 O 0.29311 0.2116 0.93924 0.0
C96 C 0.26188 0.17674 0.83997 0.0
O97 O 0.26402 0.18239 0.79023 0.0
O98 O 0.26772 0.21527 0.89106 0.0
C99 C 0.29944 0.2049 0.95098 0.0
O100 O 0.29687 0.1938 0.92138 0.0
C101 C 0.30169 0.22124 0.79991 0.0
O102 O 0.3083 0.22819 0.84485 0.0
O103 O 0.2668 0.18471 0.88214 0.0
C104 C 0.76845 0.0485 0.9412 0.0
O105 O 0.76168 0.05536 0.95044 0.0
O106 O 0.783 0.07992 0.83474 0.0
Zn107 Zn 0.78922 0.07583 0.90767 0.0
O108 O 0.7834 0.08393 0.97018 0.0
C109 C 0.81774 0.08843 0.86578 0.0
O110 O 0.81157 0.0844 0.81712 0.0
O111 O 0.78077 0.05509 0.9208 0.0
C112 C 0.78592 0.09656 0.96986 0.0
O113 O 0.79243 0.10465 0.92705 0.0
C114 C 0.7715 0.07994 0.82922 0.0
O115 O 0.76297 0.07665 0.87193 0.0
O116 O 0.81025 0.08544 0.90933 0.0
C117 C 0.72303 0.94725 0.05497 0.0
O118 O 0.70937 0.94017 0.06312 0.0
O119 O 0.70691 0.91482 0.13486 0.0
Zn120 Zn 0.71806 0.91972 0.06361 0.0
O121 O 0.7049 0.91247 0.99848 0.0
C122 C 0.73481 0.90862 0.10872 0.0
O123 O 0.73319 0.914 0.15502 0.0
O124 O 0.7298 0.94066 0.05486 0.0
C125 C 0.69812 0.89951 0.98555 0.0
O126 O 0.69972 0.8904 0.01564 0.0
C127 C 0.69402 0.91144 0.13649 0.0
O128 O 0.68756 0.91127 0.09028 0.0
O129 O 0.72979 0.91038 0.06381 0.0
C130 C 0.04819 0.78709 0.06466 0.0
O131 O 0.05203 0.79164 0.11572 0.0
O132 O 0.0782 0.78273 0.11977 0.0
Zn133 Zn 0.07686 0.79248 0.05113 0.0
O134 O 0.08492 0.78717 0.98668 0.0
C135 C 0.08979 0.81904 0.11018 0.0
O136 O 0.08392 0.8111 0.15402 0.0
O137 O 0.05696 0.78656 0.03187 0.0
C138 C 0.09297 0.79601 0.95068 0.0
O139 O 0.09639 0.80928 0.95535 0.0
C140 C 0.0897 0.78282 0.12739 0.0
O141 O 0.09978 0.78899 0.09039 0.0
O142 O 0.08792 0.81334 0.06267 0.0
C143 C 0.2283 0.27974 0.05555 0.0
O144 O 0.23535 0.29357 0.05655 0.0
O145 O 0.21543 0.29618 0.16061 0.0
Zn146 Zn 0.2072 0.2854 0.08982 0.0
O147 O 0.21179 0.29918 0.02713 0.0
C148 C 0.17948 0.27096 0.14159 0.0
O149 O 0.18647 0.27487 0.18867 0.0
O150 O 0.21549 0.27333 0.0706 0.0
C151 C 0.20366 0.29619 0.98548 0.0
O152 O 0.19205 0.2839 0.98347 0.0
C153 C 0.21472 0.30727 0.16835 0.0
O154 O 0.20881 0.31117 0.13013 0.0
O155 O 0.18621 0.27388 0.09604 0.0
C156 C 0.71195 0.59395 0.38938 0.0
O157 O 0.71471 0.60073 0.43686 0.0
O158 O 0.74359 0.62179 0.44238 0.0
Zn159 Zn 0.74203 0.61077 0.37308 0.0
O160 O 0.74937 0.62377 0.30753 0.0
C161 C 0.7551 0.59726 0.42998 0.0
O162 O 0.74794 0.59794 0.47243 0.0
O163 O 0.72201 0.59629 0.3569 0.0
C164 C 0.76183 0.63417 0.30595 0.0
O165 O 0.77024 0.63657 0.3485 0.0
C166 C 0.74416 0.63365 0.4422 0.0
O167 O 0.74341 0.63917 0.39479 0.0
O168 O 0.75383 0.60172 0.38284 0.0
C169 C 0.38384 0.10261 0.41521 0.0
O170 O 0.37003 0.09578 0.41812 0.0
O171 O 0.36795 0.11706 0.51143 0.0
Zn172 Zn 0.37878 0.12459 0.44042 0.0
O173 O 0.36505 0.11972 0.37757 0.0
C174 C 0.39381 0.15278 0.48815 0.0
O175 O 0.39028 0.14626 0.53627 0.0
O176 O 0.39052 0.11575 0.42475 0.0
C177 C 0.36881 0.1268 0.33279 0.0
O178 O 0.38181 0.13724 0.32795 0.0
C179 C 0.35737 0.11861 0.5196 0.0
O180 O 0.35405 0.12511 0.48181 0.0
O181 O 0.39049 0.14561 0.44364 0.0
C182 C 0.89189 0.28312 0.44451 0.0
O183 O 0.8988 0.27629 0.45072 0.0
O184 O 0.87562 0.25128 0.53572 0.0
Zn185 Zn 0.86957 0.25564 0.46265 0.0
O186 O 0.87562 0.24783 0.3999 0.0
C187 C 0.84081 0.24247 0.50271 0.0
O188 O 0.84678 0.24557 0.55196 0.0
O189 O 0.8786 0.27645 0.44998 0.0
C190 C 0.86901 0.23483 0.38746 0.0
O191 O 0.85796 0.22614 0.41689 0.0
C192 C 0.88551 0.24845 0.53884 0.0
O193 O 0.89229 0.24869 0.49351 0.0
O194 O 0.84851 0.24629 0.45957 0.0
C195 C 0.94256 0.3813 0.29262 0.0
O196 O 0.95638 0.38828 0.2939 0.0
O197 O 0.95903 0.41045 0.18552 0.0
Zn198 Zn 0.94828 0.40796 0.25658 0.0
O199 O 0.96168 0.41703 0.32016 0.0
C200 C 0.934 0.42115 0.20391 0.0
O201 O 0.9378 0.41766 0.15756 0.0
O202 O 0.93613 0.38753 0.27557 0.0
C203 C 0.97079 0.43005 0.32174 0.0
O204 O 0.97179 0.43817 0.2798 0.0
C205 C 0.97174 0.41321 0.18461 0.0
O206 O 0.9782 0.41402 0.23161 0.0
O207 O 0.93687 0.41757 0.25015 0.0
C208 C 0.61444 0.5478 0.23578 0.0
O209 O 0.6103 0.5386 0.1951 0.0
O210 O 0.58565 0.55319 0.15616 0.0
Zn211 Zn 0.58641 0.5442 0.2282 0.0
O212 O 0.57632 0.54837 0.2883 0.0
C213 C 0.57214 0.51656 0.17502 0.0
O214 O 0.57385 0.52359 0.12874 0.0
O215 O 0.60614 0.55174 0.25436 0.0
C216 C 0.57259 0.54103 0.33242 0.0
O217 O 0.57513 0.53058 0.33742 0.0
C218 C 0.58257 0.56293 0.15556 0.0
O219 O 0.58041 0.56753 0.20282 0.0
O220 O 0.57692 0.52323 0.22028 0.0
C221 C 0.43531 0.05266 0.30178 0.0
O222 O 0.42848 0.03884 0.30219 0.0
O223 O 0.44851 0.03501 0.21142 0.0
Zn224 Zn 0.45705 0.04706 0.2797 0.0
O225 O 0.45354 0.03552 0.34906 0.0
C226 C 0.48373 0.06276 0.22264 0.0
O227 O 0.47579 0.05987 0.1782 0.0
O228 O 0.44842 0.05919 0.29155 0.0
C229 C 0.45612 0.0255 0.35403 0.0
O230 O 0.46102 0.02183 0.31129 0.0
C231 C 0.43874 0.02221 0.21174 0.0
O232 O 0.43348 0.0159 0.25935 0.0
O233 O 0.47794 0.05876 0.26994 0.0
C234 C 0.61318 0.05417 0.25167 0.0
O235 O 0.60659 0.04036 0.24914 0.0
O236 O 0.58033 0.03712 0.16576 0.0
Zn237 Zn 0.58525 0.04812 0.2374 0.0
O238 O 0.57814 0.03485 0.30229 0.0
C239 C 0.573 0.0642 0.19484 0.0
O240 O 0.57759 0.06234 0.14698 0.0
O241 O 0.60613 0.0604 0.24601 0.0
C242 C 0.56514 0.026 0.30803 0.0
O243 O 0.55618 0.02548 0.2705 0.0
C244 C 0.57808 0.02459 0.16267 0.0
O245 O 0.57939 0.01849 0.20746 0.0
O246 O 0.57558 0.05952 0.23891 0.0
C247 C 0.92625 0.54531 0.26257 0.0
O248 O 0.92718 0.54321 0.20939 0.0
O249 O 0.95819 0.54635 0.20925 0.0
Zn250 Zn 0.94717 0.53659 0.27806 0.0
O251 O 0.96048 0.54181 0.34283 0.0
C252 C 0.93344 0.50992 0.21952 0.0
O253 O 0.93569 0.51783 0.17541 0.0
O254 O 0.93355 0.54298 0.2973 0.0
C255 C 0.96339 0.53328 0.36707 0.0
O256 O 0.95772 0.52026 0.34907 0.0
C257 C 0.96988 0.54685 0.20121 0.0
O258 O 0.97431 0.54109 0.23798 0.0
O259 O 0.93711 0.51568 0.26702 0.0
C260 C 0.45421 0.38296 0.27739 0.0
O261 O 0.45444 0.38637 0.2249 0.0
O262 O 0.45146 0.41273 0.2326 0.0
Zn263 Zn 0.46305 0.4122 0.29639 0.0
O264 O 0.45931 0.42054 0.3639 0.0
C265 C 0.48777 0.42506 0.22706 0.0
O266 O 0.47866 0.41836 0.18717 0.0
O267 O 0.45776 0.39237 0.31443 0.0
C268 C 0.44711 0.41415 0.38533 0.0
O269 O 0.43739 0.40241 0.36241 0.0
C270 C 0.45056 0.42373 0.22525 0.0
O271 O 0.45698 0.43428 0.26015 0.0
O272 O 0.48348 0.42363 0.27696 0.0
C273 C 0.40127 0.28205 0.39045 0.0
O274 O 0.39974 0.27846 0.44316 0.0
O275 O 0.36829 0.2517 0.4392 0.0
Zn276 Zn 0.37969 0.25296 0.37176 0.0
O277 O 0.36674 0.24519 0.3059 0.0
C278 C 0.39333 0.24071 0.43391 0.0
O279 O 0.39142 0.24728 0.47568 0.0
O280 O 0.39389 0.27291 0.35418 0.0
C281 C 0.36472 0.23445 0.27835 0.0
O282 O 0.37126 0.22768 0.29308 0.0
C283 C 0.35681 0.24029 0.44732 0.0
O284 O 0.3528 0.23002 0.41114 0.0
O285 O 0.38938 0.24187 0.38553 0.0
C286 C 0.71405 0.10665 0.3723 0.0
O287 O 0.72105 0.09982 0.37455 0.0
O288 O 0.743 0.11879 0.4719 0.0
Zn289 Zn 0.74081 0.12773 0.40251 0.0
O290 O 0.74958 0.12293 0.33925 0.0
C291 C 0.75181 0.15439 0.45888 0.0
O292 O 0.74532 0.14636 0.50189 0.0
O293 O 0.7204 0.11966 0.38446 0.0
C294 C 0.75314 0.12993 0.2943 0.0
O295 O 0.75135 0.14086 0.2892 0.0
C296 C 0.75483 0.11968 0.48091 0.0
O297 O 0.76507 0.12641 0.44501 0.0
O298 O 0.75084 0.1487 0.41189 0.0
C299 C 0.87909 0.59818 0.38954 0.0
O300 O 0.87198 0.60156 0.35502 0.0
O301 O 0.88142 0.62615 0.52964 0.0
Zn302 Zn 0.8754 0.61732 0.45408 0.0
O303 O 0.88318 0.63229 0.39533 0.0
C304 C 0.84618 0.60239 0.48936 0.0
O305 O 0.85144 0.60305 0.53905 0.0
O306 O 0.88194 0.60363 0.43776 0.0
C307 C 0.8796 0.64165 0.39308 0.0
O308 O 0.87106 0.64176 0.43105 0.0
C309 C 0.8932 0.63723 0.53761 0.0
O310 O 0.90205 0.6427 0.49595 0.0
O311 O 0.85442 0.60754 0.4481 0.0
C312 C 0.3822 0.94248 0.73021 0.0
O313 O 0.39005 0.95608 0.72145 0.0
O314 O 0.4101 0.95898 0.84642 0.0
Zn315 Zn 0.40786 0.94777 0.77686 0.0
O316 O 0.41793 0.96011 0.71104 0.0
C317 C 0.41786 0.92879 0.75175 0.0
O318 O 0.41269 0.92884 0.70256 0.0
O319 O 0.38748 0.93608 0.75579 0.0
C320 C 0.42915 0.97201 0.71172 0.0
O321 O 0.43538 0.97749 0.75924 0.0
C322 C 0.41081 0.9709 0.84833 0.0
O323 O 0.40983 0.97675 0.80217 0.0
O324 O 0.41643 0.93569 0.79104 0.0
C325 C 0.05272 0.43964 0.71887 0.0
O326 O 0.03891 0.43284 0.72139 0.0
O327 O 0.03687 0.45229 0.82357 0.0
Zn328 Zn 0.04751 0.46098 0.75253 0.0
O329 O 0.03382 0.45666 0.68998 0.0
C330 C 0.06309 0.48815 0.80698 0.0
O331 O 0.06031 0.4806 0.85251 0.0
O332 O 0.05944 0.45257 0.73226 0.0
C333 C 0.03702 0.46392 0.64569 0.0
O334 O 0.04968 0.47492 0.64046 0.0
C335 C 0.02369 0.4437 0.82327 0.0
O336 O 0.0169 0.44026 0.77572 0.0
O337 O 0.05906 0.48195 0.7604 0.0
C338 C 0.54015 0.61828 0.74759 0.0
O339 O 0.5381 0.6145 0.80011 0.0
O340 O 0.5429 0.5886 0.7975 0.0
Zn341 Zn 0.53309 0.58941 0.72793 0.0
O342 O 0.53874 0.58196 0.66271 0.0
C343 C 0.50646 0.57593 0.78529 0.0
O344 O 0.5142 0.58302 0.82808 0.0
O345 O 0.53837 0.60926 0.71074 0.0
C346 C 0.53602 0.56928 0.66002 0.0
O347 O 0.52942 0.56069 0.70151 0.0
C348 C 0.55385 0.58744 0.79735 0.0
O349 O 0.5595 0.58705 0.74977 0.0
O350 O 0.51227 0.57738 0.73823 0.0
C351 C 0.59342 0.71993 0.64668 0.0
O352 O 0.59616 0.72995 0.68285 0.0
O353 O 0.62596 0.74516 0.51946 0.0
Zn354 Zn 0.61464 0.74319 0.58798 0.0
O355 O 0.62758 0.74995 0.65439 0.0
C356 C 0.60097 0.75653 0.53252 0.0
O357 O 0.60226 0.75029 0.48818 0.0
O358 O 0.60005 0.72309 0.60085 0.0
C359 C 0.62979 0.76062 0.68292 0.0
O360 O 0.62352 0.7677 0.66895 0.0
C361 C 0.63781 0.75629 0.51347 0.0
O362 O 0.64227 0.766 0.55232 0.0
O363 O 0.60529 0.75474 0.57912 0.0
C364 C 0.28299 0.89082 0.59021 0.0
O365 O 0.27689 0.89825 0.5797 0.0
O366 O 0.25058 0.87607 0.50858 0.0
Zn367 Zn 0.25478 0.86933 0.58023 0.0
O368 O 0.2477 0.87561 0.6448 0.0
C369 C 0.24336 0.84151 0.53458 0.0
O370 O 0.24962 0.84856 0.48929 0.0
O371 O 0.27555 0.87748 0.5909 0.0
C372 C 0.23473 0.86961 0.65733 0.0
O373 O 0.22558 0.85894 0.62725 0.0
C374 C 0.24781 0.88601 0.50673 0.0
O375 O 0.24805 0.89254 0.55282 0.0
O376 O 0.24465 0.84822 0.57924 0.0
C377 C 0.10105 0.38874 0.57864 0.0
O378 O 0.09413 0.37492 0.57702 0.0
O379 O 0.1174 0.3733 0.48322 0.0
Zn380 Zn 0.12327 0.38353 0.55659 0.0
O381 O 0.11736 0.36955 0.61886 0.0
C382 C 0.15197 0.4001 0.5169 0.0
O383 O 0.14598 0.39796 0.46784 0.0
O384 O 0.1142 0.39527 0.56921 0.0
C385 C 0.12242 0.36143 0.62409 0.0
O386 O 0.1316 0.36207 0.58747 0.0
C387 C 0.10706 0.36083 0.4791 0.0
O388 O 0.09968 0.35446 0.52357 0.0
O389 O 0.14429 0.39535 0.5599 0.0
C390 C 0.2804 0.39187 0.61002 0.0
O391 O 0.27364 0.37827 0.6002 0.0
O392 O 0.24874 0.37518 0.52489 0.0
Zn393 Zn 0.25283 0.38633 0.59608 0.0
O394 O 0.2453 0.37325 0.66137 0.0
C395 C 0.24203 0.40298 0.54764 0.0
O396 O 0.24837 0.40194 0.50309 0.0
O397 O 0.27363 0.39846 0.60838 0.0
C398 C 0.23242 0.36402 0.66717 0.0
O399 O 0.22332 0.36277 0.62888 0.0
C400 C 0.24602 0.36248 0.52287 0.0
O401 O 0.24611 0.35609 0.56891 0.0
O402 O 0.24308 0.39764 0.59298 0.0
C403 C 0.61114 0.8952 0.59199 0.0
O404 O 0.62495 0.90235 0.58993 0.0
O405 O 0.62799 0.88118 0.49883 0.0
Zn406 Zn 0.61689 0.87349 0.56927 0.0
O407 O 0.63027 0.87867 0.63394 0.0
C408 C 0.60166 0.84588 0.51845 0.0
O409 O 0.60492 0.85301 0.47169 0.0
O410 O 0.6048 0.88204 0.58283 0.0
C411 C 0.63247 0.86978 0.65928 0.0
O412 O 0.62592 0.8566 0.64285 0.0
C413 C 0.63912 0.88052 0.49175 0.0
O414 O 0.64315 0.87494 0.53087 0.0
O415 O 0.6052 0.85248 0.56432 0.0
C416 C 0.10321 0.71281 0.57524 0.0
O417 O 0.09621 0.71952 0.5683 0.0
O418 O 0.11883 0.74449 0.48373 0.0
Zn419 Zn 0.12529 0.74032 0.5563 0.0
O420 O 0.11942 0.74812 0.61957 0.0
C421 C 0.15382 0.75302 0.51423 0.0
O422 O 0.14758 0.74901 0.46567 0.0
O423 O 0.1165 0.71955 0.5697 0.0
C424 C 0.12474 0.76126 0.62739 0.0
O425 O 0.13431 0.77013 0.59267 0.0
C426 C 0.10875 0.74705 0.48125 0.0
O427 O 0.10202 0.74665 0.52695 0.0
O428 O 0.14636 0.74993 0.55792 0.0
C429 C 0.05324 0.61582 0.73835 0.0
O430 O 0.03942 0.60884 0.73759 0.0
O431 O 0.03765 0.586 0.84611 0.0
Zn432 Zn 0.0477 0.58907 0.77293 0.0
O433 O 0.03354 0.58041 0.71136 0.0
C434 C 0.06393 0.57734 0.81956 0.0
O435 O 0.06204 0.5823 0.86644 0.0
O436 O 0.05971 0.60959 0.75493 0.0
C437 C 0.02791 0.56758 0.69702 0.0
O438 O 0.03117 0.55917 0.7239 0.0
C439 C 0.02516 0.58382 0.84957 0.0
O440 O 0.01864 0.58411 0.80423 0.0
O441 O 0.05921 0.57951 0.77467 0.0
C442 C 0.37773 0.43535 0.76761 0.0
O443 O 0.384 0.42782 0.7671 0.0
O444 O 0.40884 0.44992 0.87138 0.0
Zn445 Zn 0.4053 0.4558 0.79652 0.0
O446 O 0.4123 0.44821 0.73618 0.0
C447 C 0.41955 0.4849 0.83267 0.0
O448 O 0.41577 0.47938 0.8825 0.0
O449 O 0.38473 0.44819 0.78214 0.0
C450 C 0.42492 0.45432 0.71892 0.0
O451 O 0.43429 0.46622 0.74191 0.0
C452 C 0.40993 0.43899 0.87746 0.0
O453 O 0.40818 0.43098 0.83419 0.0
O454 O 0.41586 0.47685 0.79057 0.0
C455 C 0.55693 0.94196 0.71064 0.0
O456 O 0.5636 0.95572 0.71612 0.0
O457 O 0.54204 0.95734 0.80353 0.0
Zn458 Zn 0.53465 0.94671 0.73188 0.0
O459 O 0.53997 0.96058 0.66905 0.0
C460 C 0.50674 0.93023 0.77978 0.0
O461 O 0.51357 0.93267 0.82706 0.0
O462 O 0.54367 0.9351 0.71699 0.0
C463 C 0.532 0.95811 0.62722 0.0
O464 O 0.5199 0.94629 0.62509 0.0
C465 C 0.54172 0.96863 0.81127 0.0
O466 O 0.53643 0.97303 0.77237 0.0
O467 O 0.51363 0.93482 0.73489 0.0
H468 H 0.1003 0.26551 0.20818 0.0
H469 H 0.16184 0.26079 0.05223 0.0
H470 H 0.10354 0.26323 0.03014 0.0
H471 H 0.16223 0.26888 0.22797 0.0
H472 H 0.13769 0.25607 0.04707 0.0
H473 H 0.12014 0.26141 0.2191 0.0
C474 C 0.10503 0.26393 0.17143 0.0
C475 C 0.10044 0.26496 0.11812 0.0
C476 C 0.14298 0.25869 0.08695 0.0
C477 C 0.12308 0.26029 0.13034 0.0
C478 C 0.15678 0.26137 0.08996 0.0
C479 C 0.16416 0.26552 0.14042 0.0
C480 C 0.13654 0.26027 0.13463 0.0
C481 C 0.15699 0.26589 0.18807 0.0
C482 C 0.11637 0.26161 0.17771 0.0
C483 C 0.10689 0.26274 0.072 0.0
N484 N 0.14362 0.26353 0.18385 0.0
N485 N 0.11798 0.26065 0.07918 0.0
H486 H 0.74045 0.83736 0.21307 0.0
H487 H 0.74002 0.8961 0.02077 0.0
H488 H 0.73767 0.8352 0.03403 0.0
H489 H 0.74125 0.89796 0.20001 0.0
H490 H 0.74423 0.8763 0.02454 0.0
H491 H 0.74573 0.86179 0.20865 0.0
C492 C 0.74119 0.84209 0.17278 0.0
C493 C 0.73834 0.83414 0.1239 0.0
C494 C 0.74378 0.88115 0.06308 0.0
C495 C 0.74427 0.86204 0.11859 0.0
C496 C 0.74139 0.89248 0.06094 0.0
C497 C 0.74 0.89852 0.1102 0.0
C498 C 0.74465 0.87571 0.11484 0.0
C499 C 0.74206 0.89351 0.161 0.0
C500 C 0.74418 0.85604 0.17029 0.0
C501 C 0.73956 0.84085 0.07285 0.0
N502 N 0.74405 0.88224 0.16205 0.0
N503 N 0.74224 0.85434 0.07159 0.0
H504 H 0.10092 0.83395 0.20637 0.0
H505 H 0.16015 0.89962 0.04 0.0
H506 H 0.10189 0.83866 0.02803 0.0
H507 H 0.16181 0.89379 0.21672 0.0
H508 H 0.13611 0.87991 0.03841 0.0
H509 H 0.12044 0.85817 0.21396 0.0
C510 C 0.10508 0.84014 0.16889 0.0
C511 C 0.09996 0.8342 0.1164 0.0
C512 C 0.14165 0.88304 0.07772 0.0
C513 C 0.12226 0.86184 0.1248 0.0
C514 C 0.15539 0.89432 0.07867 0.0
C515 C 0.16309 0.89817 0.1284 0.0
C516 C 0.1356 0.87547 0.12673 0.0
C517 C 0.1563 0.89106 0.17733 0.0
C518 C 0.11623 0.85395 0.17326 0.0
C519 C 0.10567 0.84274 0.06929 0.0
N520 N 0.143 0.87988 0.17512 0.0
N521 N 0.11661 0.85606 0.07458 0.0
H522 H 0.25456 0.10199 0.97482 0.0
H523 H 0.2548 0.15679 0.75856 0.0
H524 H 0.25418 0.09688 0.79687 0.0
H525 H 0.25583 0.16177 0.93675 0.0
H526 H 0.24948 0.13251 0.77153 0.0
H527 H 0.24983 0.12127 0.96146 0.0
C528 C 0.25326 0.10477 0.93292 0.0
C529 C 0.25507 0.09801 0.88685 0.0
C530 C 0.25064 0.13885 0.80778 0.0
C531 C 0.24984 0.12022 0.8712 0.0
C532 C 0.25366 0.15271 0.8004 0.0
C533 C 0.25606 0.16142 0.84665 0.0
C534 C 0.25009 0.1337 0.86176 0.0
C535 C 0.25432 0.15553 0.89986 0.0
C536 C 0.25056 0.11581 0.9253 0.0
C537 C 0.25306 0.10193 0.83358 0.0
N538 N 0.25164 0.14211 0.90594 0.0
N539 N 0.2508 0.11295 0.82716 0.0
H540 H 0.83643 0.10196 0.781 0.0
H541 H 0.89328 0.15695 0.99081 0.0
H542 H 0.83385 0.09769 0.9596 0.0
H543 H 0.896 0.16228 0.81265 0.0
H544 H 0.87399 0.13293 0.97862 0.0
H545 H 0.86054 0.12154 0.79025 0.0
C546 C 0.84101 0.10496 0.82209 0.0
C547 C 0.83302 0.09838 0.86967 0.0
C548 C 0.8789 0.13927 0.94209 0.0
C549 C 0.86051 0.12081 0.88054 0.0
C550 C 0.88993 0.15301 0.94904 0.0
C551 C 0.89607 0.16171 0.9027 0.0
C552 C 0.87387 0.13424 0.88843 0.0
C553 C 0.89144 0.15597 0.84957 0.0
C554 C 0.85477 0.11617 0.82734 0.0
C555 C 0.83953 0.10263 0.92181 0.0
N556 N 0.88045 0.14265 0.84389 0.0
N557 N 0.85282 0.1137 0.92587 0.0
H558 H 0.83124 0.73423 0.91723 0.0
H559 H 0.89635 0.73042 0.78928 0.0
H560 H 0.833 0.72269 0.74712 0.0
H561 H 0.8899 0.73332 0.96463 0.0
H562 H 0.87586 0.73295 0.76933 0.0
H563 H 0.85543 0.73951 0.93049 0.0
C564 C 0.83678 0.733 0.88235 0.0
C565 C 0.82999 0.72775 0.83123 0.0
C566 C 0.87905 0.7332 0.81211 0.0
C567 C 0.85767 0.7337 0.84638 0.0
C568 C 0.89076 0.73179 0.82355 0.0
C569 C 0.8947 0.73144 0.87877 0.0
C570 C 0.8713 0.73434 0.85618 0.0
C571 C 0.88711 0.73333 0.92148 0.0
C572 C 0.85058 0.73599 0.89005 0.0
C573 C 0.83776 0.72654 0.78743 0.0
N574 N 0.87571 0.73458 0.9093 0.0
N575 N 0.85114 0.72931 0.79622 0.0
H576 H 0.82599 0.59536 0.5697 0.0
H577 H 0.77046 0.59316 0.35056 0.0
H578 H 0.83184 0.59783 0.39181 0.0
H579 H 0.76481 0.59265 0.52824 0.0
H580 H 0.79095 0.59047 0.36524 0.0
H581 H 0.80175 0.5901 0.55563 0.0
C582 C 0.82213 0.5946 0.52769 0.0
C583 C 0.83102 0.59727 0.48188 0.0
C584 C 0.78515 0.59078 0.40108 0.0
C585 C 0.80337 0.59132 0.46553 0.0
C586 C 0.77343 0.59231 0.3927 0.0
C587 C 0.76606 0.59338 0.43828 0.0
C588 C 0.78963 0.59044 0.45544 0.0
C589 C 0.77028 0.59202 0.49191 0.0
C590 C 0.8083 0.59162 0.5197 0.0
C591 C 0.82543 0.59606 0.42839 0.0
N592 N 0.78193 0.59083 0.49906 0.0
N593 N 0.81202 0.59332 0.42174 0.0
H594 H 0.39673 0.17092 0.57235 0.0
H595 H 0.40118 0.22774 0.35664 0.0
H596 H 0.40286 0.16945 0.39581 0.0
H597 H 0.3968 0.23073 0.5336 0.0
H598 H 0.40602 0.20863 0.37262 0.0
H599 H 0.40104 0.19493 0.56176 0.0
C600 C 0.39925 0.17573 0.53155 0.0
C601 C 0.39914 0.16807 0.48471 0.0
C602 C 0.40418 0.21357 0.4081 0.0
C603 C 0.40394 0.19544 0.47224 0.0
C604 C 0.4014 0.22448 0.39896 0.0
C605 C 0.39833 0.23066 0.44379 0.0
C606 C 0.40372 0.20866 0.46242 0.0
C607 C 0.39896 0.22615 0.49777 0.0
C608 C 0.40167 0.18943 0.5255 0.0
C609 C 0.40258 0.17487 0.43294 0.0
N610 N 0.40135 0.21525 0.50554 0.0
N611 N 0.40462 0.18808 0.42799 0.0
H612 H 0.82516 0.23421 0.40736 0.0
H613 H 0.76056 0.16925 0.55639 0.0
H614 H 0.82168 0.22807 0.58512 0.0
H615 H 0.76629 0.17403 0.37864 0.0
H616 H 0.78023 0.19321 0.5683 0.0
H617 H 0.80107 0.21488 0.39721 0.0
C618 C 0.81926 0.22893 0.44438 0.0
C619 C 0.82554 0.23259 0.49712 0.0
C620 C 0.77704 0.18908 0.52667 0.0
C621 C 0.79797 0.21032 0.48568 0.0
C622 C 0.76579 0.17541 0.51982 0.0
C623 C 0.76194 0.16953 0.46646 0.0
C624 C 0.78448 0.19691 0.47984 0.0
C625 C 0.76903 0.17805 0.4206 0.0
C626 C 0.80549 0.21787 0.43853 0.0
C627 C 0.81732 0.22549 0.5436 0.0
N628 N 0.78006 0.19123 0.42839 0.0
N629 N 0.80401 0.21454 0.53674 0.0
H630 H 0.92986 0.49493 0.12372 0.0
H631 H 0.92429 0.42973 0.29147 0.0
H632 H 0.92615 0.49041 0.30212 0.0
H633 H 0.93182 0.43555 0.11481 0.0
H634 H 0.91974 0.44931 0.29267 0.0
H635 H 0.92555 0.47084 0.11674 0.0
C636 C 0.92791 0.48881 0.16135 0.0
C637 C 0.92862 0.49478 0.21367 0.0
C638 C 0.9222 0.4462 0.25347 0.0
C639 C 0.92374 0.46727 0.20597 0.0
C640 C 0.92479 0.435 0.25273 0.0
C641 C 0.92872 0.43118 0.20314 0.0
C642 C 0.92367 0.45373 0.20435 0.0
C643 C 0.929 0.43825 0.15412 0.0
C644 C 0.92548 0.47507 0.15732 0.0
C645 C 0.92592 0.48632 0.26097 0.0
N646 N 0.92674 0.44935 0.1561 0.0
N647 N 0.92377 0.47307 0.25602 0.0
H648 H 0.5679 0.49885 0.26184 0.0
H649 H 0.49913 0.43585 0.12495 0.0
H650 H 0.55516 0.49911 0.09227 0.0
H651 H 0.50978 0.43871 0.299 0.0
H652 H 0.52229 0.45631 0.10667 0.0
H653 H 0.54958 0.47425 0.26977 0.0
C654 C 0.56137 0.49368 0.22597 0.0
C655 C 0.56286 0.50113 0.17667 0.0
C656 C 0.51962 0.45232 0.1487 0.0
C657 C 0.54175 0.47298 0.1857 0.0
C658 C 0.50642 0.44062 0.15917 0.0
C659 C 0.50243 0.43575 0.21376 0.0
C660 C 0.52886 0.45913 0.19316 0.0
C661 C 0.51232 0.44227 0.25641 0.0
C662 C 0.55089 0.47962 0.23056 0.0
C663 C 0.55425 0.49382 0.1313 0.0
N664 N 0.52501 0.45372 0.24529 0.0
N665 N 0.54389 0.48019 0.13719 0.0
H666 H 0.56053 0.06985 0.10745 0.0
H667 H 0.50323 0.07114 0.30588 0.0
H668 H 0.56242 0.07033 0.28668 0.0
H669 H 0.49912 0.06716 0.12743 0.0
H670 H 0.52749 0.07631 0.29781 0.0
H671 H 0.5408 0.07424 0.11255 0.0
C672 C 0.55697 0.07113 0.14785 0.0
C673 C 0.56294 0.06944 0.19675 0.0
C674 C 0.52136 0.0745 0.26031 0.0
C675 C 0.54034 0.07437 0.20284 0.0
C676 C 0.50749 0.07155 0.26488 0.0
C677 C 0.49904 0.06842 0.21732 0.0
C678 C 0.5268 0.07419 0.20785 0.0
C679 C 0.5052 0.06932 0.16526 0.0
C680 C 0.54568 0.07361 0.15072 0.0
C681 C 0.55798 0.07131 0.24792 0.0
N682 N 0.51865 0.0719 0.16196 0.0
N683 N 0.54685 0.07349 0.24962 0.0
H684 H 0.42745 0.91781 0.67204 0.0
H685 H 0.48907 0.92484 0.86845 0.0
H686 H 0.43037 0.92705 0.84753 0.0
H687 H 0.48932 0.92235 0.68945 0.0
H688 H 0.46458 0.91937 0.86461 0.0
H689 H 0.44687 0.91309 0.6815 0.0
C690 C 0.43199 0.91859 0.71277 0.0
C691 C 0.4275 0.92315 0.75882 0.0
C692 C 0.46994 0.9198 0.82626 0.0
C693 C 0.44978 0.91786 0.76982 0.0
C694 C 0.48391 0.92288 0.82842 0.0
C695 C 0.49134 0.92435 0.77912 0.0
C696 C 0.46338 0.91817 0.77445 0.0
C697 C 0.48408 0.92158 0.72846 0.0
C698 C 0.44311 0.91593 0.7181 0.0
C699 C 0.43368 0.92382 0.81068 0.0
N700 N 0.47056 0.91882 0.72739 0.0
N701 N 0.44465 0.92143 0.81462 0.0
H702 H 0.06971 0.5657 0.90949 0.0
H703 H 0.07126 0.50691 0.7211 0.0
H704 H 0.07006 0.56603 0.73009 0.0
H705 H 0.06746 0.50433 0.89984 0.0
H706 H 0.07626 0.53118 0.7254 0.0
H707 H 0.07424 0.54602 0.90811 0.0
C708 C 0.07099 0.56181 0.86982 0.0
C709 C 0.06923 0.56733 0.8198 0.0
C710 C 0.07453 0.52539 0.76379 0.0
C711 C 0.07432 0.54479 0.81797 0.0
C712 C 0.07168 0.51152 0.76137 0.0
C713 C 0.06865 0.50349 0.81011 0.0
C714 C 0.07423 0.53125 0.81527 0.0
C715 C 0.06955 0.51008 0.86115 0.0
C716 C 0.07354 0.55055 0.86908 0.0
C717 C 0.07111 0.56195 0.76967 0.0
N718 N 0.07203 0.52352 0.86235 0.0
N719 N 0.07336 0.55086 0.77004 0.0
H720 H 0.42856 0.49974 0.73568 0.0
H721 H 0.49166 0.56666 0.88276 0.0
H722 H 0.43361 0.50463 0.91366 0.0
H723 H 0.48741 0.56005 0.7053 0.0
H724 H 0.46824 0.54612 0.89494 0.0
H725 H 0.44773 0.52385 0.72415 0.0
C726 C 0.43359 0.50594 0.77241 0.0
C727 C 0.42963 0.50008 0.82572 0.0
C728 C 0.47236 0.54928 0.85331 0.0
C729 C 0.45171 0.5277 0.81276 0.0
C730 C 0.48573 0.56102 0.8463 0.0
C731 C 0.4916 0.56493 0.79298 0.0
C732 C 0.46484 0.54142 0.80666 0.0
C733 C 0.48339 0.5573 0.74725 0.0
C734 C 0.44456 0.51973 0.76579 0.0
C735 C 0.43642 0.50868 0.87177 0.0
N736 N 0.4705 0.54583 0.7552 0.0
N737 N 0.44727 0.52201 0.86422 0.0
H738 H 0.59269 0.82792 0.60706 0.0
H739 H 0.59636 0.7675 0.43758 0.0
H740 H 0.59848 0.82895 0.42933 0.0
H741 H 0.59486 0.76932 0.6165 0.0
H742 H 0.59198 0.78726 0.4316 0.0
H743 H 0.58808 0.80377 0.60856 0.0
C744 C 0.59279 0.82299 0.56818 0.0
C745 C 0.59625 0.83056 0.51813 0.0
C746 C 0.59241 0.78319 0.47211 0.0
C747 C 0.59115 0.80294 0.51966 0.0
C748 C 0.59489 0.7719 0.47556 0.0
C749 C 0.59623 0.76693 0.52765 0.0
C750 C 0.59126 0.7895 0.52109 0.0
C751 C 0.59414 0.77296 0.57547 0.0
C752 C 0.59017 0.8092 0.56908 0.0
C753 C 0.59602 0.82357 0.46896 0.0
N754 N 0.59191 0.78402 0.57103 0.0
N755 N 0.59375 0.81021 0.47106 0.0
H756 H 0.16995 0.76316 0.60787 0.0
H757 H 0.23416 0.82458 0.44236 0.0
H758 H 0.17253 0.76576 0.42885 0.0
H759 H 0.22903 0.82373 0.62044 0.0
H760 H 0.2143 0.80053 0.43739 0.0
H761 H 0.19411 0.78259 0.61348 0.0
C762 C 0.17566 0.76768 0.56967 0.0
C763 C 0.16911 0.763 0.51779 0.0
C764 C 0.21765 0.80554 0.47762 0.0
C765 C 0.19677 0.78536 0.52399 0.0
C766 C 0.22902 0.81927 0.48053 0.0
C767 C 0.2331 0.82627 0.5318 0.0
C768 C 0.21034 0.7988 0.52634 0.0
C769 C 0.22611 0.81882 0.5799 0.0
C770 C 0.18947 0.7788 0.57293 0.0
C771 C 0.17711 0.76914 0.46974 0.0
N772 N 0.21497 0.80556 0.5759 0.0
N773 N 0.19046 0.78016 0.474 0.0
H774 H 0.23312 0.41034 0.45354 0.0
H775 H 0.16769 0.40658 0.61187 0.0
H776 H 0.22748 0.40682 0.63152 0.0
H777 H 0.1712 0.40654 0.4332 0.0
H778 H 0.19203 0.412 0.61986 0.0
H779 H 0.21313 0.41426 0.44584 0.0
C780 C 0.22785 0.41064 0.4911 0.0
C781 C 0.2318 0.40797 0.54317 0.0
C782 C 0.18756 0.411 0.57885 0.0
C783 C 0.20888 0.41236 0.53458 0.0
C784 C 0.17364 0.40791 0.57424 0.0
C785 C 0.16731 0.40583 0.52178 0.0
C786 C 0.19518 0.41191 0.53069 0.0
C787 C 0.17561 0.40788 0.47451 0.0
C788 C 0.21641 0.41284 0.48664 0.0
C789 C 0.22465 0.4086 0.59043 0.0
N790 N 0.18906 0.41059 0.4801 0.0
N791 N 0.21343 0.41054 0.58492 0.0
H792 H 0.02471 0.24731 0.13816 0.0
H793 H 0.97045 0.21854 0.88364 0.0
H794 H 0.03725 0.25379 0.96571 0.0
H795 H 0.95806 0.21592 0.05549 0.0
H796 H 0.99496 0.22894 0.91336 0.0
H797 H 0.00017 0.23318 0.10895 0.0
C798 C 0.02232 0.24567 0.09419 0.0
C799 C 0.03303 0.25186 0.05433 0.0
C800 C 0.98686 0.22601 0.94455 0.0
C801 C 0.005 0.23575 0.02061 0.0
C802 C 0.97286 0.22006 0.9276 0.0
C803 C 0.96221 0.21649 0.96708 0.0
C804 C 0.9902 0.22837 0.00136 0.0
C805 C 0.96594 0.21863 0.02353 0.0
C806 C 0.00831 0.23763 0.07753 0.0
C807 C 0.02932 0.24933 0.99791 0.0
N808 N 0.97963 0.2245 0.03894 0.0
N809 N 0.01561 0.24154 0.98274 0.0
H810 H 0.7384 0.70437 0.9464 0.0
H811 H 0.7482 0.77887 0.03858 0.0
H812 H 0.77732 0.74368 0.92668 0.0
H813 H 0.70874 0.73969 0.04632 0.0
H814 H 0.75946 0.76612 0.00207 0.0
H815 H 0.72767 0.71716 0.98646 0.0
C816 C 0.74469 0.71571 0.95034 0.0
C817 C 0.75878 0.72297 0.93307 0.0
C818 C 0.74835 0.76032 0.01195 0.0
C819 C 0.74656 0.73769 0.97926 0.0
C820 C 0.74192 0.76758 0.03298 0.0
C821 C 0.72749 0.76034 0.04532 0.0
C822 C 0.74028 0.74572 0.00333 0.0
C823 C 0.71988 0.74572 0.0372 0.0
C824 C 0.73855 0.72301 0.97332 0.0
C825 C 0.76641 0.73766 0.93931 0.0
N826 N 0.72636 0.73891 0.01659 0.0
N827 N 0.7602 0.74454 0.96198 0.0
H828 H 0.21399 0.96495 0.03574 0.0
H829 H 0.28607 0.03849 0.02351 0.0
H830 H 0.25477 0.96988 0.07161 0.0
H831 H 0.24632 0.03326 0.96771 0.0
H832 H 0.27444 0.01351 0.04544 0.0
H833 H 0.22531 0.99011 0.01508 0.0
C834 C 0.22531 0.97132 0.03944 0.0
C835 C 0.23346 0.9653 0.05535 0.0
C836 C 0.26824 0.0178 0.02834 0.0
C837 C 0.24645 0.99406 0.03174 0.0
C838 C 0.27488 0.03209 0.01581 0.0
C839 C 0.26715 0.03798 0.99368 0.0
C840 C 0.25374 0.0093 0.0189 0.0
C841 C 0.25268 0.02914 0.98461 0.0
C842 C 0.23177 0.98568 0.0275 0.0
C843 C 0.24808 0.97406 0.05939 0.0
N844 N 0.24643 0.01522 0.99735 0.0
N845 N 0.2541 0.98799 0.04767 0.0
H846 H 0.97208 0.7503 0.8699 0.0
H847 H 0.02544 0.78327 0.12584 0.0
H848 H 0.95881 0.74863 0.03997 0.0
H849 H 0.03792 0.77969 0.95926 0.0
H850 H 0.00121 0.77363 0.09307 0.0
H851 H 0.99656 0.76431 0.89991 0.0
C852 C 0.9743 0.753 0.91345 0.0
C853 C 0.9634 0.74814 0.95257 0.0
C854 C 0.00929 0.77504 0.06369 0.0
C855 C 0.99136 0.7641 0.98724 0.0
C856 C 0.02311 0.78055 0.08236 0.0
C857 C 0.03368 0.78214 0.04538 0.0
C858 C 0.00606 0.77116 0.00764 0.0
C859 C 0.03008 0.77851 0.98941 0.0
C860 C 0.98828 0.76096 0.9306 0.0
C861 C 0.96689 0.75202 0.00844 0.0
N862 N 0.01657 0.77312 0.97233 0.0
N863 N 0.98058 0.75968 0.02417 0.0
H864 H 0.28647 0.25674 0.91626 0.0
H865 H 0.21623 0.25126 0.03994 0.0
H866 H 0.24685 0.21778 0.92581 0.0
H867 H 0.2554 0.29033 0.02035 0.0
H868 H 0.22724 0.23869 0.99939 0.0
H869 H 0.27514 0.26917 0.95417 0.0
C870 C 0.27536 0.2508 0.92604 0.0
C871 C 0.26761 0.23619 0.91799 0.0
C872 C 0.23342 0.25001 0.00401 0.0
C873 C 0.25456 0.25036 0.96188 0.0
C874 C 0.22716 0.25719 0.02734 0.0
C875 C 0.23492 0.27187 0.03355 0.0
C876 C 0.24753 0.25757 0.98689 0.0
C877 C 0.24902 0.27901 0.01637 0.0
C878 C 0.26889 0.25791 0.9478 0.0
C879 C 0.25323 0.22905 0.93134 0.0
N880 N 0.25486 0.27179 0.99382 0.0
N881 N 0.24718 0.23621 0.95288 0.0
H882 H 0.78015 0.03152 0.93569 0.0
H883 H 0.71169 0.9644 0.05793 0.0
H884 H 0.74224 0.03148 0.98383 0.0
H885 H 0.75034 0.96462 0.02183 0.0
H886 H 0.72288 0.98906 0.03076 0.0
H887 H 0.76948 0.00697 0.96571 0.0
C888 C 0.76957 0.02634 0.95239 0.0
C889 C 0.76207 0.03355 0.95723 0.0
C890 C 0.72895 0.98375 0.02893 0.0
C891 C 0.74984 0.00554 0.9918 0.0
C892 C 0.72257 0.96966 0.04451 0.0
C893 C 0.73008 0.96243 0.04198 0.0
C894 C 0.74296 0.99069 0.0104 0.0
C895 C 0.74416 0.9698 0.02441 0.0
C896 C 0.76351 0.01235 0.96968 0.0
C897 C 0.74842 0.02635 0.9793 0.0
N898 N 0.75013 0.98353 0.00902 0.0
N899 N 0.74275 0.01275 0.99573 0.0
H900 H 0.62432 0.56347 0.33025 0.0
H901 H 0.70253 0.57767 0.29566 0.0
H902 H 0.6365 0.54475 0.19955 0.0
H903 H 0.68794 0.58995 0.4402 0.0
H904 H 0.67842 0.56504 0.26055 0.0
H905 H 0.6476 0.57299 0.3713 0.0
C906 C 0.6319 0.56136 0.31012 0.0
C907 C 0.62849 0.55338 0.26112 0.0
C908 C 0.68048 0.57039 0.30018 0.0
C909 C 0.65522 0.56428 0.3081 0.0
C910 C 0.69424 0.57761 0.32028 0.0
C911 C 0.69727 0.58499 0.37073 0.0
C912 C 0.6697 0.57066 0.33052 0.0
C913 C 0.6861 0.58447 0.40099 0.0
C914 C 0.64519 0.56675 0.33379 0.0
C915 C 0.6387 0.55089 0.23724 0.0
N916 N 0.67283 0.57754 0.38014 0.0
N917 N 0.65167 0.55641 0.26078 0.0
H918 H 0.4465 0.08117 0.31362 0.0
H919 H 0.37267 0.07456 0.39416 0.0
H920 H 0.4073 0.04175 0.32237 0.0
H921 H 0.41215 0.11376 0.39842 0.0
H922 H 0.38518 0.06252 0.36479 0.0
H923 H 0.43405 0.09351 0.34087 0.0
C924 C 0.43528 0.07511 0.32104 0.0
C925 C 0.42793 0.0604 0.31585 0.0
C926 C 0.39112 0.07375 0.37221 0.0
C927 C 0.41365 0.07443 0.34716 0.0
C928 C 0.38398 0.08064 0.38904 0.0
C929 C 0.39138 0.09519 0.39883 0.0
C930 C 0.40578 0.08147 0.36496 0.0
C931 C 0.40603 0.10252 0.39144 0.0
C932 C 0.42818 0.08216 0.33674 0.0
C933 C 0.4134 0.0531 0.32601 0.0
N934 N 0.41275 0.09558 0.37487 0.0
N935 N 0.40675 0.06019 0.34123 0.0
H936 H 0.92022 0.30039 0.43287 0.0
H937 H 0.91397 0.3643 0.30374 0.0
H938 H 0.8807 0.2996 0.41402 0.0
H939 H 0.95331 0.36523 0.33125 0.0
H940 H 0.90146 0.34059 0.34331 0.0
H941 H 0.93244 0.3243 0.39635 0.0
C942 C 0.91411 0.30528 0.42133 0.0
C943 C 0.8994 0.29797 0.42635 0.0
C944 C 0.91283 0.34599 0.34064 0.0
C945 C 0.91335 0.32536 0.38402 0.0
C946 C 0.91998 0.35951 0.31788 0.0
C947 C 0.93471 0.36676 0.31416 0.0
C948 C 0.92049 0.33969 0.35968 0.0
C949 C 0.94195 0.36004 0.33327 0.0
C950 C 0.9211 0.31894 0.40036 0.0
C951 C 0.89205 0.30485 0.41084 0.0
N952 N 0.93477 0.34691 0.35519 0.0
N953 N 0.8991 0.31816 0.3901 0.0
H954 H 0.69656 0.1176 0.35865 0.0
H955 H 0.63121 0.04398 0.26274 0.0
H956 H 0.69781 0.07902 0.34355 0.0
H957 H 0.62963 0.08248 0.27182 0.0
H958 H 0.65583 0.05693 0.29067 0.0
H959 H 0.67214 0.10514 0.32627 0.0
C960 C 0.6917 0.10652 0.34863 0.0
C961 C 0.69923 0.09933 0.35391 0.0
C962 C 0.65013 0.06258 0.2864 0.0
C963 C 0.67136 0.08505 0.31671 0.0
C964 C 0.63606 0.05518 0.27036 0.0
C965 C 0.62833 0.06215 0.26512 0.0
C966 C 0.65656 0.07706 0.29751 0.0
C967 C 0.6352 0.07669 0.2754 0.0
C968 C 0.67778 0.09942 0.33004 0.0
C969 C 0.69242 0.08499 0.34021 0.0
N970 N 0.64892 0.08366 0.29137 0.0
N971 N 0.67888 0.07833 0.3223 0.0
H972 H 0.8769 0.58674 0.28643 0.0
H973 H 0.92232 0.55088 0.36955 0.0
H974 H 0.89333 0.5883 0.45098 0.0
H975 H 0.91047 0.55344 0.20064 0.0
H976 H 0.90945 0.5623 0.40133 0.0
H977 H 0.8869 0.57236 0.25574 0.0
C978 C 0.88254 0.58399 0.31622 0.0
C979 C 0.88437 0.58881 0.37131 0.0
C980 C 0.9096 0.56032 0.35733 0.0
C981 C 0.89583 0.57237 0.33639 0.0
C982 C 0.91695 0.55377 0.33908 0.0
C983 C 0.91758 0.5513 0.28221 0.0
C984 C 0.90282 0.56445 0.31852 0.0
C985 C 0.91033 0.55521 0.24482 0.0
C986 C 0.88826 0.5758 0.2986 0.0
C987 C 0.89174 0.58489 0.40807 0.0
N988 N 0.9033 0.56167 0.26362 0.0
N989 N 0.89724 0.57694 0.38988 0.0
H990 H 0.45236 0.37253 0.38221 0.0
H991 H 0.40765 0.2924 0.2847 0.0
H992 H 0.44329 0.35963 0.21056 0.0
H993 H 0.41686 0.30512 0.45649 0.0
H994 H 0.42235 0.31686 0.25655 0.0
H995 H 0.44118 0.34786 0.40977 0.0
C996 C 0.44812 0.36452 0.35023 0.0
C997 C 0.44865 0.36815 0.29397 0.0
C998 C 0.42124 0.31431 0.3004 0.0
C999 C 0.43577 0.33987 0.32537 0.0
C1000 C 0.41282 0.30033 0.31657 0.0
C1001 C 0.41092 0.29672 0.37313 0.0
C1002 C 0.42776 0.3248 0.34104 0.0
C1003 C 0.41797 0.30744 0.41246 0.0
C1004 C 0.44173 0.35042 0.36604 0.0
C1005 C 0.44305 0.35732 0.25441 0.0
N1006 N 0.42601 0.32102 0.39567 0.0
N1007 N 0.43674 0.34366 0.27091 0.0
H1008 H 0.29826 0.87895 0.62867 0.0
H1009 H 0.36787 0.95342 0.677 0.0
H1010 H 0.30188 0.91899 0.58838 0.0
H1011 H 0.36351 0.91405 0.73324 0.0
H1012 H 0.34411 0.94069 0.63938 0.0
H1013 H 0.32265 0.89133 0.66127 0.0
C1014 C 0.30421 0.89033 0.62627 0.0
C1015 C 0.298 0.89795 0.60601 0.0
C1016 C 0.34832 0.93481 0.65996 0.0
C1017 C 0.32585 0.91216 0.64344 0.0
C1018 C 0.3619 0.94209 0.68155 0.0
C1019 C 0.36768 0.93479 0.70848 0.0
C1020 C 0.34041 0.92011 0.66517 0.0
C1021 C 0.35945 0.9201 0.71297 0.0
C1022 C 0.31811 0.89738 0.64509 0.0
C1023 C 0.3062 0.91268 0.60391 0.0
N1024 N 0.34622 0.91322 0.6915 0.0
N1025 N 0.31967 0.91929 0.62254 0.0
H1026 H 0.08104 0.45089 0.70118 0.0
H1027 H 0.07299 0.37788 0.59789 0.0
H1028 H 0.04135 0.41206 0.68923 0.0
H1029 H 0.11256 0.41702 0.5984 0.0
H1030 H 0.06129 0.39038 0.63126 0.0
H1031 H 0.09291 0.43875 0.66452 0.0
C1032 C 0.07483 0.43981 0.691 0.0
C1033 C 0.06018 0.43247 0.69832 0.0
C1034 C 0.07253 0.39626 0.62391 0.0
C1035 C 0.07368 0.41856 0.65622 0.0
C1036 C 0.07922 0.38913 0.60477 0.0
C1037 C 0.09379 0.39641 0.59548 0.0
C1038 C 0.08045 0.4108 0.6341 0.0
C1039 C 0.10131 0.41099 0.60503 0.0
C1040 C 0.08161 0.4329 0.66992 0.0
C1041 C 0.05265 0.41814 0.6843 0.0
N1042 N 0.09455 0.4177 0.62406 0.0
N1043 N 0.05949 0.41166 0.66397 0.0
H1044 H 0.54583 0.62937 0.64291 0.0
H1045 H 0.58025 0.70911 0.74605 0.0
H1046 H 0.54713 0.64101 0.81514 0.0
H1047 H 0.58407 0.69691 0.57926 0.0
H1048 H 0.56531 0.68426 0.77005 0.0
H1049 H 0.55693 0.6541 0.61708 0.0
C1050 C 0.54836 0.63712 0.67534 0.0
C1051 C 0.54568 0.63312 0.73139 0.0
C1052 C 0.56935 0.68704 0.72813 0.0
C1053 C 0.55846 0.66152 0.70197 0.0
C1054 C 0.57786 0.70122 0.71434 0.0
C1055 C 0.58352 0.70507 0.66068 0.0
C1056 C 0.56645 0.67668 0.68789 0.0
C1057 C 0.58003 0.69441 0.62126 0.0
C1058 C 0.55472 0.65126 0.66051 0.0
C1059 C 0.5491 0.64363 0.77147 0.0
N1060 N 0.57178 0.6807 0.63574 0.0
N1061 N 0.55541 0.65738 0.756 0.0
H1062 H 0.3618 0.44817 0.75709 0.0
H1063 H 0.2977 0.38075 0.61372 0.0
H1064 H 0.36072 0.40878 0.72848 0.0
H1065 H 0.29677 0.41887 0.64899 0.0
H1066 H 0.32138 0.39154 0.65185 0.0
H1067 H 0.33832 0.4381 0.7158 0.0
C1068 C 0.3566 0.43739 0.74244 0.0
C1069 C 0.36323 0.42929 0.74626 0.0
C1070 C 0.31604 0.39759 0.65118 0.0
C1071 C 0.33648 0.4178 0.69862 0.0
C1072 C 0.30251 0.39144 0.62921 0.0
C1073 C 0.29521 0.39889 0.62844 0.0
C1074 C 0.32235 0.4113 0.67273 0.0
C1075 C 0.30202 0.41274 0.64886 0.0
C1076 C 0.34323 0.43168 0.71872 0.0
C1077 C 0.35603 0.41541 0.72647 0.0
N1078 N 0.31521 0.41848 0.67047 0.0
N1079 N 0.34308 0.41013 0.70343 0.0
H1080 H 0.62152 0.92309 0.61451 0.0
H1081 H 0.54635 0.91384 0.69063 0.0
H1082 H 0.58265 0.88335 0.6059 0.0
H1083 H 0.58521 0.95366 0.69375 0.0
H1084 H 0.55944 0.90236 0.66091 0.0
H1085 H 0.60832 0.93441 0.64404 0.0
C1086 C 0.6102 0.91674 0.61865 0.0
C1087 C 0.60318 0.90224 0.60775 0.0
C1088 C 0.5651 0.9136 0.66816 0.0
C1089 C 0.588 0.91514 0.64182 0.0
C1090 C 0.55764 0.92016 0.68525 0.0
C1091 C 0.5647 0.93474 0.69463 0.0
C1092 C 0.57972 0.92168 0.66046 0.0
C1093 C 0.57932 0.9424 0.68696 0.0
C1094 C 0.60267 0.92322 0.6356 0.0
C1095 C 0.58849 0.89456 0.61385 0.0
N1096 N 0.58634 0.93578 0.67027 0.0
N1097 N 0.58139 0.9011 0.63059 0.0
H1098 H 0.08179 0.63274 0.72551 0.0
H1099 H 0.07493 0.69542 0.58732 0.0
H1100 H 0.04236 0.63171 0.69892 0.0
H1101 H 0.11463 0.69671 0.60854 0.0
H1102 H 0.06289 0.67183 0.62684 0.0
H1103 H 0.09414 0.65614 0.68311 0.0
C1104 C 0.07574 0.63746 0.71104 0.0
C1105 C 0.06102 0.63026 0.71579 0.0
C1106 C 0.07423 0.67723 0.62271 0.0
C1107 C 0.07506 0.65695 0.66695 0.0
C1108 C 0.08112 0.69071 0.6 0.0
C1109 C 0.09582 0.69808 0.5948 0.0
C1110 C 0.08209 0.67105 0.64062 0.0
C1111 C 0.10328 0.69141 0.61181 0.0
C1112 C 0.08279 0.65079 0.68665 0.0
C1113 C 0.05371 0.63685 0.69616 0.0
N1114 N 0.09633 0.67828 0.63424 0.0
N1115 N 0.06081 0.64981 0.67259 0.0
H1116 H 0.1304 0.34191 0.64688 0.0
H1117 H 0.08582 0.31623 0.92861 0.0
H1118 H 0.10455 0.35834 0.70891 0.0
H1119 H 0.1081 0.29656 0.85993 0.0
H1120 H 0.09345 0.33236 0.84992 0.0
H1121 H 0.12312 0.32575 0.72598 0.0
C1122 C 0.12319 0.34212 0.67707 0.0
C1123 C 0.11808 0.35149 0.67125 0.0
C1124 C 0.09668 0.32452 0.85198 0.0
C1125 C 0.10975 0.33307 0.76184 0.0
C1126 C 0.09234 0.3153 0.897 0.0
C1127 C 0.09631 0.30499 0.90084 0.0
C1128 C 0.10509 0.32348 0.81043 0.0
C1129 C 0.10477 0.30432 0.85861 0.0
C1130 C 0.11904 0.33289 0.7222 0.0
C1131 C 0.10876 0.3513 0.71165 0.0
N1132 N 0.10889 0.31345 0.81513 0.0
N1133 N 0.10492 0.34225 0.75521 0.0
H1134 H 0.67985 0.80321 0.9732 0.0
H1135 H 0.64448 0.74839 0.72298 0.0
H1136 H 0.68787 0.7692 0.93951 0.0
H1137 H 0.63687 0.78281 0.75334 0.0
H1138 H 0.66021 0.75577 0.80307 0.0
H1139 H 0.66381 0.79578 0.89374 0.0
C1140 C 0.67823 0.79417 0.94917 0.0
C1141 C 0.68523 0.78683 0.963 0.0
C1142 C 0.6551 0.76171 0.79226 0.0
C1143 C 0.66691 0.77828 0.87205 0.0
C1144 C 0.64611 0.7575 0.74648 0.0
C1145 C 0.63935 0.765 0.73138 0.0
C1146 C 0.65736 0.77351 0.82329 0.0
C1147 C 0.64187 0.77672 0.76344 0.0
C1148 C 0.66908 0.78995 0.90378 0.0
C1149 C 0.68273 0.7752 0.93036 0.0
N1150 N 0.65067 0.78062 0.80789 0.0
N1151 N 0.67378 0.77129 0.88644 0.0
H1152 H 0.18654 0.87979 0.91972 0.0
H1153 H 0.25081 0.89208 0.72485 0.0
H1154 H 0.22892 0.91456 0.93857 0.0
H1155 H 0.20804 0.85866 0.69915 0.0
H1156 H 0.24298 0.90021 0.80417 0.0
H1157 H 0.19422 0.87163 0.83979 0.0
C1158 C 0.19746 0.88571 0.90708 0.0
C1159 C 0.2071 0.89788 0.93592 0.0
C1160 C 0.23529 0.89111 0.7812 0.0
C1161 C 0.21596 0.88859 0.84444 0.0
C1162 C 0.23976 0.88644 0.73587 0.0
C1163 C 0.23006 0.87465 0.70529 0.0
C1164 C 0.22102 0.88393 0.79626 0.0
C1165 C 0.21588 0.86779 0.72151 0.0
C1166 C 0.20183 0.88105 0.86139 0.0
C1167 C 0.22112 0.90513 0.9176 0.0
N1168 N 0.21179 0.87252 0.76594 0.0
N1169 N 0.22512 0.90036 0.87309 0.0
H1170 H 0.32817 0.12438 0.02067 0.0
H1171 H 0.34147 0.1054 0.32797 0.0
H1172 H 0.29835 0.08744 0.11146 0.0
H1173 H 0.37306 0.14026 0.2327 0.0
H1174 H 0.325 0.09961 0.25098 0.0
H1175 H 0.34422 0.13138 0.10012 0.0
C1176 C 0.32496 0.11779 0.05738 0.0
C1177 C 0.31192 0.10528 0.05933 0.0
C1178 C 0.33553 0.10853 0.24689 0.0
C1179 C 0.33022 0.1132 0.15022 0.0
C1180 C 0.34494 0.11185 0.29087 0.0
C1181 C 0.35869 0.1233 0.2867 0.0
C1182 C 0.33986 0.11673 0.19832 0.0
C1183 C 0.36258 0.1313 0.23765 0.0
C1184 C 0.33414 0.12177 0.10266 0.0
C1185 C 0.30832 0.09714 0.10798 0.0
N1186 N 0.35322 0.12786 0.19532 0.0
N1187 N 0.31742 0.10123 0.15138 0.0
H1188 H 0.89158 0.25004 0.31942 0.0
H1189 H 0.8766 0.18447 0.12689 0.0
H1190 H 0.85695 0.20794 0.34643 0.0
H1191 H 0.91132 0.22666 0.10283 0.0
H1192 H 0.86908 0.19275 0.20708 0.0
H1193 H 0.89887 0.24153 0.23979 0.0
C1194 C 0.8855 0.23899 0.30865 0.0
C1195 C 0.87362 0.22969 0.33966 0.0
C1196 C 0.87834 0.20018 0.18422 0.0
C1197 C 0.88193 0.21985 0.24827 0.0
C1198 C 0.88264 0.19547 0.1384 0.0
C1199 C 0.89462 0.20488 0.1081 0.0
C1200 C 0.88608 0.21441 0.19981 0.0
C1201 C 0.90203 0.21902 0.12495 0.0
C1202 C 0.88968 0.23413 0.2631 0.0
C1203 C 0.86618 0.21548 0.32372 0.0
N1204 N 0.89764 0.22334 0.16963 0.0
N1205 N 0.87045 0.211 0.27906 0.0
H1206 H 0.78653 0.65914 0.29312 0.0
H1207 H 0.76729 0.67269 0.98685 0.0
H1208 H 0.74785 0.63089 0.20813 0.0
H1209 H 0.80273 0.70399 0.08059 0.0
H1210 H 0.76109 0.65646 0.06494 0.0
H1211 H 0.79371 0.67496 0.21294 0.0
C1212 C 0.77957 0.65624 0.25756 0.0
C1213 C 0.76655 0.64369 0.2574 0.0
C1214 C 0.77024 0.66687 0.06844 0.0
C1215 C 0.7747 0.66172 0.16562 0.0
C1216 C 0.7738 0.67615 0.0238 0.0
C1217 C 0.78553 0.68975 0.02727 0.0
C1218 C 0.77848 0.67119 0.11689 0.0
C1219 C 0.79357 0.69362 0.0762 0.0
C1220 C 0.78366 0.66529 0.21188 0.0
C1221 C 0.75796 0.64047 0.2102 0.0
N1222 N 0.78989 0.68439 0.11913 0.0
N1223 N 0.76218 0.64943 0.16627 0.0
H1224 H 0.89503 0.70861 0.162 0.0
H1225 H 0.89569 0.64295 0.30413 0.0
H1226 H 0.91112 0.68419 0.08299 0.0
H1227 H 0.87445 0.66338 0.37562 0.0
H1228 H 0.90273 0.65908 0.22552 0.0
H1229 H 0.88851 0.6931 0.24305 0.0
C1230 C 0.89718 0.7 0.16166 0.0
C1231 C 0.90362 0.69769 0.1156 0.0
C1232 C 0.89655 0.66006 0.2584 0.0
C1233 C 0.89626 0.67997 0.2082 0.0
C1234 C 0.89255 0.65087 0.30344 0.0
C1235 C 0.88443 0.65179 0.3465 0.0
C1236 C 0.89245 0.6703 0.25632 0.0
C1237 C 0.88068 0.66227 0.34328 0.0
C1238 C 0.89346 0.69115 0.20792 0.0
C1239 C 0.90616 0.68637 0.11747 0.0
N1240 N 0.88471 0.67112 0.2989 0.0
N1241 N 0.90249 0.67796 0.163 0.0
H1242 H 0.30708 0.22743 0.01953 0.0
H1243 H 0.3579 0.21206 0.20909 0.0
H1244 H 0.3143 0.1927 0.99056 0.0
H1245 H 0.3498 0.24625 0.23694 0.0
H1246 H 0.34218 0.2048 0.12857 0.0
H1247 H 0.323 0.23454 0.09876 0.0
C1248 C 0.31203 0.2213 0.02977 0.0
C1249 C 0.30933 0.20943 0.99836 0.0
C1250 C 0.34386 0.21389 0.15234 0.0
C1251 C 0.32761 0.21753 0.08934 0.0
C1252 C 0.35282 0.21804 0.19833 0.0
C1253 C 0.35518 0.22979 0.22983 0.0
C1254 C 0.33721 0.22155 0.13778 0.0
C1255 C 0.34831 0.23713 0.21393 0.0
C1256 C 0.32113 0.22537 0.07511 0.0
C1257 C 0.31607 0.20191 0.01362 0.0
N1258 N 0.33965 0.23289 0.16907 0.0
N1259 N 0.3249 0.20609 0.05811 0.0
H1260 H 0.78751 0.12223 0.98021 0.0
H1261 H 0.75614 0.10668 0.2888 0.0
H1262 H 0.77442 0.08328 0.06808 0.0
H1263 H 0.76276 0.14283 0.19331 0.0
H1264 H 0.76456 0.0989 0.21037 0.0
H1265 H 0.7801 0.13084 0.05981 0.0
C1266 C 0.7831 0.1155 0.01621 0.0
C1267 C 0.78156 0.10201 0.01745 0.0
C1268 C 0.76419 0.10854 0.20651 0.0
C1269 C 0.77312 0.1118 0.10858 0.0
C1270 C 0.75941 0.11302 0.25138 0.0
C1271 C 0.7587 0.12541 0.24757 0.0
C1272 C 0.76835 0.11652 0.15742 0.0
C1273 C 0.76309 0.13319 0.198 0.0
C1274 C 0.77886 0.12041 0.06158 0.0
C1275 C 0.77577 0.09374 0.06518 0.0
N1276 N 0.76772 0.12861 0.1548 0.0
N1277 N 0.77178 0.09877 0.1088 0.0
H1278 H 0.64814 0.89627 0.70246 0.0
H1279 H 0.68225 0.87275 0.94425 0.0
H1280 H 0.63918 0.85351 0.72467 0.0
H1281 H 0.69197 0.9156 0.91714 0.0
H1282 H 0.66631 0.86537 0.86447 0.0
H1283 H 0.66415 0.90344 0.78157 0.0
C1284 C 0.64954 0.88838 0.72395 0.0
C1285 C 0.64229 0.87426 0.7069 0.0
C1286 C 0.67194 0.87639 0.87599 0.0
C1287 C 0.66063 0.88241 0.7977 0.0
C1288 C 0.68104 0.8806 0.92155 0.0
C1289 C 0.68846 0.89481 0.9374 0.0
C1290 C 0.67024 0.88645 0.84615 0.0
C1291 C 0.68648 0.90453 0.90643 0.0
C1292 C 0.6587 0.89249 0.76916 0.0
C1293 C 0.64454 0.86451 0.73636 0.0
N1294 N 0.67756 0.90016 0.86237 0.0
N1295 N 0.65351 0.86876 0.78037 0.0
H1296 H 0.10593 0.74564 0.70838 0.0
H1297 H 0.11097 0.81204 0.86756 0.0
H1298 H 0.13311 0.78858 0.65558 0.0
H1299 H 0.08677 0.76919 0.926 0.0
H1300 H 0.11897 0.80379 0.78881 0.0
H1301 H 0.09849 0.75421 0.78734 0.0
C1302 C 0.11034 0.75688 0.71336 0.0
C1303 C 0.12017 0.76641 0.67526 0.0
C1304 C 0.11193 0.7962 0.81894 0.0
C1305 C 0.11166 0.7763 0.76582 0.0
C1306 C 0.10735 0.8009 0.8639 0.0
C1307 C 0.09816 0.79129 0.9034 0.0
C1308 C 0.10725 0.78178 0.81337 0.0
C1309 C 0.09384 0.77698 0.89658 0.0
C1310 C 0.10609 0.76177 0.75858 0.0
C1311 C 0.12552 0.78086 0.68394 0.0
N1312 N 0.09839 0.77267 0.8524 0.0
N1313 N 0.12118 0.78537 0.7283 0.0
H1314 H 0.18799 0.29396 0.89337 0.0
H1315 H 0.24819 0.36525 0.75712 0.0
H1316 H 0.22779 0.32156 0.97251 0.0
H1317 H 0.20648 0.34099 0.68757 0.0
H1318 H 0.24093 0.34904 0.8355 0.0
H1319 H 0.1946 0.31074 0.81674 0.0
C1320 C 0.19811 0.30355 0.8947 0.0
C1321 C 0.20737 0.30634 0.93937 0.0
C1322 C 0.23334 0.34728 0.80324 0.0
C1323 C 0.215 0.32556 0.85177 0.0
C1324 C 0.23748 0.35653 0.75837 0.0
C1325 C 0.22793 0.35446 0.71562 0.0
C1326 C 0.21956 0.3358 0.80537 0.0
C1327 C 0.21419 0.34299 0.7196 0.0
C1328 C 0.20186 0.31313 0.85097 0.0
C1329 C 0.22032 0.31896 0.93893 0.0
N1330 N 0.21043 0.33404 0.76361 0.0
N1331 N 0.22377 0.32806 0.89573 0.0
H1332 H 0.01089 0.44055 0.64039 0.0
H1333 H 0.99383 0.45644 0.33423 0.0
H1334 H 0.03977 0.47724 0.54601 0.0
H1335 H 0.9695 0.41675 0.41925 0.0
H1336 H 0.00972 0.46535 0.41431 0.0
H1337 H 0.99446 0.43285 0.56267 0.0
C1338 C 0.01376 0.44703 0.60338 0.0
C1339 C 0.02677 0.45953 0.59962 0.0
C1340 C 0.00089 0.4547 0.41535 0.0
C1341 C 0.00797 0.45074 0.51027 0.0
C1342 C 0.9918 0.44962 0.36975 0.0
C1343 C 0.98035 0.43581 0.36998 0.0
C1344 C -0.00158 0.44594 0.46157 0.0
C1345 C 0.97823 0.42744 0.4171 0.0
C1346 C 0.00438 0.4426 0.55893 0.0
C1347 C 0.02989 0.4675 0.55061 0.0
N1348 N 0.98717 0.43264 0.46093 0.0
N1349 N 0.02056 0.46295 0.50776 0.0
H1350 H 0.56817 0.56341 0.33962 0.0
H1351 H 0.53479 0.54391 0.64477 0.0
H1352 H 0.56231 0.52693 0.43064 0.0
H1353 H 0.54749 0.58359 0.56353 0.0
H1354 H 0.5428 0.53642 0.5636 0.0
H1355 H 0.55846 0.56981 0.41819 0.0
C1356 C 0.56478 0.5567 0.37604 0.0
C1357 C 0.56612 0.54465 0.37866 0.0
C1358 C 0.54381 0.54675 0.56359 0.0
C1359 C 0.55501 0.55194 0.46884 0.0
C1360 C 0.53922 0.55103 0.60985 0.0
C1361 C 0.54051 0.56441 0.61103 0.0
C1362 C 0.54965 0.5559 0.5181 0.0
C1363 C 0.54634 0.5732 0.56458 0.0
C1364 C 0.55927 0.56039 0.42096 0.0
C1365 C 0.56153 0.53635 0.42691 0.0
N1366 N 0.55068 0.56879 0.52006 0.0
N1367 N 0.5562 0.54017 0.47016 0.0
H1368 H 0.42463 0.96135 0.60659 0.0
H1369 H 0.45404 0.03484 0.45671 0.0
H1370 H 0.44588 0.00046 0.69744 0.0
H1371 H 0.45199 -0.00093 0.373 0.0
H1372 H 0.44886 0.02201 0.54473 0.0
H1373 H 0.43245 0.97456 0.51943 0.0
C1374 C 0.431 0.97272 0.60816 0.0
C1375 C 0.4346 0.97984 0.65923 0.0
C1376 C 0.44964 0.01702 0.50713 0.0
C1377 C 0.44338 0.99497 0.55986 0.0
C1378 C 0.45251 0.02428 0.45688 0.0
C1379 C 0.4534 0.01797 0.4075 0.0
C1380 C 0.44735 0.00325 0.50782 0.0
C1381 C 0.45142 0.00432 0.41015 0.0
C1382 C 0.43549 0.98022 0.55848 0.0
C1383 C 0.44292 0.99457 0.65893 0.0
N1384 N 0.44832 0.99733 0.45945 0.0
N1385 N 0.44689 0.00168 0.60992 0.0
H1386 H 0.51689 0.95709 0.53493 0.0
H1387 H 0.58059 0.02565 0.39659 0.0
H1388 H 0.55731 0.9823 0.61367 0.0
H1389 H 0.53852 0.0042 0.32878 0.0
H1390 H 0.57239 0.00938 0.47501 0.0
H1391 H 0.52474 0.97378 0.45768 0.0
C1392 C 0.5274 0.96614 0.53604 0.0
C1393 C 0.53646 0.96828 0.58081 0.0
C1394 C 0.56493 0.00824 0.44307 0.0
C1395 C 0.54553 0.9874 0.49244 0.0
C1396 C 0.56962 0.01752 0.39818 0.0
C1397 C 0.56023 0.01628 0.356 0.0
C1398 C 0.55077 0.99758 0.44574 0.0
C1399 C 0.54613 0.00555 0.36037 0.0
C1400 C 0.53187 0.97568 0.49194 0.0
C1401 C 0.54997 0.98022 0.58005 0.0
N1402 N 0.54183 0.99658 0.40437 0.0
N1403 N 0.5541 0.98929 0.53647 0.0
H1404 H 0.97191 0.51798 0.42973 0.0
H1405 H 0.01873 0.58219 0.63447 0.0
H1406 H 0.97655 0.55933 0.41531 0.0
H1407 H 0.01477 0.54116 0.65073 0.0
H1408 H 0.00304 0.57374 0.55452 0.0
H1409 H 0.98745 0.52606 0.51084 0.0
C1410 C 0.9762 0.52875 0.44355 0.0
C1411 C 0.97291 0.53799 0.41567 0.0
C1412 C 0.00557 0.56656 0.57553 0.0
C1413 C 0.99066 0.54728 0.50844 0.0
C1414 C 0.01454 0.57138 0.62129 0.0
C1415 C 0.0181 0.56237 0.64935 0.0
C1416 C 9e-05 0.55261 0.55747 0.0
C1417 C 0.01232 0.54847 0.63035 0.0
C1418 C 0.98506 0.53335 0.48988 0.0
C1419 C 0.97877 0.55183 0.43545 0.0
N1420 N 0.0036 0.54401 0.5855 0.0
N1421 N 0.98734 0.55604 0.48057 0.0
H1422 H 0.42223 0.40296 0.44202 0.0
H1423 H 0.45047 0.4651 0.66659 0.0
H1424 H 0.46466 0.43824 0.44281 0.0
H1425 H 0.40806 0.42979 0.66345 0.0
H1426 H 0.45615 0.45522 0.58619 0.0
H1427 H 0.41707 0.41248 0.52452 0.0
C1428 C 0.43047 0.41271 0.45954 0.0
C1429 C 0.44389 0.41982 0.4354 0.0
C1430 C 0.44561 0.44963 0.60322 0.0
C1431 C 0.43806 0.4308 0.53004 0.0
C1432 C 0.44237 0.45525 0.64917 0.0
C1433 C 0.42876 0.44829 0.67171 0.0
C1434 C 0.43517 0.43695 0.57969 0.0
C1435 C 0.41868 0.43556 0.6474 0.0
C1436 C 0.42752 0.41814 0.50672 0.0
C1437 C 0.45416 0.43241 0.46001 0.0
N1438 N 0.42209 0.43032 0.6027 0.0
N1439 N 0.45102 0.43751 0.50596 0.0
H1440 H 0.0714 0.29848 0.21725 0.0
H1441 H 0.12169 0.36985 0.38137 0.0
H1442 H 0.11111 0.33139 0.15365 0.0
H1443 H 0.08514 0.33458 0.45455 0.0
H1444 H 0.1168 0.35673 0.29447 0.0
H1445 H 0.07513 0.31237 0.30153 0.0
C1446 C 0.08088 0.30864 0.22089 0.0
C1447 C 0.09099 0.31376 0.17841 0.0
C1448 C 0.10982 0.35187 0.32949 0.0
C1449 C 0.09531 0.3297 0.27469 0.0
C1450 C 0.11259 0.35938 0.37911 0.0
C1451 C 0.10384 0.35329 0.42542 0.0
C1452 C 0.0982 0.33819 0.32601 0.0
C1453 C 0.0922 0.33967 0.42 0.0
C1454 C 0.08301 0.31656 0.26906 0.0
C1455 C 0.10307 0.327 0.18541 0.0
N1456 N 0.08973 0.33257 0.37123 0.0
N1457 N 0.10489 0.33451 0.23263 0.0
H1458 H 0.6644 0.77783 0.49168 0.0
H1459 H 0.6655 0.75298 0.18039 0.0
H1460 H 0.63059 0.73985 0.41997 0.0
H1461 H 0.70127 0.78787 0.25937 0.0
H1462 H 0.65252 0.74801 0.26765 0.0
H1463 H 0.67803 0.78172 0.40677 0.0
C1464 C 0.65984 0.77029 0.45812 0.0
C1465 C 0.64631 0.75851 0.46289 0.0
C1466 C 0.66323 0.75672 0.26598 0.0
C1467 C 0.66186 0.76294 0.36542 0.0
C1468 C 0.67065 0.75957 0.21613 0.0
C1469 C 0.68448 0.77089 0.2125 0.0
C1470 C 0.66965 0.76529 0.31251 0.0
C1471 C 0.69062 0.77904 0.26023 0.0
C1472 C 0.66765 0.77251 0.40966 0.0
C1473 C 0.64098 0.74908 0.41811 0.0
N1474 N 0.68314 0.77612 0.30817 0.0
N1475 N 0.64874 0.75153 0.37115 0.0
H1476 H 0.21804 0.88444 0.1728 0.0
H1477 H 0.2429 0.90775 0.4864 0.0
H1478 H 0.22315 0.9227 0.24543 0.0
H1479 H 0.24343 0.87283 0.40604 0.0
H1480 H 0.23533 0.91322 0.39903 0.0
H1481 H 0.22692 0.87978 0.25854 0.0
C1482 C 0.22105 0.89188 0.20675 0.0
C1483 C 0.21982 0.90397 0.20195 0.0
C1484 C 0.23716 0.9044 0.40045 0.0
C1485 C 0.22997 0.89868 0.30033 0.0
C1486 C 0.24147 0.90125 0.45035 0.0
C1487 C 0.24378 0.88979 0.45359 0.0
C1488 C 0.23504 0.89596 0.35349 0.0
C1489 C 0.24178 0.88177 0.40548 0.0
C1490 C 0.22614 0.88922 0.25567 0.0
C1491 C 0.22391 0.91325 0.24728 0.0
N1492 N 0.23746 0.88497 0.35751 0.0
N1493 N 0.22875 0.91038 0.29464 0.0
H1494 H 0.3333 0.11884 0.54667 0.0
H1495 H 0.32628 0.0849 0.84764 0.0
H1496 H 0.36215 0.10612 0.60926 0.0
H1497 H 0.29525 0.09357 0.77673 0.0
H1498 H 0.33979 0.09291 0.7614 0.0
H1499 H 0.31949 0.11001 0.63163 0.0
C1500 C 0.33673 0.11419 0.57828 0.0
C1501 C 0.34891 0.11323 0.57084 0.0
C1502 C 0.33 0.09302 0.76468 0.0
C1503 C 0.33313 0.1031 0.66837 0.0
C1504 C 0.32229 0.08845 0.81392 0.0
C1505 C 0.30963 0.08858 0.81947 0.0
C1506 C 0.32506 0.09782 0.72077 0.0
C1507 C 0.30495 0.09328 0.77435 0.0
C1508 C 0.32882 0.10912 0.62678 0.0
C1509 C 0.35283 0.10707 0.61322 0.0
N1510 N 0.31269 0.09775 0.72701 0.0
N1511 N 0.34498 0.10227 0.66024 0.0
H1512 H 0.92261 0.22336 0.80096 0.0
H1513 H 0.87163 0.24375 0.63804 0.0
H1514 H 0.88299 0.21643 0.8661 0.0
H1515 H 0.90721 0.24367 0.5619 0.0
H1516 H 0.87694 0.23593 0.72516 0.0
H1517 H 0.9184 0.23299 0.71609 0.0
C1518 C 0.91305 0.22392 0.79753 0.0
C1519 C 0.90311 0.21904 0.84062 0.0
C1520 C 0.8836 0.23766 0.68942 0.0
C1521 C 0.89824 0.23005 0.74371 0.0
C1522 C 0.8806 0.24216 0.63969 0.0
C1523 C 0.88895 0.24432 0.59251 0.0
C1524 C 0.89509 0.23536 0.69215 0.0
C1525 C 0.90044 0.24208 0.59714 0.0
C1526 C 0.91064 0.22938 0.74903 0.0
C1527 C 0.89092 0.22001 0.83387 0.0
N1528 N 0.90316 0.23771 0.64605 0.0
N1529 N 0.88883 0.2254 0.78635 0.0
H1530 H 0.75314 0.65784 0.78792 0.0
H1531 H 0.75151 0.66129 0.45617 0.0
H1532 H 0.77357 0.69686 0.696 0.0
H1533 H 0.74197 0.62373 0.54805 0.0
H1534 H 0.75646 0.67421 0.54396 0.0
H1535 H 0.74575 0.64494 0.70035 0.0
C1536 C 0.756 0.66371 0.74934 0.0
C1537 C 0.76406 0.67846 0.74929 0.0
C1538 C 0.75323 0.66313 0.5448 0.0
C1539 C 0.75561 0.66372 0.64887 0.0
C1540 C 0.75036 0.65574 0.49479 0.0
C1541 C 0.7464 0.64143 0.4948 0.0
C1542 C 0.752 0.65612 0.59514 0.0
C1543 C 0.74509 0.63477 0.54606 0.0
C1544 C 0.75181 0.65632 0.69935 0.0
C1545 C 0.76744 0.68549 0.69797 0.0
N1546 N 0.74789 0.64218 0.59413 0.0
N1547 N 0.76321 0.67805 0.64976 0.0
H1548 H 0.87686 0.62913 0.63117 0.0
H1549 H 0.92758 0.69955 0.79971 0.0
H1550 H 0.91658 0.66203 0.56755 0.0
H1551 H 0.88671 0.66752 0.85749 0.0
H1552 H 0.92467 0.68519 0.71762 0.0
H1553 H 0.8813 0.64222 0.71777 0.0
C1554 C 0.88657 0.63907 0.63552 0.0
C1555 C 0.89632 0.64453 0.59184 0.0
C1556 C 0.91637 0.68129 0.7484 0.0
C1557 C 0.90144 0.65964 0.691 0.0
C1558 C 0.91802 0.68947 0.79529 0.0
C1559 C 0.90733 0.68476 0.83541 0.0
C1560 C 0.90395 0.66829 0.74161 0.0
C1561 C 0.8952 0.67161 0.82754 0.0
C1562 C 0.88909 0.64656 0.68501 0.0
C1563 C 0.90874 0.65744 0.60001 0.0
N1564 N 0.89382 0.66387 0.78151 0.0
N1565 N 0.91091 0.66459 0.64851 0.0
H1566 H 0.29237 0.20706 0.70123 0.0
H1567 H 0.36352 0.2579 0.53707 0.0
H1568 H 0.32801 0.243 0.77584 0.0
H1569 H 0.33081 0.21817 0.47258 0.0
H1570 H 0.34968 0.25386 0.62165 0.0
H1571 H 0.30535 0.21225 0.61378 0.0
C1572 C 0.30289 0.21609 0.69917 0.0
C1573 C 0.30914 0.22457 0.74602 0.0
C1574 C 0.34552 0.24605 0.58892 0.0
C1575 C 0.32404 0.23057 0.64605 0.0
C1576 C 0.3534 0.24836 0.54056 0.0
C1577 C 0.34834 0.23833 0.49777 0.0
C1578 C 0.33245 0.23365 0.59442 0.0
C1579 C 0.33516 0.22616 0.5046 0.0
C1580 C 0.31031 0.21902 0.64926 0.0
C1581 C 0.32281 0.23613 0.74088 0.0
N1582 N 0.32768 0.22416 0.55202 0.0
N1583 N 0.32981 0.23878 0.69183 0.0
H1584 H 0.74784 0.08114 0.80231 0.0
H1585 H 0.77826 0.1183 0.50891 0.0
H1586 H 0.78788 0.0896 0.73596 0.0
H1587 H 0.73654 0.10639 0.56704 0.0
H1588 H 0.78192 0.10785 0.59216 0.0
H1589 H 0.74339 0.09021 0.71651 0.0
C1590 C 0.75567 0.08483 0.76962 0.0
C1591 C 0.76827 0.08464 0.77642 0.0
C1592 C 0.77195 0.10748 0.58669 0.0
C1593 C 0.76327 0.09511 0.67825 0.0
C1594 C 0.76985 0.11348 0.53916 0.0
C1595 C 0.75708 0.11325 0.53101 0.0
C1596 C 0.76122 0.10124 0.6266 0.0
C1597 C 0.74656 0.10681 0.57162 0.0
C1598 C 0.75311 0.09002 0.72064 0.0
C1599 C 0.77802 0.08955 0.73261 0.0
N1600 N 0.74888 0.1011 0.61775 0.0
N1601 N 0.77534 0.09464 0.68554 0.0
H1602 H 0.70315 0.90762 0.23743 0.0
H1603 H 0.63217 0.88964 0.39729 0.0
H1604 H 0.66731 0.90626 0.15699 0.0
H1605 H 0.66469 0.88316 0.46778 0.0
H1606 H 0.64572 0.8977 0.31116 0.0
H1607 H 0.69001 0.90061 0.3246 0.0
C1608 C 0.69253 0.90589 0.23811 0.0
C1609 C 0.6863 0.9075 0.18979 0.0
C1610 C 0.64989 0.89452 0.3455 0.0
C1611 C 0.67121 0.89949 0.28948 0.0
C1612 C 0.64218 0.88995 0.39473 0.0
C1613 C 0.64729 0.88569 0.43977 0.0
C1614 C 0.66285 0.89493 0.3414 0.0
C1615 C 0.66031 0.8863 0.43406 0.0
C1616 C 0.68502 0.90185 0.28788 0.0
C1617 C 0.6725 0.9051 0.19316 0.0
N1618 N 0.66765 0.89084 0.3858 0.0
N1619 N 0.66543 0.90122 0.24218 0.0
H1620 H 0.08671 0.75139 0.45974 0.0
H1621 H 0.11195 0.77901 0.15058 0.0
H1622 H 0.12243 0.75207 0.38143 0.0
H1623 H 0.07271 0.77231 0.21912 0.0
H1624 H 0.11604 0.76936 0.23529 0.0
H1625 H 0.08145 0.75918 0.37245 0.0
C1626 C 0.09342 0.75312 0.42415 0.0
C1627 C 0.10506 0.75112 0.42797 0.0
C1628 C 0.1065 0.76994 0.23175 0.0
C1629 C 0.09913 0.76011 0.32798 0.0
C1630 C 0.10416 0.77548 0.1834 0.0
C1631 C 0.09198 0.77651 0.1778 0.0
C1632 C 0.09664 0.76548 0.27512 0.0
C1633 C 0.08225 0.77171 0.22166 0.0
C1634 C 0.09039 0.75756 0.37429 0.0
C1635 C 0.11336 0.75349 0.38042 0.0
N1636 N 0.08483 0.76647 0.26861 0.0
N1637 N 0.11027 0.75794 0.33251 0.0
H1638 H 0.22461 0.30066 0.26163 0.0
H1639 H 0.24179 0.3714 0.42219 0.0
H1640 H 0.21721 0.33274 0.19279 0.0
H1641 H 0.24177 0.3361 0.50175 0.0
H1642 H 0.23489 0.35825 0.33506 0.0
H1643 H 0.233 0.31437 0.34742 0.0
C1644 C 0.22479 0.3106 0.26446 0.0
C1645 C 0.22016 0.31554 0.22003 0.0
C1646 C 0.23642 0.35338 0.37156 0.0
C1647 C 0.22977 0.33128 0.31793 0.0
C1648 C 0.24039 0.3609 0.42131 0.0
C1649 C 0.24232 0.35482 0.46941 0.0
C1650 C 0.23441 0.3397 0.36972 0.0
C1651 C 0.24034 0.34118 0.46575 0.0
C1652 C 0.22955 0.3184 0.31348 0.0
C1653 C 0.22062 0.32849 0.22604 0.0
N1654 N 0.2365 0.33407 0.41676 0.0
N1655 N 0.22534 0.33591 0.27405 0.0
H1656 H 0.99527 0.4273 0.83774 0.0
H1657 H -0.00014 0.42308 0.16846 0.0
H1658 H 0.03443 0.4472 0.92875 0.0
H1659 H 0.96122 0.41069 0.07943 0.0
H1660 H 0.01259 0.42957 0.08022 0.0
H1661 H 0.98255 0.41877 0.92527 0.0
C1662 C 0.00121 0.42983 0.8761 0.0
C1663 C 0.01594 0.43804 0.87591 0.0
C1664 C 0.00132 0.42538 0.08002 0.0
C1665 C 0.00143 0.42828 0.97633 0.0
C1666 C 0.99403 0.42163 0.13036 0.0
C1667 C 0.97945 0.41639 0.13137 0.0
C1668 C 0.99397 0.4238 0.0303 0.0
C1669 C 0.97246 0.41475 0.08067 0.0
C1670 C 0.99393 0.42498 0.92609 0.0
C1671 C 0.02307 0.44097 0.92695 0.0
N1672 N 0.97979 0.41847 0.03222 0.0
N1673 N 0.01574 0.4361 0.97513 0.0
H1674 H 0.58816 0.55749 0.0503 0.0
H1675 H 0.54741 0.59165 0.90273 0.0
H1676 H 0.57159 0.58019 0.13932 0.0
H1677 H 0.57326 0.57898 0.81258 0.0
H1678 H 0.55586 0.58715 0.98992 0.0
H1679 H 0.58258 0.5649 0.96263 0.0
C1680 C 0.58343 0.56411 0.05143 0.0
C1681 C 0.58026 0.56817 0.10223 0.0
C1682 C 0.55977 0.58545 0.95108 0.0
C1683 C 0.57376 0.57658 0.00213 0.0
C1684 C 0.55493 0.58799 0.90127 0.0
C1685 C 0.55959 0.58563 0.85029 0.0
C1686 C 0.56923 0.58035 0.94999 0.0
C1687 C 0.56938 0.58094 0.85094 0.0
C1688 C 0.58028 0.56836 0.00137 0.0
C1689 C 0.57419 0.57679 0.10117 0.0
N1690 N 0.57378 0.57832 0.90003 0.0
N1691 N 0.57102 0.5806 0.05193 0.0
H1692 H 0.42184 0.99381 0.19671 0.0
H1693 H 0.41913 -0.00133 0.86566 0.0
H1694 H 0.44379 0.03295 0.1062 0.0
H1695 H 0.40902 0.96036 0.95291 0.0
H1696 H 0.42505 0.01119 0.95457 0.0
H1697 H 0.41396 0.98118 0.1084 0.0
C1698 C 0.42495 -0.00024 0.15831 0.0
C1699 C 0.43354 0.01445 0.15882 0.0
C1700 C 0.42149 4e-05 0.95417 0.0
C1701 C 0.42449 7e-05 0.05776 0.0
C1702 C 0.41805 0.99287 0.90351 0.0
C1703 C 0.41364 0.97846 0.90185 0.0
C1704 C 0.42036 0.99271 0.00354 0.0
C1705 C 0.41247 0.97149 0.95221 0.0
C1706 C 0.42048 0.99253 0.10795 0.0
C1707 C 0.43725 0.02161 0.10775 0.0
N1708 N 0.4158 0.97867 0.00099 0.0
N1709 N 0.43268 0.01435 0.05929 0.0
H1710 H 0.55167 0.96165 0.90329 0.0
H1711 H 0.57185 0.03308 0.06495 0.0
H1712 H 0.54466 0.99424 0.83727 0.0
H1713 H 0.57352 0.99817 0.13986 0.0
H1714 H 0.5633 0.01958 0.97901 0.0
H1715 H 0.56101 0.97542 0.98835 0.0
C1716 C 0.5521 0.9717 0.90664 0.0
C1717 C 0.54736 0.97679 0.86309 0.0
C1718 C 0.56555 0.01488 0.01422 0.0
C1719 C 0.55807 0.99262 0.96028 0.0
C1720 C 0.57048 0.02259 0.06329 0.0
C1721 C 0.57339 0.01673 0.10975 0.0
C1722 C 0.56356 0.00121 0.01142 0.0
C1723 C 0.57138 0.00309 0.10514 0.0
C1724 C 0.55742 0.97955 0.95525 0.0
C1725 C 0.54816 0.98988 0.8698 0.0
N1726 N 0.56659 0.9958 0.05686 0.0
N1727 N 0.55343 0.99735 0.91742 0.0
H1728 H 0.0346 0.57968 0.94919 0.0
H1729 H 0.96259 0.55707 0.11072 0.0
H1730 H -0.00133 0.57903 0.87278 0.0
H1731 H 0.99625 0.55176 0.17657 0.0
H1732 H 0.97647 0.56734 0.02641 0.0
H1733 H 0.02154 0.57178 0.03623 0.0
C1734 C 0.02399 0.57797 0.95077 0.0
C1735 C 0.01769 0.57995 0.90348 0.0
C1736 C 0.98082 0.56395 0.0594 0.0
C1737 C 0.00265 0.57085 0.00311 0.0
C1738 C 0.97292 0.55812 0.10757 0.0
C1739 C 0.97825 0.55349 0.15067 0.0
C1740 C 0.99417 0.56524 0.05444 0.0
C1741 C 0.99169 0.55511 0.14431 0.0
C1742 C 0.01652 0.57341 0.00049 0.0
C1743 C 0.00392 0.57757 0.90811 0.0
N1744 N -0.00083 0.56083 0.09711 0.0
N1745 N 0.99684 0.5731 0.957 0.0
H1746 H 0.43818 0.40498 0.13973 0.0
H1747 H 0.41659 0.45457 0.97312 0.0
H1748 H 0.44579 0.44529 0.19967 0.0
H1749 H 0.41305 0.41649 0.9053 0.0
H1750 H 0.42514 0.45013 0.06019 0.0
H1751 H 0.42684 0.40787 0.05728 0.0
C1752 C 0.4374 0.4144 0.13573 0.0
C1753 C 0.44302 0.42495 0.17655 0.0
C1754 C 0.42243 0.44271 0.02635 0.0
C1755 C 0.43006 0.42832 0.08224 0.0
C1756 C 0.41751 0.44522 0.97662 0.0
C1757 C 0.41417 0.43593 0.93167 0.0
C1758 C 0.42401 0.43081 0.03129 0.0
C1759 C 0.41557 0.42398 0.93873 0.0
C1760 C 0.43094 0.41605 0.08859 0.0
C1761 C 0.44168 0.43692 0.16915 0.0
N1762 N 0.42043 0.42179 0.9875 0.0
N1763 N 0.43538 0.43829 0.12285 0.0
loop_
_geom_bond_atom_site_label_1
_geom_bond_atom_site_label_2
_geom_bond_distance
_geom_bond_site_symmetry_2
_ccdc_geom_bond_type
C0 O1 1.160 . S
C0 O7 1.185 . S
O1 C0 1.160 . S
O2 Zn3 1.899 . S
O2 C10 1.284 . S
Zn3 O2 1.899 . S
Zn3 O4 2.032 . S
Zn3 O7 2.086 . S
Zn3 O12 1.977 . S
O4 Zn3 2.032 . S
O4 C8 1.278 1_554 S
C5 O6 1.203 . S
C5 O12 1.267 . S
O6 C5 1.203 . S
O7 C0 1.185 . S
O7 Zn3 2.086 . S
C8 O4 1.278 1_556 S
C8 O9 1.211 . S
O9 C8 1.211 . S
C10 O2 1.284 . S
C10 O11 1.273 . S
O11 C10 1.273 . S
O12 Zn3 1.977 . S
O12 C5 1.267 . S
C13 O14 1.160 . S
C13 O20 1.185 . S
O14 C13 1.160 . S
O15 Zn16 1.899 . S
O15 C23 1.284 . S
Zn16 O15 1.899 . S
Zn16 O17 2.032 . S
Zn16 O20 2.086 . S
Zn16 O25 1.977 . S
O17 Zn16 2.032 . S
O17 C21 1.278 1_554 S
C18 O19 1.203 . S
C18 O25 1.267 . S
O19 C18 1.203 . S
O20 C13 1.185 . S
O20 Zn16 2.086 . S
C21 O17 1.278 1_556 S
C21 O22 1.211 . S
O22 C21 1.211 . S
C23 O15 1.284 . S
C23 O24 1.273 . S
O24 C23 1.273 . S
O25 Zn16 1.977 . S
O25 C18 1.267 . S
C26 O27 1.160 . S
C26 O33 1.185 . S
O27 C26 1.160 . S
O28 Zn29 1.899 . S
O28 C36 1.284 . S
Zn29 O28 1.899 . S
Zn29 O30 2.032 . S
Zn29 O33 2.086 . S
Zn29 O38 1.977 . S
O30 Zn29 2.032 . S
O30 C34 1.278 1_554 S
C31 O32 1.203 . S
C31 O38 1.267 . S
O32 C31 1.203 . S
O33 C26 1.185 . S
O33 Zn29 2.086 . S
C34 O30 1.278 1_556 S
C34 O35 1.211 . S
O35 C34 1.211 . S
C36 O28 1.284 . S
C36 O37 1.273 . S
O37 C36 1.273 . S
O38 Zn29 1.977 . S
O38 C31 1.267 . S
C39 O40 1.160 . S
C39 O46 1.185 . S
O40 C39 1.160 . S
O41 Zn42 1.899 . S
O41 C49 1.284 . S
Zn42 O41 1.899 . S
Zn42 O43 2.032 . S
Zn42 O46 2.086 . S
Zn42 O51 1.977 . S
O43 Zn42 2.032 . S
O43 C47 1.278 1_556 S
C44 O45 1.203 . S
C44 O51 1.267 . S
O45 C44 1.203 . S
O46 C39 1.185 . S
O46 Zn42 2.086 . S
C47 O43 1.278 1_554 S
C47 O48 1.211 . S
O48 C47 1.211 . S
C49 O41 1.284 . S
C49 O50 1.273 . S
O50 C49 1.273 . S
O51 Zn42 1.977 . S
O51 C44 1.267 . S
C52 O53 1.160 . S
C52 O59 1.185 . S
O53 C52 1.160 . S
O54 Zn55 1.899 . S
O54 C62 1.284 . S
Zn55 O54 1.899 . S
Zn55 O56 2.032 . S
Zn55 O59 2.086 . S
Zn55 O64 1.977 . S
O56 Zn55 2.032 . S
O56 C60 1.278 1_556 S
C57 O58 1.203 . S
C57 O64 1.267 . S
O58 C57 1.203 . S
O59 C52 1.185 . S
O59 Zn55 2.086 . S
C60 O56 1.278 1_554 S
C60 O61 1.211 . S
O61 C60 1.211 . S
C62 O54 1.284 . S
C62 O63 1.273 . S
O63 C62 1.273 . S
O64 Zn55 1.977 . S
O64 C57 1.267 . S
C65 O66 1.160 . S
C65 O72 1.185 . S
O66 C65 1.160 . S
O67 Zn68 1.899 . S
O67 C75 1.284 . S
Zn68 O67 1.899 . S
Zn68 O69 2.032 . S
Zn68 O72 2.086 . S
Zn68 O77 1.977 . S
O69 Zn68 2.032 . S
O69 C73 1.278 1_556 S
C70 O71 1.203 . S
C70 O77 1.267 . S
O71 C70 1.203 . S
O72 C65 1.185 . S
O72 Zn68 2.086 . S
C73 O69 1.278 1_554 S
C73 O74 1.211 . S
O74 C73 1.211 . S
C75 O67 1.284 . S
C75 O76 1.273 . S
O76 C75 1.273 . S
O77 Zn68 1.977 . S
O77 C70 1.267 . S
C78 O79 1.160 . S
C78 O85 1.185 . S
O79 C78 1.160 . S
O80 Zn81 1.899 . S
O80 C88 1.284 . S
Zn81 O80 1.899 . S
Zn81 O82 2.032 . S
Zn81 O85 2.086 . S
Zn81 O90 1.977 . S
O82 Zn81 2.032 . S
O82 C86 1.278 1_556 S
C83 O84 1.203 . S
C83 O90 1.267 . S
O84 C83 1.203 . S
O85 C78 1.185 . S
O85 Zn81 2.086 . S
C86 O82 1.278 1_554 S
C86 O87 1.211 . S
O87 C86 1.211 . S
C88 O80 1.284 . S
C88 O89 1.273 . S
O89 C88 1.273 . S
O90 Zn81 1.977 . S
O90 C83 1.267 . S
C91 O92 1.160 . S
C91 O98 1.185 . S
O92 C91 1.160 . S
O93 Zn94 1.899 . S
O93 C101 1.284 . S
Zn94 O93 1.899 . S
Zn94 O95 2.032 . S
Zn94 O98 2.086 . S
Zn94 O103 1.977 . S
O95 Zn94 2.032 . S
O95 C99 1.278 1_556 S
C96 O97 1.203 . S
C96 O103 1.267 . S
O97 C96 1.203 . S
O98 C91 1.185 . S
O98 Zn94 2.086 . S
C99 O95 1.278 1_554 S
C99 O100 1.211 . S
O100 C99 1.211 . S
C101 O93 1.284 . S
C101 O102 1.273 . S
O102 C101 1.273 . S
O103 Zn94 1.977 . S
O103 C96 1.267 . S
C104 O105 1.160 . S
C104 O111 1.185 . S
O105 C104 1.160 . S
O106 Zn107 1.899 . S
O106 C114 1.284 . S
Zn107 O106 1.899 . S
Zn107 O108 2.032 . S
Zn107 O111 2.086 . S
Zn107 O116 1.977 . S
O108 Zn107 2.032 . S
O108 C112 1.278 1_556 S
C109 O110 1.203 . S
C109 O116 1.267 . S
O110 C109 1.203 . S
O111 C104 1.185 . S
O111 Zn107 2.086 . S
C112 O108 1.278 1_554 S
C112 O113 1.211 . S
O113 C112 1.211 . S
C114 O106 1.284 . S
C114 O115 1.273 . S
O115 C114 1.273 . S
O116 Zn107 1.977 . S
O116 C109 1.267 . S
C117 O118 1.160 . S
C117 O124 1.185 . S
O118 C117 1.160 . S
O119 Zn120 1.899 . S
O119 C127 1.284 . S
Zn120 O119 1.899 . S
Zn120 O121 2.032 . S
Zn120 O124 2.086 . S
Zn120 O129 1.977 . S
O121 Zn120 2.032 . S
O121 C125 1.278 1_554 S
C122 O123 1.203 . S
C122 O129 1.267 . S
O123 C122 1.203 . S
O124 C117 1.185 . S
O124 Zn120 2.086 . S
C125 O121 1.278 1_556 S
C125 O126 1.211 . S
O126 C125 1.211 . S
C127 O119 1.284 . S
C127 O128 1.273 . S
O128 C127 1.273 . S
O129 Zn120 1.977 . S
O129 C122 1.267 . S
C130 O131 1.160 . S
C130 O137 1.185 . S
O131 C130 1.160 . S
O132 Zn133 1.899 . S
O132 C140 1.284 . S
Zn133 O132 1.899 . S
Zn133 O134 2.032 . S
Zn133 O137 2.086 . S
Zn133 O142 1.977 . S
O134 Zn133 2.032 . S
O134 C138 1.278 1_554 S
C135 O136 1.203 . S
C135 O142 1.267 . S
O136 C135 1.203 . S
O137 C130 1.185 . S
O137 Zn133 2.086 . S
C138 O134 1.278 1_556 S
C138 O139 1.211 . S
O139 C138 1.211 . S
C140 O132 1.284 . S
C140 O141 1.273 . S
O141 C140 1.273 . S
O142 Zn133 1.977 . S
O142 C135 1.267 . S
C143 O144 1.160 . S
C143 O150 1.185 . S
O144 C143 1.160 . S
O145 Zn146 1.899 . S
O145 C153 1.284 . S
Zn146 O145 1.899 . S
Zn146 O147 2.032 . S
Zn146 O150 2.086 . S
Zn146 O155 1.977 . S
O147 Zn146 2.032 . S
O147 C151 1.278 1_554 S
C148 O149 1.203 . S
C148 O155 1.267 . S
O149 C148 1.203 . S
O150 C143 1.185 . S
O150 Zn146 2.086 . S
C151 O147 1.278 1_556 S
C151 O152 1.211 . S
O152 C151 1.211 . S
C153 O145 1.284 . S
C153 O154 1.273 . S
O154 C153 1.273 . S
O155 Zn146 1.977 . S
O155 C148 1.267 . S
C156 O157 1.160 . S
C156 O163 1.185 . S
O157 C156 1.160 . S
O158 Zn159 1.899 . S
O158 C166 1.284 . S
Zn159 O158 1.899 . S
Zn159 O160 2.032 . S
Zn159 O163 2.086 . S
Zn159 O168 1.977 . S
O160 Zn159 2.032 . S
O160 C164 1.278 . S
C161 O162 1.203 . S
C161 O168 1.267 . S
O162 C161 1.203 . S
O163 C156 1.185 . S
O163 Zn159 2.086 . S
C164 O160 1.278 . S
C164 O165 1.211 . S
O165 C164 1.211 . S
C166 O158 1.284 . S
C166 O167 1.273 . S
O167 C166 1.273 . S
O168 Zn159 1.977 . S
O168 C161 1.267 . S
C169 O170 1.160 . S
C169 O176 1.185 . S
O170 C169 1.160 . S
O171 Zn172 1.899 . S
O171 C179 1.284 . S
Zn172 O171 1.899 . S
Zn172 O173 2.032 . S
Zn172 O176 2.086 . S
Zn172 O181 1.977 . S
O173 Zn172 2.032 . S
O173 C177 1.278 . S
C174 O175 1.203 . S
C174 O181 1.267 . S
O175 C174 1.203 . S
O176 C169 1.185 . S
O176 Zn172 2.086 . S
C177 O173 1.278 . S
C177 O178 1.211 . S
O178 C177 1.211 . S
C179 O171 1.284 . S
C179 O180 1.273 . S
O180 C179 1.273 . S
O181 Zn172 1.977 . S
O181 C174 1.267 . S
C182 O183 1.160 . S
C182 O189 1.185 . S
O183 C182 1.160 . S
O184 Zn185 1.899 . S
O184 C192 1.284 . S
Zn185 O184 1.899 . S
Zn185 O186 2.032 . S
Zn185 O189 2.086 . S
Zn185 O194 1.977 . S
O186 Zn185 2.032 . S
O186 C190 1.278 . S
C187 O188 1.203 . S
C187 O194 1.267 . S
O188 C187 1.203 . S
O189 C182 1.185 . S
O189 Zn185 2.086 . S
C190 O186 1.278 . S
C190 O191 1.211 . S
O191 C190 1.211 . S
C192 O184 1.284 . S
C192 O193 1.273 . S
O193 C192 1.273 . S
O194 Zn185 1.977 . S
O194 C187 1.267 . S
C195 O196 1.160 . S
C195 O202 1.185 . S
O196 C195 1.160 . S
O197 Zn198 1.899 . S
O197 C205 1.284 . S
Zn198 O197 1.899 . S
Zn198 O199 2.032 . S
Zn198 O202 2.086 . S
Zn198 O207 1.977 . S
O199 Zn198 2.032 . S
O199 C203 1.278 . S
C200 O201 1.203 . S
C200 O207 1.267 . S
O201 C200 1.203 . S
O202 C195 1.185 . S
O202 Zn198 2.086 . S
C203 O199 1.278 . S
C203 O204 1.211 . S
O204 C203 1.211 . S
C205 O197 1.284 . S
C205 O206 1.273 . S
O206 C205 1.273 . S
O207 Zn198 1.977 . S
O207 C200 1.267 . S
C208 O209 1.160 . S
C208 O215 1.185 . S
O209 C208 1.160 . S
O210 Zn211 1.899 . S
O210 C218 1.284 . S
Zn211 O210 1.899 . S
Zn211 O212 2.032 . S
Zn211 O215 2.086 . S
Zn211 O220 1.977 . S
O212 Zn211 2.032 . S
O212 C216 1.278 . S
C213 O214 1.203 . S
C213 O220 1.267 . S
O214 C213 1.203 . S
O215 C208 1.185 . S
O215 Zn211 2.086 . S
C216 O212 1.278 . S
C216 O217 1.211 . S
O217 C216 1.211 . S
C218 O210 1.284 . S
C218 O219 1.273 . S
O219 C218 1.273 . S
O220 Zn211 1.977 . S
O220 C213 1.267 . S
C221 O222 1.160 . S
C221 O228 1.185 . S
O222 C221 1.160 . S
O223 Zn224 1.899 . S
O223 C231 1.284 . S
Zn224 O223 1.899 . S
Zn224 O225 2.032 . S
Zn224 O228 2.086 . S
Zn224 O233 1.977 . S
O225 Zn224 2.032 . S
O225 C229 1.278 . S
C226 O227 1.203 . S
C226 O233 1.267 . S
O227 C226 1.203 . S
O228 C221 1.185 . S
O228 Zn224 2.086 . S
C229 O225 1.278 . S
C229 O230 1.211 . S
O230 C229 1.211 . S
C231 O223 1.284 . S
C231 O232 1.273 . S
O232 C231 1.273 . S
O233 Zn224 1.977 . S
O233 C226 1.267 . S
C234 O235 1.160 . S
C234 O241 1.185 . S
O235 C234 1.160 . S
O236 Zn237 1.899 . S
O236 C244 1.284 . S
Zn237 O236 1.899 . S
Zn237 O238 2.032 . S
Zn237 O241 2.086 . S
Zn237 O246 1.977 . S
O238 Zn237 2.032 . S
O238 C242 1.278 . S
C239 O240 1.203 . S
C239 O246 1.267 . S
O240 C239 1.203 . S
O241 C234 1.185 . S
O241 Zn237 2.086 . S
C242 O238 1.278 . S
C242 O243 1.211 . S
O243 C242 1.211 . S
C244 O236 1.284 . S
C244 O245 1.273 . S
O245 C244 1.273 . S
O246 Zn237 1.977 . S
O246 C239 1.267 . S
C247 O248 1.160 . S
C247 O254 1.185 . S
O248 C247 1.160 . S
O249 Zn250 1.899 . S
O249 C257 1.284 . S
Zn250 O249 1.899 . S
Zn250 O251 2.032 . S
Zn250 O254 2.086 . S
Zn250 O259 1.977 . S
O251 Zn250 2.032 . S
O251 C255 1.278 . S
C252 O253 1.203 . S
C252 O259 1.267 . S
O253 C252 1.203 . S
O254 C247 1.185 . S
O254 Zn250 2.086 . S
C255 O251 1.278 . S
C255 O256 1.211 . S
O256 C255 1.211 . S
C257 O249 1.284 . S
C257 O258 1.273 . S
O258 C257 1.273 . S
O259 Zn250 1.977 . S
O259 C252 1.267 . S
C260 O261 1.160 . S
C260 O267 1.185 . S
O261 C260 1.160 . S
O262 Zn263 1.899 . S
O262 C270 1.284 . S
Zn263 O262 1.899 . S
Zn263 O264 2.032 . S
Zn263 O267 2.086 . S
Zn263 O272 1.977 . S
O264 Zn263 2.032 . S
O264 C268 1.278 . S
C265 O266 1.203 . S
C265 O272 1.267 . S
O266 C265 1.203 . S
O267 C260 1.185 . S
O267 Zn263 2.086 . S
C268 O264 1.278 . S
C268 O269 1.211 . S
O269 C268 1.211 . S
C270 O262 1.284 . S
C270 O271 1.273 . S
O271 C270 1.273 . S
O272 Zn263 1.977 . S
O272 C265 1.267 . S
C273 O274 1.160 . S
C273 O280 1.185 . S
O274 C273 1.160 . S
O275 Zn276 1.899 . S
O275 C283 1.284 . S
Zn276 O275 1.899 . S
Zn276 O277 2.032 . S
Zn276 O280 2.086 . S
Zn276 O285 1.977 . S
O277 Zn276 2.032 . S
O277 C281 1.278 . S
C278 O279 1.203 . S
C278 O285 1.267 . S
O279 C278 1.203 . S
O280 C273 1.185 . S
O280 Zn276 2.086 . S
C281 O277 1.278 . S
C281 O282 1.211 . S
O282 C281 1.211 . S
C283 O275 1.284 . S
C283 O284 1.273 . S
O284 C283 1.273 . S
O285 Zn276 1.977 . S
O285 C278 1.267 . S
C286 O287 1.160 . S
C286 O293 1.185 . S
O287 C286 1.160 . S
O288 Zn289 1.899 . S
O288 C296 1.284 . S
Zn289 O288 1.899 . S
Zn289 O290 2.032 . S
Zn289 O293 2.086 . S
Zn289 O298 1.977 . S
O290 Zn289 2.032 . S
O290 C294 1.278 . S
C291 O292 1.203 . S
C291 O298 1.267 . S
O292 C291 1.203 . S
O293 C286 1.185 . S
O293 Zn289 2.086 . S
C294 O290 1.278 . S
C294 O295 1.211 . S
O295 C294 1.211 . S
C296 O288 1.284 . S
C296 O297 1.273 . S
O297 C296 1.273 . S
O298 Zn289 1.977 . S
O298 C291 1.267 . S
C299 O300 1.160 . S
C299 O306 1.185 . S
O300 C299 1.160 . S
O301 Zn302 1.899 . S
O301 C309 1.284 . S
Zn302 O301 1.899 . S
Zn302 O303 2.032 . S
Zn302 O306 2.086 . S
Zn302 O311 1.977 . S
O303 Zn302 2.032 . S
O303 C307 1.278 . S
C304 O305 1.203 . S
C304 O311 1.267 . S
O305 C304 1.203 . S
O306 C299 1.185 . S
O306 Zn302 2.086 . S
C307 O303 1.278 . S
C307 O308 1.211 . S
O308 C307 1.211 . S
C309 O301 1.284 . S
C309 O310 1.273 . S
O310 C309 1.273 . S
O311 Zn302 1.977 . S
O311 C304 1.267 . S
C312 O313 1.160 . S
C312 O319 1.185 . S
O313 C312 1.160 . S
O314 Zn315 1.899 . S
O314 C322 1.284 . S
Zn315 O314 1.899 . S
Zn315 O316 2.032 . S
Zn315 O319 2.086 . S
Zn315 O324 1.977 . S
O316 Zn315 2.032 . S
O316 C320 1.278 . S
C317 O318 1.203 . S
C317 O324 1.267 . S
O318 C317 1.203 . S
O319 C312 1.185 . S
O319 Zn315 2.086 . S
C320 O316 1.278 . S
C320 O321 1.211 . S
O321 C320 1.211 . S
C322 O314 1.284 . S
C322 O323 1.273 . S
O323 C322 1.273 . S
O324 Zn315 1.977 . S
O324 C317 1.267 . S
C325 O326 1.160 . S
C325 O332 1.185 . S
O326 C325 1.160 . S
O327 Zn328 1.899 . S
O327 C335 1.284 . S
Zn328 O327 1.899 . S
Zn328 O329 2.032 . S
Zn328 O332 2.086 . S
Zn328 O337 1.977 . S
O329 Zn328 2.032 . S
O329 C333 1.278 . S
C330 O331 1.203 . S
C330 O337 1.267 . S
O331 C330 1.203 . S
O332 C325 1.185 . S
O332 Zn328 2.086 . S
C333 O329 1.278 . S
C333 O334 1.211 . S
O334 C333 1.211 . S
C335 O327 1.284 . S
C335 O336 1.273 . S
O336 C335 1.273 . S
O337 Zn328 1.977 . S
O337 C330 1.267 . S
C338 O339 1.160 . S
C338 O345 1.185 . S
O339 C338 1.160 . S
O340 Zn341 1.899 . S
O340 C348 1.284 . S
Zn341 O340 1.899 . S
Zn341 O342 2.032 . S
Zn341 O345 2.086 . S
Zn341 O350 1.977 . S
O342 Zn341 2.032 . S
O342 C346 1.278 . S
C343 O344 1.203 . S
C343 O350 1.267 . S
O344 C343 1.203 . S
O345 C338 1.185 . S
O345 Zn341 2.086 . S
C346 O342 1.278 . S
C346 O347 1.211 . S
O347 C346 1.211 . S
C348 O340 1.284 . S
C348 O349 1.273 . S
O349 C348 1.273 . S
O350 Zn341 1.977 . S
O350 C343 1.267 . S
C351 O352 1.160 . S
C351 O358 1.185 . S
O352 C351 1.160 . S
O353 Zn354 1.899 . S
O353 C361 1.284 . S
Zn354 O353 1.899 . S
Zn354 O355 2.032 . S
Zn354 O358 2.086 . S
Zn354 O363 1.977 . S
O355 Zn354 2.032 . S
O355 C359 1.278 . S
C356 O357 1.203 . S
C356 O363 1.267 . S
O357 C356 1.203 . S
O358 C351 1.185 . S
O358 Zn354 2.086 . S
C359 O355 1.278 . S
C359 O360 1.211 . S
O360 C359 1.211 . S
C361 O353 1.284 . S
C361 O362 1.273 . S
O362 C361 1.273 . S
O363 Zn354 1.977 . S
O363 C356 1.267 . S
C364 O365 1.160 . S
C364 O371 1.185 . S
O365 C364 1.160 . S
O366 Zn367 1.899 . S
O366 C374 1.284 . S
Zn367 O366 1.899 . S
Zn367 O368 2.032 . S
Zn367 O371 2.086 . S
Zn367 O376 1.977 . S
O368 Zn367 2.032 . S
O368 C372 1.278 . S
C369 O370 1.203 . S
C369 O376 1.267 . S
O370 C369 1.203 . S
O371 C364 1.185 . S
O371 Zn367 2.086 . S
C372 O368 1.278 . S
C372 O373 1.211 . S
O373 C372 1.211 . S
C374 O366 1.284 . S
C374 O375 1.273 . S
O375 C374 1.273 . S
O376 Zn367 1.977 . S
O376 C369 1.267 . S
C377 O378 1.160 . S
C377 O384 1.185 . S
O378 C377 1.160 . S
O379 Zn380 1.899 . S
O379 C387 1.284 . S
Zn380 O379 1.899 . S
Zn380 O381 2.032 . S
Zn380 O384 2.086 . S
Zn380 O389 1.977 . S
O381 Zn380 2.032 . S
O381 C385 1.278 . S
C382 O383 1.203 . S
C382 O389 1.267 . S
O383 C382 1.203 . S
O384 C377 1.185 . S
O384 Zn380 2.086 . S
C385 O381 1.278 . S
C385 O386 1.211 . S
O386 C385 1.211 . S
C387 O379 1.284 . S
C387 O388 1.273 . S
O388 C387 1.273 . S
O389 Zn380 1.977 . S
O389 C382 1.267 . S
C390 O391 1.160 . S
C390 O397 1.185 . S
O391 C390 1.160 . S
O392 Zn393 1.899 . S
O392 C400 1.284 . S
Zn393 O392 1.899 . S
Zn393 O394 2.032 . S
Zn393 O397 2.086 . S
Zn393 O402 1.977 . S
O394 Zn393 2.032 . S
O394 C398 1.278 . S
C395 O396 1.203 . S
C395 O402 1.267 . S
O396 C395 1.203 . S
O397 C390 1.185 . S
O397 Zn393 2.086 . S
C398 O394 1.278 . S
C398 O399 1.211 . S
O399 C398 1.211 . S
C400 O392 1.284 . S
C400 O401 1.273 . S
O401 C400 1.273 . S
O402 Zn393 1.977 . S
O402 C395 1.267 . S
C403 O404 1.160 . S
C403 O410 1.185 . S
O404 C403 1.160 . S
O405 Zn406 1.899 . S
O405 C413 1.284 . S
Zn406 O405 1.899 . S
Zn406 O407 2.032 . S
Zn406 O410 2.086 . S
Zn406 O415 1.977 . S
O407 Zn406 2.032 . S
O407 C411 1.278 . S
C408 O409 1.203 . S
C408 O415 1.267 . S
O409 C408 1.203 . S
O410 C403 1.185 . S
O410 Zn406 2.086 . S
C411 O407 1.278 . S
C411 O412 1.211 . S
O412 C411 1.211 . S
C413 O405 1.284 . S
C413 O414 1.273 . S
O414 C413 1.273 . S
O415 Zn406 1.977 . S
O415 C408 1.267 . S
C416 O417 1.160 . S
C416 O423 1.185 . S
O417 C416 1.160 . S
O418 Zn419 1.899 . S
O418 C426 1.284 . S
Zn419 O418 1.899 . S
Zn419 O420 2.032 . S
Zn419 O423 2.086 . S
Zn419 O428 1.977 . S
O420 Zn419 2.032 . S
O420 C424 1.278 . S
C421 O422 1.203 . S
C421 O428 1.267 . S
O422 C421 1.203 . S
O423 C416 1.185 . S
O423 Zn419 2.086 . S
C424 O420 1.278 . S
C424 O425 1.211 . S
O425 C424 1.211 . S
C426 O418 1.284 . S
C426 O427 1.273 . S
O427 C426 1.273 . S
O428 Zn419 1.977 . S
O428 C421 1.267 . S
C429 O430 1.160 . S
C429 O436 1.185 . S
O430 C429 1.160 . S
O431 Zn432 1.899 . S
O431 C439 1.284 . S
Zn432 O431 1.899 . S
Zn432 O433 2.032 . S
Zn432 O436 2.086 . S
Zn432 O441 1.977 . S
O433 Zn432 2.032 . S
O433 C437 1.278 . S
C434 O435 1.203 . S
C434 O441 1.267 . S
O435 C434 1.203 . S
O436 C429 1.185 . S
O436 Zn432 2.086 . S
C437 O433 1.278 . S
C437 O438 1.211 . S
O438 C437 1.211 . S
C439 O431 1.284 . S
C439 O440 1.273 . S
O440 C439 1.273 . S
O441 Zn432 1.977 . S
O441 C434 1.267 . S
C442 O443 1.160 . S
C442 O449 1.185 . S
O443 C442 1.160 . S
O444 Zn445 1.899 . S
O444 C452 1.284 . S
Zn445 O444 1.899 . S
Zn445 O446 2.032 . S
Zn445 O449 2.086 . S
Zn445 O454 1.977 . S
O446 Zn445 2.032 . S
O446 C450 1.278 . S
C447 O448 1.203 . S
C447 O454 1.267 . S
O448 C447 1.203 . S
O449 C442 1.185 . S
O449 Zn445 2.086 . S
C450 O446 1.278 . S
C450 O451 1.211 . S
O451 C450 1.211 . S
C452 O444 1.284 . S
C452 O453 1.273 . S
O453 C452 1.273 . S
O454 Zn445 1.977 . S
O454 C447 1.267 . S
C455 O456 1.160 . S
C455 O462 1.185 . S
O456 C455 1.160 . S
O457 Zn458 1.899 . S
O457 C465 1.284 . S
Zn458 O457 1.899 . S
Zn458 O459 2.032 . S
Zn458 O462 2.086 . S
Zn458 O467 1.977 . S
O459 Zn458 2.032 . S
O459 C463 1.278 . S
C460 O461 1.203 . S
C460 O467 1.267 . S
O461 C460 1.203 . S
O462 C455 1.185 . S
O462 Zn458 2.086 . S
C463 O459 1.278 . S
C463 O464 1.211 . S
O464 C463 1.211 . S
C465 O457 1.284 . S
C465 O466 1.273 . S
O466 C465 1.273 . S
O467 Zn458 1.977 . S
O467 C460 1.267 . S
H468 C474 0.930 . S
H469 C478 0.930 1_556 S
H470 C483 0.929 1_556 S
H471 C481 0.929 . S
H472 C476 0.929 1_556 S
H473 C482 0.929 . S
C474 H468 0.930 . S
C474 C475 1.367 . S
C474 C482 1.378 . S
C475 C474 1.367 . S
C475 C483 1.433 . S
C476 H472 0.929 1_554 S
C476 C478 1.378 . S
C476 C480 1.350 . S
C477 C480 1.463 . S
C477 C482 1.350 . S
C477 N485 1.427 . S
C478 H469 0.930 1_554 S
C478 C476 1.378 . S
C478 C479 1.367 . S
C479 C478 1.367 . S
C479 C481 1.433 . S
C480 C476 1.350 . S
C480 C477 1.463 . S
C480 N484 1.427 . S
C481 H471 0.929 . S
C481 C479 1.433 . S
C481 N484 1.384 . S
C482 H473 0.929 . S
C482 C474 1.378 . S
C482 C477 1.350 . S
C483 H470 0.929 1_554 S
C483 C475 1.433 . S
C483 N485 1.384 . S
N484 C480 1.427 . S
N484 C481 1.384 . S
N485 C477 1.427 . S
N485 C483 1.384 . S
H486 C492 0.930 . S
H487 C496 0.930 . S
H488 C501 0.929 . S
H489 C499 0.929 . S
H490 C494 0.929 . S
H491 C500 0.929 . S
C492 H486 0.930 . S
C492 C493 1.367 . S
C492 C500 1.378 . S
C493 C492 1.367 . S
C493 C501 1.433 . S
C494 H490 0.929 . S
C494 C496 1.378 . S
C494 C498 1.350 . S
C495 C498 1.463 . S
C495 C500 1.350 . S
C495 N503 1.427 . S
C496 H487 0.930 . S
C496 C494 1.378 . S
C496 C497 1.367 . S
C497 C496 1.367 . S
C497 C499 1.433 . S
C498 C494 1.350 . S
C498 C495 1.463 . S
C498 N502 1.427 . S
C499 H489 0.929 . S
C499 C497 1.433 . S
C499 N502 1.384 . S
C500 H491 0.929 . S
C500 C492 1.378 . S
C500 C495 1.350 . S
C501 H488 0.929 . S
C501 C493 1.433 . S
C501 N503 1.384 . S
N502 C498 1.427 . S
N502 C499 1.384 . S
N503 C495 1.427 . S
N503 C501 1.384 . S
H504 C510 0.930 . S
H505 C514 0.921 1_556 S
H506 C519 0.929 1_556 S
H507 C517 0.929 . S
H508 C512 0.920 1_556 S
H509 C518 0.929 . S
C510 H504 0.930 . S
C510 C511 1.367 . S
C510 C518 1.378 . S
C511 C510 1.367 . S
C511 C519 1.433 . S
C512 H508 0.920 1_554 S
C512 C514 1.378 . S
C512 C516 1.350 . S
C513 C516 1.463 . S
C513 C518 1.350 . S
C513 N521 1.427 . S
C514 H505 0.921 1_554 S
C514 C512 1.378 . S
C514 C515 1.367 . S
C515 C514 1.367 . S
C515 C517 1.433 . S
C516 C512 1.350 . S
C516 C513 1.463 . S
C516 N520 1.427 . S
C517 H507 0.929 . S
C517 C515 1.433 . S
C517 N520 1.384 . S
C518 H509 0.929 . S
C518 C510 1.378 . S
C518 C513 1.350 . S
C519 H506 0.929 1_554 S
C519 C511 1.433 . S
C519 N521 1.384 . S
N520 C516 1.427 . S
N520 C517 1.384 . S
N521 C513 1.427 . S
N521 C519 1.384 . S
H522 C528 0.930 . S
H523 C532 0.930 . S
H524 C537 0.929 . S
H525 C535 0.929 . S
H526 C530 0.929 . S
H527 C536 0.929 . S
C528 H522 0.930 . S
C528 C529 1.367 . S
C528 C536 1.378 . S
C529 C528 1.367 . S
C529 C537 1.433 . S
C530 H526 0.929 . S
C530 C532 1.378 . S
C530 C534 1.350 . S
C531 C534 1.463 . S
C531 C536 1.350 . S
C531 N539 1.427 . S
C532 H523 0.930 . S
C532 C530 1.378 . S
C532 C533 1.367 . S
C533 C532 1.367 . S
C533 C535 1.433 . S
C534 C530 1.350 . S
C534 C531 1.463 . S
C534 N538 1.427 . S
C535 H525 0.929 . S
C535 C533 1.433 . S
C535 N538 1.384 . S
C536 H527 0.929 . S
C536 C528 1.378 . S
C536 C531 1.350 . S
C537 H524 0.929 . S
C537 C529 1.433 . S
C537 N539 1.384 . S
N538 C534 1.427 . S
N538 C535 1.384 . S
N539 C531 1.427 . S
N539 C537 1.384 . S
H540 C546 0.930 . S
H541 C550 0.930 . S
H542 C555 0.929 . S
H543 C553 0.929 . S
H544 C548 0.929 . S
H545 C554 0.929 . S
C546 H540 0.930 . S
C546 C547 1.367 . S
C546 C554 1.378 . S
C547 C546 1.367 . S
C547 C555 1.433 . S
C548 H544 0.929 . S
C548 C550 1.378 . S
C548 C552 1.350 . S
C549 C552 1.463 . S
C549 C554 1.350 . S
C549 N557 1.427 . S
C550 H541 0.930 . S
C550 C548 1.378 . S
C550 C551 1.367 . S
C551 C550 1.367 . S
C551 C553 1.433 . S
C552 C548 1.350 . S
C552 C549 1.463 . S
C552 N556 1.427 . S
C553 H543 0.929 . S
C553 C551 1.433 . S
C553 N556 1.384 . S
C554 H545 0.929 . S
C554 C546 1.378 . S
C554 C549 1.350 . S
C555 H542 0.929 . S
C555 C547 1.433 . S
C555 N557 1.384 . S
N556 C552 1.427 . S
N556 C553 1.384 . S
N557 C549 1.427 . S
N557 C555 1.384 . S
H558 C564 0.930 . S
H559 C568 0.930 . S
H560 C573 0.929 . S
H561 C571 0.929 . S
H562 C566 0.929 . S
H563 C572 0.929 . S
C564 H558 0.930 . S
C564 C565 1.367 . S
C564 C572 1.378 . S
C565 C564 1.367 . S
C565 C573 1.433 . S
C566 H562 0.929 . S
C566 C568 1.378 . S
C566 C570 1.350 . S
C567 C570 1.463 . S
C567 C572 1.350 . S
C567 N575 1.427 . S
C568 H559 0.930 . S
C568 C566 1.378 . S
C568 C569 1.367 . S
C569 C568 1.367 . S
C569 C571 1.433 . S
C570 C566 1.350 . S
C570 C567 1.463 . S
C570 N574 1.427 . S
C571 H561 0.929 . S
C571 C569 1.433 . S
C571 N574 1.384 . S
C572 H563 0.929 . S
C572 C564 1.378 . S
C572 C567 1.350 . S
C573 H560 0.929 . S
C573 C565 1.433 . S
C573 N575 1.384 . S
N574 C570 1.427 . S
N574 C571 1.384 . S
N575 C567 1.427 . S
N575 C573 1.384 . S
H576 C582 0.930 . S
H577 C586 0.930 . S
H578 C591 0.929 . S
H579 C589 0.929 . S
H580 C584 0.929 . S
H581 C590 0.929 . S
C582 H576 0.930 . S
C582 C583 1.367 . S
C582 C590 1.378 . S
C583 C582 1.367 . S
C583 C591 1.433 . S
C584 H580 0.929 . S
C584 C586 1.378 . S
C584 C588 1.350 . S
C585 C588 1.463 . S
C585 C590 1.350 . S
C585 N593 1.427 . S
C586 H577 0.930 . S
C586 C584 1.378 . S
C586 C587 1.367 . S
C587 C586 1.367 . S
C587 C589 1.433 . S
C588 C584 1.350 . S
C588 C585 1.463 . S
C588 N592 1.427 . S
C589 H579 0.929 . S
C589 C587 1.433 . S
C589 N592 1.384 . S
C590 H581 0.929 . S
C590 C582 1.378 . S
C590 C585 1.350 . S
C591 H578 0.929 . S
C591 C583 1.433 . S
C591 N593 1.384 . S
N592 C588 1.427 . S
N592 C589 1.384 . S
N593 C585 1.427 . S
N593 C591 1.384 . S
H594 C600 0.930 . S
H595 C604 0.930 . S
H596 C609 0.929 . S
H597 C607 0.929 . S
H598 C602 0.929 . S
H599 C608 0.929 . S
C600 H594 0.930 . S
C600 C601 1.367 . S
C600 C608 1.378 . S
C601 C600 1.367 . S
C601 C609 1.433 . S
C602 H598 0.929 . S
C602 C604 1.378 . S
C602 C606 1.350 . S
C603 C606 1.463 . S
C603 C608 1.350 . S
C603 N611 1.427 . S
C604 H595 0.930 . S
C604 C602 1.378 . S
C604 C605 1.367 . S
C605 C604 1.367 . S
C605 C607 1.433 . S
C606 C602 1.350 . S
C606 C603 1.463 . S
C606 N610 1.427 . S
C607 H597 0.929 . S
C607 C605 1.433 . S
C607 N610 1.384 . S
C608 H599 0.929 . S
C608 C600 1.378 . S
C608 C603 1.350 . S
C609 H596 0.929 . S
C609 C601 1.433 . S
C609 N611 1.384 . S
N610 C606 1.427 . S
N610 C607 1.384 . S
N611 C603 1.427 . S
N611 C609 1.384 . S
H612 C618 0.930 . S
H613 C622 0.930 . S
H614 C627 0.929 . S
H615 C625 0.929 . S
H616 C620 0.929 . S
H617 C626 0.929 . S
C618 H612 0.930 . S
C618 C619 1.367 . S
C618 C626 1.378 . S
C619 C618 1.367 . S
C619 C627 1.433 . S
C620 H616 0.929 . S
C620 C622 1.378 . S
C620 C624 1.350 . S
C621 C624 1.463 . S
C621 C626 1.350 . S
C621 N629 1.427 . S
C622 H613 0.930 . S
C622 C620 1.378 . S
C622 C623 1.367 . S
C623 C622 1.367 . S
C623 C625 1.433 . S
C624 C620 1.350 . S
C624 C621 1.463 . S
C624 N628 1.427 . S
C625 H615 0.929 . S
C625 C623 1.433 . S
C625 N628 1.384 . S
C626 H617 0.929 . S
C626 C618 1.378 . S
C626 C621 1.350 . S
C627 H614 0.929 . S
C627 C619 1.433 . S
C627 N629 1.384 . S
N628 C624 1.427 . S
N628 C625 1.384 . S
N629 C621 1.427 . S
N629 C627 1.384 . S
H630 C636 0.930 . S
H631 C640 0.930 . S
H632 C645 0.929 . S
H633 C643 0.929 . S
H634 C638 0.929 . S
H635 C644 0.929 . S
C636 H630 0.930 . S
C636 C637 1.367 . S
C636 C644 1.378 . S
C637 C636 1.367 . S
C637 C645 1.433 . S
C638 H634 0.929 . S
C638 C640 1.378 . S
C638 C642 1.350 . S
C639 C642 1.463 . S
C639 C644 1.350 . S
C639 N647 1.427 . S
C640 H631 0.930 . S
C640 C638 1.378 . S
C640 C641 1.367 . S
C641 C640 1.367 . S
C641 C643 1.433 . S
C642 C638 1.350 . S
C642 C639 1.463 . S
C642 N646 1.427 . S
C643 H633 0.929 . S
C643 C641 1.433 . S
C643 N646 1.384 . S
C644 H635 0.929 . S
C644 C636 1.378 . S
C644 C639 1.350 . S
C645 H632 0.929 . S
C645 C637 1.433 . S
C645 N647 1.384 . S
N646 C642 1.427 . S
N646 C643 1.384 . S
N647 C639 1.427 . S
N647 C645 1.384 . S
H648 C654 0.930 . S
H649 C658 0.930 . S
H650 C663 0.929 . S
H651 C661 0.929 . S
H652 C656 0.929 . S
H653 C662 0.929 . S
C654 H648 0.930 . S
C654 C655 1.367 . S
C654 C662 1.378 . S
C655 C654 1.367 . S
C655 C663 1.433 . S
C656 H652 0.929 . S
C656 C658 1.378 . S
C656 C660 1.350 . S
C657 C660 1.463 . S
C657 C662 1.350 . S
C657 N665 1.427 . S
C658 H649 0.930 . S
C658 C656 1.378 . S
C658 C659 1.367 . S
C659 C658 1.367 . S
C659 C661 1.433 . S
C660 C656 1.350 . S
C660 C657 1.463 . S
C660 N664 1.427 . S
C661 H651 0.929 . S
C661 C659 1.433 . S
C661 N664 1.384 . S
C662 H653 0.929 . S
C662 C654 1.378 . S
C662 C657 1.350 . S
C663 H650 0.929 . S
C663 C655 1.433 . S
C663 N665 1.384 . S
N664 C660 1.427 . S
N664 C661 1.384 . S
N665 C657 1.427 . S
N665 C663 1.384 . S
H666 C672 0.930 . S
H667 C676 0.930 . S
H668 C681 0.929 . S
H669 C679 0.929 . S
H670 C674 0.929 . S
H671 C680 0.929 . S
C672 H666 0.930 . S
C672 C673 1.367 . S
C672 C680 1.378 . S
C673 C672 1.367 . S
C673 C681 1.433 . S
C674 H670 0.929 . S
C674 C676 1.378 . S
C674 C678 1.350 . S
C675 C678 1.463 . S
C675 C680 1.350 . S
C675 N683 1.427 . S
C676 H667 0.930 . S
C676 C674 1.378 . S
C676 C677 1.367 . S
C677 C676 1.367 . S
C677 C679 1.433 . S
C678 C674 1.350 . S
C678 C675 1.463 . S
C678 N682 1.427 . S
C679 H669 0.929 . S
C679 C677 1.433 . S
C679 N682 1.384 . S
C680 H671 0.929 . S
C680 C672 1.378 . S
C680 C675 1.350 . S
C681 H668 0.929 . S
C681 C673 1.433 . S
C681 N683 1.384 . S
N682 C678 1.427 . S
N682 C679 1.384 . S
N683 C675 1.427 . S
N683 C681 1.384 . S
H684 C690 0.930 . S
H685 C694 0.930 . S
H686 C699 0.929 . S
H687 C697 0.929 . S
H688 C692 0.929 . S
H689 C698 0.929 . S
C690 H684 0.930 . S
C690 C691 1.367 . S
C690 C698 1.378 . S
C691 C690 1.367 . S
C691 C699 1.433 . S
C692 H688 0.929 . S
C692 C694 1.378 . S
C692 C696 1.350 . S
C693 C696 1.463 . S
C693 C698 1.350 . S
C693 N701 1.427 . S
C694 H685 0.930 . S
C694 C692 1.378 . S
C694 C695 1.367 . S
C695 C694 1.367 . S
C695 C697 1.433 . S
C696 C692 1.350 . S
C696 C693 1.463 . S
C696 N700 1.427 . S
C697 H687 0.929 . S
C697 C695 1.433 . S
C697 N700 1.384 . S
C698 H689 0.929 . S
C698 C690 1.378 . S
C698 C693 1.350 . S
C699 H686 0.929 . S
C699 C691 1.433 . S
C699 N701 1.384 . S
N700 C696 1.427 . S
N700 C697 1.384 . S
N701 C693 1.427 . S
N701 C699 1.384 . S
H702 C708 0.930 . S
H703 C712 0.930 . S
H704 C717 0.929 . S
H705 C715 0.929 . S
H706 C710 0.929 . S
H707 C716 0.929 . S
C708 H702 0.930 . S
C708 C709 1.367 . S
C708 C716 1.378 . S
C709 C708 1.367 . S
C709 C717 1.433 . S
C710 H706 0.929 . S
C710 C712 1.378 . S
C710 C714 1.350 . S
C711 C714 1.463 . S
C711 C716 1.350 . S
C711 N719 1.427 . S
C712 H703 0.930 . S
C712 C710 1.378 . S
C712 C713 1.367 . S
C713 C712 1.367 . S
C713 C715 1.433 . S
C714 C710 1.350 . S
C714 C711 1.463 . S
C714 N718 1.427 . S
C715 H705 0.929 . S
C715 C713 1.433 . S
C715 N718 1.384 . S
C716 H707 0.929 . S
C716 C708 1.378 . S
C716 C711 1.350 . S
C717 H704 0.929 . S
C717 C709 1.433 . S
C717 N719 1.384 . S
N718 C714 1.427 . S
N718 C715 1.384 . S
N719 C711 1.427 . S
N719 C717 1.384 . S
H720 C726 0.930 . S
H721 C730 0.930 . S
H722 C735 0.929 . S
H723 C733 0.929 . S
H724 C728 0.929 . S
H725 C734 0.929 . S
C726 H720 0.930 . S
C726 C727 1.367 . S
C726 C734 1.378 . S
C727 C726 1.367 . S
C727 C735 1.433 . S
C728 H724 0.929 . S
C728 C730 1.378 . S
C728 C732 1.350 . S
C729 C732 1.463 . S
C729 C734 1.350 . S
C729 N737 1.427 . S
C730 H721 0.930 . S
C730 C728 1.378 . S
C730 C731 1.367 . S
C731 C730 1.367 . S
C731 C733 1.433 . S
C732 C728 1.350 . S
C732 C729 1.463 . S
C732 N736 1.427 . S
C733 H723 0.929 . S
C733 C731 1.433 . S
C733 N736 1.384 . S
C734 H725 0.929 . S
C734 C726 1.378 . S
C734 C729 1.350 . S
C735 H722 0.929 . S
C735 C727 1.433 . S
C735 N737 1.384 . S
N736 C732 1.427 . S
N736 C733 1.384 . S
N737 C729 1.427 . S
N737 C735 1.384 . S
H738 C744 0.930 . S
H739 C748 0.930 . S
H740 C753 0.929 . S
H741 C751 0.929 . S
H742 C746 0.929 . S
H743 C752 0.929 . S
C744 H738 0.930 . S
C744 C745 1.367 . S
C744 C752 1.378 . S
C745 C744 1.367 . S
C745 C753 1.433 . S
C746 H742 0.929 . S
C746 C748 1.378 . S
C746 C750 1.350 . S
C747 C750 1.463 . S
C747 C752 1.350 . S
C747 N755 1.427 . S
C748 H739 0.930 . S
C748 C746 1.378 . S
C748 C749 1.367 . S
C749 C748 1.367 . S
C749 C751 1.433 . S
C750 C746 1.350 . S
C750 C747 1.463 . S
C750 N754 1.427 . S
C751 H741 0.929 . S
C751 C749 1.433 . S
C751 N754 1.384 . S
C752 H743 0.929 . S
C752 C744 1.378 . S
C752 C747 1.350 . S
C753 H740 0.929 . S
C753 C745 1.433 . S
C753 N755 1.384 . S
N754 C750 1.427 . S
N754 C751 1.384 . S
N755 C747 1.427 . S
N755 C753 1.384 . S
H756 C762 0.930 . S
H757 C766 0.930 . S
H758 C771 0.929 . S
H759 C769 0.929 . S
H760 C764 0.929 . S
H761 C770 0.929 . S
C762 H756 0.930 . S
C762 C763 1.367 . S
C762 C770 1.378 . S
C763 C762 1.367 . S
C763 C771 1.433 . S
C764 H760 0.929 . S
C764 C766 1.378 . S
C764 C768 1.350 . S
C765 C768 1.463 . S
C765 C770 1.350 . S
C765 N773 1.427 . S
C766 H757 0.930 . S
C766 C764 1.378 . S
C766 C767 1.367 . S
C767 C766 1.367 . S
C767 C769 1.433 . S
C768 C764 1.350 . S
C768 C765 1.463 . S
C768 N772 1.427 . S
C769 H759 0.929 . S
C769 C767 1.433 . S
C769 N772 1.384 . S
C770 H761 0.929 . S
C770 C762 1.378 . S
C770 C765 1.350 . S
C771 H758 0.929 . S
C771 C763 1.433 . S
C771 N773 1.384 . S
N772 C768 1.427 . S
N772 C769 1.384 . S
N773 C765 1.427 . S
N773 C771 1.384 . S
H774 C780 0.930 . S
H775 C784 0.930 . S
H776 C789 0.929 . S
H777 C787 0.929 . S
H778 C782 0.929 . S
H779 C788 0.929 . S
C780 H774 0.930 . S
C780 C781 1.367 . S
C780 C788 1.378 . S
C781 C780 1.367 . S
C781 C789 1.433 . S
C782 H778 0.929 . S
C782 C784 1.378 . S
C782 C786 1.350 . S
C783 C786 1.463 . S
C783 C788 1.350 . S
C783 N791 1.427 . S
C784 H775 0.930 . S
C784 C782 1.378 . S
C784 C785 1.367 . S
C785 C784 1.367 . S
C785 C787 1.433 . S
C786 C782 1.350 . S
C786 C783 1.463 . S
C786 N790 1.427 . S
C787 H777 0.929 . S
C787 C785 1.433 . S
C787 N790 1.384 . S
C788 H779 0.929 . S
C788 C780 1.378 . S
C788 C783 1.350 . S
C789 H776 0.929 . S
C789 C781 1.433 . S
C789 N791 1.384 . S
N790 C786 1.427 . S
N790 C787 1.384 . S
N791 C783 1.427 . S
N791 C789 1.384 . S
H792 C798 0.930 . S
H793 C802 0.930 . S
H794 C807 0.929 . S
H795 C805 0.929 . S
H796 C800 0.929 . S
H797 C806 0.929 . S
C798 H792 0.930 . S
C798 C799 1.367 . S
C798 C806 1.378 . S
C799 C798 1.367 . S
C799 C807 1.433 1_554 S
C800 H796 0.929 . S
C800 C802 1.378 . S
C800 C804 1.350 . S
C801 C804 1.463 1_454 S
C801 C806 1.350 . S
C801 N809 1.427 1_554 S
C802 H793 0.930 . S
C802 C800 1.378 . S
C802 C803 1.367 . S
C803 C802 1.367 . S
C803 C805 1.433 1_556 S
C804 C800 1.350 . S
C804 C801 1.463 1_656 S
C804 N808 1.427 1_556 S
C805 H795 0.929 . S
C805 C803 1.433 1_554 S
C805 N808 1.384 . S
C806 H797 0.929 . S
C806 C798 1.378 . S
C806 C801 1.350 . S
C807 H794 0.929 . S
C807 C799 1.433 1_556 S
C807 N809 1.384 . S
N808 C804 1.427 1_554 S
N808 C805 1.384 . S
N809 C801 1.427 1_556 S
N809 C807 1.384 . S
H810 C816 0.930 . S
H811 C820 0.930 . S
H812 C825 0.929 . S
H813 C823 0.929 . S
H814 C818 0.929 . S
H815 C824 0.929 . S
C816 H810 0.930 . S
C816 C817 1.367 . S
C816 C824 1.378 . S
C817 C816 1.367 . S
C817 C825 1.433 . S
C818 H814 0.929 . S
C818 C820 1.378 . S
C818 C822 1.350 . S
C819 C822 1.463 1_556 S
C819 C824 1.350 . S
C819 N827 1.427 1_556 S
C820 H811 0.930 . S
C820 C818 1.378 . S
C820 C821 1.367 . S
C821 C820 1.367 . S
C821 C823 1.433 . S
C822 C818 1.350 . S
C822 C819 1.463 1_554 S
C822 N826 1.427 1_554 S
C823 H813 0.929 . S
C823 C821 1.433 . S
C823 N826 1.384 1_554 S
C824 H815 0.929 . S
C824 C816 1.378 . S
C824 C819 1.350 . S
C825 H812 0.929 . S
C825 C817 1.433 . S
C825 N827 1.384 1_556 S
N826 C822 1.427 1_556 S
N826 C823 1.384 1_556 S
N827 C819 1.427 1_554 S
N827 C825 1.384 1_554 S
H828 C834 0.930 . S
H829 C838 0.930 . S
H830 C843 0.929 . S
H831 C841 0.929 . S
H832 C836 0.929 . S
H833 C842 0.929 . S
C834 H828 0.930 . S
C834 C835 1.367 1_556 S
C834 C842 1.378 . S
C835 C834 1.367 1_554 S
C835 C843 1.433 . S
C836 H832 0.929 . S
C836 C838 1.378 . S
C836 C840 1.350 1_554 S
C837 C840 1.463 1_564 S
C837 C842 1.350 1_554 S
C837 N845 1.427 . S
C838 H829 0.930 . S
C838 C836 1.378 . S
C838 C839 1.367 1_554 S
C839 C838 1.367 1_556 S
C839 C841 1.433 . S
C840 C836 1.350 1_556 S
C840 C837 1.463 1_546 S
C840 N844 1.427 . S
C841 H831 0.929 . S
C841 C839 1.433 . S
C841 N844 1.384 . S
C842 H833 0.929 . S
C842 C834 1.378 . S
C842 C837 1.350 1_556 S
C843 H830 0.929 . S
C843 C835 1.433 . S
C843 N845 1.384 . S
N844 C840 1.427 . S
N844 C841 1.384 . S
N845 C837 1.427 . S
N845 C843 1.384 . S
H846 C852 0.930 . S
H847 C856 0.930 . S
H848 C861 0.929 . S
H849 C859 0.929 . S
H850 C854 0.929 . S
H851 C860 0.929 . S
C852 H846 0.930 . S
C852 C853 1.367 . S
C852 C860 1.378 . S
C853 C852 1.367 . S
C853 C861 1.433 1_556 S
C854 H850 0.929 . S
C854 C856 1.378 . S
C854 C858 1.350 . S
C855 C858 1.463 1_656 S
C855 C860 1.350 . S
C855 N863 1.427 1_556 S
C856 H847 0.930 . S
C856 C854 1.378 . S
C856 C857 1.367 . S
C857 C856 1.367 . S
C857 C859 1.433 1_554 S
C858 C854 1.350 . S
C858 C855 1.463 1_454 S
C858 N862 1.427 1_554 S
C859 H849 0.929 . S
C859 C857 1.433 1_556 S
C859 N862 1.384 . S
C860 H851 0.929 . S
C860 C852 1.378 . S
C860 C855 1.350 . S
C861 H848 0.929 . S
C861 C853 1.433 1_554 S
C861 N863 1.384 . S
N862 C858 1.427 1_556 S
N862 C859 1.384 . S
N863 C855 1.427 1_554 S
N863 C861 1.384 . S
H864 C870 0.930 . S
H865 C874 0.930 . S
H866 C879 0.923 1_554 S
H867 C877 0.923 1_556 S
H868 C872 0.929 . S
H869 C878 0.929 . S
C870 H864 0.930 . S
C870 C871 1.367 . S
C870 C878 1.378 . S
C871 C870 1.367 . S
C871 C879 1.443 . S
C872 H868 0.929 . S
C872 C874 1.378 . S
C872 C876 1.350 . S
C873 C876 1.463 1_556 S
C873 C878 1.350 . S
C873 N881 1.427 1_556 S
C874 H865 0.930 . S
C874 C872 1.378 . S
C874 C875 1.367 . S
C875 C874 1.367 . S
C875 C877 1.443 . S
C876 C872 1.350 . S
C876 C873 1.463 1_554 S
C876 N880 1.427 1_554 S
C877 H867 0.923 1_554 S
C877 C875 1.443 . S
C877 N880 1.380 1_554 S
C878 H869 0.929 . S
C878 C870 1.378 . S
C878 C873 1.350 . S
C879 H866 0.923 1_556 S
C879 C871 1.443 . S
C879 N881 1.380 1_556 S
N880 C876 1.427 1_556 S
N880 C877 1.380 1_556 S
N881 C873 1.427 1_554 S
N881 C879 1.380 1_554 S
H882 C888 0.930 . S
H883 C892 0.930 . S
H884 C897 0.931 . S
H885 C895 0.933 . S
H886 C890 0.929 . S
H887 C896 0.929 . S
C888 H882 0.930 . S
C888 C889 1.367 . S
C888 C896 1.378 . S
C889 C888 1.367 . S
C889 C897 1.430 1_556 S
C890 H886 0.929 . S
C890 C892 1.378 . S
C890 C894 1.350 . S
C891 C894 1.463 1_546 S
C891 C896 1.350 . S
C891 N899 1.427 1_556 S
C892 H883 0.930 . S
C892 C890 1.378 . S
C892 C893 1.367 . S
C893 C892 1.367 . S
C893 C895 1.427 1_554 S
C894 C890 1.350 . S
C894 C891 1.463 1_564 S
C894 N898 1.427 1_554 S
C895 H885 0.933 . S
C895 C893 1.427 1_556 S
C895 N898 1.386 . S
C896 H887 0.929 . S
C896 C888 1.378 . S
C896 C891 1.350 . S
C897 H884 0.931 . S
C897 C889 1.430 1_554 S
C897 N899 1.385 . S
N898 C894 1.427 1_556 S
N898 C895 1.386 . S
N899 C891 1.427 1_554 S
N899 C897 1.385 . S
H900 C906 0.930 . S
H901 C910 0.930 . S
H902 C915 0.929 . S
H903 C913 0.929 . S
H904 C908 0.929 . S
H905 C914 0.929 . S
C906 H900 0.930 . S
C906 C907 1.367 . S
C906 C914 1.378 . S
C907 C906 1.367 . S
C907 C915 1.433 . S
C908 H904 0.929 . S
C908 C910 1.378 . S
C908 C912 1.350 . S
C909 C912 1.463 . S
C909 C914 1.350 . S
C909 N917 1.427 . S
C910 H901 0.930 . S
C910 C908 1.378 . S
C910 C911 1.367 . S
C911 C910 1.367 . S
C911 C913 1.433 . S
C912 C908 1.350 . S
C912 C909 1.463 . S
C912 N916 1.427 . S
C913 H903 0.929 . S
C913 C911 1.433 . S
C913 N916 1.384 . S
C914 H905 0.929 . S
C914 C906 1.378 . S
C914 C909 1.350 . S
C915 H902 0.929 . S
C915 C907 1.433 . S
C915 N917 1.384 . S
N916 C912 1.427 . S
N916 C913 1.384 . S
N917 C909 1.427 . S
N917 C915 1.384 . S
H918 C924 0.930 . S
H919 C928 0.930 . S
H920 C933 0.929 . S
H921 C931 0.929 . S
H922 C926 0.929 . S
H923 C932 0.929 . S
C924 H918 0.930 . S
C924 C925 1.367 . S
C924 C932 1.378 . S
C925 C924 1.367 . S
C925 C933 1.433 . S
C926 H922 0.929 . S
C926 C928 1.378 . S
C926 C930 1.350 . S
C927 C930 1.463 . S
C927 C932 1.350 . S
C927 N935 1.427 . S
C928 H919 0.930 . S
C928 C926 1.378 . S
C928 C929 1.367 . S
C929 C928 1.367 . S
C929 C931 1.433 . S
C930 C926 1.350 . S
C930 C927 1.463 . S
C930 N934 1.427 . S
C931 H921 0.929 . S
C931 C929 1.433 . S
C931 N934 1.384 . S
C932 H923 0.929 . S
C932 C924 1.378 . S
C932 C927 1.350 . S
C933 H920 0.929 . S
C933 C925 1.433 . S
C933 N935 1.384 . S
N934 C930 1.427 . S
N934 C931 1.384 . S
N935 C927 1.427 . S
N935 C933 1.384 . S
H936 C942 0.930 . S
H937 C946 0.930 . S
H938 C951 0.929 . S
H939 C949 0.929 . S
H940 C944 0.929 . S
H941 C950 0.929 . S
C942 H936 0.930 . S
C942 C943 1.367 . S
C942 C950 1.378 . S
C943 C942 1.367 . S
C943 C951 1.433 . S
C944 H940 0.929 . S
C944 C946 1.378 . S
C944 C948 1.350 . S
C945 C948 1.463 . S
C945 C950 1.350 . S
C945 N953 1.427 . S
C946 H937 0.930 . S
C946 C944 1.378 . S
C946 C947 1.367 . S
C947 C946 1.367 . S
C947 C949 1.433 . S
C948 C944 1.350 . S
C948 C945 1.463 . S
C948 N952 1.427 . S
C949 H939 0.929 . S
C949 C947 1.433 . S
C949 N952 1.384 . S
C950 H941 0.929 . S
C950 C942 1.378 . S
C950 C945 1.350 . S
C951 H938 0.929 . S
C951 C943 1.433 . S
C951 N953 1.384 . S
N952 C948 1.427 . S
N952 C949 1.384 . S
N953 C945 1.427 . S
N953 C951 1.384 . S
H954 C960 0.930 . S
H955 C964 0.930 . S
H956 C969 0.929 . S
H957 C967 0.929 . S
H958 C962 0.929 . S
H959 C968 0.929 . S
C960 H954 0.930 . S
C960 C961 1.367 . S
C960 C968 1.378 . S
C961 C960 1.367 . S
C961 C969 1.433 . S
C962 H958 0.929 . S
C962 C964 1.378 . S
C962 C966 1.350 . S
C963 C966 1.463 . S
C963 C968 1.350 . S
C963 N971 1.427 . S
C964 H955 0.930 . S
C964 C962 1.378 . S
C964 C965 1.367 . S
C965 C964 1.367 . S
C965 C967 1.433 . S
C966 C962 1.350 . S
C966 C963 1.463 . S
C966 N970 1.427 . S
C967 H957 0.929 . S
C967 C965 1.433 . S
C967 N970 1.384 . S
C968 H959 0.929 . S
C968 C960 1.378 . S
C968 C963 1.350 . S
C969 H956 0.929 . S
C969 C961 1.433 . S
C969 N971 1.384 . S
N970 C966 1.427 . S
N970 C967 1.384 . S
N971 C963 1.427 . S
N971 C969 1.384 . S
H972 C978 0.930 . S
H973 C982 0.930 . S
H974 C987 0.929 . S
H975 C985 0.929 . S
H976 C980 0.929 . S
H977 C986 0.929 . S
C978 H972 0.930 . S
C978 C979 1.367 . S
C978 C986 1.378 . S
C979 C978 1.367 . S
C979 C987 1.433 . S
C980 H976 0.929 . S
C980 C982 1.378 . S
C980 C984 1.350 . S
C981 C984 1.463 . S
C981 C986 1.350 . S
C981 N989 1.427 . S
C982 H973 0.930 . S
C982 C980 1.378 . S
C982 C983 1.367 . S
C983 C982 1.367 . S
C983 C985 1.433 . S
C984 C980 1.350 . S
C984 C981 1.463 . S
C984 N988 1.427 . S
C985 H975 0.929 . S
C985 C983 1.433 . S
C985 N988 1.384 . S
C986 H977 0.929 . S
C986 C978 1.378 . S
C986 C981 1.350 . S
C987 H974 0.929 . S
C987 C979 1.433 . S
C987 N989 1.384 . S
N988 C984 1.427 . S
N988 C985 1.384 . S
N989 C981 1.427 . S
N989 C987 1.384 . S
H990 C996 0.930 . S
H991 C1000 0.930 . S
H992 C1005 0.929 . S
H993 C1003 0.929 . S
H994 C998 0.929 . S
H995 C1004 0.929 . S
C996 H990 0.930 . S
C996 C997 1.367 . S
C996 C1004 1.378 . S
C997 C996 1.367 . S
C997 C1005 1.433 . S
C998 H994 0.929 . S
C998 C1000 1.378 . S
C998 C1002 1.350 . S
C999 C1002 1.463 . S
C999 C1004 1.350 . S
C999 N1007 1.427 . S
C1000 H991 0.930 . S
C1000 C998 1.378 . S
C1000 C1001 1.367 . S
C1001 C1000 1.367 . S
C1001 C1003 1.433 . S
C1002 C998 1.350 . S
C1002 C999 1.463 . S
C1002 N1006 1.427 . S
C1003 H993 0.929 . S
C1003 C1001 1.433 . S
C1003 N1006 1.384 . S
C1004 H995 0.929 . S
C1004 C996 1.378 . S
C1004 C999 1.350 . S
C1005 H992 0.929 . S
C1005 C997 1.433 . S
C1005 N1007 1.384 . S
N1006 C1002 1.427 . S
N1006 C1003 1.384 . S
N1007 C999 1.427 . S
N1007 C1005 1.384 . S
H1008 C1014 0.930 . S
H1009 C1018 0.930 . S
H1010 C1023 0.929 . S
H1011 C1021 0.929 . S
H1012 C1016 0.929 . S
H1013 C1022 0.929 . S
C1014 H1008 0.930 . S
C1014 C1015 1.367 . S
C1014 C1022 1.378 . S
C1015 C1014 1.367 . S
C1015 C1023 1.433 . S
C1016 H1012 0.929 . S
C1016 C1018 1.378 . S
C1016 C1020 1.350 . S
C1017 C1020 1.463 . S
C1017 C1022 1.350 . S
C1017 N1025 1.427 . S
C1018 H1009 0.930 . S
C1018 C1016 1.378 . S
C1018 C1019 1.367 . S
C1019 C1018 1.367 . S
C1019 C1021 1.433 . S
C1020 C1016 1.350 . S
C1020 C1017 1.463 . S
C1020 N1024 1.427 . S
C1021 H1011 0.929 . S
C1021 C1019 1.433 . S
C1021 N1024 1.384 . S
C1022 H1013 0.929 . S
C1022 C1014 1.378 . S
C1022 C1017 1.350 . S
C1023 H1010 0.929 . S
C1023 C1015 1.433 . S
C1023 N1025 1.384 . S
N1024 C1020 1.427 . S
N1024 C1021 1.384 . S
N1025 C1017 1.427 . S
N1025 C1023 1.384 . S
H1026 C1032 0.930 . S
H1027 C1036 0.930 . S
H1028 C1041 0.929 . S
H1029 C1039 0.929 . S
H1030 C1034 0.929 . S
H1031 C1040 0.929 . S
C1032 H1026 0.930 . S
C1032 C1033 1.367 . S
C1032 C1040 1.378 . S
C1033 C1032 1.367 . S
C1033 C1041 1.433 . S
C1034 H1030 0.929 . S
C1034 C1036 1.378 . S
C1034 C1038 1.350 . S
C1035 C1038 1.463 . S
C1035 C1040 1.350 . S
C1035 N1043 1.427 . S
C1036 H1027 0.930 . S
C1036 C1034 1.378 . S
C1036 C1037 1.367 . S
C1037 C1036 1.367 . S
C1037 C1039 1.433 . S
C1038 C1034 1.350 . S
C1038 C1035 1.463 . S
C1038 N1042 1.427 . S
C1039 H1029 0.929 . S
C1039 C1037 1.433 . S
C1039 N1042 1.384 . S
C1040 H1031 0.929 . S
C1040 C1032 1.378 . S
C1040 C1035 1.350 . S
C1041 H1028 0.929 . S
C1041 C1033 1.433 . S
C1041 N1043 1.384 . S
N1042 C1038 1.427 . S
N1042 C1039 1.384 . S
N1043 C1035 1.427 . S
N1043 C1041 1.384 . S
H1044 C1050 0.930 . S
H1045 C1054 0.930 . S
H1046 C1059 0.929 . S
H1047 C1057 0.929 . S
H1048 C1052 0.929 . S
H1049 C1058 0.929 . S
C1050 H1044 0.930 . S
C1050 C1051 1.367 . S
C1050 C1058 1.378 . S
C1051 C1050 1.367 . S
C1051 C1059 1.433 . S
C1052 H1048 0.929 . S
C1052 C1054 1.378 . S
C1052 C1056 1.350 . S
C1053 C1056 1.463 . S
C1053 C1058 1.350 . S
C1053 N1061 1.427 . S
C1054 H1045 0.930 . S
C1054 C1052 1.378 . S
C1054 C1055 1.367 . S
C1055 C1054 1.367 . S
C1055 C1057 1.433 . S
C1056 C1052 1.350 . S
C1056 C1053 1.463 . S
C1056 N1060 1.427 . S
C1057 H1047 0.929 . S
C1057 C1055 1.433 . S
C1057 N1060 1.384 . S
C1058 H1049 0.929 . S
C1058 C1050 1.378 . S
C1058 C1053 1.350 . S
C1059 H1046 0.929 . S
C1059 C1051 1.433 . S
C1059 N1061 1.384 . S
N1060 C1056 1.427 . S
N1060 C1057 1.384 . S
N1061 C1053 1.427 . S
N1061 C1059 1.384 . S
H1062 C1068 0.930 . S
H1063 C1072 0.930 . S
H1064 C1077 0.929 . S
H1065 C1075 0.929 . S
H1066 C1070 0.929 . S
H1067 C1076 0.929 . S
C1068 H1062 0.930 . S
C1068 C1069 1.367 . S
C1068 C1076 1.378 . S
C1069 C1068 1.367 . S
C1069 C1077 1.433 . S
C1070 H1066 0.929 . S
C1070 C1072 1.378 . S
C1070 C1074 1.350 . S
C1071 C1074 1.463 . S
C1071 C1076 1.350 . S
C1071 N1079 1.427 . S
C1072 H1063 0.930 . S
C1072 C1070 1.378 . S
C1072 C1073 1.367 . S
C1073 C1072 1.367 . S
C1073 C1075 1.433 . S
C1074 C1070 1.350 . S
C1074 C1071 1.463 . S
C1074 N1078 1.427 . S
C1075 H1065 0.929 . S
C1075 C1073 1.433 . S
C1075 N1078 1.384 . S
C1076 H1067 0.929 . S
C1076 C1068 1.378 . S
C1076 C1071 1.350 . S
C1077 H1064 0.929 . S
C1077 C1069 1.433 . S
C1077 N1079 1.384 . S
N1078 C1074 1.427 . S
N1078 C1075 1.384 . S
N1079 C1071 1.427 . S
N1079 C1077 1.384 . S
H1080 C1086 0.930 . S
H1081 C1090 0.930 . S
H1082 C1095 0.929 . S
H1083 C1093 0.929 . S
H1084 C1088 0.929 . S
H1085 C1094 0.929 . S
C1086 H1080 0.930 . S
C1086 C1087 1.367 . S
C1086 C1094 1.378 . S
C1087 C1086 1.367 . S
C1087 C1095 1.433 . S
C1088 H1084 0.929 . S
C1088 C1090 1.378 . S
C1088 C1092 1.350 . S
C1089 C1092 1.463 . S
C1089 C1094 1.350 . S
C1089 N1097 1.427 . S
C1090 H1081 0.930 . S
C1090 C1088 1.378 . S
C1090 C1091 1.367 . S
C1091 C1090 1.367 . S
C1091 C1093 1.433 . S
C1092 C1088 1.350 . S
C1092 C1089 1.463 . S
C1092 N1096 1.427 . S
C1093 H1083 0.929 . S
C1093 C1091 1.433 . S
C1093 N1096 1.384 . S
C1094 H1085 0.929 . S
C1094 C1086 1.378 . S
C1094 C1089 1.350 . S
C1095 H1082 0.929 . S
C1095 C1087 1.433 . S
C1095 N1097 1.384 . S
N1096 C1092 1.427 . S
N1096 C1093 1.384 . S
N1097 C1089 1.427 . S
N1097 C1095 1.384 . S
H1098 C1104 0.930 . S
H1099 C1108 0.930 . S
H1100 C1113 0.929 . S
H1101 C1111 0.929 . S
H1102 C1106 0.929 . S
H1103 C1112 0.929 . S
C1104 H1098 0.930 . S
C1104 C1105 1.367 . S
C1104 C1112 1.378 . S
C1105 C1104 1.367 . S
C1105 C1113 1.433 . S
C1106 H1102 0.929 . S
C1106 C1108 1.378 . S
C1106 C1110 1.350 . S
C1107 C1110 1.463 . S
C1107 C1112 1.350 . S
C1107 N1115 1.427 . S
C1108 H1099 0.930 . S
C1108 C1106 1.378 . S
C1108 C1109 1.367 . S
C1109 C1108 1.367 . S
C1109 C1111 1.433 . S
C1110 C1106 1.350 . S
C1110 C1107 1.463 . S
C1110 N1114 1.427 . S
C1111 H1101 0.929 . S
C1111 C1109 1.433 . S
C1111 N1114 1.384 . S
C1112 H1103 0.929 . S
C1112 C1104 1.378 . S
C1112 C1107 1.350 . S
C1113 H1100 0.929 . S
C1113 C1105 1.433 . S
C1113 N1115 1.384 . S
N1114 C1110 1.427 . S
N1114 C1111 1.384 . S
N1115 C1107 1.427 . S
N1115 C1113 1.384 . S
H1116 C1122 0.930 . S
H1117 C1126 0.930 . S
H1118 C1131 0.929 . S
H1119 C1129 0.929 . S
H1120 C1124 0.929 . S
H1121 C1130 0.929 . S
C1122 H1116 0.930 . S
C1122 C1123 1.367 . S
C1122 C1130 1.378 . S
C1123 C1122 1.367 . S
C1123 C1131 1.433 . S
C1124 H1120 0.929 . S
C1124 C1126 1.378 . S
C1124 C1128 1.350 . S
C1125 C1128 1.463 . S
C1125 C1130 1.350 . S
C1125 N1133 1.427 . S
C1126 H1117 0.930 . S
C1126 C1124 1.378 . S
C1126 C1127 1.367 . S
C1127 C1126 1.367 . S
C1127 C1129 1.433 . S
C1128 C1124 1.350 . S
C1128 C1125 1.463 . S
C1128 N1132 1.427 . S
C1129 H1119 0.929 . S
C1129 C1127 1.433 . S
C1129 N1132 1.384 . S
C1130 H1121 0.929 . S
C1130 C1122 1.378 . S
C1130 C1125 1.350 . S
C1131 H1118 0.929 . S
C1131 C1123 1.433 . S
C1131 N1133 1.384 . S
N1132 C1128 1.427 . S
N1132 C1129 1.384 . S
N1133 C1125 1.427 . S
N1133 C1131 1.384 . S
H1134 C1140 0.930 . S
H1135 C1144 0.930 . S
H1136 C1149 0.929 . S
H1137 C1147 0.929 . S
H1138 C1142 0.929 . S
H1139 C1148 0.929 . S
C1140 H1134 0.930 . S
C1140 C1141 1.367 . S
C1140 C1148 1.378 . S
C1141 C1140 1.367 . S
C1141 C1149 1.433 . S
C1142 H1138 0.929 . S
C1142 C1144 1.378 . S
C1142 C1146 1.350 . S
C1143 C1146 1.463 . S
C1143 C1148 1.350 . S
C1143 N1151 1.427 . S
C1144 H1135 0.930 . S
C1144 C1142 1.378 . S
C1144 C1145 1.367 . S
C1145 C1144 1.367 . S
C1145 C1147 1.433 . S
C1146 C1142 1.350 . S
C1146 C1143 1.463 . S
C1146 N1150 1.427 . S
C1147 H1137 0.929 . S
C1147 C1145 1.433 . S
C1147 N1150 1.384 . S
C1148 H1139 0.929 . S
C1148 C1140 1.378 . S
C1148 C1143 1.350 . S
C1149 H1136 0.929 . S
C1149 C1141 1.433 . S
C1149 N1151 1.384 . S
N1150 C1146 1.427 . S
N1150 C1147 1.384 . S
N1151 C1143 1.427 . S
N1151 C1149 1.384 . S
H1152 C1158 0.930 . S
H1153 C1162 0.930 . S
H1154 C1167 0.929 . S
H1155 C1165 0.929 . S
H1156 C1160 0.929 . S
H1157 C1166 0.929 . S
C1158 H1152 0.930 . S
C1158 C1159 1.367 . S
C1158 C1166 1.378 . S
C1159 C1158 1.367 . S
C1159 C1167 1.433 . S
C1160 H1156 0.929 . S
C1160 C1162 1.378 . S
C1160 C1164 1.350 . S
C1161 C1164 1.463 . S
C1161 C1166 1.350 . S
C1161 N1169 1.427 . S
C1162 H1153 0.930 . S
C1162 C1160 1.378 . S
C1162 C1163 1.367 . S
C1163 C1162 1.367 . S
C1163 C1165 1.433 . S
C1164 C1160 1.350 . S
C1164 C1161 1.463 . S
C1164 N1168 1.427 . S
C1165 H1155 0.929 . S
C1165 C1163 1.433 . S
C1165 N1168 1.384 . S
C1166 H1157 0.929 . S
C1166 C1158 1.378 . S
C1166 C1161 1.350 . S
C1167 H1154 0.929 . S
C1167 C1159 1.433 . S
C1167 N1169 1.384 . S
N1168 C1164 1.427 . S
N1168 C1165 1.384 . S
N1169 C1161 1.427 . S
N1169 C1167 1.384 . S
H1170 C1176 0.930 . S
H1171 C1180 0.930 . S
H1172 C1185 0.929 . S
H1173 C1183 0.929 . S
H1174 C1178 0.929 . S
H1175 C1184 0.929 . S
C1176 H1170 0.930 . S
C1176 C1177 1.367 . S
C1176 C1184 1.378 . S
C1177 C1176 1.367 . S
C1177 C1185 1.433 . S
C1178 H1174 0.929 . S
C1178 C1180 1.378 . S
C1178 C1182 1.350 . S
C1179 C1182 1.463 . S
C1179 C1184 1.350 . S
C1179 N1187 1.427 . S
C1180 H1171 0.930 . S
C1180 C1178 1.378 . S
C1180 C1181 1.367 . S
C1181 C1180 1.367 . S
C1181 C1183 1.433 . S
C1182 C1178 1.350 . S
C1182 C1179 1.463 . S
C1182 N1186 1.427 . S
C1183 H1173 0.929 . S
C1183 C1181 1.433 . S
C1183 N1186 1.384 . S
C1184 H1175 0.929 . S
C1184 C1176 1.378 . S
C1184 C1179 1.350 . S
C1185 H1172 0.929 . S
C1185 C1177 1.433 . S
C1185 N1187 1.384 . S
N1186 C1182 1.427 . S
N1186 C1183 1.384 . S
N1187 C1179 1.427 . S
N1187 C1185 1.384 . S
H1188 C1194 0.930 . S
H1189 C1198 0.930 . S
H1190 C1203 0.929 . S
H1191 C1201 0.929 . S
H1192 C1196 0.929 . S
H1193 C1202 0.929 . S
C1194 H1188 0.930 . S
C1194 C1195 1.367 . S
C1194 C1202 1.378 . S
C1195 C1194 1.367 . S
C1195 C1203 1.433 . S
C1196 H1192 0.929 . S
C1196 C1198 1.378 . S
C1196 C1200 1.350 . S
C1197 C1200 1.463 . S
C1197 C1202 1.350 . S
C1197 N1205 1.427 . S
C1198 H1189 0.930 . S
C1198 C1196 1.378 . S
C1198 C1199 1.367 . S
C1199 C1198 1.367 . S
C1199 C1201 1.433 . S
C1200 C1196 1.350 . S
C1200 C1197 1.463 . S
C1200 N1204 1.427 . S
C1201 H1191 0.929 . S
C1201 C1199 1.433 . S
C1201 N1204 1.384 . S
C1202 H1193 0.929 . S
C1202 C1194 1.378 . S
C1202 C1197 1.350 . S
C1203 H1190 0.929 . S
C1203 C1195 1.433 . S
C1203 N1205 1.384 . S
N1204 C1200 1.427 . S
N1204 C1201 1.384 . S
N1205 C1197 1.427 . S
N1205 C1203 1.384 . S
H1206 C1212 0.930 . S
H1207 C1216 0.930 . S
H1208 C1221 0.929 . S
H1209 C1219 0.929 . S
H1210 C1214 0.929 . S
H1211 C1220 0.929 . S
C1212 H1206 0.930 . S
C1212 C1213 1.367 . S
C1212 C1220 1.378 . S
C1213 C1212 1.367 . S
C1213 C1221 1.433 . S
C1214 H1210 0.929 . S
C1214 C1216 1.378 . S
C1214 C1218 1.350 . S
C1215 C1218 1.463 . S
C1215 C1220 1.350 . S
C1215 N1223 1.427 . S
C1216 H1207 0.930 . S
C1216 C1214 1.378 . S
C1216 C1217 1.367 . S
C1217 C1216 1.367 . S
C1217 C1219 1.433 . S
C1218 C1214 1.350 . S
C1218 C1215 1.463 . S
C1218 N1222 1.427 . S
C1219 H1209 0.929 . S
C1219 C1217 1.433 . S
C1219 N1222 1.384 . S
C1220 H1211 0.929 . S
C1220 C1212 1.378 . S
C1220 C1215 1.350 . S
C1221 H1208 0.929 . S
C1221 C1213 1.433 . S
C1221 N1223 1.384 . S
N1222 C1218 1.427 . S
N1222 C1219 1.384 . S
N1223 C1215 1.427 . S
N1223 C1221 1.384 . S
H1224 C1230 0.930 . S
H1225 C1234 0.930 . S
H1226 C1239 0.929 . S
H1227 C1237 0.929 . S
H1228 C1232 0.929 . S
H1229 C1238 0.929 . S
C1230 H1224 0.930 . S
C1230 C1231 1.367 . S
C1230 C1238 1.378 . S
C1231 C1230 1.367 . S
C1231 C1239 1.433 . S
C1232 H1228 0.929 . S
C1232 C1234 1.378 . S
C1232 C1236 1.350 . S
C1233 C1236 1.463 . S
C1233 C1238 1.350 . S
C1233 N1241 1.427 . S
C1234 H1225 0.930 . S
C1234 C1232 1.378 . S
C1234 C1235 1.367 . S
C1235 C1234 1.367 . S
C1235 C1237 1.433 . S
C1236 C1232 1.350 . S
C1236 C1233 1.463 . S
C1236 N1240 1.427 . S
C1237 H1227 0.929 . S
C1237 C1235 1.433 . S
C1237 N1240 1.384 . S
C1238 H1229 0.929 . S
C1238 C1230 1.378 . S
C1238 C1233 1.350 . S
C1239 H1226 0.929 . S
C1239 C1231 1.433 . S
C1239 N1241 1.384 . S
N1240 C1236 1.427 . S
N1240 C1237 1.384 . S
N1241 C1233 1.427 . S
N1241 C1239 1.384 . S
H1242 C1248 0.930 . S
H1243 C1252 0.930 . S
H1244 C1257 0.929 . S
H1245 C1255 0.929 . S
H1246 C1250 0.929 . S
H1247 C1256 0.929 . S
C1248 H1242 0.930 . S
C1248 C1249 1.367 . S
C1248 C1256 1.378 . S
C1249 C1248 1.367 . S
C1249 C1257 1.433 . S
C1250 H1246 0.929 . S
C1250 C1252 1.378 . S
C1250 C1254 1.350 . S
C1251 C1254 1.463 . S
C1251 C1256 1.350 . S
C1251 N1259 1.427 . S
C1252 H1243 0.930 . S
C1252 C1250 1.378 . S
C1252 C1253 1.367 . S
C1253 C1252 1.367 . S
C1253 C1255 1.433 . S
C1254 C1250 1.350 . S
C1254 C1251 1.463 . S
C1254 N1258 1.427 . S
C1255 H1245 0.929 . S
C1255 C1253 1.433 . S
C1255 N1258 1.384 . S
C1256 H1247 0.929 . S
C1256 C1248 1.378 . S
C1256 C1251 1.350 . S
C1257 H1244 0.929 . S
C1257 C1249 1.433 . S
C1257 N1259 1.384 . S
N1258 C1254 1.427 . S
N1258 C1255 1.384 . S
N1259 C1251 1.427 . S
N1259 C1257 1.384 . S
H1260 C1266 0.930 . S
H1261 C1270 0.930 . S
H1262 C1275 0.929 . S
H1263 C1273 0.929 . S
H1264 C1268 0.929 . S
H1265 C1274 0.929 . S
C1266 H1260 0.930 . S
C1266 C1267 1.367 . S
C1266 C1274 1.378 . S
C1267 C1266 1.367 . S
C1267 C1275 1.433 . S
C1268 H1264 0.929 . S
C1268 C1270 1.378 . S
C1268 C1272 1.350 . S
C1269 C1272 1.463 . S
C1269 C1274 1.350 . S
C1269 N1277 1.427 . S
C1270 H1261 0.930 . S
C1270 C1268 1.378 . S
C1270 C1271 1.367 . S
C1271 C1270 1.367 . S
C1271 C1273 1.433 . S
C1272 C1268 1.350 . S
C1272 C1269 1.463 . S
C1272 N1276 1.427 . S
C1273 H1263 0.929 . S
C1273 C1271 1.433 . S
C1273 N1276 1.384 . S
C1274 H1265 0.929 . S
C1274 C1266 1.378 . S
C1274 C1269 1.350 . S
C1275 H1262 0.929 . S
C1275 C1267 1.433 . S
C1275 N1277 1.384 . S
N1276 C1272 1.427 . S
N1276 C1273 1.384 . S
N1277 C1269 1.427 . S
N1277 C1275 1.384 . S
H1278 C1284 0.930 . S
H1279 C1288 0.930 . S
H1280 C1293 0.929 . S
H1281 C1291 0.929 . S
H1282 C1286 0.929 . S
H1283 C1292 0.929 . S
C1284 H1278 0.930 . S
C1284 C1285 1.367 . S
C1284 C1292 1.378 . S
C1285 C1284 1.367 . S
C1285 C1293 1.433 . S
C1286 H1282 0.929 . S
C1286 C1288 1.378 . S
C1286 C1290 1.350 . S
C1287 C1290 1.463 . S
C1287 C1292 1.350 . S
C1287 N1295 1.427 . S
C1288 H1279 0.930 . S
C1288 C1286 1.378 . S
C1288 C1289 1.367 . S
C1289 C1288 1.367 . S
C1289 C1291 1.433 . S
C1290 C1286 1.350 . S
C1290 C1287 1.463 . S
C1290 N1294 1.427 . S
C1291 H1281 0.929 . S
C1291 C1289 1.433 . S
C1291 N1294 1.384 . S
C1292 H1283 0.929 . S
C1292 C1284 1.378 . S
C1292 C1287 1.350 . S
C1293 H1280 0.929 . S
C1293 C1285 1.433 . S
C1293 N1295 1.384 . S
N1294 C1290 1.427 . S
N1294 C1291 1.384 . S
N1295 C1287 1.427 . S
N1295 C1293 1.384 . S
H1296 C1302 0.930 . S
H1297 C1306 0.930 . S
H1298 C1311 0.929 . S
H1299 C1309 0.929 . S
H1300 C1304 0.929 . S
H1301 C1310 0.929 . S
C1302 H1296 0.930 . S
C1302 C1303 1.367 . S
C1302 C1310 1.378 . S
C1303 C1302 1.367 . S
C1303 C1311 1.433 . S
C1304 H1300 0.929 . S
C1304 C1306 1.378 . S
C1304 C1308 1.350 . S
C1305 C1308 1.463 . S
C1305 C1310 1.350 . S
C1305 N1313 1.427 . S
C1306 H1297 0.930 . S
C1306 C1304 1.378 . S
C1306 C1307 1.367 . S
C1307 C1306 1.367 . S
C1307 C1309 1.433 . S
C1308 C1304 1.350 . S
C1308 C1305 1.463 . S
C1308 N1312 1.427 . S
C1309 H1299 0.929 . S
C1309 C1307 1.433 . S
C1309 N1312 1.384 . S
C1310 H1301 0.929 . S
C1310 C1302 1.378 . S
C1310 C1305 1.350 . S
C1311 H1298 0.929 . S
C1311 C1303 1.433 . S
C1311 N1313 1.384 . S
N1312 C1308 1.427 . S
N1312 C1309 1.384 . S
N1313 C1305 1.427 . S
N1313 C1311 1.384 . S
H1314 C1320 0.930 . S
H1315 C1324 0.930 . S
H1316 C1329 0.929 . S
H1317 C1327 0.929 . S
H1318 C1322 0.929 . S
H1319 C1328 0.929 . S
C1320 H1314 0.930 . S
C1320 C1321 1.367 . S
C1320 C1328 1.378 . S
C1321 C1320 1.367 . S
C1321 C1329 1.433 . S
C1322 H1318 0.929 . S
C1322 C1324 1.378 . S
C1322 C1326 1.350 . S
C1323 C1326 1.463 . S
C1323 C1328 1.350 . S
C1323 N1331 1.427 . S
C1324 H1315 0.930 . S
C1324 C1322 1.378 . S
C1324 C1325 1.367 . S
C1325 C1324 1.367 . S
C1325 C1327 1.433 . S
C1326 C1322 1.350 . S
C1326 C1323 1.463 . S
C1326 N1330 1.427 . S
C1327 H1317 0.929 . S
C1327 C1325 1.433 . S
C1327 N1330 1.384 . S
C1328 H1319 0.929 . S
C1328 C1320 1.378 . S
C1328 C1323 1.350 . S
C1329 H1316 0.929 . S
C1329 C1321 1.433 . S
C1329 N1331 1.384 . S
N1330 C1326 1.427 . S
N1330 C1327 1.384 . S
N1331 C1323 1.427 . S
N1331 C1329 1.384 . S
H1332 C1338 0.930 . S
H1333 C1342 0.930 . S
H1334 C1347 0.929 . S
H1335 C1345 0.929 . S
H1336 C1340 0.894 1_455 S
H1337 C1346 0.897 1_655 S
C1338 H1332 0.930 . S
C1338 C1339 1.367 . S
C1338 C1346 1.418 . S
C1339 C1338 1.367 . S
C1339 C1347 1.433 . S
C1340 H1336 0.894 1_655 S
C1340 C1342 1.422 . S
C1340 C1344 1.348 . S
C1341 C1344 1.463 1_455 S
C1341 C1346 1.348 . S
C1341 N1349 1.427 . S
C1342 H1333 0.930 . S
C1342 C1340 1.422 . S
C1342 C1343 1.367 . S
C1343 C1342 1.367 . S
C1343 C1345 1.433 . S
C1344 C1340 1.348 . S
C1344 C1341 1.463 1_655 S
C1344 N1348 1.427 . S
C1345 H1335 0.929 . S
C1345 C1343 1.433 . S
C1345 N1348 1.384 . S
C1346 H1337 0.897 1_455 S
C1346 C1338 1.418 . S
C1346 C1341 1.348 . S
C1347 H1334 0.929 . S
C1347 C1339 1.433 . S
C1347 N1349 1.384 . S
N1348 C1344 1.427 . S
N1348 C1345 1.384 . S
N1349 C1341 1.427 . S
N1349 C1347 1.384 . S
H1350 C1356 0.930 . S
H1351 C1360 0.930 . S
H1352 C1365 0.929 . S
H1353 C1363 0.929 . S
H1354 C1358 0.929 . S
H1355 C1364 0.929 . S
C1356 H1350 0.930 . S
C1356 C1357 1.367 . S
C1356 C1364 1.378 . S
C1357 C1356 1.367 . S
C1357 C1365 1.433 . S
C1358 H1354 0.929 . S
C1358 C1360 1.378 . S
C1358 C1362 1.350 . S
C1359 C1362 1.463 . S
C1359 C1364 1.350 . S
C1359 N1367 1.427 . S
C1360 H1351 0.930 . S
C1360 C1358 1.378 . S
C1360 C1361 1.367 . S
C1361 C1360 1.367 . S
C1361 C1363 1.433 . S
C1362 C1358 1.350 . S
C1362 C1359 1.463 . S
C1362 N1366 1.427 . S
C1363 H1353 0.929 . S
C1363 C1361 1.433 . S
C1363 N1366 1.384 . S
C1364 H1355 0.929 . S
C1364 C1356 1.378 . S
C1364 C1359 1.350 . S
C1365 H1352 0.929 . S
C1365 C1357 1.433 . S
C1365 N1367 1.384 . S
N1366 C1362 1.427 . S
N1366 C1363 1.384 . S
N1367 C1359 1.427 . S
N1367 C1365 1.384 . S
H1368 C1374 0.930 . S
H1369 C1378 0.930 . S
H1370 C1383 0.929 . S
H1371 C1381 0.929 . S
H1372 C1376 0.929 . S
H1373 C1382 0.929 . S
C1374 H1368 0.930 . S
C1374 C1375 1.367 . S
C1374 C1382 1.378 . S
C1375 C1374 1.367 . S
C1375 C1383 1.433 . S
C1376 H1372 0.929 . S
C1376 C1378 1.378 . S
C1376 C1380 1.350 . S
C1377 C1380 1.463 1_565 S
C1377 C1382 1.350 . S
C1377 N1385 1.417 1_565 S
C1378 H1369 0.930 . S
C1378 C1376 1.378 . S
C1378 C1379 1.367 . S
C1379 C1378 1.367 . S
C1379 C1381 1.433 . S
C1380 C1376 1.350 . S
C1380 C1377 1.463 1_545 S
C1380 N1384 1.416 1_545 S
C1381 H1371 0.929 . S
C1381 C1379 1.433 . S
C1381 N1384 1.346 1_545 S
C1382 H1373 0.929 . S
C1382 C1374 1.378 . S
C1382 C1377 1.350 . S
C1383 H1370 0.929 . S
C1383 C1375 1.433 . S
C1383 N1385 1.349 1_565 S
N1384 C1380 1.416 1_565 S
N1384 C1381 1.346 1_565 S
N1385 C1377 1.417 1_545 S
N1385 C1383 1.349 1_545 S
H1386 C1392 0.930 . S
H1387 C1396 0.930 . S
H1388 C1401 0.929 . S
H1389 C1399 0.929 . S
H1390 C1394 0.929 . S
H1391 C1400 0.929 . S
C1392 H1386 0.930 . S
C1392 C1393 1.367 . S
C1392 C1400 1.378 . S
C1393 C1392 1.367 . S
C1393 C1401 1.433 . S
C1394 H1390 0.929 . S
C1394 C1396 1.378 . S
C1394 C1398 1.350 . S
C1395 C1398 1.463 1_565 S
C1395 C1400 1.350 . S
C1395 N1403 1.427 . S
C1396 H1387 0.930 . S
C1396 C1394 1.378 . S
C1396 C1397 1.367 . S
C1397 C1396 1.367 . S
C1397 C1399 1.433 . S
C1398 C1394 1.350 . S
C1398 C1395 1.463 1_545 S
C1398 N1402 1.427 . S
C1399 H1389 0.929 . S
C1399 C1397 1.433 . S
C1399 N1402 1.384 . S
C1400 H1391 0.929 . S
C1400 C1392 1.378 . S
C1400 C1395 1.350 . S
C1401 H1388 0.929 . S
C1401 C1393 1.433 . S
C1401 N1403 1.384 . S
N1402 C1398 1.427 . S
N1402 C1399 1.384 . S
N1403 C1395 1.427 . S
N1403 C1401 1.384 . S
H1404 C1410 0.930 . S
H1405 C1414 0.930 . S
H1406 C1419 0.929 . S
H1407 C1417 0.929 . S
H1408 C1412 0.929 1_655 S
H1409 C1418 0.929 1_455 S
C1410 H1404 0.930 . S
C1410 C1411 1.367 . S
C1410 C1418 1.378 . S
C1411 C1410 1.367 . S
C1411 C1419 1.433 . S
C1412 H1408 0.929 1_455 S
C1412 C1414 1.378 . S
C1412 C1416 1.350 . S
C1413 C1416 1.463 1_655 S
C1413 C1418 1.350 . S
C1413 N1421 1.427 . S
C1414 H1405 0.930 . S
C1414 C1412 1.378 . S
C1414 C1415 1.367 . S
C1415 C1414 1.367 . S
C1415 C1417 1.433 . S
C1416 C1412 1.350 . S
C1416 C1413 1.463 1_455 S
C1416 N1420 1.427 . S
C1417 H1407 0.929 . S
C1417 C1415 1.433 . S
C1417 N1420 1.384 . S
C1418 H1409 0.929 1_655 S
C1418 C1410 1.378 . S
C1418 C1413 1.350 . S
C1419 H1406 0.929 . S
C1419 C1411 1.433 . S
C1419 N1421 1.384 . S
N1420 C1416 1.427 . S
N1420 C1417 1.384 . S
N1421 C1413 1.427 . S
N1421 C1419 1.384 . S
H1422 C1428 0.930 . S
H1423 C1432 0.930 . S
H1424 C1437 0.929 . S
H1425 C1435 0.929 . S
H1426 C1430 0.929 . S
H1427 C1436 0.929 . S
C1428 H1422 0.930 . S
C1428 C1429 1.367 . S
C1428 C1436 1.378 . S
C1429 C1428 1.367 . S
C1429 C1437 1.433 . S
C1430 H1426 0.929 . S
C1430 C1432 1.378 . S
C1430 C1434 1.350 . S
C1431 C1434 1.463 . S
C1431 C1436 1.350 . S
C1431 N1439 1.427 . S
C1432 H1423 0.930 . S
C1432 C1430 1.378 . S
C1432 C1433 1.367 . S
C1433 C1432 1.367 . S
C1433 C1435 1.433 . S
C1434 C1430 1.350 . S
C1434 C1431 1.463 . S
C1434 N1438 1.427 . S
C1435 H1425 0.929 . S
C1435 C1433 1.433 . S
C1435 N1438 1.384 . S
C1436 H1427 0.929 . S
C1436 C1428 1.378 . S
C1436 C1431 1.350 . S
C1437 H1424 0.929 . S
C1437 C1429 1.433 . S
C1437 N1439 1.384 . S
N1438 C1434 1.427 . S
N1438 C1435 1.384 . S
N1439 C1431 1.427 . S
N1439 C1437 1.384 . S
H1440 C1446 0.930 . S
H1441 C1450 0.930 . S
H1442 C1455 0.929 . S
H1443 C1453 0.929 . S
H1444 C1448 0.929 . S
H1445 C1454 0.929 . S
C1446 H1440 0.930 . S
C1446 C1447 1.367 . S
C1446 C1454 1.378 . S
C1447 C1446 1.367 . S
C1447 C1455 1.433 . S
C1448 H1444 0.929 . S
C1448 C1450 1.378 . S
C1448 C1452 1.350 . S
C1449 C1452 1.463 . S
C1449 C1454 1.350 . S
C1449 N1457 1.427 . S
C1450 H1441 0.930 . S
C1450 C1448 1.378 . S
C1450 C1451 1.367 . S
C1451 C1450 1.367 . S
C1451 C1453 1.433 . S
C1452 C1448 1.350 . S
C1452 C1449 1.463 . S
C1452 N1456 1.427 . S
C1453 H1443 0.929 . S
C1453 C1451 1.433 . S
C1453 N1456 1.384 . S
C1454 H1445 0.929 . S
C1454 C1446 1.378 . S
C1454 C1449 1.350 . S
C1455 H1442 0.929 . S
C1455 C1447 1.433 . S
C1455 N1457 1.384 . S
N1456 C1452 1.427 . S
N1456 C1453 1.384 . S
N1457 C1449 1.427 . S
N1457 C1455 1.384 . S
H1458 C1464 0.930 . S
H1459 C1468 0.930 . S
H1460 C1473 0.929 . S
H1461 C1471 0.929 . S
H1462 C1466 0.929 . S
H1463 C1472 0.929 . S
C1464 H1458 0.930 . S
C1464 C1465 1.367 . S
C1464 C1472 1.378 . S
C1465 C1464 1.367 . S
C1465 C1473 1.433 . S
C1466 H1462 0.929 . S
C1466 C1468 1.378 . S
C1466 C1470 1.350 . S
C1467 C1470 1.463 . S
C1467 C1472 1.350 . S
C1467 N1475 1.427 . S
C1468 H1459 0.930 . S
C1468 C1466 1.378 . S
C1468 C1469 1.367 . S
C1469 C1468 1.367 . S
C1469 C1471 1.433 . S
C1470 C1466 1.350 . S
C1470 C1467 1.463 . S
C1470 N1474 1.427 . S
C1471 H1461 0.929 . S
C1471 C1469 1.433 . S
C1471 N1474 1.384 . S
C1472 H1463 0.929 . S
C1472 C1464 1.378 . S
C1472 C1467 1.350 . S
C1473 H1460 0.929 . S
C1473 C1465 1.433 . S
C1473 N1475 1.384 . S
N1474 C1470 1.427 . S
N1474 C1471 1.384 . S
N1475 C1467 1.427 . S
N1475 C1473 1.384 . S
H1476 C1482 0.930 . S
H1477 C1486 0.930 . S
H1478 C1491 0.929 . S
H1479 C1489 0.929 . S
H1480 C1484 0.929 . S
H1481 C1490 0.929 . S
C1482 H1476 0.930 . S
C1482 C1483 1.367 . S
C1482 C1490 1.378 . S
C1483 C1482 1.367 . S
C1483 C1491 1.433 . S
C1484 H1480 0.929 . S
C1484 C1486 1.378 . S
C1484 C1488 1.350 . S
C1485 C1488 1.463 . S
C1485 C1490 1.350 . S
C1485 N1493 1.427 . S
C1486 H1477 0.930 . S
C1486 C1484 1.378 . S
C1486 C1487 1.367 . S
C1487 C1486 1.367 . S
C1487 C1489 1.433 . S
C1488 C1484 1.350 . S
C1488 C1485 1.463 . S
C1488 N1492 1.427 . S
C1489 H1479 0.929 . S
C1489 C1487 1.433 . S
C1489 N1492 1.384 . S
C1490 H1481 0.929 . S
C1490 C1482 1.378 . S
C1490 C1485 1.350 . S
C1491 H1478 0.929 . S
C1491 C1483 1.433 . S
C1491 N1493 1.384 . S
N1492 C1488 1.427 . S
N1492 C1489 1.384 . S
N1493 C1485 1.427 . S
N1493 C1491 1.384 . S
H1494 C1500 0.930 . S
H1495 C1504 0.930 . S
H1496 C1509 0.929 . S
H1497 C1507 0.929 . S
H1498 C1502 0.929 . S
H1499 C1508 0.929 . S
C1500 H1494 0.930 . S
C1500 C1501 1.367 . S
C1500 C1508 1.378 . S
C1501 C1500 1.367 . S
C1501 C1509 1.433 . S
C1502 H1498 0.929 . S
C1502 C1504 1.378 . S
C1502 C1506 1.350 . S
C1503 C1506 1.463 . S
C1503 C1508 1.350 . S
C1503 N1511 1.427 . S
C1504 H1495 0.930 . S
C1504 C1502 1.378 . S
C1504 C1505 1.367 . S
C1505 C1504 1.367 . S
C1505 C1507 1.433 . S
C1506 C1502 1.350 . S
C1506 C1503 1.463 . S
C1506 N1510 1.427 . S
C1507 H1497 0.929 . S
C1507 C1505 1.433 . S
C1507 N1510 1.384 . S
C1508 H1499 0.929 . S
C1508 C1500 1.378 . S
C1508 C1503 1.350 . S
C1509 H1496 0.929 . S
C1509 C1501 1.433 . S
C1509 N1511 1.384 . S
N1510 C1506 1.427 . S
N1510 C1507 1.384 . S
N1511 C1503 1.427 . S
N1511 C1509 1.384 . S
H1512 C1518 0.930 . S
H1513 C1522 0.930 . S
H1514 C1527 0.929 . S
H1515 C1525 0.929 . S
H1516 C1520 0.929 . S
H1517 C1526 0.929 . S
C1518 H1512 0.930 . S
C1518 C1519 1.367 . S
C1518 C1526 1.378 . S
C1519 C1518 1.367 . S
C1519 C1527 1.433 . S
C1520 H1516 0.929 . S
C1520 C1522 1.378 . S
C1520 C1524 1.350 . S
C1521 C1524 1.463 . S
C1521 C1526 1.350 . S
C1521 N1529 1.427 . S
C1522 H1513 0.930 . S
C1522 C1520 1.378 . S
C1522 C1523 1.367 . S
C1523 C1522 1.367 . S
C1523 C1525 1.433 . S
C1524 C1520 1.350 . S
C1524 C1521 1.463 . S
C1524 N1528 1.427 . S
C1525 H1515 0.929 . S
C1525 C1523 1.433 . S
C1525 N1528 1.384 . S
C1526 H1517 0.929 . S
C1526 C1518 1.378 . S
C1526 C1521 1.350 . S
C1527 H1514 0.929 . S
C1527 C1519 1.433 . S
C1527 N1529 1.384 . S
N1528 C1524 1.427 . S
N1528 C1525 1.384 . S
N1529 C1521 1.427 . S
N1529 C1527 1.384 . S
H1530 C1536 0.930 . S
H1531 C1540 0.930 . S
H1532 C1545 0.929 . S
H1533 C1543 0.929 . S
H1534 C1538 0.929 . S
H1535 C1544 0.929 . S
C1536 H1530 0.930 . S
C1536 C1537 1.367 . S
C1536 C1544 1.378 . S
C1537 C1536 1.367 . S
C1537 C1545 1.433 . S
C1538 H1534 0.929 . S
C1538 C1540 1.378 . S
C1538 C1542 1.350 . S
C1539 C1542 1.463 . S
C1539 C1544 1.350 . S
C1539 N1547 1.427 . S
C1540 H1531 0.930 . S
C1540 C1538 1.378 . S
C1540 C1541 1.367 . S
C1541 C1540 1.367 . S
C1541 C1543 1.433 . S
C1542 C1538 1.350 . S
C1542 C1539 1.463 . S
C1542 N1546 1.427 . S
C1543 H1533 0.929 . S
C1543 C1541 1.433 . S
C1543 N1546 1.384 . S
C1544 H1535 0.929 . S
C1544 C1536 1.378 . S
C1544 C1539 1.350 . S
C1545 H1532 0.929 . S
C1545 C1537 1.433 . S
C1545 N1547 1.384 . S
N1546 C1542 1.427 . S
N1546 C1543 1.384 . S
N1547 C1539 1.427 . S
N1547 C1545 1.384 . S
H1548 C1554 0.930 . S
H1549 C1558 0.930 . S
H1550 C1563 0.929 . S
H1551 C1561 0.929 . S
H1552 C1556 0.929 . S
H1553 C1562 0.929 . S
C1554 H1548 0.930 . S
C1554 C1555 1.367 . S
C1554 C1562 1.378 . S
C1555 C1554 1.367 . S
C1555 C1563 1.433 . S
C1556 H1552 0.929 . S
C1556 C1558 1.378 . S
C1556 C1560 1.350 . S
C1557 C1560 1.463 . S
C1557 C1562 1.350 . S
C1557 N1565 1.427 . S
C1558 H1549 0.930 . S
C1558 C1556 1.378 . S
C1558 C1559 1.367 . S
C1559 C1558 1.367 . S
C1559 C1561 1.433 . S
C1560 C1556 1.350 . S
C1560 C1557 1.463 . S
C1560 N1564 1.427 . S
C1561 H1551 0.929 . S
C1561 C1559 1.433 . S
C1561 N1564 1.384 . S
C1562 H1553 0.929 . S
C1562 C1554 1.378 . S
C1562 C1557 1.350 . S
C1563 H1550 0.929 . S
C1563 C1555 1.433 . S
C1563 N1565 1.384 . S
N1564 C1560 1.427 . S
N1564 C1561 1.384 . S
N1565 C1557 1.427 . S
N1565 C1563 1.384 . S
H1566 C1572 0.930 . S
H1567 C1576 0.930 . S
H1568 C1581 0.929 . S
H1569 C1579 0.929 . S
H1570 C1574 0.929 . S
H1571 C1580 0.929 . S
C1572 H1566 0.930 . S
C1572 C1573 1.367 . S
C1572 C1580 1.378 . S
C1573 C1572 1.367 . S
C1573 C1581 1.433 . S
C1574 H1570 0.929 . S
C1574 C1576 1.378 . S
C1574 C1578 1.350 . S
C1575 C1578 1.463 . S
C1575 C1580 1.350 . S
C1575 N1583 1.427 . S
C1576 H1567 0.930 . S
C1576 C1574 1.378 . S
C1576 C1577 1.367 . S
C1577 C1576 1.367 . S
C1577 C1579 1.433 . S
C1578 C1574 1.350 . S
C1578 C1575 1.463 . S
C1578 N1582 1.427 . S
C1579 H1569 0.929 . S
C1579 C1577 1.433 . S
C1579 N1582 1.384 . S
C1580 H1571 0.929 . S
C1580 C1572 1.378 . S
C1580 C1575 1.350 . S
C1581 H1568 0.929 . S
C1581 C1573 1.433 . S
C1581 N1583 1.384 . S
N1582 C1578 1.427 . S
N1582 C1579 1.384 . S
N1583 C1575 1.427 . S
N1583 C1581 1.384 . S
H1584 C1590 0.930 . S
H1585 C1594 0.930 . S
H1586 C1599 0.929 . S
H1587 C1597 0.929 . S
H1588 C1592 0.929 . S
H1589 C1598 0.929 . S
C1590 H1584 0.930 . S
C1590 C1591 1.367 . S
C1590 C1598 1.378 . S
C1591 C1590 1.367 . S
C1591 C1599 1.433 . S
C1592 H1588 0.929 . S
C1592 C1594 1.378 . S
C1592 C1596 1.350 . S
C1593 C1596 1.463 . S
C1593 C1598 1.350 . S
C1593 N1601 1.427 . S
C1594 H1585 0.930 . S
C1594 C1592 1.378 . S
C1594 C1595 1.367 . S
C1595 C1594 1.367 . S
C1595 C1597 1.433 . S
C1596 C1592 1.350 . S
C1596 C1593 1.463 . S
C1596 N1600 1.427 . S
C1597 H1587 0.929 . S
C1597 C1595 1.433 . S
C1597 N1600 1.384 . S
C1598 H1589 0.929 . S
C1598 C1590 1.378 . S
C1598 C1593 1.350 . S
C1599 H1586 0.929 . S
C1599 C1591 1.433 . S
C1599 N1601 1.384 . S
N1600 C1596 1.427 . S
N1600 C1597 1.384 . S
N1601 C1593 1.427 . S
N1601 C1599 1.384 . S
H1602 C1608 0.930 . S
H1603 C1612 0.930 . S
H1604 C1617 0.929 . S
H1605 C1615 0.929 . S
H1606 C1610 0.929 . S
H1607 C1616 0.929 . S
C1608 H1602 0.930 . S
C1608 C1609 1.367 . S
C1608 C1616 1.378 . S
C1609 C1608 1.367 . S
C1609 C1617 1.433 . S
C1610 H1606 0.929 . S
C1610 C1612 1.378 . S
C1610 C1614 1.350 . S
C1611 C1614 1.463 . S
C1611 C1616 1.350 . S
C1611 N1619 1.427 . S
C1612 H1603 0.930 . S
C1612 C1610 1.378 . S
C1612 C1613 1.367 . S
C1613 C1612 1.367 . S
C1613 C1615 1.433 . S
C1614 C1610 1.350 . S
C1614 C1611 1.463 . S
C1614 N1618 1.427 . S
C1615 H1605 0.929 . S
C1615 C1613 1.433 . S
C1615 N1618 1.384 . S
C1616 H1607 0.929 . S
C1616 C1608 1.378 . S
C1616 C1611 1.350 . S
C1617 H1604 0.929 . S
C1617 C1609 1.433 . S
C1617 N1619 1.384 . S
N1618 C1614 1.427 . S
N1618 C1615 1.384 . S
N1619 C1611 1.427 . S
N1619 C1617 1.384 . S
H1620 C1626 0.930 . S
H1621 C1630 0.930 . S
H1622 C1635 0.929 . S
H1623 C1633 0.929 . S
H1624 C1628 0.929 . S
H1625 C1634 0.929 . S
C1626 H1620 0.930 . S
C1626 C1627 1.367 . S
C1626 C1634 1.378 . S
C1627 C1626 1.367 . S
C1627 C1635 1.433 . S
C1628 H1624 0.929 . S
C1628 C1630 1.378 . S
C1628 C1632 1.350 . S
C1629 C1632 1.463 . S
C1629 C1634 1.350 . S
C1629 N1637 1.427 . S
C1630 H1621 0.930 . S
C1630 C1628 1.378 . S
C1630 C1631 1.367 . S
C1631 C1630 1.367 . S
C1631 C1633 1.433 . S
C1632 C1628 1.350 . S
C1632 C1629 1.463 . S
C1632 N1636 1.427 . S
C1633 H1623 0.929 . S
C1633 C1631 1.433 . S
C1633 N1636 1.384 . S
C1634 H1625 0.929 . S
C1634 C1626 1.378 . S
C1634 C1629 1.350 . S
C1635 H1622 0.929 . S
C1635 C1627 1.433 . S
C1635 N1637 1.384 . S
N1636 C1632 1.427 . S
N1636 C1633 1.384 . S
N1637 C1629 1.427 . S
N1637 C1635 1.384 . S
H1638 C1644 0.930 . S
H1639 C1648 0.930 . S
H1640 C1653 0.929 . S
H1641 C1651 0.929 . S
H1642 C1646 0.929 . S
H1643 C1652 0.929 . S
C1644 H1638 0.930 . S
C1644 C1645 1.367 . S
C1644 C1652 1.378 . S
C1645 C1644 1.367 . S
C1645 C1653 1.433 . S
C1646 H1642 0.929 . S
C1646 C1648 1.378 . S
C1646 C1650 1.350 . S
C1647 C1650 1.463 . S
C1647 C1652 1.350 . S
C1647 N1655 1.427 . S
C1648 H1639 0.930 . S
C1648 C1646 1.378 . S
C1648 C1649 1.367 . S
C1649 C1648 1.367 . S
C1649 C1651 1.433 . S
C1650 C1646 1.350 . S
C1650 C1647 1.463 . S
C1650 N1654 1.427 . S
C1651 H1641 0.929 . S
C1651 C1649 1.433 . S
C1651 N1654 1.384 . S
C1652 H1643 0.929 . S
C1652 C1644 1.378 . S
C1652 C1647 1.350 . S
C1653 H1640 0.929 . S
C1653 C1645 1.433 . S
C1653 N1655 1.384 . S
N1654 C1650 1.427 . S
N1654 C1651 1.384 . S
N1655 C1647 1.427 . S
N1655 C1653 1.384 . S
H1656 C1662 0.930 . S
H1657 C1666 0.930 . S
H1658 C1671 0.929 . S
H1659 C1669 0.929 . S
H1660 C1664 0.929 . S
H1661 C1670 0.929 . S
C1662 H1656 0.930 . S
C1662 C1663 1.367 . S
C1662 C1670 1.378 1_455 S
C1663 C1662 1.367 . S
C1663 C1671 1.433 . S
C1664 H1660 0.929 . S
C1664 C1666 1.378 1_455 S
C1664 C1668 1.350 1_455 S
C1665 C1668 1.463 1_456 S
C1665 C1670 1.350 1_455 S
C1665 N1673 1.427 . S
C1666 H1657 0.930 . S
C1666 C1664 1.378 1_655 S
C1666 C1667 1.367 . S
C1667 C1666 1.367 . S
C1667 C1669 1.433 . S
C1668 C1664 1.350 1_655 S
C1668 C1665 1.463 1_654 S
C1668 N1672 1.427 . S
C1669 H1659 0.929 . S
C1669 C1667 1.433 . S
C1669 N1672 1.384 . S
C1670 H1661 0.929 . S
C1670 C1662 1.378 1_655 S
C1670 C1665 1.350 1_655 S
C1671 H1658 0.929 . S
C1671 C1663 1.433 . S
C1671 N1673 1.384 . S
N1672 C1668 1.427 . S
N1672 C1669 1.384 . S
N1673 C1665 1.427 . S
N1673 C1671 1.384 . S
H1674 C1680 0.930 . S
H1675 C1684 0.930 . S
H1676 C1689 0.929 . S
H1677 C1687 0.929 . S
H1678 C1682 0.929 1_554 S
H1679 C1688 0.929 1_556 S
C1680 H1674 0.930 . S
C1680 C1681 1.367 . S
C1680 C1688 1.378 . S
C1681 C1680 1.367 . S
C1681 C1689 1.433 . S
C1682 H1678 0.929 1_556 S
C1682 C1684 1.378 . S
C1682 C1686 1.350 . S
C1683 C1686 1.463 1_554 S
C1683 C1688 1.350 . S
C1683 N1691 1.427 . S
C1684 H1675 0.930 . S
C1684 C1682 1.378 . S
C1684 C1685 1.367 . S
C1685 C1684 1.367 . S
C1685 C1687 1.433 . S
C1686 C1682 1.350 . S
C1686 C1683 1.463 1_556 S
C1686 N1690 1.427 . S
C1687 H1677 0.929 . S
C1687 C1685 1.433 . S
C1687 N1690 1.384 . S
C1688 H1679 0.929 1_554 S
C1688 C1680 1.378 . S
C1688 C1683 1.350 . S
C1689 H1676 0.929 . S
C1689 C1681 1.433 . S
C1689 N1691 1.384 . S
N1690 C1686 1.427 . S
N1690 C1687 1.384 . S
N1691 C1683 1.427 . S
N1691 C1689 1.384 . S
H1692 C1698 0.930 . S
H1693 C1702 0.930 . S
H1694 C1707 0.929 . S
H1695 C1705 0.929 . S
H1696 C1700 0.999 . S
H1697 C1706 1.004 . S
C1698 H1692 0.930 . S
C1698 C1699 1.367 . S
C1698 C1706 1.329 1_545 S
C1699 C1698 1.367 . S
C1699 C1707 1.433 . S
C1700 H1696 0.999 . S
C1700 C1702 1.332 1_545 S
C1700 C1704 1.332 1_545 S
C1701 C1704 1.463 1_544 S
C1701 C1706 1.331 1_545 S
C1701 N1709 1.427 . S
C1702 H1693 0.930 . S
C1702 C1700 1.332 1_565 S
C1702 C1703 1.367 . S
C1703 C1702 1.367 . S
C1703 C1705 1.433 . S
C1704 C1700 1.332 1_565 S
C1704 C1701 1.463 1_566 S
C1704 N1708 1.427 . S
C1705 H1695 0.929 . S
C1705 C1703 1.433 . S
C1705 N1708 1.384 . S
C1706 H1697 1.004 . S
C1706 C1698 1.329 1_565 S
C1706 C1701 1.331 1_565 S
C1707 H1694 0.929 . S
C1707 C1699 1.433 . S
C1707 N1709 1.384 . S
N1708 C1704 1.427 . S
N1708 C1705 1.384 . S
N1709 C1701 1.427 . S
N1709 C1707 1.384 . S
H1710 C1716 0.930 . S
H1711 C1720 0.930 . S
H1712 C1725 0.929 . S
H1713 C1723 0.929 . S
H1714 C1718 0.929 1_556 S
H1715 C1724 0.929 1_554 S
C1716 H1710 0.930 . S
C1716 C1717 1.367 . S
C1716 C1724 1.378 . S
C1717 C1716 1.367 . S
C1717 C1725 1.433 . S
C1718 H1714 0.929 1_554 S
C1718 C1720 1.378 . S
C1718 C1722 1.350 . S
C1719 C1722 1.463 1_566 S
C1719 C1724 1.350 . S
C1719 N1727 1.427 . S
C1720 H1711 0.930 . S
C1720 C1718 1.378 . S
C1720 C1721 1.367 . S
C1721 C1720 1.367 . S
C1721 C1723 1.433 . S
C1722 C1718 1.350 . S
C1722 C1719 1.463 1_544 S
C1722 N1726 1.427 . S
C1723 H1713 0.929 . S
C1723 C1721 1.433 . S
C1723 N1726 1.384 . S
C1724 H1715 0.929 1_556 S
C1724 C1716 1.378 . S
C1724 C1719 1.350 . S
C1725 H1712 0.929 . S
C1725 C1717 1.433 . S
C1725 N1727 1.384 . S
N1726 C1722 1.427 . S
N1726 C1723 1.384 . S
N1727 C1719 1.427 . S
N1727 C1725 1.384 . S
H1728 C1734 0.930 . S
H1729 C1738 0.930 . S
H1730 C1743 0.929 . S
H1731 C1741 0.929 . S
H1732 C1736 0.929 1_556 S
H1733 C1742 0.929 1_554 S
C1734 H1728 0.930 . S
C1734 C1735 1.367 . S
C1734 C1742 1.378 . S
C1735 C1734 1.367 . S
C1735 C1743 1.433 . S
C1736 H1732 0.929 1_554 S
C1736 C1738 1.378 . S
C1736 C1740 1.350 . S
C1737 C1740 1.463 1_456 S
C1737 C1742 1.350 . S
C1737 N1745 1.427 . S
C1738 H1729 0.930 . S
C1738 C1736 1.378 . S
C1738 C1739 1.367 . S
C1739 C1738 1.367 . S
C1739 C1741 1.433 . S
C1740 C1736 1.350 . S
C1740 C1737 1.463 1_654 S
C1740 N1744 1.427 . S
C1741 H1731 0.929 . S
C1741 C1739 1.433 . S
C1741 N1744 1.384 . S
C1742 H1733 0.929 1_556 S
C1742 C1734 1.378 . S
C1742 C1737 1.350 . S
C1743 H1730 0.929 . S
C1743 C1735 1.433 . S
C1743 N1745 1.384 . S
N1744 C1740 1.427 . S
N1744 C1741 1.384 . S
N1745 C1737 1.427 . S
N1745 C1743 1.384 . S
H1746 C1752 0.930 . S
H1747 C1756 0.930 . S
H1748 C1761 0.929 . S
H1749 C1759 0.929 . S
H1750 C1754 0.929 . S
H1751 C1760 0.929 . S
C1752 H1746 0.930 . S
C1752 C1753 1.367 . S
C1752 C1760 1.378 . S
C1753 C1752 1.367 . S
C1753 C1761 1.433 . S
C1754 H1750 0.929 . S
C1754 C1756 1.378 . S
C1754 C1758 1.350 . S
C1755 C1758 1.463 1_554 S
C1755 C1760 1.350 . S
C1755 N1763 1.427 . S
C1756 H1747 0.930 . S
C1756 C1754 1.378 . S
C1756 C1757 1.367 . S
C1757 C1756 1.367 . S
C1757 C1759 1.433 . S
C1758 C1754 1.350 . S
C1758 C1755 1.463 1_556 S
C1758 N1762 1.427 . S
C1759 H1749 0.929 . S
C1759 C1757 1.433 . S
C1759 N1762 1.384 . S
C1760 H1751 0.929 . S
C1760 C1752 1.378 . S
C1760 C1755 1.350 . S
C1761 H1748 0.929 . S
C1761 C1753 1.433 . S
C1761 N1763 1.384 . S
N1762 C1758 1.427 . S
N1762 C1759 1.384 . S
N1763 C1755 1.427 . S
N1763 C1761 1.384 . S
C475 C5 1.145 . S
C479 C148 1.156 . S
C493 C18 1.153 . S
C497 C122 1.148 . S
C511 C135 1.144 . S
C515 C31 1.157 . S
C529 C44 1.147 . S
C533 C96 1.154 . S
C547 C109 1.143 . S
C551 C57 1.158 . S
C565 C70 1.159 . S
C569 C83 1.142 . S
C583 C304 1.141 . S
C587 C161 1.160 . S
C601 C174 1.144 . S
C605 C278 1.156 . S
C619 C187 1.150 . S
C623 C291 1.151 . S
C637 C252 1.140 . S
C641 C200 1.160 . S
C655 C213 1.149 . S
C659 C265 1.153 . S
C673 C239 1.141 . S
C677 C226 1.159 . S
C691 C317 1.145 . S
C695 C460 1.156 . S
C709 C434 1.146 . S
C713 C330 1.154 . S
C727 C447 1.161 . S
C731 C343 1.141 . S
C745 C408 1.160 . S
C749 C356 1.140 . S
C763 C421 1.161 . S
C767 C369 1.140 . S
C781 C395 1.142 . S
C785 C382 1.159 . S
C799 C0 1.192 . S
C803 C52 1.192 . S
C817 C65 1.186 . S
C821 C13 1.197 . S
C835 C26 1.200 . S
C839 C39 1.193 . S
C853 C78 1.193 . S
C857 C130 1.191 . S
C871 C91 1.187 . S
C875 C143 1.195 . S
C889 C104 1.196 . S
C893 C117 1.188 . S
C907 C208 1.194 . S
C911 C156 1.198 . S
C925 C221 1.199 . S
C929 C169 1.186 . S
C943 C182 1.189 . S
C947 C195 1.194 . S
C961 C286 1.200 . S
C965 C234 1.187 . S
C979 C299 1.192 . S
C983 C247 1.197 . S
C997 C260 1.195 . S
C1001 C273 1.198 . S
C1015 C364 1.201 . S
C1019 C312 1.189 . S
C1033 C325 1.199 . S
C1037 C377 1.189 . S
C1051 C338 1.201 . S
C1055 C351 1.191 . S
C1069 C442 1.195 . S
C1073 C390 1.189 . S
C1087 C403 1.186 . S
C1091 C455 1.199 . S
C1105 C429 1.196 . S
C1109 C416 1.188 . S
C1123 C385 1.229 . S
C1127 C8 1.242 . S
C1141 C21 1.227 . S
C1145 C359 1.243 . S
C1159 C34 1.229 . S
C1163 C372 1.243 . S
C1177 C47 1.232 . S
C1181 C177 1.239 . S
C1195 C190 1.243 . S
C1199 C60 1.228 . S
C1213 C164 1.232 . S
C1217 C73 1.239 . S
C1231 C86 1.228 . S
C1235 C307 1.241 . S
C1249 C99 1.242 . S
C1253 C281 1.227 . S
C1267 C112 1.228 . S
C1271 C294 1.243 . S
C1285 C411 1.242 . S
C1289 C125 1.227 . S
C1303 C424 1.243 . S
C1307 C138 1.228 . S
C1321 C151 1.228 . S
C1325 C398 1.241 . S
C1339 C333 1.240 . S
C1343 C203 1.231 . S
C1357 C216 1.239 . S
C1361 C346 1.232 . S
C1375 C320 1.237 . S
C1379 C229 1.231 . S
C1393 C463 1.229 . S
C1397 C242 1.239 . S
C1411 C255 1.229 . S
C1415 C437 1.241 . S
C1429 C268 1.235 . S
C1433 C450 1.236 . S
C1447 C10 1.655 . S
C1451 C387 1.657 . S
C1465 C361 1.648 . S
C1469 C23 1.648 . S
C1483 C36 1.649 . S
C1487 C374 1.651 . S
C1501 C179 1.650 . S
C1505 C49 1.652 . S
C1519 C62 1.654 . S
C1523 C192 1.652 . S
C1537 C75 1.649 . S
C1541 C166 1.648 . S
C1555 C309 1.657 . S
C1559 C88 1.657 . S
C1573 C101 1.657 . S
C1577 C283 1.657 . S
C1591 C114 1.650 . S
C1595 C296 1.648 . S
C1609 C127 1.656 . S
C1613 C413 1.657 . S
C1627 C426 1.652 . S
C1631 C140 1.650 . S
C1645 C153 1.656 . S
C1649 C400 1.654 . S
C1663 C335 1.648 . S
C1667 C205 1.647 . S
C1681 C218 1.656 . S
C1685 C348 1.657 . S
C1699 C231 1.648 . S
C1703 C322 1.647 . S
C1717 C465 1.657 . S
C1721 C244 1.655 . S
C1735 C439 1.654 . S
C1739 C257 1.656 . S
C1753 C270 1.654 . S
C1757 C452 1.652 . S
