# Generated by pormake.
# Topology wgi, (5)-cn, num edge types: 1
# Building blocks:
#     Node 0, Type 0, BuildingBlock: XOMCOT_clean_sbu_1, # of connection points: 5
#     Node 1, Type 0, BuildingBlock: XOMCOT_clean_sbu_1, # of connection points: 5
#     Node 2, Type 0, BuildingBlock: XOMCOT_clean_sbu_1, # of connection points: 5
#     Node 3, Type 0, BuildingBlock: XOMCOT_clean_sbu_1, # of connection points: 5
#     Node 4, Type 0, BuildingBlock: XOMCOT_clean_sbu_1, # of connection points: 5
#     Node 5, Type 0, BuildingBlock: XOMCOT_clean_sbu_1, # of connection points: 5
#     Node 6, Type 0, BuildingBlock: XOMCOT_clean_sbu_1, # of connection points: 5
#     Node 7, Type 0, BuildingBlock: XOMCOT_clean_sbu_1, # of connection points: 5
#     Node 8, Type 0, BuildingBlock: XOMCOT_clean_sbu_1, # of connection points: 5
#     Node 9, Type 0, BuildingBlock: XOMCOT_clean_sbu_1, # of connection points: 5
#     Node 10, Type 0, BuildingBlock: XOMCOT_clean_sbu_1, # of connection points: 5
#     Node 11, Type 0, BuildingBlock: XOMCOT_clean_sbu_1, # of connection points: 5
#     Node 12, Type 0, BuildingBlock: XOMCOT_clean_sbu_1, # of connection points: 5
#     Node 13, Type 0, BuildingBlock: XOMCOT_clean_sbu_1, # of connection points: 5
#     Node 14, Type 0, BuildingBlock: XOMCOT_clean_sbu_1, # of connection points: 5
#     Node 15, Type 0, BuildingBlock: XOMCOT_clean_sbu_1, # of connection points: 5
#     Node 16, Type 0, BuildingBlock: XOMCOT_clean_sbu_1, # of connection points: 5
#     Node 17, Type 0, BuildingBlock: XOMCOT_clean_sbu_1, # of connection points: 5
#     Node 18, Type 0, BuildingBlock: XOMCOT_clean_sbu_1, # of connection points: 5
#     Node 19, Type 0, BuildingBlock: XOMCOT_clean_sbu_1, # of connection points: 5
#     Node 20, Type 0, BuildingBlock: XOMCOT_clean_sbu_1, # of connection points: 5
#     Node 21, Type 0, BuildingBlock: XOMCOT_clean_sbu_1, # of connection points: 5
#     Node 22, Type 0, BuildingBlock: XOMCOT_clean_sbu_1, # of connection points: 5
#     Node 23, Type 0, BuildingBlock: XOMCOT_clean_sbu_1, # of connection points: 5
#     Node 24, Type 0, BuildingBlock: XOMCOT_clean_sbu_1, # of connection points: 5
#     Node 25, Type 0, BuildingBlock: XOMCOT_clean_sbu_1, # of connection points: 5
#     Node 26, Type 0, BuildingBlock: XOMCOT_clean_sbu_1, # of connection points: 5
#     Node 27, Type 0, BuildingBlock: XOMCOT_clean_sbu_1, # of connection points: 5
#     Node 28, Type 0, BuildingBlock: XOMCOT_clean_sbu_1, # of connection points: 5
#     Node 29, Type 0, BuildingBlock: XOMCOT_clean_sbu_1, # of connection points: 5
#     Node 30, Type 0, BuildingBlock: XOMCOT_clean_sbu_1, # of connection points: 5
#     Node 31, Type 0, BuildingBlock: XOMCOT_clean_sbu_1, # of connection points: 5
#     Edge 32, Type (0, 0), BuildingBlock: TEMPAE_clean_linker_10, # of connection points: 2
#     Edge 33, Type (0, 0), BuildingBlock: TEMPAE_clean_linker_10, # of connection points: 2
#     Edge 34, Type (0, 0), BuildingBlock: TEMPAE_clean_linker_10, # of connection points: 2
#     Edge 35, Type (0, 0), BuildingBlock: TEMPAE_clean_linker_10, # of connection points: 2
#     Edge 36, Type (0, 0), BuildingBlock: TEMPAE_clean_linker_10, # of connection points: 2
#     Edge 37, Type (0, 0), BuildingBlock: TEMPAE_clean_linker_10, # of connection points: 2
#     Edge 38, Type (0, 0), BuildingBlock: TEMPAE_clean_linker_10, # of connection points: 2
#     Edge 39, Type (0, 0), BuildingBlock: TEMPAE_clean_linker_10, # of connection points: 2
#     Edge 40, Type (0, 0), BuildingBlock: TEMPAE_clean_linker_10, # of connection points: 2
#     Edge 41, Type (0, 0), BuildingBlock: TEMPAE_clean_linker_10, # of connection points: 2
#     Edge 42, Type (0, 0), BuildingBlock: TEMPAE_clean_linker_10, # of connection points: 2
#     Edge 43, Type (0, 0), BuildingBlock: TEMPAE_clean_linker_10, # of connection points: 2
#     Edge 44, Type (0, 0), BuildingBlock: TEMPAE_clean_linker_10, # of connection points: 2
#     Edge 45, Type (0, 0), BuildingBlock: TEMPAE_clean_linker_10, # of connection points: 2
#     Edge 46, Type (0, 0), BuildingBlock: TEMPAE_clean_linker_10, # of connection points: 2
#     Edge 47, Type (0, 0), BuildingBlock: TEMPAE_clean_linker_10, # of connection points: 2
#     Edge 48, Type (0, 0), BuildingBlock: TEMPAE_clean_linker_10, # of connection points: 2
#     Edge 49, Type (0, 0), BuildingBlock: TEMPAE_clean_linker_10, # of connection points: 2
#     Edge 50, Type (0, 0), BuildingBlock: TEMPAE_clean_linker_10, # of connection points: 2
#     Edge 51, Type (0, 0), BuildingBlock: TEMPAE_clean_linker_10, # of connection points: 2
#     Edge 52, Type (0, 0), BuildingBlock: TEMPAE_clean_linker_10, # of connection points: 2
#     Edge 53, Type (0, 0), BuildingBlock: TEMPAE_clean_linker_10, # of connection points: 2
#     Edge 54, Type (0, 0), BuildingBlock: TEMPAE_clean_linker_10, # of connection points: 2
#     Edge 55, Type (0, 0), BuildingBlock: TEMPAE_clean_linker_10, # of connection points: 2
#     Edge 56, Type (0, 0), BuildingBlock: TEMPAE_clean_linker_10, # of connection points: 2
#     Edge 57, Type (0, 0), BuildingBlock: TEMPAE_clean_linker_10, # of connection points: 2
#     Edge 58, Type (0, 0), BuildingBlock: TEMPAE_clean_linker_10, # of connection points: 2
#     Edge 59, Type (0, 0), BuildingBlock: TEMPAE_clean_linker_10, # of connection points: 2
#     Edge 60, Type (0, 0), BuildingBlock: TEMPAE_clean_linker_10, # of connection points: 2
#     Edge 61, Type (0, 0), BuildingBlock: TEMPAE_clean_linker_10, # of connection points: 2
#     Edge 62, Type (0, 0), BuildingBlock: TEMPAE_clean_linker_10, # of connection points: 2
#     Edge 63, Type (0, 0), BuildingBlock: TEMPAE_clean_linker_10, # of connection points: 2
#     Edge 64, Type (0, 0), BuildingBlock: TEMPAE_clean_linker_10, # of connection points: 2
#     Edge 65, Type (0, 0), BuildingBlock: TEMPAE_clean_linker_10, # of connection points: 2
#     Edge 66, Type (0, 0), BuildingBlock: TEMPAE_clean_linker_10, # of connection points: 2
#     Edge 67, Type (0, 0), BuildingBlock: TEMPAE_clean_linker_10, # of connection points: 2
#     Edge 68, Type (0, 0), BuildingBlock: TEMPAE_clean_linker_10, # of connection points: 2
#     Edge 69, Type (0, 0), BuildingBlock: TEMPAE_clean_linker_10, # of connection points: 2
#     Edge 70, Type (0, 0), BuildingBlock: TEMPAE_clean_linker_10, # of connection points: 2
#     Edge 71, Type (0, 0), BuildingBlock: TEMPAE_clean_linker_10, # of connection points: 2
#     Edge 72, Type (0, 0), BuildingBlock: TEMPAE_clean_linker_10, # of connection points: 2
#     Edge 73, Type (0, 0), BuildingBlock: TEMPAE_clean_linker_10, # of connection points: 2
#     Edge 74, Type (0, 0), BuildingBlock: TEMPAE_clean_linker_10, # of connection points: 2
#     Edge 75, Type (0, 0), BuildingBlock: TEMPAE_clean_linker_10, # of connection points: 2
#     Edge 76, Type (0, 0), BuildingBlock: TEMPAE_clean_linker_10, # of connection points: 2
#     Edge 77, Type (0, 0), BuildingBlock: TEMPAE_clean_linker_10, # of connection points: 2
#     Edge 78, Type (0, 0), BuildingBlock: TEMPAE_clean_linker_10, # of connection points: 2
#     Edge 79, Type (0, 0), BuildingBlock: TEMPAE_clean_linker_10, # of connection points: 2
#     Edge 80, Type (0, 0), BuildingBlock: TEMPAE_clean_linker_10, # of connection points: 2
#     Edge 81, Type (0, 0), BuildingBlock: TEMPAE_clean_linker_10, # of connection points: 2
#     Edge 82, Type (0, 0), BuildingBlock: TEMPAE_clean_linker_10, # of connection points: 2
#     Edge 83, Type (0, 0), BuildingBlock: TEMPAE_clean_linker_10, # of connection points: 2
#     Edge 84, Type (0, 0), BuildingBlock: TEMPAE_clean_linker_10, # of connection points: 2
#     Edge 85, Type (0, 0), BuildingBlock: TEMPAE_clean_linker_10, # of connection points: 2
#     Edge 86, Type (0, 0), BuildingBlock: TEMPAE_clean_linker_10, # of connection points: 2
#     Edge 87, Type (0, 0), BuildingBlock: TEMPAE_clean_linker_10, # of connection points: 2
#     Edge 88, Type (0, 0), BuildingBlock: TEMPAE_clean_linker_10, # of connection points: 2
#     Edge 89, Type (0, 0), BuildingBlock: TEMPAE_clean_linker_10, # of connection points: 2
#     Edge 90, Type (0, 0), BuildingBlock: TEMPAE_clean_linker_10, # of connection points: 2
#     Edge 91, Type (0, 0), BuildingBlock: TEMPAE_clean_linker_10, # of connection points: 2
#     Edge 92, Type (0, 0), BuildingBlock: TEMPAE_clean_linker_10, # of connection points: 2
#     Edge 93, Type (0, 0), BuildingBlock: TEMPAE_clean_linker_10, # of connection points: 2
#     Edge 94, Type (0, 0), BuildingBlock: TEMPAE_clean_linker_10, # of connection points: 2
#     Edge 95, Type (0, 0), BuildingBlock: TEMPAE_clean_linker_10, # of connection points: 2
#     Edge 96, Type (0, 0), BuildingBlock: TEMPAE_clean_linker_10, # of connection points: 2
#     Edge 97, Type (0, 0), BuildingBlock: TEMPAE_clean_linker_10, # of connection points: 2
#     Edge 98, Type (0, 0), BuildingBlock: TEMPAE_clean_linker_10, # of connection points: 2
#     Edge 99, Type (0, 0), BuildingBlock: TEMPAE_clean_linker_10, # of connection points: 2
#     Edge 100, Type (0, 0), BuildingBlock: TEMPAE_clean_linker_10, # of connection points: 2
#     Edge 101, Type (0, 0), BuildingBlock: TEMPAE_clean_linker_10, # of connection points: 2
#     Edge 102, Type (0, 0), BuildingBlock: TEMPAE_clean_linker_10, # of connection points: 2
#     Edge 103, Type (0, 0), BuildingBlock: TEMPAE_clean_linker_10, # of connection points: 2
#     Edge 104, Type (0, 0), BuildingBlock: TEMPAE_clean_linker_10, # of connection points: 2
#     Edge 105, Type (0, 0), BuildingBlock: TEMPAE_clean_linker_10, # of connection points: 2
#     Edge 106, Type (0, 0), BuildingBlock: TEMPAE_clean_linker_10, # of connection points: 2
#     Edge 107, Type (0, 0), BuildingBlock: TEMPAE_clean_linker_10, # of connection points: 2
#     Edge 108, Type (0, 0), BuildingBlock: TEMPAE_clean_linker_10, # of connection points: 2
#     Edge 109, Type (0, 0), BuildingBlock: TEMPAE_clean_linker_10, # of connection points: 2
#     Edge 110, Type (0, 0), BuildingBlock: TEMPAE_clean_linker_10, # of connection points: 2
#     Edge 111, Type (0, 0), BuildingBlock: TEMPAE_clean_linker_10, # of connection points: 2
# Relax obj value: 0.188
# Max RMSD: 0.146
# Mean RMSD: 0.146
data_MOF--net-wgi--node1-XOMCOT_clean_sbu_1--edge1-TEMPAE_clean_linker_10
_symmetry_space_group_name_H-M    P1
_symmetry_Int_Tables_number       1
_symmetry_cell_setting            triclinic
loop_
_symmetry_equiv_pos_as_xyz
'x, y, z'
_cell_length_a     76.254022
_cell_length_b     76.255302
_cell_length_c     27.709545
_cell_angle_alpha  90.059782
_cell_angle_beta   89.960045
_cell_angle_gamma 89.983359
loop_
_atom_site_label
_atom_site_type_symbol
_atom_site_fract_x
_atom_site_fract_y
_atom_site_fract_z
_atom_type_partial_charge
C0 C 0.11501 0.17613 0.44485 0.0
C1 C 0.09757 0.17312 0.4544 0.0
N2 N 0.09249 0.15894 0.429 0.0
N3 N 0.12083 0.16393 0.41349 0.0
C4 C 0.10682 0.15362 0.40438 0.0
H5 H 0.12315 0.18612 0.46117 0.0
Co6 Co 0.14422 0.16069 0.39842 0.0
C7 C 0.14463 0.15146 0.29473 0.0
O8 O 0.15747 0.16288 0.29104 0.0
N9 N 0.16843 0.15684 0.38667 0.0
C10 C 0.19318 0.14188 0.37413 0.0
C11 C 0.17564 0.14301 0.36333 0.0
C12 C 0.1819 0.16338 0.41305 0.0
N13 N 0.19709 0.15461 0.40598 0.0
O14 O 0.14365 0.13935 0.43518 0.0
H15 H 0.16842 0.13322 0.34334 0.0
H16 H 0.18021 0.17287 0.44158 0.0
O17 O 0.13775 0.14856 0.33642 0.0
C18 C 0.14866 0.14286 0.47811 0.0
O19 O 0.15399 0.15884 0.48788 0.0
N20 N 0.14418 0.18293 0.36729 0.0
C21 C 0.13719 0.21804 0.34493 0.0
C22 C 0.12769 0.2045 0.32295 0.0
C23 C 0.13126 0.18709 0.33492 0.0
C24 C 0.15385 0.19602 0.38784 0.0
C25 C 0.15081 0.21361 0.37647 0.0
H26 H 0.12252 0.17711 0.32125 0.0
H27 H 0.1628 0.1932 0.41665 0.0
H28 H 0.10737 0.14188 0.38244 0.0
H29 H 0.08935 0.18057 0.47881 0.0
H30 H 0.20201 0.13168 0.36199 0.0
H31 H 0.11689 0.20739 0.29885 0.0
H32 H 0.15807 0.22371 0.39539 0.0
C33 C 0.07485 0.86476 0.69746 0.0
C34 C 0.07793 0.84717 0.70438 0.0
N35 N 0.09195 0.84256 0.67763 0.0
N36 N 0.08685 0.87115 0.66643 0.0
C37 C 0.09711 0.85733 0.65486 0.0
H38 H 0.06495 0.87258 0.71535 0.0
Co39 Co 0.09002 0.89478 0.65424 0.0
C40 C 0.09877 0.8963 0.55012 0.0
O41 O 0.08734 0.90917 0.54718 0.0
N42 N 0.09379 0.91918 0.64539 0.0
C43 C 0.10818 0.94432 0.63423 0.0
C44 C 0.10698 0.92702 0.62089 0.0
C45 C 0.0878 0.932 0.67502 0.0
N46 N 0.09621 0.94745 0.66893 0.0
O47 O 0.11159 0.89369 0.68966 0.0
H48 H 0.11635 0.92036 0.59809 0.0
H49 H 0.07891 0.92959 0.70456 0.0
O50 O 0.10175 0.88918 0.59135 0.0
C51 C 0.10807 0.89774 0.73334 0.0
O52 O 0.09191 0.9021 0.74447 0.0
N53 N 0.06757 0.89531 0.62443 0.0
C54 C 0.0321 0.88912 0.60427 0.0
C55 C 0.04528 0.88006 0.57925 0.0
C56 C 0.0629 0.88315 0.59035 0.0
C57 C 0.05485 0.90462 0.64776 0.0
C58 C 0.03712 0.90195 0.63772 0.0
H59 H 0.07262 0.87459 0.57452 0.0
H60 H 0.05813 0.91298 0.67757 0.0
H61 H 0.10871 0.85827 0.6325 0.0
H62 H 0.07065 0.83851 0.72796 0.0
H63 H 0.11792 0.9535 0.62135 0.0
H64 H 0.04202 0.86967 0.55416 0.0
H65 H 0.02738 0.90916 0.6582 0.0
C66 C 0.3841 0.82209 0.94914 0.0
C67 C 0.4016 0.82479 0.95849 0.0
N68 N 0.40673 0.83927 0.93452 0.0
N69 N 0.3783 0.8348 0.9194 0.0
C70 C 0.39239 0.84507 0.91097 0.0
H71 H 0.37587 0.81206 0.96491 0.0
Co72 Co 0.35496 0.83918 0.90644 0.0
C73 C 0.35473 0.84854 0.8024 0.0
O74 O 0.3414 0.83776 0.79758 0.0
N75 N 0.33089 0.84419 0.89703 0.0
C76 C 0.30625 0.8594 0.88565 0.0
C77 C 0.32345 0.85742 0.87182 0.0
C78 C 0.31801 0.83899 0.92747 0.0
N79 N 0.30285 0.84788 0.92123 0.0
O80 O 0.35693 0.86048 0.94319 0.0
H81 H 0.33033 0.86631 0.84817 0.0
H82 H 0.32025 0.83023 0.95739 0.0
O83 O 0.36149 0.851 0.84438 0.0
C84 C 0.35319 0.85694 0.98707 0.0
O85 O 0.34844 0.84089 0.9981 0.0
N86 N 0.35346 0.81702 0.87516 0.0
C87 C 0.35822 0.78141 0.85384 0.0
C88 C 0.36837 0.79425 0.83084 0.0
C89 C 0.36592 0.81194 0.84236 0.0
C90 C 0.34294 0.80468 0.89596 0.0
C91 C 0.34489 0.7869 0.88526 0.0
H92 H 0.37521 0.82131 0.82822 0.0
H93 H 0.33405 0.8082 0.92437 0.0
H94 H 0.39185 0.85721 0.89081 0.0
H95 H 0.4098 0.81703 0.98214 0.0
H96 H 0.29735 0.86934 0.87239 0.0
H97 H 0.37912 0.79063 0.80728 0.0
H98 H 0.33676 0.77744 0.90394 0.0
C99 C 0.43143 0.13761 0.18628 0.0
C100 C 0.42871 0.15522 0.19421 0.0
N101 N 0.41277 0.15947 0.17682 0.0
N102 N 0.41739 0.13089 0.16321 0.0
C103 C 0.40621 0.14448 0.15817 0.0
H104 H 0.44263 0.13005 0.19806 0.0
Co105 Co 0.41303 0.1074 0.15084 0.0
C106 C 0.40391 0.10646 0.0467 0.0
O107 O 0.41451 0.09293 0.04302 0.0
N108 N 0.40794 0.08327 0.14146 0.0
C109 C 0.39195 0.05911 0.12998 0.0
C110 C 0.39401 0.07644 0.11775 0.0
C111 C 0.41355 0.06985 0.16952 0.0
N112 N 0.40419 0.055 0.16303 0.0
O113 O 0.39153 0.10955 0.18666 0.0
H114 H 0.38479 0.08385 0.09637 0.0
H115 H 0.42284 0.07141 0.19856 0.0
O116 O 0.40153 0.11372 0.08813 0.0
C117 C 0.39446 0.10511 0.23035 0.0
O118 O 0.41014 0.09939 0.24192 0.0
N119 N 0.43536 0.10569 0.12055 0.0
C120 C 0.47113 0.11067 0.10185 0.0
C121 C 0.45841 0.12005 0.07604 0.0
C122 C 0.44062 0.11753 0.0863 0.0
C123 C 0.44762 0.09592 0.14421 0.0
C124 C 0.46548 0.09794 0.13479 0.0
H125 H 0.43131 0.12645 0.07021 0.0
H126 H 0.44393 0.08784 0.17418 0.0
H127 H 0.39329 0.14326 0.14238 0.0
H128 H 0.43744 0.16402 0.21325 0.0
H129 H 0.38152 0.05059 0.11776 0.0
H130 H 0.46214 0.13037 0.05125 0.0
H131 H 0.47483 0.09045 0.15575 0.0
C132 C 0.11068 0.81714 0.09921 0.0
C133 C 0.09356 0.82013 0.08607 0.0
N134 N 0.09026 0.83741 0.09049 0.0
N135 N 0.11817 0.83242 0.11272 0.0
C136 C 0.10544 0.84455 0.10609 0.0
H137 H 0.11723 0.80459 0.09792 0.0
Co138 Co 0.14179 0.83662 0.12895 0.0
C139 C 0.12129 0.84731 0.21817 0.0
O140 O 0.10796 0.83764 0.20437 0.0
N141 N 0.16536 0.84063 0.14215 0.0
C142 C 0.19198 0.84324 0.17395 0.0
C143 C 0.17427 0.84195 0.18401 0.0
C144 C 0.17779 0.84107 0.10759 0.0
N145 N 0.19414 0.84259 0.12562 0.0
O146 O 0.14054 0.8586 0.09508 0.0
H147 H 0.16837 0.84141 0.21949 0.0
H148 H 0.17486 0.84003 0.06966 0.0
O149 O 0.13521 0.84785 0.19198 0.0
C150 C 0.14234 0.85514 0.05021 0.0
O151 O 0.14434 0.83873 0.03683 0.0
N152 N 0.14383 0.8142 0.15615 0.0
C153 C 0.14271 0.77799 0.16923 0.0
C154 C 0.13631 0.78939 0.20506 0.0
C155 C 0.1372 0.80755 0.1981 0.0
C156 C 0.15171 0.80339 0.12352 0.0
C157 C 0.15143 0.78528 0.12948 0.0
H158 H 0.13179 0.81589 0.2255 0.0
H159 H 0.15714 0.80883 0.09074 0.0
H160 H 0.10719 0.85835 0.11379 0.0
H161 H 0.08437 0.81034 0.07338 0.0
H162 H 0.20242 0.84399 0.20029 0.0
H163 H 0.12967 0.7844 0.23673 0.0
H164 H 0.15711 0.77705 0.10168 0.0
C165 C 0.42622 0.86575 0.33409 0.0
C166 C 0.42247 0.84846 0.32449 0.0
N167 N 0.4091 0.84357 0.35316 0.0
N168 N 0.41518 0.87167 0.36844 0.0
C169 C 0.4049 0.85783 0.37953 0.0
H170 H 0.43564 0.87384 0.31522 0.0
Co171 Co 0.41214 0.89512 0.38277 0.0
C172 C 0.40344 0.89564 0.48727 0.0
O173 O 0.41476 0.90854 0.49164 0.0
N174 N 0.40847 0.91941 0.39383 0.0
C175 C 0.39404 0.94451 0.40634 0.0
C176 C 0.39519 0.92707 0.41857 0.0
C177 C 0.41459 0.93248 0.36535 0.0
N178 N 0.40615 0.94783 0.37232 0.0
O179 O 0.39048 0.89439 0.34752 0.0
H180 H 0.38566 0.92018 0.44028 0.0
H181 H 0.42381 0.93048 0.33635 0.0
O182 O 0.40056 0.88893 0.44542 0.0
C183 C 0.39367 0.89889 0.30398 0.0
O184 O 0.40962 0.90393 0.29273 0.0
N185 N 0.43463 0.89526 0.41209 0.0
C186 C 0.47015 0.88869 0.43034 0.0
C187 C 0.45706 0.87961 0.45561 0.0
C188 C 0.43939 0.8829 0.44547 0.0
C189 C 0.44729 0.90452 0.38848 0.0
C190 C 0.46503 0.90173 0.39773 0.0
H191 H 0.4297 0.87434 0.4613 0.0
H192 H 0.44394 0.91287 0.3588 0.0
H193 H 0.39374 0.85852 0.40361 0.0
H194 H 0.42864 0.84027 0.2974 0.0
H195 H 0.38391 0.95355 0.4179 0.0
H196 H 0.4604 0.86905 0.48004 0.0
H197 H 0.47468 0.90894 0.37704 0.0
C198 C 0.386 0.17887 0.58293 0.0
C199 C 0.40337 0.17533 0.57367 0.0
N200 N 0.40792 0.16093 0.59885 0.0
N201 N 0.37972 0.16678 0.61384 0.0
C202 C 0.39337 0.15601 0.623 0.0
H203 H 0.37821 0.18912 0.56662 0.0
Co204 Co 0.35625 0.16395 0.62815 0.0
C205 C 0.35577 0.15362 0.73132 0.0
O206 O 0.34304 0.16506 0.73702 0.0
N207 N 0.33197 0.16056 0.63902 0.0
C208 C 0.30668 0.14632 0.64961 0.0
C209 C 0.32411 0.14705 0.66214 0.0
C210 C 0.31904 0.16728 0.6111 0.0
N211 N 0.30357 0.15895 0.61694 0.0
O212 O 0.35651 0.14291 0.58993 0.0
H213 H 0.33084 0.13708 0.68267 0.0
H214 H 0.32126 0.17688 0.58318 0.0
O215 O 0.36236 0.15116 0.68909 0.0
C216 C 0.35205 0.14662 0.54669 0.0
O217 O 0.34722 0.16274 0.53674 0.0
N218 N 0.35666 0.18584 0.66108 0.0
C219 C 0.36433 0.22054 0.6862 0.0
C220 C 0.37356 0.20662 0.70708 0.0
C221 C 0.36966 0.18941 0.69375 0.0
C222 C 0.34716 0.1993 0.64184 0.0
C223 C 0.35056 0.2167 0.65455 0.0
H224 H 0.37822 0.17914 0.70654 0.0
H225 H 0.33806 0.19694 0.61307 0.0
H226 H 0.39239 0.14421 0.64452 0.0
H227 H 0.41189 0.18253 0.54954 0.0
H228 H 0.29753 0.13612 0.65978 0.0
H229 H 0.38445 0.20906 0.73126 0.0
H230 H 0.34346 0.22711 0.63651 0.0
C231 C 0.06926 0.14021 0.83184 0.0
C232 C 0.07375 0.15693 0.81789 0.0
N233 N 0.09032 0.15995 0.83214 0.0
N234 N 0.08292 0.13277 0.85519 0.0
C235 C 0.09564 0.14513 0.85412 0.0
H236 H 0.05703 0.13378 0.82349 0.0
Co237 Co 0.08555 0.10912 0.8725 0.0
C238 C 0.09537 0.12916 0.96291 0.0
O239 O 0.085 0.14207 0.94985 0.0
N240 N 0.0881 0.08545 0.88669 0.0
C241 C 0.08979 0.05894 0.91956 0.0
C242 C 0.08926 0.07675 0.92888 0.0
C243 C 0.0878 0.07282 0.85266 0.0
N244 N 0.08879 0.05653 0.87137 0.0
O245 O 0.10786 0.10913 0.8398 0.0
H246 H 0.0893 0.08286 0.96411 0.0
H247 H 0.0868 0.07558 0.81462 0.0
O248 O 0.09662 0.11548 0.93592 0.0
C249 C 0.1047 0.10746 0.79471 0.0
O250 O 0.08835 0.10587 0.78053 0.0
N251 N 0.06279 0.10848 0.89837 0.0
C252 C 0.02669 0.11173 0.91152 0.0
C253 C 0.03836 0.11563 0.94929 0.0
C254 C 0.05643 0.11355 0.94231 0.0
C255 C 0.05159 0.10267 0.86363 0.0
C256 C 0.03351 0.10413 0.8694 0.0
H257 H 0.065 0.11654 0.97189 0.0
H258 H 0.0568 0.09797 0.82968 0.0
H259 H 0.10874 0.14314 0.86812 0.0
H260 H 0.06552 0.16613 0.79862 0.0
H261 H 0.09039 0.04864 0.94631 0.0
H262 H 0.03374 0.12111 0.98305 0.0
H263 H 0.02504 0.10013 0.84005 0.0
C264 C 0.88912 0.81881 0.58047 0.0
C265 C 0.90684 0.82143 0.57445 0.0
N266 N 0.91104 0.8371 0.59375 0.0
N267 N 0.88225 0.83265 0.60417 0.0
C268 C 0.89587 0.84363 0.61147 0.0
H269 H 0.88163 0.80775 0.56736 0.0
Co270 Co 0.85867 0.83673 0.61637 0.0
C271 C 0.85754 0.846 0.72029 0.0
O272 O 0.84414 0.83525 0.72399 0.0
N273 N 0.83445 0.84155 0.62593 0.0
C274 C 0.81016 0.85722 0.63869 0.0
C275 C 0.82766 0.85558 0.6493 0.0
C276 C 0.82078 0.83546 0.59947 0.0
N277 N 0.80584 0.84463 0.60681 0.0
O278 O 0.86054 0.85814 0.5804 0.0
H279 H 0.83515 0.86507 0.66959 0.0
H280 H 0.82214 0.82588 0.57104 0.0
O281 O 0.86481 0.84838 0.67891 0.0
C282 C 0.85568 0.85507 0.5371 0.0
O283 O 0.84982 0.83937 0.52627 0.0
N284 N 0.85727 0.81445 0.64671 0.0
C285 C 0.8623 0.77881 0.66677 0.0
C286 C 0.8715 0.79169 0.69251 0.0
C287 C 0.86899 0.8094 0.68149 0.0
C288 C 0.84782 0.80203 0.62267 0.0
C289 C 0.84985 0.78423 0.63277 0.0
H290 H 0.87777 0.81882 0.69767 0.0
H291 H 0.84001 0.80557 0.592 0.0
H292 H 0.89461 0.85631 0.62869 0.0
H293 H 0.91582 0.81277 0.55574 0.0
H294 H 0.80162 0.86758 0.65135 0.0
H295 H 0.88165 0.78812 0.71799 0.0
H296 H 0.84257 0.77474 0.61167 0.0
C297 C 0.92788 0.1373 0.32333 0.0
C298 C 0.92499 0.1548 0.31449 0.0
N299 N 0.9106 0.15976 0.33918 0.0
N300 N 0.9154 0.13132 0.35353 0.0
C301 C 0.90504 0.14529 0.36267 0.0
H302 H 0.938 0.12923 0.30729 0.0
Co303 Co 0.91194 0.10789 0.36736 0.0
C304 C 0.90169 0.10739 0.47068 0.0
O305 O 0.91291 0.09444 0.47595 0.0
N306 N 0.90794 0.08365 0.3778 0.0
C307 C 0.89336 0.05859 0.38913 0.0
C308 C 0.8943 0.07607 0.40112 0.0
C309 C 0.91447 0.07052 0.35015 0.0
N310 N 0.90597 0.05518 0.35656 0.0
O311 O 0.89083 0.10876 0.32952 0.0
H312 H 0.88447 0.08301 0.4217 0.0
H313 H 0.92412 0.07248 0.32218 0.0
O314 O 0.89937 0.11417 0.42865 0.0
C315 C 0.89425 0.10411 0.28621 0.0
O316 O 0.91018 0.0988 0.27578 0.0
N317 N 0.93391 0.10762 0.39987 0.0
C318 C 0.96888 0.11411 0.4248 0.0
C319 C 0.95526 0.12363 0.44635 0.0
C320 C 0.93791 0.12032 0.43309 0.0
C321 C 0.94707 0.09792 0.37976 0.0
C322 C 0.96458 0.1007 0.39238 0.0
H323 H 0.92791 0.1291 0.4465 0.0
H324 H 0.94442 0.08916 0.35037 0.0
H325 H 0.8931 0.14464 0.38374 0.0
H326 H 0.93266 0.16315 0.29099 0.0
H327 H 0.88311 0.04957 0.39978 0.0
H328 H 0.95806 0.13428 0.4711 0.0
H329 H 0.97475 0.09344 0.37373 0.0
C330 C 0.61391 0.18153 0.10164 0.0
C331 C 0.59632 0.17893 0.09333 0.0
N332 N 0.59195 0.16291 0.10993 0.0
N333 N 0.62053 0.16733 0.12412 0.0
C334 C 0.60689 0.15616 0.12842 0.0
H335 H 0.62154 0.19281 0.0907 0.0
Co336 Co 0.64402 0.16307 0.13689 0.0
C337 C 0.64481 0.15257 0.23941 0.0
O338 O 0.65822 0.16327 0.2441 0.0
N339 N 0.66811 0.15811 0.14634 0.0
C340 C 0.69218 0.14181 0.15528 0.0
C341 C 0.67494 0.14382 0.1683 0.0
C342 C 0.68146 0.16405 0.11851 0.0
N343 N 0.69624 0.15443 0.1233 0.0
O344 O 0.64233 0.14218 0.09859 0.0
H345 H 0.66754 0.13425 0.18856 0.0
H346 H 0.6798 0.17378 0.0906 0.0
O347 O 0.63763 0.15054 0.19778 0.0
C348 C 0.64694 0.14568 0.05537 0.0
O349 O 0.6524 0.16158 0.04527 0.0
N350 N 0.64521 0.18483 0.17048 0.0
C351 C 0.63971 0.21975 0.19715 0.0
C352 C 0.62979 0.20631 0.21795 0.0
C353 C 0.63263 0.18899 0.20392 0.0
C354 C 0.65552 0.19776 0.15165 0.0
C355 C 0.65319 0.21529 0.16511 0.0
H356 H 0.62349 0.1792 0.21657 0.0
H357 H 0.66444 0.19497 0.12265 0.0
H358 H 0.60802 0.14316 0.14375 0.0
H359 H 0.58759 0.18784 0.07471 0.0
H360 H 0.70062 0.13107 0.16588 0.0
H361 H 0.61907 0.2093 0.24231 0.0
H362 H 0.6608 0.22538 0.14727 0.0
C363 C 0.5679 0.86249 0.8428 0.0
C364 C 0.57063 0.8449 0.83478 0.0
N365 N 0.58663 0.84067 0.8518 0.0
N366 N 0.58199 0.86923 0.86553 0.0
C367 C 0.59324 0.85568 0.87023 0.0
H368 H 0.55659 0.87001 0.83157 0.0
Co369 Co 0.58578 0.89277 0.87836 0.0
C370 C 0.59664 0.89378 0.98114 0.0
O371 O 0.58573 0.90701 0.98617 0.0
N372 N 0.59011 0.91701 0.88798 0.0
C373 C 0.60497 0.94193 0.8988 0.0
C374 C 0.60414 0.92439 0.90995 0.0
C375 C 0.58323 0.93031 0.86173 0.0
N376 N 0.59187 0.94559 0.86801 0.0
O377 O 0.60671 0.89148 0.83976 0.0
H378 H 0.6142 0.91729 0.92919 0.0
H379 H 0.57318 0.92858 0.83479 0.0
O380 O 0.59859 0.88663 0.93937 0.0
C381 C 0.60342 0.89632 0.79658 0.0
O382 O 0.58769 0.90226 0.78644 0.0
N383 N 0.564 0.89345 0.91188 0.0
C384 C 0.52914 0.88689 0.93756 0.0
C385 C 0.54285 0.87781 0.95993 0.0
C386 C 0.56015 0.88114 0.94628 0.0
C387 C 0.55074 0.90282 0.89118 0.0
C388 C 0.53327 0.9 0.90415 0.0
H389 H 0.57019 0.8725 0.96 0.0
H390 H 0.55328 0.91116 0.86082 0.0
H391 H 0.60618 0.85691 0.88591 0.0
H392 H 0.56181 0.83606 0.81615 0.0
H393 H 0.61538 0.95087 0.90879 0.0
H394 H 0.54017 0.86736 0.98534 0.0
H395 H 0.52301 0.90688 0.88486 0.0
C396 C 0.88301 0.18084 0.92968 0.0
C397 C 0.90057 0.17807 0.93792 0.0
N398 N 0.9053 0.16298 0.91602 0.0
N399 N 0.87674 0.16767 0.9023 0.0
C400 C 0.89055 0.15698 0.89458 0.0
H401 H 0.87511 0.19133 0.9445 0.0
Co402 Co 0.8533 0.16353 0.88991 0.0
C403 C 0.85253 0.1541 0.7859 0.0
O404 O 0.83922 0.16495 0.78162 0.0
N405 N 0.82916 0.1588 0.88099 0.0
C406 C 0.80416 0.14405 0.87026 0.0
C407 C 0.82141 0.14559 0.85623 0.0
C408 C 0.81643 0.1644 0.91138 0.0
N409 N 0.80114 0.15582 0.90541 0.0
O410 O 0.8552 0.14219 0.92651 0.0
H411 H 0.82814 0.1364 0.83303 0.0
H412 H 0.81871 0.17347 0.94063 0.0
O413 O 0.8595 0.15165 0.82762 0.0
C414 C 0.85144 0.14556 0.9705 0.0
O415 O 0.84652 0.16153 0.98197 0.0
N416 N 0.85192 0.1857 0.85875 0.0
C417 C 0.85702 0.22124 0.83778 0.0
C418 C 0.86683 0.2083 0.81399 0.0
C419 C 0.86421 0.19064 0.82533 0.0
C420 C 0.84173 0.19817 0.88028 0.0
C421 C 0.84382 0.21591 0.86967 0.0
H422 H 0.8733 0.18116 0.81065 0.0
H423 H 0.83311 0.19481 0.90937 0.0
H424 H 0.88958 0.14475 0.87501 0.0
H425 H 0.90893 0.18613 0.96036 0.0
H426 H 0.79508 0.13395 0.85885 0.0
H427 H 0.87749 0.21182 0.79003 0.0
H428 H 0.83597 0.22545 0.889 0.0
C429 C 0.56992 0.13845 0.69538 0.0
C430 C 0.57249 0.15618 0.70116 0.0
N431 N 0.58807 0.16043 0.68136 0.0
N432 N 0.58369 0.1316 0.67136 0.0
C433 C 0.5946 0.14525 0.66364 0.0
H434 H 0.55891 0.13093 0.70868 0.0
Co435 Co 0.58742 0.10796 0.65899 0.0
C436 C 0.5972 0.10658 0.55577 0.0
O437 O 0.58621 0.09337 0.5519 0.0
N438 N 0.59185 0.08368 0.6495 0.0
C439 C 0.60737 0.05924 0.63791 0.0
C440 C 0.60598 0.07671 0.62697 0.0
C441 C 0.58544 0.07014 0.67582 0.0
N442 N 0.59455 0.0551 0.66928 0.0
O443 O 0.60864 0.10941 0.69582 0.0
H444 H 0.61572 0.08407 0.60724 0.0
H445 H 0.57567 0.07168 0.70369 0.0
O446 O 0.59958 0.11388 0.59712 0.0
C447 C 0.60552 0.10445 0.73897 0.0
O448 O 0.58977 0.0987 0.74968 0.0
N449 N 0.56536 0.10708 0.62719 0.0
C450 C 0.53026 0.11317 0.6033 0.0
C451 C 0.54371 0.12238 0.58013 0.0
C452 C 0.56112 0.11931 0.59293 0.0
C453 C 0.55237 0.09756 0.64871 0.0
C454 C 0.53477 0.10017 0.63668 0.0
H455 H 0.57097 0.12802 0.5785 0.0
H456 H 0.55528 0.08921 0.67881 0.0
H457 H 0.6072 0.14402 0.64597 0.0
H458 H 0.56383 0.16514 0.71993 0.0
H459 H 0.61776 0.0506 0.62597 0.0
H460 H 0.54074 0.13273 0.55464 0.0
H461 H 0.52472 0.09317 0.65648 0.0
C462 C 0.61276 0.81739 0.43548 0.0
C463 C 0.59515 0.82003 0.44341 0.0
N464 N 0.59083 0.83595 0.42602 0.0
N465 N 0.61942 0.83145 0.41246 0.0
C466 C 0.6058 0.8426 0.40748 0.0
H467 H 0.62035 0.80616 0.44699 0.0
Co468 Co 0.64295 0.83534 0.39963 0.0
C469 C 0.64394 0.84597 0.29669 0.0
O470 O 0.65719 0.83507 0.29188 0.0
N471 N 0.66717 0.83979 0.38999 0.0
C472 C 0.69195 0.85488 0.37905 0.0
C473 C 0.67442 0.85385 0.36788 0.0
C474 C 0.68055 0.83308 0.41635 0.0
N475 N 0.69574 0.84187 0.41 0.0
O476 O 0.64154 0.85634 0.4379 0.0
H477 H 0.66722 0.86382 0.34854 0.0
H478 H 0.67891 0.82305 0.44337 0.0
O479 O 0.63677 0.84798 0.33841 0.0
C480 C 0.6464 0.85314 0.48112 0.0
O481 O 0.65241 0.83746 0.49144 0.0
N482 N 0.64375 0.81348 0.36648 0.0
C483 C 0.63717 0.7785 0.34198 0.0
C484 C 0.6281 0.79212 0.31915 0.0
C485 C 0.63144 0.80947 0.33219 0.0
C486 C 0.65316 0.80031 0.38751 0.0
C487 C 0.65032 0.78278 0.37514 0.0
H488 H 0.62279 0.81945 0.31818 0.0
H489 H 0.66152 0.80299 0.41774 0.0
H490 H 0.60696 0.8555 0.39153 0.0
H491 H 0.58638 0.81122 0.46224 0.0
H492 H 0.70078 0.86537 0.36895 0.0
H493 H 0.61763 0.78932 0.29388 0.0
H494 H 0.65721 0.7726 0.39474 0.0
C495 C 0.93294 0.86476 0.17368 0.0
C496 C 0.93065 0.84707 0.18127 0.0
N497 N 0.91474 0.84249 0.1642 0.0
N498 N 0.91867 0.87122 0.15118 0.0
C499 C 0.90777 0.85739 0.14615 0.0
H500 H 0.94405 0.87253 0.18507 0.0
Co501 Co 0.91392 0.89465 0.13876 0.0
C502 C 0.90367 0.89506 0.03568 0.0
O503 O 0.91409 0.90869 0.03087 0.0
N504 N 0.90844 0.91869 0.12946 0.0
C505 C 0.8922 0.9427 0.11849 0.0
C506 C 0.8943 0.92536 0.10642 0.0
C507 C 0.91411 0.93221 0.15713 0.0
N508 N 0.9046 0.94699 0.15091 0.0
O509 O 0.89297 0.89242 0.17676 0.0
H510 H 0.88499 0.91785 0.08559 0.0
H511 H 0.92365 0.93077 0.18561 0.0
O512 O 0.90171 0.88799 0.07747 0.0
C513 C 0.89649 0.89698 0.22005 0.0
O514 O 0.91231 0.90274 0.22994 0.0
N515 N 0.93577 0.89644 0.10587 0.0
C516 C 0.97117 0.89218 0.08134 0.0
C517 C 0.95817 0.88195 0.0592 0.0
C518 C 0.94061 0.88417 0.07223 0.0
C519 C 0.94821 0.90701 0.12592 0.0
C520 C 0.96587 0.90536 0.11348 0.0
H521 H 0.93121 0.87479 0.05871 0.0
H522 H 0.94494 0.91566 0.15511 0.0
H523 H 0.8948 0.85835 0.13057 0.0
H524 H 0.93967 0.83841 0.1997 0.0
H525 H 0.88164 0.95112 0.10654 0.0
H526 H 0.96162 0.87128 0.03519 0.0
H527 H 0.97543 0.91357 0.13153 0.0
C528 C 0.61577 0.67837 0.94535 0.0
C529 C 0.5984 0.67532 0.95563 0.0
N530 N 0.59325 0.66106 0.93069 0.0
N531 N 0.6215 0.6661 0.91407 0.0
C532 C 0.60747 0.65573 0.90562 0.0
H533 H 0.62399 0.68832 0.96157 0.0
Co534 Co 0.6449 0.66241 0.89992 0.0
C535 C 0.64529 0.653 0.79595 0.0
O536 O 0.65841 0.66404 0.79126 0.0
N537 N 0.66914 0.65814 0.88917 0.0
C538 C 0.69403 0.64333 0.87694 0.0
C539 C 0.67656 0.6446 0.86503 0.0
C540 C 0.68235 0.66429 0.91713 0.0
N541 N 0.6976 0.65565 0.91022 0.0
O542 O 0.64371 0.64102 0.93625 0.0
H543 H 0.6695 0.63503 0.84382 0.0
H544 H 0.68054 0.67375 0.94563 0.0
O545 O 0.63845 0.65051 0.83785 0.0
C546 C 0.64832 0.64432 0.97964 0.0
O547 O 0.65371 0.66021 0.99032 0.0
N548 N 0.64554 0.68468 0.86928 0.0
C549 C 0.63953 0.72017 0.84922 0.0
C550 C 0.6302 0.70706 0.82473 0.0
C551 C 0.63322 0.68941 0.83575 0.0
C552 C 0.6551 0.69734 0.89199 0.0
C553 C 0.65258 0.71506 0.88183 0.0
H554 H 0.62444 0.67977 0.82059 0.0
H555 H 0.66345 0.69408 0.92173 0.0
H556 H 0.60799 0.64383 0.88433 0.0
H557 H 0.5903 0.68268 0.98057 0.0
H558 H 0.70294 0.63306 0.86558 0.0
H559 H 0.61963 0.71039 0.80033 0.0
H560 H 0.65999 0.72474 0.90192 0.0
C561 C 0.57038 0.36103 0.19112 0.0
C562 C 0.57491 0.3443 0.20487 0.0
N563 N 0.59146 0.3413 0.19031 0.0
N564 N 0.58399 0.3685 0.16758 0.0
C565 C 0.59673 0.35614 0.16836 0.0
H566 H 0.55816 0.36744 0.19973 0.0
Co567 Co 0.58664 0.39215 0.15029 0.0
C568 C 0.59623 0.37206 0.05999 0.0
O569 O 0.58557 0.35939 0.07304 0.0
N570 N 0.58923 0.41581 0.13623 0.0
C571 C 0.59154 0.44242 0.10422 0.0
C572 C 0.59089 0.42465 0.09436 0.0
C573 C 0.58876 0.42833 0.17055 0.0
N574 N 0.59014 0.44467 0.1524 0.0
O575 O 0.60892 0.39212 0.18299 0.0
H576 H 0.59127 0.41864 0.059 0.0
H577 H 0.58743 0.42544 0.20844 0.0
O578 O 0.59773 0.38573 0.0869 0.0
C579 C 0.60567 0.39378 0.22804 0.0
O580 O 0.58928 0.39523 0.24209 0.0
N581 N 0.5639 0.39285 0.12442 0.0
C582 C 0.52783 0.38955 0.1111 0.0
C583 C 0.53953 0.38598 0.0731 0.0
C584 C 0.55759 0.3881 0.08018 0.0
C585 C 0.55266 0.39842 0.1594 0.0
C586 C 0.5346 0.39693 0.15355 0.0
H587 H 0.5662 0.38542 0.0504 0.0
H588 H 0.55783 0.40294 0.19356 0.0
H589 H 0.6098 0.35815 0.15413 0.0
H590 H 0.56673 0.33508 0.2242 0.0
H591 H 0.59258 0.45281 0.07782 0.0
H592 H 0.53495 0.38072 0.03907 0.0
H593 H 0.52609 0.40073 0.18308 0.0
C594 C 0.88666 0.32624 0.43898 0.0
C595 C 0.90394 0.32981 0.44896 0.0
N596 N 0.90867 0.34408 0.42354 0.0
N597 N 0.88059 0.33818 0.40732 0.0
C598 C 0.89429 0.3489 0.39841 0.0
H599 H 0.87875 0.3161 0.45543 0.0
Co600 Co 0.85705 0.34073 0.3933 0.0
C601 C 0.85595 0.34841 0.28863 0.0
O602 O 0.84371 0.33628 0.28716 0.0
N603 N 0.83265 0.34382 0.38302 0.0
C604 C 0.80707 0.35729 0.37035 0.0
C605 C 0.82451 0.35661 0.35768 0.0
C606 C 0.8199 0.33753 0.41231 0.0
N607 N 0.80424 0.34538 0.4052 0.0
O608 O 0.85739 0.36241 0.42901 0.0
H609 H 0.831 0.3661 0.33498 0.0
H610 H 0.82232 0.32854 0.44159 0.0
O611 O 0.86269 0.35251 0.32978 0.0
C612 C 0.85338 0.35893 0.4728 0.0
O613 O 0.84882 0.34283 0.48376 0.0
N614 N 0.85742 0.31818 0.36349 0.0
C615 C 0.86465 0.28305 0.3418 0.0
C616 C 0.87425 0.29656 0.32011 0.0
C617 C 0.87055 0.31399 0.3317 0.0
C618 C 0.84766 0.3051 0.38375 0.0
C619 C 0.85083 0.2875 0.37273 0.0
H620 H 0.87923 0.324 0.31798 0.0
H621 H 0.83843 0.30793 0.41189 0.0
H622 H 0.89345 0.36062 0.3765 0.0
H623 H 0.91227 0.32272 0.47382 0.0
H624 H 0.79765 0.36696 0.35826 0.0
H625 H 0.88517 0.29365 0.2964 0.0
H626 H 0.84345 0.27743 0.39136 0.0
C627 C 0.93239 0.63573 0.68061 0.0
C628 C 0.92983 0.65341 0.68767 0.0
N629 N 0.91391 0.6577 0.67014 0.0
N630 N 0.91827 0.62899 0.65802 0.0
C631 C 0.90719 0.64263 0.65238 0.0
H632 H 0.94359 0.62816 0.69236 0.0
Co633 Co 0.91406 0.60545 0.64608 0.0
C634 C 0.90323 0.60453 0.54328 0.0
O635 O 0.91379 0.59103 0.53815 0.0
N636 N 0.90922 0.58128 0.63745 0.0
C637 C 0.89345 0.55685 0.62867 0.0
C638 C 0.89517 0.57408 0.61516 0.0
C639 C 0.91525 0.56818 0.666 0.0
N640 N 0.90598 0.55317 0.66129 0.0
O641 O 0.89324 0.60722 0.68477 0.0
H642 H 0.88563 0.58119 0.59407 0.0
H643 H 0.92487 0.57017 0.69403 0.0
O644 O 0.90138 0.61164 0.5851 0.0
C645 C 0.89715 0.60306 0.72806 0.0
O646 O 0.91327 0.59808 0.7376 0.0
N647 N 0.93577 0.60416 0.61239 0.0
C648 C 0.97076 0.60976 0.58638 0.0
C649 C 0.95727 0.61933 0.56448 0.0
C650 C 0.93992 0.61648 0.57828 0.0
C651 C 0.94875 0.59418 0.63228 0.0
C652 C 0.96629 0.59657 0.61922 0.0
H653 H 0.9301 0.62544 0.56489 0.0
H654 H 0.94595 0.58554 0.66185 0.0
H655 H 0.89429 0.64143 0.63648 0.0
H656 H 0.9387 0.66227 0.706 0.0
H657 H 0.88301 0.54814 0.61756 0.0
H658 H 0.96021 0.62979 0.5393 0.0
H659 H 0.97637 0.58922 0.63792 0.0
C660 C 0.6145 0.32513 0.57791 0.0
C661 C 0.59703 0.32833 0.56944 0.0
N662 N 0.5922 0.34239 0.59575 0.0
N663 N 0.62062 0.3371 0.60949 0.0
C664 C 0.60674 0.34745 0.61982 0.0
H665 H 0.62248 0.31523 0.56056 0.0
Co666 Co 0.64411 0.3404 0.62334 0.0
C667 C 0.64505 0.34884 0.72765 0.0
O668 O 0.65809 0.33759 0.73035 0.0
N669 N 0.6684 0.34441 0.63425 0.0
C670 C 0.69285 0.35986 0.64662 0.0
C671 C 0.67537 0.35832 0.65776 0.0
C672 C 0.68197 0.33821 0.60752 0.0
N673 N 0.69697 0.3473 0.61443 0.0
O674 O 0.64313 0.36208 0.58828 0.0
H675 H 0.66799 0.3679 0.67807 0.0
H676 H 0.68048 0.32874 0.57886 0.0
O677 O 0.63791 0.35183 0.68641 0.0
C678 C 0.64813 0.35879 0.54518 0.0
O679 O 0.65344 0.34285 0.53472 0.0
N680 N 0.64457 0.31783 0.65232 0.0
C681 C 0.63856 0.2822 0.67085 0.0
C682 C 0.62954 0.29519 0.69672 0.0
C683 C 0.6325 0.3129 0.68636 0.0
C684 C 0.65372 0.30529 0.62783 0.0
C685 C 0.65117 0.28749 0.63709 0.0
H686 H 0.62393 0.32248 0.70276 0.0
H687 H 0.66178 0.30881 0.59759 0.0
H688 H 0.60752 0.35909 0.64211 0.0
H689 H 0.58861 0.32113 0.54502 0.0
H690 H 0.70147 0.37022 0.65874 0.0
H691 H 0.61926 0.29173 0.72197 0.0
H692 H 0.65829 0.27792 0.6158 0.0
C693 C 0.93285 0.36081 0.83887 0.0
C694 C 0.92933 0.34339 0.83055 0.0
N695 N 0.91291 0.34003 0.8459 0.0
N696 N 0.9188 0.36832 0.86002 0.0
C697 C 0.90681 0.35537 0.86362 0.0
H698 H 0.9447 0.36769 0.82889 0.0
Co699 Co 0.91621 0.39206 0.87297 0.0
C700 C 0.89028 0.39224 0.95467 0.0
O701 O 0.8805 0.40396 0.93274 0.0
N702 N 0.91384 0.4161 0.88424 0.0
C703 C 0.91494 0.44312 0.9143 0.0
C704 C 0.91562 0.42548 0.92526 0.0
C705 C 0.91223 0.42823 0.84914 0.0
N706 N 0.91292 0.44481 0.86616 0.0
O707 O 0.89487 0.39193 0.8354 0.0
H708 H 0.91797 0.41988 0.96052 0.0
H709 H 0.911 0.42495 0.81144 0.0
O710 O 0.90407 0.38651 0.93374 0.0
C711 C 0.89908 0.39241 0.79073 0.0
O712 O 0.91575 0.39345 0.77909 0.0
N713 N 0.93781 0.39205 0.9049 0.0
C714 C 0.97275 0.38628 0.92901 0.0
C715 C 0.95929 0.37755 0.95375 0.0
C716 C 0.94183 0.38064 0.94119 0.0
C717 C 0.95066 0.40146 0.88259 0.0
C718 C 0.96825 0.39892 0.89448 0.0
H719 H 0.93175 0.37268 0.95759 0.0
H720 H 0.94735 0.41002 0.85285 0.0
H721 H 0.89376 0.35728 0.87808 0.0
H722 H 0.93795 0.33409 0.81291 0.0
H723 H 0.91657 0.45382 0.9396 0.0
H724 H 0.96229 0.36766 0.98055 0.0
H725 H 0.97828 0.40573 0.8741 0.0
C726 C 0.88821 0.6785 0.07767 0.0
C727 C 0.90561 0.67534 0.06792 0.0
N728 N 0.91059 0.66101 0.09282 0.0
N729 N 0.88229 0.66626 0.1087 0.0
C730 C 0.89622 0.65579 0.11741 0.0
H731 H 0.88012 0.68853 0.06139 0.0
Co732 Co 0.85886 0.66263 0.12302 0.0
C733 C 0.85845 0.65447 0.22757 0.0
O734 O 0.84536 0.66562 0.23122 0.0
N735 N 0.83466 0.65826 0.13427 0.0
C736 C 0.81031 0.64282 0.14802 0.0
C737 C 0.82776 0.64464 0.15913 0.0
C738 C 0.8211 0.66394 0.10674 0.0
N739 N 0.80615 0.65487 0.11452 0.0
O740 O 0.86021 0.64084 0.08858 0.0
H741 H 0.83516 0.63541 0.18048 0.0
H742 H 0.82259 0.67302 0.07719 0.0
O743 O 0.86535 0.65149 0.18599 0.0
C744 C 0.85539 0.64359 0.04511 0.0
O745 O 0.84974 0.65927 0.03329 0.0
N746 N 0.85806 0.68524 0.15176 0.0
C747 C 0.86378 0.721 0.16911 0.0
C748 C 0.87322 0.70822 0.1945 0.0
C749 C 0.87036 0.69044 0.18482 0.0
C750 C 0.84837 0.69757 0.12812 0.0
C751 C 0.85078 0.71544 0.13683 0.0
H752 H 0.87921 0.68103 0.20071 0.0
H753 H 0.83995 0.69386 0.09885 0.0
H754 H 0.89553 0.6439 0.13864 0.0
H755 H 0.91384 0.6827 0.0434 0.0
H756 H 0.80172 0.6326 0.16127 0.0
H757 H 0.88376 0.71188 0.21868 0.0
H758 H 0.84327 0.72484 0.11609 0.0
C759 C 0.57123 0.63399 0.33611 0.0
C760 C 0.57406 0.65145 0.32661 0.0
N761 N 0.58876 0.65642 0.34982 0.0
N762 N 0.58407 0.62805 0.36521 0.0
C763 C 0.59455 0.64201 0.37311 0.0
H764 H 0.56103 0.62586 0.32075 0.0
Co765 Co 0.58839 0.60461 0.37732 0.0
C766 C 0.59809 0.60402 0.4811 0.0
O767 O 0.58727 0.59072 0.48586 0.0
N768 N 0.59331 0.58048 0.38564 0.0
C769 C 0.60815 0.55555 0.39575 0.0
C770 C 0.60638 0.57268 0.41061 0.0
C771 C 0.588 0.56792 0.35432 0.0
N772 N 0.59665 0.55258 0.3598 0.0
O773 O 0.60954 0.60665 0.34002 0.0
H774 H 0.61528 0.57925 0.43489 0.0
H775 H 0.57926 0.57053 0.32456 0.0
O776 O 0.60048 0.61085 0.43919 0.0
C777 C 0.60589 0.60332 0.29597 0.0
O778 O 0.58976 0.59886 0.28482 0.0
N779 N 0.56636 0.60306 0.40948 0.0
C780 C 0.53095 0.60737 0.43393 0.0
C781 C 0.54391 0.61788 0.45517 0.0
C782 C 0.56148 0.61562 0.44224 0.0
C783 C 0.55395 0.59221 0.39034 0.0
C784 C 0.53629 0.59391 0.40271 0.0
H785 H 0.57091 0.62505 0.4554 0.0
H786 H 0.55726 0.58311 0.36223 0.0
H787 H 0.60685 0.64133 0.39253 0.0
H788 H 0.56627 0.65973 0.30324 0.0
H789 H 0.61791 0.54641 0.4087 0.0
H790 H 0.54044 0.62873 0.47855 0.0
H791 H 0.52677 0.58544 0.38547 0.0
C792 C 0.38423 0.32028 0.09384 0.0
C793 C 0.40174 0.32308 0.08493 0.0
N794 N 0.40659 0.33808 0.10709 0.0
N795 N 0.3781 0.33334 0.1219 0.0
C796 C 0.39195 0.34398 0.12936 0.0
H797 H 0.37625 0.30986 0.079 0.0
Co798 Co 0.35475 0.33752 0.13538 0.0
C799 C 0.35425 0.34664 0.23961 0.0
O800 O 0.34089 0.33584 0.24363 0.0
N801 N 0.33066 0.34236 0.14561 0.0
C802 C 0.30625 0.35797 0.15721 0.0
C803 C 0.32359 0.3561 0.16969 0.0
C804 C 0.31738 0.33666 0.11722 0.0
N805 N 0.30239 0.34578 0.12374 0.0
O806 O 0.35656 0.35898 0.09929 0.0
H807 H 0.33084 0.36536 0.1914 0.0
H808 H 0.31915 0.32752 0.08786 0.0
O809 O 0.36126 0.34915 0.19792 0.0
C810 C 0.35223 0.35583 0.05559 0.0
O811 O 0.34672 0.34003 0.04434 0.0
N812 N 0.35348 0.31522 0.16577 0.0
C813 C 0.35902 0.27957 0.18472 0.0
C814 C 0.36852 0.29246 0.2096 0.0
C815 C 0.36572 0.31017 0.19917 0.0
C816 C 0.34362 0.30279 0.14302 0.0
C817 C 0.34594 0.28499 0.15256 0.0
H818 H 0.37468 0.31962 0.2145 0.0
H819 H 0.33516 0.30631 0.1137 0.0
H820 H 0.39108 0.35614 0.14934 0.0
H821 H 0.41 0.31512 0.06189 0.0
H822 H 0.29757 0.36828 0.16946 0.0
H823 H 0.3791 0.28889 0.23373 0.0
H824 H 0.33836 0.27549 0.13229 0.0
C825 C 0.43172 0.64035 0.85015 0.0
C826 C 0.42859 0.6579 0.84283 0.0
N827 N 0.41201 0.66141 0.85661 0.0
N828 N 0.41727 0.63286 0.86921 0.0
C829 C 0.40544 0.64599 0.87233 0.0
H830 H 0.44361 0.63339 0.84095 0.0
Co831 Co 0.41425 0.60894 0.88023 0.0
C832 C 0.38656 0.61721 0.9561 0.0
O833 O 0.37359 0.61846 0.92512 0.0
N834 N 0.41126 0.58488 0.88947 0.0
C835 C 0.40525 0.55811 0.91647 0.0
C836 C 0.40649 0.57561 0.92878 0.0
C837 C 0.41304 0.57279 0.85421 0.0
N838 N 0.40931 0.55638 0.8693 0.0
O839 O 0.39324 0.60962 0.84188 0.0
H840 H 0.40386 0.58113 0.96398 0.0
H841 H 0.4172 0.576 0.81805 0.0
O842 O 0.40201 0.61373 0.94112 0.0
C843 C 0.39782 0.60828 0.79767 0.0
O844 O 0.41457 0.60685 0.78728 0.0
N845 N 0.43569 0.60828 0.91312 0.0
C846 C 0.4706 0.61396 0.938 0.0
C847 C 0.45706 0.62231 0.96352 0.0
C848 C 0.43961 0.61925 0.95062 0.0
C849 C 0.44862 0.59918 0.89014 0.0
C850 C 0.46619 0.60168 0.90238 0.0
H851 H 0.42947 0.62696 0.96776 0.0
H852 H 0.44544 0.59105 0.85939 0.0
H853 H 0.39215 0.64423 0.88496 0.0
H854 H 0.43762 0.66722 0.82698 0.0
H855 H 0.40122 0.54761 0.94023 0.0
H856 H 0.45998 0.63191 0.99122 0.0
H857 H 0.47627 0.59518 0.88138 0.0
C858 C 0.11417 0.67623 0.56301 0.0
C859 C 0.09694 0.67213 0.55392 0.0
N860 N 0.09302 0.65733 0.57811 0.0
N861 N 0.12104 0.66406 0.59273 0.0
C862 C 0.10783 0.65272 0.60152 0.0
H863 H 0.12147 0.68702 0.54754 0.0
Co864 Co 0.14464 0.6622 0.60753 0.0
C865 C 0.14489 0.63738 0.69188 0.0
O866 O 0.15722 0.6278 0.67178 0.0
N867 N 0.16871 0.66044 0.62071 0.0
C868 C 0.19531 0.66318 0.653 0.0
C869 C 0.1775 0.66416 0.66177 0.0
C870 C 0.1814 0.6572 0.58782 0.0
N871 N 0.19765 0.65872 0.60639 0.0
O872 O 0.14519 0.6405 0.57149 0.0
H873 H 0.17138 0.66798 0.6954 0.0
H874 H 0.17892 0.65468 0.55011 0.0
O875 O 0.13883 0.65063 0.66912 0.0
C876 C 0.14652 0.64448 0.52678 0.0
O877 O 0.14839 0.66105 0.5149 0.0
N878 N 0.14374 0.68418 0.63761 0.0
C879 C 0.1373 0.71917 0.66055 0.0
C880 C 0.12826 0.70569 0.68429 0.0
C881 C 0.13167 0.68822 0.6723 0.0
C882 C 0.15325 0.69707 0.6158 0.0
C883 C 0.15038 0.71469 0.62718 0.0
H884 H 0.12359 0.67812 0.68808 0.0
H885 H 0.16232 0.69374 0.58718 0.0
H886 H 0.10929 0.64084 0.62248 0.0
H887 H 0.08803 0.6793 0.5308 0.0
H888 H 0.20569 0.66583 0.6786 0.0
H889 H 0.11803 0.70865 0.7102 0.0
H890 H 0.15746 0.72474 0.60758 0.0
C891 C 0.07341 0.36347 0.32248 0.0
C892 C 0.07638 0.34592 0.31447 0.0
N893 N 0.09078 0.34118 0.33941 0.0
N894 N 0.08585 0.36971 0.35241 0.0
C895 C 0.09626 0.35584 0.36223 0.0
H896 H 0.0633 0.37139 0.30594 0.0
Co897 Co 0.08935 0.39328 0.36474 0.0
C898 C 0.09923 0.39475 0.4681 0.0
O899 O 0.08816 0.40788 0.47224 0.0
N900 N 0.09343 0.41759 0.37368 0.0
C901 C 0.10824 0.44262 0.38321 0.0
C902 C 0.10714 0.42527 0.39641 0.0
C903 C 0.087 0.43051 0.34522 0.0
N904 N 0.09565 0.44584 0.3505 0.0
O905 O 0.1106 0.39197 0.32769 0.0
H906 H 0.11692 0.41844 0.41739 0.0
H907 H 0.07734 0.42837 0.31744 0.0
O908 O 0.10161 0.38754 0.42663 0.0
C909 C 0.10733 0.39631 0.28411 0.0
O910 O 0.09142 0.40151 0.27303 0.0
N911 N 0.06727 0.39397 0.39657 0.0
C912 C 0.03218 0.38831 0.42186 0.0
C913 C 0.04564 0.37889 0.44442 0.0
C914 C 0.06305 0.38177 0.43092 0.0
C915 C 0.05426 0.40349 0.37522 0.0
C916 C 0.0367 0.40114 0.38799 0.0
H917 H 0.07292 0.37306 0.44525 0.0
H918 H 0.05705 0.41173 0.34485 0.0
H919 H 0.10821 0.35669 0.38318 0.0
H920 H 0.06879 0.33739 0.29127 0.0
H921 H 0.11859 0.45163 0.39319 0.0
H922 H 0.04267 0.36866 0.47024 0.0
H923 H 0.02666 0.40824 0.36845 0.0
C924 C 0.3916 0.68293 0.42578 0.0
C925 C 0.40889 0.67954 0.43606 0.0
N926 N 0.41178 0.66226 0.43013 0.0
N927 N 0.38353 0.66789 0.41265 0.0
C928 C 0.39618 0.6555 0.41645 0.0
H929 H 0.38543 0.6956 0.42881 0.0
Co930 Co 0.35957 0.66407 0.3992 0.0
C931 C 0.37842 0.65402 0.3072 0.0
O932 O 0.39116 0.66482 0.31876 0.0
N933 N 0.33575 0.66037 0.38853 0.0
C934 C 0.30887 0.65873 0.35769 0.0
C935 C 0.32651 0.66029 0.34701 0.0
C936 C 0.32356 0.65883 0.42364 0.0
N937 N 0.30714 0.65772 0.406 0.0
O938 O 0.36101 0.64225 0.43404 0.0
H939 H 0.33215 0.66178 0.31142 0.0
H940 H 0.32652 0.65926 0.46173 0.0
O941 O 0.36525 0.65232 0.33589 0.0
C942 C 0.35983 0.64596 0.47893 0.0
O943 O 0.35786 0.66243 0.49172 0.0
N944 N 0.35749 0.68646 0.37093 0.0
C945 C 0.35976 0.72215 0.35166 0.0
C946 C 0.36293 0.70984 0.31512 0.0
C947 C 0.36123 0.69196 0.32514 0.0
C948 C 0.35236 0.69831 0.40501 0.0
C949 C 0.35347 0.7163 0.39624 0.0
H950 H 0.36342 0.68286 0.29622 0.0
H951 H 0.34879 0.69377 0.44065 0.0
H952 H 0.39403 0.64178 0.40835 0.0
H953 H 0.4185 0.68905 0.44794 0.0
H954 H 0.29817 0.6585 0.33204 0.0
H955 H 0.36727 0.714 0.2797 0.0
H956 H 0.35074 0.72546 0.4252 0.0
C957 C 0.07486 0.63436 0.17344 0.0
C958 C 0.07796 0.65171 0.1836 0.0
N959 N 0.09308 0.65645 0.16201 0.0
N960 N 0.08783 0.62824 0.14503 0.0
C961 C 0.0988 0.64192 0.13883 0.0
H962 H 0.06423 0.62648 0.18743 0.0
Co963 Co 0.09096 0.60486 0.12979 0.0
C964 C 0.09856 0.60455 0.02482 0.0
O965 O 0.08663 0.59212 0.02298 0.0
N966 N 0.09467 0.58066 0.11804 0.0
C967 C 0.10921 0.55579 0.10389 0.0
C968 C 0.10786 0.57326 0.09244 0.0
C969 C 0.08877 0.56741 0.1462 0.0
N970 N 0.09728 0.55214 0.13823 0.0
O971 O 0.11271 0.60549 0.16524 0.0
H972 H 0.11714 0.5803 0.07028 0.0
H973 H 0.07991 0.56931 0.17617 0.0
O974 O 0.10254 0.61119 0.06623 0.0
C975 C 0.10939 0.60113 0.20887 0.0
O976 O 0.09337 0.59621 0.21982 0.0
N977 N 0.06832 0.60484 0.10043 0.0
C978 C 0.03293 0.61228 0.08266 0.0
C979 C 0.0462 0.62182 0.05961 0.0
C980 C 0.06376 0.61802 0.06926 0.0
C981 C 0.05549 0.59497 0.12145 0.0
C982 C 0.03775 0.59827 0.11246 0.0
H983 H 0.07359 0.62681 0.05505 0.0
H984 H 0.05868 0.58561 0.14898 0.0
H985 H 0.111 0.64104 0.11899 0.0
H986 H 0.07009 0.65995 0.20695 0.0
H987 H 0.11905 0.54683 0.0903 0.0
H988 H 0.04304 0.63285 0.0366 0.0
H989 H 0.0279 0.59088 0.13197 0.0
C990 C 0.11733 0.32121 0.92982 0.0
C991 C 0.10004 0.32443 0.94063 0.0
N992 N 0.09513 0.33912 0.91739 0.0
N993 N 0.12323 0.33382 0.8999 0.0
C994 C 0.1094 0.34456 0.8928 0.0
H995 H 0.1254 0.31088 0.94474 0.0
Co996 Co 0.14666 0.33727 0.8861 0.0
C997 C 0.14735 0.34802 0.78356 0.0
O998 O 0.16035 0.33686 0.7781 0.0
N999 N 0.17087 0.34124 0.87623 0.0
C1000 C 0.19592 0.35612 0.86833 0.0
C1001 C 0.1787 0.35494 0.85389 0.0
C1002 C 0.18355 0.33484 0.90548 0.0
N1003 N 0.19886 0.34357 0.90137 0.0
O1004 O 0.14581 0.35815 0.92491 0.0
H1005 H 0.172 0.36477 0.83278 0.0
H1006 H 0.18115 0.32517 0.93313 0.0
O1007 O 0.1405 0.35021 0.82558 0.0
C1008 C 0.14995 0.35448 0.9684 0.0
O1009 O 0.15476 0.33839 0.97877 0.0
N1010 N 0.14687 0.31556 0.85208 0.0
C1011 C 0.14004 0.28096 0.82442 0.0
C1012 C 0.13029 0.29481 0.80511 0.0
C1013 C 0.13381 0.31197 0.81959 0.0
C1014 C 0.15696 0.3022 0.8695 0.0
C1015 C 0.15397 0.28484 0.8555 0.0
H1016 H 0.12491 0.32213 0.80789 0.0
H1017 H 0.16631 0.30452 0.89768 0.0
H1018 H 0.1101 0.35674 0.87287 0.0
H1019 H 0.09183 0.31687 0.96478 0.0
H1020 H 0.20495 0.36656 0.85925 0.0
H1021 H 0.11926 0.29229 0.78144 0.0
H1022 H 0.16149 0.27443 0.87221 0.0
C1023 C 0.42906 0.36588 0.70265 0.0
C1024 C 0.42649 0.34834 0.71189 0.0
N1025 N 0.41217 0.34306 0.68742 0.0
N1026 N 0.41644 0.37154 0.67243 0.0
C1027 C 0.40634 0.35736 0.66369 0.0
H1028 H 0.43899 0.37418 0.71858 0.0
Co1029 Co 0.41214 0.39479 0.65825 0.0
C1030 C 0.40147 0.39505 0.5553 0.0
O1031 O 0.41189 0.40866 0.5503 0.0
N1032 N 0.40712 0.41881 0.64718 0.0
C1033 C 0.39003 0.44237 0.63877 0.0
C1034 C 0.39212 0.42498 0.62735 0.0
C1035 C 0.41357 0.43278 0.67176 0.0
N1036 N 0.40346 0.44723 0.66713 0.0
O1037 O 0.39113 0.39322 0.69649 0.0
H1038 H 0.38227 0.417 0.60997 0.0
H1039 H 0.42401 0.43192 0.6979 0.0
O1040 O 0.39973 0.38793 0.59712 0.0
C1041 C 0.39422 0.3987 0.73923 0.0
O1042 O 0.40969 0.40542 0.74873 0.0
N1043 N 0.43404 0.39572 0.62559 0.0
C1044 C 0.46922 0.38935 0.60235 0.0
C1045 C 0.45576 0.38011 0.57925 0.0
C1046 C 0.43831 0.38333 0.59171 0.0
C1047 C 0.44704 0.40522 0.64711 0.0
C1048 C 0.46467 0.40249 0.63536 0.0
H1049 H 0.42848 0.37456 0.57746 0.0
H1050 H 0.44412 0.4136 0.67721 0.0
H1051 H 0.39434 0.35776 0.6429 0.0
H1052 H 0.43427 0.34021 0.73565 0.0
H1053 H 0.37877 0.45042 0.63004 0.0
H1054 H 0.45874 0.36964 0.55406 0.0
H1055 H 0.4747 0.40951 0.65519 0.0
C1056 C 0.10347 0.14593 0.03725 0.0
C1057 C 0.10339 0.12992 0.01204 0.0
C1058 C 0.10985 0.14718 0.08466 0.0
C1059 C 0.11638 0.13204 0.10817 0.0
C1060 C 0.1164 0.1158 0.08305 0.0
C1061 C 0.10998 0.11494 0.03523 0.0
C1062 C 0.10976 0.16484 0.10944 0.0
C1063 C 0.1232 0.09935 0.10674 0.0
C1064 C 0.14856 0.14327 0.20821 0.0
C1065 C 0.13782 0.14339 0.24943 0.0
C1066 C 0.14201 0.13851 0.16268 0.0
C1067 C 0.12416 0.13375 0.15774 0.0
C1068 C 0.11346 0.13282 0.1997 0.0
C1069 C 0.12043 0.13761 0.24512 0.0
C1070 C 0.15398 0.13971 0.11935 0.0
C1071 C 0.09439 0.12773 0.19622 0.0
H1072 H 0.0985 0.15764 0.01983 0.0
H1073 H 0.10989 0.10249 0.01634 0.0
H1074 H 0.10236 0.16404 0.14386 0.0
H1075 H 0.12338 0.16878 0.11841 0.0
H1076 H 0.10379 0.17525 0.08675 0.0
H1077 H 0.12175 0.08764 0.08321 0.0
H1078 H 0.13727 0.10097 0.11587 0.0
H1079 H 0.11608 0.09698 0.14105 0.0
H1080 H 0.16208 0.14752 0.21116 0.0
H1081 H 0.11202 0.1377 0.27668 0.0
H1082 H 0.14985 0.15085 0.09628 0.0
H1083 H 0.15305 0.12763 0.09717 0.0
H1084 H 0.16789 0.14171 0.12979 0.0
H1085 H 0.08697 0.13839 0.1782 0.0
H1086 H 0.08847 0.12538 0.23229 0.0
H1087 H 0.09286 0.11574 0.17392 0.0
C1088 C 0.10692 0.90051 0.46363 0.0
C1089 C 0.10682 0.88968 0.5046 0.0
C1090 C 0.11184 0.89408 0.41807 0.0
C1091 C 0.11672 0.87626 0.41286 0.0
C1092 C 0.11765 0.86549 0.45459 0.0
C1093 C 0.11274 0.87234 0.50004 0.0
C1094 C 0.11069 0.90613 0.37495 0.0
C1095 C 0.12279 0.84643 0.45081 0.0
C1096 C 0.10454 0.85559 0.29238 0.0
C1097 C 0.12057 0.85537 0.26729 0.0
C1098 C 0.10329 0.86204 0.33971 0.0
C1099 C 0.11843 0.86854 0.36324 0.0
C1100 C 0.13469 0.86845 0.33824 0.0
C1101 C 0.13557 0.86191 0.29052 0.0
C1102 C 0.08561 0.86201 0.36445 0.0
C1103 C 0.15114 0.87526 0.36194 0.0
H1104 H 0.10256 0.91399 0.46682 0.0
H1105 H 0.11268 0.86386 0.53143 0.0
H1106 H 0.12277 0.90518 0.35275 0.0
H1107 H 0.09952 0.9021 0.35183 0.0
H1108 H 0.10875 0.92003 0.38568 0.0
H1109 H 0.12508 0.84044 0.48679 0.0
H1110 H 0.11219 0.83902 0.43245 0.0
H1111 H 0.13484 0.84497 0.42869 0.0
H1112 H 0.09281 0.85066 0.27497 0.0
H1113 H 0.14803 0.86172 0.27171 0.0
H1114 H 0.08169 0.87564 0.3734 0.0
H1115 H 0.08639 0.85463 0.39887 0.0
H1116 H 0.0752 0.85605 0.34174 0.0
H1117 H 0.14949 0.88932 0.37127 0.0
H1118 H 0.16284 0.87386 0.33835 0.0
H1119 H 0.15355 0.86811 0.39615 0.0
C1120 C 0.35051 0.86103 0.71999 0.0
C1121 C 0.36187 0.85701 0.75825 0.0
C1122 C 0.35686 0.86747 0.67579 0.0
C1123 C 0.37514 0.86953 0.66882 0.0
C1124 C 0.38672 0.86558 0.70749 0.0
C1125 C 0.37993 0.8596 0.75197 0.0
C1126 C 0.34395 0.87204 0.63643 0.0
C1127 C 0.40632 0.86726 0.70145 0.0
C1128 C 0.39157 0.87091 0.53801 0.0
C1129 C 0.39489 0.88884 0.53174 0.0
C1130 C 0.3854 0.86438 0.5826 0.0
C1131 C 0.38202 0.87612 0.62138 0.0
C1132 C 0.38486 0.8943 0.61446 0.0
C1133 C 0.39148 0.90037 0.57014 0.0
C1134 C 0.38289 0.84488 0.58857 0.0
C1135 C 0.38092 0.90738 0.65396 0.0
H1136 H 0.33652 0.85909 0.72467 0.0
H1137 H 0.38879 0.85627 0.78115 0.0
H1138 H 0.34589 0.88582 0.62481 0.0
H1139 H 0.34624 0.86359 0.60443 0.0
H1140 H 0.33012 0.87038 0.64822 0.0
H1141 H 0.41357 0.86348 0.73462 0.0
H1142 H 0.41078 0.85879 0.67122 0.0
H1143 H 0.4098 0.88095 0.69204 0.0
H1144 H 0.39443 0.86192 0.50871 0.0
H1145 H 0.39398 0.91426 0.56547 0.0
H1146 H 0.36903 0.84198 0.59774 0.0
H1147 H 0.39107 0.84007 0.61893 0.0
H1148 H 0.38644 0.83746 0.55544 0.0
H1149 H 0.36705 0.9061 0.66561 0.0
H1150 H 0.38323 0.92112 0.64228 0.0
H1151 H 0.38924 0.90468 0.6859 0.0
C1152 C 0.35143 0.14109 0.81356 0.0
C1153 C 0.36279 0.14479 0.77503 0.0
C1154 C 0.35775 0.1346 0.85772 0.0
C1155 C 0.37601 0.13216 0.86432 0.0
C1156 C 0.38757 0.13571 0.82528 0.0
C1157 C 0.3808 0.14177 0.78088 0.0
C1158 C 0.34485 0.13048 0.89751 0.0
C1159 C 0.40714 0.13359 0.83089 0.0
C1160 C 0.39265 0.13118 0.99486 0.0
C1161 C 0.39553 0.11322 1.00195 0.0
C1162 C 0.38657 0.13758 0.95005 0.0
C1163 C 0.38286 0.1257 0.91188 0.0
C1164 C 0.38528 0.1075 0.91958 0.0
C1165 C 0.39178 0.10154 0.96412 0.0
C1166 C 0.38449 0.1571 0.94321 0.0
C1167 C 0.38099 0.09428 0.88073 0.0
H1168 H 0.33749 0.14339 0.80921 0.0
H1169 H 0.38967 0.14487 0.75149 0.0
H1170 H 0.34658 0.11673 0.90972 0.0
H1171 H 0.34735 0.13908 0.92907 0.0
H1172 H 0.33103 0.1323 0.8859 0.0
H1173 H 0.41437 0.1369 0.79728 0.0
H1174 H 0.41189 0.1422 0.86042 0.0
H1175 H 0.41033 0.1199 0.84112 0.0
H1176 H 0.39575 0.14028 0.0237 0.0
H1177 H 0.39394 0.08762 0.96941 0.0
H1178 H 0.37066 0.16025 0.93434 0.0
H1179 H 0.39265 0.16152 0.91237 0.0
H1180 H 0.38833 0.16464 0.97586 0.0
H1181 H 0.36712 0.09576 0.86938 0.0
H1182 H 0.38309 0.08056 0.89292 0.0
H1183 H 0.38926 0.09666 0.84847 0.0
C1184 C 0.8821 0.85791 0.77157 0.0
C1185 C 0.8642 0.8545 0.76495 0.0
C1186 C 0.88847 0.86414 0.81623 0.0
C1187 C 0.8766 0.86746 0.85473 0.0
C1188 C 0.85846 0.86452 0.84751 0.0
C1189 C 0.85254 0.85789 0.80307 0.0
C1190 C 0.90793 0.86682 0.82259 0.0
C1191 C 0.84526 0.86836 0.88678 0.0
C1192 C 0.89291 0.86974 0.98536 0.0
C1193 C 0.89527 0.88782 0.99162 0.0
C1194 C 0.88704 0.86288 0.94086 0.0
C1195 C 0.88302 0.87442 0.90219 0.0
C1196 C 0.88483 0.89272 0.90913 0.0
C1197 C 0.89113 0.89915 0.95339 0.0
C1198 C 0.88556 0.84327 0.93481 0.0
C1199 C 0.88022 0.90556 0.86966 0.0
H1200 H 0.89118 0.85509 0.74246 0.0
H1201 H 0.83867 0.85535 0.79812 0.0
H1202 H 0.91068 0.88072 0.83173 0.0
H1203 H 0.91274 0.85872 0.85308 0.0
H1204 H 0.91546 0.86331 0.78963 0.0
H1205 H 0.83157 0.86587 0.87494 0.0
H1206 H 0.84801 0.86012 0.91885 0.0
H1207 H 0.84636 0.88226 0.89831 0.0
H1208 H 0.89633 0.86092 0.01454 0.0
H1209 H 0.89289 0.91316 0.95808 0.0
H1210 H 0.8941 0.83888 0.90468 0.0
H1211 H 0.87191 0.83965 0.92525 0.0
H1212 H 0.88935 0.83606 0.96803 0.0
H1213 H 0.88874 0.90333 0.83779 0.0
H1214 H 0.88173 0.91941 0.88142 0.0
H1215 H 0.86647 0.9035 0.85787 0.0
C1216 C 0.87759 0.14287 0.73512 0.0
C1217 C 0.85958 0.14577 0.74137 0.0
C1218 C 0.88433 0.13699 0.69043 0.0
C1219 C 0.87273 0.13349 0.65147 0.0
C1220 C 0.85448 0.13588 0.65833 0.0
C1221 C 0.84819 0.1422 0.7028 0.0
C1222 C 0.90389 0.13492 0.68454 0.0
C1223 C 0.84155 0.13181 0.61862 0.0
C1224 C 0.88971 0.13218 0.52115 0.0
C1225 C 0.89273 0.11421 0.51452 0.0
C1226 C 0.88338 0.1387 0.56563 0.0
C1227 C 0.87956 0.12691 0.60393 0.0
C1228 C 0.88203 0.10869 0.59655 0.0
C1229 C 0.88879 0.10263 0.55236 0.0
C1230 C 0.88124 0.15823 0.57212 0.0
C1231 C 0.87763 0.09557 0.63549 0.0
H1232 H 0.88648 0.14585 0.76454 0.0
H1233 H 0.83424 0.14437 0.70742 0.0
H1234 H 0.9071 0.12116 0.67503 0.0
H1235 H 0.90856 0.1433 0.65444 0.0
H1236 H 0.91118 0.13851 0.71782 0.0
H1237 H 0.82775 0.1338 0.63022 0.0
H1238 H 0.84415 0.14029 0.58691 0.0
H1239 H 0.84315 0.11801 0.60662 0.0
H1240 H 0.89298 0.14121 0.49231 0.0
H1241 H 0.89107 0.08871 0.5474 0.0
H1242 H 0.88959 0.16279 0.60244 0.0
H1243 H 0.86747 0.16138 0.58163 0.0
H1244 H 0.88486 0.16566 0.53911 0.0
H1245 H 0.88597 0.0979 0.66763 0.0
H1246 H 0.87957 0.08182 0.62334 0.0
H1247 H 0.86379 0.09721 0.64703 0.0
C1248 C 0.61987 0.14147 0.29038 0.0
C1249 C 0.6379 0.14398 0.28349 0.0
C1250 C 0.6133 0.13556 0.33511 0.0
C1251 C 0.62508 0.13169 0.37334 0.0
C1252 C 0.64333 0.13362 0.36572 0.0
C1253 C 0.64947 0.13994 0.32123 0.0
C1254 C 0.59373 0.13392 0.34193 0.0
C1255 C 0.65641 0.12916 0.40475 0.0
C1256 C 0.60908 0.13101 0.50427 0.0
C1257 C 0.60578 0.11312 0.51122 0.0
C1258 C 0.61516 0.1373 0.45941 0.0
C1259 C 0.61842 0.12534 0.42109 0.0
C1260 C 0.61564 0.1072 0.42868 0.0
C1261 C 0.60917 0.10137 0.47332 0.0
C1262 C 0.61771 0.15676 0.45263 0.0
C1263 C 0.61942 0.09393 0.38954 0.0
H1264 H 0.61087 0.14482 0.26154 0.0
H1265 H 0.66344 0.14183 0.316 0.0
H1266 H 0.59029 0.12027 0.35193 0.0
H1267 H 0.58942 0.14252 0.37203 0.0
H1268 H 0.58632 0.13755 0.3089 0.0
H1269 H 0.67018 0.13072 0.39241 0.0
H1270 H 0.6543 0.13775 0.43656 0.0
H1271 H 0.65448 0.11543 0.41687 0.0
H1272 H 0.60624 0.14016 0.53324 0.0
H1273 H 0.60669 0.0875 0.47858 0.0
H1274 H 0.60938 0.16145 0.42246 0.0
H1275 H 0.63152 0.15956 0.44277 0.0
H1276 H 0.61437 0.16435 0.48564 0.0
H1277 H 0.61098 0.0965 0.35775 0.0
H1278 H 0.61714 0.08025 0.40176 0.0
H1279 H 0.63324 0.09514 0.37743 0.0
C1280 C 0.64873 0.85845 0.21455 0.0
C1281 C 0.63713 0.8547 0.25254 0.0
C1282 C 0.64268 0.86495 0.17011 0.0
C1283 C 0.62448 0.8674 0.16268 0.0
C1284 C 0.61267 0.86379 0.20112 0.0
C1285 C 0.61916 0.85768 0.2458 0.0
C1286 C 0.65582 0.8691 0.13094 0.0
C1287 C 0.59315 0.86595 0.19461 0.0
C1288 C 0.60918 0.89841 0.0633 0.0
C1289 C 0.60536 0.88688 0.02519 0.0
C1290 C 0.61561 0.89228 0.10772 0.0
C1291 C 0.61792 0.87405 0.11501 0.0
C1292 C 0.61426 0.86231 0.07644 0.0
C1293 C 0.60822 0.86888 0.03179 0.0
C1294 C 0.61981 0.90535 0.14703 0.0
C1295 C 0.61629 0.84277 0.08279 0.0
H1296 H 0.66265 0.85621 0.21956 0.0
H1297 H 0.61011 0.85456 0.27475 0.0
H1298 H 0.65341 0.86066 0.09902 0.0
H1299 H 0.65429 0.88291 0.1191 0.0
H1300 H 0.66957 0.8671 0.14302 0.0
H1301 H 0.58569 0.86241 0.22765 0.0
H1302 H 0.59005 0.87972 0.18499 0.0
H1303 H 0.58858 0.85757 0.16436 0.0
H1304 H 0.60702 0.91236 0.05841 0.0
H1305 H 0.60505 0.85989 1.00275 0.0
H1306 H 0.6336 0.90369 0.159 0.0
H1307 H 0.61131 0.90297 0.17885 0.0
H1308 H 0.61794 0.91912 0.13504 0.0
H1309 H 0.63002 0.83956 0.09255 0.0
H1310 H 0.61275 0.83537 0.04964 0.0
H1311 H 0.60783 0.83822 0.11289 0.0
C1312 C 0.60932 0.62919 0.53141 0.0
C1313 C 0.60656 0.61115 0.5253 0.0
C1314 C 0.61529 0.636 0.57591 0.0
C1315 C 0.61902 0.62445 0.6148 0.0
C1316 C 0.61677 0.60617 0.60804 0.0
C1317 C 0.61036 0.59981 0.56379 0.0
C1318 C 0.61719 0.65558 0.58169 0.0
C1319 C 0.62109 0.5933 0.64766 0.0
C1320 C 0.64994 0.64062 0.71352 0.0
C1321 C 0.63842 0.64433 0.75171 0.0
C1322 C 0.64384 0.63395 0.66928 0.0
C1323 C 0.62563 0.63134 0.66222 0.0
C1324 C 0.61389 0.63499 0.70081 0.0
C1325 C 0.62045 0.64122 0.74533 0.0
C1326 C 0.65692 0.62974 0.62999 0.0
C1327 C 0.59437 0.63271 0.69468 0.0
H1328 H 0.60616 0.63804 0.50207 0.0
H1329 H 0.60829 0.58584 0.55927 0.0
H1330 H 0.60875 0.6602 0.61179 0.0
H1331 H 0.63092 0.65892 0.59118 0.0
H1332 H 0.61354 0.66281 0.54839 0.0
H1333 H 0.61925 0.57947 0.63608 0.0
H1334 H 0.63489 0.59506 0.65939 0.0
H1335 H 0.61264 0.59579 0.67953 0.0
H1336 H 0.66386 0.64295 0.71827 0.0
H1337 H 0.61146 0.64431 0.77445 0.0
H1338 H 0.65438 0.63803 0.59789 0.0
H1339 H 0.65546 0.61586 0.61854 0.0
H1340 H 0.67068 0.63188 0.64179 0.0
H1341 H 0.5897 0.64094 0.66426 0.0
H1342 H 0.58696 0.63637 0.72774 0.0
H1343 H 0.59131 0.61889 0.68551 0.0
C1344 C 0.64918 0.3566 0.81446 0.0
C1345 C 0.63839 0.35672 0.77338 0.0
C1346 C 0.64278 0.36146 0.86009 0.0
C1347 C 0.62503 0.36655 0.86531 0.0
C1348 C 0.61428 0.36766 0.82354 0.0
C1349 C 0.62109 0.36278 0.77801 0.0
C1350 C 0.6548 0.3601 0.90323 0.0
C1351 C 0.5953 0.37306 0.82733 0.0
C1352 C 0.60419 0.35498 0.98609 0.0
C1353 C 0.60433 0.37104 0.01098 0.0
C1354 C 0.6106 0.35351 0.93873 0.0
C1355 C 0.61736 0.36848 0.91496 0.0
C1356 C 0.61764 0.38478 0.93979 0.0
C1357 C 0.61119 0.38586 0.98757 0.0
C1358 C 0.61022 0.3358 0.91423 0.0
C1359 C 0.62472 0.40106 0.91582 0.0
H1360 H 0.66264 0.35214 0.81126 0.0
H1361 H 0.61264 0.36289 0.74657 0.0
H1362 H 0.65414 0.37222 0.92529 0.0
H1363 H 0.65052 0.34906 0.92648 0.0
H1364 H 0.66867 0.35782 0.89257 0.0
H1365 H 0.58931 0.37538 0.79135 0.0
H1366 H 0.58776 0.3626 0.84584 0.0
H1367 H 0.59402 0.38516 0.84933 0.0
H1368 H 0.59903 0.34339 1.00371 0.0
H1369 H 0.61126 0.39836 1.00623 0.0
H1370 H 0.62377 0.33162 0.90517 0.0
H1371 H 0.6028 0.33664 0.87989 0.0
H1372 H 0.60412 0.32552 0.93716 0.0
H1373 H 0.63873 0.39913 0.90635 0.0
H1374 H 0.62357 0.41282 0.93929 0.0
H1375 H 0.61756 0.40354 0.88167 0.0
C1376 C 0.87276 0.39509 0.03161 0.0
C1377 C 0.88612 0.38672 1.00526 0.0
C1378 C 0.8688 0.39016 0.07946 0.0
C1379 C 0.87834 0.37644 0.10188 0.0
C1380 C 0.89201 0.36812 0.07574 0.0
C1381 C 0.89573 0.37334 0.02798 0.0
C1382 C 0.85412 0.39942 0.1057 0.0
C1383 C 0.90244 0.35332 0.09776 0.0
C1384 C 0.87474 0.36938 0.23912 0.0
C1385 C 0.86194 0.35619 0.24179 0.0
C1386 C 0.88022 0.3762 0.19401 0.0
C1387 C 0.87283 0.36961 0.15052 0.0
C1388 C 0.85997 0.35628 0.15324 0.0
C1389 C 0.85469 0.34985 0.19844 0.0
C1390 C 0.89392 0.39046 0.19281 0.0
C1391 C 0.85175 0.3487 0.1082 0.0
H1392 H 0.8653 0.40552 0.01481 0.0
H1393 H 0.90605 0.36672 1.00822 0.0
H1394 H 0.84325 0.39008 0.11258 0.0
H1395 H 0.85875 0.40422 0.14129 0.0
H1396 H 0.84887 0.4107 0.08489 0.0
H1397 H 0.91349 0.3491 0.07431 0.0
H1398 H 0.90777 0.35735 0.13332 0.0
H1399 H 0.89373 0.3419 0.10404 0.0
H1400 H 0.88048 0.37438 0.27217 0.0
H1401 H 0.84484 0.33962 0.19955 0.0
H1402 H 0.88858 0.40222 0.17443 0.0
H1403 H 0.90545 0.386 0.17167 0.0
H1404 H 0.89835 0.39426 0.22954 0.0
H1405 H 0.84511 0.3592 0.08745 0.0
H1406 H 0.84201 0.33828 0.11639 0.0
H1407 H 0.86206 0.34305 0.08456 0.0
C1408 C 0.85312 0.64278 0.31034 0.0
C1409 C 0.86489 0.64587 0.2723 0.0
C1410 C 0.85883 0.63599 0.35477 0.0
C1411 C 0.87689 0.63258 0.36212 0.0
C1412 C 0.88887 0.63561 0.32371 0.0
C1413 C 0.88269 0.64201 0.27902 0.0
C1414 C 0.8455 0.63246 0.39389 0.0
C1415 C 0.90826 0.63246 0.3302 0.0
C1416 C 0.89291 0.63001 0.493 0.0
C1417 C 0.89488 0.61188 0.49929 0.0
C1418 C 0.88727 0.63697 0.44842 0.0
C1419 C 0.88308 0.62551 0.40966 0.0
C1420 C 0.88448 0.60716 0.41664 0.0
C1421 C 0.89058 0.60062 0.46098 0.0
C1422 C 0.88625 0.65661 0.44236 0.0
C1423 C 0.87965 0.59441 0.37711 0.0
H1424 H 0.83932 0.64567 0.3053 0.0
H1425 H 0.89187 0.64458 0.24997 0.0
H1426 H 0.84627 0.61854 0.40539 0.0
H1427 H 0.84838 0.64065 0.42601 0.0
H1428 H 0.83188 0.63525 0.38191 0.0
H1429 H 0.9159 0.63575 0.29727 0.0
H1430 H 0.91322 0.64049 0.36069 0.0
H1431 H 0.91067 0.61852 0.33941 0.0
H1432 H 0.89648 0.63878 0.52221 0.0
H1433 H 0.89207 0.58659 0.46567 0.0
H1434 H 0.87271 0.66054 0.43262 0.0
H1435 H 0.89495 0.66077 0.41235 0.0
H1436 H 0.89015 0.66375 0.47564 0.0
H1437 H 0.86598 0.5968 0.36507 0.0
H1438 H 0.8808 0.58053 0.38891 0.0
H1439 H 0.8883 0.5964 0.34538 0.0
C1440 C 0.39061 0.36973 0.50477 0.0
C1441 C 0.39296 0.38782 0.51127 0.0
C1442 C 0.38463 0.36293 0.46026 0.0
C1443 C 0.38051 0.37451 0.42174 0.0
C1444 C 0.38233 0.39281 0.42892 0.0
C1445 C 0.38872 0.39918 0.47318 0.0
C1446 C 0.38316 0.34333 0.45403 0.0
C1447 C 0.3776 0.40572 0.38971 0.0
C1448 C 0.37906 0.35837 0.29058 0.0
C1449 C 0.36113 0.35502 0.28431 0.0
C1450 C 0.38562 0.36443 0.33529 0.0
C1451 C 0.37391 0.36764 0.37425 0.0
C1452 C 0.35574 0.36474 0.3674 0.0
C1453 C 0.34964 0.35829 0.32292 0.0
C1454 C 0.40511 0.36706 0.34115 0.0
C1455 C 0.34268 0.36847 0.40712 0.0
H1456 H 0.39411 0.36087 0.53379 0.0
H1457 H 0.39047 0.41319 0.47798 0.0
H1458 H 0.36951 0.33972 0.44453 0.0
H1459 H 0.39168 0.339 0.42378 0.0
H1460 H 0.387 0.33608 0.48714 0.0
H1461 H 0.37915 0.41955 0.40159 0.0
H1462 H 0.38601 0.40352 0.35761 0.0
H1463 H 0.36381 0.40368 0.37823 0.0
H1464 H 0.38804 0.35564 0.26115 0.0
H1465 H 0.33575 0.35578 0.31831 0.0
H1466 H 0.41 0.35888 0.37139 0.0
H1467 H 0.40791 0.38092 0.35045 0.0
H1468 H 0.41251 0.3636 0.30794 0.0
H1469 H 0.34557 0.36016 0.43897 0.0
H1470 H 0.32895 0.36599 0.39564 0.0
H1471 H 0.34381 0.38234 0.41886 0.0
C1472 C 0.36885 0.63003 0.02446 0.0
C1473 C 0.38353 0.62052 1.00858 0.0
C1474 C 0.36658 0.63432 0.07363 0.0
C1475 C 0.37909 0.62866 0.10815 0.0
C1476 C 0.39352 0.61838 0.09251 0.0
C1477 C 0.39567 0.61463 0.04306 0.0
C1478 C 0.35122 0.64563 0.08826 0.0
C1479 C 0.40705 0.6118 0.12788 0.0
C1480 C 0.3872 0.65629 0.22056 0.0
C1481 C 0.37794 0.64723 0.25663 0.0
C1482 C 0.3873 0.65058 0.17238 0.0
C1483 C 0.37823 0.63509 0.15941 0.0
C1484 C 0.36878 0.62582 0.19552 0.0
C1485 C 0.36854 0.63213 0.2436 0.0
C1486 C 0.39722 0.66119 0.13526 0.0
C1487 C 0.3592 0.60908 0.1835 0.0
H1488 H 0.35942 0.63471 0.9982 0.0
H1489 H 0.40698 0.60713 0.03134 0.0
H1490 H 0.34402 0.63955 0.11874 0.0
H1491 H 0.35607 0.65856 0.10088 0.0
H1492 H 0.34192 0.6478 0.05801 0.0
H1493 H 0.41631 0.60234 0.11104 0.0
H1494 H 0.4147 0.62302 0.14223 0.0
H1495 H 0.40054 0.60535 0.15898 0.0
H1496 H 0.39429 0.66814 0.22985 0.0
H1497 H 0.36135 0.62505 0.27113 0.0
H1498 H 0.38838 0.6648 0.10507 0.0
H1499 H 0.40804 0.65323 0.11986 0.0
H1500 H 0.40288 0.67338 0.15069 0.0
H1501 H 0.34945 0.6115 0.15457 0.0
H1502 H 0.35232 0.60349 0.21532 0.0
H1503 H 0.36863 0.59921 0.16955 0.0
C1504 C 0.10016 0.60351 0.93459 0.0
C1505 C 0.10647 0.61062 0.97816 0.0
C1506 C 0.1069 0.60862 0.88957 0.0
C1507 C 0.12049 0.62121 0.88721 0.0
C1508 C 0.12699 0.62854 0.9309 0.0
C1509 C 0.11988 0.62321 0.97585 0.0
C1510 C 0.09942 0.60045 0.84432 0.0
C1511 C 0.14148 0.64199 0.93012 0.0
C1512 C 0.14689 0.62023 0.76963 0.0
C1513 C 0.13892 0.63357 0.74237 0.0
C1514 C 0.14152 0.61656 0.81731 0.0
C1515 C 0.12778 0.62641 0.83874 0.0
C1516 C 0.11989 0.64009 0.81174 0.0
C1517 C 0.12551 0.64348 0.7641 0.0
C1518 C 0.15029 0.6018 0.84439 0.0
C1519 C 0.10515 0.65089 0.83273 0.0
H1520 H 0.08975 0.59384 0.93539 0.0
H1521 H 0.12486 0.62883 1.00905 0.0
H1522 H 0.09415 0.61081 0.82029 0.0
H1523 H 0.10992 0.59353 0.82414 0.0
H1524 H 0.08876 0.59095 0.8522 0.0
H1525 H 0.14504 0.64656 0.96692 0.0
H1526 H 0.15332 0.63634 0.91271 0.0
H1527 H 0.13743 0.65348 0.90828 0.0
H1528 H 0.15733 0.61252 0.75362 0.0
H1529 H 0.1192 0.65381 0.74371 0.0
H1530 H 0.14068 0.59116 0.85111 0.0
H1531 H 0.15495 0.60649 0.88006 0.0
H1532 H 0.16161 0.59623 0.82426 0.0
H1533 H 0.09349 0.64245 0.83853 0.0
H1534 H 0.10135 0.66195 0.80884 0.0
H1535 H 0.10901 0.65626 0.86841 0.0
C1536 C 0.12235 0.35952 0.73338 0.0
C1537 C 0.14038 0.35681 0.73979 0.0
C1538 C 0.11568 0.36552 0.68882 0.0
C1539 C 0.12735 0.36931 0.65023 0.0
C1540 C 0.14561 0.36719 0.65739 0.0
C1541 C 0.15185 0.36077 0.70169 0.0
C1542 C 0.0961 0.36731 0.68258 0.0
C1543 C 0.15861 0.37157 0.61805 0.0
C1544 C 0.11106 0.3702 0.51944 0.0
C1545 C 0.10785 0.38812 0.51259 0.0
C1546 C 0.11718 0.36384 0.56421 0.0
C1547 C 0.12059 0.37573 0.60258 0.0
C1548 C 0.11789 0.3939 0.59507 0.0
C1549 C 0.11135 0.39981 0.55055 0.0
C1550 C 0.1196 0.34435 0.57083 0.0
C1551 C 0.12185 0.40713 0.63417 0.0
H1552 H 0.11341 0.35622 0.76244 0.0
H1553 H 0.16581 0.35871 0.70649 0.0
H1554 H 0.09273 0.38097 0.67253 0.0
H1555 H 0.09163 0.3587 0.6527 0.0
H1556 H 0.08878 0.36378 0.71586 0.0
H1557 H 0.17241 0.36994 0.63006 0.0
H1558 H 0.15637 0.36299 0.58631 0.0
H1559 H 0.15672 0.38531 0.60595 0.0
H1560 H 0.10813 0.36109 0.49048 0.0
H1561 H 0.10893 0.4137 0.54541 0.0
H1562 H 0.11129 0.3397 0.60113 0.0
H1563 H 0.13341 0.34143 0.58042 0.0
H1564 H 0.11614 0.33681 0.53784 0.0
H1565 H 0.11346 0.4046 0.66614 0.0
H1566 H 0.11963 0.42083 0.62204 0.0
H1567 H 0.13569 0.40581 0.64597 0.0
C1568 C 0.12846 0.12573 0.53026 0.0
C1569 C 0.14556 0.13106 0.5193 0.0
C1570 C 0.12415 0.1198 0.57688 0.0
C1571 C 0.13737 0.11886 0.6129 0.0
C1572 C 0.15495 0.12276 0.60045 0.0
C1573 C 0.15877 0.1291 0.55403 0.0
C1574 C 0.1052 0.11601 0.58864 0.0
C1575 C 0.16952 0.12147 0.63709 0.0
C1576 C 0.12096 0.12722 0.7405 0.0
C1577 C 0.11798 0.11015 0.75704 0.0
C1578 C 0.12804 0.13023 0.69443 0.0
C1579 C 0.13243 0.11578 0.66442 0.0
C1580 C 0.13069 0.09852 0.68265 0.0
C1581 C 0.12319 0.0959 0.72849 0.0
C1582 C 0.12947 0.14887 0.67648 0.0
C1583 C 0.13561 0.08277 0.65253 0.0
H1584 H 0.11817 0.12769 0.50379 0.0
H1585 H 0.17196 0.13347 0.54566 0.0
H1586 H 0.10396 0.10309 0.60666 0.0
H1587 H 0.1002 0.12608 0.61413 0.0
H1588 H 0.09676 0.11606 0.55596 0.0
H1589 H 0.18267 0.1221 0.61987 0.0
H1590 H 0.16842 0.13245 0.66319 0.0
H1591 H 0.16849 0.10906 0.65781 0.0
H1592 H 0.11637 0.13821 0.76197 0.0
H1593 H 0.1204 0.0827 0.7408 0.0
H1594 H 0.12022 0.15088 0.64607 0.0
H1595 H 0.14287 0.15145 0.66264 0.0
H1596 H 0.12643 0.15863 0.70512 0.0
H1597 H 0.12574 0.08089 0.62361 0.0
H1598 H 0.1362 0.07059 0.67446 0.0
H1599 H 0.14851 0.08481 0.63483 0.0
C1600 C 0.12304 0.90827 0.80689 0.0
C1601 C 0.12029 0.89475 0.77349 0.0
C1602 C 0.12944 0.90471 0.85339 0.0
C1603 C 0.13252 0.88712 0.86724 0.0
C1604 C 0.13083 0.87354 0.83243 0.0
C1605 C 0.12488 0.87757 0.7857 0.0
C1606 C 0.13158 0.91963 0.88871 0.0
C1607 C 0.13376 0.85457 0.84571 0.0
C1608 C 0.15475 0.87259 0.98329 0.0
C1609 C 0.14025 0.86827 0.01197 0.0
C1610 C 0.15253 0.88002 0.93727 0.0
C1611 C 0.13537 0.8826 0.91908 0.0
C1612 C 0.12072 0.87921 0.9493 0.0
C1613 C 0.12338 0.87213 0.99551 0.0
C1614 C 0.1685 0.8839 0.90694 0.0
C1615 C 0.10216 0.88161 0.93143 0.0
H1616 H 0.11917 0.92154 0.79757 0.0
H1617 H 0.12227 0.86707 0.76024 0.0
H1618 H 0.1205 0.91955 0.91468 0.0
H1619 H 0.14386 0.91812 0.90974 0.0
H1620 H 0.13177 0.93256 0.87026 0.0
H1621 H 0.13324 0.84577 0.81374 0.0
H1622 H 0.14664 0.85291 0.86367 0.0
H1623 H 0.12351 0.85035 0.8717 0.0
H1624 H 0.1678 0.86915 0.99566 0.0
H1625 H 0.11219 0.86822 0.0171 0.0
H1626 H 0.16707 0.89669 0.8883 0.0
H1627 H 0.16994 0.87365 0.87877 0.0
H1628 H 0.18067 0.88413 0.92893 0.0
H1629 H 0.1004 0.89496 0.91636 0.0
H1630 H 0.09231 0.87958 0.96047 0.0
H1631 H 0.09951 0.87211 0.90196 0.0
C1632 C 0.34306 0.87298 0.0596 0.0
C1633 C 0.35664 0.86908 0.02725 0.0
C1634 C 0.34662 0.87997 0.10552 0.0
C1635 C 0.36425 0.88246 0.12005 0.0
C1636 C 0.37798 0.87925 0.08651 0.0
C1637 C 0.37398 0.87274 0.04027 0.0
C1638 C 0.33157 0.88368 0.13943 0.0
C1639 C 0.39698 0.88144 0.1006 0.0
C1640 C 0.37836 0.90871 0.23011 0.0
C1641 C 0.38153 0.89541 0.26384 0.0
C1642 C 0.37155 0.90484 0.1842 0.0
C1643 C 0.36848 0.88715 0.17114 0.0
C1644 C 0.37086 0.87375 0.2061 0.0
C1645 C 0.3772 0.87808 0.25229 0.0
C1646 C 0.36872 0.91958 0.14875 0.0
C1647 C 0.36805 0.85467 0.19361 0.0
H1648 H 0.32967 0.86976 0.04977 0.0
H1649 H 0.38449 0.86918 0.01574 0.0
H1650 H 0.33132 0.87367 0.16842 0.0
H1651 H 0.33327 0.89666 0.15694 0.0
H1652 H 0.31872 0.88345 0.12055 0.0
H1653 H 0.40603 0.87914 0.06979 0.0
H1654 H 0.39929 0.89483 0.1149 0.0
H1655 H 0.40027 0.87205 0.1298 0.0
H1656 H 0.38207 0.92208 0.23882 0.0
H1657 H 0.38019 0.86775 0.27789 0.0
H1658 H 0.35587 0.91812 0.13039 0.0
H1659 H 0.37904 0.91913 0.12054 0.0
H1660 H 0.3692 0.93264 0.16653 0.0
H1661 H 0.35485 0.85273 0.17771 0.0
H1662 H 0.36938 0.84599 0.22557 0.0
H1663 H 0.37781 0.85056 0.16611 0.0
C1664 C 0.37814 0.09557 0.30299 0.0
C1665 C 0.38219 0.10889 0.27005 0.0
C1666 C 0.37087 0.09947 0.34837 0.0
C1667 C 0.36827 0.11721 0.36183 0.0
C1668 C 0.37155 0.13067 0.3276 0.0
C1669 C 0.3783 0.12631 0.28183 0.0
C1670 C 0.36698 0.08468 0.38289 0.0
C1671 C 0.36927 0.14977 0.34054 0.0
C1672 C 0.34213 0.13184 0.47184 0.0
C1673 C 0.35547 0.13483 0.50564 0.0
C1674 C 0.34594 0.12501 0.42587 0.0
C1675 C 0.36361 0.12181 0.41274 0.0
C1676 C 0.37705 0.12416 0.44762 0.0
C1677 C 0.37277 0.13045 0.49392 0.0
C1678 C 0.33116 0.12213 0.39056 0.0
C1679 C 0.3961 0.12126 0.43502 0.0
H1680 H 0.38144 0.08211 0.29405 0.0
H1681 H 0.38191 0.13664 0.25681 0.0
H1682 H 0.37696 0.08452 0.41199 0.0
H1683 H 0.35399 0.0866 0.40019 0.0
H1684 H 0.36713 0.07171 0.36457 0.0
H1685 H 0.37133 0.15854 0.30904 0.0
H1686 H 0.35595 0.15213 0.35525 0.0
H1687 H 0.37881 0.15338 0.3691 0.0
H1688 H 0.32879 0.13558 0.4807 0.0
H1689 H 0.38312 0.13329 0.51959 0.0
H1690 H 0.33254 0.10921 0.37252 0.0
H1691 H 0.33164 0.13233 0.36208 0.0
H1692 H 0.31812 0.12277 0.40839 0.0
H1693 H 0.39806 0.10783 0.42062 0.0
H1694 H 0.40489 0.12313 0.46659 0.0
H1695 H 0.40008 0.13059 0.4063 0.0
C1696 C 0.88137 0.90677 0.29443 0.0
C1697 C 0.8847 0.8934 0.26094 0.0
C1698 C 0.87448 0.90297 0.34029 0.0
C1699 C 0.87155 0.88529 0.35357 0.0
C1700 C 0.87415 0.8718 0.31888 0.0
C1701 C 0.88051 0.87607 0.27268 0.0
C1702 C 0.8713 0.91779 0.37536 0.0
C1703 C 0.87147 0.85275 0.33164 0.0
C1704 C 0.87653 0.87124 0.48475 0.0
C1705 C 0.8592 0.86716 0.49689 0.0
C1706 C 0.88069 0.8778 0.43869 0.0
C1707 C 0.86711 0.8807 0.40456 0.0
C1708 C 0.84944 0.87791 0.41833 0.0
C1709 C 0.84574 0.87083 0.46401 0.0
C1710 C 0.89972 0.88032 0.42538 0.0
C1711 C 0.83453 0.88141 0.38389 0.0
H1712 H 0.88489 0.92016 0.28546 0.0
H1713 H 0.88356 0.86571 0.24715 0.0
H1714 H 0.85841 0.9162 0.39346 0.0
H1715 H 0.88153 0.91761 0.4038 0.0
H1716 H 0.87165 0.93079 0.3573 0.0
H1717 H 0.87322 0.84396 0.29998 0.0
H1718 H 0.88101 0.84887 0.35993 0.0
H1719 H 0.85815 0.85069 0.34664 0.0
H1720 H 0.88696 0.86794 0.50976 0.0
H1721 H 0.83235 0.86739 0.47326 0.0
H1722 H 0.90186 0.89366 0.41068 0.0
H1723 H 0.90339 0.87082 0.3967 0.0
H1724 H 0.90861 0.87838 0.4567 0.0
H1725 H 0.83621 0.89435 0.36615 0.0
H1726 H 0.8216 0.88117 0.40241 0.0
H1727 H 0.83446 0.87129 0.35512 0.0
C1728 C 0.87792 0.1248 0.23375 0.0
C1729 C 0.88228 0.10751 0.24558 0.0
C1730 C 0.87134 0.12897 0.18771 0.0
C1731 C 0.86866 0.11543 0.15324 0.0
C1732 C 0.87183 0.09779 0.16658 0.0
C1733 C 0.87896 0.09409 0.21224 0.0
C1734 C 0.86848 0.14799 0.17486 0.0
C1735 C 0.86862 0.0829 0.13176 0.0
C1736 C 0.84204 0.12966 0.04397 0.0
C1737 C 0.85526 0.13341 0.01038 0.0
C1738 C 0.84609 0.12261 0.08949 0.0
C1739 C 0.86385 0.11994 0.1024 0.0
C1740 C 0.87719 0.12296 0.06758 0.0
C1741 C 0.8727 0.12949 0.02173 0.0
C1742 C 0.83141 0.11903 0.12469 0.0
C1743 C 0.89633 0.12061 0.07993 0.0
H1744 H 0.881 0.13522 0.25905 0.0
H1745 H 0.88265 0.08074 0.22119 0.0
H1746 H 0.87773 0.15183 0.14579 0.0
H1747 H 0.85501 0.14997 0.16085 0.0
H1748 H 0.8705 0.15686 0.20622 0.0
H1749 H 0.86925 0.06992 0.14986 0.0
H1750 H 0.8556 0.08433 0.11433 0.0
H1751 H 0.87866 0.08319 0.10278 0.0
H1752 H 0.82858 0.13305 0.03543 0.0
H1753 H 0.88294 0.13289 0.99622 0.0
H1754 H 0.83148 0.12913 0.1535 0.0
H1755 H 0.83328 0.10609 0.14228 0.0
H1756 H 0.81836 0.11923 0.10686 0.0
H1757 H 0.90009 0.13016 0.10835 0.0
H1758 H 0.905 0.12259 0.04816 0.0
H1759 H 0.89868 0.1073 0.09463 0.0
C1760 C 0.62171 0.12524 0.79132 0.0
C1761 C 0.6176 0.10792 0.77919 0.0
C1762 C 0.62829 0.12939 0.83733 0.0
C1763 C 0.63123 0.11579 0.87137 0.0
C1764 C 0.62845 0.09813 0.85757 0.0
C1765 C 0.6213 0.09444 0.81196 0.0
C1766 C 0.63077 0.14842 0.85071 0.0
C1767 C 0.63202 0.0832 0.89191 0.0
C1768 C 0.65703 0.13044 0.98151 0.0
C1769 C 0.64357 0.13375 0.01472 0.0
C1770 C 0.65336 0.12336 0.93579 0.0
C1771 C 0.63572 0.12024 0.92237 0.0
C1772 C 0.62216 0.1228 0.95684 0.0
C1773 C 0.6263 0.12934 1.00293 0.0
C1774 C 0.66826 0.1202 0.90098 0.0
C1775 C 0.60314 0.11995 0.9439 0.0
H1776 H 0.61838 0.13567 0.76635 0.0
H1777 H 0.61785 0.08106 0.80267 0.0
H1778 H 0.62129 0.15205 0.87946 0.0
H1779 H 0.64412 0.1506 0.86535 0.0
H1780 H 0.62878 0.15732 0.81946 0.0
H1781 H 0.63191 0.0703 0.87325 0.0
H1782 H 0.64491 0.08497 0.90985 0.0
H1783 H 0.62185 0.08301 0.92053 0.0
H1784 H 0.67037 0.13412 0.99057 0.0
H1785 H 0.61588 0.13235 0.02827 0.0
H1786 H 0.66814 0.13043 0.87257 0.0
H1787 H 0.66673 0.10731 0.88281 0.0
H1788 H 0.68122 0.12057 0.91928 0.0
H1789 H 0.59923 0.12943 0.91548 0.0
H1790 H 0.5943 0.12167 0.97544 0.0
H1791 H 0.60121 0.1066 0.92899 0.0
C1792 C 0.61867 0.90555 0.72172 0.0
C1793 C 0.61522 0.89244 0.75581 0.0
C1794 C 0.62582 0.90143 0.67634 0.0
C1795 C 0.62886 0.88365 0.66401 0.0
C1796 C 0.62605 0.87042 0.69922 0.0
C1797 C 0.61948 0.87502 0.745 0.0
C1798 C 0.62924 0.91601 0.64077 0.0
C1799 C 0.62877 0.85128 0.68747 0.0
C1800 C 0.62506 0.8691 0.53273 0.0
C1801 C 0.64249 0.865 0.52175 0.0
C1802 C 0.62048 0.87572 0.57848 0.0
C1803 C 0.63375 0.87872 0.61349 0.0
C1804 C 0.65153 0.87583 0.60096 0.0
C1805 C 0.65564 0.86863 0.55561 0.0
C1806 C 0.60133 0.87827 0.59045 0.0
C1807 C 0.66614 0.87946 0.63629 0.0
H1808 H 0.6151 0.919 0.72993 0.0
H1809 H 0.61635 0.86484 0.77093 0.0
H1810 H 0.6423 0.91433 0.62364 0.0
H1811 H 0.61928 0.91558 0.61164 0.0
H1812 H 0.62868 0.92913 0.65815 0.0
H1813 H 0.62673 0.8427 0.71938 0.0
H1814 H 0.61946 0.84725 0.65874 0.0
H1815 H 0.64221 0.84908 0.67341 0.0
H1816 H 0.61486 0.86582 0.50698 0.0
H1817 H 0.66911 0.86518 0.54727 0.0
H1818 H 0.59902 0.89171 0.60439 0.0
H1819 H 0.59745 0.86897 0.61935 0.0
H1820 H 0.59271 0.87609 0.55868 0.0
H1821 H 0.66437 0.89253 0.65328 0.0
H1822 H 0.67924 0.879 0.61875 0.0
H1823 H 0.66587 0.86955 0.66555 0.0
C1824 C 0.62745 0.62783 0.03119 0.0
C1825 C 0.64477 0.63236 0.02013 0.0
C1826 C 0.62302 0.62145 0.07727 0.0
C1827 C 0.63633 0.6192 0.11257 0.0
C1828 C 0.65403 0.62249 0.10002 0.0
C1829 C 0.65798 0.62935 0.05424 0.0
C1830 C 0.60394 0.61842 0.08925 0.0
C1831 C 0.66867 0.61979 0.13586 0.0
C1832 C 0.62147 0.62435 0.24315 0.0
C1833 C 0.61801 0.60695 0.25593 0.0
C1834 C 0.62804 0.62849 0.19708 0.0
C1835 C 0.63152 0.61485 0.16349 0.0
C1836 C 0.62919 0.59717 0.17776 0.0
C1837 C 0.62214 0.59346 0.22351 0.0
C1838 C 0.63004 0.64754 0.18325 0.0
C1839 C 0.63319 0.58221 0.14377 0.0
H1840 H 0.61718 0.63067 1.00527 0.0
H1841 H 0.67134 0.63317 0.04586 0.0
H1842 H 0.60207 0.6051 0.10441 0.0
H1843 H 0.59969 0.62796 0.1172 0.0
H1844 H 0.59532 0.61991 0.0572 0.0
H1845 H 0.68179 0.62049 0.11848 0.0
H1846 H 0.66798 0.63005 0.16422 0.0
H1847 H 0.66732 0.60689 0.15398 0.0
H1848 H 0.61773 0.63478 0.26773 0.0
H1849 H 0.61906 0.58002 0.23315 0.0
H1850 H 0.6207 0.65074 0.15382 0.0
H1851 H 0.64344 0.65004 0.16935 0.0
H1852 H 0.62751 0.65652 0.21409 0.0
H1853 H 0.62327 0.58189 0.11452 0.0
H1854 H 0.63305 0.56933 0.16249 0.0
H1855 H 0.6462 0.58408 0.1266 0.0
C1856 C 0.65868 0.37315 0.47066 0.0
C1857 C 0.64521 0.37085 0.50453 0.0
C1858 C 0.65513 0.37953 0.42414 0.0
C1859 C 0.63759 0.38313 0.41074 0.0
C1860 C 0.6241 0.38192 0.44598 0.0
C1861 C 0.62813 0.37594 0.49272 0.0
C1862 C 0.66997 0.38112 0.38835 0.0
C1863 C 0.60518 0.38542 0.43319 0.0
C1864 C 0.62373 0.40572 0.29443 0.0
C1865 C 0.61892 0.39135 0.26583 0.0
C1866 C 0.63103 0.40329 0.34055 0.0
C1867 C 0.63299 0.38607 0.35895 0.0
C1868 C 0.62906 0.37151 0.32888 0.0
C1869 C 0.62216 0.37436 0.28253 0.0
C1870 C 0.63546 0.41915 0.37075 0.0
C1871 C 0.63076 0.35292 0.34701 0.0
H1872 H 0.67187 0.36895 0.47969 0.0
H1873 H 0.61766 0.37371 0.51852 0.0
H1874 H 0.66934 0.37008 0.36231 0.0
H1875 H 0.66883 0.39347 0.36746 0.0
H1876 H 0.68298 0.38079 0.40636 0.0
H1877 H 0.5965 0.38527 0.46542 0.0
H1878 H 0.60388 0.39831 0.41504 0.0
H1879 H 0.60053 0.37526 0.40751 0.0
H1880 H 0.62072 0.41886 0.28196 0.0
H1881 H 0.61789 0.36327 0.26099 0.0
H1882 H 0.64823 0.41733 0.38926 0.0
H1883 H 0.62531 0.42094 0.39902 0.0
H1884 H 0.63605 0.4313 0.3487 0.0
H1885 H 0.64411 0.35062 0.36151 0.0
H1886 H 0.62812 0.34309 0.31828 0.0
H1887 H 0.62134 0.35075 0.37697 0.0
C1888 C 0.88189 0.40475 0.7228 0.0
C1889 C 0.88636 0.39025 0.75126 0.0
C1890 C 0.87442 0.40253 0.67673 0.0
C1891 C 0.87189 0.38539 0.6582 0.0
C1892 C 0.87568 0.37072 0.68797 0.0
C1893 C 0.88282 0.37336 0.7342 0.0
C1894 C 0.8702 0.41852 0.64687 0.0
C1895 C 0.87336 0.35219 0.66977 0.0
C1896 C 0.84429 0.37342 0.54879 0.0
C1897 C 0.85717 0.37087 0.51335 0.0
C1898 C 0.84869 0.37954 0.5951 0.0
C1899 C 0.86651 0.38259 0.60679 0.0
C1900 C 0.87944 0.38103 0.57008 0.0
C1901 C 0.87457 0.37535 0.5236 0.0
C1902 C 0.83441 0.38146 0.63248 0.0
C1903 C 0.89863 0.38388 0.58093 0.0
H1904 H 0.88512 0.41781 0.73553 0.0
H1905 H 0.88681 0.36216 0.75567 0.0
H1906 H 0.87991 0.41978 0.61726 0.0
H1907 H 0.85706 0.41721 0.63005 0.0
H1908 H 0.8705 0.43074 0.66874 0.0
H1909 H 0.87601 0.34228 0.6982 0.0
H1910 H 0.85982 0.35025 0.65621 0.0
H1911 H 0.88243 0.34982 0.63911 0.0
H1912 H 0.83087 0.36961 0.54111 0.0
H1913 H 0.8846 0.37287 0.49667 0.0
H1914 H 0.83613 0.39379 0.65325 0.0
H1915 H 0.83518 0.37042 0.65843 0.0
H1916 H 0.82115 0.38144 0.61592 0.0
H1917 H 0.90061 0.39666 0.59924 0.0
H1918 H 0.90684 0.38352 0.54779 0.0
H1919 H 0.9033 0.37349 0.60585 0.0
C1920 C 0.88288 0.59258 0.8029 0.0
C1921 C 0.8853 0.60604 0.76917 0.0
C1922 C 0.87591 0.59607 0.84886 0.0
C1923 C 0.87193 0.61358 0.86196 0.0
C1924 C 0.87356 0.6271 0.82703 0.0
C1925 C 0.88006 0.62311 0.78075 0.0
C1926 C 0.87381 0.58119 0.88424 0.0
C1927 C 0.86974 0.64598 0.8396 0.0
C1928 C 0.8459 0.62676 0.97334 0.0
C1929 C 0.85931 0.63136 1.00548 0.0
C1930 C 0.84977 0.61976 0.92761 0.0
C1931 C 0.86749 0.61803 0.91306 0.0
C1932 C 0.88107 0.6219 0.94646 0.0
C1933 C 0.87678 0.62834 0.99257 0.0
C1934 C 0.8349 0.61525 0.8939 0.0
C1935 C 0.90015 0.62055 0.9323 0.0
H1936 H 0.8872 0.57941 0.79402 0.0
H1937 H 0.88238 0.63357 0.75501 0.0
H1938 H 0.88411 0.58209 0.91236 0.0
H1939 H 0.86092 0.58203 0.90272 0.0
H1940 H 0.8749 0.56818 0.86636 0.0
H1941 H 0.87075 0.65477 0.80774 0.0
H1942 H 0.85639 0.64724 0.85511 0.0
H1943 H 0.87915 0.65054 0.86743 0.0
H1944 H 0.83239 0.62945 0.98312 0.0
H1945 H 0.88713 0.63242 0.01695 0.0
H1946 H 0.8373 0.60243 0.87612 0.0
H1947 H 0.834 0.62531 0.86511 0.0
H1948 H 0.8221 0.61471 0.91303 0.0
H1949 H 0.90307 0.60728 0.91803 0.0
H1950 H 0.90909 0.62328 0.96306 0.0
H1951 H 0.903 0.63008 0.90306 0.0
C1952 C 0.37345 0.37203 1.00434 0.0
C1953 C 0.35603 0.36793 0.01553 0.0
C1954 C 0.37795 0.37862 0.95852 0.0
C1955 C 0.36463 0.38151 0.9236 0.0
C1956 C 0.34688 0.37862 0.93633 0.0
C1957 C 0.34284 0.37154 0.98181 0.0
C1958 C 0.39707 0.38122 0.94636 0.0
C1959 C 0.33222 0.38206 0.901 0.0
C1960 C 0.37913 0.40803 0.8143 0.0
C1961 C 0.38264 0.39481 0.78047 0.0
C1962 C 0.37222 0.40402 0.86002 0.0
C1963 C 0.36943 0.38627 0.87291 0.0
C1964 C 0.37233 0.37292 0.83801 0.0
C1965 C 0.3787 0.37739 0.79193 0.0
C1966 C 0.36878 0.41871 0.89533 0.0
C1967 C 0.36986 0.3538 0.85037 0.0
H1968 H 0.38369 0.36874 0.02994 0.0
H1969 H 0.32939 0.36805 0.99026 0.0
H1970 H 0.401 0.37177 0.91782 0.0
H1971 H 0.39927 0.39459 0.93188 0.0
H1972 H 0.40572 0.37928 0.97817 0.0
H1973 H 0.31913 0.38156 0.91861 0.0
H1974 H 0.33389 0.39509 0.88379 0.0
H1975 H 0.33256 0.37206 0.87191 0.0
H1976 H 0.38245 0.42149 0.8056 0.0
H1977 H 0.38189 0.36713 0.76624 0.0
H1978 H 0.37876 0.41839 0.92441 0.0
H1979 H 0.35575 0.41705 0.91258 0.0
H1980 H 0.36927 0.43178 0.87772 0.0
H1981 H 0.37915 0.35004 0.87939 0.0
H1982 H 0.37209 0.34508 0.81879 0.0
H1983 H 0.35641 0.35151 0.86427 0.0
C1984 C 0.38342 0.59607 0.72508 0.0
C1985 C 0.38551 0.61012 0.75719 0.0
C1986 C 0.37668 0.59872 0.67843 0.0
C1987 C 0.37255 0.61594 0.66307 0.0
C1988 C 0.37367 0.63001 0.69658 0.0
C1989 C 0.38004 0.62688 0.74342 0.0
C1990 C 0.37522 0.58328 0.64458 0.0
C1991 C 0.36961 0.64862 0.68177 0.0
C1992 C 0.37998 0.63022 0.53328 0.0
C1993 C 0.36281 0.63311 0.51755 0.0
C1994 C 0.38333 0.62361 0.5797 0.0
C1995 C 0.3691 0.6197 0.61096 0.0
C1996 C 0.3517 0.62124 0.59352 0.0
C1997 C 0.34876 0.62823 0.54724 0.0
C1998 C 0.4021 0.62232 0.59664 0.0
C1999 C 0.33617 0.61676 0.62492 0.0
H2000 H 0.38803 0.58316 0.73553 0.0
H2001 H 0.38214 0.6378 0.76788 0.0
H2002 H 0.36271 0.5838 0.62417 0.0
H2003 H 0.38608 0.58371 0.61795 0.0
H2004 H 0.37595 0.57059 0.66416 0.0
H2005 H 0.36983 0.65781 0.71291 0.0
H2006 H 0.37944 0.65307 0.65487 0.0
H2007 H 0.35654 0.64934 0.66437 0.0
H2008 H 0.3908 0.63454 0.51088 0.0
H2009 H 0.33547 0.63091 0.53545 0.0
H2010 H 0.40464 0.60929 0.6129 0.0
H2011 H 0.40451 0.63233 0.62498 0.0
H2012 H 0.41162 0.62444 0.56681 0.0
H2013 H 0.33841 0.60422 0.64423 0.0
H2014 H 0.32388 0.6157 0.60359 0.0
H2015 H 0.33435 0.62715 0.65255 0.0
C2016 C 0.12649 0.62916 0.47096 0.0
C2017 C 0.14363 0.63187 0.48733 0.0
C2018 C 0.12326 0.62243 0.42454 0.0
C2019 C 0.13756 0.61812 0.39387 0.0
C2020 C 0.15491 0.61976 0.41166 0.0
C2021 C 0.15774 0.62691 0.45791 0.0
C2022 C 0.10454 0.6211 0.40715 0.0
C2023 C 0.17051 0.61495 0.38088 0.0
C2024 C 0.12369 0.59138 0.28446 0.0
C2025 C 0.12151 0.60443 0.24938 0.0
C2026 C 0.13027 0.59539 0.33056 0.0
C2027 C 0.1342 0.61302 0.34245 0.0
C2028 C 0.13303 0.62608 0.30606 0.0
C2029 C 0.12684 0.62159 0.25975 0.0
C2030 C 0.13177 0.58095 0.36753 0.0
C2031 C 0.13687 0.64508 0.31712 0.0
H2032 H 0.11561 0.63358 0.49312 0.0
H2033 H 0.17101 0.62951 0.47007 0.0
H2034 H 0.10249 0.63028 0.3766 0.0
H2035 H 0.10182 0.60768 0.39365 0.0
H2036 H 0.09492 0.62428 0.436 0.0
H2037 H 0.18285 0.61456 0.40217 0.0
H2038 H 0.16849 0.60197 0.36359 0.0
H2039 H 0.17208 0.62474 0.35161 0.0
H2040 H 0.11929 0.57814 0.27666 0.0
H2041 H 0.12471 0.63178 0.2331 0.0
H2042 H 0.12097 0.58218 0.39417 0.0
H2043 H 0.14432 0.58202 0.38757 0.0
H2044 H 0.13099 0.56774 0.35073 0.0
H2045 H 0.12683 0.65021 0.34249 0.0
H2046 H 0.1368 0.65336 0.28413 0.0
H2047 H 0.14981 0.64639 0.33501 0.0
C2048 C 0.12364 0.37535 0.23243 0.0
C2049 C 0.11947 0.39271 0.24401 0.0
C2050 C 0.13032 0.37101 0.18659 0.0
C2051 C 0.13327 0.38446 0.1521 0.0
C2052 C 0.13033 0.40217 0.16525 0.0
C2053 C 0.12311 0.40604 0.21072 0.0
C2054 C 0.13292 0.35193 0.17389 0.0
C2055 C 0.13382 0.41695 0.13037 0.0
C2056 C 0.15963 0.36982 0.04259 0.0
C2057 C 0.14633 0.36638 1.00903 0.0
C2058 C 0.15571 0.37686 0.08825 0.0
C2059 C 0.13799 0.3798 0.1013 0.0
C2060 C 0.12457 0.37699 0.0666 0.0
C2061 C 0.12896 0.37051 0.02059 0.0
C2062 C 0.17045 0.38021 0.12338 0.0
C2063 C 0.10547 0.37957 0.07916 0.0
H2064 H 0.12032 0.36501 0.25772 0.0
H2065 H 0.11956 0.41945 0.2195 0.0
H2066 H 0.12358 0.34814 0.145 0.0
H2067 H 0.14634 0.34974 0.1597 0.0
H2068 H 0.13083 0.34316 0.20537 0.0
H2069 H 0.13339 0.42996 0.1484 0.0
H2070 H 0.14683 0.41528 0.11298 0.0
H2071 H 0.1238 0.41679 0.10136 0.0
H2072 H 0.17304 0.36628 0.03383 0.0
H2073 H 0.11865 0.36732 0.99508 0.0
H2074 H 0.17018 0.37015 0.15225 0.0
H2075 H 0.16883 0.3932 0.14091 0.0
H2076 H 0.18349 0.37973 0.10552 0.0
H2077 H 0.10167 0.37026 0.10808 0.0
H2078 H 0.09672 0.37744 0.04764 0.0
H2079 H 0.10327 0.39301 0.09326 0.0
C2080 C 0.27157 0.15666 0.60579 0.0
C2081 C 0.28821 0.16038 0.58688 0.0
C2082 C 0.25662 0.15674 0.5762 0.0
C2083 C 0.25838 0.1605 0.52638 0.0
C2084 C 0.2751 0.16461 0.50725 0.0
C2085 C 0.2898 0.16452 0.53771 0.0
C2086 C 0.23901 0.15237 0.59802 0.0
C2087 C 0.27756 0.16852 0.45426 0.0
C2088 C 0.22376 0.14174 0.44249 0.0
C2089 C 0.21295 0.15633 0.43411 0.0
C2090 C 0.23867 0.14299 0.47195 0.0
C2091 C 0.24289 0.15923 0.49385 0.0
C2092 C 0.23222 0.17408 0.48512 0.0
C2093 C 0.21741 0.17246 0.45529 0.0
C2094 C 0.24973 0.12684 0.4803 0.0
C2095 C 0.23633 0.19162 0.50773 0.0
H2096 H 0.2703 0.15356 0.64378 0.0
H2097 H 0.30264 0.16704 0.52256 0.0
H2098 H 0.22943 0.16292 0.58991 0.0
H2099 H 0.23388 0.1401 0.58179 0.0
H2100 H 0.23972 0.15064 0.63778 0.0
H2101 H 0.29123 0.17246 0.44561 0.0
H2102 H 0.27423 0.15673 0.43262 0.0
H2103 H 0.26856 0.17917 0.44285 0.0
H2104 H 0.22035 0.12915 0.42712 0.0
H2105 H 0.20927 0.18384 0.44857 0.0
H2106 H 0.24965 0.12342 0.5192 0.0
H2107 H 0.26355 0.12947 0.47 0.0
H2108 H 0.24498 0.11535 0.45942 0.0
H2109 H 0.23612 0.19045 0.54764 0.0
H2110 H 0.22686 0.20195 0.49683 0.0
H2111 H 0.24972 0.19586 0.4973 0.0
C2112 C 0.07946 0.96588 0.72659 0.0
C2113 C 0.09463 0.96296 0.69889 0.0
C2114 C 0.078 0.98053 0.75713 0.0
C2115 C 0.09189 0.9928 0.75947 0.0
C2116 C 0.10717 0.99006 0.73146 0.0
C2117 C 0.10841 0.97516 0.70185 0.0
C2118 C 0.06153 0.98294 0.7867 0.0
C2119 C 0.1222 0.00296 0.73248 0.0
C2120 C 0.08195 0.0396 0.79748 0.0
C2121 C 0.0887 0.0402 0.84465 0.0
C2122 C 0.08277 0.02425 0.76967 0.0
C2123 C 0.09021 0.0089 0.78966 0.0
C2124 C 0.09652 0.00916 0.83773 0.0
C2125 C 0.09578 0.02483 0.86456 0.0
C2126 C 0.076 0.02458 0.71845 0.0
C2127 C 0.10434 0.99298 0.86051 0.0
H2128 H 0.06861 0.95678 0.72425 0.0
H2129 H 0.12032 0.97306 0.68149 0.0
H2130 H 0.06492 0.98435 0.82545 0.0
H2131 H 0.05473 0.99515 0.77562 0.0
H2132 H 0.05229 0.97177 0.78263 0.0
H2133 H 0.13321 0.99891 0.70867 0.0
H2134 H 0.11755 0.01608 0.72083 0.0
H2135 H 0.12723 0.00436 0.76984 0.0
H2136 H 0.07599 0.05115 0.78193 0.0
H2137 H 0.10112 0.02509 0.90073 0.0
H2138 H 0.06574 0.01442 0.71355 0.0
H2139 H 0.08681 0.02145 0.69302 0.0
H2140 H 0.0704 0.03752 0.70846 0.0
H2141 H 0.09504 0.98184 0.85769 0.0
H2142 H 0.10767 0.99502 0.89913 0.0
H2143 H 0.11644 0.98915 0.84087 0.0
C2144 C 0.21077 0.83615 0.05092 0.0
C2145 C 0.21032 0.84281 0.09824 0.0
C2146 C 0.22603 0.83697 0.0228 0.0
C2147 C 0.24146 0.84429 0.04263 0.0
C2148 C 0.24133 0.85064 0.0907 0.0
C2149 C 0.22574 0.84992 0.11784 0.0
C2150 C 0.22556 0.83016 0.97158 0.0
C2151 C 0.25762 0.85833 0.11326 0.0
C2152 C 0.28409 0.83207 0.97986 0.0
C2153 C 0.28738 0.84698 0.9515 0.0
C2154 C 0.26948 0.83121 0.01063 0.0
C2155 C 0.25761 0.84546 0.01255 0.0
C2156 C 0.26073 0.8605 0.98393 0.0
C2157 C 0.2756 0.86113 0.95406 0.0
C2158 C 0.26666 0.81497 0.04081 0.0
C2159 C 0.24823 0.87587 0.98447 0.0
H2160 H 0.1992 0.83017 0.03553 0.0
H2161 H 0.22559 0.85519 0.15411 0.0
H2162 H 0.22912 0.84081 0.94613 0.0
H2163 H 0.23536 0.81954 0.96694 0.0
H2164 H 0.21245 0.825 0.9614 0.0
H2165 H 0.25556 0.86205 0.15163 0.0
H2166 H 0.26855 0.84876 0.11124 0.0
H2167 H 0.26175 0.87016 0.09293 0.0
H2168 H 0.29286 0.82094 0.97779 0.0
H2169 H 0.27801 0.87284 0.93313 0.0
H2170 H 0.25434 0.80838 0.02977 0.0
H2171 H 0.26525 0.81861 0.0794 0.0
H2172 H 0.27763 0.80546 0.03727 0.0
H2173 H 0.23502 0.87154 0.97268 0.0
H2174 H 0.25262 0.88669 0.96051 0.0
H2175 H 0.24689 0.88106 0.02171 0.0
C2176 C 0.40364 0.97989 0.36231 0.0
C2177 C 0.40719 0.96332 0.34262 0.0
C2178 C 0.40379 0.995 0.33334 0.0
C2179 C 0.40745 0.99349 0.28338 0.0
C2180 C 0.41121 0.97682 0.26338 0.0
C2181 C 0.41104 0.96196 0.29321 0.0
C2182 C 0.39978 0.01256 0.35605 0.0
C2183 C 0.415 0.97461 0.21021 0.0
C2184 C 0.39012 0.02902 0.2 0.0
C2185 C 0.40514 0.03925 0.19188 0.0
C2186 C 0.39073 0.01408 0.22951 0.0
C2187 C 0.40673 0.00923 0.25167 0.0
C2188 C 0.42197 0.0194 0.24344 0.0
C2189 C 0.421 0.03425 0.2136 0.0
C2190 C 0.37418 0.00357 0.23734 0.0
C2191 C 0.43928 0.01462 0.26632 0.0
H2192 H 0.40075 0.98099 0.40048 0.0
H2193 H 0.4134 0.94918 0.27742 0.0
H2194 H 0.41064 0.02188 0.34893 0.0
H2195 H 0.38776 0.01818 0.33964 0.0
H2196 H 0.39778 0.01159 0.39568 0.0
H2197 H 0.41833 0.96085 0.20066 0.0
H2198 H 0.40339 0.97865 0.18883 0.0
H2199 H 0.42605 0.9832 0.19935 0.0
H2200 H 0.37774 0.03287 0.18419 0.0
H2201 H 0.43269 0.04195 0.20711 0.0
H2202 H 0.37076 0.00347 0.27627 0.0
H2203 H 0.3763 0.98975 0.2262 0.0
H2204 H 0.36286 0.00891 0.21683 0.0
H2205 H 0.43794 0.01448 0.30619 0.0
H2206 H 0.44991 0.0239 0.2564 0.0
H2207 H 0.44322 0.00122 0.25502 0.0
C2208 C 0.71104 0.83536 0.48652 0.0
C2209 C 0.71166 0.84016 0.43767 0.0
C2210 C 0.72631 0.83501 0.51478 0.0
C2211 C 0.74262 0.83947 0.49364 0.0
C2212 C 0.74339 0.84384 0.44401 0.0
C2213 C 0.72789 0.84422 0.41671 0.0
C2214 C 0.72489 0.83048 0.56768 0.0
C2215 C 0.76054 0.84854 0.42002 0.0
C2216 C 0.77864 0.85772 0.57383 0.0
C2217 C 0.78965 0.84312 0.57992 0.0
C2218 C 0.76323 0.85662 0.54637 0.0
C2219 C 0.7587 0.84056 0.52399 0.0
C2220 C 0.76963 0.82572 0.53018 0.0
C2221 C 0.78492 0.82716 0.55819 0.0
C2222 C 0.7519 0.87275 0.5408 0.0
C2223 C 0.76523 0.80838 0.50683 0.0
H2224 H 0.69851 0.83253 0.50319 0.0
H2225 H 0.7284 0.8478 0.37892 0.0
H2226 H 0.73418 0.81979 0.57685 0.0
H2227 H 0.72854 0.84205 0.5898 0.0
H2228 H 0.71144 0.82632 0.57793 0.0
H2229 H 0.75907 0.85061 0.38055 0.0
H2230 H 0.76587 0.86072 0.4363 0.0
H2231 H 0.77034 0.83801 0.42606 0.0
H2232 H 0.78222 0.8702 0.5896 0.0
H2233 H 0.79318 0.81575 0.56314 0.0
H2234 H 0.73832 0.8699 0.55287 0.0
H2235 H 0.75121 0.87654 0.5022 0.0
H2236 H 0.75696 0.88409 0.5618 0.0
H2237 H 0.75213 0.80386 0.51901 0.0
H2238 H 0.77503 0.79805 0.51539 0.0
H2239 H 0.7646 0.80996 0.46707 0.0
C2240 C 0.89073 0.97331 0.18684 0.0
C2241 C 0.90567 0.96288 0.17928 0.0
C2242 C 0.89143 0.98843 0.21573 0.0
C2243 C 0.90743 0.99323 0.23796 0.0
C2244 C 0.92258 0.98287 0.23035 0.0
C2245 C 0.92153 0.96786 0.20101 0.0
C2246 C 0.87497 0.99915 0.22286 0.0
C2247 C 0.93988 0.98758 0.25343 0.0
C2248 C 0.91175 0.04067 0.27837 0.0
C2249 C 0.90748 0.03954 0.32754 0.0
C2250 C 0.91212 0.02567 0.249 0.0
C2251 C 0.90819 0.0091 0.2693 0.0
C2252 C 0.90423 0.00781 0.31913 0.0
C2253 C 0.90384 0.02307 0.34757 0.0
C2254 C 0.91621 0.02762 0.19595 0.0
C2255 C 0.90007 0.99037 0.34218 0.0
H2256 H 0.87833 0.96951 0.17107 0.0
H2257 H 0.93318 0.96003 0.19494 0.0
H2258 H 0.8714 0.99943 0.26167 0.0
H2259 H 0.87729 0.01291 0.21149 0.0
H2260 H 0.86368 0.99388 0.20212 0.0
H2261 H 0.95045 0.97815 0.24396 0.0
H2262 H 0.94398 0.00089 0.24189 0.0
H2263 H 0.93843 0.98789 0.29327 0.0
H2264 H 0.91421 0.05339 0.26237 0.0
H2265 H 0.90064 0.02216 0.38559 0.0
H2266 H 0.90464 0.02368 0.17424 0.0
H2267 H 0.92719 0.01883 0.18565 0.0
H2268 H 0.91979 0.0413 0.18625 0.0
H2269 H 0.88801 0.98481 0.32586 0.0
H2270 H 0.89807 0.9915 0.38178 0.0
H2271 H 0.91086 0.98093 0.3353 0.0
C2272 C 0.78787 0.16012 0.98582 0.0
C2273 C 0.78596 0.15668 0.93634 0.0
C2274 C 0.7733 0.16041 0.01672 0.0
C2275 C 0.75638 0.15722 0.9977 0.0
C2276 C 0.75433 0.15392 0.94769 0.0
C2277 C 0.76917 0.15361 0.91764 0.0
C2278 C 0.77607 0.16374 0.06991 0.0
C2279 C 0.73648 0.15052 0.92606 0.0
C2280 C 0.72139 0.14008 0.08293 0.0
C2281 C 0.71166 0.15528 0.09307 0.0
C2282 C 0.73597 0.14056 0.05209 0.0
C2283 C 0.74094 0.15662 0.03052 0.0
C2284 C 0.73126 0.17204 0.04063 0.0
C2285 C 0.71676 0.17119 0.07187 0.0
C2286 C 0.74598 0.12383 0.04228 0.0
C2287 C 0.73618 0.18941 0.01834 0.0
H2288 H 0.80084 0.1621 1.00074 0.0
H2289 H 0.76768 0.15103 0.87941 0.0
H2290 H 0.76791 0.17497 0.08197 0.0
H2291 H 0.77186 0.1521 0.09094 0.0
H2292 H 0.79 0.16659 0.07867 0.0
H2293 H 0.73705 0.1488 0.88628 0.0
H2294 H 0.7307 0.13853 0.94221 0.0
H2295 H 0.7275 0.16157 0.93446 0.0
H2296 H 0.71743 0.12765 0.09822 0.0
H2297 H 0.70942 0.18301 0.07983 0.0
H2298 H 0.75996 0.12551 0.05239 0.0
H2299 H 0.7456 0.12075 1.00315 0.0
H2300 H 0.74058 0.11247 0.06249 0.0
H2301 H 0.74976 0.19298 0.02882 0.0
H2302 H 0.72722 0.20015 0.02954 0.0
H2303 H 0.73592 0.18835 0.9784 0.0
C2304 C 0.60749 0.02808 0.70364 0.0
C2305 C 0.59291 0.03907 0.69674 0.0
C2306 C 0.60628 0.01279 0.73152 0.0
C2307 C 0.59014 0.00836 0.75357 0.0
C2308 C 0.57534 0.01928 0.74669 0.0
C2309 C 0.57688 0.03446 0.71822 0.0
C2310 C 0.62239 0.00147 0.73783 0.0
C2311 C 0.55791 0.01499 0.76971 0.0
C2312 C 0.58515 0.96076 0.79148 0.0
C2313 C 0.58995 0.96147 0.84032 0.0
C2314 C 0.58465 0.976 0.76313 0.0
C2315 C 0.58895 0.99236 0.78418 0.0
C2316 C 0.59327 0.99323 0.83384 0.0
C2317 C 0.59381 0.97776 0.86122 0.0
C2318 C 0.58019 0.97447 0.7102 0.0
C2319 C 0.59781 0.01045 0.85772 0.0
H2320 H 0.62003 0.03157 0.68816 0.0
H2321 H 0.5655 0.04271 0.71271 0.0
H2322 H 0.62603 0.00088 0.77655 0.0
H2323 H 0.61958 0.98786 0.72593 0.0
H2324 H 0.63381 0.00646 0.71709 0.0
H2325 H 0.54764 0.02479 0.76073 0.0
H2326 H 0.55341 0.00187 0.75766 0.0
H2327 H 0.55938 0.01445 0.80952 0.0
H2328 H 0.58247 0.94818 0.77486 0.0
H2329 H 0.59739 0.97833 0.89902 0.0
H2330 H 0.59182 0.97802 0.68818 0.0
H2331 H 0.56955 0.98377 0.7007 0.0
H2332 H 0.57601 0.961 0.70013 0.0
H2333 H 0.61007 0.01576 0.84183 0.0
H2334 H 0.59969 0.00907 0.89729 0.0
H2335 H 0.5873 0.02022 0.85109 0.0
C2336 C 0.71232 0.66138 0.98814 0.0
C2337 C 0.71331 0.65691 0.93905 0.0
C2338 C 0.72739 0.6618 0.01717 0.0
C2339 C 0.7439 0.65768 0.99669 0.0
C2340 C 0.74504 0.65341 0.94701 0.0
C2341 C 0.72972 0.65302 0.91885 0.0
C2342 C 0.72558 0.66624 0.07008 0.0
C2343 C 0.7624 0.64899 0.92377 0.0
C2344 C 0.7853 0.67143 0.06351 0.0
C2345 C 0.79023 0.65575 0.08626 0.0
C2346 C 0.77027 0.67228 0.03428 0.0
C2347 C 0.75985 0.6571 0.02771 0.0
C2348 C 0.76464 0.64128 0.05088 0.0
C2349 C 0.77976 0.64078 0.07973 0.0
C2350 C 0.76556 0.68941 0.01026 0.0
C2351 C 0.75389 0.62479 0.04483 0.0
H2352 H 0.69967 0.66403 1.00436 0.0
H2353 H 0.73054 0.64967 0.88091 0.0
H2354 H 0.72961 0.65482 0.09225 0.0
H2355 H 0.73439 0.67729 0.07957 0.0
H2356 H 0.71193 0.66987 0.07998 0.0
H2357 H 0.76115 0.64662 0.88436 0.0
H2358 H 0.77188 0.65983 0.92963 0.0
H2359 H 0.768 0.63708 0.94079 0.0
H2360 H 0.79319 0.68309 0.06873 0.0
H2361 H 0.78355 0.62851 0.09628 0.0
H2362 H 0.75228 0.69364 0.02185 0.0
H2363 H 0.76515 0.68764 0.97053 0.0
H2364 H 0.77504 0.70001 0.0189 0.0
H2365 H 0.74017 0.62719 0.05645 0.0
H2366 H 0.75922 0.61362 0.06597 0.0
H2367 H 0.7535 0.62097 1.0062 0.0
C2368 C 0.6093 0.52515 0.32625 0.0
C2369 C 0.59547 0.5373 0.32886 0.0
C2370 C 0.60837 0.51043 0.29585 0.0
C2371 C 0.59336 0.50784 0.26671 0.0
C2372 C 0.57943 0.52008 0.26864 0.0
C2373 C 0.58058 0.53453 0.29997 0.0
C2374 C 0.62341 0.49753 0.2953 0.0
C2375 C 0.56324 0.51785 0.2379 0.0
C2376 C 0.59762 0.47622 0.16072 0.0
C2377 C 0.59016 0.46087 0.17972 0.0
C2378 C 0.59846 0.49173 0.18821 0.0
C2379 C 0.59187 0.49184 0.23603 0.0
C2380 C 0.5841 0.47652 0.25513 0.0
C2381 C 0.58316 0.46135 0.22665 0.0
C2382 C 0.60661 0.50792 0.16636 0.0
C2383 C 0.57701 0.47604 0.30606 0.0
H2384 H 0.621 0.52714 0.3476 0.0
H2385 H 0.56966 0.54357 0.30204 0.0
H2386 H 0.61868 0.48438 0.30649 0.0
H2387 H 0.6287 0.49622 0.25817 0.0
H2388 H 0.63425 0.50151 0.31972 0.0
H2389 H 0.55403 0.52906 0.24151 0.0
H2390 H 0.56698 0.51648 0.19938 0.0
H2391 H 0.55626 0.50567 0.24837 0.0
H2392 H 0.60315 0.47605 0.12474 0.0
H2393 H 0.5769 0.44983 0.24151 0.0
H2394 H 0.61854 0.5116 0.18692 0.0
H2395 H 0.59735 0.51911 0.16878 0.0
H2396 H 0.6103 0.50596 0.12794 0.0
H2397 H 0.58765 0.47911 0.33203 0.0
H2398 H 0.57137 0.46305 0.31553 0.0
H2399 H 0.56669 0.48615 0.31069 0.0
C2400 C 0.72306 0.36103 0.5771 0.0
C2401 C 0.7128 0.34608 0.58592 0.0
C2402 C 0.73802 0.36022 0.54767 0.0
C2403 C 0.74289 0.34407 0.52629 0.0
C2404 C 0.73272 0.32888 0.53528 0.0
C2405 C 0.71781 0.33007 0.565 0.0
C2406 C 0.7485 0.37673 0.53896 0.0
C2407 C 0.73752 0.31142 0.51325 0.0
C2408 C 0.77211 0.34701 0.41528 0.0
C2409 C 0.78876 0.34392 0.43495 0.0
C2410 C 0.757 0.34664 0.44433 0.0
C2411 C 0.7586 0.34319 0.49437 0.0
C2412 C 0.77534 0.33977 0.5143 0.0
C2413 C 0.7902 0.34017 0.48438 0.0
C2414 C 0.73938 0.3503 0.42168 0.0
C2415 C 0.77763 0.3362 0.56752 0.0
H2416 H 0.71919 0.37353 0.59221 0.0
H2417 H 0.71007 0.31844 0.57197 0.0
H2418 H 0.76234 0.37469 0.54997 0.0
H2419 H 0.74854 0.3799 0.4999 0.0
H2420 H 0.74318 0.38816 0.55907 0.0
H2421 H 0.72831 0.30083 0.52399 0.0
H2422 H 0.73754 0.31245 0.47331 0.0
H2423 H 0.75097 0.30763 0.52439 0.0
H2424 H 0.77093 0.34978 0.37708 0.0
H2425 H 0.80302 0.33813 0.50016 0.0
H2426 H 0.7337 0.36242 0.4374 0.0
H2427 H 0.73015 0.33944 0.42965 0.0
H2428 H 0.74027 0.35194 0.38192 0.0
H2429 H 0.77368 0.34793 0.58861 0.0
H2430 H 0.79139 0.33286 0.5769 0.0
H2431 H 0.76901 0.32524 0.57889 0.0
C2432 C 0.90757 0.47678 0.85891 0.0
C2433 C 0.91258 0.46077 0.83797 0.0
C2434 C 0.90687 0.49226 0.83142 0.0
C2435 C 0.91115 0.49171 0.78169 0.0
C2436 C 0.91637 0.47567 0.76043 0.0
C2437 C 0.91714 0.46048 0.78881 0.0
C2438 C 0.90135 0.50917 0.85544 0.0
C2439 C 0.92095 0.4745 0.70747 0.0
C2440 C 0.89276 0.52669 0.69825 0.0
C2441 C 0.90734 0.53765 0.6911 0.0
C2442 C 0.89381 0.51179 0.72783 0.0
C2443 C 0.90977 0.50779 0.75139 0.0
C2444 C 0.9245 0.51881 0.74473 0.0
C2445 C 0.92314 0.53353 0.71448 0.0
C2446 C 0.87782 0.50029 0.73371 0.0
C2447 C 0.94174 0.515 0.76937 0.0
H2448 H 0.9039 0.47718 0.89664 0.0
H2449 H 0.92145 0.44837 0.77226 0.0
H2450 H 0.91152 0.51937 0.84988 0.0
H2451 H 0.88907 0.51407 0.83876 0.0
H2452 H 0.89913 0.50755 0.89481 0.0
H2453 H 0.92485 0.46103 0.6965 0.0
H2454 H 0.90954 0.47858 0.68533 0.0
H2455 H 0.93188 0.48358 0.699 0.0
H2456 H 0.88038 0.52981 0.6813 0.0
H2457 H 0.93454 0.54174 0.70887 0.0
H2458 H 0.87415 0.49944 0.77238 0.0
H2459 H 0.88082 0.48678 0.72128 0.0
H2460 H 0.86637 0.50525 0.71308 0.0
H2461 H 0.93978 0.51412 0.80897 0.0
H2462 H 0.95177 0.52521 0.76188 0.0
H2463 H 0.94689 0.50214 0.75711 0.0
C2464 C 0.2306 0.34639 0.91642 0.0
C2465 C 0.21372 0.34254 0.93337 0.0
C2466 C 0.24508 0.34634 0.94772 0.0
C2467 C 0.24258 0.34249 0.99726 0.0
C2468 C 0.22558 0.33847 0.01451 0.0
C2469 C 0.21137 0.33852 0.98236 0.0
C2470 C 0.26303 0.35063 0.92792 0.0
C2471 C 0.22232 0.33449 0.06714 0.0
C2472 C 0.28222 0.32893 0.07158 0.0
C2473 C 0.28683 0.34476 0.09413 0.0
C2474 C 0.26779 0.32796 0.04021 0.0
C2475 C 0.25766 0.34317 0.03129 0.0
C2476 C 0.26203 0.35911 0.05458 0.0
C2477 C 0.27656 0.35972 0.08562 0.0
C2478 C 0.26351 0.31071 0.01618 0.0
C2479 C 0.25152 0.37561 0.04609 0.0
H2480 H 0.23243 0.34945 0.87858 0.0
H2481 H 0.19831 0.33594 0.99599 0.0
H2482 H 0.26819 0.36261 0.94568 0.0
H2483 H 0.2723 0.33981 0.93598 0.0
H2484 H 0.26284 0.35282 0.88829 0.0
H2485 H 0.20841 0.33107 0.07447 0.0
H2486 H 0.23075 0.32344 0.07898 0.0
H2487 H 0.22587 0.34605 0.08946 0.0
H2488 H 0.28994 0.31728 0.07843 0.0
H2489 H 0.28012 0.37208 0.10216 0.0
H2490 H 0.26423 0.31217 0.97639 0.0
H2491 H 0.2499 0.30673 0.02517 0.0
H2492 H 0.27258 0.30005 0.02729 0.0
H2493 H 0.25221 0.37932 1.00743 0.0
H2494 H 0.2563 0.38682 0.0681 0.0
H2495 H 0.23751 0.37329 0.05484 0.0
C2496 C 0.41044 0.52399 0.8618 0.0
C2497 C 0.40905 0.54059 0.84027 0.0
C2498 C 0.40992 0.50858 0.8339 0.0
C2499 C 0.40813 0.50977 0.78314 0.0
C2500 C 0.40689 0.52645 0.76109 0.0
C2501 C 0.40724 0.5416 0.78986 0.0
C2502 C 0.4111 0.49102 0.85881 0.0
C2503 C 0.40499 0.52831 0.70707 0.0
C2504 C 0.42106 0.47041 0.70614 0.0
C2505 C 0.40467 0.46307 0.69541 0.0
C2506 C 0.42241 0.48566 0.73446 0.0
C2507 C 0.40701 0.49357 0.75313 0.0
C2508 C 0.39044 0.48609 0.74275 0.0
C2509 C 0.38947 0.47101 0.71381 0.0
C2510 C 0.44029 0.49337 0.74417 0.0
C2511 C 0.37373 0.49395 0.76254 0.0
H2512 H 0.41203 0.52299 0.9005 0.0
H2513 H 0.40579 0.55425 0.77267 0.0
H2514 H 0.39915 0.4832 0.85109 0.0
H2515 H 0.42245 0.48351 0.84464 0.0
H2516 H 0.41252 0.49232 0.89855 0.0
H2517 H 0.40481 0.54224 0.69538 0.0
H2518 H 0.41597 0.52151 0.68854 0.0
H2519 H 0.39266 0.52198 0.69498 0.0
H2520 H 0.43279 0.46429 0.69184 0.0
H2521 H 0.3768 0.46519 0.70647 0.0
H2522 H 0.44274 0.4939 0.78361 0.0
H2523 H 0.44084 0.50704 0.73054 0.0
H2524 H 0.45097 0.48569 0.72687 0.0
H2525 H 0.37429 0.49437 0.80253 0.0
H2526 H 0.36191 0.48641 0.7516 0.0
H2527 H 0.37226 0.50765 0.74973 0.0
C2528 C 0.29076 0.64692 0.47671 0.0
C2529 C 0.29122 0.65673 0.43392 0.0
C2530 C 0.27562 0.64641 0.5056 0.0
C2531 C 0.26067 0.65622 0.49189 0.0
C2532 C 0.26104 0.6661 0.44857 0.0
C2533 C 0.27625 0.66608 0.41985 0.0
C2534 C 0.27567 0.6354 0.55087 0.0
C2535 C 0.24549 0.67699 0.43308 0.0
C2536 C 0.21565 0.64507 0.54267 0.0
C2537 C 0.21388 0.65741 0.57991 0.0
C2538 C 0.23094 0.64427 0.51445 0.0
C2539 C 0.2447 0.65634 0.52308 0.0
C2540 C 0.24305 0.66874 0.56098 0.0
C2541 C 0.22773 0.66901 0.58924 0.0
C2542 C 0.23229 0.63061 0.47514 0.0
C2543 C 0.25729 0.68202 0.57085 0.0
H2544 H 0.30227 0.63955 0.48736 0.0
H2545 H 0.27666 0.67382 0.38711 0.0
H2546 H 0.27355 0.64387 0.58292 0.0
H2547 H 0.26472 0.62583 0.54973 0.0
H2548 H 0.28818 0.62813 0.55568 0.0
H2549 H 0.2479 0.68397 0.39854 0.0
H2550 H 0.23377 0.66852 0.42877 0.0
H2551 H 0.24238 0.68682 0.46138 0.0
H2552 H 0.20501 0.63599 0.53572 0.0
H2553 H 0.2263 0.6787 0.61759 0.0
H2554 H 0.24428 0.62258 0.4804 0.0
H2555 H 0.23348 0.63709 0.43948 0.0
H2556 H 0.22073 0.62175 0.47434 0.0
H2557 H 0.26985 0.67526 0.57853 0.0
H2558 H 0.25405 0.6907 0.60184 0.0
H2559 H 0.25937 0.69028 0.5384 0.0
C2560 C 0.11085 0.52562 0.17362 0.0
C2561 C 0.09612 0.53642 0.16713 0.0
C2562 C 0.11014 0.5108 0.20351 0.0
C2563 C 0.09433 0.50663 0.22771 0.0
C2564 C 0.07936 0.51734 0.22102 0.0
C2565 C 0.08043 0.53208 0.19078 0.0
C2566 C 0.12641 0.49971 0.20971 0.0
C2567 C 0.06225 0.51328 0.2461 0.0
C2568 C 0.08942 0.45972 0.27176 0.0
C2569 C 0.09424 0.46122 0.32047 0.0
C2570 C 0.08903 0.47444 0.24142 0.0
C2571 C 0.09358 0.4911 0.2602 0.0
C2572 C 0.09814 0.49277 0.30953 0.0
C2573 C 0.09846 0.4778 0.33902 0.0
C2574 C 0.08424 0.47208 0.18894 0.0
C2575 C 0.10301 0.51032 0.33095 0.0
H2576 H 0.12312 0.52897 0.15632 0.0
H2577 H 0.06895 0.54023 0.18557 0.0
H2578 H 0.13046 0.49971 0.24815 0.0
H2579 H 0.12361 0.48592 0.19952 0.0
H2580 H 0.13755 0.50451 0.18751 0.0
H2581 H 0.05179 0.52284 0.23686 0.0
H2582 H 0.05773 0.49994 0.23605 0.0
H2583 H 0.06418 0.51339 0.28578 0.0
H2584 H 0.0865 0.44693 0.2568 0.0
H2585 H 0.10207 0.47902 0.37668 0.0
H2586 H 0.09564 0.47548 0.16587 0.0
H2587 H 0.07339 0.48108 0.17908 0.0
H2588 H 0.08018 0.45842 0.18056 0.0
H2589 H 0.11496 0.51544 0.31298 0.0
H2590 H 0.10553 0.50952 0.37037 0.0
H2591 H 0.09236 0.51995 0.32458 0.0
C2592 C 0.11364 0.24074 0.34751 0.0
C2593 C 0.13136 0.23654 0.3404 0.0
C2594 C 0.10789 0.2582 0.34697 0.0
C2595 C 0.12011 0.27183 0.33849 0.0
C2596 C 0.13799 0.26767 0.33056 0.0
C2597 C 0.14344 0.25005 0.33208 0.0
C2598 C 0.08875 0.26208 0.35625 0.0
C2599 C 0.15135 0.28182 0.32061 0.0
C2600 C 0.09983 0.31453 0.2958 0.0
C2601 C 0.09922 0.32431 0.33861 0.0
C2602 C 0.10728 0.29772 0.2948 0.0
C2603 C 0.11401 0.29038 0.3379 0.0
C2604 C 0.1138 0.30038 0.38105 0.0
C2605 C 0.10654 0.31733 0.38075 0.0
C2606 C 0.10758 0.28764 0.24786 0.0
C2607 C 0.12061 0.29295 0.4279 0.0
H2608 H 0.10431 0.23035 0.35493 0.0
H2609 H 0.15715 0.24682 0.32662 0.0
H2610 H 0.08742 0.27082 0.38809 0.0
H2611 H 0.08301 0.26907 0.32493 0.0
H2612 H 0.08098 0.24999 0.36284 0.0
H2613 H 0.16465 0.27638 0.31394 0.0
H2614 H 0.1473 0.2896 0.28868 0.0
H2615 H 0.15204 0.29098 0.35168 0.0
H2616 H 0.09446 0.32009 0.26301 0.0
H2617 H 0.10601 0.3249 0.41383 0.0
H2618 H 0.09884 0.27605 0.25062 0.0
H2619 H 0.121 0.28272 0.24036 0.0
H2620 H 0.1032 0.29576 0.21685 0.0
H2621 H 0.11252 0.28151 0.43865 0.0
H2622 H 0.12035 0.30274 0.45762 0.0
H2623 H 0.13426 0.28821 0.42326 0.0
C2624 C 0.94331 0.83525 0.59569 0.0
C2625 C 0.92802 0.84542 0.59334 0.0
C2626 C 0.95996 0.8431 0.59557 0.0
C2627 C 0.96137 0.86159 0.59268 0.0
C2628 C 0.94599 0.87193 0.58963 0.0
C2629 C 0.92949 0.86372 0.59019 0.0
C2630 C 0.97603 0.83161 0.59936 0.0
C2631 C 0.94695 0.89166 0.58609 0.0
C2632 C 0.00338 0.88127 0.6423 0.0
C2633 C 0.01344 0.88358 0.60033 0.0
C2634 C 0.98627 0.87457 0.64013 0.0
C2635 C 0.97897 0.87005 0.59486 0.0
C2636 C 0.98884 0.87278 0.55219 0.0
C2637 C 0.006 0.87944 0.55544 0.0
C2638 C 0.97624 0.87175 0.68652 0.0
C2639 C 0.98144 0.86825 0.50323 0.0
H2640 H 0.94224 0.82113 0.59857 0.0
H2641 H 0.91772 0.87162 0.58753 0.0
H2642 H 0.98491 0.83404 0.56835 0.0
H2643 H 0.98341 0.8349 0.63267 0.0
H2644 H 0.9727 0.81743 0.6002 0.0
H2645 H 0.9338 0.89776 0.58204 0.0
H2646 H 0.95326 0.89708 0.61893 0.0
H2647 H 0.95519 0.8955 0.55482 0.0
H2648 H 0.00912 0.88409 0.67722 0.0
H2649 H 0.01367 0.88128 0.52289 0.0
H2650 H 0.97373 0.85754 0.69166 0.0
H2651 H 0.96331 0.87838 0.68473 0.0
H2652 H 0.98344 0.87675 0.71853 0.0
H2653 H 0.97921 0.8539 0.5008 0.0
H2654 H 0.99032 0.87223 0.47338 0.0
H2655 H 0.96856 0.87476 0.4981 0.0
C2656 C 0.38497 0.67883 0.84512 0.0
C2657 C 0.4031 0.67805 0.85345 0.0
C2658 C 0.37621 0.69501 0.84212 0.0
C2659 C 0.38582 0.71077 0.84788 0.0
C2660 C 0.40414 0.71005 0.85585 0.0
C2661 C 0.41255 0.69371 0.85843 0.0
C2662 C 0.35669 0.69526 0.83324 0.0
C2663 C 0.41485 0.72653 0.86256 0.0
C2664 C 0.36862 0.75513 0.80675 0.0
C2665 C 0.3632 0.76256 0.85063 0.0
C2666 C 0.37532 0.73796 0.80485 0.0
C2667 C 0.37672 0.72805 0.8479 0.0
C2668 C 0.37065 0.73524 0.89194 0.0
C2669 C 0.364 0.75238 0.89277 0.0
C2670 C 0.38152 0.73067 0.75713 0.0
C2671 C 0.37198 0.72516 0.9387 0.0
H2672 H 0.37765 0.66678 0.84042 0.0
H2673 H 0.42651 0.69318 0.86536 0.0
H2674 H 0.34989 0.70125 0.8646 0.0
H2675 H 0.35365 0.70346 0.80126 0.0
H2676 H 0.35128 0.6819 0.8273 0.0
H2677 H 0.42905 0.72372 0.86703 0.0
H2678 H 0.41315 0.73533 0.83105 0.0
H2679 H 0.41018 0.73376 0.89489 0.0
H2680 H 0.36792 0.76286 0.774 0.0
H2681 H 0.36017 0.75809 0.92703 0.0
H2682 H 0.37578 0.71751 0.75076 0.0
H2683 H 0.39599 0.72909 0.75788 0.0
H2684 H 0.37804 0.73934 0.7264 0.0
H2685 H 0.36598 0.71199 0.9347 0.0
H2686 H 0.36544 0.73207 0.96912 0.0
H2687 H 0.38598 0.72319 0.9481 0.0
C2688 C 0.49793 0.12048 0.05604 0.0
C2689 C 0.48992 0.11595 0.09987 0.0
C2690 C 0.51513 0.12714 0.05491 0.0
C2691 C 0.52446 0.12941 0.09867 0.0
C2692 C 0.51661 0.1244 0.14283 0.0
C2693 C 0.49947 0.11777 0.14289 0.0
C2694 C 0.52312 0.13223 1.00708 0.0
C2695 C 0.52606 0.1267 0.19033 0.0
C2696 C 0.57388 0.13623 0.10032 0.0
C2697 C 0.5751 0.15447 0.10604 0.0
C2698 C 0.5575 0.1279 0.09659 0.0
C2699 C 0.54198 0.13805 0.09897 0.0
C2700 C 0.54314 0.15649 0.10418 0.0
C2701 C 0.55968 0.16446 0.10752 0.0
C2702 C 0.5568 0.10823 0.0907 0.0
C2703 C 0.5269 0.16779 0.10724 0.0
H2704 H 0.49067 0.11902 0.02266 0.0
H2705 H 0.49329 0.11468 0.17707 0.0
H2706 H 0.52515 0.14663 1.00599 0.0
H2707 H 0.53617 0.12598 1.00272 0.0
H2708 H 0.51471 0.12841 0.97609 0.0
H2709 H 0.51855 0.12118 0.22115 0.0
H2710 H 0.53909 0.12023 0.18895 0.0
H2711 H 0.52834 0.14085 0.19722 0.0
H2712 H 0.58576 0.12847 0.09823 0.0
H2713 H 0.56055 0.17853 0.11232 0.0
H2714 H 0.54892 0.10474 0.05846 0.0
H2715 H 0.55024 0.10227 0.12246 0.0
H2716 H 0.57006 0.10234 0.08692 0.0
H2717 H 0.51848 0.16557 0.07518 0.0
H2718 H 0.53007 0.18198 0.10953 0.0
H2719 H 0.51912 0.1641 0.13952 0.0
C2720 C 0.13343 0.7505 0.12718 0.0
C2721 C 0.13846 0.75894 0.17008 0.0
C2722 C 0.12765 0.73309 0.12722 0.0
C2723 C 0.12659 0.72386 0.17135 0.0
C2724 C 0.13216 0.73202 0.21464 0.0
C2725 C 0.13807 0.74948 0.21349 0.0
C2726 C 0.12186 0.72485 0.08022 0.0
C2727 C 0.13121 0.72256 0.26239 0.0
C2728 C 0.09178 0.68846 0.17369 0.0
C2729 C 0.10168 0.67323 0.16569 0.0
C2730 C 0.09982 0.70492 0.17721 0.0
C2731 C 0.11825 0.70625 0.17229 0.0
C2732 C 0.12839 0.69093 0.16497 0.0
C2733 C 0.11998 0.67458 0.16181 0.0
C2734 C 0.08852 0.72096 0.18499 0.0
C2735 C 0.14807 0.69186 0.1595 0.0
H2736 H 0.13329 0.75774 0.09354 0.0
H2737 H 0.14209 0.75582 0.24671 0.0
H2738 H 0.1283 0.71193 0.07517 0.0
H2739 H 0.1075 0.72256 0.08108 0.0
H2740 H 0.12494 0.73324 0.04858 0.0
H2741 H 0.1375 0.73012 0.29196 0.0
H2742 H 0.11728 0.72026 0.27209 0.0
H2743 H 0.13763 0.70954 0.25969 0.0
H2744 H 0.07764 0.68756 0.17622 0.0
H2745 H 0.12777 0.66286 0.15658 0.0
H2746 H 0.0894 0.72968 0.15303 0.0
H2747 H 0.09331 0.72853 0.21656 0.0
H2748 H 0.07453 0.71757 0.19101 0.0
H2749 H 0.15143 0.69937 0.12649 0.0
H2750 H 0.15416 0.67865 0.15689 0.0
H2751 H 0.15392 0.69892 0.19057 0.0
C2752 C 0.49842 0.88089 0.38988 0.0
C2753 C 0.48877 0.88292 0.43269 0.0
C2754 C 0.51551 0.87413 0.39039 0.0
C2755 C 0.5232 0.86922 0.43481 0.0
C2756 C 0.51374 0.87162 0.47834 0.0
C2757 C 0.49658 0.87838 0.47676 0.0
C2758 C 0.5251 0.87167 0.34312 0.0
C2759 C 0.52156 0.86663 0.52642 0.0
C2760 C 0.55857 0.83429 0.42753 0.0
C2761 C 0.57394 0.84435 0.42914 0.0
C2762 C 0.54199 0.8422 0.4303 0.0
C2763 C 0.54074 0.86065 0.43506 0.0
C2764 C 0.55621 0.87088 0.43751 0.0
C2765 C 0.57264 0.8626 0.43435 0.0
C2766 C 0.52581 0.83084 0.42712 0.0
C2767 C 0.55541 0.89056 0.44293 0.0
H2768 H 0.49237 0.88399 0.35555 0.0
H2769 H 0.48922 0.87999 0.50995 0.0
H2770 H 0.53807 0.87824 0.3445 0.0
H2771 H 0.5275 0.85751 0.33677 0.0
H2772 H 0.51763 0.87699 0.31199 0.0
H2773 H 0.51299 0.8704 0.55716 0.0
H2774 H 0.52373 0.85225 0.52767 0.0
H2775 H 0.53453 0.873 0.53109 0.0
H2776 H 0.55952 0.82021 0.4231 0.0
H2777 H 0.58448 0.8704 0.4365 0.0
H2778 H 0.51813 0.83441 0.39459 0.0
H2779 H 0.51727 0.83311 0.45894 0.0
H2780 H 0.52905 0.81665 0.4252 0.0
H2781 H 0.54891 0.89639 0.41093 0.0
H2782 H 0.56863 0.89652 0.44679 0.0
H2783 H 0.54742 0.89411 0.47496 0.0
C2784 C 0.35888 0.25262 0.70043 0.0
C2785 C 0.37063 0.23884 0.69163 0.0
C2786 C 0.36473 0.2701 0.70192 0.0
C2787 C 0.38268 0.27383 0.69347 0.0
C2788 C 0.39458 0.25993 0.68489 0.0
C2789 C 0.38843 0.24261 0.68436 0.0
C2790 C 0.35172 0.28456 0.71196 0.0
C2791 C 0.41377 0.26337 0.67507 0.0
C2792 C 0.39648 0.31875 0.64798 0.0
C2793 C 0.404 0.32609 0.68943 0.0
C2794 C 0.38916 0.30186 0.64895 0.0
C2795 C 0.38908 0.29226 0.69272 0.0
C2796 C 0.39611 0.2999 0.73509 0.0
C2797 C 0.40363 0.31667 0.73281 0.0
C2798 C 0.38203 0.29409 0.60284 0.0
C2799 C 0.39597 0.29023 0.78261 0.0
H2800 H 0.34512 0.24971 0.70604 0.0
H2801 H 0.39749 0.23202 0.67658 0.0
H2802 H 0.3562 0.29259 0.74301 0.0
H2803 H 0.35084 0.29341 0.68031 0.0
H2804 H 0.33841 0.27941 0.72001 0.0
H2805 H 0.42131 0.25108 0.66929 0.0
H2806 H 0.41516 0.27172 0.64253 0.0
H2807 H 0.41969 0.27061 0.70572 0.0
H2808 H 0.39684 0.32605 0.61444 0.0
H2809 H 0.40914 0.3225 0.76508 0.0
H2810 H 0.36828 0.28975 0.60816 0.0
H2811 H 0.3898 0.28234 0.59278 0.0
H2812 H 0.38242 0.30354 0.57235 0.0
H2813 H 0.38251 0.28566 0.79112 0.0
H2814 H 0.40073 0.29852 0.81289 0.0
H2815 H 0.40445 0.27843 0.78008 0.0
C2816 C 0.93739 0.16437 0.92765 0.0
C2817 C 0.92224 0.15452 0.91809 0.0
C2818 C 0.95397 0.15642 0.92951 0.0
C2819 C 0.95551 0.13819 0.92098 0.0
C2820 C 0.9403 0.12809 0.9119 0.0
C2821 C 0.92385 0.13636 0.91084 0.0
C2822 C 0.96988 0.16764 0.93953 0.0
C2823 C 0.94145 0.10864 0.90225 0.0
C2824 C 0.99966 0.12379 0.87248 0.0
C2825 C 0.00789 0.11705 0.91385 0.0
C2826 C 0.98242 0.13009 0.87405 0.0
C2827 C 0.97319 0.13 0.91831 0.0
C2828 C 0.98121 0.12297 0.96012 0.0
C2829 C 0.99845 0.11649 0.95734 0.0
C2830 C 0.97428 0.13736 0.82855 0.0
C2831 C 0.97178 0.12278 1.00803 0.0
H2832 H 0.93639 0.1784 0.93279 0.0
H2833 H 0.91225 0.12852 0.90444 0.0
H2834 H 0.97757 0.16202 0.96978 0.0
H2835 H 0.97854 0.16782 0.90735 0.0
H2836 H 0.96633 0.18137 0.94875 0.0
H2837 H 0.92832 0.10251 0.89801 0.0
H2838 H 0.94912 0.10628 0.86881 0.0
H2839 H 0.94846 0.10198 0.93214 0.0
H2840 H 0.00688 0.12473 0.8389 0.0
H2841 H 0.00457 0.11114 0.98938 0.0
H2842 H 0.97195 0.15163 0.83282 0.0
H2843 H 0.96138 0.13109 0.82183 0.0
H2844 H 0.98274 0.13529 0.79636 0.0
H2845 H 0.96917 0.13644 0.01989 0.0
H2846 H 0.97947 0.11603 0.03654 0.0
H2847 H 0.9589 0.11615 1.00438 0.0
C2848 C 0.91568 0.68997 0.67048 0.0
C2849 C 0.90556 0.67464 0.67228 0.0
C2850 C 0.90779 0.70659 0.67206 0.0
C2851 C 0.88931 0.70792 0.67575 0.0
C2852 C 0.87903 0.69249 0.67838 0.0
C2853 C 0.88728 0.67603 0.67648 0.0
C2854 C 0.91922 0.72272 0.66881 0.0
C2855 C 0.85931 0.69338 0.68263 0.0
C2856 C 0.87156 0.75237 0.71477 0.0
C2857 C 0.86751 0.76004 0.67015 0.0
C2858 C 0.87813 0.73517 0.71739 0.0
C2859 C 0.8808 0.72547 0.67435 0.0
C2860 C 0.87626 0.73297 0.62938 0.0
C2861 C 0.86971 0.75014 0.62783 0.0
C2862 C 0.88272 0.72755 0.76603 0.0
C2863 C 0.87898 0.72312 0.58263 0.0
H2864 H 0.92978 0.68897 0.66679 0.0
H2865 H 0.87942 0.66423 0.67879 0.0
H2866 H 0.9159 0.73022 0.63578 0.0
H2867 H 0.91675 0.73145 0.70014 0.0
H2868 H 0.93341 0.71944 0.6678 0.0
H2869 H 0.85328 0.6802 0.6866 0.0
H2870 H 0.85554 0.70153 0.71417 0.0
H2871 H 0.85374 0.69975 0.65008 0.0
H2872 H 0.8698 0.75991 0.7476 0.0
H2873 H 0.86698 0.75605 0.59309 0.0
H2874 H 0.89709 0.72541 0.76828 0.0
H2875 H 0.87632 0.7146 0.77072 0.0
H2876 H 0.87868 0.73626 0.79623 0.0
H2877 H 0.89318 0.72071 0.57696 0.0
H2878 H 0.87382 0.7304 0.55097 0.0
H2879 H 0.87243 0.71015 0.58426 0.0
C2880 C 0.99179 0.13745 0.42452 0.0
C2881 C 0.9874 0.11973 0.43049 0.0
C2882 C 0.00932 0.14298 0.42529 0.0
C2883 C 0.02281 0.13052 0.43278 0.0
C2884 C 0.01845 0.11265 0.4399 0.0
C2885 C 0.00078 0.10743 0.43822 0.0
C2886 C 0.01342 0.16212 0.41695 0.0
C2887 C 0.03246 0.09905 0.4488 0.0
C2888 C 0.06814 0.14364 0.3885 0.0
C2889 C 0.07556 0.15064 0.43052 0.0
C2890 C 0.05111 0.13661 0.38891 0.0
C2891 C 0.04145 0.13632 0.43263 0.0
C2892 C 0.04922 0.1427 0.47558 0.0
C2893 C 0.06612 0.14992 0.4739 0.0
C2894 C 0.04322 0.13014 0.34222 0.0
C2895 C 0.0395 0.14231 0.52307 0.0
H2896 H 0.98152 0.14695 0.41756 0.0
H2897 H 0.99739 0.09373 0.44285 0.0
H2898 H 0.02079 0.1675 0.44812 0.0
H2899 H 0.02189 0.16354 0.38461 0.0
H2900 H 0.0014 0.17013 0.41166 0.0
H2901 H 0.02685 0.08583 0.45564 0.0
H2902 H 0.04132 0.09823 0.41713 0.0
H2903 H 0.04059 0.1029 0.48027 0.0
H2904 H 0.07544 0.14426 0.35498 0.0
H2905 H 0.07201 0.15504 0.50658 0.0
H2906 H 0.03183 0.13846 0.33246 0.0
H2907 H 0.03831 0.11654 0.34657 0.0
H2908 H 0.05278 0.1304 0.31195 0.0
H2909 H 0.02805 0.15126 0.5214 0.0
H2910 H 0.04793 0.14637 0.5538 0.0
H2911 H 0.03442 0.12894 0.53023 0.0
C2912 C 0.61665 0.24267 0.1918 0.0
C2913 C 0.63407 0.23824 0.20224 0.0
C2914 C 0.61107 0.26016 0.19226 0.0
C2915 C 0.62314 0.27357 0.20428 0.0
C2916 C 0.64068 0.26915 0.21601 0.0
C2917 C 0.64602 0.2515 0.21419 0.0
C2918 C 0.59234 0.26432 0.1786 0.0
C2919 C 0.6538 0.28307 0.22999 0.0
C2920 C 0.61066 0.31848 0.15675 0.0
C2921 C 0.60122 0.32533 0.19578 0.0
C2922 C 0.61856 0.30189 0.15965 0.0
C2923 C 0.6173 0.29218 0.20309 0.0
C2924 C 0.60871 0.29958 0.2436 0.0
C2925 C 0.60054 0.316 0.23922 0.0
C2926 C 0.6273 0.29435 0.11534 0.0
C2927 C 0.60747 0.28985 0.29089 0.0
H2928 H 0.60748 0.23245 0.18164 0.0
H2929 H 0.6595 0.24803 0.22215 0.0
H2930 H 0.58571 0.27132 0.2086 0.0
H2931 H 0.59215 0.27313 0.14676 0.0
H2932 H 0.58465 0.25235 0.1699 0.0
H2933 H 0.6666 0.27737 0.24099 0.0
H2934 H 0.65604 0.29206 0.19917 0.0
H2935 H 0.64859 0.29107 0.26023 0.0
H2936 H 0.61105 0.32574 0.12315 0.0
H2937 H 0.59343 0.3215 0.26954 0.0
H2938 H 0.61959 0.28298 0.10205 0.0
H2939 H 0.64061 0.28949 0.12423 0.0
H2940 H 0.62838 0.3041 0.08573 0.0
H2941 H 0.59845 0.27854 0.28689 0.0
H2942 H 0.60252 0.29835 0.32051 0.0
H2943 H 0.62049 0.28458 0.30131 0.0
C2944 C 0.43114 0.85504 0.89603 0.0
C2945 C 0.42355 0.84769 0.93731 0.0
C2946 C 0.44798 0.86246 0.89774 0.0
C2947 C 0.45723 0.86283 0.94209 0.0
C2948 C 0.44926 0.85607 0.98431 0.0
C2949 C 0.43258 0.84841 0.98129 0.0
C2950 C 0.45612 0.86929 0.85177 0.0
C2951 C 0.45852 0.85656 0.03244 0.0
C2952 C 0.5069 0.86299 0.93652 0.0
C2953 C 0.51078 0.88082 0.94283 0.0
C2954 C 0.48954 0.857 0.93649 0.0
C2955 C 0.47569 0.8691 0.94358 0.0
C2956 C 0.47952 0.88707 0.95117 0.0
C2957 C 0.49706 0.89276 0.95018 0.0
C2958 C 0.486 0.83777 0.92756 0.0
C2959 C 0.46511 0.90028 0.9597 0.0
H2960 H 0.42412 0.85442 0.86208 0.0
H2961 H 0.42651 0.84302 0.01339 0.0
H2962 H 0.46054 0.88303 0.85676 0.0
H2963 H 0.46788 0.86136 0.84266 0.0
H2964 H 0.44688 0.86879 0.82081 0.0
H2965 H 0.44991 0.85221 0.06249 0.0
H2966 H 0.47021 0.84791 0.03131 0.0
H2967 H 0.4632 0.87004 0.04028 0.0
H2968 H 0.51747 0.85378 0.92982 0.0
H2969 H 0.50006 0.90655 0.95498 0.0
H2970 H 0.47785 0.8362 0.89467 0.0
H2971 H 0.47851 0.83214 0.95816 0.0
H2972 H 0.49826 0.83008 0.92284 0.0
H2973 H 0.45655 0.90106 0.92744 0.0
H2974 H 0.47033 0.91358 0.96753 0.0
H2975 H 0.45677 0.89606 0.99039 0.0
C2976 C 0.8855 0.32327 0.8345 0.0
C2977 C 0.90368 0.32361 0.842 0.0
C2978 C 0.87645 0.30729 0.83048 0.0
C2979 C 0.88581 0.29132 0.83442 0.0
C2980 C 0.9042 0.29162 0.84153 0.0
C2981 C 0.91289 0.30775 0.8451 0.0
C2982 C 0.85686 0.30748 0.82256 0.0
C2983 C 0.91465 0.27488 0.84636 0.0
C2984 C 0.86365 0.24983 0.87799 0.0
C2985 C 0.86235 0.23998 0.83529 0.0
C2986 C 0.87057 0.26684 0.8778 0.0
C2987 C 0.87641 0.27423 0.83385 0.0
C2988 C 0.87453 0.26467 0.79029 0.0
C2989 C 0.86757 0.24761 0.79155 0.0
C2990 C 0.87244 0.27654 0.92508 0.0
C2991 C 0.8805 0.2722 0.74268 0.0
H2992 H 0.87838 0.3355 0.83123 0.0
H2993 H 0.92691 0.30797 0.85134 0.0
H2994 H 0.85347 0.29958 0.79024 0.0
H2995 H 0.85016 0.30139 0.85387 0.0
H2996 H 0.85167 0.32098 0.81772 0.0
H2997 H 0.92894 0.27739 0.85015 0.0
H2998 H 0.91011 0.26746 0.87844 0.0
H2999 H 0.91254 0.2664 0.81434 0.0
H3000 H 0.86 0.24394 0.91213 0.0
H3001 H 0.86651 0.24011 0.75843 0.0
H3002 H 0.86663 0.28984 0.92227 0.0
H3003 H 0.88655 0.2782 0.93374 0.0
H3004 H 0.86604 0.26952 0.95547 0.0
H3005 H 0.87496 0.28552 0.7375 0.0
H3006 H 0.8766 0.26385 0.71163 0.0
H3007 H 0.89499 0.2735 0.74263 0.0
C3008 C 0.49822 0.10681 0.59148 0.0
C3009 C 0.51179 0.11896 0.59841 0.0
C3010 C 0.48063 0.11232 0.58975 0.0
C3011 C 0.47658 0.13031 0.59611 0.0
C3012 C 0.49026 0.14258 0.60311 0.0
C3013 C 0.50768 0.13677 0.60389 0.0
C3014 C 0.46639 0.09892 0.5814 0.0
C3015 C 0.4865 0.16184 0.61073 0.0
C3016 C 0.43389 0.15075 0.55417 0.0
C3017 C 0.42453 0.15204 0.59755 0.0
C3018 C 0.45052 0.14289 0.55272 0.0
C3019 C 0.45807 0.13648 0.59591 0.0
C3020 C 0.44843 0.13732 0.63961 0.0
C3021 C 0.43167 0.14496 0.63978 0.0
C3022 C 0.4602 0.14191 0.50525 0.0
C3023 C 0.45612 0.13087 0.68655 0.0
H3024 H 0.50139 0.09304 0.58732 0.0
H3025 H 0.51812 0.14614 0.61027 0.0
H3026 H 0.45744 0.09853 0.61296 0.0
H3027 H 0.4584 0.10268 0.5496 0.0
H3028 H 0.47176 0.08555 0.57539 0.0
H3029 H 0.49864 0.16965 0.61605 0.0
H3030 H 0.47933 0.1672 0.5792 0.0
H3031 H 0.47796 0.1636 0.64281 0.0
H3032 H 0.42818 0.15593 0.52136 0.0
H3033 H 0.4244 0.14602 0.67327 0.0
H3034 H 0.46507 0.12839 0.49886 0.0
H3035 H 0.4718 0.15068 0.50637 0.0
H3036 H 0.45183 0.14585 0.47432 0.0
H3037 H 0.46077 0.11716 0.68262 0.0
H3038 H 0.44652 0.13145 0.71669 0.0
H3039 H 0.46766 0.13901 0.69625 0.0
C3040 C 0.6132 0.75633 0.34408 0.0
C3041 C 0.63103 0.76012 0.33747 0.0
C3042 C 0.60715 0.73899 0.34478 0.0
C3043 C 0.61918 0.72506 0.33806 0.0
C3044 C 0.63716 0.7288 0.33019 0.0
C3045 C 0.64292 0.74632 0.33052 0.0
C3046 C 0.58792 0.73557 0.35399 0.0
C3047 C 0.65031 0.7143 0.32201 0.0
C3048 C 0.60491 0.68081 0.38725 0.0
C3049 C 0.5974 0.67311 0.34633 0.0
C3050 C 0.61247 0.69758 0.38487 0.0
C3051 C 0.61284 0.70663 0.34021 0.0
C3052 C 0.60595 0.69852 0.29834 0.0
C3053 C 0.59815 0.68192 0.30203 0.0
C3054 C 0.61943 0.70588 0.43049 0.0
C3055 C 0.60645 0.70754 0.24988 0.0
H3056 H 0.60404 0.76696 0.35047 0.0
H3057 H 0.65671 0.74925 0.3255 0.0
H3058 H 0.58222 0.72798 0.32365 0.0
H3059 H 0.58636 0.72755 0.38711 0.0
H3060 H 0.58029 0.74787 0.35844 0.0
H3061 H 0.66362 0.71944 0.3139 0.0
H3062 H 0.6511 0.70587 0.35454 0.0
H3063 H 0.64602 0.70584 0.29162 0.0
H3064 H 0.60428 0.67395 0.42143 0.0
H3065 H 0.59263 0.67576 0.27022 0.0
H3066 H 0.61157 0.71771 0.43936 0.0
H3067 H 0.63317 0.71022 0.42518 0.0
H3068 H 0.61895 0.69677 0.46174 0.0
H3069 H 0.5978 0.71924 0.2506 0.0
H3070 H 0.60209 0.69878 0.22015 0.0
H3071 H 0.61993 0.71217 0.24187 0.0
C3072 C 0.05791 0.83716 0.08793 0.0
C3073 C 0.07378 0.84624 0.08243 0.0
C3074 C 0.04175 0.84574 0.08301 0.0
C3075 C 0.04139 0.86388 0.07224 0.0
C3076 C 0.05732 0.87304 0.06505 0.0
C3077 C 0.07333 0.86412 0.07042 0.0
C3078 C 0.02505 0.8355 0.09112 0.0
C3079 C 0.05748 0.89235 0.05318 0.0
C3080 C 0.99696 0.88137 0.03279 0.0
C3081 C 0.99001 0.88728 0.07683 0.0
C3082 C 0.01403 0.87445 0.03012 0.0
C3083 C 0.02435 0.8734 0.07248 0.0
C3084 C 0.01772 0.88011 0.11648 0.0
C3085 C 0.00065 0.88689 0.11815 0.0
C3086 C 0.0207 0.86752 0.98248 0.0
C3087 C 0.0283 0.87927 0.16251 0.0
H3088 H 0.0581 0.82343 0.09776 0.0
H3089 H 0.08548 0.87121 0.06548 0.0
H3090 H 0.01822 0.84056 0.12366 0.0
H3091 H 0.01603 0.83721 0.06008 0.0
H3092 H 0.02754 0.82126 0.09615 0.0
H3093 H 0.07081 0.89708 0.04348 0.0
H3094 H 0.04845 0.89516 0.02278 0.0
H3095 H 0.05276 0.89995 0.08479 0.0
H3096 H 0.9889 0.88178 1.00061 0.0
H3097 H 0.99536 0.89108 0.15259 0.0
H3098 H 0.02176 0.85302 0.98424 0.0
H3099 H 0.03401 0.87271 0.97487 0.0
H3100 H 0.0119 0.87102 0.95202 0.0
H3101 H 0.03009 0.86537 0.17332 0.0
H3102 H 0.02187 0.88638 0.19272 0.0
H3103 H 0.04154 0.88493 0.15676 0.0
C3104 C 0.61335 0.82264 0.84282 0.0
C3105 C 0.59511 0.82383 0.84856 0.0
C3106 C 0.62171 0.80626 0.83969 0.0
C3107 C 0.61159 0.79073 0.84277 0.0
C3108 C 0.59316 0.79188 0.84801 0.0
C3109 C 0.58515 0.80841 0.85069 0.0
C3110 C 0.64138 0.80556 0.83372 0.0
C3111 C 0.58191 0.77564 0.85187 0.0
C3112 C 0.62929 0.74645 0.80208 0.0
C3113 C 0.63394 0.73882 0.84631 0.0
C3114 C 0.62254 0.7636 0.80007 0.0
C3115 C 0.62028 0.77325 0.84335 0.0
C3116 C 0.62535 0.76577 0.8879 0.0
C3117 C 0.63209 0.74868 0.88883 0.0
C3118 C 0.61738 0.7712 0.75186 0.0
C3119 C 0.62304 0.77557 0.9349 0.0
H3120 H 0.62106 0.83453 0.84026 0.0
H3121 H 0.57108 0.80929 0.85552 0.0
H3122 H 0.64738 0.79928 0.86581 0.0
H3123 H 0.64486 0.79743 0.80191 0.0
H3124 H 0.64722 0.8188 0.82916 0.0
H3125 H 0.5677 0.77879 0.85402 0.0
H3126 H 0.58414 0.76699 0.82023 0.0
H3127 H 0.58563 0.7681 0.88452 0.0
H3128 H 0.63076 0.73893 0.76911 0.0
H3129 H 0.63529 0.74279 0.92329 0.0
H3130 H 0.62362 0.78421 0.74674 0.0
H3131 H 0.60298 0.77322 0.75076 0.0
H3132 H 0.62117 0.76255 0.72131 0.0
H3133 H 0.6295 0.78858 0.93289 0.0
H3134 H 0.62853 0.76828 0.96612 0.0
H3135 H 0.60888 0.77791 0.94162 0.0
C3136 C 0.42511 0.36469 0.11214 0.0
C3137 C 0.4235 0.34655 0.10455 0.0
C3138 C 0.44155 0.37297 0.11081 0.0
C3139 C 0.45674 0.3629 0.10114 0.0
C3140 C 0.45519 0.34469 0.09216 0.0
C3141 C 0.43863 0.33674 0.09428 0.0
C3142 C 0.44271 0.39239 0.12095 0.0
C3143 C 0.47108 0.33352 0.08149 0.0
C3144 C 0.49961 0.38485 0.06519 0.0
C3145 C 0.50907 0.38413 0.10862 0.0
C3146 C 0.4824 0.3783 0.06229 0.0
C3147 C 0.47442 0.37106 0.1039 0.0
C3148 C 0.48367 0.3708 0.14809 0.0
C3149 C 0.50088 0.37714 0.14978 0.0
C3150 C 0.47295 0.37868 0.01445 0.0
C3151 C 0.47557 0.3633 0.1934 0.0
H3152 H 0.41353 0.37251 0.11905 0.0
H3153 H 0.43761 0.32272 0.08884 0.0
H3154 H 0.45037 0.39462 0.15443 0.0
H3155 H 0.44973 0.39914 0.09122 0.0
H3156 H 0.42959 0.39852 0.12538 0.0
H3157 H 0.46751 0.31984 0.07177 0.0
H3158 H 0.47875 0.33928 0.05138 0.0
H3159 H 0.47977 0.33315 0.11356 0.0
H3160 H 0.5057 0.39038 0.03332 0.0
H3161 H 0.50811 0.37607 0.18328 0.0
H3162 H 0.46008 0.3853 0.01838 0.0
H3163 H 0.47034 0.36507 1.00222 0.0
H3164 H 0.48063 0.38553 0.98607 0.0
H3165 H 0.46268 0.36955 0.20049 0.0
H3166 H 0.48405 0.3652 0.22558 0.0
H3167 H 0.47322 0.34905 0.18861 0.0
C3168 C 0.88816 0.26033 0.34511 0.0
C3169 C 0.87048 0.26455 0.33749 0.0
C3170 C 0.89388 0.24286 0.34487 0.0
C3171 C 0.88166 0.22925 0.33621 0.0
C3172 C 0.86382 0.23342 0.32772 0.0
C3173 C 0.8584 0.25104 0.32891 0.0
C3174 C 0.91297 0.23896 0.35472 0.0
C3175 C 0.85047 0.21927 0.31759 0.0
C3176 C 0.9019 0.18633 0.29484 0.0
C3177 C 0.90228 0.17668 0.33785 0.0
C3178 C 0.89455 0.20318 0.29334 0.0
C3179 C 0.88769 0.21069 0.33613 0.0
C3180 C 0.88768 0.20083 0.37947 0.0
C3181 C 0.89485 0.18385 0.37968 0.0
C3182 C 0.89451 0.21312 0.24623 0.0
C3183 C 0.88071 0.20844 0.42599 0.0
H3184 H 0.89747 0.27071 0.35272 0.0
H3185 H 0.84473 0.25429 0.32303 0.0
H3186 H 0.91414 0.23034 0.38679 0.0
H3187 H 0.9188 0.23183 0.32371 0.0
H3188 H 0.92075 0.25105 0.36123 0.0
H3189 H 0.83722 0.22473 0.31039 0.0
H3190 H 0.85464 0.21138 0.28594 0.0
H3191 H 0.8496 0.21022 0.34881 0.0
H3192 H 0.90735 0.18063 0.26228 0.0
H3193 H 0.89522 0.17639 0.41293 0.0
H3194 H 0.90325 0.2247 0.24906 0.0
H3195 H 0.88113 0.21804 0.23821 0.0
H3196 H 0.89901 0.20489 0.2155 0.0
H3197 H 0.8888 0.2199 0.43673 0.0
H3198 H 0.88083 0.19876 0.45593 0.0
H3199 H 0.86709 0.21321 0.42091 0.0
C3200 C 0.99361 0.63309 0.58686 0.0
C3201 C 0.98928 0.61536 0.58086 0.0
C3202 C 0.01108 0.63871 0.58553 0.0
C3203 C 0.0246 0.62633 0.57743 0.0
C3204 C 0.02032 0.60842 0.5706 0.0
C3205 C 0.00268 0.6031 0.57288 0.0
C3206 C 0.01509 0.6579 0.59368 0.0
C3207 C 0.03437 0.5949 0.56113 0.0
C3208 C 0.06705 0.64686 0.53411 0.0
C3209 C 0.07663 0.64804 0.57711 0.0
C3210 C 0.05046 0.63892 0.53314 0.0
C3211 C 0.04317 0.63232 0.57646 0.0
C3212 C 0.05306 0.63297 0.61971 0.0
C3213 C 0.06978 0.64069 0.61938 0.0
C3214 C 0.0405 0.63817 0.48612 0.0
C3215 C 0.04566 0.6263 0.66678 0.0
H3216 H 0.98331 0.64255 0.59409 0.0
H3217 H 0.99933 0.58938 0.56833 0.0
H3218 H 0.02386 0.6594 0.62536 0.0
H3219 H 0.02209 0.66334 0.56197 0.0
H3220 H 0.00306 0.6658 0.59995 0.0
H3221 H 0.02883 0.58162 0.555 0.0
H3222 H 0.0422 0.59871 0.52903 0.0
H3223 H 0.04351 0.5943 0.59221 0.0
H3224 H 0.07253 0.65227 0.50125 0.0
H3225 H 0.07722 0.64167 0.65259 0.0
H3226 H 0.02902 0.64709 0.48794 0.0
H3227 H 0.03543 0.62473 0.47972 0.0
H3228 H 0.04875 0.64208 0.45487 0.0
H3229 H 0.03431 0.63453 0.67762 0.0
H3230 H 0.0555 0.62656 0.69633 0.0
H3231 H 0.04079 0.61269 0.6625 0.0
C3232 C 0.61452 0.17918 0.68338 0.0
C3233 C 0.59621 0.1775 0.68112 0.0
C3234 C 0.62253 0.19578 0.68368 0.0
C3235 C 0.612 0.21105 0.68128 0.0
C3236 C 0.59351 0.20942 0.67911 0.0
C3237 C 0.58586 0.19268 0.67921 0.0
C3238 C 0.64227 0.19698 0.68638 0.0
C3239 C 0.58181 0.22536 0.676 0.0
C3240 C 0.6294 0.25579 0.71917 0.0
C3241 C 0.63322 0.26346 0.67437 0.0
C3242 C 0.62301 0.23853 0.72214 0.0
C3243 C 0.62022 0.22877 0.67929 0.0
C3244 C 0.62441 0.23631 0.63408 0.0
C3245 C 0.63084 0.25353 0.63219 0.0
C3246 C 0.61883 0.23088 0.77104 0.0
C3247 C 0.6215 0.22642 0.58751 0.0
H3248 H 0.62256 0.1675 0.68564 0.0
H3249 H 0.57174 0.19145 0.67694 0.0
H3250 H 0.64742 0.20354 0.6536 0.0
H3251 H 0.64618 0.20509 0.71784 0.0
H3252 H 0.64855 0.18389 0.6896 0.0
H3253 H 0.56767 0.22185 0.67546 0.0
H3254 H 0.58424 0.23416 0.70718 0.0
H3255 H 0.58489 0.23288 0.64281 0.0
H3256 H 0.6313 0.26336 0.75189 0.0
H3257 H 0.63341 0.25944 0.59734 0.0
H3258 H 0.62555 0.21809 0.77557 0.0
H3259 H 0.60453 0.22842 0.77389 0.0
H3260 H 0.62281 0.23972 0.801 0.0
H3261 H 0.6283 0.21356 0.58872 0.0
H3262 H 0.62628 0.23379 0.55555 0.0
H3263 H 0.60731 0.22375 0.58275 0.0
C3264 C 0.99526 0.36263 0.92913 0.0
C3265 C 0.99122 0.38048 0.93378 0.0
C3266 C 0.0127 0.35685 0.92802 0.0
C3267 C 0.02646 0.3692 0.93238 0.0
C3268 C 0.02247 0.38721 0.93856 0.0
C3269 C 0.00486 0.39267 0.93864 0.0
C3270 C 0.01639 0.33756 0.92068 0.0
C3271 C 0.03679 0.40071 0.94432 0.0
C3272 C 0.07026 0.34923 0.96665 0.0
C3273 C 0.07856 0.34795 0.92166 0.0
C3274 C 0.05364 0.35695 0.97108 0.0
C3275 C 0.04498 0.36316 0.92929 0.0
C3276 C 0.05354 0.36232 0.88391 0.0
C3277 C 0.07036 0.35489 0.88077 0.0
C3278 C 0.04516 0.35799 0.02025 0.0
C3279 C 0.04465 0.36856 0.83839 0.0
H3280 H 0.98474 0.35321 0.92442 0.0
H3281 H 0.00173 0.40649 0.9422 0.0
H3282 H 0.02408 0.33565 0.88707 0.0
H3283 H 0.0244 0.33245 0.95095 0.0
H3284 H 0.00418 0.32966 0.91814 0.0
H3285 H 0.03148 0.41401 0.9518 0.0
H3286 H 0.04569 0.39692 0.97423 0.0
H3287 H 0.04482 0.40129 0.91096 0.0
H3288 H 0.07682 0.34414 0.99837 0.0
H3289 H 0.07684 0.35384 0.84607 0.0
H3290 H 0.0337 0.34905 0.02163 0.0
H3291 H 0.04026 0.37147 0.02713 0.0
H3292 H 0.05436 0.35432 0.04962 0.0
H3293 H 0.0329 0.36038 0.83124 0.0
H3294 H 0.05345 0.36785 0.80646 0.0
H3295 H 0.0401 0.38228 0.84278 0.0
C3296 C 0.91684 0.81023 0.16517 0.0
C3297 C 0.90659 0.82548 0.16724 0.0
C3298 C 0.90914 0.79355 0.16772 0.0
C3299 C 0.89072 0.79205 0.17278 0.0
C3300 C 0.8803 0.80739 0.17568 0.0
C3301 C 0.88836 0.82393 0.1727 0.0
C3302 C 0.9207 0.77751 0.1641 0.0
C3303 C 0.86065 0.80634 0.18146 0.0
C3304 C 0.87082 0.7494 0.12827 0.0
C3305 C 0.86911 0.73976 0.17117 0.0
C3306 C 0.87736 0.76658 0.12853 0.0
C3307 C 0.88236 0.77439 0.17277 0.0
C3308 C 0.88023 0.76495 0.2164 0.0
C3309 C 0.87369 0.74771 0.21507 0.0
C3310 C 0.87952 0.77614 0.08117 0.0
C3311 C 0.8853 0.77289 0.26432 0.0
H3312 H 0.9309 0.81137 0.16055 0.0
H3313 H 0.88041 0.83566 0.17523 0.0
H3314 H 0.91869 0.76896 0.19598 0.0
H3315 H 0.91708 0.76977 0.13168 0.0
H3316 H 0.93484 0.78093 0.16171 0.0
H3317 H 0.85452 0.81949 0.18536 0.0
H3318 H 0.85482 0.79971 0.14963 0.0
H3319 H 0.85729 0.79836 0.21362 0.0
H3320 H 0.86767 0.74326 0.09406 0.0
H3321 H 0.87231 0.74038 0.24835 0.0
H3322 H 0.89363 0.77868 0.07438 0.0
H3323 H 0.87282 0.78905 0.08271 0.0
H3324 H 0.87415 0.76859 0.05023 0.0
H3325 H 0.89966 0.77522 0.26519 0.0
H3326 H 0.88174 0.76432 0.29519 0.0
H3327 H 0.8788 0.7858 0.2691 0.0
C3328 C 0.44411 0.66196 0.42806 0.0
C3329 C 0.42822 0.65312 0.43575 0.0
C3330 C 0.46023 0.65323 0.43174 0.0
C3331 C 0.46054 0.63516 0.44345 0.0
C3332 C 0.4446 0.62621 0.45233 0.0
C3333 C 0.42862 0.63528 0.4482 0.0
C3334 C 0.47692 0.66326 0.42179 0.0
C3335 C 0.4444 0.60698 0.46517 0.0
C3336 C 0.5012 0.61191 0.3978 0.0
C3337 C 0.51205 0.61207 0.43873 0.0
C3338 C 0.48405 0.61851 0.39962 0.0
C3339 C 0.47756 0.62559 0.44333 0.0
C3340 C 0.48809 0.62504 0.48538 0.0
C3341 C 0.50523 0.61829 0.48258 0.0
C3342 C 0.47325 0.61882 0.35393 0.0
C3343 C 0.48159 0.63238 0.53274 0.0
H3344 H 0.44393 0.67565 0.4178 0.0
H3345 H 0.41643 0.62841 0.45482 0.0
H3346 H 0.4861 0.66193 0.45261 0.0
H3347 H 0.48355 0.65773 0.38952 0.0
H3348 H 0.47447 0.67743 0.41539 0.0
H3349 H 0.43106 0.60231 0.47492 0.0
H3350 H 0.44921 0.59916 0.43408 0.0
H3351 H 0.45337 0.60441 0.49587 0.0
H3352 H 0.50637 0.60745 0.36349 0.0
H3353 H 0.51344 0.61828 0.5145 0.0
H3354 H 0.4715 0.63258 0.34184 0.0
H3355 H 0.46001 0.61333 0.36068 0.0
H3356 H 0.4795 0.61128 0.32422 0.0
H3357 H 0.4805 0.64686 0.53002 0.0
H3358 H 0.49052 0.62917 0.56315 0.0
H3359 H 0.46833 0.62724 0.54111 0.0
C3360 C 0.41395 0.19174 0.17872 0.0
C3361 C 0.40414 0.17622 0.18057 0.0
C3362 C 0.40577 0.20819 0.18194 0.0
C3363 C 0.38733 0.20913 0.18752 0.0
C3364 C 0.37738 0.19349 0.19032 0.0
C3365 C 0.3859 0.17722 0.18662 0.0
C3366 C 0.41684 0.22456 0.17838 0.0
C3367 C 0.35772 0.19396 0.1967 0.0
C3368 C 0.36935 0.25301 0.23051 0.0
C3369 C 0.36452 0.26087 0.18673 0.0
C3370 C 0.37624 0.23591 0.23161 0.0
C3371 C 0.37847 0.22653 0.18787 0.0
C3372 C 0.37316 0.23421 0.14378 0.0
C3373 C 0.36627 0.25125 0.14375 0.0
C3374 C 0.38162 0.22808 0.27937 0.0
C3375 C 0.3754 0.2247 0.09631 0.0
H3376 H 0.42802 0.19101 0.17373 0.0
H3377 H 0.37831 0.16524 0.189 0.0
H3378 H 0.41291 0.23223 0.14615 0.0
H3379 H 0.41466 0.23301 0.21043 0.0
H3380 H 0.43107 0.22156 0.17566 0.0
H3381 H 0.35202 0.18064 0.20085 0.0
H3382 H 0.35424 0.20189 0.22892 0.0
H3383 H 0.35157 0.20036 0.165 0.0
H3384 H 0.36795 0.26034 0.26383 0.0
H3385 H 0.36293 0.25732 0.10963 0.0
H3386 H 0.39606 0.22625 0.28009 0.0
H3387 H 0.37558 0.21496 0.28402 0.0
H3388 H 0.3778 0.2365 0.31039 0.0
H3389 H 0.38956 0.22258 0.08909 0.0
H3390 H 0.36969 0.23209 0.06557 0.0
H3391 H 0.3691 0.21161 0.09797 0.0
C3392 C 0.50277 0.60769 0.94695 0.0
C3393 C 0.48904 0.61984 0.94322 0.0
C3394 C 0.52036 0.61324 0.94719 0.0
C3395 C 0.52425 0.63133 0.94247 0.0
C3396 C 0.5104 0.64364 0.93922 0.0
C3397 C 0.49298 0.63776 0.94001 0.0
C3398 C 0.53476 0.59977 0.95175 0.0
C3399 C 0.51397 0.66301 0.93342 0.0
C3400 C 0.56812 0.65082 0.97871 0.0
C3401 C 0.57653 0.65245 0.93396 0.0
C3402 C 0.55141 0.64322 0.98231 0.0
C3403 C 0.54276 0.6375 0.93995 0.0
C3404 C 0.55139 0.63876 0.89474 0.0
C3405 C 0.56829 0.64606 0.8924 0.0
C3406 C 0.54286 0.64172 0.0313 0.0
C3407 C 0.54252 0.63306 0.84864 0.0
H3408 H 0.49973 0.59383 0.94938 0.0
H3409 H 0.4824 0.64716 0.93617 0.0
H3410 H 0.54279 0.5996 0.91837 0.0
H3411 H 0.54363 0.60328 0.982 0.0
H3412 H 0.52954 0.58637 0.95803 0.0
H3413 H 0.50172 0.67087 0.93157 0.0
H3414 H 0.52196 0.66787 0.96407 0.0
H3415 H 0.52164 0.6653 0.89996 0.0
H3416 H 0.57468 0.65549 0.01094 0.0
H3417 H 0.57484 0.64739 0.85787 0.0
H3418 H 0.53807 0.62815 0.03719 0.0
H3419 H 0.53131 0.65054 0.03314 0.0
H3420 H 0.55198 0.64523 0.06103 0.0
H3421 H 0.53803 0.61927 0.85169 0.0
H3422 H 0.55131 0.63418 0.8168 0.0
H3423 H 0.53073 0.64127 0.84231 0.0
C3424 C 0.10149 0.81557 0.71857 0.0
C3425 C 0.1003 0.82565 0.67644 0.0
C3426 C 0.10883 0.7987 0.71769 0.0
C3427 C 0.11483 0.79163 0.6734 0.0
C3428 C 0.11403 0.80193 0.6309 0.0
C3429 C 0.10692 0.81892 0.63306 0.0
C3430 C 0.10979 0.78831 0.76397 0.0
C3431 C 0.12004 0.79478 0.58285 0.0
C3432 C 0.14402 0.75108 0.67352 0.0
C3433 C 0.13171 0.7377 0.66619 0.0
C3434 C 0.13874 0.76872 0.6765 0.0
C3435 C 0.12078 0.77304 0.67102 0.0
C3436 C 0.10833 0.75955 0.66344 0.0
C3437 C 0.11393 0.74205 0.66148 0.0
C3438 C 0.15234 0.78272 0.68551 0.0
C3439 C 0.08909 0.7636 0.6567 0.0
H3440 H 0.09667 0.82093 0.75229 0.0
H3441 H 0.10593 0.82672 0.60052 0.0
H3442 H 0.10093 0.7768 0.76165 0.0
H3443 H 0.12328 0.78325 0.76952 0.0
H3444 H 0.10597 0.79624 0.79595 0.0
H3445 H 0.11943 0.80478 0.55377 0.0
H3446 H 0.1337 0.78987 0.58554 0.0
H3447 H 0.11167 0.7835 0.57239 0.0
H3448 H 0.15777 0.74772 0.67718 0.0
H3449 H 0.10442 0.73175 0.6549 0.0
H3450 H 0.1489 0.79028 0.71841 0.0
H3451 H 0.15257 0.7921 0.65495 0.0
H3452 H 0.1657 0.77716 0.69008 0.0
H3453 H 0.08389 0.77039 0.68912 0.0
H3454 H 0.08115 0.75161 0.65029 0.0
H3455 H 0.08734 0.7726 0.62562 0.0
C3456 C 0.93312 0.35938 0.38369 0.0
C3457 C 0.9253 0.3529 0.42574 0.0
C3458 C 0.9501 0.3665 0.38477 0.0
C3459 C 0.95927 0.36742 0.42919 0.0
C3460 C 0.95101 0.36173 0.47216 0.0
C3461 C 0.93418 0.35439 0.46982 0.0
C3462 C 0.95853 0.37225 0.33808 0.0
C3463 C 0.96018 0.36283 0.52035 0.0
C3464 C 0.00893 0.36534 0.42405 0.0
C3465 C 0.01358 0.38307 0.42801 0.0
C3466 C 0.99131 0.36012 0.42475 0.0
C3467 C 0.97799 0.37291 0.43006 0.0
C3468 C 0.9826 0.3908 0.43536 0.0
C3469 C 0.00037 0.3957 0.43383 0.0
C3470 C 0.98695 0.34092 0.41848 0.0
C3471 C 0.96877 0.40477 0.44194 0.0
H3472 H 0.92622 0.35817 0.34967 0.0
H3473 H 0.92795 0.34967 0.50248 0.0
H3474 H 0.96364 0.38581 0.34152 0.0
H3475 H 0.96985 0.36361 0.32983 0.0
H3476 H 0.94924 0.37177 0.30724 0.0
H3477 H 0.95127 0.35964 0.55084 0.0
H3478 H 0.97137 0.35354 0.52098 0.0
H3479 H 0.96558 0.37618 0.52603 0.0
H3480 H 0.01907 0.35557 0.41858 0.0
H3481 H 0.00395 0.40941 0.43693 0.0
H3482 H 0.97877 0.3391 0.38574 0.0
H3483 H 0.97918 0.3362 0.44973 0.0
H3484 H 0.99886 0.33263 0.41503 0.0
H3485 H 0.96029 0.40535 0.40949 0.0
H3486 H 0.97456 0.41795 0.44807 0.0
H3487 H 0.96022 0.40146 0.47304 0.0
C3488 C 0.39691 0.8178 0.39422 0.0
C3489 C 0.39992 0.82716 0.35169 0.0
C3490 C 0.38915 0.8011 0.39286 0.0
C3491 C 0.38381 0.79395 0.34795 0.0
C3492 C 0.38604 0.80384 0.30516 0.0
C3493 C 0.39435 0.82024 0.30748 0.0
C3494 C 0.38737 0.79083 0.43916 0.0
C3495 C 0.38003 0.79696 0.25682 0.0
C3496 C 0.38288 0.74437 0.33663 0.0
C3497 C 0.36522 0.74063 0.34586 0.0
C3498 C 0.38904 0.76169 0.3369 0.0
C3499 C 0.37715 0.77562 0.34538 0.0
C3500 C 0.35914 0.77193 0.35289 0.0
C3501 C 0.35342 0.7544 0.35388 0.0
C3502 C 0.40841 0.765 0.32988 0.0
C3503 C 0.34598 0.78646 0.36061 0.0
H3504 H 0.40129 0.82328 0.42824 0.0
H3505 H 0.3965 0.82773 0.27478 0.0
H3506 H 0.37359 0.78663 0.44445 0.0
H3507 H 0.39551 0.77878 0.43702 0.0
H3508 H 0.39155 0.79853 0.47121 0.0
H3509 H 0.38084 0.8071 0.22813 0.0
H3510 H 0.38829 0.78564 0.246 0.0
H3511 H 0.3663 0.79223 0.25923 0.0
H3512 H 0.39203 0.73365 0.33125 0.0
H3513 H 0.33977 0.75143 0.36118 0.0
H3514 H 0.41383 0.77171 0.36216 0.0
H3515 H 0.41053 0.7738 0.29857 0.0
H3516 H 0.4159 0.7527 0.32381 0.0
H3517 H 0.34882 0.79335 0.39498 0.0
H3518 H 0.3323 0.78148 0.3619 0.0
H3519 H 0.34704 0.79628 0.33121 0.0
C3520 C 0.00058 0.60661 0.07419 0.0
C3521 C 0.01445 0.61842 0.08102 0.0
C3522 C 0.98305 0.61238 0.07505 0.0
C3523 C 0.97935 0.63032 0.0838 0.0
C3524 C 0.99333 0.64226 0.09088 0.0
C3525 C 0.01068 0.63618 0.08915 0.0
C3526 C 0.9685 0.59932 0.06663 0.0
C3527 C 0.98997 0.66144 0.10095 0.0
C3528 C 0.93641 0.65149 0.04617 0.0
C3529 C 0.9273 0.65228 0.09008 0.0
C3530 C 0.95305 0.64371 0.04321 0.0
C3531 C 0.96091 0.63679 0.08538 0.0
C3532 C 0.95157 0.63717 0.12963 0.0
C3533 C 0.93479 0.64478 0.13133 0.0
C3534 C 0.9624 0.64328 0.99517 0.0
C3535 C 0.95956 0.63013 0.17552 0.0
H3536 H 0.00346 0.59287 0.06793 0.0
H3537 H 0.02134 0.64531 0.09548 0.0
H3538 H 0.95978 0.59881 0.09865 0.0
H3539 H 0.96036 0.60352 0.03555 0.0
H3540 H 0.97358 0.58591 0.05939 0.0
H3541 H 0.00229 0.66896 0.10631 0.0
H3542 H 0.98262 0.66739 0.07053 0.0
H3543 H 0.98173 0.66286 0.13376 0.0
H3544 H 0.93046 0.65697 0.01405 0.0
H3545 H 0.92774 0.64543 0.16526 0.0
H3546 H 0.96694 0.62977 0.987 0.0
H3547 H 0.9742 0.65178 0.9967 0.0
H3548 H 0.95391 0.64786 0.96514 0.0
H3549 H 0.96397 0.6164 0.17018 0.0
H3550 H 0.95022 0.63052 0.20631 0.0
H3551 H 0.9713 0.63799 0.18511 0.0
C3552 C 0.11646 0.25851 0.82939 0.0
C3553 C 0.13394 0.26263 0.81868 0.0
C3554 C 0.11056 0.24113 0.82887 0.0
C3555 C 0.12236 0.22751 0.81654 0.0
C3556 C 0.13994 0.23161 0.80433 0.0
C3557 C 0.1456 0.24915 0.80618 0.0
C3558 C 0.0918 0.23731 0.843 0.0
C3559 C 0.15277 0.21746 0.79001 0.0
C3560 C 0.10964 0.18278 0.86501 0.0
C3561 C 0.10006 0.17591 0.8263 0.0
C3562 C 0.1176 0.19932 0.86173 0.0
C3563 C 0.11626 0.20899 0.81822 0.0
C3564 C 0.10748 0.20158 0.77805 0.0
C3565 C 0.09927 0.18521 0.78282 0.0
C3566 C 0.12654 0.20687 0.90569 0.0
C3567 C 0.10615 0.21125 0.73069 0.0
H3568 H 0.10752 0.26889 0.83997 0.0
H3569 H 0.15913 0.25236 0.79796 0.0
H3570 H 0.08501 0.23029 0.81334 0.0
H3571 H 0.09156 0.22862 0.8751 0.0
H3572 H 0.08431 0.24942 0.85152 0.0
H3573 H 0.16558 0.22294 0.77824 0.0
H3574 H 0.15508 0.20854 0.82095 0.0
H3575 H 0.14727 0.20943 0.76024 0.0
H3576 H 0.11012 0.17556 0.89866 0.0
H3577 H 0.09205 0.1797 0.75274 0.0
H3578 H 0.11905 0.21841 0.91883 0.0
H3579 H 0.13991 0.21148 0.89639 0.0
H3580 H 0.12753 0.1972 0.93552 0.0
H3581 H 0.0973 0.2227 0.73488 0.0
H3582 H 0.10096 0.20278 0.70136 0.0
H3583 H 0.1192 0.21632 0.7197 0.0
C3584 C 0.50131 0.39566 0.59079 0.0
C3585 C 0.48773 0.38353 0.59766 0.0
C3586 C 0.51892 0.39015 0.58911 0.0
C3587 C 0.52299 0.37217 0.59544 0.0
C3588 C 0.50929 0.35991 0.60247 0.0
C3589 C 0.49185 0.36572 0.60319 0.0
C3590 C 0.53315 0.40356 0.58071 0.0
C3591 C 0.51306 0.34066 0.61006 0.0
C3592 C 0.56579 0.35211 0.55217 0.0
C3593 C 0.57538 0.35095 0.5952 0.0
C3594 C 0.54903 0.3597 0.55134 0.0
C3595 C 0.54154 0.366 0.5948 0.0
C3596 C 0.55134 0.36523 0.63819 0.0
C3597 C 0.56824 0.35786 0.63775 0.0
C3598 C 0.53917 0.36058 0.50416 0.0
C3599 C 0.54374 0.37157 0.68541 0.0
H3600 H 0.49814 0.40943 0.58658 0.0
H3601 H 0.48141 0.35635 0.60952 0.0
H3602 H 0.54218 0.40388 0.61206 0.0
H3603 H 0.54105 0.39984 0.54864 0.0
H3604 H 0.52778 0.41694 0.57507 0.0
H3605 H 0.50092 0.33286 0.61562 0.0
H3606 H 0.52016 0.33527 0.5784 0.0
H3607 H 0.52167 0.33893 0.64198 0.0
H3608 H 0.57146 0.34708 0.51908 0.0
H3609 H 0.57565 0.3569 0.671 0.0
H3610 H 0.53433 0.37411 0.49778 0.0
H3611 H 0.52754 0.35187 0.50576 0.0
H3612 H 0.54741 0.35654 0.473 0.0
H3613 H 0.53906 0.38528 0.68183 0.0
H3614 H 0.55341 0.37096 0.71534 0.0
H3615 H 0.53224 0.3634 0.69518 0.0
loop_
_geom_bond_atom_site_label_1
_geom_bond_atom_site_label_2
_geom_bond_distance
_geom_bond_site_symmetry_2
_ccdc_geom_bond_type
C0 C1 1.351 . S
C0 N3 1.368 . S
C0 H5 0.931 . S
C1 C0 1.351 . S
C1 N2 1.373 . S
C1 H29 0.930 . S
N2 C1 1.373 . S
N2 C4 1.340 . S
N3 C0 1.368 . S
N3 C4 1.321 . S
N3 Co6 2.135 . S
C4 N2 1.340 . S
C4 N3 1.321 . S
C4 H28 0.930 . S
H5 C0 0.931 . S
Co6 N3 2.135 . S
Co6 N9 2.121 . S
Co6 O14 2.055 . S
Co6 O17 2.039 . S
Co6 N20 2.140 . S
C7 O8 1.227 . S
C7 O17 1.265 . S
O8 C7 1.227 . S
N9 Co6 2.121 . S
N9 C11 1.375 . S
N9 C12 1.313 . S
C10 C11 1.338 . S
C10 N13 1.377 . S
C10 H30 0.930 . S
C11 N9 1.375 . S
C11 C10 1.338 . S
C11 H15 0.931 . S
C12 N9 1.313 . S
C12 N13 1.344 . S
C12 H16 0.930 . S
N13 C10 1.377 . S
N13 C12 1.344 . S
O14 Co6 2.055 . S
O14 C18 1.253 . S
H15 C11 0.931 . S
H16 C12 0.930 . S
O17 Co6 2.039 . S
O17 C7 1.265 . S
C18 O14 1.253 . S
C18 O19 1.227 . S
O19 C18 1.227 . S
N20 Co6 2.140 . S
N20 C23 1.346 . S
N20 C24 1.345 . S
C21 C22 1.387 . S
C21 C25 1.391 . S
C22 C21 1.387 . S
C22 C23 1.369 . S
C22 H31 0.929 . S
C23 N20 1.346 . S
C23 C22 1.369 . S
C23 H26 0.928 . S
C24 N20 1.345 . S
C24 C25 1.371 . S
C24 H27 0.931 . S
C25 C21 1.391 . S
C25 C24 1.371 . S
C25 H32 0.930 . S
H26 C23 0.928 . S
H27 C24 0.931 . S
H28 C4 0.930 . S
H29 C1 0.930 . S
H30 C10 0.930 . S
H31 C22 0.929 . S
H32 C25 0.930 . S
C33 C34 1.351 . S
C33 N36 1.368 . S
C33 H38 0.931 . S
C34 C33 1.351 . S
C34 N35 1.373 . S
C34 H62 0.930 . S
N35 C34 1.373 . S
N35 C37 1.340 . S
N36 C33 1.368 . S
N36 C37 1.321 . S
N36 Co39 2.135 . S
C37 N35 1.340 . S
C37 N36 1.321 . S
C37 H61 0.930 . S
H38 C33 0.931 . S
Co39 N36 2.135 . S
Co39 N42 2.121 . S
Co39 O47 2.055 . S
Co39 O50 2.039 . S
Co39 N53 2.140 . S
C40 O41 1.227 . S
C40 O50 1.265 . S
O41 C40 1.227 . S
N42 Co39 2.121 . S
N42 C44 1.375 . S
N42 C45 1.313 . S
C43 C44 1.338 . S
C43 N46 1.377 . S
C43 H63 0.930 . S
C44 N42 1.375 . S
C44 C43 1.338 . S
C44 H48 0.931 . S
C45 N42 1.313 . S
C45 N46 1.344 . S
C45 H49 0.930 . S
N46 C43 1.377 . S
N46 C45 1.344 . S
O47 Co39 2.055 . S
O47 C51 1.253 . S
H48 C44 0.931 . S
H49 C45 0.930 . S
O50 Co39 2.039 . S
O50 C40 1.265 . S
C51 O47 1.253 . S
C51 O52 1.227 . S
O52 C51 1.227 . S
N53 Co39 2.140 . S
N53 C56 1.346 . S
N53 C57 1.345 . S
C54 C55 1.387 . S
C54 C58 1.391 . S
C55 C54 1.387 . S
C55 C56 1.369 . S
C55 H64 0.929 . S
C56 N53 1.346 . S
C56 C55 1.369 . S
C56 H59 0.928 . S
C57 N53 1.345 . S
C57 C58 1.371 . S
C57 H60 0.931 . S
C58 C54 1.391 . S
C58 C57 1.371 . S
C58 H65 0.930 . S
H59 C56 0.928 . S
H60 C57 0.931 . S
H61 C37 0.930 . S
H62 C34 0.930 . S
H63 C43 0.930 . S
H64 C55 0.929 . S
H65 C58 0.930 . S
C66 C67 1.351 . S
C66 N69 1.368 . S
C66 H71 0.931 . S
C67 C66 1.351 . S
C67 N68 1.373 . S
C67 H95 0.930 . S
N68 C67 1.373 . S
N68 C70 1.340 . S
N69 C66 1.368 . S
N69 C70 1.321 . S
N69 Co72 2.135 . S
C70 N68 1.340 . S
C70 N69 1.321 . S
C70 H94 0.930 . S
H71 C66 0.931 . S
Co72 N69 2.135 . S
Co72 N75 2.121 . S
Co72 O80 2.055 . S
Co72 O83 2.039 . S
Co72 N86 2.140 . S
C73 O74 1.227 . S
C73 O83 1.265 . S
O74 C73 1.227 . S
N75 Co72 2.121 . S
N75 C77 1.375 . S
N75 C78 1.313 . S
C76 C77 1.338 . S
C76 N79 1.377 . S
C76 H96 0.930 . S
C77 N75 1.375 . S
C77 C76 1.338 . S
C77 H81 0.931 . S
C78 N75 1.313 . S
C78 N79 1.344 . S
C78 H82 0.930 . S
N79 C76 1.377 . S
N79 C78 1.344 . S
O80 Co72 2.055 . S
O80 C84 1.253 . S
H81 C77 0.931 . S
H82 C78 0.930 . S
O83 Co72 2.039 . S
O83 C73 1.265 . S
C84 O80 1.253 . S
C84 O85 1.227 . S
O85 C84 1.227 . S
N86 Co72 2.140 . S
N86 C89 1.346 . S
N86 C90 1.345 . S
C87 C88 1.387 . S
C87 C91 1.391 . S
C88 C87 1.387 . S
C88 C89 1.369 . S
C88 H97 0.929 . S
C89 N86 1.346 . S
C89 C88 1.369 . S
C89 H92 0.928 . S
C90 N86 1.345 . S
C90 C91 1.371 . S
C90 H93 0.931 . S
C91 C87 1.391 . S
C91 C90 1.371 . S
C91 H98 0.930 . S
H92 C89 0.928 . S
H93 C90 0.931 . S
H94 C70 0.930 . S
H95 C67 0.930 . S
H96 C76 0.930 . S
H97 C88 0.929 . S
H98 C91 0.930 . S
C99 C100 1.351 . S
C99 N102 1.368 . S
C99 H104 0.931 . S
C100 C99 1.351 . S
C100 N101 1.373 . S
C100 H128 0.930 . S
N101 C100 1.373 . S
N101 C103 1.340 . S
N102 C99 1.368 . S
N102 C103 1.321 . S
N102 Co105 2.135 . S
C103 N101 1.340 . S
C103 N102 1.321 . S
C103 H127 0.930 . S
H104 C99 0.931 . S
Co105 N102 2.135 . S
Co105 N108 2.121 . S
Co105 O113 2.055 . S
Co105 O116 2.039 . S
Co105 N119 2.140 . S
C106 O107 1.227 . S
C106 O116 1.265 . S
O107 C106 1.227 . S
N108 Co105 2.121 . S
N108 C110 1.375 . S
N108 C111 1.313 . S
C109 C110 1.338 . S
C109 N112 1.377 . S
C109 H129 0.930 . S
C110 N108 1.375 . S
C110 C109 1.338 . S
C110 H114 0.931 . S
C111 N108 1.313 . S
C111 N112 1.344 . S
C111 H115 0.930 . S
N112 C109 1.377 . S
N112 C111 1.344 . S
O113 Co105 2.055 . S
O113 C117 1.253 . S
H114 C110 0.931 . S
H115 C111 0.930 . S
O116 Co105 2.039 . S
O116 C106 1.265 . S
C117 O113 1.253 . S
C117 O118 1.227 . S
O118 C117 1.227 . S
N119 Co105 2.140 . S
N119 C122 1.346 . S
N119 C123 1.345 . S
C120 C121 1.387 . S
C120 C124 1.391 . S
C121 C120 1.387 . S
C121 C122 1.369 . S
C121 H130 0.929 . S
C122 N119 1.346 . S
C122 C121 1.369 . S
C122 H125 0.928 . S
C123 N119 1.345 . S
C123 C124 1.371 . S
C123 H126 0.931 . S
C124 C120 1.391 . S
C124 C123 1.371 . S
C124 H131 0.930 . S
H125 C122 0.928 . S
H126 C123 0.931 . S
H127 C103 0.930 . S
H128 C100 0.930 . S
H129 C109 0.930 . S
H130 C121 0.929 . S
H131 C124 0.930 . S
C132 C133 1.351 . S
C132 N135 1.368 . S
C132 H137 0.931 . S
C133 C132 1.351 . S
C133 N134 1.373 . S
C133 H161 0.930 . S
N134 C133 1.373 . S
N134 C136 1.340 . S
N135 C132 1.368 . S
N135 C136 1.321 . S
N135 Co138 2.135 . S
C136 N134 1.340 . S
C136 N135 1.321 . S
C136 H160 0.930 . S
H137 C132 0.931 . S
Co138 N135 2.135 . S
Co138 N141 2.121 . S
Co138 O146 2.055 . S
Co138 O149 2.039 . S
Co138 N152 2.140 . S
C139 O140 1.227 . S
C139 O149 1.265 . S
O140 C139 1.227 . S
N141 Co138 2.121 . S
N141 C143 1.375 . S
N141 C144 1.313 . S
C142 C143 1.338 . S
C142 N145 1.377 . S
C142 H162 0.930 . S
C143 N141 1.375 . S
C143 C142 1.338 . S
C143 H147 0.931 . S
C144 N141 1.313 . S
C144 N145 1.344 . S
C144 H148 0.930 . S
N145 C142 1.377 . S
N145 C144 1.344 . S
O146 Co138 2.055 . S
O146 C150 1.253 . S
H147 C143 0.931 . S
H148 C144 0.930 . S
O149 Co138 2.039 . S
O149 C139 1.265 . S
C150 O146 1.253 . S
C150 O151 1.227 . S
O151 C150 1.227 . S
N152 Co138 2.140 . S
N152 C155 1.346 . S
N152 C156 1.345 . S
C153 C154 1.387 . S
C153 C157 1.391 . S
C154 C153 1.387 . S
C154 C155 1.369 . S
C154 H163 0.929 . S
C155 N152 1.346 . S
C155 C154 1.369 . S
C155 H158 0.928 . S
C156 N152 1.345 . S
C156 C157 1.371 . S
C156 H159 0.931 . S
C157 C153 1.391 . S
C157 C156 1.371 . S
C157 H164 0.930 . S
H158 C155 0.928 . S
H159 C156 0.931 . S
H160 C136 0.930 . S
H161 C133 0.930 . S
H162 C142 0.930 . S
H163 C154 0.929 . S
H164 C157 0.930 . S
C165 C166 1.351 . S
C165 N168 1.368 . S
C165 H170 0.931 . S
C166 C165 1.351 . S
C166 N167 1.373 . S
C166 H194 0.930 . S
N167 C166 1.373 . S
N167 C169 1.340 . S
N168 C165 1.368 . S
N168 C169 1.321 . S
N168 Co171 2.135 . S
C169 N167 1.340 . S
C169 N168 1.321 . S
C169 H193 0.930 . S
H170 C165 0.931 . S
Co171 N168 2.135 . S
Co171 N174 2.121 . S
Co171 O179 2.055 . S
Co171 O182 2.039 . S
Co171 N185 2.140 . S
C172 O173 1.227 . S
C172 O182 1.265 . S
O173 C172 1.227 . S
N174 Co171 2.121 . S
N174 C176 1.375 . S
N174 C177 1.313 . S
C175 C176 1.338 . S
C175 N178 1.377 . S
C175 H195 0.930 . S
C176 N174 1.375 . S
C176 C175 1.338 . S
C176 H180 0.931 . S
C177 N174 1.313 . S
C177 N178 1.344 . S
C177 H181 0.930 . S
N178 C175 1.377 . S
N178 C177 1.344 . S
O179 Co171 2.055 . S
O179 C183 1.253 . S
H180 C176 0.931 . S
H181 C177 0.930 . S
O182 Co171 2.039 . S
O182 C172 1.265 . S
C183 O179 1.253 . S
C183 O184 1.227 . S
O184 C183 1.227 . S
N185 Co171 2.140 . S
N185 C188 1.346 . S
N185 C189 1.345 . S
C186 C187 1.387 . S
C186 C190 1.391 . S
C187 C186 1.387 . S
C187 C188 1.369 . S
C187 H196 0.929 . S
C188 N185 1.346 . S
C188 C187 1.369 . S
C188 H191 0.928 . S
C189 N185 1.345 . S
C189 C190 1.371 . S
C189 H192 0.931 . S
C190 C186 1.391 . S
C190 C189 1.371 . S
C190 H197 0.930 . S
H191 C188 0.928 . S
H192 C189 0.931 . S
H193 C169 0.930 . S
H194 C166 0.930 . S
H195 C175 0.930 . S
H196 C187 0.929 . S
H197 C190 0.930 . S
C198 C199 1.351 . S
C198 N201 1.368 . S
C198 H203 0.931 . S
C199 C198 1.351 . S
C199 N200 1.373 . S
C199 H227 0.930 . S
N200 C199 1.373 . S
N200 C202 1.340 . S
N201 C198 1.368 . S
N201 C202 1.321 . S
N201 Co204 2.135 . S
C202 N200 1.340 . S
C202 N201 1.321 . S
C202 H226 0.930 . S
H203 C198 0.931 . S
Co204 N201 2.135 . S
Co204 N207 2.121 . S
Co204 O212 2.055 . S
Co204 O215 2.039 . S
Co204 N218 2.140 . S
C205 O206 1.227 . S
C205 O215 1.265 . S
O206 C205 1.227 . S
N207 Co204 2.121 . S
N207 C209 1.375 . S
N207 C210 1.313 . S
C208 C209 1.338 . S
C208 N211 1.377 . S
C208 H228 0.930 . S
C209 N207 1.375 . S
C209 C208 1.338 . S
C209 H213 0.931 . S
C210 N207 1.313 . S
C210 N211 1.344 . S
C210 H214 0.930 . S
N211 C208 1.377 . S
N211 C210 1.344 . S
O212 Co204 2.055 . S
O212 C216 1.253 . S
H213 C209 0.931 . S
H214 C210 0.930 . S
O215 Co204 2.039 . S
O215 C205 1.265 . S
C216 O212 1.253 . S
C216 O217 1.227 . S
O217 C216 1.227 . S
N218 Co204 2.140 . S
N218 C221 1.346 . S
N218 C222 1.345 . S
C219 C220 1.387 . S
C219 C223 1.391 . S
C220 C219 1.387 . S
C220 C221 1.369 . S
C220 H229 0.929 . S
C221 N218 1.346 . S
C221 C220 1.369 . S
C221 H224 0.928 . S
C222 N218 1.345 . S
C222 C223 1.371 . S
C222 H225 0.931 . S
C223 C219 1.391 . S
C223 C222 1.371 . S
C223 H230 0.930 . S
H224 C221 0.928 . S
H225 C222 0.931 . S
H226 C202 0.930 . S
H227 C199 0.930 . S
H228 C208 0.930 . S
H229 C220 0.929 . S
H230 C223 0.930 . S
C231 C232 1.351 . S
C231 N234 1.368 . S
C231 H236 0.931 . S
C232 C231 1.351 . S
C232 N233 1.373 . S
C232 H260 0.930 . S
N233 C232 1.373 . S
N233 C235 1.340 . S
N234 C231 1.368 . S
N234 C235 1.321 . S
N234 Co237 2.135 . S
C235 N233 1.340 . S
C235 N234 1.321 . S
C235 H259 0.930 . S
H236 C231 0.931 . S
Co237 N234 2.135 . S
Co237 N240 2.121 . S
Co237 O245 2.055 . S
Co237 O248 2.039 . S
Co237 N251 2.140 . S
C238 O239 1.227 . S
C238 O248 1.265 . S
O239 C238 1.227 . S
N240 Co237 2.121 . S
N240 C242 1.375 . S
N240 C243 1.313 . S
C241 C242 1.338 . S
C241 N244 1.377 . S
C241 H261 0.930 . S
C242 N240 1.375 . S
C242 C241 1.338 . S
C242 H246 0.931 . S
C243 N240 1.313 . S
C243 N244 1.344 . S
C243 H247 0.930 . S
N244 C241 1.377 . S
N244 C243 1.344 . S
O245 Co237 2.055 . S
O245 C249 1.253 . S
H246 C242 0.931 . S
H247 C243 0.930 . S
O248 Co237 2.039 . S
O248 C238 1.265 . S
C249 O245 1.253 . S
C249 O250 1.227 . S
O250 C249 1.227 . S
N251 Co237 2.140 . S
N251 C254 1.346 . S
N251 C255 1.345 . S
C252 C253 1.387 . S
C252 C256 1.391 . S
C253 C252 1.387 . S
C253 C254 1.369 . S
C253 H262 0.929 . S
C254 N251 1.346 . S
C254 C253 1.369 . S
C254 H257 0.928 . S
C255 N251 1.345 . S
C255 C256 1.371 . S
C255 H258 0.931 . S
C256 C252 1.391 . S
C256 C255 1.371 . S
C256 H263 0.930 . S
H257 C254 0.928 . S
H258 C255 0.931 . S
H259 C235 0.930 . S
H260 C232 0.930 . S
H261 C241 0.930 . S
H262 C253 0.929 . S
H263 C256 0.930 . S
C264 C265 1.351 . S
C264 N267 1.368 . S
C264 H269 0.931 . S
C265 C264 1.351 . S
C265 N266 1.373 . S
C265 H293 0.930 . S
N266 C265 1.373 . S
N266 C268 1.340 . S
N267 C264 1.368 . S
N267 C268 1.321 . S
N267 Co270 2.135 . S
C268 N266 1.340 . S
C268 N267 1.321 . S
C268 H292 0.930 . S
H269 C264 0.931 . S
Co270 N267 2.135 . S
Co270 N273 2.121 . S
Co270 O278 2.055 . S
Co270 O281 2.039 . S
Co270 N284 2.140 . S
C271 O272 1.227 . S
C271 O281 1.265 . S
O272 C271 1.227 . S
N273 Co270 2.121 . S
N273 C275 1.375 . S
N273 C276 1.313 . S
C274 C275 1.338 . S
C274 N277 1.377 . S
C274 H294 0.930 . S
C275 N273 1.375 . S
C275 C274 1.338 . S
C275 H279 0.931 . S
C276 N273 1.313 . S
C276 N277 1.344 . S
C276 H280 0.930 . S
N277 C274 1.377 . S
N277 C276 1.344 . S
O278 Co270 2.055 . S
O278 C282 1.253 . S
H279 C275 0.931 . S
H280 C276 0.930 . S
O281 Co270 2.039 . S
O281 C271 1.265 . S
C282 O278 1.253 . S
C282 O283 1.227 . S
O283 C282 1.227 . S
N284 Co270 2.140 . S
N284 C287 1.346 . S
N284 C288 1.345 . S
C285 C286 1.387 . S
C285 C289 1.391 . S
C286 C285 1.387 . S
C286 C287 1.369 . S
C286 H295 0.929 . S
C287 N284 1.346 . S
C287 C286 1.369 . S
C287 H290 0.928 . S
C288 N284 1.345 . S
C288 C289 1.371 . S
C288 H291 0.931 . S
C289 C285 1.391 . S
C289 C288 1.371 . S
C289 H296 0.930 . S
H290 C287 0.928 . S
H291 C288 0.931 . S
H292 C268 0.930 . S
H293 C265 0.930 . S
H294 C274 0.930 . S
H295 C286 0.929 . S
H296 C289 0.930 . S
C297 C298 1.351 . S
C297 N300 1.368 . S
C297 H302 0.931 . S
C298 C297 1.351 . S
C298 N299 1.373 . S
C298 H326 0.930 . S
N299 C298 1.373 . S
N299 C301 1.340 . S
N300 C297 1.368 . S
N300 C301 1.321 . S
N300 Co303 2.135 . S
C301 N299 1.340 . S
C301 N300 1.321 . S
C301 H325 0.930 . S
H302 C297 0.931 . S
Co303 N300 2.135 . S
Co303 N306 2.121 . S
Co303 O311 2.055 . S
Co303 O314 2.039 . S
Co303 N317 2.140 . S
C304 O305 1.227 . S
C304 O314 1.265 . S
O305 C304 1.227 . S
N306 Co303 2.121 . S
N306 C308 1.375 . S
N306 C309 1.313 . S
C307 C308 1.338 . S
C307 N310 1.377 . S
C307 H327 0.930 . S
C308 N306 1.375 . S
C308 C307 1.338 . S
C308 H312 0.931 . S
C309 N306 1.313 . S
C309 N310 1.344 . S
C309 H313 0.930 . S
N310 C307 1.377 . S
N310 C309 1.344 . S
O311 Co303 2.055 . S
O311 C315 1.253 . S
H312 C308 0.931 . S
H313 C309 0.930 . S
O314 Co303 2.039 . S
O314 C304 1.265 . S
C315 O311 1.253 . S
C315 O316 1.227 . S
O316 C315 1.227 . S
N317 Co303 2.140 . S
N317 C320 1.346 . S
N317 C321 1.345 . S
C318 C319 1.387 . S
C318 C322 1.391 . S
C319 C318 1.387 . S
C319 C320 1.369 . S
C319 H328 0.929 . S
C320 N317 1.346 . S
C320 C319 1.369 . S
C320 H323 0.928 . S
C321 N317 1.345 . S
C321 C322 1.371 . S
C321 H324 0.931 . S
C322 C318 1.391 . S
C322 C321 1.371 . S
C322 H329 0.930 . S
H323 C320 0.928 . S
H324 C321 0.931 . S
H325 C301 0.930 . S
H326 C298 0.930 . S
H327 C307 0.930 . S
H328 C319 0.929 . S
H329 C322 0.930 . S
C330 C331 1.351 . S
C330 N333 1.368 . S
C330 H335 0.931 . S
C331 C330 1.351 . S
C331 N332 1.373 . S
C331 H359 0.930 . S
N332 C331 1.373 . S
N332 C334 1.340 . S
N333 C330 1.368 . S
N333 C334 1.321 . S
N333 Co336 2.135 . S
C334 N332 1.340 . S
C334 N333 1.321 . S
C334 H358 0.930 . S
H335 C330 0.931 . S
Co336 N333 2.135 . S
Co336 N339 2.121 . S
Co336 O344 2.055 . S
Co336 O347 2.039 . S
Co336 N350 2.140 . S
C337 O338 1.227 . S
C337 O347 1.265 . S
O338 C337 1.227 . S
N339 Co336 2.121 . S
N339 C341 1.375 . S
N339 C342 1.313 . S
C340 C341 1.338 . S
C340 N343 1.377 . S
C340 H360 0.930 . S
C341 N339 1.375 . S
C341 C340 1.338 . S
C341 H345 0.931 . S
C342 N339 1.313 . S
C342 N343 1.344 . S
C342 H346 0.930 . S
N343 C340 1.377 . S
N343 C342 1.344 . S
O344 Co336 2.055 . S
O344 C348 1.253 . S
H345 C341 0.931 . S
H346 C342 0.930 . S
O347 Co336 2.039 . S
O347 C337 1.265 . S
C348 O344 1.253 . S
C348 O349 1.227 . S
O349 C348 1.227 . S
N350 Co336 2.140 . S
N350 C353 1.346 . S
N350 C354 1.345 . S
C351 C352 1.387 . S
C351 C355 1.391 . S
C352 C351 1.387 . S
C352 C353 1.369 . S
C352 H361 0.929 . S
C353 N350 1.346 . S
C353 C352 1.369 . S
C353 H356 0.928 . S
C354 N350 1.345 . S
C354 C355 1.371 . S
C354 H357 0.931 . S
C355 C351 1.391 . S
C355 C354 1.371 . S
C355 H362 0.930 . S
H356 C353 0.928 . S
H357 C354 0.931 . S
H358 C334 0.930 . S
H359 C331 0.930 . S
H360 C340 0.930 . S
H361 C352 0.929 . S
H362 C355 0.930 . S
C363 C364 1.351 . S
C363 N366 1.368 . S
C363 H368 0.931 . S
C364 C363 1.351 . S
C364 N365 1.373 . S
C364 H392 0.930 . S
N365 C364 1.373 . S
N365 C367 1.340 . S
N366 C363 1.368 . S
N366 C367 1.321 . S
N366 Co369 2.135 . S
C367 N365 1.340 . S
C367 N366 1.321 . S
C367 H391 0.930 . S
H368 C363 0.931 . S
Co369 N366 2.135 . S
Co369 N372 2.121 . S
Co369 O377 2.055 . S
Co369 O380 2.039 . S
Co369 N383 2.140 . S
C370 O371 1.227 . S
C370 O380 1.265 . S
O371 C370 1.227 . S
N372 Co369 2.121 . S
N372 C374 1.375 . S
N372 C375 1.313 . S
C373 C374 1.338 . S
C373 N376 1.377 . S
C373 H393 0.930 . S
C374 N372 1.375 . S
C374 C373 1.338 . S
C374 H378 0.931 . S
C375 N372 1.313 . S
C375 N376 1.344 . S
C375 H379 0.930 . S
N376 C373 1.377 . S
N376 C375 1.344 . S
O377 Co369 2.055 . S
O377 C381 1.253 . S
H378 C374 0.931 . S
H379 C375 0.930 . S
O380 Co369 2.039 . S
O380 C370 1.265 . S
C381 O377 1.253 . S
C381 O382 1.227 . S
O382 C381 1.227 . S
N383 Co369 2.140 . S
N383 C386 1.346 . S
N383 C387 1.345 . S
C384 C385 1.387 . S
C384 C388 1.391 . S
C385 C384 1.387 . S
C385 C386 1.369 . S
C385 H394 0.929 . S
C386 N383 1.346 . S
C386 C385 1.369 . S
C386 H389 0.928 . S
C387 N383 1.345 . S
C387 C388 1.371 . S
C387 H390 0.931 . S
C388 C384 1.391 . S
C388 C387 1.371 . S
C388 H395 0.930 . S
H389 C386 0.928 . S
H390 C387 0.931 . S
H391 C367 0.930 . S
H392 C364 0.930 . S
H393 C373 0.930 . S
H394 C385 0.929 . S
H395 C388 0.930 . S
C396 C397 1.351 . S
C396 N399 1.368 . S
C396 H401 0.931 . S
C397 C396 1.351 . S
C397 N398 1.373 . S
C397 H425 0.930 . S
N398 C397 1.373 . S
N398 C400 1.340 . S
N399 C396 1.368 . S
N399 C400 1.321 . S
N399 Co402 2.135 . S
C400 N398 1.340 . S
C400 N399 1.321 . S
C400 H424 0.930 . S
H401 C396 0.931 . S
Co402 N399 2.135 . S
Co402 N405 2.121 . S
Co402 O410 2.055 . S
Co402 O413 2.039 . S
Co402 N416 2.140 . S
C403 O404 1.227 . S
C403 O413 1.265 . S
O404 C403 1.227 . S
N405 Co402 2.121 . S
N405 C407 1.375 . S
N405 C408 1.313 . S
C406 C407 1.338 . S
C406 N409 1.377 . S
C406 H426 0.930 . S
C407 N405 1.375 . S
C407 C406 1.338 . S
C407 H411 0.931 . S
C408 N405 1.313 . S
C408 N409 1.344 . S
C408 H412 0.930 . S
N409 C406 1.377 . S
N409 C408 1.344 . S
O410 Co402 2.055 . S
O410 C414 1.253 . S
H411 C407 0.931 . S
H412 C408 0.930 . S
O413 Co402 2.039 . S
O413 C403 1.265 . S
C414 O410 1.253 . S
C414 O415 1.227 . S
O415 C414 1.227 . S
N416 Co402 2.140 . S
N416 C419 1.346 . S
N416 C420 1.345 . S
C417 C418 1.387 . S
C417 C421 1.391 . S
C418 C417 1.387 . S
C418 C419 1.369 . S
C418 H427 0.929 . S
C419 N416 1.346 . S
C419 C418 1.369 . S
C419 H422 0.928 . S
C420 N416 1.345 . S
C420 C421 1.371 . S
C420 H423 0.931 . S
C421 C417 1.391 . S
C421 C420 1.371 . S
C421 H428 0.930 . S
H422 C419 0.928 . S
H423 C420 0.931 . S
H424 C400 0.930 . S
H425 C397 0.930 . S
H426 C406 0.930 . S
H427 C418 0.929 . S
H428 C421 0.930 . S
C429 C430 1.351 . S
C429 N432 1.368 . S
C429 H434 0.931 . S
C430 C429 1.351 . S
C430 N431 1.373 . S
C430 H458 0.930 . S
N431 C430 1.373 . S
N431 C433 1.340 . S
N432 C429 1.368 . S
N432 C433 1.321 . S
N432 Co435 2.135 . S
C433 N431 1.340 . S
C433 N432 1.321 . S
C433 H457 0.930 . S
H434 C429 0.931 . S
Co435 N432 2.135 . S
Co435 N438 2.121 . S
Co435 O443 2.055 . S
Co435 O446 2.039 . S
Co435 N449 2.140 . S
C436 O437 1.227 . S
C436 O446 1.265 . S
O437 C436 1.227 . S
N438 Co435 2.121 . S
N438 C440 1.375 . S
N438 C441 1.313 . S
C439 C440 1.338 . S
C439 N442 1.377 . S
C439 H459 0.930 . S
C440 N438 1.375 . S
C440 C439 1.338 . S
C440 H444 0.931 . S
C441 N438 1.313 . S
C441 N442 1.344 . S
C441 H445 0.930 . S
N442 C439 1.377 . S
N442 C441 1.344 . S
O443 Co435 2.055 . S
O443 C447 1.253 . S
H444 C440 0.931 . S
H445 C441 0.930 . S
O446 Co435 2.039 . S
O446 C436 1.265 . S
C447 O443 1.253 . S
C447 O448 1.227 . S
O448 C447 1.227 . S
N449 Co435 2.140 . S
N449 C452 1.346 . S
N449 C453 1.345 . S
C450 C451 1.387 . S
C450 C454 1.391 . S
C451 C450 1.387 . S
C451 C452 1.369 . S
C451 H460 0.929 . S
C452 N449 1.346 . S
C452 C451 1.369 . S
C452 H455 0.928 . S
C453 N449 1.345 . S
C453 C454 1.371 . S
C453 H456 0.931 . S
C454 C450 1.391 . S
C454 C453 1.371 . S
C454 H461 0.930 . S
H455 C452 0.928 . S
H456 C453 0.931 . S
H457 C433 0.930 . S
H458 C430 0.930 . S
H459 C439 0.930 . S
H460 C451 0.929 . S
H461 C454 0.930 . S
C462 C463 1.351 . S
C462 N465 1.368 . S
C462 H467 0.931 . S
C463 C462 1.351 . S
C463 N464 1.373 . S
C463 H491 0.930 . S
N464 C463 1.373 . S
N464 C466 1.340 . S
N465 C462 1.368 . S
N465 C466 1.321 . S
N465 Co468 2.135 . S
C466 N464 1.340 . S
C466 N465 1.321 . S
C466 H490 0.930 . S
H467 C462 0.931 . S
Co468 N465 2.135 . S
Co468 N471 2.121 . S
Co468 O476 2.055 . S
Co468 O479 2.039 . S
Co468 N482 2.140 . S
C469 O470 1.227 . S
C469 O479 1.265 . S
O470 C469 1.227 . S
N471 Co468 2.121 . S
N471 C473 1.375 . S
N471 C474 1.313 . S
C472 C473 1.338 . S
C472 N475 1.377 . S
C472 H492 0.930 . S
C473 N471 1.375 . S
C473 C472 1.338 . S
C473 H477 0.931 . S
C474 N471 1.313 . S
C474 N475 1.344 . S
C474 H478 0.930 . S
N475 C472 1.377 . S
N475 C474 1.344 . S
O476 Co468 2.055 . S
O476 C480 1.253 . S
H477 C473 0.931 . S
H478 C474 0.930 . S
O479 Co468 2.039 . S
O479 C469 1.265 . S
C480 O476 1.253 . S
C480 O481 1.227 . S
O481 C480 1.227 . S
N482 Co468 2.140 . S
N482 C485 1.346 . S
N482 C486 1.345 . S
C483 C484 1.387 . S
C483 C487 1.391 . S
C484 C483 1.387 . S
C484 C485 1.369 . S
C484 H493 0.929 . S
C485 N482 1.346 . S
C485 C484 1.369 . S
C485 H488 0.928 . S
C486 N482 1.345 . S
C486 C487 1.371 . S
C486 H489 0.931 . S
C487 C483 1.391 . S
C487 C486 1.371 . S
C487 H494 0.930 . S
H488 C485 0.928 . S
H489 C486 0.931 . S
H490 C466 0.930 . S
H491 C463 0.930 . S
H492 C472 0.930 . S
H493 C484 0.929 . S
H494 C487 0.930 . S
C495 C496 1.351 . S
C495 N498 1.368 . S
C495 H500 0.931 . S
C496 C495 1.351 . S
C496 N497 1.373 . S
C496 H524 0.930 . S
N497 C496 1.373 . S
N497 C499 1.340 . S
N498 C495 1.368 . S
N498 C499 1.321 . S
N498 Co501 2.135 . S
C499 N497 1.340 . S
C499 N498 1.321 . S
C499 H523 0.930 . S
H500 C495 0.931 . S
Co501 N498 2.135 . S
Co501 N504 2.121 . S
Co501 O509 2.055 . S
Co501 O512 2.039 . S
Co501 N515 2.140 . S
C502 O503 1.227 . S
C502 O512 1.265 . S
O503 C502 1.227 . S
N504 Co501 2.121 . S
N504 C506 1.375 . S
N504 C507 1.313 . S
C505 C506 1.338 . S
C505 N508 1.377 . S
C505 H525 0.930 . S
C506 N504 1.375 . S
C506 C505 1.338 . S
C506 H510 0.931 . S
C507 N504 1.313 . S
C507 N508 1.344 . S
C507 H511 0.930 . S
N508 C505 1.377 . S
N508 C507 1.344 . S
O509 Co501 2.055 . S
O509 C513 1.253 . S
H510 C506 0.931 . S
H511 C507 0.930 . S
O512 Co501 2.039 . S
O512 C502 1.265 . S
C513 O509 1.253 . S
C513 O514 1.227 . S
O514 C513 1.227 . S
N515 Co501 2.140 . S
N515 C518 1.346 . S
N515 C519 1.345 . S
C516 C517 1.387 . S
C516 C520 1.391 . S
C517 C516 1.387 . S
C517 C518 1.369 . S
C517 H526 0.929 . S
C518 N515 1.346 . S
C518 C517 1.369 . S
C518 H521 0.928 . S
C519 N515 1.345 . S
C519 C520 1.371 . S
C519 H522 0.931 . S
C520 C516 1.391 . S
C520 C519 1.371 . S
C520 H527 0.930 . S
H521 C518 0.928 . S
H522 C519 0.931 . S
H523 C499 0.930 . S
H524 C496 0.930 . S
H525 C505 0.930 . S
H526 C517 0.929 . S
H527 C520 0.930 . S
C528 C529 1.351 . S
C528 N531 1.368 . S
C528 H533 0.931 . S
C529 C528 1.351 . S
C529 N530 1.373 . S
C529 H557 0.930 . S
N530 C529 1.373 . S
N530 C532 1.340 . S
N531 C528 1.368 . S
N531 C532 1.321 . S
N531 Co534 2.135 . S
C532 N530 1.340 . S
C532 N531 1.321 . S
C532 H556 0.930 . S
H533 C528 0.931 . S
Co534 N531 2.135 . S
Co534 N537 2.121 . S
Co534 O542 2.055 . S
Co534 O545 2.039 . S
Co534 N548 2.140 . S
C535 O536 1.227 . S
C535 O545 1.265 . S
O536 C535 1.227 . S
N537 Co534 2.121 . S
N537 C539 1.375 . S
N537 C540 1.313 . S
C538 C539 1.338 . S
C538 N541 1.377 . S
C538 H558 0.930 . S
C539 N537 1.375 . S
C539 C538 1.338 . S
C539 H543 0.931 . S
C540 N537 1.313 . S
C540 N541 1.344 . S
C540 H544 0.930 . S
N541 C538 1.377 . S
N541 C540 1.344 . S
O542 Co534 2.055 . S
O542 C546 1.253 . S
H543 C539 0.931 . S
H544 C540 0.930 . S
O545 Co534 2.039 . S
O545 C535 1.265 . S
C546 O542 1.253 . S
C546 O547 1.227 . S
O547 C546 1.227 . S
N548 Co534 2.140 . S
N548 C551 1.346 . S
N548 C552 1.345 . S
C549 C550 1.387 . S
C549 C553 1.391 . S
C550 C549 1.387 . S
C550 C551 1.369 . S
C550 H559 0.929 . S
C551 N548 1.346 . S
C551 C550 1.369 . S
C551 H554 0.928 . S
C552 N548 1.345 . S
C552 C553 1.371 . S
C552 H555 0.931 . S
C553 C549 1.391 . S
C553 C552 1.371 . S
C553 H560 0.930 . S
H554 C551 0.928 . S
H555 C552 0.931 . S
H556 C532 0.930 . S
H557 C529 0.930 . S
H558 C538 0.930 . S
H559 C550 0.929 . S
H560 C553 0.930 . S
C561 C562 1.351 . S
C561 N564 1.368 . S
C561 H566 0.931 . S
C562 C561 1.351 . S
C562 N563 1.373 . S
C562 H590 0.930 . S
N563 C562 1.373 . S
N563 C565 1.340 . S
N564 C561 1.368 . S
N564 C565 1.321 . S
N564 Co567 2.135 . S
C565 N563 1.340 . S
C565 N564 1.321 . S
C565 H589 0.930 . S
H566 C561 0.931 . S
Co567 N564 2.135 . S
Co567 N570 2.121 . S
Co567 O575 2.055 . S
Co567 O578 2.039 . S
Co567 N581 2.140 . S
C568 O569 1.227 . S
C568 O578 1.265 . S
O569 C568 1.227 . S
N570 Co567 2.121 . S
N570 C572 1.375 . S
N570 C573 1.313 . S
C571 C572 1.338 . S
C571 N574 1.377 . S
C571 H591 0.930 . S
C572 N570 1.375 . S
C572 C571 1.338 . S
C572 H576 0.931 . S
C573 N570 1.313 . S
C573 N574 1.344 . S
C573 H577 0.930 . S
N574 C571 1.377 . S
N574 C573 1.344 . S
O575 Co567 2.055 . S
O575 C579 1.253 . S
H576 C572 0.931 . S
H577 C573 0.930 . S
O578 Co567 2.039 . S
O578 C568 1.265 . S
C579 O575 1.253 . S
C579 O580 1.227 . S
O580 C579 1.227 . S
N581 Co567 2.140 . S
N581 C584 1.346 . S
N581 C585 1.345 . S
C582 C583 1.387 . S
C582 C586 1.391 . S
C583 C582 1.387 . S
C583 C584 1.369 . S
C583 H592 0.929 . S
C584 N581 1.346 . S
C584 C583 1.369 . S
C584 H587 0.928 . S
C585 N581 1.345 . S
C585 C586 1.371 . S
C585 H588 0.931 . S
C586 C582 1.391 . S
C586 C585 1.371 . S
C586 H593 0.930 . S
H587 C584 0.928 . S
H588 C585 0.931 . S
H589 C565 0.930 . S
H590 C562 0.930 . S
H591 C571 0.930 . S
H592 C583 0.929 . S
H593 C586 0.930 . S
C594 C595 1.351 . S
C594 N597 1.368 . S
C594 H599 0.931 . S
C595 C594 1.351 . S
C595 N596 1.373 . S
C595 H623 0.930 . S
N596 C595 1.373 . S
N596 C598 1.340 . S
N597 C594 1.368 . S
N597 C598 1.321 . S
N597 Co600 2.135 . S
C598 N596 1.340 . S
C598 N597 1.321 . S
C598 H622 0.930 . S
H599 C594 0.931 . S
Co600 N597 2.135 . S
Co600 N603 2.121 . S
Co600 O608 2.055 . S
Co600 O611 2.039 . S
Co600 N614 2.140 . S
C601 O602 1.227 . S
C601 O611 1.265 . S
O602 C601 1.227 . S
N603 Co600 2.121 . S
N603 C605 1.375 . S
N603 C606 1.313 . S
C604 C605 1.338 . S
C604 N607 1.377 . S
C604 H624 0.930 . S
C605 N603 1.375 . S
C605 C604 1.338 . S
C605 H609 0.931 . S
C606 N603 1.313 . S
C606 N607 1.344 . S
C606 H610 0.930 . S
N607 C604 1.377 . S
N607 C606 1.344 . S
O608 Co600 2.055 . S
O608 C612 1.253 . S
H609 C605 0.931 . S
H610 C606 0.930 . S
O611 Co600 2.039 . S
O611 C601 1.265 . S
C612 O608 1.253 . S
C612 O613 1.227 . S
O613 C612 1.227 . S
N614 Co600 2.140 . S
N614 C617 1.346 . S
N614 C618 1.345 . S
C615 C616 1.387 . S
C615 C619 1.391 . S
C616 C615 1.387 . S
C616 C617 1.369 . S
C616 H625 0.929 . S
C617 N614 1.346 . S
C617 C616 1.369 . S
C617 H620 0.928 . S
C618 N614 1.345 . S
C618 C619 1.371 . S
C618 H621 0.931 . S
C619 C615 1.391 . S
C619 C618 1.371 . S
C619 H626 0.930 . S
H620 C617 0.928 . S
H621 C618 0.931 . S
H622 C598 0.930 . S
H623 C595 0.930 . S
H624 C604 0.930 . S
H625 C616 0.929 . S
H626 C619 0.930 . S
C627 C628 1.351 . S
C627 N630 1.368 . S
C627 H632 0.931 . S
C628 C627 1.351 . S
C628 N629 1.373 . S
C628 H656 0.930 . S
N629 C628 1.373 . S
N629 C631 1.340 . S
N630 C627 1.368 . S
N630 C631 1.321 . S
N630 Co633 2.135 . S
C631 N629 1.340 . S
C631 N630 1.321 . S
C631 H655 0.930 . S
H632 C627 0.931 . S
Co633 N630 2.135 . S
Co633 N636 2.121 . S
Co633 O641 2.055 . S
Co633 O644 2.039 . S
Co633 N647 2.140 . S
C634 O635 1.227 . S
C634 O644 1.265 . S
O635 C634 1.227 . S
N636 Co633 2.121 . S
N636 C638 1.375 . S
N636 C639 1.313 . S
C637 C638 1.338 . S
C637 N640 1.377 . S
C637 H657 0.930 . S
C638 N636 1.375 . S
C638 C637 1.338 . S
C638 H642 0.931 . S
C639 N636 1.313 . S
C639 N640 1.344 . S
C639 H643 0.930 . S
N640 C637 1.377 . S
N640 C639 1.344 . S
O641 Co633 2.055 . S
O641 C645 1.253 . S
H642 C638 0.931 . S
H643 C639 0.930 . S
O644 Co633 2.039 . S
O644 C634 1.265 . S
C645 O641 1.253 . S
C645 O646 1.227 . S
O646 C645 1.227 . S
N647 Co633 2.140 . S
N647 C650 1.346 . S
N647 C651 1.345 . S
C648 C649 1.387 . S
C648 C652 1.391 . S
C649 C648 1.387 . S
C649 C650 1.369 . S
C649 H658 0.929 . S
C650 N647 1.346 . S
C650 C649 1.369 . S
C650 H653 0.928 . S
C651 N647 1.345 . S
C651 C652 1.371 . S
C651 H654 0.931 . S
C652 C648 1.391 . S
C652 C651 1.371 . S
C652 H659 0.930 . S
H653 C650 0.928 . S
H654 C651 0.931 . S
H655 C631 0.930 . S
H656 C628 0.930 . S
H657 C637 0.930 . S
H658 C649 0.929 . S
H659 C652 0.930 . S
C660 C661 1.351 . S
C660 N663 1.368 . S
C660 H665 0.931 . S
C661 C660 1.351 . S
C661 N662 1.373 . S
C661 H689 0.930 . S
N662 C661 1.373 . S
N662 C664 1.340 . S
N663 C660 1.368 . S
N663 C664 1.321 . S
N663 Co666 2.135 . S
C664 N662 1.340 . S
C664 N663 1.321 . S
C664 H688 0.930 . S
H665 C660 0.931 . S
Co666 N663 2.135 . S
Co666 N669 2.121 . S
Co666 O674 2.055 . S
Co666 O677 2.039 . S
Co666 N680 2.140 . S
C667 O668 1.227 . S
C667 O677 1.265 . S
O668 C667 1.227 . S
N669 Co666 2.121 . S
N669 C671 1.375 . S
N669 C672 1.313 . S
C670 C671 1.338 . S
C670 N673 1.377 . S
C670 H690 0.930 . S
C671 N669 1.375 . S
C671 C670 1.338 . S
C671 H675 0.931 . S
C672 N669 1.313 . S
C672 N673 1.344 . S
C672 H676 0.930 . S
N673 C670 1.377 . S
N673 C672 1.344 . S
O674 Co666 2.055 . S
O674 C678 1.253 . S
H675 C671 0.931 . S
H676 C672 0.930 . S
O677 Co666 2.039 . S
O677 C667 1.265 . S
C678 O674 1.253 . S
C678 O679 1.227 . S
O679 C678 1.227 . S
N680 Co666 2.140 . S
N680 C683 1.346 . S
N680 C684 1.345 . S
C681 C682 1.387 . S
C681 C685 1.391 . S
C682 C681 1.387 . S
C682 C683 1.369 . S
C682 H691 0.929 . S
C683 N680 1.346 . S
C683 C682 1.369 . S
C683 H686 0.928 . S
C684 N680 1.345 . S
C684 C685 1.371 . S
C684 H687 0.931 . S
C685 C681 1.391 . S
C685 C684 1.371 . S
C685 H692 0.930 . S
H686 C683 0.928 . S
H687 C684 0.931 . S
H688 C664 0.930 . S
H689 C661 0.930 . S
H690 C670 0.930 . S
H691 C682 0.929 . S
H692 C685 0.930 . S
C693 C694 1.351 . S
C693 N696 1.368 . S
C693 H698 0.931 . S
C694 C693 1.351 . S
C694 N695 1.373 . S
C694 H722 0.930 . S
N695 C694 1.373 . S
N695 C697 1.340 . S
N696 C693 1.368 . S
N696 C697 1.321 . S
N696 Co699 2.135 . S
C697 N695 1.340 . S
C697 N696 1.321 . S
C697 H721 0.930 . S
H698 C693 0.931 . S
Co699 N696 2.135 . S
Co699 N702 2.121 . S
Co699 O707 2.055 . S
Co699 O710 2.039 . S
Co699 N713 2.140 . S
C700 O701 1.227 . S
C700 O710 1.265 . S
O701 C700 1.227 . S
N702 Co699 2.121 . S
N702 C704 1.375 . S
N702 C705 1.313 . S
C703 C704 1.338 . S
C703 N706 1.377 . S
C703 H723 0.930 . S
C704 N702 1.375 . S
C704 C703 1.338 . S
C704 H708 0.931 . S
C705 N702 1.313 . S
C705 N706 1.344 . S
C705 H709 0.930 . S
N706 C703 1.377 . S
N706 C705 1.344 . S
O707 Co699 2.055 . S
O707 C711 1.253 . S
H708 C704 0.931 . S
H709 C705 0.930 . S
O710 Co699 2.039 . S
O710 C700 1.265 . S
C711 O707 1.253 . S
C711 O712 1.227 . S
O712 C711 1.227 . S
N713 Co699 2.140 . S
N713 C716 1.346 . S
N713 C717 1.345 . S
C714 C715 1.387 . S
C714 C718 1.391 . S
C715 C714 1.387 . S
C715 C716 1.369 . S
C715 H724 0.929 . S
C716 N713 1.346 . S
C716 C715 1.369 . S
C716 H719 0.928 . S
C717 N713 1.345 . S
C717 C718 1.371 . S
C717 H720 0.931 . S
C718 C714 1.391 . S
C718 C717 1.371 . S
C718 H725 0.930 . S
H719 C716 0.928 . S
H720 C717 0.931 . S
H721 C697 0.930 . S
H722 C694 0.930 . S
H723 C703 0.930 . S
H724 C715 0.929 . S
H725 C718 0.930 . S
C726 C727 1.351 . S
C726 N729 1.368 . S
C726 H731 0.931 . S
C727 C726 1.351 . S
C727 N728 1.373 . S
C727 H755 0.930 . S
N728 C727 1.373 . S
N728 C730 1.340 . S
N729 C726 1.368 . S
N729 C730 1.321 . S
N729 Co732 2.135 . S
C730 N728 1.340 . S
C730 N729 1.321 . S
C730 H754 0.930 . S
H731 C726 0.931 . S
Co732 N729 2.135 . S
Co732 N735 2.121 . S
Co732 O740 2.055 . S
Co732 O743 2.039 . S
Co732 N746 2.140 . S
C733 O734 1.227 . S
C733 O743 1.265 . S
O734 C733 1.227 . S
N735 Co732 2.121 . S
N735 C737 1.375 . S
N735 C738 1.313 . S
C736 C737 1.338 . S
C736 N739 1.377 . S
C736 H756 0.930 . S
C737 N735 1.375 . S
C737 C736 1.338 . S
C737 H741 0.931 . S
C738 N735 1.313 . S
C738 N739 1.344 . S
C738 H742 0.930 . S
N739 C736 1.377 . S
N739 C738 1.344 . S
O740 Co732 2.055 . S
O740 C744 1.253 . S
H741 C737 0.931 . S
H742 C738 0.930 . S
O743 Co732 2.039 . S
O743 C733 1.265 . S
C744 O740 1.253 . S
C744 O745 1.227 . S
O745 C744 1.227 . S
N746 Co732 2.140 . S
N746 C749 1.346 . S
N746 C750 1.345 . S
C747 C748 1.387 . S
C747 C751 1.391 . S
C748 C747 1.387 . S
C748 C749 1.369 . S
C748 H757 0.929 . S
C749 N746 1.346 . S
C749 C748 1.369 . S
C749 H752 0.928 . S
C750 N746 1.345 . S
C750 C751 1.371 . S
C750 H753 0.931 . S
C751 C747 1.391 . S
C751 C750 1.371 . S
C751 H758 0.930 . S
H752 C749 0.928 . S
H753 C750 0.931 . S
H754 C730 0.930 . S
H755 C727 0.930 . S
H756 C736 0.930 . S
H757 C748 0.929 . S
H758 C751 0.930 . S
C759 C760 1.351 . S
C759 N762 1.368 . S
C759 H764 0.931 . S
C760 C759 1.351 . S
C760 N761 1.373 . S
C760 H788 0.930 . S
N761 C760 1.373 . S
N761 C763 1.340 . S
N762 C759 1.368 . S
N762 C763 1.321 . S
N762 Co765 2.135 . S
C763 N761 1.340 . S
C763 N762 1.321 . S
C763 H787 0.930 . S
H764 C759 0.931 . S
Co765 N762 2.135 . S
Co765 N768 2.121 . S
Co765 O773 2.055 . S
Co765 O776 2.039 . S
Co765 N779 2.140 . S
C766 O767 1.227 . S
C766 O776 1.265 . S
O767 C766 1.227 . S
N768 Co765 2.121 . S
N768 C770 1.375 . S
N768 C771 1.313 . S
C769 C770 1.338 . S
C769 N772 1.377 . S
C769 H789 0.930 . S
C770 N768 1.375 . S
C770 C769 1.338 . S
C770 H774 0.931 . S
C771 N768 1.313 . S
C771 N772 1.344 . S
C771 H775 0.930 . S
N772 C769 1.377 . S
N772 C771 1.344 . S
O773 Co765 2.055 . S
O773 C777 1.253 . S
H774 C770 0.931 . S
H775 C771 0.930 . S
O776 Co765 2.039 . S
O776 C766 1.265 . S
C777 O773 1.253 . S
C777 O778 1.227 . S
O778 C777 1.227 . S
N779 Co765 2.140 . S
N779 C782 1.346 . S
N779 C783 1.345 . S
C780 C781 1.387 . S
C780 C784 1.391 . S
C781 C780 1.387 . S
C781 C782 1.369 . S
C781 H790 0.929 . S
C782 N779 1.346 . S
C782 C781 1.369 . S
C782 H785 0.928 . S
C783 N779 1.345 . S
C783 C784 1.371 . S
C783 H786 0.931 . S
C784 C780 1.391 . S
C784 C783 1.371 . S
C784 H791 0.930 . S
H785 C782 0.928 . S
H786 C783 0.931 . S
H787 C763 0.930 . S
H788 C760 0.930 . S
H789 C769 0.930 . S
H790 C781 0.929 . S
H791 C784 0.930 . S
C792 C793 1.351 . S
C792 N795 1.368 . S
C792 H797 0.931 . S
C793 C792 1.351 . S
C793 N794 1.373 . S
C793 H821 0.930 . S
N794 C793 1.373 . S
N794 C796 1.340 . S
N795 C792 1.368 . S
N795 C796 1.321 . S
N795 Co798 2.135 . S
C796 N794 1.340 . S
C796 N795 1.321 . S
C796 H820 0.930 . S
H797 C792 0.931 . S
Co798 N795 2.135 . S
Co798 N801 2.121 . S
Co798 O806 2.055 . S
Co798 O809 2.039 . S
Co798 N812 2.140 . S
C799 O800 1.227 . S
C799 O809 1.265 . S
O800 C799 1.227 . S
N801 Co798 2.121 . S
N801 C803 1.375 . S
N801 C804 1.313 . S
C802 C803 1.338 . S
C802 N805 1.377 . S
C802 H822 0.930 . S
C803 N801 1.375 . S
C803 C802 1.338 . S
C803 H807 0.931 . S
C804 N801 1.313 . S
C804 N805 1.344 . S
C804 H808 0.930 . S
N805 C802 1.377 . S
N805 C804 1.344 . S
O806 Co798 2.055 . S
O806 C810 1.253 . S
H807 C803 0.931 . S
H808 C804 0.930 . S
O809 Co798 2.039 . S
O809 C799 1.265 . S
C810 O806 1.253 . S
C810 O811 1.227 . S
O811 C810 1.227 . S
N812 Co798 2.140 . S
N812 C815 1.346 . S
N812 C816 1.345 . S
C813 C814 1.387 . S
C813 C817 1.391 . S
C814 C813 1.387 . S
C814 C815 1.369 . S
C814 H823 0.929 . S
C815 N812 1.346 . S
C815 C814 1.369 . S
C815 H818 0.928 . S
C816 N812 1.345 . S
C816 C817 1.371 . S
C816 H819 0.931 . S
C817 C813 1.391 . S
C817 C816 1.371 . S
C817 H824 0.930 . S
H818 C815 0.928 . S
H819 C816 0.931 . S
H820 C796 0.930 . S
H821 C793 0.930 . S
H822 C802 0.930 . S
H823 C814 0.929 . S
H824 C817 0.930 . S
C825 C826 1.351 . S
C825 N828 1.368 . S
C825 H830 0.931 . S
C826 C825 1.351 . S
C826 N827 1.373 . S
C826 H854 0.930 . S
N827 C826 1.373 . S
N827 C829 1.340 . S
N828 C825 1.368 . S
N828 C829 1.321 . S
N828 Co831 2.135 . S
C829 N827 1.340 . S
C829 N828 1.321 . S
C829 H853 0.930 . S
H830 C825 0.931 . S
Co831 N828 2.135 . S
Co831 N834 2.121 . S
Co831 O839 2.055 . S
Co831 O842 2.039 . S
Co831 N845 2.140 . S
C832 O833 1.227 . S
C832 O842 1.265 . S
O833 C832 1.227 . S
N834 Co831 2.121 . S
N834 C836 1.375 . S
N834 C837 1.313 . S
C835 C836 1.338 . S
C835 N838 1.377 . S
C835 H855 0.930 . S
C836 N834 1.375 . S
C836 C835 1.338 . S
C836 H840 0.931 . S
C837 N834 1.313 . S
C837 N838 1.344 . S
C837 H841 0.930 . S
N838 C835 1.377 . S
N838 C837 1.344 . S
O839 Co831 2.055 . S
O839 C843 1.253 . S
H840 C836 0.931 . S
H841 C837 0.930 . S
O842 Co831 2.039 . S
O842 C832 1.265 . S
C843 O839 1.253 . S
C843 O844 1.227 . S
O844 C843 1.227 . S
N845 Co831 2.140 . S
N845 C848 1.346 . S
N845 C849 1.345 . S
C846 C847 1.387 . S
C846 C850 1.391 . S
C847 C846 1.387 . S
C847 C848 1.369 . S
C847 H856 0.929 . S
C848 N845 1.346 . S
C848 C847 1.369 . S
C848 H851 0.928 . S
C849 N845 1.345 . S
C849 C850 1.371 . S
C849 H852 0.931 . S
C850 C846 1.391 . S
C850 C849 1.371 . S
C850 H857 0.930 . S
H851 C848 0.928 . S
H852 C849 0.931 . S
H853 C829 0.930 . S
H854 C826 0.930 . S
H855 C835 0.930 . S
H856 C847 0.929 . S
H857 C850 0.930 . S
C858 C859 1.351 . S
C858 N861 1.368 . S
C858 H863 0.931 . S
C859 C858 1.351 . S
C859 N860 1.373 . S
C859 H887 0.930 . S
N860 C859 1.373 . S
N860 C862 1.340 . S
N861 C858 1.368 . S
N861 C862 1.321 . S
N861 Co864 2.135 . S
C862 N860 1.340 . S
C862 N861 1.321 . S
C862 H886 0.930 . S
H863 C858 0.931 . S
Co864 N861 2.135 . S
Co864 N867 2.121 . S
Co864 O872 2.055 . S
Co864 O875 2.039 . S
Co864 N878 2.140 . S
C865 O866 1.227 . S
C865 O875 1.265 . S
O866 C865 1.227 . S
N867 Co864 2.121 . S
N867 C869 1.375 . S
N867 C870 1.313 . S
C868 C869 1.338 . S
C868 N871 1.377 . S
C868 H888 0.930 . S
C869 N867 1.375 . S
C869 C868 1.338 . S
C869 H873 0.931 . S
C870 N867 1.313 . S
C870 N871 1.344 . S
C870 H874 0.930 . S
N871 C868 1.377 . S
N871 C870 1.344 . S
O872 Co864 2.055 . S
O872 C876 1.253 . S
H873 C869 0.931 . S
H874 C870 0.930 . S
O875 Co864 2.039 . S
O875 C865 1.265 . S
C876 O872 1.253 . S
C876 O877 1.227 . S
O877 C876 1.227 . S
N878 Co864 2.140 . S
N878 C881 1.346 . S
N878 C882 1.345 . S
C879 C880 1.387 . S
C879 C883 1.391 . S
C880 C879 1.387 . S
C880 C881 1.369 . S
C880 H889 0.929 . S
C881 N878 1.346 . S
C881 C880 1.369 . S
C881 H884 0.928 . S
C882 N878 1.345 . S
C882 C883 1.371 . S
C882 H885 0.931 . S
C883 C879 1.391 . S
C883 C882 1.371 . S
C883 H890 0.930 . S
H884 C881 0.928 . S
H885 C882 0.931 . S
H886 C862 0.930 . S
H887 C859 0.930 . S
H888 C868 0.930 . S
H889 C880 0.929 . S
H890 C883 0.930 . S
C891 C892 1.351 . S
C891 N894 1.368 . S
C891 H896 0.931 . S
C892 C891 1.351 . S
C892 N893 1.373 . S
C892 H920 0.930 . S
N893 C892 1.373 . S
N893 C895 1.340 . S
N894 C891 1.368 . S
N894 C895 1.321 . S
N894 Co897 2.135 . S
C895 N893 1.340 . S
C895 N894 1.321 . S
C895 H919 0.930 . S
H896 C891 0.931 . S
Co897 N894 2.135 . S
Co897 N900 2.121 . S
Co897 O905 2.055 . S
Co897 O908 2.039 . S
Co897 N911 2.140 . S
C898 O899 1.227 . S
C898 O908 1.265 . S
O899 C898 1.227 . S
N900 Co897 2.121 . S
N900 C902 1.375 . S
N900 C903 1.313 . S
C901 C902 1.338 . S
C901 N904 1.377 . S
C901 H921 0.930 . S
C902 N900 1.375 . S
C902 C901 1.338 . S
C902 H906 0.931 . S
C903 N900 1.313 . S
C903 N904 1.344 . S
C903 H907 0.930 . S
N904 C901 1.377 . S
N904 C903 1.344 . S
O905 Co897 2.055 . S
O905 C909 1.253 . S
H906 C902 0.931 . S
H907 C903 0.930 . S
O908 Co897 2.039 . S
O908 C898 1.265 . S
C909 O905 1.253 . S
C909 O910 1.227 . S
O910 C909 1.227 . S
N911 Co897 2.140 . S
N911 C914 1.346 . S
N911 C915 1.345 . S
C912 C913 1.387 . S
C912 C916 1.391 . S
C913 C912 1.387 . S
C913 C914 1.369 . S
C913 H922 0.929 . S
C914 N911 1.346 . S
C914 C913 1.369 . S
C914 H917 0.928 . S
C915 N911 1.345 . S
C915 C916 1.371 . S
C915 H918 0.931 . S
C916 C912 1.391 . S
C916 C915 1.371 . S
C916 H923 0.930 . S
H917 C914 0.928 . S
H918 C915 0.931 . S
H919 C895 0.930 . S
H920 C892 0.930 . S
H921 C901 0.930 . S
H922 C913 0.929 . S
H923 C916 0.930 . S
C924 C925 1.351 . S
C924 N927 1.368 . S
C924 H929 0.931 . S
C925 C924 1.351 . S
C925 N926 1.373 . S
C925 H953 0.930 . S
N926 C925 1.373 . S
N926 C928 1.340 . S
N927 C924 1.368 . S
N927 C928 1.321 . S
N927 Co930 2.135 . S
C928 N926 1.340 . S
C928 N927 1.321 . S
C928 H952 0.930 . S
H929 C924 0.931 . S
Co930 N927 2.135 . S
Co930 N933 2.121 . S
Co930 O938 2.055 . S
Co930 O941 2.039 . S
Co930 N944 2.140 . S
C931 O932 1.227 . S
C931 O941 1.265 . S
O932 C931 1.227 . S
N933 Co930 2.121 . S
N933 C935 1.375 . S
N933 C936 1.313 . S
C934 C935 1.338 . S
C934 N937 1.377 . S
C934 H954 0.930 . S
C935 N933 1.375 . S
C935 C934 1.338 . S
C935 H939 0.931 . S
C936 N933 1.313 . S
C936 N937 1.344 . S
C936 H940 0.930 . S
N937 C934 1.377 . S
N937 C936 1.344 . S
O938 Co930 2.055 . S
O938 C942 1.253 . S
H939 C935 0.931 . S
H940 C936 0.930 . S
O941 Co930 2.039 . S
O941 C931 1.265 . S
C942 O938 1.253 . S
C942 O943 1.227 . S
O943 C942 1.227 . S
N944 Co930 2.140 . S
N944 C947 1.346 . S
N944 C948 1.345 . S
C945 C946 1.387 . S
C945 C949 1.391 . S
C946 C945 1.387 . S
C946 C947 1.369 . S
C946 H955 0.929 . S
C947 N944 1.346 . S
C947 C946 1.369 . S
C947 H950 0.928 . S
C948 N944 1.345 . S
C948 C949 1.371 . S
C948 H951 0.931 . S
C949 C945 1.391 . S
C949 C948 1.371 . S
C949 H956 0.930 . S
H950 C947 0.928 . S
H951 C948 0.931 . S
H952 C928 0.930 . S
H953 C925 0.930 . S
H954 C934 0.930 . S
H955 C946 0.929 . S
H956 C949 0.930 . S
C957 C958 1.351 . S
C957 N960 1.368 . S
C957 H962 0.931 . S
C958 C957 1.351 . S
C958 N959 1.373 . S
C958 H986 0.930 . S
N959 C958 1.373 . S
N959 C961 1.340 . S
N960 C957 1.368 . S
N960 C961 1.321 . S
N960 Co963 2.135 . S
C961 N959 1.340 . S
C961 N960 1.321 . S
C961 H985 0.930 . S
H962 C957 0.931 . S
Co963 N960 2.135 . S
Co963 N966 2.121 . S
Co963 O971 2.055 . S
Co963 O974 2.039 . S
Co963 N977 2.140 . S
C964 O965 1.227 . S
C964 O974 1.265 . S
O965 C964 1.227 . S
N966 Co963 2.121 . S
N966 C968 1.375 . S
N966 C969 1.313 . S
C967 C968 1.338 . S
C967 N970 1.377 . S
C967 H987 0.930 . S
C968 N966 1.375 . S
C968 C967 1.338 . S
C968 H972 0.931 . S
C969 N966 1.313 . S
C969 N970 1.344 . S
C969 H973 0.930 . S
N970 C967 1.377 . S
N970 C969 1.344 . S
O971 Co963 2.055 . S
O971 C975 1.253 . S
H972 C968 0.931 . S
H973 C969 0.930 . S
O974 Co963 2.039 . S
O974 C964 1.265 . S
C975 O971 1.253 . S
C975 O976 1.227 . S
O976 C975 1.227 . S
N977 Co963 2.140 . S
N977 C980 1.346 . S
N977 C981 1.345 . S
C978 C979 1.387 . S
C978 C982 1.391 . S
C979 C978 1.387 . S
C979 C980 1.369 . S
C979 H988 0.929 . S
C980 N977 1.346 . S
C980 C979 1.369 . S
C980 H983 0.928 . S
C981 N977 1.345 . S
C981 C982 1.371 . S
C981 H984 0.931 . S
C982 C978 1.391 . S
C982 C981 1.371 . S
C982 H989 0.930 . S
H983 C980 0.928 . S
H984 C981 0.931 . S
H985 C961 0.930 . S
H986 C958 0.930 . S
H987 C967 0.930 . S
H988 C979 0.929 . S
H989 C982 0.930 . S
C990 C991 1.351 . S
C990 N993 1.368 . S
C990 H995 0.931 . S
C991 C990 1.351 . S
C991 N992 1.373 . S
C991 H1019 0.930 . S
N992 C991 1.373 . S
N992 C994 1.340 . S
N993 C990 1.368 . S
N993 C994 1.321 . S
N993 Co996 2.135 . S
C994 N992 1.340 . S
C994 N993 1.321 . S
C994 H1018 0.930 . S
H995 C990 0.931 . S
Co996 N993 2.135 . S
Co996 N999 2.121 . S
Co996 O1004 2.055 . S
Co996 O1007 2.039 . S
Co996 N1010 2.140 . S
C997 O998 1.227 . S
C997 O1007 1.265 . S
O998 C997 1.227 . S
N999 Co996 2.121 . S
N999 C1001 1.375 . S
N999 C1002 1.313 . S
C1000 C1001 1.338 . S
C1000 N1003 1.377 . S
C1000 H1020 0.930 . S
C1001 N999 1.375 . S
C1001 C1000 1.338 . S
C1001 H1005 0.931 . S
C1002 N999 1.313 . S
C1002 N1003 1.344 . S
C1002 H1006 0.930 . S
N1003 C1000 1.377 . S
N1003 C1002 1.344 . S
O1004 Co996 2.055 . S
O1004 C1008 1.253 . S
H1005 C1001 0.931 . S
H1006 C1002 0.930 . S
O1007 Co996 2.039 . S
O1007 C997 1.265 . S
C1008 O1004 1.253 . S
C1008 O1009 1.227 . S
O1009 C1008 1.227 . S
N1010 Co996 2.140 . S
N1010 C1013 1.346 . S
N1010 C1014 1.345 . S
C1011 C1012 1.387 . S
C1011 C1015 1.391 . S
C1012 C1011 1.387 . S
C1012 C1013 1.369 . S
C1012 H1021 0.929 . S
C1013 N1010 1.346 . S
C1013 C1012 1.369 . S
C1013 H1016 0.928 . S
C1014 N1010 1.345 . S
C1014 C1015 1.371 . S
C1014 H1017 0.931 . S
C1015 C1011 1.391 . S
C1015 C1014 1.371 . S
C1015 H1022 0.930 . S
H1016 C1013 0.928 . S
H1017 C1014 0.931 . S
H1018 C994 0.930 . S
H1019 C991 0.930 . S
H1020 C1000 0.930 . S
H1021 C1012 0.929 . S
H1022 C1015 0.930 . S
C1023 C1024 1.351 . S
C1023 N1026 1.368 . S
C1023 H1028 0.931 . S
C1024 C1023 1.351 . S
C1024 N1025 1.373 . S
C1024 H1052 0.930 . S
N1025 C1024 1.373 . S
N1025 C1027 1.340 . S
N1026 C1023 1.368 . S
N1026 C1027 1.321 . S
N1026 Co1029 2.135 . S
C1027 N1025 1.340 . S
C1027 N1026 1.321 . S
C1027 H1051 0.930 . S
H1028 C1023 0.931 . S
Co1029 N1026 2.135 . S
Co1029 N1032 2.121 . S
Co1029 O1037 2.055 . S
Co1029 O1040 2.039 . S
Co1029 N1043 2.140 . S
C1030 O1031 1.227 . S
C1030 O1040 1.265 . S
O1031 C1030 1.227 . S
N1032 Co1029 2.121 . S
N1032 C1034 1.375 . S
N1032 C1035 1.313 . S
C1033 C1034 1.338 . S
C1033 N1036 1.377 . S
C1033 H1053 0.930 . S
C1034 N1032 1.375 . S
C1034 C1033 1.338 . S
C1034 H1038 0.931 . S
C1035 N1032 1.313 . S
C1035 N1036 1.344 . S
C1035 H1039 0.930 . S
N1036 C1033 1.377 . S
N1036 C1035 1.344 . S
O1037 Co1029 2.055 . S
O1037 C1041 1.253 . S
H1038 C1034 0.931 . S
H1039 C1035 0.930 . S
O1040 Co1029 2.039 . S
O1040 C1030 1.265 . S
C1041 O1037 1.253 . S
C1041 O1042 1.227 . S
O1042 C1041 1.227 . S
N1043 Co1029 2.140 . S
N1043 C1046 1.346 . S
N1043 C1047 1.345 . S
C1044 C1045 1.387 . S
C1044 C1048 1.391 . S
C1045 C1044 1.387 . S
C1045 C1046 1.369 . S
C1045 H1054 0.929 . S
C1046 N1043 1.346 . S
C1046 C1045 1.369 . S
C1046 H1049 0.928 . S
C1047 N1043 1.345 . S
C1047 C1048 1.371 . S
C1047 H1050 0.931 . S
C1048 C1044 1.391 . S
C1048 C1047 1.371 . S
C1048 H1055 0.930 . S
H1049 C1046 0.928 . S
H1050 C1047 0.931 . S
H1051 C1027 0.930 . S
H1052 C1024 0.930 . S
H1053 C1033 0.930 . S
H1054 C1045 0.929 . S
H1055 C1048 0.930 . S
C1056 C1057 1.391 . S
C1056 C1058 1.394 . S
C1056 H1072 0.931 . S
C1057 C1056 1.391 . S
C1057 C1061 1.376 . S
C1058 C1056 1.394 . S
C1058 C1059 1.369 . S
C1058 C1062 1.531 . S
C1059 C1058 1.369 . S
C1059 C1060 1.410 . S
C1059 C1067 1.503 . S
C1060 C1059 1.410 . S
C1060 C1061 1.392 . S
C1060 C1063 1.511 . S
C1061 C1057 1.376 . S
C1061 C1060 1.392 . S
C1061 H1073 0.929 . S
C1062 C1058 1.531 . S
C1062 H1074 0.960 . S
C1062 H1075 0.962 . S
C1062 H1076 0.960 . S
C1063 C1060 1.511 . S
C1063 H1077 0.961 . S
C1063 H1078 0.961 . S
C1063 H1079 0.961 . S
C1064 C1065 1.370 . S
C1064 C1066 1.363 . S
C1064 H1080 0.931 . S
C1065 C1064 1.370 . S
C1065 C1069 1.408 . S
C1066 C1064 1.363 . S
C1066 C1067 1.370 . S
C1066 C1070 1.524 . S
C1067 C1059 1.503 . S
C1067 C1066 1.370 . S
C1067 C1068 1.403 . S
C1068 C1067 1.403 . S
C1068 C1069 1.404 . S
C1068 C1071 1.539 . S
C1069 C1065 1.408 . S
C1069 C1068 1.404 . S
C1069 H1081 0.930 . S
C1070 C1066 1.524 . S
C1070 H1082 0.956 . S
C1070 H1083 0.961 . S
C1070 H1084 0.961 . S
C1071 C1068 1.539 . S
C1071 H1085 0.958 . S
C1071 H1086 0.961 . S
C1071 H1087 0.960 . S
H1072 C1056 0.931 . S
H1073 C1061 0.929 . S
H1074 C1062 0.960 . S
H1075 C1062 0.962 . S
H1076 C1062 0.960 . S
H1077 C1063 0.961 . S
H1078 C1063 0.961 . S
H1079 C1063 0.961 . S
H1080 C1064 0.931 . S
H1081 C1069 0.930 . S
H1082 C1070 0.956 . S
H1083 C1070 0.961 . S
H1084 C1070 0.961 . S
H1085 C1071 0.958 . S
H1086 C1071 0.961 . S
H1087 C1071 0.960 . S
C1088 C1089 1.391 . S
C1088 C1090 1.394 . S
C1088 H1104 0.931 . S
C1089 C1088 1.391 . S
C1089 C1093 1.376 . S
C1090 C1088 1.394 . S
C1090 C1091 1.369 . S
C1090 C1094 1.531 . S
C1091 C1090 1.369 . S
C1091 C1092 1.410 . S
C1091 C1099 1.503 . S
C1092 C1091 1.410 . S
C1092 C1093 1.392 . S
C1092 C1095 1.511 . S
C1093 C1089 1.376 . S
C1093 C1092 1.392 . S
C1093 H1105 0.929 . S
C1094 C1090 1.531 . S
C1094 H1106 0.960 . S
C1094 H1107 0.962 . S
C1094 H1108 0.960 . S
C1095 C1092 1.511 . S
C1095 H1109 0.961 . S
C1095 H1110 0.961 . S
C1095 H1111 0.961 . S
C1096 C1097 1.370 . S
C1096 C1098 1.363 . S
C1096 H1112 0.931 . S
C1097 C1096 1.370 . S
C1097 C1101 1.408 . S
C1098 C1096 1.363 . S
C1098 C1099 1.370 . S
C1098 C1102 1.524 . S
C1099 C1091 1.503 . S
C1099 C1098 1.370 . S
C1099 C1100 1.403 . S
C1100 C1099 1.403 . S
C1100 C1101 1.404 . S
C1100 C1103 1.539 . S
C1101 C1097 1.408 . S
C1101 C1100 1.404 . S
C1101 H1113 0.930 . S
C1102 C1098 1.524 . S
C1102 H1114 0.956 . S
C1102 H1115 0.961 . S
C1102 H1116 0.961 . S
C1103 C1100 1.539 . S
C1103 H1117 0.958 . S
C1103 H1118 0.961 . S
C1103 H1119 0.960 . S
H1104 C1088 0.931 . S
H1105 C1093 0.929 . S
H1106 C1094 0.960 . S
H1107 C1094 0.962 . S
H1108 C1094 0.960 . S
H1109 C1095 0.961 . S
H1110 C1095 0.961 . S
H1111 C1095 0.961 . S
H1112 C1096 0.931 . S
H1113 C1101 0.930 . S
H1114 C1102 0.956 . S
H1115 C1102 0.961 . S
H1116 C1102 0.961 . S
H1117 C1103 0.958 . S
H1118 C1103 0.961 . S
H1119 C1103 0.960 . S
C1120 C1121 1.391 . S
C1120 C1122 1.394 . S
C1120 H1136 0.931 . S
C1121 C1120 1.391 . S
C1121 C1125 1.376 . S
C1122 C1120 1.394 . S
C1122 C1123 1.369 . S
C1122 C1126 1.531 . S
C1123 C1122 1.369 . S
C1123 C1124 1.410 . S
C1123 C1131 1.503 . S
C1124 C1123 1.410 . S
C1124 C1125 1.392 . S
C1124 C1127 1.511 . S
C1125 C1121 1.376 . S
C1125 C1124 1.392 . S
C1125 H1137 0.929 . S
C1126 C1122 1.531 . S
C1126 H1138 0.960 . S
C1126 H1139 0.962 . S
C1126 H1140 0.960 . S
C1127 C1124 1.511 . S
C1127 H1141 0.961 . S
C1127 H1142 0.961 . S
C1127 H1143 0.961 . S
C1128 C1129 1.370 . S
C1128 C1130 1.363 . S
C1128 H1144 0.931 . S
C1129 C1128 1.370 . S
C1129 C1133 1.408 . S
C1130 C1128 1.363 . S
C1130 C1131 1.370 . S
C1130 C1134 1.524 . S
C1131 C1123 1.503 . S
C1131 C1130 1.370 . S
C1131 C1132 1.403 . S
C1132 C1131 1.403 . S
C1132 C1133 1.404 . S
C1132 C1135 1.539 . S
C1133 C1129 1.408 . S
C1133 C1132 1.404 . S
C1133 H1145 0.930 . S
C1134 C1130 1.524 . S
C1134 H1146 0.956 . S
C1134 H1147 0.961 . S
C1134 H1148 0.961 . S
C1135 C1132 1.539 . S
C1135 H1149 0.958 . S
C1135 H1150 0.961 . S
C1135 H1151 0.960 . S
H1136 C1120 0.931 . S
H1137 C1125 0.929 . S
H1138 C1126 0.960 . S
H1139 C1126 0.962 . S
H1140 C1126 0.960 . S
H1141 C1127 0.961 . S
H1142 C1127 0.961 . S
H1143 C1127 0.961 . S
H1144 C1128 0.931 . S
H1145 C1133 0.930 . S
H1146 C1134 0.956 . S
H1147 C1134 0.961 . S
H1148 C1134 0.961 . S
H1149 C1135 0.958 . S
H1150 C1135 0.961 . S
H1151 C1135 0.960 . S
C1152 C1153 1.391 . S
C1152 C1154 1.394 . S
C1152 H1168 0.931 . S
C1153 C1152 1.391 . S
C1153 C1157 1.376 . S
C1154 C1152 1.394 . S
C1154 C1155 1.369 . S
C1154 C1158 1.531 . S
C1155 C1154 1.369 . S
C1155 C1156 1.410 . S
C1155 C1163 1.503 . S
C1156 C1155 1.410 . S
C1156 C1157 1.392 . S
C1156 C1159 1.511 . S
C1157 C1153 1.376 . S
C1157 C1156 1.392 . S
C1157 H1169 0.929 . S
C1158 C1154 1.531 . S
C1158 H1170 0.960 . S
C1158 H1171 0.962 . S
C1158 H1172 0.960 . S
C1159 C1156 1.511 . S
C1159 H1173 0.961 . S
C1159 H1174 0.961 . S
C1159 H1175 0.961 . S
C1160 C1161 1.370 . S
C1160 C1162 1.363 . S
C1160 H1176 0.931 . S
C1161 C1160 1.370 . S
C1161 C1165 1.408 . S
C1162 C1160 1.363 . S
C1162 C1163 1.370 . S
C1162 C1166 1.524 . S
C1163 C1155 1.503 . S
C1163 C1162 1.370 . S
C1163 C1164 1.403 . S
C1164 C1163 1.403 . S
C1164 C1165 1.404 . S
C1164 C1167 1.539 . S
C1165 C1161 1.408 . S
C1165 C1164 1.404 . S
C1165 H1177 0.930 . S
C1166 C1162 1.524 . S
C1166 H1178 0.956 . S
C1166 H1179 0.961 . S
C1166 H1180 0.961 . S
C1167 C1164 1.539 . S
C1167 H1181 0.958 . S
C1167 H1182 0.961 . S
C1167 H1183 0.960 . S
H1168 C1152 0.931 . S
H1169 C1157 0.929 . S
H1170 C1158 0.960 . S
H1171 C1158 0.962 . S
H1172 C1158 0.960 . S
H1173 C1159 0.961 . S
H1174 C1159 0.961 . S
H1175 C1159 0.961 . S
H1176 C1160 0.931 . S
H1177 C1165 0.930 . S
H1178 C1166 0.956 . S
H1179 C1166 0.961 . S
H1180 C1166 0.961 . S
H1181 C1167 0.958 . S
H1182 C1167 0.961 . S
H1183 C1167 0.960 . S
C1184 C1185 1.391 . S
C1184 C1186 1.394 . S
C1184 H1200 0.931 . S
C1185 C1184 1.391 . S
C1185 C1189 1.376 . S
C1186 C1184 1.394 . S
C1186 C1187 1.369 . S
C1186 C1190 1.531 . S
C1187 C1186 1.369 . S
C1187 C1188 1.410 . S
C1187 C1195 1.503 . S
C1188 C1187 1.410 . S
C1188 C1189 1.392 . S
C1188 C1191 1.511 . S
C1189 C1185 1.376 . S
C1189 C1188 1.392 . S
C1189 H1201 0.929 . S
C1190 C1186 1.531 . S
C1190 H1202 0.960 . S
C1190 H1203 0.962 . S
C1190 H1204 0.960 . S
C1191 C1188 1.511 . S
C1191 H1205 0.961 . S
C1191 H1206 0.961 . S
C1191 H1207 0.961 . S
C1192 C1193 1.370 . S
C1192 C1194 1.363 . S
C1192 H1208 0.931 . S
C1193 C1192 1.370 . S
C1193 C1197 1.408 . S
C1194 C1192 1.363 . S
C1194 C1195 1.370 . S
C1194 C1198 1.524 . S
C1195 C1187 1.503 . S
C1195 C1194 1.370 . S
C1195 C1196 1.403 . S
C1196 C1195 1.403 . S
C1196 C1197 1.404 . S
C1196 C1199 1.539 . S
C1197 C1193 1.408 . S
C1197 C1196 1.404 . S
C1197 H1209 0.930 . S
C1198 C1194 1.524 . S
C1198 H1210 0.956 . S
C1198 H1211 0.961 . S
C1198 H1212 0.961 . S
C1199 C1196 1.539 . S
C1199 H1213 0.958 . S
C1199 H1214 0.961 . S
C1199 H1215 0.960 . S
H1200 C1184 0.931 . S
H1201 C1189 0.929 . S
H1202 C1190 0.960 . S
H1203 C1190 0.962 . S
H1204 C1190 0.960 . S
H1205 C1191 0.961 . S
H1206 C1191 0.961 . S
H1207 C1191 0.961 . S
H1208 C1192 0.931 . S
H1209 C1197 0.930 . S
H1210 C1198 0.956 . S
H1211 C1198 0.961 . S
H1212 C1198 0.961 . S
H1213 C1199 0.958 . S
H1214 C1199 0.961 . S
H1215 C1199 0.960 . S
C1216 C1217 1.391 . S
C1216 C1218 1.394 . S
C1216 H1232 0.931 . S
C1217 C1216 1.391 . S
C1217 C1221 1.376 . S
C1218 C1216 1.394 . S
C1218 C1219 1.369 . S
C1218 C1222 1.531 . S
C1219 C1218 1.369 . S
C1219 C1220 1.410 . S
C1219 C1227 1.503 . S
C1220 C1219 1.410 . S
C1220 C1221 1.392 . S
C1220 C1223 1.511 . S
C1221 C1217 1.376 . S
C1221 C1220 1.392 . S
C1221 H1233 0.929 . S
C1222 C1218 1.531 . S
C1222 H1234 0.960 . S
C1222 H1235 0.962 . S
C1222 H1236 0.960 . S
C1223 C1220 1.511 . S
C1223 H1237 0.961 . S
C1223 H1238 0.961 . S
C1223 H1239 0.961 . S
C1224 C1225 1.370 . S
C1224 C1226 1.363 . S
C1224 H1240 0.931 . S
C1225 C1224 1.370 . S
C1225 C1229 1.408 . S
C1226 C1224 1.363 . S
C1226 C1227 1.370 . S
C1226 C1230 1.524 . S
C1227 C1219 1.503 . S
C1227 C1226 1.370 . S
C1227 C1228 1.403 . S
C1228 C1227 1.403 . S
C1228 C1229 1.404 . S
C1228 C1231 1.539 . S
C1229 C1225 1.408 . S
C1229 C1228 1.404 . S
C1229 H1241 0.930 . S
C1230 C1226 1.524 . S
C1230 H1242 0.956 . S
C1230 H1243 0.961 . S
C1230 H1244 0.961 . S
C1231 C1228 1.539 . S
C1231 H1245 0.958 . S
C1231 H1246 0.961 . S
C1231 H1247 0.960 . S
H1232 C1216 0.931 . S
H1233 C1221 0.929 . S
H1234 C1222 0.960 . S
H1235 C1222 0.962 . S
H1236 C1222 0.960 . S
H1237 C1223 0.961 . S
H1238 C1223 0.961 . S
H1239 C1223 0.961 . S
H1240 C1224 0.931 . S
H1241 C1229 0.930 . S
H1242 C1230 0.956 . S
H1243 C1230 0.961 . S
H1244 C1230 0.961 . S
H1245 C1231 0.958 . S
H1246 C1231 0.961 . S
H1247 C1231 0.960 . S
C1248 C1249 1.391 . S
C1248 C1250 1.394 . S
C1248 H1264 0.931 . S
C1249 C1248 1.391 . S
C1249 C1253 1.376 . S
C1250 C1248 1.394 . S
C1250 C1251 1.369 . S
C1250 C1254 1.531 . S
C1251 C1250 1.369 . S
C1251 C1252 1.410 . S
C1251 C1259 1.503 . S
C1252 C1251 1.410 . S
C1252 C1253 1.392 . S
C1252 C1255 1.511 . S
C1253 C1249 1.376 . S
C1253 C1252 1.392 . S
C1253 H1265 0.929 . S
C1254 C1250 1.531 . S
C1254 H1266 0.960 . S
C1254 H1267 0.962 . S
C1254 H1268 0.960 . S
C1255 C1252 1.511 . S
C1255 H1269 0.961 . S
C1255 H1270 0.961 . S
C1255 H1271 0.961 . S
C1256 C1257 1.370 . S
C1256 C1258 1.363 . S
C1256 H1272 0.931 . S
C1257 C1256 1.370 . S
C1257 C1261 1.408 . S
C1258 C1256 1.363 . S
C1258 C1259 1.370 . S
C1258 C1262 1.524 . S
C1259 C1251 1.503 . S
C1259 C1258 1.370 . S
C1259 C1260 1.403 . S
C1260 C1259 1.403 . S
C1260 C1261 1.404 . S
C1260 C1263 1.539 . S
C1261 C1257 1.408 . S
C1261 C1260 1.404 . S
C1261 H1273 0.930 . S
C1262 C1258 1.524 . S
C1262 H1274 0.956 . S
C1262 H1275 0.961 . S
C1262 H1276 0.961 . S
C1263 C1260 1.539 . S
C1263 H1277 0.958 . S
C1263 H1278 0.961 . S
C1263 H1279 0.960 . S
H1264 C1248 0.931 . S
H1265 C1253 0.929 . S
H1266 C1254 0.960 . S
H1267 C1254 0.962 . S
H1268 C1254 0.960 . S
H1269 C1255 0.961 . S
H1270 C1255 0.961 . S
H1271 C1255 0.961 . S
H1272 C1256 0.931 . S
H1273 C1261 0.930 . S
H1274 C1262 0.956 . S
H1275 C1262 0.961 . S
H1276 C1262 0.961 . S
H1277 C1263 0.958 . S
H1278 C1263 0.961 . S
H1279 C1263 0.960 . S
C1280 C1281 1.391 . S
C1280 C1282 1.394 . S
C1280 H1296 0.931 . S
C1281 C1280 1.391 . S
C1281 C1285 1.376 . S
C1282 C1280 1.394 . S
C1282 C1283 1.369 . S
C1282 C1286 1.531 . S
C1283 C1282 1.369 . S
C1283 C1284 1.410 . S
C1283 C1291 1.503 . S
C1284 C1283 1.410 . S
C1284 C1285 1.392 . S
C1284 C1287 1.511 . S
C1285 C1281 1.376 . S
C1285 C1284 1.392 . S
C1285 H1297 0.929 . S
C1286 C1282 1.531 . S
C1286 H1298 0.960 . S
C1286 H1299 0.962 . S
C1286 H1300 0.960 . S
C1287 C1284 1.511 . S
C1287 H1301 0.961 . S
C1287 H1302 0.961 . S
C1287 H1303 0.961 . S
C1288 C1289 1.370 . S
C1288 C1290 1.363 . S
C1288 H1304 0.931 . S
C1289 C1288 1.370 . S
C1289 C1293 1.408 . S
C1290 C1288 1.363 . S
C1290 C1291 1.370 . S
C1290 C1294 1.524 . S
C1291 C1283 1.503 . S
C1291 C1290 1.370 . S
C1291 C1292 1.403 . S
C1292 C1291 1.403 . S
C1292 C1293 1.404 . S
C1292 C1295 1.539 . S
C1293 C1289 1.408 . S
C1293 C1292 1.404 . S
C1293 H1305 0.930 1_554 S
C1294 C1290 1.524 . S
C1294 H1306 0.956 . S
C1294 H1307 0.961 . S
C1294 H1308 0.961 . S
C1295 C1292 1.539 . S
C1295 H1309 0.958 . S
C1295 H1310 0.961 . S
C1295 H1311 0.960 . S
H1296 C1280 0.931 . S
H1297 C1285 0.929 . S
H1298 C1286 0.960 . S
H1299 C1286 0.962 . S
H1300 C1286 0.960 . S
H1301 C1287 0.961 . S
H1302 C1287 0.961 . S
H1303 C1287 0.961 . S
H1304 C1288 0.931 . S
H1305 C1293 0.930 1_556 S
H1306 C1294 0.956 . S
H1307 C1294 0.961 . S
H1308 C1294 0.961 . S
H1309 C1295 0.958 . S
H1310 C1295 0.961 . S
H1311 C1295 0.960 . S
C1312 C1313 1.391 . S
C1312 C1314 1.394 . S
C1312 H1328 0.931 . S
C1313 C1312 1.391 . S
C1313 C1317 1.376 . S
C1314 C1312 1.394 . S
C1314 C1315 1.369 . S
C1314 C1318 1.531 . S
C1315 C1314 1.369 . S
C1315 C1316 1.410 . S
C1315 C1323 1.503 . S
C1316 C1315 1.410 . S
C1316 C1317 1.392 . S
C1316 C1319 1.511 . S
C1317 C1313 1.376 . S
C1317 C1316 1.392 . S
C1317 H1329 0.929 . S
C1318 C1314 1.531 . S
C1318 H1330 0.960 . S
C1318 H1331 0.962 . S
C1318 H1332 0.960 . S
C1319 C1316 1.511 . S
C1319 H1333 0.961 . S
C1319 H1334 0.961 . S
C1319 H1335 0.961 . S
C1320 C1321 1.370 . S
C1320 C1322 1.363 . S
C1320 H1336 0.931 . S
C1321 C1320 1.370 . S
C1321 C1325 1.408 . S
C1322 C1320 1.363 . S
C1322 C1323 1.370 . S
C1322 C1326 1.524 . S
C1323 C1315 1.503 . S
C1323 C1322 1.370 . S
C1323 C1324 1.403 . S
C1324 C1323 1.403 . S
C1324 C1325 1.404 . S
C1324 C1327 1.539 . S
C1325 C1321 1.408 . S
C1325 C1324 1.404 . S
C1325 H1337 0.930 . S
C1326 C1322 1.524 . S
C1326 H1338 0.956 . S
C1326 H1339 0.961 . S
C1326 H1340 0.961 . S
C1327 C1324 1.539 . S
C1327 H1341 0.958 . S
C1327 H1342 0.961 . S
C1327 H1343 0.960 . S
H1328 C1312 0.931 . S
H1329 C1317 0.929 . S
H1330 C1318 0.960 . S
H1331 C1318 0.962 . S
H1332 C1318 0.960 . S
H1333 C1319 0.961 . S
H1334 C1319 0.961 . S
H1335 C1319 0.961 . S
H1336 C1320 0.931 . S
H1337 C1325 0.930 . S
H1338 C1326 0.956 . S
H1339 C1326 0.961 . S
H1340 C1326 0.961 . S
H1341 C1327 0.958 . S
H1342 C1327 0.961 . S
H1343 C1327 0.960 . S
C1344 C1345 1.391 . S
C1344 C1346 1.394 . S
C1344 H1360 0.931 . S
C1345 C1344 1.391 . S
C1345 C1349 1.376 . S
C1346 C1344 1.394 . S
C1346 C1347 1.369 . S
C1346 C1350 1.531 . S
C1347 C1346 1.369 . S
C1347 C1348 1.410 . S
C1347 C1355 1.503 . S
C1348 C1347 1.410 . S
C1348 C1349 1.392 . S
C1348 C1351 1.511 . S
C1349 C1345 1.376 . S
C1349 C1348 1.392 . S
C1349 H1361 0.929 . S
C1350 C1346 1.531 . S
C1350 H1362 0.960 . S
C1350 H1363 0.962 . S
C1350 H1364 0.960 . S
C1351 C1348 1.511 . S
C1351 H1365 0.961 . S
C1351 H1366 0.961 . S
C1351 H1367 0.961 . S
C1352 C1353 1.370 . S
C1352 C1354 1.363 . S
C1352 H1368 0.931 . S
C1353 C1352 1.370 . S
C1353 C1357 1.408 . S
C1354 C1352 1.363 . S
C1354 C1355 1.370 . S
C1354 C1358 1.524 . S
C1355 C1347 1.503 . S
C1355 C1354 1.370 . S
C1355 C1356 1.403 . S
C1356 C1355 1.403 . S
C1356 C1357 1.404 . S
C1356 C1359 1.539 . S
C1357 C1353 1.408 . S
C1357 C1356 1.404 . S
C1357 H1369 0.930 . S
C1358 C1354 1.524 . S
C1358 H1370 0.956 . S
C1358 H1371 0.961 . S
C1358 H1372 0.961 . S
C1359 C1356 1.539 . S
C1359 H1373 0.958 . S
C1359 H1374 0.961 . S
C1359 H1375 0.960 . S
H1360 C1344 0.931 . S
H1361 C1349 0.929 . S
H1362 C1350 0.960 . S
H1363 C1350 0.962 . S
H1364 C1350 0.960 . S
H1365 C1351 0.961 . S
H1366 C1351 0.961 . S
H1367 C1351 0.961 . S
H1368 C1352 0.931 . S
H1369 C1357 0.930 . S
H1370 C1358 0.956 . S
H1371 C1358 0.961 . S
H1372 C1358 0.961 . S
H1373 C1359 0.958 . S
H1374 C1359 0.961 . S
H1375 C1359 0.960 . S
C1376 C1377 1.391 . S
C1376 C1378 1.394 . S
C1376 H1392 0.924 1_554 S
C1377 C1376 1.391 . S
C1377 C1381 1.376 . S
C1378 C1376 1.394 . S
C1378 C1379 1.369 . S
C1378 C1382 1.531 . S
C1379 C1378 1.369 . S
C1379 C1380 1.410 . S
C1379 C1387 1.503 . S
C1380 C1379 1.410 . S
C1380 C1381 1.392 . S
C1380 C1383 1.511 . S
C1381 C1377 1.376 . S
C1381 C1380 1.392 . S
C1381 H1393 0.929 . S
C1382 C1378 1.531 . S
C1382 H1394 0.960 . S
C1382 H1395 0.962 . S
C1382 H1396 0.960 . S
C1383 C1380 1.511 . S
C1383 H1397 0.961 . S
C1383 H1398 0.961 . S
C1383 H1399 0.961 . S
C1384 C1385 1.370 . S
C1384 C1386 1.363 . S
C1384 H1400 0.931 . S
C1385 C1384 1.370 . S
C1385 C1389 1.408 . S
C1386 C1384 1.363 . S
C1386 C1387 1.370 . S
C1386 C1390 1.524 . S
C1387 C1379 1.503 . S
C1387 C1386 1.370 . S
C1387 C1388 1.403 . S
C1388 C1387 1.403 . S
C1388 C1389 1.404 . S
C1388 C1391 1.539 . S
C1389 C1385 1.408 . S
C1389 C1388 1.404 . S
C1389 H1401 0.930 . S
C1390 C1386 1.524 . S
C1390 H1402 0.956 . S
C1390 H1403 0.961 . S
C1390 H1404 0.961 . S
C1391 C1388 1.539 . S
C1391 H1405 0.958 . S
C1391 H1406 0.961 . S
C1391 H1407 0.960 . S
H1392 C1376 0.924 1_556 S
H1393 C1381 0.929 . S
H1394 C1382 0.960 . S
H1395 C1382 0.962 . S
H1396 C1382 0.960 . S
H1397 C1383 0.961 . S
H1398 C1383 0.961 . S
H1399 C1383 0.961 . S
H1400 C1384 0.931 . S
H1401 C1389 0.930 . S
H1402 C1390 0.956 . S
H1403 C1390 0.961 . S
H1404 C1390 0.961 . S
H1405 C1391 0.958 . S
H1406 C1391 0.961 . S
H1407 C1391 0.960 . S
C1408 C1409 1.391 . S
C1408 C1410 1.394 . S
C1408 H1424 0.931 . S
C1409 C1408 1.391 . S
C1409 C1413 1.376 . S
C1410 C1408 1.394 . S
C1410 C1411 1.369 . S
C1410 C1414 1.531 . S
C1411 C1410 1.369 . S
C1411 C1412 1.410 . S
C1411 C1419 1.503 . S
C1412 C1411 1.410 . S
C1412 C1413 1.392 . S
C1412 C1415 1.511 . S
C1413 C1409 1.376 . S
C1413 C1412 1.392 . S
C1413 H1425 0.929 . S
C1414 C1410 1.531 . S
C1414 H1426 0.960 . S
C1414 H1427 0.962 . S
C1414 H1428 0.960 . S
C1415 C1412 1.511 . S
C1415 H1429 0.961 . S
C1415 H1430 0.961 . S
C1415 H1431 0.961 . S
C1416 C1417 1.370 . S
C1416 C1418 1.363 . S
C1416 H1432 0.931 . S
C1417 C1416 1.370 . S
C1417 C1421 1.408 . S
C1418 C1416 1.363 . S
C1418 C1419 1.370 . S
C1418 C1422 1.524 . S
C1419 C1411 1.503 . S
C1419 C1418 1.370 . S
C1419 C1420 1.403 . S
C1420 C1419 1.403 . S
C1420 C1421 1.404 . S
C1420 C1423 1.539 . S
C1421 C1417 1.408 . S
C1421 C1420 1.404 . S
C1421 H1433 0.930 . S
C1422 C1418 1.524 . S
C1422 H1434 0.956 . S
C1422 H1435 0.961 . S
C1422 H1436 0.961 . S
C1423 C1420 1.539 . S
C1423 H1437 0.958 . S
C1423 H1438 0.961 . S
C1423 H1439 0.960 . S
H1424 C1408 0.931 . S
H1425 C1413 0.929 . S
H1426 C1414 0.960 . S
H1427 C1414 0.962 . S
H1428 C1414 0.960 . S
H1429 C1415 0.961 . S
H1430 C1415 0.961 . S
H1431 C1415 0.961 . S
H1432 C1416 0.931 . S
H1433 C1421 0.930 . S
H1434 C1422 0.956 . S
H1435 C1422 0.961 . S
H1436 C1422 0.961 . S
H1437 C1423 0.958 . S
H1438 C1423 0.961 . S
H1439 C1423 0.960 . S
C1440 C1441 1.391 . S
C1440 C1442 1.394 . S
C1440 H1456 0.931 . S
C1441 C1440 1.391 . S
C1441 C1445 1.376 . S
C1442 C1440 1.394 . S
C1442 C1443 1.369 . S
C1442 C1446 1.531 . S
C1443 C1442 1.369 . S
C1443 C1444 1.410 . S
C1443 C1451 1.503 . S
C1444 C1443 1.410 . S
C1444 C1445 1.392 . S
C1444 C1447 1.511 . S
C1445 C1441 1.376 . S
C1445 C1444 1.392 . S
C1445 H1457 0.929 . S
C1446 C1442 1.531 . S
C1446 H1458 0.960 . S
C1446 H1459 0.962 . S
C1446 H1460 0.960 . S
C1447 C1444 1.511 . S
C1447 H1461 0.961 . S
C1447 H1462 0.961 . S
C1447 H1463 0.961 . S
C1448 C1449 1.370 . S
C1448 C1450 1.363 . S
C1448 H1464 0.931 . S
C1449 C1448 1.370 . S
C1449 C1453 1.408 . S
C1450 C1448 1.363 . S
C1450 C1451 1.370 . S
C1450 C1454 1.524 . S
C1451 C1443 1.503 . S
C1451 C1450 1.370 . S
C1451 C1452 1.403 . S
C1452 C1451 1.403 . S
C1452 C1453 1.404 . S
C1452 C1455 1.539 . S
C1453 C1449 1.408 . S
C1453 C1452 1.404 . S
C1453 H1465 0.930 . S
C1454 C1450 1.524 . S
C1454 H1466 0.956 . S
C1454 H1467 0.961 . S
C1454 H1468 0.961 . S
C1455 C1452 1.539 . S
C1455 H1469 0.958 . S
C1455 H1470 0.961 . S
C1455 H1471 0.960 . S
H1456 C1440 0.931 . S
H1457 C1445 0.929 . S
H1458 C1446 0.960 . S
H1459 C1446 0.962 . S
H1460 C1446 0.960 . S
H1461 C1447 0.961 . S
H1462 C1447 0.961 . S
H1463 C1447 0.961 . S
H1464 C1448 0.931 . S
H1465 C1453 0.930 . S
H1466 C1454 0.956 . S
H1467 C1454 0.961 . S
H1468 C1454 0.961 . S
H1469 C1455 0.958 . S
H1470 C1455 0.961 . S
H1471 C1455 0.960 . S
C1472 C1473 1.391 . S
C1472 C1474 1.394 . S
C1472 H1488 0.931 . S
C1473 C1472 1.391 . S
C1473 C1477 1.376 . S
C1474 C1472 1.394 . S
C1474 C1475 1.369 . S
C1474 C1478 1.531 . S
C1475 C1474 1.369 . S
C1475 C1476 1.410 . S
C1475 C1483 1.503 . S
C1476 C1475 1.410 . S
C1476 C1477 1.392 . S
C1476 C1479 1.511 . S
C1477 C1473 1.376 . S
C1477 C1476 1.392 . S
C1477 H1489 0.929 . S
C1478 C1474 1.531 . S
C1478 H1490 0.960 . S
C1478 H1491 0.962 . S
C1478 H1492 0.960 . S
C1479 C1476 1.511 . S
C1479 H1493 0.961 . S
C1479 H1494 0.961 . S
C1479 H1495 0.961 . S
C1480 C1481 1.370 . S
C1480 C1482 1.363 . S
C1480 H1496 0.931 . S
C1481 C1480 1.370 . S
C1481 C1485 1.408 . S
C1482 C1480 1.363 . S
C1482 C1483 1.370 . S
C1482 C1486 1.524 . S
C1483 C1475 1.503 . S
C1483 C1482 1.370 . S
C1483 C1484 1.403 . S
C1484 C1483 1.403 . S
C1484 C1485 1.404 . S
C1484 C1487 1.539 . S
C1485 C1481 1.408 . S
C1485 C1484 1.404 . S
C1485 H1497 0.930 . S
C1486 C1482 1.524 . S
C1486 H1498 0.956 . S
C1486 H1499 0.961 . S
C1486 H1500 0.961 . S
C1487 C1484 1.539 . S
C1487 H1501 0.958 . S
C1487 H1502 0.961 . S
C1487 H1503 0.960 . S
H1488 C1472 0.931 . S
H1489 C1477 0.929 . S
H1490 C1478 0.960 . S
H1491 C1478 0.962 . S
H1492 C1478 0.960 . S
H1493 C1479 0.961 . S
H1494 C1479 0.961 . S
H1495 C1479 0.961 . S
H1496 C1480 0.931 . S
H1497 C1485 0.930 . S
H1498 C1486 0.956 . S
H1499 C1486 0.961 . S
H1500 C1486 0.961 . S
H1501 C1487 0.958 . S
H1502 C1487 0.961 . S
H1503 C1487 0.960 . S
C1504 C1505 1.391 . S
C1504 C1506 1.394 . S
C1504 H1520 0.931 . S
C1505 C1504 1.391 . S
C1505 C1509 1.376 . S
C1506 C1504 1.394 . S
C1506 C1507 1.369 . S
C1506 C1510 1.531 . S
C1507 C1506 1.369 . S
C1507 C1508 1.410 . S
C1507 C1515 1.503 . S
C1508 C1507 1.410 . S
C1508 C1509 1.392 . S
C1508 C1511 1.511 . S
C1509 C1505 1.376 . S
C1509 C1508 1.392 . S
C1509 H1521 0.929 . S
C1510 C1506 1.531 . S
C1510 H1522 0.960 . S
C1510 H1523 0.962 . S
C1510 H1524 0.960 . S
C1511 C1508 1.511 . S
C1511 H1525 0.961 . S
C1511 H1526 0.961 . S
C1511 H1527 0.961 . S
C1512 C1513 1.370 . S
C1512 C1514 1.363 . S
C1512 H1528 0.931 . S
C1513 C1512 1.370 . S
C1513 C1517 1.408 . S
C1514 C1512 1.363 . S
C1514 C1515 1.370 . S
C1514 C1518 1.524 . S
C1515 C1507 1.503 . S
C1515 C1514 1.370 . S
C1515 C1516 1.403 . S
C1516 C1515 1.403 . S
C1516 C1517 1.404 . S
C1516 C1519 1.539 . S
C1517 C1513 1.408 . S
C1517 C1516 1.404 . S
C1517 H1529 0.930 . S
C1518 C1514 1.524 . S
C1518 H1530 0.956 . S
C1518 H1531 0.961 . S
C1518 H1532 0.961 . S
C1519 C1516 1.539 . S
C1519 H1533 0.958 . S
C1519 H1534 0.961 . S
C1519 H1535 0.960 . S
H1520 C1504 0.931 . S
H1521 C1509 0.929 . S
H1522 C1510 0.960 . S
H1523 C1510 0.962 . S
H1524 C1510 0.960 . S
H1525 C1511 0.961 . S
H1526 C1511 0.961 . S
H1527 C1511 0.961 . S
H1528 C1512 0.931 . S
H1529 C1517 0.930 . S
H1530 C1518 0.956 . S
H1531 C1518 0.961 . S
H1532 C1518 0.961 . S
H1533 C1519 0.958 . S
H1534 C1519 0.961 . S
H1535 C1519 0.960 . S
C1536 C1537 1.391 . S
C1536 C1538 1.394 . S
C1536 H1552 0.931 . S
C1537 C1536 1.391 . S
C1537 C1541 1.376 . S
C1538 C1536 1.394 . S
C1538 C1539 1.369 . S
C1538 C1542 1.531 . S
C1539 C1538 1.369 . S
C1539 C1540 1.410 . S
C1539 C1547 1.503 . S
C1540 C1539 1.410 . S
C1540 C1541 1.392 . S
C1540 C1543 1.511 . S
C1541 C1537 1.376 . S
C1541 C1540 1.392 . S
C1541 H1553 0.929 . S
C1542 C1538 1.531 . S
C1542 H1554 0.960 . S
C1542 H1555 0.962 . S
C1542 H1556 0.960 . S
C1543 C1540 1.511 . S
C1543 H1557 0.961 . S
C1543 H1558 0.961 . S
C1543 H1559 0.961 . S
C1544 C1545 1.370 . S
C1544 C1546 1.363 . S
C1544 H1560 0.931 . S
C1545 C1544 1.370 . S
C1545 C1549 1.408 . S
C1546 C1544 1.363 . S
C1546 C1547 1.370 . S
C1546 C1550 1.524 . S
C1547 C1539 1.503 . S
C1547 C1546 1.370 . S
C1547 C1548 1.403 . S
C1548 C1547 1.403 . S
C1548 C1549 1.404 . S
C1548 C1551 1.539 . S
C1549 C1545 1.408 . S
C1549 C1548 1.404 . S
C1549 H1561 0.930 . S
C1550 C1546 1.524 . S
C1550 H1562 0.956 . S
C1550 H1563 0.961 . S
C1550 H1564 0.961 . S
C1551 C1548 1.539 . S
C1551 H1565 0.958 . S
C1551 H1566 0.961 . S
C1551 H1567 0.960 . S
H1552 C1536 0.931 . S
H1553 C1541 0.929 . S
H1554 C1542 0.960 . S
H1555 C1542 0.962 . S
H1556 C1542 0.960 . S
H1557 C1543 0.961 . S
H1558 C1543 0.961 . S
H1559 C1543 0.961 . S
H1560 C1544 0.931 . S
H1561 C1549 0.930 . S
H1562 C1550 0.956 . S
H1563 C1550 0.961 . S
H1564 C1550 0.961 . S
H1565 C1551 0.958 . S
H1566 C1551 0.961 . S
H1567 C1551 0.960 . S
C1568 C1569 1.391 . S
C1568 C1570 1.394 . S
C1568 H1584 0.931 . S
C1569 C1568 1.391 . S
C1569 C1573 1.376 . S
C1570 C1568 1.394 . S
C1570 C1571 1.369 . S
C1570 C1574 1.531 . S
C1571 C1570 1.369 . S
C1571 C1572 1.410 . S
C1571 C1579 1.503 . S
C1572 C1571 1.410 . S
C1572 C1573 1.392 . S
C1572 C1575 1.511 . S
C1573 C1569 1.376 . S
C1573 C1572 1.392 . S
C1573 H1585 0.929 . S
C1574 C1570 1.531 . S
C1574 H1586 0.960 . S
C1574 H1587 0.962 . S
C1574 H1588 0.960 . S
C1575 C1572 1.511 . S
C1575 H1589 0.961 . S
C1575 H1590 0.961 . S
C1575 H1591 0.961 . S
C1576 C1577 1.370 . S
C1576 C1578 1.363 . S
C1576 H1592 0.931 . S
C1577 C1576 1.370 . S
C1577 C1581 1.408 . S
C1578 C1576 1.363 . S
C1578 C1579 1.370 . S
C1578 C1582 1.524 . S
C1579 C1571 1.503 . S
C1579 C1578 1.370 . S
C1579 C1580 1.403 . S
C1580 C1579 1.403 . S
C1580 C1581 1.404 . S
C1580 C1583 1.539 . S
C1581 C1577 1.408 . S
C1581 C1580 1.404 . S
C1581 H1593 0.930 . S
C1582 C1578 1.524 . S
C1582 H1594 0.956 . S
C1582 H1595 0.961 . S
C1582 H1596 0.961 . S
C1583 C1580 1.539 . S
C1583 H1597 0.958 . S
C1583 H1598 0.961 . S
C1583 H1599 0.960 . S
H1584 C1568 0.931 . S
H1585 C1573 0.929 . S
H1586 C1574 0.960 . S
H1587 C1574 0.962 . S
H1588 C1574 0.960 . S
H1589 C1575 0.961 . S
H1590 C1575 0.961 . S
H1591 C1575 0.961 . S
H1592 C1576 0.931 . S
H1593 C1581 0.930 . S
H1594 C1582 0.956 . S
H1595 C1582 0.961 . S
H1596 C1582 0.961 . S
H1597 C1583 0.958 . S
H1598 C1583 0.961 . S
H1599 C1583 0.960 . S
C1600 C1601 1.391 . S
C1600 C1602 1.394 . S
C1600 H1616 0.931 . S
C1601 C1600 1.391 . S
C1601 C1605 1.376 . S
C1602 C1600 1.394 . S
C1602 C1603 1.369 . S
C1602 C1606 1.531 . S
C1603 C1602 1.369 . S
C1603 C1604 1.410 . S
C1603 C1611 1.503 . S
C1604 C1603 1.410 . S
C1604 C1605 1.392 . S
C1604 C1607 1.511 . S
C1605 C1601 1.376 . S
C1605 C1604 1.392 . S
C1605 H1617 0.929 . S
C1606 C1602 1.531 . S
C1606 H1618 0.960 . S
C1606 H1619 0.962 . S
C1606 H1620 0.960 . S
C1607 C1604 1.511 . S
C1607 H1621 0.961 . S
C1607 H1622 0.961 . S
C1607 H1623 0.961 . S
C1608 C1609 1.370 . S
C1608 C1610 1.363 . S
C1608 H1624 0.931 . S
C1609 C1608 1.370 . S
C1609 C1613 1.408 . S
C1610 C1608 1.363 . S
C1610 C1611 1.370 . S
C1610 C1614 1.524 . S
C1611 C1603 1.503 . S
C1611 C1610 1.370 . S
C1611 C1612 1.403 . S
C1612 C1611 1.403 . S
C1612 C1613 1.404 . S
C1612 C1615 1.539 . S
C1613 C1609 1.408 . S
C1613 C1612 1.404 . S
C1613 H1625 0.930 1_556 S
C1614 C1610 1.524 . S
C1614 H1626 0.956 . S
C1614 H1627 0.961 . S
C1614 H1628 0.961 . S
C1615 C1612 1.539 . S
C1615 H1629 0.958 . S
C1615 H1630 0.961 . S
C1615 H1631 0.960 . S
H1616 C1600 0.931 . S
H1617 C1605 0.929 . S
H1618 C1606 0.960 . S
H1619 C1606 0.962 . S
H1620 C1606 0.960 . S
H1621 C1607 0.961 . S
H1622 C1607 0.961 . S
H1623 C1607 0.961 . S
H1624 C1608 0.931 . S
H1625 C1613 0.930 1_554 S
H1626 C1614 0.956 . S
H1627 C1614 0.961 . S
H1628 C1614 0.961 . S
H1629 C1615 0.958 . S
H1630 C1615 0.961 . S
H1631 C1615 0.960 . S
C1632 C1633 1.391 . S
C1632 C1634 1.394 . S
C1632 H1648 0.931 . S
C1633 C1632 1.391 . S
C1633 C1637 1.376 . S
C1634 C1632 1.394 . S
C1634 C1635 1.369 . S
C1634 C1638 1.531 . S
C1635 C1634 1.369 . S
C1635 C1636 1.410 . S
C1635 C1643 1.503 . S
C1636 C1635 1.410 . S
C1636 C1637 1.392 . S
C1636 C1639 1.511 . S
C1637 C1633 1.376 . S
C1637 C1636 1.392 . S
C1637 H1649 0.938 . S
C1638 C1634 1.531 . S
C1638 H1650 0.960 . S
C1638 H1651 0.962 . S
C1638 H1652 0.960 . S
C1639 C1636 1.511 . S
C1639 H1653 0.961 . S
C1639 H1654 0.961 . S
C1639 H1655 0.961 . S
C1640 C1641 1.370 . S
C1640 C1642 1.363 . S
C1640 H1656 0.931 . S
C1641 C1640 1.370 . S
C1641 C1645 1.408 . S
C1642 C1640 1.363 . S
C1642 C1643 1.370 . S
C1642 C1646 1.524 . S
C1643 C1635 1.503 . S
C1643 C1642 1.370 . S
C1643 C1644 1.403 . S
C1644 C1643 1.403 . S
C1644 C1645 1.404 . S
C1644 C1647 1.539 . S
C1645 C1641 1.408 . S
C1645 C1644 1.404 . S
C1645 H1657 0.930 . S
C1646 C1642 1.524 . S
C1646 H1658 0.956 . S
C1646 H1659 0.961 . S
C1646 H1660 0.961 . S
C1647 C1644 1.539 . S
C1647 H1661 0.958 . S
C1647 H1662 0.961 . S
C1647 H1663 0.960 . S
H1648 C1632 0.931 . S
H1649 C1637 0.938 . S
H1650 C1638 0.960 . S
H1651 C1638 0.962 . S
H1652 C1638 0.960 . S
H1653 C1639 0.961 . S
H1654 C1639 0.961 . S
H1655 C1639 0.961 . S
H1656 C1640 0.931 . S
H1657 C1645 0.930 . S
H1658 C1646 0.956 . S
H1659 C1646 0.961 . S
H1660 C1646 0.961 . S
H1661 C1647 0.958 . S
H1662 C1647 0.961 . S
H1663 C1647 0.960 . S
C1664 C1665 1.391 . S
C1664 C1666 1.394 . S
C1664 H1680 0.931 . S
C1665 C1664 1.391 . S
C1665 C1669 1.376 . S
C1666 C1664 1.394 . S
C1666 C1667 1.369 . S
C1666 C1670 1.531 . S
C1667 C1666 1.369 . S
C1667 C1668 1.410 . S
C1667 C1675 1.503 . S
C1668 C1667 1.410 . S
C1668 C1669 1.392 . S
C1668 C1671 1.511 . S
C1669 C1665 1.376 . S
C1669 C1668 1.392 . S
C1669 H1681 0.929 . S
C1670 C1666 1.531 . S
C1670 H1682 0.960 . S
C1670 H1683 0.962 . S
C1670 H1684 0.960 . S
C1671 C1668 1.511 . S
C1671 H1685 0.961 . S
C1671 H1686 0.961 . S
C1671 H1687 0.961 . S
C1672 C1673 1.370 . S
C1672 C1674 1.363 . S
C1672 H1688 0.931 . S
C1673 C1672 1.370 . S
C1673 C1677 1.408 . S
C1674 C1672 1.363 . S
C1674 C1675 1.370 . S
C1674 C1678 1.524 . S
C1675 C1667 1.503 . S
C1675 C1674 1.370 . S
C1675 C1676 1.403 . S
C1676 C1675 1.403 . S
C1676 C1677 1.404 . S
C1676 C1679 1.539 . S
C1677 C1673 1.408 . S
C1677 C1676 1.404 . S
C1677 H1689 0.930 . S
C1678 C1674 1.524 . S
C1678 H1690 0.956 . S
C1678 H1691 0.961 . S
C1678 H1692 0.961 . S
C1679 C1676 1.539 . S
C1679 H1693 0.958 . S
C1679 H1694 0.961 . S
C1679 H1695 0.960 . S
H1680 C1664 0.931 . S
H1681 C1669 0.929 . S
H1682 C1670 0.960 . S
H1683 C1670 0.962 . S
H1684 C1670 0.960 . S
H1685 C1671 0.961 . S
H1686 C1671 0.961 . S
H1687 C1671 0.961 . S
H1688 C1672 0.931 . S
H1689 C1677 0.930 . S
H1690 C1678 0.956 . S
H1691 C1678 0.961 . S
H1692 C1678 0.961 . S
H1693 C1679 0.958 . S
H1694 C1679 0.961 . S
H1695 C1679 0.960 . S
C1696 C1697 1.391 . S
C1696 C1698 1.394 . S
C1696 H1712 0.931 . S
C1697 C1696 1.391 . S
C1697 C1701 1.376 . S
C1698 C1696 1.394 . S
C1698 C1699 1.369 . S
C1698 C1702 1.531 . S
C1699 C1698 1.369 . S
C1699 C1700 1.410 . S
C1699 C1707 1.503 . S
C1700 C1699 1.410 . S
C1700 C1701 1.392 . S
C1700 C1703 1.511 . S
C1701 C1697 1.376 . S
C1701 C1700 1.392 . S
C1701 H1713 0.929 . S
C1702 C1698 1.531 . S
C1702 H1714 0.960 . S
C1702 H1715 0.962 . S
C1702 H1716 0.960 . S
C1703 C1700 1.511 . S
C1703 H1717 0.961 . S
C1703 H1718 0.961 . S
C1703 H1719 0.961 . S
C1704 C1705 1.370 . S
C1704 C1706 1.363 . S
C1704 H1720 0.931 . S
C1705 C1704 1.370 . S
C1705 C1709 1.408 . S
C1706 C1704 1.363 . S
C1706 C1707 1.370 . S
C1706 C1710 1.524 . S
C1707 C1699 1.503 . S
C1707 C1706 1.370 . S
C1707 C1708 1.403 . S
C1708 C1707 1.403 . S
C1708 C1709 1.404 . S
C1708 C1711 1.539 . S
C1709 C1705 1.408 . S
C1709 C1708 1.404 . S
C1709 H1721 0.930 . S
C1710 C1706 1.524 . S
C1710 H1722 0.956 . S
C1710 H1723 0.961 . S
C1710 H1724 0.961 . S
C1711 C1708 1.539 . S
C1711 H1725 0.958 . S
C1711 H1726 0.961 . S
C1711 H1727 0.960 . S
H1712 C1696 0.931 . S
H1713 C1701 0.929 . S
H1714 C1702 0.960 . S
H1715 C1702 0.962 . S
H1716 C1702 0.960 . S
H1717 C1703 0.961 . S
H1718 C1703 0.961 . S
H1719 C1703 0.961 . S
H1720 C1704 0.931 . S
H1721 C1709 0.930 . S
H1722 C1710 0.956 . S
H1723 C1710 0.961 . S
H1724 C1710 0.961 . S
H1725 C1711 0.958 . S
H1726 C1711 0.961 . S
H1727 C1711 0.960 . S
C1728 C1729 1.391 . S
C1728 C1730 1.394 . S
C1728 H1744 0.931 . S
C1729 C1728 1.391 . S
C1729 C1733 1.376 . S
C1730 C1728 1.394 . S
C1730 C1731 1.369 . S
C1730 C1734 1.531 . S
C1731 C1730 1.369 . S
C1731 C1732 1.410 . S
C1731 C1739 1.503 . S
C1732 C1731 1.410 . S
C1732 C1733 1.392 . S
C1732 C1735 1.511 . S
C1733 C1729 1.376 . S
C1733 C1732 1.392 . S
C1733 H1745 0.929 . S
C1734 C1730 1.531 . S
C1734 H1746 0.960 . S
C1734 H1747 0.962 . S
C1734 H1748 0.960 . S
C1735 C1732 1.511 . S
C1735 H1749 0.961 . S
C1735 H1750 0.961 . S
C1735 H1751 0.961 . S
C1736 C1737 1.370 . S
C1736 C1738 1.363 . S
C1736 H1752 0.931 . S
C1737 C1736 1.370 . S
C1737 C1741 1.408 . S
C1738 C1736 1.363 . S
C1738 C1739 1.370 . S
C1738 C1742 1.524 . S
C1739 C1731 1.503 . S
C1739 C1738 1.370 . S
C1739 C1740 1.403 . S
C1740 C1739 1.403 . S
C1740 C1741 1.404 . S
C1740 C1743 1.539 . S
C1741 C1737 1.408 . S
C1741 C1740 1.404 . S
C1741 H1753 0.930 . S
C1742 C1738 1.524 . S
C1742 H1754 0.956 . S
C1742 H1755 0.961 . S
C1742 H1756 0.961 . S
C1743 C1740 1.539 . S
C1743 H1757 0.958 . S
C1743 H1758 0.961 . S
C1743 H1759 0.960 . S
H1744 C1728 0.931 . S
H1745 C1733 0.929 . S
H1746 C1734 0.960 . S
H1747 C1734 0.962 . S
H1748 C1734 0.960 . S
H1749 C1735 0.961 . S
H1750 C1735 0.961 . S
H1751 C1735 0.961 . S
H1752 C1736 0.931 . S
H1753 C1741 0.930 . S
H1754 C1742 0.956 . S
H1755 C1742 0.961 . S
H1756 C1742 0.961 . S
H1757 C1743 0.958 . S
H1758 C1743 0.961 . S
H1759 C1743 0.960 . S
C1760 C1761 1.391 . S
C1760 C1762 1.394 . S
C1760 H1776 0.931 . S
C1761 C1760 1.391 . S
C1761 C1765 1.376 . S
C1762 C1760 1.394 . S
C1762 C1763 1.369 . S
C1762 C1766 1.531 . S
C1763 C1762 1.369 . S
C1763 C1764 1.410 . S
C1763 C1771 1.503 . S
C1764 C1763 1.410 . S
C1764 C1765 1.392 . S
C1764 C1767 1.511 . S
C1765 C1761 1.376 . S
C1765 C1764 1.392 . S
C1765 H1777 0.929 . S
C1766 C1762 1.531 . S
C1766 H1778 0.960 . S
C1766 H1779 0.962 . S
C1766 H1780 0.960 . S
C1767 C1764 1.511 . S
C1767 H1781 0.961 . S
C1767 H1782 0.961 . S
C1767 H1783 0.961 . S
C1768 C1769 1.370 . S
C1768 C1770 1.363 . S
C1768 H1784 0.931 . S
C1769 C1768 1.370 . S
C1769 C1773 1.408 . S
C1770 C1768 1.363 . S
C1770 C1771 1.370 . S
C1770 C1774 1.524 . S
C1771 C1763 1.503 . S
C1771 C1770 1.370 . S
C1771 C1772 1.403 . S
C1772 C1771 1.403 . S
C1772 C1773 1.404 . S
C1772 C1775 1.539 . S
C1773 C1769 1.408 . S
C1773 C1772 1.404 . S
C1773 H1785 0.930 1_556 S
C1774 C1770 1.524 . S
C1774 H1786 0.956 . S
C1774 H1787 0.961 . S
C1774 H1788 0.961 . S
C1775 C1772 1.539 . S
C1775 H1789 0.958 . S
C1775 H1790 0.961 . S
C1775 H1791 0.960 . S
H1776 C1760 0.931 . S
H1777 C1765 0.929 . S
H1778 C1766 0.960 . S
H1779 C1766 0.962 . S
H1780 C1766 0.960 . S
H1781 C1767 0.961 . S
H1782 C1767 0.961 . S
H1783 C1767 0.961 . S
H1784 C1768 0.931 . S
H1785 C1773 0.930 1_554 S
H1786 C1774 0.956 . S
H1787 C1774 0.961 . S
H1788 C1774 0.961 . S
H1789 C1775 0.958 . S
H1790 C1775 0.961 . S
H1791 C1775 0.960 . S
C1792 C1793 1.391 . S
C1792 C1794 1.394 . S
C1792 H1808 0.931 . S
C1793 C1792 1.391 . S
C1793 C1797 1.376 . S
C1794 C1792 1.394 . S
C1794 C1795 1.369 . S
C1794 C1798 1.531 . S
C1795 C1794 1.369 . S
C1795 C1796 1.410 . S
C1795 C1803 1.503 . S
C1796 C1795 1.410 . S
C1796 C1797 1.392 . S
C1796 C1799 1.511 . S
C1797 C1793 1.376 . S
C1797 C1796 1.392 . S
C1797 H1809 0.929 . S
C1798 C1794 1.531 . S
C1798 H1810 0.960 . S
C1798 H1811 0.962 . S
C1798 H1812 0.960 . S
C1799 C1796 1.511 . S
C1799 H1813 0.961 . S
C1799 H1814 0.961 . S
C1799 H1815 0.961 . S
C1800 C1801 1.370 . S
C1800 C1802 1.363 . S
C1800 H1816 0.931 . S
C1801 C1800 1.370 . S
C1801 C1805 1.408 . S
C1802 C1800 1.363 . S
C1802 C1803 1.370 . S
C1802 C1806 1.524 . S
C1803 C1795 1.503 . S
C1803 C1802 1.370 . S
C1803 C1804 1.403 . S
C1804 C1803 1.403 . S
C1804 C1805 1.404 . S
C1804 C1807 1.539 . S
C1805 C1801 1.408 . S
C1805 C1804 1.404 . S
C1805 H1817 0.930 . S
C1806 C1802 1.524 . S
C1806 H1818 0.956 . S
C1806 H1819 0.961 . S
C1806 H1820 0.961 . S
C1807 C1804 1.539 . S
C1807 H1821 0.958 . S
C1807 H1822 0.961 . S
C1807 H1823 0.960 . S
H1808 C1792 0.931 . S
H1809 C1797 0.929 . S
H1810 C1798 0.960 . S
H1811 C1798 0.962 . S
H1812 C1798 0.960 . S
H1813 C1799 0.961 . S
H1814 C1799 0.961 . S
H1815 C1799 0.961 . S
H1816 C1800 0.931 . S
H1817 C1805 0.930 . S
H1818 C1806 0.956 . S
H1819 C1806 0.961 . S
H1820 C1806 0.961 . S
H1821 C1807 0.958 . S
H1822 C1807 0.961 . S
H1823 C1807 0.960 . S
C1824 C1825 1.391 . S
C1824 C1826 1.394 . S
C1824 H1840 0.931 1_554 S
C1825 C1824 1.391 . S
C1825 C1829 1.376 . S
C1826 C1824 1.394 . S
C1826 C1827 1.369 . S
C1826 C1830 1.531 . S
C1827 C1826 1.369 . S
C1827 C1828 1.410 . S
C1827 C1835 1.503 . S
C1828 C1827 1.410 . S
C1828 C1829 1.392 . S
C1828 C1831 1.511 . S
C1829 C1825 1.376 . S
C1829 C1828 1.392 . S
C1829 H1841 0.929 . S
C1830 C1826 1.531 . S
C1830 H1842 0.960 . S
C1830 H1843 0.962 . S
C1830 H1844 0.960 . S
C1831 C1828 1.511 . S
C1831 H1845 0.961 . S
C1831 H1846 0.961 . S
C1831 H1847 0.961 . S
C1832 C1833 1.370 . S
C1832 C1834 1.363 . S
C1832 H1848 0.931 . S
C1833 C1832 1.370 . S
C1833 C1837 1.408 . S
C1834 C1832 1.363 . S
C1834 C1835 1.370 . S
C1834 C1838 1.524 . S
C1835 C1827 1.503 . S
C1835 C1834 1.370 . S
C1835 C1836 1.403 . S
C1836 C1835 1.403 . S
C1836 C1837 1.404 . S
C1836 C1839 1.539 . S
C1837 C1833 1.408 . S
C1837 C1836 1.404 . S
C1837 H1849 0.930 . S
C1838 C1834 1.524 . S
C1838 H1850 0.956 . S
C1838 H1851 0.961 . S
C1838 H1852 0.961 . S
C1839 C1836 1.539 . S
C1839 H1853 0.958 . S
C1839 H1854 0.961 . S
C1839 H1855 0.960 . S
H1840 C1824 0.931 1_556 S
H1841 C1829 0.929 . S
H1842 C1830 0.960 . S
H1843 C1830 0.962 . S
H1844 C1830 0.960 . S
H1845 C1831 0.961 . S
H1846 C1831 0.961 . S
H1847 C1831 0.961 . S
H1848 C1832 0.931 . S
H1849 C1837 0.930 . S
H1850 C1838 0.956 . S
H1851 C1838 0.961 . S
H1852 C1838 0.961 . S
H1853 C1839 0.958 . S
H1854 C1839 0.961 . S
H1855 C1839 0.960 . S
C1856 C1857 1.391 . S
C1856 C1858 1.394 . S
C1856 H1872 0.931 . S
C1857 C1856 1.391 . S
C1857 C1861 1.376 . S
C1858 C1856 1.394 . S
C1858 C1859 1.369 . S
C1858 C1862 1.531 . S
C1859 C1858 1.369 . S
C1859 C1860 1.410 . S
C1859 C1867 1.503 . S
C1860 C1859 1.410 . S
C1860 C1861 1.392 . S
C1860 C1863 1.511 . S
C1861 C1857 1.376 . S
C1861 C1860 1.392 . S
C1861 H1873 0.929 . S
C1862 C1858 1.531 . S
C1862 H1874 0.960 . S
C1862 H1875 0.962 . S
C1862 H1876 0.960 . S
C1863 C1860 1.511 . S
C1863 H1877 0.961 . S
C1863 H1878 0.961 . S
C1863 H1879 0.961 . S
C1864 C1865 1.370 . S
C1864 C1866 1.363 . S
C1864 H1880 0.931 . S
C1865 C1864 1.370 . S
C1865 C1869 1.408 . S
C1866 C1864 1.363 . S
C1866 C1867 1.370 . S
C1866 C1870 1.524 . S
C1867 C1859 1.503 . S
C1867 C1866 1.370 . S
C1867 C1868 1.403 . S
C1868 C1867 1.403 . S
C1868 C1869 1.404 . S
C1868 C1871 1.539 . S
C1869 C1865 1.408 . S
C1869 C1868 1.404 . S
C1869 H1881 0.930 . S
C1870 C1866 1.524 . S
C1870 H1882 0.956 . S
C1870 H1883 0.961 . S
C1870 H1884 0.961 . S
C1871 C1868 1.539 . S
C1871 H1885 0.958 . S
C1871 H1886 0.961 . S
C1871 H1887 0.960 . S
H1872 C1856 0.931 . S
H1873 C1861 0.929 . S
H1874 C1862 0.960 . S
H1875 C1862 0.962 . S
H1876 C1862 0.960 . S
H1877 C1863 0.961 . S
H1878 C1863 0.961 . S
H1879 C1863 0.961 . S
H1880 C1864 0.931 . S
H1881 C1869 0.930 . S
H1882 C1870 0.956 . S
H1883 C1870 0.961 . S
H1884 C1870 0.961 . S
H1885 C1871 0.958 . S
H1886 C1871 0.961 . S
H1887 C1871 0.960 . S
C1888 C1889 1.391 . S
C1888 C1890 1.394 . S
C1888 H1904 0.931 . S
C1889 C1888 1.391 . S
C1889 C1893 1.376 . S
C1890 C1888 1.394 . S
C1890 C1891 1.369 . S
C1890 C1894 1.531 . S
C1891 C1890 1.369 . S
C1891 C1892 1.410 . S
C1891 C1899 1.503 . S
C1892 C1891 1.410 . S
C1892 C1893 1.392 . S
C1892 C1895 1.511 . S
C1893 C1889 1.376 . S
C1893 C1892 1.392 . S
C1893 H1905 0.929 . S
C1894 C1890 1.531 . S
C1894 H1906 0.960 . S
C1894 H1907 0.962 . S
C1894 H1908 0.960 . S
C1895 C1892 1.511 . S
C1895 H1909 0.961 . S
C1895 H1910 0.961 . S
C1895 H1911 0.961 . S
C1896 C1897 1.370 . S
C1896 C1898 1.363 . S
C1896 H1912 0.931 . S
C1897 C1896 1.370 . S
C1897 C1901 1.408 . S
C1898 C1896 1.363 . S
C1898 C1899 1.370 . S
C1898 C1902 1.524 . S
C1899 C1891 1.503 . S
C1899 C1898 1.370 . S
C1899 C1900 1.403 . S
C1900 C1899 1.403 . S
C1900 C1901 1.404 . S
C1900 C1903 1.539 . S
C1901 C1897 1.408 . S
C1901 C1900 1.404 . S
C1901 H1913 0.930 . S
C1902 C1898 1.524 . S
C1902 H1914 0.956 . S
C1902 H1915 0.961 . S
C1902 H1916 0.961 . S
C1903 C1900 1.539 . S
C1903 H1917 0.958 . S
C1903 H1918 0.961 . S
C1903 H1919 0.960 . S
H1904 C1888 0.931 . S
H1905 C1893 0.929 . S
H1906 C1894 0.960 . S
H1907 C1894 0.962 . S
H1908 C1894 0.960 . S
H1909 C1895 0.961 . S
H1910 C1895 0.961 . S
H1911 C1895 0.961 . S
H1912 C1896 0.931 . S
H1913 C1901 0.930 . S
H1914 C1902 0.956 . S
H1915 C1902 0.961 . S
H1916 C1902 0.961 . S
H1917 C1903 0.958 . S
H1918 C1903 0.961 . S
H1919 C1903 0.960 . S
C1920 C1921 1.391 . S
C1920 C1922 1.394 . S
C1920 H1936 0.931 . S
C1921 C1920 1.391 . S
C1921 C1925 1.376 . S
C1922 C1920 1.394 . S
C1922 C1923 1.369 . S
C1922 C1926 1.531 . S
C1923 C1922 1.369 . S
C1923 C1924 1.410 . S
C1923 C1931 1.503 . S
C1924 C1923 1.410 . S
C1924 C1925 1.392 . S
C1924 C1927 1.511 . S
C1925 C1921 1.376 . S
C1925 C1924 1.392 . S
C1925 H1937 0.929 . S
C1926 C1922 1.531 . S
C1926 H1938 0.960 . S
C1926 H1939 0.962 . S
C1926 H1940 0.960 . S
C1927 C1924 1.511 . S
C1927 H1941 0.961 . S
C1927 H1942 0.961 . S
C1927 H1943 0.961 . S
C1928 C1929 1.370 . S
C1928 C1930 1.363 . S
C1928 H1944 0.931 . S
C1929 C1928 1.370 . S
C1929 C1933 1.408 . S
C1930 C1928 1.363 . S
C1930 C1931 1.370 . S
C1930 C1934 1.524 . S
C1931 C1923 1.503 . S
C1931 C1930 1.370 . S
C1931 C1932 1.403 . S
C1932 C1931 1.403 . S
C1932 C1933 1.404 . S
C1932 C1935 1.539 . S
C1933 C1929 1.408 . S
C1933 C1932 1.404 . S
C1933 H1945 0.930 1_556 S
C1934 C1930 1.524 . S
C1934 H1946 0.956 . S
C1934 H1947 0.961 . S
C1934 H1948 0.961 . S
C1935 C1932 1.539 . S
C1935 H1949 0.958 . S
C1935 H1950 0.961 . S
C1935 H1951 0.960 . S
H1936 C1920 0.931 . S
H1937 C1925 0.929 . S
H1938 C1926 0.960 . S
H1939 C1926 0.962 . S
H1940 C1926 0.960 . S
H1941 C1927 0.961 . S
H1942 C1927 0.961 . S
H1943 C1927 0.961 . S
H1944 C1928 0.931 . S
H1945 C1933 0.930 1_554 S
H1946 C1934 0.956 . S
H1947 C1934 0.961 . S
H1948 C1934 0.961 . S
H1949 C1935 0.958 . S
H1950 C1935 0.961 . S
H1951 C1935 0.960 . S
C1952 C1953 1.391 . S
C1952 C1954 1.394 . S
C1952 H1968 0.931 . S
C1953 C1952 1.391 . S
C1953 C1957 1.376 . S
C1954 C1952 1.394 . S
C1954 C1955 1.369 . S
C1954 C1958 1.531 . S
C1955 C1954 1.369 . S
C1955 C1956 1.410 . S
C1955 C1963 1.503 . S
C1956 C1955 1.410 . S
C1956 C1957 1.392 . S
C1956 C1959 1.511 . S
C1957 C1953 1.376 . S
C1957 C1956 1.392 . S
C1957 H1969 0.929 . S
C1958 C1954 1.531 . S
C1958 H1970 0.960 . S
C1958 H1971 0.962 . S
C1958 H1972 0.960 . S
C1959 C1956 1.511 . S
C1959 H1973 0.961 . S
C1959 H1974 0.961 . S
C1959 H1975 0.961 . S
C1960 C1961 1.370 . S
C1960 C1962 1.363 . S
C1960 H1976 0.931 . S
C1961 C1960 1.370 . S
C1961 C1965 1.408 . S
C1962 C1960 1.363 . S
C1962 C1963 1.370 . S
C1962 C1966 1.524 . S
C1963 C1955 1.503 . S
C1963 C1962 1.370 . S
C1963 C1964 1.403 . S
C1964 C1963 1.403 . S
C1964 C1965 1.404 . S
C1964 C1967 1.539 . S
C1965 C1961 1.408 . S
C1965 C1964 1.404 . S
C1965 H1977 0.930 . S
C1966 C1962 1.524 . S
C1966 H1978 0.956 . S
C1966 H1979 0.961 . S
C1966 H1980 0.961 . S
C1967 C1964 1.539 . S
C1967 H1981 0.958 . S
C1967 H1982 0.961 . S
C1967 H1983 0.960 . S
H1968 C1952 0.931 . S
H1969 C1957 0.929 . S
H1970 C1958 0.960 . S
H1971 C1958 0.962 . S
H1972 C1958 0.960 . S
H1973 C1959 0.961 . S
H1974 C1959 0.961 . S
H1975 C1959 0.961 . S
H1976 C1960 0.931 . S
H1977 C1965 0.930 . S
H1978 C1966 0.956 . S
H1979 C1966 0.961 . S
H1980 C1966 0.961 . S
H1981 C1967 0.958 . S
H1982 C1967 0.961 . S
H1983 C1967 0.960 . S
C1984 C1985 1.391 . S
C1984 C1986 1.394 . S
C1984 H2000 0.931 . S
C1985 C1984 1.391 . S
C1985 C1989 1.376 . S
C1986 C1984 1.394 . S
C1986 C1987 1.369 . S
C1986 C1990 1.531 . S
C1987 C1986 1.369 . S
C1987 C1988 1.410 . S
C1987 C1995 1.503 . S
C1988 C1987 1.410 . S
C1988 C1989 1.392 . S
C1988 C1991 1.511 . S
C1989 C1985 1.376 . S
C1989 C1988 1.392 . S
C1989 H2001 0.929 . S
C1990 C1986 1.531 . S
C1990 H2002 0.960 . S
C1990 H2003 0.962 . S
C1990 H2004 0.960 . S
C1991 C1988 1.511 . S
C1991 H2005 0.961 . S
C1991 H2006 0.961 . S
C1991 H2007 0.961 . S
C1992 C1993 1.370 . S
C1992 C1994 1.363 . S
C1992 H2008 0.931 . S
C1993 C1992 1.370 . S
C1993 C1997 1.408 . S
C1994 C1992 1.363 . S
C1994 C1995 1.370 . S
C1994 C1998 1.524 . S
C1995 C1987 1.503 . S
C1995 C1994 1.370 . S
C1995 C1996 1.403 . S
C1996 C1995 1.403 . S
C1996 C1997 1.404 . S
C1996 C1999 1.539 . S
C1997 C1993 1.408 . S
C1997 C1996 1.404 . S
C1997 H2009 0.930 . S
C1998 C1994 1.524 . S
C1998 H2010 0.956 . S
C1998 H2011 0.961 . S
C1998 H2012 0.961 . S
C1999 C1996 1.539 . S
C1999 H2013 0.958 . S
C1999 H2014 0.961 . S
C1999 H2015 0.960 . S
H2000 C1984 0.931 . S
H2001 C1989 0.929 . S
H2002 C1990 0.960 . S
H2003 C1990 0.962 . S
H2004 C1990 0.960 . S
H2005 C1991 0.961 . S
H2006 C1991 0.961 . S
H2007 C1991 0.961 . S
H2008 C1992 0.931 . S
H2009 C1997 0.930 . S
H2010 C1998 0.956 . S
H2011 C1998 0.961 . S
H2012 C1998 0.961 . S
H2013 C1999 0.958 . S
H2014 C1999 0.961 . S
H2015 C1999 0.960 . S
C2016 C2017 1.391 . S
C2016 C2018 1.394 . S
C2016 H2032 0.931 . S
C2017 C2016 1.391 . S
C2017 C2021 1.376 . S
C2018 C2016 1.394 . S
C2018 C2019 1.369 . S
C2018 C2022 1.531 . S
C2019 C2018 1.369 . S
C2019 C2020 1.410 . S
C2019 C2027 1.503 . S
C2020 C2019 1.410 . S
C2020 C2021 1.392 . S
C2020 C2023 1.511 . S
C2021 C2017 1.376 . S
C2021 C2020 1.392 . S
C2021 H2033 0.929 . S
C2022 C2018 1.531 . S
C2022 H2034 0.960 . S
C2022 H2035 0.962 . S
C2022 H2036 0.960 . S
C2023 C2020 1.511 . S
C2023 H2037 0.961 . S
C2023 H2038 0.961 . S
C2023 H2039 0.961 . S
C2024 C2025 1.370 . S
C2024 C2026 1.363 . S
C2024 H2040 0.931 . S
C2025 C2024 1.370 . S
C2025 C2029 1.408 . S
C2026 C2024 1.363 . S
C2026 C2027 1.370 . S
C2026 C2030 1.524 . S
C2027 C2019 1.503 . S
C2027 C2026 1.370 . S
C2027 C2028 1.403 . S
C2028 C2027 1.403 . S
C2028 C2029 1.404 . S
C2028 C2031 1.539 . S
C2029 C2025 1.408 . S
C2029 C2028 1.404 . S
C2029 H2041 0.930 . S
C2030 C2026 1.524 . S
C2030 H2042 0.956 . S
C2030 H2043 0.961 . S
C2030 H2044 0.961 . S
C2031 C2028 1.539 . S
C2031 H2045 0.958 . S
C2031 H2046 0.961 . S
C2031 H2047 0.960 . S
H2032 C2016 0.931 . S
H2033 C2021 0.929 . S
H2034 C2022 0.960 . S
H2035 C2022 0.962 . S
H2036 C2022 0.960 . S
H2037 C2023 0.961 . S
H2038 C2023 0.961 . S
H2039 C2023 0.961 . S
H2040 C2024 0.931 . S
H2041 C2029 0.930 . S
H2042 C2030 0.956 . S
H2043 C2030 0.961 . S
H2044 C2030 0.961 . S
H2045 C2031 0.958 . S
H2046 C2031 0.961 . S
H2047 C2031 0.960 . S
C2048 C2049 1.391 . S
C2048 C2050 1.394 . S
C2048 H2064 0.931 . S
C2049 C2048 1.391 . S
C2049 C2053 1.376 . S
C2050 C2048 1.394 . S
C2050 C2051 1.369 . S
C2050 C2054 1.531 . S
C2051 C2050 1.369 . S
C2051 C2052 1.410 . S
C2051 C2059 1.503 . S
C2052 C2051 1.410 . S
C2052 C2053 1.392 . S
C2052 C2055 1.511 . S
C2053 C2049 1.376 . S
C2053 C2052 1.392 . S
C2053 H2065 0.929 . S
C2054 C2050 1.531 . S
C2054 H2066 0.960 . S
C2054 H2067 0.962 . S
C2054 H2068 0.960 . S
C2055 C2052 1.511 . S
C2055 H2069 0.961 . S
C2055 H2070 0.961 . S
C2055 H2071 0.961 . S
C2056 C2057 1.370 . S
C2056 C2058 1.363 . S
C2056 H2072 0.931 . S
C2057 C2056 1.370 . S
C2057 C2061 1.408 . S
C2058 C2056 1.363 . S
C2058 C2059 1.370 . S
C2058 C2062 1.524 . S
C2059 C2051 1.503 . S
C2059 C2058 1.370 . S
C2059 C2060 1.403 . S
C2060 C2059 1.403 . S
C2060 C2061 1.404 . S
C2060 C2063 1.539 . S
C2061 C2057 1.408 . S
C2061 C2060 1.404 . S
C2061 H2073 0.935 . S
C2062 C2058 1.524 . S
C2062 H2074 0.956 . S
C2062 H2075 0.961 . S
C2062 H2076 0.961 . S
C2063 C2060 1.539 . S
C2063 H2077 0.958 . S
C2063 H2078 0.961 . S
C2063 H2079 0.960 . S
H2064 C2048 0.931 . S
H2065 C2053 0.929 . S
H2066 C2054 0.960 . S
H2067 C2054 0.962 . S
H2068 C2054 0.960 . S
H2069 C2055 0.961 . S
H2070 C2055 0.961 . S
H2071 C2055 0.961 . S
H2072 C2056 0.931 . S
H2073 C2061 0.935 . S
H2074 C2062 0.956 . S
H2075 C2062 0.961 . S
H2076 C2062 0.961 . S
H2077 C2063 0.958 . S
H2078 C2063 0.961 . S
H2079 C2063 0.960 . S
C2080 C2081 1.391 . S
C2080 C2082 1.394 . S
C2080 H2096 0.931 . S
C2081 C2080 1.391 . S
C2081 C2085 1.376 . S
C2082 C2080 1.394 . S
C2082 C2083 1.369 . S
C2082 C2086 1.531 . S
C2083 C2082 1.369 . S
C2083 C2084 1.410 . S
C2083 C2091 1.503 . S
C2084 C2083 1.410 . S
C2084 C2085 1.392 . S
C2084 C2087 1.511 . S
C2085 C2081 1.376 . S
C2085 C2084 1.392 . S
C2085 H2097 0.929 . S
C2086 C2082 1.531 . S
C2086 H2098 0.960 . S
C2086 H2099 0.962 . S
C2086 H2100 0.960 . S
C2087 C2084 1.511 . S
C2087 H2101 0.961 . S
C2087 H2102 0.961 . S
C2087 H2103 0.961 . S
C2088 C2089 1.370 . S
C2088 C2090 1.363 . S
C2088 H2104 0.931 . S
C2089 C2088 1.370 . S
C2089 C2093 1.408 . S
C2090 C2088 1.363 . S
C2090 C2091 1.370 . S
C2090 C2094 1.524 . S
C2091 C2083 1.503 . S
C2091 C2090 1.370 . S
C2091 C2092 1.403 . S
C2092 C2091 1.403 . S
C2092 C2093 1.404 . S
C2092 C2095 1.539 . S
C2093 C2089 1.408 . S
C2093 C2092 1.404 . S
C2093 H2105 0.930 . S
C2094 C2090 1.524 . S
C2094 H2106 0.956 . S
C2094 H2107 0.961 . S
C2094 H2108 0.961 . S
C2095 C2092 1.539 . S
C2095 H2109 0.958 . S
C2095 H2110 0.961 . S
C2095 H2111 0.960 . S
H2096 C2080 0.931 . S
H2097 C2085 0.929 . S
H2098 C2086 0.960 . S
H2099 C2086 0.962 . S
H2100 C2086 0.960 . S
H2101 C2087 0.961 . S
H2102 C2087 0.961 . S
H2103 C2087 0.961 . S
H2104 C2088 0.931 . S
H2105 C2093 0.930 . S
H2106 C2094 0.956 . S
H2107 C2094 0.961 . S
H2108 C2094 0.961 . S
H2109 C2095 0.958 . S
H2110 C2095 0.961 . S
H2111 C2095 0.960 . S
C2112 C2113 1.391 . S
C2112 C2114 1.394 . S
C2112 H2128 0.931 . S
C2113 C2112 1.391 . S
C2113 C2117 1.376 . S
C2114 C2112 1.394 . S
C2114 C2115 1.369 . S
C2114 C2118 1.531 . S
C2115 C2114 1.369 . S
C2115 C2116 1.410 . S
C2115 C2123 1.503 1_565 S
C2116 C2115 1.410 . S
C2116 C2117 1.392 . S
C2116 C2119 1.511 . S
C2117 C2113 1.376 . S
C2117 C2116 1.392 . S
C2117 H2129 0.929 . S
C2118 C2114 1.531 . S
C2118 H2130 0.960 . S
C2118 H2131 0.962 . S
C2118 H2132 0.960 . S
C2119 C2116 1.511 . S
C2119 H2133 0.961 . S
C2119 H2134 0.961 1_565 S
C2119 H2135 0.961 . S
C2120 C2121 1.370 . S
C2120 C2122 1.363 . S
C2120 H2136 0.931 . S
C2121 C2120 1.370 . S
C2121 C2125 1.408 . S
C2122 C2120 1.363 . S
C2122 C2123 1.370 . S
C2122 C2126 1.524 . S
C2123 C2115 1.503 1_545 S
C2123 C2122 1.370 . S
C2123 C2124 1.403 . S
C2124 C2123 1.403 . S
C2124 C2125 1.404 . S
C2124 C2127 1.539 1_545 S
C2125 C2121 1.408 . S
C2125 C2124 1.404 . S
C2125 H2137 0.930 . S
C2126 C2122 1.524 . S
C2126 H2138 0.956 . S
C2126 H2139 0.961 . S
C2126 H2140 0.961 . S
C2127 C2124 1.539 1_565 S
C2127 H2141 0.958 . S
C2127 H2142 0.961 . S
C2127 H2143 0.960 . S
H2128 C2112 0.931 . S
H2129 C2117 0.929 . S
H2130 C2118 0.960 . S
H2131 C2118 0.962 . S
H2132 C2118 0.960 . S
H2133 C2119 0.961 . S
H2134 C2119 0.961 1_545 S
H2135 C2119 0.961 . S
H2136 C2120 0.931 . S
H2137 C2125 0.930 . S
H2138 C2126 0.956 . S
H2139 C2126 0.961 . S
H2140 C2126 0.961 . S
H2141 C2127 0.958 . S
H2142 C2127 0.961 . S
H2143 C2127 0.960 . S
C2144 C2145 1.391 . S
C2144 C2146 1.394 1_554 S
C2144 H2160 0.931 1_554 S
C2145 C2144 1.391 . S
C2145 C2149 1.376 . S
C2146 C2144 1.394 1_556 S
C2146 C2147 1.369 1_556 S
C2146 C2150 1.531 . S
C2147 C2146 1.369 1_554 S
C2147 C2148 1.410 . S
C2147 C2155 1.503 1_554 S
C2148 C2147 1.410 . S
C2148 C2149 1.392 . S
C2148 C2151 1.511 . S
C2149 C2145 1.376 . S
C2149 C2148 1.392 . S
C2149 H2161 0.929 . S
C2150 C2146 1.531 . S
C2150 H2162 0.960 . S
C2150 H2163 0.962 . S
C2150 H2164 0.960 . S
C2151 C2148 1.511 . S
C2151 H2165 0.961 . S
C2151 H2166 0.961 . S
C2151 H2167 0.961 . S
C2152 C2153 1.370 . S
C2152 C2154 1.363 . S
C2152 H2168 0.931 . S
C2153 C2152 1.370 . S
C2153 C2157 1.408 . S
C2154 C2152 1.363 . S
C2154 C2155 1.370 . S
C2154 C2158 1.524 1_556 S
C2155 C2147 1.503 1_556 S
C2155 C2154 1.370 . S
C2155 C2156 1.403 . S
C2156 C2155 1.403 . S
C2156 C2157 1.404 . S
C2156 C2159 1.539 . S
C2157 C2153 1.408 . S
C2157 C2156 1.404 . S
C2157 H2169 0.930 . S
C2158 C2154 1.524 1_554 S
C2158 H2170 0.956 1_554 S
C2158 H2171 0.961 . S
C2158 H2172 0.961 . S
C2159 C2156 1.539 . S
C2159 H2173 0.958 . S
C2159 H2174 0.961 . S
C2159 H2175 0.960 . S
H2160 C2144 0.931 1_556 S
H2161 C2149 0.929 . S
H2162 C2150 0.960 . S
H2163 C2150 0.962 . S
H2164 C2150 0.960 . S
H2165 C2151 0.961 . S
H2166 C2151 0.961 . S
H2167 C2151 0.961 . S
H2168 C2152 0.931 . S
H2169 C2157 0.930 . S
H2170 C2158 0.956 1_556 S
H2171 C2158 0.961 . S
H2172 C2158 0.961 . S
H2173 C2159 0.958 . S
H2174 C2159 0.961 . S
H2175 C2159 0.960 . S
C2176 C2177 1.391 . S
C2176 C2178 1.394 . S
C2176 H2192 0.931 . S
C2177 C2176 1.391 . S
C2177 C2181 1.376 . S
C2178 C2176 1.394 . S
C2178 C2179 1.369 . S
C2178 C2182 1.531 1_565 S
C2179 C2178 1.369 . S
C2179 C2180 1.410 . S
C2179 C2187 1.503 1_565 S
C2180 C2179 1.410 . S
C2180 C2181 1.392 . S
C2180 C2183 1.511 . S
C2181 C2177 1.376 . S
C2181 C2180 1.392 . S
C2181 H2193 0.929 . S
C2182 C2178 1.531 1_545 S
C2182 H2194 0.960 . S
C2182 H2195 0.962 . S
C2182 H2196 0.960 . S
C2183 C2180 1.511 . S
C2183 H2197 0.961 . S
C2183 H2198 0.961 . S
C2183 H2199 0.961 . S
C2184 C2185 1.370 . S
C2184 C2186 1.363 . S
C2184 H2200 0.931 . S
C2185 C2184 1.370 . S
C2185 C2189 1.408 . S
C2186 C2184 1.363 . S
C2186 C2187 1.370 . S
C2186 C2190 1.524 1_545 S
C2187 C2179 1.503 1_545 S
C2187 C2186 1.370 . S
C2187 C2188 1.403 . S
C2188 C2187 1.403 . S
C2188 C2189 1.404 . S
C2188 C2191 1.539 . S
C2189 C2185 1.408 . S
C2189 C2188 1.404 . S
C2189 H2201 0.930 . S
C2190 C2186 1.524 1_565 S
C2190 H2202 0.956 . S
C2190 H2203 0.961 . S
C2190 H2204 0.961 . S
C2191 C2188 1.539 . S
C2191 H2205 0.958 . S
C2191 H2206 0.961 . S
C2191 H2207 0.960 . S
H2192 C2176 0.931 . S
H2193 C2181 0.929 . S
H2194 C2182 0.960 . S
H2195 C2182 0.962 . S
H2196 C2182 0.960 . S
H2197 C2183 0.961 . S
H2198 C2183 0.961 . S
H2199 C2183 0.961 . S
H2200 C2184 0.931 . S
H2201 C2189 0.930 . S
H2202 C2190 0.956 . S
H2203 C2190 0.961 . S
H2204 C2190 0.961 . S
H2205 C2191 0.958 . S
H2206 C2191 0.961 . S
H2207 C2191 0.960 . S
C2208 C2209 1.391 . S
C2208 C2210 1.394 . S
C2208 H2224 0.931 . S
C2209 C2208 1.391 . S
C2209 C2213 1.376 . S
C2210 C2208 1.394 . S
C2210 C2211 1.369 . S
C2210 C2214 1.531 . S
C2211 C2210 1.369 . S
C2211 C2212 1.410 . S
C2211 C2219 1.503 . S
C2212 C2211 1.410 . S
C2212 C2213 1.392 . S
C2212 C2215 1.511 . S
C2213 C2209 1.376 . S
C2213 C2212 1.392 . S
C2213 H2225 0.929 . S
C2214 C2210 1.531 . S
C2214 H2226 0.960 . S
C2214 H2227 0.962 . S
C2214 H2228 0.960 . S
C2215 C2212 1.511 . S
C2215 H2229 0.961 . S
C2215 H2230 0.961 . S
C2215 H2231 0.961 . S
C2216 C2217 1.370 . S
C2216 C2218 1.363 . S
C2216 H2232 0.931 . S
C2217 C2216 1.370 . S
C2217 C2221 1.408 . S
C2218 C2216 1.363 . S
C2218 C2219 1.370 . S
C2218 C2222 1.524 . S
C2219 C2211 1.503 . S
C2219 C2218 1.370 . S
C2219 C2220 1.403 . S
C2220 C2219 1.403 . S
C2220 C2221 1.404 . S
C2220 C2223 1.539 . S
C2221 C2217 1.408 . S
C2221 C2220 1.404 . S
C2221 H2233 0.930 . S
C2222 C2218 1.524 . S
C2222 H2234 0.956 . S
C2222 H2235 0.961 . S
C2222 H2236 0.961 . S
C2223 C2220 1.539 . S
C2223 H2237 0.958 . S
C2223 H2238 0.961 . S
C2223 H2239 0.960 . S
H2224 C2208 0.931 . S
H2225 C2213 0.929 . S
H2226 C2214 0.960 . S
H2227 C2214 0.962 . S
H2228 C2214 0.960 . S
H2229 C2215 0.961 . S
H2230 C2215 0.961 . S
H2231 C2215 0.961 . S
H2232 C2216 0.931 . S
H2233 C2221 0.930 . S
H2234 C2222 0.956 . S
H2235 C2222 0.961 . S
H2236 C2222 0.961 . S
H2237 C2223 0.958 . S
H2238 C2223 0.961 . S
H2239 C2223 0.960 . S
C2240 C2241 1.391 . S
C2240 C2242 1.394 . S
C2240 H2256 0.931 . S
C2241 C2240 1.391 . S
C2241 C2245 1.376 . S
C2242 C2240 1.394 . S
C2242 C2243 1.369 . S
C2242 C2246 1.531 . S
C2243 C2242 1.369 . S
C2243 C2244 1.410 . S
C2243 C2251 1.503 1_565 S
C2244 C2243 1.410 . S
C2244 C2245 1.392 . S
C2244 C2247 1.511 . S
C2245 C2241 1.376 . S
C2245 C2244 1.392 . S
C2245 H2257 0.929 . S
C2246 C2242 1.531 . S
C2246 H2258 0.960 . S
C2246 H2259 0.962 . S
C2246 H2260 0.960 . S
C2247 C2244 1.511 . S
C2247 H2261 0.961 . S
C2247 H2262 0.961 1_565 S
C2247 H2263 0.961 . S
C2248 C2249 1.370 . S
C2248 C2250 1.363 . S
C2248 H2264 0.931 . S
C2249 C2248 1.370 . S
C2249 C2253 1.408 . S
C2250 C2248 1.363 . S
C2250 C2251 1.370 . S
C2250 C2254 1.524 . S
C2251 C2243 1.503 1_545 S
C2251 C2250 1.370 . S
C2251 C2252 1.403 . S
C2252 C2251 1.403 . S
C2252 C2253 1.404 . S
C2252 C2255 1.539 1_545 S
C2253 C2249 1.408 . S
C2253 C2252 1.404 . S
C2253 H2265 0.930 . S
C2254 C2250 1.524 . S
C2254 H2266 0.956 . S
C2254 H2267 0.961 . S
C2254 H2268 0.961 . S
C2255 C2252 1.539 1_565 S
C2255 H2269 0.958 . S
C2255 H2270 0.961 . S
C2255 H2271 0.960 . S
H2256 C2240 0.931 . S
H2257 C2245 0.929 . S
H2258 C2246 0.960 . S
H2259 C2246 0.962 . S
H2260 C2246 0.960 . S
H2261 C2247 0.961 . S
H2262 C2247 0.961 1_545 S
H2263 C2247 0.961 . S
H2264 C2248 0.931 . S
H2265 C2253 0.930 . S
H2266 C2254 0.956 . S
H2267 C2254 0.961 . S
H2268 C2254 0.961 . S
H2269 C2255 0.958 . S
H2270 C2255 0.961 . S
H2271 C2255 0.960 . S
C2272 C2273 1.391 . S
C2272 C2274 1.388 1_556 S
C2272 H2288 0.931 . S
C2273 C2272 1.391 . S
C2273 C2277 1.376 . S
C2274 C2272 1.388 1_554 S
C2274 C2275 1.364 1_554 S
C2274 C2278 1.541 . S
C2275 C2274 1.364 1_556 S
C2275 C2276 1.410 . S
C2275 C2283 1.503 1_556 S
C2276 C2275 1.410 . S
C2276 C2277 1.392 . S
C2276 C2279 1.511 . S
C2277 C2273 1.376 . S
C2277 C2276 1.392 . S
C2277 H2289 0.929 . S
C2278 C2274 1.541 . S
C2278 H2290 0.960 . S
C2278 H2291 0.962 . S
C2278 H2292 0.960 . S
C2279 C2276 1.511 . S
C2279 H2293 0.961 . S
C2279 H2294 0.961 . S
C2279 H2295 0.961 . S
C2280 C2281 1.370 . S
C2280 C2282 1.363 . S
C2280 H2296 0.931 . S
C2281 C2280 1.370 . S
C2281 C2285 1.408 . S
C2282 C2280 1.363 . S
C2282 C2283 1.370 . S
C2282 C2286 1.524 . S
C2283 C2275 1.503 1_554 S
C2283 C2282 1.370 . S
C2283 C2284 1.403 . S
C2284 C2283 1.403 . S
C2284 C2285 1.404 . S
C2284 C2287 1.539 1_554 S
C2285 C2281 1.408 . S
C2285 C2284 1.404 . S
C2285 H2297 0.930 . S
C2286 C2282 1.524 . S
C2286 H2298 0.956 . S
C2286 H2299 0.961 . S
C2286 H2300 0.961 . S
C2287 C2284 1.539 1_556 S
C2287 H2301 0.958 . S
C2287 H2302 0.961 . S
C2287 H2303 0.960 . S
H2288 C2272 0.931 . S
H2289 C2277 0.929 . S
H2290 C2278 0.960 . S
H2291 C2278 0.962 . S
H2292 C2278 0.960 . S
H2293 C2279 0.961 . S
H2294 C2279 0.961 . S
H2295 C2279 0.961 . S
H2296 C2280 0.931 . S
H2297 C2285 0.930 . S
H2298 C2286 0.956 . S
H2299 C2286 0.961 . S
H2300 C2286 0.961 . S
H2301 C2287 0.958 . S
H2302 C2287 0.961 . S
H2303 C2287 0.960 . S
C2304 C2305 1.391 . S
C2304 C2306 1.394 . S
C2304 H2320 0.931 . S
C2305 C2304 1.391 . S
C2305 C2309 1.376 . S
C2306 C2304 1.394 . S
C2306 C2307 1.369 . S
C2306 C2310 1.531 . S
C2307 C2306 1.369 . S
C2307 C2308 1.410 . S
C2307 C2315 1.503 1_545 S
C2308 C2307 1.410 . S
C2308 C2309 1.392 . S
C2308 C2311 1.511 . S
C2309 C2305 1.376 . S
C2309 C2308 1.392 . S
C2309 H2321 0.929 . S
C2310 C2306 1.531 . S
C2310 H2322 0.960 1_545 S
C2310 H2323 0.962 1_545 S
C2310 H2324 0.960 . S
C2311 C2308 1.511 . S
C2311 H2325 0.961 . S
C2311 H2326 0.961 . S
C2311 H2327 0.961 . S
C2312 C2313 1.370 . S
C2312 C2314 1.363 . S
C2312 H2328 0.931 . S
C2313 C2312 1.370 . S
C2313 C2317 1.408 . S
C2314 C2312 1.363 . S
C2314 C2315 1.370 . S
C2314 C2318 1.524 . S
C2315 C2307 1.503 1_565 S
C2315 C2314 1.370 . S
C2315 C2316 1.403 . S
C2316 C2315 1.403 . S
C2316 C2317 1.404 . S
C2316 C2319 1.539 1_565 S
C2317 C2313 1.408 . S
C2317 C2316 1.404 . S
C2317 H2329 0.930 . S
C2318 C2314 1.524 . S
C2318 H2330 0.956 . S
C2318 H2331 0.961 . S
C2318 H2332 0.961 . S
C2319 C2316 1.539 1_545 S
C2319 H2333 0.958 . S
C2319 H2334 0.961 . S
C2319 H2335 0.960 . S
H2320 C2304 0.931 . S
H2321 C2309 0.929 . S
H2322 C2310 0.960 1_565 S
H2323 C2310 0.962 1_565 S
H2324 C2310 0.960 . S
H2325 C2311 0.961 . S
H2326 C2311 0.961 . S
H2327 C2311 0.961 . S
H2328 C2312 0.931 . S
H2329 C2317 0.930 . S
H2330 C2318 0.956 . S
H2331 C2318 0.961 . S
H2332 C2318 0.961 . S
H2333 C2319 0.958 . S
H2334 C2319 0.961 . S
H2335 C2319 0.960 . S
C2336 C2337 1.391 . S
C2336 C2338 1.394 1_556 S
C2336 H2352 0.929 1_556 S
C2337 C2336 1.391 . S
C2337 C2341 1.376 . S
C2338 C2336 1.394 1_554 S
C2338 C2339 1.369 1_554 S
C2338 C2342 1.531 . S
C2339 C2338 1.369 1_556 S
C2339 C2340 1.410 . S
C2339 C2347 1.503 1_556 S
C2340 C2339 1.410 . S
C2340 C2341 1.392 . S
C2340 C2343 1.511 . S
C2341 C2337 1.376 . S
C2341 C2340 1.392 . S
C2341 H2353 0.929 . S
C2342 C2338 1.531 . S
C2342 H2354 0.960 . S
C2342 H2355 0.962 . S
C2342 H2356 0.960 . S
C2343 C2340 1.511 . S
C2343 H2357 0.961 . S
C2343 H2358 0.961 . S
C2343 H2359 0.961 . S
C2344 C2345 1.370 . S
C2344 C2346 1.363 . S
C2344 H2360 0.931 . S
C2345 C2344 1.370 . S
C2345 C2349 1.408 . S
C2346 C2344 1.363 . S
C2346 C2347 1.370 . S
C2346 C2350 1.524 1_554 S
C2347 C2339 1.503 1_554 S
C2347 C2346 1.370 . S
C2347 C2348 1.403 . S
C2348 C2347 1.403 . S
C2348 C2349 1.404 . S
C2348 C2351 1.539 . S
C2349 C2345 1.408 . S
C2349 C2348 1.404 . S
C2349 H2361 0.930 . S
C2350 C2346 1.524 1_556 S
C2350 H2362 0.951 1_556 S
C2350 H2363 0.961 . S
C2350 H2364 0.961 . S
C2351 C2348 1.539 . S
C2351 H2365 0.958 . S
C2351 H2366 0.961 . S
C2351 H2367 0.960 . S
H2352 C2336 0.929 1_554 S
H2353 C2341 0.929 . S
H2354 C2342 0.960 . S
H2355 C2342 0.962 . S
H2356 C2342 0.960 . S
H2357 C2343 0.961 . S
H2358 C2343 0.961 . S
H2359 C2343 0.961 . S
H2360 C2344 0.931 . S
H2361 C2349 0.930 . S
H2362 C2350 0.951 1_554 S
H2363 C2350 0.961 . S
H2364 C2350 0.961 . S
H2365 C2351 0.958 . S
H2366 C2351 0.961 . S
H2367 C2351 0.960 . S
C2368 C2369 1.391 . S
C2368 C2370 1.394 . S
C2368 H2384 0.931 . S
C2369 C2368 1.391 . S
C2369 C2373 1.376 . S
C2370 C2368 1.394 . S
C2370 C2371 1.369 . S
C2370 C2374 1.531 . S
C2371 C2370 1.369 . S
C2371 C2372 1.410 . S
C2371 C2379 1.503 . S
C2372 C2371 1.410 . S
C2372 C2373 1.392 . S
C2372 C2375 1.511 . S
C2373 C2369 1.376 . S
C2373 C2372 1.392 . S
C2373 H2385 0.929 . S
C2374 C2370 1.531 . S
C2374 H2386 0.960 . S
C2374 H2387 0.962 . S
C2374 H2388 0.960 . S
C2375 C2372 1.511 . S
C2375 H2389 0.961 . S
C2375 H2390 0.961 . S
C2375 H2391 0.961 . S
C2376 C2377 1.370 . S
C2376 C2378 1.363 . S
C2376 H2392 0.931 . S
C2377 C2376 1.370 . S
C2377 C2381 1.408 . S
C2378 C2376 1.363 . S
C2378 C2379 1.370 . S
C2378 C2382 1.524 . S
C2379 C2371 1.503 . S
C2379 C2378 1.370 . S
C2379 C2380 1.403 . S
C2380 C2379 1.403 . S
C2380 C2381 1.404 . S
C2380 C2383 1.539 . S
C2381 C2377 1.408 . S
C2381 C2380 1.404 . S
C2381 H2393 0.930 . S
C2382 C2378 1.524 . S
C2382 H2394 0.956 . S
C2382 H2395 0.961 . S
C2382 H2396 0.961 . S
C2383 C2380 1.539 . S
C2383 H2397 0.958 . S
C2383 H2398 0.961 . S
C2383 H2399 0.960 . S
H2384 C2368 0.931 . S
H2385 C2373 0.929 . S
H2386 C2374 0.960 . S
H2387 C2374 0.962 . S
H2388 C2374 0.960 . S
H2389 C2375 0.961 . S
H2390 C2375 0.961 . S
H2391 C2375 0.961 . S
H2392 C2376 0.931 . S
H2393 C2381 0.930 . S
H2394 C2382 0.956 . S
H2395 C2382 0.961 . S
H2396 C2382 0.961 . S
H2397 C2383 0.958 . S
H2398 C2383 0.961 . S
H2399 C2383 0.960 . S
C2400 C2401 1.391 . S
C2400 C2402 1.394 . S
C2400 H2416 0.931 . S
C2401 C2400 1.391 . S
C2401 C2405 1.376 . S
C2402 C2400 1.394 . S
C2402 C2403 1.369 . S
C2402 C2406 1.531 . S
C2403 C2402 1.369 . S
C2403 C2404 1.410 . S
C2403 C2411 1.503 . S
C2404 C2403 1.410 . S
C2404 C2405 1.392 . S
C2404 C2407 1.511 . S
C2405 C2401 1.376 . S
C2405 C2404 1.392 . S
C2405 H2417 0.929 . S
C2406 C2402 1.531 . S
C2406 H2418 0.960 . S
C2406 H2419 0.962 . S
C2406 H2420 0.960 . S
C2407 C2404 1.511 . S
C2407 H2421 0.961 . S
C2407 H2422 0.961 . S
C2407 H2423 0.961 . S
C2408 C2409 1.370 . S
C2408 C2410 1.363 . S
C2408 H2424 0.931 . S
C2409 C2408 1.370 . S
C2409 C2413 1.408 . S
C2410 C2408 1.363 . S
C2410 C2411 1.370 . S
C2410 C2414 1.524 . S
C2411 C2403 1.503 . S
C2411 C2410 1.370 . S
C2411 C2412 1.403 . S
C2412 C2411 1.403 . S
C2412 C2413 1.404 . S
C2412 C2415 1.539 . S
C2413 C2409 1.408 . S
C2413 C2412 1.404 . S
C2413 H2425 0.930 . S
C2414 C2410 1.524 . S
C2414 H2426 0.956 . S
C2414 H2427 0.961 . S
C2414 H2428 0.961 . S
C2415 C2412 1.539 . S
C2415 H2429 0.958 . S
C2415 H2430 0.961 . S
C2415 H2431 0.960 . S
H2416 C2400 0.931 . S
H2417 C2405 0.929 . S
H2418 C2406 0.960 . S
H2419 C2406 0.962 . S
H2420 C2406 0.960 . S
H2421 C2407 0.961 . S
H2422 C2407 0.961 . S
H2423 C2407 0.961 . S
H2424 C2408 0.931 . S
H2425 C2413 0.930 . S
H2426 C2414 0.956 . S
H2427 C2414 0.961 . S
H2428 C2414 0.961 . S
H2429 C2415 0.958 . S
H2430 C2415 0.961 . S
H2431 C2415 0.960 . S
C2432 C2433 1.391 . S
C2432 C2434 1.394 . S
C2432 H2448 0.931 . S
C2433 C2432 1.391 . S
C2433 C2437 1.376 . S
C2434 C2432 1.394 . S
C2434 C2435 1.369 . S
C2434 C2438 1.531 . S
C2435 C2434 1.369 . S
C2435 C2436 1.410 . S
C2435 C2443 1.503 . S
C2436 C2435 1.410 . S
C2436 C2437 1.392 . S
C2436 C2439 1.511 . S
C2437 C2433 1.376 . S
C2437 C2436 1.392 . S
C2437 H2449 0.929 . S
C2438 C2434 1.531 . S
C2438 H2450 0.960 . S
C2438 H2451 0.962 . S
C2438 H2452 0.960 . S
C2439 C2436 1.511 . S
C2439 H2453 0.961 . S
C2439 H2454 0.961 . S
C2439 H2455 0.961 . S
C2440 C2441 1.370 . S
C2440 C2442 1.363 . S
C2440 H2456 0.931 . S
C2441 C2440 1.370 . S
C2441 C2445 1.408 . S
C2442 C2440 1.363 . S
C2442 C2443 1.370 . S
C2442 C2446 1.524 . S
C2443 C2435 1.503 . S
C2443 C2442 1.370 . S
C2443 C2444 1.403 . S
C2444 C2443 1.403 . S
C2444 C2445 1.404 . S
C2444 C2447 1.539 . S
C2445 C2441 1.408 . S
C2445 C2444 1.404 . S
C2445 H2457 0.930 . S
C2446 C2442 1.524 . S
C2446 H2458 0.956 . S
C2446 H2459 0.961 . S
C2446 H2460 0.961 . S
C2447 C2444 1.539 . S
C2447 H2461 0.958 . S
C2447 H2462 0.961 . S
C2447 H2463 0.960 . S
H2448 C2432 0.931 . S
H2449 C2437 0.929 . S
H2450 C2438 0.960 . S
H2451 C2438 0.962 . S
H2452 C2438 0.960 . S
H2453 C2439 0.961 . S
H2454 C2439 0.961 . S
H2455 C2439 0.961 . S
H2456 C2440 0.931 . S
H2457 C2445 0.930 . S
H2458 C2446 0.956 . S
H2459 C2446 0.961 . S
H2460 C2446 0.961 . S
H2461 C2447 0.958 . S
H2462 C2447 0.961 . S
H2463 C2447 0.960 . S
C2464 C2465 1.391 . S
C2464 C2466 1.394 . S
C2464 H2480 0.931 . S
C2465 C2464 1.391 . S
C2465 C2469 1.376 . S
C2466 C2464 1.394 . S
C2466 C2467 1.369 . S
C2466 C2470 1.531 . S
C2467 C2466 1.369 . S
C2467 C2468 1.410 1_556 S
C2467 C2475 1.503 1_556 S
C2468 C2467 1.410 1_554 S
C2468 C2469 1.392 1_554 S
C2468 C2471 1.511 . S
C2469 C2465 1.376 . S
C2469 C2468 1.392 1_556 S
C2469 H2481 0.929 . S
C2470 C2466 1.531 . S
C2470 H2482 0.960 . S
C2470 H2483 0.962 . S
C2470 H2484 0.960 . S
C2471 C2468 1.511 . S
C2471 H2485 0.961 . S
C2471 H2486 0.961 . S
C2471 H2487 0.961 . S
C2472 C2473 1.370 . S
C2472 C2474 1.363 . S
C2472 H2488 0.931 . S
C2473 C2472 1.370 . S
C2473 C2477 1.408 . S
C2474 C2472 1.363 . S
C2474 C2475 1.370 . S
C2474 C2478 1.524 1_554 S
C2475 C2467 1.503 1_554 S
C2475 C2474 1.370 . S
C2475 C2476 1.403 . S
C2476 C2475 1.403 . S
C2476 C2477 1.404 . S
C2476 C2479 1.539 . S
C2477 C2473 1.408 . S
C2477 C2476 1.404 . S
C2477 H2489 0.930 . S
C2478 C2474 1.524 1_556 S
C2478 H2490 0.956 . S
C2478 H2491 0.961 . S
C2478 H2492 0.961 . S
C2479 C2476 1.539 . S
C2479 H2493 0.958 . S
C2479 H2494 0.961 . S
C2479 H2495 0.960 . S
H2480 C2464 0.931 . S
H2481 C2469 0.929 . S
H2482 C2470 0.960 . S
H2483 C2470 0.962 . S
H2484 C2470 0.960 . S
H2485 C2471 0.961 . S
H2486 C2471 0.961 . S
H2487 C2471 0.961 . S
H2488 C2472 0.931 . S
H2489 C2477 0.930 . S
H2490 C2478 0.956 . S
H2491 C2478 0.961 . S
H2492 C2478 0.961 . S
H2493 C2479 0.958 . S
H2494 C2479 0.961 . S
H2495 C2479 0.960 . S
C2496 C2497 1.391 . S
C2496 C2498 1.394 . S
C2496 H2512 0.931 . S
C2497 C2496 1.391 . S
C2497 C2501 1.376 . S
C2498 C2496 1.394 . S
C2498 C2499 1.369 . S
C2498 C2502 1.531 . S
C2499 C2498 1.369 . S
C2499 C2500 1.410 . S
C2499 C2507 1.503 . S
C2500 C2499 1.410 . S
C2500 C2501 1.392 . S
C2500 C2503 1.511 . S
C2501 C2497 1.376 . S
C2501 C2500 1.392 . S
C2501 H2513 0.929 . S
C2502 C2498 1.531 . S
C2502 H2514 0.960 . S
C2502 H2515 0.962 . S
C2502 H2516 0.960 . S
C2503 C2500 1.511 . S
C2503 H2517 0.961 . S
C2503 H2518 0.961 . S
C2503 H2519 0.961 . S
C2504 C2505 1.370 . S
C2504 C2506 1.363 . S
C2504 H2520 0.931 . S
C2505 C2504 1.370 . S
C2505 C2509 1.408 . S
C2506 C2504 1.363 . S
C2506 C2507 1.370 . S
C2506 C2510 1.524 . S
C2507 C2499 1.503 . S
C2507 C2506 1.370 . S
C2507 C2508 1.403 . S
C2508 C2507 1.403 . S
C2508 C2509 1.404 . S
C2508 C2511 1.539 . S
C2509 C2505 1.408 . S
C2509 C2508 1.404 . S
C2509 H2521 0.930 . S
C2510 C2506 1.524 . S
C2510 H2522 0.956 . S
C2510 H2523 0.961 . S
C2510 H2524 0.961 . S
C2511 C2508 1.539 . S
C2511 H2525 0.958 . S
C2511 H2526 0.961 . S
C2511 H2527 0.960 . S
H2512 C2496 0.931 . S
H2513 C2501 0.929 . S
H2514 C2502 0.960 . S
H2515 C2502 0.962 . S
H2516 C2502 0.960 . S
H2517 C2503 0.961 . S
H2518 C2503 0.961 . S
H2519 C2503 0.961 . S
H2520 C2504 0.931 . S
H2521 C2509 0.930 . S
H2522 C2510 0.956 . S
H2523 C2510 0.961 . S
H2524 C2510 0.961 . S
H2525 C2511 0.958 . S
H2526 C2511 0.961 . S
H2527 C2511 0.960 . S
C2528 C2529 1.391 . S
C2528 C2530 1.394 . S
C2528 H2544 0.931 . S
C2529 C2528 1.391 . S
C2529 C2533 1.376 . S
C2530 C2528 1.394 . S
C2530 C2531 1.369 . S
C2530 C2534 1.531 . S
C2531 C2530 1.369 . S
C2531 C2532 1.410 . S
C2531 C2539 1.503 . S
C2532 C2531 1.410 . S
C2532 C2533 1.392 . S
C2532 C2535 1.511 . S
C2533 C2529 1.376 . S
C2533 C2532 1.392 . S
C2533 H2545 0.929 . S
C2534 C2530 1.531 . S
C2534 H2546 0.960 . S
C2534 H2547 0.962 . S
C2534 H2548 0.960 . S
C2535 C2532 1.511 . S
C2535 H2549 0.961 . S
C2535 H2550 0.961 . S
C2535 H2551 0.961 . S
C2536 C2537 1.370 . S
C2536 C2538 1.363 . S
C2536 H2552 0.931 . S
C2537 C2536 1.370 . S
C2537 C2541 1.408 . S
C2538 C2536 1.363 . S
C2538 C2539 1.370 . S
C2538 C2542 1.524 . S
C2539 C2531 1.503 . S
C2539 C2538 1.370 . S
C2539 C2540 1.403 . S
C2540 C2539 1.403 . S
C2540 C2541 1.404 . S
C2540 C2543 1.539 . S
C2541 C2537 1.408 . S
C2541 C2540 1.404 . S
C2541 H2553 0.930 . S
C2542 C2538 1.524 . S
C2542 H2554 0.956 . S
C2542 H2555 0.961 . S
C2542 H2556 0.961 . S
C2543 C2540 1.539 . S
C2543 H2557 0.958 . S
C2543 H2558 0.961 . S
C2543 H2559 0.960 . S
H2544 C2528 0.931 . S
H2545 C2533 0.929 . S
H2546 C2534 0.960 . S
H2547 C2534 0.962 . S
H2548 C2534 0.960 . S
H2549 C2535 0.961 . S
H2550 C2535 0.961 . S
H2551 C2535 0.961 . S
H2552 C2536 0.931 . S
H2553 C2541 0.930 . S
H2554 C2542 0.956 . S
H2555 C2542 0.961 . S
H2556 C2542 0.961 . S
H2557 C2543 0.958 . S
H2558 C2543 0.961 . S
H2559 C2543 0.960 . S
C2560 C2561 1.391 . S
C2560 C2562 1.394 . S
C2560 H2576 0.931 . S
C2561 C2560 1.391 . S
C2561 C2565 1.376 . S
C2562 C2560 1.394 . S
C2562 C2563 1.369 . S
C2562 C2566 1.531 . S
C2563 C2562 1.369 . S
C2563 C2564 1.410 . S
C2563 C2571 1.503 . S
C2564 C2563 1.410 . S
C2564 C2565 1.392 . S
C2564 C2567 1.511 . S
C2565 C2561 1.376 . S
C2565 C2564 1.392 . S
C2565 H2577 0.929 . S
C2566 C2562 1.531 . S
C2566 H2578 0.960 . S
C2566 H2579 0.962 . S
C2566 H2580 0.960 . S
C2567 C2564 1.511 . S
C2567 H2581 0.961 . S
C2567 H2582 0.961 . S
C2567 H2583 0.961 . S
C2568 C2569 1.370 . S
C2568 C2570 1.363 . S
C2568 H2584 0.931 . S
C2569 C2568 1.370 . S
C2569 C2573 1.408 . S
C2570 C2568 1.363 . S
C2570 C2571 1.370 . S
C2570 C2574 1.524 . S
C2571 C2563 1.503 . S
C2571 C2570 1.370 . S
C2571 C2572 1.403 . S
C2572 C2571 1.403 . S
C2572 C2573 1.404 . S
C2572 C2575 1.539 . S
C2573 C2569 1.408 . S
C2573 C2572 1.404 . S
C2573 H2585 0.930 . S
C2574 C2570 1.524 . S
C2574 H2586 0.956 . S
C2574 H2587 0.961 . S
C2574 H2588 0.961 . S
C2575 C2572 1.539 . S
C2575 H2589 0.958 . S
C2575 H2590 0.961 . S
C2575 H2591 0.960 . S
H2576 C2560 0.931 . S
H2577 C2565 0.929 . S
H2578 C2566 0.960 . S
H2579 C2566 0.962 . S
H2580 C2566 0.960 . S
H2581 C2567 0.961 . S
H2582 C2567 0.961 . S
H2583 C2567 0.961 . S
H2584 C2568 0.931 . S
H2585 C2573 0.930 . S
H2586 C2574 0.956 . S
H2587 C2574 0.961 . S
H2588 C2574 0.961 . S
H2589 C2575 0.958 . S
H2590 C2575 0.961 . S
H2591 C2575 0.960 . S
C2592 C2593 1.391 . S
C2592 C2594 1.394 . S
C2592 H2608 0.931 . S
C2593 C2592 1.391 . S
C2593 C2597 1.376 . S
C2594 C2592 1.394 . S
C2594 C2595 1.369 . S
C2594 C2598 1.531 . S
C2595 C2594 1.369 . S
C2595 C2596 1.410 . S
C2595 C2603 1.503 . S
C2596 C2595 1.410 . S
C2596 C2597 1.392 . S
C2596 C2599 1.511 . S
C2597 C2593 1.376 . S
C2597 C2596 1.392 . S
C2597 H2609 0.929 . S
C2598 C2594 1.531 . S
C2598 H2610 0.960 . S
C2598 H2611 0.962 . S
C2598 H2612 0.960 . S
C2599 C2596 1.511 . S
C2599 H2613 0.961 . S
C2599 H2614 0.961 . S
C2599 H2615 0.961 . S
C2600 C2601 1.370 . S
C2600 C2602 1.363 . S
C2600 H2616 0.931 . S
C2601 C2600 1.370 . S
C2601 C2605 1.408 . S
C2602 C2600 1.363 . S
C2602 C2603 1.370 . S
C2602 C2606 1.524 . S
C2603 C2595 1.503 . S
C2603 C2602 1.370 . S
C2603 C2604 1.403 . S
C2604 C2603 1.403 . S
C2604 C2605 1.404 . S
C2604 C2607 1.539 . S
C2605 C2601 1.408 . S
C2605 C2604 1.404 . S
C2605 H2617 0.930 . S
C2606 C2602 1.524 . S
C2606 H2618 0.956 . S
C2606 H2619 0.961 . S
C2606 H2620 0.961 . S
C2607 C2604 1.539 . S
C2607 H2621 0.958 . S
C2607 H2622 0.961 . S
C2607 H2623 0.960 . S
H2608 C2592 0.931 . S
H2609 C2597 0.929 . S
H2610 C2598 0.960 . S
H2611 C2598 0.962 . S
H2612 C2598 0.960 . S
H2613 C2599 0.961 . S
H2614 C2599 0.961 . S
H2615 C2599 0.961 . S
H2616 C2600 0.931 . S
H2617 C2605 0.930 . S
H2618 C2606 0.956 . S
H2619 C2606 0.961 . S
H2620 C2606 0.961 . S
H2621 C2607 0.958 . S
H2622 C2607 0.961 . S
H2623 C2607 0.960 . S
C2624 C2625 1.391 . S
C2624 C2626 1.394 . S
C2624 H2640 0.931 . S
C2625 C2624 1.391 . S
C2625 C2629 1.376 . S
C2626 C2624 1.394 . S
C2626 C2627 1.369 . S
C2626 C2630 1.531 . S
C2627 C2626 1.369 . S
C2627 C2628 1.410 . S
C2627 C2635 1.503 . S
C2628 C2627 1.410 . S
C2628 C2629 1.392 . S
C2628 C2631 1.511 . S
C2629 C2625 1.376 . S
C2629 C2628 1.392 . S
C2629 H2641 0.929 . S
C2630 C2626 1.531 . S
C2630 H2642 0.960 . S
C2630 H2643 0.962 . S
C2630 H2644 0.960 . S
C2631 C2628 1.511 . S
C2631 H2645 0.961 . S
C2631 H2646 0.961 . S
C2631 H2647 0.961 . S
C2632 C2633 1.370 . S
C2632 C2634 1.363 . S
C2632 H2648 0.931 . S
C2633 C2632 1.370 . S
C2633 C2637 1.408 . S
C2634 C2632 1.363 . S
C2634 C2635 1.370 1_455 S
C2634 C2638 1.524 1_455 S
C2635 C2627 1.503 . S
C2635 C2634 1.370 1_655 S
C2635 C2636 1.403 1_655 S
C2636 C2635 1.403 1_455 S
C2636 C2637 1.404 . S
C2636 C2639 1.539 1_455 S
C2637 C2633 1.408 . S
C2637 C2636 1.404 . S
C2637 H2649 0.930 . S
C2638 C2634 1.524 1_655 S
C2638 H2650 0.956 . S
C2638 H2651 0.961 . S
C2638 H2652 0.961 1_655 S
C2639 C2636 1.539 1_655 S
C2639 H2653 0.958 . S
C2639 H2654 0.961 . S
C2639 H2655 0.960 . S
H2640 C2624 0.931 . S
H2641 C2629 0.929 . S
H2642 C2630 0.960 . S
H2643 C2630 0.962 . S
H2644 C2630 0.960 . S
H2645 C2631 0.961 . S
H2646 C2631 0.961 . S
H2647 C2631 0.961 . S
H2648 C2632 0.931 . S
H2649 C2637 0.930 . S
H2650 C2638 0.956 . S
H2651 C2638 0.961 . S
H2652 C2638 0.961 1_455 S
H2653 C2639 0.958 . S
H2654 C2639 0.961 . S
H2655 C2639 0.960 . S
C2656 C2657 1.391 . S
C2656 C2658 1.394 . S
C2656 H2672 0.931 . S
C2657 C2656 1.391 . S
C2657 C2661 1.376 . S
C2658 C2656 1.394 . S
C2658 C2659 1.369 . S
C2658 C2662 1.531 . S
C2659 C2658 1.369 . S
C2659 C2660 1.410 . S
C2659 C2667 1.503 . S
C2660 C2659 1.410 . S
C2660 C2661 1.392 . S
C2660 C2663 1.511 . S
C2661 C2657 1.376 . S
C2661 C2660 1.392 . S
C2661 H2673 0.929 . S
C2662 C2658 1.531 . S
C2662 H2674 0.960 . S
C2662 H2675 0.962 . S
C2662 H2676 0.960 . S
C2663 C2660 1.511 . S
C2663 H2677 0.961 . S
C2663 H2678 0.961 . S
C2663 H2679 0.961 . S
C2664 C2665 1.370 . S
C2664 C2666 1.363 . S
C2664 H2680 0.931 . S
C2665 C2664 1.370 . S
C2665 C2669 1.408 . S
C2666 C2664 1.363 . S
C2666 C2667 1.370 . S
C2666 C2670 1.524 . S
C2667 C2659 1.503 . S
C2667 C2666 1.370 . S
C2667 C2668 1.403 . S
C2668 C2667 1.403 . S
C2668 C2669 1.404 . S
C2668 C2671 1.539 . S
C2669 C2665 1.408 . S
C2669 C2668 1.404 . S
C2669 H2681 0.930 . S
C2670 C2666 1.524 . S
C2670 H2682 0.956 . S
C2670 H2683 0.961 . S
C2670 H2684 0.961 . S
C2671 C2668 1.539 . S
C2671 H2685 0.958 . S
C2671 H2686 0.961 . S
C2671 H2687 0.960 . S
H2672 C2656 0.931 . S
H2673 C2661 0.929 . S
H2674 C2662 0.960 . S
H2675 C2662 0.962 . S
H2676 C2662 0.960 . S
H2677 C2663 0.961 . S
H2678 C2663 0.961 . S
H2679 C2663 0.961 . S
H2680 C2664 0.931 . S
H2681 C2669 0.930 . S
H2682 C2670 0.956 . S
H2683 C2670 0.961 . S
H2684 C2670 0.961 . S
H2685 C2671 0.958 . S
H2686 C2671 0.961 . S
H2687 C2671 0.960 . S
C2688 C2689 1.391 . S
C2688 C2690 1.394 . S
C2688 H2704 0.931 . S
C2689 C2688 1.391 . S
C2689 C2693 1.376 . S
C2690 C2688 1.394 . S
C2690 C2691 1.369 . S
C2690 C2694 1.531 . S
C2691 C2690 1.369 . S
C2691 C2692 1.410 . S
C2691 C2699 1.503 . S
C2692 C2691 1.410 . S
C2692 C2693 1.392 . S
C2692 C2695 1.511 . S
C2693 C2689 1.376 . S
C2693 C2692 1.392 . S
C2693 H2705 0.929 . S
C2694 C2690 1.531 . S
C2694 H2706 0.960 . S
C2694 H2707 0.962 . S
C2694 H2708 0.960 . S
C2695 C2692 1.511 . S
C2695 H2709 0.961 . S
C2695 H2710 0.961 . S
C2695 H2711 0.961 . S
C2696 C2697 1.370 . S
C2696 C2698 1.363 . S
C2696 H2712 0.931 . S
C2697 C2696 1.370 . S
C2697 C2701 1.408 . S
C2698 C2696 1.363 . S
C2698 C2699 1.370 . S
C2698 C2702 1.524 . S
C2699 C2691 1.503 . S
C2699 C2698 1.370 . S
C2699 C2700 1.403 . S
C2700 C2699 1.403 . S
C2700 C2701 1.404 . S
C2700 C2703 1.539 . S
C2701 C2697 1.408 . S
C2701 C2700 1.404 . S
C2701 H2713 0.930 . S
C2702 C2698 1.524 . S
C2702 H2714 0.956 . S
C2702 H2715 0.961 . S
C2702 H2716 0.961 . S
C2703 C2700 1.539 . S
C2703 H2717 0.958 . S
C2703 H2718 0.961 . S
C2703 H2719 0.960 . S
H2704 C2688 0.931 . S
H2705 C2693 0.929 . S
H2706 C2694 0.960 . S
H2707 C2694 0.962 . S
H2708 C2694 0.960 . S
H2709 C2695 0.961 . S
H2710 C2695 0.961 . S
H2711 C2695 0.961 . S
H2712 C2696 0.931 . S
H2713 C2701 0.930 . S
H2714 C2702 0.956 . S
H2715 C2702 0.961 . S
H2716 C2702 0.961 . S
H2717 C2703 0.958 . S
H2718 C2703 0.961 . S
H2719 C2703 0.960 . S
C2720 C2721 1.391 . S
C2720 C2722 1.394 . S
C2720 H2736 0.931 . S
C2721 C2720 1.391 . S
C2721 C2725 1.376 . S
C2722 C2720 1.394 . S
C2722 C2723 1.369 . S
C2722 C2726 1.531 . S
C2723 C2722 1.369 . S
C2723 C2724 1.410 . S
C2723 C2731 1.503 . S
C2724 C2723 1.410 . S
C2724 C2725 1.392 . S
C2724 C2727 1.511 . S
C2725 C2721 1.376 . S
C2725 C2724 1.392 . S
C2725 H2737 0.929 . S
C2726 C2722 1.531 . S
C2726 H2738 0.960 . S
C2726 H2739 0.962 . S
C2726 H2740 0.960 . S
C2727 C2724 1.511 . S
C2727 H2741 0.961 . S
C2727 H2742 0.961 . S
C2727 H2743 0.961 . S
C2728 C2729 1.370 . S
C2728 C2730 1.363 . S
C2728 H2744 0.931 . S
C2729 C2728 1.370 . S
C2729 C2733 1.408 . S
C2730 C2728 1.363 . S
C2730 C2731 1.370 . S
C2730 C2734 1.524 . S
C2731 C2723 1.503 . S
C2731 C2730 1.370 . S
C2731 C2732 1.403 . S
C2732 C2731 1.403 . S
C2732 C2733 1.404 . S
C2732 C2735 1.539 . S
C2733 C2729 1.408 . S
C2733 C2732 1.404 . S
C2733 H2745 0.930 . S
C2734 C2730 1.524 . S
C2734 H2746 0.956 . S
C2734 H2747 0.961 . S
C2734 H2748 0.961 . S
C2735 C2732 1.539 . S
C2735 H2749 0.958 . S
C2735 H2750 0.961 . S
C2735 H2751 0.960 . S
H2736 C2720 0.931 . S
H2737 C2725 0.929 . S
H2738 C2726 0.960 . S
H2739 C2726 0.962 . S
H2740 C2726 0.960 . S
H2741 C2727 0.961 . S
H2742 C2727 0.961 . S
H2743 C2727 0.961 . S
H2744 C2728 0.931 . S
H2745 C2733 0.930 . S
H2746 C2734 0.956 . S
H2747 C2734 0.961 . S
H2748 C2734 0.961 . S
H2749 C2735 0.958 . S
H2750 C2735 0.961 . S
H2751 C2735 0.960 . S
C2752 C2753 1.391 . S
C2752 C2754 1.394 . S
C2752 H2768 0.931 . S
C2753 C2752 1.391 . S
C2753 C2757 1.376 . S
C2754 C2752 1.394 . S
C2754 C2755 1.369 . S
C2754 C2758 1.531 . S
C2755 C2754 1.369 . S
C2755 C2756 1.410 . S
C2755 C2763 1.503 . S
C2756 C2755 1.410 . S
C2756 C2757 1.392 . S
C2756 C2759 1.511 . S
C2757 C2753 1.376 . S
C2757 C2756 1.392 . S
C2757 H2769 0.929 . S
C2758 C2754 1.531 . S
C2758 H2770 0.960 . S
C2758 H2771 0.962 . S
C2758 H2772 0.960 . S
C2759 C2756 1.511 . S
C2759 H2773 0.961 . S
C2759 H2774 0.961 . S
C2759 H2775 0.961 . S
C2760 C2761 1.370 . S
C2760 C2762 1.363 . S
C2760 H2776 0.931 . S
C2761 C2760 1.370 . S
C2761 C2765 1.408 . S
C2762 C2760 1.363 . S
C2762 C2763 1.370 . S
C2762 C2766 1.524 . S
C2763 C2755 1.503 . S
C2763 C2762 1.370 . S
C2763 C2764 1.403 . S
C2764 C2763 1.403 . S
C2764 C2765 1.404 . S
C2764 C2767 1.539 . S
C2765 C2761 1.408 . S
C2765 C2764 1.404 . S
C2765 H2777 0.930 . S
C2766 C2762 1.524 . S
C2766 H2778 0.956 . S
C2766 H2779 0.961 . S
C2766 H2780 0.961 . S
C2767 C2764 1.539 . S
C2767 H2781 0.958 . S
C2767 H2782 0.961 . S
C2767 H2783 0.960 . S
H2768 C2752 0.931 . S
H2769 C2757 0.929 . S
H2770 C2758 0.960 . S
H2771 C2758 0.962 . S
H2772 C2758 0.960 . S
H2773 C2759 0.961 . S
H2774 C2759 0.961 . S
H2775 C2759 0.961 . S
H2776 C2760 0.931 . S
H2777 C2765 0.930 . S
H2778 C2766 0.956 . S
H2779 C2766 0.961 . S
H2780 C2766 0.961 . S
H2781 C2767 0.958 . S
H2782 C2767 0.961 . S
H2783 C2767 0.960 . S
C2784 C2785 1.391 . S
C2784 C2786 1.394 . S
C2784 H2800 0.931 . S
C2785 C2784 1.391 . S
C2785 C2789 1.376 . S
C2786 C2784 1.394 . S
C2786 C2787 1.369 . S
C2786 C2790 1.531 . S
C2787 C2786 1.369 . S
C2787 C2788 1.410 . S
C2787 C2795 1.503 . S
C2788 C2787 1.410 . S
C2788 C2789 1.392 . S
C2788 C2791 1.511 . S
C2789 C2785 1.376 . S
C2789 C2788 1.392 . S
C2789 H2801 0.929 . S
C2790 C2786 1.531 . S
C2790 H2802 0.960 . S
C2790 H2803 0.962 . S
C2790 H2804 0.960 . S
C2791 C2788 1.511 . S
C2791 H2805 0.961 . S
C2791 H2806 0.961 . S
C2791 H2807 0.961 . S
C2792 C2793 1.370 . S
C2792 C2794 1.363 . S
C2792 H2808 0.931 . S
C2793 C2792 1.370 . S
C2793 C2797 1.408 . S
C2794 C2792 1.363 . S
C2794 C2795 1.370 . S
C2794 C2798 1.524 . S
C2795 C2787 1.503 . S
C2795 C2794 1.370 . S
C2795 C2796 1.403 . S
C2796 C2795 1.403 . S
C2796 C2797 1.404 . S
C2796 C2799 1.539 . S
C2797 C2793 1.408 . S
C2797 C2796 1.404 . S
C2797 H2809 0.930 . S
C2798 C2794 1.524 . S
C2798 H2810 0.956 . S
C2798 H2811 0.961 . S
C2798 H2812 0.961 . S
C2799 C2796 1.539 . S
C2799 H2813 0.958 . S
C2799 H2814 0.961 . S
C2799 H2815 0.960 . S
H2800 C2784 0.931 . S
H2801 C2789 0.929 . S
H2802 C2790 0.960 . S
H2803 C2790 0.962 . S
H2804 C2790 0.960 . S
H2805 C2791 0.961 . S
H2806 C2791 0.961 . S
H2807 C2791 0.961 . S
H2808 C2792 0.931 . S
H2809 C2797 0.930 . S
H2810 C2798 0.956 . S
H2811 C2798 0.961 . S
H2812 C2798 0.961 . S
H2813 C2799 0.958 . S
H2814 C2799 0.961 . S
H2815 C2799 0.960 . S
C2816 C2817 1.391 . S
C2816 C2818 1.394 . S
C2816 H2832 0.931 . S
C2817 C2816 1.391 . S
C2817 C2821 1.376 . S
C2818 C2816 1.394 . S
C2818 C2819 1.369 . S
C2818 C2822 1.531 . S
C2819 C2818 1.369 . S
C2819 C2820 1.410 . S
C2819 C2827 1.503 . S
C2820 C2819 1.410 . S
C2820 C2821 1.392 . S
C2820 C2823 1.511 . S
C2821 C2817 1.376 . S
C2821 C2820 1.392 . S
C2821 H2833 0.929 . S
C2822 C2818 1.531 . S
C2822 H2834 0.960 . S
C2822 H2835 0.962 . S
C2822 H2836 0.960 . S
C2823 C2820 1.511 . S
C2823 H2837 0.961 . S
C2823 H2838 0.961 . S
C2823 H2839 0.961 . S
C2824 C2825 1.370 . S
C2824 C2826 1.363 . S
C2824 H2840 0.931 . S
C2825 C2824 1.370 . S
C2825 C2829 1.408 . S
C2826 C2824 1.363 . S
C2826 C2827 1.370 1_455 S
C2826 C2830 1.524 1_455 S
C2827 C2819 1.503 . S
C2827 C2826 1.370 1_655 S
C2827 C2828 1.403 1_655 S
C2828 C2827 1.403 1_455 S
C2828 C2829 1.404 . S
C2828 C2831 1.539 1_455 S
C2829 C2825 1.408 . S
C2829 C2828 1.404 . S
C2829 H2841 0.930 . S
C2830 C2826 1.524 1_655 S
C2830 H2842 0.956 . S
C2830 H2843 0.961 . S
C2830 H2844 0.999 . S
C2831 C2828 1.539 1_655 S
C2831 H2845 0.958 . S
C2831 H2846 0.983 . S
C2831 H2847 0.960 . S
H2832 C2816 0.931 . S
H2833 C2821 0.929 . S
H2834 C2822 0.960 . S
H2835 C2822 0.962 . S
H2836 C2822 0.960 . S
H2837 C2823 0.961 . S
H2838 C2823 0.961 . S
H2839 C2823 0.961 . S
H2840 C2824 0.931 . S
H2841 C2829 0.930 . S
H2842 C2830 0.956 . S
H2843 C2830 0.961 . S
H2844 C2830 0.999 . S
H2845 C2831 0.958 . S
H2846 C2831 0.983 . S
H2847 C2831 0.960 . S
C2848 C2849 1.391 . S
C2848 C2850 1.394 . S
C2848 H2864 0.931 . S
C2849 C2848 1.391 . S
C2849 C2853 1.376 . S
C2850 C2848 1.394 . S
C2850 C2851 1.369 . S
C2850 C2854 1.531 . S
C2851 C2850 1.369 . S
C2851 C2852 1.410 . S
C2851 C2859 1.503 . S
C2852 C2851 1.410 . S
C2852 C2853 1.392 . S
C2852 C2855 1.511 . S
C2853 C2849 1.376 . S
C2853 C2852 1.392 . S
C2853 H2865 0.929 . S
C2854 C2850 1.531 . S
C2854 H2866 0.960 . S
C2854 H2867 0.962 . S
C2854 H2868 0.960 . S
C2855 C2852 1.511 . S
C2855 H2869 0.961 . S
C2855 H2870 0.961 . S
C2855 H2871 0.961 . S
C2856 C2857 1.370 . S
C2856 C2858 1.363 . S
C2856 H2872 0.931 . S
C2857 C2856 1.370 . S
C2857 C2861 1.408 . S
C2858 C2856 1.363 . S
C2858 C2859 1.370 . S
C2858 C2862 1.524 . S
C2859 C2851 1.503 . S
C2859 C2858 1.370 . S
C2859 C2860 1.403 . S
C2860 C2859 1.403 . S
C2860 C2861 1.404 . S
C2860 C2863 1.539 . S
C2861 C2857 1.408 . S
C2861 C2860 1.404 . S
C2861 H2873 0.930 . S
C2862 C2858 1.524 . S
C2862 H2874 0.956 . S
C2862 H2875 0.961 . S
C2862 H2876 0.961 . S
C2863 C2860 1.539 . S
C2863 H2877 0.958 . S
C2863 H2878 0.961 . S
C2863 H2879 0.960 . S
H2864 C2848 0.931 . S
H2865 C2853 0.929 . S
H2866 C2854 0.960 . S
H2867 C2854 0.962 . S
H2868 C2854 0.960 . S
H2869 C2855 0.961 . S
H2870 C2855 0.961 . S
H2871 C2855 0.961 . S
H2872 C2856 0.931 . S
H2873 C2861 0.930 . S
H2874 C2862 0.956 . S
H2875 C2862 0.961 . S
H2876 C2862 0.961 . S
H2877 C2863 0.958 . S
H2878 C2863 0.961 . S
H2879 C2863 0.960 . S
C2880 C2881 1.391 . S
C2880 C2882 1.394 . S
C2880 H2896 0.931 . S
C2881 C2880 1.391 . S
C2881 C2885 1.376 . S
C2882 C2880 1.394 . S
C2882 C2883 1.369 1_655 S
C2882 C2886 1.531 1_655 S
C2883 C2882 1.369 1_455 S
C2883 C2884 1.421 . S
C2883 C2891 1.503 . S
C2884 C2883 1.421 . S
C2884 C2885 1.361 1_455 S
C2884 C2887 1.531 . S
C2885 C2881 1.376 . S
C2885 C2884 1.361 1_655 S
C2885 H2897 0.929 . S
C2886 C2882 1.531 1_455 S
C2886 H2898 0.960 . S
C2886 H2899 0.962 . S
C2886 H2900 0.960 1_455 S
C2887 C2884 1.531 . S
C2887 H2901 0.961 . S
C2887 H2902 0.961 . S
C2887 H2903 0.961 . S
C2888 C2889 1.370 . S
C2888 C2890 1.363 . S
C2888 H2904 0.931 . S
C2889 C2888 1.370 . S
C2889 C2893 1.408 . S
C2890 C2888 1.363 . S
C2890 C2891 1.370 . S
C2890 C2894 1.524 . S
C2891 C2883 1.503 . S
C2891 C2890 1.370 . S
C2891 C2892 1.403 . S
C2892 C2891 1.403 . S
C2892 C2893 1.404 . S
C2892 C2895 1.539 . S
C2893 C2889 1.408 . S
C2893 C2892 1.404 . S
C2893 H2905 0.930 . S
C2894 C2890 1.524 . S
C2894 H2906 0.956 . S
C2894 H2907 0.961 . S
C2894 H2908 0.961 . S
C2895 C2892 1.539 . S
C2895 H2909 0.958 . S
C2895 H2910 0.961 . S
C2895 H2911 0.960 . S
H2896 C2880 0.931 . S
H2897 C2885 0.929 . S
H2898 C2886 0.960 . S
H2899 C2886 0.962 . S
H2900 C2886 0.960 1_655 S
H2901 C2887 0.961 . S
H2902 C2887 0.961 . S
H2903 C2887 0.961 . S
H2904 C2888 0.931 . S
H2905 C2893 0.930 . S
H2906 C2894 0.956 . S
H2907 C2894 0.961 . S
H2908 C2894 0.961 . S
H2909 C2895 0.958 . S
H2910 C2895 0.961 . S
H2911 C2895 0.960 . S
C2912 C2913 1.391 . S
C2912 C2914 1.394 . S
C2912 H2928 0.931 . S
C2913 C2912 1.391 . S
C2913 C2917 1.376 . S
C2914 C2912 1.394 . S
C2914 C2915 1.369 . S
C2914 C2918 1.531 . S
C2915 C2914 1.369 . S
C2915 C2916 1.410 . S
C2915 C2923 1.503 . S
C2916 C2915 1.410 . S
C2916 C2917 1.392 . S
C2916 C2919 1.511 . S
C2917 C2913 1.376 . S
C2917 C2916 1.392 . S
C2917 H2929 0.929 . S
C2918 C2914 1.531 . S
C2918 H2930 0.960 . S
C2918 H2931 0.962 . S
C2918 H2932 0.960 . S
C2919 C2916 1.511 . S
C2919 H2933 0.961 . S
C2919 H2934 0.961 . S
C2919 H2935 0.961 . S
C2920 C2921 1.370 . S
C2920 C2922 1.363 . S
C2920 H2936 0.931 . S
C2921 C2920 1.370 . S
C2921 C2925 1.408 . S
C2922 C2920 1.363 . S
C2922 C2923 1.370 . S
C2922 C2926 1.524 . S
C2923 C2915 1.503 . S
C2923 C2922 1.370 . S
C2923 C2924 1.403 . S
C2924 C2923 1.403 . S
C2924 C2925 1.404 . S
C2924 C2927 1.539 . S
C2925 C2921 1.408 . S
C2925 C2924 1.404 . S
C2925 H2937 0.930 . S
C2926 C2922 1.524 . S
C2926 H2938 0.956 . S
C2926 H2939 0.961 . S
C2926 H2940 0.961 . S
C2927 C2924 1.539 . S
C2927 H2941 0.958 . S
C2927 H2942 0.961 . S
C2927 H2943 0.960 . S
H2928 C2912 0.931 . S
H2929 C2917 0.929 . S
H2930 C2918 0.960 . S
H2931 C2918 0.962 . S
H2932 C2918 0.960 . S
H2933 C2919 0.961 . S
H2934 C2919 0.961 . S
H2935 C2919 0.961 . S
H2936 C2920 0.931 . S
H2937 C2925 0.930 . S
H2938 C2926 0.956 . S
H2939 C2926 0.961 . S
H2940 C2926 0.961 . S
H2941 C2927 0.958 . S
H2942 C2927 0.961 . S
H2943 C2927 0.960 . S
C2944 C2945 1.391 . S
C2944 C2946 1.394 . S
C2944 H2960 0.931 . S
C2945 C2944 1.391 . S
C2945 C2949 1.376 . S
C2946 C2944 1.394 . S
C2946 C2947 1.369 . S
C2946 C2950 1.531 . S
C2947 C2946 1.369 . S
C2947 C2948 1.410 . S
C2947 C2955 1.503 . S
C2948 C2947 1.410 . S
C2948 C2949 1.392 . S
C2948 C2951 1.511 . S
C2949 C2945 1.376 . S
C2949 C2948 1.392 . S
C2949 H2961 0.929 . S
C2950 C2946 1.531 . S
C2950 H2962 0.960 . S
C2950 H2963 0.962 . S
C2950 H2964 0.960 . S
C2951 C2948 1.511 . S
C2951 H2965 0.961 . S
C2951 H2966 0.961 . S
C2951 H2967 0.961 . S
C2952 C2953 1.370 . S
C2952 C2954 1.363 . S
C2952 H2968 0.931 . S
C2953 C2952 1.370 . S
C2953 C2957 1.408 . S
C2954 C2952 1.363 . S
C2954 C2955 1.370 . S
C2954 C2958 1.524 . S
C2955 C2947 1.503 . S
C2955 C2954 1.370 . S
C2955 C2956 1.403 . S
C2956 C2955 1.403 . S
C2956 C2957 1.404 . S
C2956 C2959 1.539 . S
C2957 C2953 1.408 . S
C2957 C2956 1.404 . S
C2957 H2969 0.930 . S
C2958 C2954 1.524 . S
C2958 H2970 0.956 . S
C2958 H2971 0.961 . S
C2958 H2972 0.961 . S
C2959 C2956 1.539 . S
C2959 H2973 0.958 . S
C2959 H2974 0.961 . S
C2959 H2975 0.960 . S
H2960 C2944 0.931 . S
H2961 C2949 0.929 . S
H2962 C2950 0.960 . S
H2963 C2950 0.962 . S
H2964 C2950 0.960 . S
H2965 C2951 0.961 . S
H2966 C2951 0.961 . S
H2967 C2951 0.961 . S
H2968 C2952 0.931 . S
H2969 C2957 0.930 . S
H2970 C2958 0.956 . S
H2971 C2958 0.961 . S
H2972 C2958 0.961 . S
H2973 C2959 0.958 . S
H2974 C2959 0.961 . S
H2975 C2959 0.960 . S
C2976 C2977 1.391 . S
C2976 C2978 1.394 . S
C2976 H2992 0.931 . S
C2977 C2976 1.391 . S
C2977 C2981 1.376 . S
C2978 C2976 1.394 . S
C2978 C2979 1.369 . S
C2978 C2982 1.531 . S
C2979 C2978 1.369 . S
C2979 C2980 1.410 . S
C2979 C2987 1.503 . S
C2980 C2979 1.410 . S
C2980 C2981 1.392 . S
C2980 C2983 1.511 . S
C2981 C2977 1.376 . S
C2981 C2980 1.392 . S
C2981 H2993 0.929 . S
C2982 C2978 1.531 . S
C2982 H2994 0.960 . S
C2982 H2995 0.962 . S
C2982 H2996 0.960 . S
C2983 C2980 1.511 . S
C2983 H2997 0.961 . S
C2983 H2998 0.961 . S
C2983 H2999 0.961 . S
C2984 C2985 1.370 . S
C2984 C2986 1.363 . S
C2984 H3000 0.931 . S
C2985 C2984 1.370 . S
C2985 C2989 1.408 . S
C2986 C2984 1.363 . S
C2986 C2987 1.370 . S
C2986 C2990 1.524 . S
C2987 C2979 1.503 . S
C2987 C2986 1.370 . S
C2987 C2988 1.403 . S
C2988 C2987 1.403 . S
C2988 C2989 1.404 . S
C2988 C2991 1.539 . S
C2989 C2985 1.408 . S
C2989 C2988 1.404 . S
C2989 H3001 0.930 . S
C2990 C2986 1.524 . S
C2990 H3002 0.956 . S
C2990 H3003 0.961 . S
C2990 H3004 0.961 . S
C2991 C2988 1.539 . S
C2991 H3005 0.958 . S
C2991 H3006 0.961 . S
C2991 H3007 0.960 . S
H2992 C2976 0.931 . S
H2993 C2981 0.929 . S
H2994 C2982 0.960 . S
H2995 C2982 0.962 . S
H2996 C2982 0.960 . S
H2997 C2983 0.961 . S
H2998 C2983 0.961 . S
H2999 C2983 0.961 . S
H3000 C2984 0.931 . S
H3001 C2989 0.930 . S
H3002 C2990 0.956 . S
H3003 C2990 0.961 . S
H3004 C2990 0.961 . S
H3005 C2991 0.958 . S
H3006 C2991 0.961 . S
H3007 C2991 0.960 . S
C3008 C3009 1.391 . S
C3008 C3010 1.394 . S
C3008 H3024 0.931 . S
C3009 C3008 1.391 . S
C3009 C3013 1.376 . S
C3010 C3008 1.394 . S
C3010 C3011 1.369 . S
C3010 C3014 1.531 . S
C3011 C3010 1.369 . S
C3011 C3012 1.410 . S
C3011 C3019 1.503 . S
C3012 C3011 1.410 . S
C3012 C3013 1.392 . S
C3012 C3015 1.511 . S
C3013 C3009 1.376 . S
C3013 C3012 1.392 . S
C3013 H3025 0.929 . S
C3014 C3010 1.531 . S
C3014 H3026 0.960 . S
C3014 H3027 0.962 . S
C3014 H3028 0.960 . S
C3015 C3012 1.511 . S
C3015 H3029 0.961 . S
C3015 H3030 0.961 . S
C3015 H3031 0.961 . S
C3016 C3017 1.370 . S
C3016 C3018 1.363 . S
C3016 H3032 0.931 . S
C3017 C3016 1.370 . S
C3017 C3021 1.408 . S
C3018 C3016 1.363 . S
C3018 C3019 1.370 . S
C3018 C3022 1.524 . S
C3019 C3011 1.503 . S
C3019 C3018 1.370 . S
C3019 C3020 1.403 . S
C3020 C3019 1.403 . S
C3020 C3021 1.404 . S
C3020 C3023 1.539 . S
C3021 C3017 1.408 . S
C3021 C3020 1.404 . S
C3021 H3033 0.930 . S
C3022 C3018 1.524 . S
C3022 H3034 0.956 . S
C3022 H3035 0.961 . S
C3022 H3036 0.961 . S
C3023 C3020 1.539 . S
C3023 H3037 0.958 . S
C3023 H3038 0.961 . S
C3023 H3039 0.960 . S
H3024 C3008 0.931 . S
H3025 C3013 0.929 . S
H3026 C3014 0.960 . S
H3027 C3014 0.962 . S
H3028 C3014 0.960 . S
H3029 C3015 0.961 . S
H3030 C3015 0.961 . S
H3031 C3015 0.961 . S
H3032 C3016 0.931 . S
H3033 C3021 0.930 . S
H3034 C3022 0.956 . S
H3035 C3022 0.961 . S
H3036 C3022 0.961 . S
H3037 C3023 0.958 . S
H3038 C3023 0.961 . S
H3039 C3023 0.960 . S
C3040 C3041 1.391 . S
C3040 C3042 1.394 . S
C3040 H3056 0.931 . S
C3041 C3040 1.391 . S
C3041 C3045 1.376 . S
C3042 C3040 1.394 . S
C3042 C3043 1.369 . S
C3042 C3046 1.531 . S
C3043 C3042 1.369 . S
C3043 C3044 1.410 . S
C3043 C3051 1.503 . S
C3044 C3043 1.410 . S
C3044 C3045 1.392 . S
C3044 C3047 1.511 . S
C3045 C3041 1.376 . S
C3045 C3044 1.392 . S
C3045 H3057 0.929 . S
C3046 C3042 1.531 . S
C3046 H3058 0.960 . S
C3046 H3059 0.962 . S
C3046 H3060 0.960 . S
C3047 C3044 1.511 . S
C3047 H3061 0.961 . S
C3047 H3062 0.961 . S
C3047 H3063 0.961 . S
C3048 C3049 1.370 . S
C3048 C3050 1.363 . S
C3048 H3064 0.931 . S
C3049 C3048 1.370 . S
C3049 C3053 1.408 . S
C3050 C3048 1.363 . S
C3050 C3051 1.370 . S
C3050 C3054 1.524 . S
C3051 C3043 1.503 . S
C3051 C3050 1.370 . S
C3051 C3052 1.403 . S
C3052 C3051 1.403 . S
C3052 C3053 1.404 . S
C3052 C3055 1.539 . S
C3053 C3049 1.408 . S
C3053 C3052 1.404 . S
C3053 H3065 0.930 . S
C3054 C3050 1.524 . S
C3054 H3066 0.956 . S
C3054 H3067 0.961 . S
C3054 H3068 0.961 . S
C3055 C3052 1.539 . S
C3055 H3069 0.958 . S
C3055 H3070 0.961 . S
C3055 H3071 0.960 . S
H3056 C3040 0.931 . S
H3057 C3045 0.929 . S
H3058 C3046 0.960 . S
H3059 C3046 0.962 . S
H3060 C3046 0.960 . S
H3061 C3047 0.961 . S
H3062 C3047 0.961 . S
H3063 C3047 0.961 . S
H3064 C3048 0.931 . S
H3065 C3053 0.930 . S
H3066 C3054 0.956 . S
H3067 C3054 0.961 . S
H3068 C3054 0.961 . S
H3069 C3055 0.958 . S
H3070 C3055 0.961 . S
H3071 C3055 0.960 . S
C3072 C3073 1.391 . S
C3072 C3074 1.394 . S
C3072 H3088 0.931 . S
C3073 C3072 1.391 . S
C3073 C3077 1.376 . S
C3074 C3072 1.394 . S
C3074 C3075 1.369 . S
C3074 C3078 1.531 . S
C3075 C3074 1.369 . S
C3075 C3076 1.410 . S
C3075 C3083 1.503 . S
C3076 C3075 1.410 . S
C3076 C3077 1.392 . S
C3076 C3079 1.511 . S
C3077 C3073 1.376 . S
C3077 C3076 1.392 . S
C3077 H3089 0.929 . S
C3078 C3074 1.531 . S
C3078 H3090 0.960 . S
C3078 H3091 0.962 . S
C3078 H3092 0.960 . S
C3079 C3076 1.511 . S
C3079 H3093 0.961 . S
C3079 H3094 0.961 . S
C3079 H3095 0.961 . S
C3080 C3081 1.370 . S
C3080 C3082 1.363 . S
C3080 H3096 0.931 . S
C3081 C3080 1.370 . S
C3081 C3085 1.408 . S
C3082 C3080 1.363 . S
C3082 C3083 1.370 1_655 S
C3082 C3086 1.524 1_655 S
C3083 C3075 1.503 . S
C3083 C3082 1.370 1_455 S
C3083 C3084 1.403 1_455 S
C3084 C3083 1.403 1_655 S
C3084 C3085 1.404 . S
C3084 C3087 1.539 1_655 S
C3085 C3081 1.408 . S
C3085 C3084 1.404 . S
C3085 H3097 0.930 . S
C3086 C3082 1.524 1_455 S
C3086 H3098 0.956 . S
C3086 H3099 0.961 . S
C3086 H3100 0.961 1_455 S
C3087 C3084 1.539 1_455 S
C3087 H3101 0.958 . S
C3087 H3102 0.961 . S
C3087 H3103 0.960 . S
H3088 C3072 0.931 . S
H3089 C3077 0.929 . S
H3090 C3078 0.960 . S
H3091 C3078 0.962 . S
H3092 C3078 0.960 . S
H3093 C3079 0.961 . S
H3094 C3079 0.961 . S
H3095 C3079 0.961 . S
H3096 C3080 0.931 . S
H3097 C3085 0.930 . S
H3098 C3086 0.956 . S
H3099 C3086 0.961 . S
H3100 C3086 0.961 1_655 S
H3101 C3087 0.958 . S
H3102 C3087 0.961 . S
H3103 C3087 0.960 . S
C3104 C3105 1.391 . S
C3104 C3106 1.394 . S
C3104 H3120 0.931 . S
C3105 C3104 1.391 . S
C3105 C3109 1.376 . S
C3106 C3104 1.394 . S
C3106 C3107 1.369 . S
C3106 C3110 1.531 . S
C3107 C3106 1.369 . S
C3107 C3108 1.410 . S
C3107 C3115 1.503 . S
C3108 C3107 1.410 . S
C3108 C3109 1.392 . S
C3108 C3111 1.511 . S
C3109 C3105 1.376 . S
C3109 C3108 1.392 . S
C3109 H3121 0.929 . S
C3110 C3106 1.531 . S
C3110 H3122 0.960 . S
C3110 H3123 0.962 . S
C3110 H3124 0.960 . S
C3111 C3108 1.511 . S
C3111 H3125 0.961 . S
C3111 H3126 0.961 . S
C3111 H3127 0.961 . S
C3112 C3113 1.370 . S
C3112 C3114 1.363 . S
C3112 H3128 0.931 . S
C3113 C3112 1.370 . S
C3113 C3117 1.408 . S
C3114 C3112 1.363 . S
C3114 C3115 1.370 . S
C3114 C3118 1.524 . S
C3115 C3107 1.503 . S
C3115 C3114 1.370 . S
C3115 C3116 1.403 . S
C3116 C3115 1.403 . S
C3116 C3117 1.404 . S
C3116 C3119 1.539 . S
C3117 C3113 1.408 . S
C3117 C3116 1.404 . S
C3117 H3129 0.930 . S
C3118 C3114 1.524 . S
C3118 H3130 0.956 . S
C3118 H3131 0.961 . S
C3118 H3132 0.961 . S
C3119 C3116 1.539 . S
C3119 H3133 0.958 . S
C3119 H3134 0.961 . S
C3119 H3135 0.960 . S
H3120 C3104 0.931 . S
H3121 C3109 0.929 . S
H3122 C3110 0.960 . S
H3123 C3110 0.962 . S
H3124 C3110 0.960 . S
H3125 C3111 0.961 . S
H3126 C3111 0.961 . S
H3127 C3111 0.961 . S
H3128 C3112 0.931 . S
H3129 C3117 0.930 . S
H3130 C3118 0.956 . S
H3131 C3118 0.961 . S
H3132 C3118 0.961 . S
H3133 C3119 0.958 . S
H3134 C3119 0.961 . S
H3135 C3119 0.960 . S
C3136 C3137 1.391 . S
C3136 C3138 1.394 . S
C3136 H3152 0.931 . S
C3137 C3136 1.391 . S
C3137 C3141 1.376 . S
C3138 C3136 1.394 . S
C3138 C3139 1.369 . S
C3138 C3142 1.531 . S
C3139 C3138 1.369 . S
C3139 C3140 1.410 . S
C3139 C3147 1.503 . S
C3140 C3139 1.410 . S
C3140 C3141 1.392 . S
C3140 C3143 1.511 . S
C3141 C3137 1.376 . S
C3141 C3140 1.392 . S
C3141 H3153 0.929 . S
C3142 C3138 1.531 . S
C3142 H3154 0.960 . S
C3142 H3155 0.962 . S
C3142 H3156 0.960 . S
C3143 C3140 1.511 . S
C3143 H3157 0.961 . S
C3143 H3158 0.961 . S
C3143 H3159 0.961 . S
C3144 C3145 1.370 . S
C3144 C3146 1.363 . S
C3144 H3160 0.931 . S
C3145 C3144 1.370 . S
C3145 C3149 1.408 . S
C3146 C3144 1.363 . S
C3146 C3147 1.370 . S
C3146 C3150 1.524 . S
C3147 C3139 1.503 . S
C3147 C3146 1.370 . S
C3147 C3148 1.403 . S
C3148 C3147 1.403 . S
C3148 C3149 1.404 . S
C3148 C3151 1.539 . S
C3149 C3145 1.408 . S
C3149 C3148 1.404 . S
C3149 H3161 0.930 . S
C3150 C3146 1.524 . S
C3150 H3162 0.956 . S
C3150 H3163 0.961 . S
C3150 H3164 0.961 . S
C3151 C3148 1.539 . S
C3151 H3165 0.958 . S
C3151 H3166 0.961 . S
C3151 H3167 0.960 . S
H3152 C3136 0.931 . S
H3153 C3141 0.929 . S
H3154 C3142 0.960 . S
H3155 C3142 0.962 . S
H3156 C3142 0.960 . S
H3157 C3143 0.961 . S
H3158 C3143 0.961 . S
H3159 C3143 0.961 . S
H3160 C3144 0.931 . S
H3161 C3149 0.930 . S
H3162 C3150 0.956 . S
H3163 C3150 0.961 . S
H3164 C3150 0.961 . S
H3165 C3151 0.958 . S
H3166 C3151 0.961 . S
H3167 C3151 0.960 . S
C3168 C3169 1.391 . S
C3168 C3170 1.394 . S
C3168 H3184 0.931 . S
C3169 C3168 1.391 . S
C3169 C3173 1.376 . S
C3170 C3168 1.394 . S
C3170 C3171 1.369 . S
C3170 C3174 1.531 . S
C3171 C3170 1.369 . S
C3171 C3172 1.410 . S
C3171 C3179 1.503 . S
C3172 C3171 1.410 . S
C3172 C3173 1.392 . S
C3172 C3175 1.511 . S
C3173 C3169 1.376 . S
C3173 C3172 1.392 . S
C3173 H3185 0.929 . S
C3174 C3170 1.531 . S
C3174 H3186 0.960 . S
C3174 H3187 0.962 . S
C3174 H3188 0.960 . S
C3175 C3172 1.511 . S
C3175 H3189 0.961 . S
C3175 H3190 0.961 . S
C3175 H3191 0.961 . S
C3176 C3177 1.370 . S
C3176 C3178 1.363 . S
C3176 H3192 0.931 . S
C3177 C3176 1.370 . S
C3177 C3181 1.408 . S
C3178 C3176 1.363 . S
C3178 C3179 1.370 . S
C3178 C3182 1.524 . S
C3179 C3171 1.503 . S
C3179 C3178 1.370 . S
C3179 C3180 1.403 . S
C3180 C3179 1.403 . S
C3180 C3181 1.404 . S
C3180 C3183 1.539 . S
C3181 C3177 1.408 . S
C3181 C3180 1.404 . S
C3181 H3193 0.930 . S
C3182 C3178 1.524 . S
C3182 H3194 0.956 . S
C3182 H3195 0.961 . S
C3182 H3196 0.961 . S
C3183 C3180 1.539 . S
C3183 H3197 0.958 . S
C3183 H3198 0.961 . S
C3183 H3199 0.960 . S
H3184 C3168 0.931 . S
H3185 C3173 0.929 . S
H3186 C3174 0.960 . S
H3187 C3174 0.962 . S
H3188 C3174 0.960 . S
H3189 C3175 0.961 . S
H3190 C3175 0.961 . S
H3191 C3175 0.961 . S
H3192 C3176 0.931 . S
H3193 C3181 0.930 . S
H3194 C3182 0.956 . S
H3195 C3182 0.961 . S
H3196 C3182 0.961 . S
H3197 C3183 0.958 . S
H3198 C3183 0.961 . S
H3199 C3183 0.960 . S
C3200 C3201 1.391 . S
C3200 C3202 1.394 . S
C3200 H3216 0.931 . S
C3201 C3200 1.391 . S
C3201 C3205 1.376 . S
C3202 C3200 1.394 . S
C3202 C3203 1.369 1_655 S
C3202 C3206 1.531 1_655 S
C3203 C3202 1.369 1_455 S
C3203 C3204 1.425 . S
C3203 C3211 1.503 . S
C3204 C3203 1.425 . S
C3204 C3205 1.350 1_455 S
C3204 C3207 1.538 . S
C3205 C3201 1.376 . S
C3205 C3204 1.350 1_655 S
C3205 H3217 0.929 . S
C3206 C3202 1.531 1_455 S
C3206 H3218 0.960 . S
C3206 H3219 0.962 . S
C3206 H3220 0.960 1_455 S
C3207 C3204 1.538 . S
C3207 H3221 0.961 . S
C3207 H3222 0.961 . S
C3207 H3223 0.961 . S
C3208 C3209 1.370 . S
C3208 C3210 1.363 . S
C3208 H3224 0.931 . S
C3209 C3208 1.370 . S
C3209 C3213 1.408 . S
C3210 C3208 1.363 . S
C3210 C3211 1.370 . S
C3210 C3214 1.524 . S
C3211 C3203 1.503 . S
C3211 C3210 1.370 . S
C3211 C3212 1.403 . S
C3212 C3211 1.403 . S
C3212 C3213 1.404 . S
C3212 C3215 1.539 . S
C3213 C3209 1.408 . S
C3213 C3212 1.404 . S
C3213 H3225 0.930 . S
C3214 C3210 1.524 . S
C3214 H3226 0.956 . S
C3214 H3227 0.961 . S
C3214 H3228 0.961 . S
C3215 C3212 1.539 . S
C3215 H3229 0.958 . S
C3215 H3230 0.961 . S
C3215 H3231 0.960 . S
H3216 C3200 0.931 . S
H3217 C3205 0.929 . S
H3218 C3206 0.960 . S
H3219 C3206 0.962 . S
H3220 C3206 0.960 1_655 S
H3221 C3207 0.961 . S
H3222 C3207 0.961 . S
H3223 C3207 0.961 . S
H3224 C3208 0.931 . S
H3225 C3213 0.930 . S
H3226 C3214 0.956 . S
H3227 C3214 0.961 . S
H3228 C3214 0.961 . S
H3229 C3215 0.958 . S
H3230 C3215 0.961 . S
H3231 C3215 0.960 . S
C3232 C3233 1.391 . S
C3232 C3234 1.394 . S
C3232 H3248 0.931 . S
C3233 C3232 1.391 . S
C3233 C3237 1.376 . S
C3234 C3232 1.394 . S
C3234 C3235 1.369 . S
C3234 C3238 1.531 . S
C3235 C3234 1.369 . S
C3235 C3236 1.410 . S
C3235 C3243 1.503 . S
C3236 C3235 1.410 . S
C3236 C3237 1.392 . S
C3236 C3239 1.511 . S
C3237 C3233 1.376 . S
C3237 C3236 1.392 . S
C3237 H3249 0.929 . S
C3238 C3234 1.531 . S
C3238 H3250 0.960 . S
C3238 H3251 0.962 . S
C3238 H3252 0.960 . S
C3239 C3236 1.511 . S
C3239 H3253 0.961 . S
C3239 H3254 0.961 . S
C3239 H3255 0.961 . S
C3240 C3241 1.370 . S
C3240 C3242 1.363 . S
C3240 H3256 0.931 . S
C3241 C3240 1.370 . S
C3241 C3245 1.408 . S
C3242 C3240 1.363 . S
C3242 C3243 1.370 . S
C3242 C3246 1.524 . S
C3243 C3235 1.503 . S
C3243 C3242 1.370 . S
C3243 C3244 1.403 . S
C3244 C3243 1.403 . S
C3244 C3245 1.404 . S
C3244 C3247 1.539 . S
C3245 C3241 1.408 . S
C3245 C3244 1.404 . S
C3245 H3257 0.930 . S
C3246 C3242 1.524 . S
C3246 H3258 0.956 . S
C3246 H3259 0.961 . S
C3246 H3260 0.961 . S
C3247 C3244 1.539 . S
C3247 H3261 0.958 . S
C3247 H3262 0.961 . S
C3247 H3263 0.960 . S
H3248 C3232 0.931 . S
H3249 C3237 0.929 . S
H3250 C3238 0.960 . S
H3251 C3238 0.962 . S
H3252 C3238 0.960 . S
H3253 C3239 0.961 . S
H3254 C3239 0.961 . S
H3255 C3239 0.961 . S
H3256 C3240 0.931 . S
H3257 C3245 0.930 . S
H3258 C3246 0.956 . S
H3259 C3246 0.961 . S
H3260 C3246 0.961 . S
H3261 C3247 0.958 . S
H3262 C3247 0.961 . S
H3263 C3247 0.960 . S
C3264 C3265 1.391 . S
C3264 C3266 1.394 . S
C3264 H3280 0.931 . S
C3265 C3264 1.391 . S
C3265 C3269 1.376 . S
C3266 C3264 1.394 . S
C3266 C3267 1.369 1_655 S
C3266 C3270 1.531 1_655 S
C3267 C3266 1.369 1_455 S
C3267 C3268 1.424 . S
C3267 C3275 1.503 . S
C3268 C3267 1.424 . S
C3268 C3269 1.353 1_455 S
C3268 C3271 1.536 . S
C3269 C3265 1.376 . S
C3269 C3268 1.353 1_655 S
C3269 H3281 0.929 . S
C3270 C3266 1.531 1_455 S
C3270 H3282 0.960 . S
C3270 H3283 0.962 . S
C3270 H3284 0.960 1_455 S
C3271 C3268 1.536 . S
C3271 H3285 0.961 . S
C3271 H3286 0.961 . S
C3271 H3287 0.961 . S
C3272 C3273 1.370 . S
C3272 C3274 1.363 . S
C3272 H3288 0.931 . S
C3273 C3272 1.370 . S
C3273 C3277 1.408 . S
C3274 C3272 1.363 . S
C3274 C3275 1.370 . S
C3274 C3278 1.524 . S
C3275 C3267 1.503 . S
C3275 C3274 1.370 . S
C3275 C3276 1.403 . S
C3276 C3275 1.403 . S
C3276 C3277 1.404 . S
C3276 C3279 1.539 . S
C3277 C3273 1.408 . S
C3277 C3276 1.404 . S
C3277 H3289 0.930 . S
C3278 C3274 1.524 . S
C3278 H3290 0.956 . S
C3278 H3291 0.961 . S
C3278 H3292 0.961 . S
C3279 C3276 1.539 . S
C3279 H3293 0.958 . S
C3279 H3294 0.961 . S
C3279 H3295 0.960 . S
H3280 C3264 0.931 . S
H3281 C3269 0.929 . S
H3282 C3270 0.960 . S
H3283 C3270 0.962 . S
H3284 C3270 0.960 1_655 S
H3285 C3271 0.961 . S
H3286 C3271 0.961 . S
H3287 C3271 0.961 . S
H3288 C3272 0.931 . S
H3289 C3277 0.930 . S
H3290 C3278 0.956 . S
H3291 C3278 0.961 . S
H3292 C3278 0.961 . S
H3293 C3279 0.958 . S
H3294 C3279 0.961 . S
H3295 C3279 0.960 . S
C3296 C3297 1.391 . S
C3296 C3298 1.394 . S
C3296 H3312 0.931 . S
C3297 C3296 1.391 . S
C3297 C3301 1.376 . S
C3298 C3296 1.394 . S
C3298 C3299 1.369 . S
C3298 C3302 1.531 . S
C3299 C3298 1.369 . S
C3299 C3300 1.410 . S
C3299 C3307 1.503 . S
C3300 C3299 1.410 . S
C3300 C3301 1.392 . S
C3300 C3303 1.511 . S
C3301 C3297 1.376 . S
C3301 C3300 1.392 . S
C3301 H3313 0.929 . S
C3302 C3298 1.531 . S
C3302 H3314 0.960 . S
C3302 H3315 0.962 . S
C3302 H3316 0.960 . S
C3303 C3300 1.511 . S
C3303 H3317 0.961 . S
C3303 H3318 0.961 . S
C3303 H3319 0.961 . S
C3304 C3305 1.370 . S
C3304 C3306 1.363 . S
C3304 H3320 0.931 . S
C3305 C3304 1.370 . S
C3305 C3309 1.408 . S
C3306 C3304 1.363 . S
C3306 C3307 1.370 . S
C3306 C3310 1.524 . S
C3307 C3299 1.503 . S
C3307 C3306 1.370 . S
C3307 C3308 1.403 . S
C3308 C3307 1.403 . S
C3308 C3309 1.404 . S
C3308 C3311 1.539 . S
C3309 C3305 1.408 . S
C3309 C3308 1.404 . S
C3309 H3321 0.930 . S
C3310 C3306 1.524 . S
C3310 H3322 0.956 . S
C3310 H3323 0.961 . S
C3310 H3324 0.961 . S
C3311 C3308 1.539 . S
C3311 H3325 0.958 . S
C3311 H3326 0.961 . S
C3311 H3327 0.960 . S
H3312 C3296 0.931 . S
H3313 C3301 0.929 . S
H3314 C3302 0.960 . S
H3315 C3302 0.962 . S
H3316 C3302 0.960 . S
H3317 C3303 0.961 . S
H3318 C3303 0.961 . S
H3319 C3303 0.961 . S
H3320 C3304 0.931 . S
H3321 C3309 0.930 . S
H3322 C3310 0.956 . S
H3323 C3310 0.961 . S
H3324 C3310 0.961 . S
H3325 C3311 0.958 . S
H3326 C3311 0.961 . S
H3327 C3311 0.960 . S
C3328 C3329 1.391 . S
C3328 C3330 1.394 . S
C3328 H3344 0.931 . S
C3329 C3328 1.391 . S
C3329 C3333 1.376 . S
C3330 C3328 1.394 . S
C3330 C3331 1.369 . S
C3330 C3334 1.531 . S
C3331 C3330 1.369 . S
C3331 C3332 1.410 . S
C3331 C3339 1.503 . S
C3332 C3331 1.410 . S
C3332 C3333 1.392 . S
C3332 C3335 1.511 . S
C3333 C3329 1.376 . S
C3333 C3332 1.392 . S
C3333 H3345 0.929 . S
C3334 C3330 1.531 . S
C3334 H3346 0.960 . S
C3334 H3347 0.962 . S
C3334 H3348 0.960 . S
C3335 C3332 1.511 . S
C3335 H3349 0.961 . S
C3335 H3350 0.961 . S
C3335 H3351 0.961 . S
C3336 C3337 1.370 . S
C3336 C3338 1.363 . S
C3336 H3352 0.931 . S
C3337 C3336 1.370 . S
C3337 C3341 1.408 . S
C3338 C3336 1.363 . S
C3338 C3339 1.370 . S
C3338 C3342 1.524 . S
C3339 C3331 1.503 . S
C3339 C3338 1.370 . S
C3339 C3340 1.403 . S
C3340 C3339 1.403 . S
C3340 C3341 1.404 . S
C3340 C3343 1.539 . S
C3341 C3337 1.408 . S
C3341 C3340 1.404 . S
C3341 H3353 0.930 . S
C3342 C3338 1.524 . S
C3342 H3354 0.956 . S
C3342 H3355 0.961 . S
C3342 H3356 0.961 . S
C3343 C3340 1.539 . S
C3343 H3357 0.958 . S
C3343 H3358 0.961 . S
C3343 H3359 0.960 . S
H3344 C3328 0.931 . S
H3345 C3333 0.929 . S
H3346 C3334 0.960 . S
H3347 C3334 0.962 . S
H3348 C3334 0.960 . S
H3349 C3335 0.961 . S
H3350 C3335 0.961 . S
H3351 C3335 0.961 . S
H3352 C3336 0.931 . S
H3353 C3341 0.930 . S
H3354 C3342 0.956 . S
H3355 C3342 0.961 . S
H3356 C3342 0.961 . S
H3357 C3343 0.958 . S
H3358 C3343 0.961 . S
H3359 C3343 0.960 . S
C3360 C3361 1.391 . S
C3360 C3362 1.394 . S
C3360 H3376 0.931 . S
C3361 C3360 1.391 . S
C3361 C3365 1.376 . S
C3362 C3360 1.394 . S
C3362 C3363 1.369 . S
C3362 C3366 1.531 . S
C3363 C3362 1.369 . S
C3363 C3364 1.410 . S
C3363 C3371 1.503 . S
C3364 C3363 1.410 . S
C3364 C3365 1.392 . S
C3364 C3367 1.511 . S
C3365 C3361 1.376 . S
C3365 C3364 1.392 . S
C3365 H3377 0.929 . S
C3366 C3362 1.531 . S
C3366 H3378 0.960 . S
C3366 H3379 0.962 . S
C3366 H3380 0.960 . S
C3367 C3364 1.511 . S
C3367 H3381 0.961 . S
C3367 H3382 0.961 . S
C3367 H3383 0.961 . S
C3368 C3369 1.370 . S
C3368 C3370 1.363 . S
C3368 H3384 0.931 . S
C3369 C3368 1.370 . S
C3369 C3373 1.408 . S
C3370 C3368 1.363 . S
C3370 C3371 1.370 . S
C3370 C3374 1.524 . S
C3371 C3363 1.503 . S
C3371 C3370 1.370 . S
C3371 C3372 1.403 . S
C3372 C3371 1.403 . S
C3372 C3373 1.404 . S
C3372 C3375 1.539 . S
C3373 C3369 1.408 . S
C3373 C3372 1.404 . S
C3373 H3385 0.930 . S
C3374 C3370 1.524 . S
C3374 H3386 0.956 . S
C3374 H3387 0.961 . S
C3374 H3388 0.961 . S
C3375 C3372 1.539 . S
C3375 H3389 0.958 . S
C3375 H3390 0.961 1_554 S
C3375 H3391 0.960 . S
H3376 C3360 0.931 . S
H3377 C3365 0.929 . S
H3378 C3366 0.960 . S
H3379 C3366 0.962 . S
H3380 C3366 0.960 . S
H3381 C3367 0.961 . S
H3382 C3367 0.961 . S
H3383 C3367 0.961 . S
H3384 C3368 0.931 . S
H3385 C3373 0.930 . S
H3386 C3374 0.956 . S
H3387 C3374 0.961 . S
H3388 C3374 0.961 . S
H3389 C3375 0.958 . S
H3390 C3375 0.961 1_556 S
H3391 C3375 0.960 . S
C3392 C3393 1.391 . S
C3392 C3394 1.394 . S
C3392 H3408 0.931 . S
C3393 C3392 1.391 . S
C3393 C3397 1.376 . S
C3394 C3392 1.394 . S
C3394 C3395 1.369 . S
C3394 C3398 1.531 . S
C3395 C3394 1.369 . S
C3395 C3396 1.410 . S
C3395 C3403 1.503 . S
C3396 C3395 1.410 . S
C3396 C3397 1.392 . S
C3396 C3399 1.511 . S
C3397 C3393 1.376 . S
C3397 C3396 1.392 . S
C3397 H3409 0.929 . S
C3398 C3394 1.531 . S
C3398 H3410 0.960 . S
C3398 H3411 0.962 . S
C3398 H3412 0.960 . S
C3399 C3396 1.511 . S
C3399 H3413 0.961 . S
C3399 H3414 0.961 . S
C3399 H3415 0.961 . S
C3400 C3401 1.370 . S
C3400 C3402 1.363 . S
C3400 H3416 0.931 . S
C3401 C3400 1.370 . S
C3401 C3405 1.408 . S
C3402 C3400 1.363 . S
C3402 C3403 1.370 . S
C3402 C3406 1.524 . S
C3403 C3395 1.503 . S
C3403 C3402 1.370 . S
C3403 C3404 1.403 . S
C3404 C3403 1.403 . S
C3404 C3405 1.404 . S
C3404 C3407 1.539 . S
C3405 C3401 1.408 . S
C3405 C3404 1.404 . S
C3405 H3417 0.930 . S
C3406 C3402 1.524 . S
C3406 H3418 0.956 . S
C3406 H3419 0.961 . S
C3406 H3420 0.961 . S
C3407 C3404 1.539 . S
C3407 H3421 0.958 . S
C3407 H3422 0.961 . S
C3407 H3423 0.960 . S
H3408 C3392 0.931 . S
H3409 C3397 0.929 . S
H3410 C3398 0.960 . S
H3411 C3398 0.962 . S
H3412 C3398 0.960 . S
H3413 C3399 0.961 . S
H3414 C3399 0.961 . S
H3415 C3399 0.961 . S
H3416 C3400 0.931 . S
H3417 C3405 0.930 . S
H3418 C3406 0.956 . S
H3419 C3406 0.961 . S
H3420 C3406 0.961 . S
H3421 C3407 0.958 . S
H3422 C3407 0.961 . S
H3423 C3407 0.960 . S
C3424 C3425 1.391 . S
C3424 C3426 1.394 . S
C3424 H3440 0.931 . S
C3425 C3424 1.391 . S
C3425 C3429 1.376 . S
C3426 C3424 1.394 . S
C3426 C3427 1.369 . S
C3426 C3430 1.531 . S
C3427 C3426 1.369 . S
C3427 C3428 1.410 . S
C3427 C3435 1.503 . S
C3428 C3427 1.410 . S
C3428 C3429 1.392 . S
C3428 C3431 1.511 . S
C3429 C3425 1.376 . S
C3429 C3428 1.392 . S
C3429 H3441 0.929 . S
C3430 C3426 1.531 . S
C3430 H3442 0.960 . S
C3430 H3443 0.962 . S
C3430 H3444 0.960 . S
C3431 C3428 1.511 . S
C3431 H3445 0.961 . S
C3431 H3446 0.961 . S
C3431 H3447 0.961 . S
C3432 C3433 1.370 . S
C3432 C3434 1.363 . S
C3432 H3448 0.931 . S
C3433 C3432 1.370 . S
C3433 C3437 1.408 . S
C3434 C3432 1.363 . S
C3434 C3435 1.370 . S
C3434 C3438 1.524 . S
C3435 C3427 1.503 . S
C3435 C3434 1.370 . S
C3435 C3436 1.403 . S
C3436 C3435 1.403 . S
C3436 C3437 1.404 . S
C3436 C3439 1.539 . S
C3437 C3433 1.408 . S
C3437 C3436 1.404 . S
C3437 H3449 0.930 . S
C3438 C3434 1.524 . S
C3438 H3450 0.956 . S
C3438 H3451 0.961 . S
C3438 H3452 0.961 . S
C3439 C3436 1.539 . S
C3439 H3453 0.958 . S
C3439 H3454 0.961 . S
C3439 H3455 0.960 . S
H3440 C3424 0.931 . S
H3441 C3429 0.929 . S
H3442 C3430 0.960 . S
H3443 C3430 0.962 . S
H3444 C3430 0.960 . S
H3445 C3431 0.961 . S
H3446 C3431 0.961 . S
H3447 C3431 0.961 . S
H3448 C3432 0.931 . S
H3449 C3437 0.930 . S
H3450 C3438 0.956 . S
H3451 C3438 0.961 . S
H3452 C3438 0.961 . S
H3453 C3439 0.958 . S
H3454 C3439 0.961 . S
H3455 C3439 0.960 . S
C3456 C3457 1.391 . S
C3456 C3458 1.394 . S
C3456 H3472 0.931 . S
C3457 C3456 1.391 . S
C3457 C3461 1.376 . S
C3458 C3456 1.394 . S
C3458 C3459 1.369 . S
C3458 C3462 1.531 . S
C3459 C3458 1.369 . S
C3459 C3460 1.410 . S
C3459 C3467 1.503 . S
C3460 C3459 1.410 . S
C3460 C3461 1.392 . S
C3460 C3463 1.511 . S
C3461 C3457 1.376 . S
C3461 C3460 1.392 . S
C3461 H3473 0.929 . S
C3462 C3458 1.531 . S
C3462 H3474 0.960 . S
C3462 H3475 0.962 . S
C3462 H3476 0.960 . S
C3463 C3460 1.511 . S
C3463 H3477 0.961 . S
C3463 H3478 0.961 . S
C3463 H3479 0.961 . S
C3464 C3465 1.370 . S
C3464 C3466 1.363 . S
C3464 H3480 0.931 . S
C3465 C3464 1.370 . S
C3465 C3469 1.408 . S
C3466 C3464 1.363 . S
C3466 C3467 1.370 1_455 S
C3466 C3470 1.524 1_455 S
C3467 C3459 1.503 . S
C3467 C3466 1.370 1_655 S
C3467 C3468 1.400 1_655 S
C3468 C3467 1.400 1_455 S
C3468 C3469 1.410 . S
C3468 C3471 1.536 1_455 S
C3469 C3465 1.408 . S
C3469 C3468 1.410 . S
C3469 H3481 0.930 . S
C3470 C3466 1.524 1_655 S
C3470 H3482 0.956 . S
C3470 H3483 0.961 . S
C3470 H3484 0.961 1_655 S
C3471 C3468 1.536 1_655 S
C3471 H3485 0.958 . S
C3471 H3486 0.961 . S
C3471 H3487 0.960 . S
H3472 C3456 0.931 . S
H3473 C3461 0.929 . S
H3474 C3462 0.960 . S
H3475 C3462 0.962 . S
H3476 C3462 0.960 . S
H3477 C3463 0.961 . S
H3478 C3463 0.961 . S
H3479 C3463 0.961 . S
H3480 C3464 0.931 . S
H3481 C3469 0.930 . S
H3482 C3470 0.956 . S
H3483 C3470 0.961 . S
H3484 C3470 0.961 1_455 S
H3485 C3471 0.958 . S
H3486 C3471 0.961 . S
H3487 C3471 0.960 . S
C3488 C3489 1.391 . S
C3488 C3490 1.394 . S
C3488 H3504 0.931 . S
C3489 C3488 1.391 . S
C3489 C3493 1.376 . S
C3490 C3488 1.394 . S
C3490 C3491 1.369 . S
C3490 C3494 1.531 . S
C3491 C3490 1.369 . S
C3491 C3492 1.410 . S
C3491 C3499 1.503 . S
C3492 C3491 1.410 . S
C3492 C3493 1.392 . S
C3492 C3495 1.511 . S
C3493 C3489 1.376 . S
C3493 C3492 1.392 . S
C3493 H3505 0.929 . S
C3494 C3490 1.531 . S
C3494 H3506 0.960 . S
C3494 H3507 0.962 . S
C3494 H3508 0.960 . S
C3495 C3492 1.511 . S
C3495 H3509 0.961 . S
C3495 H3510 0.961 . S
C3495 H3511 0.961 . S
C3496 C3497 1.370 . S
C3496 C3498 1.363 . S
C3496 H3512 0.931 . S
C3497 C3496 1.370 . S
C3497 C3501 1.408 . S
C3498 C3496 1.363 . S
C3498 C3499 1.370 . S
C3498 C3502 1.524 . S
C3499 C3491 1.503 . S
C3499 C3498 1.370 . S
C3499 C3500 1.403 . S
C3500 C3499 1.403 . S
C3500 C3501 1.404 . S
C3500 C3503 1.539 . S
C3501 C3497 1.408 . S
C3501 C3500 1.404 . S
C3501 H3513 0.930 . S
C3502 C3498 1.524 . S
C3502 H3514 0.956 . S
C3502 H3515 0.961 . S
C3502 H3516 0.961 . S
C3503 C3500 1.539 . S
C3503 H3517 0.958 . S
C3503 H3518 0.961 . S
C3503 H3519 0.960 . S
H3504 C3488 0.931 . S
H3505 C3493 0.929 . S
H3506 C3494 0.960 . S
H3507 C3494 0.962 . S
H3508 C3494 0.960 . S
H3509 C3495 0.961 . S
H3510 C3495 0.961 . S
H3511 C3495 0.961 . S
H3512 C3496 0.931 . S
H3513 C3501 0.930 . S
H3514 C3502 0.956 . S
H3515 C3502 0.961 . S
H3516 C3502 0.961 . S
H3517 C3503 0.958 . S
H3518 C3503 0.961 . S
H3519 C3503 0.960 . S
C3520 C3521 1.391 . S
C3520 C3522 1.366 1_455 S
C3520 H3536 0.931 . S
C3521 C3520 1.391 . S
C3521 C3525 1.376 . S
C3522 C3520 1.366 1_655 S
C3522 C3523 1.379 . S
C3522 C3526 1.548 . S
C3523 C3522 1.379 . S
C3523 C3524 1.410 1_655 S
C3523 C3531 1.503 . S
C3524 C3523 1.410 1_455 S
C3524 C3525 1.392 . S
C3524 C3527 1.511 1_455 S
C3525 C3521 1.376 . S
C3525 C3524 1.392 . S
C3525 H3537 0.929 . S
C3526 C3522 1.548 . S
C3526 H3538 0.960 . S
C3526 H3539 0.962 . S
C3526 H3540 0.960 . S
C3527 C3524 1.511 1_655 S
C3527 H3541 0.961 1_655 S
C3527 H3542 0.961 . S
C3527 H3543 0.961 . S
C3528 C3529 1.370 . S
C3528 C3530 1.363 . S
C3528 H3544 0.931 . S
C3529 C3528 1.370 . S
C3529 C3533 1.408 . S
C3530 C3528 1.363 . S
C3530 C3531 1.370 . S
C3530 C3534 1.524 . S
C3531 C3523 1.503 . S
C3531 C3530 1.370 . S
C3531 C3532 1.403 . S
C3532 C3531 1.403 . S
C3532 C3533 1.404 . S
C3532 C3535 1.539 . S
C3533 C3529 1.408 . S
C3533 C3532 1.404 . S
C3533 H3545 0.930 . S
C3534 C3530 1.524 . S
C3534 H3546 0.956 . S
C3534 H3547 0.961 . S
C3534 H3548 0.961 . S
C3535 C3532 1.539 . S
C3535 H3549 0.958 . S
C3535 H3550 0.961 . S
C3535 H3551 0.960 . S
H3536 C3520 0.931 . S
H3537 C3525 0.929 . S
H3538 C3526 0.960 . S
H3539 C3526 0.962 . S
H3540 C3526 0.960 . S
H3541 C3527 0.961 1_455 S
H3542 C3527 0.961 . S
H3543 C3527 0.961 . S
H3544 C3528 0.931 . S
H3545 C3533 0.930 . S
H3546 C3534 0.956 . S
H3547 C3534 0.961 . S
H3548 C3534 0.961 . S
H3549 C3535 0.958 . S
H3550 C3535 0.961 . S
H3551 C3535 0.960 . S
C3552 C3553 1.391 . S
C3552 C3554 1.394 . S
C3552 H3568 0.931 . S
C3553 C3552 1.391 . S
C3553 C3557 1.376 . S
C3554 C3552 1.394 . S
C3554 C3555 1.369 . S
C3554 C3558 1.531 . S
C3555 C3554 1.369 . S
C3555 C3556 1.410 . S
C3555 C3563 1.503 . S
C3556 C3555 1.410 . S
C3556 C3557 1.392 . S
C3556 C3559 1.511 . S
C3557 C3553 1.376 . S
C3557 C3556 1.392 . S
C3557 H3569 0.929 . S
C3558 C3554 1.531 . S
C3558 H3570 0.960 . S
C3558 H3571 0.962 . S
C3558 H3572 0.960 . S
C3559 C3556 1.511 . S
C3559 H3573 0.961 . S
C3559 H3574 0.961 . S
C3559 H3575 0.961 . S
C3560 C3561 1.370 . S
C3560 C3562 1.363 . S
C3560 H3576 0.931 . S
C3561 C3560 1.370 . S
C3561 C3565 1.408 . S
C3562 C3560 1.363 . S
C3562 C3563 1.370 . S
C3562 C3566 1.524 . S
C3563 C3555 1.503 . S
C3563 C3562 1.370 . S
C3563 C3564 1.403 . S
C3564 C3563 1.403 . S
C3564 C3565 1.404 . S
C3564 C3567 1.539 . S
C3565 C3561 1.408 . S
C3565 C3564 1.404 . S
C3565 H3577 0.930 . S
C3566 C3562 1.524 . S
C3566 H3578 0.956 . S
C3566 H3579 0.961 . S
C3566 H3580 0.961 . S
C3567 C3564 1.539 . S
C3567 H3581 0.958 . S
C3567 H3582 0.961 . S
C3567 H3583 0.960 . S
H3568 C3552 0.931 . S
H3569 C3557 0.929 . S
H3570 C3558 0.960 . S
H3571 C3558 0.962 . S
H3572 C3558 0.960 . S
H3573 C3559 0.961 . S
H3574 C3559 0.961 . S
H3575 C3559 0.961 . S
H3576 C3560 0.931 . S
H3577 C3565 0.930 . S
H3578 C3566 0.956 . S
H3579 C3566 0.961 . S
H3580 C3566 0.961 . S
H3581 C3567 0.958 . S
H3582 C3567 0.961 . S
H3583 C3567 0.960 . S
C3584 C3585 1.391 . S
C3584 C3586 1.394 . S
C3584 H3600 0.931 . S
C3585 C3584 1.391 . S
C3585 C3589 1.376 . S
C3586 C3584 1.394 . S
C3586 C3587 1.369 . S
C3586 C3590 1.531 . S
C3587 C3586 1.369 . S
C3587 C3588 1.410 . S
C3587 C3595 1.503 . S
C3588 C3587 1.410 . S
C3588 C3589 1.392 . S
C3588 C3591 1.511 . S
C3589 C3585 1.376 . S
C3589 C3588 1.392 . S
C3589 H3601 0.929 . S
C3590 C3586 1.531 . S
C3590 H3602 0.960 . S
C3590 H3603 0.962 . S
C3590 H3604 0.960 . S
C3591 C3588 1.511 . S
C3591 H3605 0.961 . S
C3591 H3606 0.961 . S
C3591 H3607 0.961 . S
C3592 C3593 1.370 . S
C3592 C3594 1.363 . S
C3592 H3608 0.931 . S
C3593 C3592 1.370 . S
C3593 C3597 1.408 . S
C3594 C3592 1.363 . S
C3594 C3595 1.370 . S
C3594 C3598 1.524 . S
C3595 C3587 1.503 . S
C3595 C3594 1.370 . S
C3595 C3596 1.403 . S
C3596 C3595 1.403 . S
C3596 C3597 1.404 . S
C3596 C3599 1.539 . S
C3597 C3593 1.408 . S
C3597 C3596 1.404 . S
C3597 H3609 0.930 . S
C3598 C3594 1.524 . S
C3598 H3610 0.956 . S
C3598 H3611 0.961 . S
C3598 H3612 0.961 . S
C3599 C3596 1.539 . S
C3599 H3613 0.958 . S
C3599 H3614 0.961 . S
C3599 H3615 0.960 . S
H3600 C3584 0.931 . S
H3601 C3589 0.929 . S
H3602 C3590 0.960 . S
H3603 C3590 0.962 . S
H3604 C3590 0.960 . S
H3605 C3591 0.961 . S
H3606 C3591 0.961 . S
H3607 C3591 0.961 . S
H3608 C3592 0.931 . S
H3609 C3597 0.930 . S
H3610 C3598 0.956 . S
H3611 C3598 0.961 . S
H3612 C3598 0.961 . S
H3613 C3599 0.958 . S
H3614 C3599 0.961 . S
H3615 C3599 0.960 . S
C1057 C238 1.380 1_554 S
C1065 C7 1.380 . S
C1089 C40 1.363 . S
C1097 C139 1.358 . S
C1121 C73 1.392 . S
C1129 C172 1.372 . S
C1153 C205 1.380 . S
C1161 C106 1.365 1_556 S
C1185 C271 1.367 . S
C1193 C502 1.364 1_556 S
C1217 C403 1.399 . S
C1225 C304 1.381 . S
C1249 C337 1.399 . S
C1257 C436 1.381 . S
C1281 C469 1.334 . S
C1289 C370 1.358 1_554 S
C1313 C766 1.330 . S
C1321 C535 1.359 . S
C1345 C667 1.364 . S
C1353 C568 1.359 1_556 S
C1377 C700 1.335 1_554 S
C1385 C601 1.353 . S
C1409 C733 1.376 . S
C1417 C634 1.364 . S
C1441 C1030 1.371 . S
C1449 C799 1.366 . S
C1473 C832 1.383 1_554 S
C1481 C931 1.379 . S
C1505 C964 1.356 1_556 S
C1513 C865 1.360 . S
C1537 C997 1.399 . S
C1545 C898 1.381 . S
C1569 C18 0.750 . S
C1577 C249 0.710 . S
C1601 C51 0.700 . S
C1609 C150 0.718 1_556 S
C1633 C84 0.651 1_554 S
C1641 C183 0.688 . S
C1665 C117 0.664 . S
C1673 C216 0.704 . S
C1697 C513 0.750 . S
C1705 C282 0.710 . S
C1729 C315 0.663 . S
C1737 C414 0.685 1_554 S
C1761 C447 0.701 . S
C1769 C348 0.721 1_556 S
C1793 C381 0.745 . S
C1801 C480 0.696 . S
C1825 C546 0.749 1_554 S
C1833 C777 0.716 . S
C1857 C678 0.655 . S
C1865 C579 0.684 . S
C1889 C711 0.678 . S
C1897 C612 0.711 . S
C1921 C645 0.667 . S
C1929 C744 0.706 1_556 S
C1953 C810 0.663 1_556 S
C1961 C1041 0.711 . S
C1985 C843 0.747 . S
C1993 C942 0.714 . S
C2017 C876 0.673 . S
C2025 C975 0.715 . S
C2049 C909 0.652 . S
C2057 C1008 0.693 1_554 S
C2081 N211 1.574 . S
C2089 N13 1.577 . S
C2113 N46 1.578 . S
C2121 N244 1.577 . S
C2145 N145 1.576 . S
C2153 N79 1.579 . S
C2177 N178 1.571 . S
C2185 N112 1.579 . S
C2209 N475 1.572 . S
C2217 N277 1.579 . S
C2241 N508 1.577 . S
C2249 N310 1.577 . S
C2273 N409 1.571 . S
C2281 N343 1.579 . S
C2305 N442 1.578 . S
C2313 N376 1.577 . S
C2337 N541 1.577 . S
C2345 N739 1.579 . S
C2369 N772 1.570 . S
C2377 N574 1.580 . S
C2401 N673 1.573 . S
C2409 N607 1.580 . S
C2433 N706 1.571 . S
C2441 N640 1.579 . S
C2465 N1003 1.577 . S
C2473 N805 1.578 . S
C2497 N838 1.571 . S
C2505 N1036 1.580 . S
C2529 N937 1.575 . S
C2537 N871 1.577 . S
C2561 N970 1.578 . S
C2569 N904 1.577 . S
C2593 C21 1.619 . S
C2601 N893 1.545 . S
C2625 N266 1.494 . S
C2633 C54 1.629 . S
C2657 N827 1.566 . S
C2665 C87 1.623 . S
C2689 C120 1.622 . S
C2697 N332 1.530 . S
C2721 C153 1.621 . S
C2729 N959 1.542 . S
C2753 C186 1.623 . S
C2761 N464 1.538 . S
C2785 C219 1.627 . S
C2793 N1025 1.521 . S
C2817 N398 1.496 . S
C2825 C252 1.629 . S
C2849 N629 1.553 . S
C2857 C285 1.626 . S
C2881 C318 1.625 . S
C2889 N2 1.521 . S
C2913 C351 1.629 . S
C2921 N563 1.520 . S
C2945 N68 1.517 . S
C2953 C384 1.629 . S
C2977 N695 1.517 . S
C2985 C417 1.625 . S
C3009 C450 1.615 . S
C3017 N200 1.550 . S
C3041 C483 1.630 . S
C3049 N761 1.521 . S
C3073 N134 1.547 . S
C3081 C516 1.627 . S
C3105 N365 1.568 . S
C3113 C549 1.623 . S
C3137 N794 1.567 . S
C3145 C582 1.623 . S
C3169 C615 1.620 . S
C3177 N299 1.544 . S
C3201 C648 1.620 . S
C3209 N860 1.543 . S
C3233 N431 1.566 . S
C3241 C681 1.624 . S
C3265 C714 1.619 . S
C3273 N992 1.545 . S
C3297 N497 1.499 . S
C3305 C747 1.629 . S
C3329 N926 1.495 . S
C3337 C780 1.629 . S
C3361 N101 1.568 . S
C3369 C813 1.624 . S
C3393 C846 1.615 . S
C3401 N530 1.549 . S
C3425 N35 1.531 . S
C3433 C879 1.624 . S
C3457 N596 1.522 . S
C3465 C912 1.629 . S
C3489 N167 1.534 . S
C3497 C945 1.628 . S
C3521 C978 1.619 . S
C3529 N728 1.549 . S
C3553 C1011 1.627 . S
C3561 N233 1.520 . S
C3585 C1044 1.620 . S
C3593 N662 1.548 . S
