# Generated by pormake.
# Topology unh, (4)-cn, num edge types: 1
# Building blocks:
#     Node 0, Type 0, BuildingBlock: QUQFOY_clean_sbu_3, # of connection points: 4
#     Node 1, Type 0, BuildingBlock: QUQFOY_clean_sbu_3, # of connection points: 4
#     Node 2, Type 0, BuildingBlock: QUQFOY_clean_sbu_3, # of connection points: 4
#     Node 3, Type 0, BuildingBlock: QUQFOY_clean_sbu_3, # of connection points: 4
#     Node 4, Type 0, BuildingBlock: QUQFOY_clean_sbu_3, # of connection points: 4
#     Node 5, Type 0, BuildingBlock: QUQFOY_clean_sbu_3, # of connection points: 4
#     Edge 6, Type (0, 0), BuildingBlock: XUDNAN_clean_linker_2, # of connection points: 2
#     Edge 7, Type (0, 0), BuildingBlock: XUDNAN_clean_linker_2, # of connection points: 2
#     Edge 8, Type (0, 0), BuildingBlock: XUDNAN_clean_linker_2, # of connection points: 2
#     Edge 9, Type (0, 0), BuildingBlock: XUDNAN_clean_linker_2, # of connection points: 2
#     Edge 10, Type (0, 0), BuildingBlock: XUDNAN_clean_linker_2, # of connection points: 2
#     Edge 11, Type (0, 0), BuildingBlock: XUDNAN_clean_linker_2, # of connection points: 2
#     Edge 12, Type (0, 0), BuildingBlock: XUDNAN_clean_linker_2, # of connection points: 2
#     Edge 13, Type (0, 0), BuildingBlock: XUDNAN_clean_linker_2, # of connection points: 2
#     Edge 14, Type (0, 0), BuildingBlock: XUDNAN_clean_linker_2, # of connection points: 2
#     Edge 15, Type (0, 0), BuildingBlock: XUDNAN_clean_linker_2, # of connection points: 2
#     Edge 16, Type (0, 0), BuildingBlock: XUDNAN_clean_linker_2, # of connection points: 2
#     Edge 17, Type (0, 0), BuildingBlock: XUDNAN_clean_linker_2, # of connection points: 2
# Relax obj value: 0.079
# Max RMSD: 0.192
# Mean RMSD: 0.192
data_MOF--net-unh--node1-QUQFOY_clean_sbu_3--edge1-XUDNAN_clean_linker_2
_symmetry_space_group_name_H-M    P1
_symmetry_Int_Tables_number       1
_symmetry_cell_setting            triclinic
loop_
_symmetry_equiv_pos_as_xyz
'x, y, z'
_cell_length_a     43.500426
_cell_length_b     43.176842
_cell_length_c     23.317884
_cell_angle_alpha  90.575705
_cell_angle_beta   89.972097
_cell_angle_gamma 120.18535
loop_
_atom_site_label
_atom_site_type_symbol
_atom_site_fract_x
_atom_site_fract_y
_atom_site_fract_z
_atom_type_partial_charge
C0 C 0.1703 0.53333 0.09661 0.0
O1 O 0.16746 0.51954 0.04715 0.0
Cd2 Cd 0.12592 0.5176 0.97567 0.0
O3 O 0.15192 0.54769 0.10988 0.0
Cd4 Cd 0.10748 0.55999 0.06858 0.0
C5 C 0.15784 0.60736 0.95707 0.0
O6 O 0.06999 0.50221 0.01816 0.0
O7 O 0.05902 0.54515 0.00406 0.0
O8 O 0.08276 0.54385 0.16292 0.0
C9 C 0.05068 0.51291 -0.0054 0.0
O10 O 0.14995 0.57694 0.93595 0.0
C11 C 0.07772 0.57003 0.17111 0.0
O12 O 0.14955 0.61057 0.00841 0.0
O13 O 0.08755 0.59306 0.13143 0.0
C14 C 0.63491 0.16875 0.25572 0.0
O15 O 0.64114 0.1625 0.20501 0.0
Cd16 Cd 0.59424 0.11416 0.14886 0.0
O17 O 0.60379 0.1515 0.27645 0.0
Cd18 Cd 0.54233 0.10536 0.25556 0.0
C19 C 0.53486 0.14468 0.13599 0.0
O20 O 0.56036 0.06518 0.21201 0.0
O21 O 0.50429 0.04733 0.21128 0.0
O22 O 0.54983 0.10277 0.35711 0.0
C23 C 0.52901 0.04121 0.19804 0.0
O24 O 0.55531 0.13496 0.11314 0.0
C25 C 0.51792 0.09207 0.37102 0.0
O26 O 0.52809 0.14099 0.18957 0.0
O27 O 0.49638 0.08788 0.33079 0.0
C28 C 0.47199 0.6523 0.4276 0.0
O29 O 0.47823 0.65594 0.37419 0.0
Cd30 Cd 0.46258 0.60405 0.31309 0.0
O31 O 0.45623 0.62134 0.44958 0.0
Cd32 Cd 0.42933 0.55874 0.41847 0.0
C33 C 0.37309 0.56229 0.32213 0.0
O34 O 0.47651 0.56138 0.35471 0.0
O35 O 0.42593 0.51176 0.35911 0.0
O36 O 0.4506 0.55111 0.51006 0.0
C37 C 0.45782 0.52823 0.34196 0.0
O38 O 0.39997 0.57714 0.28935 0.0
C39 C 0.42139 0.52451 0.52582 0.0
O40 O 0.37647 0.55552 0.37407 0.0
O41 O 0.39498 0.51412 0.49209 0.0
C42 C 0.78983 0.46585 0.59008 0.0
O43 O 0.78855 0.47368 0.53813 0.0
Cd44 Cd 0.82885 0.47316 0.46662 0.0
O45 O 0.81188 0.45644 0.60584 0.0
Cd46 Cd 0.85778 0.44599 0.56454 0.0
C47 C 0.80225 0.38454 0.46659 0.0
O48 O 0.88847 0.50028 0.50516 0.0
O49 O 0.90526 0.46105 0.49757 0.0
O50 O 0.88639 0.4675 0.6567 0.0
C51 C 0.91003 0.49152 0.48422 0.0
O52 O 0.80536 0.41084 0.43775 0.0
C53 C 0.89161 0.44162 0.66629 0.0
O54 O 0.81618 0.38948 0.51631 0.0
O55 O 0.88085 0.41708 0.62817 0.0
C56 C 0.33273 0.80813 0.73333 0.0
O57 O 0.33247 0.81613 0.68108 0.0
Cd58 Cd 0.38365 0.86127 0.6304 0.0
O59 O 0.3613 0.82397 0.7628 0.0
Cd60 Cd 0.42398 0.87093 0.74982 0.0
C61 C 0.43853 0.82628 0.64102 0.0
O62 O 0.41153 0.91164 0.69479 0.0
O63 O 0.46677 0.92842 0.70958 0.0
O64 O 0.42115 0.88624 0.84931 0.0
C65 C 0.44397 0.93538 0.68923 0.0
O66 O 0.42074 0.83508 0.60847 0.0
C67 C 0.45 0.88798 0.86459 0.0
O68 O 0.44182 0.83405 0.69436 0.0
O69 O 0.46641 0.88069 0.82661 0.0
C70 C 0.49161 0.30554 0.90448 0.0
O71 O 0.48172 0.30316 0.85259 0.0
Cd72 Cd 0.48913 0.35414 0.79963 0.0
O73 O 0.50488 0.33536 0.93132 0.0
Cd74 Cd 0.51844 0.39751 0.91607 0.0
C75 C 0.5795 0.40989 0.81609 0.0
O76 O 0.46704 0.38537 0.85602 0.0
O77 O 0.50982 0.44024 0.86213 0.0
O78 O 0.49466 0.39006 0.0116 0.0
C79 C 0.47899 0.41801 0.84356 0.0
O80 O 0.553 0.39154 0.78295 0.0
C81 C 0.5181 0.42048 0.03083 0.0
O82 O 0.57494 0.41429 0.86892 0.0
O83 O 0.54265 0.44077 -0.00336 0.0
H84 H 0.0024 0.52802 0.9494 0.0
H85 H 0.03609 0.44903 0.94357 0.0
H86 H -0.00643 0.41746 0.86385 0.0
H87 H 0.90775 0.46665 0.9114 0.0
H88 H 0.90599 0.50057 0.86944 0.0
H89 H 0.9351 0.51328 0.93095 0.0
H90 H -0.01135 0.55503 0.86702 0.0
H91 H 0.95988 0.54229 0.80539 0.0
H92 H -0.00175 0.53672 0.80424 0.0
H93 H 0.95211 0.39908 0.77697 0.0
H94 H 0.91575 0.39547 0.69263 0.0
H95 H 0.91082 0.4874 0.75749 0.0
C96 C 0.00036 0.50364 0.93227 0.0
C97 C 0.02246 0.4909 0.9526 0.0
C98 C 0.01916 0.45906 0.9288 0.0
C99 C -0.00489 0.441 0.88357 0.0
C100 C 0.97442 0.455 0.86337 0.0
C101 C 0.97665 0.48544 0.88752 0.0
C102 C 0.95388 0.49694 0.85572 0.0
C103 C 0.9239 0.49418 0.89417 0.0
C104 C 0.97653 0.53498 0.83167 0.0
C105 C 0.9394 0.46902 0.80844 0.0
C106 C 0.95101 0.44468 0.81379 0.0
C107 C 0.94248 0.4177 0.7729 0.0
C108 C 0.92188 0.41588 0.72514 0.0
C109 C 0.91049 0.44116 0.7186 0.0
C110 C 0.91899 0.4676 0.76136 0.0
H111 H 0.41895 0.9027 0.95416 0.0
H112 H 0.51605 0.90483 0.90411 0.0
H113 H 0.54481 0.93685 -0.00569 0.0
H114 H 0.45755 0.98752 0.00479 0.0
H115 H 0.4278 0.97902 0.06404 0.0
H116 H 0.41272 0.95 0.00213 0.0
H117 H 0.39567 0.89506 0.06635 0.0
H118 H 0.41051 0.92398 0.1288 0.0
H119 H 0.42852 0.89523 0.11366 0.0
H120 H 0.56596 0.97797 0.08048 0.0
H121 H 0.57689 0.02292 0.15628 0.0
H122 H 0.4655 -0.0075 0.15034 0.0
C123 C 0.4459 0.90887 0.96298 0.0
C124 C 0.46526 0.90125 0.92227 0.0
C125 C 0.50064 0.91021 0.93495 0.0
C126 C 0.51718 0.92834 -0.01388 0.0
C127 C 0.49775 0.93675 0.02441 0.0
C128 C 0.46267 0.9268 0.01377 0.0
C129 C 0.44874 0.94225 0.05837 0.0
C130 C 0.43599 0.96611 0.03066 0.0
C131 C 0.41911 0.91234 0.09391 0.0
C132 C 0.48199 0.96407 0.09397 0.0
C133 C 0.50986 0.96014 0.07445 0.0
C134 C 0.54412 0.98059 0.09706 0.0
C135 C 0.55012 0.00612 0.13995 0.0
C136 C 0.52201 0.01105 0.15936 0.0
C137 C 0.48743 -0.01099 0.13702 0.0
H138 H 0.50723 0.55334 0.25547 0.0
H139 H 0.43867 0.45869 0.35403 0.0
H140 H 0.45546 0.42279 0.29292 0.0
H141 H 0.48329 0.5116 0.12409 0.0
H142 H 0.52636 0.5359 0.09086 0.0
H143 H 0.51524 0.55608 0.14899 0.0
H144 H 0.57079 0.566 0.20554 0.0
H145 H 0.58218 0.54588 0.14731 0.0
H146 H 0.57708 0.52848 0.2188 0.0
H147 H 0.47122 0.39538 0.21443 0.0
H148 H 0.48459 0.37762 0.1212 0.0
H149 H 0.54318 0.48909 0.07078 0.0
C150 C 0.49685 0.52535 0.26518 0.0
C151 C 0.472 0.50874 0.30965 0.0
C152 C 0.45787 0.47183 0.32019 0.0
C153 C 0.46743 0.45129 0.28598 0.0
C154 C 0.49111 0.46805 0.24129 0.0
C155 C 0.50579 0.50424 0.23072 0.0
C156 C 0.52692 0.51442 0.17545 0.0
C157 C 0.51204 0.53042 0.13232 0.0
C158 C 0.5666 0.54023 0.18752 0.0
C159 C 0.52037 0.47802 0.15549 0.0
C160 C 0.50022 0.45185 0.19483 0.0
C161 C 0.48768 0.41567 0.18382 0.0
C162 C 0.49526 0.40582 0.13069 0.0
C163 C 0.51519 0.43203 0.08924 0.0
C164 C 0.52866 0.46865 0.10238 0.0
H165 H 0.96392 0.48225 0.44658 0.0
H166 H 0.91937 0.55178 0.42906 0.0
H167 H 0.96363 0.58569 0.35374 0.0
H168 H 0.05786 0.55116 0.41916 0.0
H169 H 0.06576 0.51951 0.38043 0.0
H170 H 0.03397 0.50445 0.438 0.0
H171 H -0.01465 0.45822 0.36916 0.0
H172 H 0.01687 0.47309 0.31159 0.0
H173 H 0.97586 0.47347 0.30337 0.0
H174 H 0.00852 0.607 0.27191 0.0
H175 H 0.04843 0.61273 0.1917 0.0
H176 H 0.06274 0.52907 0.26585 0.0
C177 C 0.96384 0.50504 0.42775 0.0
C178 C 0.93826 0.51442 0.44356 0.0
C179 C 0.93892 0.54428 0.4177 0.0
C180 C 0.96399 0.56371 0.37502 0.0
C181 C -0.01159 0.55317 0.35951 0.0
C182 C -0.01138 0.52466 0.38562 0.0
C183 C 0.01543 0.51661 0.35865 0.0
C184 C 0.04501 0.52335 0.40163 0.0
C185 C -0.00272 0.47809 0.33424 0.0
C186 C 0.02933 0.54403 0.31158 0.0
C187 C 0.014 0.56535 0.31308 0.0
C188 C 0.02111 0.59085 0.27098 0.0
C189 C 0.04383 0.59396 0.22564 0.0
C190 C 0.05869 0.57139 0.22268 0.0
C191 C 0.05196 0.54687 0.26709 0.0
H192 H 0.45333 0.03886 0.40841 0.0
H193 H 0.55808 0.12031 0.46682 0.0
H194 H 0.54485 0.09431 0.56339 0.0
H195 H 0.40544 0.02653 0.55279 0.0
H196 H 0.379 0.97888 0.54028 0.0
H197 H 0.39252 0.00925 0.48073 0.0
H198 H 0.42076 0.97527 0.43245 0.0
H199 H 0.40786 0.94522 0.4919 0.0
H200 H 0.4539 0.97023 0.47098 0.0
H201 H 0.52707 0.05276 0.64373 0.0
H202 H 0.50406 -0.00033 0.70543 0.0
H203 H 0.40992 0.94449 0.59812 0.0
C204 C 0.47267 0.05217 0.44244 0.0
C205 C 0.50652 0.08177 0.43065 0.0
C206 C 0.53188 0.09776 0.47534 0.0
C207 C 0.52455 0.08326 0.53035 0.0
C208 C 0.49167 0.05283 0.54004 0.0
C209 C 0.46583 0.03768 0.49765 0.0
C210 C 0.43495 0.00209 0.51678 0.0
C211 C 0.40096 0.00434 0.52303 0.0
C212 C 0.42907 0.97142 0.47559 0.0
C213 C 0.44859 -0.00142 0.57474 0.0
C214 C 0.48105 0.0285 0.58773 0.0
C215 C 0.50116 0.02968 0.63508 0.0
C216 C 0.48805 -0.00065 0.66962 0.0
C217 C 0.45509 0.96838 0.65679 0.0
C218 C 0.43472 0.96832 0.60965 0.0
H219 H 0.50558 0.48328 0.79386 0.0
H220 H 0.41135 0.37768 0.79951 0.0
H221 H 0.38303 0.39581 0.72513 0.0
H222 H 0.4608 0.53477 0.76614 0.0
H223 H 0.49529 0.56466 0.71815 0.0
H224 H 0.50593 0.5447 0.77672 0.0
H225 H 0.53343 0.51909 0.70523 0.0
H226 H 0.52289 0.53891 0.64657 0.0
H227 H 0.50695 0.49146 0.64589 0.0
H228 H 0.36727 0.42439 0.64424 0.0
H229 H 0.36667 0.45961 0.56155 0.0
H230 H 0.47215 0.54539 0.60898 0.0
C231 C 0.47869 0.46413 0.78041 0.0
C232 C 0.46053 0.42915 0.80272 0.0
C233 C 0.42565 0.4047 0.78313 0.0
C234 C 0.40934 0.4148 0.74108 0.0
C235 C 0.42831 0.4494 0.71926 0.0
C236 C 0.46225 0.47364 0.73835 0.0
C237 C 0.47835 0.50803 0.70481 0.0
C238 C 0.4855 0.53992 0.74379 0.0
C239 C 0.5124 0.51474 0.67379 0.0
C240 C 0.4485 0.49916 0.66291 0.0
C241 C 0.41961 0.46547 0.67231 0.0
C242 C 0.3896 0.45095 0.63691 0.0
C243 C 0.38947 0.47114 0.59013 0.0
C244 C 0.41934 0.50523 0.57895 0.0
C245 C 0.44883 0.51951 0.61658 0.0
H246 H 0.23339 0.53516 0.07755 0.0
H247 H 0.16341 0.53218 0.2127 0.0
H248 H 0.20595 0.53503 0.28562 0.0
H249 H 0.26771 0.48383 0.1504 0.0
H250 H 0.31218 0.51165 0.12372 0.0
H251 H 0.2746 0.50567 0.08224 0.0
H252 H 0.30152 0.57454 0.07951 0.0
H253 H 0.33909 0.58072 0.12103 0.0
H254 H 0.31283 0.59975 0.14589 0.0
H255 H 0.25684 0.53988 0.34385 0.0
H256 H 0.31436 0.5508 0.38294 0.0
H257 H 0.35248 0.55433 0.20969 0.0
C258 C 0.2268 0.53445 0.1225 0.0
C259 C 0.19503 0.53307 0.13962 0.0
C260 C 0.18764 0.53313 0.19878 0.0
C261 C 0.21153 0.53459 0.24048 0.0
C262 C 0.24287 0.53638 0.22227 0.0
C263 C 0.25069 0.5366 0.16471 0.0
C264 C 0.28742 0.54156 0.15662 0.0
C265 C 0.28534 0.50872 0.12647 0.0
C266 C 0.31164 0.5762 0.12384 0.0
C267 C 0.2991 0.54441 0.21854 0.0
C268 C 0.27283 0.54079 0.25579 0.0
C269 C 0.27761 0.5427 0.31512 0.0
C270 C 0.3103 0.54884 0.33693 0.0
C271 C 0.33789 0.55357 0.29938 0.0
C272 C 0.33196 0.55103 0.23949 0.0
H273 H 0.68533 0.23761 0.22928 0.0
H274 H 0.64743 0.15999 0.36609 0.0
H275 H 0.69127 0.2057 0.43272 0.0
H276 H 0.78038 0.28985 0.27455 0.0
H277 H 0.78392 0.332 0.25638 0.0
H278 H 0.7538 0.29186 0.217 0.0
H279 H 0.70174 0.30276 0.24055 0.0
H280 H 0.7316 0.34275 0.28015 0.0
H281 H 0.69249 0.30779 0.31435 0.0
H282 H 0.73572 0.26031 0.48601 0.0
H283 H 0.775 0.32134 0.52442 0.0
H284 H 0.78124 0.36477 0.35486 0.0
C285 C 0.68713 0.23016 0.27284 0.0
C286 C 0.66367 0.19532 0.29262 0.0
C287 C 0.6656 0.18658 0.35031 0.0
C288 C 0.69044 0.21227 0.3883 0.0
C289 C 0.7128 0.24669 0.36802 0.0
C290 C 0.71128 0.2558 0.31177 0.0
C291 C 0.73541 0.29564 0.30282 0.0
C292 C 0.76514 0.30274 0.26016 0.0
C293 C 0.71402 0.31326 0.28334 0.0
C294 C 0.75005 0.3075 0.36301 0.0
C295 C 0.73724 0.27874 0.39963 0.0
C296 C 0.74617 0.28307 0.4577 0.0
C297 C 0.76849 0.31783 0.47912 0.0
C298 C 0.7811 0.34781 0.44272 0.0
C299 C 0.77199 0.34239 0.38379 0.0
H300 H 0.44135 0.80957 0.52796 0.0
H301 H 0.46993 0.79466 0.6997 0.0
H302 H 0.49007 0.75461 0.66054 0.0
H303 H 0.40527 0.72225 0.48179 0.0
H304 H 0.42152 0.73228 0.4093 0.0
H305 H 0.41425 0.76374 0.44949 0.0
H306 H 0.47957 0.81327 0.43218 0.0
H307 H 0.48707 0.78186 0.39182 0.0
H308 H 0.51522 0.80566 0.45227 0.0
H309 H 0.49791 0.70925 0.60573 0.0
H310 H 0.49472 0.6632 0.53832 0.0
H311 H 0.46425 0.7095 0.40115 0.0
C312 C 0.45254 0.7985 0.55726 0.0
C313 C 0.45402 0.80528 0.61697 0.0
C314 C 0.46861 0.79001 0.65381 0.0
C315 C 0.48023 0.76729 0.63194 0.0
C316 C 0.47764 0.76055 0.57304 0.0
C317 C 0.46454 0.77603 0.53609 0.0
C318 C 0.46202 0.76227 0.47522 0.0
C319 C 0.42348 0.74405 0.45267 0.0
C320 C 0.4875 0.79258 0.43553 0.0
C321 C 0.47419 0.73538 0.48417 0.0
C322 C 0.48342 0.73509 0.54086 0.0
C323 C 0.4917 0.70986 0.56097 0.0
C324 C 0.48976 0.6838 0.52248 0.0
C325 C 0.47995 0.68338 0.4645 0.0
C326 C 0.47298 0.71005 0.44484 0.0
H327 H 0.59906 0.4183 0.7032 0.0
H328 H 0.64207 0.43569 0.87609 0.0
H329 H 0.70205 0.45706 0.83644 0.0
H330 H 0.65019 0.38477 0.6436 0.0
H331 H 0.65645 0.40629 0.57529 0.0
H332 H 0.61762 0.39533 0.61719 0.0
H333 H 0.63309 0.46164 0.6147 0.0
H334 H 0.67203 0.47282 0.57266 0.0
H335 H 0.67625 0.4964 0.63907 0.0
H336 H 0.75569 0.46993 0.77822 0.0
H337 H 0.79977 0.4762 0.70561 0.0
H338 H 0.72242 0.45337 0.57061 0.0
C339 C 0.62114 0.427 0.73281 0.0
C340 C 0.61587 0.42525 0.79279 0.0
C341 C 0.64549 0.43693 0.83001 0.0
C342 C 0.67965 0.44912 0.80788 0.0
C343 C 0.68378 0.44997 0.74851 0.0
C344 C 0.6554 0.43962 0.71149 0.0
C345 C 0.66667 0.44181 0.6495 0.0
C346 C 0.64654 0.40485 0.61968 0.0
C347 C 0.66172 0.46984 0.61708 0.0
C348 C 0.70566 0.45397 0.65742 0.0
C349 C 0.71502 0.45862 0.71487 0.0
C350 C 0.74886 0.46705 0.7331 0.0
C351 C 0.77366 0.47044 0.69159 0.0
C352 C 0.76458 0.4657 0.63255 0.0
C353 C 0.73032 0.45797 0.61534 0.0
H354 H 0.32199 0.78822 0.84643 0.0
H355 H 0.26935 0.76269 0.68017 0.0
H356 H 0.21613 0.71216 0.72294 0.0
H357 H 0.29108 0.70046 0.88924 0.0
H358 H 0.28506 0.70779 0.96362 0.0
H359 H 0.31764 0.74423 0.92154 0.0
H360 H 0.28816 0.78183 0.94723 0.0
H361 H 0.2554 0.74543 -0.01051 0.0
H362 H 0.24147 0.76378 0.93277 0.0
H363 H 0.17213 0.66058 0.77989 0.0
H364 H 0.13889 0.61196 0.84883 0.0
H365 H 0.21802 0.6719 0.97992 0.0
C366 C 0.29908 0.77236 0.81913 0.0
C367 C 0.29989 0.77944 0.75985 0.0
C368 C 0.26938 0.7579 0.72566 0.0
C369 C 0.23897 0.72917 0.7496 0.0
C370 C 0.23929 0.72262 0.80792 0.0
C371 C 0.26838 0.74375 0.84243 0.0
C372 C 0.2625 0.7297 0.90318 0.0
C373 C 0.29074 0.71996 0.92037 0.0
C374 C 0.26184 0.7568 0.94568 0.0
C375 C 0.22604 0.69662 0.8969 0.0
C376 C 0.21311 0.69324 0.84158 0.0
C377 C 0.18154 0.6633 0.82363 0.0
C378 C 0.16293 0.63584 0.86293 0.0
C379 C 0.17572 0.63867 0.91962 0.0
C380 C 0.20728 0.66971 0.93721 0.0
H381 H 0.50614 0.29999 0.01735 0.0
H382 H 0.47246 0.23998 0.85681 0.0
H383 H 0.47363 0.1894 0.90279 0.0
H384 H 0.56697 0.27433 0.05688 0.0
H385 H 0.55743 0.27097 0.13254 0.0
H386 H 0.55005 0.30086 0.08918 0.0
H387 H 0.48441 0.26975 0.1222 0.0
H388 H 0.49161 0.23972 0.16586 0.0
H389 H 0.4565 0.22196 0.11292 0.0
H390 H 0.48598 0.1491 0.96149 0.0
H391 H 0.50639 0.12032 0.03077 0.0
H392 H 0.52929 0.20452 0.15529 0.0
C393 C 0.49839 0.27598 -0.00793 0.0
C394 C 0.4892 0.27399 0.93337 0.0
C395 C 0.47948 0.24214 0.90181 0.0
C396 C 0.47999 0.21322 0.9276 0.0
C397 C 0.48982 0.21635 -0.01483 0.0
C398 C 0.49849 0.24674 0.01726 0.0
C399 C 0.51011 0.24404 0.07743 0.0
C400 C 0.54841 0.27434 0.08969 0.0
C401 C 0.4841 0.24385 0.12225 0.0
C402 C 0.50785 0.2079 0.0735 0.0
C403 C 0.49587 0.19235 0.01992 0.0
C404 C 0.49461 0.16057 0.00397 0.0
C405 C 0.50635 0.14451 0.04346 0.0
C406 C 0.51882 0.16 0.09842 0.0
C407 C 0.51893 0.19171 0.11406 0.0
loop_
_geom_bond_atom_site_label_1
_geom_bond_atom_site_label_2
_geom_bond_distance
_geom_bond_site_symmetry_2
_ccdc_geom_bond_type
C0 O1 1.306 . S
C0 O3 1.160 . S
O1 C0 1.306 . S
O1 Cd2 2.228 1_554 S
Cd2 O1 2.228 1_556 S
Cd2 O6 2.273 1_556 S
Cd2 O10 2.277 1_556 S
O3 C0 1.160 . S
O3 Cd4 2.203 . S
Cd4 O3 2.203 . S
Cd4 O6 2.411 . S
Cd4 O7 2.333 . S
Cd4 O8 2.352 . S
Cd4 O12 2.277 . S
Cd4 O13 2.356 . S
C5 O10 1.209 . S
C5 O12 1.226 . S
O6 Cd2 2.273 1_554 S
O6 Cd4 2.411 . S
O6 C9 1.320 1_554 S
O7 Cd4 2.333 . S
O7 C9 1.214 1_554 S
O8 Cd4 2.352 . S
O8 C11 1.258 . S
C9 O6 1.320 1_556 S
C9 O7 1.214 1_556 S
O10 Cd2 2.277 1_554 S
O10 C5 1.209 . S
C11 O8 1.258 . S
C11 O13 1.282 . S
O12 Cd4 2.277 . S
O12 C5 1.226 . S
O13 Cd4 2.356 . S
O13 C11 1.282 . S
C14 O15 1.306 . S
C14 O17 1.160 . S
O15 C14 1.306 . S
O15 Cd16 2.228 . S
Cd16 O15 2.228 . S
Cd16 O20 2.273 . S
Cd16 O24 2.277 . S
O17 C14 1.160 . S
O17 Cd18 2.203 . S
Cd18 O17 2.203 . S
Cd18 O20 2.411 . S
Cd18 O21 2.333 . S
Cd18 O22 2.352 . S
Cd18 O26 2.277 . S
Cd18 O27 2.356 . S
C19 O24 1.209 . S
C19 O26 1.226 . S
O20 Cd16 2.273 . S
O20 Cd18 2.411 . S
O20 C23 1.320 . S
O21 Cd18 2.333 . S
O21 C23 1.214 . S
O22 Cd18 2.352 . S
O22 C25 1.258 . S
C23 O20 1.320 . S
C23 O21 1.214 . S
O24 Cd16 2.277 . S
O24 C19 1.209 . S
C25 O22 1.258 . S
C25 O27 1.282 . S
O26 Cd18 2.277 . S
O26 C19 1.226 . S
O27 Cd18 2.356 . S
O27 C25 1.282 . S
C28 O29 1.306 . S
C28 O31 1.160 . S
O29 C28 1.306 . S
O29 Cd30 2.228 . S
Cd30 O29 2.228 . S
Cd30 O34 2.273 . S
Cd30 O38 2.277 . S
O31 C28 1.160 . S
O31 Cd32 2.203 . S
Cd32 O31 2.203 . S
Cd32 O34 2.411 . S
Cd32 O35 2.333 . S
Cd32 O36 2.352 . S
Cd32 O40 2.277 . S
Cd32 O41 2.356 . S
C33 O38 1.209 . S
C33 O40 1.226 . S
O34 Cd30 2.273 . S
O34 Cd32 2.411 . S
O34 C37 1.320 . S
O35 Cd32 2.333 . S
O35 C37 1.214 . S
O36 Cd32 2.352 . S
O36 C39 1.258 . S
C37 O34 1.320 . S
C37 O35 1.214 . S
O38 Cd30 2.277 . S
O38 C33 1.209 . S
C39 O36 1.258 . S
C39 O41 1.282 . S
O40 Cd32 2.277 . S
O40 C33 1.226 . S
O41 Cd32 2.356 . S
O41 C39 1.282 . S
C42 O43 1.306 . S
C42 O45 1.160 . S
O43 C42 1.306 . S
O43 Cd44 2.228 . S
Cd44 O43 2.228 . S
Cd44 O48 2.273 . S
Cd44 O52 2.277 . S
O45 C42 1.160 . S
O45 Cd46 2.203 . S
Cd46 O45 2.203 . S
Cd46 O48 2.411 . S
Cd46 O49 2.333 . S
Cd46 O50 2.352 . S
Cd46 O54 2.277 . S
Cd46 O55 2.356 . S
C47 O52 1.209 . S
C47 O54 1.226 . S
O48 Cd44 2.273 . S
O48 Cd46 2.411 . S
O48 C51 1.320 . S
O49 Cd46 2.333 . S
O49 C51 1.214 . S
O50 Cd46 2.352 . S
O50 C53 1.258 . S
C51 O48 1.320 . S
C51 O49 1.214 . S
O52 Cd44 2.277 . S
O52 C47 1.209 . S
C53 O50 1.258 . S
C53 O55 1.282 . S
O54 Cd46 2.277 . S
O54 C47 1.226 . S
O55 Cd46 2.356 . S
O55 C53 1.282 . S
C56 O57 1.306 . S
C56 O59 1.160 . S
O57 C56 1.306 . S
O57 Cd58 2.228 . S
Cd58 O57 2.228 . S
Cd58 O62 2.273 . S
Cd58 O66 2.277 . S
O59 C56 1.160 . S
O59 Cd60 2.203 . S
Cd60 O59 2.203 . S
Cd60 O62 2.411 . S
Cd60 O63 2.333 . S
Cd60 O64 2.352 . S
Cd60 O68 2.277 . S
Cd60 O69 2.356 . S
C61 O66 1.209 . S
C61 O68 1.226 . S
O62 Cd58 2.273 . S
O62 Cd60 2.411 . S
O62 C65 1.320 . S
O63 Cd60 2.333 . S
O63 C65 1.214 . S
O64 Cd60 2.352 . S
O64 C67 1.258 . S
C65 O62 1.320 . S
C65 O63 1.214 . S
O66 Cd58 2.277 . S
O66 C61 1.209 . S
C67 O64 1.258 . S
C67 O69 1.282 . S
O68 Cd60 2.277 . S
O68 C61 1.226 . S
O69 Cd60 2.356 . S
O69 C67 1.282 . S
C70 O71 1.306 . S
C70 O73 1.160 . S
O71 C70 1.306 . S
O71 Cd72 2.228 . S
Cd72 O71 2.228 . S
Cd72 O76 2.273 . S
Cd72 O80 2.277 . S
O73 C70 1.160 . S
O73 Cd74 2.203 . S
Cd74 O73 2.203 . S
Cd74 O76 2.411 . S
Cd74 O77 2.333 . S
Cd74 O78 2.352 . S
Cd74 O82 2.277 . S
Cd74 O83 2.356 . S
C75 O80 1.209 . S
C75 O82 1.226 . S
O76 Cd72 2.273 . S
O76 Cd74 2.411 . S
O76 C79 1.320 . S
O77 Cd74 2.333 . S
O77 C79 1.214 . S
O78 Cd74 2.352 . S
O78 C81 1.258 1_556 S
C79 O76 1.320 . S
C79 O77 1.214 . S
O80 Cd72 2.277 . S
O80 C75 1.209 . S
C81 O78 1.258 1_554 S
C81 O83 1.282 1_554 S
O82 Cd74 2.277 . S
O82 C75 1.226 . S
O83 Cd74 2.356 . S
O83 C81 1.282 1_556 S
H84 C96 0.930 . S
H85 C98 0.930 . S
H86 C99 0.930 . S
H87 C103 0.959 . S
H88 C103 0.959 . S
H89 C103 0.961 . S
H90 C104 0.960 . S
H91 C104 0.961 . S
H92 C104 0.959 . S
H93 C107 0.929 . S
H94 C108 0.931 . S
H95 C110 0.930 . S
C96 H84 0.930 . S
C96 C97 1.399 . S
C96 C101 1.399 . S
C97 C96 1.399 . S
C97 C98 1.376 . S
C98 H85 0.930 . S
C98 C97 1.376 . S
C98 C99 1.388 . S
C99 H86 0.930 . S
C99 C98 1.388 . S
C99 C100 1.390 . S
C100 C99 1.390 . S
C100 C101 1.394 . S
C100 C106 1.465 . S
C101 C96 1.399 . S
C101 C100 1.394 . S
C101 C102 1.516 1_455 S
C102 C101 1.516 1_655 S
C102 C103 1.502 . S
C102 C104 1.561 . S
C102 C105 1.526 . S
C103 H87 0.959 . S
C103 H88 0.959 . S
C103 H89 0.961 . S
C103 C102 1.502 . S
C104 H90 0.960 . S
C104 H91 0.961 . S
C104 H92 0.959 . S
C104 C102 1.561 . S
C105 C102 1.526 . S
C105 C106 1.396 1_655 S
C105 C110 1.390 . S
C106 C100 1.465 . S
C106 C105 1.396 1_455 S
C106 C107 1.399 . S
C107 H93 0.929 . S
C107 C106 1.399 . S
C107 C108 1.385 1_455 S
C108 H94 0.931 . S
C108 C107 1.385 1_655 S
C108 C109 1.389 . S
C109 C108 1.389 . S
C109 C110 1.387 . S
C110 H95 0.930 . S
C110 C105 1.390 . S
C110 C109 1.387 . S
H111 C123 0.930 . S
H112 C125 0.930 . S
H113 C126 0.930 . S
H114 C130 0.959 . S
H115 C130 0.959 . S
H116 C130 0.961 . S
H117 C131 0.960 . S
H118 C131 0.961 . S
H119 C131 0.959 . S
H120 C134 0.929 1_556 S
H121 C135 0.931 . S
H122 C137 0.930 . S
C123 H111 0.930 . S
C123 C124 1.399 . S
C123 C128 1.399 . S
C124 C123 1.399 . S
C124 C125 1.376 . S
C125 H112 0.930 . S
C125 C124 1.376 . S
C125 C126 1.388 1_565 S
C126 H113 0.930 . S
C126 C125 1.388 1_545 S
C126 C127 1.390 . S
C127 C126 1.390 . S
C127 C128 1.394 1_545 S
C127 C133 1.465 1_556 S
C128 C123 1.399 . S
C128 C127 1.394 1_565 S
C128 C129 1.516 1_556 S
C129 C128 1.516 1_554 S
C129 C130 1.502 . S
C129 C131 1.561 . S
C129 C132 1.526 1_565 S
C130 H114 0.959 . S
C130 H115 0.959 . S
C130 H116 0.961 . S
C130 C129 1.502 . S
C131 H117 0.960 . S
C131 H118 0.961 . S
C131 H119 0.959 . S
C131 C129 1.561 . S
C132 C129 1.526 1_545 S
C132 C133 1.396 . S
C132 C137 1.390 . S
C133 C127 1.465 1_554 S
C133 C132 1.396 . S
C133 C134 1.399 . S
C134 H120 0.929 1_554 S
C134 C133 1.399 . S
C134 C135 1.385 . S
C135 H121 0.931 . S
C135 C134 1.385 . S
C135 C136 1.389 . S
C136 C135 1.389 . S
C136 C137 1.387 . S
C137 H122 0.930 . S
C137 C132 1.390 . S
C137 C136 1.387 . S
H138 C150 0.930 . S
H139 C152 0.930 . S
H140 C153 0.930 . S
H141 C157 0.959 . S
H142 C157 0.959 . S
H143 C157 0.961 . S
H144 C158 0.960 . S
H145 C158 0.961 . S
H146 C158 0.959 . S
H147 C161 0.929 . S
H148 C162 0.931 1_556 S
H149 C164 0.930 . S
C150 H138 0.930 . S
C150 C151 1.399 . S
C150 C155 1.399 . S
C151 C150 1.399 . S
C151 C152 1.376 . S
C152 H139 0.930 . S
C152 C151 1.376 . S
C152 C153 1.388 . S
C153 H140 0.930 . S
C153 C152 1.388 . S
C153 C154 1.390 . S
C154 C153 1.390 . S
C154 C155 1.394 . S
C154 C160 1.465 . S
C155 C150 1.399 . S
C155 C154 1.394 . S
C155 C156 1.516 . S
C156 C155 1.516 . S
C156 C157 1.502 . S
C156 C158 1.561 . S
C156 C159 1.526 . S
C157 H141 0.959 . S
C157 H142 0.959 . S
C157 H143 0.961 . S
C157 C156 1.502 . S
C158 H144 0.960 . S
C158 H145 0.961 . S
C158 H146 0.959 . S
C158 C156 1.561 . S
C159 C156 1.526 . S
C159 C160 1.396 . S
C159 C164 1.390 . S
C160 C154 1.465 . S
C160 C159 1.396 . S
C160 C161 1.399 . S
C161 H147 0.929 . S
C161 C160 1.399 . S
C161 C162 1.385 . S
C162 H148 0.931 1_554 S
C162 C161 1.385 . S
C162 C163 1.389 . S
C163 C162 1.389 . S
C163 C164 1.387 . S
C164 H149 0.930 . S
C164 C159 1.390 . S
C164 C163 1.387 . S
H165 C177 0.930 . S
H166 C179 0.930 . S
H167 C180 0.930 . S
H168 C184 0.959 . S
H169 C184 0.959 1_455 S
H170 C184 0.961 . S
H171 C185 0.960 . S
H172 C185 0.961 . S
H173 C185 0.959 . S
H174 C188 0.929 . S
H175 C189 0.931 . S
H176 C191 0.930 . S
C177 H165 0.930 . S
C177 C178 1.399 . S
C177 C182 1.399 . S
C178 C177 1.399 . S
C178 C179 1.376 . S
C179 H166 0.930 . S
C179 C178 1.376 . S
C179 C180 1.388 . S
C180 H167 0.930 . S
C180 C179 1.388 . S
C180 C181 1.390 . S
C181 C180 1.390 . S
C181 C182 1.394 . S
C181 C187 1.465 1_655 S
C182 C177 1.399 . S
C182 C181 1.394 . S
C182 C183 1.516 1_655 S
C183 C182 1.516 1_455 S
C183 C184 1.502 1_455 S
C183 C185 1.561 . S
C183 C186 1.526 . S
C184 H168 0.959 . S
C184 H169 0.959 1_655 S
C184 H170 0.961 . S
C184 C183 1.502 1_655 S
C185 H171 0.960 . S
C185 H172 0.961 . S
C185 H173 0.959 . S
C185 C183 1.561 . S
C186 C183 1.526 . S
C186 C187 1.396 . S
C186 C191 1.390 . S
C187 C181 1.465 1_455 S
C187 C186 1.396 . S
C187 C188 1.399 . S
C188 H174 0.929 . S
C188 C187 1.399 . S
C188 C189 1.385 . S
C189 H175 0.931 . S
C189 C188 1.385 . S
C189 C190 1.389 . S
C190 C189 1.389 . S
C190 C191 1.387 . S
C191 H176 0.930 . S
C191 C186 1.390 . S
C191 C190 1.387 . S
H192 C204 0.930 . S
H193 C206 0.930 . S
H194 C207 0.930 . S
H195 C211 0.959 . S
H196 C211 0.959 . S
H197 C211 0.961 . S
H198 C212 0.960 . S
H199 C212 0.961 . S
H200 C212 0.959 . S
H201 C215 0.929 1_545 S
H202 C216 0.931 . S
H203 C218 0.930 . S
C204 H192 0.930 . S
C204 C205 1.399 . S
C204 C209 1.399 . S
C205 C204 1.399 . S
C205 C206 1.376 . S
C206 H193 0.930 . S
C206 C205 1.376 . S
C206 C207 1.388 . S
C207 H194 0.930 . S
C207 C206 1.388 . S
C207 C208 1.390 . S
C208 C207 1.390 . S
C208 C209 1.394 . S
C208 C214 1.465 1_545 S
C209 C204 1.399 . S
C209 C208 1.394 . S
C209 C210 1.516 1_545 S
C210 C209 1.516 1_565 S
C210 C211 1.502 . S
C210 C212 1.561 . S
C210 C213 1.526 . S
C211 H195 0.959 . S
C211 H196 0.959 . S
C211 H197 0.961 . S
C211 C210 1.502 . S
C212 H198 0.960 . S
C212 H199 0.961 . S
C212 H200 0.959 . S
C212 C210 1.561 . S
C213 C210 1.526 . S
C213 C214 1.396 . S
C213 C218 1.390 . S
C214 C208 1.465 1_565 S
C214 C213 1.396 . S
C214 C215 1.399 . S
C215 H201 0.929 1_565 S
C215 C214 1.399 . S
C215 C216 1.385 . S
C216 H202 0.931 . S
C216 C215 1.385 . S
C216 C217 1.389 . S
C217 C216 1.389 . S
C217 C218 1.387 . S
C218 H203 0.930 . S
C218 C213 1.390 . S
C218 C217 1.387 . S
H219 C231 0.930 . S
H220 C233 0.930 . S
H221 C234 0.930 . S
H222 C238 0.959 . S
H223 C238 0.959 . S
H224 C238 0.961 . S
H225 C239 0.960 . S
H226 C239 0.961 . S
H227 C239 0.959 . S
H228 C242 0.929 . S
H229 C243 0.931 . S
H230 C245 0.930 . S
C231 H219 0.930 . S
C231 C232 1.399 . S
C231 C236 1.399 . S
C232 C231 1.399 . S
C232 C233 1.376 . S
C233 H220 0.930 . S
C233 C232 1.376 . S
C233 C234 1.388 . S
C234 H221 0.930 . S
C234 C233 1.388 . S
C234 C235 1.390 . S
C235 C234 1.390 . S
C235 C236 1.394 . S
C235 C241 1.465 . S
C236 C231 1.399 . S
C236 C235 1.394 . S
C236 C237 1.516 . S
C237 C236 1.516 . S
C237 C238 1.502 . S
C237 C239 1.561 . S
C237 C240 1.526 . S
C238 H222 0.959 . S
C238 H223 0.959 . S
C238 H224 0.961 . S
C238 C237 1.502 . S
C239 H225 0.960 . S
C239 H226 0.961 . S
C239 H227 0.959 . S
C239 C237 1.561 . S
C240 C237 1.526 . S
C240 C241 1.396 . S
C240 C245 1.390 . S
C241 C235 1.465 . S
C241 C240 1.396 . S
C241 C242 1.399 . S
C242 H228 0.929 . S
C242 C241 1.399 . S
C242 C243 1.385 . S
C243 H229 0.931 . S
C243 C242 1.385 . S
C243 C244 1.389 . S
C244 C243 1.389 . S
C244 C245 1.387 . S
C245 H230 0.930 . S
C245 C240 1.390 . S
C245 C244 1.387 . S
H246 C258 0.930 . S
H247 C260 0.930 . S
H248 C261 0.930 . S
H249 C265 0.959 . S
H250 C265 0.959 . S
H251 C265 0.961 . S
H252 C266 0.960 . S
H253 C266 0.961 . S
H254 C266 0.959 . S
H255 C269 0.929 . S
H256 C270 0.931 . S
H257 C272 0.930 . S
C258 H246 0.930 . S
C258 C259 1.399 . S
C258 C263 1.399 . S
C259 C258 1.399 . S
C259 C260 1.376 . S
C260 H247 0.930 . S
C260 C259 1.376 . S
C260 C261 1.388 . S
C261 H248 0.930 . S
C261 C260 1.388 . S
C261 C262 1.390 . S
C262 C261 1.390 . S
C262 C263 1.394 . S
C262 C268 1.465 . S
C263 C258 1.399 . S
C263 C262 1.394 . S
C263 C264 1.516 . S
C264 C263 1.516 . S
C264 C265 1.502 . S
C264 C266 1.561 . S
C264 C267 1.526 . S
C265 H249 0.959 . S
C265 H250 0.959 . S
C265 H251 0.961 . S
C265 C264 1.502 . S
C266 H252 0.960 . S
C266 H253 0.961 . S
C266 H254 0.959 . S
C266 C264 1.561 . S
C267 C264 1.526 . S
C267 C268 1.396 . S
C267 C272 1.390 . S
C268 C262 1.465 . S
C268 C267 1.396 . S
C268 C269 1.399 . S
C269 H255 0.929 . S
C269 C268 1.399 . S
C269 C270 1.385 . S
C270 H256 0.931 . S
C270 C269 1.385 . S
C270 C271 1.389 . S
C271 C270 1.389 . S
C271 C272 1.387 . S
C272 H257 0.930 . S
C272 C267 1.390 . S
C272 C271 1.387 . S
H273 C285 0.930 . S
H274 C287 0.930 . S
H275 C288 0.930 . S
H276 C292 0.959 . S
H277 C292 0.959 . S
H278 C292 0.961 . S
H279 C293 0.960 . S
H280 C293 0.961 . S
H281 C293 0.959 . S
H282 C296 0.929 . S
H283 C297 0.931 . S
H284 C299 0.930 . S
C285 H273 0.930 . S
C285 C286 1.399 . S
C285 C290 1.399 . S
C286 C285 1.399 . S
C286 C287 1.376 . S
C287 H274 0.930 . S
C287 C286 1.376 . S
C287 C288 1.388 . S
C288 H275 0.930 . S
C288 C287 1.388 . S
C288 C289 1.390 . S
C289 C288 1.390 . S
C289 C290 1.394 . S
C289 C295 1.465 . S
C290 C285 1.399 . S
C290 C289 1.394 . S
C290 C291 1.516 . S
C291 C290 1.516 . S
C291 C292 1.502 . S
C291 C293 1.561 . S
C291 C294 1.526 . S
C292 H276 0.959 . S
C292 H277 0.959 . S
C292 H278 0.961 . S
C292 C291 1.502 . S
C293 H279 0.960 . S
C293 H280 0.961 . S
C293 H281 0.959 . S
C293 C291 1.561 . S
C294 C291 1.526 . S
C294 C295 1.396 . S
C294 C299 1.390 . S
C295 C289 1.465 . S
C295 C294 1.396 . S
C295 C296 1.399 . S
C296 H282 0.929 . S
C296 C295 1.399 . S
C296 C297 1.385 . S
C297 H283 0.931 . S
C297 C296 1.385 . S
C297 C298 1.389 . S
C298 C297 1.389 . S
C298 C299 1.387 . S
C299 H284 0.930 . S
C299 C294 1.390 . S
C299 C298 1.387 . S
H300 C312 0.930 . S
H301 C314 0.930 . S
H302 C315 0.930 . S
H303 C319 0.959 . S
H304 C319 0.959 . S
H305 C319 0.961 . S
H306 C320 0.960 . S
H307 C320 0.961 . S
H308 C320 0.959 . S
H309 C323 0.929 . S
H310 C324 0.931 . S
H311 C326 0.930 . S
C312 H300 0.930 . S
C312 C313 1.399 . S
C312 C317 1.399 . S
C313 C312 1.399 . S
C313 C314 1.376 . S
C314 H301 0.930 . S
C314 C313 1.376 . S
C314 C315 1.388 . S
C315 H302 0.930 . S
C315 C314 1.388 . S
C315 C316 1.390 . S
C316 C315 1.390 . S
C316 C317 1.394 . S
C316 C322 1.465 . S
C317 C312 1.399 . S
C317 C316 1.394 . S
C317 C318 1.516 . S
C318 C317 1.516 . S
C318 C319 1.502 . S
C318 C320 1.561 . S
C318 C321 1.526 . S
C319 H303 0.959 . S
C319 H304 0.959 . S
C319 H305 0.961 . S
C319 C318 1.502 . S
C320 H306 0.960 . S
C320 H307 0.961 . S
C320 H308 0.959 . S
C320 C318 1.561 . S
C321 C318 1.526 . S
C321 C322 1.396 . S
C321 C326 1.390 . S
C322 C316 1.465 . S
C322 C321 1.396 . S
C322 C323 1.399 . S
C323 H309 0.929 . S
C323 C322 1.399 . S
C323 C324 1.385 . S
C324 H310 0.931 . S
C324 C323 1.385 . S
C324 C325 1.389 . S
C325 C324 1.389 . S
C325 C326 1.387 . S
C326 H311 0.930 . S
C326 C321 1.390 . S
C326 C325 1.387 . S
H327 C339 0.930 . S
H328 C341 0.930 . S
H329 C342 0.930 . S
H330 C346 0.959 . S
H331 C346 0.959 . S
H332 C346 0.961 . S
H333 C347 0.960 . S
H334 C347 0.961 . S
H335 C347 0.959 . S
H336 C350 0.929 . S
H337 C351 0.931 . S
H338 C353 0.930 . S
C339 H327 0.930 . S
C339 C340 1.399 . S
C339 C344 1.399 . S
C340 C339 1.399 . S
C340 C341 1.376 . S
C341 H328 0.930 . S
C341 C340 1.376 . S
C341 C342 1.388 . S
C342 H329 0.930 . S
C342 C341 1.388 . S
C342 C343 1.390 . S
C343 C342 1.390 . S
C343 C344 1.394 . S
C343 C349 1.465 . S
C344 C339 1.399 . S
C344 C343 1.394 . S
C344 C345 1.516 . S
C345 C344 1.516 . S
C345 C346 1.502 . S
C345 C347 1.561 . S
C345 C348 1.526 . S
C346 H330 0.959 . S
C346 H331 0.959 . S
C346 H332 0.961 . S
C346 C345 1.502 . S
C347 H333 0.960 . S
C347 H334 0.961 . S
C347 H335 0.959 . S
C347 C345 1.561 . S
C348 C345 1.526 . S
C348 C349 1.396 . S
C348 C353 1.390 . S
C349 C343 1.465 . S
C349 C348 1.396 . S
C349 C350 1.399 . S
C350 H336 0.929 . S
C350 C349 1.399 . S
C350 C351 1.385 . S
C351 H337 0.931 . S
C351 C350 1.385 . S
C351 C352 1.389 . S
C352 C351 1.389 . S
C352 C353 1.387 . S
C353 H338 0.930 . S
C353 C348 1.390 . S
C353 C352 1.387 . S
H354 C366 0.930 . S
H355 C368 0.930 . S
H356 C369 0.930 . S
H357 C373 0.959 . S
H358 C373 0.959 . S
H359 C373 0.961 . S
H360 C374 0.960 . S
H361 C374 0.961 1_554 S
H362 C374 0.959 . S
H363 C377 0.929 . S
H364 C378 0.931 . S
H365 C380 0.930 . S
C366 H354 0.930 . S
C366 C367 1.399 . S
C366 C371 1.399 . S
C367 C366 1.399 . S
C367 C368 1.376 . S
C368 H355 0.930 . S
C368 C367 1.376 . S
C368 C369 1.388 . S
C369 H356 0.930 . S
C369 C368 1.388 . S
C369 C370 1.390 . S
C370 C369 1.390 . S
C370 C371 1.394 . S
C370 C376 1.465 . S
C371 C366 1.399 . S
C371 C370 1.394 . S
C371 C372 1.516 . S
C372 C371 1.516 . S
C372 C373 1.502 1_556 S
C372 C374 1.561 . S
C372 C375 1.526 . S
C373 H357 0.959 . S
C373 H358 0.959 . S
C373 H359 0.961 . S
C373 C372 1.502 1_554 S
C374 H360 0.960 . S
C374 H361 0.961 1_556 S
C374 H362 0.959 . S
C374 C372 1.561 . S
C375 C372 1.526 . S
C375 C376 1.396 . S
C375 C380 1.390 1_556 S
C376 C370 1.465 . S
C376 C375 1.396 . S
C376 C377 1.399 . S
C377 H363 0.929 . S
C377 C376 1.399 . S
C377 C378 1.385 . S
C378 H364 0.931 . S
C378 C377 1.385 . S
C378 C379 1.389 . S
C379 C378 1.389 . S
C379 C380 1.387 1_556 S
C380 H365 0.930 . S
C380 C375 1.390 1_554 S
C380 C379 1.387 1_554 S
H381 C393 0.930 . S
H382 C395 0.930 . S
H383 C396 0.930 . S
H384 C400 0.959 . S
H385 C400 0.959 . S
H386 C400 0.961 . S
H387 C401 0.960 . S
H388 C401 0.961 . S
H389 C401 0.959 . S
H390 C404 0.929 . S
H391 C405 0.931 . S
H392 C407 0.930 . S
C393 H381 0.930 . S
C393 C394 1.399 1_554 S
C393 C398 1.399 . S
C394 C393 1.399 1_556 S
C394 C395 1.376 . S
C395 H382 0.930 . S
C395 C394 1.376 . S
C395 C396 1.388 . S
C396 H383 0.930 . S
C396 C395 1.388 . S
C396 C397 1.390 1_556 S
C397 C396 1.390 1_554 S
C397 C398 1.394 . S
C397 C403 1.465 . S
C398 C393 1.399 . S
C398 C397 1.394 . S
C398 C399 1.516 . S
C399 C398 1.516 . S
C399 C400 1.502 . S
C399 C401 1.561 . S
C399 C402 1.526 . S
C400 H384 0.959 . S
C400 H385 0.959 . S
C400 H386 0.961 . S
C400 C399 1.502 . S
C401 H387 0.960 . S
C401 H388 0.961 . S
C401 H389 0.959 . S
C401 C399 1.561 . S
C402 C399 1.526 . S
C402 C403 1.396 . S
C402 C407 1.390 . S
C403 C397 1.465 . S
C403 C402 1.396 . S
C403 C404 1.399 . S
C404 H390 0.929 . S
C404 C403 1.399 . S
C404 C405 1.385 . S
C405 H391 0.931 . S
C405 C404 1.385 . S
C405 C406 1.389 . S
C406 C405 1.389 . S
C406 C407 1.387 . S
C407 H392 0.930 . S
C407 C402 1.390 . S
C407 C406 1.387 . S
C97 C9 1.284 . S
C109 C53 1.296 . S
C124 C67 1.297 . S
C136 C23 1.292 . S
C151 C37 1.270 . S
C163 C81 1.295 . S
C178 C51 1.254 . S
C190 C11 1.295 . S
C205 C25 1.297 . S
C217 C65 1.254 . S
C232 C79 1.302 . S
C244 C39 1.299 . S
C259 C0 1.238 . S
C271 C33 1.252 . S
C286 C14 1.241 . S
C298 C47 1.256 . S
C313 C61 1.270 . S
C325 C28 1.254 . S
C340 C75 1.253 . S
C352 C42 1.239 . S
C367 C56 1.260 . S
C379 C5 1.245 1_556 S
C394 C70 1.265 . S
C406 C19 1.249 . S
