# Generated by pormake.
# Topology bsn, (6)-cn, num edge types: 1
# Building blocks:
#     Node 0, Type 0, BuildingBlock: LEVNOQ01_clean_sbu_1, # of connection points: 6
#     Node 1, Type 0, BuildingBlock: LEVNOQ01_clean_sbu_1, # of connection points: 6
#     Node 2, Type 0, BuildingBlock: LEVNOQ01_clean_sbu_1, # of connection points: 6
#     Node 3, Type 0, BuildingBlock: LEVNOQ01_clean_sbu_1, # of connection points: 6
#     Edge 4, Type (0, 0), BuildingBlock: EZIPEK_clean_linker_0, # of connection points: 2
#     Edge 5, Type (0, 0), BuildingBlock: EZIPEK_clean_linker_0, # of connection points: 2
#     Edge 6, Type (0, 0), BuildingBlock: EZIPEK_clean_linker_0, # of connection points: 2
#     Edge 7, Type (0, 0), BuildingBlock: EZIPEK_clean_linker_0, # of connection points: 2
#     Edge 8, Type (0, 0), BuildingBlock: EZIPEK_clean_linker_0, # of connection points: 2
#     Edge 9, Type (0, 0), BuildingBlock: EZIPEK_clean_linker_0, # of connection points: 2
#     Edge 10, Type (0, 0), BuildingBlock: EZIPEK_clean_linker_0, # of connection points: 2
#     Edge 11, Type (0, 0), BuildingBlock: EZIPEK_clean_linker_0, # of connection points: 2
#     Edge 12, Type (0, 0), BuildingBlock: EZIPEK_clean_linker_0, # of connection points: 2
#     Edge 13, Type (0, 0), BuildingBlock: EZIPEK_clean_linker_0, # of connection points: 2
#     Edge 14, Type (0, 0), BuildingBlock: EZIPEK_clean_linker_0, # of connection points: 2
#     Edge 15, Type (0, 0), BuildingBlock: EZIPEK_clean_linker_0, # of connection points: 2
# Relax obj value: 0.179
# Max RMSD: 0.191
# Mean RMSD: 0.191
data_MOF--net-bsn--node1-LEVNOQ01_clean_sbu_1--edge1-EZIPEK_clean_linker_0
_symmetry_space_group_name_H-M    P1
_symmetry_Int_Tables_number       1
_symmetry_cell_setting            triclinic
loop_
_symmetry_equiv_pos_as_xyz
'x, y, z'
_cell_length_a     23.511931
_cell_length_b     22.268677
_cell_length_c     11.583041
_cell_angle_alpha  90.810728
_cell_angle_beta   99.338589
_cell_angle_gamma 90.119144
loop_
_atom_site_label
_atom_site_type_symbol
_atom_site_fract_x
_atom_site_fract_y
_atom_site_fract_z
_atom_type_partial_charge
O0 O 0.95259 0.21289 0.51826 0.0
Mg1 Mg 0.94726 0.18696 0.33553 0.0
O2 O 0.04179 0.23863 0.5132 0.0
Mg3 Mg 0.01511 0.24893 0.32032 0.0
O4 O 0.01483 0.14028 0.2941 0.0
O5 O 0.93228 0.09802 0.32504 0.0
O6 O 0.99079 0.25855 0.12564 0.0
O7 O 0.10806 0.2176 0.29099 0.0
Mg8 Mg 0.08729 0.32433 0.29533 0.0
O9 O 0.01595 0.35487 0.35787 0.0
O10 O 0.07289 0.30378 0.11231 0.0
O11 O 0.16058 0.28463 0.39508 0.0
O12 O 0.08931 0.41347 0.32963 0.0
C13 C 0.87775 0.27069 0.26564 0.0
C14 C 0.0016 0.22977 0.57121 0.0
C15 C 0.984 0.09255 0.30317 0.0
C16 C 0.02689 0.27768 0.06444 0.0
C17 C 0.15772 0.23572 0.33825 0.0
C18 C 0.03945 0.40781 0.36121 0.0
O19 O 0.88283 0.2235 0.20738 0.0
O20 O 0.92105 0.2872 0.33944 0.0
O21 O 0.06975 0.75352 0.45426 0.0
Mg22 Mg 0.03268 0.74036 0.61046 0.0
O23 O 0.98203 0.77852 0.42232 0.0
Mg24 Mg 0.01285 0.77196 0.63003 0.0
O25 O 0.03898 0.65764 0.63664 0.0
O26 O 0.96452 0.67621 0.51523 0.0
O27 O 0.03657 0.77446 0.8313 0.0
O28 O 0.9183 0.74674 0.6565 0.0
Mg29 Mg 0.95544 0.88814 0.76574 0.0
O30 O 0.99044 0.86902 0.62393 0.0
O31 O 0.02077 0.86458 0.90439 0.0
O32 O 0.88536 0.82638 0.74649 0.0
O33 O 0.96244 0.96097 0.65221 0.0
C34 C 0.14199 0.77654 0.68999 0.0
C35 C 0.02806 0.77023 0.38273 0.0
C36 C -0.00186 0.63637 0.5638 0.0
C37 C 0.04171 0.812 0.91631 0.0
C38 C 0.87941 0.77321 0.70421 0.0
C39 C 0.98511 0.92327 0.58805 0.0
O40 O 0.11786 0.73123 0.72444 0.0
O41 O 0.10896 0.81161 0.62668 0.0
O42 O 0.451 0.67629 0.00071 0.0
Mg43 Mg 0.45222 0.66751 0.81682 0.0
O44 O 0.53358 0.72595 0.02647 0.0
Mg45 Mg 0.51811 0.73597 0.83163 0.0
O46 O 0.5282 0.62754 0.80927 0.0
O47 O 0.4435 0.57948 0.77305 0.0
O48 O 0.49784 0.73482 0.63356 0.0
O49 O 0.6169 0.73051 0.81148 0.0
Mg50 Mg 0.5616 0.85355 0.72755 0.0
O51 O 0.51366 0.83948 0.8561 0.0
O52 O 0.52485 0.81881 0.55863 0.0
O53 O 0.64574 0.82403 0.78782 0.0
O54 O 0.53403 0.931 0.79933 0.0
C55 C 0.38232 0.75748 0.7635 0.0
C56 C 0.49239 0.70161 0.06831 0.0
C57 C 0.49899 0.57765 0.79029 0.0
C58 C 0.50319 0.76646 0.54613 0.0
C59 C 0.65645 0.76843 0.79835 0.0
C60 C 0.51123 0.89744 0.86961 0.0
O61 O 0.38935 0.71461 0.69516 0.0
O62 O 0.42189 0.76543 0.85 0.0
O63 O 0.57316 0.19574 0.94286 0.0
Mg64 Mg 0.57196 0.17088 0.11961 0.0
O65 O 0.4884 0.24012 0.92886 0.0
Mg66 Mg 0.50114 0.2461 0.12724 0.0
O67 O 0.49464 0.1373 0.13822 0.0
O68 O 0.57286 0.08098 0.12828 0.0
O69 O 0.52129 0.24987 0.32708 0.0
O70 O 0.40358 0.23281 0.13894 0.0
Mg71 Mg 0.45466 0.36595 0.2462 0.0
O72 O 0.49337 0.34734 0.10566 0.0
O73 O 0.51146 0.34092 0.39832 0.0
O74 O 0.37651 0.31596 0.22522 0.0
O75 O 0.47014 0.44033 0.14726 0.0
C76 C 0.64178 0.25463 0.20376 0.0
C77 C 0.53053 0.22124 0.88207 0.0
C78 C 0.51857 0.0848 0.13275 0.0
C79 C 0.52865 0.28709 0.41246 0.0
C80 C 0.36612 0.26323 0.18345 0.0
C81 C 0.49249 0.40371 0.08027 0.0
O82 O 0.63511 0.20606 0.25438 0.0
O83 O 0.59966 0.27399 0.131 0.0
C84 C 0.02559 0.51717 0.34476 0.0
C85 C 0.01056 0.46368 0.39631 0.0
C86 C 0.9722 0.52549 0.54477 0.0
C87 C 0.00148 0.57599 0.50891 0.0
N88 N 0.06761 0.61433 0.38802 0.0
N89 N 0.9581 0.41724 0.53541 0.0
C90 C 0.03084 0.57054 0.41173 0.0
C91 C 0.97976 0.46768 0.49291 0.0
N92 N 0.03565 0.51668 0.23191 0.0
N93 N 0.93739 0.533 0.62749 0.0
H94 H 0.95627 0.37589 0.49244 0.0
H95 H 0.94212 0.4161 0.61405 0.0
H96 H 0.93275 0.57442 0.66819 0.0
H97 H 0.91055 0.49959 0.65069 0.0
H98 H 0.04304 0.5558 0.18802 0.0
H99 H 0.02949 0.47807 0.17899 0.0
H100 H 0.09247 0.61041 0.32148 0.0
H101 H 0.07976 0.64963 0.44601 0.0
C102 C 0.72211 0.76416 0.64852 0.0
C103 C 0.71117 0.74827 0.76207 0.0
C104 C 0.81299 0.72305 0.82013 0.0
C105 C 0.82383 0.74368 0.71043 0.0
N106 N 0.78874 0.76244 0.50871 0.0
N107 N 0.74213 0.69794 0.94389 0.0
C108 C 0.778 0.75613 0.62032 0.0
C109 C 0.75522 0.72187 0.84347 0.0
N110 N 0.68026 0.79084 0.57026 0.0
N111 N 0.85857 0.70825 0.9036 0.0
H112 H 0.70039 0.69803 0.96357 0.0
H113 H 0.77143 0.67427 0.00324 0.0
H114 H 0.90067 0.70666 0.88561 0.0
H115 H 0.85515 0.6992 -0.00989 0.0
H116 H 0.68805 0.81069 0.49345 0.0
H117 H 0.63791 0.79602 0.58413 0.0
H118 H 0.75649 0.76662 0.4362 0.0
H119 H 0.83003 0.75722 0.48783 0.0
C120 C 0.56298 0.46942 0.00266 0.0
C121 C 0.51619 0.42823 -0.0206 0.0
C122 C 0.49244 0.46687 0.78105 0.0
C123 C 0.5263 0.51807 0.81838 0.0
N124 N 0.61512 0.55241 0.93132 0.0
N125 N 0.44294 0.37934 0.83971 0.0
C126 C 0.56934 0.51381 0.91819 0.0
C127 C 0.4841 0.42296 0.86483 0.0
N128 N 0.59883 0.46757 0.10783 0.0
N129 N 0.46621 0.46312 0.66723 0.0
H130 H 0.43652 0.34668 0.89992 0.0
H131 H 0.4145 0.37627 0.76101 0.0
H132 H 0.47243 0.49655 0.60797 0.0
H133 H 0.44306 0.42576 0.63035 0.0
H134 H 0.63065 0.49938 0.13631 0.0
H135 H 0.59601 0.43337 0.16748 0.0
H136 H 0.64917 0.5516 0.0009 0.0
H137 H 0.6213 0.58182 0.86502 0.0
C138 C 0.7904 0.29659 0.35561 0.0
C139 C 0.81992 0.29792 0.25814 0.0
C140 C 0.72924 0.29106 0.12281 0.0
C141 C 0.69974 0.28301 0.21961 0.0
N142 N 0.69826 0.29923 0.42491 0.0
N143 N 0.81733 0.32324 0.05734 0.0
C144 C 0.72916 0.29321 0.33523 0.0
C145 C 0.78878 0.30534 0.14467 0.0
N146 N 0.82062 0.2946 0.46658 0.0
N147 N 0.70259 0.27924 0.01103 0.0
H148 H 0.86142 0.33303 0.07341 0.0
H149 H 0.79656 0.33426 -0.02606 0.0
H150 H 0.65987 0.26595 -0.01014 0.0
H151 H 0.72426 0.27785 0.93943 0.0
H152 H 0.80202 0.2845 0.53967 0.0
H153 H 0.8648 0.30246 0.48581 0.0
H154 H 0.71638 0.31159 0.50999 0.0
H155 H 0.65334 0.29735 0.41108 0.0
C156 C 0.26462 0.22285 0.13578 0.0
C157 C 0.31553 0.23251 0.21716 0.0
C158 C 0.26329 0.21463 0.38025 0.0
C159 C 0.21121 0.21249 0.29956 0.0
N160 N 0.16698 0.18371 0.10331 0.0
N161 N 0.36805 0.21692 0.41092 0.0
C162 C 0.21326 0.20626 0.17782 0.0
C163 C 0.31639 0.22096 0.33777 0.0
N164 N 0.26479 0.23205 0.01958 0.0
N165 N 0.26123 0.21298 0.49733 0.0
H166 H 0.40743 0.22071 0.38097 0.0
H167 H 0.37226 0.20482 0.49833 0.0
H168 H 0.22293 0.20408 0.52885 0.0
H169 H 0.29648 0.22141 0.56241 0.0
H170 H 0.22744 0.23275 0.9574 0.0
H171 H 0.30243 0.24209 -0.01334 0.0
H172 H 0.16713 0.17577 0.01455 0.0
H173 H 0.13171 0.16464 0.1331 0.0
C174 C 0.29606 0.79741 0.63776 0.0
C175 C 0.32621 0.78965 0.75075 0.0
C176 C 0.23568 0.79344 0.82829 0.0
C177 C 0.20545 0.78515 0.71214 0.0
N178 N 0.21019 0.77318 0.50512 0.0
N179 N 0.32678 0.82049 0.94963 0.0
C180 C 0.23626 0.78704 0.61604 0.0
C181 C 0.29691 0.79939 0.84637 0.0
N182 N 0.32459 0.81825 0.55319 0.0
N183 N 0.20633 0.79392 0.92078 0.0
H184 H 0.37033 0.83197 0.95846 0.0
H185 H 0.30734 0.834 0.02024 0.0
H186 H 0.16154 0.79183 0.91014 0.0
H187 H 0.22647 0.79329 0.00774 0.0
H188 H 0.30379 0.82988 0.47007 0.0
H189 H 0.36801 0.83067 0.57309 0.0
H190 H 0.23272 0.7689 0.43497 0.0
H191 H 0.16807 0.75832 0.48623 0.0
C192 C 0.4453 0.97605 0.92523 0.0
C193 C 0.48307 0.92782 0.96098 0.0
C194 C 0.50923 0.97507 0.1542 0.0
C195 C 0.48395 0.02879 0.10714 0.0
N196 N 0.40535 0.07185 -0.02327 0.0
N197 N 0.53073 0.87001 0.12153 0.0
C198 C 0.4435 0.02605 0.00258 0.0
C199 C 0.50749 0.92304 0.08068 0.0
N200 N 0.41427 0.97495 0.81485 0.0
N201 N 0.5388 0.97637 0.26579 0.0
H202 H 0.52909 0.8323 0.06752 0.0
H203 H 0.54711 0.86203 0.20886 0.0
H204 H 0.53869 0.01464 0.31908 0.0
H205 H 0.563 0.94089 0.30489 0.0
H206 H 0.39039 0.01097 0.77705 0.0
H207 H 0.41345 0.93699 0.76049 0.0
H208 H 0.37347 0.07235 0.90309 0.0
H209 H 0.40213 0.10673 0.03632 0.0
C210 C 0.96521 0.9408 0.3727 0.0
C211 C 0.00416 0.94392 0.47982 0.0
C212 C 0.0578 0.0241 0.4025 0.0
C213 C 0.00974 0.03175 0.31405 0.0
N214 N 0.93667 0.98292 0.17849 0.0
N215 N 0.09523 0.97671 0.58748 0.0
C216 C 0.97092 0.98355 0.28535 0.0
C217 C 0.05399 0.98092 0.49039 0.0
N218 N 0.92003 0.90137 0.35997 0.0
N219 N 0.1052 0.05955 0.40336 0.0
H220 H 0.09347 0.94362 0.64984 0.0
H221 H 0.13053 0.00545 0.60654 0.0
H222 H 0.10803 0.08909 0.3353 0.0
H223 H 0.14282 0.05619 0.46406 0.0
H224 H 0.88726 0.90016 0.28786 0.0
H225 H 0.9147 0.87061 0.42452 0.0
H226 H 0.90839 0.94811 0.14773 0.0
H227 H 0.94064 0.01634 0.11774 0.0
C228 C 0.01126 0.20465 0.89653 0.0
C229 C 0.01817 0.26494 0.93842 0.0
C230 C 0.02656 0.29917 0.74348 0.0
C231 C 0.01125 0.24064 0.69826 0.0
N232 N 0.98679 0.13733 0.7299 0.0
N233 N 0.02006 0.3709 0.89887 0.0
C234 C 0.00234 0.19334 0.77419 0.0
C235 C 0.02242 0.3126 0.86116 0.0
N236 N 0.01687 0.15802 0.97322 0.0
N237 N 0.04619 0.34189 0.67594 0.0
H238 H 0.0152 0.38264 -0.01574 0.0
H239 H 0.01666 0.40723 0.84244 0.0
H240 H 0.04931 0.33564 0.5882 0.0
H241 H 0.06407 0.38252 0.71014 0.0
H242 H 0.01861 0.11317 0.94748 0.0
H243 H 0.02535 0.16384 0.06374 0.0
H244 H 0.9724 0.10343 0.77925 0.0
H245 H 0.98578 0.1253 0.64224 0.0
C246 C 0.08315 0.83478 0.12283 0.0
C247 C 0.061 0.79147 0.03672 0.0
C248 C 0.01785 0.73475 0.17755 0.0
C249 C 0.03555 0.78028 0.26218 0.0
N250 N 0.09721 0.86551 0.32702 0.0
N251 N 0.03856 0.68652 0.00113 0.0
C252 C 0.07251 0.82771 0.23876 0.0
C253 C 0.03827 0.73679 0.06979 0.0
N254 N 0.11282 0.88311 0.09149 0.0
N255 N 0.98161 0.68982 0.1996 0.0
H256 H 0.06001 0.68515 0.92912 0.0
H257 H 0.02551 0.64445 0.02548 0.0
H258 H 0.96586 0.68669 0.27841 0.0
H259 H 0.96352 0.65873 0.13594 0.0
H260 H 0.12472 0.92035 0.1453 0.0
H261 H 0.12466 0.8858 0.00859 0.0
H262 H 0.12864 0.89729 0.31817 0.0
H263 H 0.08821 0.86339 0.412 0.0
C264 C 0.44139 0.72957 0.23512 0.0
C265 C 0.49093 0.70611 0.19446 0.0
C266 C 0.54407 0.70732 0.39412 0.0
C267 C 0.49636 0.73648 0.43067 0.0
N268 N 0.39372 0.74423 0.40229 0.0
N269 N 0.58219 0.65528 0.23727 0.0
C270 C 0.44305 0.73816 0.35616 0.0
C271 C 0.54034 0.68955 0.27485 0.0
N272 N 0.39374 0.74672 0.1593 0.0
N273 N 0.59197 0.69567 0.4742 0.0
H274 H 0.57875 0.63917 0.15135 0.0
H275 H 0.61803 0.63865 0.29175 0.0
H276 H 0.59283 0.70186 0.56388 0.0
H277 H 0.63076 0.68029 0.45299 0.0
H278 H 0.36001 0.77071 0.18589 0.0
H279 H 0.38907 0.7412 0.06927 0.0
H280 H 0.35255 0.74028 0.35336 0.0
H281 H 0.39491 0.74375 0.49219 0.0
C282 C 0.56634 0.30805 0.62482 0.0
C283 C 0.54893 0.2656 0.53334 0.0
C284 C 0.52386 0.19294 0.67235 0.0
C285 C 0.53535 0.23711 0.76188 0.0
N286 N 0.58118 0.33057 0.83312 0.0
N287 N 0.54588 0.1594 0.48576 0.0
C288 C 0.56098 0.29294 0.74121 0.0
C289 C 0.53828 0.20522 0.56126 0.0
N290 N 0.58826 0.36231 0.59961 0.0
N291 N 0.49861 0.13964 0.6928 0.0
H292 H 0.56545 0.16584 0.41235 0.0
H293 H 0.5418 0.11427 0.50566 0.0
H294 H 0.48792 0.12889 0.77408 0.0
H295 H 0.484 0.10849 0.62654 0.0
H296 H 0.59478 0.39865 0.65772 0.0
H297 H 0.60048 0.37064 0.51862 0.0
H298 H 0.60572 0.36889 0.82663 0.0
H299 H 0.57522 0.32228 0.91865 0.0
loop_
_geom_bond_atom_site_label_1
_geom_bond_atom_site_label_2
_geom_bond_distance
_geom_bond_site_symmetry_2
_ccdc_geom_bond_type
O0 Mg1 1.990 . S
O0 C14 1.253 1_655 S
Mg1 O0 1.990 . S
Mg1 O4 2.180 . S
Mg1 O5 2.117 1_655 S
Mg1 O19 2.030 . S
O2 Mg3 2.072 . S
O2 C14 1.260 . S
Mg3 O2 2.072 . S
Mg3 O4 2.099 1_455 S
Mg3 O6 2.079 . S
Mg3 O7 2.072 . S
Mg3 O9 2.099 . S
Mg3 O20 2.079 1_455 S
O4 Mg1 2.180 . S
O4 Mg3 2.099 1_655 S
O4 C15 1.279 1_655 S
O5 Mg1 2.117 1_455 S
O5 C15 1.250 . S
O6 Mg3 2.079 . S
O6 C16 1.264 . S
O7 Mg3 2.072 . S
O7 C17 1.260 . S
Mg8 O9 2.180 . S
Mg8 O10 2.030 . S
Mg8 O11 1.990 . S
Mg8 O12 2.117 . S
O9 Mg3 2.099 . S
O9 Mg8 2.180 . S
O9 C18 1.279 . S
O10 Mg8 2.030 . S
O10 C16 1.248 . S
O11 Mg8 1.990 . S
O11 C17 1.253 . S
O12 Mg8 2.117 . S
O12 C18 1.250 . S
C13 O19 1.248 . S
C13 O20 1.264 . S
C14 O0 1.253 1_455 S
C14 O2 1.260 . S
C15 O4 1.279 1_455 S
C15 O5 1.250 . S
C16 O6 1.264 . S
C16 O10 1.248 . S
C17 O7 1.260 . S
C17 O11 1.253 . S
C18 O9 1.279 . S
C18 O12 1.250 . S
O19 Mg1 2.030 . S
O19 C13 1.248 . S
O20 Mg3 2.079 1_655 S
O20 C13 1.264 . S
O21 Mg22 1.990 . S
O21 C35 1.253 . S
Mg22 O21 1.990 . S
Mg22 O25 2.180 . S
Mg22 O26 2.117 . S
Mg22 O40 2.030 . S
O23 Mg24 2.072 . S
O23 C35 1.260 . S
Mg24 O23 2.072 . S
Mg24 O25 2.099 . S
Mg24 O27 2.079 . S
Mg24 O28 2.072 1_455 S
Mg24 O30 2.099 . S
Mg24 O41 2.079 . S
O25 Mg22 2.180 . S
O25 Mg24 2.099 . S
O25 C36 1.279 . S
O26 Mg22 2.117 . S
O26 C36 1.250 . S
O27 Mg24 2.079 . S
O27 C37 1.264 . S
O28 Mg24 2.072 1_655 S
O28 C38 1.260 . S
Mg29 O30 2.180 1_655 S
Mg29 O31 2.030 . S
Mg29 O32 1.990 . S
Mg29 O33 2.117 . S
O30 Mg24 2.099 . S
O30 Mg29 2.180 1_455 S
O30 C39 1.279 1_455 S
O31 Mg29 2.030 . S
O31 C37 1.248 1_655 S
O32 Mg29 1.990 . S
O32 C38 1.253 . S
O33 Mg29 2.117 . S
O33 C39 1.250 . S
C34 O40 1.248 . S
C34 O41 1.264 . S
C35 O21 1.253 . S
C35 O23 1.260 . S
C36 O25 1.279 . S
C36 O26 1.250 . S
C37 O27 1.264 . S
C37 O31 1.248 1_455 S
C38 O28 1.260 . S
C38 O32 1.253 . S
C39 O30 1.279 1_655 S
C39 O33 1.250 . S
O40 Mg22 2.030 . S
O40 C34 1.248 . S
O41 Mg24 2.079 . S
O41 C34 1.264 . S
O42 Mg43 1.990 . S
O42 C56 1.253 . S
Mg43 O42 1.990 . S
Mg43 O46 2.180 1_554 S
Mg43 O47 2.117 1_554 S
Mg43 O61 2.030 1_554 S
O44 Mg45 2.072 1_554 S
O44 C56 1.260 . S
Mg45 O44 2.072 1_556 S
Mg45 O46 2.099 . S
Mg45 O48 2.079 . S
Mg45 O49 2.072 . S
Mg45 O51 2.099 . S
Mg45 O62 2.079 . S
O46 Mg43 2.180 1_556 S
O46 Mg45 2.099 . S
O46 C57 1.279 . S
O47 Mg43 2.117 1_556 S
O47 C57 1.250 . S
O48 Mg45 2.079 . S
O48 C58 1.264 . S
O49 Mg45 2.072 . S
O49 C59 1.260 . S
Mg50 O51 2.180 . S
Mg50 O52 2.030 . S
Mg50 O53 1.990 . S
Mg50 O54 2.117 . S
O51 Mg45 2.099 . S
O51 Mg50 2.180 . S
O51 C60 1.279 . S
O52 Mg50 2.030 . S
O52 C58 1.248 . S
O53 Mg50 1.990 . S
O53 C59 1.253 . S
O54 Mg50 2.117 . S
O54 C60 1.250 . S
C55 O61 1.248 . S
C55 O62 1.264 . S
C56 O42 1.253 . S
C56 O44 1.260 . S
C57 O46 1.279 . S
C57 O47 1.250 . S
C58 O48 1.264 . S
C58 O52 1.248 . S
C59 O49 1.260 . S
C59 O53 1.253 . S
C60 O51 1.279 . S
C60 O54 1.250 . S
O61 Mg43 2.030 1_556 S
O61 C55 1.248 . S
O62 Mg45 2.079 . S
O62 C55 1.264 . S
O63 Mg64 1.990 . S
O63 C77 1.253 . S
Mg64 O63 1.990 . S
Mg64 O67 2.180 1_556 S
Mg64 O68 2.117 1_556 S
Mg64 O82 2.030 1_556 S
O65 Mg66 2.072 1_556 S
O65 C77 1.260 . S
Mg66 O65 2.072 1_554 S
Mg66 O67 2.099 . S
Mg66 O69 2.079 . S
Mg66 O70 2.072 . S
Mg66 O72 2.099 . S
Mg66 O83 2.079 . S
O67 Mg64 2.180 1_554 S
O67 Mg66 2.099 . S
O67 C78 1.279 . S
O68 Mg64 2.117 1_554 S
O68 C78 1.250 . S
O69 Mg66 2.079 . S
O69 C79 1.264 . S
O70 Mg66 2.072 . S
O70 C80 1.260 . S
Mg71 O72 2.180 . S
Mg71 O73 2.030 . S
Mg71 O74 1.990 . S
Mg71 O75 2.117 . S
O72 Mg66 2.099 . S
O72 Mg71 2.180 . S
O72 C81 1.279 . S
O73 Mg71 2.030 . S
O73 C79 1.248 . S
O74 Mg71 1.990 . S
O74 C80 1.253 . S
O75 Mg71 2.117 . S
O75 C81 1.250 . S
C76 O82 1.248 . S
C76 O83 1.264 . S
C77 O63 1.253 . S
C77 O65 1.260 . S
C78 O67 1.279 . S
C78 O68 1.250 . S
C79 O69 1.264 . S
C79 O73 1.248 . S
C80 O70 1.260 . S
C80 O74 1.253 . S
C81 O72 1.279 . S
C81 O75 1.250 . S
O82 Mg64 2.030 1_554 S
O82 C76 1.248 . S
O83 Mg66 2.079 . S
O83 C76 1.264 . S
C84 C85 1.363 . S
C84 C90 1.379 . S
C84 N92 1.356 . S
C85 C84 1.363 . S
C85 C91 1.363 1_455 S
C86 C87 1.357 1_655 S
C86 C91 1.379 . S
C86 N93 1.356 . S
C87 C86 1.357 1_455 S
C87 C90 1.371 . S
N88 C90 1.356 . S
N88 H100 0.984 . S
N88 H101 0.985 . S
N89 C91 1.356 . S
N89 H94 0.984 . S
N89 H95 0.985 . S
C90 C84 1.379 . S
C90 C87 1.371 . S
C90 N88 1.356 . S
C91 C85 1.363 1_655 S
C91 C86 1.379 . S
C91 N89 1.356 . S
N92 C84 1.356 . S
N92 H98 0.984 . S
N92 H99 0.984 . S
N93 C86 1.356 . S
N93 H96 0.984 . S
N93 H97 0.985 . S
H94 N89 0.984 . S
H95 N89 0.985 . S
H96 N93 0.984 . S
H97 N93 0.985 . S
H98 N92 0.984 . S
H99 N92 0.984 . S
H100 N88 0.984 . S
H101 N88 0.985 . S
C102 C103 1.363 . S
C102 C108 1.379 . S
C102 N110 1.356 . S
C103 C102 1.363 . S
C103 C109 1.363 . S
C104 C105 1.363 . S
C104 C109 1.379 . S
C104 N111 1.356 . S
C105 C104 1.363 . S
C105 C108 1.363 . S
N106 C108 1.356 . S
N106 H118 0.984 . S
N106 H119 0.985 . S
N107 C109 1.356 . S
N107 H112 0.984 . S
N107 H113 0.985 . S
C108 C102 1.379 . S
C108 C105 1.363 . S
C108 N106 1.356 . S
C109 C103 1.363 . S
C109 C104 1.379 . S
C109 N107 1.356 . S
N110 C102 1.356 . S
N110 H116 0.984 . S
N110 H117 0.984 . S
N111 C104 1.356 . S
N111 H114 0.984 . S
N111 H115 0.985 . S
H112 N107 0.984 . S
H113 N107 0.985 . S
H114 N111 0.984 . S
H115 N111 0.985 . S
H116 N110 0.984 . S
H117 N110 0.984 . S
H118 N106 0.984 . S
H119 N106 0.985 . S
C120 C121 1.363 . S
C120 C126 1.379 1_554 S
C120 N128 1.356 . S
C121 C120 1.363 . S
C121 C127 1.363 1_554 S
C122 C123 1.363 . S
C122 C127 1.379 . S
C122 N129 1.356 . S
C123 C122 1.363 . S
C123 C126 1.363 . S
N124 C126 1.356 . S
N124 H136 0.984 1_556 S
N124 H137 0.985 . S
N125 C127 1.356 . S
N125 H130 0.984 1_556 S
N125 H131 0.985 . S
C126 C120 1.379 1_556 S
C126 C123 1.363 . S
C126 N124 1.356 . S
C127 C121 1.363 1_556 S
C127 C122 1.379 . S
C127 N125 1.356 . S
N128 C120 1.356 . S
N128 H134 0.984 . S
N128 H135 0.984 . S
N129 C122 1.356 . S
N129 H132 0.984 . S
N129 H133 0.985 . S
H130 N125 0.984 1_554 S
H131 N125 0.985 . S
H132 N129 0.984 . S
H133 N129 0.985 . S
H134 N128 0.984 . S
H135 N128 0.984 . S
H136 N124 0.984 1_554 S
H137 N124 0.985 . S
C138 C139 1.363 . S
C138 C144 1.379 . S
C138 N146 1.356 . S
C139 C138 1.363 . S
C139 C145 1.363 . S
C140 C141 1.363 . S
C140 C145 1.379 . S
C140 N147 1.356 . S
C141 C140 1.363 . S
C141 C144 1.363 . S
N142 C144 1.356 . S
N142 H154 0.984 . S
N142 H155 0.985 . S
N143 C145 1.356 . S
N143 H148 0.984 . S
N143 H149 0.985 . S
C144 C138 1.379 . S
C144 C141 1.363 . S
C144 N142 1.356 . S
C145 C139 1.363 . S
C145 C140 1.379 . S
C145 N143 1.356 . S
N146 C138 1.356 . S
N146 H152 0.984 . S
N146 H153 0.984 . S
N147 C140 1.356 . S
N147 H150 0.984 . S
N147 H151 0.985 . S
H148 N143 0.984 . S
H149 N143 0.985 . S
H150 N147 0.984 . S
H151 N147 0.985 . S
H152 N146 0.984 . S
H153 N146 0.984 . S
H154 N142 0.984 . S
H155 N142 0.985 . S
C156 C157 1.363 . S
C156 C162 1.379 . S
C156 N164 1.356 . S
C157 C156 1.363 . S
C157 C163 1.363 . S
C158 C159 1.363 . S
C158 C163 1.379 . S
C158 N165 1.356 . S
C159 C158 1.363 . S
C159 C162 1.363 . S
N160 C162 1.356 . S
N160 H172 0.984 . S
N160 H173 0.985 . S
N161 C163 1.356 . S
N161 H166 0.984 . S
N161 H167 0.985 . S
C162 C156 1.379 . S
C162 C159 1.363 . S
C162 N160 1.356 . S
C163 C157 1.363 . S
C163 C158 1.379 . S
C163 N161 1.356 . S
N164 C156 1.356 . S
N164 H170 0.984 . S
N164 H171 0.984 . S
N165 C158 1.356 . S
N165 H168 0.984 . S
N165 H169 0.985 . S
H166 N161 0.984 . S
H167 N161 0.985 . S
H168 N165 0.984 . S
H169 N165 0.985 . S
H170 N164 0.984 . S
H171 N164 0.984 . S
H172 N160 0.984 . S
H173 N160 0.985 . S
C174 C175 1.363 . S
C174 C180 1.379 . S
C174 N182 1.356 . S
C175 C174 1.363 . S
C175 C181 1.363 . S
C176 C177 1.363 . S
C176 C181 1.379 . S
C176 N183 1.356 . S
C177 C176 1.363 . S
C177 C180 1.363 . S
N178 C180 1.356 . S
N178 H190 0.984 . S
N178 H191 0.985 . S
N179 C181 1.356 . S
N179 H184 0.984 . S
N179 H185 0.985 . S
C180 C174 1.379 . S
C180 C177 1.363 . S
C180 N178 1.356 . S
C181 C175 1.363 . S
C181 C176 1.379 . S
C181 N179 1.356 . S
N182 C174 1.356 . S
N182 H188 0.984 . S
N182 H189 0.984 . S
N183 C176 1.356 . S
N183 H186 0.984 . S
N183 H187 0.985 . S
H184 N179 0.984 . S
H185 N179 0.985 . S
H186 N183 0.984 . S
H187 N183 0.985 . S
H188 N182 0.984 . S
H189 N182 0.984 . S
H190 N178 0.984 . S
H191 N178 0.985 . S
C192 C193 1.362 1_545 S
C192 C198 1.380 . S
C192 N200 1.356 1_545 S
C193 C192 1.362 1_565 S
C193 C199 1.363 1_556 S
C194 C195 1.361 1_565 S
C194 C199 1.381 . S
C194 N201 1.355 1_565 S
C195 C194 1.361 1_545 S
C195 C198 1.363 1_554 S
N196 C198 1.356 . S
N196 H208 0.984 . S
N196 H209 0.985 1_556 S
N197 C199 1.356 . S
N197 H202 0.984 . S
N197 H203 0.985 . S
C198 C192 1.380 . S
C198 C195 1.363 1_556 S
C198 N196 1.356 . S
C199 C193 1.363 1_554 S
C199 C194 1.381 . S
C199 N197 1.356 . S
N200 C192 1.356 1_565 S
N200 H206 0.984 1_565 S
N200 H207 0.984 . S
N201 C194 1.355 1_545 S
N201 H204 0.984 . S
N201 H205 0.985 1_545 S
H202 N197 0.984 . S
H203 N197 0.985 . S
H204 N201 0.984 . S
H205 N201 0.985 1_565 S
H206 N200 0.984 1_545 S
H207 N200 0.984 . S
H208 N196 0.984 . S
H209 N196 0.985 1_554 S
C210 C211 1.363 1_655 S
C210 C216 1.379 1_565 S
C210 N218 1.356 . S
C211 C210 1.363 1_455 S
C211 C217 1.363 . S
C212 C213 1.363 . S
C212 C217 1.379 1_545 S
C212 N219 1.356 . S
C213 C212 1.363 . S
C213 C216 1.363 1_455 S
N214 C216 1.356 . S
N214 H226 0.984 . S
N214 H227 0.985 . S
N215 C217 1.356 . S
N215 H220 0.984 . S
N215 H221 0.985 . S
C216 C210 1.379 1_545 S
C216 C213 1.363 1_655 S
C216 N214 1.356 . S
C217 C211 1.363 . S
C217 C212 1.379 1_565 S
C217 N215 1.356 . S
N218 C210 1.356 . S
N218 H224 0.984 . S
N218 H225 0.984 . S
N219 C212 1.356 . S
N219 H222 0.984 . S
N219 H223 0.985 . S
H220 N215 0.984 . S
H221 N215 0.985 . S
H222 N219 0.984 . S
H223 N219 0.985 . S
H224 N218 0.984 . S
H225 N218 0.984 . S
H226 N214 0.984 . S
H227 N214 0.985 . S
C228 C229 1.363 . S
C228 C234 1.379 . S
C228 N236 1.356 . S
C229 C228 1.363 . S
C229 C235 1.363 1_455 S
C230 C231 1.363 1_655 S
C230 C235 1.379 . S
C230 N237 1.356 . S
C231 C230 1.363 1_455 S
C231 C234 1.363 . S
N232 C234 1.356 . S
N232 H244 0.984 . S
N232 H245 0.985 . S
N233 C235 1.356 1_554 S
N233 H238 0.984 . S
N233 H239 0.985 . S
C234 C228 1.379 . S
C234 C231 1.363 . S
C234 N232 1.356 . S
C235 C229 1.363 1_655 S
C235 C230 1.379 . S
C235 N233 1.356 1_556 S
N236 C228 1.356 . S
N236 H242 0.984 . S
N236 H243 0.984 1_556 S
N237 C230 1.356 . S
N237 H240 0.984 . S
N237 H241 0.985 . S
H238 N233 0.984 . S
H239 N233 0.985 . S
H240 N237 0.984 . S
H241 N237 0.985 . S
H242 N236 0.984 . S
H243 N236 0.984 1_554 S
H244 N232 0.984 . S
H245 N232 0.985 . S
C246 C247 1.363 . S
C246 C252 1.379 . S
C246 N254 1.356 1_554 S
C247 C246 1.363 . S
C247 C253 1.363 1_455 S
C248 C249 1.363 1_655 S
C248 C253 1.379 . S
C248 N255 1.356 . S
C249 C248 1.363 1_455 S
C249 C252 1.363 . S
N250 C252 1.356 . S
N250 H262 0.984 . S
N250 H263 0.985 . S
N251 C253 1.356 . S
N251 H256 0.984 1_554 S
N251 H257 0.985 . S
C252 C246 1.379 . S
C252 C249 1.363 . S
C252 N250 1.356 . S
C253 C247 1.363 1_655 S
C253 C248 1.379 . S
C253 N251 1.356 . S
N254 C246 1.356 1_556 S
N254 H260 0.984 1_556 S
N254 H261 0.984 . S
N255 C248 1.356 . S
N255 H258 0.984 . S
N255 H259 0.985 . S
H256 N251 0.984 1_556 S
H257 N251 0.985 . S
H258 N255 0.984 . S
H259 N255 0.985 . S
H260 N254 0.984 1_554 S
H261 N254 0.984 . S
H262 N250 0.984 . S
H263 N250 0.985 . S
C264 C265 1.363 . S
C264 C270 1.379 . S
C264 N272 1.356 . S
C265 C264 1.363 . S
C265 C271 1.363 . S
C266 C267 1.363 . S
C266 C271 1.379 . S
C266 N273 1.356 . S
C267 C266 1.363 . S
C267 C270 1.363 . S
N268 C270 1.356 . S
N268 H280 0.984 . S
N268 H281 0.985 . S
N269 C271 1.356 . S
N269 H274 0.984 . S
N269 H275 0.985 . S
C270 C264 1.379 . S
C270 C267 1.363 . S
C270 N268 1.356 . S
C271 C265 1.363 . S
C271 C266 1.379 . S
C271 N269 1.356 . S
N272 C264 1.356 . S
N272 H278 0.984 . S
N272 H279 0.984 . S
N273 C266 1.356 . S
N273 H276 0.984 . S
N273 H277 0.985 . S
H274 N269 0.984 . S
H275 N269 0.985 . S
H276 N273 0.984 . S
H277 N273 0.985 . S
H278 N272 0.984 . S
H279 N272 0.984 . S
H280 N268 0.984 . S
H281 N268 0.985 . S
C282 C283 1.363 . S
C282 C288 1.379 . S
C282 N290 1.356 . S
C283 C282 1.363 . S
C283 C289 1.363 . S
C284 C285 1.363 . S
C284 C289 1.379 . S
C284 N291 1.356 . S
C285 C284 1.363 . S
C285 C288 1.363 . S
N286 C288 1.356 . S
N286 H298 0.984 . S
N286 H299 0.985 . S
N287 C289 1.356 . S
N287 H292 0.984 . S
N287 H293 0.985 . S
C288 C282 1.379 . S
C288 C285 1.363 . S
C288 N286 1.356 . S
C289 C283 1.363 . S
C289 C284 1.379 . S
C289 N287 1.356 . S
N290 C282 1.356 . S
N290 H296 0.984 . S
N290 H297 0.984 . S
N291 C284 1.356 . S
N291 H294 0.984 . S
N291 H295 0.985 . S
H292 N287 0.984 . S
H293 N287 0.985 . S
H294 N291 0.984 . S
H295 N291 0.985 . S
H296 N290 0.984 . S
H297 N290 0.984 . S
H298 N286 0.984 . S
H299 N286 0.985 . S
C85 C18 1.733 . S
C87 C36 1.277 . S
C103 C59 1.885 . S
C105 C38 1.885 . S
C121 C81 1.733 . S
C123 C57 1.275 . S
C139 C13 1.479 . S
C141 C76 1.479 . S
C157 C80 1.885 . S
C159 C17 1.885 . S
C175 C55 1.478 . S
C177 C34 1.478 . S
C193 C60 1.733 . S
C195 C78 1.275 . S
C211 C39 1.733 1_455 S
C213 C15 1.275 . S
C229 C16 1.071 1_556 S
C231 C14 1.057 . S
C247 C37 1.071 1_554 S
C249 C35 1.057 . S
C265 C56 1.057 . S
C267 C58 1.071 . S
C283 C79 1.071 . S
C285 C77 1.057 . S
