# Generated by pormake.
# Topology ukd, (4)-cn, num edge types: 1
# Building blocks:
#     Node 0, Type 0, BuildingBlock: NAHDIM_clean_sbu_0, # of connection points: 4
#     Node 1, Type 0, BuildingBlock: NAHDIM_clean_sbu_0, # of connection points: 4
#     Node 2, Type 0, BuildingBlock: NAHDIM_clean_sbu_0, # of connection points: 4
#     Node 3, Type 0, BuildingBlock: NAHDIM_clean_sbu_0, # of connection points: 4
#     Node 4, Type 0, BuildingBlock: NAHDIM_clean_sbu_0, # of connection points: 4
#     Node 5, Type 0, BuildingBlock: NAHDIM_clean_sbu_0, # of connection points: 4
#     Node 6, Type 0, BuildingBlock: NAHDIM_clean_sbu_0, # of connection points: 4
#     Node 7, Type 0, BuildingBlock: NAHDIM_clean_sbu_0, # of connection points: 4
#     Node 8, Type 0, BuildingBlock: NAHDIM_clean_sbu_0, # of connection points: 4
#     Node 9, Type 0, BuildingBlock: NAHDIM_clean_sbu_0, # of connection points: 4
#     Node 10, Type 0, BuildingBlock: NAHDIM_clean_sbu_0, # of connection points: 4
#     Node 11, Type 0, BuildingBlock: NAHDIM_clean_sbu_0, # of connection points: 4
#     Node 12, Type 0, BuildingBlock: NAHDIM_clean_sbu_0, # of connection points: 4
#     Node 13, Type 0, BuildingBlock: NAHDIM_clean_sbu_0, # of connection points: 4
#     Node 14, Type 0, BuildingBlock: NAHDIM_clean_sbu_0, # of connection points: 4
#     Node 15, Type 0, BuildingBlock: NAHDIM_clean_sbu_0, # of connection points: 4
#     Node 16, Type 0, BuildingBlock: NAHDIM_clean_sbu_0, # of connection points: 4
#     Node 17, Type 0, BuildingBlock: NAHDIM_clean_sbu_0, # of connection points: 4
#     Node 18, Type 0, BuildingBlock: NAHDIM_clean_sbu_0, # of connection points: 4
#     Node 19, Type 0, BuildingBlock: NAHDIM_clean_sbu_0, # of connection points: 4
#     Node 20, Type 0, BuildingBlock: NAHDIM_clean_sbu_0, # of connection points: 4
#     Node 21, Type 0, BuildingBlock: NAHDIM_clean_sbu_0, # of connection points: 4
#     Node 22, Type 0, BuildingBlock: NAHDIM_clean_sbu_0, # of connection points: 4
#     Node 23, Type 0, BuildingBlock: NAHDIM_clean_sbu_0, # of connection points: 4
#     Node 24, Type 0, BuildingBlock: NAHDIM_clean_sbu_0, # of connection points: 4
#     Node 25, Type 0, BuildingBlock: NAHDIM_clean_sbu_0, # of connection points: 4
#     Node 26, Type 0, BuildingBlock: NAHDIM_clean_sbu_0, # of connection points: 4
#     Node 27, Type 0, BuildingBlock: NAHDIM_clean_sbu_0, # of connection points: 4
#     Node 28, Type 0, BuildingBlock: NAHDIM_clean_sbu_0, # of connection points: 4
#     Node 29, Type 0, BuildingBlock: NAHDIM_clean_sbu_0, # of connection points: 4
#     Node 30, Type 0, BuildingBlock: NAHDIM_clean_sbu_0, # of connection points: 4
#     Node 31, Type 0, BuildingBlock: NAHDIM_clean_sbu_0, # of connection points: 4
#     Edge 32, Type (0, 0), BuildingBlock: UVAHIK_clean_linker_0, # of connection points: 2
#     Edge 33, Type (0, 0), BuildingBlock: UVAHIK_clean_linker_0, # of connection points: 2
#     Edge 34, Type (0, 0), BuildingBlock: UVAHIK_clean_linker_0, # of connection points: 2
#     Edge 35, Type (0, 0), BuildingBlock: UVAHIK_clean_linker_0, # of connection points: 2
#     Edge 36, Type (0, 0), BuildingBlock: UVAHIK_clean_linker_0, # of connection points: 2
#     Edge 37, Type (0, 0), BuildingBlock: UVAHIK_clean_linker_0, # of connection points: 2
#     Edge 38, Type (0, 0), BuildingBlock: UVAHIK_clean_linker_0, # of connection points: 2
#     Edge 39, Type (0, 0), BuildingBlock: UVAHIK_clean_linker_0, # of connection points: 2
#     Edge 40, Type (0, 0), BuildingBlock: UVAHIK_clean_linker_0, # of connection points: 2
#     Edge 41, Type (0, 0), BuildingBlock: UVAHIK_clean_linker_0, # of connection points: 2
#     Edge 42, Type (0, 0), BuildingBlock: UVAHIK_clean_linker_0, # of connection points: 2
#     Edge 43, Type (0, 0), BuildingBlock: UVAHIK_clean_linker_0, # of connection points: 2
#     Edge 44, Type (0, 0), BuildingBlock: UVAHIK_clean_linker_0, # of connection points: 2
#     Edge 45, Type (0, 0), BuildingBlock: UVAHIK_clean_linker_0, # of connection points: 2
#     Edge 46, Type (0, 0), BuildingBlock: UVAHIK_clean_linker_0, # of connection points: 2
#     Edge 47, Type (0, 0), BuildingBlock: UVAHIK_clean_linker_0, # of connection points: 2
#     Edge 48, Type (0, 0), BuildingBlock: UVAHIK_clean_linker_0, # of connection points: 2
#     Edge 49, Type (0, 0), BuildingBlock: UVAHIK_clean_linker_0, # of connection points: 2
#     Edge 50, Type (0, 0), BuildingBlock: UVAHIK_clean_linker_0, # of connection points: 2
#     Edge 51, Type (0, 0), BuildingBlock: UVAHIK_clean_linker_0, # of connection points: 2
#     Edge 52, Type (0, 0), BuildingBlock: UVAHIK_clean_linker_0, # of connection points: 2
#     Edge 53, Type (0, 0), BuildingBlock: UVAHIK_clean_linker_0, # of connection points: 2
#     Edge 54, Type (0, 0), BuildingBlock: UVAHIK_clean_linker_0, # of connection points: 2
#     Edge 55, Type (0, 0), BuildingBlock: UVAHIK_clean_linker_0, # of connection points: 2
#     Edge 56, Type (0, 0), BuildingBlock: UVAHIK_clean_linker_0, # of connection points: 2
#     Edge 57, Type (0, 0), BuildingBlock: UVAHIK_clean_linker_0, # of connection points: 2
#     Edge 58, Type (0, 0), BuildingBlock: UVAHIK_clean_linker_0, # of connection points: 2
#     Edge 59, Type (0, 0), BuildingBlock: UVAHIK_clean_linker_0, # of connection points: 2
#     Edge 60, Type (0, 0), BuildingBlock: UVAHIK_clean_linker_0, # of connection points: 2
#     Edge 61, Type (0, 0), BuildingBlock: UVAHIK_clean_linker_0, # of connection points: 2
#     Edge 62, Type (0, 0), BuildingBlock: UVAHIK_clean_linker_0, # of connection points: 2
#     Edge 63, Type (0, 0), BuildingBlock: UVAHIK_clean_linker_0, # of connection points: 2
#     Edge 64, Type (0, 0), BuildingBlock: UVAHIK_clean_linker_0, # of connection points: 2
#     Edge 65, Type (0, 0), BuildingBlock: UVAHIK_clean_linker_0, # of connection points: 2
#     Edge 66, Type (0, 0), BuildingBlock: UVAHIK_clean_linker_0, # of connection points: 2
#     Edge 67, Type (0, 0), BuildingBlock: UVAHIK_clean_linker_0, # of connection points: 2
#     Edge 68, Type (0, 0), BuildingBlock: UVAHIK_clean_linker_0, # of connection points: 2
#     Edge 69, Type (0, 0), BuildingBlock: UVAHIK_clean_linker_0, # of connection points: 2
#     Edge 70, Type (0, 0), BuildingBlock: UVAHIK_clean_linker_0, # of connection points: 2
#     Edge 71, Type (0, 0), BuildingBlock: UVAHIK_clean_linker_0, # of connection points: 2
#     Edge 72, Type (0, 0), BuildingBlock: UVAHIK_clean_linker_0, # of connection points: 2
#     Edge 73, Type (0, 0), BuildingBlock: UVAHIK_clean_linker_0, # of connection points: 2
#     Edge 74, Type (0, 0), BuildingBlock: UVAHIK_clean_linker_0, # of connection points: 2
#     Edge 75, Type (0, 0), BuildingBlock: UVAHIK_clean_linker_0, # of connection points: 2
#     Edge 76, Type (0, 0), BuildingBlock: UVAHIK_clean_linker_0, # of connection points: 2
#     Edge 77, Type (0, 0), BuildingBlock: UVAHIK_clean_linker_0, # of connection points: 2
#     Edge 78, Type (0, 0), BuildingBlock: UVAHIK_clean_linker_0, # of connection points: 2
#     Edge 79, Type (0, 0), BuildingBlock: UVAHIK_clean_linker_0, # of connection points: 2
#     Edge 80, Type (0, 0), BuildingBlock: UVAHIK_clean_linker_0, # of connection points: 2
#     Edge 81, Type (0, 0), BuildingBlock: UVAHIK_clean_linker_0, # of connection points: 2
#     Edge 82, Type (0, 0), BuildingBlock: UVAHIK_clean_linker_0, # of connection points: 2
#     Edge 83, Type (0, 0), BuildingBlock: UVAHIK_clean_linker_0, # of connection points: 2
#     Edge 84, Type (0, 0), BuildingBlock: UVAHIK_clean_linker_0, # of connection points: 2
#     Edge 85, Type (0, 0), BuildingBlock: UVAHIK_clean_linker_0, # of connection points: 2
#     Edge 86, Type (0, 0), BuildingBlock: UVAHIK_clean_linker_0, # of connection points: 2
#     Edge 87, Type (0, 0), BuildingBlock: UVAHIK_clean_linker_0, # of connection points: 2
#     Edge 88, Type (0, 0), BuildingBlock: UVAHIK_clean_linker_0, # of connection points: 2
#     Edge 89, Type (0, 0), BuildingBlock: UVAHIK_clean_linker_0, # of connection points: 2
#     Edge 90, Type (0, 0), BuildingBlock: UVAHIK_clean_linker_0, # of connection points: 2
#     Edge 91, Type (0, 0), BuildingBlock: UVAHIK_clean_linker_0, # of connection points: 2
#     Edge 92, Type (0, 0), BuildingBlock: UVAHIK_clean_linker_0, # of connection points: 2
#     Edge 93, Type (0, 0), BuildingBlock: UVAHIK_clean_linker_0, # of connection points: 2
#     Edge 94, Type (0, 0), BuildingBlock: UVAHIK_clean_linker_0, # of connection points: 2
#     Edge 95, Type (0, 0), BuildingBlock: UVAHIK_clean_linker_0, # of connection points: 2
# Relax obj value: 0.149
# Max RMSD: 0.181
# Mean RMSD: 0.181
data_MOF--net-ukd--node1-NAHDIM_clean_sbu_0--edge1-UVAHIK_clean_linker_0
_symmetry_space_group_name_H-M    P1
_symmetry_Int_Tables_number       1
_symmetry_cell_setting            triclinic
loop_
_symmetry_equiv_pos_as_xyz
'x, y, z'
_cell_length_a     55.467077
_cell_length_b     55.461943
_cell_length_c     95.450393
_cell_angle_alpha  89.977795
_cell_angle_beta   90.013611
_cell_angle_gamma 89.997178
loop_
_atom_site_label
_atom_site_type_symbol
_atom_site_fract_x
_atom_site_fract_y
_atom_site_fract_z
_atom_type_partial_charge
C0 C 0.28925 0.22025 0.34768 0.0
O1 O 0.28895 0.23085 0.33537 0.0
O2 O 0.23958 0.23481 0.32599 0.0
Zn3 Zn 0.23697 0.22564 0.3463 0.0
O4 O 0.21556 0.19652 0.34806 0.0
C5 C 0.22712 0.2748 0.35456 0.0
O6 O 0.2445 0.2797 0.34565 0.0
O7 O 0.26954 0.21711 0.35424 0.0
C8 C 0.19296 0.19844 0.34622 0.0
O9 O 0.18388 0.2196 0.34296 0.0
C10 C 0.24262 0.21884 0.31663 0.0
O11 O 0.2442 0.1961 0.32037 0.0
O12 O 0.22151 0.25293 0.35682 0.0
C13 C 0.03662 0.04014 0.60566 0.0
O14 O 0.02755 0.04023 0.59295 0.0
O15 O 0.01888 0.99191 0.58392 0.0
Zn16 Zn 0.02667 0.98867 0.60445 0.0
O17 O 0.05396 0.96517 0.60687 0.0
C18 C 0.97646 0.97883 0.61013 0.0
O19 O 0.97305 0.99318 0.59936 0.0
O20 O 0.03716 0.02052 0.61255 0.0
C21 C 0.05162 0.94347 0.60283 0.0
O22 O 0.03125 0.93674 0.59699 0.0
C23 C 0.03479 0.98939 0.57446 0.0
O24 O 0.05716 0.98476 0.57811 0.0
O25 O 0.9978 0.97512 0.61448 0.0
C26 C 0.20968 0.77837 0.85595 0.0
O27 O 0.21055 0.76525 0.84451 0.0
O28 O 0.25951 0.77212 0.83298 0.0
Zn29 Zn 0.26206 0.7782 0.85367 0.0
O30 O 0.28266 0.80759 0.85658 0.0
C31 C 0.27381 0.72834 0.85986 0.0
O32 O 0.25674 0.72367 0.85071 0.0
O33 O 0.22923 0.78484 0.86181 0.0
C34 C 0.30257 0.80957 0.85009 0.0
O35 O 0.30927 0.79225 0.84155 0.0
C36 C 0.25053 0.78819 0.82505 0.0
O37 O 0.24282 0.80845 0.83059 0.0
O38 O 0.27845 0.75014 0.86296 0.0
C39 C 0.45335 0.95979 0.09956 0.0
O40 O 0.44547 0.96983 0.08798 0.0
O41 O 0.48499 0.00444 0.08044 0.0
Zn42 Zn 0.4761 0.00526 0.10098 0.0
O43 O 0.44739 0.02689 0.10388 0.0
C44 C 0.52533 0.01819 0.10774 0.0
O45 O 0.53017 0.00639 0.09615 0.0
O46 O 0.4676 0.97166 0.10739 0.0
C47 C 0.44932 0.04919 0.10102 0.0
O48 O 0.46996 0.05737 0.0962 0.0
C49 C 0.47043 0.01059 0.07079 0.0
O50 O 0.44866 0.01792 0.07414 0.0
O51 O 0.50367 0.01919 0.11205 0.0
C52 C 0.29658 0.77903 0.14449 0.0
O53 O 0.29619 0.76832 0.15676 0.0
O54 O 0.24869 0.77253 0.1677 0.0
Zn55 Zn 0.24473 0.77487 0.14675 0.0
O56 O 0.22167 0.80205 0.1424 0.0
C57 C 0.23122 0.72411 0.14551 0.0
O58 O 0.24206 0.72286 0.15773 0.0
O59 O 0.27683 0.78283 0.13809 0.0
C60 C 0.19919 0.79804 0.14124 0.0
O61 O 0.19114 0.77593 0.14282 0.0
C62 C 0.23105 0.76928 0.17598 0.0
O63 O 0.20921 0.76721 0.17081 0.0
O64 O 0.23111 0.74398 0.13888 0.0
C65 C 0.44998 0.04203 0.39415 0.0
O66 O 0.44149 0.03133 0.40538 0.0
O67 O 0.48319 0.00086 0.41488 0.0
Zn68 Zn 0.47642 0.99866 0.3941 0.0
O69 O 0.44949 0.97504 0.39061 0.0
C70 C 0.52304 0.97667 0.39131 0.0
O71 O 0.52111 0.97617 0.40502 0.0
O72 O 0.46615 0.03139 0.38701 0.0
C73 C 0.45177 0.9532 0.39444 0.0
O74 O 0.47174 0.94647 0.40073 0.0
C75 C 0.46871 0.99406 0.42442 0.0
O76 O 0.44735 0.98578 0.42094 0.0
O77 O 0.50623 0.98625 0.38414 0.0
C78 C 0.21914 0.1985 0.65252 0.0
O79 O 0.22991 0.19109 0.664 0.0
O80 O 0.26021 0.23291 0.67224 0.0
Zn81 Zn 0.26197 0.22575 0.65162 0.0
O82 O 0.28623 0.19933 0.64868 0.0
C83 C 0.26424 0.27607 0.64403 0.0
O84 O 0.24687 0.27788 0.65333 0.0
O85 O 0.2295 0.21431 0.64498 0.0
C86 C 0.28798 0.1892 0.63679 0.0
O87 O 0.27377 0.19629 0.62657 0.0
C88 C 0.27599 0.2458 0.67832 0.0
O89 O 0.29383 0.25486 0.67095 0.0
O90 O 0.27288 0.2554 0.64126 0.0
C91 C 0.04777 0.95966 0.89329 0.0
O92 O 0.05564 0.97114 0.90444 0.0
O93 O 0.01613 0.00082 0.91293 0.0
Zn94 Zn 0.02287 0.00311 0.8922 0.0
O95 O 0.05109 0.02545 0.88934 0.0
C96 C 0.97262 0.01225 0.8842 0.0
O97 O 0.96724 0.99598 0.89371 0.0
O98 O 0.03232 0.97 0.88549 0.0
C99 C 0.04924 0.04726 0.89326 0.0
O100 O 0.02904 0.05451 0.89906 0.0
C101 C 0.00234 0.01428 0.92013 0.0
O102 O 0.99024 0.03163 0.91394 0.0
O103 O 0.99461 0.01704 0.88173 0.0
C104 C 0.7243 0.79007 0.62946 0.0
O105 O 0.74273 0.79596 0.62151 0.0
O106 O 0.76127 0.7631 0.66707 0.0
Zn107 Zn 0.76173 0.76912 0.64633 0.0
O108 O 0.78297 0.7978 0.64261 0.0
C109 C 0.77269 0.71903 0.64085 0.0
O110 O 0.75928 0.71553 0.65201 0.0
O111 O 0.72796 0.77726 0.64028 0.0
C112 C 0.80295 0.80012 0.64897 0.0
O113 O 0.80961 0.78346 0.65796 0.0
C114 C 0.75084 0.77848 0.67484 0.0
O115 O 0.74089 0.79753 0.66904 0.0
O116 O 0.77549 0.74036 0.63626 0.0
C117 C 0.94956 0.96082 0.39824 0.0
O118 O 0.94083 0.97175 0.40933 0.0
O119 O 0.98346 0.00073 0.41946 0.0
Zn120 Zn 0.9771 0.00346 0.39864 0.0
O121 O 0.95058 0.02748 0.39497 0.0
C122 C 0.02374 0.02553 0.39593 0.0
O123 O 0.02152 0.02663 0.40961 0.0
O124 O 0.96636 0.97101 0.39137 0.0
C125 C 0.95342 0.04955 0.39813 0.0
O126 O 0.9737 0.05637 0.40405 0.0
C127 C 0.96898 0.00799 0.42888 0.0
O128 O 0.94824 0.01751 0.4252 0.0
O129 O 0.00716 0.01549 0.3888 0.0
C130 C 0.77972 0.19737 0.15169 0.0
O131 O 0.76674 0.18804 0.16186 0.0
O132 O 0.73878 0.23318 0.17134 0.0
Zn133 Zn 0.73795 0.22524 0.15074 0.0
O134 O 0.71552 0.1972 0.14748 0.0
C135 C 0.73429 0.2747 0.14046 0.0
O136 O 0.75299 0.2787 0.14858 0.0
O137 O 0.77118 0.21505 0.14482 0.0
C138 C 0.69585 0.1949 0.15417 0.0
O139 O 0.68993 0.21119 0.16354 0.0
C140 C 0.7259 0.2494 0.17703 0.0
O141 O 0.71095 0.26204 0.16928 0.0
O142 O 0.72574 0.25349 0.1396 0.0
C143 C 0.55501 0.03517 0.89729 0.0
O144 O 0.56402 0.02313 0.90792 0.0
O145 O 0.52116 0.9917 0.9161 0.0
Zn146 Zn 0.52954 0.99151 0.89552 0.0
O147 O 0.55742 0.96906 0.89205 0.0
C148 C 0.47952 0.98414 0.88859 0.0
O149 O 0.47622 0.99873 0.89926 0.0
O150 O 0.53896 0.02517 0.88976 0.0
C151 C 0.55456 0.94659 0.89404 0.0
O152 O 0.53343 0.93868 0.89825 0.0
C153 C 0.53544 0.98434 0.92561 0.0
O154 O 0.55671 0.9759 0.92209 0.0
O155 O 0.50089 0.97928 0.88472 0.0
C156 C 0.70813 0.22176 0.85575 0.0
O157 O 0.70702 0.23411 0.84403 0.0
O158 O 0.75208 0.22758 0.8302 0.0
Zn159 Zn 0.75942 0.22457 0.85077 0.0
O160 O 0.78262 0.19715 0.85378 0.0
C161 C 0.78373 0.27012 0.84909 0.0
O162 O 0.78282 0.265 0.83567 0.0
O163 O 0.72865 0.21664 0.86091 0.0
C164 C 0.80219 0.19567 0.84691 0.0
O165 O 0.80743 0.21254 0.83774 0.0
C166 C 0.75044 0.20969 0.82196 0.0
O167 O 0.75369 0.18779 0.82686 0.0
O168 O 0.77445 0.25549 0.85783 0.0
C169 C 0.54726 0.96985 0.61794 0.0
O170 O 0.55447 0.98943 0.62445 0.0
O171 O 0.52011 -0.00016 0.57875 0.0
Zn172 Zn 0.52483 0.00436 0.59946 0.0
O173 O 0.55261 0.02703 0.60274 0.0
C174 C 0.479 0.02816 0.59977 0.0
O175 O 0.48292 0.02781 0.58621 0.0
O176 O 0.5333 0.97188 0.60745 0.0
C177 C 0.55331 0.04788 0.59724 0.0
O178 O 0.53537 0.05492 0.58923 0.0
C179 C 0.53695 0.00082 0.56976 0.0
O180 O 0.55919 0.00461 0.57394 0.0
O181 O 0.49446 0.01864 0.60794 0.0
C182 C 0.78941 0.78324 0.34875 0.0
O183 O 0.78938 0.77474 0.33591 0.0
O184 O 0.74189 0.76661 0.3265 0.0
Zn185 Zn 0.73768 0.77561 0.34679 0.0
O186 O 0.71638 0.80492 0.34766 0.0
C187 C 0.72795 0.7271 0.35769 0.0
O188 O 0.74816 0.72105 0.35144 0.0
O189 O 0.76966 0.78432 0.35549 0.0
C190 C 0.69377 0.80278 0.34591 0.0
O191 O 0.68471 0.78133 0.34339 0.0
C192 C 0.72868 0.75117 0.32034 0.0
O193 O 0.71154 0.74023 0.32739 0.0
O194 O 0.72101 0.74893 0.35733 0.0
C195 C 0.94767 0.031 0.09948 0.0
O196 O 0.93838 0.02001 0.08855 0.0
O197 O 0.97953 0.99324 0.07701 0.0
Zn198 Zn 0.97378 0.98874 0.09768 0.0
O199 O 0.94534 0.96667 0.10041 0.0
C200 C 0.02413 0.97953 0.10614 0.0
O201 O 0.0296 0.99927 0.09922 0.0
O202 O 0.96502 0.02094 0.10594 0.0
C203 C 0.94419 0.94649 0.09415 0.0
O204 O 0.96167 0.94026 0.08562 0.0
C205 C 0.99397 0.98076 0.06965 0.0
O206 O 0.00672 0.96366 0.07563 0.0
O207 O 0.00223 0.97296 0.10697 0.0
C208 C 0.7905 0.71245 0.85246 0.0
O209 O 0.79041 0.72197 0.83986 0.0
O210 O 0.74235 0.72592 0.82993 0.0
Zn211 Zn 0.73854 0.71844 0.85051 0.0
O212 O 0.71698 0.68948 0.85263 0.0
C213 C 0.73121 0.7675 0.86072 0.0
O214 O 0.75179 0.77204 0.85442 0.0
O215 O 0.77069 0.71012 0.85903 0.0
C216 C 0.69699 0.68824 0.84616 0.0
O217 O 0.6906 0.70605 0.83788 0.0
C218 C 0.72998 0.74192 0.82365 0.0
O219 O 0.71388 0.75431 0.83071 0.0
O220 O 0.72287 0.74617 0.86055 0.0
C221 C 0.53383 0.54603 0.10112 0.0
O222 O 0.52381 0.54343 0.08875 0.0
O223 O 0.52709 0.4959 0.08011 0.0
Zn224 Zn 0.53161 0.49404 0.10105 0.0
O225 O 0.56069 0.47329 0.10487 0.0
C226 C 0.48119 0.48503 0.10782 0.0
O227 O 0.47702 0.50308 0.09924 0.0
O228 O 0.53798 0.52744 0.10855 0.0
C229 C 0.5598 0.45102 0.1018 0.0
O230 O 0.53988 0.44222 0.0964 0.0
C231 C 0.51406 0.4817 0.07292 0.0
O232 O 0.50229 0.46424 0.07922 0.0
O233 O 0.50281 0.47874 0.11026 0.0
C234 C 0.71114 0.27714 0.3575 0.0
O235 O 0.71105 0.26422 0.34597 0.0
O236 O 0.75884 0.27151 0.33305 0.0
Zn237 Zn 0.76325 0.27757 0.35363 0.0
O238 O 0.78324 0.30751 0.35589 0.0
C239 C 0.77755 0.22813 0.35915 0.0
O240 O 0.76066 0.22296 0.34998 0.0
O241 O 0.73115 0.28361 0.3628 0.0
C242 C 0.80264 0.31011 0.34898 0.0
O243 O 0.80945 0.29294 0.34036 0.0
C244 C 0.74933 0.28782 0.3255 0.0
O245 O 0.74244 0.30808 0.3314 0.0
O246 O 0.78116 0.25001 0.36249 0.0
C247 C 0.96018 0.46418 0.61907 0.0
O248 O 0.95991 0.48262 0.62772 0.0
O249 O 0.98128 0.49699 0.57846 0.0
Zn250 Zn 0.97576 0.50016 0.59919 0.0
O251 O 0.9479 0.52258 0.60296 0.0
C252 C 0.01952 0.52695 0.6012 0.0
O253 O 0.01434 0.53078 0.58796 0.0
O254 O 0.96719 0.46738 0.60655 0.0
C255 C 0.94608 0.54295 0.59695 0.0
O256 O 0.96271 0.54955 0.58793 0.0
C257 C 0.96417 0.49631 0.56962 0.0
O258 O 0.94179 0.49774 0.57405 0.0
O259 O 0.00562 0.51364 0.60845 0.0
C260 C 0.78219 0.29333 0.65168 0.0
O261 O 0.77072 0.29889 0.66327 0.0
O262 O 0.73519 0.25933 0.66729 0.0
Zn263 Zn 0.73745 0.27016 0.64711 0.0
O264 O 0.71561 0.2986 0.64388 0.0
C265 C 0.73043 0.22119 0.63808 0.0
O266 O 0.74474 0.21668 0.64874 0.0
O267 O 0.77162 0.28016 0.64267 0.0
C268 C 0.69304 0.29638 0.64577 0.0
O269 O 0.68444 0.27547 0.64987 0.0
C270 C 0.72746 0.27284 0.67706 0.0
O271 O 0.72074 0.29498 0.67412 0.0
O272 O 0.72579 0.24297 0.63495 0.0
C273 C 0.95115 0.53422 0.89975 0.0
O274 O 0.94307 0.5232 0.91099 0.0
O275 O 0.98625 0.49362 0.91978 0.0
Zn276 Zn 0.97807 0.49135 0.89923 0.0
O277 O 0.95105 0.46771 0.89628 0.0
C278 C 0.02836 0.48382 0.89253 0.0
O279 O 0.03182 0.49813 0.90331 0.0
O280 O 0.96731 0.52397 0.89243 0.0
C281 C 0.94215 0.46501 0.88412 0.0
O282 O 0.95071 0.47799 0.87373 0.0
C283 C 0.97328 0.48401 0.92923 0.0
O284 O 0.95396 0.47184 0.92559 0.0
O285 O 0.00695 0.4792 0.88864 0.0
C286 C 0.70421 0.71743 0.14314 0.0
O287 O 0.70608 0.72578 0.15596 0.0
O288 O 0.7559 0.72652 0.16403 0.0
Zn289 Zn 0.75662 0.72087 0.14322 0.0
O290 O 0.77698 0.69148 0.13971 0.0
C291 C 0.77058 0.77041 0.13808 0.0
O292 O 0.75723 0.77472 0.14917 0.0
O293 O 0.7231 0.71477 0.13575 0.0
C294 C 0.79733 0.68994 0.14577 0.0
O295 O 0.80437 0.70763 0.15396 0.0
C296 C 0.75032 0.70924 0.17216 0.0
O297 O 0.74477 0.68818 0.16674 0.0
O298 O 0.77231 0.74895 0.13354 0.0
C299 C 0.55332 0.46074 0.39731 0.0
O300 O 0.56174 0.47261 0.40817 0.0
O301 O 0.52006 0.50108 0.41722 0.0
Zn302 Zn 0.52659 0.50337 0.39642 0.0
O303 O 0.55342 0.52706 0.39263 0.0
C304 C 0.47649 0.51635 0.39258 0.0
O305 O 0.47459 0.5081 0.40544 0.0
O306 O 0.53703 0.47051 0.38985 0.0
C307 C 0.54905 0.54955 0.39306 0.0
O308 O 0.52713 0.55682 0.39612 0.0
C309 C 0.53102 0.51315 0.42658 0.0
O310 O 0.54778 0.5286 0.42286 0.0
O311 O 0.49673 0.5151 0.38638 0.0
C312 C 0.21113 0.28062 0.14071 0.0
O313 O 0.21233 0.26898 0.15268 0.0
O314 O 0.26187 0.26903 0.16191 0.0
Zn315 Zn 0.26346 0.27703 0.1414 0.0
O316 O 0.28477 0.306 0.1387 0.0
C317 C 0.2723 0.22746 0.13399 0.0
O318 O 0.25503 0.22346 0.14311 0.0
O319 O 0.23044 0.28506 0.13401 0.0
C320 C 0.3057 0.3065 0.14409 0.0
O321 O 0.31311 0.28792 0.15148 0.0
C322 C 0.25859 0.28531 0.17107 0.0
O323 O 0.25612 0.30782 0.16703 0.0
O324 O 0.27829 0.24906 0.13123 0.0
C325 C 0.44952 0.45877 0.8974 0.0
O326 O 0.44175 0.4698 0.90871 0.0
O327 O 0.48129 0.50059 0.91669 0.0
Zn328 Zn 0.47391 0.50276 0.89604 0.0
O329 O 0.44589 0.5254 0.89319 0.0
C330 C 0.52407 0.51068 0.88762 0.0
O331 O 0.52928 0.4946 0.89727 0.0
O332 O 0.46441 0.46962 0.88948 0.0
C333 C 0.44883 0.54764 0.8959 0.0
O334 O 0.46988 0.55498 0.90053 0.0
C335 C 0.4951 0.51441 0.92364 0.0
O336 O 0.50641 0.53205 0.91723 0.0
O337 O 0.50215 0.51597 0.88528 0.0
C338 C 0.29166 0.711 0.65029 0.0
O339 O 0.29036 0.71799 0.66341 0.0
O340 O 0.24247 0.72829 0.6711 0.0
Zn341 Zn 0.24 0.71951 0.65065 0.0
O342 O 0.21875 0.69029 0.64881 0.0
C343 C 0.23082 0.76824 0.64004 0.0
O344 O 0.24976 0.77442 0.6475 0.0
O345 O 0.27267 0.71105 0.64282 0.0
C346 C 0.19625 0.69221 0.65106 0.0
O347 O 0.18747 0.71322 0.65484 0.0
C348 C 0.22871 0.74352 0.67702 0.0
O349 O 0.21195 0.7544 0.66963 0.0
O350 O 0.22435 0.74628 0.63971 0.0
C351 C 0.04943 0.54011 0.39688 0.0
O352 O 0.05726 0.52844 0.40795 0.0
O353 O 0.01532 0.49436 0.4144 0.0
Zn354 Zn 0.02469 0.49586 0.39396 0.0
O355 O 0.0527 0.47365 0.39032 0.0
C356 C 0.97507 0.48912 0.38613 0.0
O357 O 0.97141 0.50361 0.39681 0.0
O358 O 0.03434 0.52981 0.38884 0.0
C359 C 0.05035 0.45119 0.39257 0.0
O360 O 0.02965 0.44303 0.39729 0.0
C361 C 0.0296 0.48724 0.42397 0.0
O362 O 0.05162 0.4807 0.42063 0.0
O363 O 0.99657 0.48415 0.38256 0.0
C364 C 0.21102 0.72048 0.35507 0.0
O365 O 0.21068 0.73252 0.34322 0.0
O366 O 0.25756 0.73239 0.33161 0.0
Zn367 Zn 0.2628 0.72506 0.352 0.0
O368 O 0.28526 0.69651 0.35353 0.0
C369 C 0.27438 0.77526 0.35803 0.0
O370 O 0.25864 0.77996 0.34811 0.0
O371 O 0.23115 0.71606 0.36093 0.0
C372 C 0.30774 0.69947 0.35551 0.0
O373 O 0.31637 0.72146 0.35647 0.0
C374 C 0.27464 0.73895 0.32361 0.0
O375 O 0.29646 0.74124 0.32878 0.0
O376 O 0.27807 0.75351 0.36161 0.0
C377 C 0.04913 0.46216 0.10281 0.0
O378 O 0.05676 0.47359 0.0916 0.0
O379 O 0.01666 0.50604 0.08446 0.0
Zn380 Zn 0.02447 0.50619 0.1051 0.0
O381 O 0.05222 0.52875 0.10892 0.0
C382 C 0.97411 0.51294 0.1114 0.0
O383 O 0.97135 0.49848 0.10062 0.0
O384 O 0.03418 0.47264 0.11086 0.0
C385 C 0.04843 0.55104 0.11106 0.0
O386 O 0.02619 0.55919 0.11079 0.0
C387 C 0.02969 0.51628 0.07525 0.0
O388 O 0.04919 0.52789 0.07917 0.0
O389 O 0.99527 0.51784 0.11562 0.0
C390 C 0.29384 0.27412 0.8584 0.0
O391 O 0.29344 0.26104 0.84693 0.0
O392 O 0.24499 0.27006 0.83435 0.0
Zn393 Zn 0.2416 0.27528 0.85508 0.0
O394 O 0.22147 0.30493 0.85817 0.0
C395 C 0.22814 0.22552 0.85988 0.0
O396 O 0.24461 0.22114 0.85032 0.0
O397 O 0.27408 0.28102 0.86382 0.0
C398 C 0.20193 0.30789 0.85144 0.0
O399 O 0.19511 0.29133 0.84243 0.0
C400 C 0.25548 0.28577 0.82682 0.0
O401 O 0.26421 0.30525 0.83278 0.0
O402 O 0.22445 0.24712 0.86375 0.0
C403 C 0.44929 0.53275 0.60063 0.0
O404 O 0.44267 0.52416 0.58839 0.0
O405 O 0.48022 0.48951 0.58109 0.0
Zn406 Zn 0.47039 0.48659 0.6013 0.0
O407 O 0.44127 0.46492 0.60292 0.0
C408 C 0.51939 0.47672 0.60981 0.0
O409 O 0.52443 0.49401 0.60086 0.0
O410 O 0.46229 0.5197 0.60856 0.0
C411 C 0.42353 0.46956 0.61091 0.0
O412 O 0.42371 0.48945 0.61837 0.0
C413 C 0.47491 0.47358 0.57203 0.0
O414 O 0.46284 0.45435 0.57595 0.0
O415 O 0.49748 0.47122 0.61202 0.0
C416 C 0.06856 0.40991 0.3934 0.0
C417 C 0.07068 0.43448 0.39002 0.0
C418 C 0.0876 0.39402 0.39083 0.0
C419 C 0.14107 0.38636 0.36864 0.0
H420 H 0.15744 0.33625 0.39534 0.0
C421 C 0.21778 0.31869 0.35783 0.0
C422 C 0.21253 0.29442 0.36077 0.0
C423 C 0.20265 0.33706 0.36267 0.0
C424 C 0.15299 0.35005 0.38774 0.0
H425 H 0.09459 0.4617 0.38143 0.0
H426 H 0.12782 0.43392 0.37693 0.0
H427 H 0.12659 0.36592 0.40126 0.0
H428 H 0.18767 0.27048 0.37149 0.0
H429 H 0.16119 0.30238 0.37972 0.0
H430 H 0.16697 0.37021 0.35496 0.0
C431 C 0.11135 0.42694 0.38149 0.0
C432 C 0.13533 0.36704 0.39113 0.0
C433 C 0.09234 0.44286 0.38412 0.0
C434 C 0.19228 0.28898 0.36904 0.0
C435 C 0.17714 0.30732 0.37384 0.0
C436 C 0.15866 0.36932 0.36522 0.0
C437 C 0.10916 0.40233 0.38478 0.0
C438 C 0.12896 0.3852 0.38155 0.0
C439 C 0.18192 0.33156 0.37053 0.0
C440 C 0.16463 0.35078 0.37465 0.0
H441 H 0.05213 0.40286 0.39796 0.0
H442 H 0.08524 0.37512 0.39332 0.0
H443 H 0.13636 0.39996 0.36096 0.0
H444 H 0.23332 0.32351 0.35155 0.0
H445 H 0.20706 0.35558 0.36012 0.0
C446 C 0.9329 0.9668 0.61028 0.0
C447 C 0.95611 0.96492 0.61609 0.0
C448 C 0.9143 0.95175 0.6149 0.0
C449 C 0.89621 0.91009 0.64346 0.0
H450 H 0.85877 0.87917 0.61423 0.0
C451 C 0.84105 0.82341 0.65289 0.0
C452 C 0.81867 0.82112 0.64612 0.0
C453 C 0.85617 0.84291 0.64994 0.0
C454 C 0.86877 0.88791 0.62255 0.0
H455 H 0.97772 0.94646 0.63173 0.0
H456 H 0.94537 0.92016 0.63969 0.0
H457 H 0.88776 0.91036 0.60806 0.0
H458 H 0.79439 0.8378 0.63114 0.0
H459 H 0.82071 0.87191 0.62609 0.0
H460 H 0.87747 0.88729 0.65791 0.0
C461 C 0.94146 0.93336 0.63164 0.0
C462 C 0.88539 0.90582 0.61901 0.0
C463 C 0.96006 0.94837 0.62701 0.0
C464 C 0.81158 0.83895 0.63649 0.0
C465 C 0.82671 0.85845 0.63354 0.0
C466 C 0.87957 0.89217 0.647 0.0
C467 C 0.9185 0.93455 0.62544 0.0
C468 C 0.89951 0.91692 0.6294 0.0
C469 C 0.84925 0.86058 0.64017 0.0
C470 C 0.86587 0.88067 0.63656 0.0
H471 H 0.92921 0.97944 0.6019 0.0
H472 H 0.8967 0.95335 0.61006 0.0
H473 H 0.90658 0.91854 0.65172 0.0
H474 H 0.84707 0.80999 0.66036 0.0
H475 H 0.87355 0.84383 0.65509 0.0
C476 C 0.43215 0.58941 0.89751 0.0
C477 C 0.4292 0.56523 0.89348 0.0
C478 C 0.41414 0.60635 0.89479 0.0
C479 C 0.34949 0.61286 0.8856 0.0
H480 H 0.37017 0.67588 0.87273 0.0
C481 C 0.28515 0.68461 0.8616 0.0
C482 C 0.28917 0.70874 0.86546 0.0
C483 C 0.30103 0.66647 0.86593 0.0
C484 C 0.36409 0.65846 0.87647 0.0
H485 H 0.40482 0.53977 0.88364 0.0
H486 H 0.37349 0.56949 0.87866 0.0
H487 H 0.40017 0.64542 0.87836 0.0
H488 H 0.31248 0.73257 0.87738 0.0
H489 H 0.34003 0.70097 0.88492 0.0
H490 H 0.3133 0.626 0.88344 0.0
C491 C 0.38962 0.57528 0.8841 0.0
C492 C 0.3813 0.64099 0.87972 0.0
C493 C 0.40763 0.55827 0.88688 0.0
C494 C 0.30892 0.71421 0.87413 0.0
C495 C 0.3248 0.69612 0.8784 0.0
C496 C 0.33223 0.63036 0.88227 0.0
C497 C 0.39278 0.59958 0.8879 0.0
C498 C 0.37424 0.61801 0.88439 0.0
C499 C 0.32129 0.67213 0.87414 0.0
C500 C 0.33938 0.65339 0.87774 0.0
H501 H 0.44845 0.59534 0.90272 0.0
H502 H 0.41698 0.6248 0.89811 0.0
H503 H 0.34344 0.59542 0.8893 0.0
H504 H 0.27008 0.67979 0.85495 0.0
H505 H 0.29793 0.64815 0.86243 0.0
C506 C 0.53872 0.04639 0.12671 0.0
C507 C 0.54429 0.03249 0.11483 0.0
C508 C 0.55589 0.06185 0.13253 0.0
C509 C 0.62114 0.07646 0.13308 0.0
H510 H 0.59841 0.1408 0.14193 0.0
C511 C 0.68524 0.15755 0.14071 0.0
C512 C 0.67945 0.1745 0.15113 0.0
C513 C 0.66932 0.13882 0.13749 0.0
C514 C 0.60502 0.12283 0.13973 0.0
H515 H 0.5726 0.0232 0.10011 0.0
H516 H 0.60248 0.05033 0.1102 0.0
H517 H 0.56978 0.11021 0.13442 0.0
H518 H 0.65264 0.18469 0.16658 0.0
H519 H 0.62499 0.1519 0.16105 0.0
H520 H 0.65648 0.08929 0.1382 0.0
C521 C 0.58489 0.04915 0.11509 0.0
C522 C 0.58859 0.10526 0.13542 0.0
C523 C 0.56771 0.03367 0.10925 0.0
C524 C 0.65759 0.17204 0.15844 0.0
C525 C 0.64168 0.1533 0.15522 0.0
C526 C 0.6376 0.09406 0.13739 0.0
C527 C 0.57902 0.06377 0.12662 0.0
C528 C 0.59646 0.08192 0.13195 0.0
C529 C 0.64725 0.13661 0.14462 0.0
C530 C 0.62974 0.1175 0.14067 0.0
H531 H 0.52089 0.04581 0.13133 0.0
H532 H 0.55093 0.07257 0.14157 0.0
H533 H 0.62773 0.05857 0.13064 0.0
H534 H 0.70194 0.15893 0.13488 0.0
H535 H 0.67404 0.12645 0.12916 0.0
C536 C 0.20636 0.70431 0.12688 0.0
C537 C 0.21667 0.70361 0.14033 0.0
C538 C 0.19047 0.68625 0.12254 0.0
C539 C 0.16733 0.62504 0.13145 0.0
H540 H 0.11057 0.64738 0.1116 0.0
C541 C 0.06441 0.59168 0.11763 0.0
C542 C 0.06879 0.56767 0.11371 0.0
C543 C 0.08355 0.60745 0.12014 0.0
C544 C 0.12622 0.64084 0.11722 0.0
H545 H 0.21906 0.68292 0.15957 0.0
H546 H 0.19095 0.65175 0.15214 0.0
H547 H 0.14242 0.67576 0.11732 0.0
H548 H 0.09674 0.54142 0.10925 0.0
H549 H 0.13017 0.56909 0.11338 0.0
H550 H 0.15055 0.59031 0.13187 0.0
C551 C 0.19541 0.66601 0.14483 0.0
C552 C 0.1447 0.65707 0.12032 0.0
C553 C 0.21147 0.68397 0.14913 0.0
C554 C 0.09276 0.55979 0.11232 0.0
C555 C 0.11193 0.57562 0.11476 0.0
C556 C 0.14875 0.60882 0.12841 0.0
C557 C 0.18433 0.66718 0.13158 0.0
C558 C 0.16542 0.64944 0.12757 0.0
C559 C 0.10755 0.59966 0.1187 0.0
C560 C 0.12785 0.61658 0.12139 0.0
H561 H 0.21016 0.71909 0.1198 0.0
H562 H 0.18269 0.68746 0.11216 0.0
H563 H 0.18315 0.61848 0.1369 0.0
H564 H 0.04616 0.5983 0.11888 0.0
H565 H 0.07949 0.6257 0.12341 0.0
C566 C 0.56125 0.95304 0.39267 0.0
C567 C 0.54344 0.96418 0.38445 0.0
C568 C 0.57939 0.93931 0.38646 0.0
C569 C 0.5917 0.90396 0.35473 0.0
H570 H 0.65547 0.89978 0.37119 0.0
C571 C 0.68732 0.84719 0.34914 0.0
C572 C 0.67771 0.82391 0.34747 0.0
C573 C 0.67213 0.86691 0.35144 0.0
C574 C 0.63792 0.90093 0.36627 0.0
H575 H 0.53127 0.97044 0.36316 0.0
H576 H 0.56326 0.94662 0.35224 0.0
H577 H 0.62774 0.93086 0.37909 0.0
H578 H 0.64458 0.80319 0.34655 0.0
H579 H 0.61818 0.83737 0.3509 0.0
H580 H 0.60193 0.87408 0.34187 0.0
C581 C 0.56292 0.94824 0.36355 0.0
C582 C 0.62188 0.9186 0.37094 0.0
C583 C 0.54468 0.962 0.36979 0.0
C584 C 0.65257 0.82089 0.34778 0.0
C585 C 0.6374 0.84056 0.35017 0.0
C586 C 0.6078 0.88637 0.35 0.0
C587 C 0.58028 0.93644 0.37184 0.0
C588 C 0.59836 0.91992 0.3655 0.0
C589 C 0.64699 0.86378 0.3522 0.0
C590 C 0.63089 0.88424 0.35597 0.0
H591 H 0.56086 0.95433 0.40399 0.0
H592 H 0.59218 0.9302 0.3932 0.0
H593 H 0.57369 0.90436 0.35035 0.0
H594 H 0.70661 0.85016 0.34884 0.0
H595 H 0.68011 0.88458 0.35274 0.0
C596 C 0.26917 0.32097 0.64305 0.0
C597 C 0.27565 0.29797 0.63814 0.0
C598 C 0.2818 0.34141 0.63862 0.0
C599 C 0.32442 0.36419 0.6118 0.0
H600 H 0.34558 0.40681 0.64156 0.0
C601 C 0.40446 0.42967 0.60551 0.0
C602 C 0.40351 0.45208 0.61236 0.0
C603 C 0.38627 0.41258 0.60754 0.0
C604 C 0.3395 0.39539 0.63306 0.0
H605 H 0.29974 0.27854 0.62423 0.0
H606 H 0.32176 0.31417 0.61657 0.0
H607 H 0.31787 0.37406 0.64686 0.0
H608 H 0.38225 0.47446 0.62631 0.0
H609 H 0.35036 0.44479 0.62969 0.0
H610 H 0.34637 0.38534 0.59804 0.0
C611 C 0.30687 0.31643 0.62379 0.0
C612 C 0.3236 0.37659 0.63611 0.0
C613 C 0.29433 0.29599 0.62825 0.0
C614 C 0.38363 0.45729 0.62096 0.0
C615 C 0.3654 0.44023 0.62296 0.0
C616 C 0.34027 0.38307 0.60874 0.0
C617 C 0.30108 0.33931 0.62914 0.0
C618 C 0.31616 0.36056 0.62556 0.0
C619 C 0.36666 0.41755 0.61642 0.0
C620 C 0.34829 0.39868 0.61938 0.0
H621 H 0.25481 0.32314 0.65063 0.0
H622 H 0.27672 0.35885 0.6428 0.0
H623 H 0.31876 0.35232 0.60342 0.0
H624 H 0.41953 0.42506 0.59881 0.0
H625 H 0.38801 0.39519 0.60248 0.0
C626 C 0.92983 0.0268 0.88299 0.0
C627 C 0.95355 0.02735 0.87781 0.0
C628 C 0.91265 0.04327 0.87812 0.0
C629 C 0.90931 0.10358 0.862 0.0
H630 H 0.84154 0.08832 0.8575 0.0
C631 C 0.84086 0.17386 0.84202 0.0
C632 C 0.81883 0.17518 0.84925 0.0
C633 C 0.85677 0.15476 0.84443 0.0
C634 C 0.86039 0.09287 0.8588 0.0
H635 H 0.97742 0.04466 0.86287 0.0
H636 H 0.94739 0.07297 0.85422 0.0
H637 H 0.8701 0.05627 0.86326 0.0
H638 H 0.79606 0.15724 0.86453 0.0
H639 H 0.82392 0.12404 0.8688 0.0
H640 H 0.89965 0.14016 0.85768 0.0
C641 C 0.9422 0.06026 0.86229 0.0
C642 C 0.87675 0.07452 0.8621 0.0
C643 C 0.95938 0.04391 0.86719 0.0
C644 C 0.81291 0.15679 0.85879 0.0
C645 C 0.82879 0.13766 0.86117 0.0
C646 C 0.893 0.12188 0.85867 0.0
C647 C 0.9188 0.06055 0.86794 0.0
C648 C 0.90139 0.07969 0.86381 0.0
C649 C 0.85098 0.13651 0.8541 0.0
C650 C 0.86834 0.11678 0.85711 0.0
H651 H 0.92477 0.0143 0.8912 0.0
H652 H 0.89484 0.04309 0.88278 0.0
H653 H 0.92807 0.10832 0.86351 0.0
H654 H 0.84593 0.18766 0.83455 0.0
H655 H 0.87359 0.15424 0.83869 0.0
C656 C 0.90821 0.5524 0.61019 0.0
C657 C 0.92573 0.55923 0.60032 0.0
C658 C 0.88943 0.56808 0.6137 0.0
C659 C 0.85668 0.62246 0.60159 0.0
H660 H 0.84105 0.62967 0.64096 0.0
C661 C 0.80236 0.70297 0.62339 0.0
C662 C 0.78646 0.69883 0.63461 0.0
C663 C 0.81709 0.68444 0.61837 0.0
C664 C 0.84488 0.6276 0.6299 0.0
H665 H 0.93704 0.58777 0.58623 0.0
H666 H 0.90443 0.6152 0.59245 0.0
H667 H 0.87113 0.60018 0.63382 0.0
H668 H 0.77282 0.67169 0.64893 0.0
H669 H 0.79834 0.63931 0.64005 0.0
H670 H 0.83064 0.65018 0.59771 0.0
C671 C 0.90504 0.59761 0.59737 0.0
C672 C 0.86216 0.6107 0.62581 0.0
C673 C 0.92384 0.58194 0.59387 0.0
C674 C 0.78497 0.67553 0.64034 0.0
C675 C 0.79971 0.657 0.63531 0.0
C676 C 0.83937 0.63938 0.60569 0.0
C677 C 0.88773 0.59094 0.60741 0.0
C678 C 0.86844 0.60808 0.61162 0.0
C679 C 0.81624 0.66135 0.62443 0.0
C680 C 0.83343 0.64231 0.61991 0.0
H681 H 0.90906 0.53498 0.61531 0.0
H682 H 0.87621 0.56226 0.62133 0.0
H683 H 0.86084 0.62062 0.59056 0.0
H684 H 0.80397 0.7207 0.61873 0.0
H685 H 0.82977 0.68849 0.61007 0.0
C686 C 0.18667 0.15442 0.35095 0.0
C687 C 0.17696 0.17745 0.34851 0.0
C688 C 0.17157 0.1349 0.35395 0.0
C689 C 0.13756 0.10209 0.36985 0.0
H690 H 0.07358 0.09649 0.35382 0.0
C691 C 0.06143 0.05009 0.39708 0.0
C692 C 0.04404 0.03805 0.38897 0.0
C693 C 0.07936 0.06388 0.39069 0.0
C694 C 0.09152 0.0975 0.35825 0.0
H695 H 0.14375 0.19793 0.34697 0.0
H696 H 0.1175 0.16411 0.3525 0.0
H697 H 0.10148 0.12648 0.34462 0.0
H698 H 0.03246 0.03029 0.36774 0.0
H699 H 0.06408 0.05419 0.35655 0.0
H700 H 0.12767 0.07304 0.38342 0.0
C701 C 0.13673 0.16094 0.35185 0.0
C702 C 0.10742 0.11494 0.35311 0.0
C703 C 0.15181 0.18041 0.34877 0.0
C704 C 0.04553 0.03942 0.37429 0.0
C705 C 0.06356 0.05324 0.36788 0.0
C706 C 0.12172 0.08459 0.37495 0.0
C707 C 0.14643 0.138 0.35465 0.0
C708 C 0.13044 0.11782 0.35905 0.0
C709 C 0.08046 0.06594 0.37603 0.0
C710 C 0.0983 0.08245 0.36944 0.0
H711 H 0.20597 0.15149 0.3507 0.0
H712 H 0.17964 0.11741 0.35582 0.0
H713 H 0.15506 0.10386 0.37477 0.0
H714 H 0.06084 0.04944 0.40841 0.0
H715 H 0.09183 0.07367 0.39732 0.0
C716 C 0.6019 0.44403 0.1106 0.0
C717 C 0.58081 0.43512 0.10426 0.0
C718 C 0.62153 0.42877 0.11308 0.0
C719 C 0.64784 0.37014 0.10253 0.0
H720 H 0.67802 0.37186 0.13916 0.0
C721 C 0.70119 0.29042 0.12519 0.0
C722 C 0.72125 0.29497 0.13379 0.0
C723 C 0.68719 0.30939 0.12009 0.0
C724 C 0.67013 0.37142 0.12878 0.0
H725 H 0.56392 0.40326 0.09545 0.0
H726 H 0.59798 0.3767 0.09988 0.0
H727 H 0.64742 0.40169 0.13319 0.0
H728 H 0.74296 0.32312 0.14327 0.0
H729 H 0.71851 0.35634 0.13425 0.0
H730 H 0.67015 0.33955 0.09823 0.0
C731 C 0.5995 0.39552 0.10278 0.0
C732 C 0.65256 0.38851 0.12537 0.0
C733 C 0.57988 0.41072 0.10034 0.0
C734 C 0.72757 0.319 0.13671 0.0
C735 C 0.71348 0.33802 0.13162 0.0
C736 C 0.66542 0.35308 0.10593 0.0
C737 C 0.62051 0.40433 0.10922 0.0
C738 C 0.64085 0.38774 0.11232 0.0
C739 C 0.69289 0.33339 0.12346 0.0
C740 C 0.6764 0.35321 0.1192 0.0
H741 H 0.60322 0.46276 0.11371 0.0
H742 H 0.63754 0.43613 0.11797 0.0
H743 H 0.63948 0.36937 0.09228 0.0
H744 H 0.69583 0.27213 0.12272 0.0
H745 H 0.6713 0.30515 0.11397 0.0
C746 C 0.46262 0.95407 0.87164 0.0
C747 C 0.45886 0.97117 0.88229 0.0
C748 C 0.44358 0.93983 0.86681 0.0
C749 C 0.38577 0.91535 0.8788 0.0
H750 H 0.37918 0.89506 0.84011 0.0
C751 C 0.31117 0.84933 0.86155 0.0
C752 C 0.31833 0.83072 0.85246 0.0
C753 C 0.32649 0.86881 0.86421 0.0
C754 C 0.38088 0.90046 0.85097 0.0
H755 H 0.43187 0.98754 0.89571 0.0
H756 H 0.39861 0.9628 0.88717 0.0
H757 H 0.40909 0.92557 0.84628 0.0
H758 H 0.34701 0.81823 0.83882 0.0
H759 H 0.37384 0.85199 0.84362 0.0
H760 H 0.35801 0.88991 0.88357 0.0
C761 C 0.41638 0.96017 0.88273 0.0
C762 C 0.39798 0.91796 0.8545 0.0
C763 C 0.43542 0.97444 0.88756 0.0
C764 C 0.34094 0.83226 0.84588 0.0
C765 C 0.35626 0.85172 0.84855 0.0
C766 C 0.3687 0.89786 0.87528 0.0
C767 C 0.42036 0.94236 0.87251 0.0
C768 C 0.40083 0.92537 0.86848 0.0
C769 C 0.34931 0.87011 0.85785 0.0
C770 C 0.36627 0.88997 0.86136 0.0
H771 H 0.48044 0.9511 0.86734 0.0
H772 H 0.44732 0.92614 0.85902 0.0
H773 H 0.38775 0.92036 0.8897 0.0
H774 H 0.2938 0.84878 0.86672 0.0
H775 H 0.32045 0.88284 0.87127 0.0
C776 C 0.9142 0.44294 0.868 0.0
C777 C 0.923 0.44694 0.88161 0.0
C778 C 0.89677 0.42527 0.86552 0.0
C779 C 0.87216 0.36919 0.88049 0.0
H780 H 0.82169 0.37922 0.85298 0.0
C781 C 0.80056 0.29633 0.8682 0.0
C782 C 0.79647 0.29207 0.85388 0.0
C783 C 0.81382 0.31646 0.87254 0.0
C784 C 0.83574 0.37613 0.86065 0.0
H785 H 0.92001 0.43585 0.90335 0.0
H786 H 0.88939 0.40517 0.89902 0.0
H787 H 0.84891 0.41226 0.85884 0.0
H788 H 0.80258 0.30593 0.83291 0.0
H789 H 0.82569 0.34084 0.84045 0.0
H790 H 0.85917 0.33296 0.88216 0.0
C791 C 0.89623 0.41548 0.89024 0.0
C792 C 0.85136 0.39503 0.86399 0.0
C793 C 0.9137 0.43314 0.89272 0.0
C794 C 0.80541 0.30864 0.84402 0.0
C795 C 0.81853 0.32877 0.84835 0.0
C796 C 0.85649 0.3503 0.87717 0.0
C797 C 0.88769 0.41121 0.87659 0.0
C798 C 0.86999 0.39168 0.87379 0.0
C799 C 0.8231 0.3328 0.86264 0.0
C800 C 0.83835 0.35345 0.86705 0.0
H801 H 0.92102 0.45322 0.8592 0.0
H802 H 0.89085 0.42224 0.85486 0.0
H803 H 0.88649 0.3659 0.88796 0.0
H804 H 0.79387 0.28392 0.87606 0.0
H805 H 0.81685 0.31921 0.88363 0.0
C806 C 0.30871 0.15957 0.6211 0.0
C807 C 0.30603 0.16997 0.63443 0.0
C808 C 0.32609 0.1418 0.61876 0.0
C809 C 0.3834 0.11835 0.63278 0.0
H810 H 0.37015 0.06507 0.60764 0.0
C811 C 0.45496 0.04563 0.61967 0.0
C812 C 0.45746 0.04069 0.6053 0.0
C813 C 0.43528 0.05903 0.62456 0.0
C814 C 0.37414 0.07988 0.61466 0.0
H815 H 0.31928 0.16955 0.65582 0.0
H816 H 0.34947 0.13835 0.65175 0.0
H817 H 0.33795 0.09312 0.61369 0.0
H818 H 0.44089 0.04529 0.58487 0.0
H819 H 0.4068 0.06854 0.59336 0.0
H820 H 0.41971 0.10527 0.63356 0.0
C821 C 0.33833 0.14418 0.64306 0.0
C822 C 0.35571 0.09599 0.6181 0.0
C823 C 0.32095 0.16199 0.64541 0.0
C824 C 0.43956 0.0488 0.596 0.0
C825 C 0.41988 0.062 0.60089 0.0
C826 C 0.40183 0.10219 0.62936 0.0
C827 C 0.34117 0.13395 0.62969 0.0
C828 C 0.36023 0.11568 0.62699 0.0
C829 C 0.41764 0.06751 0.61519 0.0
C830 C 0.39751 0.08305 0.62005 0.0
H831 H 0.29756 0.16533 0.6124 0.0
H832 H 0.32804 0.13458 0.60828 0.0
H833 H 0.38757 0.13346 0.63955 0.0
H834 H 0.46845 0.03962 0.6271 0.0
H835 H 0.43392 0.06285 0.63566 0.0
C836 C 0.68941 0.71509 0.36936 0.0
C837 C 0.7117 0.70843 0.36352 0.0
C838 C 0.67285 0.69756 0.37354 0.0
C839 C 0.66574 0.63317 0.38247 0.0
H840 H 0.5997 0.64406 0.3707 0.0
C841 C 0.59159 0.55978 0.38634 0.0
C842 C 0.5684 0.56733 0.39035 0.0
C843 C 0.60969 0.5767 0.38359 0.0
C844 C 0.61797 0.64086 0.37424 0.0
H845 H 0.73446 0.67807 0.35802 0.0
H846 H 0.70542 0.64738 0.36531 0.0
H847 H 0.63037 0.67404 0.36542 0.0
H848 H 0.54618 0.59856 0.39488 0.0
H849 H 0.57775 0.62797 0.39029 0.0
H850 H 0.65324 0.59993 0.39131 0.0
C851 C 0.70085 0.66622 0.36668 0.0
C852 C 0.63557 0.65806 0.37121 0.0
C853 C 0.71744 0.6838 0.36247 0.0
C854 C 0.56379 0.59212 0.39171 0.0
C855 C 0.58188 0.60901 0.389 0.0
C856 C 0.64807 0.61595 0.38556 0.0
C857 C 0.67817 0.67293 0.37199 0.0
C858 C 0.65963 0.65447 0.37532 0.0
C859 C 0.605 0.60153 0.38481 0.0
C860 C 0.62395 0.61964 0.38151 0.0
H861 H 0.68444 0.73389 0.37042 0.0
H862 H 0.65572 0.70331 0.37783 0.0
H863 H 0.6841 0.62999 0.38587 0.0
H864 H 0.59573 0.5408 0.38518 0.0
H865 H 0.62722 0.57032 0.38023 0.0
C866 C 0.15723 0.81388 0.1387 0.0
C867 C 0.18221 0.81793 0.13816 0.0
C868 C 0.14106 0.83243 0.13566 0.0
C869 C 0.13593 0.8989 0.13248 0.0
H870 H 0.07817 0.88245 0.11167 0.0
C871 C 0.06781 0.96899 0.10976 0.0
C872 C 0.04327 0.9633 0.11145 0.0
C873 C 0.08566 0.95238 0.1136 0.0
C874 C 0.09412 0.8873 0.11759 0.0
H875 H 0.20982 0.84472 0.13407 0.0
H876 H 0.18152 0.87704 0.12845 0.0
H877 H 0.10769 0.8513 0.11687 0.0
H878 H 0.01832 0.93609 0.11905 0.0
H879 H 0.04935 0.90733 0.12568 0.0
H880 H 0.12226 0.93511 0.13295 0.0
C881 C 0.17444 0.8596 0.13146 0.0
C882 C 0.11103 0.86943 0.12061 0.0
C883 C 0.19066 0.84104 0.1346 0.0
C884 C 0.03702 0.94104 0.11751 0.0
C885 C 0.0548 0.92447 0.12124 0.0
C886 C 0.11902 0.91687 0.12935 0.0
C887 C 0.14943 0.85547 0.13188 0.0
C888 C 0.13201 0.8749 0.12824 0.0
C889 C 0.07927 0.92975 0.11909 0.0
C890 C 0.09781 0.91115 0.12203 0.0
H891 H 0.1501 0.79636 0.14153 0.0
H892 H 0.12193 0.82872 0.13638 0.0
H893 H 0.15178 0.90371 0.13848 0.0
H894 H 0.07322 0.98599 0.10515 0.0
H895 H 0.10441 0.9569 0.1118 0.0
C896 C 0.72346 0.8115 0.86495 0.0
C897 C 0.71646 0.78731 0.86659 0.0
C898 C 0.70833 0.83017 0.86941 0.0
C899 C 0.65512 0.8433 0.89174 0.0
H900 H 0.64451 0.89575 0.86557 0.0
C901 C 0.57176 0.90488 0.89458 0.0
C902 C 0.5748 0.9296 0.8919 0.0
C903 C 0.59078 0.88877 0.89254 0.0
C904 C 0.64752 0.88144 0.8731 0.0
H905 H 0.68845 0.76375 0.87465 0.0
H906 H 0.66211 0.79618 0.8823 0.0
H907 H 0.6752 0.86551 0.86053 0.0
H908 H 0.60032 0.95683 0.88507 0.0
H909 H 0.63357 0.92866 0.88153 0.0
H910 H 0.62709 0.85896 0.90416 0.0
C911 C 0.67935 0.8008 0.87769 0.0
C912 C 0.66514 0.86412 0.87022 0.0
C913 C 0.69441 0.78218 0.87321 0.0
C914 C 0.59735 0.93788 0.88719 0.0
C915 C 0.61638 0.92173 0.88511 0.0
C916 C 0.63749 0.86059 0.89461 0.0
C917 C 0.68594 0.82502 0.87566 0.0
C918 C 0.66888 0.84464 0.87939 0.0
C919 C 0.6133 0.89699 0.88775 0.0
C920 C 0.63322 0.87964 0.88521 0.0
H921 H 0.74036 0.81607 0.85993 0.0
H922 H 0.71405 0.84865 0.86786 0.0
H923 H 0.65783 0.82874 0.89913 0.0
H924 H 0.55462 0.89789 0.89821 0.0
H925 H 0.5877 0.86977 0.89448 0.0
C926 C 0.46572 0.4514 0.12282 0.0
C927 C 0.46105 0.47052 0.11353 0.0
C928 C 0.4471 0.43637 0.12734 0.0
C929 C 0.38764 0.41444 0.11644 0.0
H930 H 0.38523 0.38876 0.15421 0.0
C931 C 0.3139 0.3473 0.13382 0.0
C932 C 0.32173 0.32747 0.14179 0.0
C933 C 0.32934 0.36674 0.13127 0.0
C934 C 0.38576 0.39566 0.1436 0.0
H935 H 0.43298 0.48932 0.10208 0.0
H936 H 0.40038 0.46306 0.11004 0.0
H937 H 0.41483 0.4197 0.14834 0.0
H938 H 0.35181 0.31268 0.15351 0.0
H939 H 0.3788 0.3464 0.14892 0.0
H940 H 0.35895 0.39007 0.1116 0.0
C941 C 0.41855 0.45959 0.11369 0.0
C942 C 0.40269 0.4134 0.14024 0.0
C943 C 0.43719 0.47471 0.1092 0.0
C944 C 0.3452 0.32767 0.14734 0.0
C945 C 0.36063 0.3471 0.14478 0.0
C946 C 0.37074 0.39668 0.11979 0.0
C947 C 0.42335 0.44005 0.12267 0.0
C948 C 0.40404 0.42276 0.12658 0.0
C949 C 0.35295 0.36678 0.13663 0.0
C950 C 0.36981 0.38684 0.13336 0.0
H951 H 0.48389 0.44766 0.12637 0.0
H952 H 0.45147 0.42133 0.13412 0.0
H953 H 0.38844 0.42102 0.10577 0.0
H954 H 0.29588 0.34778 0.12945 0.0
H955 H 0.32276 0.38175 0.1251 0.0
C956 C 0.91326 0.06052 0.38787 0.0
C957 C 0.93426 0.06738 0.39509 0.0
C958 C 0.89548 0.07753 0.38469 0.0
C959 C 0.88674 0.1432 0.38048 0.0
H960 H 0.8188 0.12712 0.38279 0.0
C961 C 0.81303 0.21505 0.37348 0.0
C962 C 0.79361 0.20903 0.36468 0.0
C963 C 0.82931 0.19741 0.37787 0.0
C964 C 0.83771 0.1318 0.382 0.0
H965 H 0.95284 0.0974 0.40487 0.0
H966 H 0.92171 0.12695 0.39952 0.0
H967 H 0.84902 0.09702 0.3892 0.0
H968 H 0.77565 0.17958 0.35396 0.0
H969 H 0.80418 0.14875 0.36166 0.0
H970 H 0.87548 0.17795 0.3733 0.0
C971 C 0.91915 0.10852 0.39608 0.0
C972 C 0.85503 0.11456 0.38565 0.0
C973 C 0.93695 0.09154 0.39922 0.0
C974 C 0.79043 0.18483 0.36072 0.0
C975 C 0.80671 0.16714 0.36518 0.0
C976 C 0.86946 0.16043 0.37689 0.0
C977 C 0.89828 0.10177 0.38868 0.0
C978 C 0.87976 0.12007 0.38493 0.0
C979 C 0.82654 0.17332 0.37362 0.0
C980 C 0.84476 0.15494 0.37761 0.0
H981 H 0.91065 0.04205 0.38451 0.0
H982 H 0.87978 0.07177 0.37884 0.0
H983 H 0.90562 0.14791 0.37954 0.0
H984 H 0.81596 0.2335 0.37678 0.0
H985 H 0.84419 0.20267 0.38456 0.0
C986 C 0.18913 0.64911 0.64424 0.0
C987 C 0.17994 0.67154 0.64854 0.0
C988 C 0.17354 0.63014 0.64095 0.0
C989 C 0.13658 0.60075 0.62489 0.0
H990 H 0.07624 0.59077 0.64457 0.0
C991 C 0.05543 0.55394 0.59943 0.0
C992 C 0.04043 0.53926 0.60766 0.0
C993 C 0.07428 0.56688 0.60552 0.0
C994 C 0.09317 0.59304 0.63907 0.0
H995 H 0.14719 0.69138 0.65318 0.0
H996 H 0.12005 0.6585 0.64723 0.0
H997 H 0.10583 0.619 0.65394 0.0
H998 H 0.03389 0.5261 0.62873 0.0
H999 H 0.06704 0.54864 0.63938 0.0
H1000 H 0.12393 0.57484 0.61001 0.0
C1001 C 0.1393 0.65541 0.64658 0.0
C1002 C 0.11 0.60944 0.64435 0.0
C1003 C 0.15487 0.67435 0.64989 0.0
C1004 C 0.04508 0.53732 0.6221 0.0
C1005 C 0.06398 0.55032 0.62821 0.0
C1006 C 0.11978 0.58433 0.61962 0.0
C1007 C 0.14841 0.63318 0.64188 0.0
C1008 C 0.13169 0.61387 0.63716 0.0
C1009 C 0.07865 0.56544 0.62 0.0
C1010 C 0.09765 0.58069 0.62648 0.0
H1011 H 0.20837 0.64631 0.64318 0.0
H1012 H 0.18116 0.61314 0.63755 0.0
H1013 H 0.15301 0.60382 0.61902 0.0
H1014 H 0.05237 0.55587 0.58828 0.0
H1015 H 0.08497 0.57862 0.59891 0.0
C1016 C 0.59338 0.05628 0.60832 0.0
C1017 C 0.57407 0.06401 0.5999 0.0
C1018 C 0.61273 0.07167 0.61113 0.0
C1019 C 0.64291 0.12756 0.59904 0.0
H1020 H 0.66589 0.13039 0.63737 0.0
C1021 C 0.6995 0.20641 0.62098 0.0
C1022 C 0.71709 0.20135 0.63118 0.0
C1023 C 0.68466 0.1881 0.61581 0.0
C1024 C 0.66002 0.12955 0.62656 0.0
H1025 H 0.56013 0.09387 0.58765 0.0
H1026 H 0.59374 0.12083 0.5927 0.0
H1027 H 0.63475 0.1015 0.63106 0.0
H1028 H 0.73382 0.17282 0.64332 0.0
H1029 H 0.7081 0.14084 0.63417 0.0
H1030 H 0.66793 0.156 0.59463 0.0
C1031 C 0.59407 0.10276 0.59699 0.0
C1032 C 0.64212 0.11299 0.62294 0.0
C1033 C 0.57472 0.08735 0.59418 0.0
C1034 C 0.72033 0.17737 0.63556 0.0
C1035 C 0.70549 0.15906 0.63038 0.0
C1036 C 0.66084 0.14416 0.60266 0.0
C1037 C 0.61322 0.09516 0.60559 0.0
C1038 C 0.63317 0.11195 0.60918 0.0
C1039 C 0.68709 0.16431 0.62071 0.0
C1040 C 0.66943 0.1455 0.6165 0.0
H1041 H 0.59354 0.03836 0.61283 0.0
H1042 H 0.62734 0.06515 0.61764 0.0
H1043 H 0.63666 0.12697 0.5883 0.0
H1044 H 0.69654 0.22469 0.61736 0.0
H1045 H 0.67056 0.19282 0.60845 0.0
C1046 C 0.19412 0.34719 0.86357 0.0
C1047 C 0.18667 0.32931 0.85408 0.0
C1048 C 0.17926 0.36689 0.86651 0.0
C1049 C 0.12589 0.40067 0.85363 0.0
H1050 H 0.11884 0.4183 0.89272 0.0
C1051 C 0.04497 0.45456 0.87504 0.0
C1052 C 0.04889 0.47089 0.88607 0.0
C1053 C 0.06381 0.44031 0.86998 0.0
C1054 C 0.12089 0.41394 0.88172 0.0
H1055 H 0.15799 0.31838 0.83999 0.0
H1056 H 0.13193 0.35253 0.84528 0.0
H1057 H 0.14795 0.38755 0.88611 0.0
H1058 H 0.07598 0.48594 0.89994 0.0
H1059 H 0.10891 0.46114 0.89102 0.0
H1060 H 0.09834 0.42671 0.84932 0.0
C1061 C 0.14939 0.35152 0.85032 0.0
C1062 C 0.13759 0.39627 0.87793 0.0
C1063 C 0.16427 0.33183 0.84736 0.0
C1064 C 0.07231 0.47343 0.8915 0.0
C1065 C 0.09116 0.45913 0.88644 0.0
C1066 C 0.10914 0.41834 0.85743 0.0
C1067 C 0.1566 0.36915 0.86004 0.0
C1068 C 0.14007 0.38919 0.86386 0.0
C1069 C 0.087 0.44205 0.87583 0.0
C1070 C 0.10624 0.42494 0.87155 0.0
H1071 H 0.21136 0.34589 0.86886 0.0
H1072 H 0.1855 0.38033 0.8739 0.0
H1073 H 0.12763 0.3959 0.84267 0.0
H1074 H 0.02715 0.4522 0.87059 0.0
H1075 H 0.05993 0.42719 0.86188 0.0
C1076 C 0.90633 0.93539 0.10698 0.0
C1077 C 0.92403 0.92969 0.09698 0.0
C1078 C 0.88804 0.91893 0.11017 0.0
C1079 C 0.87487 0.85389 0.10875 0.0
H1080 H 0.80928 0.87411 0.11652 0.0
C1081 C 0.80019 0.78487 0.12016 0.0
C1082 C 0.78518 0.78984 0.13167 0.0
C1083 C 0.81552 0.80258 0.11481 0.0
C1084 C 0.82756 0.86823 0.11446 0.0
H1085 H 0.93596 0.90256 0.08215 0.0
H1086 H 0.90393 0.87402 0.08758 0.0
H1087 H 0.83913 0.90392 0.10914 0.0
H1088 H 0.77388 0.81761 0.14626 0.0
H1089 H 0.80082 0.8485 0.13697 0.0
H1090 H 0.86346 0.8183 0.1142 0.0
C1091 C 0.90442 0.89102 0.09315 0.0
C1092 C 0.84466 0.88529 0.11025 0.0
C1093 C 0.92271 0.90745 0.08998 0.0
C1094 C 0.78524 0.81318 0.13739 0.0
C1095 C 0.80059 0.83093 0.13203 0.0
C1096 C 0.8578 0.83686 0.11294 0.0
C1097 C 0.88704 0.89644 0.1034 0.0
C1098 C 0.86854 0.87832 0.1074 0.0
C1099 C 0.81621 0.82569 0.12084 0.0
C1100 C 0.83398 0.84383 0.1159 0.0
H1101 H 0.90683 0.95238 0.11256 0.0
H1102 H 0.87511 0.92357 0.11822 0.0
H1103 H 0.8932 0.84797 0.10691 0.0
H1104 H 0.80048 0.76712 0.11543 0.0
H1105 H 0.82704 0.7981 0.10603 0.0
C1106 C 0.45813 0.53893 0.37246 0.0
C1107 C 0.45631 0.52992 0.38618 0.0
C1108 C 0.44033 0.55419 0.36706 0.0
C1109 C 0.37842 0.57805 0.37372 0.0
H1110 H 0.40264 0.63396 0.35381 0.0
C1111 C 0.34825 0.68185 0.36075 0.0
C1112 C 0.32397 0.67845 0.35706 0.0
C1113 C 0.36352 0.6621 0.36263 0.0
C1114 C 0.39557 0.61851 0.3594 0.0
H1115 H 0.43382 0.52902 0.40477 0.0
H1116 H 0.4032 0.55598 0.39553 0.0
H1117 H 0.4302 0.60174 0.36021 0.0
H1118 H 0.29678 0.65162 0.35218 0.0
H1119 H 0.32359 0.61711 0.35523 0.0
H1120 H 0.34403 0.5955 0.37355 0.0
C1121 C 0.41811 0.55101 0.3888 0.0
C1122 C 0.41133 0.59982 0.3629 0.0
C1123 C 0.43579 0.53562 0.39415 0.0
C1124 C 0.31538 0.65484 0.3551 0.0
C1125 C 0.33072 0.63506 0.35691 0.0
C1126 C 0.36268 0.59684 0.37029 0.0
C1127 C 0.42041 0.56092 0.3753 0.0
C1128 C 0.40305 0.57952 0.37031 0.0
C1129 C 0.35496 0.63845 0.36078 0.0
C1130 C 0.37116 0.61751 0.36332 0.0
H1131 H 0.47361 0.53471 0.36599 0.0
H1132 H 0.44245 0.5611 0.35652 0.0
H1133 H 0.37135 0.56254 0.37925 0.0
H1134 H 0.35544 0.69978 0.36241 0.0
H1135 H 0.38195 0.66541 0.36586 0.0
C1136 C 0.43025 0.08989 0.09872 0.0
C1137 C 0.42861 0.06566 0.10293 0.0
C1138 C 0.41087 0.10559 0.10071 0.0
C1139 C 0.3574 0.11453 0.12264 0.0
H1140 H 0.34031 0.16179 0.09437 0.0
C1141 C 0.28103 0.18325 0.13181 0.0
C1142 C 0.28643 0.20718 0.12813 0.0
C1143 C 0.29586 0.16434 0.12738 0.0
C1144 C 0.34495 0.14879 0.1024 0.0
H1145 H 0.40521 0.03885 0.11238 0.0
H1146 H 0.37138 0.06636 0.11588 0.0
H1147 H 0.3713 0.1318 0.08932 0.0
H1148 H 0.31113 0.22994 0.11646 0.0
H1149 H 0.33708 0.19712 0.10892 0.0
H1150 H 0.33158 0.13186 0.13588 0.0
C1151 C 0.38773 0.07319 0.11111 0.0
C1152 C 0.36269 0.13161 0.0995 0.0
C1153 C 0.40708 0.05743 0.10906 0.0
C1154 C 0.30644 0.21171 0.11949 0.0
C1155 C 0.32127 0.19284 0.11508 0.0
C1156 C 0.33973 0.13176 0.12556 0.0
C1157 C 0.38945 0.09746 0.107 0.0
C1158 C 0.36935 0.11453 0.10966 0.0
C1159 C 0.31641 0.16897 0.11917 0.0
C1160 C 0.33354 0.14932 0.11556 0.0
H1161 H 0.44656 0.09681 0.09396 0.0
H1162 H 0.41286 0.12427 0.09759 0.0
H1163 H 0.36233 0.10178 0.13074 0.0
H1164 H 0.26567 0.17912 0.13839 0.0
H1165 H 0.2914 0.14612 0.13053 0.0
C1166 C 0.53764 0.541 0.86992 0.0
C1167 C 0.54335 0.52483 0.88076 0.0
C1168 C 0.55515 0.55645 0.86448 0.0
C1169 C 0.62095 0.56848 0.86306 0.0
H1170 H 0.59993 0.63464 0.85815 0.0
C1171 C 0.68682 0.64897 0.85779 0.0
C1172 C 0.68063 0.66751 0.8484 0.0
C1173 C 0.67078 0.63007 0.86044 0.0
C1174 C 0.60605 0.61619 0.85926 0.0
H1175 H 0.57223 0.51146 0.89397 0.0
H1176 H 0.60277 0.53872 0.88461 0.0
H1177 H 0.57085 0.60402 0.8649 0.0
H1178 H 0.65305 0.6803 0.83409 0.0
H1179 H 0.62519 0.64726 0.83863 0.0
H1180 H 0.65633 0.58093 0.85764 0.0
C1181 C 0.58478 0.53927 0.88021 0.0
C1182 C 0.58935 0.5986 0.86311 0.0
C1183 C 0.56725 0.52371 0.88562 0.0
C1184 C 0.65832 0.66641 0.84146 0.0
C1185 C 0.64229 0.64753 0.84411 0.0
C1186 C 0.6377 0.58614 0.85921 0.0
C1187 C 0.57878 0.55621 0.8698 0.0
C1188 C 0.59659 0.57454 0.86511 0.0
C1189 C 0.6482 0.62931 0.85376 0.0
C1190 C 0.63043 0.61022 0.85732 0.0
H1191 H 0.51945 0.54216 0.86583 0.0
H1192 H 0.55005 0.56891 0.85625 0.0
H1193 H 0.62706 0.55007 0.86437 0.0
H1194 H 0.70388 0.64927 0.86331 0.0
H1195 H 0.67578 0.61645 0.86804 0.0
C1196 C 0.21919 0.81146 0.6361 0.0
C1197 C 0.21518 0.78681 0.6336 0.0
C1198 C 0.20276 0.82873 0.63128 0.0
C1199 C 0.13877 0.83411 0.62158 0.0
H1200 H 0.1575 0.89681 0.60728 0.0
C1201 C 0.0686 0.90176 0.60083 0.0
C1202 C 0.07138 0.92591 0.60497 0.0
C1203 C 0.08693 0.885 0.60327 0.0
C1204 C 0.152 0.87944 0.61136 0.0
H1205 H 0.19145 0.76107 0.62343 0.0
H1206 H 0.16311 0.79114 0.61489 0.0
H1207 H 0.18853 0.86719 0.61316 0.0
H1208 H 0.09579 0.95148 0.61472 0.0
H1209 H 0.12765 0.92216 0.61909 0.0
H1210 H 0.10233 0.84634 0.61996 0.0
C1211 C 0.17863 0.79712 0.62083 0.0
C1212 C 0.16977 0.86248 0.61472 0.0
C1213 C 0.19498 0.77989 0.62566 0.0
C1214 C 0.09306 0.93301 0.6114 0.0
C1215 C 0.1114 0.91624 0.61383 0.0
C1216 C 0.12105 0.85102 0.61823 0.0
C1217 C 0.18202 0.82168 0.62385 0.0
C1218 C 0.16333 0.83963 0.61988 0.0
C1219 C 0.10846 0.89199 0.6099 0.0
C1220 C 0.12744 0.8739 0.61311 0.0
H1221 H 0.23456 0.81739 0.64219 0.0
H1222 H 0.20582 0.8475 0.63386 0.0
H1223 H 0.13319 0.81687 0.62581 0.0
H1224 H 0.05218 0.89572 0.59579 0.0
H1225 H 0.08424 0.86653 0.59993 0.0
C1226 C 0.93105 0.47927 0.38468 0.0
C1227 C 0.95463 0.47613 0.37961 0.0
C1228 C 0.91227 0.46473 0.37979 0.0
C1229 C 0.89488 0.42142 0.35189 0.0
H1230 H 0.85563 0.39318 0.38123 0.0
C1231 C 0.84016 0.3339 0.34423 0.0
C1232 C 0.81773 0.33185 0.35096 0.0
C1233 C 0.85489 0.35393 0.3466 0.0
C1234 C 0.8661 0.40118 0.37286 0.0
H1235 H 0.97671 0.45615 0.36486 0.0
H1236 H 0.94402 0.43072 0.35644 0.0
H1237 H 0.88453 0.42456 0.38707 0.0
H1238 H 0.7928 0.34964 0.3651 0.0
H1239 H 0.81838 0.38468 0.36911 0.0
H1240 H 0.8767 0.39762 0.33773 0.0
C1241 C 0.93998 0.44449 0.36413 0.0
C1242 C 0.88268 0.41921 0.37621 0.0
C1243 C 0.95877 0.459 0.36902 0.0
C1244 C 0.81007 0.35056 0.35984 0.0
C1245 C 0.82478 0.37061 0.36218 0.0
C1246 C 0.87823 0.40339 0.34853 0.0
C1247 C 0.91665 0.44679 0.36971 0.0
C1248 C 0.8975 0.42931 0.36581 0.0
C1249 C 0.84749 0.3724 0.35573 0.0
C1250 C 0.86389 0.39282 0.35902 0.0
H1251 H 0.92721 0.49241 0.39277 0.0
H1252 H 0.89439 0.4672 0.38413 0.0
H1253 H 0.90582 0.42907 0.34361 0.0
H1254 H 0.84659 0.31981 0.33732 0.0
H1255 H 0.8724 0.35458 0.34159 0.0
C1256 C 0.28736 0.81857 0.35919 0.0
C1257 C 0.28972 0.79465 0.36388 0.0
C1258 C 0.30349 0.83634 0.36371 0.0
C1259 C 0.36536 0.84245 0.37686 0.0
H1260 H 0.3462 0.9078 0.38603 0.0
C1261 C 0.43393 0.91202 0.39717 0.0
C1262 C 0.43219 0.93561 0.39191 0.0
C1263 C 0.41569 0.89523 0.39458 0.0
C1264 C 0.35186 0.88968 0.38336 0.0
H1265 H 0.31025 0.77087 0.37746 0.0
H1266 H 0.33819 0.80185 0.38537 0.0
H1267 H 0.31545 0.87787 0.38022 0.0
H1268 H 0.4098 0.96017 0.37991 0.0
H1269 H 0.37818 0.93074 0.37517 0.0
H1270 H 0.4017 0.8542 0.37972 0.0
C1271 C 0.32411 0.8068 0.37804 0.0
C1272 C 0.33424 0.87255 0.38006 0.0
C1273 C 0.30799 0.78908 0.37357 0.0
C1274 C 0.41168 0.94214 0.38413 0.0
C1275 C 0.39347 0.9253 0.38149 0.0
C1276 C 0.38294 0.85956 0.38009 0.0
C1277 C 0.32234 0.83052 0.37297 0.0
C1278 C 0.34081 0.84874 0.37678 0.0
C1279 C 0.39533 0.9016 0.38661 0.0
C1280 C 0.37644 0.8834 0.38338 0.0
H1281 H 0.27348 0.82346 0.35173 0.0
H1282 H 0.30174 0.85442 0.35955 0.0
H1283 H 0.37105 0.82438 0.37411 0.0
H1284 H 0.4494 0.90645 0.40329 0.0
H1285 H 0.41752 0.87726 0.39889 0.0
C1286 C 0.95645 0.54327 0.1279 0.0
C1287 C 0.95315 0.52595 0.11732 0.0
C1288 C 0.93724 0.5577 0.13229 0.0
C1289 C 0.88015 0.58211 0.11907 0.0
H1290 H 0.87224 0.60403 0.15737 0.0
C1291 C 0.80577 0.64983 0.13467 0.0
C1292 C 0.81301 0.66869 0.14356 0.0
C1293 C 0.82092 0.63007 0.13234 0.0
C1294 C 0.87431 0.59816 0.14661 0.0
H1295 H 0.92678 0.50933 0.10359 0.0
H1296 H 0.8932 0.53438 0.11137 0.0
H1297 H 0.90198 0.5729 0.15204 0.0
H1298 H 0.84166 0.6814 0.15716 0.0
H1299 H 0.86814 0.64715 0.15298 0.0
H1300 H 0.8529 0.6077 0.11357 0.0
C1301 C 0.91075 0.53706 0.11609 0.0
C1302 C 0.89131 0.58031 0.14357 0.0
C1303 C 0.92997 0.52261 0.1117 0.0
C1304 C 0.83553 0.66718 0.15024 0.0
C1305 C 0.85065 0.64744 0.14793 0.0
C1306 C 0.86316 0.59994 0.12211 0.0
C1307 C 0.91429 0.55512 0.12621 0.0
C1308 C 0.89469 0.57235 0.12973 0.0
C1309 C 0.8436 0.62873 0.13888 0.0
C1310 C 0.8603 0.60844 0.13588 0.0
H1311 H 0.97407 0.54632 0.13246 0.0
H1312 H 0.94066 0.57158 0.14001 0.0
H1313 H 0.88255 0.57667 0.10826 0.0
H1314 H 0.78847 0.65037 0.12941 0.0
H1315 H 0.81485 0.61583 0.12544 0.0
C1316 C 0.19363 0.21114 0.87455 0.0
C1317 C 0.21242 0.20594 0.86514 0.0
C1318 C 0.17738 0.19322 0.87856 0.0
C1319 C 0.1676 0.12743 0.87997 0.0
H1320 H 0.10008 0.1455 0.87884 0.0
C1321 C 0.08987 0.0578 0.88342 0.0
C1322 C 0.06922 0.06451 0.89102 0.0
C1323 C 0.10826 0.0745 0.88091 0.0
C1324 C 0.11885 0.14021 0.87941 0.0
H1325 H 0.2294 0.17757 0.853 0.0
H1326 H 0.20089 0.14625 0.86001 0.0
H1327 H 0.13079 0.17548 0.87364 0.0
H1328 H 0.05203 0.0938 0.90229 0.0
H1329 H 0.08419 0.12272 0.89812 0.0
H1330 H 0.15557 0.09209 0.88575 0.0
C1331 C 0.19884 0.16421 0.8643 0.0
C1332 C 0.13646 0.15741 0.87642 0.0
C1333 C 0.21511 0.18219 0.86024 0.0
C1334 C 0.06759 0.08809 0.89629 0.0
C1335 C 0.08599 0.10473 0.89383 0.0
C1336 C 0.14994 0.11019 0.88303 0.0
C1337 C 0.17954 0.16967 0.8733 0.0
C1338 C 0.16102 0.15125 0.87668 0.0
C1339 C 0.10642 0.09824 0.88598 0.0
C1340 C 0.12535 0.11641 0.8828 0.0
H1341 H 0.19112 0.22921 0.8786 0.0
H1342 H 0.16292 0.19788 0.8857 0.0
H1343 H 0.1864 0.12221 0.88036 0.0
H1344 H 0.09166 0.03975 0.87921 0.0
H1345 H 0.12364 0.06898 0.8747 0.0
C1346 C 0.53329 0.44169 0.62424 0.0
C1347 C 0.53889 0.46197 0.61603 0.0
C1348 C 0.55149 0.42629 0.62895 0.0
C1349 C 0.61319 0.40729 0.62002 0.0
H1350 H 0.6094 0.37394 0.65567 0.0
C1351 C 0.68555 0.33894 0.63804 0.0
C1352 C 0.67672 0.31713 0.64353 0.0
C1353 C 0.67001 0.35838 0.6357 0.0
C1354 C 0.61063 0.38305 0.64565 0.0
H1355 H 0.56815 0.48262 0.60689 0.0
H1356 H 0.59998 0.45593 0.61531 0.0
H1357 H 0.58026 0.40553 0.65018 0.0
H1358 H 0.64471 0.29876 0.65106 0.0
H1359 H 0.61763 0.33264 0.64695 0.0
H1360 H 0.64343 0.38464 0.61546 0.0
C1361 C 0.58144 0.45167 0.61787 0.0
C1362 C 0.59394 0.40113 0.6425 0.0
C1363 C 0.5632 0.46705 0.61311 0.0
C1364 C 0.65209 0.31529 0.6468 0.0
C1365 C 0.63659 0.33476 0.64455 0.0
C1366 C 0.62995 0.3893 0.62321 0.0
C1367 C 0.57576 0.43086 0.62562 0.0
C1368 C 0.59478 0.41321 0.62955 0.0
C1369 C 0.64535 0.35647 0.6389 0.0
C1370 C 0.62862 0.37673 0.63596 0.0
H1371 H 0.51475 0.43722 0.62668 0.0
H1372 H 0.54641 0.4103 0.63475 0.0
H1373 H 0.61417 0.41594 0.60986 0.0
H1374 H 0.70445 0.34098 0.63544 0.0
H1375 H 0.67731 0.37495 0.63145 0.0
C1376 C 0.25388 0.29671 0.19633 0.0
C1377 C 0.25734 0.27884 0.18609 0.0
C1378 C 0.25262 0.29051 0.2105 0.0
C1379 C 0.26897 0.24222 0.23543 0.0
H1380 H 0.22085 0.27234 0.25912 0.0
C1381 C 0.24822 0.20834 0.29131 0.0
C1382 C 0.2446 0.22587 0.30172 0.0
C1383 C 0.25006 0.21501 0.27724 0.0
C1384 C 0.23456 0.26397 0.25268 0.0
H1385 H 0.26214 0.24044 0.1827 0.0
H1386 H 0.2597 0.22965 0.20738 0.0
H1387 H 0.22361 0.28372 0.2345 0.0
H1388 H 0.24018 0.2642 0.30552 0.0
H1389 H 0.24356 0.27583 0.28098 0.0
H1390 H 0.27987 0.22241 0.2536 0.0
C1391 C 0.25828 0.24848 0.20448 0.0
C1392 C 0.23615 0.2705 0.23858 0.0
C1393 C 0.25954 0.25467 0.19032 0.0
C1394 C 0.24289 0.25023 0.29776 0.0
C1395 C 0.24469 0.25689 0.28369 0.0
C1396 C 0.26737 0.23569 0.24953 0.0
C1397 C 0.2548 0.26632 0.21474 0.0
C1398 C 0.25334 0.25966 0.22978 0.0
C1399 C 0.24829 0.23936 0.27327 0.0
C1400 C 0.25012 0.24645 0.25831 0.0
H1401 H 0.25219 0.31551 0.19341 0.0
H1402 H 0.25021 0.30471 0.21816 0.0
H1403 H 0.28267 0.23382 0.22898 0.0
H1404 H 0.24957 0.18942 0.29401 0.0
H1405 H 0.25253 0.20105 0.26944 0.0
C1406 C 0.04492 0.98609 0.54896 0.0
C1407 C 0.02809 0.99147 0.55951 0.0
C1408 C 0.03846 0.98778 0.53484 0.0
C1409 C 0.99486 0.01663 0.5111 0.0
H1410 H 0.01352 0.96587 0.48536 0.0
C1411 C 0.95914 0.01256 0.45436 0.0
C1412 C 0.97554 0.00582 0.44385 0.0
C1413 C 0.96544 0.01066 0.46849 0.0
C1414 C 0.00842 0.98034 0.49238 0.0
H1415 H 0.99133 0.00295 0.56352 0.0
H1416 H 0.98012 0.00592 0.53888 0.0
H1417 H 0.02496 0.96305 0.50998 0.0
H1418 H 0.01148 0.99188 0.43994 0.0
H1419 H 0.02257 0.9889 0.46456 0.0
H1420 H 0.97849 0.03405 0.49351 0.0
C1421 C 0.99833 0.00053 0.54153 0.0
C1422 C 0.01495 0.9787 0.50648 0.0
C1423 C 0.00473 0.9987 0.55565 0.0
C1424 C 0.99837 0.99712 0.44778 0.0
C1425 C 0.00469 0.99528 0.4619 0.0
C1426 C 0.98841 0.01832 0.49699 0.0
C1427 C 0.01511 0.99503 0.53098 0.0
C1428 C 0.00824 0.99682 0.51599 0.0
C1429 C 0.98831 0.00204 0.47243 0.0
C1430 C 0.9951 0.00019 0.48746 0.0
H1431 H 0.06306 0.98047 0.55159 0.0
H1432 H 0.05185 0.98368 0.52693 0.0
H1433 H 0.98971 0.03103 0.51815 0.0
H1434 H 0.94138 0.01925 0.45169 0.0
H1435 H 0.95228 0.0157 0.47634 0.0
C1436 C 0.24692 0.7347 0.70047 0.0
C1437 C 0.23137 0.74867 0.69214 0.0
C1438 C 0.24909 0.73924 0.7148 0.0
C1439 C 0.2407 0.78618 0.74142 0.0
H1440 H 0.2383 0.73239 0.76735 0.0
C1441 C 0.23543 0.79997 0.80129 0.0
C1442 C 0.2485 0.78396 0.8098 0.0
C1443 C 0.23335 0.79583 0.7869 0.0
C1444 C 0.23935 0.7476 0.76026 0.0
H1445 H 0.20614 0.77857 0.69228 0.0
H1446 H 0.21008 0.78657 0.71733 0.0
H1447 H 0.23502 0.72498 0.74226 0.0
H1448 H 0.2699 0.75122 0.80989 0.0
H1449 H 0.26675 0.74431 0.78478 0.0
H1450 H 0.24537 0.8088 0.75935 0.0
C1451 C 0.22059 0.77213 0.71274 0.0
C1452 C 0.2374 0.74333 0.74589 0.0
C1453 C 0.21825 0.76746 0.69842 0.0
C1454 C 0.25957 0.76382 0.80363 0.0
C1455 C 0.25764 0.75978 0.78923 0.0
C1456 C 0.24283 0.79044 0.75579 0.0
C1457 C 0.23592 0.75797 0.72108 0.0
C1458 C 0.23804 0.76257 0.73633 0.0
C1459 C 0.24443 0.77568 0.78069 0.0
C1460 C 0.24217 0.7712 0.76539 0.0
H1461 H 0.25732 0.72011 0.69595 0.0
H1462 H 0.26125 0.72821 0.72096 0.0
H1463 H 0.24153 0.80132 0.73426 0.0
H1464 H 0.22658 0.81559 0.80575 0.0
H1465 H 0.22274 0.80826 0.78068 0.0
C1466 C 0.46135 0.01502 0.04524 0.0
C1467 C 0.47755 0.00854 0.05591 0.0
C1468 C 0.46781 0.01253 0.03117 0.0
C1469 C 0.50949 0.97966 0.00803 0.0
H1470 H 0.49282 0.02949 0.98121 0.0
C1471 C 0.54478 0.97943 0.95111 0.0
C1472 C 0.52855 0.98628 0.94053 0.0
C1473 C 0.53855 0.98194 0.96522 0.0
C1474 C 0.49735 0.01528 0.98854 0.0
H1475 H 0.51338 0.99463 0.0602 0.0
H1476 H 0.5247 0.99047 0.03563 0.0
H1477 H 0.4822 0.03464 0.00581 0.0
H1478 H 0.49289 0.00079 0.93644 0.0
H1479 H 0.48194 0.00489 0.96105 0.0
H1480 H 0.52459 0.96027 0.99075 0.0
C1481 C 0.50689 0.99719 0.03815 0.0
C1482 C 0.49129 0.01825 0.00263 0.0
C1483 C 0.50044 -0.00029 0.05223 0.0
C1484 C 0.50585 0.99544 0.94434 0.0
C1485 C 0.49963 0.99793 0.95844 0.0
C1486 C 0.51553 0.97668 0.99393 0.0
C1487 C 0.49061 0.0035 0.02748 0.0
C1488 C 0.49728 0.00046 0.01253 0.0
C1489 C 0.51595 0.99133 0.96904 0.0
C1490 C 0.50951 0.99445 0.98402 0.0
H1491 H 0.44356 0.02184 0.04772 0.0
H1492 H 0.45477 0.01729 0.02319 0.0
H1493 H 0.51402 0.96546 0.01536 0.0
H1494 H 0.56243 0.97237 0.94853 0.0
H1495 H 0.55163 0.97694 0.97313 0.0
C1496 C 0.2889 0.74945 0.29945 0.0
C1497 C 0.26995 0.74349 0.30858 0.0
C1498 C 0.28448 0.75312 0.28519 0.0
C1499 C 0.24042 0.73869 0.25746 0.0
H1500 H 0.27254 0.79005 0.23717 0.0
C1501 C 0.21594 0.76279 0.20041 0.0
C1502 C 0.23523 0.76729 0.19124 0.0
C1503 C 0.21996 0.76054 0.21481 0.0
C1504 C 0.26361 0.77549 0.24267 0.0
H1505 H 0.23141 0.73711 0.30995 0.0
H1506 H 0.2237 0.74377 0.28514 0.0
H1507 H 0.27999 0.78505 0.2622 0.0
H1508 H 0.27387 0.77311 0.18998 0.0
H1509 H 0.28087 0.76904 0.21508 0.0
H1510 H 0.22407 0.7291 0.23794 0.0
C1511 C 0.24204 0.74523 0.28894 0.0
C1512 C 0.26788 0.77262 0.25701 0.0
C1513 C 0.24645 0.74155 0.30318 0.0
C1514 C 0.2586 0.76968 0.19677 0.0
C1515 C 0.26261 0.76749 0.21116 0.0
C1516 C 0.23613 0.74158 0.24315 0.0
C1517 C 0.26101 0.75091 0.27977 0.0
C1518 C 0.25636 0.75416 0.26456 0.0
C1519 C 0.24335 0.76281 0.22033 0.0
C1520 C 0.2477 0.75999 0.23559 0.0
H1521 H 0.30722 0.75105 0.30327 0.0
H1522 H 0.29954 0.75722 0.27837 0.0
H1523 H 0.23157 0.72404 0.26292 0.0
H1524 H 0.19771 0.76092 0.1965 0.0
H1525 H 0.20471 0.75722 0.22163 0.0
C1526 C 0.45994 0.98864 0.44996 0.0
C1527 C 0.47623 0.99481 0.43928 0.0
C1528 C 0.46724 0.98879 0.46397 0.0
C1529 C 0.51401 0.01316 0.48767 0.0
H1530 H 0.49176 0.96243 0.51248 0.0
C1531 C 0.54894 0.00258 0.54444 0.0
C1532 C 0.5312 0.99859 0.55469 0.0
C1533 C 0.5431 0.00132 0.53021 0.0
C1534 C 0.49799 0.9768 0.50569 0.0
H1535 H 0.51298 0.00596 0.43491 0.0
H1536 H 0.52577 0.0059 0.45931 0.0
H1537 H 0.47973 0.96208 0.48791 0.0
H1538 H 0.49348 0.98981 0.55804 0.0
H1539 H 0.48337 0.98763 0.53327 0.0
H1540 H 0.5323 0.02782 0.5055 0.0
C1541 C 0.50725 0.00131 0.4569 0.0
C1542 C 0.49105 0.97665 0.49163 0.0
C1543 C 0.49994 0.00124 0.4429 0.0
C1544 C 0.5076 0.99297 0.55042 0.0
C1545 C 0.50181 0.99158 0.53622 0.0
C1546 C 0.52103 0.01325 0.50173 0.0
C1547 C 0.49101 0.99502 0.4676 0.0
C1548 C 0.49883 0.99492 0.48248 0.0
C1549 C 0.51945 0.99588 0.52596 0.0
C1550 C 0.51294 0.99517 0.5109 0.0
H1551 H 0.44152 0.98369 0.44752 0.0
H1552 H 0.45417 0.98423 0.47197 0.0
H1553 H 0.52006 0.02768 0.48095 0.0
H1554 H 0.56729 0.00694 0.5474 0.0
H1555 H 0.55711 0.00451 0.52252 0.0
C1556 C 0.27294 0.29711 0.80354 0.0
C1557 C 0.25808 0.28195 0.81157 0.0
C1558 C 0.27553 0.29334 0.78915 0.0
C1559 C 0.26666 0.24688 0.76166 0.0
H1560 H 0.26998 0.30165 0.73645 0.0
C1561 C 0.2576 0.2376 0.70176 0.0
C1562 C 0.27434 0.25032 0.69354 0.0
C1563 C 0.2562 0.24159 0.71618 0.0
C1564 C 0.2693 0.2862 0.74339 0.0
H1565 H 0.23404 0.25113 0.81078 0.0
H1566 H 0.23804 0.24494 0.78566 0.0
H1567 H 0.26623 0.30841 0.76161 0.0
H1568 H 0.30258 0.27738 0.69398 0.0
H1569 H 0.29996 0.28447 0.7192 0.0
H1570 H 0.26926 0.22472 0.74336 0.0
C1571 C 0.24818 0.25939 0.7905 0.0
C1572 C 0.26721 0.29005 0.75781 0.0
C1573 C 0.24576 0.26304 0.8049 0.0
C1574 C 0.28952 0.26727 0.70003 0.0
C1575 C 0.28795 0.27142 0.71444 0.0
C1576 C 0.26854 0.24306 0.74725 0.0
C1577 C 0.26316 0.27444 0.78244 0.0
C1578 C 0.26579 0.27042 0.76712 0.0
C1579 C 0.27135 0.25853 0.72266 0.0
C1580 C 0.26981 0.26267 0.73797 0.0
H1581 H 0.28279 0.31176 0.80839 0.0
H1582 H 0.28748 0.30506 0.78331 0.0
H1583 H 0.26611 0.23135 0.76853 0.0
H1584 H 0.24564 0.22442 0.69709 0.0
H1585 H 0.24306 0.23159 0.72224 0.0
C1586 C 0.01425 0.99254 0.94203 0.0
C1587 C 0.00075 0.01079 0.93547 0.0
C1588 C 0.01345 0.9896 0.95654 0.0
C1589 C 0.97681 0.00337 0.98771 0.0
H1590 H 0.03646 0.99099 0.00769 0.0
C1591 C 0.98181 0.00324 0.04803 0.0
C1592 C 0.99555 0.98493 0.05437 0.0
C1593 C 0.98267 0.00678 0.03356 0.0
C1594 C 0.01962 0.99418 0.00225 0.0
H1595 H 0.97561 0.04012 0.93901 0.0
H1596 H 0.9743 0.03504 0.96441 0.0
H1597 H 0.0372 0.99638 0.98234 0.0
H1598 H 0.02114 0.95613 0.05048 0.0
H1599 H 0.02247 0.96218 0.02518 0.0
H1600 H 0.95921 0.00109 0.00761 0.0
C1601 C 0.98537 0.02289 0.95828 0.0
C1602 C 0.02004 0.99727 0.98773 0.0
C1603 C 0.9862 0.02587 0.94374 0.0
C1604 C 0.01038 0.97042 0.04593 0.0
C1605 C 0.01123 0.97396 0.03144 0.0
C1606 C 0.97639 0.00025 0.00223 0.0
C1607 C 0.9991 0.00481 0.96484 0.0
C1608 C 0.99864 0.00184 0.98029 0.0
C1609 C 0.99728 0.99211 0.02509 0.0
C1610 C 0.99778 0.99559 0.00966 0.0
H1611 H 0.02559 0.98054 0.93597 0.0
H1612 H 0.02394 0.97526 0.96125 0.0
H1613 H 0.95998 0.00654 0.98226 0.0
H1614 H 0.97027 0.01482 0.05423 0.0
H1615 H 0.97199 0.02115 0.02902 0.0
C1616 C 0.73641 0.7909 0.6986 0.0
C1617 C 0.74974 0.77497 0.69019 0.0
C1618 C 0.73513 0.7875 0.71308 0.0
C1619 C 0.74329 0.74107 0.74047 0.0
H1620 H 0.7447 0.79628 0.76538 0.0
C1621 C 0.74888 0.73142 0.80061 0.0
C1622 C 0.73332 0.74615 0.80848 0.0
C1623 C 0.75164 0.73512 0.78622 0.0
C1624 C 0.74409 0.78071 0.75854 0.0
H1625 H 0.77243 0.7431 0.69038 0.0
H1626 H 0.77053 0.7374 0.71568 0.0
H1627 H 0.74834 0.80237 0.74016 0.0
H1628 H 0.70867 0.77648 0.80743 0.0
H1629 H 0.71351 0.7829 0.78231 0.0
H1630 H 0.73915 0.71943 0.75888 0.0
C1631 C 0.7607 0.75229 0.71106 0.0
C1632 C 0.74614 0.78419 0.7441 0.0
C1633 C 0.7619 0.75563 0.69657 0.0
C1634 C 0.72079 0.76481 0.80168 0.0
C1635 C 0.72366 0.76859 0.7873 0.0
C1636 C 0.74136 0.73759 0.75492 0.0
C1637 C 0.74725 0.76815 0.71949 0.0
C1638 C 0.74564 0.76442 0.73488 0.0
C1639 C 0.73902 0.75371 0.77941 0.0
C1640 C 0.74162 0.75738 0.7641 0.0
H1641 H 0.72675 0.80592 0.69401 0.0
H1642 H 0.72431 0.79984 0.71922 0.0
H1643 H 0.74246 0.72548 0.73366 0.0
H1644 H 0.75884 0.71692 0.80554 0.0
H1645 H 0.7638 0.72353 0.78044 0.0
C1646 C 0.71532 0.27313 0.1985 0.0
C1647 C 0.7275 0.25366 0.19229 0.0
C1648 C 0.71689 0.27707 0.21294 0.0
C1649 C 0.73009 0.24613 0.24612 0.0
H1650 H 0.74245 0.31047 0.2603 0.0
C1651 C 0.75548 0.26338 0.30375 0.0
C1652 C 0.74597 0.28397 0.3103 0.0
C1653 C 0.75248 0.25983 0.28938 0.0
C1654 C 0.73865 0.29244 0.25653 0.0
H1655 H 0.75085 0.22302 0.19634 0.0
H1656 H 0.75352 0.22991 0.2215 0.0
H1657 H 0.73831 0.30405 0.23513 0.0
H1658 H 0.72564 0.31688 0.30693 0.0
H1659 H 0.72003 0.31047 0.28188 0.0
H1660 H 0.73026 0.23447 0.26748 0.0
C1661 C 0.74265 0.24203 0.21523 0.0
C1662 C 0.73633 0.28879 0.24211 0.0
C1663 C 0.74123 0.23819 0.2008 0.0
C1664 C 0.73329 0.30088 0.30218 0.0
C1665 C 0.73019 0.29727 0.28781 0.0
C1666 C 0.73228 0.2498 0.26054 0.0
C1667 C 0.73052 0.26151 0.22145 0.0
C1668 C 0.73221 0.26556 0.23676 0.0
C1669 C 0.73979 0.27673 0.28123 0.0
C1670 C 0.73676 0.27297 0.26591 0.0
H1671 H 0.7046 0.28538 0.19223 0.0
H1672 H 0.7072 0.29212 0.21747 0.0
H1673 H 0.72655 0.22808 0.2423 0.0
H1674 H 0.76544 0.25006 0.30971 0.0
H1675 H 0.76044 0.244 0.28462 0.0
C1676 C 0.74719 0.19481 0.79722 0.0
C1677 C 0.74529 0.21373 0.80695 0.0
C1678 C 0.74307 0.19902 0.78297 0.0
C1679 C 0.71399 0.24147 0.75851 0.0
H1680 H 0.76139 0.21847 0.73181 0.0
C1681 C 0.72094 0.27975 0.70267 0.0
C1682 C 0.72699 0.26405 0.69168 0.0
C1683 C 0.72126 0.27174 0.71653 0.0
C1684 C 0.74775 0.22468 0.73908 0.0
H1685 H 0.73714 0.25178 0.8094 0.0
H1686 H 0.72994 0.25904 0.78461 0.0
H1687 H 0.7651 0.20747 0.75646 0.0
H1688 H 0.7376 0.22742 0.68659 0.0
H1689 H 0.73781 0.21333 0.71079 0.0
H1690 H 0.6967 0.25881 0.7412 0.0
C1691 C 0.73449 0.24095 0.78798 0.0
C1692 C 0.7499 0.21839 0.7532 0.0
C1693 C 0.73879 0.23681 0.80218 0.0
C1694 C 0.73298 0.24002 0.69483 0.0
C1695 C 0.73322 0.23197 0.7087 0.0
C1696 C 0.71175 0.24764 0.74439 0.0
C1697 C 0.73675 0.22216 0.77822 0.0
C1698 C 0.73327 0.22706 0.76309 0.0
C1699 C 0.72753 0.24779 0.71973 0.0
C1700 C 0.72883 0.23966 0.73454 0.0
H1701 H 0.75216 0.17682 0.80057 0.0
H1702 H 0.74478 0.18417 0.77567 0.0
H1703 H 0.7007 0.24809 0.76587 0.0
H1704 H 0.7163 0.29839 0.7006 0.0
H1705 H 0.71715 0.28451 0.72477 0.0
C1706 C 0.7203 0.7266 0.29889 0.0
C1707 C 0.7322 0.74607 0.30529 0.0
C1708 C 0.72328 0.7221 0.28459 0.0
C1709 C 0.73827 0.75211 0.25167 0.0
H1710 H 0.75096 0.68756 0.23795 0.0
C1711 C 0.75894 0.73401 0.19348 0.0
C1712 C 0.74928 0.71302 0.18746 0.0
C1713 C 0.75771 0.73771 0.20793 0.0
C1714 C 0.7471 0.70564 0.24158 0.0
H1715 H 0.75668 0.77599 0.30174 0.0
H1716 H 0.76163 0.76823 0.27674 0.0
H1717 H 0.74697 0.69451 0.26308 0.0
H1718 H 0.73066 0.67948 0.19186 0.0
H1719 H 0.72789 0.68621 0.217 0.0
H1720 H 0.73778 0.76327 0.23025 0.0
C1721 C 0.75 0.7565 0.2828 0.0
C1722 C 0.74491 0.70961 0.25598 0.0
C1723 C 0.74724 0.76085 0.29712 0.0
C1724 C 0.73841 0.69578 0.19619 0.0
C1725 C 0.73695 0.69958 0.21063 0.0
C1726 C 0.74021 0.74813 0.23728 0.0
C1727 C 0.738 0.73713 0.2764 0.0
C1728 C 0.7405 0.73288 0.26115 0.0
C1729 C 0.74656 0.72061 0.21669 0.0
C1730 C 0.74468 0.72484 0.23204 0.0
H1731 H 0.70863 0.71485 0.30491 0.0
H1732 H 0.71368 0.70714 0.27988 0.0
H1733 H 0.73454 0.77019 0.25538 0.0
H1734 H 0.7676 0.74756 0.18703 0.0
H1735 H 0.76569 0.7539 0.21225 0.0
C1736 C 0.52451 0.50392 0.05092 0.0
C1737 C 0.51226 0.48491 0.05757 0.0
C1738 C 0.52292 0.50699 0.03643 0.0
C1739 C 0.48512 0.49163 0.00595 0.0
H1740 H 0.54231 0.50828 0.98466 0.0
C1741 C 0.48594 0.49166 0.94564 0.0
C1742 C 0.49789 0.51079 0.93891 0.0
C1743 C 0.48805 0.48844 0.96009 0.0
C1744 C 0.52613 0.5039 0.99047 0.0
H1745 H 0.48878 0.45417 0.05422 0.0
H1746 H 0.48617 0.45943 0.02889 0.0
H1747 H 0.54522 0.50266 0.00995 0.0
H1748 H 0.52156 0.54144 0.94208 0.0
H1749 H 0.52506 0.53591 0.96737 0.0
H1750 H 0.46601 0.49289 0.9865 0.0
C1751 C 0.49678 0.47213 0.03491 0.0
C1752 C 0.5278 0.50067 0.00496 0.0
C1753 C 0.49837 0.46904 0.04942 0.0
C1754 C 0.51217 0.5265 0.94694 0.0
C1755 C 0.51427 0.52327 0.96142 0.0
C1756 C 0.48345 0.49486 0.99147 0.0
C1757 C 0.50904 0.49113 0.02826 0.0
C1758 C 0.50731 0.49448 0.01286 0.0
C1759 C 0.50212 0.50426 0.96816 0.0
C1760 C 0.50394 0.501 0.98357 0.0
H1761 H 0.5353 0.51654 0.05689 0.0
H1762 H 0.53231 0.52201 0.03164 0.0
H1763 H 0.46893 0.48726 0.01176 0.0
H1764 H 0.47488 0.47915 0.93976 0.0
H1765 H 0.47877 0.4734 0.96493 0.0
C1766 C 0.99755 0.49176 0.44228 0.0
C1767 C 0.02165 0.4868 0.43875 0.0
C1768 C 0.99014 0.49157 0.45627 0.0
C1769 C 0.00818 0.46978 0.49148 0.0
H1770 H 0.96448 0.51952 0.50455 0.0
C1771 C 0.99335 0.49007 0.54998 0.0
C1772 C 0.96957 0.49409 0.5545 0.0
C1773 C 0.9986 0.4881 0.53573 0.0
C1774 C 0.97646 0.50535 0.50101 0.0
H1775 H 0.05687 0.47778 0.44713 0.0
H1776 H 0.04409 0.47793 0.47151 0.0
H1777 H 0.9758 0.51813 0.47987 0.0
H1778 H 0.93265 0.49919 0.54761 0.0
H1779 H 0.94191 0.49584 0.52265 0.0
H1780 H 0.0092 0.45734 0.5127 0.0
C1781 C 0.03077 0.4815 0.46347 0.0
C1782 C 0.98293 0.50452 0.48687 0.0
C1783 C 0.03815 0.48157 0.44949 0.0
C1784 C 0.95115 0.49609 0.54446 0.0
C1785 C 0.95645 0.49429 0.53017 0.0
C1786 C 0.00183 0.47071 0.50562 0.0
C1787 C 0.00669 0.48652 0.46704 0.0
C1788 C 0.99903 0.48684 0.48196 0.0
C1789 C 0.98023 0.49024 0.52568 0.0
C1790 C 0.98606 0.48861 0.51055 0.0
H1791 H 0.98436 0.49572 0.43423 0.0
H1792 H 0.97139 0.49519 0.45863 0.0
H1793 H 0.02024 0.45564 0.488 0.0
H1794 H 0.00797 0.48847 0.55745 0.0
H1795 H 0.01714 0.48528 0.53257 0.0
C1796 C 0.00295 0.50119 0.05602 0.0
C1797 C 0.02348 0.51416 0.06024 0.0
C1798 C 0.99747 0.49854 0.04183 0.0
C1799 C 0.02533 0.50037 0.00681 0.0
H1800 H 0.95917 0.50508 0.99396 0.0
C1801 C -0.00016 0.50064 0.94814 0.0
C1802 C 0.97944 0.48723 0.94419 0.0
C1803 C 0.00533 0.50413 0.96228 0.0
C1804 C 0.9777 0.50345 0.99741 0.0
H1805 H 0.05417 0.53481 0.05284 0.0
H1806 H 0.04445 0.53036 0.02806 0.0
H1807 H 0.96836 0.51128 0.01868 0.0
H1808 H 0.94894 0.46674 0.952 0.0
H1809 H 0.95866 0.47264 0.97666 0.0
H1810 H 0.03465 0.49248 0.98555 0.0
C1811 C 0.03278 0.52197 0.03574 0.0
C1812 C 0.98297 0.50702 0.01157 0.0
C1813 C 0.03826 0.52464 0.04995 0.0
C1814 C 0.96475 0.47723 0.95468 0.0
C1815 C 0.97023 0.48074 0.96882 0.0
C1816 C 0.02006 0.4968 0.99265 0.0
C1817 C 0.01239 0.50879 0.03153 0.0
C1818 C 0.00684 0.50546 0.01644 0.0
C1819 C 0.99053 0.49429 0.97278 0.0
C1820 C 0.99618 0.49824 0.9878 0.0
H1821 H 0.9912 0.49284 0.06368 0.0
H1822 H 0.98178 0.48804 0.03892 0.0
H1823 H 0.04385 0.49867 0.01027 0.0
H1824 H 0.01151 0.50863 0.94031 0.0
H1825 H 0.02095 0.51488 0.96498 0.0
C1826 C 0.53562 0.52409 0.4519 0.0
C1827 C 0.52536 0.50928 0.44155 0.0
C1828 C 0.53046 0.52022 0.46605 0.0
C1829 C 0.50994 0.47358 0.49065 0.0
H1830 H 0.49449 0.52771 0.51472 0.0
C1831 C 0.47358 0.46098 0.54685 0.0
C1832 C 0.48166 0.47709 0.55719 0.0
C1833 C 0.47938 0.46473 0.53277 0.0
C1834 C 0.49909 0.51242 0.5082 0.0
H1835 H 0.50161 0.47881 0.43793 0.0
H1836 H 0.49267 0.47206 0.46263 0.0
H1837 H 0.50376 0.53475 0.4901 0.0
H1838 H 0.50257 0.50954 0.56089 0.0
H1839 H 0.51305 0.51582 0.53639 0.0
H1840 H 0.50549 0.45125 0.50874 0.0
C1841 C 0.50481 0.48657 0.45979 0.0
C1842 C 0.50435 0.51647 0.49408 0.0
C1843 C 0.50982 0.49054 0.44564 0.0
C1844 C 0.49593 0.49686 0.55317 0.0
C1845 C 0.50182 0.50055 0.53911 0.0
C1846 C 0.50481 0.46954 0.50479 0.0
C1847 C 0.51508 0.50135 0.47014 0.0
C1848 C 0.50976 0.49708 0.48516 0.0
C1849 C 0.49349 0.48462 0.52873 0.0
C1850 C 0.49926 0.48891 0.51372 0.0
H1851 H 0.54766 0.53868 0.44908 0.0
H1852 H 0.53879 0.53177 0.47381 0.0
H1853 H 0.51437 0.45832 0.48406 0.0
H1854 H 0.46248 0.44561 0.54959 0.0
H1855 H 0.47241 0.45228 0.52503 0.0
C1856 C 0.33217 0.2072 0.34446 0.0
C1857 C 0.31173 0.20932 0.35309 0.0
C1858 C 0.35227 0.19406 0.34895 0.0
C1859 C 0.381 0.16628 0.38012 0.0
H1860 H 0.40137 0.11683 0.35395 0.0
C1861 C 0.42233 0.0769 0.39796 0.0
C1862 C 0.43985 0.06547 0.38966 0.0
C1863 C 0.41139 0.09817 0.39347 0.0
C1864 C 0.39635 0.13083 0.3613 0.0
H1865 H 0.29693 0.20054 0.3735 0.0
H1866 H 0.3319 0.1777 0.3813 0.0
H1867 H 0.37385 0.14833 0.3462 0.0
H1868 H 0.46027 0.06792 0.37034 0.0
H1869 H 0.44115 0.10532 0.36249 0.0
H1870 H 0.40294 0.14835 0.39534 0.0
C1871 C 0.33246 0.1862 0.37109 0.0
C1872 C 0.38054 0.1489 0.35686 0.0
C1873 C 0.31233 0.19916 0.36657 0.0
C1874 C 0.44674 0.07623 0.37694 0.0
C1875 C 0.43573 0.09759 0.37242 0.0
C1876 C 0.39688 0.14828 0.38455 0.0
C1877 C 0.3524 0.183 0.3622 0.0
C1878 C 0.37213 0.16638 0.36633 0.0
C1879 C 0.4177 0.10863 0.38057 0.0
C1880 C 0.40413 0.1299 0.37531 0.0
H1881 H 0.33231 0.21488 0.33403 0.0
H1882 H 0.36748 0.19209 0.34193 0.0
H1883 H 0.37514 0.17976 0.38758 0.0
H1884 H 0.41661 0.06914 0.40783 0.0
H1885 H 0.39731 0.10593 0.39991 0.0
C1886 C 0.0588 0.06164 0.62479 0.0
C1887 C 0.04884 0.06183 0.61125 0.0
C1888 C 0.07285 0.08091 0.62947 0.0
C1889 C 0.11244 0.1278 0.6156 0.0
H1890 H 0.11378 0.14943 0.65422 0.0
C1891 C 0.18493 0.1942 0.63546 0.0
C1892 C 0.19595 0.18764 0.64816 0.0
C1893 C 0.16377 0.18275 0.63104 0.0
C1894 C 0.11366 0.14353 0.6434 0.0
H1895 H 0.04477 0.08303 0.59228 0.0
H1896 H 0.0693 0.11672 0.60049 0.0
H1897 H 0.08173 0.12244 0.64639 0.0
H1898 H 0.19299 0.16444 0.66639 0.0
H1899 H 0.15645 0.14432 0.65863 0.0
H1900 H 0.1448 0.14814 0.6127 0.0
C1901 C 0.06644 0.1015 0.60741 0.0
C1902 C 0.09529 0.12811 0.63892 0.0
C1903 C 0.05229 0.08224 0.60274 0.0
C1904 C 0.18501 0.16991 0.65654 0.0
C1905 C 0.1639 0.1585 0.65214 0.0
C1906 C 0.13083 0.14317 0.62008 0.0
C1907 C 0.0773 0.1008 0.62071 0.0
C1908 C 0.0948 0.11964 0.62505 0.0
C1909 C 0.15318 0.16455 0.63926 0.0
C1910 C 0.13198 0.15076 0.63412 0.0
H1911 H 0.05643 0.04623 0.63163 0.0
H1912 H 0.08114 0.07969 0.63972 0.0
H1913 H 0.11276 0.12136 0.60489 0.0
H1914 H 0.19285 0.20789 0.6288 0.0
H1915 H 0.15581 0.18801 0.62114 0.0
C1916 C 0.18524 0.80053 0.87377 0.0
C1917 C 0.18656 0.78867 0.86079 0.0
C1918 C 0.16455 0.81331 0.87753 0.0
C1919 C 0.1167 0.84774 0.86113 0.0
H1920 H 0.09271 0.85293 0.89916 0.0
C1921 C 0.05108 0.92367 0.87737 0.0
C1922 C 0.05764 0.93563 0.88978 0.0
C1923 C 0.06177 0.90162 0.87384 0.0
C1924 C 0.0992 0.8517 0.88848 0.0
H1925 H 0.16671 0.77982 0.84189 0.0
H1926 H 0.13058 0.80242 0.84843 0.0
H1927 H 0.12075 0.82064 0.89311 0.0
H1928 H 0.07996 0.93343 0.90842 0.0
H1929 H 0.09876 0.8955 0.90218 0.0
H1930 H 0.09624 0.87949 0.85663 0.0
C1931 C 0.14563 0.80183 0.85566 0.0
C1932 C 0.11519 0.83318 0.88503 0.0
C1933 C 0.16627 0.7888 0.85196 0.0
C1934 C 0.07451 0.92475 0.89876 0.0
C1935 C 0.08514 0.90281 0.89525 0.0
C1936 C 0.10082 0.86636 0.8646 0.0
C1937 C 0.1448 0.81467 0.86833 0.0
C1938 C 0.12467 0.83145 0.87142 0.0
C1939 C 0.07916 0.89109 0.88267 0.0
C1940 C 0.09252 0.86903 0.87843 0.0
H1941 H 0.20053 0.80068 0.88084 0.0
H1942 H 0.16456 0.8232 0.88731 0.0
H1943 H 0.12388 0.84702 0.85059 0.0
H1944 H 0.03803 0.93154 0.87027 0.0
H1945 H 0.05661 0.89294 0.86412 0.0
C1946 C 0.31996 0.79975 0.12558 0.0
C1947 C 0.31923 0.78954 0.13905 0.0
C1948 C 0.34021 0.81257 0.12113 0.0
C1949 C 0.38755 0.85004 0.13572 0.0
H1950 H 0.41081 0.85127 0.09743 0.0
C1951 C 0.45131 0.92516 0.11652 0.0
C1952 C 0.44443 0.93569 0.10373 0.0
C1953 C 0.44123 0.90322 0.1208 0.0
C1954 C 0.40451 0.85116 0.10816 0.0
H1955 H 0.33974 0.7836 0.15811 0.0
H1956 H 0.37507 0.80622 0.15033 0.0
H1957 H 0.38345 0.81927 0.1049 0.0
H1958 H 0.42233 0.93099 0.08516 0.0
H1959 H 0.40451 0.89325 0.0927 0.0
H1960 H 0.40748 0.88256 0.13885 0.0
C1961 C 0.35989 0.80437 0.14327 0.0
C1962 C 0.38891 0.8328 0.11244 0.0
C1963 C 0.33969 0.79134 0.14769 0.0
C1964 C 0.42799 0.92343 0.0951 0.0
C1965 C 0.41792 0.9016 0.09937 0.0
C1966 C 0.40302 0.86848 0.13143 0.0
C1967 C 0.36011 0.8156 0.13008 0.0
C1968 C 0.37973 0.83245 0.12615 0.0
C1969 C 0.4241 0.8914 0.11237 0.0
C1970 C 0.41109 0.86968 0.11748 0.0
H1971 H 0.30454 0.79857 0.11865 0.0
H1972 H 0.33975 0.8212 0.11095 0.0
H1973 H 0.38058 0.8504 0.14632 0.0
H1974 H 0.46407 0.93409 0.12336 0.0
H1975 H 0.44658 0.89571 0.1308 0.0
C1976 C 0.68152 0.79764 0.63672 0.0
C1977 C 0.70045 0.80139 0.62716 0.0
C1978 C 0.66024 0.81104 0.63573 0.0
C1979 C 0.62814 0.85527 0.63776 0.0
H1980 H 0.60115 0.87654 0.6024 0.0
C1981 C 0.57669 0.94455 0.63134 0.0
C1982 C 0.55832 0.94622 0.62125 0.0
C1983 C 0.58972 0.92318 0.63298 0.0
C1984 C 0.60813 0.8705 0.61239 0.0
H1985 H 0.71129 0.82116 0.60859 0.0
H1986 H 0.67439 0.84465 0.60694 0.0
H1987 H 0.63144 0.84477 0.60262 0.0
H1988 H 0.53811 0.92621 0.60563 0.0
H1989 H 0.56067 0.88882 0.60863 0.0
H1990 H 0.60502 0.8812 0.64753 0.0
C1991 C 0.67584 0.83124 0.61515 0.0
C1992 C 0.62572 0.85247 0.6125 0.0
C1993 C 0.6971 0.81785 0.61614 0.0
C1994 C 0.5523 0.9256 0.61342 0.0
C1995 C 0.56532 0.9042 0.61508 0.0
C1996 C 0.61053 0.87329 0.63766 0.0
C1997 C 0.65741 0.82845 0.62514 0.0
C1998 C 0.63638 0.84508 0.62515 0.0
C1999 C 0.58462 0.90295 0.62459 0.0
C2000 C 0.60076 0.88155 0.62495 0.0
H2001 H 0.68345 0.78498 0.64529 0.0
H2002 H 0.64623 0.80819 0.64345 0.0
H2003 H 0.63609 0.85015 0.64769 0.0
H2004 H 0.58177 0.96007 0.63756 0.0
H2005 H 0.6046 0.92295 0.64032 0.0
C2006 C 0.9462 0.92676 0.38096 0.0
C2007 C 0.93901 0.93766 0.39358 0.0
C2008 C 0.93488 0.90569 0.37627 0.0
C2009 C 0.89457 0.85577 0.38778 0.0
H2010 H 0.87347 0.85603 0.34906 0.0
C2011 C 0.81135 0.80408 0.36822 0.0
C2012 C 0.81146 0.79438 0.35462 0.0
C2013 C 0.83107 0.81726 0.37314 0.0
C2014 C 0.87961 0.85537 0.35983 0.0
H2015 H 0.91487 0.93455 0.41138 0.0
H2016 H 0.89504 0.89823 0.40315 0.0
H2017 H 0.90083 0.88727 0.3573 0.0
H2018 H 0.83295 0.78976 0.33581 0.0
H2019 H 0.86738 0.81279 0.34444 0.0
H2020 H 0.87255 0.82437 0.39041 0.0
C2021 C 0.90958 0.90567 0.39693 0.0
C2022 C 0.89532 0.8733 0.36456 0.0
C2023 C 0.92083 0.92667 0.4016 0.0
C2024 C 0.83221 0.79713 0.34631 0.0
C2025 C 0.8519 0.81041 0.35121 0.0
C2026 C 0.87881 0.83788 0.38306 0.0
C2027 C 0.91622 0.89508 0.38413 0.0
C2028 C 0.90247 0.87409 0.37868 0.0
C2029 C 0.85131 0.82109 0.36456 0.0
C2030 C 0.87067 0.83785 0.36912 0.0
H2031 H 0.96023 0.93473 0.37457 0.0
H2032 H 0.94056 0.89784 0.36642 0.0
H2033 H 0.90011 0.8556 0.39866 0.0
H2034 H 0.7957 0.80223 0.37492 0.0
H2035 H 0.82993 0.82543 0.38342 0.0
C2036 C 0.80992 0.16422 0.15383 0.0
C2037 C 0.80294 0.18617 0.14773 0.0
C2038 C 0.83074 0.1524 0.14937 0.0
C2039 C 0.87022 0.14785 0.1185 0.0
H2040 H 0.9053 0.10443 0.14297 0.0
C2041 C 0.94603 0.06579 0.11637 0.0
C2042 C 0.93683 0.05374 0.10457 0.0
C2043 C 0.93443 0.08634 0.1216 0.0
C2044 C 0.8961 0.11678 0.13599 0.0
H2045 H 0.81302 0.21362 0.13265 0.0
H2046 H 0.84979 0.19324 0.12505 0.0
H2047 H 0.8772 0.13331 0.15297 0.0
H2048 H 0.90871 0.05425 0.08875 0.0
H2049 H 0.88829 0.08934 0.098 0.0
H2050 H 0.88926 0.13146 0.10153 0.0
C2051 C 0.83883 0.18485 0.13307 0.0
C2052 C 0.87968 0.13313 0.14172 0.0
C2053 C 0.81781 0.19659 0.13746 0.0
C2054 C 0.91631 0.06306 0.09787 0.0
C2055 C 0.90469 0.08342 0.10311 0.0
C2056 C 0.88685 0.13171 0.11278 0.0
C2057 C 0.8453 0.16235 0.13878 0.0
C2058 C 0.86583 0.14821 0.133 0.0
C2059 C 0.91337 0.09517 0.11514 0.0
C2060 C 0.89927 0.1153 0.1214 0.0
H2061 H 0.79887 0.15566 0.16176 0.0
H2062 H 0.83481 0.13493 0.15386 0.0
H2063 H 0.85991 0.15909 0.11142 0.0
H2064 H 0.96192 0.05912 0.12171 0.0
H2065 H 0.94177 0.09511 0.13079 0.0
C2066 C 0.55578 0.07238 0.88225 0.0
C2067 C 0.56426 0.05951 0.89394 0.0
C2068 C 0.56576 0.09479 0.87878 0.0
C2069 C 0.60501 0.14387 0.89269 0.0
H2070 H 0.62325 0.15181 0.85376 0.0
C2071 C 0.68718 0.19824 0.8745 0.0
C2072 C 0.68613 0.21072 0.86171 0.0
C2073 C 0.66748 0.18476 0.87914 0.0
C2074 C 0.61786 0.15019 0.86463 0.0
H2075 H 0.5893 0.06042 0.91142 0.0
H2076 H 0.6069 0.099 0.90525 0.0
H2077 H 0.5972 0.11847 0.86046 0.0
H2078 H 0.66306 0.22007 0.84416 0.0
H2079 H 0.62868 0.19635 0.85225 0.0
H2080 H 0.62676 0.17496 0.89691 0.0
C2081 C 0.59232 0.09211 0.89886 0.0
C2082 C 0.60289 0.13105 0.86848 0.0
C2083 C 0.58236 0.06981 0.90232 0.0
C2084 C 0.66449 0.21056 0.85404 0.0
C2085 C 0.64483 0.1969 0.85862 0.0
C2086 C 0.62009 0.16293 0.88885 0.0
C2087 C 0.58438 0.10475 0.88695 0.0
C2088 C 0.5969 0.12724 0.88261 0.0
C2089 C 0.64636 0.18337 0.87104 0.0
C2090 C 0.62723 0.16587 0.87484 0.0
H2091 H 0.54174 0.06499 0.87564 0.0
H2092 H 0.55908 0.10418 0.86962 0.0
H2093 H 0.6003 0.14174 0.90363 0.0
H2094 H 0.70355 0.1981 0.88069 0.0
H2095 H 0.6693 0.17436 0.88869 0.0
C2096 C 0.83353 0.6994 0.84985 0.0
C2097 C 0.81277 0.70158 0.8582 0.0
C2098 C 0.85341 0.68622 0.8546 0.0
C2099 C 0.8807 0.65789 0.88608 0.0
H2100 H 0.90232 0.60915 0.85981 0.0
C2101 C 0.92264 0.56841 0.90365 0.0
C2102 C 0.9406 0.55756 0.89542 0.0
C2103 C 0.91143 0.58962 0.89926 0.0
C2104 C 0.89694 0.62294 0.86721 0.0
H2105 H 0.7972 0.69293 0.87844 0.0
H2106 H 0.83176 0.66994 0.88668 0.0
H2107 H 0.87501 0.6407 0.85194 0.0
H2108 H 0.96152 0.56095 0.87632 0.0
H2109 H 0.94197 0.59819 0.86865 0.0
H2110 H 0.90208 0.63966 0.90146 0.0
C2111 C 0.83275 0.67845 0.87648 0.0
C2112 C 0.88126 0.64105 0.86269 0.0
C2113 C 0.81285 0.6915 0.87171 0.0
C2114 C 0.94764 0.5688 0.88286 0.0
C2115 C 0.93639 0.59007 0.87845 0.0
C2116 C 0.89644 0.63982 0.8906 0.0
C2117 C 0.85299 0.67513 0.86784 0.0
C2118 C 0.87245 0.65832 0.87217 0.0
C2119 C 0.91793 0.60054 0.88652 0.0
C2120 C 0.90419 0.62173 0.88131 0.0
H2121 H 0.8341 0.70706 0.83941 0.0
H2122 H 0.86888 0.68421 0.84777 0.0
H2123 H 0.87451 0.67119 0.89357 0.0
H2124 H 0.9168 0.56025 0.91339 0.0
H2125 H 0.89704 0.59695 0.90563 0.0
C2126 C 0.66404 0.69882 0.14767 0.0
C2127 C 0.68101 0.70779 0.13809 0.0
C2128 C 0.64369 0.68642 0.14295 0.0
C2129 C 0.62311 0.65247 0.11165 0.0
H2130 H 0.56486 0.64537 0.13375 0.0
C2131 C 0.54732 0.58785 0.09536 0.0
C2132 C 0.54351 0.56972 0.10542 0.0
C2133 C 0.55984 0.60884 0.09889 0.0
C2134 C 0.58098 0.64737 0.12745 0.0
H2135 H 0.68915 0.71259 0.11608 0.0
H2136 H 0.65295 0.69224 0.10776 0.0
H2137 H 0.59454 0.67599 0.14021 0.0
H2138 H 0.54823 0.5601 0.12727 0.0
H2139 H 0.56971 0.59711 0.13349 0.0
H2140 H 0.60932 0.62397 0.09885 0.0
C2141 C 0.65581 0.69368 0.11895 0.0
C2142 C 0.5981 0.66474 0.13118 0.0
C2143 C 0.67648 0.70555 0.12369 0.0
C2144 C 0.55103 0.5737 0.11929 0.0
C2145 C 0.56318 0.5949 0.12287 0.0
C2146 C 0.60578 0.63552 0.10777 0.0
C2147 C 0.63956 0.68316 0.12851 0.0
C2148 C 0.61973 0.6671 0.12354 0.0
C2149 C 0.56833 0.61228 0.11259 0.0
C2150 C 0.58485 0.63244 0.11581 0.0
H2151 H 0.66716 0.70017 0.15885 0.0
H2152 H 0.63192 0.67837 0.15069 0.0
H2153 H 0.63963 0.65321 0.10564 0.0
H2154 H 0.54173 0.58534 0.08459 0.0
H2155 H 0.56357 0.62205 0.09081 0.0
C2156 C 0.68836 0.29964 0.37591 0.0
C2157 C 0.68847 0.2875 0.363 0.0
C2158 C 0.66815 0.31271 0.38015 0.0
C2159 C 0.6193 0.34717 0.36471 0.0
H2160 H 0.59915 0.35458 0.40336 0.0
C2161 C 0.55554 0.42416 0.3818 0.0
C2162 C 0.56325 0.43674 0.39377 0.0
C2163 C 0.56598 0.40199 0.37827 0.0
C2164 C 0.60457 0.35273 0.39251 0.0
H2165 H 0.66692 0.27834 0.34479 0.0
H2166 H 0.63159 0.30139 0.35219 0.0
H2167 H 0.62613 0.3216 0.39696 0.0
H2168 H 0.58748 0.4356 0.41162 0.0
H2169 H 0.60582 0.3974 0.40538 0.0
H2170 H 0.59878 0.37894 0.36035 0.0
C2171 C 0.64724 0.30085 0.35898 0.0
C2172 C 0.61996 0.33381 0.38886 0.0
C2173 C 0.66742 0.28756 0.35478 0.0
C2174 C 0.58112 0.42642 0.40231 0.0
C2175 C 0.5915 0.40435 0.3988 0.0
C2176 C 0.60401 0.36617 0.36838 0.0
C2177 C 0.64765 0.31407 0.37153 0.0
C2178 C 0.62806 0.33128 0.37499 0.0
C2179 C 0.58426 0.39196 0.38667 0.0
C2180 C 0.5971 0.36961 0.3824 0.0
H2181 H 0.70426 0.29984 0.38251 0.0
H2182 H 0.66912 0.32287 0.38983 0.0
H2183 H 0.62543 0.34585 0.35396 0.0
H2184 H 0.54171 0.43158 0.37504 0.0
H2185 H 0.55986 0.3928 0.36891 0.0
C2186 C 0.93925 0.43782 0.63659 0.0
C2187 C 0.94943 0.44082 0.62322 0.0
C2188 C 0.92629 0.41694 0.63985 0.0
C2189 C 0.88965 0.37141 0.6223 0.0
H2190 H 0.88781 0.34178 0.65907 0.0
C2191 C 0.81787 0.30021 0.63596 0.0
C2192 C 0.8061 0.30407 0.6488 0.0
C2193 C 0.83934 0.31236 0.63287 0.0
C2194 C 0.88808 0.34988 0.64875 0.0
H2195 H 0.95532 0.42356 0.6031 0.0
H2196 H 0.93277 0.38716 0.60882 0.0
H2197 H 0.91884 0.37164 0.65374 0.0
H2198 H 0.80824 0.32283 0.66872 0.0
H2199 H 0.84519 0.34422 0.66325 0.0
H2200 H 0.85836 0.35056 0.61746 0.0
C2201 C 0.93451 0.4011 0.6167 0.0
C2202 C 0.90587 0.36695 0.6457 0.0
C2203 C 0.94751 0.42193 0.61346 0.0
C2204 C 0.81677 0.31949 0.6587 0.0
C2205 C 0.83814 0.33163 0.65561 0.0
C2206 C 0.87182 0.35444 0.62536 0.0
C2207 C 0.92323 0.39865 0.6298 0.0
C2208 C 0.90651 0.37829 0.63254 0.0
C2209 C 0.84945 0.3286 0.64255 0.0
C2210 C 0.87046 0.3439 0.63873 0.0
H2211 H 0.94046 0.45198 0.64437 0.0
H2212 H 0.91765 0.41569 0.65 0.0
H2213 H 0.88943 0.38004 0.61212 0.0
H2214 H 0.8102 0.28831 0.62815 0.0
H2215 H 0.84778 0.30937 0.62279 0.0
C2216 C 0.07559 0.42706 0.09723 0.0
C2217 C 0.05896 0.43809 0.10628 0.0
C2218 C 0.08635 0.40519 0.10082 0.0
C2219 C 0.10295 0.36976 0.13171 0.0
H2220 H 0.12213 0.32295 0.10366 0.0
C2221 C 0.16816 0.29241 0.14505 0.0
C2222 C 0.18811 0.29135 0.13599 0.0
C2223 C 0.14763 0.30557 0.14132 0.0
C2224 C 0.11681 0.33581 0.11162 0.0
H2225 H 0.03981 0.43431 0.12597 0.0
H2226 H 0.05858 0.39589 0.13223 0.0
H2227 H 0.09407 0.35511 0.09739 0.0
H2228 H 0.20156 0.30189 0.11554 0.0
H2229 H 0.16582 0.32475 0.10905 0.0
H2230 H 0.12626 0.35092 0.14581 0.0
C2231 C 0.06348 0.40438 0.12242 0.0
C2232 C 0.1008 0.35425 0.10803 0.0
C2233 C 0.05268 0.42633 0.11881 0.0
C2234 C 0.18655 0.30247 0.12279 0.0
C2235 C 0.16598 0.31544 0.11902 0.0
C2236 C 0.11887 0.35125 0.13531 0.0
C2237 C 0.08072 0.39375 0.11355 0.0
C2238 C 0.09432 0.37191 0.11791 0.0
C2239 C 0.14657 0.31768 0.12839 0.0
C2240 C 0.12656 0.33454 0.12518 0.0
H2241 H 0.0808 0.43558 0.08748 0.0
H2242 H 0.09982 0.39775 0.09384 0.0
H2243 H 0.09854 0.38318 0.13954 0.0
H2244 H 0.16877 0.28397 0.15528 0.0
H2245 H 0.13283 0.3068 0.14869 0.0
C2246 C 0.42352 0.42319 0.90269 0.0
C2247 C 0.44032 0.43449 0.89385 0.0
C2248 C 0.4137 0.40088 0.89914 0.0
C2249 C 0.40035 0.36359 0.86845 0.0
H2250 H 0.38093 0.31749 0.89686 0.0
C2251 C 0.33741 0.28458 0.85511 0.0
C2252 C 0.31677 0.28422 0.86366 0.0
C2253 C 0.35774 0.29781 0.85911 0.0
C2254 C 0.38638 0.33012 0.8888 0.0
H2255 H 0.46066 0.4308 0.87456 0.0
H2256 H 0.44354 0.39159 0.86838 0.0
H2257 H 0.40761 0.35079 0.90315 0.0
H2258 H 0.30191 0.29586 0.88355 0.0
H2259 H 0.33734 0.31875 0.89055 0.0
H2260 H 0.3785 0.34337 0.85421 0.0
C2261 C 0.43778 0.4002 0.87799 0.0
C2262 C 0.40157 0.34923 0.89239 0.0
C2263 C 0.44763 0.42262 0.88155 0.0
C2264 C 0.31748 0.29591 0.8767 0.0
C2265 C 0.33786 0.3089 0.88076 0.0
C2266 C 0.38527 0.3444 0.86484 0.0
C2267 C 0.42047 0.38922 0.88667 0.0
C2268 C 0.40802 0.36668 0.88237 0.0
C2269 C 0.3579 0.31063 0.87181 0.0
C2270 C 0.37747 0.32795 0.87508 0.0
H2271 H 0.41751 0.4318 0.91225 0.0
H2272 H 0.40011 0.3932 0.90595 0.0
H2273 H 0.40476 0.3768 0.86049 0.0
H2274 H 0.33743 0.27571 0.845 0.0
H2275 H 0.37304 0.29867 0.85207 0.0
C2276 C 0.42421 0.56962 0.59693 0.0
C2277 C 0.43996 0.5563 0.60548 0.0
C2278 C 0.4136 0.59078 0.60186 0.0
C2279 C 0.39587 0.61946 0.6349 0.0
H2280 H 0.37897 0.67267 0.61041 0.0
C2281 C 0.33375 0.69572 0.65377 0.0
C2282 C 0.31412 0.70014 0.6448 0.0
C2283 C 0.35363 0.6825 0.64908 0.0
C2284 C 0.38361 0.65797 0.61738 0.0
H2285 H 0.45783 0.55537 0.62569 0.0
H2286 H 0.43947 0.59257 0.63426 0.0
H2287 H 0.40628 0.64129 0.60204 0.0
H2288 H 0.30068 0.69548 0.62363 0.0
H2289 H 0.33527 0.6724 0.61549 0.0
H2290 H 0.37272 0.63574 0.65009 0.0
C2291 C 0.43503 0.58639 0.62381 0.0
C2292 C 0.39921 0.63997 0.61259 0.0
C2293 C 0.44563 0.56514 0.61888 0.0
C2294 C 0.31543 0.69229 0.63082 0.0
C2295 C 0.33535 0.67918 0.62613 0.0
C2296 C 0.38039 0.63749 0.6397 0.0
C2297 C 0.41853 0.59922 0.61545 0.0
C2298 C 0.40498 0.62015 0.62116 0.0
C2299 C 0.35436 0.67358 0.63531 0.0
C2300 C 0.37358 0.6566 0.63087 0.0
H2301 H 0.41947 0.56335 0.58654 0.0
H2302 H 0.40073 0.59997 0.5952 0.0
H2303 H 0.39965 0.60432 0.64172 0.0
H2304 H 0.33339 0.70165 0.66458 0.0
H2305 H 0.36816 0.67872 0.65634 0.0
C2306 C 0.0525 0.57639 0.38119 0.0
C2307 C 0.05946 0.56411 0.39343 0.0
C2308 C 0.0636 0.59815 0.3775 0.0
C2309 C 0.10389 0.64664 0.39123 0.0
H2310 H 0.1251 0.65083 0.3526 0.0
C2311 C 0.18877 0.6976 0.37361 0.0
C2312 C 0.18867 0.70948 0.3606 0.0
C2313 C 0.16862 0.6846 0.37805 0.0
C2314 C 0.11893 0.65024 0.36337 0.0
H2315 H 0.08284 0.56551 0.41165 0.0
H2316 H 0.10241 0.60293 0.40511 0.0
H2317 H 0.09731 0.61905 0.35951 0.0
H2318 H 0.16686 0.71807 0.34239 0.0
H2319 H 0.1317 0.69517 0.35015 0.0
H2320 H 0.12656 0.67718 0.39516 0.0
C2321 C 0.08817 0.5961 0.39844 0.0
C2322 C 0.10295 0.63201 0.36733 0.0
C2323 C 0.07707 0.57445 0.40213 0.0
C2324 C 0.16756 0.70904 0.35244 0.0
C2325 C 0.14746 0.69585 0.35684 0.0
C2326 C 0.12 0.66477 0.38727 0.0
C2327 C 0.08187 0.60804 0.38597 0.0
C2328 C 0.09577 0.62958 0.38139 0.0
C2329 C 0.14798 0.68307 0.36955 0.0
C2330 C 0.12817 0.66636 0.37337 0.0
H2331 H 0.03887 0.56897 0.37431 0.0
H2332 H 0.05812 0.60704 0.36791 0.0
H2333 H 0.09832 0.64558 0.40208 0.0
H2334 H 0.20471 0.69768 0.38017 0.0
H2335 H 0.16966 0.67476 0.38784 0.0
loop_
_geom_bond_atom_site_label_1
_geom_bond_atom_site_label_2
_geom_bond_distance
_geom_bond_site_symmetry_2
_ccdc_geom_bond_type
C0 O1 1.160 . S
C0 O7 1.185 . S
O1 C0 1.160 . S
O2 Zn3 1.899 . S
O2 C10 1.284 . S
Zn3 O2 1.899 . S
Zn3 O4 2.032 . S
Zn3 O7 2.086 . S
Zn3 O12 1.977 . S
O4 Zn3 2.032 . S
O4 C8 1.278 . S
C5 O6 1.203 . S
C5 O12 1.267 . S
O6 C5 1.203 . S
O7 C0 1.185 . S
O7 Zn3 2.086 . S
C8 O4 1.278 . S
C8 O9 1.211 . S
O9 C8 1.211 . S
C10 O2 1.284 . S
C10 O11 1.273 . S
O11 C10 1.273 . S
O12 Zn3 1.977 . S
O12 C5 1.267 . S
C13 O14 1.160 . S
C13 O20 1.185 . S
O14 C13 1.160 . S
O15 Zn16 1.899 . S
O15 C23 1.284 . S
Zn16 O15 1.899 . S
Zn16 O17 2.032 . S
Zn16 O20 2.086 1_565 S
Zn16 O25 1.977 . S
O17 Zn16 2.032 . S
O17 C21 1.278 . S
C18 O19 1.203 . S
C18 O25 1.267 1_655 S
O19 C18 1.203 . S
O20 C13 1.185 . S
O20 Zn16 2.086 1_545 S
C21 O17 1.278 . S
C21 O22 1.211 . S
O22 C21 1.211 . S
C23 O15 1.284 . S
C23 O24 1.273 . S
O24 C23 1.273 . S
O25 Zn16 1.977 . S
O25 C18 1.267 1_455 S
C26 O27 1.160 . S
C26 O33 1.185 . S
O27 C26 1.160 . S
O28 Zn29 1.899 . S
O28 C36 1.284 . S
Zn29 O28 1.899 . S
Zn29 O30 2.032 . S
Zn29 O33 2.086 . S
Zn29 O38 1.977 . S
O30 Zn29 2.032 . S
O30 C34 1.278 . S
C31 O32 1.203 . S
C31 O38 1.267 . S
O32 C31 1.203 . S
O33 C26 1.185 . S
O33 Zn29 2.086 . S
C34 O30 1.278 . S
C34 O35 1.211 . S
O35 C34 1.211 . S
C36 O28 1.284 . S
C36 O37 1.273 . S
O37 C36 1.273 . S
O38 Zn29 1.977 . S
O38 C31 1.267 . S
C39 O40 1.160 . S
C39 O46 1.185 . S
O40 C39 1.160 . S
O41 Zn42 1.899 . S
O41 C49 1.284 . S
Zn42 O41 1.899 . S
Zn42 O43 2.032 . S
Zn42 O46 2.086 1_545 S
Zn42 O51 1.977 . S
O43 Zn42 2.032 . S
O43 C47 1.278 . S
C44 O45 1.203 . S
C44 O51 1.267 . S
O45 C44 1.203 . S
O46 C39 1.185 . S
O46 Zn42 2.086 1_565 S
C47 O43 1.278 . S
C47 O48 1.211 . S
O48 C47 1.211 . S
C49 O41 1.284 . S
C49 O50 1.273 . S
O50 C49 1.273 . S
O51 Zn42 1.977 . S
O51 C44 1.267 . S
C52 O53 1.160 . S
C52 O59 1.185 . S
O53 C52 1.160 . S
O54 Zn55 1.899 . S
O54 C62 1.284 . S
Zn55 O54 1.899 . S
Zn55 O56 2.032 . S
Zn55 O59 2.086 . S
Zn55 O64 1.977 . S
O56 Zn55 2.032 . S
O56 C60 1.278 . S
C57 O58 1.203 . S
C57 O64 1.267 . S
O58 C57 1.203 . S
O59 C52 1.185 . S
O59 Zn55 2.086 . S
C60 O56 1.278 . S
C60 O61 1.211 . S
O61 C60 1.211 . S
C62 O54 1.284 . S
C62 O63 1.273 . S
O63 C62 1.273 . S
O64 Zn55 1.977 . S
O64 C57 1.267 . S
C65 O66 1.160 . S
C65 O72 1.185 . S
O66 C65 1.160 . S
O67 Zn68 1.899 . S
O67 C75 1.284 . S
Zn68 O67 1.899 . S
Zn68 O69 2.032 . S
Zn68 O72 2.086 1_565 S
Zn68 O77 1.977 . S
O69 Zn68 2.032 . S
O69 C73 1.278 . S
C70 O71 1.203 . S
C70 O77 1.267 . S
O71 C70 1.203 . S
O72 C65 1.185 . S
O72 Zn68 2.086 1_545 S
C73 O69 1.278 . S
C73 O74 1.211 . S
O74 C73 1.211 . S
C75 O67 1.284 . S
C75 O76 1.273 . S
O76 C75 1.273 . S
O77 Zn68 1.977 . S
O77 C70 1.267 . S
C78 O79 1.160 . S
C78 O85 1.185 . S
O79 C78 1.160 . S
O80 Zn81 1.899 . S
O80 C88 1.284 . S
Zn81 O80 1.899 . S
Zn81 O82 2.032 . S
Zn81 O85 2.086 . S
Zn81 O90 1.977 . S
O82 Zn81 2.032 . S
O82 C86 1.278 . S
C83 O84 1.203 . S
C83 O90 1.267 . S
O84 C83 1.203 . S
O85 C78 1.185 . S
O85 Zn81 2.086 . S
C86 O82 1.278 . S
C86 O87 1.211 . S
O87 C86 1.211 . S
C88 O80 1.284 . S
C88 O89 1.273 . S
O89 C88 1.273 . S
O90 Zn81 1.977 . S
O90 C83 1.267 . S
C91 O92 1.160 . S
C91 O98 1.185 . S
O92 C91 1.160 . S
O93 Zn94 1.899 . S
O93 C101 1.284 . S
Zn94 O93 1.899 . S
Zn94 O95 2.032 . S
Zn94 O98 2.086 1_545 S
Zn94 O103 1.977 . S
O95 Zn94 2.032 . S
O95 C99 1.278 . S
C96 O97 1.203 . S
C96 O103 1.267 1_655 S
O97 C96 1.203 . S
O98 C91 1.185 . S
O98 Zn94 2.086 1_565 S
C99 O95 1.278 . S
C99 O100 1.211 . S
O100 C99 1.211 . S
C101 O93 1.284 . S
C101 O102 1.273 . S
O102 C101 1.273 . S
O103 Zn94 1.977 . S
O103 C96 1.267 1_455 S
C104 O105 1.160 . S
C104 O111 1.185 . S
O105 C104 1.160 . S
O106 Zn107 1.899 . S
O106 C114 1.284 . S
Zn107 O106 1.899 . S
Zn107 O108 2.032 . S
Zn107 O111 2.086 . S
Zn107 O116 1.977 . S
O108 Zn107 2.032 . S
O108 C112 1.278 . S
C109 O110 1.203 . S
C109 O116 1.267 . S
O110 C109 1.203 . S
O111 C104 1.185 . S
O111 Zn107 2.086 . S
C112 O108 1.278 . S
C112 O113 1.211 . S
O113 C112 1.211 . S
C114 O106 1.284 . S
C114 O115 1.273 . S
O115 C114 1.273 . S
O116 Zn107 1.977 . S
O116 C109 1.267 . S
C117 O118 1.160 . S
C117 O124 1.185 . S
O118 C117 1.160 . S
O119 Zn120 1.899 . S
O119 C127 1.284 . S
Zn120 O119 1.899 . S
Zn120 O121 2.032 . S
Zn120 O124 2.086 1_545 S
Zn120 O129 1.977 . S
O121 Zn120 2.032 . S
O121 C125 1.278 . S
C122 O123 1.203 . S
C122 O129 1.267 1_455 S
O123 C122 1.203 . S
O124 C117 1.185 . S
O124 Zn120 2.086 1_565 S
C125 O121 1.278 . S
C125 O126 1.211 . S
O126 C125 1.211 . S
C127 O119 1.284 . S
C127 O128 1.273 . S
O128 C127 1.273 . S
O129 Zn120 1.977 . S
O129 C122 1.267 1_655 S
C130 O131 1.160 . S
C130 O137 1.185 . S
O131 C130 1.160 . S
O132 Zn133 1.899 . S
O132 C140 1.284 . S
Zn133 O132 1.899 . S
Zn133 O134 2.032 . S
Zn133 O137 2.086 . S
Zn133 O142 1.977 . S
O134 Zn133 2.032 . S
O134 C138 1.278 . S
C135 O136 1.203 . S
C135 O142 1.267 . S
O136 C135 1.203 . S
O137 C130 1.185 . S
O137 Zn133 2.086 . S
C138 O134 1.278 . S
C138 O139 1.211 . S
O139 C138 1.211 . S
C140 O132 1.284 . S
C140 O141 1.273 . S
O141 C140 1.273 . S
O142 Zn133 1.977 . S
O142 C135 1.267 . S
C143 O144 1.160 . S
C143 O150 1.185 . S
O144 C143 1.160 . S
O145 Zn146 1.899 . S
O145 C153 1.284 . S
Zn146 O145 1.899 . S
Zn146 O147 2.032 . S
Zn146 O150 2.086 1_565 S
Zn146 O155 1.977 . S
O147 Zn146 2.032 . S
O147 C151 1.278 . S
C148 O149 1.203 . S
C148 O155 1.267 . S
O149 C148 1.203 . S
O150 C143 1.185 . S
O150 Zn146 2.086 1_545 S
C151 O147 1.278 . S
C151 O152 1.211 . S
O152 C151 1.211 . S
C153 O145 1.284 . S
C153 O154 1.273 . S
O154 C153 1.273 . S
O155 Zn146 1.977 . S
O155 C148 1.267 . S
C156 O157 1.160 . S
C156 O163 1.185 . S
O157 C156 1.160 . S
O158 Zn159 1.899 . S
O158 C166 1.284 . S
Zn159 O158 1.899 . S
Zn159 O160 2.032 . S
Zn159 O163 2.086 . S
Zn159 O168 1.977 . S
O160 Zn159 2.032 . S
O160 C164 1.278 . S
C161 O162 1.203 . S
C161 O168 1.267 . S
O162 C161 1.203 . S
O163 C156 1.185 . S
O163 Zn159 2.086 . S
C164 O160 1.278 . S
C164 O165 1.211 . S
O165 C164 1.211 . S
C166 O158 1.284 . S
C166 O167 1.273 . S
O167 C166 1.273 . S
O168 Zn159 1.977 . S
O168 C161 1.267 . S
C169 O170 1.160 . S
C169 O176 1.185 . S
O170 C169 1.160 . S
O171 Zn172 1.899 . S
O171 C179 1.284 . S
Zn172 O171 1.899 . S
Zn172 O173 2.032 . S
Zn172 O176 2.086 1_545 S
Zn172 O181 1.977 . S
O173 Zn172 2.032 . S
O173 C177 1.278 . S
C174 O175 1.203 . S
C174 O181 1.267 . S
O175 C174 1.203 . S
O176 C169 1.185 . S
O176 Zn172 2.086 1_565 S
C177 O173 1.278 . S
C177 O178 1.211 . S
O178 C177 1.211 . S
C179 O171 1.284 . S
C179 O180 1.273 . S
O180 C179 1.273 . S
O181 Zn172 1.977 . S
O181 C174 1.267 . S
C182 O183 1.160 . S
C182 O189 1.185 . S
O183 C182 1.160 . S
O184 Zn185 1.899 . S
O184 C192 1.284 . S
Zn185 O184 1.899 . S
Zn185 O186 2.032 . S
Zn185 O189 2.086 . S
Zn185 O194 1.977 . S
O186 Zn185 2.032 . S
O186 C190 1.278 . S
C187 O188 1.203 . S
C187 O194 1.267 . S
O188 C187 1.203 . S
O189 C182 1.185 . S
O189 Zn185 2.086 . S
C190 O186 1.278 . S
C190 O191 1.211 . S
O191 C190 1.211 . S
C192 O184 1.284 . S
C192 O193 1.273 . S
O193 C192 1.273 . S
O194 Zn185 1.977 . S
O194 C187 1.267 . S
C195 O196 1.160 . S
C195 O202 1.185 . S
O196 C195 1.160 . S
O197 Zn198 1.899 . S
O197 C205 1.284 . S
Zn198 O197 1.899 . S
Zn198 O199 2.032 . S
Zn198 O202 2.086 1_565 S
Zn198 O207 1.977 . S
O199 Zn198 2.032 . S
O199 C203 1.278 . S
C200 O201 1.203 . S
C200 O207 1.267 1_455 S
O201 C200 1.203 . S
O202 C195 1.185 . S
O202 Zn198 2.086 1_545 S
C203 O199 1.278 . S
C203 O204 1.211 . S
O204 C203 1.211 . S
C205 O197 1.284 . S
C205 O206 1.273 . S
O206 C205 1.273 . S
O207 Zn198 1.977 . S
O207 C200 1.267 1_655 S
C208 O209 1.160 . S
C208 O215 1.185 . S
O209 C208 1.160 . S
O210 Zn211 1.899 . S
O210 C218 1.284 . S
Zn211 O210 1.899 . S
Zn211 O212 2.032 . S
Zn211 O215 2.086 . S
Zn211 O220 1.977 . S
O212 Zn211 2.032 . S
O212 C216 1.278 . S
C213 O214 1.203 . S
C213 O220 1.267 . S
O214 C213 1.203 . S
O215 C208 1.185 . S
O215 Zn211 2.086 . S
C216 O212 1.278 . S
C216 O217 1.211 . S
O217 C216 1.211 . S
C218 O210 1.284 . S
C218 O219 1.273 . S
O219 C218 1.273 . S
O220 Zn211 1.977 . S
O220 C213 1.267 . S
C221 O222 1.160 . S
C221 O228 1.185 . S
O222 C221 1.160 . S
O223 Zn224 1.899 . S
O223 C231 1.284 . S
Zn224 O223 1.899 . S
Zn224 O225 2.032 . S
Zn224 O228 2.086 . S
Zn224 O233 1.977 . S
O225 Zn224 2.032 . S
O225 C229 1.278 . S
C226 O227 1.203 . S
C226 O233 1.267 . S
O227 C226 1.203 . S
O228 C221 1.185 . S
O228 Zn224 2.086 . S
C229 O225 1.278 . S
C229 O230 1.211 . S
O230 C229 1.211 . S
C231 O223 1.284 . S
C231 O232 1.273 . S
O232 C231 1.273 . S
O233 Zn224 1.977 . S
O233 C226 1.267 . S
C234 O235 1.160 . S
C234 O241 1.185 . S
O235 C234 1.160 . S
O236 Zn237 1.899 . S
O236 C244 1.284 . S
Zn237 O236 1.899 . S
Zn237 O238 2.032 . S
Zn237 O241 2.086 . S
Zn237 O246 1.977 . S
O238 Zn237 2.032 . S
O238 C242 1.278 . S
C239 O240 1.203 . S
C239 O246 1.267 . S
O240 C239 1.203 . S
O241 C234 1.185 . S
O241 Zn237 2.086 . S
C242 O238 1.278 . S
C242 O243 1.211 . S
O243 C242 1.211 . S
C244 O236 1.284 . S
C244 O245 1.273 . S
O245 C244 1.273 . S
O246 Zn237 1.977 . S
O246 C239 1.267 . S
C247 O248 1.160 . S
C247 O254 1.185 . S
O248 C247 1.160 . S
O249 Zn250 1.899 . S
O249 C257 1.284 . S
Zn250 O249 1.899 . S
Zn250 O251 2.032 . S
Zn250 O254 2.086 . S
Zn250 O259 1.977 . S
O251 Zn250 2.032 . S
O251 C255 1.278 . S
C252 O253 1.203 . S
C252 O259 1.267 1_455 S
O253 C252 1.203 . S
O254 C247 1.185 . S
O254 Zn250 2.086 . S
C255 O251 1.278 . S
C255 O256 1.211 . S
O256 C255 1.211 . S
C257 O249 1.284 . S
C257 O258 1.273 . S
O258 C257 1.273 . S
O259 Zn250 1.977 . S
O259 C252 1.267 1_655 S
C260 O261 1.160 . S
C260 O267 1.185 . S
O261 C260 1.160 . S
O262 Zn263 1.899 . S
O262 C270 1.284 . S
Zn263 O262 1.899 . S
Zn263 O264 2.032 . S
Zn263 O267 2.086 . S
Zn263 O272 1.977 . S
O264 Zn263 2.032 . S
O264 C268 1.278 . S
C265 O266 1.203 . S
C265 O272 1.267 . S
O266 C265 1.203 . S
O267 C260 1.185 . S
O267 Zn263 2.086 . S
C268 O264 1.278 . S
C268 O269 1.211 . S
O269 C268 1.211 . S
C270 O262 1.284 . S
C270 O271 1.273 . S
O271 C270 1.273 . S
O272 Zn263 1.977 . S
O272 C265 1.267 . S
C273 O274 1.160 . S
C273 O280 1.185 . S
O274 C273 1.160 . S
O275 Zn276 1.899 . S
O275 C283 1.284 . S
Zn276 O275 1.899 . S
Zn276 O277 2.032 . S
Zn276 O280 2.086 . S
Zn276 O285 1.977 . S
O277 Zn276 2.032 . S
O277 C281 1.278 . S
C278 O279 1.203 . S
C278 O285 1.267 1_455 S
O279 C278 1.203 . S
O280 C273 1.185 . S
O280 Zn276 2.086 . S
C281 O277 1.278 . S
C281 O282 1.211 . S
O282 C281 1.211 . S
C283 O275 1.284 . S
C283 O284 1.273 . S
O284 C283 1.273 . S
O285 Zn276 1.977 . S
O285 C278 1.267 1_655 S
C286 O287 1.160 . S
C286 O293 1.185 . S
O287 C286 1.160 . S
O288 Zn289 1.899 . S
O288 C296 1.284 . S
Zn289 O288 1.899 . S
Zn289 O290 2.032 . S
Zn289 O293 2.086 . S
Zn289 O298 1.977 . S
O290 Zn289 2.032 . S
O290 C294 1.278 . S
C291 O292 1.203 . S
C291 O298 1.267 . S
O292 C291 1.203 . S
O293 C286 1.185 . S
O293 Zn289 2.086 . S
C294 O290 1.278 . S
C294 O295 1.211 . S
O295 C294 1.211 . S
C296 O288 1.284 . S
C296 O297 1.273 . S
O297 C296 1.273 . S
O298 Zn289 1.977 . S
O298 C291 1.267 . S
C299 O300 1.160 . S
C299 O306 1.185 . S
O300 C299 1.160 . S
O301 Zn302 1.899 . S
O301 C309 1.284 . S
Zn302 O301 1.899 . S
Zn302 O303 2.032 . S
Zn302 O306 2.086 . S
Zn302 O311 1.977 . S
O303 Zn302 2.032 . S
O303 C307 1.278 . S
C304 O305 1.203 . S
C304 O311 1.267 . S
O305 C304 1.203 . S
O306 C299 1.185 . S
O306 Zn302 2.086 . S
C307 O303 1.278 . S
C307 O308 1.211 . S
O308 C307 1.211 . S
C309 O301 1.284 . S
C309 O310 1.273 . S
O310 C309 1.273 . S
O311 Zn302 1.977 . S
O311 C304 1.267 . S
C312 O313 1.160 . S
C312 O319 1.185 . S
O313 C312 1.160 . S
O314 Zn315 1.899 . S
O314 C322 1.284 . S
Zn315 O314 1.899 . S
Zn315 O316 2.032 . S
Zn315 O319 2.086 . S
Zn315 O324 1.977 . S
O316 Zn315 2.032 . S
O316 C320 1.278 . S
C317 O318 1.203 . S
C317 O324 1.267 . S
O318 C317 1.203 . S
O319 C312 1.185 . S
O319 Zn315 2.086 . S
C320 O316 1.278 . S
C320 O321 1.211 . S
O321 C320 1.211 . S
C322 O314 1.284 . S
C322 O323 1.273 . S
O323 C322 1.273 . S
O324 Zn315 1.977 . S
O324 C317 1.267 . S
C325 O326 1.160 . S
C325 O332 1.185 . S
O326 C325 1.160 . S
O327 Zn328 1.899 . S
O327 C335 1.284 . S
Zn328 O327 1.899 . S
Zn328 O329 2.032 . S
Zn328 O332 2.086 . S
Zn328 O337 1.977 . S
O329 Zn328 2.032 . S
O329 C333 1.278 . S
C330 O331 1.203 . S
C330 O337 1.267 . S
O331 C330 1.203 . S
O332 C325 1.185 . S
O332 Zn328 2.086 . S
C333 O329 1.278 . S
C333 O334 1.211 . S
O334 C333 1.211 . S
C335 O327 1.284 . S
C335 O336 1.273 . S
O336 C335 1.273 . S
O337 Zn328 1.977 . S
O337 C330 1.267 . S
C338 O339 1.160 . S
C338 O345 1.185 . S
O339 C338 1.160 . S
O340 Zn341 1.899 . S
O340 C348 1.284 . S
Zn341 O340 1.899 . S
Zn341 O342 2.032 . S
Zn341 O345 2.086 . S
Zn341 O350 1.977 . S
O342 Zn341 2.032 . S
O342 C346 1.278 . S
C343 O344 1.203 . S
C343 O350 1.267 . S
O344 C343 1.203 . S
O345 C338 1.185 . S
O345 Zn341 2.086 . S
C346 O342 1.278 . S
C346 O347 1.211 . S
O347 C346 1.211 . S
C348 O340 1.284 . S
C348 O349 1.273 . S
O349 C348 1.273 . S
O350 Zn341 1.977 . S
O350 C343 1.267 . S
C351 O352 1.160 . S
C351 O358 1.185 . S
O352 C351 1.160 . S
O353 Zn354 1.899 . S
O353 C361 1.284 . S
Zn354 O353 1.899 . S
Zn354 O355 2.032 . S
Zn354 O358 2.086 . S
Zn354 O363 1.977 . S
O355 Zn354 2.032 . S
O355 C359 1.278 . S
C356 O357 1.203 . S
C356 O363 1.267 1_655 S
O357 C356 1.203 . S
O358 C351 1.185 . S
O358 Zn354 2.086 . S
C359 O355 1.278 . S
C359 O360 1.211 . S
O360 C359 1.211 . S
C361 O353 1.284 . S
C361 O362 1.273 . S
O362 C361 1.273 . S
O363 Zn354 1.977 . S
O363 C356 1.267 1_455 S
C364 O365 1.160 . S
C364 O371 1.185 . S
O365 C364 1.160 . S
O366 Zn367 1.899 . S
O366 C374 1.284 . S
Zn367 O366 1.899 . S
Zn367 O368 2.032 . S
Zn367 O371 2.086 . S
Zn367 O376 1.977 . S
O368 Zn367 2.032 . S
O368 C372 1.278 . S
C369 O370 1.203 . S
C369 O376 1.267 . S
O370 C369 1.203 . S
O371 C364 1.185 . S
O371 Zn367 2.086 . S
C372 O368 1.278 . S
C372 O373 1.211 . S
O373 C372 1.211 . S
C374 O366 1.284 . S
C374 O375 1.273 . S
O375 C374 1.273 . S
O376 Zn367 1.977 . S
O376 C369 1.267 . S
C377 O378 1.160 . S
C377 O384 1.185 . S
O378 C377 1.160 . S
O379 Zn380 1.899 . S
O379 C387 1.284 . S
Zn380 O379 1.899 . S
Zn380 O381 2.032 . S
Zn380 O384 2.086 . S
Zn380 O389 1.977 . S
O381 Zn380 2.032 . S
O381 C385 1.278 . S
C382 O383 1.203 . S
C382 O389 1.267 1_655 S
O383 C382 1.203 . S
O384 C377 1.185 . S
O384 Zn380 2.086 . S
C385 O381 1.278 . S
C385 O386 1.211 . S
O386 C385 1.211 . S
C387 O379 1.284 . S
C387 O388 1.273 . S
O388 C387 1.273 . S
O389 Zn380 1.977 . S
O389 C382 1.267 1_455 S
C390 O391 1.160 . S
C390 O397 1.185 . S
O391 C390 1.160 . S
O392 Zn393 1.899 . S
O392 C400 1.284 . S
Zn393 O392 1.899 . S
Zn393 O394 2.032 . S
Zn393 O397 2.086 . S
Zn393 O402 1.977 . S
O394 Zn393 2.032 . S
O394 C398 1.278 . S
C395 O396 1.203 . S
C395 O402 1.267 . S
O396 C395 1.203 . S
O397 C390 1.185 . S
O397 Zn393 2.086 . S
C398 O394 1.278 . S
C398 O399 1.211 . S
O399 C398 1.211 . S
C400 O392 1.284 . S
C400 O401 1.273 . S
O401 C400 1.273 . S
O402 Zn393 1.977 . S
O402 C395 1.267 . S
C403 O404 1.160 . S
C403 O410 1.185 . S
O404 C403 1.160 . S
O405 Zn406 1.899 . S
O405 C413 1.284 . S
Zn406 O405 1.899 . S
Zn406 O407 2.032 . S
Zn406 O410 2.086 . S
Zn406 O415 1.977 . S
O407 Zn406 2.032 . S
O407 C411 1.278 . S
C408 O409 1.203 . S
C408 O415 1.267 . S
O409 C408 1.203 . S
O410 C403 1.185 . S
O410 Zn406 2.086 . S
C411 O407 1.278 . S
C411 O412 1.211 . S
O412 C411 1.211 . S
C413 O405 1.284 . S
C413 O414 1.273 . S
O414 C413 1.273 . S
O415 Zn406 1.977 . S
O415 C408 1.267 . S
C416 C417 1.349 . S
C416 C418 1.327 . S
C416 H441 0.950 . S
C417 C416 1.349 . S
C417 C433 1.349 . S
C418 C416 1.327 . S
C418 C437 1.429 . S
C418 H442 0.950 . S
C419 C436 1.574 . S
C419 C438 1.368 . S
C419 H443 0.949 . S
H420 C424 0.949 . S
C421 C422 1.349 . S
C421 C423 1.327 . S
C421 H444 0.950 . S
C422 C421 1.349 . S
C422 C434 1.349 . S
C423 C421 1.327 . S
C423 C439 1.429 . S
C423 H445 0.950 . S
C424 H420 0.949 . S
C424 C432 1.574 . S
C424 C440 1.368 . S
H425 C433 0.950 . S
H426 C431 0.950 . S
H427 C432 0.949 . S
H428 C434 0.950 . S
H429 C435 0.950 . S
H430 C436 0.949 . S
C431 H426 0.950 . S
C431 C433 1.327 . S
C431 C437 1.429 . S
C432 C424 1.574 . S
C432 H427 0.949 . S
C432 C438 1.368 . S
C433 C417 1.349 . S
C433 H425 0.950 . S
C433 C431 1.327 . S
C434 C422 1.349 . S
C434 H428 0.950 . S
C434 C435 1.327 . S
C435 H429 0.950 . S
C435 C434 1.327 . S
C435 C439 1.429 . S
C436 C419 1.574 . S
C436 H430 0.949 . S
C436 C440 1.368 . S
C437 C418 1.429 . S
C437 C431 1.429 . S
C437 C438 1.523 . S
C438 C419 1.368 . S
C438 C432 1.368 . S
C438 C437 1.523 . S
C439 C423 1.429 . S
C439 C435 1.429 . S
C439 C440 1.523 . S
C440 C424 1.368 . S
C440 C436 1.368 . S
C440 C439 1.523 . S
H441 C416 0.950 . S
H442 C418 0.950 . S
H443 C419 0.949 . S
H444 C421 0.950 . S
H445 C423 0.950 . S
C446 C447 1.349 . S
C446 C448 1.327 . S
C446 H471 0.950 . S
C447 C446 1.349 . S
C447 C463 1.349 . S
C448 C446 1.327 . S
C448 C467 1.429 . S
C448 H472 0.950 . S
C449 C466 1.574 . S
C449 C468 1.368 . S
C449 H473 0.949 . S
H450 C454 0.949 . S
C451 C452 1.349 . S
C451 C453 1.327 . S
C451 H474 0.950 . S
C452 C451 1.349 . S
C452 C464 1.349 . S
C453 C451 1.327 . S
C453 C469 1.429 . S
C453 H475 0.950 . S
C454 H450 0.949 . S
C454 C462 1.574 . S
C454 C470 1.368 . S
H455 C463 0.950 . S
H456 C461 0.950 . S
H457 C462 0.949 . S
H458 C464 0.950 . S
H459 C465 0.950 . S
H460 C466 0.949 . S
C461 H456 0.950 . S
C461 C463 1.327 . S
C461 C467 1.429 . S
C462 C454 1.574 . S
C462 H457 0.949 . S
C462 C468 1.368 . S
C463 C447 1.349 . S
C463 H455 0.950 . S
C463 C461 1.327 . S
C464 C452 1.349 . S
C464 H458 0.950 . S
C464 C465 1.327 . S
C465 H459 0.950 . S
C465 C464 1.327 . S
C465 C469 1.429 . S
C466 C449 1.574 . S
C466 H460 0.949 . S
C466 C470 1.368 . S
C467 C448 1.429 . S
C467 C461 1.429 . S
C467 C468 1.523 . S
C468 C449 1.368 . S
C468 C462 1.368 . S
C468 C467 1.523 . S
C469 C453 1.429 . S
C469 C465 1.429 . S
C469 C470 1.523 . S
C470 C454 1.368 . S
C470 C466 1.368 . S
C470 C469 1.523 . S
H471 C446 0.950 . S
H472 C448 0.950 . S
H473 C449 0.949 . S
H474 C451 0.950 . S
H475 C453 0.950 . S
C476 C477 1.349 . S
C476 C478 1.327 . S
C476 H501 0.950 . S
C477 C476 1.349 . S
C477 C493 1.349 . S
C478 C476 1.327 . S
C478 C497 1.429 . S
C478 H502 0.950 . S
C479 C496 1.574 . S
C479 C498 1.368 . S
C479 H503 0.949 . S
H480 C484 0.949 . S
C481 C482 1.349 . S
C481 C483 1.327 . S
C481 H504 0.950 . S
C482 C481 1.349 . S
C482 C494 1.349 . S
C483 C481 1.327 . S
C483 C499 1.429 . S
C483 H505 0.950 . S
C484 H480 0.949 . S
C484 C492 1.574 . S
C484 C500 1.368 . S
H485 C493 0.950 . S
H486 C491 0.950 . S
H487 C492 0.949 . S
H488 C494 0.950 . S
H489 C495 0.950 . S
H490 C496 0.949 . S
C491 H486 0.950 . S
C491 C493 1.327 . S
C491 C497 1.429 . S
C492 C484 1.574 . S
C492 H487 0.949 . S
C492 C498 1.368 . S
C493 C477 1.349 . S
C493 H485 0.950 . S
C493 C491 1.327 . S
C494 C482 1.349 . S
C494 H488 0.950 . S
C494 C495 1.327 . S
C495 H489 0.950 . S
C495 C494 1.327 . S
C495 C499 1.429 . S
C496 C479 1.574 . S
C496 H490 0.949 . S
C496 C500 1.368 . S
C497 C478 1.429 . S
C497 C491 1.429 . S
C497 C498 1.523 . S
C498 C479 1.368 . S
C498 C492 1.368 . S
C498 C497 1.523 . S
C499 C483 1.429 . S
C499 C495 1.429 . S
C499 C500 1.523 . S
C500 C484 1.368 . S
C500 C496 1.368 . S
C500 C499 1.523 . S
H501 C476 0.950 . S
H502 C478 0.950 . S
H503 C479 0.949 . S
H504 C481 0.950 . S
H505 C483 0.950 . S
C506 C507 1.349 . S
C506 C508 1.327 . S
C506 H531 0.950 . S
C507 C506 1.349 . S
C507 C523 1.349 . S
C508 C506 1.327 . S
C508 C527 1.429 . S
C508 H532 0.950 . S
C509 C526 1.574 . S
C509 C528 1.368 . S
C509 H533 0.949 . S
H510 C514 0.949 . S
C511 C512 1.349 . S
C511 C513 1.327 . S
C511 H534 0.950 . S
C512 C511 1.349 . S
C512 C524 1.349 . S
C513 C511 1.327 . S
C513 C529 1.429 . S
C513 H535 0.950 . S
C514 H510 0.949 . S
C514 C522 1.574 . S
C514 C530 1.368 . S
H515 C523 0.950 . S
H516 C521 0.950 . S
H517 C522 0.949 . S
H518 C524 0.950 . S
H519 C525 0.950 . S
H520 C526 0.949 . S
C521 H516 0.950 . S
C521 C523 1.327 . S
C521 C527 1.429 . S
C522 C514 1.574 . S
C522 H517 0.949 . S
C522 C528 1.368 . S
C523 C507 1.349 . S
C523 H515 0.950 . S
C523 C521 1.327 . S
C524 C512 1.349 . S
C524 H518 0.950 . S
C524 C525 1.327 . S
C525 H519 0.950 . S
C525 C524 1.327 . S
C525 C529 1.429 . S
C526 C509 1.574 . S
C526 H520 0.949 . S
C526 C530 1.368 . S
C527 C508 1.429 . S
C527 C521 1.429 . S
C527 C528 1.523 . S
C528 C509 1.368 . S
C528 C522 1.368 . S
C528 C527 1.523 . S
C529 C513 1.429 . S
C529 C525 1.429 . S
C529 C530 1.523 . S
C530 C514 1.368 . S
C530 C526 1.368 . S
C530 C529 1.523 . S
H531 C506 0.950 . S
H532 C508 0.950 . S
H533 C509 0.949 . S
H534 C511 0.950 . S
H535 C513 0.950 . S
C536 C537 1.349 . S
C536 C538 1.327 . S
C536 H561 0.950 . S
C537 C536 1.349 . S
C537 C553 1.349 . S
C538 C536 1.327 . S
C538 C557 1.429 . S
C538 H562 0.950 . S
C539 C556 1.574 . S
C539 C558 1.368 . S
C539 H563 0.949 . S
H540 C544 0.949 . S
C541 C542 1.349 . S
C541 C543 1.327 . S
C541 H564 0.950 . S
C542 C541 1.349 . S
C542 C554 1.349 . S
C543 C541 1.327 . S
C543 C559 1.429 . S
C543 H565 0.950 . S
C544 H540 0.949 . S
C544 C552 1.574 . S
C544 C560 1.368 . S
H545 C553 0.950 . S
H546 C551 0.950 . S
H547 C552 0.949 . S
H548 C554 0.950 . S
H549 C555 0.950 . S
H550 C556 0.949 . S
C551 H546 0.950 . S
C551 C553 1.327 . S
C551 C557 1.429 . S
C552 C544 1.574 . S
C552 H547 0.949 . S
C552 C558 1.368 . S
C553 C537 1.349 . S
C553 H545 0.950 . S
C553 C551 1.327 . S
C554 C542 1.349 . S
C554 H548 0.950 . S
C554 C555 1.327 . S
C555 H549 0.950 . S
C555 C554 1.327 . S
C555 C559 1.429 . S
C556 C539 1.574 . S
C556 H550 0.949 . S
C556 C560 1.368 . S
C557 C538 1.429 . S
C557 C551 1.429 . S
C557 C558 1.523 . S
C558 C539 1.368 . S
C558 C552 1.368 . S
C558 C557 1.523 . S
C559 C543 1.429 . S
C559 C555 1.429 . S
C559 C560 1.523 . S
C560 C544 1.368 . S
C560 C556 1.368 . S
C560 C559 1.523 . S
H561 C536 0.950 . S
H562 C538 0.950 . S
H563 C539 0.949 . S
H564 C541 0.950 . S
H565 C543 0.950 . S
C566 C567 1.349 . S
C566 C568 1.327 . S
C566 H591 0.950 . S
C567 C566 1.349 . S
C567 C583 1.349 . S
C568 C566 1.327 . S
C568 C587 1.429 . S
C568 H592 0.950 . S
C569 C586 1.574 . S
C569 C588 1.368 . S
C569 H593 0.949 . S
H570 C574 0.949 . S
C571 C572 1.349 . S
C571 C573 1.327 . S
C571 H594 0.950 . S
C572 C571 1.349 . S
C572 C584 1.349 . S
C573 C571 1.327 . S
C573 C589 1.429 . S
C573 H595 0.950 . S
C574 H570 0.949 . S
C574 C582 1.574 . S
C574 C590 1.368 . S
H575 C583 0.950 . S
H576 C581 0.950 . S
H577 C582 0.949 . S
H578 C584 0.950 . S
H579 C585 0.950 . S
H580 C586 0.949 . S
C581 H576 0.950 . S
C581 C583 1.327 . S
C581 C587 1.429 . S
C582 C574 1.574 . S
C582 H577 0.949 . S
C582 C588 1.368 . S
C583 C567 1.349 . S
C583 H575 0.950 . S
C583 C581 1.327 . S
C584 C572 1.349 . S
C584 H578 0.950 . S
C584 C585 1.327 . S
C585 H579 0.950 . S
C585 C584 1.327 . S
C585 C589 1.429 . S
C586 C569 1.574 . S
C586 H580 0.949 . S
C586 C590 1.368 . S
C587 C568 1.429 . S
C587 C581 1.429 . S
C587 C588 1.523 . S
C588 C569 1.368 . S
C588 C582 1.368 . S
C588 C587 1.523 . S
C589 C573 1.429 . S
C589 C585 1.429 . S
C589 C590 1.523 . S
C590 C574 1.368 . S
C590 C586 1.368 . S
C590 C589 1.523 . S
H591 C566 0.950 . S
H592 C568 0.950 . S
H593 C569 0.949 . S
H594 C571 0.950 . S
H595 C573 0.950 . S
C596 C597 1.349 . S
C596 C598 1.327 . S
C596 H621 0.950 . S
C597 C596 1.349 . S
C597 C613 1.349 . S
C598 C596 1.327 . S
C598 C617 1.429 . S
C598 H622 0.950 . S
C599 C616 1.574 . S
C599 C618 1.368 . S
C599 H623 0.949 . S
H600 C604 0.949 . S
C601 C602 1.349 . S
C601 C603 1.327 . S
C601 H624 0.950 . S
C602 C601 1.349 . S
C602 C614 1.349 . S
C603 C601 1.327 . S
C603 C619 1.429 . S
C603 H625 0.950 . S
C604 H600 0.949 . S
C604 C612 1.574 . S
C604 C620 1.368 . S
H605 C613 0.950 . S
H606 C611 0.950 . S
H607 C612 0.949 . S
H608 C614 0.950 . S
H609 C615 0.950 . S
H610 C616 0.949 . S
C611 H606 0.950 . S
C611 C613 1.327 . S
C611 C617 1.429 . S
C612 C604 1.574 . S
C612 H607 0.949 . S
C612 C618 1.368 . S
C613 C597 1.349 . S
C613 H605 0.950 . S
C613 C611 1.327 . S
C614 C602 1.349 . S
C614 H608 0.950 . S
C614 C615 1.327 . S
C615 H609 0.950 . S
C615 C614 1.327 . S
C615 C619 1.429 . S
C616 C599 1.574 . S
C616 H610 0.949 . S
C616 C620 1.368 . S
C617 C598 1.429 . S
C617 C611 1.429 . S
C617 C618 1.523 . S
C618 C599 1.368 . S
C618 C612 1.368 . S
C618 C617 1.523 . S
C619 C603 1.429 . S
C619 C615 1.429 . S
C619 C620 1.523 . S
C620 C604 1.368 . S
C620 C616 1.368 . S
C620 C619 1.523 . S
H621 C596 0.950 . S
H622 C598 0.950 . S
H623 C599 0.949 . S
H624 C601 0.950 . S
H625 C603 0.950 . S
C626 C627 1.349 . S
C626 C628 1.327 . S
C626 H651 0.950 . S
C627 C626 1.349 . S
C627 C643 1.349 . S
C628 C626 1.327 . S
C628 C647 1.429 . S
C628 H652 0.950 . S
C629 C646 1.574 . S
C629 C648 1.368 . S
C629 H653 0.949 . S
H630 C634 0.949 . S
C631 C632 1.349 . S
C631 C633 1.327 . S
C631 H654 0.950 . S
C632 C631 1.349 . S
C632 C644 1.349 . S
C633 C631 1.327 . S
C633 C649 1.429 . S
C633 H655 0.950 . S
C634 H630 0.949 . S
C634 C642 1.574 . S
C634 C650 1.368 . S
H635 C643 0.950 . S
H636 C641 0.950 . S
H637 C642 0.949 . S
H638 C644 0.950 . S
H639 C645 0.950 . S
H640 C646 0.949 . S
C641 H636 0.950 . S
C641 C643 1.327 . S
C641 C647 1.429 . S
C642 C634 1.574 . S
C642 H637 0.949 . S
C642 C648 1.368 . S
C643 C627 1.349 . S
C643 H635 0.950 . S
C643 C641 1.327 . S
C644 C632 1.349 . S
C644 H638 0.950 . S
C644 C645 1.327 . S
C645 H639 0.950 . S
C645 C644 1.327 . S
C645 C649 1.429 . S
C646 C629 1.574 . S
C646 H640 0.949 . S
C646 C650 1.368 . S
C647 C628 1.429 . S
C647 C641 1.429 . S
C647 C648 1.523 . S
C648 C629 1.368 . S
C648 C642 1.368 . S
C648 C647 1.523 . S
C649 C633 1.429 . S
C649 C645 1.429 . S
C649 C650 1.523 . S
C650 C634 1.368 . S
C650 C646 1.368 . S
C650 C649 1.523 . S
H651 C626 0.950 . S
H652 C628 0.950 . S
H653 C629 0.949 . S
H654 C631 0.950 . S
H655 C633 0.950 . S
C656 C657 1.349 . S
C656 C658 1.327 . S
C656 H681 0.950 . S
C657 C656 1.349 . S
C657 C673 1.349 . S
C658 C656 1.327 . S
C658 C677 1.429 . S
C658 H682 0.950 . S
C659 C676 1.574 . S
C659 C678 1.368 . S
C659 H683 0.949 . S
H660 C664 0.949 . S
C661 C662 1.349 . S
C661 C663 1.327 . S
C661 H684 0.950 . S
C662 C661 1.349 . S
C662 C674 1.349 . S
C663 C661 1.327 . S
C663 C679 1.429 . S
C663 H685 0.950 . S
C664 H660 0.949 . S
C664 C672 1.574 . S
C664 C680 1.368 . S
H665 C673 0.950 . S
H666 C671 0.950 . S
H667 C672 0.949 . S
H668 C674 0.950 . S
H669 C675 0.950 . S
H670 C676 0.949 . S
C671 H666 0.950 . S
C671 C673 1.327 . S
C671 C677 1.429 . S
C672 C664 1.574 . S
C672 H667 0.949 . S
C672 C678 1.368 . S
C673 C657 1.349 . S
C673 H665 0.950 . S
C673 C671 1.327 . S
C674 C662 1.349 . S
C674 H668 0.950 . S
C674 C675 1.327 . S
C675 H669 0.950 . S
C675 C674 1.327 . S
C675 C679 1.429 . S
C676 C659 1.574 . S
C676 H670 0.949 . S
C676 C680 1.368 . S
C677 C658 1.429 . S
C677 C671 1.429 . S
C677 C678 1.523 . S
C678 C659 1.368 . S
C678 C672 1.368 . S
C678 C677 1.523 . S
C679 C663 1.429 . S
C679 C675 1.429 . S
C679 C680 1.523 . S
C680 C664 1.368 . S
C680 C676 1.368 . S
C680 C679 1.523 . S
H681 C656 0.950 . S
H682 C658 0.950 . S
H683 C659 0.949 . S
H684 C661 0.950 . S
H685 C663 0.950 . S
C686 C687 1.349 . S
C686 C688 1.327 . S
C686 H711 0.950 . S
C687 C686 1.349 . S
C687 C703 1.349 . S
C688 C686 1.327 . S
C688 C707 1.429 . S
C688 H712 0.950 . S
C689 C706 1.574 . S
C689 C708 1.368 . S
C689 H713 0.949 . S
H690 C694 0.949 . S
C691 C692 1.349 . S
C691 C693 1.327 . S
C691 H714 0.950 . S
C692 C691 1.349 . S
C692 C704 1.349 . S
C693 C691 1.327 . S
C693 C709 1.429 . S
C693 H715 0.950 . S
C694 H690 0.949 . S
C694 C702 1.574 . S
C694 C710 1.368 . S
H695 C703 0.950 . S
H696 C701 0.950 . S
H697 C702 0.949 . S
H698 C704 0.950 . S
H699 C705 0.950 . S
H700 C706 0.949 . S
C701 H696 0.950 . S
C701 C703 1.327 . S
C701 C707 1.429 . S
C702 C694 1.574 . S
C702 H697 0.949 . S
C702 C708 1.368 . S
C703 C687 1.349 . S
C703 H695 0.950 . S
C703 C701 1.327 . S
C704 C692 1.349 . S
C704 H698 0.950 . S
C704 C705 1.327 . S
C705 H699 0.950 . S
C705 C704 1.327 . S
C705 C709 1.429 . S
C706 C689 1.574 . S
C706 H700 0.949 . S
C706 C710 1.368 . S
C707 C688 1.429 . S
C707 C701 1.429 . S
C707 C708 1.523 . S
C708 C689 1.368 . S
C708 C702 1.368 . S
C708 C707 1.523 . S
C709 C693 1.429 . S
C709 C705 1.429 . S
C709 C710 1.523 . S
C710 C694 1.368 . S
C710 C706 1.368 . S
C710 C709 1.523 . S
H711 C686 0.950 . S
H712 C688 0.950 . S
H713 C689 0.949 . S
H714 C691 0.950 . S
H715 C693 0.950 . S
C716 C717 1.349 . S
C716 C718 1.327 . S
C716 H741 0.950 . S
C717 C716 1.349 . S
C717 C733 1.349 . S
C718 C716 1.327 . S
C718 C737 1.429 . S
C718 H742 0.950 . S
C719 C736 1.574 . S
C719 C738 1.368 . S
C719 H743 0.949 . S
H720 C724 0.949 . S
C721 C722 1.349 . S
C721 C723 1.327 . S
C721 H744 0.950 . S
C722 C721 1.349 . S
C722 C734 1.349 . S
C723 C721 1.327 . S
C723 C739 1.429 . S
C723 H745 0.950 . S
C724 H720 0.949 . S
C724 C732 1.574 . S
C724 C740 1.368 . S
H725 C733 0.950 . S
H726 C731 0.950 . S
H727 C732 0.949 . S
H728 C734 0.950 . S
H729 C735 0.950 . S
H730 C736 0.949 . S
C731 H726 0.950 . S
C731 C733 1.327 . S
C731 C737 1.429 . S
C732 C724 1.574 . S
C732 H727 0.949 . S
C732 C738 1.368 . S
C733 C717 1.349 . S
C733 H725 0.950 . S
C733 C731 1.327 . S
C734 C722 1.349 . S
C734 H728 0.950 . S
C734 C735 1.327 . S
C735 H729 0.950 . S
C735 C734 1.327 . S
C735 C739 1.429 . S
C736 C719 1.574 . S
C736 H730 0.949 . S
C736 C740 1.368 . S
C737 C718 1.429 . S
C737 C731 1.429 . S
C737 C738 1.523 . S
C738 C719 1.368 . S
C738 C732 1.368 . S
C738 C737 1.523 . S
C739 C723 1.429 . S
C739 C735 1.429 . S
C739 C740 1.523 . S
C740 C724 1.368 . S
C740 C736 1.368 . S
C740 C739 1.523 . S
H741 C716 0.950 . S
H742 C718 0.950 . S
H743 C719 0.949 . S
H744 C721 0.950 . S
H745 C723 0.950 . S
C746 C747 1.349 . S
C746 C748 1.327 . S
C746 H771 0.950 . S
C747 C746 1.349 . S
C747 C763 1.349 . S
C748 C746 1.327 . S
C748 C767 1.429 . S
C748 H772 0.950 . S
C749 C766 1.574 . S
C749 C768 1.368 . S
C749 H773 0.949 . S
H750 C754 0.949 . S
C751 C752 1.349 . S
C751 C753 1.327 . S
C751 H774 0.950 . S
C752 C751 1.349 . S
C752 C764 1.349 . S
C753 C751 1.327 . S
C753 C769 1.429 . S
C753 H775 0.950 . S
C754 H750 0.949 . S
C754 C762 1.574 . S
C754 C770 1.368 . S
H755 C763 0.950 . S
H756 C761 0.950 . S
H757 C762 0.949 . S
H758 C764 0.950 . S
H759 C765 0.950 . S
H760 C766 0.949 . S
C761 H756 0.950 . S
C761 C763 1.327 . S
C761 C767 1.429 . S
C762 C754 1.574 . S
C762 H757 0.949 . S
C762 C768 1.368 . S
C763 C747 1.349 . S
C763 H755 0.950 . S
C763 C761 1.327 . S
C764 C752 1.349 . S
C764 H758 0.950 . S
C764 C765 1.327 . S
C765 H759 0.950 . S
C765 C764 1.327 . S
C765 C769 1.429 . S
C766 C749 1.574 . S
C766 H760 0.949 . S
C766 C770 1.368 . S
C767 C748 1.429 . S
C767 C761 1.429 . S
C767 C768 1.523 . S
C768 C749 1.368 . S
C768 C762 1.368 . S
C768 C767 1.523 . S
C769 C753 1.429 . S
C769 C765 1.429 . S
C769 C770 1.523 . S
C770 C754 1.368 . S
C770 C766 1.368 . S
C770 C769 1.523 . S
H771 C746 0.950 . S
H772 C748 0.950 . S
H773 C749 0.949 . S
H774 C751 0.950 . S
H775 C753 0.950 . S
C776 C777 1.349 . S
C776 C778 1.327 . S
C776 H801 0.950 . S
C777 C776 1.349 . S
C777 C793 1.349 . S
C778 C776 1.327 . S
C778 C797 1.429 . S
C778 H802 0.950 . S
C779 C796 1.574 . S
C779 C798 1.368 . S
C779 H803 0.949 . S
H780 C784 0.949 . S
C781 C782 1.349 . S
C781 C783 1.327 . S
C781 H804 0.950 . S
C782 C781 1.349 . S
C782 C794 1.349 . S
C783 C781 1.327 . S
C783 C799 1.429 . S
C783 H805 0.950 . S
C784 H780 0.949 . S
C784 C792 1.574 . S
C784 C800 1.368 . S
H785 C793 0.950 . S
H786 C791 0.950 . S
H787 C792 0.949 . S
H788 C794 0.950 . S
H789 C795 0.950 . S
H790 C796 0.949 . S
C791 H786 0.950 . S
C791 C793 1.327 . S
C791 C797 1.429 . S
C792 C784 1.574 . S
C792 H787 0.949 . S
C792 C798 1.368 . S
C793 C777 1.349 . S
C793 H785 0.950 . S
C793 C791 1.327 . S
C794 C782 1.349 . S
C794 H788 0.950 . S
C794 C795 1.327 . S
C795 H789 0.950 . S
C795 C794 1.327 . S
C795 C799 1.429 . S
C796 C779 1.574 . S
C796 H790 0.949 . S
C796 C800 1.368 . S
C797 C778 1.429 . S
C797 C791 1.429 . S
C797 C798 1.523 . S
C798 C779 1.368 . S
C798 C792 1.368 . S
C798 C797 1.523 . S
C799 C783 1.429 . S
C799 C795 1.429 . S
C799 C800 1.523 . S
C800 C784 1.368 . S
C800 C796 1.368 . S
C800 C799 1.523 . S
H801 C776 0.950 . S
H802 C778 0.950 . S
H803 C779 0.949 . S
H804 C781 0.950 . S
H805 C783 0.950 . S
C806 C807 1.349 . S
C806 C808 1.327 . S
C806 H831 0.950 . S
C807 C806 1.349 . S
C807 C823 1.349 . S
C808 C806 1.327 . S
C808 C827 1.429 . S
C808 H832 0.950 . S
C809 C826 1.574 . S
C809 C828 1.368 . S
C809 H833 0.949 . S
H810 C814 0.949 . S
C811 C812 1.349 . S
C811 C813 1.327 . S
C811 H834 0.950 . S
C812 C811 1.349 . S
C812 C824 1.349 . S
C813 C811 1.327 . S
C813 C829 1.429 . S
C813 H835 0.950 . S
C814 H810 0.949 . S
C814 C822 1.574 . S
C814 C830 1.368 . S
H815 C823 0.950 . S
H816 C821 0.950 . S
H817 C822 0.949 . S
H818 C824 0.950 . S
H819 C825 0.950 . S
H820 C826 0.949 . S
C821 H816 0.950 . S
C821 C823 1.327 . S
C821 C827 1.429 . S
C822 C814 1.574 . S
C822 H817 0.949 . S
C822 C828 1.368 . S
C823 C807 1.349 . S
C823 H815 0.950 . S
C823 C821 1.327 . S
C824 C812 1.349 . S
C824 H818 0.950 . S
C824 C825 1.327 . S
C825 H819 0.950 . S
C825 C824 1.327 . S
C825 C829 1.429 . S
C826 C809 1.574 . S
C826 H820 0.949 . S
C826 C830 1.368 . S
C827 C808 1.429 . S
C827 C821 1.429 . S
C827 C828 1.523 . S
C828 C809 1.368 . S
C828 C822 1.368 . S
C828 C827 1.523 . S
C829 C813 1.429 . S
C829 C825 1.429 . S
C829 C830 1.523 . S
C830 C814 1.368 . S
C830 C826 1.368 . S
C830 C829 1.523 . S
H831 C806 0.950 . S
H832 C808 0.950 . S
H833 C809 0.949 . S
H834 C811 0.950 . S
H835 C813 0.950 . S
C836 C837 1.349 . S
C836 C838 1.327 . S
C836 H861 0.950 . S
C837 C836 1.349 . S
C837 C853 1.349 . S
C838 C836 1.327 . S
C838 C857 1.429 . S
C838 H862 0.950 . S
C839 C856 1.574 . S
C839 C858 1.368 . S
C839 H863 0.949 . S
H840 C844 0.949 . S
C841 C842 1.349 . S
C841 C843 1.327 . S
C841 H864 0.950 . S
C842 C841 1.349 . S
C842 C854 1.349 . S
C843 C841 1.327 . S
C843 C859 1.429 . S
C843 H865 0.950 . S
C844 H840 0.949 . S
C844 C852 1.574 . S
C844 C860 1.368 . S
H845 C853 0.950 . S
H846 C851 0.950 . S
H847 C852 0.949 . S
H848 C854 0.950 . S
H849 C855 0.950 . S
H850 C856 0.949 . S
C851 H846 0.950 . S
C851 C853 1.327 . S
C851 C857 1.429 . S
C852 C844 1.574 . S
C852 H847 0.949 . S
C852 C858 1.368 . S
C853 C837 1.349 . S
C853 H845 0.950 . S
C853 C851 1.327 . S
C854 C842 1.349 . S
C854 H848 0.950 . S
C854 C855 1.327 . S
C855 H849 0.950 . S
C855 C854 1.327 . S
C855 C859 1.429 . S
C856 C839 1.574 . S
C856 H850 0.949 . S
C856 C860 1.368 . S
C857 C838 1.429 . S
C857 C851 1.429 . S
C857 C858 1.523 . S
C858 C839 1.368 . S
C858 C852 1.368 . S
C858 C857 1.523 . S
C859 C843 1.429 . S
C859 C855 1.429 . S
C859 C860 1.523 . S
C860 C844 1.368 . S
C860 C856 1.368 . S
C860 C859 1.523 . S
H861 C836 0.950 . S
H862 C838 0.950 . S
H863 C839 0.949 . S
H864 C841 0.950 . S
H865 C843 0.950 . S
C866 C867 1.349 . S
C866 C868 1.327 . S
C866 H891 0.950 . S
C867 C866 1.349 . S
C867 C883 1.349 . S
C868 C866 1.327 . S
C868 C887 1.429 . S
C868 H892 0.950 . S
C869 C886 1.574 . S
C869 C888 1.368 . S
C869 H893 0.949 . S
H870 C874 0.949 . S
C871 C872 1.349 . S
C871 C873 1.327 . S
C871 H894 0.950 . S
C872 C871 1.349 . S
C872 C884 1.349 . S
C873 C871 1.327 . S
C873 C889 1.429 . S
C873 H895 0.950 . S
C874 H870 0.949 . S
C874 C882 1.574 . S
C874 C890 1.368 . S
H875 C883 0.950 . S
H876 C881 0.950 . S
H877 C882 0.949 . S
H878 C884 0.950 . S
H879 C885 0.950 . S
H880 C886 0.949 . S
C881 H876 0.950 . S
C881 C883 1.327 . S
C881 C887 1.429 . S
C882 C874 1.574 . S
C882 H877 0.949 . S
C882 C888 1.368 . S
C883 C867 1.349 . S
C883 H875 0.950 . S
C883 C881 1.327 . S
C884 C872 1.349 . S
C884 H878 0.950 . S
C884 C885 1.327 . S
C885 H879 0.950 . S
C885 C884 1.327 . S
C885 C889 1.429 . S
C886 C869 1.574 . S
C886 H880 0.949 . S
C886 C890 1.368 . S
C887 C868 1.429 . S
C887 C881 1.429 . S
C887 C888 1.523 . S
C888 C869 1.368 . S
C888 C882 1.368 . S
C888 C887 1.523 . S
C889 C873 1.429 . S
C889 C885 1.429 . S
C889 C890 1.523 . S
C890 C874 1.368 . S
C890 C886 1.368 . S
C890 C889 1.523 . S
H891 C866 0.950 . S
H892 C868 0.950 . S
H893 C869 0.949 . S
H894 C871 0.950 . S
H895 C873 0.950 . S
C896 C897 1.349 . S
C896 C898 1.327 . S
C896 H921 0.950 . S
C897 C896 1.349 . S
C897 C913 1.349 . S
C898 C896 1.327 . S
C898 C917 1.429 . S
C898 H922 0.950 . S
C899 C916 1.574 . S
C899 C918 1.368 . S
C899 H923 0.949 . S
H900 C904 0.949 . S
C901 C902 1.349 . S
C901 C903 1.327 . S
C901 H924 0.950 . S
C902 C901 1.349 . S
C902 C914 1.349 . S
C903 C901 1.327 . S
C903 C919 1.429 . S
C903 H925 0.950 . S
C904 H900 0.949 . S
C904 C912 1.574 . S
C904 C920 1.368 . S
H905 C913 0.950 . S
H906 C911 0.950 . S
H907 C912 0.949 . S
H908 C914 0.950 . S
H909 C915 0.950 . S
H910 C916 0.949 . S
C911 H906 0.950 . S
C911 C913 1.327 . S
C911 C917 1.429 . S
C912 C904 1.574 . S
C912 H907 0.949 . S
C912 C918 1.368 . S
C913 C897 1.349 . S
C913 H905 0.950 . S
C913 C911 1.327 . S
C914 C902 1.349 . S
C914 H908 0.950 . S
C914 C915 1.327 . S
C915 H909 0.950 . S
C915 C914 1.327 . S
C915 C919 1.429 . S
C916 C899 1.574 . S
C916 H910 0.949 . S
C916 C920 1.368 . S
C917 C898 1.429 . S
C917 C911 1.429 . S
C917 C918 1.523 . S
C918 C899 1.368 . S
C918 C912 1.368 . S
C918 C917 1.523 . S
C919 C903 1.429 . S
C919 C915 1.429 . S
C919 C920 1.523 . S
C920 C904 1.368 . S
C920 C916 1.368 . S
C920 C919 1.523 . S
H921 C896 0.950 . S
H922 C898 0.950 . S
H923 C899 0.949 . S
H924 C901 0.950 . S
H925 C903 0.950 . S
C926 C927 1.349 . S
C926 C928 1.327 . S
C926 H951 0.950 . S
C927 C926 1.349 . S
C927 C943 1.349 . S
C928 C926 1.327 . S
C928 C947 1.429 . S
C928 H952 0.950 . S
C929 C946 1.574 . S
C929 C948 1.368 . S
C929 H953 0.949 . S
H930 C934 0.949 . S
C931 C932 1.349 . S
C931 C933 1.327 . S
C931 H954 0.950 . S
C932 C931 1.349 . S
C932 C944 1.349 . S
C933 C931 1.327 . S
C933 C949 1.429 . S
C933 H955 0.950 . S
C934 H930 0.949 . S
C934 C942 1.574 . S
C934 C950 1.368 . S
H935 C943 0.950 . S
H936 C941 0.950 . S
H937 C942 0.949 . S
H938 C944 0.950 . S
H939 C945 0.950 . S
H940 C946 0.949 . S
C941 H936 0.950 . S
C941 C943 1.327 . S
C941 C947 1.429 . S
C942 C934 1.574 . S
C942 H937 0.949 . S
C942 C948 1.368 . S
C943 C927 1.349 . S
C943 H935 0.950 . S
C943 C941 1.327 . S
C944 C932 1.349 . S
C944 H938 0.950 . S
C944 C945 1.327 . S
C945 H939 0.950 . S
C945 C944 1.327 . S
C945 C949 1.429 . S
C946 C929 1.574 . S
C946 H940 0.949 . S
C946 C950 1.368 . S
C947 C928 1.429 . S
C947 C941 1.429 . S
C947 C948 1.523 . S
C948 C929 1.368 . S
C948 C942 1.368 . S
C948 C947 1.523 . S
C949 C933 1.429 . S
C949 C945 1.429 . S
C949 C950 1.523 . S
C950 C934 1.368 . S
C950 C946 1.368 . S
C950 C949 1.523 . S
H951 C926 0.950 . S
H952 C928 0.950 . S
H953 C929 0.949 . S
H954 C931 0.950 . S
H955 C933 0.950 . S
C956 C957 1.349 . S
C956 C958 1.327 . S
C956 H981 0.950 . S
C957 C956 1.349 . S
C957 C973 1.349 . S
C958 C956 1.327 . S
C958 C977 1.429 . S
C958 H982 0.950 . S
C959 C976 1.574 . S
C959 C978 1.368 . S
C959 H983 0.949 . S
H960 C964 0.949 . S
C961 C962 1.349 . S
C961 C963 1.327 . S
C961 H984 0.950 . S
C962 C961 1.349 . S
C962 C974 1.349 . S
C963 C961 1.327 . S
C963 C979 1.429 . S
C963 H985 0.950 . S
C964 H960 0.949 . S
C964 C972 1.574 . S
C964 C980 1.368 . S
H965 C973 0.950 . S
H966 C971 0.950 . S
H967 C972 0.949 . S
H968 C974 0.950 . S
H969 C975 0.950 . S
H970 C976 0.949 . S
C971 H966 0.950 . S
C971 C973 1.327 . S
C971 C977 1.429 . S
C972 C964 1.574 . S
C972 H967 0.949 . S
C972 C978 1.368 . S
C973 C957 1.349 . S
C973 H965 0.950 . S
C973 C971 1.327 . S
C974 C962 1.349 . S
C974 H968 0.950 . S
C974 C975 1.327 . S
C975 H969 0.950 . S
C975 C974 1.327 . S
C975 C979 1.429 . S
C976 C959 1.574 . S
C976 H970 0.949 . S
C976 C980 1.368 . S
C977 C958 1.429 . S
C977 C971 1.429 . S
C977 C978 1.523 . S
C978 C959 1.368 . S
C978 C972 1.368 . S
C978 C977 1.523 . S
C979 C963 1.429 . S
C979 C975 1.429 . S
C979 C980 1.523 . S
C980 C964 1.368 . S
C980 C976 1.368 . S
C980 C979 1.523 . S
H981 C956 0.950 . S
H982 C958 0.950 . S
H983 C959 0.949 . S
H984 C961 0.950 . S
H985 C963 0.950 . S
C986 C987 1.349 . S
C986 C988 1.327 . S
C986 H1011 0.950 . S
C987 C986 1.349 . S
C987 C1003 1.349 . S
C988 C986 1.327 . S
C988 C1007 1.429 . S
C988 H1012 0.950 . S
C989 C1006 1.574 . S
C989 C1008 1.368 . S
C989 H1013 0.949 . S
H990 C994 0.949 . S
C991 C992 1.349 . S
C991 C993 1.327 . S
C991 H1014 0.950 . S
C992 C991 1.349 . S
C992 C1004 1.349 . S
C993 C991 1.327 . S
C993 C1009 1.429 . S
C993 H1015 0.950 . S
C994 H990 0.949 . S
C994 C1002 1.574 . S
C994 C1010 1.368 . S
H995 C1003 0.950 . S
H996 C1001 0.950 . S
H997 C1002 0.949 . S
H998 C1004 0.950 . S
H999 C1005 0.950 . S
H1000 C1006 0.949 . S
C1001 H996 0.950 . S
C1001 C1003 1.327 . S
C1001 C1007 1.429 . S
C1002 C994 1.574 . S
C1002 H997 0.949 . S
C1002 C1008 1.368 . S
C1003 C987 1.349 . S
C1003 H995 0.950 . S
C1003 C1001 1.327 . S
C1004 C992 1.349 . S
C1004 H998 0.950 . S
C1004 C1005 1.327 . S
C1005 H999 0.950 . S
C1005 C1004 1.327 . S
C1005 C1009 1.429 . S
C1006 C989 1.574 . S
C1006 H1000 0.949 . S
C1006 C1010 1.368 . S
C1007 C988 1.429 . S
C1007 C1001 1.429 . S
C1007 C1008 1.523 . S
C1008 C989 1.368 . S
C1008 C1002 1.368 . S
C1008 C1007 1.523 . S
C1009 C993 1.429 . S
C1009 C1005 1.429 . S
C1009 C1010 1.523 . S
C1010 C994 1.368 . S
C1010 C1006 1.368 . S
C1010 C1009 1.523 . S
H1011 C986 0.950 . S
H1012 C988 0.950 . S
H1013 C989 0.949 . S
H1014 C991 0.950 . S
H1015 C993 0.950 . S
C1016 C1017 1.349 . S
C1016 C1018 1.327 . S
C1016 H1041 0.950 . S
C1017 C1016 1.349 . S
C1017 C1033 1.349 . S
C1018 C1016 1.327 . S
C1018 C1037 1.429 . S
C1018 H1042 0.950 . S
C1019 C1036 1.574 . S
C1019 C1038 1.368 . S
C1019 H1043 0.949 . S
H1020 C1024 0.949 . S
C1021 C1022 1.349 . S
C1021 C1023 1.327 . S
C1021 H1044 0.950 . S
C1022 C1021 1.349 . S
C1022 C1034 1.349 . S
C1023 C1021 1.327 . S
C1023 C1039 1.429 . S
C1023 H1045 0.950 . S
C1024 H1020 0.949 . S
C1024 C1032 1.574 . S
C1024 C1040 1.368 . S
H1025 C1033 0.950 . S
H1026 C1031 0.950 . S
H1027 C1032 0.949 . S
H1028 C1034 0.950 . S
H1029 C1035 0.950 . S
H1030 C1036 0.949 . S
C1031 H1026 0.950 . S
C1031 C1033 1.327 . S
C1031 C1037 1.429 . S
C1032 C1024 1.574 . S
C1032 H1027 0.949 . S
C1032 C1038 1.368 . S
C1033 C1017 1.349 . S
C1033 H1025 0.950 . S
C1033 C1031 1.327 . S
C1034 C1022 1.349 . S
C1034 H1028 0.950 . S
C1034 C1035 1.327 . S
C1035 H1029 0.950 . S
C1035 C1034 1.327 . S
C1035 C1039 1.429 . S
C1036 C1019 1.574 . S
C1036 H1030 0.949 . S
C1036 C1040 1.368 . S
C1037 C1018 1.429 . S
C1037 C1031 1.429 . S
C1037 C1038 1.523 . S
C1038 C1019 1.368 . S
C1038 C1032 1.368 . S
C1038 C1037 1.523 . S
C1039 C1023 1.429 . S
C1039 C1035 1.429 . S
C1039 C1040 1.523 . S
C1040 C1024 1.368 . S
C1040 C1036 1.368 . S
C1040 C1039 1.523 . S
H1041 C1016 0.950 . S
H1042 C1018 0.950 . S
H1043 C1019 0.949 . S
H1044 C1021 0.950 . S
H1045 C1023 0.950 . S
C1046 C1047 1.349 . S
C1046 C1048 1.327 . S
C1046 H1071 0.950 . S
C1047 C1046 1.349 . S
C1047 C1063 1.349 . S
C1048 C1046 1.327 . S
C1048 C1067 1.429 . S
C1048 H1072 0.950 . S
C1049 C1066 1.574 . S
C1049 C1068 1.368 . S
C1049 H1073 0.949 . S
H1050 C1054 0.949 . S
C1051 C1052 1.349 . S
C1051 C1053 1.327 . S
C1051 H1074 0.950 . S
C1052 C1051 1.349 . S
C1052 C1064 1.349 . S
C1053 C1051 1.327 . S
C1053 C1069 1.429 . S
C1053 H1075 0.950 . S
C1054 H1050 0.949 . S
C1054 C1062 1.574 . S
C1054 C1070 1.368 . S
H1055 C1063 0.950 . S
H1056 C1061 0.950 . S
H1057 C1062 0.949 . S
H1058 C1064 0.950 . S
H1059 C1065 0.950 . S
H1060 C1066 0.949 . S
C1061 H1056 0.950 . S
C1061 C1063 1.327 . S
C1061 C1067 1.429 . S
C1062 C1054 1.574 . S
C1062 H1057 0.949 . S
C1062 C1068 1.368 . S
C1063 C1047 1.349 . S
C1063 H1055 0.950 . S
C1063 C1061 1.327 . S
C1064 C1052 1.349 . S
C1064 H1058 0.950 . S
C1064 C1065 1.327 . S
C1065 H1059 0.950 . S
C1065 C1064 1.327 . S
C1065 C1069 1.429 . S
C1066 C1049 1.574 . S
C1066 H1060 0.949 . S
C1066 C1070 1.368 . S
C1067 C1048 1.429 . S
C1067 C1061 1.429 . S
C1067 C1068 1.523 . S
C1068 C1049 1.368 . S
C1068 C1062 1.368 . S
C1068 C1067 1.523 . S
C1069 C1053 1.429 . S
C1069 C1065 1.429 . S
C1069 C1070 1.523 . S
C1070 C1054 1.368 . S
C1070 C1066 1.368 . S
C1070 C1069 1.523 . S
H1071 C1046 0.950 . S
H1072 C1048 0.950 . S
H1073 C1049 0.949 . S
H1074 C1051 0.950 . S
H1075 C1053 0.950 . S
C1076 C1077 1.349 . S
C1076 C1078 1.327 . S
C1076 H1101 0.950 . S
C1077 C1076 1.349 . S
C1077 C1093 1.349 . S
C1078 C1076 1.327 . S
C1078 C1097 1.429 . S
C1078 H1102 0.950 . S
C1079 C1096 1.574 . S
C1079 C1098 1.368 . S
C1079 H1103 0.949 . S
H1080 C1084 0.949 . S
C1081 C1082 1.349 . S
C1081 C1083 1.327 . S
C1081 H1104 0.950 . S
C1082 C1081 1.349 . S
C1082 C1094 1.349 . S
C1083 C1081 1.327 . S
C1083 C1099 1.429 . S
C1083 H1105 0.950 . S
C1084 H1080 0.949 . S
C1084 C1092 1.574 . S
C1084 C1100 1.368 . S
H1085 C1093 0.950 . S
H1086 C1091 0.950 . S
H1087 C1092 0.949 . S
H1088 C1094 0.950 . S
H1089 C1095 0.950 . S
H1090 C1096 0.949 . S
C1091 H1086 0.950 . S
C1091 C1093 1.327 . S
C1091 C1097 1.429 . S
C1092 C1084 1.574 . S
C1092 H1087 0.949 . S
C1092 C1098 1.368 . S
C1093 C1077 1.349 . S
C1093 H1085 0.950 . S
C1093 C1091 1.327 . S
C1094 C1082 1.349 . S
C1094 H1088 0.950 . S
C1094 C1095 1.327 . S
C1095 H1089 0.950 . S
C1095 C1094 1.327 . S
C1095 C1099 1.429 . S
C1096 C1079 1.574 . S
C1096 H1090 0.949 . S
C1096 C1100 1.368 . S
C1097 C1078 1.429 . S
C1097 C1091 1.429 . S
C1097 C1098 1.523 . S
C1098 C1079 1.368 . S
C1098 C1092 1.368 . S
C1098 C1097 1.523 . S
C1099 C1083 1.429 . S
C1099 C1095 1.429 . S
C1099 C1100 1.523 . S
C1100 C1084 1.368 . S
C1100 C1096 1.368 . S
C1100 C1099 1.523 . S
H1101 C1076 0.950 . S
H1102 C1078 0.950 . S
H1103 C1079 0.949 . S
H1104 C1081 0.950 . S
H1105 C1083 0.950 . S
C1106 C1107 1.349 . S
C1106 C1108 1.327 . S
C1106 H1131 0.950 . S
C1107 C1106 1.349 . S
C1107 C1123 1.349 . S
C1108 C1106 1.327 . S
C1108 C1127 1.429 . S
C1108 H1132 0.950 . S
C1109 C1126 1.574 . S
C1109 C1128 1.368 . S
C1109 H1133 0.949 . S
H1110 C1114 0.949 . S
C1111 C1112 1.349 . S
C1111 C1113 1.327 . S
C1111 H1134 0.950 . S
C1112 C1111 1.349 . S
C1112 C1124 1.349 . S
C1113 C1111 1.327 . S
C1113 C1129 1.429 . S
C1113 H1135 0.950 . S
C1114 H1110 0.949 . S
C1114 C1122 1.574 . S
C1114 C1130 1.368 . S
H1115 C1123 0.950 . S
H1116 C1121 0.950 . S
H1117 C1122 0.949 . S
H1118 C1124 0.950 . S
H1119 C1125 0.950 . S
H1120 C1126 0.949 . S
C1121 H1116 0.950 . S
C1121 C1123 1.327 . S
C1121 C1127 1.429 . S
C1122 C1114 1.574 . S
C1122 H1117 0.949 . S
C1122 C1128 1.368 . S
C1123 C1107 1.349 . S
C1123 H1115 0.950 . S
C1123 C1121 1.327 . S
C1124 C1112 1.349 . S
C1124 H1118 0.950 . S
C1124 C1125 1.327 . S
C1125 H1119 0.950 . S
C1125 C1124 1.327 . S
C1125 C1129 1.429 . S
C1126 C1109 1.574 . S
C1126 H1120 0.949 . S
C1126 C1130 1.368 . S
C1127 C1108 1.429 . S
C1127 C1121 1.429 . S
C1127 C1128 1.523 . S
C1128 C1109 1.368 . S
C1128 C1122 1.368 . S
C1128 C1127 1.523 . S
C1129 C1113 1.429 . S
C1129 C1125 1.429 . S
C1129 C1130 1.523 . S
C1130 C1114 1.368 . S
C1130 C1126 1.368 . S
C1130 C1129 1.523 . S
H1131 C1106 0.950 . S
H1132 C1108 0.950 . S
H1133 C1109 0.949 . S
H1134 C1111 0.950 . S
H1135 C1113 0.950 . S
C1136 C1137 1.349 . S
C1136 C1138 1.327 . S
C1136 H1161 0.950 . S
C1137 C1136 1.349 . S
C1137 C1153 1.349 . S
C1138 C1136 1.327 . S
C1138 C1157 1.429 . S
C1138 H1162 0.950 . S
C1139 C1156 1.574 . S
C1139 C1158 1.368 . S
C1139 H1163 0.949 . S
H1140 C1144 0.949 . S
C1141 C1142 1.349 . S
C1141 C1143 1.327 . S
C1141 H1164 0.950 . S
C1142 C1141 1.349 . S
C1142 C1154 1.349 . S
C1143 C1141 1.327 . S
C1143 C1159 1.429 . S
C1143 H1165 0.950 . S
C1144 H1140 0.949 . S
C1144 C1152 1.574 . S
C1144 C1160 1.368 . S
H1145 C1153 0.950 . S
H1146 C1151 0.950 . S
H1147 C1152 0.949 . S
H1148 C1154 0.950 . S
H1149 C1155 0.950 . S
H1150 C1156 0.949 . S
C1151 H1146 0.950 . S
C1151 C1153 1.327 . S
C1151 C1157 1.429 . S
C1152 C1144 1.574 . S
C1152 H1147 0.949 . S
C1152 C1158 1.368 . S
C1153 C1137 1.349 . S
C1153 H1145 0.950 . S
C1153 C1151 1.327 . S
C1154 C1142 1.349 . S
C1154 H1148 0.950 . S
C1154 C1155 1.327 . S
C1155 H1149 0.950 . S
C1155 C1154 1.327 . S
C1155 C1159 1.429 . S
C1156 C1139 1.574 . S
C1156 H1150 0.949 . S
C1156 C1160 1.368 . S
C1157 C1138 1.429 . S
C1157 C1151 1.429 . S
C1157 C1158 1.523 . S
C1158 C1139 1.368 . S
C1158 C1152 1.368 . S
C1158 C1157 1.523 . S
C1159 C1143 1.429 . S
C1159 C1155 1.429 . S
C1159 C1160 1.523 . S
C1160 C1144 1.368 . S
C1160 C1156 1.368 . S
C1160 C1159 1.523 . S
H1161 C1136 0.950 . S
H1162 C1138 0.950 . S
H1163 C1139 0.949 . S
H1164 C1141 0.950 . S
H1165 C1143 0.950 . S
C1166 C1167 1.349 . S
C1166 C1168 1.327 . S
C1166 H1191 0.950 . S
C1167 C1166 1.349 . S
C1167 C1183 1.349 . S
C1168 C1166 1.327 . S
C1168 C1187 1.429 . S
C1168 H1192 0.950 . S
C1169 C1186 1.574 . S
C1169 C1188 1.368 . S
C1169 H1193 0.949 . S
H1170 C1174 0.949 . S
C1171 C1172 1.349 . S
C1171 C1173 1.327 . S
C1171 H1194 0.950 . S
C1172 C1171 1.349 . S
C1172 C1184 1.349 . S
C1173 C1171 1.327 . S
C1173 C1189 1.429 . S
C1173 H1195 0.950 . S
C1174 H1170 0.949 . S
C1174 C1182 1.574 . S
C1174 C1190 1.368 . S
H1175 C1183 0.950 . S
H1176 C1181 0.950 . S
H1177 C1182 0.949 . S
H1178 C1184 0.950 . S
H1179 C1185 0.950 . S
H1180 C1186 0.949 . S
C1181 H1176 0.950 . S
C1181 C1183 1.327 . S
C1181 C1187 1.429 . S
C1182 C1174 1.574 . S
C1182 H1177 0.949 . S
C1182 C1188 1.368 . S
C1183 C1167 1.349 . S
C1183 H1175 0.950 . S
C1183 C1181 1.327 . S
C1184 C1172 1.349 . S
C1184 H1178 0.950 . S
C1184 C1185 1.327 . S
C1185 H1179 0.950 . S
C1185 C1184 1.327 . S
C1185 C1189 1.429 . S
C1186 C1169 1.574 . S
C1186 H1180 0.949 . S
C1186 C1190 1.368 . S
C1187 C1168 1.429 . S
C1187 C1181 1.429 . S
C1187 C1188 1.523 . S
C1188 C1169 1.368 . S
C1188 C1182 1.368 . S
C1188 C1187 1.523 . S
C1189 C1173 1.429 . S
C1189 C1185 1.429 . S
C1189 C1190 1.523 . S
C1190 C1174 1.368 . S
C1190 C1186 1.368 . S
C1190 C1189 1.523 . S
H1191 C1166 0.950 . S
H1192 C1168 0.950 . S
H1193 C1169 0.949 . S
H1194 C1171 0.950 . S
H1195 C1173 0.950 . S
C1196 C1197 1.349 . S
C1196 C1198 1.327 . S
C1196 H1221 0.950 . S
C1197 C1196 1.349 . S
C1197 C1213 1.349 . S
C1198 C1196 1.327 . S
C1198 C1217 1.429 . S
C1198 H1222 0.950 . S
C1199 C1216 1.574 . S
C1199 C1218 1.368 . S
C1199 H1223 0.949 . S
H1200 C1204 0.949 . S
C1201 C1202 1.349 . S
C1201 C1203 1.327 . S
C1201 H1224 0.950 . S
C1202 C1201 1.349 . S
C1202 C1214 1.349 . S
C1203 C1201 1.327 . S
C1203 C1219 1.429 . S
C1203 H1225 0.950 . S
C1204 H1200 0.949 . S
C1204 C1212 1.574 . S
C1204 C1220 1.368 . S
H1205 C1213 0.950 . S
H1206 C1211 0.950 . S
H1207 C1212 0.949 . S
H1208 C1214 0.950 . S
H1209 C1215 0.950 . S
H1210 C1216 0.949 . S
C1211 H1206 0.950 . S
C1211 C1213 1.327 . S
C1211 C1217 1.429 . S
C1212 C1204 1.574 . S
C1212 H1207 0.949 . S
C1212 C1218 1.368 . S
C1213 C1197 1.349 . S
C1213 H1205 0.950 . S
C1213 C1211 1.327 . S
C1214 C1202 1.349 . S
C1214 H1208 0.950 . S
C1214 C1215 1.327 . S
C1215 H1209 0.950 . S
C1215 C1214 1.327 . S
C1215 C1219 1.429 . S
C1216 C1199 1.574 . S
C1216 H1210 0.949 . S
C1216 C1220 1.368 . S
C1217 C1198 1.429 . S
C1217 C1211 1.429 . S
C1217 C1218 1.523 . S
C1218 C1199 1.368 . S
C1218 C1212 1.368 . S
C1218 C1217 1.523 . S
C1219 C1203 1.429 . S
C1219 C1215 1.429 . S
C1219 C1220 1.523 . S
C1220 C1204 1.368 . S
C1220 C1216 1.368 . S
C1220 C1219 1.523 . S
H1221 C1196 0.950 . S
H1222 C1198 0.950 . S
H1223 C1199 0.949 . S
H1224 C1201 0.950 . S
H1225 C1203 0.950 . S
C1226 C1227 1.349 . S
C1226 C1228 1.327 . S
C1226 H1251 0.950 . S
C1227 C1226 1.349 . S
C1227 C1243 1.349 . S
C1228 C1226 1.327 . S
C1228 C1247 1.429 . S
C1228 H1252 0.950 . S
C1229 C1246 1.574 . S
C1229 C1248 1.368 . S
C1229 H1253 0.949 . S
H1230 C1234 0.949 . S
C1231 C1232 1.349 . S
C1231 C1233 1.327 . S
C1231 H1254 0.950 . S
C1232 C1231 1.349 . S
C1232 C1244 1.349 . S
C1233 C1231 1.327 . S
C1233 C1249 1.429 . S
C1233 H1255 0.950 . S
C1234 H1230 0.949 . S
C1234 C1242 1.574 . S
C1234 C1250 1.368 . S
H1235 C1243 0.950 . S
H1236 C1241 0.950 . S
H1237 C1242 0.949 . S
H1238 C1244 0.950 . S
H1239 C1245 0.950 . S
H1240 C1246 0.949 . S
C1241 H1236 0.950 . S
C1241 C1243 1.327 . S
C1241 C1247 1.429 . S
C1242 C1234 1.574 . S
C1242 H1237 0.949 . S
C1242 C1248 1.368 . S
C1243 C1227 1.349 . S
C1243 H1235 0.950 . S
C1243 C1241 1.327 . S
C1244 C1232 1.349 . S
C1244 H1238 0.950 . S
C1244 C1245 1.327 . S
C1245 H1239 0.950 . S
C1245 C1244 1.327 . S
C1245 C1249 1.429 . S
C1246 C1229 1.574 . S
C1246 H1240 0.949 . S
C1246 C1250 1.368 . S
C1247 C1228 1.429 . S
C1247 C1241 1.429 . S
C1247 C1248 1.523 . S
C1248 C1229 1.368 . S
C1248 C1242 1.368 . S
C1248 C1247 1.523 . S
C1249 C1233 1.429 . S
C1249 C1245 1.429 . S
C1249 C1250 1.523 . S
C1250 C1234 1.368 . S
C1250 C1246 1.368 . S
C1250 C1249 1.523 . S
H1251 C1226 0.950 . S
H1252 C1228 0.950 . S
H1253 C1229 0.949 . S
H1254 C1231 0.950 . S
H1255 C1233 0.950 . S
C1256 C1257 1.349 . S
C1256 C1258 1.327 . S
C1256 H1281 0.950 . S
C1257 C1256 1.349 . S
C1257 C1273 1.349 . S
C1258 C1256 1.327 . S
C1258 C1277 1.429 . S
C1258 H1282 0.950 . S
C1259 C1276 1.574 . S
C1259 C1278 1.368 . S
C1259 H1283 0.949 . S
H1260 C1264 0.949 . S
C1261 C1262 1.349 . S
C1261 C1263 1.327 . S
C1261 H1284 0.950 . S
C1262 C1261 1.349 . S
C1262 C1274 1.349 . S
C1263 C1261 1.327 . S
C1263 C1279 1.429 . S
C1263 H1285 0.950 . S
C1264 H1260 0.949 . S
C1264 C1272 1.574 . S
C1264 C1280 1.368 . S
H1265 C1273 0.950 . S
H1266 C1271 0.950 . S
H1267 C1272 0.949 . S
H1268 C1274 0.950 . S
H1269 C1275 0.950 . S
H1270 C1276 0.949 . S
C1271 H1266 0.950 . S
C1271 C1273 1.327 . S
C1271 C1277 1.429 . S
C1272 C1264 1.574 . S
C1272 H1267 0.949 . S
C1272 C1278 1.368 . S
C1273 C1257 1.349 . S
C1273 H1265 0.950 . S
C1273 C1271 1.327 . S
C1274 C1262 1.349 . S
C1274 H1268 0.950 . S
C1274 C1275 1.327 . S
C1275 H1269 0.950 . S
C1275 C1274 1.327 . S
C1275 C1279 1.429 . S
C1276 C1259 1.574 . S
C1276 H1270 0.949 . S
C1276 C1280 1.368 . S
C1277 C1258 1.429 . S
C1277 C1271 1.429 . S
C1277 C1278 1.523 . S
C1278 C1259 1.368 . S
C1278 C1272 1.368 . S
C1278 C1277 1.523 . S
C1279 C1263 1.429 . S
C1279 C1275 1.429 . S
C1279 C1280 1.523 . S
C1280 C1264 1.368 . S
C1280 C1276 1.368 . S
C1280 C1279 1.523 . S
H1281 C1256 0.950 . S
H1282 C1258 0.950 . S
H1283 C1259 0.949 . S
H1284 C1261 0.950 . S
H1285 C1263 0.950 . S
C1286 C1287 1.349 . S
C1286 C1288 1.327 . S
C1286 H1311 0.950 . S
C1287 C1286 1.349 . S
C1287 C1303 1.349 . S
C1288 C1286 1.327 . S
C1288 C1307 1.429 . S
C1288 H1312 0.950 . S
C1289 C1306 1.574 . S
C1289 C1308 1.368 . S
C1289 H1313 0.949 . S
H1290 C1294 0.949 . S
C1291 C1292 1.349 . S
C1291 C1293 1.327 . S
C1291 H1314 0.950 . S
C1292 C1291 1.349 . S
C1292 C1304 1.349 . S
C1293 C1291 1.327 . S
C1293 C1309 1.429 . S
C1293 H1315 0.950 . S
C1294 H1290 0.949 . S
C1294 C1302 1.574 . S
C1294 C1310 1.368 . S
H1295 C1303 0.950 . S
H1296 C1301 0.950 . S
H1297 C1302 0.949 . S
H1298 C1304 0.950 . S
H1299 C1305 0.950 . S
H1300 C1306 0.949 . S
C1301 H1296 0.950 . S
C1301 C1303 1.327 . S
C1301 C1307 1.429 . S
C1302 C1294 1.574 . S
C1302 H1297 0.949 . S
C1302 C1308 1.368 . S
C1303 C1287 1.349 . S
C1303 H1295 0.950 . S
C1303 C1301 1.327 . S
C1304 C1292 1.349 . S
C1304 H1298 0.950 . S
C1304 C1305 1.327 . S
C1305 H1299 0.950 . S
C1305 C1304 1.327 . S
C1305 C1309 1.429 . S
C1306 C1289 1.574 . S
C1306 H1300 0.949 . S
C1306 C1310 1.368 . S
C1307 C1288 1.429 . S
C1307 C1301 1.429 . S
C1307 C1308 1.523 . S
C1308 C1289 1.368 . S
C1308 C1302 1.368 . S
C1308 C1307 1.523 . S
C1309 C1293 1.429 . S
C1309 C1305 1.429 . S
C1309 C1310 1.523 . S
C1310 C1294 1.368 . S
C1310 C1306 1.368 . S
C1310 C1309 1.523 . S
H1311 C1286 0.950 . S
H1312 C1288 0.950 . S
H1313 C1289 0.949 . S
H1314 C1291 0.950 . S
H1315 C1293 0.950 . S
C1316 C1317 1.349 . S
C1316 C1318 1.327 . S
C1316 H1341 0.950 . S
C1317 C1316 1.349 . S
C1317 C1333 1.349 . S
C1318 C1316 1.327 . S
C1318 C1337 1.429 . S
C1318 H1342 0.950 . S
C1319 C1336 1.574 . S
C1319 C1338 1.368 . S
C1319 H1343 0.949 . S
H1320 C1324 0.949 . S
C1321 C1322 1.349 . S
C1321 C1323 1.327 . S
C1321 H1344 0.950 . S
C1322 C1321 1.349 . S
C1322 C1334 1.349 . S
C1323 C1321 1.327 . S
C1323 C1339 1.429 . S
C1323 H1345 0.950 . S
C1324 H1320 0.949 . S
C1324 C1332 1.574 . S
C1324 C1340 1.368 . S
H1325 C1333 0.950 . S
H1326 C1331 0.950 . S
H1327 C1332 0.949 . S
H1328 C1334 0.950 . S
H1329 C1335 0.950 . S
H1330 C1336 0.949 . S
C1331 H1326 0.950 . S
C1331 C1333 1.327 . S
C1331 C1337 1.429 . S
C1332 C1324 1.574 . S
C1332 H1327 0.949 . S
C1332 C1338 1.368 . S
C1333 C1317 1.349 . S
C1333 H1325 0.950 . S
C1333 C1331 1.327 . S
C1334 C1322 1.349 . S
C1334 H1328 0.950 . S
C1334 C1335 1.327 . S
C1335 H1329 0.950 . S
C1335 C1334 1.327 . S
C1335 C1339 1.429 . S
C1336 C1319 1.574 . S
C1336 H1330 0.949 . S
C1336 C1340 1.368 . S
C1337 C1318 1.429 . S
C1337 C1331 1.429 . S
C1337 C1338 1.523 . S
C1338 C1319 1.368 . S
C1338 C1332 1.368 . S
C1338 C1337 1.523 . S
C1339 C1323 1.429 . S
C1339 C1335 1.429 . S
C1339 C1340 1.523 . S
C1340 C1324 1.368 . S
C1340 C1336 1.368 . S
C1340 C1339 1.523 . S
H1341 C1316 0.950 . S
H1342 C1318 0.950 . S
H1343 C1319 0.949 . S
H1344 C1321 0.950 . S
H1345 C1323 0.950 . S
C1346 C1347 1.349 . S
C1346 C1348 1.327 . S
C1346 H1371 0.950 . S
C1347 C1346 1.349 . S
C1347 C1363 1.349 . S
C1348 C1346 1.327 . S
C1348 C1367 1.429 . S
C1348 H1372 0.950 . S
C1349 C1366 1.574 . S
C1349 C1368 1.368 . S
C1349 H1373 0.949 . S
H1350 C1354 0.949 . S
C1351 C1352 1.349 . S
C1351 C1353 1.327 . S
C1351 H1374 0.950 . S
C1352 C1351 1.349 . S
C1352 C1364 1.349 . S
C1353 C1351 1.327 . S
C1353 C1369 1.429 . S
C1353 H1375 0.950 . S
C1354 H1350 0.949 . S
C1354 C1362 1.574 . S
C1354 C1370 1.368 . S
H1355 C1363 0.950 . S
H1356 C1361 0.950 . S
H1357 C1362 0.949 . S
H1358 C1364 0.950 . S
H1359 C1365 0.950 . S
H1360 C1366 0.949 . S
C1361 H1356 0.950 . S
C1361 C1363 1.327 . S
C1361 C1367 1.429 . S
C1362 C1354 1.574 . S
C1362 H1357 0.949 . S
C1362 C1368 1.368 . S
C1363 C1347 1.349 . S
C1363 H1355 0.950 . S
C1363 C1361 1.327 . S
C1364 C1352 1.349 . S
C1364 H1358 0.950 . S
C1364 C1365 1.327 . S
C1365 H1359 0.950 . S
C1365 C1364 1.327 . S
C1365 C1369 1.429 . S
C1366 C1349 1.574 . S
C1366 H1360 0.949 . S
C1366 C1370 1.368 . S
C1367 C1348 1.429 . S
C1367 C1361 1.429 . S
C1367 C1368 1.523 . S
C1368 C1349 1.368 . S
C1368 C1362 1.368 . S
C1368 C1367 1.523 . S
C1369 C1353 1.429 . S
C1369 C1365 1.429 . S
C1369 C1370 1.523 . S
C1370 C1354 1.368 . S
C1370 C1366 1.368 . S
C1370 C1369 1.523 . S
H1371 C1346 0.950 . S
H1372 C1348 0.950 . S
H1373 C1349 0.949 . S
H1374 C1351 0.950 . S
H1375 C1353 0.950 . S
C1376 C1377 1.349 . S
C1376 C1378 1.327 . S
C1376 H1401 0.950 . S
C1377 C1376 1.349 . S
C1377 C1393 1.349 . S
C1378 C1376 1.327 . S
C1378 C1397 1.429 . S
C1378 H1402 0.950 . S
C1379 C1396 1.574 . S
C1379 C1398 1.368 . S
C1379 H1403 0.949 . S
H1380 C1384 0.949 . S
C1381 C1382 1.349 . S
C1381 C1383 1.327 . S
C1381 H1404 0.950 . S
C1382 C1381 1.349 . S
C1382 C1394 1.349 . S
C1383 C1381 1.327 . S
C1383 C1399 1.429 . S
C1383 H1405 0.950 . S
C1384 H1380 0.949 . S
C1384 C1392 1.574 . S
C1384 C1400 1.368 . S
H1385 C1393 0.950 . S
H1386 C1391 0.950 . S
H1387 C1392 0.949 . S
H1388 C1394 0.950 . S
H1389 C1395 0.950 . S
H1390 C1396 0.949 . S
C1391 H1386 0.950 . S
C1391 C1393 1.327 . S
C1391 C1397 1.429 . S
C1392 C1384 1.574 . S
C1392 H1387 0.949 . S
C1392 C1398 1.368 . S
C1393 C1377 1.349 . S
C1393 H1385 0.950 . S
C1393 C1391 1.327 . S
C1394 C1382 1.349 . S
C1394 H1388 0.950 . S
C1394 C1395 1.327 . S
C1395 H1389 0.950 . S
C1395 C1394 1.327 . S
C1395 C1399 1.429 . S
C1396 C1379 1.574 . S
C1396 H1390 0.949 . S
C1396 C1400 1.368 . S
C1397 C1378 1.429 . S
C1397 C1391 1.429 . S
C1397 C1398 1.523 . S
C1398 C1379 1.368 . S
C1398 C1392 1.368 . S
C1398 C1397 1.523 . S
C1399 C1383 1.429 . S
C1399 C1395 1.429 . S
C1399 C1400 1.523 . S
C1400 C1384 1.368 . S
C1400 C1396 1.368 . S
C1400 C1399 1.523 . S
H1401 C1376 0.950 . S
H1402 C1378 0.950 . S
H1403 C1379 0.949 . S
H1404 C1381 0.950 . S
H1405 C1383 0.950 . S
C1406 C1407 1.349 . S
C1406 C1408 1.327 . S
C1406 H1431 0.950 . S
C1407 C1406 1.349 . S
C1407 C1423 1.349 1_565 S
C1408 C1406 1.327 . S
C1408 C1427 1.429 . S
C1408 H1432 0.950 1_455 S
C1409 C1426 1.574 . S
C1409 C1428 1.368 1_545 S
C1409 H1433 0.949 . S
H1410 C1414 0.949 . S
C1411 C1412 1.349 . S
C1411 C1413 1.327 . S
C1411 H1434 0.950 . S
C1412 C1411 1.349 . S
C1412 C1424 1.349 1_545 S
C1413 C1411 1.327 . S
C1413 C1429 1.429 . S
C1413 H1435 0.950 1_655 S
C1414 H1410 0.949 . S
C1414 C1422 1.574 . S
C1414 C1430 1.368 1_565 S
H1415 C1423 0.950 . S
H1416 C1421 0.950 . S
H1417 C1422 0.949 . S
H1418 C1424 0.950 . S
H1419 C1425 0.950 . S
H1420 C1426 0.949 . S
C1421 H1416 0.950 . S
C1421 C1423 1.327 . S
C1421 C1427 1.429 1_545 S
C1422 C1414 1.574 . S
C1422 H1417 0.949 . S
C1422 C1428 1.368 1_655 S
C1423 C1407 1.349 1_545 S
C1423 H1415 0.950 . S
C1423 C1421 1.327 . S
C1424 C1412 1.349 1_565 S
C1424 H1418 0.950 . S
C1424 C1425 1.327 . S
C1425 H1419 0.950 . S
C1425 C1424 1.327 . S
C1425 C1429 1.429 1_565 S
C1426 C1409 1.574 . S
C1426 H1420 0.949 . S
C1426 C1430 1.368 1_455 S
C1427 C1408 1.429 . S
C1427 C1421 1.429 1_565 S
C1427 C1428 1.523 . S
C1428 C1409 1.368 1_565 S
C1428 C1422 1.368 1_455 S
C1428 C1427 1.523 . S
C1429 C1413 1.429 . S
C1429 C1425 1.429 1_545 S
C1429 C1430 1.523 . S
C1430 C1414 1.368 1_545 S
C1430 C1426 1.368 1_655 S
C1430 C1429 1.523 . S
H1431 C1406 0.950 . S
H1432 C1408 0.950 1_655 S
H1433 C1409 0.949 . S
H1434 C1411 0.950 . S
H1435 C1413 0.950 1_455 S
C1436 C1437 1.349 . S
C1436 C1438 1.327 . S
C1436 H1461 0.950 . S
C1437 C1436 1.349 . S
C1437 C1453 1.349 . S
C1438 C1436 1.327 . S
C1438 C1457 1.429 . S
C1438 H1462 0.950 . S
C1439 C1456 1.574 . S
C1439 C1458 1.368 . S
C1439 H1463 0.949 . S
H1440 C1444 0.949 . S
C1441 C1442 1.349 . S
C1441 C1443 1.327 . S
C1441 H1464 0.950 . S
C1442 C1441 1.349 . S
C1442 C1454 1.349 . S
C1443 C1441 1.327 . S
C1443 C1459 1.429 . S
C1443 H1465 0.950 . S
C1444 H1440 0.949 . S
C1444 C1452 1.574 . S
C1444 C1460 1.368 . S
H1445 C1453 0.950 . S
H1446 C1451 0.950 . S
H1447 C1452 0.949 . S
H1448 C1454 0.950 . S
H1449 C1455 0.950 . S
H1450 C1456 0.949 . S
C1451 H1446 0.950 . S
C1451 C1453 1.327 . S
C1451 C1457 1.429 . S
C1452 C1444 1.574 . S
C1452 H1447 0.949 . S
C1452 C1458 1.368 . S
C1453 C1437 1.349 . S
C1453 H1445 0.950 . S
C1453 C1451 1.327 . S
C1454 C1442 1.349 . S
C1454 H1448 0.950 . S
C1454 C1455 1.327 . S
C1455 H1449 0.950 . S
C1455 C1454 1.327 . S
C1455 C1459 1.429 . S
C1456 C1439 1.574 . S
C1456 H1450 0.949 . S
C1456 C1460 1.368 . S
C1457 C1438 1.429 . S
C1457 C1451 1.429 . S
C1457 C1458 1.523 . S
C1458 C1439 1.368 . S
C1458 C1452 1.368 . S
C1458 C1457 1.523 . S
C1459 C1443 1.429 . S
C1459 C1455 1.429 . S
C1459 C1460 1.523 . S
C1460 C1444 1.368 . S
C1460 C1456 1.368 . S
C1460 C1459 1.523 . S
H1461 C1436 0.950 . S
H1462 C1438 0.950 . S
H1463 C1439 0.949 . S
H1464 C1441 0.950 . S
H1465 C1443 0.950 . S
C1466 C1467 1.349 1_565 S
C1466 C1468 1.327 . S
C1466 H1491 0.950 . S
C1467 C1466 1.349 1_545 S
C1467 C1483 1.349 . S
C1468 C1466 1.327 . S
C1468 C1487 1.429 1_565 S
C1468 H1492 0.950 . S
C1469 C1486 1.574 1_554 S
C1469 C1488 1.368 . S
C1469 H1493 0.949 . S
H1470 C1474 0.949 . S
C1471 C1472 1.349 1_545 S
C1471 C1473 1.327 . S
C1471 H1494 0.950 . S
C1472 C1471 1.349 1_565 S
C1472 C1484 1.349 . S
C1473 C1471 1.327 . S
C1473 C1489 1.429 1_545 S
C1473 H1495 0.950 . S
C1474 H1470 0.949 . S
C1474 C1482 1.574 1_556 S
C1474 C1490 1.368 . S
H1475 C1483 0.950 . S
H1476 C1481 0.950 . S
H1477 C1482 0.949 . S
H1478 C1484 0.950 . S
H1479 C1485 0.950 . S
H1480 C1486 0.949 . S
C1481 H1476 0.950 . S
C1481 C1483 1.327 . S
C1481 C1487 1.429 . S
C1482 C1474 1.574 1_554 S
C1482 H1477 0.949 . S
C1482 C1488 1.368 1_565 S
C1483 C1467 1.349 . S
C1483 H1475 0.950 . S
C1483 C1481 1.327 . S
C1484 C1472 1.349 . S
C1484 H1478 0.950 . S
C1484 C1485 1.327 . S
C1485 H1479 0.950 . S
C1485 C1484 1.327 . S
C1485 C1489 1.429 . S
C1486 C1469 1.574 1_556 S
C1486 H1480 0.949 . S
C1486 C1490 1.368 1_545 S
C1487 C1468 1.429 1_545 S
C1487 C1481 1.429 . S
C1487 C1488 1.523 . S
C1488 C1469 1.368 . S
C1488 C1482 1.368 1_545 S
C1488 C1487 1.523 . S
C1489 C1473 1.429 1_565 S
C1489 C1485 1.429 . S
C1489 C1490 1.523 . S
C1490 C1474 1.368 . S
C1490 C1486 1.368 1_565 S
C1490 C1489 1.523 . S
H1491 C1466 0.950 . S
H1492 C1468 0.950 . S
H1493 C1469 0.949 . S
H1494 C1471 0.950 . S
H1495 C1473 0.950 . S
C1496 C1497 1.349 . S
C1496 C1498 1.327 . S
C1496 H1521 0.950 . S
C1497 C1496 1.349 . S
C1497 C1513 1.349 . S
C1498 C1496 1.327 . S
C1498 C1517 1.429 . S
C1498 H1522 0.950 . S
C1499 C1516 1.574 . S
C1499 C1518 1.368 . S
C1499 H1523 0.949 . S
H1500 C1504 0.949 . S
C1501 C1502 1.349 . S
C1501 C1503 1.327 . S
C1501 H1524 0.950 . S
C1502 C1501 1.349 . S
C1502 C1514 1.349 . S
C1503 C1501 1.327 . S
C1503 C1519 1.429 . S
C1503 H1525 0.950 . S
C1504 H1500 0.949 . S
C1504 C1512 1.574 . S
C1504 C1520 1.368 . S
H1505 C1513 0.950 . S
H1506 C1511 0.950 . S
H1507 C1512 0.949 . S
H1508 C1514 0.950 . S
H1509 C1515 0.950 . S
H1510 C1516 0.949 . S
C1511 H1506 0.950 . S
C1511 C1513 1.327 . S
C1511 C1517 1.429 . S
C1512 C1504 1.574 . S
C1512 H1507 0.949 . S
C1512 C1518 1.368 . S
C1513 C1497 1.349 . S
C1513 H1505 0.950 . S
C1513 C1511 1.327 . S
C1514 C1502 1.349 . S
C1514 H1508 0.950 . S
C1514 C1515 1.327 . S
C1515 H1509 0.950 . S
C1515 C1514 1.327 . S
C1515 C1519 1.429 . S
C1516 C1499 1.574 . S
C1516 H1510 0.949 . S
C1516 C1520 1.368 . S
C1517 C1498 1.429 . S
C1517 C1511 1.429 . S
C1517 C1518 1.523 . S
C1518 C1499 1.368 . S
C1518 C1512 1.368 . S
C1518 C1517 1.523 . S
C1519 C1503 1.429 . S
C1519 C1515 1.429 . S
C1519 C1520 1.523 . S
C1520 C1504 1.368 . S
C1520 C1516 1.368 . S
C1520 C1519 1.523 . S
H1521 C1496 0.950 . S
H1522 C1498 0.950 . S
H1523 C1499 0.949 . S
H1524 C1501 0.950 . S
H1525 C1503 0.950 . S
C1526 C1527 1.349 . S
C1526 C1528 1.327 . S
C1526 H1551 0.950 . S
C1527 C1526 1.349 . S
C1527 C1543 1.349 1_565 S
C1528 C1526 1.327 . S
C1528 C1547 1.429 . S
C1528 H1552 0.950 . S
C1529 C1546 1.574 . S
C1529 C1548 1.368 1_545 S
C1529 H1553 0.949 . S
H1530 C1534 0.949 . S
C1531 C1532 1.349 . S
C1531 C1533 1.327 . S
C1531 H1554 0.950 . S
C1532 C1531 1.349 . S
C1532 C1544 1.349 1_545 S
C1533 C1531 1.327 . S
C1533 C1549 1.429 . S
C1533 H1555 0.950 . S
C1534 H1530 0.949 . S
C1534 C1542 1.574 . S
C1534 C1550 1.368 1_565 S
H1535 C1543 0.950 . S
H1536 C1541 0.950 . S
H1537 C1542 0.949 . S
H1538 C1544 0.950 . S
H1539 C1545 0.950 . S
H1540 C1546 0.949 . S
C1541 H1536 0.950 . S
C1541 C1543 1.327 . S
C1541 C1547 1.429 1_545 S
C1542 C1534 1.574 . S
C1542 H1537 0.949 . S
C1542 C1548 1.368 . S
C1543 C1527 1.349 1_545 S
C1543 H1535 0.950 . S
C1543 C1541 1.327 . S
C1544 C1532 1.349 1_565 S
C1544 H1538 0.950 . S
C1544 C1545 1.327 . S
C1545 H1539 0.950 . S
C1545 C1544 1.327 . S
C1545 C1549 1.429 1_565 S
C1546 C1529 1.574 . S
C1546 H1540 0.949 . S
C1546 C1550 1.368 . S
C1547 C1528 1.429 . S
C1547 C1541 1.429 1_565 S
C1547 C1548 1.523 . S
C1548 C1529 1.368 1_565 S
C1548 C1542 1.368 . S
C1548 C1547 1.523 . S
C1549 C1533 1.429 . S
C1549 C1545 1.429 1_545 S
C1549 C1550 1.523 . S
C1550 C1534 1.368 1_545 S
C1550 C1546 1.368 . S
C1550 C1549 1.523 . S
H1551 C1526 0.950 . S
H1552 C1528 0.950 . S
H1553 C1529 0.949 . S
H1554 C1531 0.950 . S
H1555 C1533 0.950 . S
C1556 C1557 1.349 . S
C1556 C1558 1.327 . S
C1556 H1581 0.950 . S
C1557 C1556 1.349 . S
C1557 C1573 1.349 . S
C1558 C1556 1.327 . S
C1558 C1577 1.429 . S
C1558 H1582 0.950 . S
C1559 C1576 1.574 . S
C1559 C1578 1.368 . S
C1559 H1583 0.949 . S
H1560 C1564 0.949 . S
C1561 C1562 1.349 . S
C1561 C1563 1.327 . S
C1561 H1584 0.950 . S
C1562 C1561 1.349 . S
C1562 C1574 1.349 . S
C1563 C1561 1.327 . S
C1563 C1579 1.429 . S
C1563 H1585 0.950 . S
C1564 H1560 0.949 . S
C1564 C1572 1.574 . S
C1564 C1580 1.368 . S
H1565 C1573 0.950 . S
H1566 C1571 0.950 . S
H1567 C1572 0.949 . S
H1568 C1574 0.950 . S
H1569 C1575 0.950 . S
H1570 C1576 0.949 . S
C1571 H1566 0.950 . S
C1571 C1573 1.327 . S
C1571 C1577 1.429 . S
C1572 C1564 1.574 . S
C1572 H1567 0.949 . S
C1572 C1578 1.368 . S
C1573 C1557 1.349 . S
C1573 H1565 0.950 . S
C1573 C1571 1.327 . S
C1574 C1562 1.349 . S
C1574 H1568 0.950 . S
C1574 C1575 1.327 . S
C1575 H1569 0.950 . S
C1575 C1574 1.327 . S
C1575 C1579 1.429 . S
C1576 C1559 1.574 . S
C1576 H1570 0.949 . S
C1576 C1580 1.368 . S
C1577 C1558 1.429 . S
C1577 C1571 1.429 . S
C1577 C1578 1.523 . S
C1578 C1559 1.368 . S
C1578 C1572 1.368 . S
C1578 C1577 1.523 . S
C1579 C1563 1.429 . S
C1579 C1575 1.429 . S
C1579 C1580 1.523 . S
C1580 C1564 1.368 . S
C1580 C1576 1.368 . S
C1580 C1579 1.523 . S
H1581 C1556 0.950 . S
H1582 C1558 0.950 . S
H1583 C1559 0.949 . S
H1584 C1561 0.950 . S
H1585 C1563 0.950 . S
C1586 C1587 1.349 1_565 S
C1586 C1588 1.327 . S
C1586 H1611 0.950 . S
C1587 C1586 1.349 1_545 S
C1587 C1603 1.349 . S
C1588 C1586 1.327 . S
C1588 C1607 1.429 1_565 S
C1588 H1612 0.950 . S
C1589 C1606 1.574 1_556 S
C1589 C1608 1.368 1_655 S
C1589 H1613 0.949 . S
H1590 C1594 0.949 . S
C1591 C1592 1.349 1_545 S
C1591 C1593 1.327 . S
C1591 H1614 0.950 . S
C1592 C1591 1.349 1_565 S
C1592 C1604 1.349 . S
C1593 C1591 1.327 . S
C1593 C1609 1.429 1_545 S
C1593 H1615 0.950 . S
C1594 H1590 0.949 . S
C1594 C1602 1.574 1_554 S
C1594 C1610 1.368 1_455 S
H1595 C1603 0.950 . S
H1596 C1601 0.950 1_655 S
H1597 C1602 0.949 . S
H1598 C1604 0.950 . S
H1599 C1605 0.950 1_455 S
H1600 C1606 0.949 . S
C1601 H1596 0.950 1_455 S
C1601 C1603 1.327 . S
C1601 C1607 1.429 . S
C1602 C1594 1.574 1_556 S
C1602 H1597 0.949 . S
C1602 C1608 1.368 1_565 S
C1603 C1587 1.349 . S
C1603 H1595 0.950 . S
C1603 C1601 1.327 . S
C1604 C1592 1.349 . S
C1604 H1598 0.950 . S
C1604 C1605 1.327 . S
C1605 H1599 0.950 1_655 S
C1605 C1604 1.327 . S
C1605 C1609 1.429 . S
C1606 C1589 1.574 1_554 S
C1606 H1600 0.949 . S
C1606 C1610 1.368 1_545 S
C1607 C1588 1.429 1_545 S
C1607 C1601 1.429 . S
C1607 C1608 1.523 . S
C1608 C1589 1.368 1_455 S
C1608 C1602 1.368 1_545 S
C1608 C1607 1.523 . S
C1609 C1593 1.429 1_565 S
C1609 C1605 1.429 . S
C1609 C1610 1.523 . S
C1610 C1594 1.368 1_655 S
C1610 C1606 1.368 1_565 S
C1610 C1609 1.523 . S
H1611 C1586 0.950 . S
H1612 C1588 0.950 . S
H1613 C1589 0.949 . S
H1614 C1591 0.950 . S
H1615 C1593 0.950 . S
C1616 C1617 1.349 . S
C1616 C1618 1.327 . S
C1616 H1641 0.950 . S
C1617 C1616 1.349 . S
C1617 C1633 1.349 . S
C1618 C1616 1.327 . S
C1618 C1637 1.429 . S
C1618 H1642 0.950 . S
C1619 C1636 1.574 . S
C1619 C1638 1.368 . S
C1619 H1643 0.949 . S
H1620 C1624 0.949 . S
C1621 C1622 1.349 . S
C1621 C1623 1.327 . S
C1621 H1644 0.950 . S
C1622 C1621 1.349 . S
C1622 C1634 1.349 . S
C1623 C1621 1.327 . S
C1623 C1639 1.429 . S
C1623 H1645 0.950 . S
C1624 H1620 0.949 . S
C1624 C1632 1.574 . S
C1624 C1640 1.368 . S
H1625 C1633 0.950 . S
H1626 C1631 0.950 . S
H1627 C1632 0.949 . S
H1628 C1634 0.950 . S
H1629 C1635 0.950 . S
H1630 C1636 0.949 . S
C1631 H1626 0.950 . S
C1631 C1633 1.327 . S
C1631 C1637 1.429 . S
C1632 C1624 1.574 . S
C1632 H1627 0.949 . S
C1632 C1638 1.368 . S
C1633 C1617 1.349 . S
C1633 H1625 0.950 . S
C1633 C1631 1.327 . S
C1634 C1622 1.349 . S
C1634 H1628 0.950 . S
C1634 C1635 1.327 . S
C1635 H1629 0.950 . S
C1635 C1634 1.327 . S
C1635 C1639 1.429 . S
C1636 C1619 1.574 . S
C1636 H1630 0.949 . S
C1636 C1640 1.368 . S
C1637 C1618 1.429 . S
C1637 C1631 1.429 . S
C1637 C1638 1.523 . S
C1638 C1619 1.368 . S
C1638 C1632 1.368 . S
C1638 C1637 1.523 . S
C1639 C1623 1.429 . S
C1639 C1635 1.429 . S
C1639 C1640 1.523 . S
C1640 C1624 1.368 . S
C1640 C1636 1.368 . S
C1640 C1639 1.523 . S
H1641 C1616 0.950 . S
H1642 C1618 0.950 . S
H1643 C1619 0.949 . S
H1644 C1621 0.950 . S
H1645 C1623 0.950 . S
C1646 C1647 1.349 . S
C1646 C1648 1.327 . S
C1646 H1671 0.950 . S
C1647 C1646 1.349 . S
C1647 C1663 1.349 . S
C1648 C1646 1.327 . S
C1648 C1667 1.429 . S
C1648 H1672 0.950 . S
C1649 C1666 1.574 . S
C1649 C1668 1.368 . S
C1649 H1673 0.949 . S
H1650 C1654 0.949 . S
C1651 C1652 1.349 . S
C1651 C1653 1.327 . S
C1651 H1674 0.950 . S
C1652 C1651 1.349 . S
C1652 C1664 1.349 . S
C1653 C1651 1.327 . S
C1653 C1669 1.429 . S
C1653 H1675 0.950 . S
C1654 H1650 0.949 . S
C1654 C1662 1.574 . S
C1654 C1670 1.368 . S
H1655 C1663 0.950 . S
H1656 C1661 0.950 . S
H1657 C1662 0.949 . S
H1658 C1664 0.950 . S
H1659 C1665 0.950 . S
H1660 C1666 0.949 . S
C1661 H1656 0.950 . S
C1661 C1663 1.327 . S
C1661 C1667 1.429 . S
C1662 C1654 1.574 . S
C1662 H1657 0.949 . S
C1662 C1668 1.368 . S
C1663 C1647 1.349 . S
C1663 H1655 0.950 . S
C1663 C1661 1.327 . S
C1664 C1652 1.349 . S
C1664 H1658 0.950 . S
C1664 C1665 1.327 . S
C1665 H1659 0.950 . S
C1665 C1664 1.327 . S
C1665 C1669 1.429 . S
C1666 C1649 1.574 . S
C1666 H1660 0.949 . S
C1666 C1670 1.368 . S
C1667 C1648 1.429 . S
C1667 C1661 1.429 . S
C1667 C1668 1.523 . S
C1668 C1649 1.368 . S
C1668 C1662 1.368 . S
C1668 C1667 1.523 . S
C1669 C1653 1.429 . S
C1669 C1665 1.429 . S
C1669 C1670 1.523 . S
C1670 C1654 1.368 . S
C1670 C1666 1.368 . S
C1670 C1669 1.523 . S
H1671 C1646 0.950 . S
H1672 C1648 0.950 . S
H1673 C1649 0.949 . S
H1674 C1651 0.950 . S
H1675 C1653 0.950 . S
C1676 C1677 1.349 . S
C1676 C1678 1.327 . S
C1676 H1701 0.950 . S
C1677 C1676 1.349 . S
C1677 C1693 1.349 . S
C1678 C1676 1.327 . S
C1678 C1697 1.429 . S
C1678 H1702 0.950 . S
C1679 C1696 1.574 . S
C1679 C1698 1.368 . S
C1679 H1703 0.949 . S
H1680 C1684 0.949 . S
C1681 C1682 1.349 . S
C1681 C1683 1.327 . S
C1681 H1704 0.950 . S
C1682 C1681 1.349 . S
C1682 C1694 1.349 . S
C1683 C1681 1.327 . S
C1683 C1699 1.429 . S
C1683 H1705 0.950 . S
C1684 H1680 0.949 . S
C1684 C1692 1.574 . S
C1684 C1700 1.368 . S
H1685 C1693 0.950 . S
H1686 C1691 0.950 . S
H1687 C1692 0.949 . S
H1688 C1694 0.950 . S
H1689 C1695 0.950 . S
H1690 C1696 0.949 . S
C1691 H1686 0.950 . S
C1691 C1693 1.327 . S
C1691 C1697 1.429 . S
C1692 C1684 1.574 . S
C1692 H1687 0.949 . S
C1692 C1698 1.368 . S
C1693 C1677 1.349 . S
C1693 H1685 0.950 . S
C1693 C1691 1.327 . S
C1694 C1682 1.349 . S
C1694 H1688 0.950 . S
C1694 C1695 1.327 . S
C1695 H1689 0.950 . S
C1695 C1694 1.327 . S
C1695 C1699 1.429 . S
C1696 C1679 1.574 . S
C1696 H1690 0.949 . S
C1696 C1700 1.368 . S
C1697 C1678 1.429 . S
C1697 C1691 1.429 . S
C1697 C1698 1.523 . S
C1698 C1679 1.368 . S
C1698 C1692 1.368 . S
C1698 C1697 1.523 . S
C1699 C1683 1.429 . S
C1699 C1695 1.429 . S
C1699 C1700 1.523 . S
C1700 C1684 1.368 . S
C1700 C1696 1.368 . S
C1700 C1699 1.523 . S
H1701 C1676 0.950 . S
H1702 C1678 0.950 . S
H1703 C1679 0.949 . S
H1704 C1681 0.950 . S
H1705 C1683 0.950 . S
C1706 C1707 1.349 . S
C1706 C1708 1.327 . S
C1706 H1731 0.950 . S
C1707 C1706 1.349 . S
C1707 C1723 1.349 . S
C1708 C1706 1.327 . S
C1708 C1727 1.429 . S
C1708 H1732 0.950 . S
C1709 C1726 1.574 . S
C1709 C1728 1.368 . S
C1709 H1733 0.949 . S
H1710 C1714 0.949 . S
C1711 C1712 1.349 . S
C1711 C1713 1.327 . S
C1711 H1734 0.950 . S
C1712 C1711 1.349 . S
C1712 C1724 1.349 . S
C1713 C1711 1.327 . S
C1713 C1729 1.429 . S
C1713 H1735 0.950 . S
C1714 H1710 0.949 . S
C1714 C1722 1.574 . S
C1714 C1730 1.368 . S
H1715 C1723 0.950 . S
H1716 C1721 0.950 . S
H1717 C1722 0.949 . S
H1718 C1724 0.950 . S
H1719 C1725 0.950 . S
H1720 C1726 0.949 . S
C1721 H1716 0.950 . S
C1721 C1723 1.327 . S
C1721 C1727 1.429 . S
C1722 C1714 1.574 . S
C1722 H1717 0.949 . S
C1722 C1728 1.368 . S
C1723 C1707 1.349 . S
C1723 H1715 0.950 . S
C1723 C1721 1.327 . S
C1724 C1712 1.349 . S
C1724 H1718 0.950 . S
C1724 C1725 1.327 . S
C1725 H1719 0.950 . S
C1725 C1724 1.327 . S
C1725 C1729 1.429 . S
C1726 C1709 1.574 . S
C1726 H1720 0.949 . S
C1726 C1730 1.368 . S
C1727 C1708 1.429 . S
C1727 C1721 1.429 . S
C1727 C1728 1.523 . S
C1728 C1709 1.368 . S
C1728 C1722 1.368 . S
C1728 C1727 1.523 . S
C1729 C1713 1.429 . S
C1729 C1725 1.429 . S
C1729 C1730 1.523 . S
C1730 C1714 1.368 . S
C1730 C1726 1.368 . S
C1730 C1729 1.523 . S
H1731 C1706 0.950 . S
H1732 C1708 0.950 . S
H1733 C1709 0.949 . S
H1734 C1711 0.950 . S
H1735 C1713 0.950 . S
C1736 C1737 1.349 . S
C1736 C1738 1.327 . S
C1736 H1761 0.950 . S
C1737 C1736 1.349 . S
C1737 C1753 1.349 . S
C1738 C1736 1.327 . S
C1738 C1757 1.429 . S
C1738 H1762 0.950 . S
C1739 C1756 1.574 1_554 S
C1739 C1758 1.368 . S
C1739 H1763 0.949 . S
H1740 C1744 0.949 . S
C1741 C1742 1.349 . S
C1741 C1743 1.327 . S
C1741 H1764 0.950 . S
C1742 C1741 1.349 . S
C1742 C1754 1.349 . S
C1743 C1741 1.327 . S
C1743 C1759 1.429 . S
C1743 H1765 0.950 . S
C1744 H1740 0.949 . S
C1744 C1752 1.574 1_556 S
C1744 C1760 1.368 . S
H1745 C1753 0.950 . S
H1746 C1751 0.950 . S
H1747 C1752 0.949 . S
H1748 C1754 0.950 . S
H1749 C1755 0.950 . S
H1750 C1756 0.949 . S
C1751 H1746 0.950 . S
C1751 C1753 1.327 . S
C1751 C1757 1.429 . S
C1752 C1744 1.574 1_554 S
C1752 H1747 0.949 . S
C1752 C1758 1.368 . S
C1753 C1737 1.349 . S
C1753 H1745 0.950 . S
C1753 C1751 1.327 . S
C1754 C1742 1.349 . S
C1754 H1748 0.950 . S
C1754 C1755 1.327 . S
C1755 H1749 0.950 . S
C1755 C1754 1.327 . S
C1755 C1759 1.429 . S
C1756 C1739 1.574 1_556 S
C1756 H1750 0.949 . S
C1756 C1760 1.368 . S
C1757 C1738 1.429 . S
C1757 C1751 1.429 . S
C1757 C1758 1.523 . S
C1758 C1739 1.368 . S
C1758 C1752 1.368 . S
C1758 C1757 1.523 . S
C1759 C1743 1.429 . S
C1759 C1755 1.429 . S
C1759 C1760 1.523 . S
C1760 C1744 1.368 . S
C1760 C1756 1.368 . S
C1760 C1759 1.523 . S
H1761 C1736 0.950 . S
H1762 C1738 0.950 . S
H1763 C1739 0.949 . S
H1764 C1741 0.950 . S
H1765 C1743 0.950 . S
C1766 C1767 1.349 . S
C1766 C1768 1.327 . S
C1766 H1791 0.950 . S
C1767 C1766 1.349 . S
C1767 C1783 1.349 . S
C1768 C1766 1.327 . S
C1768 C1787 1.429 . S
C1768 H1792 0.950 1_455 S
C1769 C1786 1.574 . S
C1769 C1788 1.368 . S
C1769 H1793 0.949 . S
H1770 C1774 0.949 . S
C1771 C1772 1.349 . S
C1771 C1773 1.327 . S
C1771 H1794 0.950 . S
C1772 C1771 1.349 . S
C1772 C1784 1.349 . S
C1773 C1771 1.327 . S
C1773 C1789 1.429 . S
C1773 H1795 0.950 1_655 S
C1774 H1770 0.949 . S
C1774 C1782 1.574 . S
C1774 C1790 1.368 . S
H1775 C1783 0.950 . S
H1776 C1781 0.950 . S
H1777 C1782 0.949 . S
H1778 C1784 0.950 . S
H1779 C1785 0.950 . S
H1780 C1786 0.949 . S
C1781 H1776 0.950 . S
C1781 C1783 1.327 . S
C1781 C1787 1.429 . S
C1782 C1774 1.574 . S
C1782 H1777 0.949 . S
C1782 C1788 1.368 1_655 S
C1783 C1767 1.349 . S
C1783 H1775 0.950 . S
C1783 C1781 1.327 . S
C1784 C1772 1.349 . S
C1784 H1778 0.950 . S
C1784 C1785 1.327 . S
C1785 H1779 0.950 . S
C1785 C1784 1.327 . S
C1785 C1789 1.429 . S
C1786 C1769 1.574 . S
C1786 H1780 0.949 . S
C1786 C1790 1.368 1_455 S
C1787 C1768 1.429 . S
C1787 C1781 1.429 . S
C1787 C1788 1.523 . S
C1788 C1769 1.368 . S
C1788 C1782 1.368 1_455 S
C1788 C1787 1.523 . S
C1789 C1773 1.429 . S
C1789 C1785 1.429 . S
C1789 C1790 1.523 . S
C1790 C1774 1.368 . S
C1790 C1786 1.368 1_655 S
C1790 C1789 1.523 . S
H1791 C1766 0.950 . S
H1792 C1768 0.950 1_655 S
H1793 C1769 0.949 . S
H1794 C1771 0.950 . S
H1795 C1773 0.950 1_455 S
C1796 C1797 1.349 . S
C1796 C1798 1.327 . S
C1796 H1821 0.954 . S
C1797 C1796 1.349 . S
C1797 C1813 1.349 . S
C1798 C1796 1.327 . S
C1798 C1817 1.429 . S
C1798 H1822 0.950 1_455 S
C1799 C1816 1.574 1_554 S
C1799 C1818 1.368 . S
C1799 H1823 0.949 . S
H1800 C1804 0.949 . S
C1801 C1802 1.349 . S
C1801 C1803 1.327 . S
C1801 H1824 0.954 . S
C1802 C1801 1.349 . S
C1802 C1814 1.349 . S
C1803 C1801 1.327 . S
C1803 C1819 1.429 . S
C1803 H1825 0.950 1_655 S
C1804 H1800 0.949 . S
C1804 C1812 1.574 1_556 S
C1804 C1820 1.368 . S
H1805 C1813 0.950 . S
H1806 C1811 0.950 . S
H1807 C1812 0.949 . S
H1808 C1814 0.950 . S
H1809 C1815 0.950 . S
H1810 C1816 0.949 . S
C1811 H1806 0.950 . S
C1811 C1813 1.327 . S
C1811 C1817 1.429 . S
C1812 C1804 1.574 1_554 S
C1812 H1807 0.949 . S
C1812 C1818 1.368 1_655 S
C1813 C1797 1.349 . S
C1813 H1805 0.950 . S
C1813 C1811 1.327 . S
C1814 C1802 1.349 . S
C1814 H1808 0.950 . S
C1814 C1815 1.327 . S
C1815 H1809 0.950 . S
C1815 C1814 1.327 . S
C1815 C1819 1.429 . S
C1816 C1799 1.574 1_556 S
C1816 H1810 0.949 . S
C1816 C1820 1.368 1_455 S
C1817 C1798 1.429 . S
C1817 C1811 1.429 . S
C1817 C1818 1.523 . S
C1818 C1799 1.368 . S
C1818 C1812 1.368 1_455 S
C1818 C1817 1.523 . S
C1819 C1803 1.429 . S
C1819 C1815 1.429 . S
C1819 C1820 1.523 . S
C1820 C1804 1.368 . S
C1820 C1816 1.368 1_655 S
C1820 C1819 1.523 . S
H1821 C1796 0.954 . S
H1822 C1798 0.950 1_655 S
H1823 C1799 0.949 . S
H1824 C1801 0.954 . S
H1825 C1803 0.950 1_455 S
C1826 C1827 1.349 . S
C1826 C1828 1.327 . S
C1826 H1851 0.950 . S
C1827 C1826 1.349 . S
C1827 C1843 1.349 . S
C1828 C1826 1.327 . S
C1828 C1847 1.429 . S
C1828 H1852 0.950 . S
C1829 C1846 1.574 . S
C1829 C1848 1.368 . S
C1829 H1853 0.949 . S
H1830 C1834 0.949 . S
C1831 C1832 1.349 . S
C1831 C1833 1.327 . S
C1831 H1854 0.950 . S
C1832 C1831 1.349 . S
C1832 C1844 1.349 . S
C1833 C1831 1.327 . S
C1833 C1849 1.429 . S
C1833 H1855 0.950 . S
C1834 H1830 0.949 . S
C1834 C1842 1.574 . S
C1834 C1850 1.368 . S
H1835 C1843 0.950 . S
H1836 C1841 0.950 . S
H1837 C1842 0.949 . S
H1838 C1844 0.950 . S
H1839 C1845 0.950 . S
H1840 C1846 0.949 . S
C1841 H1836 0.950 . S
C1841 C1843 1.327 . S
C1841 C1847 1.429 . S
C1842 C1834 1.574 . S
C1842 H1837 0.949 . S
C1842 C1848 1.368 . S
C1843 C1827 1.349 . S
C1843 H1835 0.950 . S
C1843 C1841 1.327 . S
C1844 C1832 1.349 . S
C1844 H1838 0.950 . S
C1844 C1845 1.327 . S
C1845 H1839 0.950 . S
C1845 C1844 1.327 . S
C1845 C1849 1.429 . S
C1846 C1829 1.574 . S
C1846 H1840 0.949 . S
C1846 C1850 1.368 . S
C1847 C1828 1.429 . S
C1847 C1841 1.429 . S
C1847 C1848 1.523 . S
C1848 C1829 1.368 . S
C1848 C1842 1.368 . S
C1848 C1847 1.523 . S
C1849 C1833 1.429 . S
C1849 C1845 1.429 . S
C1849 C1850 1.523 . S
C1850 C1834 1.368 . S
C1850 C1846 1.368 . S
C1850 C1849 1.523 . S
H1851 C1826 0.950 . S
H1852 C1828 0.950 . S
H1853 C1829 0.949 . S
H1854 C1831 0.950 . S
H1855 C1833 0.950 . S
C1856 C1857 1.349 . S
C1856 C1858 1.327 . S
C1856 H1881 0.950 . S
C1857 C1856 1.349 . S
C1857 C1873 1.349 . S
C1858 C1856 1.327 . S
C1858 C1877 1.429 . S
C1858 H1882 0.950 . S
C1859 C1876 1.574 . S
C1859 C1878 1.368 . S
C1859 H1883 0.949 . S
H1860 C1864 0.949 . S
C1861 C1862 1.349 . S
C1861 C1863 1.327 . S
C1861 H1884 0.950 . S
C1862 C1861 1.349 . S
C1862 C1874 1.349 . S
C1863 C1861 1.327 . S
C1863 C1879 1.429 . S
C1863 H1885 0.950 . S
C1864 H1860 0.949 . S
C1864 C1872 1.574 . S
C1864 C1880 1.368 . S
H1865 C1873 0.950 . S
H1866 C1871 0.950 . S
H1867 C1872 0.949 . S
H1868 C1874 0.950 . S
H1869 C1875 0.950 . S
H1870 C1876 0.949 . S
C1871 H1866 0.950 . S
C1871 C1873 1.327 . S
C1871 C1877 1.429 . S
C1872 C1864 1.574 . S
C1872 H1867 0.949 . S
C1872 C1878 1.368 . S
C1873 C1857 1.349 . S
C1873 H1865 0.950 . S
C1873 C1871 1.327 . S
C1874 C1862 1.349 . S
C1874 H1868 0.950 . S
C1874 C1875 1.327 . S
C1875 H1869 0.950 . S
C1875 C1874 1.327 . S
C1875 C1879 1.429 . S
C1876 C1859 1.574 . S
C1876 H1870 0.949 . S
C1876 C1880 1.368 . S
C1877 C1858 1.429 . S
C1877 C1871 1.429 . S
C1877 C1878 1.523 . S
C1878 C1859 1.368 . S
C1878 C1872 1.368 . S
C1878 C1877 1.523 . S
C1879 C1863 1.429 . S
C1879 C1875 1.429 . S
C1879 C1880 1.523 . S
C1880 C1864 1.368 . S
C1880 C1876 1.368 . S
C1880 C1879 1.523 . S
H1881 C1856 0.950 . S
H1882 C1858 0.950 . S
H1883 C1859 0.949 . S
H1884 C1861 0.950 . S
H1885 C1863 0.950 . S
C1886 C1887 1.349 . S
C1886 C1888 1.327 . S
C1886 H1911 0.950 . S
C1887 C1886 1.349 . S
C1887 C1903 1.349 . S
C1888 C1886 1.327 . S
C1888 C1907 1.429 . S
C1888 H1912 0.950 . S
C1889 C1906 1.574 . S
C1889 C1908 1.368 . S
C1889 H1913 0.949 . S
H1890 C1894 0.949 . S
C1891 C1892 1.349 . S
C1891 C1893 1.327 . S
C1891 H1914 0.950 . S
C1892 C1891 1.349 . S
C1892 C1904 1.349 . S
C1893 C1891 1.327 . S
C1893 C1909 1.429 . S
C1893 H1915 0.950 . S
C1894 H1890 0.949 . S
C1894 C1902 1.574 . S
C1894 C1910 1.368 . S
H1895 C1903 0.950 . S
H1896 C1901 0.950 . S
H1897 C1902 0.949 . S
H1898 C1904 0.950 . S
H1899 C1905 0.950 . S
H1900 C1906 0.949 . S
C1901 H1896 0.950 . S
C1901 C1903 1.327 . S
C1901 C1907 1.429 . S
C1902 C1894 1.574 . S
C1902 H1897 0.949 . S
C1902 C1908 1.368 . S
C1903 C1887 1.349 . S
C1903 H1895 0.950 . S
C1903 C1901 1.327 . S
C1904 C1892 1.349 . S
C1904 H1898 0.950 . S
C1904 C1905 1.327 . S
C1905 H1899 0.950 . S
C1905 C1904 1.327 . S
C1905 C1909 1.429 . S
C1906 C1889 1.574 . S
C1906 H1900 0.949 . S
C1906 C1910 1.368 . S
C1907 C1888 1.429 . S
C1907 C1901 1.429 . S
C1907 C1908 1.523 . S
C1908 C1889 1.368 . S
C1908 C1902 1.368 . S
C1908 C1907 1.523 . S
C1909 C1893 1.429 . S
C1909 C1905 1.429 . S
C1909 C1910 1.523 . S
C1910 C1894 1.368 . S
C1910 C1906 1.368 . S
C1910 C1909 1.523 . S
H1911 C1886 0.950 . S
H1912 C1888 0.950 . S
H1913 C1889 0.949 . S
H1914 C1891 0.950 . S
H1915 C1893 0.950 . S
C1916 C1917 1.349 . S
C1916 C1918 1.327 . S
C1916 H1941 0.950 . S
C1917 C1916 1.349 . S
C1917 C1933 1.349 . S
C1918 C1916 1.327 . S
C1918 C1937 1.429 . S
C1918 H1942 0.950 . S
C1919 C1936 1.574 . S
C1919 C1938 1.368 . S
C1919 H1943 0.949 . S
H1920 C1924 0.949 . S
C1921 C1922 1.349 . S
C1921 C1923 1.327 . S
C1921 H1944 0.950 . S
C1922 C1921 1.349 . S
C1922 C1934 1.349 . S
C1923 C1921 1.327 . S
C1923 C1939 1.429 . S
C1923 H1945 0.950 . S
C1924 H1920 0.949 . S
C1924 C1932 1.574 . S
C1924 C1940 1.368 . S
H1925 C1933 0.950 . S
H1926 C1931 0.950 . S
H1927 C1932 0.949 . S
H1928 C1934 0.950 . S
H1929 C1935 0.950 . S
H1930 C1936 0.949 . S
C1931 H1926 0.950 . S
C1931 C1933 1.327 . S
C1931 C1937 1.429 . S
C1932 C1924 1.574 . S
C1932 H1927 0.949 . S
C1932 C1938 1.368 . S
C1933 C1917 1.349 . S
C1933 H1925 0.950 . S
C1933 C1931 1.327 . S
C1934 C1922 1.349 . S
C1934 H1928 0.950 . S
C1934 C1935 1.327 . S
C1935 H1929 0.950 . S
C1935 C1934 1.327 . S
C1935 C1939 1.429 . S
C1936 C1919 1.574 . S
C1936 H1930 0.949 . S
C1936 C1940 1.368 . S
C1937 C1918 1.429 . S
C1937 C1931 1.429 . S
C1937 C1938 1.523 . S
C1938 C1919 1.368 . S
C1938 C1932 1.368 . S
C1938 C1937 1.523 . S
C1939 C1923 1.429 . S
C1939 C1935 1.429 . S
C1939 C1940 1.523 . S
C1940 C1924 1.368 . S
C1940 C1936 1.368 . S
C1940 C1939 1.523 . S
H1941 C1916 0.950 . S
H1942 C1918 0.950 . S
H1943 C1919 0.949 . S
H1944 C1921 0.950 . S
H1945 C1923 0.950 . S
C1946 C1947 1.349 . S
C1946 C1948 1.327 . S
C1946 H1971 0.950 . S
C1947 C1946 1.349 . S
C1947 C1963 1.349 . S
C1948 C1946 1.327 . S
C1948 C1967 1.429 . S
C1948 H1972 0.950 . S
C1949 C1966 1.574 . S
C1949 C1968 1.368 . S
C1949 H1973 0.949 . S
H1950 C1954 0.949 . S
C1951 C1952 1.349 . S
C1951 C1953 1.327 . S
C1951 H1974 0.950 . S
C1952 C1951 1.349 . S
C1952 C1964 1.349 . S
C1953 C1951 1.327 . S
C1953 C1969 1.429 . S
C1953 H1975 0.950 . S
C1954 H1950 0.949 . S
C1954 C1962 1.574 . S
C1954 C1970 1.368 . S
H1955 C1963 0.950 . S
H1956 C1961 0.950 . S
H1957 C1962 0.949 . S
H1958 C1964 0.950 . S
H1959 C1965 0.950 . S
H1960 C1966 0.949 . S
C1961 H1956 0.950 . S
C1961 C1963 1.327 . S
C1961 C1967 1.429 . S
C1962 C1954 1.574 . S
C1962 H1957 0.949 . S
C1962 C1968 1.368 . S
C1963 C1947 1.349 . S
C1963 H1955 0.950 . S
C1963 C1961 1.327 . S
C1964 C1952 1.349 . S
C1964 H1958 0.950 . S
C1964 C1965 1.327 . S
C1965 H1959 0.950 . S
C1965 C1964 1.327 . S
C1965 C1969 1.429 . S
C1966 C1949 1.574 . S
C1966 H1960 0.949 . S
C1966 C1970 1.368 . S
C1967 C1948 1.429 . S
C1967 C1961 1.429 . S
C1967 C1968 1.523 . S
C1968 C1949 1.368 . S
C1968 C1962 1.368 . S
C1968 C1967 1.523 . S
C1969 C1953 1.429 . S
C1969 C1965 1.429 . S
C1969 C1970 1.523 . S
C1970 C1954 1.368 . S
C1970 C1966 1.368 . S
C1970 C1969 1.523 . S
H1971 C1946 0.950 . S
H1972 C1948 0.950 . S
H1973 C1949 0.949 . S
H1974 C1951 0.950 . S
H1975 C1953 0.950 . S
C1976 C1977 1.349 . S
C1976 C1978 1.327 . S
C1976 H2001 0.950 . S
C1977 C1976 1.349 . S
C1977 C1993 1.349 . S
C1978 C1976 1.327 . S
C1978 C1997 1.429 . S
C1978 H2002 0.950 . S
C1979 C1996 1.574 . S
C1979 C1998 1.368 . S
C1979 H2003 0.949 . S
H1980 C1984 0.949 . S
C1981 C1982 1.349 . S
C1981 C1983 1.327 . S
C1981 H2004 0.950 . S
C1982 C1981 1.349 . S
C1982 C1994 1.349 . S
C1983 C1981 1.327 . S
C1983 C1999 1.429 . S
C1983 H2005 0.950 . S
C1984 H1980 0.949 . S
C1984 C1992 1.574 . S
C1984 C2000 1.368 . S
H1985 C1993 0.950 . S
H1986 C1991 0.950 . S
H1987 C1992 0.949 . S
H1988 C1994 0.950 . S
H1989 C1995 0.950 . S
H1990 C1996 0.949 . S
C1991 H1986 0.950 . S
C1991 C1993 1.327 . S
C1991 C1997 1.429 . S
C1992 C1984 1.574 . S
C1992 H1987 0.949 . S
C1992 C1998 1.368 . S
C1993 C1977 1.349 . S
C1993 H1985 0.950 . S
C1993 C1991 1.327 . S
C1994 C1982 1.349 . S
C1994 H1988 0.950 . S
C1994 C1995 1.327 . S
C1995 H1989 0.950 . S
C1995 C1994 1.327 . S
C1995 C1999 1.429 . S
C1996 C1979 1.574 . S
C1996 H1990 0.949 . S
C1996 C2000 1.368 . S
C1997 C1978 1.429 . S
C1997 C1991 1.429 . S
C1997 C1998 1.523 . S
C1998 C1979 1.368 . S
C1998 C1992 1.368 . S
C1998 C1997 1.523 . S
C1999 C1983 1.429 . S
C1999 C1995 1.429 . S
C1999 C2000 1.523 . S
C2000 C1984 1.368 . S
C2000 C1996 1.368 . S
C2000 C1999 1.523 . S
H2001 C1976 0.950 . S
H2002 C1978 0.950 . S
H2003 C1979 0.949 . S
H2004 C1981 0.950 . S
H2005 C1983 0.950 . S
C2006 C2007 1.349 . S
C2006 C2008 1.327 . S
C2006 H2031 0.950 . S
C2007 C2006 1.349 . S
C2007 C2023 1.349 . S
C2008 C2006 1.327 . S
C2008 C2027 1.429 . S
C2008 H2032 0.950 . S
C2009 C2026 1.574 . S
C2009 C2028 1.368 . S
C2009 H2033 0.949 . S
H2010 C2014 0.949 . S
C2011 C2012 1.349 . S
C2011 C2013 1.327 . S
C2011 H2034 0.950 . S
C2012 C2011 1.349 . S
C2012 C2024 1.349 . S
C2013 C2011 1.327 . S
C2013 C2029 1.429 . S
C2013 H2035 0.950 . S
C2014 H2010 0.949 . S
C2014 C2022 1.574 . S
C2014 C2030 1.368 . S
H2015 C2023 0.950 . S
H2016 C2021 0.950 . S
H2017 C2022 0.949 . S
H2018 C2024 0.950 . S
H2019 C2025 0.950 . S
H2020 C2026 0.949 . S
C2021 H2016 0.950 . S
C2021 C2023 1.327 . S
C2021 C2027 1.429 . S
C2022 C2014 1.574 . S
C2022 H2017 0.949 . S
C2022 C2028 1.368 . S
C2023 C2007 1.349 . S
C2023 H2015 0.950 . S
C2023 C2021 1.327 . S
C2024 C2012 1.349 . S
C2024 H2018 0.950 . S
C2024 C2025 1.327 . S
C2025 H2019 0.950 . S
C2025 C2024 1.327 . S
C2025 C2029 1.429 . S
C2026 C2009 1.574 . S
C2026 H2020 0.949 . S
C2026 C2030 1.368 . S
C2027 C2008 1.429 . S
C2027 C2021 1.429 . S
C2027 C2028 1.523 . S
C2028 C2009 1.368 . S
C2028 C2022 1.368 . S
C2028 C2027 1.523 . S
C2029 C2013 1.429 . S
C2029 C2025 1.429 . S
C2029 C2030 1.523 . S
C2030 C2014 1.368 . S
C2030 C2026 1.368 . S
C2030 C2029 1.523 . S
H2031 C2006 0.950 . S
H2032 C2008 0.950 . S
H2033 C2009 0.949 . S
H2034 C2011 0.950 . S
H2035 C2013 0.950 . S
C2036 C2037 1.349 . S
C2036 C2038 1.327 . S
C2036 H2061 0.950 . S
C2037 C2036 1.349 . S
C2037 C2053 1.349 . S
C2038 C2036 1.327 . S
C2038 C2057 1.429 . S
C2038 H2062 0.950 . S
C2039 C2056 1.574 . S
C2039 C2058 1.368 . S
C2039 H2063 0.949 . S
H2040 C2044 0.949 . S
C2041 C2042 1.349 . S
C2041 C2043 1.327 . S
C2041 H2064 0.950 . S
C2042 C2041 1.349 . S
C2042 C2054 1.349 . S
C2043 C2041 1.327 . S
C2043 C2059 1.429 . S
C2043 H2065 0.950 . S
C2044 H2040 0.949 . S
C2044 C2052 1.574 . S
C2044 C2060 1.368 . S
H2045 C2053 0.950 . S
H2046 C2051 0.950 . S
H2047 C2052 0.949 . S
H2048 C2054 0.950 . S
H2049 C2055 0.950 . S
H2050 C2056 0.949 . S
C2051 H2046 0.950 . S
C2051 C2053 1.327 . S
C2051 C2057 1.429 . S
C2052 C2044 1.574 . S
C2052 H2047 0.949 . S
C2052 C2058 1.368 . S
C2053 C2037 1.349 . S
C2053 H2045 0.950 . S
C2053 C2051 1.327 . S
C2054 C2042 1.349 . S
C2054 H2048 0.950 . S
C2054 C2055 1.327 . S
C2055 H2049 0.950 . S
C2055 C2054 1.327 . S
C2055 C2059 1.429 . S
C2056 C2039 1.574 . S
C2056 H2050 0.949 . S
C2056 C2060 1.368 . S
C2057 C2038 1.429 . S
C2057 C2051 1.429 . S
C2057 C2058 1.523 . S
C2058 C2039 1.368 . S
C2058 C2052 1.368 . S
C2058 C2057 1.523 . S
C2059 C2043 1.429 . S
C2059 C2055 1.429 . S
C2059 C2060 1.523 . S
C2060 C2044 1.368 . S
C2060 C2056 1.368 . S
C2060 C2059 1.523 . S
H2061 C2036 0.950 . S
H2062 C2038 0.950 . S
H2063 C2039 0.949 . S
H2064 C2041 0.950 . S
H2065 C2043 0.950 . S
C2066 C2067 1.349 . S
C2066 C2068 1.327 . S
C2066 H2091 0.950 . S
C2067 C2066 1.349 . S
C2067 C2083 1.349 . S
C2068 C2066 1.327 . S
C2068 C2087 1.429 . S
C2068 H2092 0.950 . S
C2069 C2086 1.574 . S
C2069 C2088 1.368 . S
C2069 H2093 0.949 . S
H2070 C2074 0.949 . S
C2071 C2072 1.349 . S
C2071 C2073 1.327 . S
C2071 H2094 0.950 . S
C2072 C2071 1.349 . S
C2072 C2084 1.349 . S
C2073 C2071 1.327 . S
C2073 C2089 1.429 . S
C2073 H2095 0.950 . S
C2074 H2070 0.949 . S
C2074 C2082 1.574 . S
C2074 C2090 1.368 . S
H2075 C2083 0.950 . S
H2076 C2081 0.950 . S
H2077 C2082 0.949 . S
H2078 C2084 0.950 . S
H2079 C2085 0.950 . S
H2080 C2086 0.949 . S
C2081 H2076 0.950 . S
C2081 C2083 1.327 . S
C2081 C2087 1.429 . S
C2082 C2074 1.574 . S
C2082 H2077 0.949 . S
C2082 C2088 1.368 . S
C2083 C2067 1.349 . S
C2083 H2075 0.950 . S
C2083 C2081 1.327 . S
C2084 C2072 1.349 . S
C2084 H2078 0.950 . S
C2084 C2085 1.327 . S
C2085 H2079 0.950 . S
C2085 C2084 1.327 . S
C2085 C2089 1.429 . S
C2086 C2069 1.574 . S
C2086 H2080 0.949 . S
C2086 C2090 1.368 . S
C2087 C2068 1.429 . S
C2087 C2081 1.429 . S
C2087 C2088 1.523 . S
C2088 C2069 1.368 . S
C2088 C2082 1.368 . S
C2088 C2087 1.523 . S
C2089 C2073 1.429 . S
C2089 C2085 1.429 . S
C2089 C2090 1.523 . S
C2090 C2074 1.368 . S
C2090 C2086 1.368 . S
C2090 C2089 1.523 . S
H2091 C2066 0.950 . S
H2092 C2068 0.950 . S
H2093 C2069 0.949 . S
H2094 C2071 0.950 . S
H2095 C2073 0.950 . S
C2096 C2097 1.349 . S
C2096 C2098 1.327 . S
C2096 H2121 0.950 . S
C2097 C2096 1.349 . S
C2097 C2113 1.349 . S
C2098 C2096 1.327 . S
C2098 C2117 1.429 . S
C2098 H2122 0.950 . S
C2099 C2116 1.574 . S
C2099 C2118 1.368 . S
C2099 H2123 0.949 . S
H2100 C2104 0.949 . S
C2101 C2102 1.349 . S
C2101 C2103 1.327 . S
C2101 H2124 0.950 . S
C2102 C2101 1.349 . S
C2102 C2114 1.349 . S
C2103 C2101 1.327 . S
C2103 C2119 1.429 . S
C2103 H2125 0.950 . S
C2104 H2100 0.949 . S
C2104 C2112 1.574 . S
C2104 C2120 1.368 . S
H2105 C2113 0.950 . S
H2106 C2111 0.950 . S
H2107 C2112 0.949 . S
H2108 C2114 0.950 . S
H2109 C2115 0.950 . S
H2110 C2116 0.949 . S
C2111 H2106 0.950 . S
C2111 C2113 1.327 . S
C2111 C2117 1.429 . S
C2112 C2104 1.574 . S
C2112 H2107 0.949 . S
C2112 C2118 1.368 . S
C2113 C2097 1.349 . S
C2113 H2105 0.950 . S
C2113 C2111 1.327 . S
C2114 C2102 1.349 . S
C2114 H2108 0.950 . S
C2114 C2115 1.327 . S
C2115 H2109 0.950 . S
C2115 C2114 1.327 . S
C2115 C2119 1.429 . S
C2116 C2099 1.574 . S
C2116 H2110 0.949 . S
C2116 C2120 1.368 . S
C2117 C2098 1.429 . S
C2117 C2111 1.429 . S
C2117 C2118 1.523 . S
C2118 C2099 1.368 . S
C2118 C2112 1.368 . S
C2118 C2117 1.523 . S
C2119 C2103 1.429 . S
C2119 C2115 1.429 . S
C2119 C2120 1.523 . S
C2120 C2104 1.368 . S
C2120 C2116 1.368 . S
C2120 C2119 1.523 . S
H2121 C2096 0.950 . S
H2122 C2098 0.950 . S
H2123 C2099 0.949 . S
H2124 C2101 0.950 . S
H2125 C2103 0.950 . S
C2126 C2127 1.349 . S
C2126 C2128 1.327 . S
C2126 H2151 0.950 . S
C2127 C2126 1.349 . S
C2127 C2143 1.349 . S
C2128 C2126 1.327 . S
C2128 C2147 1.429 . S
C2128 H2152 0.950 . S
C2129 C2146 1.574 . S
C2129 C2148 1.368 . S
C2129 H2153 0.949 . S
H2130 C2134 0.949 . S
C2131 C2132 1.349 . S
C2131 C2133 1.327 . S
C2131 H2154 0.950 . S
C2132 C2131 1.349 . S
C2132 C2144 1.349 . S
C2133 C2131 1.327 . S
C2133 C2149 1.429 . S
C2133 H2155 0.950 . S
C2134 H2130 0.949 . S
C2134 C2142 1.574 . S
C2134 C2150 1.368 . S
H2135 C2143 0.950 . S
H2136 C2141 0.950 . S
H2137 C2142 0.949 . S
H2138 C2144 0.950 . S
H2139 C2145 0.950 . S
H2140 C2146 0.949 . S
C2141 H2136 0.950 . S
C2141 C2143 1.327 . S
C2141 C2147 1.429 . S
C2142 C2134 1.574 . S
C2142 H2137 0.949 . S
C2142 C2148 1.368 . S
C2143 C2127 1.349 . S
C2143 H2135 0.950 . S
C2143 C2141 1.327 . S
C2144 C2132 1.349 . S
C2144 H2138 0.950 . S
C2144 C2145 1.327 . S
C2145 H2139 0.950 . S
C2145 C2144 1.327 . S
C2145 C2149 1.429 . S
C2146 C2129 1.574 . S
C2146 H2140 0.949 . S
C2146 C2150 1.368 . S
C2147 C2128 1.429 . S
C2147 C2141 1.429 . S
C2147 C2148 1.523 . S
C2148 C2129 1.368 . S
C2148 C2142 1.368 . S
C2148 C2147 1.523 . S
C2149 C2133 1.429 . S
C2149 C2145 1.429 . S
C2149 C2150 1.523 . S
C2150 C2134 1.368 . S
C2150 C2146 1.368 . S
C2150 C2149 1.523 . S
H2151 C2126 0.950 . S
H2152 C2128 0.950 . S
H2153 C2129 0.949 . S
H2154 C2131 0.950 . S
H2155 C2133 0.950 . S
C2156 C2157 1.349 . S
C2156 C2158 1.327 . S
C2156 H2181 0.950 . S
C2157 C2156 1.349 . S
C2157 C2173 1.349 . S
C2158 C2156 1.327 . S
C2158 C2177 1.429 . S
C2158 H2182 0.950 . S
C2159 C2176 1.574 . S
C2159 C2178 1.368 . S
C2159 H2183 0.949 . S
H2160 C2164 0.949 . S
C2161 C2162 1.349 . S
C2161 C2163 1.327 . S
C2161 H2184 0.950 . S
C2162 C2161 1.349 . S
C2162 C2174 1.349 . S
C2163 C2161 1.327 . S
C2163 C2179 1.429 . S
C2163 H2185 0.950 . S
C2164 H2160 0.949 . S
C2164 C2172 1.574 . S
C2164 C2180 1.368 . S
H2165 C2173 0.950 . S
H2166 C2171 0.950 . S
H2167 C2172 0.949 . S
H2168 C2174 0.950 . S
H2169 C2175 0.950 . S
H2170 C2176 0.949 . S
C2171 H2166 0.950 . S
C2171 C2173 1.327 . S
C2171 C2177 1.429 . S
C2172 C2164 1.574 . S
C2172 H2167 0.949 . S
C2172 C2178 1.368 . S
C2173 C2157 1.349 . S
C2173 H2165 0.950 . S
C2173 C2171 1.327 . S
C2174 C2162 1.349 . S
C2174 H2168 0.950 . S
C2174 C2175 1.327 . S
C2175 H2169 0.950 . S
C2175 C2174 1.327 . S
C2175 C2179 1.429 . S
C2176 C2159 1.574 . S
C2176 H2170 0.949 . S
C2176 C2180 1.368 . S
C2177 C2158 1.429 . S
C2177 C2171 1.429 . S
C2177 C2178 1.523 . S
C2178 C2159 1.368 . S
C2178 C2172 1.368 . S
C2178 C2177 1.523 . S
C2179 C2163 1.429 . S
C2179 C2175 1.429 . S
C2179 C2180 1.523 . S
C2180 C2164 1.368 . S
C2180 C2176 1.368 . S
C2180 C2179 1.523 . S
H2181 C2156 0.950 . S
H2182 C2158 0.950 . S
H2183 C2159 0.949 . S
H2184 C2161 0.950 . S
H2185 C2163 0.950 . S
C2186 C2187 1.349 . S
C2186 C2188 1.327 . S
C2186 H2211 0.950 . S
C2187 C2186 1.349 . S
C2187 C2203 1.349 . S
C2188 C2186 1.327 . S
C2188 C2207 1.429 . S
C2188 H2212 0.950 . S
C2189 C2206 1.574 . S
C2189 C2208 1.368 . S
C2189 H2213 0.949 . S
H2190 C2194 0.949 . S
C2191 C2192 1.349 . S
C2191 C2193 1.327 . S
C2191 H2214 0.950 . S
C2192 C2191 1.349 . S
C2192 C2204 1.349 . S
C2193 C2191 1.327 . S
C2193 C2209 1.429 . S
C2193 H2215 0.950 . S
C2194 H2190 0.949 . S
C2194 C2202 1.574 . S
C2194 C2210 1.368 . S
H2195 C2203 0.950 . S
H2196 C2201 0.950 . S
H2197 C2202 0.949 . S
H2198 C2204 0.950 . S
H2199 C2205 0.950 . S
H2200 C2206 0.949 . S
C2201 H2196 0.950 . S
C2201 C2203 1.327 . S
C2201 C2207 1.429 . S
C2202 C2194 1.574 . S
C2202 H2197 0.949 . S
C2202 C2208 1.368 . S
C2203 C2187 1.349 . S
C2203 H2195 0.950 . S
C2203 C2201 1.327 . S
C2204 C2192 1.349 . S
C2204 H2198 0.950 . S
C2204 C2205 1.327 . S
C2205 H2199 0.950 . S
C2205 C2204 1.327 . S
C2205 C2209 1.429 . S
C2206 C2189 1.574 . S
C2206 H2200 0.949 . S
C2206 C2210 1.368 . S
C2207 C2188 1.429 . S
C2207 C2201 1.429 . S
C2207 C2208 1.523 . S
C2208 C2189 1.368 . S
C2208 C2202 1.368 . S
C2208 C2207 1.523 . S
C2209 C2193 1.429 . S
C2209 C2205 1.429 . S
C2209 C2210 1.523 . S
C2210 C2194 1.368 . S
C2210 C2206 1.368 . S
C2210 C2209 1.523 . S
H2211 C2186 0.950 . S
H2212 C2188 0.950 . S
H2213 C2189 0.949 . S
H2214 C2191 0.950 . S
H2215 C2193 0.950 . S
C2216 C2217 1.349 . S
C2216 C2218 1.327 . S
C2216 H2241 0.950 . S
C2217 C2216 1.349 . S
C2217 C2233 1.349 . S
C2218 C2216 1.327 . S
C2218 C2237 1.429 . S
C2218 H2242 0.950 . S
C2219 C2236 1.574 . S
C2219 C2238 1.368 . S
C2219 H2243 0.949 . S
H2220 C2224 0.949 . S
C2221 C2222 1.349 . S
C2221 C2223 1.327 . S
C2221 H2244 0.950 . S
C2222 C2221 1.349 . S
C2222 C2234 1.349 . S
C2223 C2221 1.327 . S
C2223 C2239 1.429 . S
C2223 H2245 0.950 . S
C2224 H2220 0.949 . S
C2224 C2232 1.574 . S
C2224 C2240 1.368 . S
H2225 C2233 0.950 . S
H2226 C2231 0.950 . S
H2227 C2232 0.949 . S
H2228 C2234 0.950 . S
H2229 C2235 0.950 . S
H2230 C2236 0.949 . S
C2231 H2226 0.950 . S
C2231 C2233 1.327 . S
C2231 C2237 1.429 . S
C2232 C2224 1.574 . S
C2232 H2227 0.949 . S
C2232 C2238 1.368 . S
C2233 C2217 1.349 . S
C2233 H2225 0.950 . S
C2233 C2231 1.327 . S
C2234 C2222 1.349 . S
C2234 H2228 0.950 . S
C2234 C2235 1.327 . S
C2235 H2229 0.950 . S
C2235 C2234 1.327 . S
C2235 C2239 1.429 . S
C2236 C2219 1.574 . S
C2236 H2230 0.949 . S
C2236 C2240 1.368 . S
C2237 C2218 1.429 . S
C2237 C2231 1.429 . S
C2237 C2238 1.523 . S
C2238 C2219 1.368 . S
C2238 C2232 1.368 . S
C2238 C2237 1.523 . S
C2239 C2223 1.429 . S
C2239 C2235 1.429 . S
C2239 C2240 1.523 . S
C2240 C2224 1.368 . S
C2240 C2236 1.368 . S
C2240 C2239 1.523 . S
H2241 C2216 0.950 . S
H2242 C2218 0.950 . S
H2243 C2219 0.949 . S
H2244 C2221 0.950 . S
H2245 C2223 0.950 . S
C2246 C2247 1.349 . S
C2246 C2248 1.327 . S
C2246 H2271 0.950 . S
C2247 C2246 1.349 . S
C2247 C2263 1.349 . S
C2248 C2246 1.327 . S
C2248 C2267 1.429 . S
C2248 H2272 0.950 . S
C2249 C2266 1.574 . S
C2249 C2268 1.368 . S
C2249 H2273 0.949 . S
H2250 C2254 0.949 . S
C2251 C2252 1.349 . S
C2251 C2253 1.327 . S
C2251 H2274 0.950 . S
C2252 C2251 1.349 . S
C2252 C2264 1.349 . S
C2253 C2251 1.327 . S
C2253 C2269 1.429 . S
C2253 H2275 0.950 . S
C2254 H2250 0.949 . S
C2254 C2262 1.574 . S
C2254 C2270 1.368 . S
H2255 C2263 0.950 . S
H2256 C2261 0.950 . S
H2257 C2262 0.949 . S
H2258 C2264 0.950 . S
H2259 C2265 0.950 . S
H2260 C2266 0.949 . S
C2261 H2256 0.950 . S
C2261 C2263 1.327 . S
C2261 C2267 1.429 . S
C2262 C2254 1.574 . S
C2262 H2257 0.949 . S
C2262 C2268 1.368 . S
C2263 C2247 1.349 . S
C2263 H2255 0.950 . S
C2263 C2261 1.327 . S
C2264 C2252 1.349 . S
C2264 H2258 0.950 . S
C2264 C2265 1.327 . S
C2265 H2259 0.950 . S
C2265 C2264 1.327 . S
C2265 C2269 1.429 . S
C2266 C2249 1.574 . S
C2266 H2260 0.949 . S
C2266 C2270 1.368 . S
C2267 C2248 1.429 . S
C2267 C2261 1.429 . S
C2267 C2268 1.523 . S
C2268 C2249 1.368 . S
C2268 C2262 1.368 . S
C2268 C2267 1.523 . S
C2269 C2253 1.429 . S
C2269 C2265 1.429 . S
C2269 C2270 1.523 . S
C2270 C2254 1.368 . S
C2270 C2266 1.368 . S
C2270 C2269 1.523 . S
H2271 C2246 0.950 . S
H2272 C2248 0.950 . S
H2273 C2249 0.949 . S
H2274 C2251 0.950 . S
H2275 C2253 0.950 . S
C2276 C2277 1.349 . S
C2276 C2278 1.327 . S
C2276 H2301 0.950 . S
C2277 C2276 1.349 . S
C2277 C2293 1.349 . S
C2278 C2276 1.327 . S
C2278 C2297 1.429 . S
C2278 H2302 0.950 . S
C2279 C2296 1.574 . S
C2279 C2298 1.368 . S
C2279 H2303 0.949 . S
H2280 C2284 0.949 . S
C2281 C2282 1.349 . S
C2281 C2283 1.327 . S
C2281 H2304 0.950 . S
C2282 C2281 1.349 . S
C2282 C2294 1.349 . S
C2283 C2281 1.327 . S
C2283 C2299 1.429 . S
C2283 H2305 0.950 . S
C2284 H2280 0.949 . S
C2284 C2292 1.574 . S
C2284 C2300 1.368 . S
H2285 C2293 0.950 . S
H2286 C2291 0.950 . S
H2287 C2292 0.949 . S
H2288 C2294 0.950 . S
H2289 C2295 0.950 . S
H2290 C2296 0.949 . S
C2291 H2286 0.950 . S
C2291 C2293 1.327 . S
C2291 C2297 1.429 . S
C2292 C2284 1.574 . S
C2292 H2287 0.949 . S
C2292 C2298 1.368 . S
C2293 C2277 1.349 . S
C2293 H2285 0.950 . S
C2293 C2291 1.327 . S
C2294 C2282 1.349 . S
C2294 H2288 0.950 . S
C2294 C2295 1.327 . S
C2295 H2289 0.950 . S
C2295 C2294 1.327 . S
C2295 C2299 1.429 . S
C2296 C2279 1.574 . S
C2296 H2290 0.949 . S
C2296 C2300 1.368 . S
C2297 C2278 1.429 . S
C2297 C2291 1.429 . S
C2297 C2298 1.523 . S
C2298 C2279 1.368 . S
C2298 C2292 1.368 . S
C2298 C2297 1.523 . S
C2299 C2283 1.429 . S
C2299 C2295 1.429 . S
C2299 C2300 1.523 . S
C2300 C2284 1.368 . S
C2300 C2296 1.368 . S
C2300 C2299 1.523 . S
H2301 C2276 0.950 . S
H2302 C2278 0.950 . S
H2303 C2279 0.949 . S
H2304 C2281 0.950 . S
H2305 C2283 0.950 . S
C2306 C2307 1.349 . S
C2306 C2308 1.327 . S
C2306 H2331 0.950 . S
C2307 C2306 1.349 . S
C2307 C2323 1.349 . S
C2308 C2306 1.327 . S
C2308 C2327 1.429 . S
C2308 H2332 0.950 . S
C2309 C2326 1.574 . S
C2309 C2328 1.368 . S
C2309 H2333 0.949 . S
H2310 C2314 0.949 . S
C2311 C2312 1.349 . S
C2311 C2313 1.327 . S
C2311 H2334 0.950 . S
C2312 C2311 1.349 . S
C2312 C2324 1.349 . S
C2313 C2311 1.327 . S
C2313 C2329 1.429 . S
C2313 H2335 0.950 . S
C2314 H2310 0.949 . S
C2314 C2322 1.574 . S
C2314 C2330 1.368 . S
H2315 C2323 0.950 . S
H2316 C2321 0.950 . S
H2317 C2322 0.949 . S
H2318 C2324 0.950 . S
H2319 C2325 0.950 . S
H2320 C2326 0.949 . S
C2321 H2316 0.950 . S
C2321 C2323 1.327 . S
C2321 C2327 1.429 . S
C2322 C2314 1.574 . S
C2322 H2317 0.949 . S
C2322 C2328 1.368 . S
C2323 C2307 1.349 . S
C2323 H2315 0.950 . S
C2323 C2321 1.327 . S
C2324 C2312 1.349 . S
C2324 H2318 0.950 . S
C2324 C2325 1.327 . S
C2325 H2319 0.950 . S
C2325 C2324 1.327 . S
C2325 C2329 1.429 . S
C2326 C2309 1.574 . S
C2326 H2320 0.949 . S
C2326 C2330 1.368 . S
C2327 C2308 1.429 . S
C2327 C2321 1.429 . S
C2327 C2328 1.523 . S
C2328 C2309 1.368 . S
C2328 C2322 1.368 . S
C2328 C2327 1.523 . S
C2329 C2313 1.429 . S
C2329 C2325 1.429 . S
C2329 C2330 1.523 . S
C2330 C2314 1.368 . S
C2330 C2326 1.368 . S
C2330 C2329 1.523 . S
H2331 C2306 0.950 . S
H2332 C2308 0.950 . S
H2333 C2309 0.949 . S
H2334 C2311 0.950 . S
H2335 C2313 0.950 . S
C417 C359 1.268 . S
C422 C5 1.233 . S
C447 C18 1.232 . S
C452 C112 1.268 . S
C477 C333 1.268 . S
C482 C31 1.232 . S
C507 C44 1.233 . S
C512 C138 1.268 . S
C537 C57 1.233 . S
C542 C385 1.268 . S
C567 C70 1.233 . S
C572 C190 1.268 . S
C597 C83 1.232 . S
C602 C411 1.268 . S
C627 C96 1.232 . S
C632 C164 1.268 . S
C657 C255 1.268 . S
C662 C109 1.233 . S
C687 C8 1.268 . S
C692 C122 1.232 . S
C717 C229 1.268 . S
C722 C135 1.232 . S
C747 C148 1.233 . S
C752 C34 1.268 . S
C777 C281 1.268 . S
C782 C161 1.233 . S
C807 C86 1.268 . S
C812 C174 1.233 . S
C837 C187 1.232 . S
C842 C307 1.268 . S
C867 C60 1.268 . S
C872 C200 1.232 . S
C897 C213 1.233 . S
C902 C151 1.268 . S
C927 C226 1.233 . S
C932 C320 1.268 . S
C957 C125 1.268 . S
C962 C239 1.233 . S
C987 C346 1.268 . S
C992 C252 1.233 . S
C1017 C177 1.268 . S
C1022 C265 1.232 . S
C1047 C398 1.268 . S
C1052 C278 1.233 . S
C1077 C203 1.268 . S
C1082 C291 1.233 . S
C1107 C304 1.233 . S
C1112 C372 1.268 . S
C1137 C47 1.268 . S
C1142 C317 1.233 . S
C1167 C330 1.233 . S
C1172 C216 1.268 . S
C1197 C343 1.233 . S
C1202 C21 1.268 . S
C1227 C356 1.233 . S
C1232 C242 1.268 . S
C1257 C369 1.232 . S
C1262 C73 1.268 . S
C1287 C382 1.233 . S
C1292 C294 1.268 . S
C1317 C395 1.233 . S
C1322 C99 1.268 . S
C1347 C408 1.233 . S
C1352 C268 1.268 . S
C1377 C322 1.500 . S
C1382 C10 1.500 . S
C1407 C23 1.500 . S
C1412 C127 1.500 . S
C1437 C348 1.500 . S
C1442 C36 1.500 . S
C1467 C49 1.500 . S
C1472 C153 1.500 . S
C1497 C374 1.500 . S
C1502 C62 1.500 . S
C1527 C75 1.500 . S
C1532 C179 1.500 . S
C1557 C400 1.500 . S
C1562 C88 1.500 . S
C1587 C101 1.500 . S
C1592 C205 1.500 . S
C1617 C114 1.500 . S
C1622 C218 1.500 . S
C1647 C140 1.500 . S
C1652 C244 1.500 . S
C1677 C166 1.500 . S
C1682 C270 1.500 . S
C1707 C192 1.500 . S
C1712 C296 1.500 . S
C1737 C231 1.500 . S
C1742 C335 1.500 . S
C1767 C361 1.500 . S
C1772 C257 1.500 . S
C1797 C387 1.500 . S
C1802 C283 1.500 . S
C1827 C309 1.500 . S
C1832 C413 1.500 . S
C1857 C0 0.901 . S
C1862 C65 0.901 . S
C1887 C13 0.901 . S
C1892 C78 0.901 . S
C1917 C26 0.901 . S
C1922 C91 0.901 . S
C1947 C52 0.901 . S
C1952 C39 0.901 . S
C1977 C104 0.901 . S
C1982 C169 0.901 . S
C2007 C117 0.901 . S
C2012 C182 0.901 . S
C2037 C130 0.901 . S
C2042 C195 0.901 . S
C2067 C143 0.901 . S
C2072 C156 0.901 . S
C2097 C208 0.901 . S
C2102 C273 0.901 . S
C2127 C286 0.901 . S
C2132 C221 0.901 . S
C2157 C234 0.901 . S
C2162 C299 0.901 . S
C2187 C247 0.901 . S
C2192 C260 0.901 . S
C2217 C377 0.901 . S
C2222 C312 0.901 . S
C2247 C325 0.901 . S
C2252 C390 0.901 . S
C2277 C403 0.901 . S
C2282 C338 0.901 . S
C2307 C351 0.901 . S
C2312 C364 0.901 . S
