# Generated by pormake.
# Topology lon, (4)-cn, num edge types: 1
# Building blocks:
#     Node 0, Type 0, BuildingBlock: CEKHIL_clean_sbu_0, # of connection points: 4
#     Node 1, Type 0, BuildingBlock: CEKHIL_clean_sbu_0, # of connection points: 4
#     Node 2, Type 0, BuildingBlock: CEKHIL_clean_sbu_0, # of connection points: 4
#     Node 3, Type 0, BuildingBlock: CEKHIL_clean_sbu_0, # of connection points: 4
#     Edge 4, Type (0, 0), BuildingBlock: TEMPAE_clean_linker_10, # of connection points: 2
#     Edge 5, Type (0, 0), BuildingBlock: TEMPAE_clean_linker_10, # of connection points: 2
#     Edge 6, Type (0, 0), BuildingBlock: TEMPAE_clean_linker_10, # of connection points: 2
#     Edge 7, Type (0, 0), BuildingBlock: TEMPAE_clean_linker_10, # of connection points: 2
#     Edge 8, Type (0, 0), BuildingBlock: TEMPAE_clean_linker_10, # of connection points: 2
#     Edge 9, Type (0, 0), BuildingBlock: TEMPAE_clean_linker_10, # of connection points: 2
#     Edge 10, Type (0, 0), BuildingBlock: TEMPAE_clean_linker_10, # of connection points: 2
#     Edge 11, Type (0, 0), BuildingBlock: TEMPAE_clean_linker_10, # of connection points: 2
# Relax obj value: 0.141
# Max RMSD: 0.174
# Mean RMSD: 0.173
data_MOF--net-lon--node1-CEKHIL_clean_sbu_0--edge1-TEMPAE_clean_linker_10
_symmetry_space_group_name_H-M    P1
_symmetry_Int_Tables_number       1
_symmetry_cell_setting            triclinic
loop_
_symmetry_equiv_pos_as_xyz
'x, y, z'
_cell_length_a     22.899662
_cell_length_b     24.962499
_cell_length_c     40.904104
_cell_angle_alpha  91.44275
_cell_angle_beta   89.930397
_cell_angle_gamma 117.35009
loop_
_atom_site_label
_atom_site_type_symbol
_atom_site_fract_x
_atom_site_fract_y
_atom_site_fract_z
_atom_type_partial_charge
Co0 Co 0.37458 0.71604 0.08333 0.0
O1 O 0.34781 0.74925 0.12049 0.0
O2 O 0.37948 0.67815 0.12334 0.0
C3 C 0.43985 0.80639 0.06067 0.0
O4 O 0.41 0.67261 0.05223 0.0
Co5 Co 0.34471 0.73081 1.01121 0.0
O6 O 0.40131 0.6923 0.99971 0.0
C7 C 0.23829 0.64628 0.05254 0.0
C8 C 0.36002 0.71335 0.13851 0.0
C9 C 0.42031 0.66804 0.02153 0.0
O10 O 0.28032 0.65164 0.075 0.0
O11 O 0.25341 0.67824 0.02698 0.0
O12 O 0.46165 0.78709 0.08469 0.0
O13 O 0.37899 0.77282 0.05274 0.0
Co14 Co 0.65184 0.33773 0.58516 0.0
O15 O 0.5937 0.3087 0.62229 0.0
O16 O 0.70014 0.33628 0.62381 0.0
C17 C 0.61129 0.40043 0.56858 0.0
O18 O 0.72946 0.37309 0.55386 0.0
Co19 Co 0.60444 0.32574 0.5128 0.0
O20 O 0.69757 0.38083 0.50306 0.0
C21 C 0.5975 0.21958 0.54685 0.0
C22 C 0.64517 0.31763 0.63951 0.0
C23 C 0.74245 0.39028 0.52411 0.0
O24 O 0.63247 0.25254 0.57123 0.0
O25 O 0.57652 0.2396 0.52351 0.0
O26 O 0.65537 0.41767 0.59186 0.0
O27 O 0.59221 0.3464 0.55722 0.0
Co28 Co 0.32132 0.67837 0.43944 0.0
O29 O 0.29681 0.71344 0.40338 0.0
O30 O 0.37353 0.68328 0.40123 0.0
C31 C 0.21575 0.61538 0.45311 0.0
O32 O 0.35965 0.63733 0.46916 0.0
Co33 Co 0.28021 0.67866 0.51188 0.0
O34 O 0.31505 0.62058 0.51905 0.0
C35 C 0.39267 0.78718 0.48502 0.0
C36 C 0.3396 0.70494 0.38603 0.0
C37 C 0.35267 0.61498 0.49781 0.0
O38 O 0.38844 0.76091 0.45683 0.0
O39 O 0.35256 0.76277 0.50836 0.0
O40 O 0.24393 0.60045 0.42946 0.0
O41 O 0.25097 0.66742 0.46684 0.0
Co42 Co 0.66966 0.30974 0.94232 0.0
O43 O 0.60909 0.27693 0.90537 0.0
O44 O 0.7112 0.34942 0.90245 0.0
C45 C 0.64633 0.21876 0.96362 0.0
O46 O 0.74915 0.35356 0.97299 0.0
Co47 Co 0.62826 0.29138 0.01494 0.0
O48 O 0.72384 0.32824 0.02522 0.0
C49 C 0.60004 0.37439 0.97523 0.0
C50 C 0.65662 0.31388 0.88733 0.0
C51 C 0.76583 0.35558 1.00327 0.0
O52 O 0.63774 0.37219 0.95227 0.0
O53 O 0.58516 0.34098 1.00025 0.0
O54 O 0.68708 0.23946 0.93948 0.0
O55 O 0.61885 0.25158 0.97262 0.0
C56 C 0.37236 0.76874 0.19208 0.0
C57 C 0.35483 0.71425 0.17469 0.0
C58 C 0.3717 0.77093 0.22654 0.0
C59 C 0.35051 0.71695 0.24405 0.0
C60 C 0.33087 0.66154 0.22645 0.0
C61 C 0.33459 0.66106 0.19207 0.0
C62 C 0.39528 0.83122 0.24421 0.0
C63 C 0.30579 0.60264 0.24393 0.0
C64 C 0.40052 0.71829 0.33329 0.0
C65 C 0.34503 0.71376 0.35008 0.0
C66 C 0.40386 0.72148 0.29894 0.0
C67 C 0.34964 0.71833 0.28074 0.0
C68 C 0.2938 0.71448 0.29764 0.0
C69 C 0.29254 0.71304 0.33206 0.0
C70 C 0.46511 0.72728 0.28211 0.0
C71 C 0.23429 0.7096 0.27931 0.0
H72 H 0.38877 0.81008 0.17873 0.0
H73 H 0.32069 0.61882 0.17869 0.0
H74 H 0.35569 0.83129 0.25982 0.0
H75 H 0.4373 0.83932 0.2606 0.0
H76 H 0.41107 0.8691 0.22709 0.0
H77 H 0.28856 0.56316 0.22666 0.0
H78 H 0.34528 0.60286 0.25969 0.0
H79 H 0.26452 0.59702 0.2601 0.0
H80 H 0.44134 0.71901 0.34702 0.0
H81 H 0.24919 0.70891 0.3448 0.0
H82 H 0.48365 0.76581 0.26536 0.0
H83 H 0.45346 0.68598 0.26703 0.0
H84 H 0.50488 0.73406 0.29978 0.0
H85 H 0.24846 0.74849 0.26311 0.0
H86 H 0.19525 0.70798 0.29601 0.0
H87 H 0.21363 0.66815 0.26347 0.0
C88 C 0.69011 0.30235 0.69254 0.0
C89 C 0.6424 0.31162 0.67565 0.0
C90 C 0.68999 0.30003 0.72693 0.0
C91 C 0.64231 0.30921 0.74505 0.0
C92 C 0.59393 0.31847 0.72804 0.0
C93 C 0.59397 0.31864 0.69361 0.0
C94 C 0.74127 0.28822 0.74391 0.0
C95 C 0.54333 0.33013 0.74625 0.0
C96 C 0.60887 0.2601 0.83382 0.0
C97 C 0.65039 0.31342 0.85113 0.0
C98 C 0.60614 0.25788 0.79937 0.0
C99 C 0.64419 0.31076 0.78174 0.0
C100 C 0.6847 0.36517 0.79923 0.0
C101 C 0.68819 0.36556 0.83363 0.0
C102 C 0.56383 0.19853 0.7818 0.0
C103 C 0.72449 0.42306 0.78162 0.0
H104 H 0.72755 0.29671 0.67883 0.0
H105 H 0.55736 0.32649 0.68075 0.0
H106 H 0.77413 0.32835 0.75904 0.0
H107 H 0.71728 0.24996 0.76063 0.0
H108 H 0.77181 0.27767 0.72633 0.0
H109 H 0.50891 0.33632 0.72948 0.0
H110 H 0.51438 0.29209 0.7624 0.0
H111 H 0.56836 0.37126 0.76215 0.0
H112 H 0.58009 0.21949 0.84721 0.0
H113 H 0.72017 0.40695 0.84688 0.0
H114 H 0.59477 0.18608 0.76554 0.0
H115 H 0.52682 0.20275 0.76609 0.0
H116 H 0.53778 0.16138 0.799 0.0
H117 H 0.76156 0.41836 0.76599 0.0
H118 H 0.75038 0.46222 0.79879 0.0
H119 H 0.69198 0.43271 0.7653 0.0
C120 C 0.44581 0.6079 0.97876 0.0
C121 C 0.45289 0.63082 1.01104 0.0
C122 C 0.47205 0.5689 0.96914 0.0
C123 C 0.50723 0.55309 0.99218 0.0
C124 C 0.51688 0.57808 0.02442 0.0
C125 C 0.48914 0.6161 0.03353 0.0
C126 C 0.45964 0.54256 0.93471 0.0
C127 C 0.55493 0.56322 0.04965 0.0
C128 C 0.51054 0.40242 0.98621 0.0
C129 C 0.57379 0.41869 0.97432 0.0
C130 C 0.48734 0.44523 0.99057 0.0
C131 C 0.52893 0.50641 0.98363 0.0
C132 C 0.59209 0.52284 0.97045 0.0
C133 C 0.61356 0.47855 0.96561 0.0
C134 C 0.41911 0.42525 1.00388 0.0
C135 C 0.63827 0.58763 0.96314 0.0
H136 H 0.41772 0.61874 0.96118 0.0
H137 H 0.49548 0.63397 0.05843 0.0
H138 H 0.50639 0.54927 0.92331 0.0
H139 H 0.42716 0.4932 0.93532 0.0
H140 H 0.43598 0.56293 0.91902 0.0
H141 H 0.56333 0.5906 0.07262 0.0
H142 H 0.52756 0.51481 0.0556 0.0
H143 H 0.60324 0.57094 0.03978 0.0
H144 H 0.47953 0.35608 0.99282 0.0
H145 H 0.66275 0.49142 0.95677 0.0
H146 H 0.39123 0.44158 0.98834 0.0
H147 H 0.42251 0.44514 0.0288 0.0
H148 H 0.3909 0.37539 1.00523 0.0
H149 H 0.61325 0.60708 0.94779 0.0
H150 H 0.68321 0.59231 0.95042 0.0
H151 H 0.65326 0.61471 0.98635 0.0
C152 C 0.11931 0.60114 0.48682 0.0
C153 C 0.14732 0.57723 0.46385 0.0
C154 C 0.05379 0.56831 0.49649 0.0
C155 C 0.01503 0.50951 0.48323 0.0
C156 C 0.04327 0.48436 0.46057 0.0
C157 C 0.10908 0.51873 0.45095 0.0
C158 C 0.02568 0.59724 0.52042 0.0
C159 C 1.00374 0.42147 0.44626 0.0
C160 C 0.86087 0.41383 0.53134 0.0
C161 C 0.81212 0.42003 0.51346 0.0
C162 C 0.92665 0.4407 0.52109 0.0
C163 C 0.9445 0.47561 0.4926 0.0
C164 C 0.89549 0.48181 0.47438 0.0
C165 C 0.82994 0.4536 0.48486 0.0
C166 C 0.97723 0.43237 0.54099 0.0
C167 C 0.91257 0.51958 0.44424 0.0
H168 H 0.14832 0.64638 0.49691 0.0
H169 H 0.13042 0.49995 0.43326 0.0
H170 H 0.98357 0.60047 0.50894 0.0
H171 H 1.00678 0.56897 0.54221 0.0
H172 H 0.06256 0.64319 0.52868 0.0
H173 H 0.03368 0.40728 0.43027 0.0
H174 H 0.98286 0.38877 0.46616 0.0
H175 H 0.96181 0.41923 0.4317 0.0
H176 H 0.84753 0.3874 0.55324 0.0
H177 H 0.79273 0.45877 0.47089 0.0
H178 H 0.01343 0.47642 0.55179 0.0
H179 H 1.00476 0.41547 0.52502 0.0
H180 H 0.95472 0.40034 0.56108 0.0
H181 H 0.94676 0.56722 0.45097 0.0
H182 H 0.86845 0.51809 0.4321 0.0
H183 H 0.93819 0.50377 0.42639 0.0
C184 C 0.58967 0.1445 1.00713 0.0
C185 C 0.62861 0.15999 0.97902 0.0
C186 C 0.56613 0.08711 0.02049 0.0
C187 C 0.58149 0.04355 1.00537 0.0
C188 C 0.62296 0.0596 0.9777 0.0
C189 C 0.64617 0.11771 0.96488 0.0
C190 C 0.52245 0.07233 0.05008 0.0
C191 C 0.64058 0.0146 0.96086 0.0
C192 C 0.54319 0.90483 0.05593 0.0
C193 C 0.47984 0.86464 0.04451 0.0
C194 C 0.57831 0.96238 0.04249 0.0
C195 C 0.54939 0.98016 0.01707 0.0
C196 C 0.48656 0.93872 1.00463 0.0
C197 C 0.4527 0.88169 0.01846 0.0
C198 C 0.64522 1.00501 0.05638 0.0
C199 C 0.45373 0.95552 0.97757 0.0
H200 H 0.57614 0.17693 0.01839 0.0
H201 H 0.67618 0.12928 0.94315 0.0
H202 H 0.47219 0.03723 0.04328 0.0
H203 H 0.5412 0.05373 0.06945 0.0
H204 H 0.51905 0.11241 0.06037 0.0
H205 H 0.67838 0.03563 0.94181 0.0
H206 H 0.65912 0.99348 0.97894 0.0
H207 H 0.59596 0.97795 0.94914 0.0
H208 H 0.56461 0.89202 0.07599 0.0
H209 H 0.40395 0.85091 1.00932 0.0
H210 H 0.64257 0.0432 0.06958 0.0
H211 H 0.68119 0.02428 0.03642 0.0
H212 H 0.66377 0.98249 0.07363 0.0
H213 H 0.44277 0.99232 0.98638 0.0
H214 H 0.40707 0.9168 0.96898 0.0
H215 H 0.48714 0.97265 0.95646 0.0
C216 C 0.59974 0.49617 0.56871 0.0
C217 C 0.58066 0.43738 0.5566 0.0
C218 C 0.56665 0.52874 0.55866 0.0
C219 C 0.51291 0.5015 0.53633 0.0
C220 C 0.49452 0.44267 0.5236 0.0
C221 C 0.52877 0.41162 0.53371 0.0
C222 C 0.58826 0.59176 0.5724 0.0
C223 C 0.43724 0.41163 0.5 0.0
C224 C 0.37909 0.55153 0.53583 0.0
C225 C 0.39325 0.58529 0.50733 0.0
C226 C 0.41835 0.52505 0.54584 0.0
C227 C 0.47371 0.53295 0.52714 0.0
C228 C 0.48877 0.56749 0.49856 0.0
C229 C 0.44817 0.59288 0.48888 0.0
C230 C 0.39991 0.48773 0.57617 0.0
C231 C 0.5476 0.57733 0.4781 0.0
H232 H 0.63981 0.51636 0.58634 0.0
H233 H 0.51356 0.36619 0.52416 0.0
H234 H 0.59752 0.62351 0.55224 0.0
H235 H 0.54854 0.59278 0.58753 0.0
H236 H 0.63352 0.60805 0.58773 0.0
H237 H 0.43033 0.36634 0.4917 0.0
H238 H 0.39134 0.40634 0.51184 0.0
H239 H 0.44466 0.43951 0.47821 0.0
H240 H 0.33686 0.54535 0.55029 0.0
H241 H 0.46006 0.6194 0.46703 0.0
H242 H 0.44182 0.50547 0.59377 0.0
H243 H 0.38866 0.44053 0.56964 0.0
H244 H 0.35651 0.48737 0.58853 0.0
H245 H 0.59278 0.59652 0.49357 0.0
H246 H 0.55478 0.60811 0.45763 0.0
H247 H 0.54146 0.53351 0.46775 0.0
C248 C 0.11905 0.61573 0.05752 0.0
C249 C 0.16948 0.5991 0.0545 0.0
C250 C 0.05291 0.57318 0.05245 0.0
C251 C 0.03704 0.51291 0.04313 0.0
C252 C 0.08786 0.49549 0.04125 0.0
C253 C 0.15355 0.53881 0.04718 0.0
C254 C 1.00038 0.59356 0.05538 0.0
C255 C 0.07338 0.43207 0.03097 0.0
C256 C 0.85681 0.39471 0.04571 0.0
C257 C 0.83607 0.39331 0.0132 0.0
C258 C 0.92222 0.43239 0.05569 0.0
C259 C 0.96827 0.46985 0.03273 0.0
C260 C 0.94803 0.46786 0.99979 0.0
C261 C 0.88244 0.42969 0.99045 0.0
C262 C 0.94174 0.433 0.09099 0.0
C263 C 0.99547 0.50698 0.97446 0.0
H264 H 0.13166 0.66263 0.06272 0.0
H265 H 0.19284 0.52637 0.04411 0.0
H266 H 0.97951 0.59282 0.03081 0.0
H267 H 0.95955 0.56229 0.07074 0.0
H268 H 0.01982 0.63994 0.06617 0.0
H269 H 0.11708 0.4242 0.03369 0.0
H270 H 0.0327 0.39871 0.04559 0.0
H271 H 0.05719 0.42366 1.00496 0.0
H272 H 0.82173 0.36674 0.06355 0.0
H273 H 0.8673 0.42919 0.9653 0.0
H274 H 0.95729 0.47849 0.10225 0.0
H275 H 0.98438 0.4234 0.09253 0.0
H276 H 0.90095 0.3994 0.10554 0.0
H277 H 0.0131 0.55527 0.98132 0.0
H278 H 0.97279 0.4985 0.94964 0.0
H279 H 0.03915 0.4988 0.9735 0.0
C280 C 0.62727 0.13627 0.53704 0.0
C281 C 0.57966 0.15508 0.54435 0.0
C282 C 0.6086 0.07635 0.52656 0.0
C283 C 0.5409 0.03479 0.52362 0.0
C284 C 0.49299 0.05337 0.53248 0.0
C285 C 0.51303 0.11342 0.54239 0.0
C286 C 0.66103 0.05841 0.51711 0.0
C287 C 0.42032 0.01034 0.53043 0.0
C288 C 0.46369 0.89414 0.46871 0.0
C289 C 0.44488 0.84925 0.49201 0.0
C290 C 0.50058 0.95542 0.47814 0.0
C291 C 0.51879 0.97156 0.5115 0.0
C292 C 0.50539 0.92588 0.53429 0.0
C293 C 0.46866 0.86538 0.52426 0.0
C294 C 0.51512 1.00293 0.45297 0.0
C295 C 0.52419 0.94078 0.56998 0.0
H296 H 0.6788 0.16915 0.53772 0.0
H297 H 0.47641 0.12856 0.54754 0.0
H298 H 0.65209 0.01568 0.52873 0.0
H299 H 0.65935 0.05038 0.49025 0.0
H300 H 0.71109 0.0938 0.52414 0.0
H301 H 0.38965 0.03146 0.53936 0.0
H302 H 0.40596 0.99451 0.50472 0.0
H303 H 0.40905 0.97004 0.54512 0.0
H304 H 0.44561 0.88185 0.44377 0.0
H305 H 0.45519 0.8306 0.54226 0.0
H306 H 0.56636 0.0393 0.45579 0.0
H307 H 0.4819 0.02378 0.45664 0.0
H308 H 0.5078 0.98369 0.42763 0.0
H309 H 0.57537 0.97723 0.57276 0.0
H310 H 0.51961 0.90085 0.58334 0.0
H311 H 0.49144 0.95725 0.58166 0.0
loop_
_geom_bond_atom_site_label_1
_geom_bond_atom_site_label_2
_geom_bond_distance
_geom_bond_site_symmetry_2
_ccdc_geom_bond_type
Co0 O1 2.216 . S
Co0 O2 2.091 . S
Co0 O4 2.004 . S
Co0 O10 2.021 . S
Co0 O12 2.137 . S
Co0 O13 2.244 . S
O1 Co0 2.216 . S
O1 C8 1.247 . S
O2 Co0 2.091 . S
O2 C8 1.261 . S
C3 O12 1.247 . S
C3 O13 1.272 . S
O4 Co0 2.004 . S
O4 C9 1.259 . S
Co5 O6 2.061 1_556 S
Co5 O11 2.052 1_556 S
Co5 O13 2.135 1_556 S
O6 Co5 2.061 1_554 S
O6 C9 1.235 . S
C7 O10 1.238 . S
C7 O11 1.241 . S
C8 O1 1.247 . S
C8 O2 1.261 . S
C9 O4 1.259 . S
C9 O6 1.235 . S
O10 Co0 2.021 . S
O10 C7 1.238 . S
O11 Co5 2.052 1_554 S
O11 C7 1.241 . S
O12 Co0 2.137 . S
O12 C3 1.247 . S
O13 Co0 2.244 . S
O13 C3 1.272 . S
O13 Co5 2.135 1_554 S
Co14 O15 2.216 . S
Co14 O16 2.091 . S
Co14 O18 2.004 . S
Co14 O24 2.021 . S
Co14 O26 2.137 . S
Co14 O27 2.244 . S
O15 Co14 2.216 . S
O15 C22 1.247 . S
O16 Co14 2.091 . S
O16 C22 1.261 . S
C17 O26 1.247 . S
C17 O27 1.272 . S
O18 Co14 2.004 . S
O18 C23 1.259 . S
Co19 O20 2.061 . S
Co19 O25 2.052 . S
Co19 O27 2.135 . S
O20 Co19 2.061 . S
O20 C23 1.235 . S
C21 O24 1.238 . S
C21 O25 1.241 . S
C22 O15 1.247 . S
C22 O16 1.261 . S
C23 O18 1.259 . S
C23 O20 1.235 . S
O24 Co14 2.021 . S
O24 C21 1.238 . S
O25 Co19 2.052 . S
O25 C21 1.241 . S
O26 Co14 2.137 . S
O26 C17 1.247 . S
O27 Co14 2.244 . S
O27 C17 1.272 . S
O27 Co19 2.135 . S
Co28 O29 2.216 . S
Co28 O30 2.091 . S
Co28 O32 2.004 . S
Co28 O38 2.021 . S
Co28 O40 2.137 . S
Co28 O41 2.244 . S
O29 Co28 2.216 . S
O29 C36 1.247 . S
O30 Co28 2.091 . S
O30 C36 1.261 . S
C31 O40 1.247 . S
C31 O41 1.272 . S
O32 Co28 2.004 . S
O32 C37 1.259 . S
Co33 O34 2.061 . S
Co33 O39 2.052 . S
Co33 O41 2.135 . S
O34 Co33 2.061 . S
O34 C37 1.235 . S
C35 O38 1.238 . S
C35 O39 1.241 . S
C36 O29 1.247 . S
C36 O30 1.261 . S
C37 O32 1.259 . S
C37 O34 1.235 . S
O38 Co28 2.021 . S
O38 C35 1.238 . S
O39 Co33 2.052 . S
O39 C35 1.241 . S
O40 Co28 2.137 . S
O40 C31 1.247 . S
O41 Co28 2.244 . S
O41 C31 1.272 . S
O41 Co33 2.135 . S
Co42 O43 2.216 . S
Co42 O44 2.091 . S
Co42 O46 2.004 . S
Co42 O52 2.021 . S
Co42 O54 2.137 . S
Co42 O55 2.244 . S
O43 Co42 2.216 . S
O43 C50 1.247 . S
O44 Co42 2.091 . S
O44 C50 1.261 . S
C45 O54 1.247 . S
C45 O55 1.272 . S
O46 Co42 2.004 . S
O46 C51 1.259 . S
Co47 O48 2.061 1_554 S
Co47 O53 2.052 1_554 S
Co47 O55 2.135 1_554 S
O48 Co47 2.061 1_556 S
O48 C51 1.235 . S
C49 O52 1.238 . S
C49 O53 1.241 . S
C50 O43 1.247 . S
C50 O44 1.261 . S
C51 O46 1.259 . S
C51 O48 1.235 . S
O52 Co42 2.021 . S
O52 C49 1.238 . S
O53 Co47 2.052 1_556 S
O53 C49 1.241 . S
O54 Co42 2.137 . S
O54 C45 1.247 . S
O55 Co42 2.244 . S
O55 C45 1.272 . S
O55 Co47 2.135 1_556 S
C56 C57 1.391 . S
C56 C58 1.394 . S
C56 H72 0.931 . S
C57 C56 1.391 . S
C57 C61 1.376 . S
C58 C56 1.394 . S
C58 C59 1.369 . S
C58 C62 1.531 . S
C59 C58 1.369 . S
C59 C60 1.410 . S
C59 C67 1.503 . S
C60 C59 1.410 . S
C60 C61 1.392 . S
C60 C63 1.511 . S
C61 C57 1.376 . S
C61 C60 1.392 . S
C61 H73 0.929 . S
C62 C58 1.531 . S
C62 H74 0.960 . S
C62 H75 0.962 . S
C62 H76 0.960 . S
C63 C60 1.511 . S
C63 H77 0.961 . S
C63 H78 0.961 . S
C63 H79 0.961 . S
C64 C65 1.370 . S
C64 C66 1.363 . S
C64 H80 0.931 . S
C65 C64 1.370 . S
C65 C69 1.408 . S
C66 C64 1.363 . S
C66 C67 1.370 . S
C66 C70 1.524 . S
C67 C59 1.503 . S
C67 C66 1.370 . S
C67 C68 1.403 . S
C68 C67 1.403 . S
C68 C69 1.404 . S
C68 C71 1.539 . S
C69 C65 1.408 . S
C69 C68 1.404 . S
C69 H81 0.930 . S
C70 C66 1.524 . S
C70 H82 0.956 . S
C70 H83 0.961 . S
C70 H84 0.961 . S
C71 C68 1.539 . S
C71 H85 0.958 . S
C71 H86 0.961 . S
C71 H87 0.960 . S
H72 C56 0.931 . S
H73 C61 0.929 . S
H74 C62 0.960 . S
H75 C62 0.962 . S
H76 C62 0.960 . S
H77 C63 0.961 . S
H78 C63 0.961 . S
H79 C63 0.961 . S
H80 C64 0.931 . S
H81 C69 0.930 . S
H82 C70 0.956 . S
H83 C70 0.961 . S
H84 C70 0.961 . S
H85 C71 0.958 . S
H86 C71 0.961 . S
H87 C71 0.960 . S
C88 C89 1.391 . S
C88 C90 1.394 . S
C88 H104 0.931 . S
C89 C88 1.391 . S
C89 C93 1.376 . S
C90 C88 1.394 . S
C90 C91 1.369 . S
C90 C94 1.531 . S
C91 C90 1.369 . S
C91 C92 1.410 . S
C91 C99 1.503 . S
C92 C91 1.410 . S
C92 C93 1.392 . S
C92 C95 1.511 . S
C93 C89 1.376 . S
C93 C92 1.392 . S
C93 H105 0.929 . S
C94 C90 1.531 . S
C94 H106 0.960 . S
C94 H107 0.962 . S
C94 H108 0.960 . S
C95 C92 1.511 . S
C95 H109 0.961 . S
C95 H110 0.961 . S
C95 H111 0.961 . S
C96 C97 1.370 . S
C96 C98 1.363 . S
C96 H112 0.931 . S
C97 C96 1.370 . S
C97 C101 1.408 . S
C98 C96 1.363 . S
C98 C99 1.370 . S
C98 C102 1.524 . S
C99 C91 1.503 . S
C99 C98 1.370 . S
C99 C100 1.403 . S
C100 C99 1.403 . S
C100 C101 1.404 . S
C100 C103 1.539 . S
C101 C97 1.408 . S
C101 C100 1.404 . S
C101 H113 0.930 . S
C102 C98 1.524 . S
C102 H114 0.956 . S
C102 H115 0.961 . S
C102 H116 0.961 . S
C103 C100 1.539 . S
C103 H117 0.958 . S
C103 H118 0.961 . S
C103 H119 0.960 . S
H104 C88 0.931 . S
H105 C93 0.929 . S
H106 C94 0.960 . S
H107 C94 0.962 . S
H108 C94 0.960 . S
H109 C95 0.961 . S
H110 C95 0.961 . S
H111 C95 0.961 . S
H112 C96 0.931 . S
H113 C101 0.930 . S
H114 C102 0.956 . S
H115 C102 0.961 . S
H116 C102 0.961 . S
H117 C103 0.958 . S
H118 C103 0.961 . S
H119 C103 0.960 . S
C120 C121 1.391 1_556 S
C120 C122 1.394 . S
C120 H136 0.931 . S
C121 C120 1.391 1_554 S
C121 C125 1.376 . S
C122 C120 1.394 . S
C122 C123 1.369 . S
C122 C126 1.531 . S
C123 C122 1.369 . S
C123 C124 1.410 1_556 S
C123 C131 1.503 . S
C124 C123 1.410 1_554 S
C124 C125 1.392 . S
C124 C127 1.511 . S
C125 C121 1.376 . S
C125 C124 1.392 . S
C125 H137 0.929 . S
C126 C122 1.531 . S
C126 H138 0.960 . S
C126 H139 0.962 . S
C126 H140 0.960 . S
C127 C124 1.511 . S
C127 H141 0.961 . S
C127 H142 0.961 . S
C127 H143 0.961 . S
C128 C129 1.370 . S
C128 C130 1.363 . S
C128 H144 0.931 . S
C129 C128 1.370 . S
C129 C133 1.408 . S
C130 C128 1.363 . S
C130 C131 1.370 . S
C130 C134 1.524 . S
C131 C123 1.503 . S
C131 C130 1.370 . S
C131 C132 1.403 . S
C132 C131 1.403 . S
C132 C133 1.404 . S
C132 C135 1.539 . S
C133 C129 1.408 . S
C133 C132 1.404 . S
C133 H145 0.930 . S
C134 C130 1.524 . S
C134 H146 0.956 . S
C134 H147 0.961 1_556 S
C134 H148 0.961 . S
C135 C132 1.539 . S
C135 H149 0.958 . S
C135 H150 0.961 . S
C135 H151 0.960 . S
H136 C120 0.931 . S
H137 C125 0.929 . S
H138 C126 0.960 . S
H139 C126 0.962 . S
H140 C126 0.960 . S
H141 C127 0.961 . S
H142 C127 0.961 . S
H143 C127 0.961 . S
H144 C128 0.931 . S
H145 C133 0.930 . S
H146 C134 0.956 . S
H147 C134 0.961 1_554 S
H148 C134 0.961 . S
H149 C135 0.958 . S
H150 C135 0.961 . S
H151 C135 0.960 . S
C152 C153 1.391 . S
C152 C154 1.394 . S
C152 H168 0.931 . S
C153 C152 1.391 . S
C153 C157 1.376 . S
C154 C152 1.394 . S
C154 C155 1.369 . S
C154 C158 1.531 . S
C155 C154 1.369 . S
C155 C156 1.410 . S
C155 C163 1.503 1_455 S
C156 C155 1.410 . S
C156 C157 1.392 . S
C156 C159 1.511 1_455 S
C157 C153 1.376 . S
C157 C156 1.392 . S
C157 H169 0.929 . S
C158 C154 1.531 . S
C158 H170 0.960 . S
C158 H171 0.962 . S
C158 H172 0.960 . S
C159 C156 1.511 1_655 S
C159 H173 0.959 1_655 S
C159 H174 0.961 . S
C159 H175 0.961 . S
C160 C161 1.370 . S
C160 C162 1.363 . S
C160 H176 0.931 . S
C161 C160 1.370 . S
C161 C165 1.408 . S
C162 C160 1.363 . S
C162 C163 1.370 . S
C162 C166 1.524 . S
C163 C155 1.503 1_655 S
C163 C162 1.370 . S
C163 C164 1.403 . S
C164 C163 1.403 . S
C164 C165 1.404 . S
C164 C167 1.539 . S
C165 C161 1.408 . S
C165 C164 1.404 . S
C165 H177 0.930 . S
C166 C162 1.524 . S
C166 H178 0.956 1_655 S
C166 H179 0.961 1_655 S
C166 H180 0.961 . S
C167 C164 1.539 . S
C167 H181 0.958 . S
C167 H182 0.961 . S
C167 H183 0.960 . S
H168 C152 0.931 . S
H169 C157 0.929 . S
H170 C158 0.960 . S
H171 C158 0.962 . S
H172 C158 0.960 . S
H173 C159 0.959 1_455 S
H174 C159 0.961 . S
H175 C159 0.961 . S
H176 C160 0.931 . S
H177 C165 0.930 . S
H178 C166 0.956 1_455 S
H179 C166 0.961 1_455 S
H180 C166 0.961 . S
H181 C167 0.958 . S
H182 C167 0.961 . S
H183 C167 0.960 . S
C184 C185 1.391 . S
C184 C186 1.394 1_556 S
C184 H200 0.931 1_556 S
C185 C184 1.391 . S
C185 C189 1.376 . S
C186 C184 1.394 1_554 S
C186 C187 1.369 1_554 S
C186 C190 1.531 . S
C187 C186 1.369 1_556 S
C187 C188 1.410 . S
C187 C195 1.503 1_546 S
C188 C187 1.410 . S
C188 C189 1.392 . S
C188 C191 1.511 1_545 S
C189 C185 1.376 . S
C189 C188 1.392 . S
C189 H201 0.929 . S
C190 C186 1.531 . S
C190 H202 0.960 . S
C190 H203 0.962 . S
C190 H204 0.960 . S
C191 C188 1.511 1_565 S
C191 H205 0.961 1_565 S
C191 H206 0.961 . S
C191 H207 0.961 . S
C192 C193 1.370 . S
C192 C194 1.360 1_554 S
C192 H208 0.931 . S
C193 C192 1.370 . S
C193 C197 1.408 . S
C194 C192 1.360 1_556 S
C194 C195 1.368 1_556 S
C194 C198 1.530 . S
C195 C187 1.503 1_564 S
C195 C194 1.368 1_554 S
C195 C196 1.403 . S
C196 C195 1.403 . S
C196 C197 1.404 . S
C196 C199 1.539 . S
C197 C193 1.408 . S
C197 C196 1.404 . S
C197 H209 0.930 . S
C198 C194 1.530 . S
C198 H210 0.956 . S
C198 H211 0.961 . S
C198 H212 0.961 . S
C199 C196 1.539 . S
C199 H213 0.958 1_565 S
C199 H214 0.961 . S
C199 H215 0.960 1_565 S
H200 C184 0.931 1_554 S
H201 C189 0.929 . S
H202 C190 0.960 . S
H203 C190 0.962 . S
H204 C190 0.960 . S
H205 C191 0.961 1_545 S
H206 C191 0.961 . S
H207 C191 0.961 . S
H208 C192 0.931 . S
H209 C197 0.930 . S
H210 C198 0.956 . S
H211 C198 0.961 . S
H212 C198 0.961 . S
H213 C199 0.958 1_545 S
H214 C199 0.961 . S
H215 C199 0.960 1_545 S
C216 C217 1.391 . S
C216 C218 1.394 . S
C216 H232 0.931 . S
C217 C216 1.391 . S
C217 C221 1.376 . S
C218 C216 1.394 . S
C218 C219 1.369 . S
C218 C222 1.531 . S
C219 C218 1.369 . S
C219 C220 1.410 . S
C219 C227 1.503 . S
C220 C219 1.410 . S
C220 C221 1.392 . S
C220 C223 1.511 . S
C221 C217 1.376 . S
C221 C220 1.392 . S
C221 H233 0.929 . S
C222 C218 1.531 . S
C222 H234 0.960 . S
C222 H235 0.962 . S
C222 H236 0.960 . S
C223 C220 1.511 . S
C223 H237 0.961 . S
C223 H238 0.961 . S
C223 H239 0.961 . S
C224 C225 1.370 . S
C224 C226 1.363 . S
C224 H240 0.931 . S
C225 C224 1.370 . S
C225 C229 1.408 . S
C226 C224 1.363 . S
C226 C227 1.370 . S
C226 C230 1.524 . S
C227 C219 1.503 . S
C227 C226 1.370 . S
C227 C228 1.403 . S
C228 C227 1.403 . S
C228 C229 1.404 . S
C228 C231 1.539 . S
C229 C225 1.408 . S
C229 C228 1.404 . S
C229 H241 0.930 . S
C230 C226 1.524 . S
C230 H242 0.956 . S
C230 H243 0.961 . S
C230 H244 0.961 . S
C231 C228 1.539 . S
C231 H245 0.958 . S
C231 H246 0.961 . S
C231 H247 0.960 . S
H232 C216 0.931 . S
H233 C221 0.929 . S
H234 C222 0.960 . S
H235 C222 0.962 . S
H236 C222 0.960 . S
H237 C223 0.961 . S
H238 C223 0.961 . S
H239 C223 0.961 . S
H240 C224 0.931 . S
H241 C229 0.930 . S
H242 C230 0.956 . S
H243 C230 0.961 . S
H244 C230 0.961 . S
H245 C231 0.958 . S
H246 C231 0.961 . S
H247 C231 0.960 . S
C248 C249 1.391 . S
C248 C250 1.394 . S
C248 H264 0.931 . S
C249 C248 1.391 . S
C249 C253 1.376 . S
C250 C248 1.394 . S
C250 C251 1.369 . S
C250 C254 1.531 1_455 S
C251 C250 1.369 . S
C251 C252 1.410 1_554 S
C251 C259 1.503 1_455 S
C252 C251 1.410 1_556 S
C252 C253 1.392 1_556 S
C252 C255 1.511 . S
C253 C249 1.376 . S
C253 C252 1.392 1_554 S
C253 H265 0.929 . S
C254 C250 1.531 1_655 S
C254 H266 0.960 . S
C254 H267 0.962 . S
C254 H268 0.960 1_655 S
C255 C252 1.511 . S
C255 H269 0.961 . S
C255 H270 0.961 . S
C255 H271 0.961 . S
C256 C257 1.370 1_554 S
C256 C258 1.363 . S
C256 H272 0.931 . S
C257 C256 1.370 1_556 S
C257 C261 1.408 . S
C258 C256 1.363 . S
C258 C259 1.370 . S
C258 C262 1.524 . S
C259 C251 1.503 1_655 S
C259 C258 1.370 . S
C259 C260 1.403 1_554 S
C260 C259 1.403 1_556 S
C260 C261 1.404 . S
C260 C263 1.539 . S
C261 C257 1.408 . S
C261 C260 1.404 . S
C261 H273 0.930 . S
C262 C258 1.524 . S
C262 H274 0.956 . S
C262 H275 0.961 1_655 S
C262 H276 0.961 . S
C263 C260 1.539 . S
C263 H277 0.958 . S
C263 H278 0.961 . S
C263 H279 0.960 1_655 S
H264 C248 0.931 . S
H265 C253 0.929 . S
H266 C254 0.960 . S
H267 C254 0.962 . S
H268 C254 0.960 1_455 S
H269 C255 0.961 . S
H270 C255 0.961 . S
H271 C255 0.961 . S
H272 C256 0.931 . S
H273 C261 0.930 . S
H274 C262 0.956 . S
H275 C262 0.961 1_455 S
H276 C262 0.961 . S
H277 C263 0.958 . S
H278 C263 0.961 . S
H279 C263 0.960 1_455 S
C280 C281 1.391 . S
C280 C282 1.394 . S
C280 H296 0.931 . S
C281 C280 1.391 . S
C281 C285 1.376 . S
C282 C280 1.394 . S
C282 C283 1.369 . S
C282 C286 1.531 . S
C283 C282 1.369 . S
C283 C284 1.410 . S
C283 C291 1.503 1_545 S
C284 C283 1.410 . S
C284 C285 1.392 . S
C284 C287 1.511 . S
C285 C281 1.376 . S
C285 C284 1.392 . S
C285 H297 0.929 . S
C286 C282 1.531 . S
C286 H298 0.960 1_545 S
C286 H299 0.962 . S
C286 H300 0.960 . S
C287 C284 1.511 . S
C287 H301 0.961 . S
C287 H302 0.961 . S
C287 H303 0.961 . S
C288 C289 1.370 . S
C288 C290 1.363 . S
C288 H304 0.931 . S
C289 C288 1.370 . S
C289 C293 1.408 . S
C290 C288 1.363 . S
C290 C291 1.370 . S
C290 C294 1.524 1_565 S
C291 C283 1.503 1_565 S
C291 C290 1.370 . S
C291 C292 1.403 . S
C292 C291 1.403 . S
C292 C293 1.404 . S
C292 C295 1.539 . S
C293 C289 1.408 . S
C293 C292 1.404 . S
C293 H305 0.930 . S
C294 C290 1.524 1_545 S
C294 H306 0.956 . S
C294 H307 0.961 . S
C294 H308 0.961 . S
C295 C292 1.539 . S
C295 H309 0.958 . S
C295 H310 0.961 . S
C295 H311 0.960 . S
H296 C280 0.931 . S
H297 C285 0.929 . S
H298 C286 0.960 1_565 S
H299 C286 0.962 . S
H300 C286 0.960 . S
H301 C287 0.961 . S
H302 C287 0.961 . S
H303 C287 0.961 . S
H304 C288 0.931 . S
H305 C293 0.930 . S
H306 C294 0.956 . S
H307 C294 0.961 . S
H308 C294 0.961 . S
H309 C295 0.958 . S
H310 C295 0.961 . S
H311 C295 0.960 . S
C57 C8 1.576 . S
C65 C36 1.573 . S
C89 C22 1.561 . S
C97 C50 1.571 . S
C121 C9 1.540 . S
C129 C49 1.503 . S
C153 C31 1.564 . S
C161 C23 1.560 . S
C185 C45 1.579 . S
C193 C3 1.587 . S
C217 C17 1.565 . S
C225 C37 1.565 . S
C249 C7 1.477 . S
C257 C51 1.541 . S
C281 C21 1.486 . S
C289 C35 1.454 . S
