# Generated by pormake.
# Topology uki, (4)-cn, num edge types: 1
# Building blocks:
#     Node 0, Type 0, BuildingBlock: ICAMEG_clean_sbu_1, # of connection points: 4
#     Node 1, Type 0, BuildingBlock: ICAMEG_clean_sbu_1, # of connection points: 4
#     Node 2, Type 0, BuildingBlock: ICAMEG_clean_sbu_1, # of connection points: 4
#     Node 3, Type 0, BuildingBlock: ICAMEG_clean_sbu_1, # of connection points: 4
#     Node 4, Type 0, BuildingBlock: ICAMEG_clean_sbu_1, # of connection points: 4
#     Node 5, Type 0, BuildingBlock: ICAMEG_clean_sbu_1, # of connection points: 4
#     Node 6, Type 0, BuildingBlock: ICAMEG_clean_sbu_1, # of connection points: 4
#     Node 7, Type 0, BuildingBlock: ICAMEG_clean_sbu_1, # of connection points: 4
#     Node 8, Type 0, BuildingBlock: ICAMEG_clean_sbu_1, # of connection points: 4
#     Node 9, Type 0, BuildingBlock: ICAMEG_clean_sbu_1, # of connection points: 4
#     Node 10, Type 0, BuildingBlock: ICAMEG_clean_sbu_1, # of connection points: 4
#     Node 11, Type 0, BuildingBlock: ICAMEG_clean_sbu_1, # of connection points: 4
#     Node 12, Type 0, BuildingBlock: ICAMEG_clean_sbu_1, # of connection points: 4
#     Node 13, Type 0, BuildingBlock: ICAMEG_clean_sbu_1, # of connection points: 4
#     Node 14, Type 0, BuildingBlock: ICAMEG_clean_sbu_1, # of connection points: 4
#     Node 15, Type 0, BuildingBlock: ICAMEG_clean_sbu_1, # of connection points: 4
#     Edge 16, Type (0, 0), BuildingBlock: XIVTED_clean_linker_0, # of connection points: 2
#     Edge 17, Type (0, 0), BuildingBlock: XIVTED_clean_linker_0, # of connection points: 2
#     Edge 18, Type (0, 0), BuildingBlock: XIVTED_clean_linker_0, # of connection points: 2
#     Edge 19, Type (0, 0), BuildingBlock: XIVTED_clean_linker_0, # of connection points: 2
#     Edge 20, Type (0, 0), BuildingBlock: XIVTED_clean_linker_0, # of connection points: 2
#     Edge 21, Type (0, 0), BuildingBlock: XIVTED_clean_linker_0, # of connection points: 2
#     Edge 22, Type (0, 0), BuildingBlock: XIVTED_clean_linker_0, # of connection points: 2
#     Edge 23, Type (0, 0), BuildingBlock: XIVTED_clean_linker_0, # of connection points: 2
#     Edge 24, Type (0, 0), BuildingBlock: XIVTED_clean_linker_0, # of connection points: 2
#     Edge 25, Type (0, 0), BuildingBlock: XIVTED_clean_linker_0, # of connection points: 2
#     Edge 26, Type (0, 0), BuildingBlock: XIVTED_clean_linker_0, # of connection points: 2
#     Edge 27, Type (0, 0), BuildingBlock: XIVTED_clean_linker_0, # of connection points: 2
#     Edge 28, Type (0, 0), BuildingBlock: XIVTED_clean_linker_0, # of connection points: 2
#     Edge 29, Type (0, 0), BuildingBlock: XIVTED_clean_linker_0, # of connection points: 2
#     Edge 30, Type (0, 0), BuildingBlock: XIVTED_clean_linker_0, # of connection points: 2
#     Edge 31, Type (0, 0), BuildingBlock: XIVTED_clean_linker_0, # of connection points: 2
#     Edge 32, Type (0, 0), BuildingBlock: XIVTED_clean_linker_0, # of connection points: 2
#     Edge 33, Type (0, 0), BuildingBlock: XIVTED_clean_linker_0, # of connection points: 2
#     Edge 34, Type (0, 0), BuildingBlock: XIVTED_clean_linker_0, # of connection points: 2
#     Edge 35, Type (0, 0), BuildingBlock: XIVTED_clean_linker_0, # of connection points: 2
#     Edge 36, Type (0, 0), BuildingBlock: XIVTED_clean_linker_0, # of connection points: 2
#     Edge 37, Type (0, 0), BuildingBlock: XIVTED_clean_linker_0, # of connection points: 2
#     Edge 38, Type (0, 0), BuildingBlock: XIVTED_clean_linker_0, # of connection points: 2
#     Edge 39, Type (0, 0), BuildingBlock: XIVTED_clean_linker_0, # of connection points: 2
#     Edge 40, Type (0, 0), BuildingBlock: XIVTED_clean_linker_0, # of connection points: 2
#     Edge 41, Type (0, 0), BuildingBlock: XIVTED_clean_linker_0, # of connection points: 2
#     Edge 42, Type (0, 0), BuildingBlock: XIVTED_clean_linker_0, # of connection points: 2
#     Edge 43, Type (0, 0), BuildingBlock: XIVTED_clean_linker_0, # of connection points: 2
#     Edge 44, Type (0, 0), BuildingBlock: XIVTED_clean_linker_0, # of connection points: 2
#     Edge 45, Type (0, 0), BuildingBlock: XIVTED_clean_linker_0, # of connection points: 2
#     Edge 46, Type (0, 0), BuildingBlock: XIVTED_clean_linker_0, # of connection points: 2
#     Edge 47, Type (0, 0), BuildingBlock: XIVTED_clean_linker_0, # of connection points: 2
# Relax obj value: 0.015
# Max RMSD: 0.106
# Mean RMSD: 0.106
data_MOF--net-uki--node1-ICAMEG_clean_sbu_1--edge1-XIVTED_clean_linker_0
_symmetry_space_group_name_H-M    P1
_symmetry_Int_Tables_number       1
_symmetry_cell_setting            triclinic
loop_
_symmetry_equiv_pos_as_xyz
'x, y, z'
_cell_length_a     33.421343
_cell_length_b     33.410921
_cell_length_c     78.541592
_cell_angle_alpha  89.992204
_cell_angle_beta   89.977953
_cell_angle_gamma 90.014793
loop_
_atom_site_label
_atom_site_type_symbol
_atom_site_fract_x
_atom_site_fract_y
_atom_site_fract_z
_atom_type_partial_charge
Co0 Co 0.10629 0.20102 0.27341 0.0
Co1 Co 0.07837 0.25844 0.30813 0.0
O2 O 0.0991 0.20945 0.29786 0.0
C3 C 0.05144 0.13752 0.28455 0.0
O4 O 0.03353 0.16484 0.2938 0.0
C5 C 0.1575 0.24797 0.32417 0.0
O6 O 0.17217 0.24124 0.30893 0.0
O7 O 0.11452 0.29214 0.29391 0.0
O8 O 0.13033 0.25524 0.27091 0.0
H9 H 0.02408 0.39865 0.30768 0.0
H10 H 0.13703 0.14088 0.2979 0.0
O11 O 0.08167 0.1466 0.27545 0.0
H12 H 0.25549 0.18849 0.26638 0.0
H13 H 0.1422 0.11947 0.22174 0.0
H14 H 0.0946 0.25043 0.24243 0.0
H15 H 0.18834 0.21472 0.25966 0.0
H16 H 0.13321 0.13167 0.25249 0.0
O17 O 0.12043 0.25538 0.3261 0.0
H18 H 0.04961 0.33631 0.29482 0.0
H19 H 0.06444 0.28503 0.3439 0.0
H20 H 0.10347 0.23965 0.21159 0.0
H21 H 0.20359 0.11363 0.30496 0.0
H22 H 0.12744 0.17376 0.20107 0.0
H23 H 0.26341 0.13754 0.28917 0.0
O24 O 0.05258 0.22357 0.26816 0.0
H25 H 0.04546 0.14286 0.3466 0.0
H26 H 0.99141 0.26084 0.31674 0.0
H27 H 0.94607 0.21841 0.33373 0.0
H28 H 0.97309 0.15893 0.34883 0.0
H29 H 0.08961 0.18589 0.32932 0.0
H30 H 0.0394 0.34693 0.3573 0.0
H31 H 0.01885 0.40422 0.33914 0.0
O32 O 0.03584 0.26238 0.29044 0.0
C33 C 0.13178 0.28754 0.27954 0.0
C34 C 0.03281 0.37384 0.31573 0.0
C35 C 0.04146 0.34483 0.34358 0.0
N36 N 0.05817 0.30697 0.31859 0.0
C37 C 0.04717 0.33843 0.30852 0.0
C38 C 0.0557 0.3099 0.33592 0.0
C39 C 0.02993 0.37696 0.33338 0.0
C40 C 0.16288 0.15114 0.29087 0.0
N41 N 0.15878 0.17915 0.27831 0.0
C42 C 0.2005 0.13573 0.29497 0.0
C43 C 0.23406 0.1492 0.28612 0.0
C44 C 0.22964 0.1778 0.27334 0.0
C45 C 0.19156 0.19259 0.26961 0.0
C46 C 0.13183 0.14834 0.22617 0.0
C47 C 0.1053 0.22178 0.23795 0.0
C48 C 0.12662 0.1554 0.24356 0.0
N49 N 0.11374 0.19185 0.24924 0.0
C50 C 0.11014 0.2158 0.22047 0.0
C51 C 0.12355 0.17881 0.21458 0.0
C52 C 0.02899 0.24769 0.27574 0.0
C53 C 0.03334 0.16872 0.34011 0.0
C54 C 0.00332 0.2349 0.32319 0.0
C55 C 0.97754 0.21106 0.33284 0.0
C56 C 0.99273 0.17773 0.34133 0.0
N57 N 0.0431 0.22585 0.32203 0.0
C58 C 0.05823 0.19329 0.33036 0.0
Co59 Co 0.20148 0.89442 0.7247 0.0
Co60 Co 0.26346 0.91792 0.69106 0.0
O61 O 0.21229 0.90098 0.7005 0.0
C62 C 0.13982 0.95136 0.71346 0.0
O63 O 0.16893 0.97272 0.70686 0.0
C64 C 0.24769 0.84074 0.67467 0.0
O65 O 0.24049 0.82704 0.69003 0.0
O66 O 0.29283 0.87808 0.70503 0.0
O67 O 0.25543 0.87022 0.7286 0.0
H68 H 0.40828 0.95816 0.69314 0.0
H69 H 0.14386 0.86266 0.69936 0.0
O70 O 0.14741 0.91869 0.72117 0.0
H71 H 0.18772 0.74553 0.73268 0.0
H72 H 0.11421 0.8608 0.77494 0.0
H73 H 0.24735 0.90757 0.75653 0.0
H74 H 0.21341 0.81293 0.73936 0.0
H75 H 0.12982 0.86858 0.74441 0.0
O76 O 0.25729 0.8773 0.67253 0.0
H77 H 0.34336 0.9375 0.70525 0.0
H78 H 0.29258 0.93243 0.65575 0.0
H79 H 0.23316 0.8999 0.78719 0.0
H80 H 0.11716 0.79584 0.69234 0.0
H81 H 0.16617 0.87634 0.79656 0.0
H82 H 0.13921 0.73668 0.70903 0.0
O83 O 0.22388 0.94829 0.72979 0.0
H84 H 0.15395 0.96481 0.65205 0.0
H85 H 0.27375 0.00519 0.68443 0.0
H86 H 0.23669 0.05581 0.66788 0.0
H87 H 0.17636 0.03569 0.65151 0.0
H88 H 0.19172 0.91524 0.66888 0.0
H89 H 0.35704 0.95271 0.64307 0.0
H90 H 0.4154 0.9659 0.66183 0.0
O91 O 0.27069 0.95829 0.70956 0.0
C92 C 0.28727 0.86427 0.71998 0.0
C93 C 0.38302 0.95269 0.68484 0.0
C94 C 0.35428 0.94957 0.65673 0.0
N95 N 0.31412 0.93428 0.68123 0.0
C96 C 0.34615 0.94115 0.69163 0.0
C97 C 0.31788 0.93806 0.66398 0.0
C98 C 0.38701 0.95698 0.66727 0.0
C99 C 0.15328 0.83712 0.70679 0.0
N100 N 0.17999 0.84173 0.71981 0.0
C101 C 0.13819 0.79934 0.70271 0.0
C102 C 0.15063 0.76614 0.71206 0.0
C103 C 0.17786 0.77109 0.72533 0.0
C104 C 0.19236 0.80931 0.72903 0.0
C105 C 0.14354 0.87099 0.77101 0.0
C106 C 0.21823 0.89706 0.76052 0.0
C107 C 0.15252 0.87552 0.75375 0.0
N108 N 0.18958 0.88814 0.74871 0.0
C109 C 0.21032 0.89289 0.77789 0.0
C110 C 0.17272 0.87971 0.78314 0.0
C111 C 0.2528 0.96801 0.72331 0.0
C112 C 0.18026 0.97392 0.65908 0.0
C113 C 0.24747 0.99623 0.67737 0.0
C114 C 0.22666 0.02501 0.66799 0.0
C115 C 0.19282 0.0137 0.65881 0.0
N116 N 0.23502 0.95726 0.67753 0.0
C117 C 0.20186 0.94595 0.66858 0.0
Co118 Co 0.88931 0.79616 0.27277 0.0
Co119 Co 0.91553 0.73796 0.30748 0.0
O120 O 0.89561 0.78726 0.29722 0.0
C121 C 0.94477 0.85849 0.28447 0.0
O122 O 0.96193 0.8306 0.29367 0.0
C123 C 0.83573 0.74878 0.32292 0.0
O124 O 0.8218 0.75584 0.30758 0.0
O125 O 0.87974 0.70485 0.29291 0.0
O126 O 0.86452 0.74232 0.26999 0.0
H127 H 0.9686 0.59728 0.30703 0.0
H128 H 0.85876 0.85637 0.29728 0.0
O129 O 0.91474 0.85016 0.27513 0.0
H130 H 0.74055 0.81113 0.26502 0.0
H131 H 0.85632 0.87913 0.22117 0.0
H132 H 0.90112 0.74706 0.24171 0.0
H133 H 0.80749 0.78397 0.25856 0.0
H134 H 0.86418 0.86628 0.25192 0.0
O135 O 0.87267 0.74107 0.32512 0.0
H136 H 0.94422 0.66007 0.29416 0.0
H137 H 0.92764 0.71065 0.34327 0.0
H138 H 0.89335 0.75849 0.21086 0.0
H139 H 0.79243 0.88453 0.30407 0.0
H140 H 0.8708 0.82493 0.20041 0.0
H141 H 0.73273 0.86182 0.28791 0.0
O142 O 0.94281 0.77286 0.26773 0.0
H143 H 0.94775 0.85252 0.34659 0.0
H144 H 0.0021 0.73471 0.31669 0.0
H145 H 0.04705 0.77644 0.33415 0.0
H146 H 0.01989 0.83582 0.34926 0.0
H147 H 0.90398 0.81019 0.32884 0.0
H148 H 0.95152 0.6483 0.35667 0.0
H149 H 0.97235 0.59112 0.33851 0.0
O150 O 0.95878 0.73397 0.29008 0.0
C151 C 0.86272 0.70986 0.27852 0.0
C152 C 0.95974 0.62204 0.31508 0.0
C153 C 0.95009 0.65065 0.34294 0.0
N154 N 0.93486 0.68908 0.31795 0.0
C155 C 0.94603 0.6577 0.30786 0.0
C156 C 0.93652 0.68584 0.33528 0.0
C157 C 0.96179 0.61858 0.33274 0.0
C158 C 0.83298 0.84663 0.29008 0.0
N159 N 0.83702 0.81877 0.27747 0.0
C160 C 0.79547 0.86255 0.29403 0.0
C161 C 0.76198 0.84976 0.28497 0.0
C162 C 0.76635 0.8213 0.27213 0.0
C163 C 0.80431 0.80599 0.26855 0.0
C164 C 0.86607 0.85002 0.22556 0.0
C165 C 0.89102 0.77595 0.23726 0.0
C166 C 0.87064 0.84259 0.24295 0.0
N167 N 0.88275 0.80584 0.2486 0.0
C168 C 0.88681 0.78229 0.21978 0.0
C169 C 0.87419 0.8196 0.21392 0.0
C170 C 0.96606 0.7486 0.2754 0.0
C171 C 0.95993 0.82669 0.34009 0.0
C172 C 0.99013 0.76061 0.32315 0.0
C173 C 0.01568 0.78405 0.33307 0.0
C174 C 0.00041 0.81734 0.34156 0.0
N175 N 0.95047 0.77 0.32174 0.0
C176 C 0.93525 0.80252 0.33008 0.0
Co177 Co 0.79547 0.10764 0.72618 0.0
Co178 Co 0.73699 0.08098 0.69174 0.0
O179 O 0.78629 0.1008 0.70187 0.0
C180 C 0.85798 0.05155 0.71519 0.0
O181 O 0.82924 0.03085 0.70797 0.0
C182 C 0.74832 0.16059 0.6765 0.0
O183 O 0.75418 0.17395 0.69202 0.0
O184 O 0.70392 0.11705 0.70626 0.0
O185 O 0.74127 0.13148 0.72928 0.0
H186 H 0.5963 0.02797 0.69228 0.0
H187 H 0.85438 0.13929 0.70131 0.0
O188 O 0.84992 0.08356 0.72331 0.0
H189 H 0.8078 0.25675 0.73375 0.0
H190 H 0.87942 0.14246 0.77726 0.0
H191 H 0.7475 0.09528 0.75754 0.0
H192 H 0.78221 0.18929 0.74042 0.0
H193 H 0.86578 0.13404 0.74659 0.0
O194 O 0.74059 0.12374 0.67399 0.0
H195 H 0.65906 0.05246 0.70511 0.0
H196 H 0.70967 0.06875 0.65599 0.0
H197 H 0.75974 0.10355 0.78832 0.0
H198 H 0.88097 0.20616 0.6943 0.0
H199 H 0.82611 0.12732 0.79835 0.0
H200 H 0.85756 0.26549 0.71054 0.0
O201 O 0.77291 0.05376 0.73137 0.0
H202 H 0.85202 0.04727 0.65311 0.0
H203 H 0.73306 0.99438 0.68266 0.0
H204 H 0.77471 0.9488 0.66545 0.0
H205 H 0.83467 0.97524 0.65051 0.0
H206 H 0.80973 0.09168 0.67058 0.0
H207 H 0.64733 0.04474 0.64261 0.0
H208 H 0.59017 0.02399 0.6608 0.0
O209 O 0.73288 0.03804 0.70932 0.0
C210 C 0.70883 0.13355 0.72077 0.0
C211 C 0.62104 0.03679 0.68422 0.0
C212 C 0.64967 0.04627 0.65634 0.0
N213 N 0.68808 0.06168 0.68131 0.0
C214 C 0.65669 0.05056 0.69141 0.0
C215 C 0.68485 0.05992 0.66398 0.0
C216 C 0.61761 0.03461 0.66656 0.0
C217 C 0.84435 0.16491 0.70855 0.0
N218 N 0.81697 0.16036 0.72133 0.0
C219 C 0.85939 0.20272 0.70448 0.0
C220 C 0.8462 0.236 0.71358 0.0
C221 C 0.81826 0.23112 0.72659 0.0
C222 C 0.80383 0.19286 0.7303 0.0
C223 C 0.85036 0.13216 0.77304 0.0
C224 C 0.77637 0.10587 0.76181 0.0
C225 C 0.84249 0.12727 0.7557 0.0
N226 N 0.80578 0.11451 0.7503 0.0
C227 C 0.78317 0.11038 0.77925 0.0
C228 C 0.82043 0.12368 0.78487 0.0
C229 C 0.7481 0.03065 0.72388 0.0
C230 C 0.82594 0.0354 0.65954 0.0
C231 C 0.7592 0.00603 0.67627 0.0
C232 C 0.78261 0.98012 0.6665 0.0
C233 C 0.81622 0.99498 0.6581 0.0
N234 N 0.76894 0.04563 0.67762 0.0
C235 C 0.80181 0.06043 0.66941 0.0
Co236 Co 0.10281 0.29259 0.97169 0.0
Co237 Co 0.06917 0.23276 0.93877 0.0
O238 O 0.09064 0.28253 0.94786 0.0
C239 C 0.04466 0.35494 0.96257 0.0
O240 O 0.02222 0.326 0.95653 0.0
C241 C 0.14501 0.24467 0.92076 0.0
O242 O 0.16059 0.2514 0.93582 0.0
O243 O 0.10823 0.20025 0.9519 0.0
O244 O 0.12736 0.23828 0.97417 0.0
H245 H 0.01699 0.09173 0.94142 0.0
H246 H 0.12893 0.35028 0.94519 0.0
O247 O 0.07829 0.34702 0.96942 0.0
H248 H 0.25282 0.30561 0.97348 0.0
H249 H 0.14823 0.37832 0.0207 0.0
H250 H 0.09756 0.2456 0.00366 0.0
H251 H 0.18711 0.28038 0.98295 0.0
H252 H 0.13323 0.36368 0.99058 0.0
O253 O 0.10792 0.23648 0.91937 0.0
H254 H 0.04366 0.15468 0.95324 0.0
H255 H 0.04961 0.20516 0.9037 0.0
H256 H 0.11248 0.25883 0.0339 0.0
H257 H 0.19397 0.37655 0.93541 0.0
H258 H 0.13801 0.32561 0.04258 0.0
H259 H 0.25652 0.35408 0.94955 0.0
O260 O 0.05014 0.27035 0.97907 0.0
H261 H 0.02533 0.34611 0.90108 0.0
H262 H 0.9808 0.22876 0.93414 0.0
H263 H 0.9309 0.26963 0.91887 0.0
H264 H 0.9531 0.32876 0.90218 0.0
H265 H 0.07417 0.30459 0.91664 0.0
H266 H 0.02326 0.14266 0.8913 0.0
H267 H 0.00663 0.08543 0.91022 0.0
O268 O 0.03111 0.22802 0.95819 0.0
C269 C 0.12743 0.20556 0.96576 0.0
C270 C 0.02403 0.11648 0.93305 0.0
C271 C 0.02761 0.14504 0.90492 0.0
N272 N 0.04802 0.1836 0.9292 0.0
C273 C 0.03906 0.15223 0.93968 0.0
C274 C 0.04262 0.18031 0.91201 0.0
C275 C 0.01827 0.11295 0.91554 0.0
C276 C 0.15599 0.34065 0.95152 0.0
N277 N 0.15422 0.31391 0.96466 0.0
C278 C 0.19274 0.35551 0.94588 0.0
C279 C 0.22783 0.34285 0.9538 0.0
C280 C 0.22578 0.31563 0.96722 0.0
C281 C 0.1885 0.30136 0.9725 0.0
C282 C 0.13719 0.34909 0.01707 0.0
C283 C 0.10889 0.27464 0.00733 0.0
C284 C 0.12856 0.34066 5e-05 0.0
N285 N 0.11484 0.30373 0.99537 0.0
C286 C 0.11718 0.282 0.02448 0.0
C287 C 0.13146 0.31949 0.02934 0.0
C288 C 0.02666 0.24408 0.9728 0.0
C289 C 0.0153 0.32034 0.90826 0.0
C290 C 0.99067 0.25446 0.92691 0.0
C291 C 0.9623 0.27745 0.91827 0.0
C292 C 0.97477 0.31062 0.9089 0.0
N293 N 0.03037 0.26414 0.92618 0.0
C294 C 0.04284 0.29662 0.91704 0.0
Co295 Co 0.29522 0.89823 0.02474 0.0
Co296 Co 0.23484 0.92177 0.05896 0.0
O297 O 0.28562 0.90429 0.04912 0.0
C298 C 0.35866 0.9523 0.03658 0.0
O299 O 0.33116 0.97055 0.04562 0.0
C300 C 0.25123 0.84493 0.07565 0.0
O301 O 0.25773 0.83052 0.06035 0.0
O302 O 0.20463 0.88183 0.0453 0.0
O303 O 0.24083 0.87463 0.02138 0.0
H304 H 0.09023 0.96283 0.05784 0.0
H305 H 0.35386 0.86537 0.04932 0.0
O306 O 0.34969 0.9221 0.02747 0.0
H307 H 0.30687 0.74937 0.01604 0.0
H308 H 0.37864 0.86474 0.9733 0.0
H309 H 0.24748 0.9128 0.99354 0.0
H310 H 0.28153 0.81717 0.00988 0.0
H311 H 0.36519 0.87182 0.00404 0.0
O312 O 0.24154 0.8815 0.07756 0.0
H313 H 0.15454 0.94171 0.04531 0.0
H314 H 0.20722 0.93687 0.09446 0.0
H315 H 0.25952 0.90584 0.96269 0.0
H316 H 0.38024 0.79812 0.05583 0.0
H317 H 0.32551 0.88165 0.95239 0.0
H318 H 0.35662 0.73954 0.03916 0.0
O319 O 0.27365 0.95252 0.02016 0.0
H320 H 0.34562 0.96813 0.09745 0.0
H321 H 0.22563 0.00928 0.06539 0.0
H322 H 0.26356 0.05974 0.08167 0.0
H323 H 0.324 0.03924 0.09787 0.0
H324 H 0.30706 0.91873 0.08087 0.0
H325 H 0.14339 0.95764 0.10755 0.0
H326 H 0.08438 0.97094 0.08918 0.0
O327 O 0.22703 0.96213 0.04045 0.0
C328 C 0.20946 0.86834 0.03026 0.0
C329 C 0.11577 0.95731 0.06597 0.0
C330 C 0.1456 0.95434 0.09387 0.0
N331 N 0.18469 0.93854 0.06912 0.0
C332 C 0.1523 0.94549 0.05894 0.0
C333 C 0.18164 0.94254 0.08639 0.0
C334 C 0.1125 0.9618 0.08356 0.0
C335 C 0.34375 0.84007 0.0419 0.0
N336 N 0.31637 0.84521 0.02918 0.0
C337 C 0.35866 0.80204 0.04569 0.0
C338 C 0.34535 0.76918 0.03635 0.0
C339 C 0.31742 0.77467 0.02339 0.0
C340 C 0.30312 0.81312 0.01997 0.0
C341 C 0.34974 0.87522 0.97763 0.0
C342 C 0.27617 0.902 0.98915 0.0
C343 C 0.34197 0.87934 0.99501 0.0
N344 N 0.30545 0.89234 0.00057 0.0
C345 C 0.28286 0.89824 0.97167 0.0
C346 C 0.31991 0.8847 0.96591 0.0
C347 C 0.24502 0.97227 0.02678 0.0
C348 C 0.31926 0.9774 0.09049 0.0
C349 C 0.25198 0.00015 0.07236 0.0
C350 C 0.27327 0.02884 0.08159 0.0
C351 C 0.30715 0.01731 0.09069 0.0
N352 N 0.26404 0.96106 0.07223 0.0
C353 C 0.29719 0.94952 0.08115 0.0
Co354 Co 0.89652 0.70173 0.9724 0.0
Co355 Co 0.92229 0.76334 0.9387 0.0
O356 O 0.90385 0.71252 0.94815 0.0
C357 C 0.95429 0.64029 0.9614 0.0
O358 O 0.97533 0.66925 0.95451 0.0
C359 C 0.84426 0.7484 0.92256 0.0
O360 O 0.83149 0.73596 0.93744 0.0
O361 O 0.88481 0.79425 0.95339 0.0
O362 O 0.87119 0.75505 0.97592 0.0
H363 H 0.97119 0.90538 0.94157 0.0
H364 H 0.86715 0.64289 0.947 0.0
O365 O 0.92182 0.64802 0.96922 0.0
H366 H 0.74764 0.68492 0.9792 0.0
H367 H 0.86231 0.6144 0.02257 0.0
H368 H 0.90699 0.74833 0.00423 0.0
H369 H 0.81412 0.71231 0.9863 0.0
H370 H 0.8712 0.62975 0.99207 0.0
O371 O 0.88008 0.7606 0.9207 0.0
H372 H 0.94822 0.84088 0.95334 0.0
H373 H 0.93476 0.79396 0.90342 0.0
H374 H 0.8982 0.73438 0.03484 0.0
H375 H 0.80131 0.61449 0.93959 0.0
H376 H 0.87569 0.66699 0.04418 0.0
H377 H 0.74095 0.63562 0.95571 0.0
O378 O 0.94973 0.72527 0.97803 0.0
H379 H 0.96001 0.65226 0.8987 0.0
H380 H 0.00891 0.77043 0.92999 0.0
H381 H 0.05596 0.7314 0.9124 0.0
H382 H 0.03154 0.67185 0.89657 0.0
H383 H 0.91411 0.69197 0.91658 0.0
H384 H 0.95724 0.85806 0.89109 0.0
H385 H 0.97581 0.91427 0.91023 0.0
O386 O 0.96463 0.76717 0.95649 0.0
C387 C 0.86815 0.78789 0.96776 0.0
C388 C 0.96332 0.88107 0.9331 0.0
C389 C 0.95544 0.85453 0.90477 0.0
N390 N 0.9405 0.81361 0.92908 0.0
C391 C 0.95042 0.84445 0.93969 0.0
C392 C 0.94264 0.81834 0.91182 0.0
C393 C 0.96586 0.88605 0.91551 0.0
C394 C 0.8411 0.6519 0.9542 0.0
N395 N 0.84452 0.67908 0.96712 0.0
C396 C 0.80386 0.63586 0.94989 0.0
C397 C 0.77 0.64778 0.95892 0.0
C398 C 0.77373 0.67547 0.9721 0.0
C399 C 0.81144 0.69094 0.97603 0.0
C400 C 0.87206 0.6439 0.01865 0.0
C401 C 0.89696 0.71902 0.00819 0.0
C402 C 0.87721 0.65274 0.00141 0.0
N403 N 0.88929 0.69 0.99638 0.0
C404 C 0.89214 0.71125 0.02555 0.0
C405 C 0.87955 0.67343 0.03078 0.0
C406 C 0.97226 0.75116 0.97088 0.0
C407 C 0.971 0.67817 0.90552 0.0
C408 C 0.99814 0.74445 0.92323 0.0
C409 C 0.02487 0.72254 0.91323 0.0
C410 C 0.01114 0.68915 0.90435 0.0
N411 N 0.95882 0.7335 0.92431 0.0
C412 C 0.94513 0.70084 0.91561 0.0
Co413 Co 0.70543 0.10434 0.0249 0.0
Co414 Co 0.75934 0.07127 0.0598 0.0
O415 O 0.71191 0.09448 0.04924 0.0
C416 C 0.64125 0.04858 0.03446 0.0
O417 O 0.66794 0.02994 0.04378 0.0
C418 C 0.75074 0.1507 0.07544 0.0
O419 O 0.74489 0.16451 0.06 0.0
O420 O 0.79562 0.10558 0.04586 0.0
O421 O 0.75958 0.12924 0.0238 0.0
H422 H 0.89614 0.00893 0.06044 0.0
H423 H 0.64354 0.13193 0.04931 0.0
O424 O 0.65104 0.07916 0.02571 0.0
H425 H 0.69156 0.25402 0.02052 0.0
H426 H 0.62789 0.14487 0.97275 0.0
H427 H 0.75776 0.09716 0.99456 0.0
H428 H 0.71872 0.18785 0.01276 0.0
H429 H 0.6375 0.13251 0.00346 0.0
O430 O 0.75748 0.1136 0.0778 0.0
H431 H 0.83594 0.03786 0.04708 0.0
H432 H 0.78368 0.0563 0.09575 0.0
H433 H 0.74956 0.10943 0.96378 0.0
H434 H 0.6153 0.19745 0.05737 0.0
H435 H 0.68424 0.13347 0.9527 0.0
H436 H 0.63944 0.2591 0.04297 0.0
O437 O 0.72892 0.05131 0.0189 0.0
H438 H 0.64062 0.04375 0.09731 0.0
H439 H 0.75678 0.98417 0.06805 0.0
H440 H 0.71137 0.94078 0.08457 0.0
H441 H 0.65281 0.97058 0.09935 0.0
H442 H 0.68659 0.08596 0.08053 0.0
H443 H 0.84345 0.02784 0.10965 0.0
H444 H 0.90015 0.00378 0.09194 0.0
O445 O 0.76181 0.02892 0.042 0.0
C446 C 0.79191 0.12653 0.03235 0.0
C447 C 0.87159 0.01921 0.06829 0.0
C448 C 0.84203 0.02988 0.09591 0.0
N449 N 0.80625 0.04851 0.07062 0.0
C450 C 0.83738 0.03552 0.0608 0.0
C451 C 0.80832 0.04605 0.08797 0.0
C452 C 0.87383 0.01637 0.08596 0.0
C453 C 0.65391 0.15858 0.04287 0.0
N454 N 0.68262 0.15606 0.03053 0.0
C455 C 0.63793 0.19561 0.04754 0.0
C456 C 0.65153 0.2302 0.03947 0.0
C457 C 0.68079 0.22737 0.02688 0.0
C458 C 0.69612 0.18984 0.02257 0.0
C459 C 0.65651 0.13447 0.97743 0.0
C460 C 0.72933 0.10786 0.98984 0.0
C461 C 0.6621 0.12734 0.99479 0.0
N462 N 0.69824 0.11441 0.00079 0.0
C463 C 0.72482 0.11463 0.9724 0.0
C464 C 0.68815 0.12808 0.96619 0.0
C465 C 0.74987 0.02511 0.02666 0.0
C466 C 0.6661 0.03043 0.09097 0.0
C467 C 0.73131 0.99732 0.07441 0.0
C468 C 0.70575 0.97263 0.08378 0.0
C469 C 0.67292 0.98937 0.09208 0.0
N470 N 0.72441 0.03756 0.07337 0.0
C471 C 0.69233 0.05421 0.0815 0.0
Co472 Co 0.60571 0.70046 0.77295 0.0
Co473 Co 0.58085 0.75887 0.80786 0.0
O474 O 0.59958 0.70909 0.79746 0.0
C475 C 0.54877 0.63887 0.78431 0.0
O476 O 0.5325 0.66641 0.794 0.0
C477 C 0.66032 0.74398 0.82284 0.0
O478 O 0.67207 0.73157 0.8078 0.0
O479 O 0.61653 0.79156 0.79305 0.0
O480 O 0.63198 0.75365 0.77033 0.0
H481 H 0.52899 0.89999 0.80752 0.0
H482 H 0.63453 0.63851 0.79702 0.0
O483 O 0.57889 0.64712 0.77502 0.0
H484 H 0.75401 0.68153 0.76502 0.0
H485 H 0.63655 0.61805 0.72093 0.0
H486 H 0.5949 0.75058 0.74213 0.0
H487 H 0.68789 0.71089 0.75879 0.0
H488 H 0.62909 0.63027 0.75174 0.0
O489 O 0.62459 0.75594 0.82518 0.0
H490 H 0.55233 0.83686 0.7946 0.0
H491 H 0.57048 0.78668 0.84368 0.0
H492 H 0.60232 0.73979 0.71122 0.0
H493 H 0.7 0.60813 0.80358 0.0
H494 H 0.62329 0.67312 0.70044 0.0
H495 H 0.76034 0.62974 0.78755 0.0
O496 O 0.5528 0.72514 0.76811 0.0
H497 H 0.54893 0.64483 0.84729 0.0
H498 H 0.49464 0.763 0.81762 0.0
H499 H 0.44992 0.72177 0.83543 0.0
H500 H 0.47705 0.66221 0.85042 0.0
H501 H 0.59249 0.68671 0.82923 0.0
H502 H 0.54766 0.84938 0.85713 0.0
H503 H 0.52656 0.90652 0.839 0.0
O504 O 0.53692 0.76306 0.79077 0.0
C505 C 0.63394 0.78618 0.77878 0.0
C506 C 0.53798 0.87526 0.81555 0.0
C507 C 0.54851 0.84686 0.8434 0.0
N508 N 0.56241 0.80804 0.81837 0.0
C509 C 0.5511 0.83941 0.80831 0.0
C510 C 0.56147 0.81147 0.83571 0.0
C511 C 0.53666 0.87891 0.83322 0.0
C512 C 0.66058 0.64774 0.78987 0.0
N513 N 0.65736 0.67626 0.77748 0.0
C514 C 0.6976 0.63058 0.79369 0.0
C515 C 0.73145 0.64276 0.78471 0.0
C516 C 0.72792 0.67184 0.77208 0.0
C517 C 0.69043 0.68842 0.76863 0.0
C518 C 0.6275 0.64726 0.72547 0.0
C519 C 0.60431 0.72158 0.73753 0.0
C520 C 0.62316 0.65434 0.7429 0.0
N521 N 0.61194 0.69121 0.74872 0.0
C522 C 0.60833 0.7156 0.72002 0.0
C523 C 0.62006 0.67817 0.71398 0.0
C524 C 0.52954 0.749 0.77601 0.0
C525 C 0.53678 0.67076 0.84085 0.0
C526 C 0.50662 0.73706 0.82406 0.0
C527 C 0.48119 0.71389 0.83416 0.0
C528 C 0.49644 0.6805 0.84258 0.0
N529 N 0.54615 0.72732 0.82242 0.0
C530 C 0.56134 0.69468 0.83067 0.0
Co531 Co 0.70078 0.39088 0.2254 0.0
Co532 Co 0.75867 0.41576 0.19042 0.0
O533 O 0.70948 0.39618 0.20091 0.0
C534 C 0.63796 0.44544 0.21343 0.0
O535 O 0.66548 0.46235 0.20394 0.0
C536 C 0.74789 0.33523 0.17589 0.0
O537 O 0.74143 0.32237 0.19144 0.0
O538 O 0.79212 0.38078 0.20527 0.0
O539 O 0.75468 0.36651 0.2283 0.0
H540 H 0.899 0.46973 0.19017 0.0
H541 H 0.64058 0.35889 0.20126 0.0
O542 O 0.64668 0.41587 0.22296 0.0
H543 H 0.6867 0.24237 0.23442 0.0
H544 H 0.61856 0.35968 0.27745 0.0
H545 H 0.75014 0.40431 0.25626 0.0
H546 H 0.7135 0.30977 0.24029 0.0
H547 H 0.63103 0.3663 0.24661 0.0
O548 O 0.75547 0.37202 0.17316 0.0
H549 H 0.83648 0.44557 0.20335 0.0
H550 H 0.78569 0.42613 0.15449 0.0
H551 H 0.7391 0.39779 0.2872 0.0
H552 H 0.61278 0.29206 0.19504 0.0
H553 H 0.6729 0.37532 0.29797 0.0
H554 H 0.63594 0.23321 0.21166 0.0
O555 O 0.72383 0.44475 0.22993 0.0
H556 H 0.64368 0.44581 0.15125 0.0
H557 H 0.76157 0.50192 0.18046 0.0
H558 H 0.71953 0.54595 0.16272 0.0
H559 H 0.6601 0.5179 0.14795 0.0
H560 H 0.68632 0.40296 0.16926 0.0
H561 H 0.84777 0.44977 0.14077 0.0
H562 H 0.90491 0.47194 0.15865 0.0
O563 O 0.76261 0.45985 0.20742 0.0
C564 C 0.78714 0.36441 0.2198 0.0
C565 C 0.87426 0.46028 0.18224 0.0
C566 C 0.84553 0.44902 0.15451 0.0
N567 N 0.80738 0.43479 0.1797 0.0
C568 C 0.83875 0.44669 0.18963 0.0
C569 C 0.81049 0.43559 0.16235 0.0
C570 C 0.87757 0.46147 0.16456 0.0
C571 C 0.65051 0.33348 0.20865 0.0
N572 N 0.67842 0.33825 0.22119 0.0
C573 C 0.63479 0.29569 0.20503 0.0
C574 C 0.64784 0.26268 0.21434 0.0
C575 C 0.67633 0.26779 0.22711 0.0
C576 C 0.69144 0.30601 0.23036 0.0
C577 C 0.64756 0.36941 0.27291 0.0
C578 C 0.72135 0.39426 0.26085 0.0
C579 C 0.65476 0.37328 0.25547 0.0
N580 N 0.69138 0.38535 0.24965 0.0
C581 C 0.71523 0.39075 0.27838 0.0
C582 C 0.67806 0.37818 0.28442 0.0
C583 C 0.74794 0.46777 0.22203 0.0
C584 C 0.66953 0.45836 0.15759 0.0
C585 C 0.73566 0.48956 0.17415 0.0
C586 C 0.71204 0.51459 0.16407 0.0
C587 C 0.67873 0.49882 0.15577 0.0
N588 N 0.72642 0.44992 0.1759 0.0
C589 C 0.69388 0.43422 0.16776 0.0
Co590 Co 0.38913 0.29495 0.77358 0.0
Co591 Co 0.41763 0.24207 0.80945 0.0
O592 O 0.39519 0.2889 0.79815 0.0
C593 C 0.44304 0.35944 0.78452 0.0
O594 O 0.45998 0.33286 0.79446 0.0
C595 C 0.33522 0.24859 0.82236 0.0
O596 O 0.32431 0.25499 0.80655 0.0
O597 O 0.38718 0.20494 0.79441 0.0
O598 O 0.36487 0.24054 0.77195 0.0
H599 H 0.48357 0.10707 0.81224 0.0
H600 H 0.3575 0.35728 0.79686 0.0
O601 O 0.41393 0.34955 0.77492 0.0
H602 H 0.24037 0.30741 0.76513 0.0
H603 H 0.35627 0.37154 0.7202 0.0
H604 H 0.4013 0.24223 0.74365 0.0
H605 H 0.30776 0.28059 0.75931 0.0
H606 H 0.36393 0.36241 0.75121 0.0
O607 O 0.37191 0.24254 0.82594 0.0
H608 H 0.45552 0.16648 0.79793 0.0
H609 H 0.42647 0.21799 0.84579 0.0
H610 H 0.39377 0.24995 0.71257 0.0
H611 H 0.29071 0.38518 0.80301 0.0
H612 H 0.37109 0.31498 0.70067 0.0
H613 H 0.23154 0.36011 0.78712 0.0
O614 O 0.44306 0.27164 0.76912 0.0
H615 H 0.43477 0.36132 0.84776 0.0
H616 H 0.50285 0.24717 0.82047 0.0
H617 H 0.54177 0.29375 0.83834 0.0
H618 H 0.50769 0.35132 0.85213 0.0
H619 H 0.39708 0.31418 0.82968 0.0
H620 H 0.45393 0.15898 0.86063 0.0
H621 H 0.48288 0.10306 0.84382 0.0
O622 O 0.46317 0.2408 0.7931 0.0
C623 C 0.36782 0.20816 0.78048 0.0
C624 C 0.47113 0.13128 0.81971 0.0
C625 C 0.45445 0.1604 0.84687 0.0
N626 N 0.43961 0.19575 0.82102 0.0
C627 C 0.4553 0.16504 0.81167 0.0
C628 C 0.43885 0.19368 0.8384 0.0
C629 C 0.4707 0.12904 0.83743 0.0
C630 C 0.33196 0.34652 0.78978 0.0
N631 N 0.33654 0.31751 0.77768 0.0
C632 C 0.29419 0.36231 0.79336 0.0
C633 C 0.26099 0.34819 0.78446 0.0
C634 C 0.26592 0.3186 0.77213 0.0
C635 C 0.30414 0.30349 0.7689 0.0
C636 C 0.36611 0.34304 0.72524 0.0
C637 C 0.39119 0.27054 0.73856 0.0
C638 C 0.37058 0.33772 0.74277 0.0
N639 N 0.38278 0.30174 0.74922 0.0
C640 C 0.38709 0.27477 0.72095 0.0
C641 C 0.37441 0.31128 0.71428 0.0
C642 C 0.46869 0.25184 0.77773 0.0
C643 C 0.44993 0.33628 0.84186 0.0
C644 C 0.48783 0.27217 0.82641 0.0
C645 C 0.51 0.29841 0.83654 0.0
C646 C 0.49086 0.33068 0.84428 0.0
N647 N 0.4477 0.27785 0.8241 0.0
C648 C 0.42871 0.30939 0.83167 0.0
Co649 Co 0.29563 0.60592 0.22645 0.0
Co650 Co 0.23867 0.58085 0.19125 0.0
O651 O 0.28766 0.60027 0.20193 0.0
C652 C 0.35874 0.55118 0.21494 0.0
O653 O 0.33135 0.53388 0.20552 0.0
C654 C 0.25094 0.66071 0.17618 0.0
O655 O 0.25652 0.67431 0.19168 0.0
O656 O 0.20509 0.6167 0.20568 0.0
O657 O 0.24163 0.63027 0.22903 0.0
H658 H 0.09775 0.52847 0.19042 0.0
H659 H 0.35649 0.63767 0.20251 0.0
O660 O 0.34983 0.58098 0.22431 0.0
H661 H 0.30934 0.75455 0.23518 0.0
H662 H 0.37641 0.63784 0.2788 0.0
H663 H 0.24543 0.59289 0.25711 0.0
H664 H 0.28242 0.68721 0.24108 0.0
H665 H 0.36479 0.63082 0.24792 0.0
O666 O 0.2431 0.62389 0.17372 0.0
H667 H 0.16004 0.55238 0.20386 0.0
H668 H 0.21289 0.56954 0.15521 0.0
H669 H 0.25562 0.5998 0.28808 0.0
H670 H 0.38442 0.70444 0.19628 0.0
H671 H 0.32152 0.62243 0.2991 0.0
H672 H 0.36075 0.76347 0.21265 0.0
O673 O 0.27246 0.55212 0.23101 0.0
H674 H 0.35475 0.54816 0.15302 0.0
H675 H 0.23511 0.49441 0.18179 0.0
H676 H 0.27725 0.44931 0.16458 0.0
H677 H 0.33756 0.47618 0.15003 0.0
H678 H 0.31199 0.59208 0.17051 0.0
H679 H 0.15107 0.54613 0.14124 0.0
H680 H 0.09301 0.52523 0.15888 0.0
O681 O 0.23356 0.53738 0.20851 0.0
C682 C 0.20957 0.63282 0.22029 0.0
C683 C 0.1229 0.53736 0.18259 0.0
C684 C 0.1528 0.54733 0.15499 0.0
N685 N 0.19016 0.56201 0.18033 0.0
C686 C 0.15827 0.55081 0.19013 0.0
C687 C 0.18769 0.56064 0.16297 0.0
C688 C 0.12024 0.5356 0.1649 0.0
C689 C 0.34633 0.66316 0.2098 0.0
N690 N 0.31807 0.65852 0.22221 0.0
C691 C 0.36213 0.70092 0.20617 0.0
C692 C 0.34879 0.73403 0.21534 0.0
C693 C 0.31994 0.72905 0.22798 0.0
C694 C 0.30476 0.69086 0.23124 0.0
C695 C 0.34754 0.62804 0.27415 0.0
C696 C 0.27409 0.60301 0.26181 0.0
C697 C 0.34081 0.62394 0.25669 0.0
N698 N 0.30436 0.61179 0.25073 0.0
C699 C 0.27973 0.60675 0.27936 0.0
C700 C 0.31672 0.6194 0.28553 0.0
C701 C 0.24803 0.52939 0.22315 0.0
C702 C 0.32851 0.53611 0.15927 0.0
C703 C 0.26141 0.50625 0.17558 0.0
C704 C 0.28508 0.48061 0.1658 0.0
C705 C 0.31889 0.49572 0.15762 0.0
N706 N 0.27107 0.54582 0.17717 0.0
C707 C 0.3041 0.56087 0.16914 0.0
Co708 Co 0.60245 0.79229 0.47237 0.0
Co709 Co 0.57138 0.73306 0.43879 0.0
O710 O 0.5919 0.78274 0.44838 0.0
C711 C 0.54486 0.85488 0.46281 0.0
O712 O 0.52271 0.82622 0.45634 0.0
C713 C 0.64886 0.74602 0.42251 0.0
O714 O 0.66207 0.75249 0.43799 0.0
O715 O 0.60908 0.70021 0.4525 0.0
O716 O 0.62706 0.73804 0.47498 0.0
H717 H 0.51897 0.59203 0.44015 0.0
H718 H 0.63024 0.85056 0.44642 0.0
O719 O 0.578 0.84666 0.47001 0.0
H720 H 0.75228 0.80551 0.47602 0.0
H721 H 0.64431 0.877 0.52227 0.0
H722 H 0.59491 0.74464 0.50407 0.0
H723 H 0.68599 0.78018 0.48468 0.0
H724 H 0.63143 0.86301 0.49191 0.0
O725 O 0.61219 0.73712 0.42013 0.0
H726 H 0.54462 0.65475 0.45259 0.0
H727 H 0.55524 0.70601 0.40334 0.0
H728 H 0.60771 0.75723 0.53454 0.0
H729 H 0.69587 0.87693 0.43745 0.0
H730 H 0.6326 0.82382 0.5438 0.0
H731 H 0.7575 0.85423 0.45223 0.0
O732 O 0.54933 0.76978 0.4789 0.0
H733 H 0.5313 0.84693 0.40062 0.0
H734 H 0.48357 0.72919 0.4326 0.0
H735 H 0.43521 0.77025 0.41654 0.0
H736 H 0.45903 0.82958 0.40039 0.0
H737 H 0.57857 0.80521 0.41695 0.0
H738 H 0.52998 0.64375 0.39031 0.0
H739 H 0.5115 0.58625 0.40877 0.0
O740 O 0.53139 0.7282 0.45755 0.0
C741 C 0.62752 0.70538 0.46655 0.0
C742 C 0.52681 0.6169 0.43197 0.0
C743 C 0.53305 0.64591 0.404 0.0
N744 N 0.55118 0.68406 0.42872 0.0
C745 C 0.54125 0.65253 0.43895 0.0
C746 C 0.54743 0.68105 0.41144 0.0
C747 C 0.52267 0.61367 0.41437 0.0
C748 C 0.65688 0.84087 0.45304 0.0
N749 N 0.65428 0.81393 0.46609 0.0
C750 C 0.69398 0.85578 0.44785 0.0
C751 C 0.72855 0.84298 0.45614 0.0
C752 C 0.72564 0.81562 0.46948 0.0
C753 C 0.68804 0.80131 0.4743 0.0
C754 C 0.63354 0.84784 0.51839 0.0
C755 C 0.60597 0.77361 0.508 0.0
C756 C 0.62611 0.83978 0.50123 0.0
N757 N 0.61275 0.80294 0.49623 0.0
C758 C 0.61305 0.7806 0.52527 0.0
C759 C 0.62698 0.81798 0.53046 0.0
C760 C 0.52599 0.744 0.47217 0.0
C761 C 0.52058 0.82108 0.40756 0.0
C762 C 0.49414 0.75498 0.42561 0.0
C763 C 0.46663 0.77808 0.41652 0.0
C764 C 0.48002 0.81136 0.40746 0.0
N765 N 0.53387 0.76465 0.42561 0.0
C766 C 0.54723 0.79725 0.41677 0.0
Co767 Co 0.7964 0.39677 0.52502 0.0
Co768 Co 0.73364 0.41909 0.55851 0.0
O769 O 0.78531 0.40321 0.5492 0.0
C770 C 0.85751 0.45465 0.5361 0.0
O771 O 0.82829 0.47602 0.54258 0.0
C772 C 0.75118 0.34268 0.57525 0.0
O773 O 0.75868 0.32878 0.55995 0.0
O774 O 0.70527 0.37824 0.54463 0.0
O775 O 0.74285 0.37182 0.52105 0.0
H776 H 0.58798 0.45593 0.55607 0.0
H777 H 0.85423 0.3658 0.55045 0.0
O778 O 0.85014 0.42169 0.52858 0.0
H779 H 0.81219 0.24807 0.51708 0.0
H780 H 0.88437 0.36428 0.47487 0.0
H781 H 0.75056 0.40932 0.49314 0.0
H782 H 0.78567 0.31511 0.51035 0.0
H783 H 0.86851 0.37182 0.50538 0.0
O784 O 0.74065 0.37903 0.57722 0.0
H785 H 0.65346 0.43658 0.54413 0.0
H786 H 0.70387 0.43354 0.59373 0.0
H787 H 0.76502 0.40186 0.4625 0.0
H788 H 0.88175 0.29935 0.55752 0.0
H789 H 0.83235 0.37917 0.45319 0.0
H790 H 0.86061 0.23989 0.54081 0.0
O791 O 0.77336 0.45034 0.51991 0.0
H792 H 0.84177 0.46942 0.59745 0.0
H793 H 0.7212 0.5062 0.56483 0.0
H794 H 0.75693 0.55803 0.58124 0.0
H795 H 0.81764 0.53973 0.59772 0.0
H796 H 0.80532 0.41861 0.58076 0.0
H797 H 0.63885 0.45253 0.60624 0.0
H798 H 0.58039 0.46404 0.58734 0.0
O799 O 0.72563 0.45894 0.53985 0.0
C800 C 0.71117 0.36485 0.52964 0.0
C801 C 0.61327 0.45119 0.56443 0.0
C802 C 0.64182 0.44922 0.59259 0.0
N803 N 0.68253 0.43442 0.5682 0.0
C804 C 0.65045 0.44038 0.55773 0.0
C805 C 0.67853 0.43842 0.58544 0.0
C806 C 0.60902 0.45568 0.58198 0.0
C807 C 0.84521 0.34013 0.543 0.0
N808 N 0.81854 0.34436 0.52995 0.0
C809 C 0.86075 0.30255 0.54711 0.0
C810 C 0.84884 0.26919 0.53775 0.0
C811 C 0.82165 0.27376 0.52444 0.0
C812 C 0.80667 0.31178 0.52071 0.0
C813 C 0.8549 0.37409 0.47876 0.0
C814 C 0.77984 0.39919 0.48918 0.0
C815 C 0.84577 0.37849 0.49602 0.0
N816 N 0.80853 0.39064 0.50102 0.0
C817 C 0.7879 0.39514 0.47182 0.0
C818 C 0.82569 0.38245 0.46661 0.0
C819 C 0.74375 0.46927 0.52623 0.0
C820 C 0.81528 0.47774 0.59036 0.0
C821 C 0.74765 0.49803 0.57194 0.0
C822 C 0.76771 0.52749 0.58123 0.0
C823 C 0.80176 0.51719 0.59049 0.0
N824 N 0.76105 0.45938 0.57192 0.0
C825 C 0.79443 0.44907 0.58094 0.0
Co826 Co 0.39518 0.20201 0.47304 0.0
Co827 Co 0.42258 0.2622 0.43919 0.0
O828 O 0.40265 0.21228 0.44883 0.0
C829 C 0.45083 0.13897 0.46193 0.0
O830 O 0.47238 0.16741 0.45494 0.0
C831 C 0.34317 0.25107 0.42416 0.0
O832 O 0.33088 0.24373 0.43971 0.0
O833 O 0.38657 0.29481 0.45396 0.0
O834 O 0.37173 0.25616 0.47653 0.0
H835 H 0.47638 0.40257 0.44108 0.0
H836 H 0.36354 0.14451 0.4476 0.0
O837 O 0.41871 0.14748 0.46987 0.0
H838 H 0.24584 0.19073 0.47996 0.0
H839 H 0.3586 0.11618 0.52336 0.0
H840 H 0.40755 0.24844 0.5048 0.0
H841 H 0.31337 0.21526 0.48714 0.0
H842 H 0.36766 0.13107 0.49283 0.0
O843 O 0.37973 0.25973 0.4214 0.0
H844 H 0.45153 0.33924 0.45331 0.0
H845 H 0.43493 0.29141 0.40372 0.0
H846 H 0.39864 0.23494 0.53545 0.0
H847 H 0.29658 0.119 0.44008 0.0
H848 H 0.37398 0.16839 0.5449 0.0
H849 H 0.23713 0.14227 0.45627 0.0
O850 O 0.44915 0.22388 0.4785 0.0
H851 H 0.4561 0.14937 0.39936 0.0
H852 H 0.50928 0.26613 0.43037 0.0
H853 H 0.5548 0.22536 0.41276 0.0
H854 H 0.52823 0.16652 0.39708 0.0
H855 H 0.41173 0.19077 0.41724 0.0
H856 H 0.45929 0.35434 0.39093 0.0
H857 H 0.48038 0.41039 0.40967 0.0
O858 O 0.46536 0.26513 0.45688 0.0
C859 C 0.36988 0.28912 0.46838 0.0
C860 C 0.4674 0.37831 0.43278 0.0
C861 C 0.45775 0.35126 0.40464 0.0
N862 N 0.44212 0.31159 0.42924 0.0
C863 C 0.45343 0.34235 0.43963 0.0
C864 C 0.44391 0.31574 0.41194 0.0
C865 C 0.4696 0.3827 0.41516 0.0
C866 C 0.33787 0.15442 0.45483 0.0
N867 N 0.34239 0.18115 0.46786 0.0
C868 C 0.30001 0.14002 0.45046 0.0
C869 C 0.26666 0.15313 0.45954 0.0
C870 C 0.27152 0.18034 0.47283 0.0
C871 C 0.30983 0.19416 0.47682 0.0
C872 C 0.36928 0.14531 0.5194 0.0
C873 C 0.39658 0.2195 0.50881 0.0
C874 C 0.37455 0.15389 0.50214 0.0
N875 N 0.38781 0.19069 0.49705 0.0
C876 C 0.39171 0.21199 0.52618 0.0
C877 C 0.37791 0.17463 0.53148 0.0
C878 C 0.47248 0.24898 0.4713 0.0
C879 C 0.46803 0.17497 0.40611 0.0
C880 C 0.49755 0.24048 0.42365 0.0
C881 C 0.52344 0.21757 0.41366 0.0
C882 C 0.5085 0.18458 0.40485 0.0
N883 N 0.45789 0.23089 0.42481 0.0
C884 C 0.44302 0.19861 0.41621 0.0
Co885 Co 0.205 0.60534 0.52554 0.0
Co886 Co 0.25958 0.57212 0.56014 0.0
O887 O 0.21197 0.59504 0.54975 0.0
C888 C 0.14187 0.54788 0.53442 0.0
O889 O 0.17008 0.52686 0.54182 0.0
C890 C 0.2509 0.65145 0.57583 0.0
O891 O 0.24543 0.66526 0.56037 0.0
O892 O 0.2955 0.60674 0.54621 0.0
O893 O 0.25929 0.62998 0.5241 0.0
H894 H 0.39671 0.51044 0.56053 0.0
H895 H 0.14385 0.63292 0.55032 0.0
O896 O 0.15044 0.58053 0.52686 0.0
H897 H 0.19172 0.75512 0.52157 0.0
H898 H 0.12558 0.64671 0.47403 0.0
H899 H 0.25617 0.59842 0.49481 0.0
H900 H 0.2184 0.68892 0.51355 0.0
H901 H 0.13635 0.63389 0.50463 0.0
O902 O 0.25743 0.61431 0.57822 0.0
H903 H 0.33627 0.53912 0.54728 0.0
H904 H 0.28425 0.55709 0.59602 0.0
H905 H 0.24681 0.61111 0.46412 0.0
H906 H 0.1161 0.69846 0.55863 0.0
H907 H 0.18113 0.63545 0.45356 0.0
H908 H 0.14016 0.76016 0.54426 0.0
O909 O 0.22851 0.55234 0.51925 0.0
H910 H 0.14092 0.54295 0.59745 0.0
H911 H 0.25786 0.48494 0.56819 0.0
H912 H 0.21277 0.44087 0.58453 0.0
H913 H 0.15381 0.46987 0.59932 0.0
H914 H 0.18661 0.58586 0.58085 0.0
H915 H 0.34425 0.52887 0.60982 0.0
H916 H 0.40096 0.50518 0.59203 0.0
O917 O 0.26231 0.53018 0.54218 0.0
C918 C 0.29171 0.62733 0.53261 0.0
C919 C 0.37216 0.52058 0.56842 0.0
C920 C 0.34274 0.53098 0.59609 0.0
N921 N 0.3067 0.54956 0.57086 0.0
C922 C 0.33783 0.53676 0.56099 0.0
C923 C 0.3089 0.54702 0.58821 0.0
C924 C 0.37454 0.51767 0.58609 0.0
C925 C 0.15419 0.65959 0.54389 0.0
N926 N 0.18258 0.65708 0.53141 0.0
C927 C 0.13848 0.69664 0.5487 0.0
C928 C 0.15203 0.73125 0.54064 0.0
C929 C 0.18098 0.72844 0.52792 0.0
C930 C 0.19604 0.69089 0.52346 0.0
C931 C 0.15436 0.63617 0.47848 0.0
C932 C 0.22758 0.60923 0.49032 0.0
C933 C 0.1606 0.62878 0.49578 0.0
N934 N 0.19694 0.6157 0.5015 0.0
C935 C 0.22242 0.61625 0.47293 0.0
C936 C 0.18555 0.62986 0.46701 0.0
C937 C 0.25019 0.52644 0.52686 0.0
C938 C 0.16655 0.52997 0.5911 0.0
C939 C 0.23222 0.49775 0.57455 0.0
C940 C 0.20684 0.47267 0.58382 0.0
C941 C 0.17378 0.48896 0.59212 0.0
N942 N 0.22495 0.53794 0.57361 0.0
C943 C 0.19261 0.55414 0.58173 0.0
H944 H 0.15274 0.35843 0.29494 0.0
H945 H 0.21381 0.46371 0.20836 0.0
H946 H 0.16036 0.29512 0.24707 0.0
H947 H 0.25197 0.50998 0.25706 0.0
H948 H 0.18941 0.40357 0.2225 0.0
H949 H 0.18495 0.41629 0.28152 0.0
C950 C 0.16133 0.35657 0.28166 0.0
C951 C 0.15357 0.32189 0.2721 0.0
C952 C 0.20341 0.42675 0.23008 0.0
C953 C 0.18997 0.388 0.25672 0.0
C954 C 0.21725 0.46119 0.22202 0.0
C955 C 0.23501 0.49198 0.23153 0.0
C956 C 0.20662 0.42327 0.24783 0.0
C957 C 0.23863 0.48692 0.24922 0.0
C958 C 0.1798 0.38954 0.27405 0.0
C959 C 0.16556 0.32117 0.25496 0.0
N960 N 0.22417 0.45335 0.25684 0.0
N961 N 0.18276 0.35386 0.24779 0.0
H962 H 0.50943 0.74125 0.74231 0.0
H963 H 0.294 0.84141 0.75336 0.0
H964 H 0.46422 0.78534 0.79031 0.0
H965 H 0.35591 0.83582 0.70511 0.0
H966 H 0.35129 0.80931 0.76694 0.0
H967 H 0.44834 0.76485 0.72841 0.0
C968 C 0.48659 0.7556 0.74996 0.0
C969 C 0.49207 0.76146 0.76752 0.0
C970 C 0.35219 0.81497 0.75337 0.0
C971 C 0.42214 0.78823 0.75169 0.0
C972 C 0.31944 0.83315 0.74558 0.0
C973 C 0.32023 0.84168 0.72807 0.0
C974 C 0.38583 0.80484 0.74359 0.0
C975 C 0.35408 0.83013 0.71866 0.0
C976 C 0.45182 0.76915 0.742 0.0
C977 C 0.46145 0.78035 0.77676 0.0
N978 N 0.38558 0.81236 0.72655 0.0
N979 N 0.42779 0.79302 0.76873 0.0
H980 H 0.78155 0.53372 0.20717 0.0
H981 H 0.84055 0.63938 0.29387 0.0
H982 H 0.74315 0.48753 0.25587 0.0
H983 H 0.83502 0.70245 0.24589 0.0
H984 H 0.80836 0.58173 0.28037 0.0
H985 H 0.80523 0.59421 0.22126 0.0
C986 C 0.7779 0.53634 0.22082 0.0
C987 C 0.76035 0.50544 0.23035 0.0
C988 C 0.81394 0.60837 0.27288 0.0
C989 C 0.78787 0.57454 0.24658 0.0
C990 C 0.83241 0.64123 0.28054 0.0
C991 C 0.84078 0.67576 0.27098 0.0
C992 C 0.80435 0.60985 0.2555 0.0
C993 C 0.82933 0.67649 0.25378 0.0
C994 C 0.79132 0.57098 0.22885 0.0
C995 C 0.75638 0.51064 0.24802 0.0
N996 N 0.8121 0.64387 0.24655 0.0
N997 N 0.77044 0.54439 0.25561 0.0
H998 H 0.5376 0.22488 0.79266 0.0
H999 H 0.63731 0.15398 0.70585 0.0
H1000 H 0.48541 0.2504 0.74354 0.0
H1001 H 0.70263 0.16327 0.75316 0.0
H1002 H 0.58033 0.1871 0.71939 0.0
H1003 H 0.59751 0.20001 0.77842 0.0
C1004 C 0.5388 0.22551 0.77888 0.0
C1005 C 0.50633 0.23968 0.76929 0.0
C1006 C 0.60729 0.18213 0.72674 0.0
C1007 C 0.57477 0.2108 0.7529 0.0
C1008 C 0.6398 0.16311 0.71904 0.0
C1009 C 0.67482 0.15558 0.72839 0.0
C1010 C 0.6096 0.19324 0.74395 0.0
C1011 C 0.67629 0.16829 0.74543 0.0
C1012 C 0.57309 0.21138 0.77076 0.0
C1013 C 0.50973 0.23985 0.75146 0.0
N1014 N 0.64405 0.18615 0.75269 0.0
N1015 N 0.54319 0.22524 0.74383 0.0
H1016 H 0.2891 0.02978 0.01059 0.0
H1017 H 0.10812 0.12681 0.9625 0.0
H1018 H 0.16785 0.99479 0.02217 0.0
H1019 H 0.1944 0.20554 0.98598 0.0
H1020 H 0.13876 0.07012 0.97725 0.0
H1021 H 0.26298 0.08807 0.99483 0.0
C1022 C 0.25707 0.03443 0.00978 0.0
C1023 C 0.23045 0.00782 0.0177 0.0
C1024 C 0.15109 0.09983 0.97899 0.0
C1025 C 0.20088 0.07287 -0.00051 0.0
C1026 C 0.13386 0.13212 0.97054 0.0
C1027 C 0.14862 0.17096 0.97312 0.0
C1028 C 0.18395 0.10628 0.9897 0.0
C1029 C 0.18199 0.17608 0.98377 0.0
C1030 C 0.24234 0.06752 0.00089 0.0
C1031 C 0.18926 0.01492 0.01635 0.0
N1032 N 0.19879 0.14395 0.99165 0.0
N1033 N 0.17565 0.04655 0.00721 0.0
H1034 H 0.14017 0.84102 0.0452 0.0
H1035 H 0.03757 0.78813 0.95709 0.0
H1036 H 0.20293 0.84406 0.9971 0.0
H1037 H 0.99116 0.7436 0.00479 0.0
H1038 H 0.09685 0.81209 0.97187 0.0
H1039 H 0.0838 0.80807 0.03105 0.0
C1040 C 0.14227 0.83456 0.03172 0.0
C1041 C 0.17632 0.84563 0.02232 0.0
C1042 C 0.07388 0.79679 0.9791 0.0
C1043 C 0.11183 0.80833 0.00609 0.0
C1044 C 0.03988 0.78317 0.97067 0.0
C1045 C 0.00925 0.7638 0.9797 0.0
C1046 C 0.07712 0.79169 0.99677 0.0
C1047 C 0.01409 0.75826 0.99732 0.0
C1048 C 0.11012 0.81567 0.02368 0.0
C1049 C 0.17734 0.83631 0.00489 0.0
N1050 N 0.04725 0.77253 0.00533 0.0
N1051 N 0.14543 0.8186 0.99733 0.0
H1052 H 0.83629 0.79009 -0.00013 0.0
H1053 H 0.75043 0.01253 0.99211 0.0
H1054 H 0.84785 0.86094 0.95408 0.0
H1055 H 0.77707 0.95452 0.03993 0.0
H1056 H 0.77494 0.95315 0.97706 0.0
H1057 H 0.80302 0.84622 0.01368 0.0
C1058 C 0.83163 0.81731 0.99264 0.0
C1059 C 0.84529 0.82083 0.97579 0.0
C1060 C 0.77516 0.95347 0.99085 0.0
C1061 C 0.80699 0.88527 0.99163 0.0
C1062 C 0.76104 0.98722 -0.00054 0.0
C1063 C 0.76187 0.9886 0.01733 0.0
C1064 C 0.78969 0.92073 0.00019 0.0
C1065 C 0.7761 0.95496 0.02616 0.0
C1066 C 0.8127 0.84941 0.00059 0.0
C1067 C 0.83812 0.85693 0.96712 0.0
N1068 N 0.78942 0.92244 0.01751 0.0
N1069 N 0.81953 0.88782 0.97516 0.0
H1070 H 0.79401 0.19655 0.01431 0.0
H1071 H 0.01229 0.16724 0.98126 0.0
H1072 H 0.87027 0.10512 0.0356 0.0
H1073 H 0.96695 0.28687 0.98825 0.0
H1074 H 0.95628 0.14113 0.99802 0.0
H1075 H 0.85314 0.22849 0.00168 0.0
C1076 C 0.8232 0.18337 0.01641 0.0
C1077 C 0.82733 0.14806 0.02593 0.0
C1078 C 0.95874 0.17311 0.99598 0.0
C1079 C 0.89448 0.18392 0.01135 0.0
C1080 C 0.99038 0.18792 0.98635 0.0
C1081 C 0.9938 0.2291 0.98339 0.0
C1082 C 0.9298 0.1996 0.00229 0.0
C1083 C 0.96509 0.25489 0.99035 0.0
C1084 C 0.85681 0.20171 0.00929 0.0
C1085 C 0.86581 0.13235 0.02837 0.0
N1086 N 0.93371 0.23963 -0.00069 0.0
N1087 N 0.89789 0.15002 0.02087 0.0
H1088 H 0.66323 0.79251 0.74634 0.0
H1089 H 0.75356 0.01202 0.75786 0.0
H1090 H 0.65554 0.85722 0.79386 0.0
H1091 H 0.71493 0.9639 0.70955 0.0
H1092 H 0.72998 0.95073 0.77184 0.0
H1093 H 0.69521 0.85057 0.73335 0.0
C1094 C 0.66851 0.81876 0.75411 0.0
C1095 C 0.65626 0.82006 0.7712 0.0
C1096 C 0.72693 0.95367 0.75817 0.0
C1097 C 0.69311 0.88658 0.75635 0.0
C1098 C 0.74048 0.98849 0.75017 0.0
C1099 C 0.73608 0.99318 0.7325 0.0
C1100 C 0.70951 0.92315 0.74838 0.0
C1101 C 0.71877 0.96176 0.72319 0.0
C1102 C 0.68667 0.85194 0.74664 0.0
C1103 C 0.66414 0.85498 0.78061 0.0
N1104 N 0.70621 0.92809 0.73124 0.0
N1105 N 0.68204 0.88692 0.77304 0.0
H1106 H 0.01161 0.24329 0.24161 0.0
H1107 H 0.79302 0.33588 0.25234 0.0
H1108 H 0.962 0.28088 0.28981 0.0
H1109 H 0.85863 0.34292 0.205 0.0
H1110 H 0.85043 0.30348 0.26551 0.0
H1111 H 0.95123 0.26808 0.22735 0.0
C1112 C 0.98793 0.25637 0.24922 0.0
C1113 C 0.99193 0.26012 0.26695 0.0
C1114 C 0.85219 0.31201 0.25223 0.0
C1115 C 0.92299 0.28813 0.25074 0.0
C1116 C 0.81937 0.33044 0.24465 0.0
C1117 C 0.82106 0.34253 0.22754 0.0
C1118 C 0.8869 0.30516 0.24263 0.0
C1119 C 0.8561 0.33442 0.21826 0.0
C1120 C 0.95364 0.27064 0.24105 0.0
C1121 C 0.96037 0.2775 0.27614 0.0
N1122 N 0.88772 0.31624 0.22594 0.0
N1123 N 0.92724 0.29077 0.26793 0.0
H1124 H 0.20903 0.02496 0.74004 0.0
H1125 H 0.39463 0.13147 0.7825 0.0
H1126 H 0.32999 0.99105 0.72742 0.0
H1127 H 0.29769 0.20289 0.76267 0.0
H1128 H 0.3649 0.07212 0.76919 0.0
H1129 H 0.23535 0.08419 0.75506 0.0
C1130 C 0.24104 0.02995 0.74052 0.0
C1131 C 0.26749 0.00346 0.73245 0.0
C1132 C 0.3501 0.10082 0.7679 0.0
C1133 C 0.29739 0.06974 0.74979 0.0
C1134 C 0.36684 0.13452 0.77553 0.0
C1135 C 0.34861 0.17202 0.77357 0.0
C1136 C 0.31442 0.10455 0.75867 0.0
C1137 C 0.31276 0.17448 0.76432 0.0
C1138 C 0.25591 0.0636 0.74899 0.0
C1139 C 0.30868 0.01107 0.73335 0.0
N1140 N 0.29659 0.14103 0.75726 0.0
N1141 N 0.32245 0.04335 0.74203 0.0
H1142 H 0.98432 0.75325 0.24137 0.0
H1143 H 0.20278 0.66106 0.25284 0.0
H1144 H 0.03255 0.7149 0.2897 0.0
H1145 H 0.13847 0.65445 0.20519 0.0
H1146 H 0.14488 0.69298 0.26584 0.0
H1147 H 0.04506 0.72866 0.22732 0.0
C1148 C 0.00776 0.74002 0.24905 0.0
C1149 C 0.00328 0.73604 0.26676 0.0
C1150 C 0.14352 0.68466 0.25253 0.0
C1151 C 0.07266 0.70825 0.25078 0.0
C1152 C 0.17662 0.66651 0.24505 0.0
C1153 C 0.17545 0.65467 0.22789 0.0
C1154 C 0.10903 0.69148 0.2428 0.0
C1155 C 0.14062 0.66278 0.21848 0.0
C1156 C 0.04226 0.72587 0.24101 0.0
C1157 C 0.03456 0.71847 0.27604 0.0
N1158 N 0.10871 0.68068 0.22607 0.0
N1159 N 0.06792 0.70532 0.26795 0.0
H1160 H 0.66607 0.48919 0.52124 0.0
H1161 H 0.69478 0.70567 0.48656 0.0
H1162 H 0.78635 0.5284 0.51027 0.0
H1163 H 0.60813 0.62663 0.46355 0.0
H1164 H 0.72604 0.64745 0.5004 0.0
H1165 H 0.64012 0.54682 0.50543 0.0
C1166 C 0.68696 0.51014 0.51558 0.0
C1167 C 0.72832 0.50425 0.51699 0.0
C1168 C 0.7004 0.6431 0.49217 0.0
C1169 C 0.69894 0.57011 0.49926 0.0
C1170 C 0.6825 0.67613 0.48436 0.0
C1171 C 0.64882 0.67087 0.47392 0.0
C1172 C 0.68358 0.60503 0.48993 0.0
C1173 C 0.63411 0.63198 0.47144 0.0
C1174 C 0.67217 0.54271 0.50652 0.0
C1175 C 0.75422 0.532 0.50934 0.0
N1176 N 0.65118 0.60057 0.47963 0.0
N1177 N 0.73908 0.56422 0.50092 0.0
H1178 H 0.70657 0.34074 0.49638 0.0
H1179 H 0.49101 0.23949 0.50511 0.0
H1180 H 0.64185 0.33611 0.54398 0.0
H1181 H 0.53873 0.28523 0.45784 0.0
H1182 H 0.55138 0.26284 0.51975 0.0
H1183 H 0.65042 0.30779 0.48238 0.0
C1184 C 0.68075 0.33252 0.50395 0.0
C1185 C 0.67884 0.34163 0.52139 0.0
C1186 C 0.5486 0.26748 0.50615 0.0
C1187 C 0.61448 0.30374 0.50536 0.0
C1188 C 0.51428 0.25406 0.49777 0.0
C1189 C 0.50969 0.26057 0.48021 0.0
C1190 C 0.57873 0.28699 0.49686 0.0
C1191 C 0.5408 0.27974 0.47138 0.0
C1192 C 0.64865 0.31382 0.49591 0.0
C1193 C 0.64454 0.33 0.5305 0.0
N1194 N 0.57397 0.29224 0.4798 0.0
N1195 N 0.61363 0.31174 0.52236 0.0
H1196 H 0.25222 0.51448 0.49226 0.0
H1197 H 0.33746 0.29188 0.50034 0.0
H1198 H 0.27678 0.45571 0.5401 0.0
H1199 H 0.35139 0.36271 0.45467 0.0
H1200 H 0.30408 0.34816 0.51393 0.0
H1201 H 0.27771 0.45538 0.47722 0.0
C1202 C 0.26255 0.48906 0.4996 0.0
C1203 C 0.26253 0.49012 0.51748 0.0
C1204 C 0.31434 0.35135 0.50092 0.0
C1205 C 0.29146 0.42265 0.50039 0.0
C1206 C 0.33337 0.31917 0.4931 0.0
C1207 C 0.34763 0.32258 0.47634 0.0
C1208 C 0.30915 0.38725 0.49192 0.0
C1209 C 0.34116 0.35878 0.46764 0.0
C1210 C 0.27726 0.45549 0.49101 0.0
C1211 C 0.27645 0.45639 0.52633 0.0
N1212 N 0.32242 0.38978 0.47555 0.0
N1213 N 0.29031 0.42409 0.5177 0.0
H1214 H 0.46921 0.78861 0.48859 0.0
H1215 H 0.3695 0.60405 0.53542 0.0
H1216 H 0.50598 0.66716 0.47866 0.0
H1217 H 0.29489 0.69718 0.5144 0.0
H1218 H 0.42778 0.63495 0.52179 0.0
H1219 H 0.41169 0.7627 0.505 0.0
C1220 C 0.46517 0.75659 0.48996 0.0
C1221 C 0.49179 0.7298 0.4822 0.0
C1222 C 0.39864 0.64873 0.52035 0.0
C1223 C 0.42771 0.70045 0.50112 0.0
C1224 C 0.36549 0.63132 0.52816 0.0
C1225 C 0.32736 0.64798 0.5259 0.0
C1226 C 0.39371 0.68352 0.5106 0.0
C1227 C 0.32378 0.68325 0.51629 0.0
C1228 C 0.43255 0.74194 0.49922 0.0
C1229 C 0.48564 0.68863 0.48428 0.0
N1230 N 0.35667 0.70002 0.509 0.0
N1231 N 0.45438 0.67514 0.49368 0.0
H1232 H 0.26417 0.23038 0.42535 0.0
H1233 H 0.13574 0.25842 0.35735 0.0
H1234 H 0.35736 0.26581 0.39034 0.0
H1235 H 0.23883 0.23617 0.32555 0.0
H1236 H 0.1788 0.25849 0.38221 0.0
H1237 H 0.21731 0.22709 0.4017 0.0
C1238 C 0.27468 0.23792 0.4127 0.0
C1239 C 0.31462 0.24892 0.40986 0.0
C1240 C 0.19205 0.25271 0.36989 0.0
C1241 C 0.26078 0.24617 0.38268 0.0
C1242 C 0.16745 0.25311 0.3556 0.0
C1243 C 0.18367 0.24709 0.33931 0.0
C1244 C 0.23327 0.24603 0.36794 0.0
C1245 C 0.22504 0.24076 0.33787 0.0
C1246 C 0.24776 0.23637 0.39918 0.0
C1247 C 0.32672 0.25757 0.39313 0.0
N1248 N 0.24849 0.24058 0.35202 0.0
N1249 N 0.29986 0.256 0.38016 0.0
H1250 H 0.2528 0.6324 0.60971 0.0
H1251 H 0.25463 0.85984 0.64092 0.0
H1252 H 0.24471 0.7331 0.57539 0.0
H1253 H 0.23691 0.75957 0.6748 0.0
H1254 H 0.25402 0.81383 0.61676 0.0
H1255 H 0.25023 0.67855 0.63379 0.0
C1256 C 0.25051 0.66422 0.60723 0.0
C1257 C 0.24911 0.67895 0.59051 0.0
C1258 C 0.25011 0.80193 0.62947 0.0
C1259 C 0.2462 0.73188 0.61802 0.0
C1260 C 0.25052 0.82816 0.64328 0.0
C1261 C 0.24596 0.81349 0.65991 0.0
C1262 C 0.24543 0.7607 0.63233 0.0
C1263 C 0.2406 0.77218 0.6622 0.0
C1264 C 0.24891 0.69053 0.62099 0.0
C1265 C 0.24595 0.72044 0.58807 0.0
N1266 N 0.2407 0.7472 0.64856 0.0
N1267 N 0.24477 0.74547 0.60168 0.0
H1268 H 0.72689 0.76953 0.42326 0.0
H1269 H 0.85609 0.73827 0.35621 0.0
H1270 H 0.63434 0.73021 0.38873 0.0
H1271 H 0.75433 0.76081 0.32371 0.0
H1272 H 0.8121 0.73868 0.38079 0.0
H1273 H 0.77346 0.77293 0.39955 0.0
C1274 C 0.71644 0.76119 0.4107 0.0
C1275 C 0.67681 0.74893 0.40802 0.0
C1276 C 0.79937 0.74442 0.36836 0.0
C1277 C 0.73045 0.75177 0.38078 0.0
C1278 C 0.82448 0.74374 0.35425 0.0
C1279 C 0.80892 0.74975 0.33786 0.0
C1280 C 0.75827 0.75139 0.36615 0.0
C1281 C 0.76761 0.75626 0.33613 0.0
C1282 C 0.74323 0.7628 0.39715 0.0
C1283 C 0.66478 0.73939 0.39138 0.0
N1284 N 0.74362 0.75672 0.35013 0.0
N1285 N 0.69158 0.74096 0.37835 0.0
H1286 H 0.75566 0.24228 0.67694 0.0
H1287 H 0.76444 0.26191 0.5755 0.0
H1288 H 0.74714 0.14156 0.64267 0.0
H1289 H 0.74381 0.3624 0.60895 0.0
H1290 H 0.76594 0.2177 0.60025 0.0
H1291 H 0.75882 0.28714 0.65234 0.0
C1292 C 0.75451 0.22959 0.66425 0.0
C1293 C 0.75089 0.18814 0.66185 0.0
C1294 C 0.76112 0.24943 0.60217 0.0
C1295 C 0.75473 0.23921 0.63371 0.0
C1296 C 0.76035 0.27471 0.58805 0.0
C1297 C 0.75373 0.31588 0.59016 0.0
C1298 C 0.75552 0.26544 0.61853 0.0
C1299 C 0.74876 0.3308 0.60673 0.0
C1300 C 0.75625 0.25522 0.65024 0.0
C1301 C 0.74966 0.17334 0.64513 0.0
N1302 N 0.74974 0.30558 0.62029 0.0
N1303 N 0.75161 0.19886 0.6317 0.0
H1304 H 0.1233 0.23205 0.88756 0.0
H1305 H 0.25446 0.26064 0.8195 0.0
H1306 H 0.22517 0.26049 0.91914 0.0
H1307 H 0.34725 0.23777 0.8565 0.0
H1308 H 0.20524 0.26132 0.8424 0.0
H1309 H 0.16667 0.23302 0.86262 0.0
C1310 C 0.15474 0.2389 0.88922 0.0
C1311 C 0.17062 0.24627 0.90546 0.0
C1312 C 0.23618 0.25539 0.84552 0.0
C1313 C 0.22043 0.24835 0.87688 0.0
C1314 C 0.26443 0.25535 0.83243 0.0
C1315 C 0.305 0.24878 0.83607 0.0
C1316 C 0.24864 0.24866 0.86237 0.0
C1317 C 0.31626 0.24268 0.85308 0.0
C1318 C 0.17949 0.23984 0.87492 0.0
C1319 C 0.21162 0.25466 0.90687 0.0
N1320 N 0.28822 0.24286 0.86559 0.0
N1321 N 0.23511 0.25528 0.89277 0.0
H1322 H 0.25074 0.64051 0.14252 0.0
H1323 H 0.24596 0.86603 0.10924 0.0
H1324 H 0.25739 0.74261 0.17612 0.0
H1325 H 0.26319 0.76392 0.07634 0.0
H1326 H 0.24841 0.82157 0.13391 0.0
H1327 H 0.25344 0.6855 0.11814 0.0
C1328 C 0.25279 0.67243 0.14478 0.0
C1329 C 0.25363 0.68786 0.1614 0.0
C1330 C 0.25183 0.80893 0.1213 0.0
C1331 C 0.25667 0.73957 0.13347 0.0
C1332 C 0.25035 0.83426 0.1072 0.0
C1333 C 0.25415 0.8186 0.09069 0.0
C1334 C 0.25685 0.76762 0.11887 0.0
C1335 C 0.25999 0.77727 0.08882 0.0
C1336 C 0.25446 0.6981 0.13083 0.0
C1337 C 0.25657 0.72945 0.16353 0.0
N1338 N 0.26092 0.75318 0.10274 0.0
N1339 N 0.25776 0.75392 0.14971 0.0
H1340 H 0.84266 0.80106 0.89615 0.0
H1341 H 0.72035 0.69072 0.82931 0.0
H1342 H 0.78517 0.69459 0.91542 0.0
H1343 H 0.66362 0.79713 0.849 0.0
H1344 H 0.76564 0.69079 0.8541 0.0
H1345 H 0.7974 0.79972 0.87145 0.0
C1346 C 0.82066 0.77736 0.89511 0.0
C1347 C 0.81731 0.74797 0.90779 0.0
C1348 C 0.74323 0.71402 0.85284 0.0
C1349 C 0.76695 0.74585 0.87964 0.0
C1350 C 0.7177 0.71417 0.83877 0.0
C1351 C 0.68838 0.74396 0.83723 0.0
C1352 C 0.73992 0.74447 0.865 0.0
C1353 C 0.68579 0.77357 0.84984 0.0
C1354 C 0.79503 0.77671 0.88112 0.0
C1355 C 0.78831 0.71793 0.90594 0.0
N1356 N 0.71164 0.77339 0.86318 0.0
N1357 N 0.76433 0.71734 0.89196 0.0
H1358 H 0.74228 0.23211 0.07513 0.0
H1359 H 0.74071 0.25345 0.1766 0.0
H1360 H 0.75491 0.13158 0.10929 0.0
H1361 H 0.75191 0.35342 0.14205 0.0
H1362 H 0.74003 0.20802 0.15215 0.0
H1363 H 0.73993 0.27686 0.09966 0.0
C1364 C 0.74456 0.21943 0.08778 0.0
C1365 C 0.74901 0.17808 0.09016 0.0
C1366 C 0.74264 0.23991 0.14996 0.0
C1367 C 0.74617 0.22911 0.1183 0.0
C1368 C 0.74295 0.26584 0.1639 0.0
C1369 C 0.74657 0.30725 0.16137 0.0
C1370 C 0.74566 0.25558 0.1334 0.0
C1371 C 0.74929 0.32168 0.14462 0.0
C1372 C 0.74326 0.24501 0.10179 0.0
C1373 C 0.75166 0.16332 0.10687 0.0
N1374 N 0.74876 0.29588 0.13129 0.0
N1375 N 0.75018 0.18884 0.12031 0.0
H1376 H 0.98142 0.89643 0.31094 0.0
H1377 H 0.05478 0.08348 0.25863 0.0
H1378 H 0.94369 0.9136 0.25891 0.0
H1379 H 0.0139 0.09795 0.31039 0.0
H1380 H 0.02813 0.01499 0.25867 0.0
H1381 H 0.00746 0.96525 0.31123 0.0
C1382 C 0.9788 0.91467 0.29958 0.0
C1383 C 0.96042 0.89959 0.28488 0.0
C1384 C 0.0251 0.03329 0.26998 0.0
C1385 C 0.99063 0.97728 0.28506 0.0
C1386 C 0.04039 0.07211 0.27001 0.0
C1387 C 0.03629 0.09622 0.28451 0.0
C1388 C 0.00672 0.01828 0.2847 0.0
C1389 C 0.01732 0.08026 0.29893 0.0
C1390 C 0.99343 0.95378 0.2998 0.0
C1391 C 0.95751 0.92434 0.27051 0.0
N1392 N 0.00352 0.042 0.29874 0.0
N1393 N 0.97292 0.96194 0.27088 0.0
H1394 H 0.92626 0.09475 0.72064 0.0
H1395 H 0.0715 0.90751 0.71723 0.0
H1396 H 0.88464 0.97675 0.70691 0.0
H1397 H 0.11344 0.02755 0.70744 0.0
H1398 H 0.00257 0.93213 0.7166 0.0
H1399 H 0.99532 0.07053 0.71903 0.0
C1400 C 0.93167 0.06376 0.7173 0.0
C1401 C 0.89974 0.03764 0.71396 0.0
C1402 C 0.02689 0.95299 0.7145 0.0
C1403 C 0.97839 0.00983 0.71224 0.0
C1404 C 0.06618 0.93904 0.71492 0.0
C1405 C 0.09816 0.9656 0.71242 0.0
C1406 C 0.0196 0.99388 0.71188 0.0
C1407 C 0.0896 0.00609 0.70939 0.0
C1408 C 0.97102 0.05006 0.7163 0.0
C1409 C 0.90841 0.99787 0.70957 0.0
N1410 N 0.05108 0.01912 0.70938 0.0
N1411 N 0.94695 0.98505 0.709 0.0
H1412 H 0.96906 0.38221 0.95616 0.0
H1413 H 0.02962 0.61307 0.95401 0.0
H1414 H 0.08942 0.42297 0.96606 0.0
H1415 H 0.91037 0.57239 0.96619 0.0
H1416 H 0.05205 0.5432 0.95333 0.0
H1417 H 0.947 0.452 0.95475 0.0
C1418 C 0.99085 0.40583 0.95798 0.0
C1419 C 0.03106 0.39684 0.96136 0.0
C1420 C 0.02099 0.5497 0.95612 0.0
C1421 C 0.00612 0.47649 0.95958 0.0
C1422 C 0.00815 0.58946 0.95644 0.0
C1423 C 0.96816 0.59848 0.96027 0.0
C1424 C 0.99346 0.51886 0.95934 0.0
C1425 C 0.94156 0.56675 0.96333 0.0
C1426 C 0.97822 0.44558 0.95722 0.0
C1427 C 0.05806 0.42862 0.96359 0.0
N1428 N 0.95467 0.52832 0.96275 0.0
N1429 N 0.04512 0.46709 0.9626 0.0
H1430 H 0.39848 0.98907 0.06258 0.0
H1431 H 0.58663 0.0539 0.00879 0.0
H1432 H 0.4125 0.94934 0.01064 0.0
H1433 H 0.60109 0.01269 0.0605 0.0
H1434 H 0.51694 0.03047 0.00935 0.0
H1435 H 0.46814 0.01293 0.06225 0.0
C1436 C 0.41619 0.98559 0.05111 0.0
C1437 C 0.40004 0.96717 0.03663 0.0
C1438 C 0.53552 0.02666 0.02054 0.0
C1439 C 0.47861 0.99492 0.03609 0.0
C1440 C 0.57504 0.04006 0.02026 0.0
C1441 C 0.59946 0.0349 0.03459 0.0
C1442 C 0.52023 0.00917 0.03541 0.0
C1443 C 0.58318 0.01681 0.04915 0.0
C1444 C 0.45575 -0.00102 0.05097 0.0
C1445 C 0.42409 0.96317 0.02209 0.0
N1446 N 0.54431 0.0049 0.04926 0.0
N1447 N 0.46216 0.97734 0.02212 0.0
H1448 H 0.47724 0.39932 0.811 0.0
H1449 H 0.54972 0.5855 0.75811 0.0
H1450 H 0.44138 0.4138 0.75858 0.0
H1451 H 0.51039 0.59982 0.8101 0.0
H1452 H 0.52204 0.51745 0.75808 0.0
H1453 H 0.50162 0.46862 0.81108 0.0
C1454 C 0.47464 0.41709 0.79951 0.0
C1455 C 0.45738 0.40103 0.78474 0.0
C1456 C 0.51945 0.53565 0.76944 0.0
C1457 C 0.48564 0.47948 0.78471 0.0
C1458 C 0.53534 0.57422 0.76951 0.0
C1459 C 0.53217 0.59812 0.78413 0.0
C1460 C 0.50135 0.52064 0.78423 0.0
C1461 C 0.51316 0.5823 0.79856 0.0
C1462 C 0.4883 0.45652 0.79961 0.0
C1463 C 0.45441 0.42526 0.77022 0.0
N1464 N 0.49882 0.54424 0.79833 0.0
N1465 N 0.4689 0.46326 0.77049 0.0
H1466 H 0.59907 0.48182 0.18711 0.0
H1467 H 0.41327 0.55376 0.24067 0.0
H1468 H 0.58371 0.44437 0.23929 0.0
H1469 H 0.39779 0.51444 0.18875 0.0
H1470 H 0.48181 0.52742 0.2402 0.0
H1471 H 0.53017 0.50761 0.1872 0.0
C1472 C 0.58121 0.4792 0.19857 0.0
C1473 C 0.59682 0.46097 0.21321 0.0
C1474 C 0.46328 0.52464 0.22895 0.0
C1475 C 0.51905 0.49087 0.21347 0.0
C1476 C 0.42442 0.53975 0.22917 0.0
C1477 C 0.40002 0.53601 0.21475 0.0
C1478 C 0.47802 0.50678 0.21407 0.0
C1479 C 0.41571 0.51756 0.20016 0.0
C1480 C 0.54205 0.49368 0.19858 0.0
C1481 C 0.57257 0.45806 0.22773 0.0
N1482 N 0.45401 0.50391 0.20012 0.0
N1483 N 0.53491 0.4733 0.22757 0.0
H1484 H 0.40587 0.07179 0.46699 0.0
H1485 H 0.5901 0.92237 0.46656 0.0
H1486 H 0.5256 0.11055 0.45453 0.0
H1487 H 0.4694 0.88283 0.45652 0.0
H1488 H 0.56717 0.99185 0.46519 0.0
H1489 H 0.42869 0.00225 0.46615 0.0
C1490 C 0.43696 0.06565 0.46407 0.0
C1491 C 0.46397 0.09693 0.46088 0.0
C1492 C 0.5458 0.96793 0.46322 0.0
C1493 C 0.4902 0.01765 0.46007 0.0
C1494 C 0.55877 0.92832 0.46409 0.0
C1495 C 0.53153 0.89685 0.46171 0.0
C1496 C 0.50521 0.97606 0.46026 0.0
C1497 C 0.49136 0.90623 0.45842 0.0
C1498 C 0.44987 0.026 0.46352 0.0
C1499 C 0.50381 0.0873 0.45705 0.0
N1500 N 0.4793 0.94505 0.45794 0.0
N1501 N 0.51586 0.04846 0.45691 0.0
H1502 H 0.88379 0.53108 0.54186 0.0
H1503 H 0.11489 0.47303 0.54228 0.0
H1504 H 0.92586 0.41095 0.53243 0.0
H1505 H 0.07373 0.59125 0.52864 0.0
H1506 H 0.04533 0.45048 0.54362 0.0
H1507 H 0.95339 0.55444 0.54203 0.0
C1508 C 0.90766 0.50962 0.53994 0.0
C1509 C 0.89913 0.46908 0.53705 0.0
C1510 C 0.0516 0.48133 0.54032 0.0
C1511 C 0.97838 0.49546 0.53736 0.0
C1512 C 0.09121 0.49425 0.53959 0.0
C1513 C 0.10003 0.53399 0.53523 0.0
C1514 C 0.0206 0.50851 0.53696 0.0
C1515 C 0.0682 0.56025 0.5319 0.0
C1516 C 0.94724 0.52299 0.53995 0.0
C1517 C 0.93114 0.44253 0.53459 0.0
N1518 N 0.02979 0.54708 0.53291 0.0
N1519 N 0.96939 0.45616 0.53487 0.0
loop_
_geom_bond_atom_site_label_1
_geom_bond_atom_site_label_2
_geom_bond_distance
_geom_bond_site_symmetry_2
_ccdc_geom_bond_type
Co0 O2 2.143 . S
Co0 O8 2.074 . S
Co0 O11 2.093 . S
Co0 O24 2.097 . S
Co0 N41 2.151 . S
Co0 N49 2.214 . S
Co1 O2 2.160 . S
Co1 O7 2.058 . S
Co1 O17 2.057 . S
Co1 O32 2.037 . S
Co1 N36 2.145 . S
Co1 N57 2.257 . S
O2 Co0 2.143 . S
O2 Co1 2.160 . S
C3 O4 1.278 . S
C3 O11 1.224 . S
O4 C3 1.278 . S
C5 O6 1.245 . S
C5 O17 1.232 . S
O6 C5 1.245 . S
O7 Co1 2.058 . S
O7 C33 1.269 . S
O8 Co0 2.074 . S
O8 C33 1.257 . S
H9 C34 0.930 . S
H10 C40 0.930 . S
O11 Co0 2.093 . S
O11 C3 1.224 . S
H12 C44 0.929 . S
H13 C46 0.930 . S
H14 C47 0.930 . S
H15 C45 0.929 . S
H16 C48 0.928 . S
O17 Co1 2.057 . S
O17 C5 1.232 . S
H18 C37 0.929 . S
H19 C38 0.929 . S
H20 C50 0.931 . S
H21 C42 0.929 . S
H22 C51 0.930 . S
H23 C43 0.931 . S
O24 Co0 2.097 . S
O24 C52 1.214 . S
H25 C53 0.929 . S
H26 C54 0.926 1_655 S
H27 C55 0.930 . S
H28 C56 0.929 . S
H29 C58 0.930 . S
H30 C35 0.930 . S
H31 C39 0.930 . S
O32 Co1 2.037 . S
O32 C52 1.234 . S
C33 O7 1.269 . S
C33 O8 1.257 . S
C34 H9 0.930 . S
C34 C37 1.388 . S
C34 C39 1.418 . S
C35 H30 0.930 . S
C35 C38 1.404 . S
C35 C39 1.353 . S
N36 Co1 2.145 . S
N36 C37 1.397 . S
N36 C38 1.334 . S
C37 H18 0.929 . S
C37 C34 1.388 . S
C37 N36 1.397 . S
C38 H19 0.929 . S
C38 C35 1.404 . S
C38 N36 1.334 . S
C39 H31 0.930 . S
C39 C34 1.418 . S
C39 C35 1.353 . S
C40 H10 0.930 . S
C40 N41 1.330 . S
C40 C42 1.446 . S
N41 Co0 2.151 . S
N41 C40 1.330 . S
N41 C45 1.418 . S
C42 H21 0.929 . S
C42 C40 1.446 . S
C42 C43 1.332 . S
C43 H23 0.931 . S
C43 C42 1.332 . S
C43 C44 1.267 . S
C44 H12 0.929 . S
C44 C43 1.267 . S
C44 C45 1.251 . S
C45 H15 0.929 . S
C45 N41 1.418 . S
C45 C44 1.251 . S
C46 H13 0.930 . S
C46 C48 1.406 . S
C46 C51 1.261 . S
C47 H14 0.930 . S
C47 N49 1.325 . S
C47 C50 1.357 . S
C48 H16 0.928 . S
C48 C46 1.406 . S
C48 N49 1.261 . S
N49 Co0 2.214 . S
N49 C47 1.325 . S
N49 C48 1.261 . S
C50 H20 0.931 . S
C50 C47 1.357 . S
C50 C51 1.312 . S
C51 H22 0.930 . S
C51 C46 1.261 . S
C51 C50 1.312 . S
C52 O24 1.214 . S
C52 O32 1.234 . S
C53 H25 0.929 . S
C53 C56 1.391 1_455 S
C53 C58 1.391 . S
C54 H26 0.926 1_455 S
C54 C55 1.377 1_455 S
C54 N57 1.409 . S
C55 H27 0.930 . S
C55 C54 1.377 1_655 S
C55 C56 1.392 . S
C56 H28 0.929 . S
C56 C53 1.391 1_655 S
C56 C55 1.392 . S
N57 Co1 2.257 . S
N57 C54 1.409 . S
N57 C58 1.388 . S
C58 H29 0.930 . S
C58 C53 1.391 . S
C58 N57 1.388 . S
Co59 O61 2.143 . S
Co59 O67 2.074 . S
Co59 O70 2.093 . S
Co59 O83 2.097 . S
Co59 N100 2.151 . S
Co59 N108 2.214 . S
Co60 O61 2.160 . S
Co60 O66 2.058 . S
Co60 O76 2.057 . S
Co60 O91 2.037 . S
Co60 N95 2.145 . S
Co60 N116 2.257 . S
O61 Co59 2.143 . S
O61 Co60 2.160 . S
C62 O63 1.278 . S
C62 O70 1.224 . S
O63 C62 1.278 . S
C64 O65 1.245 . S
C64 O76 1.232 . S
O65 C64 1.245 . S
O66 Co60 2.058 . S
O66 C92 1.269 . S
O67 Co59 2.074 . S
O67 C92 1.257 . S
H68 C93 0.930 . S
H69 C99 0.930 . S
O70 Co59 2.093 . S
O70 C62 1.224 . S
H71 C103 0.929 . S
H72 C105 0.930 . S
H73 C106 0.930 . S
H74 C104 0.929 . S
H75 C107 0.928 . S
O76 Co60 2.057 . S
O76 C64 1.232 . S
H77 C96 0.929 . S
H78 C97 0.929 . S
H79 C109 0.931 . S
H80 C101 0.929 . S
H81 C110 0.930 . S
H82 C102 0.931 . S
O83 Co59 2.097 . S
O83 C111 1.214 . S
H84 C112 0.929 . S
H85 C113 0.926 1_545 S
H86 C114 0.930 . S
H87 C115 0.929 . S
H88 C117 0.930 . S
H89 C94 0.930 . S
H90 C98 0.930 . S
O91 Co60 2.037 . S
O91 C111 1.234 . S
C92 O66 1.269 . S
C92 O67 1.257 . S
C93 H68 0.930 . S
C93 C96 1.388 . S
C93 C98 1.418 . S
C94 H89 0.930 . S
C94 C97 1.404 . S
C94 C98 1.353 . S
N95 Co60 2.145 . S
N95 C96 1.397 . S
N95 C97 1.334 . S
C96 H77 0.929 . S
C96 C93 1.388 . S
C96 N95 1.397 . S
C97 H78 0.929 . S
C97 C94 1.404 . S
C97 N95 1.334 . S
C98 H90 0.930 . S
C98 C93 1.418 . S
C98 C94 1.353 . S
C99 H69 0.930 . S
C99 N100 1.330 . S
C99 C101 1.446 . S
N100 Co59 2.151 . S
N100 C99 1.330 . S
N100 C104 1.418 . S
C101 H80 0.929 . S
C101 C99 1.446 . S
C101 C102 1.332 . S
C102 H82 0.931 . S
C102 C101 1.332 . S
C102 C103 1.267 . S
C103 H71 0.929 . S
C103 C102 1.267 . S
C103 C104 1.251 . S
C104 H74 0.929 . S
C104 N100 1.418 . S
C104 C103 1.251 . S
C105 H72 0.930 . S
C105 C107 1.406 . S
C105 C110 1.261 . S
C106 H73 0.930 . S
C106 N108 1.325 . S
C106 C109 1.357 . S
C107 H75 0.928 . S
C107 C105 1.406 . S
C107 N108 1.261 . S
N108 Co59 2.214 . S
N108 C106 1.325 . S
N108 C107 1.261 . S
C109 H79 0.931 . S
C109 C106 1.357 . S
C109 C110 1.312 . S
C110 H81 0.930 . S
C110 C105 1.261 . S
C110 C109 1.312 . S
C111 O83 1.214 . S
C111 O91 1.234 . S
C112 H84 0.929 . S
C112 C115 1.391 1_565 S
C112 C117 1.391 . S
C113 H85 0.926 1_565 S
C113 C114 1.377 1_565 S
C113 N116 1.409 . S
C114 H86 0.930 . S
C114 C113 1.377 1_545 S
C114 C115 1.392 . S
C115 H87 0.929 . S
C115 C112 1.391 1_545 S
C115 C114 1.392 . S
N116 Co60 2.257 . S
N116 C113 1.409 . S
N116 C117 1.388 . S
C117 H88 0.930 . S
C117 C112 1.391 . S
C117 N116 1.388 . S
Co118 O120 2.143 . S
Co118 O126 2.074 . S
Co118 O129 2.093 . S
Co118 O142 2.097 . S
Co118 N159 2.151 . S
Co118 N167 2.214 . S
Co119 O120 2.160 . S
Co119 O125 2.058 . S
Co119 O135 2.057 . S
Co119 O150 2.037 . S
Co119 N154 2.145 . S
Co119 N175 2.257 . S
O120 Co118 2.143 . S
O120 Co119 2.160 . S
C121 O122 1.278 . S
C121 O129 1.224 . S
O122 C121 1.278 . S
C123 O124 1.245 . S
C123 O135 1.232 . S
O124 C123 1.245 . S
O125 Co119 2.058 . S
O125 C151 1.269 . S
O126 Co118 2.074 . S
O126 C151 1.257 . S
H127 C152 0.930 . S
H128 C158 0.930 . S
O129 Co118 2.093 . S
O129 C121 1.224 . S
H130 C162 0.929 . S
H131 C164 0.930 . S
H132 C165 0.930 . S
H133 C163 0.929 . S
H134 C166 0.928 . S
O135 Co119 2.057 . S
O135 C123 1.232 . S
H136 C155 0.929 . S
H137 C156 0.929 . S
H138 C168 0.931 . S
H139 C160 0.929 . S
H140 C169 0.930 . S
H141 C161 0.931 . S
O142 Co118 2.097 . S
O142 C170 1.214 . S
H143 C171 0.929 . S
H144 C172 0.926 1_455 S
H145 C173 0.930 . S
H146 C174 0.929 . S
H147 C176 0.930 . S
H148 C153 0.930 . S
H149 C157 0.930 . S
O150 Co119 2.037 . S
O150 C170 1.234 . S
C151 O125 1.269 . S
C151 O126 1.257 . S
C152 H127 0.930 . S
C152 C155 1.388 . S
C152 C157 1.418 . S
C153 H148 0.930 . S
C153 C156 1.404 . S
C153 C157 1.353 . S
N154 Co119 2.145 . S
N154 C155 1.397 . S
N154 C156 1.334 . S
C155 H136 0.929 . S
C155 C152 1.388 . S
C155 N154 1.397 . S
C156 H137 0.929 . S
C156 C153 1.404 . S
C156 N154 1.334 . S
C157 H149 0.930 . S
C157 C152 1.418 . S
C157 C153 1.353 . S
C158 H128 0.930 . S
C158 N159 1.330 . S
C158 C160 1.446 . S
N159 Co118 2.151 . S
N159 C158 1.330 . S
N159 C163 1.418 . S
C160 H139 0.929 . S
C160 C158 1.446 . S
C160 C161 1.332 . S
C161 H141 0.931 . S
C161 C160 1.332 . S
C161 C162 1.267 . S
C162 H130 0.929 . S
C162 C161 1.267 . S
C162 C163 1.251 . S
C163 H133 0.929 . S
C163 N159 1.418 . S
C163 C162 1.251 . S
C164 H131 0.930 . S
C164 C166 1.406 . S
C164 C169 1.261 . S
C165 H132 0.930 . S
C165 N167 1.325 . S
C165 C168 1.357 . S
C166 H134 0.928 . S
C166 C164 1.406 . S
C166 N167 1.261 . S
N167 Co118 2.214 . S
N167 C165 1.325 . S
N167 C166 1.261 . S
C168 H138 0.931 . S
C168 C165 1.357 . S
C168 C169 1.312 . S
C169 H140 0.930 . S
C169 C164 1.261 . S
C169 C168 1.312 . S
C170 O142 1.214 . S
C170 O150 1.234 . S
C171 H143 0.929 . S
C171 C174 1.391 1_655 S
C171 C176 1.391 . S
C172 H144 0.926 1_655 S
C172 C173 1.377 1_655 S
C172 N175 1.409 . S
C173 H145 0.930 . S
C173 C172 1.377 1_455 S
C173 C174 1.392 . S
C174 H146 0.929 . S
C174 C171 1.391 1_455 S
C174 C173 1.392 . S
N175 Co119 2.257 . S
N175 C172 1.409 . S
N175 C176 1.388 . S
C176 H147 0.930 . S
C176 C171 1.391 . S
C176 N175 1.388 . S
Co177 O179 2.143 . S
Co177 O185 2.074 . S
Co177 O188 2.093 . S
Co177 O201 2.097 . S
Co177 N218 2.151 . S
Co177 N226 2.214 . S
Co178 O179 2.160 . S
Co178 O184 2.058 . S
Co178 O194 2.057 . S
Co178 O209 2.037 . S
Co178 N213 2.145 . S
Co178 N234 2.257 . S
O179 Co177 2.143 . S
O179 Co178 2.160 . S
C180 O181 1.278 . S
C180 O188 1.224 . S
O181 C180 1.278 . S
C182 O183 1.245 . S
C182 O194 1.232 . S
O183 C182 1.245 . S
O184 Co178 2.058 . S
O184 C210 1.269 . S
O185 Co177 2.074 . S
O185 C210 1.257 . S
H186 C211 0.930 . S
H187 C217 0.930 . S
O188 Co177 2.093 . S
O188 C180 1.224 . S
H189 C221 0.929 . S
H190 C223 0.930 . S
H191 C224 0.930 . S
H192 C222 0.929 . S
H193 C225 0.928 . S
O194 Co178 2.057 . S
O194 C182 1.232 . S
H195 C214 0.929 . S
H196 C215 0.929 . S
H197 C227 0.931 . S
H198 C219 0.929 . S
H199 C228 0.930 . S
H200 C220 0.931 . S
O201 Co177 2.097 . S
O201 C229 1.214 . S
H202 C230 0.929 . S
H203 C231 0.926 1_565 S
H204 C232 0.930 . S
H205 C233 0.929 . S
H206 C235 0.930 . S
H207 C212 0.930 . S
H208 C216 0.930 . S
O209 Co178 2.037 . S
O209 C229 1.234 . S
C210 O184 1.269 . S
C210 O185 1.257 . S
C211 H186 0.930 . S
C211 C214 1.388 . S
C211 C216 1.418 . S
C212 H207 0.930 . S
C212 C215 1.404 . S
C212 C216 1.353 . S
N213 Co178 2.145 . S
N213 C214 1.397 . S
N213 C215 1.334 . S
C214 H195 0.929 . S
C214 C211 1.388 . S
C214 N213 1.397 . S
C215 H196 0.929 . S
C215 C212 1.404 . S
C215 N213 1.334 . S
C216 H208 0.930 . S
C216 C211 1.418 . S
C216 C212 1.353 . S
C217 H187 0.930 . S
C217 N218 1.330 . S
C217 C219 1.446 . S
N218 Co177 2.151 . S
N218 C217 1.330 . S
N218 C222 1.418 . S
C219 H198 0.929 . S
C219 C217 1.446 . S
C219 C220 1.332 . S
C220 H200 0.931 . S
C220 C219 1.332 . S
C220 C221 1.267 . S
C221 H189 0.929 . S
C221 C220 1.267 . S
C221 C222 1.251 . S
C222 H192 0.929 . S
C222 N218 1.418 . S
C222 C221 1.251 . S
C223 H190 0.930 . S
C223 C225 1.406 . S
C223 C228 1.261 . S
C224 H191 0.930 . S
C224 N226 1.325 . S
C224 C227 1.357 . S
C225 H193 0.928 . S
C225 C223 1.406 . S
C225 N226 1.261 . S
N226 Co177 2.214 . S
N226 C224 1.325 . S
N226 C225 1.261 . S
C227 H197 0.931 . S
C227 C224 1.357 . S
C227 C228 1.312 . S
C228 H199 0.930 . S
C228 C223 1.261 . S
C228 C227 1.312 . S
C229 O201 1.214 . S
C229 O209 1.234 . S
C230 H202 0.929 . S
C230 C233 1.391 1_545 S
C230 C235 1.391 . S
C231 H203 0.926 1_545 S
C231 C232 1.377 1_545 S
C231 N234 1.409 . S
C232 H204 0.930 . S
C232 C231 1.377 1_565 S
C232 C233 1.392 . S
C233 H205 0.929 . S
C233 C230 1.391 1_565 S
C233 C232 1.392 . S
N234 Co178 2.257 . S
N234 C231 1.409 . S
N234 C235 1.388 . S
C235 H206 0.930 . S
C235 C230 1.391 . S
C235 N234 1.388 . S
Co236 O238 2.143 . S
Co236 O244 2.074 . S
Co236 O247 2.093 . S
Co236 O260 2.097 . S
Co236 N277 2.151 . S
Co236 N285 2.214 1_556 S
Co237 O238 2.160 . S
Co237 O243 2.058 . S
Co237 O253 2.057 . S
Co237 O268 2.037 . S
Co237 N272 2.145 . S
Co237 N293 2.257 . S
O238 Co236 2.143 . S
O238 Co237 2.160 . S
C239 O240 1.278 . S
C239 O247 1.224 . S
O240 C239 1.278 . S
C241 O242 1.245 . S
C241 O253 1.232 . S
O242 C241 1.245 . S
O243 Co237 2.058 . S
O243 C269 1.269 . S
O244 Co236 2.074 . S
O244 C269 1.257 . S
H245 C270 0.930 . S
H246 C276 0.930 . S
O247 Co236 2.093 . S
O247 C239 1.224 . S
H248 C280 0.929 . S
H249 C282 0.930 . S
H250 C283 0.930 . S
H251 C281 0.929 1_554 S
H252 C284 0.928 . S
O253 Co237 2.057 . S
O253 C241 1.232 . S
H254 C273 0.929 . S
H255 C274 0.929 . S
H256 C286 0.931 . S
H257 C278 0.929 . S
H258 C287 0.930 . S
H259 C279 0.931 . S
O260 Co236 2.097 . S
O260 C288 1.214 . S
H261 C289 0.929 . S
H262 C290 0.926 1_655 S
H263 C291 0.930 . S
H264 C292 0.929 . S
H265 C294 0.930 . S
H266 C271 0.930 . S
H267 C275 0.930 . S
O268 Co237 2.037 . S
O268 C288 1.234 . S
C269 O243 1.269 . S
C269 O244 1.257 . S
C270 H245 0.930 . S
C270 C273 1.388 . S
C270 C275 1.418 . S
C271 H266 0.930 . S
C271 C274 1.404 . S
C271 C275 1.353 . S
N272 Co237 2.145 . S
N272 C273 1.397 . S
N272 C274 1.334 . S
C273 H254 0.929 . S
C273 C270 1.388 . S
C273 N272 1.397 . S
C274 H255 0.929 . S
C274 C271 1.404 . S
C274 N272 1.334 . S
C275 H267 0.930 . S
C275 C270 1.418 . S
C275 C271 1.353 . S
C276 H246 0.930 . S
C276 N277 1.330 . S
C276 C278 1.446 . S
N277 Co236 2.151 . S
N277 C276 1.330 . S
N277 C281 1.418 . S
C278 H257 0.929 . S
C278 C276 1.446 . S
C278 C279 1.332 . S
C279 H259 0.931 . S
C279 C278 1.332 . S
C279 C280 1.267 1_556 S
C280 H248 0.929 . S
C280 C279 1.267 1_554 S
C280 C281 1.251 1_554 S
C281 H251 0.929 1_556 S
C281 N277 1.418 . S
C281 C280 1.251 1_556 S
C282 H249 0.930 . S
C282 C284 1.406 . S
C282 C287 1.261 . S
C283 H250 0.930 . S
C283 N285 1.325 . S
C283 C286 1.357 . S
C284 H252 0.928 . S
C284 C282 1.406 . S
C284 N285 1.261 . S
N285 Co236 2.214 1_554 S
N285 C283 1.325 . S
N285 C284 1.261 . S
C286 H256 0.931 . S
C286 C283 1.357 . S
C286 C287 1.312 . S
C287 H258 0.930 . S
C287 C282 1.261 . S
C287 C286 1.312 . S
C288 O260 1.214 . S
C288 O268 1.234 . S
C289 H261 0.929 . S
C289 C292 1.391 1_455 S
C289 C294 1.391 . S
C290 H262 0.926 1_455 S
C290 C291 1.377 1_455 S
C290 N293 1.409 . S
C291 H263 0.930 . S
C291 C290 1.377 1_655 S
C291 C292 1.392 . S
C292 H264 0.929 . S
C292 C289 1.391 1_655 S
C292 C291 1.392 . S
N293 Co237 2.257 . S
N293 C290 1.409 . S
N293 C294 1.388 . S
C294 H265 0.930 . S
C294 C289 1.391 . S
C294 N293 1.388 . S
Co295 O297 2.143 . S
Co295 O303 2.074 . S
Co295 O306 2.093 . S
Co295 O319 2.097 . S
Co295 N336 2.151 . S
Co295 N344 2.214 1_554 S
Co296 O297 2.160 . S
Co296 O302 2.058 . S
Co296 O312 2.057 . S
Co296 O327 2.037 . S
Co296 N331 2.145 . S
Co296 N352 2.257 . S
O297 Co295 2.143 . S
O297 Co296 2.160 . S
C298 O299 1.278 . S
C298 O306 1.224 . S
O299 C298 1.278 . S
C300 O301 1.245 . S
C300 O312 1.232 . S
O301 C300 1.245 . S
O302 Co296 2.058 . S
O302 C328 1.269 . S
O303 Co295 2.074 . S
O303 C328 1.257 . S
H304 C329 0.930 . S
H305 C335 0.930 . S
O306 Co295 2.093 . S
O306 C298 1.224 . S
H307 C339 0.929 . S
H308 C341 0.930 . S
H309 C342 0.930 . S
H310 C340 0.929 1_556 S
H311 C343 0.928 . S
O312 Co296 2.057 . S
O312 C300 1.232 . S
H313 C332 0.929 . S
H314 C333 0.929 . S
H315 C345 0.931 . S
H316 C337 0.929 . S
H317 C346 0.930 . S
H318 C338 0.931 . S
O319 Co295 2.097 . S
O319 C347 1.214 . S
H320 C348 0.929 . S
H321 C349 0.926 1_545 S
H322 C350 0.930 . S
H323 C351 0.929 . S
H324 C353 0.930 . S
H325 C330 0.930 . S
H326 C334 0.930 . S
O327 Co296 2.037 . S
O327 C347 1.234 . S
C328 O302 1.269 . S
C328 O303 1.257 . S
C329 H304 0.930 . S
C329 C332 1.388 . S
C329 C334 1.418 . S
C330 H325 0.930 . S
C330 C333 1.404 . S
C330 C334 1.353 . S
N331 Co296 2.145 . S
N331 C332 1.397 . S
N331 C333 1.334 . S
C332 H313 0.929 . S
C332 C329 1.388 . S
C332 N331 1.397 . S
C333 H314 0.929 . S
C333 C330 1.404 . S
C333 N331 1.334 . S
C334 H326 0.930 . S
C334 C329 1.418 . S
C334 C330 1.353 . S
C335 H305 0.930 . S
C335 N336 1.330 . S
C335 C337 1.446 . S
N336 Co295 2.151 . S
N336 C335 1.330 . S
N336 C340 1.418 . S
C337 H316 0.929 . S
C337 C335 1.446 . S
C337 C338 1.332 . S
C338 H318 0.931 . S
C338 C337 1.332 . S
C338 C339 1.267 1_554 S
C339 H307 0.929 . S
C339 C338 1.267 1_556 S
C339 C340 1.251 1_556 S
C340 H310 0.929 1_554 S
C340 N336 1.418 . S
C340 C339 1.251 1_554 S
C341 H308 0.930 . S
C341 C343 1.406 . S
C341 C346 1.261 . S
C342 H309 0.930 . S
C342 N344 1.325 . S
C342 C345 1.357 . S
C343 H311 0.928 . S
C343 C341 1.406 . S
C343 N344 1.261 . S
N344 Co295 2.214 1_556 S
N344 C342 1.325 . S
N344 C343 1.261 . S
C345 H315 0.931 . S
C345 C342 1.357 . S
C345 C346 1.312 . S
C346 H317 0.930 . S
C346 C341 1.261 . S
C346 C345 1.312 . S
C347 O319 1.214 . S
C347 O327 1.234 . S
C348 H320 0.929 . S
C348 C351 1.391 1_565 S
C348 C353 1.391 . S
C349 H321 0.926 1_565 S
C349 C350 1.377 1_565 S
C349 N352 1.409 . S
C350 H322 0.930 . S
C350 C349 1.377 1_545 S
C350 C351 1.392 . S
C351 H323 0.929 . S
C351 C348 1.391 1_545 S
C351 C350 1.392 . S
N352 Co296 2.257 . S
N352 C349 1.409 . S
N352 C353 1.388 . S
C353 H324 0.930 . S
C353 C348 1.391 . S
C353 N352 1.388 . S
Co354 O356 2.143 . S
Co354 O362 2.074 . S
Co354 O365 2.093 . S
Co354 O378 2.097 . S
Co354 N395 2.151 . S
Co354 N403 2.214 1_556 S
Co355 O356 2.160 . S
Co355 O361 2.058 . S
Co355 O371 2.057 . S
Co355 O386 2.037 . S
Co355 N390 2.145 . S
Co355 N411 2.257 . S
O356 Co354 2.143 . S
O356 Co355 2.160 . S
C357 O358 1.278 . S
C357 O365 1.224 . S
O358 C357 1.278 . S
C359 O360 1.245 . S
C359 O371 1.232 . S
O360 C359 1.245 . S
O361 Co355 2.058 . S
O361 C387 1.269 . S
O362 Co354 2.074 . S
O362 C387 1.257 . S
H363 C388 0.930 . S
H364 C394 0.930 . S
O365 Co354 2.093 . S
O365 C357 1.224 . S
H366 C398 0.929 . S
H367 C400 0.930 . S
H368 C401 0.930 . S
H369 C399 0.929 1_554 S
H370 C402 0.928 . S
O371 Co355 2.057 . S
O371 C359 1.232 . S
H372 C391 0.929 . S
H373 C392 0.929 . S
H374 C404 0.931 . S
H375 C396 0.929 . S
H376 C405 0.930 . S
H377 C397 0.931 . S
O378 Co354 2.097 . S
O378 C406 1.214 . S
H379 C407 0.929 . S
H380 C408 0.926 1_455 S
H381 C409 0.930 . S
H382 C410 0.929 . S
H383 C412 0.930 . S
H384 C389 0.930 . S
H385 C393 0.930 . S
O386 Co355 2.037 . S
O386 C406 1.234 . S
C387 O361 1.269 . S
C387 O362 1.257 . S
C388 H363 0.930 . S
C388 C391 1.388 . S
C388 C393 1.418 . S
C389 H384 0.930 . S
C389 C392 1.404 . S
C389 C393 1.353 . S
N390 Co355 2.145 . S
N390 C391 1.397 . S
N390 C392 1.334 . S
C391 H372 0.929 . S
C391 C388 1.388 . S
C391 N390 1.397 . S
C392 H373 0.929 . S
C392 C389 1.404 . S
C392 N390 1.334 . S
C393 H385 0.930 . S
C393 C388 1.418 . S
C393 C389 1.353 . S
C394 H364 0.930 . S
C394 N395 1.330 . S
C394 C396 1.446 . S
N395 Co354 2.151 . S
N395 C394 1.330 . S
N395 C399 1.418 . S
C396 H375 0.929 . S
C396 C394 1.446 . S
C396 C397 1.332 . S
C397 H377 0.931 . S
C397 C396 1.332 . S
C397 C398 1.267 1_556 S
C398 H366 0.929 . S
C398 C397 1.267 1_554 S
C398 C399 1.251 1_554 S
C399 H369 0.929 1_556 S
C399 N395 1.418 . S
C399 C398 1.251 1_556 S
C400 H367 0.930 . S
C400 C402 1.406 . S
C400 C405 1.261 . S
C401 H368 0.930 . S
C401 N403 1.325 . S
C401 C404 1.357 . S
C402 H370 0.928 . S
C402 C400 1.406 . S
C402 N403 1.261 . S
N403 Co354 2.214 1_554 S
N403 C401 1.325 . S
N403 C402 1.261 . S
C404 H374 0.931 . S
C404 C401 1.357 . S
C404 C405 1.312 . S
C405 H376 0.930 . S
C405 C400 1.261 . S
C405 C404 1.312 . S
C406 O378 1.214 . S
C406 O386 1.234 . S
C407 H379 0.929 . S
C407 C410 1.391 1_655 S
C407 C412 1.391 . S
C408 H380 0.926 1_655 S
C408 C409 1.377 1_655 S
C408 N411 1.409 . S
C409 H381 0.930 . S
C409 C408 1.377 1_455 S
C409 C410 1.392 . S
C410 H382 0.929 . S
C410 C407 1.391 1_455 S
C410 C409 1.392 . S
N411 Co355 2.257 . S
N411 C408 1.409 . S
N411 C412 1.388 . S
C412 H383 0.930 . S
C412 C407 1.391 . S
C412 N411 1.388 . S
Co413 O415 2.143 . S
Co413 O421 2.074 . S
Co413 O424 2.093 . S
Co413 O437 2.097 . S
Co413 N454 2.151 . S
Co413 N462 2.214 1_554 S
Co414 O415 2.160 . S
Co414 O420 2.058 . S
Co414 O430 2.057 . S
Co414 O445 2.037 . S
Co414 N449 2.145 . S
Co414 N470 2.257 . S
O415 Co413 2.143 . S
O415 Co414 2.160 . S
C416 O417 1.278 . S
C416 O424 1.224 . S
O417 C416 1.278 . S
C418 O419 1.245 . S
C418 O430 1.232 . S
O419 C418 1.245 . S
O420 Co414 2.058 . S
O420 C446 1.269 . S
O421 Co413 2.074 . S
O421 C446 1.257 . S
H422 C447 0.930 . S
H423 C453 0.930 . S
O424 Co413 2.093 . S
O424 C416 1.224 . S
H425 C457 0.929 . S
H426 C459 0.930 . S
H427 C460 0.930 . S
H428 C458 0.929 1_556 S
H429 C461 0.928 . S
O430 Co414 2.057 . S
O430 C418 1.232 . S
H431 C450 0.929 . S
H432 C451 0.929 . S
H433 C463 0.931 . S
H434 C455 0.929 . S
H435 C464 0.930 . S
H436 C456 0.931 . S
O437 Co413 2.097 . S
O437 C465 1.214 . S
H438 C466 0.929 . S
H439 C467 0.926 1_565 S
H440 C468 0.930 . S
H441 C469 0.929 . S
H442 C471 0.930 . S
H443 C448 0.930 . S
H444 C452 0.930 . S
O445 Co414 2.037 . S
O445 C465 1.234 . S
C446 O420 1.269 . S
C446 O421 1.257 . S
C447 H422 0.930 . S
C447 C450 1.388 . S
C447 C452 1.418 . S
C448 H443 0.930 . S
C448 C451 1.404 . S
C448 C452 1.353 . S
N449 Co414 2.145 . S
N449 C450 1.397 . S
N449 C451 1.334 . S
C450 H431 0.929 . S
C450 C447 1.388 . S
C450 N449 1.397 . S
C451 H432 0.929 . S
C451 C448 1.404 . S
C451 N449 1.334 . S
C452 H444 0.930 . S
C452 C447 1.418 . S
C452 C448 1.353 . S
C453 H423 0.930 . S
C453 N454 1.330 . S
C453 C455 1.446 . S
N454 Co413 2.151 . S
N454 C453 1.330 . S
N454 C458 1.418 . S
C455 H434 0.929 . S
C455 C453 1.446 . S
C455 C456 1.332 . S
C456 H436 0.931 . S
C456 C455 1.332 . S
C456 C457 1.267 1_554 S
C457 H425 0.929 . S
C457 C456 1.267 1_556 S
C457 C458 1.251 1_556 S
C458 H428 0.929 1_554 S
C458 N454 1.418 . S
C458 C457 1.251 1_554 S
C459 H426 0.930 . S
C459 C461 1.406 . S
C459 C464 1.261 . S
C460 H427 0.930 . S
C460 N462 1.325 . S
C460 C463 1.357 . S
C461 H429 0.928 . S
C461 C459 1.406 . S
C461 N462 1.261 . S
N462 Co413 2.214 1_556 S
N462 C460 1.325 . S
N462 C461 1.261 . S
C463 H433 0.931 . S
C463 C460 1.357 . S
C463 C464 1.312 . S
C464 H435 0.930 . S
C464 C459 1.261 . S
C464 C463 1.312 . S
C465 O437 1.214 . S
C465 O445 1.234 . S
C466 H438 0.929 . S
C466 C469 1.391 1_545 S
C466 C471 1.391 . S
C467 H439 0.926 1_545 S
C467 C468 1.377 1_545 S
C467 N470 1.409 . S
C468 H440 0.930 . S
C468 C467 1.377 1_565 S
C468 C469 1.392 . S
C469 H441 0.929 . S
C469 C466 1.391 1_565 S
C469 C468 1.392 . S
N470 Co414 2.257 . S
N470 C467 1.409 . S
N470 C471 1.388 . S
C471 H442 0.930 . S
C471 C466 1.391 . S
C471 N470 1.388 . S
Co472 O474 2.143 . S
Co472 O480 2.074 . S
Co472 O483 2.093 . S
Co472 O496 2.097 . S
Co472 N513 2.151 . S
Co472 N521 2.214 . S
Co473 O474 2.160 . S
Co473 O479 2.058 . S
Co473 O489 2.057 . S
Co473 O504 2.037 . S
Co473 N508 2.145 . S
Co473 N529 2.257 . S
O474 Co472 2.143 . S
O474 Co473 2.160 . S
C475 O476 1.278 . S
C475 O483 1.224 . S
O476 C475 1.278 . S
C477 O478 1.245 . S
C477 O489 1.232 . S
O478 C477 1.245 . S
O479 Co473 2.058 . S
O479 C505 1.269 . S
O480 Co472 2.074 . S
O480 C505 1.257 . S
H481 C506 0.930 . S
H482 C512 0.930 . S
O483 Co472 2.093 . S
O483 C475 1.224 . S
H484 C516 0.929 . S
H485 C518 0.930 . S
H486 C519 0.930 . S
H487 C517 0.929 . S
H488 C520 0.928 . S
O489 Co473 2.057 . S
O489 C477 1.232 . S
H490 C509 0.929 . S
H491 C510 0.929 . S
H492 C522 0.931 . S
H493 C514 0.929 . S
H494 C523 0.930 . S
H495 C515 0.931 . S
O496 Co472 2.097 . S
O496 C524 1.214 . S
H497 C525 0.929 . S
H498 C526 0.929 . S
H499 C527 0.930 . S
H500 C528 0.929 . S
H501 C530 0.930 . S
H502 C507 0.930 . S
H503 C511 0.930 . S
O504 Co473 2.037 . S
O504 C524 1.234 . S
C505 O479 1.269 . S
C505 O480 1.257 . S
C506 H481 0.930 . S
C506 C509 1.388 . S
C506 C511 1.418 . S
C507 H502 0.930 . S
C507 C510 1.404 . S
C507 C511 1.353 . S
N508 Co473 2.145 . S
N508 C509 1.397 . S
N508 C510 1.334 . S
C509 H490 0.929 . S
C509 C506 1.388 . S
C509 N508 1.397 . S
C510 H491 0.929 . S
C510 C507 1.404 . S
C510 N508 1.334 . S
C511 H503 0.930 . S
C511 C506 1.418 . S
C511 C507 1.353 . S
C512 H482 0.930 . S
C512 N513 1.330 . S
C512 C514 1.446 . S
N513 Co472 2.151 . S
N513 C512 1.330 . S
N513 C517 1.418 . S
C514 H493 0.929 . S
C514 C512 1.446 . S
C514 C515 1.332 . S
C515 H495 0.931 . S
C515 C514 1.332 . S
C515 C516 1.267 . S
C516 H484 0.929 . S
C516 C515 1.267 . S
C516 C517 1.251 . S
C517 H487 0.929 . S
C517 N513 1.418 . S
C517 C516 1.251 . S
C518 H485 0.930 . S
C518 C520 1.406 . S
C518 C523 1.261 . S
C519 H486 0.930 . S
C519 N521 1.325 . S
C519 C522 1.357 . S
C520 H488 0.928 . S
C520 C518 1.406 . S
C520 N521 1.261 . S
N521 Co472 2.214 . S
N521 C519 1.325 . S
N521 C520 1.261 . S
C522 H492 0.931 . S
C522 C519 1.357 . S
C522 C523 1.312 . S
C523 H494 0.930 . S
C523 C518 1.261 . S
C523 C522 1.312 . S
C524 O496 1.214 . S
C524 O504 1.234 . S
C525 H497 0.929 . S
C525 C528 1.391 . S
C525 C530 1.391 . S
C526 H498 0.929 . S
C526 C527 1.390 . S
C526 N529 1.391 . S
C527 H499 0.930 . S
C527 C526 1.390 . S
C527 C528 1.392 . S
C528 H500 0.929 . S
C528 C525 1.391 . S
C528 C527 1.392 . S
N529 Co473 2.257 . S
N529 C526 1.391 . S
N529 C530 1.388 . S
C530 H501 0.930 . S
C530 C525 1.391 . S
C530 N529 1.388 . S
Co531 O533 2.143 . S
Co531 O539 2.074 . S
Co531 O542 2.093 . S
Co531 O555 2.097 . S
Co531 N572 2.151 . S
Co531 N580 2.214 . S
Co532 O533 2.160 . S
Co532 O538 2.058 . S
Co532 O548 2.057 . S
Co532 O563 2.037 . S
Co532 N567 2.145 . S
Co532 N588 2.257 . S
O533 Co531 2.143 . S
O533 Co532 2.160 . S
C534 O535 1.278 . S
C534 O542 1.224 . S
O535 C534 1.278 . S
C536 O537 1.245 . S
C536 O548 1.232 . S
O537 C536 1.245 . S
O538 Co532 2.058 . S
O538 C564 1.269 . S
O539 Co531 2.074 . S
O539 C564 1.257 . S
H540 C565 0.930 . S
H541 C571 0.930 . S
O542 Co531 2.093 . S
O542 C534 1.224 . S
H543 C575 0.929 . S
H544 C577 0.930 . S
H545 C578 0.930 . S
H546 C576 0.929 . S
H547 C579 0.928 . S
O548 Co532 2.057 . S
O548 C536 1.232 . S
H549 C568 0.929 . S
H550 C569 0.929 . S
H551 C581 0.931 . S
H552 C573 0.929 . S
H553 C582 0.930 . S
H554 C574 0.931 . S
O555 Co531 2.097 . S
O555 C583 1.214 . S
H556 C584 0.929 . S
H557 C585 0.929 . S
H558 C586 0.930 . S
H559 C587 0.929 . S
H560 C589 0.930 . S
H561 C566 0.930 . S
H562 C570 0.930 . S
O563 Co532 2.037 . S
O563 C583 1.234 . S
C564 O538 1.269 . S
C564 O539 1.257 . S
C565 H540 0.930 . S
C565 C568 1.388 . S
C565 C570 1.418 . S
C566 H561 0.930 . S
C566 C569 1.404 . S
C566 C570 1.353 . S
N567 Co532 2.145 . S
N567 C568 1.397 . S
N567 C569 1.334 . S
C568 H549 0.929 . S
C568 C565 1.388 . S
C568 N567 1.397 . S
C569 H550 0.929 . S
C569 C566 1.404 . S
C569 N567 1.334 . S
C570 H562 0.930 . S
C570 C565 1.418 . S
C570 C566 1.353 . S
C571 H541 0.930 . S
C571 N572 1.330 . S
C571 C573 1.446 . S
N572 Co531 2.151 . S
N572 C571 1.330 . S
N572 C576 1.418 . S
C573 H552 0.929 . S
C573 C571 1.446 . S
C573 C574 1.332 . S
C574 H554 0.931 . S
C574 C573 1.332 . S
C574 C575 1.267 . S
C575 H543 0.929 . S
C575 C574 1.267 . S
C575 C576 1.251 . S
C576 H546 0.929 . S
C576 N572 1.418 . S
C576 C575 1.251 . S
C577 H544 0.930 . S
C577 C579 1.406 . S
C577 C582 1.261 . S
C578 H545 0.930 . S
C578 N580 1.325 . S
C578 C581 1.357 . S
C579 H547 0.928 . S
C579 C577 1.406 . S
C579 N580 1.261 . S
N580 Co531 2.214 . S
N580 C578 1.325 . S
N580 C579 1.261 . S
C581 H551 0.931 . S
C581 C578 1.357 . S
C581 C582 1.312 . S
C582 H553 0.930 . S
C582 C577 1.261 . S
C582 C581 1.312 . S
C583 O555 1.214 . S
C583 O563 1.234 . S
C584 H556 0.929 . S
C584 C587 1.391 . S
C584 C589 1.391 . S
C585 H557 0.929 . S
C585 C586 1.390 . S
C585 N588 1.391 . S
C586 H558 0.930 . S
C586 C585 1.390 . S
C586 C587 1.392 . S
C587 H559 0.929 . S
C587 C584 1.391 . S
C587 C586 1.392 . S
N588 Co532 2.257 . S
N588 C585 1.391 . S
N588 C589 1.388 . S
C589 H560 0.930 . S
C589 C584 1.391 . S
C589 N588 1.388 . S
Co590 O592 2.143 . S
Co590 O598 2.074 . S
Co590 O601 2.093 . S
Co590 O614 2.097 . S
Co590 N631 2.151 . S
Co590 N639 2.214 . S
Co591 O592 2.160 . S
Co591 O597 2.058 . S
Co591 O607 2.057 . S
Co591 O622 2.037 . S
Co591 N626 2.145 . S
Co591 N647 2.257 . S
O592 Co590 2.143 . S
O592 Co591 2.160 . S
C593 O594 1.278 . S
C593 O601 1.224 . S
O594 C593 1.278 . S
C595 O596 1.245 . S
C595 O607 1.232 . S
O596 C595 1.245 . S
O597 Co591 2.058 . S
O597 C623 1.269 . S
O598 Co590 2.074 . S
O598 C623 1.257 . S
H599 C624 0.930 . S
H600 C630 0.930 . S
O601 Co590 2.093 . S
O601 C593 1.224 . S
H602 C634 0.929 . S
H603 C636 0.930 . S
H604 C637 0.930 . S
H605 C635 0.929 . S
H606 C638 0.928 . S
O607 Co591 2.057 . S
O607 C595 1.232 . S
H608 C627 0.929 . S
H609 C628 0.929 . S
H610 C640 0.931 . S
H611 C632 0.929 . S
H612 C641 0.930 . S
H613 C633 0.931 . S
O614 Co590 2.097 . S
O614 C642 1.214 . S
H615 C643 0.929 . S
H616 C644 0.929 . S
H617 C645 0.930 . S
H618 C646 0.929 . S
H619 C648 0.930 . S
H620 C625 0.930 . S
H621 C629 0.930 . S
O622 Co591 2.037 . S
O622 C642 1.234 . S
C623 O597 1.269 . S
C623 O598 1.257 . S
C624 H599 0.930 . S
C624 C627 1.388 . S
C624 C629 1.418 . S
C625 H620 0.930 . S
C625 C628 1.404 . S
C625 C629 1.353 . S
N626 Co591 2.145 . S
N626 C627 1.397 . S
N626 C628 1.334 . S
C627 H608 0.929 . S
C627 C624 1.388 . S
C627 N626 1.397 . S
C628 H609 0.929 . S
C628 C625 1.404 . S
C628 N626 1.334 . S
C629 H621 0.930 . S
C629 C624 1.418 . S
C629 C625 1.353 . S
C630 H600 0.930 . S
C630 N631 1.330 . S
C630 C632 1.446 . S
N631 Co590 2.151 . S
N631 C630 1.330 . S
N631 C635 1.418 . S
C632 H611 0.929 . S
C632 C630 1.446 . S
C632 C633 1.332 . S
C633 H613 0.931 . S
C633 C632 1.332 . S
C633 C634 1.267 . S
C634 H602 0.929 . S
C634 C633 1.267 . S
C634 C635 1.251 . S
C635 H605 0.929 . S
C635 N631 1.418 . S
C635 C634 1.251 . S
C636 H603 0.930 . S
C636 C638 1.406 . S
C636 C641 1.261 . S
C637 H604 0.930 . S
C637 N639 1.325 . S
C637 C640 1.357 . S
C638 H606 0.928 . S
C638 C636 1.406 . S
C638 N639 1.261 . S
N639 Co590 2.214 . S
N639 C637 1.325 . S
N639 C638 1.261 . S
C640 H610 0.931 . S
C640 C637 1.357 . S
C640 C641 1.312 . S
C641 H612 0.930 . S
C641 C636 1.261 . S
C641 C640 1.312 . S
C642 O614 1.214 . S
C642 O622 1.234 . S
C643 H615 0.929 . S
C643 C646 1.391 . S
C643 C648 1.391 . S
C644 H616 0.929 . S
C644 C645 1.390 . S
C644 N647 1.391 . S
C645 H617 0.930 . S
C645 C644 1.390 . S
C645 C646 1.392 . S
C646 H618 0.929 . S
C646 C643 1.391 . S
C646 C645 1.392 . S
N647 Co591 2.257 . S
N647 C644 1.391 . S
N647 C648 1.388 . S
C648 H619 0.930 . S
C648 C643 1.391 . S
C648 N647 1.388 . S
Co649 O651 2.143 . S
Co649 O657 2.074 . S
Co649 O660 2.093 . S
Co649 O673 2.097 . S
Co649 N690 2.151 . S
Co649 N698 2.214 . S
Co650 O651 2.160 . S
Co650 O656 2.058 . S
Co650 O666 2.057 . S
Co650 O681 2.037 . S
Co650 N685 2.145 . S
Co650 N706 2.257 . S
O651 Co649 2.143 . S
O651 Co650 2.160 . S
C652 O653 1.278 . S
C652 O660 1.224 . S
O653 C652 1.278 . S
C654 O655 1.245 . S
C654 O666 1.232 . S
O655 C654 1.245 . S
O656 Co650 2.058 . S
O656 C682 1.269 . S
O657 Co649 2.074 . S
O657 C682 1.257 . S
H658 C683 0.930 . S
H659 C689 0.930 . S
O660 Co649 2.093 . S
O660 C652 1.224 . S
H661 C693 0.929 . S
H662 C695 0.930 . S
H663 C696 0.930 . S
H664 C694 0.929 . S
H665 C697 0.928 . S
O666 Co650 2.057 . S
O666 C654 1.232 . S
H667 C686 0.929 . S
H668 C687 0.929 . S
H669 C699 0.931 . S
H670 C691 0.929 . S
H671 C700 0.930 . S
H672 C692 0.931 . S
O673 Co649 2.097 . S
O673 C701 1.214 . S
H674 C702 0.929 . S
H675 C703 0.929 . S
H676 C704 0.930 . S
H677 C705 0.929 . S
H678 C707 0.930 . S
H679 C684 0.930 . S
H680 C688 0.930 . S
O681 Co650 2.037 . S
O681 C701 1.234 . S
C682 O656 1.269 . S
C682 O657 1.257 . S
C683 H658 0.930 . S
C683 C686 1.388 . S
C683 C688 1.418 . S
C684 H679 0.930 . S
C684 C687 1.404 . S
C684 C688 1.353 . S
N685 Co650 2.145 . S
N685 C686 1.397 . S
N685 C687 1.334 . S
C686 H667 0.929 . S
C686 C683 1.388 . S
C686 N685 1.397 . S
C687 H668 0.929 . S
C687 C684 1.404 . S
C687 N685 1.334 . S
C688 H680 0.930 . S
C688 C683 1.418 . S
C688 C684 1.353 . S
C689 H659 0.930 . S
C689 N690 1.330 . S
C689 C691 1.446 . S
N690 Co649 2.151 . S
N690 C689 1.330 . S
N690 C694 1.418 . S
C691 H670 0.929 . S
C691 C689 1.446 . S
C691 C692 1.332 . S
C692 H672 0.931 . S
C692 C691 1.332 . S
C692 C693 1.267 . S
C693 H661 0.929 . S
C693 C692 1.267 . S
C693 C694 1.251 . S
C694 H664 0.929 . S
C694 N690 1.418 . S
C694 C693 1.251 . S
C695 H662 0.930 . S
C695 C697 1.406 . S
C695 C700 1.261 . S
C696 H663 0.930 . S
C696 N698 1.325 . S
C696 C699 1.357 . S
C697 H665 0.928 . S
C697 C695 1.406 . S
C697 N698 1.261 . S
N698 Co649 2.214 . S
N698 C696 1.325 . S
N698 C697 1.261 . S
C699 H669 0.931 . S
C699 C696 1.357 . S
C699 C700 1.312 . S
C700 H671 0.930 . S
C700 C695 1.261 . S
C700 C699 1.312 . S
C701 O673 1.214 . S
C701 O681 1.234 . S
C702 H674 0.929 . S
C702 C705 1.391 . S
C702 C707 1.391 . S
C703 H675 0.929 . S
C703 C704 1.390 . S
C703 N706 1.391 . S
C704 H676 0.930 . S
C704 C703 1.390 . S
C704 C705 1.392 . S
C705 H677 0.929 . S
C705 C702 1.391 . S
C705 C704 1.392 . S
N706 Co650 2.257 . S
N706 C703 1.391 . S
N706 C707 1.388 . S
C707 H678 0.930 . S
C707 C702 1.391 . S
C707 N706 1.388 . S
Co708 O710 2.143 . S
Co708 O716 2.074 . S
Co708 O719 2.093 . S
Co708 O732 2.097 . S
Co708 N749 2.151 . S
Co708 N757 2.214 . S
Co709 O710 2.160 . S
Co709 O715 2.058 . S
Co709 O725 2.057 . S
Co709 O740 2.037 . S
Co709 N744 2.145 . S
Co709 N765 2.257 . S
O710 Co708 2.143 . S
O710 Co709 2.160 . S
C711 O712 1.278 . S
C711 O719 1.224 . S
O712 C711 1.278 . S
C713 O714 1.245 . S
C713 O725 1.232 . S
O714 C713 1.245 . S
O715 Co709 2.058 . S
O715 C741 1.269 . S
O716 Co708 2.074 . S
O716 C741 1.257 . S
H717 C742 0.930 . S
H718 C748 0.930 . S
O719 Co708 2.093 . S
O719 C711 1.224 . S
H720 C752 0.929 . S
H721 C754 0.930 . S
H722 C755 0.930 . S
H723 C753 0.929 . S
H724 C756 0.928 . S
O725 Co709 2.057 . S
O725 C713 1.232 . S
H726 C745 0.929 . S
H727 C746 0.929 . S
H728 C758 0.931 . S
H729 C750 0.929 . S
H730 C759 0.930 . S
H731 C751 0.931 . S
O732 Co708 2.097 . S
O732 C760 1.214 . S
H733 C761 0.929 . S
H734 C762 0.929 . S
H735 C763 0.930 . S
H736 C764 0.929 . S
H737 C766 0.930 . S
H738 C743 0.930 . S
H739 C747 0.930 . S
O740 Co709 2.037 . S
O740 C760 1.234 . S
C741 O715 1.269 . S
C741 O716 1.257 . S
C742 H717 0.930 . S
C742 C745 1.388 . S
C742 C747 1.418 . S
C743 H738 0.930 . S
C743 C746 1.404 . S
C743 C747 1.353 . S
N744 Co709 2.145 . S
N744 C745 1.397 . S
N744 C746 1.334 . S
C745 H726 0.929 . S
C745 C742 1.388 . S
C745 N744 1.397 . S
C746 H727 0.929 . S
C746 C743 1.404 . S
C746 N744 1.334 . S
C747 H739 0.930 . S
C747 C742 1.418 . S
C747 C743 1.353 . S
C748 H718 0.930 . S
C748 N749 1.330 . S
C748 C750 1.446 . S
N749 Co708 2.151 . S
N749 C748 1.330 . S
N749 C753 1.418 . S
C750 H729 0.929 . S
C750 C748 1.446 . S
C750 C751 1.332 . S
C751 H731 0.931 . S
C751 C750 1.332 . S
C751 C752 1.267 . S
C752 H720 0.929 . S
C752 C751 1.267 . S
C752 C753 1.251 . S
C753 H723 0.929 . S
C753 N749 1.418 . S
C753 C752 1.251 . S
C754 H721 0.930 . S
C754 C756 1.406 . S
C754 C759 1.261 . S
C755 H722 0.930 . S
C755 N757 1.325 . S
C755 C758 1.357 . S
C756 H724 0.928 . S
C756 C754 1.406 . S
C756 N757 1.261 . S
N757 Co708 2.214 . S
N757 C755 1.325 . S
N757 C756 1.261 . S
C758 H728 0.931 . S
C758 C755 1.357 . S
C758 C759 1.312 . S
C759 H730 0.930 . S
C759 C754 1.261 . S
C759 C758 1.312 . S
C760 O732 1.214 . S
C760 O740 1.234 . S
C761 H733 0.929 . S
C761 C764 1.391 . S
C761 C766 1.391 . S
C762 H734 0.929 . S
C762 C763 1.390 . S
C762 N765 1.391 . S
C763 H735 0.930 . S
C763 C762 1.390 . S
C763 C764 1.392 . S
C764 H736 0.929 . S
C764 C761 1.391 . S
C764 C763 1.392 . S
N765 Co709 2.257 . S
N765 C762 1.391 . S
N765 C766 1.388 . S
C766 H737 0.930 . S
C766 C761 1.391 . S
C766 N765 1.388 . S
Co767 O769 2.143 . S
Co767 O775 2.074 . S
Co767 O778 2.093 . S
Co767 O791 2.097 . S
Co767 N808 2.151 . S
Co767 N816 2.214 . S
Co768 O769 2.160 . S
Co768 O774 2.058 . S
Co768 O784 2.057 . S
Co768 O799 2.037 . S
Co768 N803 2.145 . S
Co768 N824 2.257 . S
O769 Co767 2.143 . S
O769 Co768 2.160 . S
C770 O771 1.278 . S
C770 O778 1.224 . S
O771 C770 1.278 . S
C772 O773 1.245 . S
C772 O784 1.232 . S
O773 C772 1.245 . S
O774 Co768 2.058 . S
O774 C800 1.269 . S
O775 Co767 2.074 . S
O775 C800 1.257 . S
H776 C801 0.930 . S
H777 C807 0.930 . S
O778 Co767 2.093 . S
O778 C770 1.224 . S
H779 C811 0.929 . S
H780 C813 0.930 . S
H781 C814 0.930 . S
H782 C812 0.929 . S
H783 C815 0.928 . S
O784 Co768 2.057 . S
O784 C772 1.232 . S
H785 C804 0.929 . S
H786 C805 0.929 . S
H787 C817 0.931 . S
H788 C809 0.929 . S
H789 C818 0.930 . S
H790 C810 0.931 . S
O791 Co767 2.097 . S
O791 C819 1.214 . S
H792 C820 0.929 . S
H793 C821 0.929 . S
H794 C822 0.930 . S
H795 C823 0.929 . S
H796 C825 0.930 . S
H797 C802 0.930 . S
H798 C806 0.930 . S
O799 Co768 2.037 . S
O799 C819 1.234 . S
C800 O774 1.269 . S
C800 O775 1.257 . S
C801 H776 0.930 . S
C801 C804 1.388 . S
C801 C806 1.418 . S
C802 H797 0.930 . S
C802 C805 1.404 . S
C802 C806 1.353 . S
N803 Co768 2.145 . S
N803 C804 1.397 . S
N803 C805 1.334 . S
C804 H785 0.929 . S
C804 C801 1.388 . S
C804 N803 1.397 . S
C805 H786 0.929 . S
C805 C802 1.404 . S
C805 N803 1.334 . S
C806 H798 0.930 . S
C806 C801 1.418 . S
C806 C802 1.353 . S
C807 H777 0.930 . S
C807 N808 1.330 . S
C807 C809 1.446 . S
N808 Co767 2.151 . S
N808 C807 1.330 . S
N808 C812 1.418 . S
C809 H788 0.929 . S
C809 C807 1.446 . S
C809 C810 1.332 . S
C810 H790 0.931 . S
C810 C809 1.332 . S
C810 C811 1.267 . S
C811 H779 0.929 . S
C811 C810 1.267 . S
C811 C812 1.251 . S
C812 H782 0.929 . S
C812 N808 1.418 . S
C812 C811 1.251 . S
C813 H780 0.930 . S
C813 C815 1.406 . S
C813 C818 1.261 . S
C814 H781 0.930 . S
C814 N816 1.325 . S
C814 C817 1.357 . S
C815 H783 0.928 . S
C815 C813 1.406 . S
C815 N816 1.261 . S
N816 Co767 2.214 . S
N816 C814 1.325 . S
N816 C815 1.261 . S
C817 H787 0.931 . S
C817 C814 1.357 . S
C817 C818 1.312 . S
C818 H789 0.930 . S
C818 C813 1.261 . S
C818 C817 1.312 . S
C819 O791 1.214 . S
C819 O799 1.234 . S
C820 H792 0.929 . S
C820 C823 1.391 . S
C820 C825 1.391 . S
C821 H793 0.929 . S
C821 C822 1.390 . S
C821 N824 1.391 . S
C822 H794 0.930 . S
C822 C821 1.390 . S
C822 C823 1.392 . S
C823 H795 0.929 . S
C823 C820 1.391 . S
C823 C822 1.392 . S
N824 Co768 2.257 . S
N824 C821 1.391 . S
N824 C825 1.388 . S
C825 H796 0.930 . S
C825 C820 1.391 . S
C825 N824 1.388 . S
Co826 O828 2.143 . S
Co826 O834 2.074 . S
Co826 O837 2.093 . S
Co826 O850 2.097 . S
Co826 N867 2.151 . S
Co826 N875 2.214 . S
Co827 O828 2.160 . S
Co827 O833 2.058 . S
Co827 O843 2.057 . S
Co827 O858 2.037 . S
Co827 N862 2.145 . S
Co827 N883 2.257 . S
O828 Co826 2.143 . S
O828 Co827 2.160 . S
C829 O830 1.278 . S
C829 O837 1.224 . S
O830 C829 1.278 . S
C831 O832 1.245 . S
C831 O843 1.232 . S
O832 C831 1.245 . S
O833 Co827 2.058 . S
O833 C859 1.269 . S
O834 Co826 2.074 . S
O834 C859 1.257 . S
H835 C860 0.930 . S
H836 C866 0.930 . S
O837 Co826 2.093 . S
O837 C829 1.224 . S
H838 C870 0.929 . S
H839 C872 0.930 . S
H840 C873 0.930 . S
H841 C871 0.929 . S
H842 C874 0.928 . S
O843 Co827 2.057 . S
O843 C831 1.232 . S
H844 C863 0.929 . S
H845 C864 0.929 . S
H846 C876 0.931 . S
H847 C868 0.929 . S
H848 C877 0.930 . S
H849 C869 0.931 . S
O850 Co826 2.097 . S
O850 C878 1.214 . S
H851 C879 0.929 . S
H852 C880 0.929 . S
H853 C881 0.930 . S
H854 C882 0.929 . S
H855 C884 0.930 . S
H856 C861 0.930 . S
H857 C865 0.930 . S
O858 Co827 2.037 . S
O858 C878 1.234 . S
C859 O833 1.269 . S
C859 O834 1.257 . S
C860 H835 0.930 . S
C860 C863 1.388 . S
C860 C865 1.418 . S
C861 H856 0.930 . S
C861 C864 1.404 . S
C861 C865 1.353 . S
N862 Co827 2.145 . S
N862 C863 1.397 . S
N862 C864 1.334 . S
C863 H844 0.929 . S
C863 C860 1.388 . S
C863 N862 1.397 . S
C864 H845 0.929 . S
C864 C861 1.404 . S
C864 N862 1.334 . S
C865 H857 0.930 . S
C865 C860 1.418 . S
C865 C861 1.353 . S
C866 H836 0.930 . S
C866 N867 1.330 . S
C866 C868 1.446 . S
N867 Co826 2.151 . S
N867 C866 1.330 . S
N867 C871 1.418 . S
C868 H847 0.929 . S
C868 C866 1.446 . S
C868 C869 1.332 . S
C869 H849 0.931 . S
C869 C868 1.332 . S
C869 C870 1.267 . S
C870 H838 0.929 . S
C870 C869 1.267 . S
C870 C871 1.251 . S
C871 H841 0.929 . S
C871 N867 1.418 . S
C871 C870 1.251 . S
C872 H839 0.930 . S
C872 C874 1.406 . S
C872 C877 1.261 . S
C873 H840 0.930 . S
C873 N875 1.325 . S
C873 C876 1.357 . S
C874 H842 0.928 . S
C874 C872 1.406 . S
C874 N875 1.261 . S
N875 Co826 2.214 . S
N875 C873 1.325 . S
N875 C874 1.261 . S
C876 H846 0.931 . S
C876 C873 1.357 . S
C876 C877 1.312 . S
C877 H848 0.930 . S
C877 C872 1.261 . S
C877 C876 1.312 . S
C878 O850 1.214 . S
C878 O858 1.234 . S
C879 H851 0.929 . S
C879 C882 1.391 . S
C879 C884 1.391 . S
C880 H852 0.929 . S
C880 C881 1.390 . S
C880 N883 1.391 . S
C881 H853 0.930 . S
C881 C880 1.390 . S
C881 C882 1.392 . S
C882 H854 0.929 . S
C882 C879 1.391 . S
C882 C881 1.392 . S
N883 Co827 2.257 . S
N883 C880 1.391 . S
N883 C884 1.388 . S
C884 H855 0.930 . S
C884 C879 1.391 . S
C884 N883 1.388 . S
Co885 O887 2.143 . S
Co885 O893 2.074 . S
Co885 O896 2.093 . S
Co885 O909 2.097 . S
Co885 N926 2.151 . S
Co885 N934 2.214 . S
Co886 O887 2.160 . S
Co886 O892 2.058 . S
Co886 O902 2.057 . S
Co886 O917 2.037 . S
Co886 N921 2.145 . S
Co886 N942 2.257 . S
O887 Co885 2.143 . S
O887 Co886 2.160 . S
C888 O889 1.278 . S
C888 O896 1.224 . S
O889 C888 1.278 . S
C890 O891 1.245 . S
C890 O902 1.232 . S
O891 C890 1.245 . S
O892 Co886 2.058 . S
O892 C918 1.269 . S
O893 Co885 2.074 . S
O893 C918 1.257 . S
H894 C919 0.930 . S
H895 C925 0.930 . S
O896 Co885 2.093 . S
O896 C888 1.224 . S
H897 C929 0.929 . S
H898 C931 0.930 . S
H899 C932 0.930 . S
H900 C930 0.929 . S
H901 C933 0.928 . S
O902 Co886 2.057 . S
O902 C890 1.232 . S
H903 C922 0.929 . S
H904 C923 0.929 . S
H905 C935 0.931 . S
H906 C927 0.929 . S
H907 C936 0.930 . S
H908 C928 0.931 . S
O909 Co885 2.097 . S
O909 C937 1.214 . S
H910 C938 0.929 . S
H911 C939 0.929 . S
H912 C940 0.930 . S
H913 C941 0.929 . S
H914 C943 0.930 . S
H915 C920 0.930 . S
H916 C924 0.930 . S
O917 Co886 2.037 . S
O917 C937 1.234 . S
C918 O892 1.269 . S
C918 O893 1.257 . S
C919 H894 0.930 . S
C919 C922 1.388 . S
C919 C924 1.418 . S
C920 H915 0.930 . S
C920 C923 1.404 . S
C920 C924 1.353 . S
N921 Co886 2.145 . S
N921 C922 1.397 . S
N921 C923 1.334 . S
C922 H903 0.929 . S
C922 C919 1.388 . S
C922 N921 1.397 . S
C923 H904 0.929 . S
C923 C920 1.404 . S
C923 N921 1.334 . S
C924 H916 0.930 . S
C924 C919 1.418 . S
C924 C920 1.353 . S
C925 H895 0.930 . S
C925 N926 1.330 . S
C925 C927 1.446 . S
N926 Co885 2.151 . S
N926 C925 1.330 . S
N926 C930 1.418 . S
C927 H906 0.929 . S
C927 C925 1.446 . S
C927 C928 1.332 . S
C928 H908 0.931 . S
C928 C927 1.332 . S
C928 C929 1.267 . S
C929 H897 0.929 . S
C929 C928 1.267 . S
C929 C930 1.251 . S
C930 H900 0.929 . S
C930 N926 1.418 . S
C930 C929 1.251 . S
C931 H898 0.930 . S
C931 C933 1.406 . S
C931 C936 1.261 . S
C932 H899 0.930 . S
C932 N934 1.325 . S
C932 C935 1.357 . S
C933 H901 0.928 . S
C933 C931 1.406 . S
C933 N934 1.261 . S
N934 Co885 2.214 . S
N934 C932 1.325 . S
N934 C933 1.261 . S
C935 H905 0.931 . S
C935 C932 1.357 . S
C935 C936 1.312 . S
C936 H907 0.930 . S
C936 C931 1.261 . S
C936 C935 1.312 . S
C937 O909 1.214 . S
C937 O917 1.234 . S
C938 H910 0.929 . S
C938 C941 1.391 . S
C938 C943 1.391 . S
C939 H911 0.929 . S
C939 C940 1.390 . S
C939 N942 1.391 . S
C940 H912 0.930 . S
C940 C939 1.390 . S
C940 C941 1.392 . S
C941 H913 0.929 . S
C941 C938 1.391 . S
C941 C940 1.392 . S
N942 Co886 2.257 . S
N942 C939 1.391 . S
N942 C943 1.388 . S
C943 H914 0.930 . S
C943 C938 1.391 . S
C943 N942 1.388 . S
H944 C950 0.930 . S
H945 C954 0.930 . S
H946 C959 0.929 . S
H947 C957 0.929 . S
H948 C952 0.929 . S
H949 C958 0.929 . S
C950 H944 0.930 . S
C950 C951 1.367 . S
C950 C958 1.378 . S
C951 C950 1.367 . S
C951 C959 1.433 . S
C952 H948 0.929 . S
C952 C954 1.378 . S
C952 C956 1.350 . S
C953 C956 1.463 . S
C953 C958 1.350 . S
C953 N961 1.427 . S
C954 H945 0.930 . S
C954 C952 1.378 . S
C954 C955 1.367 . S
C955 C954 1.367 . S
C955 C957 1.433 . S
C956 C952 1.350 . S
C956 C953 1.463 . S
C956 N960 1.427 . S
C957 H947 0.929 . S
C957 C955 1.433 . S
C957 N960 1.384 . S
C958 H949 0.929 . S
C958 C950 1.378 . S
C958 C953 1.350 . S
C959 H946 0.929 . S
C959 C951 1.433 . S
C959 N961 1.384 . S
N960 C956 1.427 . S
N960 C957 1.384 . S
N961 C953 1.427 . S
N961 C959 1.384 . S
H962 C968 0.930 . S
H963 C972 0.930 . S
H964 C977 0.929 . S
H965 C975 0.929 . S
H966 C970 0.929 . S
H967 C976 0.929 . S
C968 H962 0.930 . S
C968 C969 1.367 . S
C968 C976 1.378 . S
C969 C968 1.367 . S
C969 C977 1.433 . S
C970 H966 0.929 . S
C970 C972 1.378 . S
C970 C974 1.350 . S
C971 C974 1.463 . S
C971 C976 1.350 . S
C971 N979 1.427 . S
C972 H963 0.930 . S
C972 C970 1.378 . S
C972 C973 1.367 . S
C973 C972 1.367 . S
C973 C975 1.433 . S
C974 C970 1.350 . S
C974 C971 1.463 . S
C974 N978 1.427 . S
C975 H965 0.929 . S
C975 C973 1.433 . S
C975 N978 1.384 . S
C976 H967 0.929 . S
C976 C968 1.378 . S
C976 C971 1.350 . S
C977 H964 0.929 . S
C977 C969 1.433 . S
C977 N979 1.384 . S
N978 C974 1.427 . S
N978 C975 1.384 . S
N979 C971 1.427 . S
N979 C977 1.384 . S
H980 C986 0.930 . S
H981 C990 0.930 . S
H982 C995 0.929 . S
H983 C993 0.929 . S
H984 C988 0.929 . S
H985 C994 0.929 . S
C986 H980 0.930 . S
C986 C987 1.367 . S
C986 C994 1.378 . S
C987 C986 1.367 . S
C987 C995 1.433 . S
C988 H984 0.929 . S
C988 C990 1.378 . S
C988 C992 1.350 . S
C989 C992 1.463 . S
C989 C994 1.350 . S
C989 N997 1.427 . S
C990 H981 0.930 . S
C990 C988 1.378 . S
C990 C991 1.367 . S
C991 C990 1.367 . S
C991 C993 1.433 . S
C992 C988 1.350 . S
C992 C989 1.463 . S
C992 N996 1.427 . S
C993 H983 0.929 . S
C993 C991 1.433 . S
C993 N996 1.384 . S
C994 H985 0.929 . S
C994 C986 1.378 . S
C994 C989 1.350 . S
C995 H982 0.929 . S
C995 C987 1.433 . S
C995 N997 1.384 . S
N996 C992 1.427 . S
N996 C993 1.384 . S
N997 C989 1.427 . S
N997 C995 1.384 . S
H998 C1004 0.930 . S
H999 C1008 0.930 . S
H1000 C1013 0.929 . S
H1001 C1011 0.929 . S
H1002 C1006 0.929 . S
H1003 C1012 0.929 . S
C1004 H998 0.930 . S
C1004 C1005 1.367 . S
C1004 C1012 1.378 . S
C1005 C1004 1.367 . S
C1005 C1013 1.433 . S
C1006 H1002 0.929 . S
C1006 C1008 1.378 . S
C1006 C1010 1.350 . S
C1007 C1010 1.463 . S
C1007 C1012 1.350 . S
C1007 N1015 1.427 . S
C1008 H999 0.930 . S
C1008 C1006 1.378 . S
C1008 C1009 1.367 . S
C1009 C1008 1.367 . S
C1009 C1011 1.433 . S
C1010 C1006 1.350 . S
C1010 C1007 1.463 . S
C1010 N1014 1.427 . S
C1011 H1001 0.929 . S
C1011 C1009 1.433 . S
C1011 N1014 1.384 . S
C1012 H1003 0.929 . S
C1012 C1004 1.378 . S
C1012 C1007 1.350 . S
C1013 H1000 0.929 . S
C1013 C1005 1.433 . S
C1013 N1015 1.384 . S
N1014 C1010 1.427 . S
N1014 C1011 1.384 . S
N1015 C1007 1.427 . S
N1015 C1013 1.384 . S
H1016 C1022 0.930 . S
H1017 C1026 0.930 . S
H1018 C1031 0.929 1_565 S
H1019 C1029 0.929 . S
H1020 C1024 0.929 . S
H1021 C1030 0.929 . S
C1022 H1016 0.930 . S
C1022 C1023 1.367 . S
C1022 C1030 1.378 . S
C1023 C1022 1.367 . S
C1023 C1031 1.433 . S
C1024 H1020 0.929 . S
C1024 C1026 1.378 . S
C1024 C1028 1.379 . S
C1025 C1028 1.443 1_554 S
C1025 C1030 1.350 . S
C1025 N1033 1.427 . S
C1026 H1017 0.930 . S
C1026 C1024 1.378 . S
C1026 C1027 1.367 . S
C1027 C1026 1.367 . S
C1027 C1029 1.433 . S
C1028 C1024 1.379 . S
C1028 C1025 1.443 1_556 S
C1028 N1032 1.418 1_556 S
C1029 H1019 0.929 . S
C1029 C1027 1.433 . S
C1029 N1032 1.384 1_556 S
C1030 H1021 0.929 . S
C1030 C1022 1.378 . S
C1030 C1025 1.350 . S
C1031 H1018 0.929 1_545 S
C1031 C1023 1.433 . S
C1031 N1033 1.384 . S
N1032 C1028 1.418 1_554 S
N1032 C1029 1.384 1_554 S
N1033 C1025 1.427 . S
N1033 C1031 1.384 . S
H1034 C1040 0.930 . S
H1035 C1044 0.930 . S
H1036 C1049 0.911 1_556 S
H1037 C1047 0.929 . S
H1038 C1042 0.929 . S
H1039 C1048 0.929 . S
C1040 H1034 0.930 . S
C1040 C1041 1.367 . S
C1040 C1048 1.378 . S
C1041 C1040 1.367 . S
C1041 C1049 1.433 . S
C1042 H1038 0.929 . S
C1042 C1044 1.378 . S
C1042 C1046 1.350 . S
C1043 C1046 1.440 1_554 S
C1043 C1048 1.386 . S
C1043 N1051 1.412 1_554 S
C1044 H1035 0.930 . S
C1044 C1042 1.378 . S
C1044 C1045 1.367 . S
C1045 C1044 1.367 . S
C1045 C1047 1.433 . S
C1046 C1042 1.350 . S
C1046 C1043 1.440 1_556 S
C1046 N1050 1.427 . S
C1047 H1037 0.929 . S
C1047 C1045 1.433 . S
C1047 N1050 1.384 . S
C1048 H1039 0.929 . S
C1048 C1040 1.378 . S
C1048 C1043 1.386 . S
C1049 H1036 0.911 1_554 S
C1049 C1041 1.433 . S
C1049 N1051 1.384 1_554 S
N1050 C1046 1.427 . S
N1050 C1047 1.384 . S
N1051 C1043 1.412 1_556 S
N1051 C1049 1.384 1_556 S
H1052 C1058 0.958 . S
H1053 C1062 0.930 1_545 S
H1054 C1067 0.929 . S
H1055 C1065 0.929 . S
H1056 C1060 0.929 . S
H1057 C1066 0.929 . S
C1058 H1052 0.958 . S
C1058 C1059 1.317 1_554 S
C1058 C1066 1.403 . S
C1059 C1058 1.317 1_556 S
C1059 C1067 1.433 . S
C1060 H1056 0.929 . S
C1060 C1062 1.378 1_556 S
C1060 C1064 1.350 1_556 S
C1061 C1064 1.461 . S
C1061 C1066 1.348 . S
C1061 N1069 1.430 1_554 S
C1062 H1053 0.930 1_565 S
C1062 C1060 1.378 1_554 S
C1062 C1063 1.367 . S
C1063 C1062 1.367 . S
C1063 C1065 1.433 . S
C1064 C1060 1.350 1_554 S
C1064 C1061 1.461 . S
C1064 N1068 1.427 . S
C1065 H1055 0.929 . S
C1065 C1063 1.433 . S
C1065 N1068 1.384 . S
C1066 H1057 0.929 . S
C1066 C1058 1.403 . S
C1066 C1061 1.348 . S
C1067 H1054 0.929 . S
C1067 C1059 1.433 . S
C1067 N1069 1.384 . S
N1068 C1064 1.427 . S
N1068 C1065 1.384 . S
N1069 C1061 1.430 1_556 S
N1069 C1067 1.384 . S
H1070 C1076 0.930 . S
H1071 C1080 0.930 1_455 S
H1072 C1085 0.929 . S
H1073 C1083 0.929 . S
H1074 C1078 0.929 . S
H1075 C1084 0.934 . S
C1076 H1070 0.930 . S
C1076 C1077 1.367 . S
C1076 C1084 1.373 1_554 S
C1077 C1076 1.367 . S
C1077 C1085 1.433 . S
C1078 H1074 0.929 . S
C1078 C1080 1.378 . S
C1078 C1082 1.350 . S
C1079 C1082 1.458 1_554 S
C1079 C1084 1.350 1_554 S
C1079 N1087 1.432 . S
C1080 H1071 0.930 1_655 S
C1080 C1078 1.378 . S
C1080 C1081 1.367 . S
C1081 C1080 1.367 . S
C1081 C1083 1.433 . S
C1082 C1078 1.350 . S
C1082 C1079 1.458 1_556 S
C1082 N1086 1.427 . S
C1083 H1073 0.929 . S
C1083 C1081 1.433 . S
C1083 N1086 1.384 . S
C1084 H1075 0.934 . S
C1084 C1076 1.373 1_556 S
C1084 C1079 1.350 1_556 S
C1085 H1072 0.929 . S
C1085 C1077 1.433 . S
C1085 N1087 1.384 . S
N1086 C1082 1.427 . S
N1086 C1083 1.384 . S
N1087 C1079 1.432 . S
N1087 C1085 1.384 . S
H1088 C1094 0.930 . S
H1089 C1098 0.930 1_545 S
H1090 C1103 0.929 . S
H1091 C1101 0.929 . S
H1092 C1096 0.929 . S
H1093 C1102 0.929 . S
C1094 H1088 0.930 . S
C1094 C1095 1.367 . S
C1094 C1102 1.378 . S
C1095 C1094 1.367 . S
C1095 C1103 1.433 . S
C1096 H1092 0.929 . S
C1096 C1098 1.378 . S
C1096 C1100 1.350 . S
C1097 C1100 1.463 . S
C1097 C1102 1.350 . S
C1097 N1105 1.427 . S
C1098 H1089 0.930 1_565 S
C1098 C1096 1.378 . S
C1098 C1099 1.367 . S
C1099 C1098 1.367 . S
C1099 C1101 1.433 . S
C1100 C1096 1.350 . S
C1100 C1097 1.463 . S
C1100 N1104 1.427 . S
C1101 H1091 0.929 . S
C1101 C1099 1.433 . S
C1101 N1104 1.384 . S
C1102 H1093 0.929 . S
C1102 C1094 1.378 . S
C1102 C1097 1.350 . S
C1103 H1090 0.929 . S
C1103 C1095 1.433 . S
C1103 N1105 1.384 . S
N1104 C1100 1.427 . S
N1104 C1101 1.384 . S
N1105 C1097 1.427 . S
N1105 C1103 1.384 . S
H1106 C1112 0.930 . S
H1107 C1116 0.930 . S
H1108 C1121 0.929 . S
H1109 C1119 0.929 . S
H1110 C1114 0.929 . S
H1111 C1120 0.929 . S
C1112 H1106 0.930 . S
C1112 C1113 1.367 . S
C1112 C1120 1.378 . S
C1113 C1112 1.367 . S
C1113 C1121 1.433 . S
C1114 H1110 0.929 . S
C1114 C1116 1.378 . S
C1114 C1118 1.350 . S
C1115 C1118 1.463 . S
C1115 C1120 1.350 . S
C1115 N1123 1.427 . S
C1116 H1107 0.930 . S
C1116 C1114 1.378 . S
C1116 C1117 1.367 . S
C1117 C1116 1.367 . S
C1117 C1119 1.433 . S
C1118 C1114 1.350 . S
C1118 C1115 1.463 . S
C1118 N1122 1.427 . S
C1119 H1109 0.929 . S
C1119 C1117 1.433 . S
C1119 N1122 1.384 . S
C1120 H1111 0.929 . S
C1120 C1112 1.378 . S
C1120 C1115 1.350 . S
C1121 H1108 0.929 . S
C1121 C1113 1.433 . S
C1121 N1123 1.384 . S
N1122 C1118 1.427 . S
N1122 C1119 1.384 . S
N1123 C1115 1.427 . S
N1123 C1121 1.384 . S
H1124 C1130 0.930 . S
H1125 C1134 0.930 . S
H1126 C1139 0.929 1_565 S
H1127 C1137 0.929 . S
H1128 C1132 0.929 . S
H1129 C1138 0.929 . S
C1130 H1124 0.930 . S
C1130 C1131 1.367 . S
C1130 C1138 1.378 . S
C1131 C1130 1.367 . S
C1131 C1139 1.433 . S
C1132 H1128 0.929 . S
C1132 C1134 1.378 . S
C1132 C1136 1.350 . S
C1133 C1136 1.463 . S
C1133 C1138 1.350 . S
C1133 N1141 1.427 . S
C1134 H1125 0.930 . S
C1134 C1132 1.378 . S
C1134 C1135 1.367 . S
C1135 C1134 1.367 . S
C1135 C1137 1.433 . S
C1136 C1132 1.350 . S
C1136 C1133 1.463 . S
C1136 N1140 1.427 . S
C1137 H1127 0.929 . S
C1137 C1135 1.433 . S
C1137 N1140 1.384 . S
C1138 H1129 0.929 . S
C1138 C1130 1.378 . S
C1138 C1133 1.350 . S
C1139 H1126 0.929 1_545 S
C1139 C1131 1.433 . S
C1139 N1141 1.384 . S
N1140 C1136 1.427 . S
N1140 C1137 1.384 . S
N1141 C1133 1.427 . S
N1141 C1139 1.384 . S
H1142 C1148 0.930 . S
H1143 C1152 0.930 . S
H1144 C1157 0.929 . S
H1145 C1155 0.929 . S
H1146 C1150 0.929 . S
H1147 C1156 0.929 . S
C1148 H1142 0.930 . S
C1148 C1149 1.367 . S
C1148 C1156 1.378 . S
C1149 C1148 1.367 . S
C1149 C1157 1.433 . S
C1150 H1146 0.929 . S
C1150 C1152 1.378 . S
C1150 C1154 1.350 . S
C1151 C1154 1.463 . S
C1151 C1156 1.350 . S
C1151 N1159 1.427 . S
C1152 H1143 0.930 . S
C1152 C1150 1.378 . S
C1152 C1153 1.367 . S
C1153 C1152 1.367 . S
C1153 C1155 1.433 . S
C1154 C1150 1.350 . S
C1154 C1151 1.463 . S
C1154 N1158 1.427 . S
C1155 H1145 0.929 . S
C1155 C1153 1.433 . S
C1155 N1158 1.384 . S
C1156 H1147 0.929 . S
C1156 C1148 1.378 . S
C1156 C1151 1.350 . S
C1157 H1144 0.929 . S
C1157 C1149 1.433 . S
C1157 N1159 1.384 . S
N1158 C1154 1.427 . S
N1158 C1155 1.384 . S
N1159 C1151 1.427 . S
N1159 C1157 1.384 . S
H1160 C1166 0.930 . S
H1161 C1170 0.930 . S
H1162 C1175 0.929 . S
H1163 C1173 0.929 . S
H1164 C1168 0.929 . S
H1165 C1174 0.929 . S
C1166 H1160 0.930 . S
C1166 C1167 1.367 . S
C1166 C1174 1.378 . S
C1167 C1166 1.367 . S
C1167 C1175 1.433 . S
C1168 H1164 0.929 . S
C1168 C1170 1.378 . S
C1168 C1172 1.350 . S
C1169 C1172 1.463 . S
C1169 C1174 1.350 . S
C1169 N1177 1.427 . S
C1170 H1161 0.930 . S
C1170 C1168 1.378 . S
C1170 C1171 1.367 . S
C1171 C1170 1.367 . S
C1171 C1173 1.433 . S
C1172 C1168 1.350 . S
C1172 C1169 1.463 . S
C1172 N1176 1.427 . S
C1173 H1163 0.929 . S
C1173 C1171 1.433 . S
C1173 N1176 1.384 . S
C1174 H1165 0.929 . S
C1174 C1166 1.378 . S
C1174 C1169 1.350 . S
C1175 H1162 0.929 . S
C1175 C1167 1.433 . S
C1175 N1177 1.384 . S
N1176 C1172 1.427 . S
N1176 C1173 1.384 . S
N1177 C1169 1.427 . S
N1177 C1175 1.384 . S
H1178 C1184 0.930 . S
H1179 C1188 0.930 . S
H1180 C1193 0.929 . S
H1181 C1191 0.929 . S
H1182 C1186 0.929 . S
H1183 C1192 0.929 . S
C1184 H1178 0.930 . S
C1184 C1185 1.367 . S
C1184 C1192 1.378 . S
C1185 C1184 1.367 . S
C1185 C1193 1.433 . S
C1186 H1182 0.929 . S
C1186 C1188 1.378 . S
C1186 C1190 1.350 . S
C1187 C1190 1.463 . S
C1187 C1192 1.350 . S
C1187 N1195 1.427 . S
C1188 H1179 0.930 . S
C1188 C1186 1.378 . S
C1188 C1189 1.367 . S
C1189 C1188 1.367 . S
C1189 C1191 1.433 . S
C1190 C1186 1.350 . S
C1190 C1187 1.463 . S
C1190 N1194 1.427 . S
C1191 H1181 0.929 . S
C1191 C1189 1.433 . S
C1191 N1194 1.384 . S
C1192 H1183 0.929 . S
C1192 C1184 1.378 . S
C1192 C1187 1.350 . S
C1193 H1180 0.929 . S
C1193 C1185 1.433 . S
C1193 N1195 1.384 . S
N1194 C1190 1.427 . S
N1194 C1191 1.384 . S
N1195 C1187 1.427 . S
N1195 C1193 1.384 . S
H1196 C1202 0.930 . S
H1197 C1206 0.930 . S
H1198 C1211 0.929 . S
H1199 C1209 0.929 . S
H1200 C1204 0.929 . S
H1201 C1210 0.929 . S
C1202 H1196 0.930 . S
C1202 C1203 1.367 . S
C1202 C1210 1.378 . S
C1203 C1202 1.367 . S
C1203 C1211 1.433 . S
C1204 H1200 0.929 . S
C1204 C1206 1.378 . S
C1204 C1208 1.350 . S
C1205 C1208 1.463 . S
C1205 C1210 1.350 . S
C1205 N1213 1.427 . S
C1206 H1197 0.930 . S
C1206 C1204 1.378 . S
C1206 C1207 1.367 . S
C1207 C1206 1.367 . S
C1207 C1209 1.433 . S
C1208 C1204 1.350 . S
C1208 C1205 1.463 . S
C1208 N1212 1.427 . S
C1209 H1199 0.929 . S
C1209 C1207 1.433 . S
C1209 N1212 1.384 . S
C1210 H1201 0.929 . S
C1210 C1202 1.378 . S
C1210 C1205 1.350 . S
C1211 H1198 0.929 . S
C1211 C1203 1.433 . S
C1211 N1213 1.384 . S
N1212 C1208 1.427 . S
N1212 C1209 1.384 . S
N1213 C1205 1.427 . S
N1213 C1211 1.384 . S
H1214 C1220 0.930 . S
H1215 C1224 0.930 . S
H1216 C1229 0.929 . S
H1217 C1227 0.929 . S
H1218 C1222 0.929 . S
H1219 C1228 0.929 . S
C1220 H1214 0.930 . S
C1220 C1221 1.367 . S
C1220 C1228 1.378 . S
C1221 C1220 1.367 . S
C1221 C1229 1.433 . S
C1222 H1218 0.929 . S
C1222 C1224 1.378 . S
C1222 C1226 1.350 . S
C1223 C1226 1.463 . S
C1223 C1228 1.350 . S
C1223 N1231 1.427 . S
C1224 H1215 0.930 . S
C1224 C1222 1.378 . S
C1224 C1225 1.367 . S
C1225 C1224 1.367 . S
C1225 C1227 1.433 . S
C1226 C1222 1.350 . S
C1226 C1223 1.463 . S
C1226 N1230 1.427 . S
C1227 H1217 0.929 . S
C1227 C1225 1.433 . S
C1227 N1230 1.384 . S
C1228 H1219 0.929 . S
C1228 C1220 1.378 . S
C1228 C1223 1.350 . S
C1229 H1216 0.929 . S
C1229 C1221 1.433 . S
C1229 N1231 1.384 . S
N1230 C1226 1.427 . S
N1230 C1227 1.384 . S
N1231 C1223 1.427 . S
N1231 C1229 1.384 . S
H1232 C1238 0.930 . S
H1233 C1242 0.930 . S
H1234 C1247 0.929 . S
H1235 C1245 0.929 . S
H1236 C1240 0.929 . S
H1237 C1246 0.929 . S
C1238 H1232 0.930 . S
C1238 C1239 1.367 . S
C1238 C1246 1.378 . S
C1239 C1238 1.367 . S
C1239 C1247 1.433 . S
C1240 H1236 0.929 . S
C1240 C1242 1.378 . S
C1240 C1244 1.350 . S
C1241 C1244 1.463 . S
C1241 C1246 1.350 . S
C1241 N1249 1.427 . S
C1242 H1233 0.930 . S
C1242 C1240 1.378 . S
C1242 C1243 1.367 . S
C1243 C1242 1.367 . S
C1243 C1245 1.433 . S
C1244 C1240 1.350 . S
C1244 C1241 1.463 . S
C1244 N1248 1.427 . S
C1245 H1235 0.929 . S
C1245 C1243 1.433 . S
C1245 N1248 1.384 . S
C1246 H1237 0.929 . S
C1246 C1238 1.378 . S
C1246 C1241 1.350 . S
C1247 H1234 0.929 . S
C1247 C1239 1.433 . S
C1247 N1249 1.384 . S
N1248 C1244 1.427 . S
N1248 C1245 1.384 . S
N1249 C1241 1.427 . S
N1249 C1247 1.384 . S
H1250 C1256 0.930 . S
H1251 C1260 0.930 . S
H1252 C1265 0.929 . S
H1253 C1263 0.929 . S
H1254 C1258 0.929 . S
H1255 C1264 0.929 . S
C1256 H1250 0.930 . S
C1256 C1257 1.367 . S
C1256 C1264 1.378 . S
C1257 C1256 1.367 . S
C1257 C1265 1.433 . S
C1258 H1254 0.929 . S
C1258 C1260 1.378 . S
C1258 C1262 1.350 . S
C1259 C1262 1.463 . S
C1259 C1264 1.350 . S
C1259 N1267 1.427 . S
C1260 H1251 0.930 . S
C1260 C1258 1.378 . S
C1260 C1261 1.367 . S
C1261 C1260 1.367 . S
C1261 C1263 1.433 . S
C1262 C1258 1.350 . S
C1262 C1259 1.463 . S
C1262 N1266 1.427 . S
C1263 H1253 0.929 . S
C1263 C1261 1.433 . S
C1263 N1266 1.384 . S
C1264 H1255 0.929 . S
C1264 C1256 1.378 . S
C1264 C1259 1.350 . S
C1265 H1252 0.929 . S
C1265 C1257 1.433 . S
C1265 N1267 1.384 . S
N1266 C1262 1.427 . S
N1266 C1263 1.384 . S
N1267 C1259 1.427 . S
N1267 C1265 1.384 . S
H1268 C1274 0.930 . S
H1269 C1278 0.930 . S
H1270 C1283 0.929 . S
H1271 C1281 0.929 . S
H1272 C1276 0.929 . S
H1273 C1282 0.929 . S
C1274 H1268 0.930 . S
C1274 C1275 1.367 . S
C1274 C1282 1.378 . S
C1275 C1274 1.367 . S
C1275 C1283 1.433 . S
C1276 H1272 0.929 . S
C1276 C1278 1.378 . S
C1276 C1280 1.350 . S
C1277 C1280 1.463 . S
C1277 C1282 1.350 . S
C1277 N1285 1.427 . S
C1278 H1269 0.930 . S
C1278 C1276 1.378 . S
C1278 C1279 1.367 . S
C1279 C1278 1.367 . S
C1279 C1281 1.433 . S
C1280 C1276 1.350 . S
C1280 C1277 1.463 . S
C1280 N1284 1.427 . S
C1281 H1271 0.929 . S
C1281 C1279 1.433 . S
C1281 N1284 1.384 . S
C1282 H1273 0.929 . S
C1282 C1274 1.378 . S
C1282 C1277 1.350 . S
C1283 H1270 0.929 . S
C1283 C1275 1.433 . S
C1283 N1285 1.384 . S
N1284 C1280 1.427 . S
N1284 C1281 1.384 . S
N1285 C1277 1.427 . S
N1285 C1283 1.384 . S
H1286 C1292 0.930 . S
H1287 C1296 0.930 . S
H1288 C1301 0.929 . S
H1289 C1299 0.929 . S
H1290 C1294 0.929 . S
H1291 C1300 0.929 . S
C1292 H1286 0.930 . S
C1292 C1293 1.367 . S
C1292 C1300 1.378 . S
C1293 C1292 1.367 . S
C1293 C1301 1.433 . S
C1294 H1290 0.929 . S
C1294 C1296 1.378 . S
C1294 C1298 1.350 . S
C1295 C1298 1.463 . S
C1295 C1300 1.350 . S
C1295 N1303 1.427 . S
C1296 H1287 0.930 . S
C1296 C1294 1.378 . S
C1296 C1297 1.367 . S
C1297 C1296 1.367 . S
C1297 C1299 1.433 . S
C1298 C1294 1.350 . S
C1298 C1295 1.463 . S
C1298 N1302 1.427 . S
C1299 H1289 0.929 . S
C1299 C1297 1.433 . S
C1299 N1302 1.384 . S
C1300 H1291 0.929 . S
C1300 C1292 1.378 . S
C1300 C1295 1.350 . S
C1301 H1288 0.929 . S
C1301 C1293 1.433 . S
C1301 N1303 1.384 . S
N1302 C1298 1.427 . S
N1302 C1299 1.384 . S
N1303 C1295 1.427 . S
N1303 C1301 1.384 . S
H1304 C1310 0.930 . S
H1305 C1314 0.930 . S
H1306 C1319 0.929 . S
H1307 C1317 0.929 . S
H1308 C1312 0.929 . S
H1309 C1318 0.929 . S
C1310 H1304 0.930 . S
C1310 C1311 1.367 . S
C1310 C1318 1.378 . S
C1311 C1310 1.367 . S
C1311 C1319 1.433 . S
C1312 H1308 0.929 . S
C1312 C1314 1.378 . S
C1312 C1316 1.350 . S
C1313 C1316 1.463 . S
C1313 C1318 1.350 . S
C1313 N1321 1.427 . S
C1314 H1305 0.930 . S
C1314 C1312 1.378 . S
C1314 C1315 1.367 . S
C1315 C1314 1.367 . S
C1315 C1317 1.433 . S
C1316 C1312 1.350 . S
C1316 C1313 1.463 . S
C1316 N1320 1.427 . S
C1317 H1307 0.929 . S
C1317 C1315 1.433 . S
C1317 N1320 1.384 . S
C1318 H1309 0.929 . S
C1318 C1310 1.378 . S
C1318 C1313 1.350 . S
C1319 H1306 0.929 . S
C1319 C1311 1.433 . S
C1319 N1321 1.384 . S
N1320 C1316 1.427 . S
N1320 C1317 1.384 . S
N1321 C1313 1.427 . S
N1321 C1319 1.384 . S
H1322 C1328 0.930 . S
H1323 C1332 0.930 . S
H1324 C1337 0.929 . S
H1325 C1335 0.929 . S
H1326 C1330 0.929 . S
H1327 C1336 0.929 . S
C1328 H1322 0.930 . S
C1328 C1329 1.367 . S
C1328 C1336 1.378 . S
C1329 C1328 1.367 . S
C1329 C1337 1.433 . S
C1330 H1326 0.929 . S
C1330 C1332 1.378 . S
C1330 C1334 1.350 . S
C1331 C1334 1.463 . S
C1331 C1336 1.350 . S
C1331 N1339 1.427 . S
C1332 H1323 0.930 . S
C1332 C1330 1.378 . S
C1332 C1333 1.367 . S
C1333 C1332 1.367 . S
C1333 C1335 1.433 . S
C1334 C1330 1.350 . S
C1334 C1331 1.463 . S
C1334 N1338 1.427 . S
C1335 H1325 0.929 . S
C1335 C1333 1.433 . S
C1335 N1338 1.384 . S
C1336 H1327 0.929 . S
C1336 C1328 1.378 . S
C1336 C1331 1.350 . S
C1337 H1324 0.929 . S
C1337 C1329 1.433 . S
C1337 N1339 1.384 . S
N1338 C1334 1.427 . S
N1338 C1335 1.384 . S
N1339 C1331 1.427 . S
N1339 C1337 1.384 . S
H1340 C1346 0.930 . S
H1341 C1350 0.930 . S
H1342 C1355 0.929 . S
H1343 C1353 0.929 . S
H1344 C1348 0.929 . S
H1345 C1354 0.929 . S
C1346 H1340 0.930 . S
C1346 C1347 1.367 . S
C1346 C1354 1.378 . S
C1347 C1346 1.367 . S
C1347 C1355 1.433 . S
C1348 H1344 0.929 . S
C1348 C1350 1.378 . S
C1348 C1352 1.350 . S
C1349 C1352 1.463 . S
C1349 C1354 1.350 . S
C1349 N1357 1.427 . S
C1350 H1341 0.930 . S
C1350 C1348 1.378 . S
C1350 C1351 1.367 . S
C1351 C1350 1.367 . S
C1351 C1353 1.433 . S
C1352 C1348 1.350 . S
C1352 C1349 1.463 . S
C1352 N1356 1.427 . S
C1353 H1343 0.929 . S
C1353 C1351 1.433 . S
C1353 N1356 1.384 . S
C1354 H1345 0.929 . S
C1354 C1346 1.378 . S
C1354 C1349 1.350 . S
C1355 H1342 0.929 . S
C1355 C1347 1.433 . S
C1355 N1357 1.384 . S
N1356 C1352 1.427 . S
N1356 C1353 1.384 . S
N1357 C1349 1.427 . S
N1357 C1355 1.384 . S
H1358 C1364 0.930 . S
H1359 C1368 0.930 . S
H1360 C1373 0.929 . S
H1361 C1371 0.929 . S
H1362 C1366 0.929 . S
H1363 C1372 0.929 . S
C1364 H1358 0.930 . S
C1364 C1365 1.367 . S
C1364 C1372 1.378 . S
C1365 C1364 1.367 . S
C1365 C1373 1.433 . S
C1366 H1362 0.929 . S
C1366 C1368 1.378 . S
C1366 C1370 1.350 . S
C1367 C1370 1.463 . S
C1367 C1372 1.350 . S
C1367 N1375 1.427 . S
C1368 H1359 0.930 . S
C1368 C1366 1.378 . S
C1368 C1369 1.367 . S
C1369 C1368 1.367 . S
C1369 C1371 1.433 . S
C1370 C1366 1.350 . S
C1370 C1367 1.463 . S
C1370 N1374 1.427 . S
C1371 H1361 0.929 . S
C1371 C1369 1.433 . S
C1371 N1374 1.384 . S
C1372 H1363 0.929 . S
C1372 C1364 1.378 . S
C1372 C1367 1.350 . S
C1373 H1360 0.929 . S
C1373 C1365 1.433 . S
C1373 N1375 1.384 . S
N1374 C1370 1.427 . S
N1374 C1371 1.384 . S
N1375 C1367 1.427 . S
N1375 C1373 1.384 . S
H1376 C1382 0.930 . S
H1377 C1386 0.930 . S
H1378 C1391 0.929 . S
H1379 C1389 0.929 . S
H1380 C1384 0.929 . S
H1381 C1390 0.929 . S
C1382 H1376 0.930 . S
C1382 C1383 1.367 . S
C1382 C1390 1.378 . S
C1383 C1382 1.367 . S
C1383 C1391 1.433 . S
C1384 H1380 0.929 . S
C1384 C1386 1.378 . S
C1384 C1388 1.350 . S
C1385 C1388 1.463 1_665 S
C1385 C1390 1.350 . S
C1385 N1393 1.427 . S
C1386 H1377 0.930 . S
C1386 C1384 1.378 . S
C1386 C1387 1.367 . S
C1387 C1386 1.367 . S
C1387 C1389 1.433 . S
C1388 C1384 1.350 . S
C1388 C1385 1.463 1_445 S
C1388 N1392 1.427 . S
C1389 H1379 0.929 . S
C1389 C1387 1.433 . S
C1389 N1392 1.384 . S
C1390 H1381 0.929 . S
C1390 C1382 1.378 . S
C1390 C1385 1.350 . S
C1391 H1378 0.929 . S
C1391 C1383 1.433 . S
C1391 N1393 1.384 . S
N1392 C1388 1.427 . S
N1392 C1389 1.384 . S
N1393 C1385 1.427 . S
N1393 C1391 1.384 . S
H1394 C1400 0.930 . S
H1395 C1404 0.930 . S
H1396 C1409 0.929 1_565 S
H1397 C1407 0.929 1_545 S
H1398 C1402 0.929 . S
H1399 C1408 0.929 . S
C1400 H1394 0.930 . S
C1400 C1401 1.367 . S
C1400 C1408 1.378 . S
C1401 C1400 1.367 . S
C1401 C1409 1.433 . S
C1402 H1398 0.929 . S
C1402 C1404 1.378 . S
C1402 C1406 1.350 . S
C1403 C1406 1.463 1_645 S
C1403 C1408 1.350 . S
C1403 N1411 1.427 1_545 S
C1404 H1395 0.930 . S
C1404 C1402 1.378 . S
C1404 C1405 1.367 . S
C1405 C1404 1.367 . S
C1405 C1407 1.433 . S
C1406 C1402 1.350 . S
C1406 C1403 1.463 1_465 S
C1406 N1410 1.427 1_565 S
C1407 H1397 0.929 1_565 S
C1407 C1405 1.433 . S
C1407 N1410 1.384 1_565 S
C1408 H1399 0.929 . S
C1408 C1400 1.378 . S
C1408 C1403 1.350 . S
C1409 H1396 0.929 1_545 S
C1409 C1401 1.433 . S
C1409 N1411 1.384 1_545 S
N1410 C1406 1.427 1_545 S
N1410 C1407 1.384 1_545 S
N1411 C1403 1.427 1_565 S
N1411 C1409 1.384 1_565 S
H1412 C1418 0.930 1_655 S
H1413 C1422 0.930 1_455 S
H1414 C1427 0.929 . S
H1415 C1425 0.929 . S
H1416 C1420 0.929 . S
H1417 C1426 0.929 . S
C1418 H1412 0.930 1_455 S
C1418 C1419 1.367 . S
C1418 C1426 1.378 1_455 S
C1419 C1418 1.367 . S
C1419 C1427 1.433 . S
C1420 H1416 0.929 . S
C1420 C1422 1.378 1_455 S
C1420 C1424 1.350 1_455 S
C1421 C1424 1.463 1_455 S
C1421 C1426 1.350 1_455 S
C1421 N1429 1.427 . S
C1422 H1413 0.930 1_655 S
C1422 C1420 1.378 1_655 S
C1422 C1423 1.367 . S
C1423 C1422 1.367 . S
C1423 C1425 1.433 . S
C1424 C1420 1.350 1_655 S
C1424 C1421 1.463 1_655 S
C1424 N1428 1.427 . S
C1425 H1415 0.929 . S
C1425 C1423 1.433 . S
C1425 N1428 1.384 . S
C1426 H1417 0.929 . S
C1426 C1418 1.378 1_655 S
C1426 C1421 1.350 1_655 S
C1427 H1414 0.929 . S
C1427 C1419 1.433 . S
C1427 N1429 1.384 . S
N1428 C1424 1.427 . S
N1428 C1425 1.384 . S
N1429 C1421 1.427 . S
N1429 C1427 1.384 . S
H1430 C1436 0.930 . S
H1431 C1440 0.930 . S
H1432 C1445 0.929 . S
H1433 C1443 0.929 . S
H1434 C1438 0.929 1_565 S
H1435 C1444 0.929 1_545 S
C1436 H1430 0.930 . S
C1436 C1437 1.367 . S
C1436 C1444 1.378 . S
C1437 C1436 1.367 . S
C1437 C1445 1.433 . S
C1438 H1434 0.929 1_545 S
C1438 C1440 1.378 . S
C1438 C1442 1.350 . S
C1439 C1442 1.463 1_565 S
C1439 C1444 1.350 . S
C1439 N1447 1.427 . S
C1440 H1431 0.930 . S
C1440 C1438 1.378 . S
C1440 C1441 1.367 . S
C1441 C1440 1.367 . S
C1441 C1443 1.433 . S
C1442 C1438 1.350 . S
C1442 C1439 1.463 1_545 S
C1442 N1446 1.427 . S
C1443 H1433 0.929 . S
C1443 C1441 1.433 . S
C1443 N1446 1.384 . S
C1444 H1435 0.929 1_565 S
C1444 C1436 1.378 . S
C1444 C1439 1.350 . S
C1445 H1432 0.929 . S
C1445 C1437 1.433 . S
C1445 N1447 1.384 . S
N1446 C1442 1.427 . S
N1446 C1443 1.384 . S
N1447 C1439 1.427 . S
N1447 C1445 1.384 . S
H1448 C1454 0.930 . S
H1449 C1458 0.930 . S
H1450 C1463 0.929 . S
H1451 C1461 0.929 . S
H1452 C1456 0.929 . S
H1453 C1462 0.929 . S
C1454 H1448 0.930 . S
C1454 C1455 1.367 . S
C1454 C1462 1.378 . S
C1455 C1454 1.367 . S
C1455 C1463 1.433 . S
C1456 H1452 0.929 . S
C1456 C1458 1.378 . S
C1456 C1460 1.350 . S
C1457 C1460 1.463 . S
C1457 C1462 1.350 . S
C1457 N1465 1.427 . S
C1458 H1449 0.930 . S
C1458 C1456 1.378 . S
C1458 C1459 1.367 . S
C1459 C1458 1.367 . S
C1459 C1461 1.433 . S
C1460 C1456 1.350 . S
C1460 C1457 1.463 . S
C1460 N1464 1.427 . S
C1461 H1451 0.929 . S
C1461 C1459 1.433 . S
C1461 N1464 1.384 . S
C1462 H1453 0.929 . S
C1462 C1454 1.378 . S
C1462 C1457 1.350 . S
C1463 H1450 0.929 . S
C1463 C1455 1.433 . S
C1463 N1465 1.384 . S
N1464 C1460 1.427 . S
N1464 C1461 1.384 . S
N1465 C1457 1.427 . S
N1465 C1463 1.384 . S
H1466 C1472 0.930 . S
H1467 C1476 0.930 . S
H1468 C1481 0.929 . S
H1469 C1479 0.929 . S
H1470 C1474 0.929 . S
H1471 C1480 0.929 . S
C1472 H1466 0.930 . S
C1472 C1473 1.367 . S
C1472 C1480 1.378 . S
C1473 C1472 1.367 . S
C1473 C1481 1.433 . S
C1474 H1470 0.929 . S
C1474 C1476 1.378 . S
C1474 C1478 1.350 . S
C1475 C1478 1.463 . S
C1475 C1480 1.350 . S
C1475 N1483 1.427 . S
C1476 H1467 0.930 . S
C1476 C1474 1.378 . S
C1476 C1477 1.367 . S
C1477 C1476 1.367 . S
C1477 C1479 1.433 . S
C1478 C1474 1.350 . S
C1478 C1475 1.463 . S
C1478 N1482 1.427 . S
C1479 H1469 0.929 . S
C1479 C1477 1.433 . S
C1479 N1482 1.384 . S
C1480 H1471 0.929 . S
C1480 C1472 1.378 . S
C1480 C1475 1.350 . S
C1481 H1468 0.929 . S
C1481 C1473 1.433 . S
C1481 N1483 1.384 . S
N1482 C1478 1.427 . S
N1482 C1479 1.384 . S
N1483 C1475 1.427 . S
N1483 C1481 1.384 . S
H1484 C1490 0.930 . S
H1485 C1494 0.930 . S
H1486 C1499 0.929 . S
H1487 C1497 0.929 . S
H1488 C1492 0.929 . S
H1489 C1498 0.929 . S
C1490 H1484 0.930 . S
C1490 C1491 1.367 . S
C1490 C1498 1.378 . S
C1491 C1490 1.367 . S
C1491 C1499 1.433 . S
C1492 H1488 0.929 . S
C1492 C1494 1.378 . S
C1492 C1496 1.350 . S
C1493 C1496 1.463 1_545 S
C1493 C1498 1.350 . S
C1493 N1501 1.427 . S
C1494 H1485 0.930 . S
C1494 C1492 1.378 . S
C1494 C1495 1.367 . S
C1495 C1494 1.367 . S
C1495 C1497 1.433 . S
C1496 C1492 1.350 . S
C1496 C1493 1.463 1_565 S
C1496 N1500 1.427 . S
C1497 H1487 0.929 . S
C1497 C1495 1.433 . S
C1497 N1500 1.384 . S
C1498 H1489 0.929 . S
C1498 C1490 1.378 . S
C1498 C1493 1.350 . S
C1499 H1486 0.929 . S
C1499 C1491 1.433 . S
C1499 N1501 1.384 . S
N1500 C1496 1.427 . S
N1500 C1497 1.384 . S
N1501 C1493 1.427 . S
N1501 C1499 1.384 . S
H1502 C1508 0.930 . S
H1503 C1512 0.930 . S
H1504 C1517 0.929 . S
H1505 C1515 0.929 . S
H1506 C1510 0.929 . S
H1507 C1516 0.929 . S
C1508 H1502 0.930 . S
C1508 C1509 1.367 . S
C1508 C1516 1.378 . S
C1509 C1508 1.367 . S
C1509 C1517 1.433 . S
C1510 H1506 0.929 . S
C1510 C1512 1.378 . S
C1510 C1514 1.350 . S
C1511 C1514 1.463 1_655 S
C1511 C1516 1.350 . S
C1511 N1519 1.427 . S
C1512 H1503 0.930 . S
C1512 C1510 1.378 . S
C1512 C1513 1.367 . S
C1513 C1512 1.367 . S
C1513 C1515 1.433 . S
C1514 C1510 1.350 . S
C1514 C1511 1.463 1_455 S
C1514 N1518 1.427 . S
C1515 H1505 0.929 . S
C1515 C1513 1.433 . S
C1515 N1518 1.384 . S
C1516 H1507 0.929 . S
C1516 C1508 1.378 . S
C1516 C1511 1.350 . S
C1517 H1504 0.929 . S
C1517 C1509 1.433 . S
C1517 N1519 1.384 . S
N1518 C1514 1.427 . S
N1518 C1515 1.384 . S
N1519 C1511 1.427 . S
N1519 C1517 1.384 . S
C951 C33 1.314 . S
C955 C701 1.319 . S
C969 C524 1.316 . S
C973 C92 1.313 . S
C987 C583 1.318 . S
C991 C151 1.307 . S
C1005 C642 1.319 . S
C1009 C210 1.308 . S
C1023 C347 1.317 1_545 S
C1027 C269 1.306 . S
C1041 C328 1.312 . S
C1045 C406 1.319 1_455 S
C1059 C387 1.313 . S
C1063 C465 1.316 1_565 S
C1077 C446 1.314 . S
C1081 C288 1.318 1_655 S
C1095 C505 1.313 . S
C1099 C229 1.316 1_565 S
C1113 C52 1.315 1_655 S
C1117 C564 1.310 . S
C1131 C111 1.317 1_545 S
C1135 C623 1.307 . S
C1149 C170 1.315 1_455 S
C1153 C682 1.308 . S
C1167 C819 1.317 . S
C1171 C741 1.314 . S
C1185 C800 1.309 . S
C1189 C878 1.315 . S
C1203 C937 1.317 . S
C1207 C859 1.314 . S
C1221 C760 1.317 . S
C1225 C918 1.306 . S
C1239 C831 1.511 . S
C1243 C5 1.510 . S
C1257 C890 1.513 . S
C1261 C64 1.514 . S
C1275 C713 1.509 . S
C1279 C123 1.508 . S
C1293 C182 1.507 . S
C1297 C772 1.507 . S
C1311 C241 1.512 . S
C1315 C595 1.513 . S
C1329 C654 1.514 . S
C1333 C300 1.514 . S
C1347 C359 1.512 . S
C1351 C477 1.513 . S
C1365 C418 1.508 . S
C1369 C536 1.508 . S
C1383 C121 1.371 . S
C1387 C3 1.370 . S
C1401 C180 1.375 . S
C1405 C62 1.376 . S
C1419 C239 1.366 . S
C1423 C357 1.365 . S
C1437 C298 1.368 . S
C1441 C416 1.367 . S
C1455 C593 1.369 . S
C1459 C475 1.368 . S
C1473 C534 1.374 . S
C1477 C652 1.373 . S
C1491 C829 1.376 . S
C1495 C711 1.375 . S
C1509 C770 1.365 . S
C1513 C888 1.365 . S
