# Generated by pormake.
# Topology sml, (6)-cn, num edge types: 1
# Building blocks:
#     Node 0, Type 0, BuildingBlock: JUFBIX_clean_sbu_0, # of connection points: 6
#     Node 1, Type 0, BuildingBlock: JUFBIX_clean_sbu_0, # of connection points: 6
#     Node 2, Type 0, BuildingBlock: JUFBIX_clean_sbu_0, # of connection points: 6
#     Node 3, Type 0, BuildingBlock: JUFBIX_clean_sbu_0, # of connection points: 6
#     Node 4, Type 0, BuildingBlock: JUFBIX_clean_sbu_0, # of connection points: 6
#     Node 5, Type 0, BuildingBlock: JUFBIX_clean_sbu_0, # of connection points: 6
#     Edge 6, Type (0, 0), BuildingBlock: XUDNAN_clean_linker_2, # of connection points: 2
#     Edge 7, Type (0, 0), BuildingBlock: XUDNAN_clean_linker_2, # of connection points: 2
#     Edge 8, Type (0, 0), BuildingBlock: XUDNAN_clean_linker_2, # of connection points: 2
#     Edge 9, Type (0, 0), BuildingBlock: XUDNAN_clean_linker_2, # of connection points: 2
#     Edge 10, Type (0, 0), BuildingBlock: XUDNAN_clean_linker_2, # of connection points: 2
#     Edge 11, Type (0, 0), BuildingBlock: XUDNAN_clean_linker_2, # of connection points: 2
#     Edge 12, Type (0, 0), BuildingBlock: XUDNAN_clean_linker_2, # of connection points: 2
#     Edge 13, Type (0, 0), BuildingBlock: XUDNAN_clean_linker_2, # of connection points: 2
#     Edge 14, Type (0, 0), BuildingBlock: XUDNAN_clean_linker_2, # of connection points: 2
#     Edge 15, Type (0, 0), BuildingBlock: XUDNAN_clean_linker_2, # of connection points: 2
#     Edge 16, Type (0, 0), BuildingBlock: XUDNAN_clean_linker_2, # of connection points: 2
#     Edge 17, Type (0, 0), BuildingBlock: XUDNAN_clean_linker_2, # of connection points: 2
#     Edge 18, Type (0, 0), BuildingBlock: XUDNAN_clean_linker_2, # of connection points: 2
#     Edge 19, Type (0, 0), BuildingBlock: XUDNAN_clean_linker_2, # of connection points: 2
#     Edge 20, Type (0, 0), BuildingBlock: XUDNAN_clean_linker_2, # of connection points: 2
#     Edge 21, Type (0, 0), BuildingBlock: XUDNAN_clean_linker_2, # of connection points: 2
#     Edge 22, Type (0, 0), BuildingBlock: XUDNAN_clean_linker_2, # of connection points: 2
#     Edge 23, Type (0, 0), BuildingBlock: XUDNAN_clean_linker_2, # of connection points: 2
# Relax obj value: 0.291
# Max RMSD: 0.198
# Mean RMSD: 0.198
data_MOF--net-sml--node1-JUFBIX_clean_sbu_0--edge1-XUDNAN_clean_linker_2
_symmetry_space_group_name_H-M    P1
_symmetry_Int_Tables_number       1
_symmetry_cell_setting            triclinic
loop_
_symmetry_equiv_pos_as_xyz
'x, y, z'
_cell_length_a     44.592214
_cell_length_b     44.557836
_cell_length_c     14.669946
_cell_angle_alpha  90.594377
_cell_angle_beta   90.153663
_cell_angle_gamma 120.11032
loop_
_atom_site_label
_atom_site_type_symbol
_atom_site_fract_x
_atom_site_fract_y
_atom_site_fract_z
_atom_type_partial_charge
Co0 Co 0.31216 0.48679 0.02653 0.0
C1 C 0.26966 0.51382 0.05341 0.0
Co2 Co 0.25675 0.44598 0.03019 0.0
C3 C 0.37729 0.54712 0.97064 0.0
C4 C 0.38341 0.51763 0.07596 0.0
N5 N 0.35917 0.51945 0.02499 0.0
N6 N 0.41185 0.56217 -0.01475 0.0
C7 C 0.41568 0.54371 0.05169 0.0
H8 H 0.36551 0.5551 0.91878 0.0
H9 H 0.37802 0.49782 0.12568 0.0
C10 C 0.30069 0.41974 0.00181 0.0
N11 N 0.2099 0.41238 0.03311 0.0
C12 C 0.185 0.41091 0.08848 0.0
C13 C 0.1939 0.38276 -0.01687 0.0
N14 N 0.1543 0.3814 0.07561 0.0
C15 C 0.15983 0.3636 0.00947 0.0
C16 C 0.28008 0.4696 0.85865 0.0
O17 O 0.32332 0.45154 0.01165 0.0
O18 O 0.26877 0.41066 0.00719 0.0
O19 O 0.25362 0.45056 0.90598 0.0
O20 O 0.30925 0.48876 0.89755 0.0
O21 O 0.2459 0.48202 0.05352 0.0
H22 H 0.20634 0.37531 0.93165 0.0
H23 H 0.18955 0.43061 0.13921 0.0
O24 O 0.30093 0.52187 0.04027 0.0
O25 O 0.31405 0.4837 0.15659 0.0
O26 O 0.26004 0.44107 0.15313 0.0
C27 C 0.28762 0.46037 0.19747 0.0
H28 H 0.44017 0.54846 0.07991 0.0
H29 H 0.14055 0.33858 -0.01804 0.0
Co30 Co 0.77467 0.2117 0.44699 0.0
C31 C 0.81955 0.28184 0.41917 0.0
Co32 Co 0.82983 0.22591 0.4407 0.0
C33 C 0.71922 0.22007 0.51014 0.0
C34 C 0.6994 0.17373 0.42924 0.0
N35 N 0.72916 0.20128 0.45936 0.0
N36 N 0.68442 0.20546 0.51428 0.0
C37 C 0.67182 0.17624 0.46283 0.0
H38 H 0.73756 0.24402 0.54414 0.0
H39 H 0.69784 0.1528 0.38764 0.0
C40 C 0.78369 0.15539 0.47091 0.0
N41 N 0.87592 0.23704 0.42961 0.0
C42 C 0.90067 0.26192 0.3773 0.0
C43 C 0.89176 0.22157 0.47008 0.0
N44 N 0.93115 0.26245 0.38325 0.0
C45 C 0.92563 0.23699 0.44129 0.0
C46 C 0.81001 0.22825 0.61396 0.0
O47 O 0.76112 0.16464 0.46338 0.0
O48 O 0.81564 0.17805 0.46243 0.0
O49 O 0.83598 0.23459 0.56546 0.0
O50 O 0.7809 0.21869 0.5759 0.0
O51 O 0.8429 0.27342 0.41928 0.0
H52 H 0.87951 0.20043 0.51754 0.0
H53 H 0.89629 0.27896 0.33426 0.0
O54 O 0.78826 0.25872 0.43144 0.0
O55 O 0.76918 0.20442 0.31723 0.0
O56 O 0.82349 0.21666 0.31711 0.0
C57 C 0.79543 0.20761 0.2744 0.0
H58 H 0.6447 0.15743 0.45192 0.0
H59 H 0.94486 0.23039 0.46248 0.0
Co60 Co 0.60349 0.85349 0.70711 0.0
C61 C 0.58591 0.78489 0.73929 0.0
Co62 Co 0.64821 0.84495 0.70987 0.0
C63 C 0.55117 0.86973 0.64035 0.0
C64 C 0.5405 0.84682 0.77257 0.0
N65 N 0.56462 0.85881 0.70646 0.0
N66 N 0.51961 0.86463 0.66308 0.0
C67 C 0.51288 0.85023 0.74601 0.0
H68 H 0.5631 0.87893 0.57465 0.0
H69 H 0.54188 0.8343 0.83387 0.0
C70 C 0.6658 0.91342 0.67648 0.0
N71 N 0.68624 0.83847 0.71371 0.0
C72 C 0.68982 0.81568 0.76606 0.0
C73 C 0.71636 0.85556 0.66809 0.0
N74 N 0.72087 0.81783 0.75511 0.0
C75 C 0.73778 0.84303 0.69378 0.0
C76 C 0.61854 0.83713 0.53953 0.0
O77 O 0.63316 0.90131 0.67954 0.0
O78 O 0.67778 0.89333 0.69152 0.0
O79 O 0.64407 0.83751 0.57993 0.0
O80 O 0.5977 0.8428 0.58479 0.0
O81 O 0.6181 0.79675 0.72763 0.0
H82 H 0.72238 0.87583 0.61936 0.0
H83 H 0.67016 0.79814 0.81259 0.0
O84 O 0.57406 0.80547 0.73427 0.0
O85 O 0.60957 0.86404 0.83006 0.0
O86 O 0.6515 0.85213 0.83981 0.0
C87 C 0.63098 0.86027 0.87825 0.0
H88 H 0.48887 0.84122 0.78266 0.0
H89 H 0.76349 0.85133 0.66817 0.0
Co90 Co 0.87308 0.5922 0.09825 0.0
C91 C 0.80723 0.57794 0.06113 0.0
Co92 Co 0.87044 0.64046 0.09424 0.0
C93 C 0.86113 0.52596 0.16039 0.0
C94 C 0.90346 0.54935 0.06767 0.0
N95 N 0.87858 0.55375 0.10653 0.0
N96 N 0.87434 0.50443 0.15804 0.0
C97 C 0.90095 0.51919 0.09903 0.0
H98 H 0.83961 0.5223 0.20197 0.0
H99 H 0.92299 0.5676 0.02212 0.0
C100 C 0.9359 0.65398 0.13576 0.0
N101 N 0.86487 0.67904 0.08504 0.0
C102 C 0.84116 0.68124 0.03242 0.0
C103 C 0.8821 0.71004 0.12866 0.0
N104 N 0.84258 0.71205 0.04188 0.0
C105 C 0.86853 0.73047 0.10188 0.0
C106 C 0.86126 0.61434 0.26566 0.0
O107 O 0.92094 0.62124 0.12507 0.0
O108 O 0.91883 0.66937 0.12184 0.0
O109 O 0.86128 0.63789 0.21786 0.0
O110 O 0.86446 0.59042 0.22686 0.0
O111 O 0.82216 0.6108 0.06828 0.0
H112 H 0.90276 0.71714 0.17789 0.0
H113 H 0.82304 0.66055 -0.01235 0.0
O114 O 0.82498 0.56317 0.07281 0.0
O115 O 0.88217 0.59513 0.96946 0.0
O116 O 0.88013 0.64334 0.97114 0.0
C117 C 0.88443 0.62108 0.92773 0.0
H118 H 0.91836 0.50978 0.08175 0.0
H119 H 0.87631 0.75634 0.12682 0.0
Co120 Co 0.23667 0.78309 0.3803 0.0
C121 C 0.30515 0.83365 0.40225 0.0
Co122 Co 0.24398 0.83597 0.37881 0.0
C123 C 0.24433 0.72569 0.3227 0.0
C124 C 0.20586 0.71079 0.42593 0.0
N125 N 0.22961 0.73844 0.37956 0.0
N126 N 0.23028 0.69097 0.32984 0.0
C127 C 0.20619 0.68159 0.39558 0.0
H128 H 0.26439 0.7417 0.27517 0.0
H129 H 0.18831 0.71155 0.47547 0.0
C130 C 0.17519 0.78365 0.35929 0.0
N131 N 0.25081 0.88067 0.37747 0.0
C132 C 0.2725 0.90869 0.429 0.0
C133 C 0.23651 0.8926 0.31714 0.0
N134 N 0.27257 0.93764 0.40209 0.0
C135 C 0.24995 0.92757 0.3318 0.0
C136 C 0.24837 0.81242 0.21015 0.0
O137 O 0.18891 0.76491 0.36876 0.0
O138 O 0.19444 0.81656 0.35948 0.0
O139 O 0.2507 0.83784 0.25514 0.0
O140 O 0.24085 0.78446 0.25049 0.0
O141 O 0.29318 0.85429 0.39809 0.0
H142 H 0.21825 0.87703 0.26402 0.0
H143 H 0.28901 0.9082 0.48251 0.0
O144 O 0.28452 0.80127 0.39296 0.0
O145 O 0.2332 0.78284 0.50968 0.0
O146 O 0.2379 0.83431 0.50315 0.0
C147 C 0.23515 0.80926 0.54961 0.0
H148 H 0.1888 0.65535 0.41738 0.0
H149 H 0.24393 0.94444 0.29294 0.0
Co150 Co 0.49623 0.31659 0.79261 0.0
C151 C 0.5247 0.27553 0.76 0.0
Co152 Co 0.45685 0.26086 0.79 0.0
C153 C 0.55815 0.38157 0.84252 0.0
C154 C 0.52475 0.38821 0.75001 0.0
N155 N 0.52809 0.3638 0.7949 0.0
N156 N 0.57347 0.41617 0.82963 0.0
C157 C 0.55248 0.42034 0.77124 0.0
H158 H 0.56808 0.36944 0.88761 0.0
H159 H 0.50324 0.383 0.70551 0.0
C160 C 0.42861 0.3025 0.8236 0.0
N161 N 0.4249 0.21355 0.78578 0.0
C162 C 0.42085 0.19126 0.71742 0.0
C163 C 0.40013 0.19418 0.84632 0.0
N164 N 0.3943 0.15886 0.73192 0.0
C165 C 0.3813 0.16053 0.81346 0.0
C166 C 0.48417 0.28504 0.95976 0.0
O167 O 0.45982 0.32618 0.81099 0.0
O168 O 0.42091 0.27089 0.81867 0.0
O169 O 0.46448 0.25839 0.91207 0.0
O170 O 0.50064 0.31452 0.92202 0.0
O171 O 0.49315 0.2514 0.76107 0.0
H172 H 0.39556 0.20406 0.90926 0.0
H173 H 0.43704 0.1988 0.65761 0.0
O174 O 0.53222 0.30666 0.77521 0.0
O175 O 0.49136 0.3176 0.66198 0.0
O176 O 0.44944 0.26356 0.66854 0.0
C177 C 0.4682 0.29015 0.62201 0.0
H178 H 0.55687 0.44488 0.74546 0.0
H179 H 0.35898 0.13932 0.84543 0.0
H180 H 0.4399 0.3676 0.85745 0.0
H181 H 0.35813 0.25968 0.84591 0.0
H182 H 0.31547 0.27718 0.89133 0.0
H183 H 0.40975 0.39131 0.05428 0.0
H184 H 0.42247 0.43408 0.01367 0.0
H185 H 0.44579 0.41281 0.97771 0.0
H186 H 0.43426 0.42033 0.80844 0.0
H187 H 0.41108 0.44181 0.8439 0.0
H188 H 0.39035 0.40425 0.76958 0.0
H189 H 0.28174 0.3079 0.93839 0.0
H190 H 0.26106 0.34833 -0.01699 0.0
H191 H 0.36653 0.43462 0.96666 0.0
C192 C 0.41301 0.34752 0.86382 0.0
C193 C 0.40234 0.31226 0.84768 0.0
C194 C 0.36689 0.28689 0.85767 0.0
C195 C 0.3425 0.29659 0.88349 0.0
C196 C 0.35406 0.3317 0.89947 0.0
C197 C 0.38857 0.35667 0.88998 0.0
C198 C 0.39487 0.39255 0.91223 0.0
C199 C 0.41968 0.40861 -0.00564 0.0
C200 C 0.40843 0.41611 0.82855 0.0
C201 C 0.35853 0.38405 0.93585 0.0
C202 C 0.33516 0.34892 0.92792 0.0
C203 C 0.29991 0.33543 0.9451 0.0
C204 C 0.2884 0.35854 0.97052 0.0
C205 C 0.31216 0.39461 -0.02103 0.0
C206 C 0.34762 0.4072 0.96168 0.0
H207 H 0.10837 0.31633 0.13024 0.0
H208 H 0.12818 0.42196 0.12954 0.0
H209 H 0.07219 0.40288 0.20698 0.0
H210 H 1.01656 0.27312 0.09077 0.0
H211 H 1.00702 0.23793 0.16669 0.0
H212 H 0.04823 0.25995 0.11012 0.0
H213 H 0.08001 0.27339 0.26626 0.0
H214 H 0.0389 0.25133 0.3233 0.0
H215 H 0.06998 0.29562 0.35377 0.0
H216 H 1.01238 0.37117 0.27806 0.0
H217 H 0.95658 0.33073 0.35107 0.0
H218 H 0.97789 0.24666 0.31342 0.0
C219 C 0.10079 0.33536 0.14614 0.0
C220 C 0.12236 0.37057 0.12341 0.0
C221 C 0.11199 0.39491 0.14675 0.0
C222 C 0.08021 0.38425 0.19021 0.0
C223 C 0.05939 0.34924 0.21113 0.0
C224 C 0.06952 0.32527 0.19098 0.0
C225 C 0.04308 0.28944 0.22348 0.0
C226 C 1.02782 0.26359 0.14295 0.0
C227 C 0.05895 0.27671 0.29602 0.0
C228 C 1.0163 0.29688 0.26446 0.0
C229 C 1.02596 0.33143 0.25574 0.0
C230 C 1.00474 0.34414 0.2859 0.0
C231 C 0.97306 0.32101 0.32679 0.0
C232 C 0.96313 0.28571 0.33838 0.0
C233 C 0.98511 0.27363 0.30658 0.0
H234 H 0.71757 0.10231 0.50046 0.0
H235 H 0.82488 0.12674 0.50108 0.0
H236 H 0.80641 0.06756 0.5548 0.0
H237 H 0.69284 0.05266 0.70279 0.0
H238 H 0.65004 0.02153 0.66171 0.0
H239 H 0.67147 0.06521 0.61964 0.0
H240 H 0.66394 0.04182 0.45373 0.0
H241 H 0.64219 0.99805 0.49519 0.0
H242 H 0.67971 1.01288 0.42373 0.0
H243 H 0.77617 1.00612 0.61279 0.0
H244 H 0.73655 0.94659 0.6648 0.0
H245 H 0.64905 0.96273 0.62725 0.0
C246 C 0.73724 0.09519 0.51092 0.0
C247 C 0.77273 0.1192 0.49616 0.0
C248 C 0.79756 0.10879 0.51142 0.0
C249 C 0.78731 0.07526 0.54221 0.0
C250 C 0.75217 0.05247 0.55737 0.0
C251 C 0.7275 0.06194 0.54172 0.0
C252 C 0.69146 0.03281 0.56443 0.0
C253 C 0.67553 0.04372 0.64174 0.0
C254 C 0.66795 0.02067 0.47918 0.0
C255 C 0.69966 1.00541 0.59562 0.0
C256 C 0.73481 1.01726 0.5911 0.0
C257 C 0.7486 0.99657 0.61643 0.0
C258 C 0.72584 0.96279 0.64615 0.0
C259 C 0.68963 0.94992 0.65042 0.0
C260 C 0.67656 0.97176 0.62524 0.0
H261 H 0.78677 0.8378 0.80906 0.0
H262 H 0.68193 0.75016 0.79866 0.0
H263 H 0.70198 0.71351 0.87149 0.0
H264 H 0.83095 0.7903 0.76281 0.0
H265 H 0.86624 0.81563 0.84106 0.0
H266 H 0.84375 0.83491 0.78714 0.0
H267 H 0.8306 0.85165 0.94559 0.0
H268 H 0.85303 0.83238 1e-05 0.0
H269 H 0.80877 0.81847 0.02957 0.0
H270 H 0.73357 0.68596 0.94037 0.0
H271 H 0.77407 0.67003 0.0099 0.0
H272 H 0.85828 0.77591 -0.0177 0.0
C273 C 0.76816 0.81085 0.82175 0.0
C274 C 0.7328 0.79674 0.79808 0.0
C275 C 0.70904 0.76151 0.81696 0.0
C276 C 0.72023 0.74048 0.85785 0.0
C277 C 0.75523 0.75517 0.88039 0.0
C278 C 0.77883 0.7896 0.86381 0.0
C279 C 0.81483 0.79908 0.89687 0.0
C280 C 0.84045 0.81066 0.81721 0.0
C281 C 0.82754 0.82705 0.97251 0.0
C282 C 0.80781 0.76453 0.93397 0.0
C283 C 0.77329 0.73952 0.92305 0.0
C284 C 0.76062 0.70535 0.94965 0.0
C285 C 0.78383 0.6965 -0.01141 0.0
C286 C 0.81924 0.72174 0.00148 0.0
C287 C 0.83127 0.75623 0.9741 0.0
H288 H 0.13463 0.79808 0.24378 0.0
H289 H 0.13018 0.72787 0.45304 0.0
H290 H 0.06782 0.69005 0.42407 0.0
H291 H 0.04488 0.78454 0.2848 0.0
H292 H 0.03688 0.78611 0.16491 0.0
H293 H 0.08039 0.8108 0.21022 0.0
H294 H 0.10068 0.78101 0.09311 0.0
H295 H 0.05723 0.75585 0.04837 0.0
H296 H 0.07964 0.73432 0.08916 0.0
H297 H 1.00985 0.65568 0.36019 0.0
H298 H 0.95509 0.62816 0.27361 0.0
H299 H 0.99286 0.71974 0.10625 0.0
C300 C 0.1201 0.7754 0.28544 0.0
C301 C 0.13707 0.76596 0.35125 0.0
C302 C 0.11759 0.73556 0.40266 0.0
C303 C 0.08216 0.71391 0.38672 0.0
C304 C 0.06637 0.72298 0.31917 0.0
C305 C 0.0843 0.75317 0.27005 0.0
C306 C 0.0609 0.75502 0.19715 0.0
C307 C 0.05544 0.78596 0.21538 0.0
C308 C 0.07549 0.75664 0.10128 0.0
C309 C 1.0276 0.72071 0.21159 0.0
C310 C 0.03167 0.70287 0.28257 0.0
C311 C 1.00602 0.66958 0.30554 0.0
C312 C 0.97515 0.65404 0.25528 0.0
C313 C 0.96981 0.67179 0.18326 0.0
C314 C 0.99625 0.70578 0.16156 0.0
H315 H 0.36018 0.09004 0.77353 0.0
H316 H 0.39688 0.16148 0.5474 0.0
H317 H 0.37185 0.11214 0.43908 0.0
H318 H 0.37525 0.02423 0.66692 0.0
H319 H 0.33677 0.9884 0.71397 0.0
H320 H 0.35884 0.02934 0.77463 0.0
H321 H 0.30192 0.03159 0.77813 0.0
H322 H 0.27971 0.9907 0.71753 0.0
H323 H 0.27943 0.02807 0.67272 0.0
H324 H 0.33961 0.05575 0.35509 0.0
H325 H 0.30428 0.99517 0.30018 0.0
H326 H 0.28947 0.95922 0.57866 0.0
C327 C 0.36301 0.09525 0.70124 0.0
C328 C 0.38068 0.12972 0.66912 0.0
C329 C 0.38401 0.13542 0.57388 0.0
C330 C 0.36969 0.10752 0.51168 0.0
C331 C 0.35231 0.07396 0.54554 0.0
C332 C 0.34912 0.0676 0.638 0.0
C333 C 0.32871 0.02891 0.65594 0.0
C334 C 0.35125 1.01703 0.70581 0.0
C335 C 0.29547 1.01926 0.70922 0.0
C336 C 0.32046 1.0146 0.5591 0.0
C337 C 0.33431 0.04113 0.49665 0.0
C338 C 0.32891 0.03473 0.40324 0.0
C339 C 0.30869 1.00031 0.37271 0.0
C340 C 0.2943 0.97264 0.43517 0.0
C341 C 0.30062 0.97991 0.52956 0.0
H342 H 0.32085 0.51431 0.7241 0.0
H343 H 0.2341 0.41077 0.77177 0.0
H344 H 0.23197 0.39648 0.60965 0.0
H345 H 0.28653 0.52492 0.51084 0.0
H346 H 0.32828 0.54895 0.45756 0.0
H347 H 0.3248 0.55096 0.57946 0.0
H348 H 0.37 0.5311 0.59945 0.0
H349 H 0.37316 0.52848 0.47745 0.0
H350 H 0.36224 0.49114 0.54627 0.0
H351 H 0.23833 0.39212 0.44845 0.0
H352 H 0.24682 0.40068 0.28393 0.0
H353 H 0.32746 0.50781 0.33133 0.0
C354 C 0.30144 0.48876 0.69982 0.0
C355 C 0.27766 0.46365 0.76004 0.0
C356 C 0.25236 0.43052 0.72652 0.0
C357 C 0.25116 0.42195 0.63477 0.0
C358 C 0.27513 0.44692 0.57731 0.0
C359 C 0.29931 0.47988 0.60729 0.0
C360 C 0.32001 0.50234 0.52826 0.0
C361 C 0.31456 0.53363 0.51846 0.0
C362 C 0.35865 0.51394 0.53851 0.0
C363 C 0.30337 0.47667 0.44981 0.0
C364 C 0.27804 0.44476 0.4808 0.0
C365 C 0.25803 0.41692 0.4228 0.0
C366 C 0.26304 0.4221 0.32961 0.0
C367 C 0.28763 0.45496 0.29553 0.0
C368 C 0.30879 0.48239 0.35616 0.0
H369 H 0.75736 0.21699 0.13954 0.0
H370 H 0.83411 0.18594 0.18741 0.0
H371 H 0.84488 0.1875 0.02352 0.0
H372 H 0.72451 0.16738 0.91676 0.0
H373 H 0.71834 0.20077 0.86719 0.0
H374 H 0.71335 0.19344 -0.01178 0.0
H375 H 0.75865 0.25818 0.01754 0.0
H376 H 0.76442 0.26552 0.89677 0.0
H377 H 0.80126 0.27607 0.96906 0.0
H378 H 0.85484 0.20128 0.86374 0.0
H379 H 0.85515 0.21505 0.70228 0.0
H380 H 0.76931 0.23334 0.74784 0.0
C381 C 0.77549 0.20942 0.11478 0.0
C382 C 0.79513 0.20163 0.17579 0.0
C383 C 0.81908 0.19233 0.14164 0.0
C384 C 0.82542 0.19313 0.04873 0.0
C385 C 0.8072 0.20274 -0.00936 0.0
C386 C 0.78202 0.20977 0.02114 0.0
C387 C 0.76723 0.22036 0.94254 0.0
C388 C 0.72856 0.1939 0.9278 0.0
C389 C 0.77326 0.25722 0.95742 0.0
C390 C 0.78891 0.21914 0.86456 0.0
C391 C 0.81197 0.20923 0.89482 0.0
C392 C 0.83646 0.20836 0.83831 0.0
C393 C 0.8367 0.21668 0.74699 0.0
C394 C 0.81224 0.22521 0.71287 0.0
C395 C 0.78817 0.22674 0.77247 0.0
H396 H 0.66431 0.84011 0.40686 0.0
H397 H 0.56129 0.82572 0.4477 0.0
H398 H 0.55533 0.83104 0.28431 0.0
H399 H 0.69107 0.90185 0.23654 0.0
H400 H 0.71246 0.88517 0.16548 0.0
H401 H 0.70894 0.8773 0.28623 0.0
H402 H 0.67863 0.81102 0.25628 0.0
H403 H 0.6828 0.8187 0.13534 0.0
H404 H 0.6408 0.79043 0.18331 0.0
H405 H 0.56351 0.84807 0.12824 0.0
H406 H 0.57839 0.86049 0.96837 0.0
H407 H 0.67318 0.85711 0.01369 0.0
C408 C 0.64022 0.83713 0.38077 0.0
C409 C 0.61355 0.83314 0.44018 0.0
C410 C 0.58235 0.82938 0.40385 0.0
C411 C 0.57863 0.83238 0.31101 0.0
C412 C 0.60595 0.83826 0.25495 0.0
C413 C 0.63564 0.83935 0.2869 0.0
C414 C 0.66063 0.84583 0.20928 0.0
C415 C 0.69533 0.87955 0.22539 0.0
C416 C 0.66602 0.81463 0.19521 0.0
C417 C 0.64056 0.84932 0.13023 0.0
C418 C 0.60942 0.84539 0.15965 0.0
C419 C 0.58725 0.85011 0.10314 0.0
C420 C 0.59621 0.85746 0.01226 0.0
C421 C 0.62666 0.85908 -0.02222 0.0
C422 C 0.64955 0.85559 0.03796 0.0
H423 H 0.86834 0.57116 0.7927 0.0
H424 H 0.91279 0.68192 0.84062 0.0
H425 H 0.91202 0.69097 0.67654 0.0
H426 H 0.91542 0.58077 0.5708 0.0
H427 H 0.87878 0.54305 0.52059 0.0
H428 H 0.88651 0.5452 0.64182 0.0
H429 H 0.82431 0.53372 0.66965 0.0
H430 H 0.81669 0.53238 0.54868 0.0
H431 H 0.81112 0.56227 0.62052 0.0
H432 H 0.89795 0.68791 0.51682 0.0
H433 H 0.88235 0.67485 0.35567 0.0
H434 H 0.85058 0.56655 0.3999 0.0
C435 C 0.87896 0.59735 0.76799 0.0
C436 C 0.89038 0.62582 0.82914 0.0
C437 C 0.90362 0.65972 0.7949 0.0
C438 C 0.90331 0.66518 0.70183 0.0
C439 C 0.89018 0.63655 0.64363 0.0
C440 C 0.87915 0.6034 0.67418 0.0
C441 C 0.86534 0.57741 0.59531 0.0
C442 C 0.88786 0.56062 0.5813 0.0
C443 C 0.82709 0.54982 0.60944 0.0
C444 C 0.86931 0.60117 0.51709 0.0
C445 C 0.88344 0.63505 0.5476 0.0
C446 C 0.88759 0.66165 0.49122 0.0
C447 C 0.87817 0.65378 0.39986 0.0
C448 C 0.86526 0.61965 0.36511 0.0
C449 C 0.8605 0.59287 0.4247 0.0
H450 H 0.21535 0.75982 0.68346 0.0
H451 H 0.26897 0.87099 0.6368 0.0
H452 H 0.28376 0.88222 0.79872 0.0
H453 H 0.17735 0.76439 0.89286 0.0
H454 H 0.18116 0.7304 0.94759 0.0
H455 H 0.17726 0.73028 0.82542 0.0
H456 H 0.23414 0.72829 0.80958 0.0
H457 H 0.23841 0.72887 0.93195 0.0
H458 H 0.27317 0.76131 0.86488 0.0
H459 H 0.2917 0.88286 0.96021 0.0
H460 H 0.28604 0.87307 0.1246 0.0
H461 H 0.22546 0.76167 0.07613 0.0
C462 C 0.23025 0.78641 0.70785 0.0
C463 C 0.24097 0.8145 0.64801 0.0
C464 C 0.26017 0.84905 0.6817 0.0
C465 C 0.26914 0.85577 0.77336 0.0
C466 C 0.25848 0.8277 0.83056 0.0
C467 C 0.23899 0.79372 0.80028 0.0
C468 C 0.2284 0.76881 0.87922 0.0
C469 C 0.18869 0.74721 0.8867 0.0
C470 C 0.2445 0.74544 0.87088 0.0
C471 C 0.24436 0.79439 0.95808 0.0
C472 C 0.26222 0.82809 0.92732 0.0
C473 C 0.27796 0.85665 -0.01434 0.0
C474 C 0.27444 0.85078 0.07879 0.0
C475 C 0.25507 0.81664 0.11242 0.0
C476 C 0.24062 0.78796 0.05165 0.0
H477 H 0.50199 0.3398 0.48823 0.0
H478 H 0.42909 0.23005 0.52967 0.0
H479 H 0.43152 0.21815 0.36892 0.0
H480 H 0.46259 0.34117 0.26865 0.0
H481 H 0.50328 0.37191 0.21829 0.0
H482 H 0.49755 0.37268 0.33963 0.0
H483 H 0.55184 0.36675 0.36568 0.0
H484 H 0.55727 0.36522 0.24432 0.0
H485 H 0.55352 0.33062 0.31482 0.0
H486 H 0.4443 0.21565 0.21234 0.0
H487 H 0.4546 0.22437 0.04916 0.0
H488 H 0.51377 0.3362 0.09422 0.0
C489 C 0.48634 0.31343 0.46291 0.0
C490 C 0.46603 0.28583 0.5223 0.0
C491 C 0.44539 0.25169 0.48649 0.0
C492 C 0.44667 0.24445 0.39499 0.0
C493 C 0.4679 0.27172 0.33917 0.0
C494 C 0.48637 0.30569 0.36995 0.0
C495 C 0.50461 0.32996 0.29137 0.0
C496 C 0.49119 0.35543 0.27873 0.0
C497 C 0.54416 0.34928 0.3049 0.0
C498 C 0.49342 0.30396 0.2128 0.0
C499 C 0.47305 0.27056 0.24358 0.0
C500 C 0.45973 0.24167 0.18649 0.0
C501 C 0.46585 0.24699 0.0938 0.0
C502 C 0.48448 0.28102 0.05882 0.0
C503 C 0.49937 0.30994 0.11925 0.0
H504 H 0.23142 0.51777 0.1931 0.0
H505 H 0.29257 0.57315 0.95914 0.0
H506 H 0.28586 0.62346 -0.0001 0.0
H507 H 0.17222 0.5532 0.19551 0.0
H508 H 0.17308 0.5567 0.31812 0.0
H509 H 0.1786 0.52337 0.26362 0.0
H510 H 0.23663 0.54539 0.35114 0.0
H511 H 0.23146 0.57894 0.40524 0.0
H512 H 0.27015 0.59017 0.34168 0.0
H513 H 0.27509 0.66834 0.06945 0.0
H514 H 0.2629 0.70624 0.16527 0.0
H515 H 0.21304 0.62383 0.36315 0.0
C516 C 0.24244 0.54017 0.14927 0.0
C517 C 0.26182 0.54158 0.07194 0.0
C518 C 0.27721 0.57165 0.01787 0.0
C519 C 0.27354 0.60024 0.0405 0.0
C520 C 0.25492 0.59847 0.11834 0.0
C521 C 0.23975 0.56932 0.17228 0.0
C522 C 0.22407 0.57551 0.25695 0.0
C523 C 0.18465 0.55072 0.2586 0.0
C524 C 0.24163 0.57232 0.34386 0.0
C525 C 0.23288 0.61267 0.24214 0.0
C526 C 0.25033 0.6252 0.16133 0.0
C527 C 0.26151 0.65887 0.1331 0.0
C528 C 0.25471 0.6804 0.18892 0.0
C529 C 0.23721 0.66844 0.27302 0.0
C530 C 0.22617 0.63394 0.29936 0.0
H531 H 0.61539 0.18489 0.49825 0.0
H532 H 0.70951 0.25523 0.64897 0.0
H533 H 0.6783 0.27939 0.72936 0.0
H534 H 0.58314 0.24249 0.47235 0.0
H535 H 0.5384 0.21021 0.49013 0.0
H536 H 0.56788 0.19763 0.44378 0.0
H537 H 0.55254 0.15327 0.57335 0.0
H538 H 0.52291 0.16566 0.61997 0.0
H539 H 0.5571 0.16774 0.69042 0.0
H540 H 0.63863 0.2993 0.78607 0.0
H541 H 0.59101 0.3103 0.82394 0.0
H542 H 0.52116 0.22422 0.6482 0.0
C543 C 0.6295 0.20505 0.54875 0.0
C544 C 0.66533 0.21832 0.56524 0.0
C545 C 0.68247 0.24494 0.63226 0.0
C546 C 0.66485 0.25879 0.67939 0.0
C547 C 0.62986 0.24547 0.66035 0.0
C548 C 0.61217 0.2189 0.59764 0.0
C549 C 0.57445 0.20935 0.59043 0.0
C550 C 0.56546 0.21529 0.49342 0.0
C551 C 0.55033 0.17177 0.62035 0.0
C552 C 0.57398 0.23509 0.65796 0.0
C553 C 0.60632 0.25581 0.697 0.0
C554 C 0.61303 0.28291 0.75715 0.0
C555 C 0.58591 0.28903 0.77801 0.0
C556 C 0.55247 0.26781 0.73986 0.0
C557 C 0.54638 0.24033 0.67969 0.0
H558 H 0.41346 0.62035 0.92303 0.0
H559 H 0.47301 0.56794 0.93914 0.0
H560 H 0.52263 0.61786 0.86721 0.0
H561 H 0.44912 0.66402 0.7034 0.0
H562 H 0.44985 0.70321 0.73907 0.0
H563 H 0.41767 0.66199 0.78381 0.0
H564 H 0.43734 0.68567 0.9483 0.0
H565 H 0.4696 0.72686 0.9041 0.0
H566 H 0.48224 0.70366 -0.01945 0.0
H567 H 0.56694 0.6744 0.80406 0.0
H568 H 0.60377 0.73476 0.75458 0.0
H569 H 0.51631 0.75172 0.77966 0.0
C570 C 0.43674 0.61924 0.90956 0.0
C571 C 0.43948 0.59035 0.93665 0.0
C572 C 0.47055 0.58998 0.91968 0.0
C573 C 0.49876 0.61809 0.87833 0.0
C574 C 0.49557 0.64649 0.85417 0.0
C575 C 0.46539 0.64735 0.86886 0.0
C576 C 0.46974 0.68206 0.8415 0.0
C577 C 0.44513 0.67754 0.76222 0.0
C578 C 0.46442 0.70065 0.92351 0.0
C579 C 0.50724 0.7007 0.81114 0.0
C580 C 0.52147 0.67951 0.8181 0.0
C581 C 0.55603 0.69118 0.79739 0.0
C582 C 0.57677 0.72555 0.76942 0.0
C583 C 0.56295 0.74799 0.7628 0.0
C584 C 0.52759 0.73516 0.78322 0.0
H585 H 0.86742 0.32861 0.30109 0.0
H586 H 0.78845 0.31472 0.4953 0.0
H587 H 0.79646 0.37198 0.45546 0.0
H588 H 0.92349 0.42355 0.32908 0.0
H589 H 0.93273 0.42995 0.20903 0.0
H590 H 0.92394 0.38988 0.26092 0.0
H591 H 0.87469 0.35549 0.14297 0.0
H592 H 0.8831 0.3954 0.09122 0.0
H593 H 0.84026 0.3653 0.13145 0.0
H594 H 0.8106 0.42884 0.3896 0.0
H595 H 0.82876 0.4812 0.30028 0.0
H596 H 0.89578 0.45663 0.13967 0.0
C597 C 0.85258 0.33817 0.33677 0.0
C598 C 0.82773 0.31768 0.40224 0.0
C599 C 0.80783 0.3303 0.44551 0.0
C600 C 0.81222 0.36275 0.42342 0.0
C601 C 0.83632 0.38206 0.35706 0.0
C602 C 0.85613 0.37029 0.3141 0.0
C603 C 0.87801 0.3949 0.23981 0.0
C604 C 0.91685 0.4105 0.26101 0.0
C605 C 0.86843 0.37668 0.14582 0.0
C606 C 0.86716 0.4221 0.24744 0.0
C607 C 0.8434 0.41433 0.31613 0.0
C608 C 0.82924 0.43526 0.33554 0.0
C609 C 0.83964 0.46501 0.28343 0.0
C610 C 0.86379 0.47358 0.21156 0.0
C611 C 0.87759 0.45152 0.19399 0.0
H612 H 0.33169 0.79496 0.46661 0.0
H613 H 0.36146 0.90032 0.39346 0.0
H614 H 0.42224 0.91961 0.4395 0.0
H615 H 0.38194 0.81748 0.66625 0.0
H616 H 0.39198 0.78317 0.65453 0.0
H617 H 0.35242 0.77783 0.60655 0.0
H618 H 0.36932 0.76499 0.4479 0.0
H619 H 0.40906 0.7704 0.4954 0.0
H620 H 0.41033 0.79583 0.39917 0.0
H621 H 0.48021 0.92681 0.49952 0.0
H622 H 0.52683 0.922 0.58038 0.0
H623 H 0.45616 0.81259 0.61976 0.0
C624 C 0.35101 0.82204 0.4585 0.0
C625 C 0.34195 0.84607 0.4251 0.0
C626 C 0.36793 0.88142 0.41817 0.0
C627 C 0.40248 0.89254 0.44387 0.0
C628 C 0.41041 0.868 0.47705 0.0
C629 C 0.38515 0.83353 0.48502 0.0
C630 C 0.39907 0.81253 0.52956 0.0
C631 C 0.38024 0.79685 0.61954 0.0
C632 C 0.39681 0.78428 0.46407 0.0
C633 C 0.4362 0.84051 0.54634 0.0
C634 C 0.44266 0.8723 0.51445 0.0
C635 C 0.47534 0.90199 0.52438 0.0
C636 C 0.50166 0.8991 0.56976 0.0
C637 C 0.49477 0.86696 0.60569 0.0
C638 C 0.46186 0.83738 0.59248 0.0
H639 H 0.76809 0.50814 0.01772 0.0
H640 H 0.76207 0.60212 0.04595 0.0
H641 H 0.70095 0.56994 -0.00367 0.0
H642 H 0.71657 0.47674 0.81611 0.0
H643 H 0.69528 0.43168 0.84725 0.0
H644 H 0.73812 0.46138 0.89046 0.0
H645 H 0.71644 0.44433 0.05581 0.0
H646 H 0.6735 0.4145 0.01309 0.0
H647 H 0.67996 0.44786 0.09446 0.0
H648 H 0.64171 0.52892 0.93727 0.0
H649 H 0.5874 0.48112 0.87271 0.0
H650 H 0.63079 0.41313 0.88099 0.0
C651 C 0.75378 0.52183 0.01456 0.0
C652 C 0.76993 0.55768 0.03615 0.0
C653 C 0.75036 0.5747 0.03002 0.0
C654 C 0.71556 0.55663 0.00198 0.0
C655 C 0.70055 0.52148 -0.01967 0.0
C656 C 0.71891 0.50416 -0.01359 0.0
C657 C 0.69675 0.46655 0.9558 0.0
C658 C 0.71263 0.45864 0.87245 0.0
C659 C 0.69135 0.44185 0.0345 0.0
C660 C 0.66324 0.46562 0.93079 0.0
C661 C 0.66609 0.49762 0.94582 0.0
C662 C 0.6391 0.5037 0.92549 0.0
C663 C 0.60842 0.47643 0.88823 0.0
C664 C 0.60483 0.4434 0.87147 0.0
C665 C 0.6326 0.43794 0.89403 0.0
loop_
_geom_bond_atom_site_label_1
_geom_bond_atom_site_label_2
_geom_bond_distance
_geom_bond_site_symmetry_2
_ccdc_geom_bond_type
Co0 N5 2.057 . S
Co0 O17 2.021 . S
Co0 O20 2.062 . S
Co0 O24 2.117 1_556 S
Co0 O25 2.020 1_556 S
C1 O21 1.259 . S
C1 O24 1.258 . S
Co2 N11 2.057 . S
Co2 O18 2.117 1_554 S
Co2 O19 2.020 1_554 S
Co2 O21 2.021 . S
Co2 O26 2.062 . S
C3 N5 1.316 . S
C3 N6 1.347 . S
C3 H8 0.931 . S
C4 N5 1.375 . S
C4 C7 1.350 . S
C4 H9 0.933 . S
N5 Co0 2.057 . S
N5 C3 1.316 . S
N5 C4 1.375 . S
N6 C3 1.347 . S
N6 C7 1.373 . S
C7 C4 1.350 . S
C7 N6 1.373 . S
C7 H28 0.931 . S
H8 C3 0.931 . S
H9 C4 0.933 . S
C10 O17 1.259 . S
C10 O18 1.258 . S
N11 Co2 2.057 . S
N11 C12 1.316 . S
N11 C13 1.375 . S
C12 N11 1.316 . S
C12 N14 1.347 . S
C12 H23 0.931 . S
C13 N11 1.375 . S
C13 C15 1.350 . S
C13 H22 0.930 . S
N14 C12 1.347 . S
N14 C15 1.373 . S
C15 C13 1.350 . S
C15 N14 1.373 . S
C15 H29 0.931 . S
C16 O19 1.256 . S
C16 O20 1.255 . S
O17 Co0 2.021 . S
O17 C10 1.259 . S
O18 Co2 2.117 1_556 S
O18 C10 1.258 . S
O19 Co2 2.020 1_556 S
O19 C16 1.256 . S
O20 Co0 2.062 . S
O20 C16 1.255 . S
O21 C1 1.259 . S
O21 Co2 2.021 . S
H22 C13 0.930 . S
H23 C12 0.931 . S
O24 Co0 2.117 1_554 S
O24 C1 1.258 . S
O25 Co0 2.020 1_554 S
O25 C27 1.256 . S
O26 Co2 2.062 . S
O26 C27 1.255 . S
C27 O25 1.256 . S
C27 O26 1.255 . S
H28 C7 0.931 . S
H29 C15 0.931 . S
Co30 N35 2.057 . S
Co30 O47 2.021 . S
Co30 O50 2.062 . S
Co30 O54 2.117 . S
Co30 O55 2.020 . S
C31 O51 1.259 . S
C31 O54 1.258 . S
Co32 N41 2.057 . S
Co32 O48 2.117 . S
Co32 O49 2.020 . S
Co32 O51 2.021 . S
Co32 O56 2.062 . S
C33 N35 1.316 . S
C33 N36 1.347 . S
C33 H38 0.931 . S
C34 N35 1.375 . S
C34 C37 1.350 . S
C34 H39 0.930 . S
N35 Co30 2.057 . S
N35 C33 1.316 . S
N35 C34 1.375 . S
N36 C33 1.347 . S
N36 C37 1.373 . S
C37 C34 1.350 . S
C37 N36 1.373 . S
C37 H58 0.931 . S
H38 C33 0.931 . S
H39 C34 0.930 . S
C40 O47 1.259 . S
C40 O48 1.258 . S
N41 Co32 2.057 . S
N41 C42 1.316 . S
N41 C43 1.375 . S
C42 N41 1.316 . S
C42 N44 1.347 . S
C42 H53 0.931 . S
C43 N41 1.375 . S
C43 C45 1.350 . S
C43 H52 0.930 . S
N44 C42 1.347 . S
N44 C45 1.373 . S
C45 C43 1.350 . S
C45 N44 1.373 . S
C45 H59 0.931 . S
C46 O49 1.256 . S
C46 O50 1.255 . S
O47 Co30 2.021 . S
O47 C40 1.259 . S
O48 Co32 2.117 . S
O48 C40 1.258 . S
O49 Co32 2.020 . S
O49 C46 1.256 . S
O50 Co30 2.062 . S
O50 C46 1.255 . S
O51 C31 1.259 . S
O51 Co32 2.021 . S
H52 C43 0.930 . S
H53 C42 0.931 . S
O54 Co30 2.117 . S
O54 C31 1.258 . S
O55 Co30 2.020 . S
O55 C57 1.256 . S
O56 Co32 2.062 . S
O56 C57 1.255 . S
C57 O55 1.256 . S
C57 O56 1.255 . S
H58 C37 0.931 . S
H59 C45 0.931 . S
Co60 N65 2.057 . S
Co60 O77 2.021 . S
Co60 O80 2.062 . S
Co60 O84 2.117 . S
Co60 O85 2.020 . S
C61 O81 1.259 . S
C61 O84 1.258 . S
Co62 N71 2.057 . S
Co62 O78 2.117 . S
Co62 O79 2.020 . S
Co62 O81 2.021 . S
Co62 O86 2.062 . S
C63 N65 1.316 . S
C63 N66 1.347 . S
C63 H68 0.931 . S
C64 N65 1.375 . S
C64 C67 1.350 . S
C64 H69 0.930 . S
N65 Co60 2.057 . S
N65 C63 1.316 . S
N65 C64 1.375 . S
N66 C63 1.347 . S
N66 C67 1.373 . S
C67 C64 1.350 . S
C67 N66 1.373 . S
C67 H88 0.931 . S
H68 C63 0.931 . S
H69 C64 0.930 . S
C70 O77 1.259 . S
C70 O78 1.258 . S
N71 Co62 2.057 . S
N71 C72 1.316 . S
N71 C73 1.375 . S
C72 N71 1.316 . S
C72 N74 1.347 . S
C72 H83 0.931 . S
C73 N71 1.375 . S
C73 C75 1.350 . S
C73 H82 0.930 . S
N74 C72 1.347 . S
N74 C75 1.373 . S
C75 C73 1.350 . S
C75 N74 1.373 . S
C75 H89 0.931 . S
C76 O79 1.256 . S
C76 O80 1.255 . S
O77 Co60 2.021 . S
O77 C70 1.259 . S
O78 Co62 2.117 . S
O78 C70 1.258 . S
O79 Co62 2.020 . S
O79 C76 1.256 . S
O80 Co60 2.062 . S
O80 C76 1.255 . S
O81 C61 1.259 . S
O81 Co62 2.021 . S
H82 C73 0.930 . S
H83 C72 0.931 . S
O84 Co60 2.117 . S
O84 C61 1.258 . S
O85 Co60 2.020 . S
O85 C87 1.256 . S
O86 Co62 2.062 . S
O86 C87 1.255 . S
C87 O85 1.256 . S
C87 O86 1.255 . S
H88 C67 0.931 . S
H89 C75 0.931 . S
Co90 N95 2.057 . S
Co90 O107 2.021 . S
Co90 O110 2.062 . S
Co90 O114 2.117 . S
Co90 O115 2.020 . S
C91 O111 1.259 . S
C91 O114 1.258 . S
Co92 N101 2.057 . S
Co92 O108 2.117 . S
Co92 O109 2.020 . S
Co92 O111 2.021 . S
Co92 O116 2.062 . S
C93 N95 1.316 . S
C93 N96 1.347 . S
C93 H98 0.931 . S
C94 N95 1.375 . S
C94 C97 1.350 . S
C94 H99 0.930 . S
N95 Co90 2.057 . S
N95 C93 1.316 . S
N95 C94 1.375 . S
N96 C93 1.347 . S
N96 C97 1.373 . S
C97 C94 1.350 . S
C97 N96 1.373 . S
C97 H118 0.931 . S
H98 C93 0.931 . S
H99 C94 0.930 . S
C100 O107 1.259 . S
C100 O108 1.258 . S
N101 Co92 2.057 . S
N101 C102 1.316 . S
N101 C103 1.375 . S
C102 N101 1.316 . S
C102 N104 1.347 . S
C102 H113 0.931 . S
C103 N101 1.375 . S
C103 C105 1.350 . S
C103 H112 0.930 . S
N104 C102 1.347 . S
N104 C105 1.373 . S
C105 C103 1.350 . S
C105 N104 1.373 . S
C105 H119 0.931 . S
C106 O109 1.256 . S
C106 O110 1.255 . S
O107 Co90 2.021 . S
O107 C100 1.259 . S
O108 Co92 2.117 . S
O108 C100 1.258 . S
O109 Co92 2.020 . S
O109 C106 1.256 . S
O110 Co90 2.062 . S
O110 C106 1.255 . S
O111 C91 1.259 . S
O111 Co92 2.021 . S
H112 C103 0.930 . S
H113 C102 0.931 . S
O114 Co90 2.117 . S
O114 C91 1.258 . S
O115 Co90 2.020 . S
O115 C117 1.256 . S
O116 Co92 2.062 . S
O116 C117 1.255 . S
C117 O115 1.256 . S
C117 O116 1.255 . S
H118 C97 0.931 . S
H119 C105 0.931 . S
Co120 N125 2.057 . S
Co120 O137 2.021 . S
Co120 O140 2.062 . S
Co120 O144 2.117 . S
Co120 O145 2.020 . S
C121 O141 1.259 . S
C121 O144 1.258 . S
Co122 N131 2.057 . S
Co122 O138 2.117 . S
Co122 O139 2.020 . S
Co122 O141 2.021 . S
Co122 O146 2.062 . S
C123 N125 1.316 . S
C123 N126 1.347 . S
C123 H128 0.931 . S
C124 N125 1.375 . S
C124 C127 1.350 . S
C124 H129 0.930 . S
N125 Co120 2.057 . S
N125 C123 1.316 . S
N125 C124 1.375 . S
N126 C123 1.347 . S
N126 C127 1.373 . S
C127 C124 1.350 . S
C127 N126 1.373 . S
C127 H148 0.931 . S
H128 C123 0.931 . S
H129 C124 0.930 . S
C130 O137 1.259 . S
C130 O138 1.258 . S
N131 Co122 2.057 . S
N131 C132 1.316 . S
N131 C133 1.375 . S
C132 N131 1.316 . S
C132 N134 1.347 . S
C132 H143 0.931 . S
C133 N131 1.375 . S
C133 C135 1.350 . S
C133 H142 0.930 . S
N134 C132 1.347 . S
N134 C135 1.373 . S
C135 C133 1.350 . S
C135 N134 1.373 . S
C135 H149 0.931 . S
C136 O139 1.256 . S
C136 O140 1.255 . S
O137 Co120 2.021 . S
O137 C130 1.259 . S
O138 Co122 2.117 . S
O138 C130 1.258 . S
O139 Co122 2.020 . S
O139 C136 1.256 . S
O140 Co120 2.062 . S
O140 C136 1.255 . S
O141 C121 1.259 . S
O141 Co122 2.021 . S
H142 C133 0.930 . S
H143 C132 0.931 . S
O144 Co120 2.117 . S
O144 C121 1.258 . S
O145 Co120 2.020 . S
O145 C147 1.256 . S
O146 Co122 2.062 . S
O146 C147 1.255 . S
C147 O145 1.256 . S
C147 O146 1.255 . S
H148 C127 0.931 . S
H149 C135 0.931 . S
Co150 N155 2.057 . S
Co150 O167 2.021 . S
Co150 O170 2.062 1_556 S
Co150 O174 2.117 . S
Co150 O175 2.020 . S
C151 O171 1.259 . S
C151 O174 1.258 . S
Co152 N161 2.057 . S
Co152 O168 2.117 . S
Co152 O169 2.020 . S
Co152 O171 2.021 . S
Co152 O176 2.062 . S
C153 N155 1.316 . S
C153 N156 1.347 . S
C153 H158 0.931 . S
C154 N155 1.375 . S
C154 C157 1.350 . S
C154 H159 0.930 . S
N155 Co150 2.057 . S
N155 C153 1.316 . S
N155 C154 1.375 . S
N156 C153 1.347 . S
N156 C157 1.373 . S
C157 C154 1.350 . S
C157 N156 1.373 . S
C157 H178 0.931 . S
H158 C153 0.931 . S
H159 C154 0.930 . S
C160 O167 1.259 . S
C160 O168 1.258 . S
N161 Co152 2.057 . S
N161 C162 1.316 . S
N161 C163 1.375 . S
C162 N161 1.316 . S
C162 N164 1.347 . S
C162 H173 0.931 . S
C163 N161 1.375 . S
C163 C165 1.350 . S
C163 H172 0.930 . S
N164 C162 1.347 . S
N164 C165 1.373 . S
C165 C163 1.350 . S
C165 N164 1.373 . S
C165 H179 0.931 . S
C166 O169 1.256 1_554 S
C166 O170 1.255 . S
O167 Co150 2.021 . S
O167 C160 1.259 . S
O168 Co152 2.117 . S
O168 C160 1.258 . S
O169 Co152 2.020 . S
O169 C166 1.256 1_556 S
O170 Co150 2.062 1_554 S
O170 C166 1.255 . S
O171 C151 1.259 . S
O171 Co152 2.021 . S
H172 C163 0.930 . S
H173 C162 0.931 . S
O174 Co150 2.117 . S
O174 C151 1.258 . S
O175 Co150 2.020 . S
O175 C177 1.256 . S
O176 Co152 2.062 . S
O176 C177 1.255 . S
C177 O175 1.256 . S
C177 O176 1.255 . S
H178 C157 0.931 . S
H179 C165 0.931 . S
H180 C192 0.930 . S
H181 C194 0.930 1_554 S
H182 C195 0.930 . S
H183 C199 0.959 . S
H184 C199 0.959 . S
H185 C199 0.961 . S
H186 C200 0.960 . S
H187 C200 0.961 . S
H188 C200 0.959 . S
H189 C203 0.929 . S
H190 C204 0.931 . S
H191 C206 0.930 . S
C192 H180 0.930 . S
C192 C193 1.399 . S
C192 C197 1.399 . S
C193 C192 1.399 . S
C193 C194 1.376 . S
C194 H181 0.930 1_556 S
C194 C193 1.376 . S
C194 C195 1.388 1_556 S
C195 H182 0.930 . S
C195 C194 1.388 1_554 S
C195 C196 1.390 1_554 S
C196 C195 1.390 1_556 S
C196 C197 1.394 . S
C196 C202 1.465 . S
C197 C192 1.399 . S
C197 C196 1.394 . S
C197 C198 1.516 . S
C198 C197 1.516 . S
C198 C199 1.502 . S
C198 C200 1.561 . S
C198 C201 1.526 . S
C199 H183 0.959 . S
C199 H184 0.959 . S
C199 H185 0.961 . S
C199 C198 1.502 . S
C200 H186 0.960 . S
C200 H187 0.961 . S
C200 H188 0.959 . S
C200 C198 1.561 . S
C201 C198 1.526 . S
C201 C202 1.396 . S
C201 C206 1.390 . S
C202 C196 1.465 . S
C202 C201 1.396 . S
C202 C203 1.399 1_556 S
C203 H189 0.929 . S
C203 C202 1.399 1_554 S
C203 C204 1.385 . S
C204 H190 0.931 . S
C204 C203 1.385 . S
C204 C205 1.389 1_554 S
C205 C204 1.389 1_556 S
C205 C206 1.387 . S
C206 H191 0.930 . S
C206 C201 1.390 . S
C206 C205 1.387 . S
H207 C219 0.930 . S
H208 C221 0.930 . S
H209 C222 0.930 . S
H210 C226 0.959 . S
H211 C226 0.959 . S
H212 C226 0.971 . S
H213 C227 0.960 . S
H214 C227 0.961 1_655 S
H215 C227 0.959 . S
H216 C230 0.929 . S
H217 C231 0.931 . S
H218 C233 0.930 . S
C219 H207 0.930 . S
C219 C220 1.399 . S
C219 C224 1.399 . S
C220 C219 1.399 . S
C220 C221 1.376 . S
C221 H208 0.930 . S
C221 C220 1.376 . S
C221 C222 1.388 . S
C222 H209 0.930 . S
C222 C221 1.388 . S
C222 C223 1.390 . S
C223 C222 1.390 . S
C223 C224 1.394 . S
C223 C229 1.465 . S
C224 C219 1.399 . S
C224 C223 1.394 . S
C224 C225 1.516 . S
C225 C224 1.516 . S
C225 C226 1.502 1_455 S
C225 C227 1.561 . S
C225 C228 1.526 1_455 S
C226 H210 0.959 . S
C226 H211 0.959 . S
C226 H212 0.971 . S
C226 C225 1.502 1_655 S
C227 H213 0.960 . S
C227 H214 0.961 1_455 S
C227 H215 0.959 . S
C227 C225 1.561 . S
C228 C225 1.526 1_655 S
C228 C229 1.396 1_655 S
C228 C233 1.390 . S
C229 C223 1.465 . S
C229 C228 1.396 1_455 S
C229 C230 1.399 . S
C230 H216 0.929 . S
C230 C229 1.399 . S
C230 C231 1.385 1_455 S
C231 H217 0.931 . S
C231 C230 1.385 1_655 S
C231 C232 1.389 . S
C232 C231 1.389 . S
C232 C233 1.387 . S
C233 H218 0.930 . S
C233 C228 1.390 . S
C233 C232 1.387 . S
H234 C246 0.930 . S
H235 C248 0.930 . S
H236 C249 0.930 . S
H237 C253 0.959 . S
H238 C253 0.959 . S
H239 C253 0.961 . S
H240 C254 0.960 . S
H241 C254 0.961 . S
H242 C254 0.959 . S
H243 C257 0.929 . S
H244 C258 0.931 . S
H245 C260 0.930 . S
C246 H234 0.930 . S
C246 C247 1.399 . S
C246 C251 1.399 . S
C247 C246 1.399 . S
C247 C248 1.376 . S
C248 H235 0.930 . S
C248 C247 1.376 . S
C248 C249 1.388 . S
C249 H236 0.930 . S
C249 C248 1.388 . S
C249 C250 1.390 . S
C250 C249 1.390 . S
C250 C251 1.394 . S
C250 C256 1.465 . S
C251 C246 1.399 . S
C251 C250 1.394 . S
C251 C252 1.516 . S
C252 C251 1.516 . S
C252 C253 1.502 . S
C252 C254 1.561 . S
C252 C255 1.526 1_545 S
C253 H237 0.959 . S
C253 H238 0.959 . S
C253 H239 0.961 . S
C253 C252 1.502 . S
C254 H240 0.960 . S
C254 H241 0.961 . S
C254 H242 0.959 . S
C254 C252 1.561 . S
C255 C252 1.526 1_565 S
C255 C256 1.396 1_565 S
C255 C260 1.390 . S
C256 C250 1.465 . S
C256 C255 1.396 1_545 S
C256 C257 1.399 1_545 S
C257 H243 0.929 . S
C257 C256 1.399 1_565 S
C257 C258 1.385 . S
C258 H244 0.931 . S
C258 C257 1.385 . S
C258 C259 1.389 . S
C259 C258 1.389 . S
C259 C260 1.387 . S
C260 H245 0.930 . S
C260 C255 1.390 . S
C260 C259 1.387 . S
H261 C273 0.930 . S
H262 C275 0.930 . S
H263 C276 0.930 . S
H264 C280 0.959 . S
H265 C280 0.959 1_554 S
H266 C280 0.961 . S
H267 C281 0.960 . S
H268 C281 0.961 . S
H269 C281 0.959 . S
H270 C284 0.929 . S
H271 C285 0.931 . S
H272 C287 0.930 . S
C273 H261 0.930 . S
C273 C274 1.399 . S
C273 C278 1.399 . S
C274 C273 1.399 . S
C274 C275 1.376 . S
C275 H262 0.930 . S
C275 C274 1.376 . S
C275 C276 1.388 . S
C276 H263 0.930 . S
C276 C275 1.388 . S
C276 C277 1.390 . S
C277 C276 1.390 . S
C277 C278 1.394 . S
C277 C283 1.465 . S
C278 C273 1.399 . S
C278 C277 1.394 . S
C278 C279 1.516 . S
C279 C278 1.516 . S
C279 C280 1.502 . S
C279 C281 1.561 1_556 S
C279 C282 1.525 1_556 S
C280 H264 0.959 . S
C280 H265 0.959 1_556 S
C280 H266 0.961 . S
C280 C279 1.502 . S
C281 H267 0.960 . S
C281 H268 0.961 . S
C281 H269 0.959 . S
C281 C279 1.561 1_554 S
C282 C279 1.525 1_554 S
C282 C283 1.392 1_554 S
C282 C287 1.393 . S
C283 C277 1.465 . S
C283 C282 1.392 1_556 S
C283 C284 1.399 . S
C284 H270 0.929 . S
C284 C283 1.399 . S
C284 C285 1.385 . S
C285 H271 0.931 . S
C285 C284 1.385 . S
C285 C286 1.389 1_556 S
C286 C285 1.389 1_554 S
C286 C287 1.387 . S
C287 H272 0.930 . S
C287 C282 1.393 . S
C287 C286 1.387 . S
H288 C300 0.930 . S
H289 C302 0.930 . S
H290 C303 0.930 . S
H291 C307 0.959 . S
H292 C307 0.959 . S
H293 C307 0.961 . S
H294 C308 0.960 . S
H295 C308 0.961 . S
H296 C308 0.959 . S
H297 C311 0.929 . S
H298 C312 0.931 . S
H299 C314 0.930 . S
C300 H288 0.930 . S
C300 C301 1.399 . S
C300 C305 1.399 . S
C301 C300 1.399 . S
C301 C302 1.376 . S
C302 H289 0.930 . S
C302 C301 1.376 . S
C302 C303 1.388 . S
C303 H290 0.930 . S
C303 C302 1.388 . S
C303 C304 1.390 . S
C304 C303 1.390 . S
C304 C305 1.394 . S
C304 C310 1.465 . S
C305 C300 1.399 . S
C305 C304 1.394 . S
C305 C306 1.516 . S
C306 C305 1.516 . S
C306 C307 1.502 . S
C306 C308 1.561 . S
C306 C309 1.526 1_455 S
C307 H291 0.959 . S
C307 H292 0.959 . S
C307 H293 0.961 . S
C307 C306 1.502 . S
C308 H294 0.960 . S
C308 H295 0.961 . S
C308 H296 0.959 . S
C308 C306 1.561 . S
C309 C306 1.526 1_655 S
C309 C310 1.396 1_655 S
C309 C314 1.390 . S
C310 C304 1.465 . S
C310 C309 1.396 1_455 S
C310 C311 1.399 1_455 S
C311 H297 0.929 . S
C311 C310 1.399 1_655 S
C311 C312 1.385 . S
C312 H298 0.931 . S
C312 C311 1.385 . S
C312 C313 1.389 . S
C313 C312 1.389 . S
C313 C314 1.387 . S
C314 H299 0.930 . S
C314 C309 1.390 . S
C314 C313 1.387 . S
H315 C327 0.930 . S
H316 C329 0.930 . S
H317 C330 0.930 . S
H318 C334 0.959 . S
H319 C334 0.959 1_565 S
H320 C334 0.961 . S
H321 C335 0.960 . S
H322 C335 0.961 . S
H323 C335 0.959 . S
H324 C338 0.929 . S
H325 C339 0.931 . S
H326 C341 0.930 . S
C327 H315 0.930 . S
C327 C328 1.399 . S
C327 C332 1.399 . S
C328 C327 1.399 . S
C328 C329 1.376 . S
C329 H316 0.930 . S
C329 C328 1.376 . S
C329 C330 1.388 . S
C330 H317 0.930 . S
C330 C329 1.388 . S
C330 C331 1.390 . S
C331 C330 1.390 . S
C331 C332 1.394 . S
C331 C337 1.465 . S
C332 C327 1.399 . S
C332 C331 1.394 . S
C332 C333 1.516 . S
C333 C332 1.516 . S
C333 C334 1.502 . S
C333 C335 1.561 1_545 S
C333 C336 1.526 1_545 S
C334 H318 0.959 . S
C334 H319 0.959 1_545 S
C334 H320 0.961 . S
C334 C333 1.502 . S
C335 H321 0.960 . S
C335 H322 0.961 . S
C335 H323 0.959 . S
C335 C333 1.561 1_565 S
C336 C333 1.526 1_565 S
C336 C337 1.396 1_565 S
C336 C341 1.390 . S
C337 C331 1.465 . S
C337 C336 1.396 1_545 S
C337 C338 1.399 . S
C338 H324 0.929 . S
C338 C337 1.399 . S
C338 C339 1.385 1_545 S
C339 H325 0.931 . S
C339 C338 1.385 1_565 S
C339 C340 1.389 . S
C340 C339 1.389 . S
C340 C341 1.387 . S
C341 H326 0.930 . S
C341 C336 1.390 . S
C341 C340 1.387 . S
H342 C354 0.930 . S
H343 C356 0.930 . S
H344 C357 0.930 . S
H345 C361 0.959 . S
H346 C361 0.959 . S
H347 C361 0.961 . S
H348 C362 0.960 . S
H349 C362 0.961 . S
H350 C362 0.959 . S
H351 C365 0.929 . S
H352 C366 0.931 . S
H353 C368 0.930 . S
C354 H342 0.930 . S
C354 C355 1.399 . S
C354 C359 1.399 . S
C355 C354 1.399 . S
C355 C356 1.376 . S
C356 H343 0.930 . S
C356 C355 1.376 . S
C356 C357 1.388 . S
C357 H344 0.930 . S
C357 C356 1.388 . S
C357 C358 1.390 . S
C358 C357 1.390 . S
C358 C359 1.394 . S
C358 C364 1.465 . S
C359 C354 1.399 . S
C359 C358 1.394 . S
C359 C360 1.516 . S
C360 C359 1.516 . S
C360 C361 1.502 . S
C360 C362 1.561 . S
C360 C363 1.526 . S
C361 H345 0.959 . S
C361 H346 0.959 . S
C361 H347 0.961 . S
C361 C360 1.502 . S
C362 H348 0.960 . S
C362 H349 0.961 . S
C362 H350 0.959 . S
C362 C360 1.561 . S
C363 C360 1.526 . S
C363 C364 1.396 . S
C363 C368 1.390 . S
C364 C358 1.465 . S
C364 C363 1.396 . S
C364 C365 1.399 . S
C365 H351 0.929 . S
C365 C364 1.399 . S
C365 C366 1.385 . S
C366 H352 0.931 . S
C366 C365 1.385 . S
C366 C367 1.389 . S
C367 C366 1.389 . S
C367 C368 1.387 . S
C368 H353 0.930 . S
C368 C363 1.390 . S
C368 C367 1.387 . S
H369 C381 0.930 . S
H370 C383 0.930 . S
H371 C384 0.930 . S
H372 C388 0.959 . S
H373 C388 0.959 1_556 S
H374 C388 0.961 . S
H375 C389 0.960 . S
H376 C389 0.961 1_556 S
H377 C389 0.959 . S
H378 C392 0.929 . S
H379 C393 0.931 . S
H380 C395 0.930 . S
C381 H369 0.930 . S
C381 C382 1.399 . S
C381 C386 1.399 . S
C382 C381 1.399 . S
C382 C383 1.376 . S
C383 H370 0.930 . S
C383 C382 1.376 . S
C383 C384 1.388 . S
C384 H371 0.930 . S
C384 C383 1.388 . S
C384 C385 1.390 . S
C385 C384 1.390 . S
C385 C386 1.394 . S
C385 C391 1.465 1_554 S
C386 C381 1.399 . S
C386 C385 1.394 . S
C386 C387 1.516 . S
C387 C386 1.516 . S
C387 C388 1.502 . S
C387 C389 1.561 . S
C387 C390 1.526 1_554 S
C388 H372 0.959 . S
C388 H373 0.959 1_554 S
C388 H374 0.961 . S
C388 C387 1.502 . S
C389 H375 0.960 . S
C389 H376 0.961 1_554 S
C389 H377 0.959 . S
C389 C387 1.561 . S
C390 C387 1.526 1_556 S
C390 C391 1.396 . S
C390 C395 1.390 . S
C391 C385 1.465 1_556 S
C391 C390 1.396 . S
C391 C392 1.399 . S
C392 H378 0.929 . S
C392 C391 1.399 . S
C392 C393 1.385 . S
C393 H379 0.931 . S
C393 C392 1.385 . S
C393 C394 1.389 . S
C394 C393 1.389 . S
C394 C395 1.387 . S
C395 H380 0.930 . S
C395 C390 1.390 . S
C395 C394 1.387 . S
H396 C408 0.930 . S
H397 C410 0.930 . S
H398 C411 0.930 . S
H399 C415 0.959 . S
H400 C415 0.959 . S
H401 C415 0.961 . S
H402 C416 0.960 . S
H403 C416 0.961 . S
H404 C416 0.959 . S
H405 C419 0.929 . S
H406 C420 0.931 . S
H407 C422 0.930 . S
C408 H396 0.930 . S
C408 C409 1.399 . S
C408 C413 1.399 . S
C409 C408 1.399 . S
C409 C410 1.376 . S
C410 H397 0.930 . S
C410 C409 1.376 . S
C410 C411 1.388 . S
C411 H398 0.930 . S
C411 C410 1.388 . S
C411 C412 1.390 . S
C412 C411 1.390 . S
C412 C413 1.394 . S
C412 C418 1.465 . S
C413 C408 1.399 . S
C413 C412 1.394 . S
C413 C414 1.516 . S
C414 C413 1.516 . S
C414 C415 1.502 . S
C414 C416 1.561 . S
C414 C417 1.526 . S
C415 H399 0.959 . S
C415 H400 0.959 . S
C415 H401 0.961 . S
C415 C414 1.502 . S
C416 H402 0.960 . S
C416 H403 0.961 . S
C416 H404 0.959 . S
C416 C414 1.561 . S
C417 C414 1.526 . S
C417 C418 1.396 . S
C417 C422 1.390 1_554 S
C418 C412 1.465 . S
C418 C417 1.396 . S
C418 C419 1.399 . S
C419 H405 0.929 . S
C419 C418 1.399 . S
C419 C420 1.385 1_554 S
C420 H406 0.931 . S
C420 C419 1.385 1_556 S
C420 C421 1.389 . S
C421 C420 1.389 . S
C421 C422 1.387 . S
C422 H407 0.930 . S
C422 C417 1.390 1_556 S
C422 C421 1.387 . S
H423 C435 0.930 . S
H424 C437 0.930 . S
H425 C438 0.930 . S
H426 C442 0.959 . S
H427 C442 0.959 . S
H428 C442 0.961 . S
H429 C443 0.960 . S
H430 C443 0.961 . S
H431 C443 0.959 . S
H432 C446 0.929 . S
H433 C447 0.931 . S
H434 C449 0.930 . S
C435 H423 0.930 . S
C435 C436 1.399 . S
C435 C440 1.399 . S
C436 C435 1.399 . S
C436 C437 1.376 . S
C437 H424 0.930 . S
C437 C436 1.376 . S
C437 C438 1.388 . S
C438 H425 0.930 . S
C438 C437 1.388 . S
C438 C439 1.390 . S
C439 C438 1.390 . S
C439 C440 1.394 . S
C439 C445 1.465 . S
C440 C435 1.399 . S
C440 C439 1.394 . S
C440 C441 1.516 . S
C441 C440 1.516 . S
C441 C442 1.502 . S
C441 C443 1.561 . S
C441 C444 1.526 . S
C442 H426 0.959 . S
C442 H427 0.959 . S
C442 H428 0.961 . S
C442 C441 1.502 . S
C443 H429 0.960 . S
C443 H430 0.961 . S
C443 H431 0.959 . S
C443 C441 1.561 . S
C444 C441 1.526 . S
C444 C445 1.396 . S
C444 C449 1.390 . S
C445 C439 1.465 . S
C445 C444 1.396 . S
C445 C446 1.399 . S
C446 H432 0.929 . S
C446 C445 1.399 . S
C446 C447 1.385 . S
C447 H433 0.931 . S
C447 C446 1.385 . S
C447 C448 1.389 . S
C448 C447 1.389 . S
C448 C449 1.387 . S
C449 H434 0.930 . S
C449 C444 1.390 . S
C449 C448 1.387 . S
H450 C462 0.930 . S
H451 C464 0.930 . S
H452 C465 0.930 . S
H453 C469 0.959 . S
H454 C469 0.959 . S
H455 C469 0.961 . S
H456 C470 0.960 . S
H457 C470 0.961 . S
H458 C470 0.959 . S
H459 C473 0.929 . S
H460 C474 0.931 . S
H461 C476 0.930 . S
C462 H450 0.930 . S
C462 C463 1.399 . S
C462 C467 1.399 . S
C463 C462 1.399 . S
C463 C464 1.376 . S
C464 H451 0.930 . S
C464 C463 1.376 . S
C464 C465 1.388 . S
C465 H452 0.930 . S
C465 C464 1.388 . S
C465 C466 1.390 . S
C466 C465 1.390 . S
C466 C467 1.394 . S
C466 C472 1.465 . S
C467 C462 1.399 . S
C467 C466 1.394 . S
C467 C468 1.516 . S
C468 C467 1.516 . S
C468 C469 1.502 . S
C468 C470 1.561 . S
C468 C471 1.526 . S
C469 H453 0.959 . S
C469 H454 0.959 . S
C469 H455 0.961 . S
C469 C468 1.502 . S
C470 H456 0.960 . S
C470 H457 0.961 . S
C470 H458 0.959 . S
C470 C468 1.561 . S
C471 C468 1.526 . S
C471 C472 1.396 . S
C471 C476 1.390 1_556 S
C472 C466 1.465 . S
C472 C471 1.396 . S
C472 C473 1.399 . S
C473 H459 0.929 . S
C473 C472 1.399 . S
C473 C474 1.385 1_556 S
C474 H460 0.931 . S
C474 C473 1.385 1_554 S
C474 C475 1.389 . S
C475 C474 1.389 . S
C475 C476 1.387 . S
C476 H461 0.930 . S
C476 C471 1.390 1_554 S
C476 C475 1.387 . S
H477 C489 0.930 . S
H478 C491 0.930 . S
H479 C492 0.930 . S
H480 C496 0.959 . S
H481 C496 0.959 . S
H482 C496 0.961 . S
H483 C497 0.960 . S
H484 C497 0.961 . S
H485 C497 0.959 . S
H486 C500 0.929 . S
H487 C501 0.931 . S
H488 C503 0.930 . S
C489 H477 0.930 . S
C489 C490 1.399 . S
C489 C494 1.399 . S
C490 C489 1.399 . S
C490 C491 1.376 . S
C491 H478 0.930 . S
C491 C490 1.376 . S
C491 C492 1.388 . S
C492 H479 0.930 . S
C492 C491 1.388 . S
C492 C493 1.390 . S
C493 C492 1.390 . S
C493 C494 1.394 . S
C493 C499 1.465 . S
C494 C489 1.399 . S
C494 C493 1.394 . S
C494 C495 1.516 . S
C495 C494 1.516 . S
C495 C496 1.502 . S
C495 C497 1.561 . S
C495 C498 1.526 . S
C496 H480 0.959 . S
C496 H481 0.959 . S
C496 H482 0.961 . S
C496 C495 1.502 . S
C497 H483 0.960 . S
C497 H484 0.961 . S
C497 H485 0.959 . S
C497 C495 1.561 . S
C498 C495 1.526 . S
C498 C499 1.396 . S
C498 C503 1.390 . S
C499 C493 1.465 . S
C499 C498 1.396 . S
C499 C500 1.399 . S
C500 H486 0.929 . S
C500 C499 1.399 . S
C500 C501 1.385 . S
C501 H487 0.931 . S
C501 C500 1.385 . S
C501 C502 1.389 . S
C502 C501 1.389 . S
C502 C503 1.387 . S
C503 H488 0.930 . S
C503 C498 1.390 . S
C503 C502 1.387 . S
H504 C516 0.930 . S
H505 C518 0.930 1_556 S
H506 C519 0.930 . S
H507 C523 0.959 . S
H508 C523 0.959 . S
H509 C523 0.961 . S
H510 C524 0.960 . S
H511 C524 0.961 . S
H512 C524 0.959 . S
H513 C527 0.929 . S
H514 C528 0.931 . S
H515 C530 0.930 . S
C516 H504 0.930 . S
C516 C517 1.399 . S
C516 C521 1.399 . S
C517 C516 1.399 . S
C517 C518 1.376 . S
C518 H505 0.930 1_554 S
C518 C517 1.376 . S
C518 C519 1.388 . S
C519 H506 0.930 . S
C519 C518 1.388 . S
C519 C520 1.390 . S
C520 C519 1.390 . S
C520 C521 1.394 . S
C520 C526 1.465 . S
C521 C516 1.399 . S
C521 C520 1.394 . S
C521 C522 1.516 . S
C522 C521 1.516 . S
C522 C523 1.502 . S
C522 C524 1.561 . S
C522 C525 1.526 . S
C523 H507 0.959 . S
C523 H508 0.959 . S
C523 H509 0.961 . S
C523 C522 1.502 . S
C524 H510 0.960 . S
C524 H511 0.961 . S
C524 H512 0.959 . S
C524 C522 1.561 . S
C525 C522 1.526 . S
C525 C526 1.396 . S
C525 C530 1.390 . S
C526 C520 1.465 . S
C526 C525 1.396 . S
C526 C527 1.399 . S
C527 H513 0.929 . S
C527 C526 1.399 . S
C527 C528 1.385 . S
C528 H514 0.931 . S
C528 C527 1.385 . S
C528 C529 1.389 . S
C529 C528 1.389 . S
C529 C530 1.387 . S
C530 H515 0.930 . S
C530 C525 1.390 . S
C530 C529 1.387 . S
H531 C543 0.930 . S
H532 C545 0.930 . S
H533 C546 0.930 . S
H534 C550 0.959 . S
H535 C550 0.959 . S
H536 C550 0.961 . S
H537 C551 0.960 . S
H538 C551 0.961 . S
H539 C551 0.959 . S
H540 C554 0.929 . S
H541 C555 0.931 . S
H542 C557 0.930 . S
C543 H531 0.930 . S
C543 C544 1.399 . S
C543 C548 1.399 . S
C544 C543 1.399 . S
C544 C545 1.376 . S
C545 H532 0.930 . S
C545 C544 1.376 . S
C545 C546 1.388 . S
C546 H533 0.930 . S
C546 C545 1.388 . S
C546 C547 1.390 . S
C547 C546 1.390 . S
C547 C548 1.394 . S
C547 C553 1.465 . S
C548 C543 1.399 . S
C548 C547 1.394 . S
C548 C549 1.516 . S
C549 C548 1.516 . S
C549 C550 1.502 . S
C549 C551 1.561 . S
C549 C552 1.526 . S
C550 H534 0.959 . S
C550 H535 0.959 . S
C550 H536 0.961 . S
C550 C549 1.502 . S
C551 H537 0.960 . S
C551 H538 0.961 . S
C551 H539 0.959 . S
C551 C549 1.561 . S
C552 C549 1.526 . S
C552 C553 1.396 . S
C552 C557 1.390 . S
C553 C547 1.465 . S
C553 C552 1.396 . S
C553 C554 1.399 . S
C554 H540 0.929 . S
C554 C553 1.399 . S
C554 C555 1.385 . S
C555 H541 0.931 . S
C555 C554 1.385 . S
C555 C556 1.389 . S
C556 C555 1.389 . S
C556 C557 1.387 . S
C557 H542 0.930 . S
C557 C552 1.390 . S
C557 C556 1.387 . S
H558 C570 0.930 . S
H559 C572 0.930 1_554 S
H560 C573 0.930 . S
H561 C577 0.959 . S
H562 C577 0.959 . S
H563 C577 0.961 . S
H564 C578 0.960 . S
H565 C578 0.961 . S
H566 C578 0.959 . S
H567 C581 0.929 . S
H568 C582 0.931 . S
H569 C584 0.930 . S
C570 H558 0.930 . S
C570 C571 1.399 . S
C570 C575 1.399 . S
C571 C570 1.399 . S
C571 C572 1.376 . S
C572 H559 0.930 1_556 S
C572 C571 1.376 . S
C572 C573 1.388 . S
C573 H560 0.930 . S
C573 C572 1.388 . S
C573 C574 1.390 . S
C574 C573 1.390 . S
C574 C575 1.394 . S
C574 C580 1.465 . S
C575 C570 1.399 . S
C575 C574 1.394 . S
C575 C576 1.516 . S
C576 C575 1.516 . S
C576 C577 1.502 . S
C576 C578 1.561 . S
C576 C579 1.526 . S
C577 H561 0.959 . S
C577 H562 0.959 . S
C577 H563 0.961 . S
C577 C576 1.502 . S
C578 H564 0.960 . S
C578 H565 0.961 . S
C578 H566 0.959 . S
C578 C576 1.561 . S
C579 C576 1.526 . S
C579 C580 1.396 . S
C579 C584 1.390 . S
C580 C574 1.465 . S
C580 C579 1.396 . S
C580 C581 1.399 . S
C581 H567 0.929 . S
C581 C580 1.399 . S
C581 C582 1.385 . S
C582 H568 0.931 . S
C582 C581 1.385 . S
C582 C583 1.389 . S
C583 C582 1.389 . S
C583 C584 1.387 . S
C584 H569 0.930 . S
C584 C579 1.390 . S
C584 C583 1.387 . S
H585 C597 0.930 . S
H586 C599 0.930 . S
H587 C600 0.930 . S
H588 C604 0.959 . S
H589 C604 0.959 . S
H590 C604 0.961 . S
H591 C605 0.960 . S
H592 C605 0.961 . S
H593 C605 0.959 . S
H594 C608 0.929 . S
H595 C609 0.931 . S
H596 C611 0.930 . S
C597 H585 0.930 . S
C597 C598 1.399 . S
C597 C602 1.399 . S
C598 C597 1.399 . S
C598 C599 1.376 . S
C599 H586 0.930 . S
C599 C598 1.376 . S
C599 C600 1.388 . S
C600 H587 0.930 . S
C600 C599 1.388 . S
C600 C601 1.390 . S
C601 C600 1.390 . S
C601 C602 1.394 . S
C601 C607 1.465 . S
C602 C597 1.399 . S
C602 C601 1.394 . S
C602 C603 1.516 . S
C603 C602 1.516 . S
C603 C604 1.502 . S
C603 C605 1.561 . S
C603 C606 1.526 . S
C604 H588 0.959 . S
C604 H589 0.959 . S
C604 H590 0.961 . S
C604 C603 1.502 . S
C605 H591 0.960 . S
C605 H592 0.961 . S
C605 H593 0.959 . S
C605 C603 1.561 . S
C606 C603 1.526 . S
C606 C607 1.396 . S
C606 C611 1.390 . S
C607 C601 1.465 . S
C607 C606 1.396 . S
C607 C608 1.399 . S
C608 H594 0.929 . S
C608 C607 1.399 . S
C608 C609 1.385 . S
C609 H595 0.931 . S
C609 C608 1.385 . S
C609 C610 1.389 . S
C610 C609 1.389 . S
C610 C611 1.387 . S
C611 H596 0.930 . S
C611 C606 1.390 . S
C611 C610 1.387 . S
H612 C624 0.930 . S
H613 C626 0.930 . S
H614 C627 0.930 . S
H615 C631 0.959 . S
H616 C631 0.959 . S
H617 C631 0.961 . S
H618 C632 0.960 . S
H619 C632 0.961 . S
H620 C632 0.959 . S
H621 C635 0.929 . S
H622 C636 0.931 . S
H623 C638 0.930 . S
C624 H612 0.930 . S
C624 C625 1.399 . S
C624 C629 1.399 . S
C625 C624 1.399 . S
C625 C626 1.376 . S
C626 H613 0.930 . S
C626 C625 1.376 . S
C626 C627 1.388 . S
C627 H614 0.930 . S
C627 C626 1.388 . S
C627 C628 1.390 . S
C628 C627 1.390 . S
C628 C629 1.394 . S
C628 C634 1.465 . S
C629 C624 1.399 . S
C629 C628 1.394 . S
C629 C630 1.516 . S
C630 C629 1.516 . S
C630 C631 1.502 . S
C630 C632 1.561 . S
C630 C633 1.526 . S
C631 H615 0.959 . S
C631 H616 0.959 . S
C631 H617 0.961 . S
C631 C630 1.502 . S
C632 H618 0.960 . S
C632 H619 0.961 . S
C632 H620 0.959 . S
C632 C630 1.561 . S
C633 C630 1.526 . S
C633 C634 1.396 . S
C633 C638 1.390 . S
C634 C628 1.465 . S
C634 C633 1.396 . S
C634 C635 1.399 . S
C635 H621 0.929 . S
C635 C634 1.399 . S
C635 C636 1.385 . S
C636 H622 0.931 . S
C636 C635 1.385 . S
C636 C637 1.389 . S
C637 C636 1.389 . S
C637 C638 1.387 . S
C638 H623 0.930 . S
C638 C633 1.390 . S
C638 C637 1.387 . S
H639 C651 0.930 . S
H640 C653 0.930 . S
H641 C654 0.930 . S
H642 C658 0.959 . S
H643 C658 0.959 . S
H644 C658 0.961 . S
H645 C659 0.960 . S
H646 C659 0.961 . S
H647 C659 0.959 . S
H648 C662 0.929 . S
H649 C663 0.931 . S
H650 C665 0.930 . S
C651 H639 0.930 . S
C651 C652 1.399 . S
C651 C656 1.399 . S
C652 C651 1.399 . S
C652 C653 1.376 . S
C653 H640 0.930 . S
C653 C652 1.376 . S
C653 C654 1.388 1_554 S
C654 H641 0.930 . S
C654 C653 1.388 1_556 S
C654 C655 1.390 1_556 S
C655 C654 1.390 1_554 S
C655 C656 1.394 . S
C655 C661 1.465 . S
C656 C651 1.399 . S
C656 C655 1.394 . S
C656 C657 1.516 . S
C657 C656 1.516 . S
C657 C658 1.502 . S
C657 C659 1.561 . S
C657 C660 1.526 . S
C658 H642 0.959 . S
C658 H643 0.959 . S
C658 H644 0.961 . S
C658 C657 1.502 . S
C659 H645 0.960 . S
C659 H646 0.961 . S
C659 H647 0.959 . S
C659 C657 1.561 . S
C660 C657 1.526 . S
C660 C661 1.396 . S
C660 C665 1.390 . S
C661 C655 1.465 . S
C661 C660 1.396 . S
C661 C662 1.399 1_554 S
C662 H648 0.929 . S
C662 C661 1.399 1_556 S
C662 C663 1.385 . S
C663 H649 0.931 . S
C663 C662 1.385 . S
C663 C664 1.389 . S
C664 C663 1.389 . S
C664 C665 1.387 1_556 S
C665 H650 0.930 . S
C665 C660 1.390 . S
C665 C664 1.387 1_554 S
C193 C160 1.632 . S
C205 C10 1.622 . S
C220 N14 1.482 . S
C232 N44 1.490 . S
C247 C40 1.590 . S
C259 C70 1.604 . S
C274 N74 1.491 . S
C286 N104 1.488 . S
C301 C130 1.589 . S
C313 C100 1.602 . S
C328 N164 1.478 . S
C340 N134 1.483 . S
C355 C16 1.007 . S
C367 C27 1.041 . S
C382 C57 1.041 . S
C394 C46 1.007 . S
C409 C76 1.002 . S
C421 C87 1.053 . S
C436 C117 1.009 1_556 S
C448 C106 1.038 . S
C463 C147 1.002 . S
C475 C136 1.053 . S
C490 C177 1.003 . S
C502 C166 1.053 . S
C517 C1 1.623 . S
C529 N126 1.446 . S
C544 N36 1.446 . S
C556 C151 1.623 . S
C571 N6 1.433 . S
C583 C61 1.611 . S
C598 C31 1.627 . S
C610 N96 1.492 . S
C625 C121 1.617 . S
C637 N66 1.538 . S
C652 C91 1.603 . S
C664 N156 1.490 . S
