# Generated by pormake.
# Topology uom, (4)-cn, num edge types: 1
# Building blocks:
#     Node 0, Type 0, BuildingBlock: ESEHIV_clean_sbu_0, # of connection points: 4
#     Node 1, Type 0, BuildingBlock: ESEHIV_clean_sbu_0, # of connection points: 4
#     Node 2, Type 0, BuildingBlock: ESEHIV_clean_sbu_0, # of connection points: 4
#     Node 3, Type 0, BuildingBlock: ESEHIV_clean_sbu_0, # of connection points: 4
#     Node 4, Type 0, BuildingBlock: ESEHIV_clean_sbu_0, # of connection points: 4
#     Node 5, Type 0, BuildingBlock: ESEHIV_clean_sbu_0, # of connection points: 4
#     Edge 6, Type (0, 0), BuildingBlock: ZUJKAS_clean_linker_0, # of connection points: 2
#     Edge 7, Type (0, 0), BuildingBlock: ZUJKAS_clean_linker_0, # of connection points: 2
#     Edge 8, Type (0, 0), BuildingBlock: ZUJKAS_clean_linker_0, # of connection points: 2
#     Edge 9, Type (0, 0), BuildingBlock: ZUJKAS_clean_linker_0, # of connection points: 2
#     Edge 10, Type (0, 0), BuildingBlock: ZUJKAS_clean_linker_0, # of connection points: 2
#     Edge 11, Type (0, 0), BuildingBlock: ZUJKAS_clean_linker_0, # of connection points: 2
#     Edge 12, Type (0, 0), BuildingBlock: ZUJKAS_clean_linker_0, # of connection points: 2
#     Edge 13, Type (0, 0), BuildingBlock: ZUJKAS_clean_linker_0, # of connection points: 2
#     Edge 14, Type (0, 0), BuildingBlock: ZUJKAS_clean_linker_0, # of connection points: 2
#     Edge 15, Type (0, 0), BuildingBlock: ZUJKAS_clean_linker_0, # of connection points: 2
#     Edge 16, Type (0, 0), BuildingBlock: ZUJKAS_clean_linker_0, # of connection points: 2
#     Edge 17, Type (0, 0), BuildingBlock: ZUJKAS_clean_linker_0, # of connection points: 2
# Relax obj value: 0.105
# Max RMSD: 0.200
# Mean RMSD: 0.160
data_MOF--net-uom--node1-ESEHIV_clean_sbu_0--edge1-ZUJKAS_clean_linker_0
_symmetry_space_group_name_H-M    P1
_symmetry_Int_Tables_number       1
_symmetry_cell_setting            triclinic
loop_
_symmetry_equiv_pos_as_xyz
'x, y, z'
_cell_length_a     38.439086
_cell_length_b     36.735241
_cell_length_c     59.585418
_cell_angle_alpha  89.914837
_cell_angle_beta   89.923079
_cell_angle_gamma 125.5434
loop_
_atom_site_label
_atom_site_type_symbol
_atom_site_fract_x
_atom_site_fract_y
_atom_site_fract_z
_atom_type_partial_charge
Cu0 Cu 0.36709 0.04692 0.03024 0.0
N1 N 0.33638 0.00066 1.00921 0.0
N2 N 0.31361 0.96619 0.97588 0.0
C3 C 0.34064 0.00538 0.98672 0.0
C4 C 0.29151 0.93577 0.99239 0.0
C5 C 0.30547 0.95709 1.01284 0.0
O6 O 0.42863 0.07643 0.02514 0.0
C7 C 0.30592 0.06249 0.03433 0.0
O8 O 0.286 0.02095 0.04129 0.0
H9 H 0.36276 0.03726 0.97858 0.0
H10 H 0.29363 0.94188 0.02917 0.0
N11 N 0.35664 0.02565 0.05987 0.0
N12 N 0.34936 0.0254 0.09722 0.0
C13 C 0.35663 0.04793 0.07781 0.0
C14 C 0.34965 0.98784 0.06815 0.0
C15 C 0.34499 0.9875 0.09115 0.0
C16 C 0.43962 0.04995 1.02214 0.0
O17 O 0.40953 0.00672 1.02161 0.0
H18 H 0.36261 0.0805 0.07655 0.0
H19 H 0.34837 0.96247 0.05823 0.0
O20 O 0.34478 0.08322 0.02784 0.0
H21 H 0.26709 0.90045 0.99001 0.0
H22 H 0.33856 0.96113 0.10243 0.0
Cu23 Cu 0.33645 0.2194 0.37609 0.0
N24 N 0.31225 0.18968 0.34879 0.0
N25 N 0.3037 0.16192 0.31413 0.0
C26 C 0.33164 0.18593 0.33093 0.0
C27 C 0.26542 0.15019 0.32187 0.0
C28 C 0.27081 0.16741 0.34306 0.0
O29 O 0.38552 0.2801 0.3698 0.0
C30 C 0.33497 0.15442 0.40533 0.0
O31 O 0.35516 0.14303 0.41798 0.0
H32 H 0.36555 0.20086 0.33026 0.0
H33 H 0.24588 0.16295 0.35376 0.0
N34 N 0.29664 0.22298 0.39228 0.0
N35 N 0.25602 0.22173 0.41975 0.0
C36 C 0.28732 0.21676 0.41443 0.0
C37 C 0.27126 0.23336 0.38347 0.0
C38 C 0.2461 0.23237 0.40024 0.0
C39 C 0.42204 0.28863 0.36556 0.0
O40 O 0.42605 0.25548 0.36479 0.0
H41 H 0.30307 0.20864 0.42632 0.0
H42 H 0.27119 0.24128 0.36599 0.0
O43 O 0.35669 0.19041 0.39385 0.0
H44 H 0.23528 0.12974 0.31311 0.0
H45 H 0.22285 0.23977 0.39819 0.0
Cu46 Cu 0.03709 0.22394 0.68913 0.0
N47 N 0.98591 0.18317 0.70436 0.0
N48 N 0.94361 0.14758 0.73411 0.0
C49 C 0.97807 0.18647 0.72602 0.0
C50 C 0.92847 0.11899 0.71663 0.0
C51 C 0.95479 0.14094 0.69835 0.0
O52 O 0.05444 0.28434 0.69476 0.0
C53 C 0.08578 0.21376 0.72095 0.0
O54 O 0.07118 0.2283 0.73571 0.0
H55 H 0.99875 0.21609 0.73604 0.0
H56 H 0.95329 0.12608 0.68241 0.0
N57 N 0.03159 0.21223 0.65826 0.0
N58 N 0.04785 0.2054 0.62306 0.0
C59 C 0.0624 0.21884 0.64426 0.0
C60 C 0.99631 0.19397 0.64558 0.0
C61 C 1.00618 0.18974 0.62394 0.0
C62 C 0.03303 0.29692 0.68581 0.0
O63 O 1.00027 0.2688 0.67303 0.0
H64 H 0.09483 0.23329 0.64962 0.0
H65 H 0.9654 0.18391 0.65172 0.0
O66 O 0.0781 0.21394 0.70021 0.0
H67 H 0.90247 0.08377 0.71749 0.0
H68 H 0.98393 0.17524 0.61008 0.0
Cu69 Cu 0.87316 0.04839 0.03033 0.0
N70 N 0.86543 0.0225 1.00216 0.0
N71 N 0.86372 0.01559 0.96482 0.0
C72 C 0.86363 0.03893 0.9823 0.0
C73 C 0.86522 0.98298 0.97412 0.0
C74 C 0.86626 0.98734 0.99714 0.0
O75 O 0.84574 0.07975 0.02932 0.0
C76 C 0.96317 0.10578 1.02167 0.0
O77 O 0.95196 0.11173 1.00194 0.0
H78 H 0.8648 0.06898 0.98071 0.0
H79 H 0.86907 0.96737 1.00936 0.0
N80 N 0.84609 0.00326 0.05213 0.0
N81 N 0.83294 0.96649 0.08463 0.0
C82 C 0.86033 0.00466 0.073 0.0
C83 C 0.80851 0.96292 0.05038 0.0
C84 C 0.8003 0.94017 0.07034 0.0
C85 C 0.82756 0.0833 0.04624 0.0
O86 O 0.8324 0.07125 0.0661 0.0
H87 H 0.88991 0.03351 0.07955 0.0
H88 H 0.78856 0.95089 0.03558 0.0
O89 O 0.93453 0.0839 0.03669 0.0
H90 H 0.86642 0.95831 0.96495 0.0
H91 H 0.77263 0.9066 0.07387 0.0
Cu92 Cu 0.8782 0.8186 0.36983 0.0
N93 N 0.89948 0.84567 0.34153 0.0
N94 N 0.90404 0.87082 0.30654 0.0
C95 C 0.87803 0.84785 0.32424 0.0
C96 C 0.94316 0.88326 0.31301 0.0
C97 C 0.94025 0.8678 0.33443 0.0
O98 O 0.83024 0.75656 0.36541 0.0
C99 C 0.8773 0.88311 0.39823 0.0
O100 O 0.85596 0.8942 0.41006 0.0
H101 H 0.84425 0.83357 0.32481 0.0
H102 H 0.96648 0.87339 0.34431 0.0
N103 N 0.92039 0.81912 0.38612 0.0
N104 N 0.96289 0.8245 0.41368 0.0
C105 C 0.92951 0.82599 0.40826 0.0
C106 C 0.94795 0.81154 0.37747 0.0
C107 C 0.97429 0.81518 0.39427 0.0
C108 C 0.79299 0.74628 0.36146 0.0
O109 O 0.78755 0.77833 0.35978 0.0
H110 H 0.91203 0.83196 0.42011 0.0
H111 H 0.94859 0.80345 0.3601 0.0
O112 O 0.85665 0.84741 0.38659 0.0
H113 H 0.97199 0.90201 0.30296 0.0
H114 H 0.99928 0.81024 0.39235 0.0
Cu115 Cu 0.16472 0.82556 0.68853 0.0
N116 N 0.21387 0.85772 0.70635 0.0
N117 N 0.25088 0.88539 0.7384 0.0
C118 C 0.2126 0.85483 0.72892 0.0
C119 C 0.27734 0.90841 0.72093 0.0
C120 C 0.2544 0.89145 0.70122 0.0
O121 O 0.13819 0.76236 0.69365 0.0
C122 C 0.14559 0.88538 0.69284 0.0
O123 O 0.17998 0.90719 0.68014 0.0
H124 H 0.18332 0.83223 0.73817 0.0
H125 H 0.26612 0.90432 0.68453 0.0
N126 N 0.17458 0.8375 0.65753 0.0
N127 N 0.16178 0.84412 0.62151 0.0
C128 C 0.14572 0.83255 0.64262 0.0
C129 C 0.21013 0.85244 0.64548 0.0
C130 C 0.20241 0.85663 0.62336 0.0
C131 C 0.15819 0.74719 0.68577 0.0
O132 O 0.19423 0.77458 0.67491 0.0
H133 H 0.11345 0.82036 0.64728 0.0
H134 H 0.23957 0.85954 0.6522 0.0
O135 O 0.13048 0.84543 0.69868 0.0
H136 H 0.31066 0.93626 0.7222 0.0
H137 H 0.22534 0.86852 0.6098 0.0
H138 H 0.35994 0.99634 0.13704 0.0
H139 H 0.35531 0.01955 0.17472 0.0
H140 H 0.32971 0.10963 0.14629 0.0
H141 H 0.33327 0.08608 0.10862 0.0
H142 H 0.39472 0.14721 0.18148 0.0
H143 H 0.2425 0.98646 0.20568 0.0
H144 H 0.28397 0.98283 0.19465 0.0
H145 H 0.25946 0.00129 0.17681 0.0
C146 C 0.35288 0.02073 0.13871 0.0
C147 C 0.34695 0.03918 0.1196 0.0
C148 C 0.3504 0.03408 0.16032 0.0
C149 C 0.34194 0.06613 0.1633 0.0
C150 C 0.33641 0.08494 0.14436 0.0
H151 H 0.25569 0.13841 0.27633 0.0
H152 H 0.26764 0.11561 0.24048 0.0
C153 C 0.33866 0.0715 0.12277 0.0
C154 C 0.33857 0.08001 0.18614 0.0
H155 H 0.27599 0.04291 0.23322 0.0
C156 C 0.36893 0.1244 0.19287 0.0
C157 C 0.30469 0.05022 0.20086 0.0
C158 C 0.27052 0.00259 0.1942 0.0
C159 C 0.36622 0.13981 0.21395 0.0
C160 C 0.33236 0.11 0.22867 0.0
C161 C 0.3021 0.06559 0.22196 0.0
C162 C 0.32625 0.12483 0.25059 0.0
C163 C 0.39884 0.18816 0.2201 0.0
C164 C 0.35529 0.13762 0.26827 0.0
C165 C 0.34832 0.15034 0.28905 0.0
C166 C 0.31211 0.15043 0.29253 0.0
C167 C 0.28348 0.13804 0.27457 0.0
C168 C 0.29036 0.12518 0.25393 0.0
H169 H 0.41865 0.20855 0.20547 0.0
H170 H 0.38284 0.2029 0.22711 0.0
H171 H 0.4204 0.19021 0.23321 0.0
H172 H 0.38296 0.13707 0.26612 0.0
H173 H 0.37082 0.15913 0.30247 0.0
H174 H 0.17747 0.20229 0.42817 0.0
H175 H 0.14656 0.19842 0.46455 0.0
H176 H 0.25835 0.22368 0.49755 0.0
H177 H 0.29045 0.22942 0.461 0.0
H178 H 0.1258 0.14252 0.50019 0.0
H179 H 0.24872 0.31849 0.52539 0.0
H180 H 0.24476 0.29897 0.4971 0.0
H181 H 0.26906 0.28647 0.51864 0.0
C182 C 0.19591 0.20768 0.44307 0.0
C183 C 0.23692 0.21699 0.4415 0.0
C184 C 0.17794 0.20504 0.46394 0.0
C185 C 0.20039 0.2116 0.48382 0.0
C186 C 0.24078 0.21952 0.48244 0.0
H187 H 0.1222 0.21158 0.62263 0.0
H188 H 0.16063 0.21213 0.58973 0.0
C189 C 0.25891 0.22229 0.46149 0.0
C190 C 0.18101 0.20987 0.50582 0.0
H191 H 0.1937 0.27277 0.55153 0.0
C192 C 0.14077 0.17097 0.51144 0.0
C193 C 0.20054 0.24695 0.52057 0.0
C194 C 0.24298 0.29026 0.51512 0.0
C195 C 0.11936 0.16832 0.53118 0.0
C196 C 0.13841 0.20572 0.54563 0.0
C197 C 0.17915 0.24417 0.5404 0.0
C198 C 0.11556 0.20618 0.56567 0.0
C199 C 0.07643 0.12546 0.53644 0.0
C200 C 0.0779 0.20355 0.56306 0.0
C201 C 0.05602 0.20369 0.58181 0.0
C202 C 0.07126 0.20644 0.60368 0.0
C203 C 0.10949 0.20977 0.60617 0.0
C204 C 0.13149 0.20986 0.58735 0.0
H205 H 0.07134 0.09666 0.527 0.0
H206 H 0.07324 0.11778 0.55467 0.0
H207 H 0.0508 0.12923 0.53162 0.0
H208 H 0.06549 0.20164 0.54646 0.0
H209 H 0.02735 0.20204 0.57904 0.0
H210 H 0.83094 0.05524 0.94423 0.0
H211 H 0.83757 0.07566 0.90449 0.0
H212 H 0.91044 0.02221 0.89253 0.0
H213 H 0.90329 0.00114 0.93203 0.0
H214 H 0.90686 0.13235 0.88014 0.0
H215 H 0.82509 0.96409 0.84258 0.0
H216 H 0.82245 0.97228 0.87222 0.0
H217 H 0.86798 0.97648 0.86062 0.0
C218 C 0.84816 0.04765 0.93308 0.0
C219 C 0.86628 0.02624 0.94127 0.0
C220 C 0.85186 0.05923 0.91037 0.0
C221 C 0.87381 0.04973 0.89536 0.0
C222 C 0.8922 0.02866 0.90356 0.0
H223 H 0.99548 0.18148 0.77042 0.0
H224 H 0.97562 0.15852 0.80945 0.0
C225 C 0.88817 0.0167 0.9262 0.0
C226 C 0.87935 0.06379 0.87142 0.0
H227 H 0.86855 0.02624 0.81769 0.0
C228 C 0.89805 0.10903 0.86649 0.0
C229 C 0.86721 0.03332 0.85351 0.0
C230 C 0.84415 0.98377 0.85748 0.0
C231 C 0.90629 0.12487 0.84426 0.0
C232 C 0.8966 0.0949 0.82644 0.0
C233 C 0.8765 0.04938 0.83132 0.0
C234 C 0.90817 0.1102 0.80272 0.0
C235 C 0.92501 0.17355 0.84015 0.0
C236 C 0.87714 0.08997 0.78572 0.0
C237 C 0.88856 0.10281 0.76326 0.0
C238 C 0.93122 0.13623 0.75735 0.0
C239 C 0.96216 0.15654 0.77442 0.0
C240 C 0.95081 0.14343 0.79681 0.0
H241 H 0.91717 0.18774 0.85408 0.0
H242 H 0.96035 0.19285 0.83917 0.0
H243 H 0.91319 0.17826 0.8242 0.0
H244 H 0.84407 0.06405 0.78983 0.0
H245 H 0.86409 0.08656 0.75047 0.0
H246 H 0.90626 0.00528 0.109 0.0
H247 H 0.9135 0.98751 0.14747 0.0
H248 H 0.77768 0.88597 0.15084 0.0
H249 H 0.76985 0.90392 0.11254 0.0
H250 H 0.87207 0.98923 0.18739 0.0
H251 H 0.83091 0.81971 0.16999 0.0
H252 H 0.84613 0.86047 0.14808 0.0
H253 H 0.79341 0.83026 0.16002 0.0
C254 C 0.87778 0.97939 0.11788 0.0
C255 C 0.83743 0.95601 0.10744 0.0
C256 C 0.88206 0.96913 0.13989 0.0
C257 C 0.84623 0.93503 0.15193 0.0
C258 C 0.8059 0.91183 0.14172 0.0
H259 H 0.82628 0.82442 0.28599 0.0
H260 H 0.80922 0.84036 0.24923 0.0
C261 C 0.80153 0.92216 0.11973 0.0
C262 C 0.8511 0.9243 0.17529 0.0
H263 H 0.84248 0.8427 0.20784 0.0
C264 C 0.86558 0.95719 0.19188 0.0
C265 C 0.84224 0.88234 0.18116 0.0
C266 C 0.8276 0.84616 0.1639 0.0
C267 C 0.8715 0.9493 0.21417 0.0
C268 C 0.86371 0.90773 0.21996 0.0
C269 C 0.84844 0.87453 0.20344 0.0
C270 C 0.87333 0.89891 0.24271 0.0
C271 C 0.88557 0.98546 0.23137 0.0
C272 C 0.91501 0.92628 0.25125 0.0
C273 C 0.92475 0.91747 0.27226 0.0
C274 C 0.89316 0.88068 0.28522 0.0
C275 C 0.85131 0.85329 0.27665 0.0
C276 C 0.84156 0.8622 0.25556 0.0
H277 H 0.8769 0.0083 0.22622 0.0
H278 H 0.87107 0.97099 0.24805 0.0
H279 H 0.92087 0.00577 0.23307 0.0
H280 H 0.94031 0.95425 0.24151 0.0
H281 H 0.95719 0.93967 0.27831 0.0
H282 H 0.18462 0.84455 0.57812 0.0
H283 H 0.1491 0.84419 0.54424 0.0
H284 H 0.05298 0.83896 0.58445 0.0
H285 H 0.08939 0.84146 0.61853 0.0
H286 H 0.0703 0.7817 0.52899 0.0
H287 H 0.08523 0.93975 0.54211 0.0
H288 H 0.11432 0.92475 0.55876 0.0
H289 H 0.05901 0.90045 0.56476 0.0
C290 C 0.15638 0.84409 0.57993 0.0
C291 C 0.1403 0.84335 0.60132 0.0
C292 C 0.13584 0.84355 0.56041 0.0
C293 C 0.09868 0.84229 0.56168 0.0
C294 C 0.08214 0.841 0.58294 0.0
H295 H 0.92642 0.81239 0.45486 0.0
H296 H 0.95828 0.81775 0.49146 0.0
C297 C 0.1028 0.84179 0.60251 0.0
C298 C 0.07669 0.84076 0.5407 0.0
H299 H 0.04281 0.8949 0.51129 0.0
C300 C 0.0644 0.80654 0.52516 0.0
C301 C 0.06878 0.87307 0.53563 0.0
C302 C 0.08285 0.91183 0.55108 0.0
C303 C 0.04459 0.80378 0.5048 0.0
C304 C 0.03702 0.83621 0.49968 0.0
C305 C 0.04857 0.87002 0.5153 0.0
C306 C 1.01866 0.83625 0.47775 0.0
C307 C 0.03173 0.76604 0.48886 0.0
C308 C 0.04245 0.84612 0.45799 0.0
C309 C 0.02451 0.84336 0.43711 0.0
C310 C 0.9822 0.83052 0.43547 0.0
C311 C 0.95899 0.82236 0.45542 0.0
C312 C 0.97711 0.82527 0.47637 0.0
H313 H 0.03164 0.73887 0.49714 0.0
H314 H 0.99945 0.75173 0.48185 0.0
H315 H 0.05473 0.77915 0.47466 0.0
H316 H 0.07486 0.85548 0.4587 0.0
H317 H 0.04386 0.85118 0.42225 0.0
H318 H 0.24644 0.89472 0.95368 0.0
H319 H 0.23888 0.88177 0.91331 0.0
H320 H 0.36123 0.00717 0.90245 0.0
H321 H 0.36984 0.02017 0.94288 0.0
H322 H 0.29053 0.99066 0.87449 0.0
H323 H 0.30736 0.85032 0.87315 0.0
H324 H 0.26974 0.84525 0.8932 0.0
H325 H 0.32568 0.88894 0.89634 0.0
C326 C 0.27217 0.91943 0.94289 0.0
C327 C 0.30892 0.95851 0.95185 0.0
C328 C 0.26766 0.91192 0.91971 0.0
C329 C 0.29968 0.94326 0.90488 0.0
C330 C 0.33616 0.98248 0.91361 0.0
H331 H 0.31636 0.96221 0.75821 0.0
H332 H 0.32997 0.97692 0.79831 0.0
C333 C 0.34087 0.98993 0.93681 0.0
C334 C 0.29462 0.93544 0.88025 0.0
H335 H 0.28651 0.86602 0.83922 0.0
C336 C 0.28991 0.96361 0.86672 0.0
C337 C 0.2936 0.89999 0.8702 0.0
C338 C 0.29968 0.8695 0.88388 0.0
C339 C 0.28315 0.95661 0.84345 0.0
C340 C 0.28223 0.92115 0.83333 0.0
C341 C 0.28726 0.89321 0.84691 0.0
C342 C 0.27511 0.91183 0.80879 0.0
C343 C 0.27563 0.98636 0.83008 0.0
C344 C 0.24077 0.86973 0.80119 0.0
C345 C 0.2333 0.86088 0.77819 0.0
C346 C 0.26002 0.89394 0.76217 0.0
C347 C 0.29508 0.93579 0.76988 0.0
C348 C 0.30263 0.94452 0.79291 0.0
H349 H 0.26549 0.00314 0.841 0.0
H350 H 0.30581 0.01277 0.8216 0.0
H351 H 0.25084 0.96702 0.81705 0.0
H352 H 0.21933 0.84376 0.81308 0.0
H353 H 0.20652 0.82799 0.77303 0.0
H354 H 0.31519 0.1278 1.00631 0.0
H355 H 0.26728 0.15196 1.00416 0.0
H356 H 0.1945 0.06614 0.06014 0.0
H357 H 0.24148 0.04199 0.06226 0.0
H358 H 0.17577 0.09046 0.99723 0.0
H359 H 0.21179 0.18485 0.07633 0.0
H360 H 0.24831 0.17482 0.06377 0.0
H361 H 0.20346 0.13179 0.08005 0.0
C362 C 0.28952 0.11496 1.01842 0.0
C363 C 0.28209 0.08297 0.03443 0.0
C364 C 0.26208 0.12859 1.01713 0.0
C365 C 0.22751 0.11122 0.03216 0.0
C366 C 0.22126 0.08062 0.04861 0.0
H367 H 0.99204 0.07977 0.05592 0.0
H368 H 0.05964 0.0875 0.0576 0.0
C369 C 0.24808 0.06663 0.0497 0.0
C370 C 0.19531 0.1213 0.02973 0.0
H371 H 0.14417 0.15713 0.05927 0.0
C372 C 0.16936 0.10589 1.01056 0.0
C373 C 0.18665 0.14095 0.04726 0.0
C374 C 0.21426 0.15944 0.06794 0.0
C375 C 0.13366 0.10739 1.00894 0.0
C376 C 0.12422 0.12594 0.02678 0.0
C377 C 0.15119 0.14285 0.0456 0.0
C378 C 0.08512 0.12556 0.02677 0.0
C379 C 0.10503 0.08671 0.98868 0.0
C380 C 0.07739 0.14583 1.00936 0.0
C381 C 0.03856 0.14121 1.00828 0.0
C382 C 1.00677 0.11674 0.02476 0.0
C383 C 1.0157 0.09885 0.04293 0.0
C384 C 0.0544 0.10318 0.04389 0.0
H385 H 0.11057 0.06423 0.97945 0.0
H386 H 0.0708 0.0672 0.9936 0.0
H387 H 0.11175 0.11363 0.97699 0.0
H388 H 0.10099 0.16439 0.99628 0.0
H389 H 0.03301 0.15578 0.99415 0.0
H390 H 0.92618 0.91176 0.43576 0.0
H391 H 1.00459 0.95854 0.43784 0.0
H392 H 1.01171 0.96516 0.3655 0.0
H393 H 0.93345 0.92056 0.36366 0.0
H394 H 0.06159 0.94239 0.42054 0.0
H395 H 0.08963 0.09603 0.38352 0.0
H396 H 0.0376 0.04958 0.393 0.0
H397 H 0.05775 0.04754 0.36612 0.0
C398 C 0.94469 0.9234 0.42037 0.0
C399 C 0.92419 0.91114 0.39944 0.0
C400 C 0.9893 0.94986 0.42155 0.0
C401 C 1.01394 0.96535 0.40183 0.0
C402 C 0.99334 0.9537 0.38093 0.0
H403 H 0.28262 0.11321 0.36975 0.0
H404 H 0.20409 0.06737 0.3695 0.0
C405 C 0.94876 0.92729 0.3798 0.0
C406 C 0.06118 0.99354 0.40311 0.0
H407 H 0.15074 0.09518 0.3878 0.0
C408 C 0.08113 0.97591 0.41353 0.0
C409 C 0.08647 0.03732 0.39402 0.0
C410 C 0.06681 0.05896 0.38373 0.0
C411 C 0.12585 0.00056 0.4146 0.0
C412 C 0.15105 0.04394 0.40513 0.0
C413 C 0.13116 0.06174 0.39492 0.0
C414 C 0.19824 0.07135 0.40539 0.0
C415 C 0.14589 0.97976 0.42541 0.0
C416 C 0.2207 0.08867 0.42561 0.0
C417 C 0.26539 0.11553 0.42561 0.0
C418 C 0.28804 0.1262 0.40533 0.0
C419 C 0.26559 0.10776 0.38527 0.0
C420 C 0.22094 0.08097 0.38523 0.0
H421 H 0.12224 0.94328 0.42833 0.0
H422 H 0.17226 0.98511 0.41478 0.0
H423 H 0.15969 0.99603 0.44184 0.0
H424 H 0.20367 0.08176 0.44132 0.0
H425 H 0.28227 0.1288 0.44135 0.0
H426 H 0.13255 0.19351 0.69692 0.0
H427 H 0.14115 0.134 0.70513 0.0
H428 H 0.07879 0.11068 0.7691 0.0
H429 H 0.07026 0.17062 0.7611 0.0
H430 H 0.17573 0.1132 0.74566 0.0
H431 H 1.00103 0.99342 0.72852 0.0
H432 H 0.03055 0.05079 0.71908 0.0
H433 H 1.01967 0.03809 0.74839 0.0
C434 C 0.12179 0.17664 0.71302 0.0
C435 C 0.10048 0.18645 0.72829 0.0
C436 C 0.12671 0.14269 0.71768 0.0
C437 C 0.1101 0.11776 0.73757 0.0
C438 C 0.09161 0.12954 0.75362 0.0
H439 H 0.10411 0.87206 0.73293 0.0
H440 H 0.08996 0.92327 0.7502 0.0
C441 C 0.08705 0.16395 0.74907 0.0
C442 C 0.10807 0.07657 0.73984 0.0
H443 H 0.04261 0.96558 0.72664 0.0
C444 C 0.14641 0.0806 0.7423 0.0
C445 C 0.06968 0.03416 0.73541 0.0
C446 C 0.02773 0.02843 0.73264 0.0
C447 C 0.14788 0.04382 0.73876 0.0
C448 C 0.11027 0.00247 0.73228 0.0
C449 C 0.07128 -0.00257 0.73168 0.0
C450 C 0.11299 0.96801 0.72164 0.0
C451 C 0.19023 0.0501 0.74024 0.0
C452 C 0.12894 0.97564 0.69971 0.0
C453 C 0.13699 0.94688 0.68994 0.0
C454 C 0.12894 0.90974 0.70187 0.0
C455 C 0.1103 0.90036 0.72335 0.0
C456 C 0.10246 0.92958 0.73326 0.0
H457 H 0.21382 0.08013 0.75024 0.0
H458 H 0.18613 0.02023 0.74788 0.0
H459 H 0.2034 0.0544 0.72307 0.0
H460 H 0.13678 0.00496 0.69046 0.0
H461 H 0.15103 0.95468 0.6733 0.0
H462 H 0.78542 0.09611 0.07884 0.0
H463 H 0.72579 0.10215 0.07412 0.0
H464 H 0.7364 0.09873 1.00226 0.0
H465 H 0.79666 0.09333 1.0068 0.0
H466 H 0.71698 0.15915 1.01685 0.0
H467 H 0.60876 0.99101 0.05556 0.0
H468 H 0.65341 0.03084 0.07274 0.0
H469 H 0.66245 0.01272 0.04675 0.0
C470 C 0.77558 0.0973 0.06199 0.0
C471 C 0.7957 0.09375 0.04321 0.0
C472 C 0.74127 0.10057 0.05933 0.0
C473 C 0.72595 0.1 0.03785 0.0
C474 C 0.74747 0.09904 1.01902 0.0
H475 H 0.46948 0.00557 1.00396 0.0
H476 H 0.54083 0.02298 1.00686 0.0
C477 C 0.78197 0.09594 1.02165 0.0
C478 C 0.68576 0.09707 0.03511 0.0
H479 H 0.5787 0.02974 0.04672 0.0
C480 C 0.68673 0.13094 0.02342 0.0
C481 C 0.64613 0.05999 0.04345 0.0
C482 C 0.64232 0.02133 0.05515 0.0
C483 C 0.64921 0.12873 1.01993 0.0
C484 C 0.60972 0.09187 0.02851 0.0
C485 C 0.60893 0.05818 0.04025 0.0
C486 C 0.56812 0.08547 0.02443 0.0
C487 C 0.65188 0.16515 1.00655 0.0
C488 C 0.5596 0.1154 0.03282 0.0
C489 C 0.5184 0.10558 0.03101 0.0
C490 C 0.485 0.06542 1.02104 0.0
C491 C 0.49429 0.03666 1.01189 0.0
C492 C 0.53519 0.04655 1.01355 0.0
H493 H 0.6825 0.18594 0.99714 0.0
H494 H 0.62498 0.15068 0.99448 0.0
H495 H 0.64963 0.18732 1.01813 0.0
H496 H 0.58423 0.14535 0.04159 0.0
H497 H 0.51221 0.12821 0.03841 0.0
H498 H 0.70871 0.71351 0.35752 0.0
H499 H 0.64688 0.63531 0.35672 0.0
H500 H 0.73059 0.59314 0.36033 0.0
H501 H 0.79271 0.67141 0.36169 0.0
H502 H 0.62341 0.56777 0.32738 0.0
H503 H 0.64934 0.5244 0.41202 0.0
H504 H 0.67781 0.5814 0.40221 0.0
H505 H 0.69425 0.54667 0.39347 0.0
C506 C 0.71407 0.68766 0.35815 0.0
C507 C 0.75571 0.69877 0.35987 0.0
C508 C 0.67862 0.64292 0.35766 0.0
C509 C 0.68399 0.60831 0.35888 0.0
C510 C 0.72558 0.61925 0.35994 0.0
H511 H 0.50535 0.31828 0.3604 0.0
H512 H 0.56857 0.39564 0.35748 0.0
C513 C 0.76109 0.66404 0.36057 0.0
C514 C 0.64598 0.56089 0.35907 0.0
H515 H 0.59448 0.46456 0.39006 0.0
C516 C 0.61704 0.54523 0.34111 0.0
C517 C 0.63759 0.53152 0.37703 0.0
C518 C 0.66613 0.54686 0.39738 0.0
C519 C 0.58027 0.50089 0.3405 0.0
C520 C 0.57203 0.47159 0.35842 0.0
C521 C 0.60101 0.48711 0.37631 0.0
C522 C 0.5333 0.42473 0.3591 0.0
C523 C 0.5508 0.48551 0.32056 0.0
C524 C 0.49247 0.41546 0.36103 0.0
C525 C 0.45619 0.37123 0.3628 0.0
C526 C 0.46012 0.33546 0.36268 0.0
C527 C 0.5011 0.34495 0.3605 0.0
C528 C 0.53732 0.38916 0.35885 0.0
H529 H 0.56638 0.50867 0.30605 0.0
H530 H 0.54001 0.45147 0.31528 0.0
H531 H 0.52208 0.48406 0.32528 0.0
H532 H 0.48873 0.44248 0.3616 0.0
H533 H 0.42515 0.36514 0.36451 0.0
H534 H 0.10083 0.68669 0.71707 0.0
H535 H 0.07888 0.60981 0.72299 0.0
H536 H 0.1565 0.62415 0.66659 0.0
H537 H 0.17967 0.70091 0.66121 0.0
H538 H 0.03698 0.5372 0.69821 0.0
H539 H 0.19813 0.57932 0.71258 0.0
H540 H 0.18794 0.62144 0.71194 0.0
H541 H 0.19666 0.6019 0.68624 0.0
C542 C 0.1132 0.67334 0.70601 0.0
C543 C 0.14234 0.69995 0.68885 0.0
C544 C 0.10075 0.62951 0.70942 0.0
C545 C 0.11704 0.61159 0.69565 0.0
C546 C 0.14478 0.63769 0.67799 0.0
H547 H 1.00864 0.34058 0.66092 0.0
H548 H 0.02782 0.41588 0.66638 0.0
C549 C 0.1577 0.68151 0.67481 0.0
C550 C 0.10416 0.56517 0.69902 0.0
H551 H 0.14447 0.50338 0.70076 0.0
C552 C 0.06048 0.52984 0.69912 0.0
C553 C 0.13468 0.55539 0.70088 0.0
C554 C 0.18191 0.59163 0.70318 0.0
C555 C 0.04661 0.48504 0.69968 0.0
C556 C 0.07728 0.4753 0.6993 0.0
C557 C 0.12087 0.51065 0.70057 0.0
C558 C 0.06506 0.42902 0.69642 0.0
C559 C 0.9992 0.44876 0.70068 0.0
C560 C 0.08112 0.4118 0.71088 0.0
C561 C 0.07108 0.36898 0.70741 0.0
C562 C 0.04454 0.34251 0.68951 0.0
C563 C 0.0287 0.35989 0.67504 0.0
C564 C 0.0393 0.40286 0.67829 0.0
H565 H 0.98193 0.46075 0.70925 0.0
H566 H 0.98648 0.43913 0.68336 0.0
H567 H 0.99212 0.41861 0.70965 0.0
H568 H 0.10141 0.43148 0.72486 0.0
H569 H 0.08374 0.35645 0.71885 0.0
loop_
_geom_bond_atom_site_label_1
_geom_bond_atom_site_label_2
_geom_bond_distance
_geom_bond_site_symmetry_2
_ccdc_geom_bond_type
Cu0 N1 1.999 1_554 S
Cu0 O6 1.974 . S
Cu0 N11 1.985 . S
Cu0 O20 1.959 . S
N1 Cu0 1.999 1_556 S
N1 C3 1.263 . S
N1 C5 1.389 . S
N2 C3 1.358 . S
N2 C4 1.400 . S
C3 N1 1.263 . S
C3 N2 1.358 . S
C3 H9 0.930 1_545 S
C4 N2 1.400 . S
C4 C5 1.351 . S
C4 H21 0.930 . S
C5 N1 1.389 . S
C5 C4 1.351 . S
C5 H10 0.930 . S
O6 Cu0 1.974 . S
O6 C16 1.282 . S
C7 O8 1.261 1_545 S
C7 O20 1.251 . S
O8 C7 1.261 1_565 S
H9 C3 0.930 1_565 S
H10 C5 0.930 . S
N11 Cu0 1.985 . S
N11 C13 1.335 . S
N11 C14 1.390 . S
N12 C13 1.345 . S
N12 C15 1.336 . S
C13 N11 1.335 . S
C13 N12 1.345 . S
C13 H18 0.930 . S
C14 N11 1.390 . S
C14 C15 1.346 . S
C14 H19 0.930 . S
C15 N12 1.336 . S
C15 C14 1.346 . S
C15 H22 0.929 . S
C16 O6 1.282 . S
C16 O17 1.216 1_545 S
O17 C16 1.216 1_565 S
H18 C13 0.930 . S
H19 C14 0.930 . S
O20 Cu0 1.959 . S
O20 C7 1.251 . S
H21 C4 0.930 . S
H22 C15 0.929 . S
Cu23 N24 1.999 . S
Cu23 O29 1.974 . S
Cu23 N34 1.985 . S
Cu23 O43 1.959 . S
N24 Cu23 1.999 . S
N24 C26 1.263 . S
N24 C28 1.389 . S
N25 C26 1.358 . S
N25 C27 1.400 . S
C26 N24 1.263 . S
C26 N25 1.358 . S
C26 H32 0.930 . S
C27 N25 1.400 . S
C27 C28 1.351 . S
C27 H44 0.930 . S
C28 N24 1.389 . S
C28 C27 1.351 . S
C28 H33 0.930 . S
O29 Cu23 1.974 . S
O29 C39 1.282 . S
C30 O31 1.261 . S
C30 O43 1.251 . S
O31 C30 1.261 . S
H32 C26 0.930 . S
H33 C28 0.930 . S
N34 Cu23 1.985 . S
N34 C36 1.335 . S
N34 C37 1.390 . S
N35 C36 1.345 . S
N35 C38 1.336 . S
C36 N34 1.335 . S
C36 N35 1.345 . S
C36 H41 0.930 . S
C37 N34 1.390 . S
C37 C38 1.346 . S
C37 H42 0.930 . S
C38 N35 1.336 . S
C38 C37 1.346 . S
C38 H45 0.929 . S
C39 O29 1.282 . S
C39 O40 1.216 . S
O40 C39 1.216 . S
H41 C36 0.930 . S
H42 C37 0.930 . S
O43 Cu23 1.959 . S
O43 C30 1.251 . S
H44 C27 0.930 . S
H45 C38 0.929 . S
Cu46 N47 1.999 . S
Cu46 O52 1.974 . S
Cu46 N57 1.985 . S
Cu46 O66 1.959 . S
N47 Cu46 1.999 . S
N47 C49 1.263 1_455 S
N47 C51 1.389 . S
N48 C49 1.358 . S
N48 C50 1.400 . S
C49 N47 1.263 1_655 S
C49 N48 1.358 . S
C49 H55 0.930 . S
C50 N48 1.400 . S
C50 C51 1.351 1_655 S
C50 H67 0.930 1_655 S
C51 N47 1.389 . S
C51 C50 1.351 1_455 S
C51 H56 0.930 . S
O52 Cu46 1.974 . S
O52 C62 1.282 1_455 S
C53 O54 1.261 . S
C53 O66 1.251 1_655 S
O54 C53 1.261 . S
H55 C49 0.930 . S
H56 C51 0.930 . S
N57 Cu46 1.985 . S
N57 C59 1.335 . S
N57 C60 1.390 . S
N58 C59 1.345 . S
N58 C61 1.336 . S
C59 N57 1.335 . S
C59 N58 1.345 . S
C59 H64 0.930 . S
C60 N57 1.390 . S
C60 C61 1.346 . S
C60 H65 0.930 . S
C61 N58 1.336 . S
C61 C60 1.346 . S
C61 H68 0.929 . S
C62 O52 1.282 1_655 S
C62 O63 1.216 . S
O63 C62 1.216 . S
H64 C59 0.930 . S
H65 C60 0.930 . S
O66 Cu46 1.959 . S
O66 C53 1.251 1_455 S
H67 C50 0.930 1_455 S
H68 C61 0.929 . S
Cu69 N70 1.999 1_554 S
Cu69 O75 1.974 . S
Cu69 N80 1.985 . S
Cu69 O89 1.959 . S
N70 Cu69 1.999 1_556 S
N70 C72 1.263 . S
N70 C74 1.389 . S
N71 C72 1.358 . S
N71 C73 1.400 . S
C72 N70 1.263 . S
C72 N71 1.358 . S
C72 H78 0.930 . S
C73 N71 1.400 . S
C73 C74 1.351 . S
C73 H90 0.930 . S
C74 N70 1.389 . S
C74 C73 1.351 . S
C74 H79 0.930 1_545 S
O75 Cu69 1.974 . S
O75 C85 1.282 . S
C76 O77 1.261 . S
C76 O89 1.251 . S
O77 C76 1.261 . S
H78 C72 0.930 . S
H79 C74 0.930 1_565 S
N80 Cu69 1.985 . S
N80 C82 1.335 1_545 S
N80 C83 1.390 . S
N81 C82 1.345 . S
N81 C84 1.309 1_565 S
C82 N80 1.335 1_565 S
C82 N81 1.345 . S
C82 H87 0.930 . S
C83 N80 1.390 . S
C83 C84 1.359 . S
C83 H88 0.930 . S
C84 N81 1.309 1_545 S
C84 C83 1.359 . S
C84 H91 0.944 . S
C85 O75 1.282 . S
C85 O86 1.216 . S
O86 C85 1.216 . S
H87 C82 0.930 . S
H88 C83 0.930 . S
O89 Cu69 1.959 . S
O89 C76 1.251 . S
H90 C73 0.930 . S
H91 C84 0.944 . S
Cu92 N93 1.999 . S
Cu92 O98 1.974 . S
Cu92 N103 1.985 . S
Cu92 O112 1.959 . S
N93 Cu92 1.999 . S
N93 C95 1.263 . S
N93 C97 1.389 . S
N94 C95 1.358 . S
N94 C96 1.400 . S
C95 N93 1.263 . S
C95 N94 1.358 . S
C95 H101 0.930 . S
C96 N94 1.400 . S
C96 C97 1.351 . S
C96 H113 0.930 . S
C97 N93 1.389 . S
C97 C96 1.351 . S
C97 H102 0.930 . S
O98 Cu92 1.974 . S
O98 C108 1.282 . S
C99 O100 1.261 . S
C99 O112 1.251 . S
O100 C99 1.261 . S
H101 C95 0.930 . S
H102 C97 0.930 . S
N103 Cu92 1.985 . S
N103 C105 1.335 . S
N103 C106 1.390 . S
N104 C105 1.345 . S
N104 C107 1.336 . S
C105 N103 1.335 . S
C105 N104 1.345 . S
C105 H110 0.930 . S
C106 N103 1.390 . S
C106 C107 1.346 . S
C106 H111 0.930 . S
C107 N104 1.336 . S
C107 C106 1.346 . S
C107 H114 0.929 . S
C108 O98 1.282 . S
C108 O109 1.216 . S
O109 C108 1.216 . S
H110 C105 0.930 . S
H111 C106 0.930 . S
O112 Cu92 1.959 . S
O112 C99 1.251 . S
H113 C96 0.930 . S
H114 C107 0.929 . S
Cu115 N116 1.999 . S
Cu115 O121 1.974 . S
Cu115 N126 1.985 . S
Cu115 O135 1.959 . S
N116 Cu115 1.999 . S
N116 C118 1.263 . S
N116 C120 1.389 . S
N117 C118 1.358 . S
N117 C119 1.400 . S
C118 N116 1.263 . S
C118 N117 1.358 . S
C118 H124 0.930 . S
C119 N117 1.400 . S
C119 C120 1.351 . S
C119 H136 0.930 . S
C120 N116 1.389 . S
C120 C119 1.351 . S
C120 H125 0.930 . S
O121 Cu115 1.974 . S
O121 C131 1.282 . S
C122 O123 1.261 . S
C122 O135 1.251 . S
O123 C122 1.261 . S
H124 C118 0.930 . S
H125 C120 0.930 . S
N126 Cu115 1.985 . S
N126 C128 1.335 . S
N126 C129 1.390 . S
N127 C128 1.345 . S
N127 C130 1.336 . S
C128 N126 1.335 . S
C128 N127 1.345 . S
C128 H133 0.930 . S
C129 N126 1.390 . S
C129 C130 1.346 . S
C129 H134 0.930 . S
C130 N127 1.336 . S
C130 C129 1.346 . S
C130 H137 0.929 . S
C131 O121 1.282 . S
C131 O132 1.216 . S
O132 C131 1.216 . S
H133 C128 0.930 . S
H134 C129 0.930 . S
O135 Cu115 1.959 . S
O135 C122 1.251 . S
H136 C119 0.930 . S
H137 C130 0.929 . S
H138 C146 0.929 . S
H139 C148 0.930 . S
H140 C150 0.930 . S
H141 C153 0.929 . S
H142 C156 0.930 . S
H143 C158 0.960 . S
H144 C158 0.960 . S
H145 C158 0.960 . S
C146 H138 0.929 . S
C146 C147 1.377 . S
C146 C148 1.384 . S
C147 C146 1.377 . S
C147 C153 1.390 . S
C148 H139 0.930 . S
C148 C146 1.384 . S
C148 C149 1.372 . S
C149 C148 1.372 . S
C149 C150 1.400 . S
C149 C154 1.490 . S
C150 H140 0.930 . S
C150 C149 1.400 . S
C150 C153 1.386 . S
H151 C167 0.930 . S
H152 C168 0.931 . S
C153 H141 0.929 . S
C153 C147 1.390 . S
C153 C150 1.386 . S
C154 C149 1.490 . S
C154 C156 1.395 . S
C154 C157 1.403 . S
H155 C161 0.930 . S
C156 H142 0.930 . S
C156 C154 1.395 . S
C156 C159 1.403 . S
C157 C154 1.403 . S
C157 C158 1.524 . S
C157 C161 1.400 . S
C158 H143 0.960 . S
C158 H144 0.960 . S
C158 H145 0.960 . S
C158 C157 1.524 . S
C159 C156 1.403 . S
C159 C160 1.392 . S
C159 C163 1.495 . S
C160 C159 1.392 . S
C160 C161 1.385 . S
C160 C162 1.478 . S
C161 H155 0.930 . S
C161 C157 1.400 . S
C161 C160 1.385 . S
C162 C160 1.478 . S
C162 C164 1.381 . S
C162 C168 1.383 . S
C163 C159 1.495 . S
C163 H169 0.959 . S
C163 H170 0.961 . S
C163 H171 0.960 . S
C164 C162 1.381 . S
C164 C165 1.394 . S
C164 H172 0.930 . S
C165 C164 1.394 . S
C165 C166 1.383 . S
C165 H173 0.929 . S
C166 C165 1.383 . S
C166 C167 1.377 . S
C167 H151 0.930 . S
C167 C166 1.377 . S
C167 C168 1.379 . S
C168 H152 0.931 . S
C168 C162 1.383 . S
C168 C167 1.379 . S
H169 C163 0.959 . S
H170 C163 0.961 . S
H171 C163 0.960 . S
H172 C164 0.930 . S
H173 C165 0.929 . S
H174 C182 0.929 . S
H175 C184 0.930 . S
H176 C186 0.930 . S
H177 C189 0.929 . S
H178 C192 0.930 . S
H179 C194 0.960 . S
H180 C194 0.960 . S
H181 C194 0.960 . S
C182 H174 0.929 . S
C182 C183 1.377 . S
C182 C184 1.384 . S
C183 C182 1.377 . S
C183 C189 1.390 . S
C184 H175 0.930 . S
C184 C182 1.384 . S
C184 C185 1.372 . S
C185 C184 1.372 . S
C185 C186 1.400 . S
C185 C190 1.490 . S
C186 H176 0.930 . S
C186 C185 1.400 . S
C186 C189 1.386 . S
H187 C203 0.930 . S
H188 C204 0.931 . S
C189 H177 0.929 . S
C189 C183 1.390 . S
C189 C186 1.386 . S
C190 C185 1.490 . S
C190 C192 1.395 . S
C190 C193 1.403 . S
H191 C197 0.930 . S
C192 H178 0.930 . S
C192 C190 1.395 . S
C192 C195 1.403 . S
C193 C190 1.403 . S
C193 C194 1.524 . S
C193 C197 1.400 . S
C194 H179 0.960 . S
C194 H180 0.960 . S
C194 H181 0.960 . S
C194 C193 1.524 . S
C195 C192 1.403 . S
C195 C196 1.392 . S
C195 C199 1.495 . S
C196 C195 1.392 . S
C196 C197 1.385 . S
C196 C198 1.478 . S
C197 H191 0.930 . S
C197 C193 1.400 . S
C197 C196 1.385 . S
C198 C196 1.478 . S
C198 C200 1.381 . S
C198 C204 1.383 . S
C199 C195 1.495 . S
C199 H205 0.959 . S
C199 H206 0.961 . S
C199 H207 0.960 . S
C200 C198 1.381 . S
C200 C201 1.394 . S
C200 H208 0.930 . S
C201 C200 1.394 . S
C201 C202 1.383 . S
C201 H209 0.929 . S
C202 C201 1.383 . S
C202 C203 1.377 . S
C203 H187 0.930 . S
C203 C202 1.377 . S
C203 C204 1.379 . S
C204 H188 0.931 . S
C204 C198 1.383 . S
C204 C203 1.379 . S
H205 C199 0.959 . S
H206 C199 0.961 . S
H207 C199 0.960 . S
H208 C200 0.930 . S
H209 C201 0.929 . S
H210 C218 0.929 . S
H211 C220 0.930 . S
H212 C222 0.930 . S
H213 C225 0.929 . S
H214 C228 0.930 . S
H215 C230 0.960 . S
H216 C230 0.960 . S
H217 C230 0.960 . S
C218 H210 0.929 . S
C218 C219 1.377 . S
C218 C220 1.384 . S
C219 C218 1.377 . S
C219 C225 1.390 . S
C220 H211 0.930 . S
C220 C218 1.384 . S
C220 C221 1.372 . S
C221 C220 1.372 . S
C221 C222 1.400 . S
C221 C226 1.490 . S
C222 H212 0.930 . S
C222 C221 1.400 . S
C222 C225 1.386 . S
H223 C239 0.930 1_455 S
H224 C240 0.931 . S
C225 H213 0.929 . S
C225 C219 1.390 . S
C225 C222 1.386 . S
C226 C221 1.490 . S
C226 C228 1.395 . S
C226 C229 1.403 . S
H227 C233 0.930 . S
C228 H214 0.930 . S
C228 C226 1.395 . S
C228 C231 1.403 . S
C229 C226 1.403 . S
C229 C230 1.524 . S
C229 C233 1.400 . S
C230 H215 0.960 . S
C230 H216 0.960 . S
C230 H217 0.960 . S
C230 C229 1.524 . S
C231 C228 1.403 . S
C231 C232 1.392 . S
C231 C235 1.495 . S
C232 C231 1.392 . S
C232 C233 1.385 . S
C232 C234 1.478 . S
C233 H227 0.930 . S
C233 C229 1.400 . S
C233 C232 1.385 . S
C234 C232 1.478 . S
C234 C236 1.381 . S
C234 C240 1.383 . S
C235 C231 1.495 . S
C235 H241 0.959 . S
C235 H242 0.961 . S
C235 H243 0.960 . S
C236 C234 1.381 . S
C236 C237 1.394 . S
C236 H244 0.930 . S
C237 C236 1.394 . S
C237 C238 1.383 . S
C237 H245 0.929 . S
C238 C237 1.383 . S
C238 C239 1.377 . S
C239 H223 0.930 1_655 S
C239 C238 1.377 . S
C239 C240 1.379 . S
C240 H224 0.931 . S
C240 C234 1.383 . S
C240 C239 1.379 . S
H241 C235 0.959 . S
H242 C235 0.961 . S
H243 C235 0.960 . S
H244 C236 0.930 . S
H245 C237 0.929 . S
H246 C254 0.929 1_545 S
H247 C256 0.930 . S
H248 C258 0.930 . S
H249 C261 0.929 . S
H250 C264 0.930 . S
H251 C266 0.960 . S
H252 C266 0.960 . S
H253 C266 0.960 . S
C254 H246 0.929 1_565 S
C254 C255 1.377 . S
C254 C256 1.384 . S
C255 C254 1.377 . S
C255 C261 1.390 . S
C256 H247 0.930 . S
C256 C254 1.384 . S
C256 C257 1.372 . S
C257 C256 1.372 . S
C257 C258 1.400 . S
C257 C262 1.490 . S
C258 H248 0.930 . S
C258 C257 1.400 . S
C258 C261 1.386 . S
H259 C275 0.930 . S
H260 C276 0.931 . S
C261 H249 0.929 . S
C261 C255 1.390 . S
C261 C258 1.386 . S
C262 C257 1.490 . S
C262 C264 1.395 . S
C262 C265 1.403 . S
H263 C269 0.930 . S
C264 H250 0.930 . S
C264 C262 1.395 . S
C264 C267 1.403 . S
C265 C262 1.403 . S
C265 C266 1.524 . S
C265 C269 1.400 . S
C266 H251 0.960 . S
C266 H252 0.960 . S
C266 H253 0.960 . S
C266 C265 1.524 . S
C267 C264 1.403 . S
C267 C268 1.392 . S
C267 C271 1.495 . S
C268 C267 1.392 . S
C268 C269 1.385 . S
C268 C270 1.478 . S
C269 H263 0.930 . S
C269 C265 1.400 . S
C269 C268 1.385 . S
C270 C268 1.478 . S
C270 C272 1.381 . S
C270 C276 1.383 . S
C271 C267 1.495 . S
C271 H277 0.959 . S
C271 H278 0.961 . S
C271 H279 0.960 . S
C272 C270 1.381 . S
C272 C273 1.394 . S
C272 H280 0.930 . S
C273 C272 1.394 . S
C273 C274 1.383 . S
C273 H281 0.929 . S
C274 C273 1.383 . S
C274 C275 1.377 . S
C275 H259 0.930 . S
C275 C274 1.377 . S
C275 C276 1.379 . S
C276 H260 0.931 . S
C276 C270 1.383 . S
C276 C275 1.379 . S
H277 C271 0.959 . S
H278 C271 0.961 . S
H279 C271 0.960 . S
H280 C272 0.930 . S
H281 C273 0.929 . S
H282 C290 0.929 . S
H283 C292 0.930 . S
H284 C294 0.930 . S
H285 C297 0.929 . S
H286 C300 0.930 . S
H287 C302 0.960 . S
H288 C302 0.960 . S
H289 C302 0.960 . S
C290 H282 0.929 . S
C290 C291 1.377 . S
C290 C292 1.384 . S
C291 C290 1.377 . S
C291 C297 1.390 . S
C292 H283 0.930 . S
C292 C290 1.384 . S
C292 C293 1.372 . S
C293 C292 1.372 . S
C293 C294 1.400 . S
C293 C298 1.490 . S
C294 H284 0.930 . S
C294 C293 1.400 . S
C294 C297 1.386 . S
H295 C311 0.930 . S
H296 C312 0.931 . S
C297 H285 0.929 . S
C297 C291 1.390 . S
C297 C294 1.386 . S
C298 C293 1.490 . S
C298 C300 1.395 . S
C298 C301 1.403 . S
H299 C305 0.930 . S
C300 H286 0.930 . S
C300 C298 1.395 . S
C300 C303 1.403 1_455 S
C301 C298 1.403 . S
C301 C302 1.524 . S
C301 C305 1.400 . S
C302 H287 0.960 . S
C302 H288 0.960 . S
C302 H289 0.960 . S
C302 C301 1.524 . S
C303 C300 1.403 1_655 S
C303 C304 1.392 . S
C303 C307 1.495 . S
C304 C303 1.392 . S
C304 C305 1.385 1_655 S
C304 C306 1.478 . S
C305 H299 0.930 . S
C305 C301 1.400 . S
C305 C304 1.385 1_455 S
C306 C304 1.478 . S
C306 C308 1.381 . S
C306 C312 1.383 . S
C307 C303 1.495 . S
C307 H313 0.959 . S
C307 H314 0.961 . S
C307 H315 0.960 . S
C308 C306 1.381 . S
C308 C309 1.394 . S
C308 H316 0.930 1_655 S
C309 C308 1.394 . S
C309 C310 1.383 . S
C309 H317 0.929 . S
C310 C309 1.383 . S
C310 C311 1.377 . S
C311 H295 0.930 . S
C311 C310 1.377 . S
C311 C312 1.379 . S
C312 H296 0.931 . S
C312 C306 1.383 . S
C312 C311 1.379 . S
H313 C307 0.959 . S
H314 C307 0.961 . S
H315 C307 0.960 . S
H316 C308 0.930 1_455 S
H317 C309 0.929 . S
H318 C326 0.929 . S
H319 C328 0.930 . S
H320 C330 0.930 . S
H321 C333 0.929 . S
H322 C336 0.930 . S
H323 C338 0.960 . S
H324 C338 0.960 . S
H325 C338 0.960 . S
C326 H318 0.929 . S
C326 C327 1.377 . S
C326 C328 1.384 . S
C327 C326 1.377 . S
C327 C333 1.390 . S
C328 H319 0.930 . S
C328 C326 1.384 . S
C328 C329 1.372 . S
C329 C328 1.372 . S
C329 C330 1.400 . S
C329 C334 1.490 . S
C330 H320 0.930 . S
C330 C329 1.400 . S
C330 C333 1.386 . S
H331 C347 0.930 . S
H332 C348 0.931 . S
C333 H321 0.929 . S
C333 C327 1.390 . S
C333 C330 1.386 . S
C334 C329 1.490 . S
C334 C336 1.395 . S
C334 C337 1.403 . S
H335 C341 0.930 . S
C336 H322 0.930 . S
C336 C334 1.395 . S
C336 C339 1.403 . S
C337 C334 1.403 . S
C337 C338 1.524 . S
C337 C341 1.400 . S
C338 H323 0.960 . S
C338 H324 0.960 . S
C338 H325 0.960 . S
C338 C337 1.524 . S
C339 C336 1.403 . S
C339 C340 1.392 . S
C339 C343 1.495 . S
C340 C339 1.392 . S
C340 C341 1.385 . S
C340 C342 1.478 . S
C341 H335 0.930 . S
C341 C337 1.400 . S
C341 C340 1.385 . S
C342 C340 1.478 . S
C342 C344 1.381 . S
C342 C348 1.383 . S
C343 C339 1.495 . S
C343 H349 0.959 1_565 S
C343 H350 0.961 . S
C343 H351 0.960 . S
C344 C342 1.381 . S
C344 C345 1.394 . S
C344 H352 0.930 . S
C345 C344 1.394 . S
C345 C346 1.383 . S
C345 H353 0.929 . S
C346 C345 1.383 . S
C346 C347 1.377 . S
C347 H331 0.930 . S
C347 C346 1.377 . S
C347 C348 1.379 . S
C348 H332 0.931 . S
C348 C342 1.383 . S
C348 C347 1.379 . S
H349 C343 0.959 1_545 S
H350 C343 0.961 . S
H351 C343 0.960 . S
H352 C344 0.930 . S
H353 C345 0.929 . S
H354 C362 0.929 . S
H355 C364 0.930 . S
H356 C366 0.930 . S
H357 C369 0.929 . S
H358 C372 0.930 1_556 S
H359 C374 0.960 . S
H360 C374 0.960 1_545 S
H361 C374 0.960 . S
C362 H354 0.929 . S
C362 C363 1.377 . S
C362 C364 1.384 . S
C363 C362 1.377 . S
C363 C369 1.390 1_545 S
C364 H355 0.930 . S
C364 C362 1.384 . S
C364 C365 1.372 . S
C365 C364 1.372 . S
C365 C366 1.400 1_545 S
C365 C370 1.490 . S
C366 H356 0.930 . S
C366 C365 1.400 1_565 S
C366 C369 1.386 . S
H367 C383 0.930 1_565 S
H368 C384 0.906 1_565 S
C369 H357 0.929 . S
C369 C363 1.390 1_565 S
C369 C366 1.386 . S
C370 C365 1.490 . S
C370 C372 1.395 . S
C370 C373 1.403 . S
H371 C377 0.930 . S
C372 H358 0.930 1_554 S
C372 C370 1.395 . S
C372 C375 1.407 . S
C373 C370 1.403 . S
C373 C374 1.524 1_545 S
C373 C377 1.400 . S
C374 H359 0.960 . S
C374 H360 0.960 1_565 S
C374 H361 0.960 . S
C374 C373 1.524 1_565 S
C375 C372 1.407 . S
C375 C376 1.423 . S
C375 C379 1.462 1_554 S
C376 C375 1.423 . S
C376 C377 1.385 . S
C376 C378 1.478 . S
C377 H371 0.930 . S
C377 C373 1.400 . S
C377 C376 1.385 . S
C378 C376 1.478 . S
C378 C380 1.381 . S
C378 C384 1.392 1_455 S
C379 C375 1.462 1_556 S
C379 H385 0.959 . S
C379 H386 0.961 . S
C379 H387 0.960 . S
C380 C378 1.381 . S
C380 C381 1.394 1_455 S
C380 H388 0.930 . S
C381 C380 1.394 1_655 S
C381 C382 1.383 . S
C381 H389 0.929 . S
C382 C381 1.383 . S
C382 C383 1.377 . S
C383 H367 0.930 1_545 S
C383 C382 1.377 . S
C383 C384 1.396 . S
C384 H368 0.906 1_545 S
C384 C378 1.392 1_655 S
C384 C383 1.396 . S
H385 C379 0.959 . S
H386 C379 0.961 . S
H387 C379 0.960 . S
H388 C380 0.930 . S
H389 C381 0.929 . S
H390 C398 0.929 . S
H391 C400 0.921 1_455 S
H392 C402 0.930 . S
H393 C405 0.929 . S
H394 C408 0.930 . S
H395 C410 0.960 . S
H396 C410 0.960 . S
H397 C410 0.960 . S
C398 H390 0.929 . S
C398 C399 1.377 . S
C398 C400 1.384 . S
C399 C398 1.377 . S
C399 C405 1.390 . S
C400 H391 0.921 1_655 S
C400 C398 1.384 . S
C400 C401 1.372 1_655 S
C401 C400 1.372 1_455 S
C401 C402 1.400 1_455 S
C401 C406 1.490 . S
C402 H392 0.930 . S
C402 C401 1.400 1_655 S
C402 C405 1.386 . S
H403 C419 0.930 . S
H404 C420 0.931 . S
C405 H393 0.929 . S
C405 C399 1.390 . S
C405 C402 1.386 . S
C406 C401 1.490 . S
C406 C408 1.395 . S
C406 C409 1.403 1_565 S
H407 C413 0.930 . S
C408 H394 0.930 . S
C408 C406 1.395 . S
C408 C411 1.403 1_565 S
C409 C406 1.403 1_545 S
C409 C410 1.524 . S
C409 C413 1.400 . S
C410 H395 0.960 . S
C410 H396 0.960 . S
C410 H397 0.960 . S
C410 C409 1.524 . S
C411 C408 1.403 1_545 S
C411 C412 1.392 . S
C411 C415 1.495 . S
C412 C411 1.392 . S
C412 C413 1.385 . S
C412 C414 1.478 . S
C413 H407 0.930 . S
C413 C409 1.400 . S
C413 C412 1.385 . S
C414 C412 1.478 . S
C414 C416 1.381 . S
C414 C420 1.383 . S
C415 C411 1.495 . S
C415 H421 0.959 1_545 S
C415 H422 0.961 . S
C415 H423 0.960 . S
C416 C414 1.381 . S
C416 C417 1.394 . S
C416 H424 0.930 . S
C417 C416 1.394 . S
C417 C418 1.383 . S
C417 H425 0.929 . S
C418 C417 1.383 . S
C418 C419 1.377 . S
C419 H403 0.930 . S
C419 C418 1.377 . S
C419 C420 1.379 . S
C420 H404 0.931 . S
C420 C414 1.383 . S
C420 C419 1.379 . S
H421 C415 0.959 1_565 S
H422 C415 0.961 . S
H423 C415 0.960 . S
H424 C416 0.930 . S
H425 C417 0.929 . S
H426 C434 0.929 . S
H427 C436 0.930 . S
H428 C438 0.930 . S
H429 C441 0.929 . S
H430 C444 0.930 . S
H431 C446 0.960 1_655 S
H432 C446 0.960 1_655 S
H433 C446 0.960 1_655 S
C434 H426 0.929 . S
C434 C435 1.377 . S
C434 C436 1.384 . S
C435 C434 1.377 . S
C435 C441 1.390 1_455 S
C436 H427 0.930 . S
C436 C434 1.384 . S
C436 C437 1.372 . S
C437 C436 1.372 . S
C437 C438 1.400 . S
C437 C442 1.490 . S
C438 H428 0.930 . S
C438 C437 1.400 . S
C438 C441 1.386 1_455 S
H439 C455 0.930 . S
H440 C456 0.931 . S
C441 H429 0.929 . S
C441 C435 1.390 1_655 S
C441 C438 1.386 1_655 S
C442 C437 1.490 . S
C442 C444 1.395 . S
C442 C445 1.403 . S
H443 C449 0.930 . S
C444 H430 0.930 . S
C444 C442 1.395 . S
C444 C447 1.403 . S
C445 C442 1.403 . S
C445 C446 1.524 1_545 S
C445 C449 1.400 1_545 S
C446 H431 0.960 1_455 S
C446 H432 0.960 1_455 S
C446 H433 0.960 1_455 S
C446 C445 1.524 1_565 S
C447 C444 1.403 . S
C447 C448 1.392 . S
C447 C451 1.495 . S
C448 C447 1.392 . S
C448 C449 1.385 1_545 S
C448 C450 1.478 1_545 S
C449 H443 0.930 . S
C449 C445 1.400 1_565 S
C449 C448 1.385 1_565 S
C450 C448 1.478 1_565 S
C450 C452 1.381 1_565 S
C450 C456 1.383 . S
C451 C447 1.495 . S
C451 H457 0.959 . S
C451 H458 0.961 . S
C451 H459 0.960 . S
C452 C450 1.381 1_545 S
C452 C453 1.394 1_545 S
C452 H460 0.930 . S
C453 C452 1.394 1_565 S
C453 C454 1.383 . S
C453 H461 0.929 . S
C454 C453 1.383 . S
C454 C455 1.377 . S
C455 H439 0.930 . S
C455 C454 1.377 . S
C455 C456 1.379 . S
C456 H440 0.931 . S
C456 C450 1.383 . S
C456 C455 1.379 . S
H457 C451 0.959 . S
H458 C451 0.961 . S
H459 C451 0.960 . S
H460 C452 0.930 . S
H461 C453 0.929 . S
H462 C470 0.929 . S
H463 C472 0.930 . S
H464 C474 0.930 1_565 S
H465 C477 0.932 . S
H466 C480 0.930 . S
H467 C482 0.960 . S
H468 C482 0.960 . S
H469 C482 0.960 . S
C470 H462 0.929 . S
C470 C471 1.377 . S
C470 C472 1.384 . S
C471 C470 1.377 . S
C471 C477 1.390 1_554 S
C472 H463 0.930 . S
C472 C470 1.384 . S
C472 C473 1.372 . S
C473 C472 1.372 . S
C473 C474 1.400 1_554 S
C473 C478 1.490 . S
C474 H464 0.930 1_545 S
C474 C473 1.400 1_556 S
C474 C477 1.386 . S
H475 C491 0.930 1_565 S
H476 C492 0.931 1_565 S
C477 H465 0.932 . S
C477 C471 1.390 1_556 S
C477 C474 1.386 . S
C478 C473 1.490 . S
C478 C480 1.395 . S
C478 C481 1.403 1_545 S
H479 C485 0.930 . S
C480 H466 0.930 . S
C480 C478 1.395 . S
C480 C483 1.403 . S
C481 C478 1.403 1_565 S
C481 C482 1.524 . S
C481 C485 1.400 . S
C482 H467 0.960 . S
C482 H468 0.960 . S
C482 H469 0.960 . S
C482 C481 1.524 . S
C483 C480 1.403 . S
C483 C484 1.392 . S
C483 C487 1.495 . S
C484 C483 1.392 . S
C484 C485 1.385 1_545 S
C484 C486 1.478 . S
C485 H479 0.930 . S
C485 C481 1.400 . S
C485 C484 1.385 1_565 S
C486 C484 1.478 . S
C486 C488 1.381 . S
C486 C492 1.383 1_554 S
C487 C483 1.495 . S
C487 H493 0.959 . S
C487 H494 0.961 1_554 S
C487 H495 0.960 . S
C488 C486 1.381 . S
C488 C489 1.394 . S
C488 H496 0.930 . S
C489 C488 1.394 . S
C489 C490 1.383 . S
C489 H497 0.929 . S
C490 C489 1.383 . S
C490 C491 1.377 1_554 S
C491 H475 0.930 1_545 S
C491 C490 1.377 1_556 S
C491 C492 1.379 . S
C492 H476 0.931 1_545 S
C492 C486 1.383 1_556 S
C492 C491 1.379 . S
H493 C487 0.959 . S
H494 C487 0.961 1_556 S
H495 C487 0.960 . S
H496 C488 0.930 . S
H497 C489 0.929 . S
H498 C506 0.929 . S
H499 C508 0.930 . S
H500 C510 0.930 . S
H501 C513 0.929 . S
H502 C516 0.930 . S
H503 C518 0.960 . S
H504 C518 0.960 . S
H505 C518 0.960 . S
C506 H498 0.929 . S
C506 C507 1.377 . S
C506 C508 1.384 . S
C507 C506 1.377 . S
C507 C513 1.390 . S
C508 H499 0.930 . S
C508 C506 1.384 . S
C508 C509 1.372 . S
C509 C508 1.372 . S
C509 C510 1.400 . S
C509 C514 1.490 . S
C510 H500 0.930 . S
C510 C509 1.400 . S
C510 C513 1.386 . S
H511 C527 0.930 . S
H512 C528 0.931 . S
C513 H501 0.929 . S
C513 C507 1.390 . S
C513 C510 1.386 . S
C514 C509 1.490 . S
C514 C516 1.395 . S
C514 C517 1.403 . S
H515 C521 0.930 . S
C516 H502 0.930 . S
C516 C514 1.395 . S
C516 C519 1.403 . S
C517 C514 1.403 . S
C517 C518 1.524 . S
C517 C521 1.400 . S
C518 H503 0.960 . S
C518 H504 0.960 . S
C518 H505 0.960 . S
C518 C517 1.524 . S
C519 C516 1.403 . S
C519 C520 1.392 . S
C519 C523 1.495 . S
C520 C519 1.392 . S
C520 C521 1.385 . S
C520 C522 1.478 . S
C521 H515 0.930 . S
C521 C517 1.400 . S
C521 C520 1.385 . S
C522 C520 1.478 . S
C522 C524 1.381 . S
C522 C528 1.383 . S
C523 C519 1.495 . S
C523 H529 0.959 . S
C523 H530 0.961 . S
C523 H531 0.960 . S
C524 C522 1.381 . S
C524 C525 1.394 . S
C524 H532 0.930 . S
C525 C524 1.394 . S
C525 C526 1.383 . S
C525 H533 0.929 . S
C526 C525 1.383 . S
C526 C527 1.377 . S
C527 H511 0.930 . S
C527 C526 1.377 . S
C527 C528 1.379 . S
C528 H512 0.931 . S
C528 C522 1.383 . S
C528 C527 1.379 . S
H529 C523 0.959 . S
H530 C523 0.961 . S
H531 C523 0.960 . S
H532 C524 0.930 . S
H533 C525 0.929 . S
H534 C542 0.929 . S
H535 C544 0.930 . S
H536 C546 0.930 . S
H537 C549 0.929 . S
H538 C552 0.930 . S
H539 C554 0.960 . S
H540 C554 0.960 . S
H541 C554 0.960 . S
C542 H534 0.929 . S
C542 C543 1.377 . S
C542 C544 1.384 . S
C543 C542 1.377 . S
C543 C549 1.390 . S
C544 H535 0.930 . S
C544 C542 1.384 . S
C544 C545 1.372 . S
C545 C544 1.372 . S
C545 C546 1.400 . S
C545 C550 1.490 . S
C546 H536 0.930 . S
C546 C545 1.400 . S
C546 C549 1.386 . S
H547 C563 0.930 . S
H548 C564 0.931 . S
C549 H537 0.929 . S
C549 C543 1.390 . S
C549 C546 1.386 . S
C550 C545 1.490 . S
C550 C552 1.395 . S
C550 C553 1.403 . S
H551 C557 0.930 . S
C552 H538 0.930 . S
C552 C550 1.395 . S
C552 C555 1.403 . S
C553 C550 1.403 . S
C553 C554 1.524 . S
C553 C557 1.400 . S
C554 H539 0.960 . S
C554 H540 0.960 . S
C554 H541 0.960 . S
C554 C553 1.524 . S
C555 C552 1.403 . S
C555 C556 1.392 . S
C555 C559 1.495 1_455 S
C556 C555 1.392 . S
C556 C557 1.385 . S
C556 C558 1.478 . S
C557 H551 0.930 . S
C557 C553 1.400 . S
C557 C556 1.385 . S
C558 C556 1.478 . S
C558 C560 1.381 . S
C558 C564 1.383 . S
C559 C555 1.495 1_655 S
C559 H565 0.959 . S
C559 H566 0.961 . S
C559 H567 0.960 . S
C560 C558 1.381 . S
C560 C561 1.394 . S
C560 H568 0.930 . S
C561 C560 1.394 . S
C561 C562 1.383 . S
C561 H569 0.928 . S
C562 C561 1.383 . S
C562 C563 1.377 . S
C563 H547 0.930 . S
C563 C562 1.377 . S
C563 C564 1.379 . S
C564 H548 0.931 . S
C564 C558 1.383 . S
C564 C563 1.379 . S
H565 C559 0.959 . S
H566 C559 0.961 . S
H567 C559 0.960 . S
H568 C560 0.930 . S
H569 C561 0.928 . S
C147 N12 1.740 . S
C166 N25 1.662 . S
C183 N35 1.709 . S
C202 N58 1.699 . S
C219 N71 1.737 . S
C238 N48 1.737 . S
C255 N81 1.744 . S
C274 N94 1.663 . S
C291 N127 1.704 . S
C310 N104 1.703 . S
C327 N2 1.738 1_565 S
C346 N117 1.684 . S
C363 C7 1.779 . S
C382 C76 1.769 . S
C399 C99 0.366 . S
C418 C30 0.380 . S
C435 C53 1.420 1_455 S
C454 C122 1.430 . S
C471 C85 1.836 . S
C490 C16 1.839 . S
C507 C108 1.153 . S
C526 C39 1.171 . S
C543 C131 2.030 . S
C562 C62 2.039 1_455 S
