# Generated by pormake.
# Topology sxg, (6)-cn, num edge types: 1
# Building blocks:
#     Node 0, Type 0, BuildingBlock: PAMTOO_clean_sbu_0, # of connection points: 6
#     Node 1, Type 0, BuildingBlock: PAMTOO_clean_sbu_0, # of connection points: 6
#     Node 2, Type 0, BuildingBlock: PAMTOO_clean_sbu_0, # of connection points: 6
#     Node 3, Type 0, BuildingBlock: PAMTOO_clean_sbu_0, # of connection points: 6
#     Node 4, Type 0, BuildingBlock: PAMTOO_clean_sbu_0, # of connection points: 6
#     Node 5, Type 0, BuildingBlock: PAMTOO_clean_sbu_0, # of connection points: 6
#     Node 6, Type 0, BuildingBlock: PAMTOO_clean_sbu_0, # of connection points: 6
#     Node 7, Type 0, BuildingBlock: PAMTOO_clean_sbu_0, # of connection points: 6
#     Node 8, Type 0, BuildingBlock: PAMTOO_clean_sbu_0, # of connection points: 6
#     Node 9, Type 0, BuildingBlock: PAMTOO_clean_sbu_0, # of connection points: 6
#     Node 10, Type 0, BuildingBlock: PAMTOO_clean_sbu_0, # of connection points: 6
#     Node 11, Type 0, BuildingBlock: PAMTOO_clean_sbu_0, # of connection points: 6
#     Node 12, Type 0, BuildingBlock: PAMTOO_clean_sbu_0, # of connection points: 6
#     Node 13, Type 0, BuildingBlock: PAMTOO_clean_sbu_0, # of connection points: 6
#     Node 14, Type 0, BuildingBlock: PAMTOO_clean_sbu_0, # of connection points: 6
#     Node 15, Type 0, BuildingBlock: PAMTOO_clean_sbu_0, # of connection points: 6
#     Node 16, Type 0, BuildingBlock: PAMTOO_clean_sbu_0, # of connection points: 6
#     Node 17, Type 0, BuildingBlock: PAMTOO_clean_sbu_0, # of connection points: 6
#     Node 18, Type 0, BuildingBlock: PAMTOO_clean_sbu_0, # of connection points: 6
#     Node 19, Type 0, BuildingBlock: PAMTOO_clean_sbu_0, # of connection points: 6
#     Node 20, Type 0, BuildingBlock: PAMTOO_clean_sbu_0, # of connection points: 6
#     Node 21, Type 0, BuildingBlock: PAMTOO_clean_sbu_0, # of connection points: 6
#     Node 22, Type 0, BuildingBlock: PAMTOO_clean_sbu_0, # of connection points: 6
#     Node 23, Type 0, BuildingBlock: PAMTOO_clean_sbu_0, # of connection points: 6
#     Edge 24, Type (0, 0), BuildingBlock: CIFDUS_clean_linker_0, # of connection points: 2
#     Edge 25, Type (0, 0), BuildingBlock: CIFDUS_clean_linker_0, # of connection points: 2
#     Edge 26, Type (0, 0), BuildingBlock: CIFDUS_clean_linker_0, # of connection points: 2
#     Edge 27, Type (0, 0), BuildingBlock: CIFDUS_clean_linker_0, # of connection points: 2
#     Edge 28, Type (0, 0), BuildingBlock: CIFDUS_clean_linker_0, # of connection points: 2
#     Edge 29, Type (0, 0), BuildingBlock: CIFDUS_clean_linker_0, # of connection points: 2
#     Edge 30, Type (0, 0), BuildingBlock: CIFDUS_clean_linker_0, # of connection points: 2
#     Edge 31, Type (0, 0), BuildingBlock: CIFDUS_clean_linker_0, # of connection points: 2
#     Edge 32, Type (0, 0), BuildingBlock: CIFDUS_clean_linker_0, # of connection points: 2
#     Edge 33, Type (0, 0), BuildingBlock: CIFDUS_clean_linker_0, # of connection points: 2
#     Edge 34, Type (0, 0), BuildingBlock: CIFDUS_clean_linker_0, # of connection points: 2
#     Edge 35, Type (0, 0), BuildingBlock: CIFDUS_clean_linker_0, # of connection points: 2
#     Edge 36, Type (0, 0), BuildingBlock: CIFDUS_clean_linker_0, # of connection points: 2
#     Edge 37, Type (0, 0), BuildingBlock: CIFDUS_clean_linker_0, # of connection points: 2
#     Edge 38, Type (0, 0), BuildingBlock: CIFDUS_clean_linker_0, # of connection points: 2
#     Edge 39, Type (0, 0), BuildingBlock: CIFDUS_clean_linker_0, # of connection points: 2
#     Edge 40, Type (0, 0), BuildingBlock: CIFDUS_clean_linker_0, # of connection points: 2
#     Edge 41, Type (0, 0), BuildingBlock: CIFDUS_clean_linker_0, # of connection points: 2
#     Edge 42, Type (0, 0), BuildingBlock: CIFDUS_clean_linker_0, # of connection points: 2
#     Edge 43, Type (0, 0), BuildingBlock: CIFDUS_clean_linker_0, # of connection points: 2
#     Edge 44, Type (0, 0), BuildingBlock: CIFDUS_clean_linker_0, # of connection points: 2
#     Edge 45, Type (0, 0), BuildingBlock: CIFDUS_clean_linker_0, # of connection points: 2
#     Edge 46, Type (0, 0), BuildingBlock: CIFDUS_clean_linker_0, # of connection points: 2
#     Edge 47, Type (0, 0), BuildingBlock: CIFDUS_clean_linker_0, # of connection points: 2
#     Edge 48, Type (0, 0), BuildingBlock: CIFDUS_clean_linker_0, # of connection points: 2
#     Edge 49, Type (0, 0), BuildingBlock: CIFDUS_clean_linker_0, # of connection points: 2
#     Edge 50, Type (0, 0), BuildingBlock: CIFDUS_clean_linker_0, # of connection points: 2
#     Edge 51, Type (0, 0), BuildingBlock: CIFDUS_clean_linker_0, # of connection points: 2
#     Edge 52, Type (0, 0), BuildingBlock: CIFDUS_clean_linker_0, # of connection points: 2
#     Edge 53, Type (0, 0), BuildingBlock: CIFDUS_clean_linker_0, # of connection points: 2
#     Edge 54, Type (0, 0), BuildingBlock: CIFDUS_clean_linker_0, # of connection points: 2
#     Edge 55, Type (0, 0), BuildingBlock: CIFDUS_clean_linker_0, # of connection points: 2
#     Edge 56, Type (0, 0), BuildingBlock: CIFDUS_clean_linker_0, # of connection points: 2
#     Edge 57, Type (0, 0), BuildingBlock: CIFDUS_clean_linker_0, # of connection points: 2
#     Edge 58, Type (0, 0), BuildingBlock: CIFDUS_clean_linker_0, # of connection points: 2
#     Edge 59, Type (0, 0), BuildingBlock: CIFDUS_clean_linker_0, # of connection points: 2
#     Edge 60, Type (0, 0), BuildingBlock: CIFDUS_clean_linker_0, # of connection points: 2
#     Edge 61, Type (0, 0), BuildingBlock: CIFDUS_clean_linker_0, # of connection points: 2
#     Edge 62, Type (0, 0), BuildingBlock: CIFDUS_clean_linker_0, # of connection points: 2
#     Edge 63, Type (0, 0), BuildingBlock: CIFDUS_clean_linker_0, # of connection points: 2
#     Edge 64, Type (0, 0), BuildingBlock: CIFDUS_clean_linker_0, # of connection points: 2
#     Edge 65, Type (0, 0), BuildingBlock: CIFDUS_clean_linker_0, # of connection points: 2
#     Edge 66, Type (0, 0), BuildingBlock: CIFDUS_clean_linker_0, # of connection points: 2
#     Edge 67, Type (0, 0), BuildingBlock: CIFDUS_clean_linker_0, # of connection points: 2
#     Edge 68, Type (0, 0), BuildingBlock: CIFDUS_clean_linker_0, # of connection points: 2
#     Edge 69, Type (0, 0), BuildingBlock: CIFDUS_clean_linker_0, # of connection points: 2
#     Edge 70, Type (0, 0), BuildingBlock: CIFDUS_clean_linker_0, # of connection points: 2
#     Edge 71, Type (0, 0), BuildingBlock: CIFDUS_clean_linker_0, # of connection points: 2
#     Edge 72, Type (0, 0), BuildingBlock: CIFDUS_clean_linker_0, # of connection points: 2
#     Edge 73, Type (0, 0), BuildingBlock: CIFDUS_clean_linker_0, # of connection points: 2
#     Edge 74, Type (0, 0), BuildingBlock: CIFDUS_clean_linker_0, # of connection points: 2
#     Edge 75, Type (0, 0), BuildingBlock: CIFDUS_clean_linker_0, # of connection points: 2
#     Edge 76, Type (0, 0), BuildingBlock: CIFDUS_clean_linker_0, # of connection points: 2
#     Edge 77, Type (0, 0), BuildingBlock: CIFDUS_clean_linker_0, # of connection points: 2
#     Edge 78, Type (0, 0), BuildingBlock: CIFDUS_clean_linker_0, # of connection points: 2
#     Edge 79, Type (0, 0), BuildingBlock: CIFDUS_clean_linker_0, # of connection points: 2
#     Edge 80, Type (0, 0), BuildingBlock: CIFDUS_clean_linker_0, # of connection points: 2
#     Edge 81, Type (0, 0), BuildingBlock: CIFDUS_clean_linker_0, # of connection points: 2
#     Edge 82, Type (0, 0), BuildingBlock: CIFDUS_clean_linker_0, # of connection points: 2
#     Edge 83, Type (0, 0), BuildingBlock: CIFDUS_clean_linker_0, # of connection points: 2
#     Edge 84, Type (0, 0), BuildingBlock: CIFDUS_clean_linker_0, # of connection points: 2
#     Edge 85, Type (0, 0), BuildingBlock: CIFDUS_clean_linker_0, # of connection points: 2
#     Edge 86, Type (0, 0), BuildingBlock: CIFDUS_clean_linker_0, # of connection points: 2
#     Edge 87, Type (0, 0), BuildingBlock: CIFDUS_clean_linker_0, # of connection points: 2
#     Edge 88, Type (0, 0), BuildingBlock: CIFDUS_clean_linker_0, # of connection points: 2
#     Edge 89, Type (0, 0), BuildingBlock: CIFDUS_clean_linker_0, # of connection points: 2
#     Edge 90, Type (0, 0), BuildingBlock: CIFDUS_clean_linker_0, # of connection points: 2
#     Edge 91, Type (0, 0), BuildingBlock: CIFDUS_clean_linker_0, # of connection points: 2
#     Edge 92, Type (0, 0), BuildingBlock: CIFDUS_clean_linker_0, # of connection points: 2
#     Edge 93, Type (0, 0), BuildingBlock: CIFDUS_clean_linker_0, # of connection points: 2
#     Edge 94, Type (0, 0), BuildingBlock: CIFDUS_clean_linker_0, # of connection points: 2
#     Edge 95, Type (0, 0), BuildingBlock: CIFDUS_clean_linker_0, # of connection points: 2
# Relax obj value: 0.225
# Max RMSD: 0.264
# Mean RMSD: 0.240
data_MOF--net-sxg--node1-PAMTOO_clean_sbu_0--edge1-CIFDUS_clean_linker_0
_symmetry_space_group_name_H-M    P1
_symmetry_Int_Tables_number       1
_symmetry_cell_setting            triclinic
loop_
_symmetry_equiv_pos_as_xyz
'x, y, z'
_cell_length_a     43.644594
_cell_length_b     49.852502
_cell_length_c     46.427765
_cell_angle_alpha  90.18314
_cell_angle_beta   82.03774
_cell_angle_gamma 90.572551
loop_
_atom_site_label
_atom_site_type_symbol
_atom_site_fract_x
_atom_site_fract_y
_atom_site_fract_z
_atom_type_partial_charge
Dy0 Dy 0.1359 0.29512 0.2751 0.0
Dy1 Dy 0.10557 0.3454 0.24473 0.0
C2 C 0.14846 0.3574 0.2914 0.0
O3 O 0.0911 0.30143 0.30324 0.0
O4 O 0.07732 0.34334 0.28911 0.0
O5 O 0.17117 0.27371 0.29493 0.0
O6 O 0.12851 0.25345 0.28602 0.0
O7 O 0.07478 0.31005 0.24625 0.0
O8 O 0.11482 0.28262 0.23501 0.0
O9 O 0.14605 0.33104 0.21195 0.0
O10 O 0.17427 0.30757 0.24158 0.0
O11 O 0.08642 0.35905 0.20709 0.0
O12 O 0.08783 0.38567 0.24412 0.0
C13 C 0.07365 0.3228 0.30706 0.0
O14 O 0.14375 0.33268 0.30171 0.0
O15 O 0.14384 0.3631 0.26488 0.0
C16 C 0.16492 0.2256 0.3072 0.0
C17 C 0.18446 0.17556 0.32685 0.0
C18 C 0.20235 0.19902 0.32882 0.0
C19 C 0.19269 0.22375 0.3191 0.0
C20 C 0.14696 0.20224 0.30532 0.0
C21 C 0.15657 0.17758 0.31503 0.0
C22 C 0.15504 0.25139 0.29572 0.0
C23 C 0.08596 0.2886 0.23319 0.0
C24 C 0.17168 0.3186 0.2165 0.0
C25 C 0.04274 0.38608 0.2216 0.0
C26 C 0.97879 0.39577 0.22582 0.0
C27 C 0.99022 0.36968 0.22086 0.0
C28 C 0.02186 0.36483 0.21892 0.0
C29 C 0.03132 0.41204 0.22714 0.0
C30 C 0.9996 0.41687 0.22927 0.0
C31 C 0.07616 0.38115 0.22011 0.0
H32 H 0.22417 0.19823 0.33738 0.0
H33 H 0.20713 0.24134 0.32064 0.0
H34 H 0.12547 0.20293 0.29615 0.0
H35 H 0.14193 0.16012 0.31347 0.0
H36 H 0.97466 0.35298 0.21856 0.0
H37 H 0.02992 0.34445 0.21532 0.0
H38 H 0.04698 0.4286 0.22974 0.0
H39 H 0.99144 0.43721 0.23295 0.0
Dy40 Dy 0.49133 0.7524 0.78576 0.0
Dy41 Dy 0.51826 0.69148 0.77272 0.0
C42 C 0.45464 0.70016 0.81619 0.0
O43 O 0.51984 0.74442 0.82047 0.0
O44 O 0.54919 0.70828 0.80439 0.0
O45 O 0.48195 0.78425 0.817 0.0
O46 O 0.47685 0.79112 0.7719 0.0
O47 O 0.53776 0.71429 0.73298 0.0
O48 O 0.52964 0.75775 0.74806 0.0
O49 O 0.47342 0.69172 0.75287 0.0
O50 O 0.45985 0.73648 0.75689 0.0
O51 O 0.53948 0.66193 0.74247 0.0
O52 O 0.52689 0.65172 0.78779 0.0
C53 C 0.5423 0.72793 0.8232 0.0
O54 O 0.45302 0.72556 0.80843 0.0
O55 O 0.47893 0.68539 0.80782 0.0
C56 C 0.44585 0.81645 0.80751 0.0
C57 C 0.39404 0.84763 0.82798 0.0
C58 C 0.39257 0.81946 0.83025 0.0
C59 C 0.41829 0.80395 0.81998 0.0
C60 C 0.44741 0.84439 0.80508 0.0
C61 C 0.42173 0.85988 0.81514 0.0
C62 C 0.47375 0.80102 0.79812 0.0
C63 C 0.5409 0.74012 0.72826 0.0
C64 C 0.4553 0.71195 0.74824 0.0
C65 C 0.57169 0.63174 0.76338 0.0
C66 C 0.62901 0.60717 0.76575 0.0
C67 C 0.62649 0.62806 0.74595 0.0
C68 C 0.59814 0.64036 0.74489 0.0
C69 C 0.57411 0.61079 0.783 0.0
C70 C 0.60253 0.59867 0.78428 0.0
C71 C 0.54147 0.64429 0.76274 0.0
H72 H 0.3717 0.80941 0.8403 0.0
H73 H 0.41681 0.78231 0.8221 0.0
H74 H 0.46862 0.85426 0.79551 0.0
H75 H 0.4235 0.88145 0.81254 0.0
H76 H 0.64633 0.63469 0.73094 0.0
H77 H 0.597 0.65649 0.72951 0.0
H78 H 0.55399 0.60388 0.79748 0.0
H79 H 0.60377 0.5828 0.79994 0.0
Dy80 Dy 0.53812 0.24883 0.78716 0.0
Dy81 Dy 0.51571 0.18614 0.79979 0.0
C82 C 0.57814 0.19874 0.75739 0.0
O83 O 0.50989 0.23797 0.75189 0.0
O84 O 0.48163 0.20224 0.77185 0.0
O85 O 0.54762 0.28009 0.75496 0.0
O86 O 0.55071 0.28871 0.80017 0.0
O87 O 0.494 0.20788 0.83902 0.0
O88 O 0.5012 0.25238 0.82695 0.0
O89 O 0.55931 0.18945 0.82112 0.0
O90 O 0.57039 0.23482 0.81613 0.0
O91 O 0.49466 0.15535 0.82892 0.0
O92 O 0.5107 0.14584 0.784 0.0
C93 C 0.48735 0.22048 0.75135 0.0
O94 O 0.57885 0.22359 0.76727 0.0
O95 O 0.5532 0.18374 0.7623 0.0
C96 C 0.58353 0.3136 0.76425 0.0
C97 C 0.63618 0.3458 0.74559 0.0
C98 C 0.63585 0.32815 0.76931 0.0
C99 C 0.60983 0.31209 0.77848 0.0
C100 C 0.58382 0.33107 0.74061 0.0
C101 C 0.60983 0.34693 0.73131 0.0
C102 C 0.55527 0.29766 0.77356 0.0
C103 C 0.48981 0.23332 0.84528 0.0
C104 C 0.5761 0.2109 0.82563 0.0
C105 C 0.46529 0.12478 0.80569 0.0
C106 C 0.40758 0.10062 0.80205 0.0
C107 C 0.41443 0.12635 0.79049 0.0
C108 C 0.443 0.13839 0.79247 0.0
C109 C 0.45885 0.09902 0.81686 0.0
C110 C 0.43016 0.087 0.81511 0.0
C111 C 0.49504 0.13759 0.80829 0.0
H112 H 0.65553 0.32697 0.7811 0.0
H113 H 0.61025 0.29869 0.79674 0.0
H114 H 0.5638 0.33243 0.72927 0.0
H115 H 0.60935 0.35985 0.71268 0.0
H116 H 0.39764 0.13727 0.78009 0.0
H117 H 0.44761 0.15838 0.78384 0.0
H118 H 0.47583 0.08839 0.82729 0.0
H119 H 0.42537 0.06738 0.82474 0.0
Dy120 Dy 0.90148 0.79655 0.2919 0.0
Dy121 Dy 0.92788 0.84544 0.32878 0.0
C122 C 0.88762 0.85981 0.28012 0.0
O123 O 0.94678 0.80653 0.26676 0.0
O124 O 0.95864 0.84755 0.2854 0.0
O125 O 0.86724 0.77524 0.27061 0.0
O126 O 0.91266 0.75827 0.27151 0.0
O127 O 0.95918 0.8108 0.32539 0.0
O128 O 0.91996 0.78126 0.33214 0.0
O129 O 0.88513 0.82831 0.35778 0.0
O130 O 0.86098 0.80664 0.32329 0.0
O131 O 0.94711 0.85566 0.36786 0.0
O132 O 0.94247 0.88614 0.33546 0.0
C133 C 0.96343 0.82856 0.26554 0.0
O134 O 0.89263 0.83555 0.2686 0.0
O135 O 0.89268 0.86517 0.30669 0.0
C136 C 0.8722 0.72725 0.26458 0.0
C137 C 0.84779 0.67483 0.25831 0.0
C138 C 0.82805 0.69684 0.26522 0.0
C139 C 0.84008 0.7227 0.26831 0.0
C140 C 0.89195 0.70526 0.25798 0.0
C141 C 0.87993 0.6794 0.25493 0.0
C142 C 0.8854 0.7549 0.26349 0.0
C143 C 0.94807 0.78829 0.33633 0.0
C144 C 0.8606 0.81588 0.34969 0.0
C145 C 0.98742 0.88727 0.35793 0.0
C146 C 0.05028 0.90057 0.3577 0.0
C147 C 0.04103 0.88457 0.3354 0.0
C148 C 1.00981 0.87785 0.3356 0.0
C149 C 0.99651 0.90346 0.37994 0.0
C150 C 0.02768 0.91007 0.37985 0.0
C151 C 0.95469 0.87988 0.35863 0.0
H152 H 0.80317 0.69426 0.26755 0.0
H153 H 0.82417 0.73919 0.27285 0.0
H154 H 0.91682 0.70814 0.25448 0.0
H155 H 0.89588 0.66299 0.24997 0.0
H156 H 0.05795 0.87678 0.31821 0.0
H157 H 1.0032 0.86514 0.31848 0.0
H158 H 0.97951 0.91088 0.39728 0.0
H159 H 0.03411 0.92272 0.3971 0.0
Dy160 Dy 0.28768 0.98137 0.31994 0.0
Dy161 Dy 0.26222 0.97664 0.38744 0.0
C162 C 0.31243 0.01961 0.36771 0.0
O163 O 0.29835 0.94014 0.33336 0.0
O164 O 0.30771 0.95512 0.37702 0.0
O165 O 0.32659 0.97469 0.28675 0.0
O166 O 0.28371 0.99051 0.27528 0.0
O167 O 0.23789 0.94532 0.36473 0.0
O168 O 0.23958 0.96595 0.32099 0.0
O169 O 0.23496 1.0115 0.37348 0.0
O170 O 0.26351 0.02017 0.32878 0.0
O171 O 0.22515 0.97096 0.42264 0.0
O172 O 0.27293 0.97069 0.43087 0.0
C173 C 0.31348 0.93796 0.35553 0.0
O174 O 0.32033 1.00489 0.3444 0.0
O175 O 0.28723 1.01496 0.3856 0.0
C176 C 0.32888 1.0141 0.25899 0.0
C177 C 0.34475 0.06854 0.25312 0.0
C178 C 0.35745 0.05279 0.27328 0.0
C179 C 0.34963 0.0258 0.27619 0.0
C180 C 0.31721 0.02962 0.23798 0.0
C181 C 0.32513 0.05668 0.23501 0.0
C182 C 0.3136 0.98864 0.26806 0.0
C183 C 0.22601 0.94958 0.34082 0.0
C184 C 0.24161 0.02642 0.34995 0.0
C185 C 0.23948 0.93827 0.45354 0.0
C186 C 0.22841 0.8868 0.47656 0.0
C187 C 0.23729 0.89023 0.44659 0.0
C188 C 0.24283 0.9158 0.43516 0.0
C189 C 0.23145 0.93501 0.48351 0.0
C190 C 0.22598 0.90932 0.49505 0.0
C191 C 0.24423 0.9649 0.44087 0.0
H192 H 0.3727 0.06154 0.28739 0.0
H193 H 0.35861 1.01455 0.29305 0.0
H194 H 0.30067 0.02116 0.22501 0.0
H195 H 0.31567 0.06839 0.21878 0.0
H196 H 0.23977 0.87314 0.43199 0.0
H197 H 0.24945 0.91805 0.41193 0.0
H198 H 0.22901 0.95228 0.49784 0.0
H199 H 0.21899 0.90711 0.51823 0.0
Dy200 Dy 0.20376 0.97084 0.85397 0.0
Dy201 Dy 0.2334 1.0131 0.90096 0.0
C202 C 0.19404 0.95861 0.92376 0.0
O203 O 0.18282 1.01151 0.84941 0.0
O204 O 0.19361 0.03642 0.88881 0.0
O205 O 0.16621 0.94977 0.83644 0.0
O206 O 0.21288 0.95042 0.81262 0.0
O207 O 0.24422 0.02972 0.85689 0.0
O208 O 0.24814 0.98992 0.83249 0.0
O209 O 0.2691 0.98153 0.88719 0.0
O210 O 0.23932 0.94719 0.87175 0.0
O211 O 0.27258 0.0358 0.91207 0.0
O212 O 0.22942 0.03441 0.94188 0.0
C213 C 0.18083 0.03385 0.86488 0.0
O214 O 0.18536 0.95283 0.89816 0.0
O215 O 0.21111 0.97976 0.92783 0.0
C216 C 0.17713 0.91992 0.79468 0.0
C217 C 0.16927 0.87689 0.75579 0.0
C218 C 0.177 0.87206 0.78395 0.0
C219 C 0.18119 0.89334 0.80306 0.0
C220 C 0.16857 0.92479 0.76713 0.0
C221 C 0.16477 0.90367 0.74792 0.0
C222 C 0.18411 0.94334 0.81249 0.0
C223 C 0.25613 1.01523 0.83482 0.0
C224 C 0.26539 0.95637 0.87924 0.0
C225 C 0.26234 0.07211 0.94575 0.0
C226 C 0.27256 0.12456 0.96619 0.0
C227 C 0.2732 0.11961 0.93619 0.0
C228 C 0.26806 0.09354 0.92601 0.0
C229 C 0.2621 0.07702 0.97544 0.0
C230 C 0.2673 0.10278 0.98553 0.0
C231 C 0.25754 0.04416 0.9367 0.0
H232 H 0.18008 0.8518 0.79128 0.0
H233 H 0.18802 0.88905 0.82412 0.0
H234 H 0.1657 0.94519 0.76005 0.0
H235 H 0.15937 0.90855 0.7265 0.0
H236 H 0.27714 0.13589 0.9207 0.0
H237 H 0.26849 0.09016 0.9029 0.0
H238 H 0.25807 0.06075 0.99098 0.0
H239 H 0.26743 0.10553 1.00866 0.0
Dy240 Dy 0.82661 0.47176 0.72342 0.0
Dy241 Dy 0.80189 0.51087 0.67213 0.0
C242 C 0.84368 0.45854 0.65431 0.0
O243 O 0.84238 0.51433 0.73115 0.0
O244 O 0.84494 0.53013 0.6846 0.0
O245 O 0.86325 0.45623 0.74671 0.0
O246 O 0.81492 0.44308 0.75784 0.0
O247 O 0.78657 0.52931 0.71488 0.0
O248 O 0.78232 0.49133 0.74299 0.0
O249 O 0.76418 0.48076 0.6867 0.0
O250 O 0.79336 0.44709 0.70223 0.0
O251 O 0.76375 0.52905 0.65485 0.0
O252 O 0.81066 0.53727 0.63458 0.0
C253 C 0.85039 0.5332 0.71159 0.0
O254 O 0.85292 0.45835 0.68031 0.0
O255 O 0.82242 0.47518 0.64784 0.0
C256 C 0.85145 0.42198 0.7855 0.0
C257 C 0.86666 0.38504 0.82809 0.0
C258 C 0.83918 0.38208 0.8155 0.0
C259 C 0.83162 0.40035 0.79473 0.0
C260 C 0.87895 0.42502 0.79774 0.0
C261 C 0.88633 0.40697 0.81889 0.0
C262 C 0.84341 0.44082 0.76291 0.0
C263 C 0.77414 0.51599 0.73786 0.0
C264 C 0.76719 0.45581 0.69506 0.0
C265 C 0.77322 0.57186 0.63241 0.0
C266 C 0.75172 0.6239 0.62119 0.0
C267 C 0.74022 0.61017 0.64698 0.0
C268 C 0.75081 0.5845 0.65254 0.0
C269 C 0.78571 0.586 0.60731 0.0
C270 C 0.77518 0.61172 0.60178 0.0
C271 C 0.78145 0.54325 0.63557 0.0
H272 H 0.82358 0.36532 0.82115 0.0
H273 H 0.81037 0.39723 0.78553 0.0
H274 H 0.89468 0.44151 0.79114 0.0
H275 H 0.90741 0.41048 0.82819 0.0
H276 H 0.72252 0.61907 0.66267 0.0
H277 H 0.74076 0.57428 0.67221 0.0
H278 H 0.80287 0.57671 0.59138 0.0
H279 H 0.78442 0.62149 0.58159 0.0
Dy280 Dy 0.74457 0.48068 0.25073 0.0
Dy281 Dy 0.77682 0.47329 0.18573 0.0
C282 C 0.7277 0.51721 0.19881 0.0
O283 O 0.73632 0.43832 0.2384 0.0
O284 O 0.73088 0.45134 0.19327 0.0
O285 O 0.70286 0.47303 0.2802 0.0
O286 O 0.7416 0.49372 0.29537 0.0
O287 O 0.79656 0.44292 0.21254 0.0
O288 O 0.79202 0.46647 0.25478 0.0
O289 O 0.80366 0.5082 0.20189 0.0
O290 O 0.76939 0.51951 0.24219 0.0
O291 O 0.81635 0.46395 0.15437 0.0
O292 O 0.77093 0.46833 0.14079 0.0
C293 C 0.72381 0.43446 0.21483 0.0
O294 O 0.71608 0.50215 0.22089 0.0
O295 O 0.75433 0.51199 0.18373 0.0
C296 C 0.69268 0.51217 0.30619 0.0
C297 C 0.65453 0.55707 0.31492 0.0
C298 C 0.6736 0.55345 0.28836 0.0
C299 C 0.69303 0.53161 0.28439 0.0
C300 C 0.67311 0.51501 0.3324 0.0
C301 C 0.65438 0.53759 0.33694 0.0
C302 C 0.71193 0.48866 0.30002 0.0
C303 C 0.80658 0.44887 0.23705 0.0
C304 C 0.79409 0.52484 0.22349 0.0
C305 C 0.80101 0.43277 0.12181 0.0
C306 C 0.80475 0.38056 0.09972 0.0
C307 C 0.79323 0.38503 0.12903 0.0
C308 C 0.79136 0.41099 0.14002 0.0
C309 C 0.81187 0.42855 0.09245 0.0
C310 C 0.81374 0.4025 0.08139 0.0
C311 C 0.79913 0.4597 0.1339 0.0
H312 H 0.67412 0.56778 0.2708 0.0
H313 H 0.70853 0.53004 0.26427 0.0
H314 H 0.67268 0.50009 0.34936 0.0
H315 H 0.64057 0.54012 0.35799 0.0
H316 H 0.78581 0.36845 0.14346 0.0
H317 H 0.78254 0.41409 0.16277 0.0
H318 H 0.81916 0.44532 0.07826 0.0
H319 H 0.82297 0.39946 0.05875 0.0
Dy320 Dy 0.36972 0.30964 0.05201 0.0
Dy321 Dy 0.38316 0.25161 0.0716 0.0
C322 C 0.3353 0.25819 1.02906 0.0
O323 O 0.32744 0.29998 0.08284 0.0
O324 O 0.34861 0.2678 0.10863 0.0
O325 O 0.338 0.33947 0.04168 0.0
O326 O 0.38665 0.34958 0.04096 0.0
O327 O 0.41591 0.27653 0.0931 0.0
O328 O 0.38922 0.31533 0.09472 0.0
O329 O 0.40235 0.25286 1.0237 0.0
O330 O 0.41146 0.29771 1.02082 0.0
O331 O 0.41834 0.22192 0.07304 0.0
O332 O 0.37023 0.21261 0.08909 0.0
C333 C 0.3262 0.28494 0.106 0.0
O334 O 0.3495 0.281 1.02101 0.0
O335 O 0.33949 0.24699 0.05346 0.0
C336 C 0.35945 0.37139 1.00715 0.0
C337 C 0.35687 0.40188 0.95686 0.0
C338 C 0.3309 0.38709 0.96945 0.0
C339 C 0.33219 0.37195 0.99429 0.0
C340 C 0.38565 0.38571 0.9943 0.0
C341 C 0.38441 0.40075 0.96926 0.0
C342 C 0.35981 0.35733 1.03481 0.0
C343 C 0.40945 0.29989 0.10501 0.0
C344 C 0.41539 0.27367 1.0094 0.0
C345 C 0.40774 0.19981 0.11691 0.0
C346 C 0.41819 0.18619 0.17274 0.0
C347 C 0.40506 0.211 0.1679 0.0
C348 C 0.39981 0.21777 0.14004 0.0
C349 C 0.42345 0.17629 0.1211 0.0
C350 C 0.42876 0.16949 0.14897 0.0
C351 C 0.3991 0.20585 0.08868 0.0
H352 H 0.30909 0.38805 0.96087 0.0
H353 H 0.3115 0.36133 1.00386 0.0
H354 H 0.40691 0.38574 1.00389 0.0
H355 H 0.40483 0.41185 0.95992 0.0
H356 H 0.39648 0.22396 0.18596 0.0
H357 H 0.3881 0.23636 0.1368 0.0
H358 H 0.43007 0.16259 0.1032 0.0
H359 H 0.43836 0.14995 0.15225 0.0
Dy360 Dy 0.85709 0.20567 0.95981 0.0
Dy361 Dy 0.91129 0.2355 0.99428 0.0
C362 C 0.92842 0.20441 0.93291 0.0
O363 O 0.86062 0.18005 0.99852 0.0
O364 O 0.90325 0.19591 1.01773 0.0
O365 O 0.83796 0.19084 0.92217 0.0
O366 O 0.8129 0.18533 0.96552 0.0
O367 O 0.8657 0.23872 1.0214 0.0
O368 O 0.83602 0.24073 0.98487 0.0
O369 O 0.89764 0.26799 0.96427 0.0
O370 O 0.86469 0.245 0.93728 0.0
O371 O 0.92739 0.2668 1.02135 0.0
O372 O 0.9584 0.23546 1.00264 0.0
C373 C 0.88014 0.1787 1.01758 0.0
O374 O 0.90214 0.19088 0.93608 0.0
O375 O 0.93374 0.22387 0.95056 0.0
C376 C 0.78265 0.18712 0.92672 0.0
C377 C 0.72575 0.18839 0.90412 0.0
C378 C 0.75369 0.19498 0.88645 0.0
C379 C 0.78182 0.19434 0.89762 0.0
C380 C 0.75466 0.18125 0.94457 0.0
C381 C 0.72655 0.18197 0.93343 0.0
C382 C 0.81242 0.18241 0.93766 0.0
C383 C 0.84147 0.24767 1.01092 0.0
C384 C 0.8803 0.26666 0.94298 0.0
C385 C 0.96998 0.25501 0.04663 0.0
C386 C 1.00487 0.25763 0.09359 0.0
C387 C 0.97811 0.27323 0.09375 0.0
C388 C 0.96089 0.27199 0.07044 0.0
C389 C 0.99615 0.23884 0.047 0.0
C390 C 1.01326 0.24005 0.07022 0.0
C391 C 0.95492 0.25625 1.01994 0.0
H392 H 0.754 0.1998 0.86368 0.0
H393 H 0.80296 0.19867 0.88319 0.0
H394 H 0.75453 0.17537 0.96703 0.0
H395 H 0.70544 0.1773 0.94777 0.0
H396 H 0.97113 0.28717 0.11131 0.0
H397 H 0.94109 0.28496 0.07067 0.0
H398 H 1.00405 0.22573 1.0289 0.0
H399 H 0.0334 0.22743 0.06963 0.0
Dy400 Dy 0.66463 0.8061 0.52414 0.0
Dy401 Dy 0.65697 0.74927 0.49778 0.0
C402 C 0.69839 0.75492 0.54803 0.0
O403 O 0.71066 0.79841 0.49927 0.0
O404 O 0.69314 0.77116 0.4658 0.0
O405 O 0.69253 0.83893 0.53631 0.0
O406 O 0.6432 0.84418 0.53477 0.0
O407 O 0.6209 0.77287 0.48038 0.0
O408 O 0.64766 0.81159 0.48002 0.0
O409 O 0.63306 0.74515 0.54393 0.0
O410 O 0.62624 0.78932 0.55639 0.0
O411 O 0.62674 0.71688 0.48878 0.0
O412 O 0.67637 0.71431 0.47553 0.0
C413 C 0.7149 0.78704 0.47374 0.0
O414 O 0.686 0.77861 0.55485 0.0
O415 O 0.69414 0.74234 0.52424 0.0
C416 C 0.66797 0.87469 0.56301 0.0
C417 C 0.66434 0.91483 0.6054 0.0
C418 C 0.65331 0.88881 0.6129 0.0
C419 C 0.65504 0.86871 0.59165 0.0
C420 C 0.67969 0.90026 0.55579 0.0
C421 C 0.67806 0.92015 0.57679 0.0
C422 C 0.66922 0.8553 0.53956 0.0
C423 C 0.627 0.79656 0.46932 0.0
C424 C 0.62128 0.76376 0.56233 0.0
C425 C 0.64423 0.70001 0.44211 0.0
C426 C 0.63592 0.69004 0.38439 0.0
C427 C 0.61102 0.69895 0.40435 0.0
C428 C 0.61513 0.70392 0.43309 0.0
C429 C 0.66943 0.6926 0.42174 0.0
C430 C 0.66537 0.68781 0.39312 0.0
C431 C 0.64909 0.70487 0.47222 0.0
H432 H 0.64292 0.8842 0.63491 0.0
H433 H 0.64607 0.8488 0.59738 0.0
H434 H 0.68996 0.90495 0.53374 0.0
H435 H 0.68769 0.93974 0.57058 0.0
H436 H 0.58808 0.70044 0.39813 0.0
H437 H 0.59536 0.7101 0.44829 0.0
H438 H 0.69216 0.68976 0.42807 0.0
H439 H 0.68489 0.68027 0.37847 0.0
Dy440 Dy 0.17312 0.70885 0.61319 0.0
Dy441 Dy 0.11785 0.7356 0.57825 0.0
C442 C 0.10157 0.70467 0.64008 0.0
O443 O 0.16936 0.6819 0.5754 0.0
O444 O 0.12694 0.69598 0.55526 0.0
O445 O 0.19331 0.69427 0.65021 0.0
O446 O 0.21873 0.69194 0.60667 0.0
O447 O 0.16367 0.74105 0.55198 0.0
O448 O 0.1921 0.74544 0.58917 0.0
O449 O 0.12884 0.76806 0.61006 0.0
O450 O 0.16166 0.74654 0.63765 0.0
O451 O 0.10147 0.76651 0.55143 0.0
O452 O 0.07119 0.73365 0.56852 0.0
C453 C 0.1501 0.67942 0.55619 0.0
O454 O 0.12869 0.69287 0.63776 0.0
O455 O 0.09502 0.72261 0.6214 0.0
C456 C 0.24878 0.6933 0.64584 0.0
C457 C 0.3061 0.69412 0.66785 0.0
C458 C 0.27801 0.69263 0.6868 0.0
C459 C 0.24972 0.69219 0.67591 0.0
C460 C 0.27681 0.69569 0.62691 0.0
C461 C 0.30513 0.69616 0.63781 0.0
C462 C 0.21931 0.68791 0.63433 0.0
C463 C 0.18671 0.75199 0.56306 0.0
C464 C 0.14501 0.76733 0.63227 0.0
C465 C 0.05994 0.75361 0.52479 0.0
C466 C 0.02605 0.75633 0.47709 0.0
C467 C 0.0534 0.77157 0.47727 0.0
C468 C 0.07012 0.77029 0.50093 0.0
C469 C 0.03322 0.73776 0.52407 0.0
C470 C 1.01661 0.73901 0.50051 0.0
C471 C 0.07439 0.75486 0.55188 0.0
H472 H 0.27785 0.69079 0.71006 0.0
H473 H 0.22861 0.68991 0.69103 0.0
H474 H 0.27701 0.69634 0.60358 0.0
H475 H 0.32627 0.69785 0.62266 0.0
H476 H 0.06123 0.78529 0.45969 0.0
H477 H 0.09039 0.783 0.50094 0.0
H478 H 0.02451 0.7249 0.54219 0.0
H479 H 0.996 0.72666 0.50088 0.0
Dy480 Dy 0.92721 0.68787 0.83023 0.0
Dy481 Dy 0.8953 0.73713 0.79898 0.0
C482 C 0.94369 0.74489 0.84285 0.0
O483 O 0.8876 0.70238 0.86352 0.0
O484 O 0.85831 0.72454 0.83376 0.0
O485 O 0.94872 0.67551 0.86704 0.0
O486 O 0.94382 0.64744 0.832 0.0
O487 O 0.88541 0.69835 0.77472 0.0
O488 O 0.88723 0.66973 0.81307 0.0
O489 O 0.93987 0.73078 0.77057 0.0
O490 O 0.95456 0.68938 0.78547 0.0
O491 O 0.85814 0.75849 0.78257 0.0
O492 O 0.9027 0.77858 0.78521 0.0
C493 C 0.86171 0.71433 0.85905 0.0
O494 O 0.95618 0.72435 0.82881 0.0
O495 O 0.91522 0.75069 0.8393 0.0
C496 C 0.9909 0.64679 0.85186 0.0
C497 C 0.0552 0.63727 0.8442 0.0
C498 C 0.04206 0.65621 0.8647 0.0
C499 C 1.01034 0.66103 0.86836 0.0
C500 C 1.0039 0.62763 0.83163 0.0
C501 C 0.03569 0.62309 0.82766 0.0
C502 C 0.95748 0.65268 0.85475 0.0
C503 C 0.88011 0.67442 0.78712 0.0
C504 C 0.9577 0.70964 0.76714 0.0
C505 C 0.86254 0.80579 0.7679 0.0
C506 C 0.83939 0.85598 0.75149 0.0
C507 C 0.81935 0.83561 0.76444 0.0
C508 C 0.83071 0.81085 0.77214 0.0
C509 C 0.88282 0.82601 0.75545 0.0
C510 C 0.87141 0.85064 0.74705 0.0
C511 C 0.87447 0.7807 0.77927 0.0
H512 H 0.05615 0.66716 0.87827 0.0
H513 H 1.00112 0.67598 0.88411 0.0
H514 H 0.98958 0.61638 0.8185 0.0
H515 H 0.04491 0.6087 0.8113 0.0
H516 H 0.79471 0.83878 0.76945 0.0
H517 H 0.81455 0.79596 0.7824 0.0
H518 H 0.90758 0.82284 0.75227 0.0
H519 H 0.88786 0.86533 0.73694 0.0
Dy520 Dy 0.51649 0.34603 0.30004 0.0
Dy521 Dy 0.53991 0.28443 0.28781 0.0
C522 C 0.49076 0.29989 0.34367 0.0
O523 O 0.55625 0.34156 0.32664 0.0
O524 O 0.57749 0.30138 0.30903 0.0
O525 O 0.49743 0.37619 0.33067 0.0
O526 O 0.50574 0.385 0.28455 0.0
O527 O 0.57541 0.3101 0.259 0.0
O528 O 0.56171 0.35316 0.27381 0.0
O529 O 0.49675 0.28903 0.26731 0.0
O530 O 0.49892 0.33376 0.25829 0.0
O531 O 0.54923 0.25292 0.2561 0.0
O532 O 0.55114 0.24466 0.30174 0.0
C533 C 0.57836 0.32335 0.32442 0.0
O534 O 0.48277 0.31943 0.32747 0.0
O535 O 0.51446 0.2847 0.3339 0.0
C536 C 0.46225 0.40491 0.31133 0.0
C537 C 0.4033 0.42747 0.31202 0.0
C538 C 0.40901 0.40942 0.33385 0.0
C539 C 0.43814 0.39812 0.33343 0.0
C540 C 0.45671 0.42317 0.28972 0.0
C541 C 0.42748 0.43426 0.28996 0.0
C542 C 0.49311 0.39302 0.31015 0.0
C543 C 0.58034 0.33643 0.25851 0.0
C544 C 0.49021 0.30951 0.25167 0.0
C545 C 0.58238 0.21783 0.26688 0.0
C546 C 0.62806 0.17978 0.24687 0.0
C547 C 0.62822 0.20525 0.23377 0.0
C548 C 0.60559 0.22412 0.2437 0.0
C549 C 0.58298 0.19295 0.2807 0.0
C550 C 0.60559 0.17417 0.27091 0.0
C551 C 0.55556 0.23539 0.27519 0.0
H552 H 0.39107 0.40423 0.35153 0.0
H553 H 0.44169 0.38414 0.35043 0.0
H554 H 0.47497 0.4287 0.27245 0.0
H555 H 0.42377 0.44789 0.27269 0.0
H556 H 0.64512 0.21026 0.21518 0.0
H557 H 0.60571 0.24324 0.23265 0.0
H558 H 0.56534 0.1877 0.29864 0.0
H559 H 0.6052 0.15507 0.28201 0.0
Dy560 Dy 0.52075 0.84462 0.27314 0.0
Dy561 Dy 0.49239 0.78429 0.28594 0.0
C562 C 0.53949 0.79469 0.22848 0.0
O563 O 0.4791 0.84367 0.24909 0.0
O564 O 0.46668 0.79833 0.25091 0.0
O565 O 0.56244 0.86421 0.25376 0.0
O566 O 0.5222 0.88802 0.27027 0.0
O567 O 0.45503 0.81294 0.30496 0.0
O568 O 0.48013 0.85384 0.30583 0.0
O569 O 0.52963 0.78775 0.31392 0.0
O570 O 0.54185 0.83234 0.31309 0.0
O571 O 0.47749 0.75624 0.31997 0.0
O572 O 0.47693 0.74454 0.27482 0.0
C573 C 0.46296 0.8228 0.24168 0.0
O574 O 0.53421 0.82036 0.23257 0.0
O575 O 0.53048 0.77723 0.24912 0.0
C576 C 0.5719 0.90828 0.26868 0.0
C577 C 0.61769 0.9457 0.27939 0.0
C578 C 0.61639 0.92016 0.29241 0.0
C579 C 0.59364 0.90153 0.28706 0.0
C580 C 0.57235 0.93397 0.25673 0.0
C581 C 0.59505 0.95246 0.26188 0.0
C582 C 0.55115 0.8882 0.2585 0.0
C583 C 0.45531 0.83868 0.3118 0.0
C584 C 0.54324 0.80833 0.32442 0.0
C585 C 0.44275 0.72146 0.31123 0.0
C586 C 0.39527 0.68626 0.33528 0.0
C587 C 0.39536 0.71325 0.3442 0.0
C588 C 0.41894 0.73074 0.33227 0.0
C589 C 0.44202 0.6949 0.3015 0.0
C590 C 0.41855 0.67743 0.3134 0.0
C591 C 0.4707 0.73756 0.3021 0.0
H592 H 0.63331 0.91436 0.30616 0.0
H593 H 0.5937 0.88165 0.2964 0.0
H594 H 0.55597 0.93934 0.24222 0.0
H595 H 0.59568 0.9716 0.25086 0.0
H596 H 0.37744 0.72076 0.36064 0.0
H597 H 0.41908 0.75122 0.34016 0.0
H598 H 0.46039 0.68732 0.28552 0.0
H599 H 0.41938 0.65673 0.30623 0.0
Dy600 Dy 0.10735 0.18942 0.7458 0.0
Dy601 Dy 0.13774 0.23931 0.77972 0.0
C602 C 0.09107 0.24721 0.7348 0.0
O603 O 0.14894 0.20414 0.71456 0.0
O604 O 0.17527 0.23126 0.74356 0.0
O605 O 0.08557 0.17846 0.70832 0.0
O606 O 0.09111 0.14886 0.74145 0.0
O607 O 0.14517 0.20032 0.80365 0.0
O608 O 0.1443 0.17043 0.76613 0.0
O609 O 0.09093 0.23217 0.80411 0.0
O610 O 0.07861 0.18964 0.78996 0.0
O611 O 0.17354 0.25938 0.80046 0.0
O612 O 0.12866 0.27783 0.79994 0.0
C613 C 0.17343 0.21884 0.71888 0.0
O614 O 0.07896 0.2258 0.74771 0.0
O615 O 0.11868 0.25481 0.73997 0.0
C616 C 0.0444 0.14806 0.72115 0.0
C617 C 0.98059 0.13696 0.72436 0.0
C618 C 0.99966 0.13766 0.69733 0.0
C619 C 0.03126 0.14319 0.69577 0.0
C620 C 0.0254 0.14759 0.74823 0.0
C621 C 0.99379 0.14193 0.74982 0.0
C622 C 0.07755 0.15478 0.71894 0.0
C623 C 0.14937 0.17582 0.79266 0.0
C624 C 0.07401 0.21024 0.80775 0.0
C625 C 0.17002 0.30733 0.80911 0.0
C626 C 0.19092 0.35932 0.82336 0.0
C627 C 0.20757 0.33622 0.82872 0.0
C628 C 0.19717 0.31063 0.82182 0.0
C629 C 0.15406 0.33042 0.80242 0.0
C630 C 0.1644 0.35608 0.80942 0.0
C631 C 0.15604 0.28009 0.80801 0.0
H632 H 0.99021 0.13366 0.67736 0.0
H633 H 0.04546 0.14375 0.67471 0.0
H634 H 0.03491 0.15175 0.76814 0.0
H635 H 0.97961 0.14189 0.77092 0.0
H636 H 0.22844 0.33779 0.83881 0.0
H637 H 0.20976 0.29327 0.82759 0.0
H638 H 0.13279 0.32868 0.79296 0.0
H639 H 0.15076 0.37324 0.80508 0.0
Dy640 Dy 0.76952 0.06193 0.69485 0.0
Dy641 Dy 0.7453 0.04972 0.76148 0.0
C642 C 0.80718 0.08197 0.74295 0.0
O643 O 0.79743 0.02623 0.70639 0.0
O644 O 0.76341 1.01029 0.74465 0.0
O645 O 0.80752 0.06936 0.66096 0.0
O646 O 0.76017 0.07055 0.65152 0.0
O647 O 0.70989 0.03152 0.73644 0.0
O648 O 0.73969 0.02657 0.69213 0.0
O649 O 0.73581 0.09287 0.75506 0.0
O650 O 0.72782 0.08821 0.70814 0.0
O651 O 0.70848 0.0544 0.79721 0.0
O652 O 0.7508 0.03398 0.80363 0.0
C653 C 0.78753 1.00695 0.7249 0.0
O654 O 0.79383 0.09024 0.7211 0.0
O655 O 0.79463 0.06255 0.75965 0.0
C656 C 0.79468 0.10274 0.62879 0.0
C657 C 0.80147 0.15455 0.60513 0.0
C658 C 0.81972 0.14642 0.62614 0.0
C659 C 0.81618 0.12084 0.63807 0.0
C660 C 0.77679 0.11063 0.60751 0.0
C661 C 0.78 0.13637 0.59588 0.0
C662 C 0.78911 0.07632 0.64242 0.0
C663 C 0.71512 0.02079 0.71045 0.0
C664 C 0.72283 0.10119 0.73303 0.0
C665 C 0.70438 1.01099 0.81693 0.0
C666 C 0.68738 0.95728 0.80973 0.0
C667 C 0.67336 0.9775 0.79555 0.0
C668 C 0.68174 1.00417 0.79913 0.0
C669 C 0.71672 0.99085 0.83267 0.0
C670 C 0.70826 0.9642 0.82914 0.0
C671 C 0.72117 0.03658 0.8123 0.0
H672 H 0.83695 0.15974 0.63327 0.0
H673 H 0.83016 0.1154 0.65465 0.0
H674 H 0.75987 0.09703 0.6003 0.0
H675 H 0.76533 0.14212 0.57999 0.0
H676 H 0.65691 0.97263 0.78081 0.0
H677 H 0.67192 0.01916 0.78639 0.0
H678 H 0.73449 0.99554 0.8461 0.0
H679 H 0.71859 0.94892 0.84117 0.0
Dy680 Dy 0.80014 0.02822 0.17227 0.0
Dy681 Dy 0.8308 0.06287 0.22515 0.0
C682 C 0.77157 0.02297 0.23861 0.0
O683 O 0.77146 0.06552 0.17774 0.0
O684 O 0.78956 0.08608 0.21743 0.0
O685 O 0.76379 1.01345 0.14885 0.0
O686 O 0.8109 0.99989 0.13701 0.0
O687 O 0.84525 0.08657 0.18403 0.0
O688 O 0.8334 0.05751 0.14814 0.0
O689 O 0.85878 0.02536 0.21671 0.0
O690 O 0.82293 0.99864 0.19861 0.0
O691 O 0.86828 0.08437 0.24192 0.0
O692 O 0.82486 0.0767 0.26973 0.0
C693 C 0.77061 0.08449 0.19778 0.0
O694 O 0.7662 0.02335 0.21162 0.0
O695 O 0.79712 0.03236 0.24714 0.0
C696 C 0.77014 0.96886 0.12997 0.0
C697 C 0.74713 0.91664 0.11926 0.0
C698 C 0.72807 0.93935 0.1198 0.0
C699 C 0.73937 0.96498 0.12514 0.0
C700 C 0.78939 0.94627 0.12948 0.0
C701 C 0.77802 0.92048 0.12418 0.0
C702 C 0.78198 0.99671 0.1332 0.0
C703 C 0.84494 0.08034 0.15638 0.0
C704 C 0.84737 1.00143 0.21195 0.0
C705 C 0.85672 0.11144 0.28547 0.0
C706 C 0.86503 0.15615 0.32197 0.0
C707 C 0.86557 0.15937 0.29163 0.0
C708 C 0.86141 0.13726 0.27356 0.0
C709 C 0.85633 0.1082 0.31555 0.0
C710 C 0.86042 0.13015 0.33355 0.0
C711 C 0.85256 0.08711 0.26785 0.0
H712 H 0.70442 0.93752 0.11541 0.0
H713 H 0.72407 0.98193 0.12492 0.0
H714 H 0.81333 0.94849 0.13291 0.0
H715 H 0.79341 0.90357 0.12412 0.0
H716 H 0.86943 0.17897 0.28175 0.0
H717 H 0.86187 0.14036 0.25043 0.0
H718 H 0.85272 0.08848 0.32525 0.0
H719 H 0.8593 0.12673 0.35668 0.0
Dy720 Dy 0.22796 0.52335 0.40505 0.0
Dy721 Dy 0.20403 0.56219 0.35228 0.0
C722 C 0.25516 0.51609 0.33957 0.0
O723 O 0.26558 0.55324 0.38877 0.0
O724 O 0.2363 0.58722 0.3739 0.0
O725 O 0.26644 0.50643 0.42303 0.0
O726 O 0.21953 0.49817 0.4435 0.0
O727 O 0.1793 0.57936 0.39416 0.0
O728 O 0.20353 0.55784 0.42889 0.0
O729 O 0.18248 0.52165 0.34784 0.0
O730 O 0.19085 0.49822 0.38885 0.0
O731 O 0.16861 0.58095 0.33058 0.0
O732 O 0.21715 0.58315 0.31173 0.0
C733 C 0.26239 0.57833 0.38089 0.0
O734 O 0.2425 0.50366 0.36298 0.0
O735 O 0.24785 0.54089 0.33402 0.0
C736 C 0.2569 0.46372 0.44571 0.0
C737 C 0.27761 0.41102 0.45528 0.0
C738 C 0.28552 0.42373 0.42814 0.0
C739 C 0.27526 0.44972 0.42337 0.0
C740 C 0.24789 0.45067 0.47234 0.0
C741 C 0.25805 0.42464 0.47709 0.0
C742 C 0.2488 0.49237 0.44255 0.0
C743 C 0.1854 0.57674 0.42116 0.0
C744 C 0.17948 0.49989 0.36407 0.0
C745 C 0.18288 0.6131 0.29133 0.0
C746 C 0.16826 0.65273 0.25137 0.0
C747 C 0.14886 0.64819 0.27793 0.0
C748 C 0.15593 0.62847 0.29753 0.0
C749 C 0.20272 0.6182 0.26539 0.0
C750 C 0.1955 0.63755 0.24568 0.0
C751 C 0.18873 0.58915 0.30877 0.0
H752 H 0.30013 0.41374 0.41066 0.0
H753 H 0.28238 0.45908 0.40245 0.0
H754 H 0.23375 0.461 0.48989 0.0
H755 H 0.25167 0.4157 0.49832 0.0
H756 H 0.12798 0.65968 0.28358 0.0
H757 H 0.13994 0.62487 0.31716 0.0
H758 H 0.22334 0.60633 0.25964 0.0
H759 H 0.21089 0.63975 0.22544 0.0
Dy760 Dy 0.26141 0.5628 0.88507 0.0
Dy761 Dy 0.29161 0.55645 0.8193 0.0
C762 C 0.22622 0.5829 0.8353 0.0
O763 O 0.23635 0.5266 0.86944 0.0
O764 O 0.27059 0.51611 0.82874 0.0
O765 O 0.22283 0.5689 0.91858 0.0
O766 O 0.26961 0.56607 0.92955 0.0
O767 O 0.32492 0.54136 0.84836 0.0
O768 O 0.2889 0.52635 0.88478 0.0
O769 O 0.29315 0.5998 0.82957 0.0
O770 O 0.30247 0.59133 0.87512 0.0
O771 O 0.33135 0.56694 0.78841 0.0
O772 O 0.2944 0.54247 0.77502 0.0
C773 C 0.24638 0.51027 0.84776 0.0
O774 O 0.23548 0.59017 0.8598 0.0
O775 O 0.24225 0.56619 0.81748 0.0
C776 C 0.23655 0.59617 0.9565 0.0
C777 C 0.23204 0.64311 0.99012 0.0
C778 C 0.21936 0.64197 0.96388 0.0
C779 C 0.22187 0.61877 0.94703 0.0
C780 C 0.24908 0.59718 0.98265 0.0
C781 C 0.24698 0.62051 0.9993 0.0
C782 C 0.24083 0.57197 0.93865 0.0
C783 C 0.31645 0.52523 0.87023 0.0
C784 C 0.30591 0.60703 0.85216 0.0
C785 C 0.34481 0.5276 0.76388 0.0
C786 C 0.38474 0.48398 0.75547 0.0
C787 C 0.3665 0.48778 0.7824 0.0
C788 C 0.34627 0.50906 0.7863 0.0
C789 C 0.36394 0.52481 0.73741 0.0
C790 C 0.3837 0.50287 0.73308 0.0
C791 C 0.32342 0.54975 0.76948 0.0
H792 H 0.20721 0.6589 0.95646 0.0
H793 H 0.21241 0.61858 0.92665 0.0
H794 H 0.2609 0.58 0.98997 0.0
H795 H 0.25738 0.62092 1.01916 0.0
H796 H 0.36689 0.47368 0.80007 0.0
H797 H 0.33122 0.51063 0.8067 0.0
H798 H 0.363 0.53908 0.72002 0.0
H799 H 0.39704 0.50008 0.71185 0.0
Dy800 Dy 0.64981 0.78742 0.99785 0.0
Dy801 Dy 0.6637 0.73042 1.02249 0.0
C802 C 0.62335 0.73814 0.9697 0.0
O803 O 0.62305 0.78992 0.04235 0.0
O804 O 0.62802 0.74667 0.05786 0.0
O805 O 0.61971 0.81519 0.98022 0.0
O806 O 0.66781 0.82571 0.98248 0.0
O807 O 0.69031 0.75765 0.04972 0.0
O808 O 0.67951 0.79855 1.03048 0.0
O809 O 0.70758 0.73747 0.99342 0.0
O810 O 0.68785 0.76903 0.96574 0.0
O811 O 0.69025 0.69767 1.03552 0.0
O812 O 0.64144 0.69201 1.03126 0.0
C813 C 0.61741 0.77119 0.0623 0.0
O814 O 0.61459 0.76047 0.98277 0.0
O815 O 0.64644 0.72524 0.9785 0.0
C816 C 0.64974 0.83402 0.93917 0.0
C817 C 0.67198 0.83495 0.87983 0.0
C818 C 0.65039 0.81535 0.89071 0.0
C819 C 0.63973 0.81461 0.92037 0.0
C820 C 0.67111 0.85372 0.92817 0.0
C821 C 0.68226 0.85413 0.89872 0.0
C822 C 0.64317 0.8307 0.97055 0.0
C823 C 0.69288 0.78408 0.04839 0.0
C824 C 0.70989 0.75213 0.96996 0.0
C825 C 0.66229 0.66439 0.06424 0.0
C826 C 0.6592 0.6289 0.11115 0.0
C827 C 0.66748 0.65597 0.1146 0.0
C828 C 0.66904 0.67367 0.09121 0.0
C829 C 0.65271 0.63786 0.0611 0.0
C830 C 0.65126 0.62019 0.08432 0.0
C831 C 0.66646 0.68133 0.03852 0.0
H832 H 0.64158 0.80096 0.87627 0.0
H833 H 0.62407 0.79867 0.92862 0.0
H834 H 0.67971 0.86836 0.94247 0.0
H835 H 0.69813 0.87008 0.8905 0.0
H836 H 0.67354 0.66327 0.13509 0.0
H837 H 0.67626 0.69427 0.09395 0.0
H838 H 0.64741 0.63055 0.04032 0.0
H839 H 0.64545 0.59939 0.08072 0.0
Dy840 Dy 0.12152 0.79485 0.08034 0.0
Dy841 Dy 0.17848 0.82638 0.11015 0.0
C842 C 0.19092 0.78364 0.06027 0.0
O843 O 0.13593 0.76419 0.11169 0.0
O844 O 0.1706 0.78855 0.13551 0.0
O845 O 0.10496 0.76168 0.0565 0.0
O846 O 0.07445 0.7948 0.07086 0.0
O847 O 0.13409 0.84186 0.13487 0.0
O848 O 0.10058 0.80861 0.12378 0.0
O849 O 0.17366 0.84972 0.06953 0.0
O850 O 0.12675 0.83467 0.05793 0.0
O851 O 0.19726 0.8458 0.14567 0.0
O852 O 0.2256 0.84147 0.1038 0.0
C853 C 0.15434 0.76671 0.13194 0.0
O854 O 0.16589 0.79208 0.05089 0.0
O855 O 0.19681 0.78976 0.08636 0.0
C856 C 0.06526 0.7722 1.02807 0.0
C857 C 0.0396 0.76848 0.97556 0.0
C858 C 0.07173 0.77207 0.97524 0.0
C859 C 0.08446 0.77391 1.00126 0.0
C860 C 0.03319 0.76955 1.02848 0.0
C861 C 0.02045 0.76768 1.00252 0.0
C862 C 0.07789 0.77256 0.05591 0.0
C863 C 0.10741 0.8289 0.13979 0.0
C864 C 0.15106 0.85071 0.05344 0.0
C865 C 0.25207 0.84298 0.14576 0.0
C866 C 0.30571 0.84036 0.17399 0.0
C867 C 0.27617 0.8434 0.19013 0.0
C868 C 0.24976 0.84479 0.17621 0.0
C869 C 0.28142 0.83884 0.12966 0.0
C870 C 0.30789 0.83747 0.1436 0.0
C871 C 0.22477 0.84882 0.13089 0.0
H872 H 0.08712 0.77324 0.95487 0.0
H873 H 0.10927 0.7763 1.00041 0.0
H874 H 0.01799 0.76835 0.04898 0.0
H875 H 0.99571 0.76465 1.00366 0.0
H876 H 0.27345 0.84515 0.2136 0.0
H877 H 0.22761 0.84815 0.18933 0.0
H878 H 0.28417 0.83764 0.10615 0.0
H879 H 0.3302 0.8353 0.13038 0.0
Dy880 Dy 0.38456 0.2894 0.5719 0.0
Dy881 Dy 0.36945 0.23094 0.55408 0.0
C882 C 0.41304 0.24308 0.60224 0.0
O883 O 0.40454 0.28909 0.52438 0.0
O884 O 0.40909 0.24367 0.52051 0.0
O885 O 0.41973 0.31754 0.5811 0.0
O886 O 0.37127 0.32851 0.588 0.0
O887 O 0.34517 0.25672 0.52351 0.0
O888 O 0.34788 0.2978 0.5458 0.0
O889 O 0.32659 0.24032 0.5833 0.0
O890 O 0.34833 0.27326 0.60821 0.0
O891 O 0.33988 0.19803 0.54557 0.0
O892 O 0.38925 0.19188 0.54447 0.0
C893 C 0.4149 0.26775 0.50955 0.0
O894 O 0.42095 0.26296 0.58461 0.0
O895 O 0.38861 0.22897 0.59767 0.0
C896 C 0.40097 0.34022 0.62437 0.0
C897 C 0.40359 0.35166 0.68295 0.0
C898 C 0.42941 0.34086 0.66567 0.0
C899 C 0.4281 0.33508 0.63652 0.0
C900 C 0.37478 0.3499 0.6421 0.0
C901 C 0.37601 0.35541 0.67115 0.0
C902 C 0.39901 0.33396 0.59387 0.0
C903 C 0.3377 0.28239 0.52648 0.0
C904 C 0.32546 0.25607 0.60588 0.0
C905 C 0.3636 0.16714 0.51197 0.0
C906 C 0.35878 0.13791 0.46125 0.0
C907 C 0.35593 0.16595 0.46134 0.0
C908 C 0.35842 0.18053 0.48657 0.0
C909 C 0.36789 0.13942 0.51161 0.0
C910 C 0.36552 0.12483 0.48638 0.0
C911 C 0.36294 0.18163 0.53931 0.0
H912 H 0.451 0.33828 0.67434 0.0
H913 H 0.4485 0.32719 0.62342 0.0
H914 H 0.35345 0.35381 0.63342 0.0
H915 H 0.35602 0.36449 0.68378 0.0
H916 H 0.35092 0.17646 0.44217 0.0
H917 H 0.35533 0.20207 0.48656 0.0
H918 H 0.372 0.12894 0.53111 0.0
H919 H 0.36736 0.1032 0.48705 0.0
Dy920 Dy 0.91343 0.30043 0.4971 0.0
Dy921 Dy 0.8594 0.32717 0.461 0.0
C922 C 0.8444 0.28409 0.51106 0.0
O923 O 0.90258 0.26787 0.46552 0.0
O924 O 0.8717 0.28967 0.43632 0.0
O925 O 0.93023 0.2684 0.52171 0.0
O926 O 0.95925 0.30348 0.50943 0.0
O927 O 0.90408 0.34327 0.43722 0.0
O928 O 0.93698 0.31316 0.45406 0.0
O929 O 0.86239 0.35425 0.49886 0.0
O930 O 0.90332 0.33952 0.52076 0.0
O931 O 0.83951 0.34139 0.4236 0.0
O932 O 0.81389 0.34418 0.46705 0.0
C933 C 0.88761 0.26868 0.44255 0.0
O934 O 0.86737 0.29432 0.52288 0.0
O935 O 0.84018 0.29055 0.48461 0.0
C936 C 0.96861 0.28018 0.55163 0.0
C937 C 0.99449 0.27405 0.60367 0.0
C938 C 0.96218 0.27261 0.60375 0.0
C939 C 0.94936 0.27555 0.57796 0.0
C940 C 1.00064 0.2828 0.55166 0.0
C941 C 1.01349 0.27974 0.57737 0.0
C942 C 0.95646 0.2808 0.52359 0.0
C943 C 0.93095 0.33111 0.43516 0.0
C944 C 0.88061 0.35635 0.51902 0.0
C945 C 0.78415 0.34197 0.42775 0.0
C946 C 0.72637 0.33988 0.40673 0.0
C947 C 0.75358 0.34675 0.38815 0.0
C948 C 0.78209 0.34777 0.39856 0.0
C949 C 0.75715 0.33424 0.44619 0.0
C950 C 0.72858 0.33316 0.43575 0.0
C951 C 0.81344 0.34782 0.43932 0.0
H952 H 0.94676 0.26879 0.62369 0.0
H953 H 0.92454 0.27365 0.57855 0.0
H954 H 1.01588 0.28641 0.53153 0.0
H955 H 0.03841 0.28071 0.57633 0.0
H956 H 0.75278 0.3523 0.36574 0.0
H957 H 0.8024 0.35415 0.38399 0.0
H958 H 0.75785 0.32975 0.46889 0.0
H959 H 0.70819 0.32729 0.45048 0.0
H960 H 0.1364 0.40957 0.28291 0.0
H961 H 0.17514 0.35764 0.34234 0.0
H962 H 0.18663 0.39699 0.37139 0.0
H963 H 0.18725 0.44677 0.37855 0.0
H964 H 0.1467 0.497 0.3185 0.0
H965 H 0.13431 0.45764 0.29124 0.0
C966 C 0.14752 0.40665 0.30216 0.0
C967 C 0.15539 0.38055 0.31009 0.0
C968 C 0.15352 0.42918 0.31882 0.0
C969 C 0.16905 0.37742 0.33555 0.0
C970 C 0.17557 0.39997 0.35216 0.0
C971 C 0.17503 0.44906 0.35992 0.0
C972 C 0.16765 0.47509 0.35092 0.0
C973 C 0.168 0.42604 0.34395 0.0
C974 C 0.1525 0.47747 0.32622 0.0
C975 C 0.14552 0.45489 0.31043 0.0
H976 H 0.36115 0.61206 0.8733 0.0
H977 H 0.301 0.65281 0.82198 0.0
H978 H 0.34016 0.68785 0.80961 0.0
H979 H 0.39344 0.70477 0.80978 0.0
H980 H 0.45545 0.66122 0.85654 0.0
H981 H 0.41384 0.63005 0.87484 0.0
C982 C 0.35636 0.62901 0.86007 0.0
C983 C 0.328 0.63004 0.84893 0.0
C984 C 0.37951 0.64866 0.85216 0.0
C985 C 0.32253 0.65169 0.83104 0.0
C986 C 0.34497 0.67172 0.82388 0.0
C987 C 0.39762 0.68888 0.82446 0.0
C988 C 0.42749 0.68561 0.83198 0.0
C989 C 0.37382 0.67018 0.83383 0.0
C990 C 0.43259 0.66444 0.85068 0.0
C991 C 0.40883 0.64643 0.86099 0.0
H992 H 0.63322 0.19602 0.77849 0.0
H993 H 0.58572 0.16804 0.70872 0.0
H994 H 0.62776 0.13686 0.69301 0.0
H995 H 0.6757 0.11423 0.7021 0.0
H996 H 0.72031 0.13951 0.77507 0.0
H997 H 0.68201 0.17462 0.78663 0.0
C998 C 0.63259 0.18371 0.75934 0.0
C999 C 0.60675 0.18491 0.7443 0.0
C1000 C 0.6562 0.16483 0.75133 0.0
C1001 C 0.60571 0.16797 0.7202 0.0
C1002 C 0.62961 0.14991 0.71141 0.0
C1003 C 0.67736 0.12775 0.72018 0.0
C1004 C 0.70105 0.1242 0.73756 0.0
C1005 C 0.65467 0.14766 0.72721 0.0
C1006 C 0.70241 0.14168 0.76126 0.0
C1007 C 0.68047 0.16185 0.76792 0.0
H1008 H 0.90247 0.91214 0.28632 0.0
H1009 H 0.85273 0.85964 0.23475 0.0
H1010 H 0.83626 0.89869 0.20869 0.0
H1011 H 0.83491 0.94816 0.20171 0.0
H1012 H 0.88714 0.99961 0.25246 0.0
H1013 H 0.90373 0.96058 0.27753 0.0
C1014 C 0.88798 0.90913 0.26937 0.0
C1015 C 0.87851 0.88288 0.26277 0.0
C1016 C 0.87914 0.93158 0.25423 0.0
C1017 C 0.86029 0.87951 0.24033 0.0
C1018 C 0.85084 0.90189 0.22549 0.0
C1019 C 0.85023 0.95086 0.21801 0.0
C1020 C 0.85986 0.97706 0.22495 0.0
C1021 C 0.86 0.92809 0.23235 0.0
C1022 C 0.87957 0.97991 0.2463 0.0
C1023 C 0.88896 0.95752 0.26084 0.0
H1024 H 0.38961 0.09486 0.43614 0.0
H1025 H 0.3102 0.14483 0.43151 0.0
H1026 H 0.29201 0.11424 0.39645 0.0
H1027 H 0.29451 0.07014 0.37342 0.0
H1028 H 0.37143 0.01834 0.38011 0.0
H1029 H 0.39538 0.05297 0.40767 0.0
C1030 C 0.36863 0.09921 0.42701 0.0
C1031 C 0.35119 0.12193 0.4364 0.0
C1032 C 0.35796 0.08123 0.40733 0.0
C1033 C 0.32419 0.1276 0.42433 0.0
C1034 C 0.31364 0.11003 0.40448 0.0
C1035 C 0.31702 0.06694 0.38013 0.0
C1036 C 0.33146 0.04213 0.3749 0.0
C1037 C 0.32981 0.08642 0.39662 0.0
C1038 C 0.3604 0.03767 0.38365 0.0
C1039 C 0.37375 0.05726 0.39971 0.0
H1040 H 0.15175 0.9157 0.93477 0.0
H1041 H 0.22389 0.95884 0.97113 0.0
H1042 H 0.21713 0.93031 1.01331 0.0
H1043 H 0.19136 0.89297 0.04108 0.0
H1044 H 0.11818 0.84963 1.00714 0.0
H1045 H 0.12475 0.87796 0.96379 0.0
C1046 C 0.16584 0.91892 0.95196 0.0
C1047 C 0.18798 0.93997 0.94942 0.0
C1048 C 0.16172 0.90227 0.97709 0.0
C1049 C 0.20617 0.94338 0.97215 0.0
C1050 C 0.20251 0.92687 0.99657 0.0
C1051 C 0.17663 0.88978 1.02435 0.0
C1052 C 0.15405 0.86925 1.0278 0.0
C1053 C 0.18033 0.90632 0.99944 0.0
C1054 C 0.13546 0.86549 1.00553 0.0
C1055 C 0.13933 0.88166 0.9805 0.0
H1056 H 0.90087 0.36282 0.57276 0.0
H1057 H 0.84316 0.39913 0.51548 0.0
H1058 H 0.82751 0.43342 0.55154 0.0
H1059 H 0.82892 0.45311 0.5994 0.0
H1060 H 0.88525 0.41759 0.65822 0.0
H1061 H 0.90263 0.38342 0.62162 0.0
C1062 C 0.88523 0.37845 0.56801 0.0
C1063 C 0.87356 0.37826 0.54106 0.0
C1064 C 0.8759 0.3984 0.58922 0.0
C1065 C 0.85278 0.39855 0.53576 0.0
C1066 C 0.84369 0.41831 0.55647 0.0
C1067 C 0.84524 0.43811 0.60433 0.0
C1068 C 0.85594 0.43834 0.63167 0.0
C1069 C 0.85496 0.41842 0.58329 0.0
C1070 C 0.8768 0.41829 0.63738 0.0
C1071 C 0.8867 0.39861 0.61642 0.0
H1072 H 0.67069 0.52455 0.18354 0.0
H1073 H 0.75445 0.56559 0.19835 0.0
H1074 H 0.73831 0.60599 0.17558 0.0
H1075 H 0.70488 0.62658 0.14462 0.0
H1076 H 0.62133 0.58594 0.12794 0.0
H1077 H 0.63291 0.54828 0.15806 0.0
C1078 C 0.68466 0.54273 0.18265 0.0
C1079 C 0.71348 0.54243 0.19253 0.0
C1080 C 0.67565 0.56565 0.16863 0.0
C1081 C 0.73202 0.56568 0.19088 0.0
C1082 C 0.72294 0.58867 0.17771 0.0
C1083 C 0.68854 0.61 0.14842 0.0
C1084 C 0.66242 0.60895 0.13395 0.0
C1085 C 0.69541 0.58849 0.1655 0.0
C1086 C 0.64189 0.58697 0.13857 0.0
C1087 C 0.64843 0.56549 0.15582 0.0
H1088 H 0.43581 0.26632 0.1403 0.0
H1089 H 0.41411 0.3497 0.13097 0.0
H1090 H 0.43698 0.36042 0.17521 0.0
H1091 H 0.46385 0.34577 0.21684 0.0
H1092 H 0.48134 0.26133 0.22632 0.0
H1093 H 0.45908 0.25152 0.18229 0.0
C1094 C 0.43594 0.2869 0.14781 0.0
C1095 C 0.42341 0.30717 0.13188 0.0
C1096 C 0.44832 0.29275 0.17366 0.0
C1097 C 0.4237 0.33365 0.14248 0.0
C1098 C 0.43678 0.33977 0.1679 0.0
C1099 C 0.46263 0.32522 0.20937 0.0
C1100 C 0.47444 0.30438 0.22529 0.0
C1101 C 0.44925 0.31947 0.18375 0.0
C1102 C 0.47245 0.27788 0.215 0.0
C1103 C 0.45978 0.27217 0.18957 0.0
H1104 H 0.98437 0.22844 0.92336 0.0
H1105 H 0.92772 0.17021 0.88566 0.0
H1106 H 0.96823 0.16575 0.84346 0.0
H1107 H 0.01978 0.17996 0.81671 0.0
H1108 H 0.07319 0.23967 0.85637 0.0
H1109 H 0.03366 0.24202 0.89818 0.0
C1110 C 0.98062 0.21456 0.90612 0.0
C1111 C 0.95293 0.19957 0.90787 0.0
C1112 C 1.00352 0.21249 0.88206 0.0
C1113 C 0.94888 0.18185 0.88504 0.0
C1114 C 0.97201 0.1794 0.86086 0.0
C1115 C 0.02277 0.19324 0.83467 0.0
C1116 C 0.04952 0.20962 0.83328 0.0
C1117 C 0.99946 0.19478 0.85904 0.0
C1118 C 0.05287 0.22696 0.85661 0.0
C1119 C 0.03027 0.22832 0.88069 0.0
H1120 H 0.57513 0.84392 0.35716 0.0
H1121 H 0.54718 0.76076 0.35185 0.0
H1122 H 0.56933 0.75061 0.39532 0.0
H1123 H 0.59617 0.76426 0.43552 0.0
H1124 H 0.62685 0.84618 0.44223 0.0
H1125 H 0.60435 0.85759 0.39812 0.0
C1126 C 0.57409 0.82356 0.36539 0.0
C1127 C 0.55929 0.80326 0.35065 0.0
C1128 C 0.5873 0.81747 0.39102 0.0
C1129 C 0.55828 0.77702 0.36212 0.0
C1130 C 0.57097 0.77104 0.38729 0.0
C1131 C 0.5979 0.78473 0.42759 0.0
C1132 C 0.613 0.80436 0.44269 0.0
C1133 C 0.58538 0.79101 0.40202 0.0
C1134 C 0.61525 0.83061 0.43139 0.0
C1135 C 0.60237 0.83714 0.40603 0.0
H1136 H 0.04518 0.72724 0.64976 0.0
H1137 H 0.10352 0.67218 0.68822 0.0
H1138 H 0.06372 0.66784 0.73102 0.0
H1139 H 1.01232 0.68111 0.75799 0.0
H1140 H 0.95715 0.73791 0.71789 0.0
H1141 H 0.99601 0.74018 0.67539 0.0
C1142 C 0.04944 0.71403 0.66727 0.0
C1143 C 0.07739 0.69984 0.66551 0.0
C1144 C 0.02694 0.71207 0.69171 0.0
C1145 C 0.08214 0.68312 0.68878 0.0
C1146 C 0.05941 0.68075 0.71331 0.0
C1147 C 1.00878 0.69375 0.73979 0.0
C1148 C 0.98171 0.70927 0.7412 0.0
C1149 C 0.03168 0.69527 0.7151 0.0
C1150 C 0.97769 0.72582 0.71758 0.0
C1151 C 0.99991 0.72713 0.69313 0.0
H1152 H 0.89884 0.65199 0.73292 0.0
H1153 H 0.83374 0.64244 0.811 0.0
H1154 H 0.82006 0.59761 0.79565 0.0
H1155 H 0.8285 0.55965 0.76155 0.0
H1156 H 0.89134 0.5689 0.68205 0.0
H1157 H 0.90414 0.61469 0.69635 0.0
C1158 C 0.88087 0.64045 0.74599 0.0
C1159 C 0.86682 0.65097 0.77285 0.0
C1160 C 0.87335 0.61412 0.73717 0.0
C1161 C 0.84444 0.63517 0.79 0.0
C1162 C 0.83688 0.60929 0.78141 0.0
C1163 C 0.84531 0.57156 0.7475 0.0
C1164 C 0.85967 0.56046 0.72112 0.0
C1165 C 0.85168 0.59826 0.7554 0.0
C1166 C 0.88044 0.57667 0.70273 0.0
C1167 C 0.88758 0.60299 0.71083 0.0
H1168 H 0.58892 0.38673 0.23728 0.0
H1169 H 0.63804 0.31354 0.24736 0.0
H1170 H 0.68752 0.33746 0.23495 0.0
H1171 H 0.71674 0.38056 0.22498 0.0
H1172 H 0.66656 0.45222 0.21068 0.0
H1173 H 0.61754 0.4276 0.22086 0.0
C1174 C 0.61043 0.3758 0.23616 0.0
C1175 C 0.60975 0.34844 0.24383 0.0
C1176 C 0.63861 0.38955 0.2284 0.0
C1177 C 0.63785 0.33462 0.24193 0.0
C1178 C 0.66617 0.34836 0.23492 0.0
C1179 C 0.69503 0.39052 0.22356 0.0
C1180 C 0.69515 0.4181 0.21695 0.0
C1181 C 0.66684 0.376 0.22875 0.0
C1182 C 0.66698 0.43094 0.21532 0.0
C1183 C 0.63897 0.4169 0.22129 0.0
H1184 H 0.44538 0.88437 0.34439 0.0
H1185 H 0.39823 0.82392 0.29986 0.0
H1186 H 0.35018 0.84907 0.30934 0.0
H1187 H 0.32186 0.88951 0.32838 0.0
H1188 H 0.36782 0.94821 0.37615 0.0
H1189 H 0.41572 0.92256 0.36756 0.0
C1190 C 0.42443 0.87646 0.33727 0.0
C1191 C 0.42542 0.85213 0.32168 0.0
C1192 C 0.39658 0.89083 0.34329 0.0
C1193 C 0.39807 0.84229 0.3124 0.0
C1194 C 0.37057 0.85681 0.31758 0.0
C1195 C 0.34227 0.89645 0.33723 0.0
C1196 C 0.34124 0.92069 0.35296 0.0
C1197 C 0.3696 0.88124 0.33277 0.0
C1198 C 0.36787 0.92946 0.36429 0.0
C1199 C 0.39535 0.91487 0.35923 0.0
H1200 H 0.18779 0.08725 0.87953 0.0
H1201 H 0.14921 0.03582 0.81834 0.0
H1202 H 0.13705 0.07483 0.79093 0.0
H1203 H 0.13864 0.12313 0.78294 0.0
H1204 H 0.1754 0.17589 0.84378 0.0
H1205 H 0.18687 0.13687 0.87263 0.0
C1206 C 0.17608 0.08456 0.86059 0.0
C1207 C 0.16913 0.05832 0.85139 0.0
C1208 C 0.16918 0.10736 0.84455 0.0
C1209 C 0.15461 0.05552 0.82629 0.0
C1210 C 0.14779 0.07791 0.8104 0.0
C1211 C 0.14933 0.12627 0.80244 0.0
C1212 C 0.15662 0.15259 0.81085 0.0
C1213 C 0.1553 0.10385 0.81907 0.0
C1214 C 0.16977 0.15598 0.8366 0.0
C1215 C 0.17627 0.13361 0.85313 0.0
H1216 H 0.68006 0.02311 0.66818 0.0
H1217 H 0.70875 0.97062 0.73256 0.0
H1218 H 0.69198 0.93137 0.70658 0.0
H1219 H 0.67753 0.91265 0.66095 0.0
H1220 H 0.64726 0.96613 0.5978 0.0
H1221 H 0.65585 1.00459 0.62811 0.0
C1222 C 0.68123 1.00311 0.67712 0.0
C1223 C 0.69528 0.99941 0.70202 0.0
C1224 C 0.67182 0.98095 0.66202 0.0
C1225 C 0.69754 0.97361 0.71343 0.0
C1226 C 0.68829 0.95127 0.69844 0.0
C1227 C 0.67181 0.93263 0.65437 0.0
C1228 C 0.66257 0.93671 0.62694 0.0
C1229 C 0.6766 0.95472 0.67202 0.0
C1230 C 0.65524 0.96267 0.61855 0.0
C1231 C 0.66001 0.98465 0.63586 0.0
H1232 H 0.89731 0.17693 0.0729 0.0
H1233 H 0.84807 0.13217 1.01374 0.0
H1234 H 0.83386 0.0981 0.05063 0.0
H1235 H 0.83404 0.08098 0.09989 0.0
H1236 H 0.88063 0.12584 0.16081 0.0
H1237 H 0.89714 0.15947 0.12329 0.0
C1238 C 0.88391 0.1595 0.06795 0.0
C1239 C 0.87426 0.15714 0.04019 0.0
C1240 C 0.87517 0.13986 0.08971 0.0
C1241 C 0.85616 0.13464 1.03463 0.0
C1242 C 0.84789 0.11503 0.05582 0.0
C1243 C 0.84815 0.0979 0.10502 0.0
C1244 C 0.85641 0.10045 0.13325 0.0
C1245 C 0.85713 0.11742 0.08346 0.0
C1246 C 0.87408 0.12304 0.13934 0.0
C1247 C 0.88353 0.14238 0.11781 0.0
H1248 H 0.13091 0.67396 0.50191 0.0
H1249 H 0.18488 0.63515 0.56072 0.0
H1250 H 0.1996 0.60035 0.52493 0.0
H1251 H 0.19852 0.58097 0.47682 0.0
H1252 H 0.14642 0.6194 0.41633 0.0
H1253 H 0.12972 0.65388 0.45273 0.0
C1254 C 0.14548 0.65767 0.50704 0.0
C1255 C 0.15638 0.65726 0.53434 0.0
C1256 C 0.15437 0.6375 0.48596 0.0
C1257 C 0.17588 0.63616 0.54015 0.0
C1258 C 0.18443 0.61612 0.5196 0.0
C1259 C 0.18319 0.59664 0.47151 0.0
C1260 C 0.17346 0.59711 0.44375 0.0
C1261 C 0.17396 0.6166 0.49241 0.0
C1262 C 0.15407 0.61812 0.43749 0.0
C1263 C 0.14455 0.63798 0.45835 0.0
H1264 H 0.38044 0.45226 0.94918 0.0
H1265 H 0.32638 0.39269 0.91025 0.0
H1266 H 0.31307 0.42579 0.87563 0.0
H1267 H 0.31096 0.47293 0.86144 0.0
H1268 H 0.36432 0.53247 0.90053 0.0
H1269 H 0.38513 0.49775 0.92944 0.0
C1270 C 0.36671 0.44621 0.93246 0.0
C1271 C 0.35405 0.42019 0.9325 0.0
C1272 C 0.35931 0.46528 0.91258 0.0
C1273 C 0.33583 0.41281 0.911 0.0
C1274 C 0.32837 0.43165 0.89111 0.0
C1275 C 0.32828 0.47794 0.87534 0.0
C1276 C 0.33682 0.50478 0.87872 0.0
C1277 C 0.33919 0.4581 0.89235 0.0
C1278 C 0.35833 0.51164 0.89727 0.0
C1279 C 0.36975 0.4919 0.91404 0.0
H1280 H 0.58181 0.69457 0.85038 0.0
H1281 H 0.53915 0.77275 0.85624 0.0
H1282 H 0.5581 0.78131 0.90165 0.0
H1283 H 0.58478 0.76717 0.94118 0.0
H1284 H 0.63314 0.69205 0.9359 0.0
H1285 H 0.61344 0.68167 0.88988 0.0
C1286 C 0.57705 0.71358 0.86139 0.0
C1287 C 0.55857 0.73273 0.84943 0.0
C1288 C 0.5886 0.71892 0.88818 0.0
C1289 C 0.5528 0.75724 0.86448 0.0
C1290 C 0.56365 0.76233 0.89079 0.0
C1291 C 0.59143 0.74857 0.92999 0.0
C1292 C 0.61055 0.73051 0.94229 0.0
C1293 C 0.58118 0.7433 0.90305 0.0
C1294 C 0.61837 0.7064 0.92721 0.0
C1295 C 0.60721 0.70051 0.90071 0.0
H1296 H 0.02229 0.85161 0.25983 0.0
H1297 H 0.9569 0.81116 0.21234 0.0
H1298 H 0.99503 0.8093 0.16934 0.0
H1299 H 0.0469 0.81665 0.14558 0.0
H1300 H 0.11491 0.85579 0.1907 0.0
H1301 H 0.07581 0.8612 0.23389 0.0
C1302 C 1.01639 0.84291 0.23986 0.0
C1303 C 0.98676 0.83149 0.23936 0.0
C1304 C 0.03886 0.84162 0.21476 0.0
C1305 C 0.97954 0.81993 0.21344 0.0
C1306 C 1.00133 0.81885 0.18873 0.0
C1307 C 0.05332 0.82662 0.16472 0.0
C1308 C 0.08384 0.8358 0.16487 0.0
C1309 C 0.03108 0.82924 0.18925 0.0
C1310 C 0.09148 0.84876 0.18989 0.0
C1311 C 0.06916 0.85167 0.21465 0.0
H1312 H 0.49637 0.25315 0.70368 0.0
H1313 H 0.43756 0.1886 0.741 0.0
H1314 H 0.4096 0.18893 0.69863 0.0
H1315 H 0.40158 0.20804 0.65009 0.0
H1316 H 0.46251 0.27208 0.6142 0.0
H1317 H 0.48927 0.27131 0.65641 0.0
C1318 C 0.47735 0.23914 0.70281 0.0
C1319 C 0.46914 0.221 0.72599 0.0
C1320 C 0.46155 0.23925 0.6782 0.0
C1321 C 0.44447 0.20296 0.72383 0.0
C1322 C 0.42845 0.2031 0.69942 0.0
C1323 C 0.42089 0.22162 0.65138 0.0
C1324 C 0.42983 0.23999 0.62838 0.0
C1325 C 0.43676 0.22115 0.67628 0.0
C1326 C 0.45486 0.25755 0.63102 0.0
C1327 C 0.47034 0.25724 0.6554 0.0
H1328 H 0.98508 0.30496 0.42385 0.0
H1329 H 0.93121 0.36564 0.38838 0.0
H1330 H 0.97098 0.36924 0.34548 0.0
H1331 H 0.02112 0.35401 0.31768 0.0
H1332 H 0.07179 0.2918 0.35477 0.0
H1333 H 0.03295 0.28997 0.39728 0.0
C1334 C 0.98184 0.31927 0.407 0.0
C1335 C 0.95517 0.33527 0.40964 0.0
C1336 C 1.00429 0.32083 0.38248 0.0
C1337 C 0.95162 0.35328 0.38713 0.0
C1338 C 0.97432 0.35525 0.36255 0.0
C1339 C 0.02368 0.34023 0.3352 0.0
C1340 C 0.0495 0.32311 0.33292 0.0
C1341 C 1.0008 0.33901 0.35992 0.0
C1342 C 0.05224 0.30515 0.3557 0.0
C1343 C 0.03003 0.30409 0.38018 0.0
H1344 H 0.23898 0.07276 0.38208 0.0
H1345 H 0.20721 0.03557 0.3076 0.0
H1346 H 0.1857 0.07811 0.29428 0.0
H1347 H 0.17954 0.12647 0.30146 0.0
H1348 H 0.21317 0.16484 0.37458 0.0
H1349 H 0.23125 0.1217 0.39014 0.0
C1350 C 0.22685 0.074 0.36328 0.0
C1351 C 0.22422 0.05107 0.346 0.0
C1352 C 0.21556 0.0989 0.35508 0.0
C1353 C 0.20903 0.05295 0.32138 0.0
C1354 C 0.19699 0.0773 0.31363 0.0
C1355 C 0.19035 0.12543 0.32109 0.0
C1356 C 0.1949 0.14905 0.33676 0.0
C1357 C 0.20064 0.10053 0.32997 0.0
C1358 C 0.20966 0.14716 0.36179 0.0
C1359 C 0.21981 0.12239 0.37089 0.0
H1360 H 0.26644 0.9055 0.85879 0.0
H1361 H 0.32503 0.96677 0.88913 0.0
H1362 H 0.37004 0.93793 0.87695 0.0
H1363 H 0.39275 0.896 0.85591 0.0
H1364 H 0.3337 0.83658 0.82294 0.0
H1365 H 0.28865 0.86408 0.83841 0.0
C1366 C 0.28894 0.91259 0.86309 0.0
C1367 C 0.29228 0.93828 0.87497 0.0
C1368 C 0.31463 0.89625 0.85551 0.0
C1369 C 0.32174 0.94703 0.88016 0.0
C1370 C 0.3475 0.93061 0.87307 0.0
C1371 C 0.37006 0.88913 0.85195 0.0
C1372 C 0.36665 0.86419 0.83831 0.0
C1373 C 0.34424 0.90532 0.86037 0.0
C1374 C 0.33698 0.85543 0.8338 0.0
C1375 C 0.31121 0.87124 0.84244 0.0
H1376 H 0.76561 0.40324 0.71063 0.0
H1377 H 0.70667 0.46816 0.6919 0.0
H1378 H 0.66101 0.43982 0.7056 0.0
H1379 H 0.63779 0.39741 0.72536 0.0
H1380 H 0.69718 0.33247 0.74318 0.0
H1381 H 0.74264 0.36039 0.72806 0.0
C1382 C 0.74283 0.4112 0.70921 0.0
C1383 C 0.73969 0.43783 0.7001 0.0
C1384 C 0.71668 0.39493 0.71744 0.0
C1385 C 0.70988 0.44769 0.69856 0.0
C1386 C 0.68371 0.43154 0.70659 0.0
C1387 C 0.66065 0.38916 0.72555 0.0
C1388 C 0.66389 0.36282 0.73565 0.0
C1389 C 0.68683 0.40522 0.71639 0.0
C1390 C 0.69382 0.35278 0.73614 0.0
C1391 C 0.71991 0.36867 0.72722 0.0
H1392 H 0.77547 0.56433 0.26195 0.0
H1393 H 0.84613 0.54609 0.19016 0.0
H1394 H 0.8692 0.59079 0.19457 0.0
H1395 H 0.86869 0.63536 0.2188 0.0
H1396 H 0.79746 0.65197 0.29078 0.0
H1397 H 0.77503 0.60766 0.28585 0.0
C1398 C 0.79606 0.56987 0.24726 0.0
C1399 C 0.80917 0.55158 0.2259 0.0
C1400 C 0.80897 0.5955 0.24979 0.0
C1401 C 0.83562 0.55957 0.20694 0.0
C1402 C 0.84878 0.58518 0.20943 0.0
C1403 C 0.84844 0.62921 0.23361 0.0
C1404 C 0.83477 0.64727 0.25509 0.0
C1405 C 0.83564 0.60335 0.23083 0.0
C1406 C 0.80825 0.6389 0.27374 0.0
C1407 C 0.79549 0.6134 0.27109 0.0
H1408 H 0.40194 0.08971 0.25021 0.0
H1409 H 0.30656 0.11069 0.24834 0.0
H1410 H 0.32242 0.15569 0.23137 0.0
H1411 H 0.36345 0.18342 0.20597 0.0
H1412 H 0.45868 0.1598 0.20209 0.0
H1413 H 0.443 0.12196 0.23425 0.0
C1414 C 0.38459 0.10448 0.24714 0.0
C1415 C 0.35331 0.09697 0.24971 0.0
C1416 C 0.39396 0.12981 0.23657 0.0
C1417 C 0.3309 0.11607 0.24565 0.0
C1418 C 0.33994 0.14174 0.23614 0.0
C1419 C 0.38091 0.17088 0.21353 0.0
C1420 C 0.41208 0.17387 0.20154 0.0
C1421 C 0.37148 0.14819 0.22993 0.0
C1422 C 0.43455 0.15755 0.21116 0.0
C1423 C 0.42551 0.13574 0.22906 0.0
H1424 H 0.13202 0.87196 0.71202 0.0
H1425 H 0.20342 0.83084 0.75009 0.0
H1426 H 0.20146 0.79414 0.71602 0.0
H1427 H 0.18062 0.77358 0.67539 0.0
H1428 H 0.11093 0.81417 0.6348 0.0
H1429 H 0.11191 0.85146 0.66938 0.0
C1430 C 0.14741 0.85514 0.71281 0.0
C1431 C 0.16755 0.85437 0.73431 0.0
C1432 C 0.14674 0.834 0.69247 0.0
C1433 C 0.18698 0.83202 0.73472 0.0
C1434 C 0.18618 0.81099 0.71489 0.0
C1435 C 0.16549 0.79049 0.6739 0.0
C1436 C 0.14558 0.79081 0.65238 0.0
C1437 C 0.1662 0.81175 0.69375 0.0
C1438 C 0.12648 0.81321 0.65102 0.0
C1439 C 0.12702 0.83456 0.67088 0.0
H1440 H 0.82748 0.35592 0.86828 0.0
H1441 H 0.92469 0.36881 0.83832 0.0
H1442 H 0.93789 0.33608 0.87333 0.0
H1443 H 0.92187 0.30096 0.91076 0.0
H1444 H 0.82455 0.28592 0.93657 0.0
H1445 H 0.81163 0.32169 0.90486 0.0
C1446 C 0.85163 0.35151 0.86895 0.0
C1447 C 0.87487 0.36518 0.85023 0.0
C1448 C 0.85919 0.33199 0.88865 0.0
C1449 C 0.90601 0.35924 0.85249 0.0
C1450 C 0.91371 0.34021 0.87248 0.0
C1451 C 0.89791 0.30597 0.90981 0.0
C1452 C 0.87417 0.29104 0.9264 0.0
C1453 C 0.89051 0.3262 0.89056 0.0
C1454 C 0.84322 0.29731 0.92435 0.0
C1455 C 0.83579 0.31769 0.90604 0.0
H1456 H 0.67429 0.60657 0.29632 0.0
H1457 H 0.59786 0.56511 0.34719 0.0
H1458 H 0.57833 0.60775 0.36758 0.0
H1459 H 0.59143 0.65356 0.37969 0.0
H1460 H 0.66925 0.694 0.33028 0.0
H1461 H 0.67856 0.65497 0.29864 0.0
C1462 C 0.65252 0.60675 0.31075 0.0
C1463 C 0.63803 0.5826 0.32093 0.0
C1464 C 0.64162 0.63117 0.32242 0.0
C1465 C 0.61003 0.58341 0.33987 0.0
C1466 C 0.59872 0.60778 0.35133 0.0
C1467 C 0.60924 0.65449 0.36092 0.0
C1468 C 0.63037 0.67604 0.35774 0.0
C1469 C 0.61547 0.63149 0.34407 0.0
C1470 C 0.65312 0.67723 0.33325 0.0
C1471 C 0.65875 0.65477 0.31554 0.0
H1472 H 0.27574 0.31748 0.106 0.0
H1473 H 0.31513 0.2594 0.15874 0.0
H1474 H 0.27123 0.26488 0.19711 0.0
H1475 H 0.22194 0.2862 0.21595 0.0
H1476 H 0.18172 0.3437 0.16319 0.0
H1477 H 0.22569 0.33839 0.12466 0.0
C1478 C 0.27484 0.30595 0.12586 0.0
C1479 C 0.29906 0.28801 0.12935 0.0
C1480 C 0.24933 0.30917 0.14792 0.0
C1481 C 0.29709 0.27332 0.15532 0.0
C1482 C 0.27191 0.27649 0.17733 0.0
C1483 C 0.22269 0.29773 0.19609 0.0
C1484 C 0.19837 0.31555 0.19271 0.0
C1485 C 0.24796 0.29439 0.17393 0.0
C1486 C 0.19992 0.32992 0.16655 0.0
C1487 C 0.22515 0.32687 0.14448 0.0
H1488 H 0.70697 0.22363 0.86606 0.0
H1489 H 0.67742 0.15235 0.91498 0.0
H1490 H 0.62849 0.15221 0.89487 0.0
H1491 H 0.59376 0.17273 0.86298 0.0
H1492 H 0.62537 0.24418 0.81479 0.0
H1493 H 0.67377 0.24324 0.83432 0.0
C1494 C 0.69007 0.20782 0.87207 0.0
C1495 C 0.69597 0.18805 0.89194 0.0
C1496 C 0.66218 0.20776 0.8604 0.0
C1497 C 0.67337 0.16806 0.89995 0.0
C1498 C 0.64543 0.16783 0.8883 0.0
C1499 C 0.6113 0.188 0.85682 0.0
C1500 C 0.60555 0.20866 0.83783 0.0
C1501 C 0.6395 0.18764 0.86847 0.0
C1502 C 0.62865 0.2283 0.82991 0.0
C1503 C 0.6566 0.22778 0.84092 0.0
H1504 H 0.72986 0.77759 0.41501 0.0
H1505 H 0.76657 0.81163 0.48876 0.0
H1506 H 0.81428 0.82418 0.45793 0.0
H1507 H 0.84653 0.82565 0.40935 0.0
H1508 H 0.80806 0.79241 0.3359 0.0
H1509 H 0.76123 0.77979 0.36692 0.0
C1510 C 0.74834 0.7876 0.42438 0.0
C1511 C 0.74436 0.79345 0.45428 0.0
C1512 C 0.77589 0.79519 0.4064 0.0
C1513 C 0.7687 0.80674 0.46583 0.0
C1514 C 0.79619 0.81403 0.44816 0.0
C1515 C 0.82786 0.81584 0.40012 0.0
C1516 C 0.83143 0.81016 0.37007 0.0
C1517 C 0.80016 0.80846 0.41828 0.0
C1518 C 0.80662 0.79723 0.3588 0.0
C1519 C 0.77947 0.78982 0.3766 0.0
H1520 H 0.44154 0.68145 0.7018 0.0
H1521 H 0.40183 0.73419 0.77061 0.0
H1522 H 0.35225 0.73221 0.75294 0.0
H1523 H 0.32083 0.71862 0.71629 0.0
H1524 H 0.35926 0.66782 0.64528 0.0
H1525 H 0.40865 0.66684 0.66462 0.0
C1526 C 0.42182 0.69206 0.71304 0.0
C1527 C 0.42524 0.70751 0.73777 0.0
C1528 C 0.39327 0.69185 0.70193 0.0
C1529 C 0.39971 0.72176 0.7518 0.0
C1530 C 0.37132 0.72089 0.74158 0.0
C1531 C 0.3398 0.70696 0.70522 0.0
C1532 C 0.33622 0.69329 0.67944 0.0
C1533 C 0.36796 0.70642 0.71642 0.0
C1534 C 0.36143 0.67883 0.66505 0.0
C1535 C 0.38964 0.67806 0.67622 0.0
H1536 H 0.76238 0.9575 0.72223 0.0
H1537 H 0.84855 0.99822 0.72869 0.0
H1538 H 0.87264 0.95522 0.7376 0.0
H1539 H 0.86765 0.90645 0.7472 0.0
H1540 H 0.78213 0.86589 0.73527 0.0
H1541 H 0.75931 0.9084 0.72572 0.0
C1542 C 0.78658 0.95686 0.72509 0.0
C1543 C 0.80371 0.98093 0.72472 0.0
C1544 C 0.80024 0.93211 0.72989 0.0
C1545 C 0.83505 0.97989 0.72845 0.0
C1546 C 0.84869 0.95532 0.73383 0.0
C1547 C 0.84424 0.90657 0.74195 0.0
C1548 C 0.82666 0.88244 0.74296 0.0
C1549 C 0.83134 0.93128 0.73508 0.0
C1550 C 0.79619 0.88378 0.73612 0.0
C1551 C 0.78306 0.90823 0.73014 0.0
H1552 H 0.70844 0.07745 0.20785 0.0
H1553 H 0.78023 0.13781 0.19434 0.0
H1554 H 0.74216 0.1731 0.20705 0.0
H1555 H 0.68934 0.18636 0.22619 0.0
H1556 H 0.61742 0.12593 0.24125 0.0
H1557 H 0.6546 0.09113 0.22444 0.0
C1558 C 0.71543 0.09841 0.20688 0.0
C1559 C 0.74681 0.10526 0.1996 0.0
C1560 C 0.69353 0.1185 0.21524 0.0
C1561 C 0.756 0.13231 0.19942 0.0
C1562 C 0.73432 0.15241 0.20693 0.0
C1563 C 0.68164 0.16566 0.22534 0.0
C1564 C 0.65063 0.15885 0.23525 0.0
C1565 C 0.70313 0.14571 0.21552 0.0
C1566 C 0.64127 0.13177 0.23435 0.0
C1567 C 0.66246 0.11182 0.22447 0.0
H1568 H 0.3657 0.64735 0.30863 0.0
H1569 H 0.37147 0.68214 0.39294 0.0
H1570 H 0.33225 0.65041 0.4154 0.0
H1571 H 0.29494 0.61327 0.41065 0.0
H1572 H 0.28889 0.58043 0.32577 0.0
H1573 H 0.3305 0.60995 0.30409 0.0
C1574 C 0.35874 0.64778 0.33198 0.0
C1575 C 0.37143 0.66712 0.34903 0.0
C1576 C 0.3365 0.62941 0.34472 0.0
C1577 C 0.36167 0.66771 0.37921 0.0
C1578 C 0.33945 0.64942 0.39213 0.0
C1579 C 0.30336 0.61233 0.38757 0.0
C1580 C 0.28995 0.5941 0.36985 0.0
C1581 C 0.32658 0.63022 0.37508 0.0
C1582 C 0.30004 0.5935 0.33985 0.0
C1583 C 0.32341 0.61071 0.3274 0.0
H1584 H 0.18819 0.40801 0.79631 0.0
H1585 H 0.21518 0.37197 0.87329 0.0
H1586 H 0.23257 0.41556 0.88904 0.0
H1587 H 0.24225 0.46421 0.88006 0.0
H1588 H 0.21537 0.49971 0.80304 0.0
H1589 H 0.19502 0.45651 0.78878 0.0
C1590 C 0.19744 0.40965 0.81675 0.0
C1591 C 0.2006 0.38641 0.83329 0.0
C1592 C 0.20716 0.43494 0.82594 0.0
C1593 C 0.21307 0.38921 0.85959 0.0
C1594 C 0.22279 0.41427 0.86886 0.0
C1595 C 0.23118 0.46249 0.86059 0.0
C1596 C 0.22966 0.48513 0.84286 0.0
C1597 C 0.22018 0.43731 0.85213 0.0
C1598 C 0.21625 0.48258 0.8172 0.0
C1599 C 0.20485 0.45784 0.80894 0.0
H1600 H 0.63159 0.84936 0.84535 0.0
H1601 H 0.72818 0.83368 0.84598 0.0
H1602 H 0.74226 0.87061 0.81229 0.0
H1603 H 0.72673 0.91579 0.80049 0.0
H1604 H 0.62987 0.93558 0.81006 0.0
H1605 H 0.61587 0.889 0.82117 0.0
C1606 C 0.65561 0.85298 0.83641 0.0
C1607 C 0.67894 0.83992 0.84863 0.0
C1608 C 0.66328 0.87602 0.81992 0.0
C1609 C 0.71001 0.84404 0.83693 0.0
C1610 C 0.71798 0.8656 0.81829 0.0
C1611 C 0.70259 0.90958 0.80409 0.0
C1612 C 0.67932 0.92895 0.80578 0.0
C1613 C 0.69484 0.88325 0.81239 0.0
C1614 C 0.64813 0.92093 0.80929 0.0
C1615 C 0.64013 0.89432 0.8158 0.0
H1616 H 0.89404 0.15915 0.37125 0.0
H1617 H 0.8422 0.20668 0.31747 0.0
H1618 H 0.84555 0.24509 0.34933 0.0
H1619 H 0.86179 0.26517 0.39264 0.0
H1620 H 0.91261 0.21845 0.44788 0.0
H1621 H 0.91058 0.17972 0.41543 0.0
C1622 C 0.88327 0.17783 0.36653 0.0
C1623 C 0.868 0.17979 0.34161 0.0
C1624 C 0.88493 0.20002 0.3853 0.0
C1625 C 0.85463 0.20445 0.33593 0.0
C1626 C 0.85629 0.22648 0.35436 0.0
C1627 C 0.87253 0.24658 0.39778 0.0
C1628 C 0.88733 0.2449 0.42289 0.0
C1629 C 0.87125 0.22448 0.3791 0.0
C1630 C 0.90109 0.22049 0.4288 0.0
C1631 C 0.89989 0.19829 0.41022 0.0
H1632 H 0.11287 0.73365 0.16574 0.0
H1633 H 0.21018 0.7483 0.13922 0.0
H1634 H 0.22316 0.7146 0.17333 0.0
H1635 H 0.20733 0.68339 0.21292 0.0
H1636 H 0.11017 0.66718 0.23971 0.0
H1637 H 0.09686 0.69959 0.20432 0.0
C1638 C 0.13684 0.72903 0.16715 0.0
C1639 C 0.16057 0.7434 0.14994 0.0
C1640 C 0.14426 0.70982 0.18745 0.0
C1641 C 0.19154 0.73754 0.15229 0.0
C1642 C 0.199 0.71833 0.17189 0.0
C1643 C 0.18318 0.68639 0.21084 0.0
C1644 C 0.15994 0.67261 0.22941 0.0
C1645 C 0.1756 0.70469 0.18997 0.0
C1646 C 0.12879 0.67768 0.2264 0.0
C1647 C 0.12106 0.69609 0.20582 0.0
H1648 H 0.36304 0.43493 0.77231 0.0
H1649 H 0.44173 0.47564 0.7243 0.0
H1650 H 0.4609 0.43292 0.70357 0.0
H1651 H 0.4475 0.38754 0.69025 0.0
H1652 H 0.36595 0.3485 0.73482 0.0
H1653 H 0.3565 0.38689 0.76744 0.0
C1654 C 0.38515 0.43441 0.7584 0.0
C1655 C 0.40075 0.45836 0.74933 0.0
C1656 C 0.39545 0.41005 0.74612 0.0
C1657 C 0.42907 0.45739 0.73096 0.0
C1658 C 0.44004 0.43302 0.71925 0.0
C1659 C 0.42875 0.38678 0.70823 0.0
C1660 C 0.40706 0.3657 0.71004 0.0
C1661 C 0.42239 0.40957 0.72538 0.0
C1662 C 0.38273 0.36479 0.73318 0.0
C1663 C 0.37708 0.38689 0.75142 0.0
H1664 H 0.81312 0.74816 0.86011 0.0
H1665 H 0.85169 0.68924 0.91239 0.0
H1666 H 0.80828 0.69569 0.95134 0.0
H1667 H 0.75906 0.71804 0.97033 0.0
H1668 H 0.72188 0.7775 0.91754 0.0
H1669 H 0.76517 0.77084 0.87911 0.0
C1670 C 0.81213 0.73655 0.87995 0.0
C1671 C 0.83569 0.718 0.88314 0.0
C1672 C 0.78731 0.74055 0.90225 0.0
C1673 C 0.83397 0.70358 0.90926 0.0
C1674 C 0.8091 0.70728 0.93154 0.0
C1675 C 0.76041 0.72961 0.95045 0.0
C1676 C 0.73698 0.74829 0.94696 0.0
C1677 C 0.78559 0.72572 0.92827 0.0
C1678 C 0.73936 0.76302 0.92097 0.0
C1679 C 0.76416 0.7592 0.8989 0.0
H1680 H 0.35831 0.8105 0.16211 0.0
H1681 H 0.31719 0.87285 0.21911 0.0
H1682 H 0.36311 0.87463 0.24365 0.0
H1683 H 0.41499 0.85778 0.24971 0.0
H1684 H 0.45477 0.79422 0.19403 0.0
H1685 H 0.41011 0.79434 0.16752 0.0
C1686 C 0.35948 0.82473 0.17964 0.0
C1687 C 0.33409 0.8414 0.18872 0.0
C1688 C 0.38609 0.82576 0.19365 0.0
C1689 C 0.33604 0.8594 0.21189 0.0
C1690 C 0.36248 0.86065 0.2258 0.0
C1691 C 0.41405 0.84442 0.23136 0.0
C1692 C 0.43828 0.82636 0.22336 0.0
C1693 C 0.38768 0.84391 0.21691 0.0
C1694 C 0.43649 0.80854 0.20019 0.0
C1695 C 0.41088 0.80847 0.1852 0.0
H1696 H 0.27734 0.21996 0.60852 0.0
H1697 H 0.31249 0.285 0.65655 0.0
H1698 H 0.26887 0.27919 0.69534 0.0
H1699 H 0.22104 0.25542 0.71593 0.0
H1700 H 0.1856 0.19074 0.66761 0.0
H1701 H 0.22908 0.19665 0.62875 0.0
C1702 C 0.27557 0.23298 0.62742 0.0
C1703 C 0.29851 0.25295 0.62948 0.0
C1704 C 0.25034 0.2295 0.6497 0.0
C1705 C 0.29547 0.26947 0.65427 0.0
C1706 C 0.27045 0.26612 0.67651 0.0
C1707 C 0.22276 0.24249 0.69696 0.0
C1708 C 0.1999 0.22248 0.69494 0.0
C1709 C 0.24782 0.24614 0.67454 0.0
C1710 C 0.20264 0.20626 0.66991 0.0
C1711 C 0.2276 0.20964 0.64764 0.0
H1712 H 0.58874 0.3462 0.37664 0.0
H1713 H 0.63436 0.31043 0.29764 0.0
H1714 H 0.68376 0.31327 0.31539 0.0
H1715 H 0.71385 0.32265 0.35425 0.0
H1716 H 0.6702 0.35716 0.43471 0.0
H1717 H 0.62036 0.35711 0.41612 0.0
C1718 C 0.60963 0.33948 0.3633 0.0
C1719 C 0.60789 0.32841 0.3357 0.0
C1720 C 0.63831 0.34026 0.37419 0.0
C1721 C 0.63507 0.31934 0.31878 0.0
C1722 C 0.66341 0.32071 0.32901 0.0
C1723 C 0.6936 0.33059 0.36764 0.0
C1724 C 0.69589 0.33994 0.39578 0.0
C1725 C 0.66524 0.33068 0.35682 0.0
C1726 C 0.66909 0.34951 0.41303 0.0
C1727 C 0.64059 0.34971 0.40233 0.0
H1728 H 0.10656 0.27342 0.17741 0.0
H1729 H 0.02461 0.2797 0.24045 0.0
H1730 H 0.99202 0.27005 0.20298 0.0
H1731 H 0.98653 0.26276 0.15184 0.0
H1732 H 0.06812 0.2589 0.08788 0.0
H1733 H 0.10099 0.2643 0.12598 0.0
C1734 C 0.08165 0.27174 0.183 0.0
C1735 C 0.06798 0.27665 0.2117 0.0
C1736 C 0.06291 0.267 0.16108 0.0
C1737 C 0.0356 0.27547 0.21854 0.0
C1738 C 0.01694 0.27023 0.1971 0.0
C1739 C 1.01149 0.26315 0.14621 0.0
C1740 C 0.02475 0.26037 0.11703 0.0
C1741 C 0.03029 0.26655 0.16819 0.0
C1742 C 0.05722 0.26061 0.11022 0.0
C1743 C 0.07609 0.26383 0.13199 0.0
H1744 H 0.59854 0.79577 0.60901 0.0
H1745 H 0.6087 0.71282 0.58267 0.0
H1746 H 0.5862 0.69851 0.63121 0.0
H1747 H 0.5636 0.7091 0.68136 0.0
H1748 H 0.55242 0.7918 0.7082 0.0
H1749 H 0.57523 0.8064 0.65956 0.0
C1750 C 0.59556 0.77455 0.61373 0.0
C1751 C 0.6052 0.7555 0.59174 0.0
C1752 C 0.58254 0.7663 0.64204 0.0
C1753 C 0.60136 0.72808 0.59874 0.0
C1754 C 0.58856 0.71981 0.62669 0.0
C1755 C 0.56627 0.73038 0.67679 0.0
C1756 C 0.55643 0.74925 0.69891 0.0
C1757 C 0.57913 0.73869 0.64856 0.0
C1758 C 0.55995 0.7767 0.69201 0.0
C1759 C 0.57292 0.7851 0.66403 0.0
H1760 H 0.41454 0.23041 0.97273 0.0
H1761 H 0.45266 0.31021 0.97664 0.0
H1762 H 0.47783 0.30607 0.92633 0.0
H1763 H 0.48995 0.27918 0.88051 0.0
H1764 H 0.44953 0.19996 0.87759 0.0
H1765 H 0.42463 0.2047 0.92731 0.0
C1766 C 0.42853 0.24689 0.96273 0.0
C1767 C 0.43187 0.2705 0.97891 0.0
C1768 C 0.44254 0.24458 0.93344 0.0
C1769 C 0.44974 0.29168 0.96504 0.0
C1770 C 0.46413 0.28936 0.93608 0.0
C1771 C 0.4753 0.26316 0.89056 0.0
C1772 C 0.47184 0.23923 0.87476 0.0
C1773 C 0.46072 0.26589 0.91987 0.0
C1774 C 0.45296 0.21864 0.88877 0.0
C1775 C 0.43861 0.22123 0.91748 0.0
H1776 H 0.04528 0.76107 0.41884 0.0
H1777 H 0.96289 0.75838 0.48199 0.0
H1778 H 0.93078 0.76402 0.44346 0.0
H1779 H 0.92617 0.77312 0.39185 0.0
H1780 H 1.00893 0.77826 0.32959 0.0
H1781 H 0.04065 0.7682 0.36748 0.0
C1782 C 0.02031 0.76175 0.4242 0.0
C1783 C 1.00663 0.75922 0.45331 0.0
C1784 C 1.00192 0.76525 0.40194 0.0
C1785 C 0.97413 0.75987 0.45974 0.0
C1786 C 0.95568 0.76323 0.4377 0.0
C1787 C 0.95102 0.77103 0.38651 0.0
C1788 C 0.96518 0.77566 0.35787 0.0
C1789 C 0.96929 0.76612 0.4087 0.0
C1790 C 0.99754 0.77411 0.3514 0.0
C1791 C 1.01571 0.76868 0.3731 0.0
H1792 H 0.18519 0.92725 0.38332 0.0
H1793 H 0.19736 0.94736 0.29206 0.0
H1794 H 0.14422 0.93288 0.28884 0.0
H1795 H 0.09339 0.91681 0.31276 0.0
H1796 H 0.08142 0.89844 0.40444 0.0
H1797 H 0.13537 0.91025 0.40673 0.0
C1798 C 0.17644 0.92809 0.36258 0.0
C1799 C 0.19527 0.93815 0.3379 0.0
C1800 C 0.14575 0.92039 0.36107 0.0
C1801 C 0.18335 0.93954 0.31134 0.0
C1802 C 0.15294 0.93138 0.30952 0.0
C1803 C 0.10274 0.91512 0.33314 0.0
C1804 C 0.08342 0.9069 0.35843 0.0
C1805 C 0.1338 0.92211 0.33435 0.0
C1806 C 0.09572 0.90509 0.38477 0.0
C1807 C 0.12659 0.91168 0.38607 0.0
H1808 H 0.39241 0.04845 0.79232 0.0
H1809 H 0.35246 0.12633 0.81292 0.0
H1810 H 0.30085 0.10666 0.81846 0.0
H1811 H 0.26783 0.06712 0.82393 0.0
H1812 H 0.30706 0.98844 0.8087 0.0
H1813 H 0.35819 1.00866 0.7938 0.0
C1814 C 0.37238 0.0611 0.79785 0.0
C1815 C 0.37632 0.08879 0.80231 0.0
C1816 C 0.34269 0.04954 0.80181 0.0
C1817 C 0.35014 0.10503 0.809 0.0
C1818 C 0.32058 0.09379 0.81236 0.0
C1819 C 0.28745 0.05442 0.81657 0.0
C1820 C 0.28389 0.02643 0.81743 0.0
C1821 C 0.3167 0.06605 0.80957 0.0
C1822 C 0.30929 1.0101 0.80785 0.0
C1823 C 0.33856 0.02164 0.79981 0.0
H1824 H 0.76614 0.56794 0.75003 0.0
H1825 H 0.72039 0.49083 0.76 0.0
H1826 H 0.67031 0.51285 0.77227 0.0
H1827 H 0.63957 0.5539 0.77221 0.0
H1828 H 0.68606 0.63086 0.76095 0.0
H1829 H 0.73607 0.60889 0.75627 0.0
C1830 C 0.74525 0.55601 0.75586 0.0
C1831 C 0.74668 0.52797 0.75431 0.0
C1832 C 0.71675 0.56874 0.76168 0.0
C1833 C 0.71971 0.51252 0.76164 0.0
C1834 C 0.69111 0.5251 0.76812 0.0
C1835 C 0.6606 0.56593 0.76951 0.0
C1836 C 0.6591 0.59395 0.76647 0.0
C1837 C 0.68931 0.55319 0.76704 0.0
C1838 C 0.6866 0.60921 0.76262 0.0
C1839 C 0.7152 0.59671 0.76022 0.0
H1840 H 0.94157 0.42708 0.26384 0.0
H1841 H 0.94133 0.37644 0.18828 0.0
H1842 H 0.88701 0.38646 0.18694 0.0
H1843 H 0.84079 0.41154 0.20522 0.0
H1844 H 0.84063 0.46331 0.27999 0.0
H1845 H 0.89391 0.45071 0.28379 0.0
C1846 C 0.92957 0.41827 0.24711 0.0
C1847 C 0.94543 0.40109 0.22616 0.0
C1848 C 0.89833 0.42424 0.24636 0.0
C1849 C 0.92954 0.3895 0.20483 0.0
C1850 C 0.89853 0.39531 0.20395 0.0
C1851 C 0.85219 0.41982 0.22264 0.0
C1852 C 0.83677 0.43833 0.2423 0.0
C1853 C 0.88284 0.41285 0.2244 0.0
C1854 C 0.85194 0.44887 0.26469 0.0
C1855 C 0.88247 0.44183 0.26674 0.0
H1856 H 0.28441 0.22784 0.04226 0.0
H1857 H 0.35592 0.24762 0.97187 0.0
H1858 H 0.34172 0.20819 0.94459 0.0
H1859 H 0.31303 0.16478 0.94402 0.0
H1860 H 0.24103 0.14658 1.01506 0.0
H1861 H 0.25152 0.18845 0.03884 0.0
C1862 C 0.29608 0.22407 1.02044 0.0
C1863 C 0.32081 0.2408 1.00886 0.0
C1864 C 0.28823 0.20117 1.00534 0.0
C1865 C 0.33626 0.23541 0.98089 0.0
C1866 C 0.32846 0.21259 0.96553 0.0
C1867 C 0.29919 0.17025 0.96437 0.0
C1868 C 0.27675 0.15207 0.97801 0.0
C1869 C 0.30508 0.19481 0.97797 0.0
C1870 C 0.2591 0.15964 1.00443 0.0
C1871 C 0.26487 0.18376 1.018 0.0
H1872 H 0.84269 0.26278 0.06633 0.0
H1873 H 0.80459 0.28404 0.98861 0.0
H1874 H 0.788 0.32716 1.01021 0.0
H1875 H 0.78934 0.36043 0.04931 0.0
H1876 H 0.82982 0.33918 0.12576 0.0
H1877 H 0.8404 0.29422 0.10651 0.0
C1878 C 0.83024 0.27663 0.0543 0.0
C1879 C 0.82512 0.27042 1.02588 0.0
C1880 C 0.82154 0.30145 0.06649 0.0
C1881 C 0.80877 0.2884 1.01059 0.0
C1882 C 0.79953 0.31314 1.0228 0.0
C1883 C 0.80036 0.34585 0.06171 0.0
C1884 C 0.80895 0.35298 0.08875 0.0
C1885 C 0.80668 0.32016 0.05039 0.0
C1886 C 0.82281 0.33397 0.10495 0.0
C1887 C 0.82897 0.30835 0.09394 0.0
H1888 H 0.67044 0.72017 0.58714 0.0
H1889 H 0.7598 0.75079 0.55056 0.0
H1890 H 0.78492 0.71301 0.57125 0.0
H1891 H 0.78085 0.66869 0.59538 0.0
H1892 H 0.69058 0.63721 0.62931 0.0
H1893 H 0.66649 0.67778 0.61434 0.0
C1894 C 0.69547 0.7192 0.58497 0.0
C1895 C 0.71339 0.73885 0.56854 0.0
C1896 C 0.70954 0.69682 0.59588 0.0
C1897 C 0.7457 0.73656 0.5643 0.0
C1898 C 0.75998 0.71465 0.57563 0.0
C1899 C 0.75593 0.67077 0.59967 0.0
C1900 C 0.73767 0.64978 0.61361 0.0
C1901 C 0.74206 0.69423 0.59074 0.0
C1902 C 0.70537 0.65305 0.61909 0.0
C1903 C 0.69149 0.67626 0.61038 0.0
H1904 H 0.17763 0.77187 0.51111 0.0
H1905 H 0.22903 0.78587 0.58292 0.0
H1906 H 0.24748 0.82896 0.56182 0.0
H1907 H 0.24606 0.86377 0.52446 0.0
H1908 H 0.19224 0.84977 0.45444 0.0
H1909 H 0.17751 0.80537 0.47356 0.0
C1910 C 0.19322 0.7841 0.52203 0.0
C1911 C 0.20198 0.77569 0.5485 0.0
C1912 C 0.20299 0.80894 0.51028 0.0
C1913 C 0.22213 0.79185 0.56237 0.0
C1914 C 0.23247 0.81655 0.55046 0.0
C1915 C 0.2311 0.85093 0.5135 0.0
C1916 C 0.22027 0.85986 0.48813 0.0
C1917 C 0.2225 0.82551 0.52473 0.0
C1918 C 0.20114 0.84309 0.47384 0.0
C1919 C 0.19263 0.8178 0.48478 0.0
H1920 H 1.00064 0.73312 0.85529 0.0
H1921 H 0.91947 0.77897 0.88688 0.0
H1922 H 0.94234 0.79103 0.93061 0.0
H1923 H 0.98481 0.78692 0.96057 0.0
H1924 H 0.06434 0.73897 0.92872 0.0
H1925 H 0.04262 0.72951 0.88427 0.0
C1926 C 0.98795 0.74602 0.87152 0.0
C1927 C 0.95838 0.75524 0.86769 0.0
C1928 C 1.00094 0.75242 0.89664 0.0
C1929 C 0.94236 0.77181 0.88911 0.0
C1930 C 0.95536 0.77855 0.9142 0.0
C1931 C 0.99737 0.77439 0.94392 0.0
C1932 C 0.02638 0.76389 0.94801 0.0
C1933 C 0.98452 0.76869 0.91835 0.0
C1934 C 0.04237 0.74784 0.92603 0.0
C1935 C 0.02985 0.74222 0.90062 0.0
H1936 H 0.49106 0.25743 0.38232 0.0
H1937 H 0.45352 0.33643 0.37466 0.0
H1938 H 0.42858 0.3344 0.42486 0.0
H1939 H 0.41712 0.31049 0.4717 0.0
H1940 H 0.45127 0.23026 0.47874 0.0
H1941 H 0.47762 0.23263 0.42884 0.0
C1942 C 0.47729 0.27414 0.39155 0.0
C1943 C 0.47423 0.297 0.37424 0.0
C1944 C 0.46241 0.27276 0.42075 0.0
C1945 C 0.4562 0.3184 0.38697 0.0
C1946 C 0.44197 0.31737 0.41594 0.0
C1947 C 0.43041 0.29354 0.46241 0.0
C1948 C 0.43226 0.2703 0.47937 0.0
C1949 C 0.44491 0.29471 0.43315 0.0
C1950 C 0.44944 0.24851 0.46652 0.0
C1951 C 0.46454 0.24981 0.4378 0.0
H1952 H 0.60191 0.73948 0.11099 0.0
H1953 H 0.59625 0.82071 0.08016 0.0
H1954 H 0.57261 0.83487 0.12823 0.0
H1955 H 0.55387 0.82482 0.17929 0.0
H1956 H 0.55821 0.74383 0.21087 0.0
H1957 H 0.58183 0.72918 0.16251 0.0
C1958 C 0.59523 0.76023 0.11466 0.0
C1959 C 0.60075 0.77885 0.09155 0.0
C1960 C 0.58149 0.76844 0.14271 0.0
C1961 C 0.59214 0.80573 0.09713 0.0
C1962 C 0.57867 0.81396 0.1248 0.0
C1963 C 0.56004 0.80393 0.17578 0.0
C1964 C 0.5544 0.78555 0.19907 0.0
C1965 C 0.57334 0.79557 0.1478 0.0
C1966 C 0.56236 0.75853 0.19363 0.0
C1967 C 0.57586 0.75011 0.16586 0.0
H1968 H 0.04551 0.29715 0.623 0.0
H1969 H 0.97524 0.23588 0.64414 0.0
H1970 H 0.99776 0.22408 0.68726 0.0
H1971 H 0.03768 0.22976 0.71799 0.0
H1972 H 0.11073 0.28838 0.69671 0.0
H1973 H 0.08676 0.30257 0.65442 0.0
C1974 C 0.03516 0.28118 0.63699 0.0
C1975 C 1.00833 0.26773 0.6304 0.0
C1976 C 0.04867 0.27401 0.66169 0.0
C1977 C 0.99527 0.24714 0.64894 0.0
C1978 C 1.00832 0.24017 0.67354 0.0
C1979 C 0.04843 0.24586 0.70437 0.0
C1980 C 0.07595 0.25813 0.71069 0.0
C1981 C 0.03498 0.2534 0.68004 0.0
C1982 C 0.08943 0.27876 0.69251 0.0
C1983 C 0.0758 0.28675 0.66827 0.0
H1984 H 0.84051 0.11953 0.70973 0.0
H1985 H 0.84439 0.06665 0.7826 0.0
H1986 H 0.89823 0.07978 0.78397 0.0
H1987 H 0.94505 0.10424 0.76254 0.0
H1988 H 0.94089 0.1566 0.68933 0.0
H1989 H 0.88629 0.14536 0.68981 0.0
C1990 C 0.85295 0.11108 0.72617 0.0
C1991 C 0.8384 0.09218 0.74608 0.0
C1992 C 0.88397 0.11836 0.72654 0.0
C1993 C 0.85498 0.08136 0.76712 0.0
C1994 C 0.88582 0.08875 0.76783 0.0
C1995 C 0.93207 0.11348 0.74696 0.0
C1996 C 0.94705 0.13109 0.72581 0.0
C1997 C 0.90066 0.10695 0.74738 0.0
C1998 C 0.93002 0.14264 0.70553 0.0
C1999 C 0.89877 0.13636 0.7059 0.0
H2000 H 0.71496 0.03892 0.2604 0.0
H2001 H 0.77768 0.97261 0.25759 0.0
H2002 H 0.73452 0.94202 0.27391 0.0
H2003 H 0.6785 0.93354 0.27986 0.0
H2004 H 0.61585 1.00042 0.28354 0.0
H2005 H 0.65951 0.03154 0.27589 0.0
C2006 C 0.71917 0.018 0.26484 0.0
C2007 C 0.74914 1.00789 0.25852 0.0
C2008 C 0.69425 1.00061 0.27349 0.0
C2009 C 0.75467 0.98072 0.26323 0.0
C2010 C 0.72997 0.96324 0.27205 0.0
C2011 C 0.67428 0.95494 0.28009 0.0
C2012 C 0.64386 0.96454 0.28156 0.0
C2013 C 0.69953 0.97281 0.27599 0.0
C2014 C 0.63901 0.9924 0.28154 0.0
C2015 C 0.66396 1.01026 0.27737 0.0
H2016 H 0.38958 0.47888 0.29891 0.0
H2017 H 0.34731 0.40275 0.32645 0.0
H2018 H 0.29647 0.42327 0.33296 0.0
H2019 H 0.26501 0.46328 0.3354 0.0
H2020 H 0.30648 0.53961 0.30841 0.0
H2021 H 0.35662 0.51818 0.29544 0.0
C2022 C 0.3692 0.4666 0.30563 0.0
C2023 C 0.37231 0.43941 0.31267 0.0
C2024 C 0.33995 0.47846 0.30907 0.0
C2025 C 0.34565 0.42388 0.32163 0.0
C2026 C 0.31654 0.43551 0.32508 0.0
C2027 C 0.28488 0.47515 0.326 0.0
C2028 C 0.28225 0.50303 0.32331 0.0
C2029 C 0.31357 0.46285 0.31951 0.0
C2030 C 0.30796 0.51815 0.31082 0.0
C2031 C 0.3367 0.50592 0.3037 0.0
H2032 H 0.19997 0.63156 0.8417 0.0
H2033 H 0.18242 0.54914 0.82037 0.0
H2034 H 0.12742 0.55862 0.82117 0.0
H2035 H 0.08428 0.58958 0.83162 0.0
H2036 H 0.10249 0.67323 0.84818 0.0
H2037 H 0.1574 0.66392 0.84598 0.0
C2038 C 0.18407 0.61592 0.83662 0.0
C2039 C 0.19486 0.58986 0.83073 0.0
C2040 C 0.15271 0.62161 0.83674 0.0
C2041 C 0.17441 0.5695 0.82438 0.0
C2042 C 0.14302 0.57485 0.82514 0.0
C2043 C 0.10019 0.606 0.83405 0.0
C2044 C 0.08898 0.63201 0.84052 0.0
C2045 C 0.13188 0.60075 0.83173 0.0
C2046 C 0.11019 0.65282 0.84407 0.0
C2047 C 0.1417 0.64761 0.84252 0.0
H2048 H 0.66847 0.8146 0.09293 0.0
H2049 H 0.75505 0.79182 0.04356 0.0
H2050 H 0.78072 0.83076 0.0626 0.0
H2051 H 0.77646 0.87466 0.088 0.0
H2052 H 0.68904 0.89672 0.13738 0.0
H2053 H 0.66577 0.85504 0.12335 0.0
C2054 C 0.69329 0.81748 0.08754 0.0
C2055 C 0.71015 0.79984 0.06778 0.0
C2056 C 0.7075 0.84038 0.09777 0.0
C2057 C 0.74194 0.80448 0.05973 0.0
C2058 C 0.75643 0.82709 0.07015 0.0
C2059 C 0.75253 0.87015 0.09629 0.0
C2060 C 0.73448 0.88937 0.11329 0.0
C2061 C 0.73918 0.84571 0.08844 0.0
C2062 C 0.70339 0.88293 0.12355 0.0
C2063 C 0.69004 0.85887 0.11578 0.0
H2064 H 0.23709 0.69457 0.97128 0.0
H2065 H 0.22024 0.64666 0.04933 0.0
H2066 H 0.21155 0.68715 0.07873 0.0
H2067 H 0.20286 0.73566 0.08162 0.0
H2068 H 0.21271 0.78262 1.00307 0.0
H2069 H 0.23 0.743 0.97427 0.0
C2070 C 0.23143 0.69296 0.99471 0.0
C2071 C 0.22911 0.66767 1.00807 0.0
C2072 C 0.22528 0.71617 1.01132 0.0
C2073 C 0.22249 0.66594 0.03852 0.0
C2074 C 0.21731 0.68905 0.05535 0.0
C2075 C 0.20978 0.73723 0.0583 0.0
C2076 C 0.20728 0.76178 0.04426 0.0
C2077 C 0.21802 0.71421 0.04191 0.0
C2078 C 0.21508 0.76376 1.01406 0.0
C2079 C 0.22466 0.74116 0.99769 0.0
H2080 H 0.36092 0.31348 0.48172 0.0
H2081 H 0.27535 0.28672 0.53076 0.0
H2082 H 0.24813 0.32421 0.51189 0.0
H2083 H 0.25027 0.36784 0.48616 0.0
H2084 H 0.33717 0.39512 0.439 0.0
H2085 H 0.36213 0.35431 0.45208 0.0
C2086 C 0.33602 0.3151 0.48701 0.0
C2087 C 0.3199 0.29668 0.50662 0.0
C2088 C 0.32091 0.33734 0.47699 0.0
C2089 C 0.28795 0.29988 0.51466 0.0
C2090 C 0.27256 0.3217 0.50436 0.0
C2091 C 0.27461 0.36476 0.47854 0.0
C2092 C 0.2917 0.38473 0.46154 0.0
C2093 C 0.28902 0.3411 0.4863 0.0
C2094 C 0.32321 0.38013 0.45174 0.0
C2095 C 0.33762 0.35678 0.45934 0.0
H2096 H 0.83438 0.27346 0.56827 0.0
H2097 H 0.8205 0.24158 0.48448 0.0
H2098 H 0.8042 0.1985 0.50674 0.0
H2099 H 0.79974 0.16888 0.54899 0.0
H2100 H 0.81182 0.20136 0.63315 0.0
H2101 H 0.82369 0.24531 0.6115 0.0
C2102 C 0.82712 0.25722 0.55504 0.0
C2103 C 0.82853 0.26053 0.52495 0.0
C2104 C 0.81814 0.23258 0.56786 0.0
C2105 C 0.81916 0.2395 0.50785 0.0
C2106 C 0.81019 0.21482 0.52048 0.0
C2107 C 0.80418 0.18568 0.56278 0.0
C2108 C 0.80537 0.18174 0.59255 0.0
C2109 C 0.81039 0.21098 0.55034 0.0
C2110 C 0.81159 0.20369 0.61 0.0
C2111 C 0.8181 0.22888 0.59772 0.0
loop_
_geom_bond_atom_site_label_1
_geom_bond_atom_site_label_2
_geom_bond_distance
_geom_bond_site_symmetry_2
_ccdc_geom_bond_type
Dy0 O3 2.307 . S
Dy0 O5 2.395 . S
Dy0 O6 2.379 . S
Dy0 O8 2.339 . S
Dy0 O10 2.298 . S
Dy0 O14 2.275 . S
Dy0 C22 2.738 . S
Dy1 O4 2.298 . S
Dy1 O7 2.275 . S
Dy1 O9 2.307 . S
Dy1 O11 2.363 1_455 S
Dy1 O12 2.379 . S
Dy1 O15 2.339 . S
Dy1 C31 2.718 1_455 S
C2 O14 1.254 . S
C2 O15 1.257 . S
O3 Dy0 2.307 . S
O3 C13 1.266 . S
O4 Dy1 2.298 . S
O4 C13 1.236 . S
O5 Dy0 2.395 . S
O5 C22 1.255 . S
O6 Dy0 2.379 . S
O6 C22 1.249 . S
O7 Dy1 2.275 . S
O7 C23 1.254 . S
O8 Dy0 2.339 . S
O8 C23 1.257 . S
O9 Dy1 2.307 . S
O9 C24 1.266 . S
O10 Dy0 2.298 . S
O10 C24 1.236 . S
O11 Dy1 2.363 1_655 S
O11 C31 1.255 . S
O12 Dy1 2.379 . S
O12 C31 1.229 1_455 S
C13 O3 1.266 . S
C13 O4 1.236 . S
O14 Dy0 2.275 . S
O14 C2 1.254 . S
O15 Dy1 2.339 . S
O15 C2 1.257 . S
C16 C19 1.344 . S
C16 C20 1.328 . S
C16 C22 1.516 . S
C17 C18 1.304 . S
C17 C21 1.323 . S
C18 C17 1.304 . S
C18 C19 1.371 . S
C18 H32 0.930 . S
C19 C16 1.344 . S
C19 C18 1.371 . S
C19 H33 0.931 . S
C20 C16 1.328 . S
C20 C21 1.433 . S
C20 H34 0.931 . S
C21 C17 1.323 . S
C21 C20 1.433 . S
C21 H35 0.933 . S
C22 Dy0 2.738 . S
C22 O5 1.255 . S
C22 O6 1.249 . S
C22 C16 1.516 . S
C23 O7 1.254 . S
C23 O8 1.257 . S
C24 O9 1.266 . S
C24 O10 1.236 . S
C25 C28 1.344 . S
C25 C29 1.328 . S
C25 C31 1.536 . S
C26 C27 1.304 . S
C26 C30 1.323 . S
C27 C26 1.304 . S
C27 C28 1.371 . S
C27 H36 0.930 . S
C28 C25 1.344 . S
C28 C27 1.371 . S
C28 H37 0.931 . S
C29 C25 1.328 . S
C29 C30 1.433 . S
C29 H38 0.931 . S
C30 C26 1.323 . S
C30 C29 1.433 . S
C30 H39 0.933 . S
C31 Dy1 2.718 1_655 S
C31 O11 1.255 . S
C31 O12 1.229 1_655 S
C31 C25 1.536 . S
H32 C18 0.930 . S
H33 C19 0.931 . S
H34 C20 0.931 . S
H35 C21 0.933 . S
H36 C27 0.930 . S
H37 C28 0.931 . S
H38 C29 0.931 . S
H39 C30 0.933 . S
Dy40 O43 2.307 . S
Dy40 O45 2.395 . S
Dy40 O46 2.379 . S
Dy40 O48 2.339 . S
Dy40 O50 2.298 . S
Dy40 O54 2.275 . S
Dy40 C62 2.738 . S
Dy41 O44 2.298 . S
Dy41 O47 2.275 . S
Dy41 O49 2.307 . S
Dy41 O51 2.395 . S
Dy41 O52 2.379 . S
Dy41 O55 2.339 . S
Dy41 C71 2.738 . S
C42 O54 1.254 . S
C42 O55 1.257 . S
O43 Dy40 2.307 . S
O43 C53 1.266 . S
O44 Dy41 2.298 . S
O44 C53 1.236 . S
O45 Dy40 2.395 . S
O45 C62 1.255 . S
O46 Dy40 2.379 . S
O46 C62 1.249 . S
O47 Dy41 2.275 . S
O47 C63 1.254 . S
O48 Dy40 2.339 . S
O48 C63 1.257 . S
O49 Dy41 2.307 . S
O49 C64 1.266 . S
O50 Dy40 2.298 . S
O50 C64 1.236 . S
O51 Dy41 2.395 . S
O51 C71 1.255 . S
O52 Dy41 2.379 . S
O52 C71 1.249 . S
C53 O43 1.266 . S
C53 O44 1.236 . S
O54 Dy40 2.275 . S
O54 C42 1.254 . S
O55 Dy41 2.339 . S
O55 C42 1.257 . S
C56 C59 1.344 . S
C56 C60 1.328 . S
C56 C62 1.516 . S
C57 C58 1.304 . S
C57 C61 1.323 . S
C58 C57 1.304 . S
C58 C59 1.371 . S
C58 H72 0.930 . S
C59 C56 1.344 . S
C59 C58 1.371 . S
C59 H73 0.931 . S
C60 C56 1.328 . S
C60 C61 1.433 . S
C60 H74 0.931 . S
C61 C57 1.323 . S
C61 C60 1.433 . S
C61 H75 0.933 . S
C62 Dy40 2.738 . S
C62 O45 1.255 . S
C62 O46 1.249 . S
C62 C56 1.516 . S
C63 O47 1.254 . S
C63 O48 1.257 . S
C64 O49 1.266 . S
C64 O50 1.236 . S
C65 C68 1.344 . S
C65 C69 1.328 . S
C65 C71 1.516 . S
C66 C67 1.304 . S
C66 C70 1.323 . S
C67 C66 1.304 . S
C67 C68 1.371 . S
C67 H76 0.930 . S
C68 C65 1.344 . S
C68 C67 1.371 . S
C68 H77 0.931 . S
C69 C65 1.328 . S
C69 C70 1.433 . S
C69 H78 0.931 . S
C70 C66 1.323 . S
C70 C69 1.433 . S
C70 H79 0.933 . S
C71 Dy41 2.738 . S
C71 O51 1.255 . S
C71 O52 1.249 . S
C71 C65 1.516 . S
H72 C58 0.930 . S
H73 C59 0.931 . S
H74 C60 0.931 . S
H75 C61 0.933 . S
H76 C67 0.930 . S
H77 C68 0.931 . S
H78 C69 0.931 . S
H79 C70 0.933 . S
Dy80 O83 2.307 . S
Dy80 O85 2.395 . S
Dy80 O86 2.379 . S
Dy80 O88 2.339 . S
Dy80 O90 2.298 . S
Dy80 O94 2.275 . S
Dy80 C102 2.738 . S
Dy81 O84 2.298 . S
Dy81 O87 2.275 . S
Dy81 O89 2.307 . S
Dy81 O91 2.395 . S
Dy81 O92 2.379 . S
Dy81 O95 2.339 . S
Dy81 C111 2.738 . S
C82 O94 1.254 . S
C82 O95 1.257 . S
O83 Dy80 2.307 . S
O83 C93 1.266 . S
O84 Dy81 2.298 . S
O84 C93 1.236 . S
O85 Dy80 2.395 . S
O85 C102 1.255 . S
O86 Dy80 2.379 . S
O86 C102 1.249 . S
O87 Dy81 2.275 . S
O87 C103 1.254 . S
O88 Dy80 2.339 . S
O88 C103 1.257 . S
O89 Dy81 2.307 . S
O89 C104 1.266 . S
O90 Dy80 2.298 . S
O90 C104 1.236 . S
O91 Dy81 2.395 . S
O91 C111 1.255 . S
O92 Dy81 2.379 . S
O92 C111 1.249 . S
C93 O83 1.266 . S
C93 O84 1.236 . S
O94 Dy80 2.275 . S
O94 C82 1.254 . S
O95 Dy81 2.339 . S
O95 C82 1.257 . S
C96 C99 1.344 . S
C96 C100 1.328 . S
C96 C102 1.516 . S
C97 C98 1.304 . S
C97 C101 1.323 . S
C98 C97 1.304 . S
C98 C99 1.371 . S
C98 H112 0.930 . S
C99 C96 1.344 . S
C99 C98 1.371 . S
C99 H113 0.931 . S
C100 C96 1.328 . S
C100 C101 1.433 . S
C100 H114 0.931 . S
C101 C97 1.323 . S
C101 C100 1.433 . S
C101 H115 0.933 . S
C102 Dy80 2.738 . S
C102 O85 1.255 . S
C102 O86 1.249 . S
C102 C96 1.516 . S
C103 O87 1.254 . S
C103 O88 1.257 . S
C104 O89 1.266 . S
C104 O90 1.236 . S
C105 C108 1.344 . S
C105 C109 1.328 . S
C105 C111 1.516 . S
C106 C107 1.304 . S
C106 C110 1.323 . S
C107 C106 1.304 . S
C107 C108 1.371 . S
C107 H116 0.930 . S
C108 C105 1.344 . S
C108 C107 1.371 . S
C108 H117 0.931 . S
C109 C105 1.328 . S
C109 C110 1.433 . S
C109 H118 0.931 . S
C110 C106 1.323 . S
C110 C109 1.433 . S
C110 H119 0.933 . S
C111 Dy81 2.738 . S
C111 O91 1.255 . S
C111 O92 1.249 . S
C111 C105 1.516 . S
H112 C98 0.930 . S
H113 C99 0.931 . S
H114 C100 0.931 . S
H115 C101 0.933 . S
H116 C107 0.930 . S
H117 C108 0.931 . S
H118 C109 0.931 . S
H119 C110 0.933 . S
Dy120 O123 2.307 . S
Dy120 O125 2.395 . S
Dy120 O126 2.379 . S
Dy120 O128 2.339 . S
Dy120 O130 2.298 . S
Dy120 O134 2.275 . S
Dy120 C142 2.738 . S
Dy121 O124 2.298 . S
Dy121 O127 2.275 . S
Dy121 O129 2.307 . S
Dy121 O131 2.394 1_655 S
Dy121 O132 2.379 . S
Dy121 O135 2.339 . S
Dy121 C151 2.738 . S
C122 O134 1.254 . S
C122 O135 1.257 . S
O123 Dy120 2.307 . S
O123 C133 1.266 . S
O124 Dy121 2.298 . S
O124 C133 1.236 . S
O125 Dy120 2.395 . S
O125 C142 1.255 . S
O126 Dy120 2.379 . S
O126 C142 1.249 . S
O127 Dy121 2.275 . S
O127 C143 1.254 . S
O128 Dy120 2.339 . S
O128 C143 1.257 . S
O129 Dy121 2.307 . S
O129 C144 1.266 . S
O130 Dy120 2.298 . S
O130 C144 1.236 . S
O131 Dy121 2.394 1_455 S
O131 C151 1.255 1_455 S
O132 Dy121 2.379 . S
O132 C151 1.249 . S
C133 O123 1.266 . S
C133 O124 1.236 . S
O134 Dy120 2.275 . S
O134 C122 1.254 . S
O135 Dy121 2.339 . S
O135 C122 1.257 . S
C136 C139 1.344 . S
C136 C140 1.328 . S
C136 C142 1.516 . S
C137 C138 1.304 . S
C137 C141 1.323 . S
C138 C137 1.304 . S
C138 C139 1.371 . S
C138 H152 0.930 . S
C139 C136 1.344 . S
C139 C138 1.371 . S
C139 H153 0.931 . S
C140 C136 1.328 . S
C140 C141 1.433 . S
C140 H154 0.931 . S
C141 C137 1.323 . S
C141 C140 1.433 . S
C141 H155 0.933 . S
C142 Dy120 2.738 . S
C142 O125 1.255 . S
C142 O126 1.249 . S
C142 C136 1.516 . S
C143 O127 1.254 . S
C143 O128 1.257 . S
C144 O129 1.266 . S
C144 O130 1.236 . S
C145 C148 1.344 . S
C145 C149 1.328 . S
C145 C151 1.516 1_455 S
C146 C147 1.304 . S
C146 C150 1.323 . S
C147 C146 1.304 . S
C147 C148 1.371 . S
C147 H156 0.930 . S
C148 C145 1.344 . S
C148 C147 1.371 . S
C148 H157 0.931 . S
C149 C145 1.328 . S
C149 C150 1.433 . S
C149 H158 0.931 . S
C150 C146 1.323 . S
C150 C149 1.433 . S
C150 H159 0.933 . S
C151 Dy121 2.738 . S
C151 O131 1.255 1_655 S
C151 O132 1.249 . S
C151 C145 1.516 1_655 S
H152 C138 0.930 . S
H153 C139 0.931 . S
H154 C140 0.931 . S
H155 C141 0.933 . S
H156 C147 0.930 . S
H157 C148 0.931 . S
H158 C149 0.931 . S
H159 C150 0.933 . S
Dy160 O163 2.307 1_545 S
Dy160 O165 2.395 . S
Dy160 O166 2.379 . S
Dy160 O168 2.339 1_545 S
Dy160 O170 2.298 . S
Dy160 O174 2.275 . S
Dy160 C182 2.738 . S
Dy161 O164 2.298 . S
Dy161 O167 2.275 . S
Dy161 O169 2.307 1_565 S
Dy161 O171 2.395 . S
Dy161 O172 2.379 . S
Dy161 O175 2.339 1_565 S
Dy161 C191 2.738 . S
C162 O174 1.254 . S
C162 O175 1.257 . S
O163 Dy160 2.307 1_565 S
O163 C173 1.266 . S
O164 Dy161 2.298 . S
O164 C173 1.236 . S
O165 Dy160 2.395 . S
O165 C182 1.255 . S
O166 Dy160 2.379 . S
O166 C182 1.249 . S
O167 Dy161 2.275 . S
O167 C183 1.254 . S
O168 Dy160 2.339 1_565 S
O168 C183 1.257 . S
O169 Dy161 2.307 1_545 S
O169 C184 1.266 . S
O170 Dy160 2.298 . S
O170 C184 1.236 . S
O171 Dy161 2.395 . S
O171 C191 1.255 . S
O172 Dy161 2.379 . S
O172 C191 1.249 . S
C173 O163 1.266 . S
C173 O164 1.236 . S
O174 Dy160 2.275 . S
O174 C162 1.254 . S
O175 Dy161 2.339 1_545 S
O175 C162 1.257 . S
C176 C179 1.344 . S
C176 C180 1.328 . S
C176 C182 1.516 . S
C177 C178 1.304 . S
C177 C181 1.323 . S
C178 C177 1.304 . S
C178 C179 1.371 . S
C178 H192 0.930 . S
C179 C176 1.344 . S
C179 C178 1.371 . S
C179 H193 0.931 . S
C180 C176 1.328 . S
C180 C181 1.433 . S
C180 H194 0.931 . S
C181 C177 1.323 . S
C181 C180 1.433 . S
C181 H195 0.933 . S
C182 Dy160 2.738 . S
C182 O165 1.255 . S
C182 O166 1.249 . S
C182 C176 1.516 . S
C183 O167 1.254 . S
C183 O168 1.257 . S
C184 O169 1.266 . S
C184 O170 1.236 . S
C185 C188 1.344 . S
C185 C189 1.328 . S
C185 C191 1.516 . S
C186 C187 1.304 . S
C186 C190 1.323 . S
C187 C186 1.304 . S
C187 C188 1.371 . S
C187 H196 0.930 . S
C188 C185 1.344 . S
C188 C187 1.371 . S
C188 H197 0.931 . S
C189 C185 1.328 . S
C189 C190 1.433 . S
C189 H198 0.931 . S
C190 C186 1.323 . S
C190 C189 1.433 . S
C190 H199 0.933 . S
C191 Dy161 2.738 . S
C191 O171 1.255 . S
C191 O172 1.249 . S
C191 C185 1.516 . S
H192 C178 0.930 . S
H193 C179 0.931 . S
H194 C180 0.931 . S
H195 C181 0.933 . S
H196 C187 0.930 . S
H197 C188 0.931 . S
H198 C189 0.931 . S
H199 C190 0.933 . S
Dy200 O203 2.307 1_565 S
Dy200 O205 2.395 . S
Dy200 O206 2.379 . S
Dy200 O208 2.339 1_565 S
Dy200 O210 2.298 . S
Dy200 O214 2.275 . S
Dy200 C222 2.738 . S
Dy201 O204 2.298 . S
Dy201 O207 2.275 . S
Dy201 O209 2.307 1_545 S
Dy201 O211 2.395 . S
Dy201 O212 2.379 . S
Dy201 O215 2.339 1_545 S
Dy201 C231 2.738 . S
C202 O214 1.254 . S
C202 O215 1.257 . S
O203 Dy200 2.307 1_545 S
O203 C213 1.266 . S
O204 Dy201 2.298 . S
O204 C213 1.236 . S
O205 Dy200 2.395 . S
O205 C222 1.255 . S
O206 Dy200 2.379 . S
O206 C222 1.249 . S
O207 Dy201 2.275 . S
O207 C223 1.254 . S
O208 Dy200 2.339 1_545 S
O208 C223 1.257 . S
O209 Dy201 2.307 1_565 S
O209 C224 1.266 . S
O210 Dy200 2.298 . S
O210 C224 1.236 . S
O211 Dy201 2.395 . S
O211 C231 1.255 . S
O212 Dy201 2.379 . S
O212 C231 1.249 . S
C213 O203 1.266 . S
C213 O204 1.236 . S
O214 Dy200 2.275 . S
O214 C202 1.254 . S
O215 Dy201 2.339 1_565 S
O215 C202 1.257 . S
C216 C219 1.344 . S
C216 C220 1.328 . S
C216 C222 1.516 . S
C217 C218 1.304 . S
C217 C221 1.323 . S
C218 C217 1.304 . S
C218 C219 1.371 . S
C218 H232 0.930 . S
C219 C216 1.344 . S
C219 C218 1.371 . S
C219 H233 0.931 . S
C220 C216 1.328 . S
C220 C221 1.433 . S
C220 H234 0.931 . S
C221 C217 1.323 . S
C221 C220 1.433 . S
C221 H235 0.933 . S
C222 Dy200 2.738 . S
C222 O205 1.255 . S
C222 O206 1.249 . S
C222 C216 1.516 . S
C223 O207 1.254 . S
C223 O208 1.257 . S
C224 O209 1.266 . S
C224 O210 1.236 . S
C225 C228 1.344 . S
C225 C229 1.328 . S
C225 C231 1.516 . S
C226 C227 1.304 . S
C226 C230 1.323 . S
C227 C226 1.304 . S
C227 C228 1.371 . S
C227 H236 0.930 . S
C228 C225 1.344 . S
C228 C227 1.371 . S
C228 H237 0.931 . S
C229 C225 1.328 . S
C229 C230 1.433 . S
C229 H238 0.931 . S
C230 C226 1.323 . S
C230 C229 1.433 . S
C230 H239 0.933 . S
C231 Dy201 2.738 . S
C231 O211 1.255 . S
C231 O212 1.249 . S
C231 C225 1.516 . S
H232 C218 0.930 . S
H233 C219 0.931 . S
H234 C220 0.931 . S
H235 C221 0.933 . S
H236 C227 0.930 . S
H237 C228 0.931 . S
H238 C229 0.931 . S
H239 C230 0.933 . S
Dy240 O243 2.307 . S
Dy240 O245 2.395 . S
Dy240 O246 2.379 . S
Dy240 O248 2.339 . S
Dy240 O250 2.298 . S
Dy240 O254 2.275 . S
Dy240 C262 2.738 . S
Dy241 O244 2.298 . S
Dy241 O247 2.275 . S
Dy241 O249 2.307 . S
Dy241 O251 2.395 . S
Dy241 O252 2.379 . S
Dy241 O255 2.339 . S
Dy241 C271 2.738 . S
C242 O254 1.254 . S
C242 O255 1.257 . S
O243 Dy240 2.307 . S
O243 C253 1.266 . S
O244 Dy241 2.298 . S
O244 C253 1.236 . S
O245 Dy240 2.395 . S
O245 C262 1.255 . S
O246 Dy240 2.379 . S
O246 C262 1.249 . S
O247 Dy241 2.275 . S
O247 C263 1.254 . S
O248 Dy240 2.339 . S
O248 C263 1.257 . S
O249 Dy241 2.307 . S
O249 C264 1.266 . S
O250 Dy240 2.298 . S
O250 C264 1.236 . S
O251 Dy241 2.395 . S
O251 C271 1.255 . S
O252 Dy241 2.379 . S
O252 C271 1.249 . S
C253 O243 1.266 . S
C253 O244 1.236 . S
O254 Dy240 2.275 . S
O254 C242 1.254 . S
O255 Dy241 2.339 . S
O255 C242 1.257 . S
C256 C259 1.344 . S
C256 C260 1.328 . S
C256 C262 1.516 . S
C257 C258 1.304 . S
C257 C261 1.323 . S
C258 C257 1.304 . S
C258 C259 1.371 . S
C258 H272 0.930 . S
C259 C256 1.344 . S
C259 C258 1.371 . S
C259 H273 0.931 . S
C260 C256 1.328 . S
C260 C261 1.433 . S
C260 H274 0.931 . S
C261 C257 1.323 . S
C261 C260 1.433 . S
C261 H275 0.933 . S
C262 Dy240 2.738 . S
C262 O245 1.255 . S
C262 O246 1.249 . S
C262 C256 1.516 . S
C263 O247 1.254 . S
C263 O248 1.257 . S
C264 O249 1.266 . S
C264 O250 1.236 . S
C265 C268 1.344 . S
C265 C269 1.328 . S
C265 C271 1.516 . S
C266 C267 1.304 . S
C266 C270 1.323 . S
C267 C266 1.304 . S
C267 C268 1.371 . S
C267 H276 0.930 . S
C268 C265 1.344 . S
C268 C267 1.371 . S
C268 H277 0.931 . S
C269 C265 1.328 . S
C269 C270 1.433 . S
C269 H278 0.931 . S
C270 C266 1.323 . S
C270 C269 1.433 . S
C270 H279 0.933 . S
C271 Dy241 2.738 . S
C271 O251 1.255 . S
C271 O252 1.249 . S
C271 C265 1.516 . S
H272 C258 0.930 . S
H273 C259 0.931 . S
H274 C260 0.931 . S
H275 C261 0.933 . S
H276 C267 0.930 . S
H277 C268 0.931 . S
H278 C269 0.931 . S
H279 C270 0.933 . S
Dy280 O283 2.307 . S
Dy280 O285 2.395 . S
Dy280 O286 2.379 . S
Dy280 O288 2.339 . S
Dy280 O290 2.298 . S
Dy280 O294 2.275 . S
Dy280 C302 2.738 . S
Dy281 O284 2.298 . S
Dy281 O287 2.275 . S
Dy281 O289 2.307 . S
Dy281 O291 2.395 . S
Dy281 O292 2.379 . S
Dy281 O295 2.339 . S
Dy281 C311 2.738 . S
C282 O294 1.254 . S
C282 O295 1.257 . S
O283 Dy280 2.307 . S
O283 C293 1.266 . S
O284 Dy281 2.298 . S
O284 C293 1.236 . S
O285 Dy280 2.395 . S
O285 C302 1.255 . S
O286 Dy280 2.379 . S
O286 C302 1.249 . S
O287 Dy281 2.275 . S
O287 C303 1.254 . S
O288 Dy280 2.339 . S
O288 C303 1.257 . S
O289 Dy281 2.307 . S
O289 C304 1.266 . S
O290 Dy280 2.298 . S
O290 C304 1.236 . S
O291 Dy281 2.395 . S
O291 C311 1.255 . S
O292 Dy281 2.379 . S
O292 C311 1.249 . S
C293 O283 1.266 . S
C293 O284 1.236 . S
O294 Dy280 2.275 . S
O294 C282 1.254 . S
O295 Dy281 2.339 . S
O295 C282 1.257 . S
C296 C299 1.344 . S
C296 C300 1.328 . S
C296 C302 1.516 . S
C297 C298 1.304 . S
C297 C301 1.323 . S
C298 C297 1.304 . S
C298 C299 1.371 . S
C298 H312 0.930 . S
C299 C296 1.344 . S
C299 C298 1.371 . S
C299 H313 0.931 . S
C300 C296 1.328 . S
C300 C301 1.433 . S
C300 H314 0.931 . S
C301 C297 1.323 . S
C301 C300 1.433 . S
C301 H315 0.933 . S
C302 Dy280 2.738 . S
C302 O285 1.255 . S
C302 O286 1.249 . S
C302 C296 1.516 . S
C303 O287 1.254 . S
C303 O288 1.257 . S
C304 O289 1.266 . S
C304 O290 1.236 . S
C305 C308 1.344 . S
C305 C309 1.328 . S
C305 C311 1.516 . S
C306 C307 1.304 . S
C306 C310 1.323 . S
C307 C306 1.304 . S
C307 C308 1.371 . S
C307 H316 0.930 . S
C308 C305 1.344 . S
C308 C307 1.371 . S
C308 H317 0.931 . S
C309 C305 1.328 . S
C309 C310 1.433 . S
C309 H318 0.931 . S
C310 C306 1.323 . S
C310 C309 1.433 . S
C310 H319 0.933 . S
C311 Dy281 2.738 . S
C311 O291 1.255 . S
C311 O292 1.249 . S
C311 C305 1.516 . S
H312 C298 0.930 . S
H313 C299 0.931 . S
H314 C300 0.931 . S
H315 C301 0.933 . S
H316 C307 0.930 . S
H317 C308 0.931 . S
H318 C309 0.931 . S
H319 C310 0.933 . S
Dy320 O323 2.307 . S
Dy320 O325 2.395 1_554 S
Dy320 O326 2.379 1_554 S
Dy320 O328 2.339 . S
Dy320 O330 2.298 1_554 S
Dy320 O334 2.275 1_554 S
Dy320 C342 2.738 1_554 S
Dy321 O324 2.298 . S
Dy321 O327 2.275 . S
Dy321 O329 2.307 1_554 S
Dy321 O331 2.395 . S
Dy321 O332 2.379 . S
Dy321 O335 2.339 1_554 S
Dy321 C351 2.738 . S
C322 O334 1.254 . S
C322 O335 1.257 . S
O323 Dy320 2.307 . S
O323 C333 1.266 . S
O324 Dy321 2.298 . S
O324 C333 1.236 . S
O325 Dy320 2.395 1_556 S
O325 C342 1.255 . S
O326 Dy320 2.379 1_556 S
O326 C342 1.249 . S
O327 Dy321 2.275 . S
O327 C343 1.254 . S
O328 Dy320 2.339 . S
O328 C343 1.257 . S
O329 Dy321 2.307 1_556 S
O329 C344 1.266 . S
O330 Dy320 2.298 1_556 S
O330 C344 1.236 . S
O331 Dy321 2.395 . S
O331 C351 1.255 . S
O332 Dy321 2.379 . S
O332 C351 1.249 . S
C333 O323 1.266 . S
C333 O324 1.236 . S
O334 Dy320 2.275 1_556 S
O334 C322 1.254 . S
O335 Dy321 2.339 1_556 S
O335 C322 1.257 . S
C336 C339 1.344 . S
C336 C340 1.328 . S
C336 C342 1.516 . S
C337 C338 1.304 . S
C337 C341 1.323 . S
C338 C337 1.304 . S
C338 C339 1.371 . S
C338 H352 0.930 . S
C339 C336 1.344 . S
C339 C338 1.371 . S
C339 H353 0.931 . S
C340 C336 1.328 . S
C340 C341 1.433 . S
C340 H354 0.931 . S
C341 C337 1.323 . S
C341 C340 1.433 . S
C341 H355 0.933 . S
C342 Dy320 2.738 1_556 S
C342 O325 1.255 . S
C342 O326 1.249 . S
C342 C336 1.516 . S
C343 O327 1.254 . S
C343 O328 1.257 . S
C344 O329 1.266 . S
C344 O330 1.236 . S
C345 C348 1.344 . S
C345 C349 1.328 . S
C345 C351 1.516 . S
C346 C347 1.304 . S
C346 C350 1.323 . S
C347 C346 1.304 . S
C347 C348 1.371 . S
C347 H356 0.930 . S
C348 C345 1.344 . S
C348 C347 1.371 . S
C348 H357 0.931 . S
C349 C345 1.328 . S
C349 C350 1.433 . S
C349 H358 0.931 . S
C350 C346 1.323 . S
C350 C349 1.433 . S
C350 H359 0.933 . S
C351 Dy321 2.738 . S
C351 O331 1.255 . S
C351 O332 1.249 . S
C351 C345 1.516 . S
H352 C338 0.930 . S
H353 C339 0.931 . S
H354 C340 0.931 . S
H355 C341 0.933 . S
H356 C347 0.930 . S
H357 C348 0.931 . S
H358 C349 0.931 . S
H359 C350 0.933 . S
Dy360 O363 2.307 . S
Dy360 O365 2.395 . S
Dy360 O366 2.379 . S
Dy360 O368 2.339 . S
Dy360 O370 2.298 . S
Dy360 O374 2.275 . S
Dy360 C382 2.738 . S
Dy361 O364 2.298 . S
Dy361 O367 2.275 . S
Dy361 O369 2.307 . S
Dy361 O371 2.434 . S
Dy361 O372 2.379 . S
Dy361 O375 2.339 . S
Dy361 C391 2.738 . S
C362 O374 1.254 . S
C362 O375 1.257 . S
O363 Dy360 2.307 . S
O363 C373 1.266 . S
O364 Dy361 2.298 . S
O364 C373 1.236 . S
O365 Dy360 2.395 . S
O365 C382 1.255 . S
O366 Dy360 2.379 . S
O366 C382 1.249 . S
O367 Dy361 2.275 . S
O367 C383 1.254 . S
O368 Dy360 2.339 . S
O368 C383 1.257 . S
O369 Dy361 2.307 . S
O369 C384 1.266 . S
O370 Dy360 2.298 . S
O370 C384 1.236 . S
O371 Dy361 2.434 . S
O371 C391 1.259 . S
O372 Dy361 2.379 . S
O372 C391 1.249 . S
C373 O363 1.266 . S
C373 O364 1.236 . S
O374 Dy360 2.275 . S
O374 C362 1.254 . S
O375 Dy361 2.339 . S
O375 C362 1.257 . S
C376 C379 1.344 . S
C376 C380 1.328 . S
C376 C382 1.516 . S
C377 C378 1.304 . S
C377 C381 1.323 . S
C378 C377 1.304 . S
C378 C379 1.371 . S
C378 H392 0.930 . S
C379 C376 1.344 . S
C379 C378 1.371 . S
C379 H393 0.931 . S
C380 C376 1.328 . S
C380 C381 1.433 . S
C380 H394 0.931 . S
C381 C377 1.323 . S
C381 C380 1.433 . S
C381 H395 0.933 . S
C382 Dy360 2.738 . S
C382 O365 1.255 . S
C382 O366 1.249 . S
C382 C376 1.516 . S
C383 O367 1.254 . S
C383 O368 1.257 . S
C384 O369 1.266 . S
C384 O370 1.236 . S
C385 C388 1.344 . S
C385 C389 1.328 . S
C385 C391 1.516 1_554 S
C386 C387 1.304 . S
C386 C390 1.323 . S
C387 C386 1.304 . S
C387 C388 1.371 . S
C387 H396 0.930 . S
C388 C385 1.344 . S
C388 C387 1.371 . S
C388 H397 0.931 . S
C389 C385 1.328 . S
C389 C390 1.433 . S
C389 H398 0.931 1_554 S
C390 C386 1.323 . S
C390 C389 1.433 . S
C390 H399 0.933 1_655 S
C391 Dy361 2.738 . S
C391 O371 1.259 . S
C391 O372 1.249 . S
C391 C385 1.516 1_556 S
H392 C378 0.930 . S
H393 C379 0.931 . S
H394 C380 0.931 . S
H395 C381 0.933 . S
H396 C387 0.930 . S
H397 C388 0.931 . S
H398 C389 0.931 1_556 S
H399 C390 0.933 1_455 S
Dy400 O403 2.307 . S
Dy400 O405 2.395 . S
Dy400 O406 2.379 . S
Dy400 O408 2.339 . S
Dy400 O410 2.298 . S
Dy400 O414 2.275 . S
Dy400 C422 2.738 . S
Dy401 O404 2.298 . S
Dy401 O407 2.275 . S
Dy401 O409 2.307 . S
Dy401 O411 2.395 . S
Dy401 O412 2.379 . S
Dy401 O415 2.339 . S
Dy401 C431 2.738 . S
C402 O414 1.254 . S
C402 O415 1.257 . S
O403 Dy400 2.307 . S
O403 C413 1.266 . S
O404 Dy401 2.298 . S
O404 C413 1.236 . S
O405 Dy400 2.395 . S
O405 C422 1.255 . S
O406 Dy400 2.379 . S
O406 C422 1.249 . S
O407 Dy401 2.275 . S
O407 C423 1.254 . S
O408 Dy400 2.339 . S
O408 C423 1.257 . S
O409 Dy401 2.307 . S
O409 C424 1.266 . S
O410 Dy400 2.298 . S
O410 C424 1.236 . S
O411 Dy401 2.395 . S
O411 C431 1.255 . S
O412 Dy401 2.379 . S
O412 C431 1.249 . S
C413 O403 1.266 . S
C413 O404 1.236 . S
O414 Dy400 2.275 . S
O414 C402 1.254 . S
O415 Dy401 2.339 . S
O415 C402 1.257 . S
C416 C419 1.344 . S
C416 C420 1.328 . S
C416 C422 1.516 . S
C417 C418 1.304 . S
C417 C421 1.323 . S
C418 C417 1.304 . S
C418 C419 1.371 . S
C418 H432 0.930 . S
C419 C416 1.344 . S
C419 C418 1.371 . S
C419 H433 0.931 . S
C420 C416 1.328 . S
C420 C421 1.433 . S
C420 H434 0.931 . S
C421 C417 1.323 . S
C421 C420 1.433 . S
C421 H435 0.933 . S
C422 Dy400 2.738 . S
C422 O405 1.255 . S
C422 O406 1.249 . S
C422 C416 1.516 . S
C423 O407 1.254 . S
C423 O408 1.257 . S
C424 O409 1.266 . S
C424 O410 1.236 . S
C425 C428 1.344 . S
C425 C429 1.328 . S
C425 C431 1.516 . S
C426 C427 1.304 . S
C426 C430 1.323 . S
C427 C426 1.304 . S
C427 C428 1.371 . S
C427 H436 0.930 . S
C428 C425 1.344 . S
C428 C427 1.371 . S
C428 H437 0.931 . S
C429 C425 1.328 . S
C429 C430 1.433 . S
C429 H438 0.931 . S
C430 C426 1.323 . S
C430 C429 1.433 . S
C430 H439 0.933 . S
C431 Dy401 2.738 . S
C431 O411 1.255 . S
C431 O412 1.249 . S
C431 C425 1.516 . S
H432 C418 0.930 . S
H433 C419 0.931 . S
H434 C420 0.931 . S
H435 C421 0.933 . S
H436 C427 0.930 . S
H437 C428 0.931 . S
H438 C429 0.931 . S
H439 C430 0.933 . S
Dy440 O443 2.307 . S
Dy440 O445 2.395 . S
Dy440 O446 2.379 . S
Dy440 O448 2.339 . S
Dy440 O450 2.298 . S
Dy440 O454 2.275 . S
Dy440 C462 2.738 . S
Dy441 O444 2.298 . S
Dy441 O447 2.275 . S
Dy441 O449 2.307 . S
Dy441 O451 2.395 . S
Dy441 O452 2.379 . S
Dy441 O455 2.339 . S
Dy441 C471 2.738 . S
C442 O454 1.254 . S
C442 O455 1.257 . S
O443 Dy440 2.307 . S
O443 C453 1.266 . S
O444 Dy441 2.298 . S
O444 C453 1.236 . S
O445 Dy440 2.395 . S
O445 C462 1.255 . S
O446 Dy440 2.379 . S
O446 C462 1.249 . S
O447 Dy441 2.275 . S
O447 C463 1.254 . S
O448 Dy440 2.339 . S
O448 C463 1.257 . S
O449 Dy441 2.307 . S
O449 C464 1.266 . S
O450 Dy440 2.298 . S
O450 C464 1.236 . S
O451 Dy441 2.395 . S
O451 C471 1.255 . S
O452 Dy441 2.379 . S
O452 C471 1.249 . S
C453 O443 1.266 . S
C453 O444 1.236 . S
O454 Dy440 2.275 . S
O454 C442 1.254 . S
O455 Dy441 2.339 . S
O455 C442 1.257 . S
C456 C459 1.344 . S
C456 C460 1.328 . S
C456 C462 1.516 . S
C457 C458 1.304 . S
C457 C461 1.323 . S
C458 C457 1.304 . S
C458 C459 1.371 . S
C458 H472 0.930 . S
C459 C456 1.344 . S
C459 C458 1.371 . S
C459 H473 0.931 . S
C460 C456 1.328 . S
C460 C461 1.433 . S
C460 H474 0.931 . S
C461 C457 1.323 . S
C461 C460 1.433 . S
C461 H475 0.933 . S
C462 Dy440 2.738 . S
C462 O445 1.255 . S
C462 O446 1.249 . S
C462 C456 1.516 . S
C463 O447 1.254 . S
C463 O448 1.257 . S
C464 O449 1.266 . S
C464 O450 1.236 . S
C465 C468 1.344 . S
C465 C469 1.328 . S
C465 C471 1.516 . S
C466 C467 1.304 . S
C466 C470 1.323 . S
C467 C466 1.304 . S
C467 C468 1.371 . S
C467 H476 0.930 . S
C468 C465 1.344 . S
C468 C467 1.371 . S
C468 H477 0.931 . S
C469 C465 1.328 . S
C469 C470 1.433 . S
C469 H478 0.931 . S
C470 C466 1.323 . S
C470 C469 1.433 . S
C470 H479 0.966 . S
C471 Dy441 2.738 . S
C471 O451 1.255 . S
C471 O452 1.249 . S
C471 C465 1.516 . S
H472 C458 0.930 . S
H473 C459 0.931 . S
H474 C460 0.931 . S
H475 C461 0.933 . S
H476 C467 0.930 . S
H477 C468 0.931 . S
H478 C469 0.931 . S
H479 C470 0.966 . S
Dy480 O483 2.307 . S
Dy480 O485 2.363 1_655 S
Dy480 O486 2.379 . S
Dy480 O488 2.339 . S
Dy480 O490 2.298 . S
Dy480 O494 2.275 . S
Dy480 C502 2.718 1_655 S
Dy481 O484 2.298 . S
Dy481 O487 2.275 . S
Dy481 O489 2.307 . S
Dy481 O491 2.395 . S
Dy481 O492 2.379 . S
Dy481 O495 2.339 . S
Dy481 C511 2.738 . S
C482 O494 1.254 . S
C482 O495 1.257 . S
O483 Dy480 2.307 . S
O483 C493 1.266 . S
O484 Dy481 2.298 . S
O484 C493 1.236 . S
O485 Dy480 2.363 1_455 S
O485 C502 1.255 . S
O486 Dy480 2.379 . S
O486 C502 1.229 1_655 S
O487 Dy481 2.275 . S
O487 C503 1.254 . S
O488 Dy480 2.339 . S
O488 C503 1.257 . S
O489 Dy481 2.307 . S
O489 C504 1.266 . S
O490 Dy480 2.298 . S
O490 C504 1.236 . S
O491 Dy481 2.395 . S
O491 C511 1.255 . S
O492 Dy481 2.379 . S
O492 C511 1.249 . S
C493 O483 1.266 . S
C493 O484 1.236 . S
O494 Dy480 2.275 . S
O494 C482 1.254 . S
O495 Dy481 2.339 . S
O495 C482 1.257 . S
C496 C499 1.344 . S
C496 C500 1.328 . S
C496 C502 1.536 . S
C497 C498 1.304 . S
C497 C501 1.323 . S
C498 C497 1.304 . S
C498 C499 1.371 . S
C498 H512 0.930 . S
C499 C496 1.344 . S
C499 C498 1.371 . S
C499 H513 0.931 . S
C500 C496 1.328 . S
C500 C501 1.433 . S
C500 H514 0.931 . S
C501 C497 1.323 . S
C501 C500 1.433 . S
C501 H515 0.933 . S
C502 Dy480 2.718 1_455 S
C502 O485 1.255 . S
C502 O486 1.229 1_455 S
C502 C496 1.536 . S
C503 O487 1.254 . S
C503 O488 1.257 . S
C504 O489 1.266 . S
C504 O490 1.236 . S
C505 C508 1.344 . S
C505 C509 1.328 . S
C505 C511 1.516 . S
C506 C507 1.304 . S
C506 C510 1.323 . S
C507 C506 1.304 . S
C507 C508 1.371 . S
C507 H516 0.930 . S
C508 C505 1.344 . S
C508 C507 1.371 . S
C508 H517 0.931 . S
C509 C505 1.328 . S
C509 C510 1.433 . S
C509 H518 0.931 . S
C510 C506 1.323 . S
C510 C509 1.433 . S
C510 H519 0.933 . S
C511 Dy481 2.738 . S
C511 O491 1.255 . S
C511 O492 1.249 . S
C511 C505 1.516 . S
H512 C498 0.930 . S
H513 C499 0.931 . S
H514 C500 0.931 . S
H515 C501 0.933 . S
H516 C507 0.930 . S
H517 C508 0.931 . S
H518 C509 0.931 . S
H519 C510 0.933 . S
Dy520 O523 2.307 . S
Dy520 O525 2.395 . S
Dy520 O526 2.379 . S
Dy520 O528 2.339 . S
Dy520 O530 2.298 . S
Dy520 O534 2.275 . S
Dy520 C542 2.738 . S
Dy521 O524 2.298 . S
Dy521 O527 2.275 . S
Dy521 O529 2.307 . S
Dy521 O531 2.395 . S
Dy521 O532 2.379 . S
Dy521 O535 2.339 . S
Dy521 C551 2.738 . S
C522 O534 1.254 . S
C522 O535 1.257 . S
O523 Dy520 2.307 . S
O523 C533 1.266 . S
O524 Dy521 2.298 . S
O524 C533 1.236 . S
O525 Dy520 2.395 . S
O525 C542 1.255 . S
O526 Dy520 2.379 . S
O526 C542 1.249 . S
O527 Dy521 2.275 . S
O527 C543 1.254 . S
O528 Dy520 2.339 . S
O528 C543 1.257 . S
O529 Dy521 2.307 . S
O529 C544 1.266 . S
O530 Dy520 2.298 . S
O530 C544 1.236 . S
O531 Dy521 2.395 . S
O531 C551 1.255 . S
O532 Dy521 2.379 . S
O532 C551 1.249 . S
C533 O523 1.266 . S
C533 O524 1.236 . S
O534 Dy520 2.275 . S
O534 C522 1.254 . S
O535 Dy521 2.339 . S
O535 C522 1.257 . S
C536 C539 1.344 . S
C536 C540 1.328 . S
C536 C542 1.516 . S
C537 C538 1.304 . S
C537 C541 1.323 . S
C538 C537 1.304 . S
C538 C539 1.371 . S
C538 H552 0.930 . S
C539 C536 1.344 . S
C539 C538 1.371 . S
C539 H553 0.931 . S
C540 C536 1.328 . S
C540 C541 1.433 . S
C540 H554 0.931 . S
C541 C537 1.323 . S
C541 C540 1.433 . S
C541 H555 0.933 . S
C542 Dy520 2.738 . S
C542 O525 1.255 . S
C542 O526 1.249 . S
C542 C536 1.516 . S
C543 O527 1.254 . S
C543 O528 1.257 . S
C544 O529 1.266 . S
C544 O530 1.236 . S
C545 C548 1.344 . S
C545 C549 1.328 . S
C545 C551 1.516 . S
C546 C547 1.304 . S
C546 C550 1.323 . S
C547 C546 1.304 . S
C547 C548 1.371 . S
C547 H556 0.930 . S
C548 C545 1.344 . S
C548 C547 1.371 . S
C548 H557 0.931 . S
C549 C545 1.328 . S
C549 C550 1.433 . S
C549 H558 0.931 . S
C550 C546 1.323 . S
C550 C549 1.433 . S
C550 H559 0.933 . S
C551 Dy521 2.738 . S
C551 O531 1.255 . S
C551 O532 1.249 . S
C551 C545 1.516 . S
H552 C538 0.930 . S
H553 C539 0.931 . S
H554 C540 0.931 . S
H555 C541 0.933 . S
H556 C547 0.930 . S
H557 C548 0.931 . S
H558 C549 0.931 . S
H559 C550 0.933 . S
Dy560 O563 2.307 . S
Dy560 O565 2.395 . S
Dy560 O566 2.379 . S
Dy560 O568 2.339 . S
Dy560 O570 2.298 . S
Dy560 O574 2.275 . S
Dy560 C582 2.738 . S
Dy561 O564 2.298 . S
Dy561 O567 2.275 . S
Dy561 O569 2.307 . S
Dy561 O571 2.395 . S
Dy561 O572 2.379 . S
Dy561 O575 2.339 . S
Dy561 C591 2.738 . S
C562 O574 1.254 . S
C562 O575 1.257 . S
O563 Dy560 2.307 . S
O563 C573 1.266 . S
O564 Dy561 2.298 . S
O564 C573 1.236 . S
O565 Dy560 2.395 . S
O565 C582 1.255 . S
O566 Dy560 2.379 . S
O566 C582 1.249 . S
O567 Dy561 2.275 . S
O567 C583 1.254 . S
O568 Dy560 2.339 . S
O568 C583 1.257 . S
O569 Dy561 2.307 . S
O569 C584 1.266 . S
O570 Dy560 2.298 . S
O570 C584 1.236 . S
O571 Dy561 2.395 . S
O571 C591 1.255 . S
O572 Dy561 2.379 . S
O572 C591 1.249 . S
C573 O563 1.266 . S
C573 O564 1.236 . S
O574 Dy560 2.275 . S
O574 C562 1.254 . S
O575 Dy561 2.339 . S
O575 C562 1.257 . S
C576 C579 1.344 . S
C576 C580 1.328 . S
C576 C582 1.516 . S
C577 C578 1.304 . S
C577 C581 1.323 . S
C578 C577 1.304 . S
C578 C579 1.371 . S
C578 H592 0.930 . S
C579 C576 1.344 . S
C579 C578 1.371 . S
C579 H593 0.931 . S
C580 C576 1.328 . S
C580 C581 1.433 . S
C580 H594 0.931 . S
C581 C577 1.323 . S
C581 C580 1.433 . S
C581 H595 0.933 . S
C582 Dy560 2.738 . S
C582 O565 1.255 . S
C582 O566 1.249 . S
C582 C576 1.516 . S
C583 O567 1.254 . S
C583 O568 1.257 . S
C584 O569 1.266 . S
C584 O570 1.236 . S
C585 C588 1.344 . S
C585 C589 1.328 . S
C585 C591 1.516 . S
C586 C587 1.304 . S
C586 C590 1.323 . S
C587 C586 1.304 . S
C587 C588 1.371 . S
C587 H596 0.930 . S
C588 C585 1.344 . S
C588 C587 1.371 . S
C588 H597 0.931 . S
C589 C585 1.328 . S
C589 C590 1.433 . S
C589 H598 0.931 . S
C590 C586 1.323 . S
C590 C589 1.433 . S
C590 H599 0.933 . S
C591 Dy561 2.738 . S
C591 O571 1.255 . S
C591 O572 1.249 . S
C591 C585 1.516 . S
H592 C578 0.930 . S
H593 C579 0.931 . S
H594 C580 0.931 . S
H595 C581 0.933 . S
H596 C587 0.930 . S
H597 C588 0.931 . S
H598 C589 0.931 . S
H599 C590 0.933 . S
Dy600 O603 2.307 . S
Dy600 O605 2.394 1_455 S
Dy600 O606 2.379 . S
Dy600 O608 2.339 . S
Dy600 O610 2.298 . S
Dy600 O614 2.275 . S
Dy600 C622 2.738 . S
Dy601 O604 2.298 . S
Dy601 O607 2.275 . S
Dy601 O609 2.307 . S
Dy601 O611 2.395 . S
Dy601 O612 2.379 . S
Dy601 O615 2.339 . S
Dy601 C631 2.738 . S
C602 O614 1.254 . S
C602 O615 1.257 . S
O603 Dy600 2.307 . S
O603 C613 1.266 . S
O604 Dy601 2.298 . S
O604 C613 1.236 . S
O605 Dy600 2.394 1_655 S
O605 C622 1.255 1_655 S
O606 Dy600 2.379 . S
O606 C622 1.249 . S
O607 Dy601 2.275 . S
O607 C623 1.254 . S
O608 Dy600 2.339 . S
O608 C623 1.257 . S
O609 Dy601 2.307 . S
O609 C624 1.266 . S
O610 Dy600 2.298 . S
O610 C624 1.236 . S
O611 Dy601 2.395 . S
O611 C631 1.255 . S
O612 Dy601 2.379 . S
O612 C631 1.249 . S
C613 O603 1.266 . S
C613 O604 1.236 . S
O614 Dy600 2.275 . S
O614 C602 1.254 . S
O615 Dy601 2.339 . S
O615 C602 1.257 . S
C616 C619 1.344 . S
C616 C620 1.328 . S
C616 C622 1.516 1_655 S
C617 C618 1.304 . S
C617 C621 1.323 . S
C618 C617 1.304 . S
C618 C619 1.371 . S
C618 H632 0.930 . S
C619 C616 1.344 . S
C619 C618 1.371 . S
C619 H633 0.931 . S
C620 C616 1.328 . S
C620 C621 1.433 . S
C620 H634 0.931 . S
C621 C617 1.323 . S
C621 C620 1.433 . S
C621 H635 0.933 . S
C622 Dy600 2.738 . S
C622 O605 1.255 1_455 S
C622 O606 1.249 . S
C622 C616 1.516 1_455 S
C623 O607 1.254 . S
C623 O608 1.257 . S
C624 O609 1.266 . S
C624 O610 1.236 . S
C625 C628 1.344 . S
C625 C629 1.328 . S
C625 C631 1.516 . S
C626 C627 1.304 . S
C626 C630 1.323 . S
C627 C626 1.304 . S
C627 C628 1.371 . S
C627 H636 0.930 . S
C628 C625 1.344 . S
C628 C627 1.371 . S
C628 H637 0.931 . S
C629 C625 1.328 . S
C629 C630 1.433 . S
C629 H638 0.931 . S
C630 C626 1.323 . S
C630 C629 1.433 . S
C630 H639 0.933 . S
C631 Dy601 2.738 . S
C631 O611 1.255 . S
C631 O612 1.249 . S
C631 C625 1.516 . S
H632 C618 0.930 . S
H633 C619 0.931 . S
H634 C620 0.931 . S
H635 C621 0.933 . S
H636 C627 0.930 . S
H637 C628 0.931 . S
H638 C629 0.931 . S
H639 C630 0.933 . S
Dy640 O643 2.307 1_545 S
Dy640 O645 2.395 . S
Dy640 O646 2.379 . S
Dy640 O648 2.339 1_545 S
Dy640 O650 2.298 . S
Dy640 O654 2.275 . S
Dy640 C662 2.738 . S
Dy641 O644 2.298 . S
Dy641 O647 2.275 . S
Dy641 O649 2.307 1_565 S
Dy641 O651 2.395 . S
Dy641 O652 2.379 . S
Dy641 O655 2.339 1_565 S
Dy641 C671 2.738 . S
C642 O654 1.254 . S
C642 O655 1.257 . S
O643 Dy640 2.307 1_565 S
O643 C653 1.266 . S
O644 Dy641 2.298 . S
O644 C653 1.236 . S
O645 Dy640 2.395 . S
O645 C662 1.255 . S
O646 Dy640 2.379 . S
O646 C662 1.249 . S
O647 Dy641 2.275 . S
O647 C663 1.254 . S
O648 Dy640 2.339 1_565 S
O648 C663 1.257 . S
O649 Dy641 2.307 1_545 S
O649 C664 1.266 . S
O650 Dy640 2.298 . S
O650 C664 1.236 . S
O651 Dy641 2.395 . S
O651 C671 1.255 . S
O652 Dy641 2.379 . S
O652 C671 1.249 . S
C653 O643 1.266 . S
C653 O644 1.236 . S
O654 Dy640 2.275 . S
O654 C642 1.254 . S
O655 Dy641 2.339 1_545 S
O655 C642 1.257 . S
C656 C659 1.344 . S
C656 C660 1.328 . S
C656 C662 1.516 . S
C657 C658 1.304 . S
C657 C661 1.323 . S
C658 C657 1.304 . S
C658 C659 1.371 . S
C658 H672 0.930 . S
C659 C656 1.344 . S
C659 C658 1.371 . S
C659 H673 0.931 . S
C660 C656 1.328 . S
C660 C661 1.433 . S
C660 H674 0.931 . S
C661 C657 1.323 . S
C661 C660 1.433 . S
C661 H675 0.933 . S
C662 Dy640 2.738 . S
C662 O645 1.255 . S
C662 O646 1.249 . S
C662 C656 1.516 . S
C663 O647 1.254 . S
C663 O648 1.257 . S
C664 O649 1.266 . S
C664 O650 1.236 . S
C665 C668 1.344 . S
C665 C669 1.328 . S
C665 C671 1.516 . S
C666 C667 1.304 . S
C666 C670 1.323 . S
C667 C666 1.304 . S
C667 C668 1.371 . S
C667 H676 0.930 . S
C668 C665 1.344 . S
C668 C667 1.371 . S
C668 H677 0.931 . S
C669 C665 1.328 . S
C669 C670 1.433 . S
C669 H678 0.931 . S
C670 C666 1.323 . S
C670 C669 1.433 . S
C670 H679 0.933 . S
C671 Dy641 2.738 . S
C671 O651 1.255 . S
C671 O652 1.249 . S
C671 C665 1.516 . S
H672 C658 0.930 . S
H673 C659 0.931 . S
H674 C660 0.931 . S
H675 C661 0.933 . S
H676 C667 0.930 . S
H677 C668 0.931 . S
H678 C669 0.931 . S
H679 C670 0.933 . S
Dy680 O683 2.307 1_565 S
Dy680 O685 2.395 . S
Dy680 O686 2.379 . S
Dy680 O688 2.339 1_565 S
Dy680 O690 2.298 . S
Dy680 O694 2.275 . S
Dy680 C702 2.738 . S
Dy681 O684 2.298 . S
Dy681 O687 2.275 . S
Dy681 O689 2.307 1_545 S
Dy681 O691 2.395 . S
Dy681 O692 2.379 . S
Dy681 O695 2.339 1_545 S
Dy681 C711 2.738 . S
C682 O694 1.254 . S
C682 O695 1.257 . S
O683 Dy680 2.307 1_545 S
O683 C693 1.266 . S
O684 Dy681 2.298 . S
O684 C693 1.236 . S
O685 Dy680 2.395 . S
O685 C702 1.255 . S
O686 Dy680 2.379 . S
O686 C702 1.249 . S
O687 Dy681 2.275 . S
O687 C703 1.254 . S
O688 Dy680 2.339 1_545 S
O688 C703 1.257 . S
O689 Dy681 2.307 1_565 S
O689 C704 1.266 . S
O690 Dy680 2.298 . S
O690 C704 1.236 . S
O691 Dy681 2.395 . S
O691 C711 1.255 . S
O692 Dy681 2.379 . S
O692 C711 1.249 . S
C693 O683 1.266 . S
C693 O684 1.236 . S
O694 Dy680 2.275 . S
O694 C682 1.254 . S
O695 Dy681 2.339 1_565 S
O695 C682 1.257 . S
C696 C699 1.344 . S
C696 C700 1.328 . S
C696 C702 1.516 . S
C697 C698 1.304 . S
C697 C701 1.323 . S
C698 C697 1.304 . S
C698 C699 1.371 . S
C698 H712 0.930 . S
C699 C696 1.344 . S
C699 C698 1.371 . S
C699 H713 0.931 . S
C700 C696 1.328 . S
C700 C701 1.433 . S
C700 H714 0.931 . S
C701 C697 1.323 . S
C701 C700 1.433 . S
C701 H715 0.933 . S
C702 Dy680 2.738 . S
C702 O685 1.255 . S
C702 O686 1.249 . S
C702 C696 1.516 . S
C703 O687 1.254 . S
C703 O688 1.257 . S
C704 O689 1.266 . S
C704 O690 1.236 . S
C705 C708 1.344 . S
C705 C709 1.328 . S
C705 C711 1.516 . S
C706 C707 1.304 . S
C706 C710 1.323 . S
C707 C706 1.304 . S
C707 C708 1.371 . S
C707 H716 0.930 . S
C708 C705 1.344 . S
C708 C707 1.371 . S
C708 H717 0.931 . S
C709 C705 1.328 . S
C709 C710 1.433 . S
C709 H718 0.931 . S
C710 C706 1.323 . S
C710 C709 1.433 . S
C710 H719 0.933 . S
C711 Dy681 2.738 . S
C711 O691 1.255 . S
C711 O692 1.249 . S
C711 C705 1.516 . S
H712 C698 0.930 . S
H713 C699 0.931 . S
H714 C700 0.931 . S
H715 C701 0.933 . S
H716 C707 0.930 . S
H717 C708 0.931 . S
H718 C709 0.931 . S
H719 C710 0.933 . S
Dy720 O723 2.307 . S
Dy720 O725 2.395 . S
Dy720 O726 2.379 . S
Dy720 O728 2.339 . S
Dy720 O730 2.298 . S
Dy720 O734 2.275 . S
Dy720 C742 2.738 . S
Dy721 O724 2.298 . S
Dy721 O727 2.275 . S
Dy721 O729 2.307 . S
Dy721 O731 2.395 . S
Dy721 O732 2.379 . S
Dy721 O735 2.339 . S
Dy721 C751 2.738 . S
C722 O734 1.254 . S
C722 O735 1.257 . S
O723 Dy720 2.307 . S
O723 C733 1.266 . S
O724 Dy721 2.298 . S
O724 C733 1.236 . S
O725 Dy720 2.395 . S
O725 C742 1.255 . S
O726 Dy720 2.379 . S
O726 C742 1.249 . S
O727 Dy721 2.275 . S
O727 C743 1.254 . S
O728 Dy720 2.339 . S
O728 C743 1.257 . S
O729 Dy721 2.307 . S
O729 C744 1.266 . S
O730 Dy720 2.298 . S
O730 C744 1.236 . S
O731 Dy721 2.395 . S
O731 C751 1.255 . S
O732 Dy721 2.379 . S
O732 C751 1.249 . S
C733 O723 1.266 . S
C733 O724 1.236 . S
O734 Dy720 2.275 . S
O734 C722 1.254 . S
O735 Dy721 2.339 . S
O735 C722 1.257 . S
C736 C739 1.344 . S
C736 C740 1.328 . S
C736 C742 1.516 . S
C737 C738 1.304 . S
C737 C741 1.323 . S
C738 C737 1.304 . S
C738 C739 1.371 . S
C738 H752 0.930 . S
C739 C736 1.344 . S
C739 C738 1.371 . S
C739 H753 0.931 . S
C740 C736 1.328 . S
C740 C741 1.433 . S
C740 H754 0.931 . S
C741 C737 1.323 . S
C741 C740 1.433 . S
C741 H755 0.933 . S
C742 Dy720 2.738 . S
C742 O725 1.255 . S
C742 O726 1.249 . S
C742 C736 1.516 . S
C743 O727 1.254 . S
C743 O728 1.257 . S
C744 O729 1.266 . S
C744 O730 1.236 . S
C745 C748 1.344 . S
C745 C749 1.328 . S
C745 C751 1.516 . S
C746 C747 1.304 . S
C746 C750 1.323 . S
C747 C746 1.304 . S
C747 C748 1.371 . S
C747 H756 0.930 . S
C748 C745 1.344 . S
C748 C747 1.371 . S
C748 H757 0.931 . S
C749 C745 1.328 . S
C749 C750 1.433 . S
C749 H758 0.931 . S
C750 C746 1.323 . S
C750 C749 1.433 . S
C750 H759 0.933 . S
C751 Dy721 2.738 . S
C751 O731 1.255 . S
C751 O732 1.249 . S
C751 C745 1.516 . S
H752 C738 0.930 . S
H753 C739 0.931 . S
H754 C740 0.931 . S
H755 C741 0.933 . S
H756 C747 0.930 . S
H757 C748 0.931 . S
H758 C749 0.931 . S
H759 C750 0.933 . S
Dy760 O763 2.307 . S
Dy760 O765 2.395 . S
Dy760 O766 2.379 . S
Dy760 O768 2.339 . S
Dy760 O770 2.298 . S
Dy760 O774 2.275 . S
Dy760 C782 2.738 . S
Dy761 O764 2.298 . S
Dy761 O767 2.275 . S
Dy761 O769 2.307 . S
Dy761 O771 2.395 . S
Dy761 O772 2.379 . S
Dy761 O775 2.339 . S
Dy761 C791 2.738 . S
C762 O774 1.254 . S
C762 O775 1.257 . S
O763 Dy760 2.307 . S
O763 C773 1.266 . S
O764 Dy761 2.298 . S
O764 C773 1.236 . S
O765 Dy760 2.395 . S
O765 C782 1.255 . S
O766 Dy760 2.379 . S
O766 C782 1.249 . S
O767 Dy761 2.275 . S
O767 C783 1.254 . S
O768 Dy760 2.339 . S
O768 C783 1.257 . S
O769 Dy761 2.307 . S
O769 C784 1.266 . S
O770 Dy760 2.298 . S
O770 C784 1.236 . S
O771 Dy761 2.395 . S
O771 C791 1.255 . S
O772 Dy761 2.379 . S
O772 C791 1.249 . S
C773 O763 1.266 . S
C773 O764 1.236 . S
O774 Dy760 2.275 . S
O774 C762 1.254 . S
O775 Dy761 2.339 . S
O775 C762 1.257 . S
C776 C779 1.344 . S
C776 C780 1.328 . S
C776 C782 1.516 . S
C777 C778 1.304 . S
C777 C781 1.323 . S
C778 C777 1.304 . S
C778 C779 1.371 . S
C778 H792 0.930 . S
C779 C776 1.344 . S
C779 C778 1.371 . S
C779 H793 0.931 . S
C780 C776 1.328 . S
C780 C781 1.433 . S
C780 H794 0.931 . S
C781 C777 1.323 . S
C781 C780 1.433 . S
C781 H795 0.933 . S
C782 Dy760 2.738 . S
C782 O765 1.255 . S
C782 O766 1.249 . S
C782 C776 1.516 . S
C783 O767 1.254 . S
C783 O768 1.257 . S
C784 O769 1.266 . S
C784 O770 1.236 . S
C785 C788 1.344 . S
C785 C789 1.328 . S
C785 C791 1.516 . S
C786 C787 1.304 . S
C786 C790 1.323 . S
C787 C786 1.304 . S
C787 C788 1.371 . S
C787 H796 0.930 . S
C788 C785 1.344 . S
C788 C787 1.371 . S
C788 H797 0.931 . S
C789 C785 1.328 . S
C789 C790 1.433 . S
C789 H798 0.931 . S
C790 C786 1.323 . S
C790 C789 1.433 . S
C790 H799 0.933 . S
C791 Dy761 2.738 . S
C791 O771 1.255 . S
C791 O772 1.249 . S
C791 C785 1.516 . S
H792 C778 0.930 . S
H793 C779 0.931 . S
H794 C780 0.931 . S
H795 C781 0.933 . S
H796 C787 0.930 . S
H797 C788 0.931 . S
H798 C789 0.931 . S
H799 C790 0.933 . S
Dy800 O803 2.307 1_556 S
Dy800 O805 2.395 . S
Dy800 O806 2.379 . S
Dy800 O808 2.339 1_556 S
Dy800 O810 2.298 . S
Dy800 O814 2.275 . S
Dy800 C822 2.738 . S
Dy801 O804 2.298 1_556 S
Dy801 O807 2.275 1_556 S
Dy801 O809 2.307 . S
Dy801 O811 2.395 1_556 S
Dy801 O812 2.379 1_556 S
Dy801 O815 2.339 . S
Dy801 C831 2.738 1_556 S
C802 O814 1.254 . S
C802 O815 1.257 . S
O803 Dy800 2.307 1_554 S
O803 C813 1.266 . S
O804 Dy801 2.298 1_554 S
O804 C813 1.236 . S
O805 Dy800 2.395 . S
O805 C822 1.255 . S
O806 Dy800 2.379 . S
O806 C822 1.249 . S
O807 Dy801 2.275 1_554 S
O807 C823 1.254 . S
O808 Dy800 2.339 1_554 S
O808 C823 1.257 . S
O809 Dy801 2.307 . S
O809 C824 1.266 . S
O810 Dy800 2.298 . S
O810 C824 1.236 . S
O811 Dy801 2.395 1_554 S
O811 C831 1.255 . S
O812 Dy801 2.379 1_554 S
O812 C831 1.249 . S
C813 O803 1.266 . S
C813 O804 1.236 . S
O814 Dy800 2.275 . S
O814 C802 1.254 . S
O815 Dy801 2.339 . S
O815 C802 1.257 . S
C816 C819 1.344 . S
C816 C820 1.328 . S
C816 C822 1.516 . S
C817 C818 1.304 . S
C817 C821 1.323 . S
C818 C817 1.304 . S
C818 C819 1.371 . S
C818 H832 0.930 . S
C819 C816 1.344 . S
C819 C818 1.371 . S
C819 H833 0.931 . S
C820 C816 1.328 . S
C820 C821 1.433 . S
C820 H834 0.931 . S
C821 C817 1.323 . S
C821 C820 1.433 . S
C821 H835 0.933 . S
C822 Dy800 2.738 . S
C822 O805 1.255 . S
C822 O806 1.249 . S
C822 C816 1.516 . S
C823 O807 1.254 . S
C823 O808 1.257 . S
C824 O809 1.266 . S
C824 O810 1.236 . S
C825 C828 1.344 . S
C825 C829 1.328 . S
C825 C831 1.516 . S
C826 C827 1.304 . S
C826 C830 1.323 . S
C827 C826 1.304 . S
C827 C828 1.371 . S
C827 H836 0.930 . S
C828 C825 1.344 . S
C828 C827 1.371 . S
C828 H837 0.931 . S
C829 C825 1.328 . S
C829 C830 1.433 . S
C829 H838 0.931 . S
C830 C826 1.323 . S
C830 C829 1.433 . S
C830 H839 0.933 . S
C831 Dy801 2.738 1_554 S
C831 O811 1.255 . S
C831 O812 1.249 . S
C831 C825 1.516 . S
H832 C818 0.930 . S
H833 C819 0.931 . S
H834 C820 0.931 . S
H835 C821 0.933 . S
H836 C827 0.930 . S
H837 C828 0.931 . S
H838 C829 0.931 . S
H839 C830 0.933 . S
Dy840 O843 2.307 . S
Dy840 O845 2.434 . S
Dy840 O846 2.379 . S
Dy840 O848 2.339 . S
Dy840 O850 2.298 . S
Dy840 O854 2.275 . S
Dy840 C862 2.738 . S
Dy841 O844 2.298 . S
Dy841 O847 2.275 . S
Dy841 O849 2.307 . S
Dy841 O851 2.395 . S
Dy841 O852 2.379 . S
Dy841 O855 2.339 . S
Dy841 C871 2.738 . S
C842 O854 1.254 . S
C842 O855 1.257 . S
O843 Dy840 2.307 . S
O843 C853 1.266 . S
O844 Dy841 2.298 . S
O844 C853 1.236 . S
O845 Dy840 2.434 . S
O845 C862 1.259 . S
O846 Dy840 2.379 . S
O846 C862 1.249 . S
O847 Dy841 2.275 . S
O847 C863 1.254 . S
O848 Dy840 2.339 . S
O848 C863 1.257 . S
O849 Dy841 2.307 . S
O849 C864 1.266 . S
O850 Dy840 2.298 . S
O850 C864 1.236 . S
O851 Dy841 2.395 . S
O851 C871 1.255 . S
O852 Dy841 2.379 . S
O852 C871 1.249 . S
C853 O843 1.266 . S
C853 O844 1.236 . S
O854 Dy840 2.275 . S
O854 C842 1.254 . S
O855 Dy841 2.339 . S
O855 C842 1.257 . S
C856 C859 1.344 . S
C856 C860 1.328 . S
C856 C862 1.516 1_556 S
C857 C858 1.304 . S
C857 C861 1.323 . S
C858 C857 1.304 . S
C858 C859 1.371 . S
C858 H872 0.930 . S
C859 C856 1.344 . S
C859 C858 1.371 . S
C859 H873 0.931 . S
C860 C856 1.328 . S
C860 C861 1.433 . S
C860 H874 0.931 1_556 S
C861 C857 1.323 . S
C861 C860 1.433 . S
C861 H875 0.933 1_455 S
C862 Dy840 2.738 . S
C862 O845 1.259 . S
C862 O846 1.249 . S
C862 C856 1.516 1_554 S
C863 O847 1.254 . S
C863 O848 1.257 . S
C864 O849 1.266 . S
C864 O850 1.236 . S
C865 C868 1.344 . S
C865 C869 1.328 . S
C865 C871 1.516 . S
C866 C867 1.304 . S
C866 C870 1.323 . S
C867 C866 1.304 . S
C867 C868 1.371 . S
C867 H876 0.930 . S
C868 C865 1.344 . S
C868 C867 1.371 . S
C868 H877 0.931 . S
C869 C865 1.328 . S
C869 C870 1.433 . S
C869 H878 0.931 . S
C870 C866 1.323 . S
C870 C869 1.433 . S
C870 H879 0.933 . S
C871 Dy841 2.738 . S
C871 O851 1.255 . S
C871 O852 1.249 . S
C871 C865 1.516 . S
H872 C858 0.930 . S
H873 C859 0.931 . S
H874 C860 0.931 1_554 S
H875 C861 0.933 1_655 S
H876 C867 0.930 . S
H877 C868 0.931 . S
H878 C869 0.931 . S
H879 C870 0.933 . S
Dy880 O883 2.307 . S
Dy880 O885 2.395 . S
Dy880 O886 2.379 . S
Dy880 O888 2.339 . S
Dy880 O890 2.298 . S
Dy880 O894 2.275 . S
Dy880 C902 2.738 . S
Dy881 O884 2.298 . S
Dy881 O887 2.275 . S
Dy881 O889 2.307 . S
Dy881 O891 2.395 . S
Dy881 O892 2.379 . S
Dy881 O895 2.339 . S
Dy881 C911 2.738 . S
C882 O894 1.254 . S
C882 O895 1.257 . S
O883 Dy880 2.307 . S
O883 C893 1.266 . S
O884 Dy881 2.298 . S
O884 C893 1.236 . S
O885 Dy880 2.395 . S
O885 C902 1.255 . S
O886 Dy880 2.379 . S
O886 C902 1.249 . S
O887 Dy881 2.275 . S
O887 C903 1.254 . S
O888 Dy880 2.339 . S
O888 C903 1.257 . S
O889 Dy881 2.307 . S
O889 C904 1.266 . S
O890 Dy880 2.298 . S
O890 C904 1.236 . S
O891 Dy881 2.395 . S
O891 C911 1.255 . S
O892 Dy881 2.379 . S
O892 C911 1.249 . S
C893 O883 1.266 . S
C893 O884 1.236 . S
O894 Dy880 2.275 . S
O894 C882 1.254 . S
O895 Dy881 2.339 . S
O895 C882 1.257 . S
C896 C899 1.344 . S
C896 C900 1.328 . S
C896 C902 1.516 . S
C897 C898 1.304 . S
C897 C901 1.323 . S
C898 C897 1.304 . S
C898 C899 1.371 . S
C898 H912 0.930 . S
C899 C896 1.344 . S
C899 C898 1.371 . S
C899 H913 0.931 . S
C900 C896 1.328 . S
C900 C901 1.433 . S
C900 H914 0.931 . S
C901 C897 1.323 . S
C901 C900 1.433 . S
C901 H915 0.933 . S
C902 Dy880 2.738 . S
C902 O885 1.255 . S
C902 O886 1.249 . S
C902 C896 1.516 . S
C903 O887 1.254 . S
C903 O888 1.257 . S
C904 O889 1.266 . S
C904 O890 1.236 . S
C905 C908 1.344 . S
C905 C909 1.328 . S
C905 C911 1.516 . S
C906 C907 1.304 . S
C906 C910 1.323 . S
C907 C906 1.304 . S
C907 C908 1.371 . S
C907 H916 0.930 . S
C908 C905 1.344 . S
C908 C907 1.371 . S
C908 H917 0.931 . S
C909 C905 1.328 . S
C909 C910 1.433 . S
C909 H918 0.931 . S
C910 C906 1.323 . S
C910 C909 1.433 . S
C910 H919 0.933 . S
C911 Dy881 2.738 . S
C911 O891 1.255 . S
C911 O892 1.249 . S
C911 C905 1.516 . S
H912 C898 0.930 . S
H913 C899 0.931 . S
H914 C900 0.931 . S
H915 C901 0.933 . S
H916 C907 0.930 . S
H917 C908 0.931 . S
H918 C909 0.931 . S
H919 C910 0.933 . S
Dy920 O923 2.307 . S
Dy920 O925 2.395 . S
Dy920 O926 2.379 . S
Dy920 O928 2.339 . S
Dy920 O930 2.298 . S
Dy920 O934 2.275 . S
Dy920 C942 2.738 . S
Dy921 O924 2.298 . S
Dy921 O927 2.275 . S
Dy921 O929 2.307 . S
Dy921 O931 2.395 . S
Dy921 O932 2.379 . S
Dy921 O935 2.339 . S
Dy921 C951 2.738 . S
C922 O934 1.254 . S
C922 O935 1.257 . S
O923 Dy920 2.307 . S
O923 C933 1.266 . S
O924 Dy921 2.298 . S
O924 C933 1.236 . S
O925 Dy920 2.395 . S
O925 C942 1.255 . S
O926 Dy920 2.379 . S
O926 C942 1.249 . S
O927 Dy921 2.275 . S
O927 C943 1.254 . S
O928 Dy920 2.339 . S
O928 C943 1.257 . S
O929 Dy921 2.307 . S
O929 C944 1.266 . S
O930 Dy920 2.298 . S
O930 C944 1.236 . S
O931 Dy921 2.395 . S
O931 C951 1.255 . S
O932 Dy921 2.379 . S
O932 C951 1.249 . S
C933 O923 1.266 . S
C933 O924 1.236 . S
O934 Dy920 2.275 . S
O934 C922 1.254 . S
O935 Dy921 2.339 . S
O935 C922 1.257 . S
C936 C939 1.344 . S
C936 C940 1.328 . S
C936 C942 1.516 . S
C937 C938 1.304 . S
C937 C941 1.323 . S
C938 C937 1.304 . S
C938 C939 1.371 . S
C938 H952 0.930 . S
C939 C936 1.344 . S
C939 C938 1.371 . S
C939 H953 0.931 . S
C940 C936 1.328 . S
C940 C941 1.433 . S
C940 H954 0.931 . S
C941 C937 1.323 . S
C941 C940 1.433 . S
C941 H955 0.966 . S
C942 Dy920 2.738 . S
C942 O925 1.255 . S
C942 O926 1.249 . S
C942 C936 1.516 . S
C943 O927 1.254 . S
C943 O928 1.257 . S
C944 O929 1.266 . S
C944 O930 1.236 . S
C945 C948 1.344 . S
C945 C949 1.328 . S
C945 C951 1.516 . S
C946 C947 1.304 . S
C946 C950 1.323 . S
C947 C946 1.304 . S
C947 C948 1.371 . S
C947 H956 0.930 . S
C948 C945 1.344 . S
C948 C947 1.371 . S
C948 H957 0.931 . S
C949 C945 1.328 . S
C949 C950 1.433 . S
C949 H958 0.931 . S
C950 C946 1.323 . S
C950 C949 1.433 . S
C950 H959 0.933 . S
C951 Dy921 2.738 . S
C951 O931 1.255 . S
C951 O932 1.249 . S
C951 C945 1.516 . S
H952 C938 0.930 . S
H953 C939 0.931 . S
H954 C940 0.931 . S
H955 C941 0.966 . S
H956 C947 0.930 . S
H957 C948 0.931 . S
H958 C949 0.931 . S
H959 C950 0.933 . S
H960 C966 0.930 . S
H961 C969 0.930 . S
H962 C970 0.930 . S
H963 C971 0.930 . S
H964 C974 0.930 . S
H965 C975 0.930 . S
C966 H960 0.930 . S
C966 C967 1.355 . S
C966 C968 1.415 . S
C967 C966 1.355 . S
C967 C969 1.419 . S
C968 C966 1.415 . S
C968 C973 1.425 . S
C968 C975 1.409 . S
C969 H961 0.930 . S
C969 C967 1.419 . S
C969 C970 1.362 . S
C970 H962 0.930 . S
C970 C969 1.362 . S
C970 C973 1.409 . S
C971 H963 0.930 . S
C971 C972 1.355 . S
C971 C973 1.415 . S
C972 C971 1.355 . S
C972 C974 1.419 . S
C973 C968 1.425 . S
C973 C970 1.409 . S
C973 C971 1.415 . S
C974 H964 0.930 . S
C974 C972 1.419 . S
C974 C975 1.362 . S
C975 H965 0.930 . S
C975 C968 1.409 . S
C975 C974 1.362 . S
H976 C982 0.930 . S
H977 C985 0.930 . S
H978 C986 0.930 . S
H979 C987 0.930 . S
H980 C990 0.930 . S
H981 C991 0.930 . S
C982 H976 0.930 . S
C982 C983 1.355 . S
C982 C984 1.415 . S
C983 C982 1.355 . S
C983 C985 1.419 . S
C984 C982 1.415 . S
C984 C989 1.425 . S
C984 C991 1.409 . S
C985 H977 0.930 . S
C985 C983 1.419 . S
C985 C986 1.362 . S
C986 H978 0.930 . S
C986 C985 1.362 . S
C986 C989 1.409 . S
C987 H979 0.930 . S
C987 C988 1.355 . S
C987 C989 1.415 . S
C988 C987 1.355 . S
C988 C990 1.419 . S
C989 C984 1.425 . S
C989 C986 1.409 . S
C989 C987 1.415 . S
C990 H980 0.930 . S
C990 C988 1.419 . S
C990 C991 1.362 . S
C991 H981 0.930 . S
C991 C984 1.409 . S
C991 C990 1.362 . S
H992 C998 0.930 . S
H993 C1001 0.930 . S
H994 C1002 0.930 . S
H995 C1003 0.930 . S
H996 C1006 0.930 . S
H997 C1007 0.930 . S
C998 H992 0.930 . S
C998 C999 1.355 . S
C998 C1000 1.415 . S
C999 C998 1.355 . S
C999 C1001 1.419 . S
C1000 C998 1.415 . S
C1000 C1005 1.425 . S
C1000 C1007 1.409 . S
C1001 H993 0.930 . S
C1001 C999 1.419 . S
C1001 C1002 1.362 . S
C1002 H994 0.930 . S
C1002 C1001 1.362 . S
C1002 C1005 1.409 . S
C1003 H995 0.930 . S
C1003 C1004 1.355 . S
C1003 C1005 1.415 . S
C1004 C1003 1.355 . S
C1004 C1006 1.419 . S
C1005 C1000 1.425 . S
C1005 C1002 1.409 . S
C1005 C1003 1.415 . S
C1006 H996 0.930 . S
C1006 C1004 1.419 . S
C1006 C1007 1.362 . S
C1007 H997 0.930 . S
C1007 C1000 1.409 . S
C1007 C1006 1.362 . S
H1008 C1014 0.930 . S
H1009 C1017 0.930 . S
H1010 C1018 0.930 . S
H1011 C1019 0.930 . S
H1012 C1022 0.930 . S
H1013 C1023 0.930 . S
C1014 H1008 0.930 . S
C1014 C1015 1.355 . S
C1014 C1016 1.415 . S
C1015 C1014 1.355 . S
C1015 C1017 1.419 . S
C1016 C1014 1.415 . S
C1016 C1021 1.425 . S
C1016 C1023 1.409 . S
C1017 H1009 0.930 . S
C1017 C1015 1.419 . S
C1017 C1018 1.362 . S
C1018 H1010 0.930 . S
C1018 C1017 1.362 . S
C1018 C1021 1.409 . S
C1019 H1011 0.930 . S
C1019 C1020 1.355 . S
C1019 C1021 1.415 . S
C1020 C1019 1.355 . S
C1020 C1022 1.419 . S
C1021 C1016 1.425 . S
C1021 C1018 1.409 . S
C1021 C1019 1.415 . S
C1022 H1012 0.930 . S
C1022 C1020 1.419 . S
C1022 C1023 1.362 . S
C1023 H1013 0.930 . S
C1023 C1016 1.409 . S
C1023 C1022 1.362 . S
H1024 C1030 0.930 . S
H1025 C1033 0.930 . S
H1026 C1034 0.930 . S
H1027 C1035 0.930 . S
H1028 C1038 0.930 . S
H1029 C1039 0.930 . S
C1030 H1024 0.930 . S
C1030 C1031 1.355 . S
C1030 C1032 1.415 . S
C1031 C1030 1.355 . S
C1031 C1033 1.419 . S
C1032 C1030 1.415 . S
C1032 C1037 1.425 . S
C1032 C1039 1.409 . S
C1033 H1025 0.930 . S
C1033 C1031 1.419 . S
C1033 C1034 1.362 . S
C1034 H1026 0.930 . S
C1034 C1033 1.362 . S
C1034 C1037 1.409 . S
C1035 H1027 0.930 . S
C1035 C1036 1.355 . S
C1035 C1037 1.415 . S
C1036 C1035 1.355 . S
C1036 C1038 1.419 . S
C1037 C1032 1.425 . S
C1037 C1034 1.409 . S
C1037 C1035 1.415 . S
C1038 H1028 0.930 . S
C1038 C1036 1.419 . S
C1038 C1039 1.362 . S
C1039 H1029 0.930 . S
C1039 C1032 1.409 . S
C1039 C1038 1.362 . S
H1040 C1046 0.930 . S
H1041 C1049 0.930 . S
H1042 C1050 0.930 . S
H1043 C1051 0.930 . S
H1044 C1054 0.930 . S
H1045 C1055 0.930 . S
C1046 H1040 0.930 . S
C1046 C1047 1.355 . S
C1046 C1048 1.415 . S
C1047 C1046 1.355 . S
C1047 C1049 1.419 . S
C1048 C1046 1.415 . S
C1048 C1053 1.425 . S
C1048 C1055 1.409 . S
C1049 H1041 0.930 . S
C1049 C1047 1.419 . S
C1049 C1050 1.362 . S
C1050 H1042 0.930 . S
C1050 C1049 1.362 . S
C1050 C1053 1.409 . S
C1051 H1043 0.930 . S
C1051 C1052 1.355 . S
C1051 C1053 1.415 . S
C1052 C1051 1.355 . S
C1052 C1054 1.419 . S
C1053 C1048 1.425 . S
C1053 C1050 1.409 . S
C1053 C1051 1.415 . S
C1054 H1044 0.930 . S
C1054 C1052 1.419 . S
C1054 C1055 1.362 . S
C1055 H1045 0.930 . S
C1055 C1048 1.409 . S
C1055 C1054 1.362 . S
H1056 C1062 0.930 . S
H1057 C1065 0.930 . S
H1058 C1066 0.930 . S
H1059 C1067 0.930 . S
H1060 C1070 0.930 . S
H1061 C1071 0.930 . S
C1062 H1056 0.930 . S
C1062 C1063 1.355 . S
C1062 C1064 1.415 . S
C1063 C1062 1.355 . S
C1063 C1065 1.419 . S
C1064 C1062 1.415 . S
C1064 C1069 1.425 . S
C1064 C1071 1.409 . S
C1065 H1057 0.930 . S
C1065 C1063 1.419 . S
C1065 C1066 1.362 . S
C1066 H1058 0.930 . S
C1066 C1065 1.362 . S
C1066 C1069 1.409 . S
C1067 H1059 0.930 . S
C1067 C1068 1.355 . S
C1067 C1069 1.415 . S
C1068 C1067 1.355 . S
C1068 C1070 1.419 . S
C1069 C1064 1.425 . S
C1069 C1066 1.409 . S
C1069 C1067 1.415 . S
C1070 H1060 0.930 . S
C1070 C1068 1.419 . S
C1070 C1071 1.362 . S
C1071 H1061 0.930 . S
C1071 C1064 1.409 . S
C1071 C1070 1.362 . S
H1072 C1078 0.930 . S
H1073 C1081 0.930 . S
H1074 C1082 0.930 . S
H1075 C1083 0.930 . S
H1076 C1086 0.930 . S
H1077 C1087 0.930 . S
C1078 H1072 0.930 . S
C1078 C1079 1.355 . S
C1078 C1080 1.415 . S
C1079 C1078 1.355 . S
C1079 C1081 1.419 . S
C1080 C1078 1.415 . S
C1080 C1085 1.425 . S
C1080 C1087 1.409 . S
C1081 H1073 0.930 . S
C1081 C1079 1.419 . S
C1081 C1082 1.362 . S
C1082 H1074 0.930 . S
C1082 C1081 1.362 . S
C1082 C1085 1.409 . S
C1083 H1075 0.930 . S
C1083 C1084 1.355 . S
C1083 C1085 1.415 . S
C1084 C1083 1.355 . S
C1084 C1086 1.419 . S
C1085 C1080 1.425 . S
C1085 C1082 1.409 . S
C1085 C1083 1.415 . S
C1086 H1076 0.930 . S
C1086 C1084 1.419 . S
C1086 C1087 1.362 . S
C1087 H1077 0.930 . S
C1087 C1080 1.409 . S
C1087 C1086 1.362 . S
H1088 C1094 0.930 . S
H1089 C1097 0.930 . S
H1090 C1098 0.930 . S
H1091 C1099 0.930 . S
H1092 C1102 0.930 . S
H1093 C1103 0.930 . S
C1094 H1088 0.930 . S
C1094 C1095 1.355 . S
C1094 C1096 1.415 . S
C1095 C1094 1.355 . S
C1095 C1097 1.419 . S
C1096 C1094 1.415 . S
C1096 C1101 1.425 . S
C1096 C1103 1.409 . S
C1097 H1089 0.930 . S
C1097 C1095 1.419 . S
C1097 C1098 1.362 . S
C1098 H1090 0.930 . S
C1098 C1097 1.362 . S
C1098 C1101 1.409 . S
C1099 H1091 0.930 . S
C1099 C1100 1.355 . S
C1099 C1101 1.415 . S
C1100 C1099 1.355 . S
C1100 C1102 1.419 . S
C1101 C1096 1.425 . S
C1101 C1098 1.409 . S
C1101 C1099 1.415 . S
C1102 H1092 0.930 . S
C1102 C1100 1.419 . S
C1102 C1103 1.362 . S
C1103 H1093 0.930 . S
C1103 C1096 1.409 . S
C1103 C1102 1.362 . S
H1104 C1110 0.930 . S
H1105 C1113 0.930 . S
H1106 C1114 0.930 . S
H1107 C1115 0.930 . S
H1108 C1118 0.930 1_455 S
H1109 C1119 0.930 . S
C1110 H1104 0.930 . S
C1110 C1111 1.355 . S
C1110 C1112 1.415 . S
C1111 C1110 1.355 . S
C1111 C1113 1.419 . S
C1112 C1110 1.415 . S
C1112 C1117 1.425 . S
C1112 C1119 1.409 . S
C1113 H1105 0.930 . S
C1113 C1111 1.419 . S
C1113 C1114 1.362 . S
C1114 H1106 0.930 . S
C1114 C1113 1.362 . S
C1114 C1117 1.409 . S
C1115 H1107 0.930 . S
C1115 C1116 1.355 . S
C1115 C1117 1.415 . S
C1116 C1115 1.355 . S
C1116 C1118 1.419 . S
C1117 C1112 1.425 . S
C1117 C1114 1.409 . S
C1117 C1115 1.415 . S
C1118 H1108 0.930 1_655 S
C1118 C1116 1.419 . S
C1118 C1119 1.362 . S
C1119 H1109 0.930 . S
C1119 C1112 1.409 . S
C1119 C1118 1.362 . S
H1120 C1126 0.930 . S
H1121 C1129 0.930 . S
H1122 C1130 0.930 . S
H1123 C1131 0.930 . S
H1124 C1134 0.930 . S
H1125 C1135 0.930 . S
C1126 H1120 0.930 . S
C1126 C1127 1.355 . S
C1126 C1128 1.415 . S
C1127 C1126 1.355 . S
C1127 C1129 1.419 . S
C1128 C1126 1.415 . S
C1128 C1133 1.425 . S
C1128 C1135 1.409 . S
C1129 H1121 0.930 . S
C1129 C1127 1.419 . S
C1129 C1130 1.362 . S
C1130 H1122 0.930 . S
C1130 C1129 1.362 . S
C1130 C1133 1.409 . S
C1131 H1123 0.930 . S
C1131 C1132 1.355 . S
C1131 C1133 1.415 . S
C1132 C1131 1.355 . S
C1132 C1134 1.419 . S
C1133 C1128 1.425 . S
C1133 C1130 1.409 . S
C1133 C1131 1.415 . S
C1134 H1124 0.930 . S
C1134 C1132 1.419 . S
C1134 C1135 1.362 . S
C1135 H1125 0.930 . S
C1135 C1128 1.409 . S
C1135 C1134 1.362 . S
H1136 C1142 0.930 . S
H1137 C1145 0.930 . S
H1138 C1146 0.930 . S
H1139 C1147 0.930 . S
H1140 C1150 0.930 1_655 S
H1141 C1151 0.930 . S
C1142 H1136 0.930 . S
C1142 C1143 1.355 . S
C1142 C1144 1.415 . S
C1143 C1142 1.355 . S
C1143 C1145 1.419 . S
C1144 C1142 1.415 . S
C1144 C1149 1.425 . S
C1144 C1151 1.409 . S
C1145 H1137 0.930 . S
C1145 C1143 1.419 . S
C1145 C1146 1.362 . S
C1146 H1138 0.930 . S
C1146 C1145 1.362 . S
C1146 C1149 1.409 . S
C1147 H1139 0.930 . S
C1147 C1148 1.355 . S
C1147 C1149 1.415 . S
C1148 C1147 1.355 . S
C1148 C1150 1.419 . S
C1149 C1144 1.425 . S
C1149 C1146 1.409 . S
C1149 C1147 1.415 . S
C1150 H1140 0.930 1_455 S
C1150 C1148 1.419 . S
C1150 C1151 1.362 . S
C1151 H1141 0.930 . S
C1151 C1144 1.409 . S
C1151 C1150 1.362 . S
H1152 C1158 0.930 . S
H1153 C1161 0.930 . S
H1154 C1162 0.930 . S
H1155 C1163 0.930 . S
H1156 C1166 0.930 . S
H1157 C1167 0.930 . S
C1158 H1152 0.930 . S
C1158 C1159 1.355 . S
C1158 C1160 1.415 . S
C1159 C1158 1.355 . S
C1159 C1161 1.419 . S
C1160 C1158 1.415 . S
C1160 C1165 1.425 . S
C1160 C1167 1.409 . S
C1161 H1153 0.930 . S
C1161 C1159 1.419 . S
C1161 C1162 1.362 . S
C1162 H1154 0.930 . S
C1162 C1161 1.362 . S
C1162 C1165 1.409 . S
C1163 H1155 0.930 . S
C1163 C1164 1.355 . S
C1163 C1165 1.415 . S
C1164 C1163 1.355 . S
C1164 C1166 1.419 . S
C1165 C1160 1.425 . S
C1165 C1162 1.409 . S
C1165 C1163 1.415 . S
C1166 H1156 0.930 . S
C1166 C1164 1.419 . S
C1166 C1167 1.362 . S
C1167 H1157 0.930 . S
C1167 C1160 1.409 . S
C1167 C1166 1.362 . S
H1168 C1174 0.930 . S
H1169 C1177 0.930 . S
H1170 C1178 0.930 . S
H1171 C1179 0.930 . S
H1172 C1182 0.930 . S
H1173 C1183 0.930 . S
C1174 H1168 0.930 . S
C1174 C1175 1.355 . S
C1174 C1176 1.415 . S
C1175 C1174 1.355 . S
C1175 C1177 1.419 . S
C1176 C1174 1.415 . S
C1176 C1181 1.425 . S
C1176 C1183 1.409 . S
C1177 H1169 0.930 . S
C1177 C1175 1.419 . S
C1177 C1178 1.362 . S
C1178 H1170 0.930 . S
C1178 C1177 1.362 . S
C1178 C1181 1.409 . S
C1179 H1171 0.930 . S
C1179 C1180 1.355 . S
C1179 C1181 1.415 . S
C1180 C1179 1.355 . S
C1180 C1182 1.419 . S
C1181 C1176 1.425 . S
C1181 C1178 1.409 . S
C1181 C1179 1.415 . S
C1182 H1172 0.930 . S
C1182 C1180 1.419 . S
C1182 C1183 1.362 . S
C1183 H1173 0.930 . S
C1183 C1176 1.409 . S
C1183 C1182 1.362 . S
H1184 C1190 0.930 . S
H1185 C1193 0.930 . S
H1186 C1194 0.930 . S
H1187 C1195 0.930 . S
H1188 C1198 0.930 . S
H1189 C1199 0.930 . S
C1190 H1184 0.930 . S
C1190 C1191 1.355 . S
C1190 C1192 1.415 . S
C1191 C1190 1.355 . S
C1191 C1193 1.419 . S
C1192 C1190 1.415 . S
C1192 C1197 1.425 . S
C1192 C1199 1.409 . S
C1193 H1185 0.930 . S
C1193 C1191 1.419 . S
C1193 C1194 1.362 . S
C1194 H1186 0.930 . S
C1194 C1193 1.362 . S
C1194 C1197 1.409 . S
C1195 H1187 0.930 . S
C1195 C1196 1.355 . S
C1195 C1197 1.415 . S
C1196 C1195 1.355 . S
C1196 C1198 1.419 . S
C1197 C1192 1.425 . S
C1197 C1194 1.409 . S
C1197 C1195 1.415 . S
C1198 H1188 0.930 . S
C1198 C1196 1.419 . S
C1198 C1199 1.362 . S
C1199 H1189 0.930 . S
C1199 C1192 1.409 . S
C1199 C1198 1.362 . S
H1200 C1206 0.930 . S
H1201 C1209 0.930 . S
H1202 C1210 0.930 . S
H1203 C1211 0.930 . S
H1204 C1214 0.930 . S
H1205 C1215 0.930 . S
C1206 H1200 0.930 . S
C1206 C1207 1.355 . S
C1206 C1208 1.415 . S
C1207 C1206 1.355 . S
C1207 C1209 1.419 . S
C1208 C1206 1.415 . S
C1208 C1213 1.425 . S
C1208 C1215 1.409 . S
C1209 H1201 0.930 . S
C1209 C1207 1.419 . S
C1209 C1210 1.362 . S
C1210 H1202 0.930 . S
C1210 C1209 1.362 . S
C1210 C1213 1.409 . S
C1211 H1203 0.930 . S
C1211 C1212 1.355 . S
C1211 C1213 1.415 . S
C1212 C1211 1.355 . S
C1212 C1214 1.419 . S
C1213 C1208 1.425 . S
C1213 C1210 1.409 . S
C1213 C1211 1.415 . S
C1214 H1204 0.930 . S
C1214 C1212 1.419 . S
C1214 C1215 1.362 . S
C1215 H1205 0.930 . S
C1215 C1208 1.409 . S
C1215 C1214 1.362 . S
H1216 C1222 0.930 . S
H1217 C1225 0.930 . S
H1218 C1226 0.930 . S
H1219 C1227 0.930 . S
H1220 C1230 0.930 . S
H1221 C1231 0.930 . S
C1222 H1216 0.930 . S
C1222 C1223 1.355 . S
C1222 C1224 1.415 . S
C1223 C1222 1.355 . S
C1223 C1225 1.419 . S
C1224 C1222 1.415 . S
C1224 C1229 1.425 . S
C1224 C1231 1.409 . S
C1225 H1217 0.930 . S
C1225 C1223 1.419 . S
C1225 C1226 1.362 . S
C1226 H1218 0.930 . S
C1226 C1225 1.362 . S
C1226 C1229 1.409 . S
C1227 H1219 0.930 . S
C1227 C1228 1.355 . S
C1227 C1229 1.415 . S
C1228 C1227 1.355 . S
C1228 C1230 1.419 . S
C1229 C1224 1.425 . S
C1229 C1226 1.409 . S
C1229 C1227 1.415 . S
C1230 H1220 0.930 . S
C1230 C1228 1.419 . S
C1230 C1231 1.362 . S
C1231 H1221 0.930 . S
C1231 C1224 1.409 . S
C1231 C1230 1.362 . S
H1232 C1238 0.930 . S
H1233 C1241 0.930 . S
H1234 C1242 0.930 . S
H1235 C1243 0.930 . S
H1236 C1246 0.930 . S
H1237 C1247 0.930 . S
C1238 H1232 0.930 . S
C1238 C1239 1.355 . S
C1238 C1240 1.415 . S
C1239 C1238 1.355 . S
C1239 C1241 1.419 . S
C1240 C1238 1.415 . S
C1240 C1245 1.425 . S
C1240 C1247 1.409 . S
C1241 H1233 0.930 . S
C1241 C1239 1.419 . S
C1241 C1242 1.362 . S
C1242 H1234 0.930 . S
C1242 C1241 1.362 . S
C1242 C1245 1.409 . S
C1243 H1235 0.930 . S
C1243 C1244 1.355 . S
C1243 C1245 1.415 . S
C1244 C1243 1.355 . S
C1244 C1246 1.419 . S
C1245 C1240 1.425 . S
C1245 C1242 1.409 . S
C1245 C1243 1.415 . S
C1246 H1236 0.930 . S
C1246 C1244 1.419 . S
C1246 C1247 1.362 . S
C1247 H1237 0.930 . S
C1247 C1240 1.409 . S
C1247 C1246 1.362 . S
H1248 C1254 0.930 . S
H1249 C1257 0.930 . S
H1250 C1258 0.930 . S
H1251 C1259 0.930 . S
H1252 C1262 0.930 . S
H1253 C1263 0.930 . S
C1254 H1248 0.930 . S
C1254 C1255 1.355 . S
C1254 C1256 1.415 . S
C1255 C1254 1.355 . S
C1255 C1257 1.419 . S
C1256 C1254 1.415 . S
C1256 C1261 1.425 . S
C1256 C1263 1.409 . S
C1257 H1249 0.930 . S
C1257 C1255 1.419 . S
C1257 C1258 1.362 . S
C1258 H1250 0.930 . S
C1258 C1257 1.362 . S
C1258 C1261 1.409 . S
C1259 H1251 0.930 . S
C1259 C1260 1.355 . S
C1259 C1261 1.415 . S
C1260 C1259 1.355 . S
C1260 C1262 1.419 . S
C1261 C1256 1.425 . S
C1261 C1258 1.409 . S
C1261 C1259 1.415 . S
C1262 H1252 0.930 . S
C1262 C1260 1.419 . S
C1262 C1263 1.362 . S
C1263 H1253 0.930 . S
C1263 C1256 1.409 . S
C1263 C1262 1.362 . S
H1264 C1270 0.930 . S
H1265 C1273 0.930 . S
H1266 C1274 0.930 . S
H1267 C1275 0.930 . S
H1268 C1278 0.930 . S
H1269 C1279 0.930 . S
C1270 H1264 0.930 . S
C1270 C1271 1.355 . S
C1270 C1272 1.415 . S
C1271 C1270 1.355 . S
C1271 C1273 1.419 . S
C1272 C1270 1.415 . S
C1272 C1277 1.425 . S
C1272 C1279 1.409 . S
C1273 H1265 0.930 . S
C1273 C1271 1.419 . S
C1273 C1274 1.362 . S
C1274 H1266 0.930 . S
C1274 C1273 1.362 . S
C1274 C1277 1.409 . S
C1275 H1267 0.930 . S
C1275 C1276 1.355 . S
C1275 C1277 1.415 . S
C1276 C1275 1.355 . S
C1276 C1278 1.419 . S
C1277 C1272 1.425 . S
C1277 C1274 1.409 . S
C1277 C1275 1.415 . S
C1278 H1268 0.930 . S
C1278 C1276 1.419 . S
C1278 C1279 1.362 . S
C1279 H1269 0.930 . S
C1279 C1272 1.409 . S
C1279 C1278 1.362 . S
H1280 C1286 0.930 . S
H1281 C1289 0.930 . S
H1282 C1290 0.930 . S
H1283 C1291 0.930 . S
H1284 C1294 0.930 . S
H1285 C1295 0.930 . S
C1286 H1280 0.930 . S
C1286 C1287 1.355 . S
C1286 C1288 1.415 . S
C1287 C1286 1.355 . S
C1287 C1289 1.419 . S
C1288 C1286 1.415 . S
C1288 C1293 1.425 . S
C1288 C1295 1.409 . S
C1289 H1281 0.930 . S
C1289 C1287 1.419 . S
C1289 C1290 1.362 . S
C1290 H1282 0.930 . S
C1290 C1289 1.362 . S
C1290 C1293 1.409 . S
C1291 H1283 0.930 . S
C1291 C1292 1.355 . S
C1291 C1293 1.415 . S
C1292 C1291 1.355 . S
C1292 C1294 1.419 . S
C1293 C1288 1.425 . S
C1293 C1290 1.409 . S
C1293 C1291 1.415 . S
C1294 H1284 0.930 . S
C1294 C1292 1.419 . S
C1294 C1295 1.362 . S
C1295 H1285 0.930 . S
C1295 C1288 1.409 . S
C1295 C1294 1.362 . S
H1296 C1302 0.930 . S
H1297 C1305 0.930 1_655 S
H1298 C1306 0.930 . S
H1299 C1307 0.930 . S
H1300 C1310 0.930 . S
H1301 C1311 0.930 . S
C1302 H1296 0.930 . S
C1302 C1303 1.355 . S
C1302 C1304 1.415 . S
C1303 C1302 1.355 . S
C1303 C1305 1.419 . S
C1304 C1302 1.415 . S
C1304 C1309 1.425 . S
C1304 C1311 1.409 . S
C1305 H1297 0.930 1_455 S
C1305 C1303 1.419 . S
C1305 C1306 1.362 . S
C1306 H1298 0.930 . S
C1306 C1305 1.362 . S
C1306 C1309 1.409 . S
C1307 H1299 0.930 . S
C1307 C1308 1.355 . S
C1307 C1309 1.415 . S
C1308 C1307 1.355 . S
C1308 C1310 1.419 . S
C1309 C1304 1.425 . S
C1309 C1306 1.409 . S
C1309 C1307 1.415 . S
C1310 H1300 0.930 . S
C1310 C1308 1.419 . S
C1310 C1311 1.362 . S
C1311 H1301 0.930 . S
C1311 C1304 1.409 . S
C1311 C1310 1.362 . S
H1312 C1318 0.930 . S
H1313 C1321 0.930 . S
H1314 C1322 0.930 . S
H1315 C1323 0.930 . S
H1316 C1326 0.930 . S
H1317 C1327 0.930 . S
C1318 H1312 0.930 . S
C1318 C1319 1.355 . S
C1318 C1320 1.415 . S
C1319 C1318 1.355 . S
C1319 C1321 1.419 . S
C1320 C1318 1.415 . S
C1320 C1325 1.425 . S
C1320 C1327 1.409 . S
C1321 H1313 0.930 . S
C1321 C1319 1.419 . S
C1321 C1322 1.362 . S
C1322 H1314 0.930 . S
C1322 C1321 1.362 . S
C1322 C1325 1.409 . S
C1323 H1315 0.930 . S
C1323 C1324 1.355 . S
C1323 C1325 1.415 . S
C1324 C1323 1.355 . S
C1324 C1326 1.419 . S
C1325 C1320 1.425 . S
C1325 C1322 1.409 . S
C1325 C1323 1.415 . S
C1326 H1316 0.930 . S
C1326 C1324 1.419 . S
C1326 C1327 1.362 . S
C1327 H1317 0.930 . S
C1327 C1320 1.409 . S
C1327 C1326 1.362 . S
H1328 C1334 0.930 . S
H1329 C1337 0.930 . S
H1330 C1338 0.930 . S
H1331 C1339 0.930 . S
H1332 C1342 0.930 . S
H1333 C1343 0.930 . S
C1334 H1328 0.930 . S
C1334 C1335 1.355 . S
C1334 C1336 1.415 . S
C1335 C1334 1.355 . S
C1335 C1337 1.419 . S
C1336 C1334 1.415 . S
C1336 C1341 1.425 . S
C1336 C1343 1.409 . S
C1337 H1329 0.930 . S
C1337 C1335 1.419 . S
C1337 C1338 1.362 . S
C1338 H1330 0.930 . S
C1338 C1337 1.362 . S
C1338 C1341 1.409 . S
C1339 H1331 0.930 . S
C1339 C1340 1.355 . S
C1339 C1341 1.415 . S
C1340 C1339 1.355 . S
C1340 C1342 1.419 . S
C1341 C1336 1.425 . S
C1341 C1338 1.409 . S
C1341 C1339 1.415 . S
C1342 H1332 0.930 . S
C1342 C1340 1.419 . S
C1342 C1343 1.362 . S
C1343 H1333 0.930 . S
C1343 C1336 1.409 . S
C1343 C1342 1.362 . S
H1344 C1350 0.930 . S
H1345 C1353 0.930 . S
H1346 C1354 0.930 . S
H1347 C1355 0.930 . S
H1348 C1358 0.930 . S
H1349 C1359 0.930 . S
C1350 H1344 0.930 . S
C1350 C1351 1.355 . S
C1350 C1352 1.415 . S
C1351 C1350 1.355 . S
C1351 C1353 1.419 . S
C1352 C1350 1.415 . S
C1352 C1357 1.425 . S
C1352 C1359 1.409 . S
C1353 H1345 0.930 . S
C1353 C1351 1.419 . S
C1353 C1354 1.362 . S
C1354 H1346 0.930 . S
C1354 C1353 1.362 . S
C1354 C1357 1.409 . S
C1355 H1347 0.930 . S
C1355 C1356 1.355 . S
C1355 C1357 1.415 . S
C1356 C1355 1.355 . S
C1356 C1358 1.419 . S
C1357 C1352 1.425 . S
C1357 C1354 1.409 . S
C1357 C1355 1.415 . S
C1358 H1348 0.930 . S
C1358 C1356 1.419 . S
C1358 C1359 1.362 . S
C1359 H1349 0.930 . S
C1359 C1352 1.409 . S
C1359 C1358 1.362 . S
H1360 C1366 0.930 . S
H1361 C1369 0.930 . S
H1362 C1370 0.930 . S
H1363 C1371 0.930 . S
H1364 C1374 0.930 . S
H1365 C1375 0.930 . S
C1366 H1360 0.930 . S
C1366 C1367 1.355 . S
C1366 C1368 1.415 . S
C1367 C1366 1.355 . S
C1367 C1369 1.419 . S
C1368 C1366 1.415 . S
C1368 C1373 1.425 . S
C1368 C1375 1.409 . S
C1369 H1361 0.930 . S
C1369 C1367 1.419 . S
C1369 C1370 1.362 . S
C1370 H1362 0.930 . S
C1370 C1369 1.362 . S
C1370 C1373 1.409 . S
C1371 H1363 0.930 . S
C1371 C1372 1.355 . S
C1371 C1373 1.415 . S
C1372 C1371 1.355 . S
C1372 C1374 1.419 . S
C1373 C1368 1.425 . S
C1373 C1370 1.409 . S
C1373 C1371 1.415 . S
C1374 H1364 0.930 . S
C1374 C1372 1.419 . S
C1374 C1375 1.362 . S
C1375 H1365 0.930 . S
C1375 C1368 1.409 . S
C1375 C1374 1.362 . S
H1376 C1382 0.930 . S
H1377 C1385 0.930 . S
H1378 C1386 0.930 . S
H1379 C1387 0.930 . S
H1380 C1390 0.930 . S
H1381 C1391 0.930 . S
C1382 H1376 0.930 . S
C1382 C1383 1.355 . S
C1382 C1384 1.415 . S
C1383 C1382 1.355 . S
C1383 C1385 1.419 . S
C1384 C1382 1.415 . S
C1384 C1389 1.425 . S
C1384 C1391 1.409 . S
C1385 H1377 0.930 . S
C1385 C1383 1.419 . S
C1385 C1386 1.362 . S
C1386 H1378 0.930 . S
C1386 C1385 1.362 . S
C1386 C1389 1.409 . S
C1387 H1379 0.930 . S
C1387 C1388 1.355 . S
C1387 C1389 1.415 . S
C1388 C1387 1.355 . S
C1388 C1390 1.419 . S
C1389 C1384 1.425 . S
C1389 C1386 1.409 . S
C1389 C1387 1.415 . S
C1390 H1380 0.930 . S
C1390 C1388 1.419 . S
C1390 C1391 1.362 . S
C1391 H1381 0.930 . S
C1391 C1384 1.409 . S
C1391 C1390 1.362 . S
H1392 C1398 0.930 . S
H1393 C1401 0.930 . S
H1394 C1402 0.930 . S
H1395 C1403 0.930 . S
H1396 C1406 0.930 . S
H1397 C1407 0.930 . S
C1398 H1392 0.930 . S
C1398 C1399 1.355 . S
C1398 C1400 1.415 . S
C1399 C1398 1.355 . S
C1399 C1401 1.419 . S
C1400 C1398 1.415 . S
C1400 C1405 1.425 . S
C1400 C1407 1.409 . S
C1401 H1393 0.930 . S
C1401 C1399 1.419 . S
C1401 C1402 1.362 . S
C1402 H1394 0.930 . S
C1402 C1401 1.362 . S
C1402 C1405 1.409 . S
C1403 H1395 0.930 . S
C1403 C1404 1.355 . S
C1403 C1405 1.415 . S
C1404 C1403 1.355 . S
C1404 C1406 1.419 . S
C1405 C1400 1.425 . S
C1405 C1402 1.409 . S
C1405 C1403 1.415 . S
C1406 H1396 0.930 . S
C1406 C1404 1.419 . S
C1406 C1407 1.362 . S
C1407 H1397 0.930 . S
C1407 C1400 1.409 . S
C1407 C1406 1.362 . S
H1408 C1414 0.930 . S
H1409 C1417 0.930 . S
H1410 C1418 0.930 . S
H1411 C1419 0.930 . S
H1412 C1422 0.930 . S
H1413 C1423 0.930 . S
C1414 H1408 0.930 . S
C1414 C1415 1.355 . S
C1414 C1416 1.415 . S
C1415 C1414 1.355 . S
C1415 C1417 1.419 . S
C1416 C1414 1.415 . S
C1416 C1421 1.425 . S
C1416 C1423 1.409 . S
C1417 H1409 0.930 . S
C1417 C1415 1.419 . S
C1417 C1418 1.362 . S
C1418 H1410 0.930 . S
C1418 C1417 1.362 . S
C1418 C1421 1.409 . S
C1419 H1411 0.930 . S
C1419 C1420 1.355 . S
C1419 C1421 1.415 . S
C1420 C1419 1.355 . S
C1420 C1422 1.419 . S
C1421 C1416 1.425 . S
C1421 C1418 1.409 . S
C1421 C1419 1.415 . S
C1422 H1412 0.930 . S
C1422 C1420 1.419 . S
C1422 C1423 1.362 . S
C1423 H1413 0.930 . S
C1423 C1416 1.409 . S
C1423 C1422 1.362 . S
H1424 C1430 0.930 . S
H1425 C1433 0.930 . S
H1426 C1434 0.930 . S
H1427 C1435 0.930 . S
H1428 C1438 0.930 . S
H1429 C1439 0.930 . S
C1430 H1424 0.930 . S
C1430 C1431 1.355 . S
C1430 C1432 1.415 . S
C1431 C1430 1.355 . S
C1431 C1433 1.419 . S
C1432 C1430 1.415 . S
C1432 C1437 1.425 . S
C1432 C1439 1.409 . S
C1433 H1425 0.930 . S
C1433 C1431 1.419 . S
C1433 C1434 1.362 . S
C1434 H1426 0.930 . S
C1434 C1433 1.362 . S
C1434 C1437 1.409 . S
C1435 H1427 0.930 . S
C1435 C1436 1.355 . S
C1435 C1437 1.415 . S
C1436 C1435 1.355 . S
C1436 C1438 1.419 . S
C1437 C1432 1.425 . S
C1437 C1434 1.409 . S
C1437 C1435 1.415 . S
C1438 H1428 0.930 . S
C1438 C1436 1.419 . S
C1438 C1439 1.362 . S
C1439 H1429 0.930 . S
C1439 C1432 1.409 . S
C1439 C1438 1.362 . S
H1440 C1446 0.930 . S
H1441 C1449 0.930 . S
H1442 C1450 0.930 . S
H1443 C1451 0.930 . S
H1444 C1454 0.930 . S
H1445 C1455 0.930 . S
C1446 H1440 0.930 . S
C1446 C1447 1.355 . S
C1446 C1448 1.415 . S
C1447 C1446 1.355 . S
C1447 C1449 1.419 . S
C1448 C1446 1.415 . S
C1448 C1453 1.425 . S
C1448 C1455 1.409 . S
C1449 H1441 0.930 . S
C1449 C1447 1.419 . S
C1449 C1450 1.362 . S
C1450 H1442 0.930 . S
C1450 C1449 1.362 . S
C1450 C1453 1.409 . S
C1451 H1443 0.930 . S
C1451 C1452 1.355 . S
C1451 C1453 1.415 . S
C1452 C1451 1.355 . S
C1452 C1454 1.419 . S
C1453 C1448 1.425 . S
C1453 C1450 1.409 . S
C1453 C1451 1.415 . S
C1454 H1444 0.930 . S
C1454 C1452 1.419 . S
C1454 C1455 1.362 . S
C1455 H1445 0.930 . S
C1455 C1448 1.409 . S
C1455 C1454 1.362 . S
H1456 C1462 0.930 . S
H1457 C1465 0.930 . S
H1458 C1466 0.930 . S
H1459 C1467 0.930 . S
H1460 C1470 0.930 . S
H1461 C1471 0.930 . S
C1462 H1456 0.930 . S
C1462 C1463 1.355 . S
C1462 C1464 1.415 . S
C1463 C1462 1.355 . S
C1463 C1465 1.419 . S
C1464 C1462 1.415 . S
C1464 C1469 1.425 . S
C1464 C1471 1.409 . S
C1465 H1457 0.930 . S
C1465 C1463 1.419 . S
C1465 C1466 1.362 . S
C1466 H1458 0.930 . S
C1466 C1465 1.362 . S
C1466 C1469 1.409 . S
C1467 H1459 0.930 . S
C1467 C1468 1.355 . S
C1467 C1469 1.415 . S
C1468 C1467 1.355 . S
C1468 C1470 1.419 . S
C1469 C1464 1.425 . S
C1469 C1466 1.409 . S
C1469 C1467 1.415 . S
C1470 H1460 0.930 . S
C1470 C1468 1.419 . S
C1470 C1471 1.362 . S
C1471 H1461 0.930 . S
C1471 C1464 1.409 . S
C1471 C1470 1.362 . S
H1472 C1478 0.930 . S
H1473 C1481 0.930 . S
H1474 C1482 0.930 . S
H1475 C1483 0.930 . S
H1476 C1486 0.930 . S
H1477 C1487 0.930 . S
C1478 H1472 0.930 . S
C1478 C1479 1.355 . S
C1478 C1480 1.415 . S
C1479 C1478 1.355 . S
C1479 C1481 1.419 . S
C1480 C1478 1.415 . S
C1480 C1485 1.425 . S
C1480 C1487 1.409 . S
C1481 H1473 0.930 . S
C1481 C1479 1.419 . S
C1481 C1482 1.362 . S
C1482 H1474 0.930 . S
C1482 C1481 1.362 . S
C1482 C1485 1.409 . S
C1483 H1475 0.930 . S
C1483 C1484 1.355 . S
C1483 C1485 1.415 . S
C1484 C1483 1.355 . S
C1484 C1486 1.419 . S
C1485 C1480 1.425 . S
C1485 C1482 1.409 . S
C1485 C1483 1.415 . S
C1486 H1476 0.930 . S
C1486 C1484 1.419 . S
C1486 C1487 1.362 . S
C1487 H1477 0.930 . S
C1487 C1480 1.409 . S
C1487 C1486 1.362 . S
H1488 C1494 0.930 . S
H1489 C1497 0.930 . S
H1490 C1498 0.930 . S
H1491 C1499 0.930 . S
H1492 C1502 0.930 . S
H1493 C1503 0.930 . S
C1494 H1488 0.930 . S
C1494 C1495 1.355 . S
C1494 C1496 1.415 . S
C1495 C1494 1.355 . S
C1495 C1497 1.419 . S
C1496 C1494 1.415 . S
C1496 C1501 1.425 . S
C1496 C1503 1.409 . S
C1497 H1489 0.930 . S
C1497 C1495 1.419 . S
C1497 C1498 1.362 . S
C1498 H1490 0.930 . S
C1498 C1497 1.362 . S
C1498 C1501 1.409 . S
C1499 H1491 0.930 . S
C1499 C1500 1.355 . S
C1499 C1501 1.415 . S
C1500 C1499 1.355 . S
C1500 C1502 1.419 . S
C1501 C1496 1.425 . S
C1501 C1498 1.409 . S
C1501 C1499 1.415 . S
C1502 H1492 0.930 . S
C1502 C1500 1.419 . S
C1502 C1503 1.362 . S
C1503 H1493 0.930 . S
C1503 C1496 1.409 . S
C1503 C1502 1.362 . S
H1504 C1510 0.930 . S
H1505 C1513 0.930 . S
H1506 C1514 0.930 . S
H1507 C1515 0.930 . S
H1508 C1518 0.930 . S
H1509 C1519 0.930 . S
C1510 H1504 0.930 . S
C1510 C1511 1.355 . S
C1510 C1512 1.415 . S
C1511 C1510 1.355 . S
C1511 C1513 1.419 . S
C1512 C1510 1.415 . S
C1512 C1517 1.425 . S
C1512 C1519 1.409 . S
C1513 H1505 0.930 . S
C1513 C1511 1.419 . S
C1513 C1514 1.362 . S
C1514 H1506 0.930 . S
C1514 C1513 1.362 . S
C1514 C1517 1.409 . S
C1515 H1507 0.930 . S
C1515 C1516 1.355 . S
C1515 C1517 1.415 . S
C1516 C1515 1.355 . S
C1516 C1518 1.419 . S
C1517 C1512 1.425 . S
C1517 C1514 1.409 . S
C1517 C1515 1.415 . S
C1518 H1508 0.930 . S
C1518 C1516 1.419 . S
C1518 C1519 1.362 . S
C1519 H1509 0.930 . S
C1519 C1512 1.409 . S
C1519 C1518 1.362 . S
H1520 C1526 0.930 . S
H1521 C1529 0.930 . S
H1522 C1530 0.930 . S
H1523 C1531 0.930 . S
H1524 C1534 0.930 . S
H1525 C1535 0.930 . S
C1526 H1520 0.930 . S
C1526 C1527 1.355 . S
C1526 C1528 1.415 . S
C1527 C1526 1.355 . S
C1527 C1529 1.419 . S
C1528 C1526 1.415 . S
C1528 C1533 1.425 . S
C1528 C1535 1.409 . S
C1529 H1521 0.930 . S
C1529 C1527 1.419 . S
C1529 C1530 1.362 . S
C1530 H1522 0.930 . S
C1530 C1529 1.362 . S
C1530 C1533 1.409 . S
C1531 H1523 0.930 . S
C1531 C1532 1.355 . S
C1531 C1533 1.415 . S
C1532 C1531 1.355 . S
C1532 C1534 1.419 . S
C1533 C1528 1.425 . S
C1533 C1530 1.409 . S
C1533 C1531 1.415 . S
C1534 H1524 0.930 . S
C1534 C1532 1.419 . S
C1534 C1535 1.362 . S
C1535 H1525 0.930 . S
C1535 C1528 1.409 . S
C1535 C1534 1.362 . S
H1536 C1542 0.930 . S
H1537 C1545 0.930 . S
H1538 C1546 0.930 . S
H1539 C1547 0.930 . S
H1540 C1550 0.930 . S
H1541 C1551 0.930 . S
C1542 H1536 0.930 . S
C1542 C1543 1.355 . S
C1542 C1544 1.415 . S
C1543 C1542 1.355 . S
C1543 C1545 1.419 . S
C1544 C1542 1.415 . S
C1544 C1549 1.425 . S
C1544 C1551 1.409 . S
C1545 H1537 0.930 . S
C1545 C1543 1.419 . S
C1545 C1546 1.362 . S
C1546 H1538 0.930 . S
C1546 C1545 1.362 . S
C1546 C1549 1.409 . S
C1547 H1539 0.930 . S
C1547 C1548 1.355 . S
C1547 C1549 1.415 . S
C1548 C1547 1.355 . S
C1548 C1550 1.419 . S
C1549 C1544 1.425 . S
C1549 C1546 1.409 . S
C1549 C1547 1.415 . S
C1550 H1540 0.930 . S
C1550 C1548 1.419 . S
C1550 C1551 1.362 . S
C1551 H1541 0.930 . S
C1551 C1544 1.409 . S
C1551 C1550 1.362 . S
H1552 C1558 0.930 . S
H1553 C1561 0.930 . S
H1554 C1562 0.930 . S
H1555 C1563 0.930 . S
H1556 C1566 0.930 . S
H1557 C1567 0.930 . S
C1558 H1552 0.930 . S
C1558 C1559 1.355 . S
C1558 C1560 1.415 . S
C1559 C1558 1.355 . S
C1559 C1561 1.419 . S
C1560 C1558 1.415 . S
C1560 C1565 1.425 . S
C1560 C1567 1.409 . S
C1561 H1553 0.930 . S
C1561 C1559 1.419 . S
C1561 C1562 1.362 . S
C1562 H1554 0.930 . S
C1562 C1561 1.362 . S
C1562 C1565 1.409 . S
C1563 H1555 0.930 . S
C1563 C1564 1.355 . S
C1563 C1565 1.415 . S
C1564 C1563 1.355 . S
C1564 C1566 1.419 . S
C1565 C1560 1.425 . S
C1565 C1562 1.409 . S
C1565 C1563 1.415 . S
C1566 H1556 0.930 . S
C1566 C1564 1.419 . S
C1566 C1567 1.362 . S
C1567 H1557 0.930 . S
C1567 C1560 1.409 . S
C1567 C1566 1.362 . S
H1568 C1574 0.930 . S
H1569 C1577 0.930 . S
H1570 C1578 0.930 . S
H1571 C1579 0.930 . S
H1572 C1582 0.930 . S
H1573 C1583 0.930 . S
C1574 H1568 0.930 . S
C1574 C1575 1.355 . S
C1574 C1576 1.415 . S
C1575 C1574 1.355 . S
C1575 C1577 1.419 . S
C1576 C1574 1.415 . S
C1576 C1581 1.425 . S
C1576 C1583 1.409 . S
C1577 H1569 0.930 . S
C1577 C1575 1.419 . S
C1577 C1578 1.362 . S
C1578 H1570 0.930 . S
C1578 C1577 1.362 . S
C1578 C1581 1.409 . S
C1579 H1571 0.930 . S
C1579 C1580 1.355 . S
C1579 C1581 1.415 . S
C1580 C1579 1.355 . S
C1580 C1582 1.419 . S
C1581 C1576 1.425 . S
C1581 C1578 1.409 . S
C1581 C1579 1.415 . S
C1582 H1572 0.930 . S
C1582 C1580 1.419 . S
C1582 C1583 1.362 . S
C1583 H1573 0.930 . S
C1583 C1576 1.409 . S
C1583 C1582 1.362 . S
H1584 C1590 0.930 . S
H1585 C1593 0.930 . S
H1586 C1594 0.930 . S
H1587 C1595 0.930 . S
H1588 C1598 0.930 . S
H1589 C1599 0.930 . S
C1590 H1584 0.930 . S
C1590 C1591 1.355 . S
C1590 C1592 1.415 . S
C1591 C1590 1.355 . S
C1591 C1593 1.419 . S
C1592 C1590 1.415 . S
C1592 C1597 1.425 . S
C1592 C1599 1.409 . S
C1593 H1585 0.930 . S
C1593 C1591 1.419 . S
C1593 C1594 1.362 . S
C1594 H1586 0.930 . S
C1594 C1593 1.362 . S
C1594 C1597 1.409 . S
C1595 H1587 0.930 . S
C1595 C1596 1.355 . S
C1595 C1597 1.415 . S
C1596 C1595 1.355 . S
C1596 C1598 1.419 . S
C1597 C1592 1.425 . S
C1597 C1594 1.409 . S
C1597 C1595 1.415 . S
C1598 H1588 0.930 . S
C1598 C1596 1.419 . S
C1598 C1599 1.362 . S
C1599 H1589 0.930 . S
C1599 C1592 1.409 . S
C1599 C1598 1.362 . S
H1600 C1606 0.930 . S
H1601 C1609 0.930 . S
H1602 C1610 0.930 . S
H1603 C1611 0.930 . S
H1604 C1614 0.930 . S
H1605 C1615 0.930 . S
C1606 H1600 0.930 . S
C1606 C1607 1.355 . S
C1606 C1608 1.415 . S
C1607 C1606 1.355 . S
C1607 C1609 1.419 . S
C1608 C1606 1.415 . S
C1608 C1613 1.425 . S
C1608 C1615 1.409 . S
C1609 H1601 0.930 . S
C1609 C1607 1.419 . S
C1609 C1610 1.362 . S
C1610 H1602 0.930 . S
C1610 C1609 1.362 . S
C1610 C1613 1.409 . S
C1611 H1603 0.930 . S
C1611 C1612 1.355 . S
C1611 C1613 1.415 . S
C1612 C1611 1.355 . S
C1612 C1614 1.419 . S
C1613 C1608 1.425 . S
C1613 C1610 1.409 . S
C1613 C1611 1.415 . S
C1614 H1604 0.930 . S
C1614 C1612 1.419 . S
C1614 C1615 1.362 . S
C1615 H1605 0.930 . S
C1615 C1608 1.409 . S
C1615 C1614 1.362 . S
H1616 C1622 0.930 . S
H1617 C1625 0.930 . S
H1618 C1626 0.930 . S
H1619 C1627 0.930 . S
H1620 C1630 0.930 . S
H1621 C1631 0.930 . S
C1622 H1616 0.930 . S
C1622 C1623 1.355 . S
C1622 C1624 1.415 . S
C1623 C1622 1.355 . S
C1623 C1625 1.419 . S
C1624 C1622 1.415 . S
C1624 C1629 1.425 . S
C1624 C1631 1.409 . S
C1625 H1617 0.930 . S
C1625 C1623 1.419 . S
C1625 C1626 1.362 . S
C1626 H1618 0.930 . S
C1626 C1625 1.362 . S
C1626 C1629 1.409 . S
C1627 H1619 0.930 . S
C1627 C1628 1.355 . S
C1627 C1629 1.415 . S
C1628 C1627 1.355 . S
C1628 C1630 1.419 . S
C1629 C1624 1.425 . S
C1629 C1626 1.409 . S
C1629 C1627 1.415 . S
C1630 H1620 0.930 . S
C1630 C1628 1.419 . S
C1630 C1631 1.362 . S
C1631 H1621 0.930 . S
C1631 C1624 1.409 . S
C1631 C1630 1.362 . S
H1632 C1638 0.930 . S
H1633 C1641 0.930 . S
H1634 C1642 0.930 . S
H1635 C1643 0.930 . S
H1636 C1646 0.930 . S
H1637 C1647 0.930 . S
C1638 H1632 0.930 . S
C1638 C1639 1.355 . S
C1638 C1640 1.415 . S
C1639 C1638 1.355 . S
C1639 C1641 1.419 . S
C1640 C1638 1.415 . S
C1640 C1645 1.425 . S
C1640 C1647 1.409 . S
C1641 H1633 0.930 . S
C1641 C1639 1.419 . S
C1641 C1642 1.362 . S
C1642 H1634 0.930 . S
C1642 C1641 1.362 . S
C1642 C1645 1.409 . S
C1643 H1635 0.930 . S
C1643 C1644 1.355 . S
C1643 C1645 1.415 . S
C1644 C1643 1.355 . S
C1644 C1646 1.419 . S
C1645 C1640 1.425 . S
C1645 C1642 1.409 . S
C1645 C1643 1.415 . S
C1646 H1636 0.930 . S
C1646 C1644 1.419 . S
C1646 C1647 1.362 . S
C1647 H1637 0.930 . S
C1647 C1640 1.409 . S
C1647 C1646 1.362 . S
H1648 C1654 0.930 . S
H1649 C1657 0.930 . S
H1650 C1658 0.930 . S
H1651 C1659 0.930 . S
H1652 C1662 0.930 . S
H1653 C1663 0.930 . S
C1654 H1648 0.930 . S
C1654 C1655 1.355 . S
C1654 C1656 1.415 . S
C1655 C1654 1.355 . S
C1655 C1657 1.419 . S
C1656 C1654 1.415 . S
C1656 C1661 1.425 . S
C1656 C1663 1.409 . S
C1657 H1649 0.930 . S
C1657 C1655 1.419 . S
C1657 C1658 1.362 . S
C1658 H1650 0.930 . S
C1658 C1657 1.362 . S
C1658 C1661 1.409 . S
C1659 H1651 0.930 . S
C1659 C1660 1.355 . S
C1659 C1661 1.415 . S
C1660 C1659 1.355 . S
C1660 C1662 1.419 . S
C1661 C1656 1.425 . S
C1661 C1658 1.409 . S
C1661 C1659 1.415 . S
C1662 H1652 0.930 . S
C1662 C1660 1.419 . S
C1662 C1663 1.362 . S
C1663 H1653 0.930 . S
C1663 C1656 1.409 . S
C1663 C1662 1.362 . S
H1664 C1670 0.930 . S
H1665 C1673 0.930 . S
H1666 C1674 0.930 . S
H1667 C1675 0.930 . S
H1668 C1678 0.930 . S
H1669 C1679 0.930 . S
C1670 H1664 0.930 . S
C1670 C1671 1.355 . S
C1670 C1672 1.415 . S
C1671 C1670 1.355 . S
C1671 C1673 1.419 . S
C1672 C1670 1.415 . S
C1672 C1677 1.425 . S
C1672 C1679 1.409 . S
C1673 H1665 0.930 . S
C1673 C1671 1.419 . S
C1673 C1674 1.362 . S
C1674 H1666 0.930 . S
C1674 C1673 1.362 . S
C1674 C1677 1.409 . S
C1675 H1667 0.930 . S
C1675 C1676 1.355 . S
C1675 C1677 1.415 . S
C1676 C1675 1.355 . S
C1676 C1678 1.419 . S
C1677 C1672 1.425 . S
C1677 C1674 1.409 . S
C1677 C1675 1.415 . S
C1678 H1668 0.930 . S
C1678 C1676 1.419 . S
C1678 C1679 1.362 . S
C1679 H1669 0.930 . S
C1679 C1672 1.409 . S
C1679 C1678 1.362 . S
H1680 C1686 0.930 . S
H1681 C1689 0.930 . S
H1682 C1690 0.930 . S
H1683 C1691 0.930 . S
H1684 C1694 0.930 . S
H1685 C1695 0.930 . S
C1686 H1680 0.930 . S
C1686 C1687 1.355 . S
C1686 C1688 1.415 . S
C1687 C1686 1.355 . S
C1687 C1689 1.419 . S
C1688 C1686 1.415 . S
C1688 C1693 1.425 . S
C1688 C1695 1.409 . S
C1689 H1681 0.930 . S
C1689 C1687 1.419 . S
C1689 C1690 1.362 . S
C1690 H1682 0.930 . S
C1690 C1689 1.362 . S
C1690 C1693 1.409 . S
C1691 H1683 0.930 . S
C1691 C1692 1.355 . S
C1691 C1693 1.415 . S
C1692 C1691 1.355 . S
C1692 C1694 1.419 . S
C1693 C1688 1.425 . S
C1693 C1690 1.409 . S
C1693 C1691 1.415 . S
C1694 H1684 0.930 . S
C1694 C1692 1.419 . S
C1694 C1695 1.362 . S
C1695 H1685 0.930 . S
C1695 C1688 1.409 . S
C1695 C1694 1.362 . S
H1696 C1702 0.930 . S
H1697 C1705 0.930 . S
H1698 C1706 0.930 . S
H1699 C1707 0.930 . S
H1700 C1710 0.930 . S
H1701 C1711 0.930 . S
C1702 H1696 0.930 . S
C1702 C1703 1.355 . S
C1702 C1704 1.415 . S
C1703 C1702 1.355 . S
C1703 C1705 1.419 . S
C1704 C1702 1.415 . S
C1704 C1709 1.425 . S
C1704 C1711 1.409 . S
C1705 H1697 0.930 . S
C1705 C1703 1.419 . S
C1705 C1706 1.362 . S
C1706 H1698 0.930 . S
C1706 C1705 1.362 . S
C1706 C1709 1.409 . S
C1707 H1699 0.930 . S
C1707 C1708 1.355 . S
C1707 C1709 1.415 . S
C1708 C1707 1.355 . S
C1708 C1710 1.419 . S
C1709 C1704 1.425 . S
C1709 C1706 1.409 . S
C1709 C1707 1.415 . S
C1710 H1700 0.930 . S
C1710 C1708 1.419 . S
C1710 C1711 1.362 . S
C1711 H1701 0.930 . S
C1711 C1704 1.409 . S
C1711 C1710 1.362 . S
H1712 C1718 0.930 . S
H1713 C1721 0.930 . S
H1714 C1722 0.930 . S
H1715 C1723 0.930 . S
H1716 C1726 0.930 . S
H1717 C1727 0.930 . S
C1718 H1712 0.930 . S
C1718 C1719 1.355 . S
C1718 C1720 1.415 . S
C1719 C1718 1.355 . S
C1719 C1721 1.419 . S
C1720 C1718 1.415 . S
C1720 C1725 1.425 . S
C1720 C1727 1.409 . S
C1721 H1713 0.930 . S
C1721 C1719 1.419 . S
C1721 C1722 1.362 . S
C1722 H1714 0.930 . S
C1722 C1721 1.362 . S
C1722 C1725 1.409 . S
C1723 H1715 0.930 . S
C1723 C1724 1.355 . S
C1723 C1725 1.415 . S
C1724 C1723 1.355 . S
C1724 C1726 1.419 . S
C1725 C1720 1.425 . S
C1725 C1722 1.409 . S
C1725 C1723 1.415 . S
C1726 H1716 0.930 . S
C1726 C1724 1.419 . S
C1726 C1727 1.362 . S
C1727 H1717 0.930 . S
C1727 C1720 1.409 . S
C1727 C1726 1.362 . S
H1728 C1734 0.930 . S
H1729 C1737 0.930 . S
H1730 C1738 0.930 . S
H1731 C1739 0.930 . S
H1732 C1742 0.930 . S
H1733 C1743 0.930 . S
C1734 H1728 0.930 . S
C1734 C1735 1.355 . S
C1734 C1736 1.415 . S
C1735 C1734 1.355 . S
C1735 C1737 1.419 1_455 S
C1736 C1734 1.415 . S
C1736 C1741 1.425 1_455 S
C1736 C1743 1.409 . S
C1737 H1729 0.930 . S
C1737 C1735 1.419 1_655 S
C1737 C1738 1.362 . S
C1738 H1730 0.930 . S
C1738 C1737 1.362 . S
C1738 C1741 1.409 . S
C1739 H1731 0.930 . S
C1739 C1740 1.355 . S
C1739 C1741 1.415 . S
C1740 C1739 1.355 . S
C1740 C1742 1.419 1_655 S
C1741 C1736 1.425 1_655 S
C1741 C1738 1.409 . S
C1741 C1739 1.415 . S
C1742 H1732 0.930 . S
C1742 C1740 1.419 1_455 S
C1742 C1743 1.362 . S
C1743 H1733 0.930 . S
C1743 C1736 1.409 . S
C1743 C1742 1.362 . S
H1744 C1750 0.930 . S
H1745 C1753 0.930 . S
H1746 C1754 0.930 . S
H1747 C1755 0.930 . S
H1748 C1758 0.930 . S
H1749 C1759 0.930 . S
C1750 H1744 0.930 . S
C1750 C1751 1.355 . S
C1750 C1752 1.415 . S
C1751 C1750 1.355 . S
C1751 C1753 1.419 . S
C1752 C1750 1.415 . S
C1752 C1757 1.425 . S
C1752 C1759 1.409 . S
C1753 H1745 0.930 . S
C1753 C1751 1.419 . S
C1753 C1754 1.362 . S
C1754 H1746 0.930 . S
C1754 C1753 1.362 . S
C1754 C1757 1.409 . S
C1755 H1747 0.930 . S
C1755 C1756 1.355 . S
C1755 C1757 1.415 . S
C1756 C1755 1.355 . S
C1756 C1758 1.419 . S
C1757 C1752 1.425 . S
C1757 C1754 1.409 . S
C1757 C1755 1.415 . S
C1758 H1748 0.930 . S
C1758 C1756 1.419 . S
C1758 C1759 1.362 . S
C1759 H1749 0.930 . S
C1759 C1752 1.409 . S
C1759 C1758 1.362 . S
H1760 C1766 0.930 . S
H1761 C1769 0.930 . S
H1762 C1770 0.930 . S
H1763 C1771 0.930 . S
H1764 C1774 0.930 . S
H1765 C1775 0.930 . S
C1766 H1760 0.930 . S
C1766 C1767 1.355 . S
C1766 C1768 1.415 . S
C1767 C1766 1.355 . S
C1767 C1769 1.419 . S
C1768 C1766 1.415 . S
C1768 C1773 1.425 . S
C1768 C1775 1.409 . S
C1769 H1761 0.930 . S
C1769 C1767 1.419 . S
C1769 C1770 1.362 . S
C1770 H1762 0.930 . S
C1770 C1769 1.362 . S
C1770 C1773 1.409 . S
C1771 H1763 0.930 . S
C1771 C1772 1.355 . S
C1771 C1773 1.415 . S
C1772 C1771 1.355 . S
C1772 C1774 1.419 . S
C1773 C1768 1.425 . S
C1773 C1770 1.409 . S
C1773 C1771 1.415 . S
C1774 H1764 0.930 . S
C1774 C1772 1.419 . S
C1774 C1775 1.362 . S
C1775 H1765 0.930 . S
C1775 C1768 1.409 . S
C1775 C1774 1.362 . S
H1776 C1782 0.930 . S
H1777 C1785 0.930 . S
H1778 C1786 0.930 . S
H1779 C1787 0.930 . S
H1780 C1790 0.930 . S
H1781 C1791 0.930 . S
C1782 H1776 0.930 . S
C1782 C1783 1.355 . S
C1782 C1784 1.415 . S
C1783 C1782 1.355 . S
C1783 C1785 1.419 1_455 S
C1784 C1782 1.415 . S
C1784 C1789 1.425 1_455 S
C1784 C1791 1.409 . S
C1785 H1777 0.930 . S
C1785 C1783 1.419 1_655 S
C1785 C1786 1.362 . S
C1786 H1778 0.930 . S
C1786 C1785 1.362 . S
C1786 C1789 1.409 . S
C1787 H1779 0.930 . S
C1787 C1788 1.355 . S
C1787 C1789 1.415 . S
C1788 C1787 1.355 . S
C1788 C1790 1.419 1_655 S
C1789 C1784 1.425 1_655 S
C1789 C1786 1.409 . S
C1789 C1787 1.415 . S
C1790 H1780 0.930 . S
C1790 C1788 1.419 1_455 S
C1790 C1791 1.362 . S
C1791 H1781 0.930 . S
C1791 C1784 1.409 . S
C1791 C1790 1.362 . S
H1792 C1798 0.930 . S
H1793 C1801 0.930 . S
H1794 C1802 0.930 . S
H1795 C1803 0.930 . S
H1796 C1806 0.930 . S
H1797 C1807 0.930 . S
C1798 H1792 0.930 . S
C1798 C1799 1.355 . S
C1798 C1800 1.415 . S
C1799 C1798 1.355 . S
C1799 C1801 1.419 . S
C1800 C1798 1.415 . S
C1800 C1805 1.425 . S
C1800 C1807 1.409 . S
C1801 H1793 0.930 . S
C1801 C1799 1.419 . S
C1801 C1802 1.362 . S
C1802 H1794 0.930 . S
C1802 C1801 1.362 . S
C1802 C1805 1.409 . S
C1803 H1795 0.930 . S
C1803 C1804 1.355 . S
C1803 C1805 1.415 . S
C1804 C1803 1.355 . S
C1804 C1806 1.419 . S
C1805 C1800 1.425 . S
C1805 C1802 1.409 . S
C1805 C1803 1.415 . S
C1806 H1796 0.930 . S
C1806 C1804 1.419 . S
C1806 C1807 1.362 . S
C1807 H1797 0.930 . S
C1807 C1800 1.409 . S
C1807 C1806 1.362 . S
H1808 C1814 0.930 . S
H1809 C1817 0.930 . S
H1810 C1818 0.930 . S
H1811 C1819 0.930 . S
H1812 C1822 0.930 . S
H1813 C1823 0.930 . S
C1814 H1808 0.930 . S
C1814 C1815 1.355 . S
C1814 C1816 1.415 . S
C1815 C1814 1.355 . S
C1815 C1817 1.419 . S
C1816 C1814 1.415 . S
C1816 C1821 1.425 . S
C1816 C1823 1.409 . S
C1817 H1809 0.930 . S
C1817 C1815 1.419 . S
C1817 C1818 1.362 . S
C1818 H1810 0.930 . S
C1818 C1817 1.362 . S
C1818 C1821 1.409 . S
C1819 H1811 0.930 . S
C1819 C1820 1.355 . S
C1819 C1821 1.415 . S
C1820 C1819 1.355 . S
C1820 C1822 1.419 . S
C1821 C1816 1.425 . S
C1821 C1818 1.409 . S
C1821 C1819 1.415 . S
C1822 H1812 0.930 . S
C1822 C1820 1.419 . S
C1822 C1823 1.362 . S
C1823 H1813 0.930 . S
C1823 C1816 1.409 . S
C1823 C1822 1.362 . S
H1824 C1830 0.930 . S
H1825 C1833 0.930 . S
H1826 C1834 0.930 . S
H1827 C1835 0.930 . S
H1828 C1838 0.930 . S
H1829 C1839 0.930 . S
C1830 H1824 0.930 . S
C1830 C1831 1.355 . S
C1830 C1832 1.415 . S
C1831 C1830 1.355 . S
C1831 C1833 1.419 . S
C1832 C1830 1.415 . S
C1832 C1837 1.425 . S
C1832 C1839 1.409 . S
C1833 H1825 0.930 . S
C1833 C1831 1.419 . S
C1833 C1834 1.362 . S
C1834 H1826 0.930 . S
C1834 C1833 1.362 . S
C1834 C1837 1.409 . S
C1835 H1827 0.930 . S
C1835 C1836 1.355 . S
C1835 C1837 1.415 . S
C1836 C1835 1.355 . S
C1836 C1838 1.419 . S
C1837 C1832 1.425 . S
C1837 C1834 1.409 . S
C1837 C1835 1.415 . S
C1838 H1828 0.930 . S
C1838 C1836 1.419 . S
C1838 C1839 1.362 . S
C1839 H1829 0.930 . S
C1839 C1832 1.409 . S
C1839 C1838 1.362 . S
H1840 C1846 0.930 . S
H1841 C1849 0.930 . S
H1842 C1850 0.930 . S
H1843 C1851 0.930 . S
H1844 C1854 0.930 . S
H1845 C1855 0.930 . S
C1846 H1840 0.930 . S
C1846 C1847 1.355 . S
C1846 C1848 1.415 . S
C1847 C1846 1.355 . S
C1847 C1849 1.419 . S
C1848 C1846 1.415 . S
C1848 C1853 1.425 . S
C1848 C1855 1.409 . S
C1849 H1841 0.930 . S
C1849 C1847 1.419 . S
C1849 C1850 1.362 . S
C1850 H1842 0.930 . S
C1850 C1849 1.362 . S
C1850 C1853 1.409 . S
C1851 H1843 0.930 . S
C1851 C1852 1.355 . S
C1851 C1853 1.415 . S
C1852 C1851 1.355 . S
C1852 C1854 1.419 . S
C1853 C1848 1.425 . S
C1853 C1850 1.409 . S
C1853 C1851 1.415 . S
C1854 H1844 0.930 . S
C1854 C1852 1.419 . S
C1854 C1855 1.362 . S
C1855 H1845 0.930 . S
C1855 C1848 1.409 . S
C1855 C1854 1.362 . S
H1856 C1862 0.951 . S
H1857 C1865 0.930 . S
H1858 C1866 0.930 . S
H1859 C1867 0.930 . S
H1860 C1870 0.930 . S
H1861 C1871 0.930 1_554 S
C1862 H1856 0.951 . S
C1862 C1863 1.355 . S
C1862 C1864 1.415 . S
C1863 C1862 1.355 . S
C1863 C1865 1.419 . S
C1864 C1862 1.415 . S
C1864 C1869 1.425 . S
C1864 C1871 1.409 . S
C1865 H1857 0.930 . S
C1865 C1863 1.419 . S
C1865 C1866 1.362 . S
C1866 H1858 0.930 . S
C1866 C1865 1.362 . S
C1866 C1869 1.409 . S
C1867 H1859 0.930 . S
C1867 C1868 1.355 . S
C1867 C1869 1.415 . S
C1868 C1867 1.355 . S
C1868 C1870 1.419 . S
C1869 C1864 1.425 . S
C1869 C1866 1.409 . S
C1869 C1867 1.415 . S
C1870 H1860 0.930 . S
C1870 C1868 1.419 . S
C1870 C1871 1.362 . S
C1871 H1861 0.930 1_556 S
C1871 C1864 1.409 . S
C1871 C1870 1.362 . S
H1872 C1878 0.930 . S
H1873 C1881 0.930 . S
H1874 C1882 0.930 . S
H1875 C1883 0.930 . S
H1876 C1886 0.930 . S
H1877 C1887 0.930 . S
C1878 H1872 0.930 . S
C1878 C1879 1.355 1_554 S
C1878 C1880 1.415 . S
C1879 C1878 1.355 1_556 S
C1879 C1881 1.419 . S
C1880 C1878 1.415 . S
C1880 C1885 1.425 . S
C1880 C1887 1.409 . S
C1881 H1873 0.930 . S
C1881 C1879 1.419 . S
C1881 C1882 1.362 . S
C1882 H1874 0.930 . S
C1882 C1881 1.362 . S
C1882 C1885 1.409 1_556 S
C1883 H1875 0.930 . S
C1883 C1884 1.355 . S
C1883 C1885 1.415 . S
C1884 C1883 1.355 . S
C1884 C1886 1.419 . S
C1885 C1880 1.425 . S
C1885 C1882 1.409 1_554 S
C1885 C1883 1.415 . S
C1886 H1876 0.930 . S
C1886 C1884 1.419 . S
C1886 C1887 1.362 . S
C1887 H1877 0.930 . S
C1887 C1880 1.409 . S
C1887 C1886 1.362 . S
H1888 C1894 0.930 . S
H1889 C1897 0.930 . S
H1890 C1898 0.930 . S
H1891 C1899 0.930 . S
H1892 C1902 0.930 . S
H1893 C1903 0.930 . S
C1894 H1888 0.930 . S
C1894 C1895 1.355 . S
C1894 C1896 1.415 . S
C1895 C1894 1.355 . S
C1895 C1897 1.419 . S
C1896 C1894 1.415 . S
C1896 C1901 1.425 . S
C1896 C1903 1.409 . S
C1897 H1889 0.930 . S
C1897 C1895 1.419 . S
C1897 C1898 1.362 . S
C1898 H1890 0.930 . S
C1898 C1897 1.362 . S
C1898 C1901 1.409 . S
C1899 H1891 0.930 . S
C1899 C1900 1.355 . S
C1899 C1901 1.415 . S
C1900 C1899 1.355 . S
C1900 C1902 1.419 . S
C1901 C1896 1.425 . S
C1901 C1898 1.409 . S
C1901 C1899 1.415 . S
C1902 H1892 0.930 . S
C1902 C1900 1.419 . S
C1902 C1903 1.362 . S
C1903 H1893 0.930 . S
C1903 C1896 1.409 . S
C1903 C1902 1.362 . S
H1904 C1910 0.930 . S
H1905 C1913 0.930 . S
H1906 C1914 0.930 . S
H1907 C1915 0.930 . S
H1908 C1918 0.930 . S
H1909 C1919 0.930 . S
C1910 H1904 0.930 . S
C1910 C1911 1.355 . S
C1910 C1912 1.415 . S
C1911 C1910 1.355 . S
C1911 C1913 1.419 . S
C1912 C1910 1.415 . S
C1912 C1917 1.425 . S
C1912 C1919 1.409 . S
C1913 H1905 0.930 . S
C1913 C1911 1.419 . S
C1913 C1914 1.362 . S
C1914 H1906 0.930 . S
C1914 C1913 1.362 . S
C1914 C1917 1.409 . S
C1915 H1907 0.930 . S
C1915 C1916 1.355 . S
C1915 C1917 1.415 . S
C1916 C1915 1.355 . S
C1916 C1918 1.419 . S
C1917 C1912 1.425 . S
C1917 C1914 1.409 . S
C1917 C1915 1.415 . S
C1918 H1908 0.930 . S
C1918 C1916 1.419 . S
C1918 C1919 1.362 . S
C1919 H1909 0.930 . S
C1919 C1912 1.409 . S
C1919 C1918 1.362 . S
H1920 C1926 0.930 . S
H1921 C1929 0.930 . S
H1922 C1930 0.930 . S
H1923 C1931 0.930 . S
H1924 C1934 0.930 . S
H1925 C1935 0.930 . S
C1926 H1920 0.930 . S
C1926 C1927 1.355 1_455 S
C1926 C1928 1.415 . S
C1927 C1926 1.355 1_655 S
C1927 C1929 1.419 . S
C1928 C1926 1.415 . S
C1928 C1933 1.425 1_455 S
C1928 C1935 1.409 . S
C1929 H1921 0.930 . S
C1929 C1927 1.419 . S
C1929 C1930 1.362 . S
C1930 H1922 0.930 . S
C1930 C1929 1.362 . S
C1930 C1933 1.409 . S
C1931 H1923 0.930 . S
C1931 C1932 1.355 1_655 S
C1931 C1933 1.415 . S
C1932 C1931 1.355 1_455 S
C1932 C1934 1.419 . S
C1933 C1928 1.425 1_655 S
C1933 C1930 1.409 . S
C1933 C1931 1.415 . S
C1934 H1924 0.930 . S
C1934 C1932 1.419 . S
C1934 C1935 1.362 . S
C1935 H1925 0.930 . S
C1935 C1928 1.409 . S
C1935 C1934 1.362 . S
H1936 C1942 0.930 . S
H1937 C1945 0.930 . S
H1938 C1946 0.930 . S
H1939 C1947 0.930 . S
H1940 C1950 0.930 . S
H1941 C1951 0.930 . S
C1942 H1936 0.930 . S
C1942 C1943 1.355 . S
C1942 C1944 1.415 . S
C1943 C1942 1.355 . S
C1943 C1945 1.419 . S
C1944 C1942 1.415 . S
C1944 C1949 1.425 . S
C1944 C1951 1.409 . S
C1945 H1937 0.930 . S
C1945 C1943 1.419 . S
C1945 C1946 1.362 . S
C1946 H1938 0.930 . S
C1946 C1945 1.362 . S
C1946 C1949 1.409 . S
C1947 H1939 0.930 . S
C1947 C1948 1.355 . S
C1947 C1949 1.415 . S
C1948 C1947 1.355 . S
C1948 C1950 1.419 . S
C1949 C1944 1.425 . S
C1949 C1946 1.409 . S
C1949 C1947 1.415 . S
C1950 H1940 0.930 . S
C1950 C1948 1.419 . S
C1950 C1951 1.362 . S
C1951 H1941 0.930 . S
C1951 C1944 1.409 . S
C1951 C1950 1.362 . S
H1952 C1958 0.930 . S
H1953 C1961 0.930 . S
H1954 C1962 0.930 . S
H1955 C1963 0.930 . S
H1956 C1966 0.930 . S
H1957 C1967 0.930 . S
C1958 H1952 0.930 . S
C1958 C1959 1.355 . S
C1958 C1960 1.415 . S
C1959 C1958 1.355 . S
C1959 C1961 1.419 . S
C1960 C1958 1.415 . S
C1960 C1965 1.425 . S
C1960 C1967 1.409 . S
C1961 H1953 0.930 . S
C1961 C1959 1.419 . S
C1961 C1962 1.362 . S
C1962 H1954 0.930 . S
C1962 C1961 1.362 . S
C1962 C1965 1.409 . S
C1963 H1955 0.930 . S
C1963 C1964 1.355 . S
C1963 C1965 1.415 . S
C1964 C1963 1.355 . S
C1964 C1966 1.419 . S
C1965 C1960 1.425 . S
C1965 C1962 1.409 . S
C1965 C1963 1.415 . S
C1966 H1956 0.930 . S
C1966 C1964 1.419 . S
C1966 C1967 1.362 . S
C1967 H1957 0.930 . S
C1967 C1960 1.409 . S
C1967 C1966 1.362 . S
H1968 C1974 0.930 . S
H1969 C1977 0.930 . S
H1970 C1978 0.930 . S
H1971 C1979 0.930 . S
H1972 C1982 0.931 . S
H1973 C1983 0.930 . S
C1974 H1968 0.930 . S
C1974 C1975 1.355 . S
C1974 C1976 1.415 . S
C1975 C1974 1.355 . S
C1975 C1977 1.419 . S
C1976 C1974 1.415 . S
C1976 C1981 1.425 1_655 S
C1976 C1983 1.409 . S
C1977 H1969 0.930 . S
C1977 C1975 1.419 . S
C1977 C1978 1.362 1_655 S
C1978 H1970 0.930 . S
C1978 C1977 1.362 1_455 S
C1978 C1981 1.409 . S
C1979 H1971 0.930 . S
C1979 C1980 1.355 . S
C1979 C1981 1.415 . S
C1980 C1979 1.355 . S
C1980 C1982 1.424 . S
C1981 C1976 1.425 1_455 S
C1981 C1978 1.409 . S
C1981 C1979 1.415 . S
C1982 H1972 0.931 . S
C1982 C1980 1.424 . S
C1982 C1983 1.356 1_455 S
C1983 H1973 0.930 . S
C1983 C1976 1.409 . S
C1983 C1982 1.356 1_655 S
H1984 C1990 0.930 . S
H1985 C1993 0.930 . S
H1986 C1994 0.930 . S
H1987 C1995 0.930 . S
H1988 C1998 0.930 . S
H1989 C1999 0.930 . S
C1990 H1984 0.930 . S
C1990 C1991 1.355 . S
C1990 C1992 1.415 . S
C1991 C1990 1.355 . S
C1991 C1993 1.419 . S
C1992 C1990 1.415 . S
C1992 C1997 1.425 . S
C1992 C1999 1.409 . S
C1993 H1985 0.930 . S
C1993 C1991 1.419 . S
C1993 C1994 1.362 . S
C1994 H1986 0.930 . S
C1994 C1993 1.362 . S
C1994 C1997 1.409 . S
C1995 H1987 0.930 . S
C1995 C1996 1.355 . S
C1995 C1997 1.415 . S
C1996 C1995 1.355 . S
C1996 C1998 1.419 . S
C1997 C1992 1.425 . S
C1997 C1994 1.409 . S
C1997 C1995 1.415 . S
C1998 H1988 0.930 . S
C1998 C1996 1.419 . S
C1998 C1999 1.362 . S
C1999 H1989 0.930 . S
C1999 C1992 1.409 . S
C1999 C1998 1.362 . S
H2000 C2006 0.930 . S
H2001 C2009 0.930 . S
H2002 C2010 0.930 . S
H2003 C2011 0.930 . S
H2004 C2014 0.930 . S
H2005 C2015 0.930 . S
C2006 H2000 0.930 . S
C2006 C2007 1.355 . S
C2006 C2008 1.415 . S
C2007 C2006 1.355 . S
C2007 C2009 1.419 . S
C2008 C2006 1.415 . S
C2008 C2013 1.425 . S
C2008 C2015 1.409 . S
C2009 H2001 0.930 . S
C2009 C2007 1.419 . S
C2009 C2010 1.362 . S
C2010 H2002 0.930 . S
C2010 C2009 1.362 . S
C2010 C2013 1.409 . S
C2011 H2003 0.930 . S
C2011 C2012 1.355 . S
C2011 C2013 1.415 . S
C2012 C2011 1.355 . S
C2012 C2014 1.419 . S
C2013 C2008 1.425 . S
C2013 C2010 1.409 . S
C2013 C2011 1.415 . S
C2014 H2004 0.930 . S
C2014 C2012 1.419 . S
C2014 C2015 1.362 . S
C2015 H2005 0.930 . S
C2015 C2008 1.409 . S
C2015 C2014 1.362 . S
H2016 C2022 0.930 . S
H2017 C2025 0.930 . S
H2018 C2026 0.930 . S
H2019 C2027 0.930 . S
H2020 C2030 0.930 . S
H2021 C2031 0.930 . S
C2022 H2016 0.930 . S
C2022 C2023 1.355 . S
C2022 C2024 1.415 . S
C2023 C2022 1.355 . S
C2023 C2025 1.419 . S
C2024 C2022 1.415 . S
C2024 C2029 1.425 . S
C2024 C2031 1.409 . S
C2025 H2017 0.930 . S
C2025 C2023 1.419 . S
C2025 C2026 1.362 . S
C2026 H2018 0.930 . S
C2026 C2025 1.362 . S
C2026 C2029 1.409 . S
C2027 H2019 0.930 . S
C2027 C2028 1.355 . S
C2027 C2029 1.415 . S
C2028 C2027 1.355 . S
C2028 C2030 1.419 . S
C2029 C2024 1.425 . S
C2029 C2026 1.409 . S
C2029 C2027 1.415 . S
C2030 H2020 0.930 . S
C2030 C2028 1.419 . S
C2030 C2031 1.362 . S
C2031 H2021 0.930 . S
C2031 C2024 1.409 . S
C2031 C2030 1.362 . S
H2032 C2038 0.930 . S
H2033 C2041 0.930 . S
H2034 C2042 0.930 . S
H2035 C2043 0.930 . S
H2036 C2046 0.930 . S
H2037 C2047 0.930 . S
C2038 H2032 0.930 . S
C2038 C2039 1.355 . S
C2038 C2040 1.415 . S
C2039 C2038 1.355 . S
C2039 C2041 1.419 . S
C2040 C2038 1.415 . S
C2040 C2045 1.425 . S
C2040 C2047 1.409 . S
C2041 H2033 0.930 . S
C2041 C2039 1.419 . S
C2041 C2042 1.362 . S
C2042 H2034 0.930 . S
C2042 C2041 1.362 . S
C2042 C2045 1.409 . S
C2043 H2035 0.930 . S
C2043 C2044 1.355 . S
C2043 C2045 1.415 . S
C2044 C2043 1.355 . S
C2044 C2046 1.419 . S
C2045 C2040 1.425 . S
C2045 C2042 1.409 . S
C2045 C2043 1.415 . S
C2046 H2036 0.930 . S
C2046 C2044 1.419 . S
C2046 C2047 1.362 . S
C2047 H2037 0.930 . S
C2047 C2040 1.409 . S
C2047 C2046 1.362 . S
H2048 C2054 0.930 . S
H2049 C2057 0.930 1_556 S
H2050 C2058 0.930 1_556 S
H2051 C2059 0.930 . S
H2052 C2062 0.930 . S
H2053 C2063 0.930 . S
C2054 H2048 0.930 . S
C2054 C2055 1.355 . S
C2054 C2056 1.415 . S
C2055 C2054 1.355 . S
C2055 C2057 1.419 . S
C2056 C2054 1.415 . S
C2056 C2061 1.425 . S
C2056 C2063 1.409 . S
C2057 H2049 0.930 1_554 S
C2057 C2055 1.419 . S
C2057 C2058 1.362 . S
C2058 H2050 0.930 1_554 S
C2058 C2057 1.362 . S
C2058 C2061 1.409 . S
C2059 H2051 0.930 . S
C2059 C2060 1.355 . S
C2059 C2061 1.415 . S
C2060 C2059 1.355 . S
C2060 C2062 1.419 . S
C2061 C2056 1.425 . S
C2061 C2058 1.409 . S
C2061 C2059 1.415 . S
C2062 H2052 0.930 . S
C2062 C2060 1.419 . S
C2062 C2063 1.362 . S
C2063 H2053 0.930 . S
C2063 C2056 1.409 . S
C2063 C2062 1.362 . S
H2064 C2070 0.930 . S
H2065 C2073 0.930 . S
H2066 C2074 0.930 1_554 S
H2067 C2075 0.930 . S
H2068 C2078 0.930 . S
H2069 C2079 0.930 . S
C2070 H2064 0.930 . S
C2070 C2071 1.355 . S
C2070 C2072 1.415 . S
C2071 C2070 1.355 . S
C2071 C2073 1.419 . S
C2072 C2070 1.415 . S
C2072 C2077 1.425 . S
C2072 C2079 1.409 . S
C2073 H2065 0.930 . S
C2073 C2071 1.419 . S
C2073 C2074 1.362 . S
C2074 H2066 0.930 1_556 S
C2074 C2073 1.362 . S
C2074 C2077 1.409 . S
C2075 H2067 0.930 . S
C2075 C2076 1.355 . S
C2075 C2077 1.415 1_554 S
C2076 C2075 1.355 . S
C2076 C2078 1.419 1_554 S
C2077 C2072 1.425 . S
C2077 C2074 1.409 . S
C2077 C2075 1.415 1_556 S
C2078 H2068 0.930 . S
C2078 C2076 1.419 1_556 S
C2078 C2079 1.362 . S
C2079 H2069 0.930 . S
C2079 C2072 1.409 . S
C2079 C2078 1.362 . S
H2080 C2086 0.930 . S
H2081 C2089 0.930 . S
H2082 C2090 0.930 . S
H2083 C2091 0.930 . S
H2084 C2094 0.930 . S
H2085 C2095 0.930 . S
C2086 H2080 0.930 . S
C2086 C2087 1.355 . S
C2086 C2088 1.415 . S
C2087 C2086 1.355 . S
C2087 C2089 1.419 . S
C2088 C2086 1.415 . S
C2088 C2093 1.425 . S
C2088 C2095 1.409 . S
C2089 H2081 0.930 . S
C2089 C2087 1.419 . S
C2089 C2090 1.362 . S
C2090 H2082 0.930 . S
C2090 C2089 1.362 . S
C2090 C2093 1.409 . S
C2091 H2083 0.930 . S
C2091 C2092 1.355 . S
C2091 C2093 1.415 . S
C2092 C2091 1.355 . S
C2092 C2094 1.419 . S
C2093 C2088 1.425 . S
C2093 C2090 1.409 . S
C2093 C2091 1.415 . S
C2094 H2084 0.930 . S
C2094 C2092 1.419 . S
C2094 C2095 1.362 . S
C2095 H2085 0.930 . S
C2095 C2088 1.409 . S
C2095 C2094 1.362 . S
H2096 C2102 0.930 . S
H2097 C2105 0.930 . S
H2098 C2106 0.930 . S
H2099 C2107 0.930 . S
H2100 C2110 0.930 . S
H2101 C2111 0.930 . S
C2102 H2096 0.930 . S
C2102 C2103 1.355 . S
C2102 C2104 1.415 . S
C2103 C2102 1.355 . S
C2103 C2105 1.419 . S
C2104 C2102 1.415 . S
C2104 C2109 1.425 . S
C2104 C2111 1.409 . S
C2105 H2097 0.930 . S
C2105 C2103 1.419 . S
C2105 C2106 1.362 . S
C2106 H2098 0.930 . S
C2106 C2105 1.362 . S
C2106 C2109 1.409 . S
C2107 H2099 0.930 . S
C2107 C2108 1.355 . S
C2107 C2109 1.415 . S
C2108 C2107 1.355 . S
C2108 C2110 1.419 . S
C2109 C2104 1.425 . S
C2109 C2106 1.409 . S
C2109 C2107 1.415 . S
C2110 H2100 0.930 . S
C2110 C2108 1.419 . S
C2110 C2111 1.362 . S
C2111 H2101 0.930 . S
C2111 C2104 1.409 . S
C2111 C2110 1.362 . S
C967 C2 2.113 . S
C972 C744 2.246 . S
C983 C784 1.404 . S
C988 C42 1.246 . S
C999 C82 2.018 . S
C1004 C664 2.156 . S
C1015 C122 2.133 . S
C1020 C704 2.334 . S
C1031 C906 0.413 . S
C1036 C162 0.355 . S
C1047 C202 2.679 . S
C1052 C864 2.913 1_556 S
C1063 C944 2.957 . S
C1068 C242 2.748 . S
C1079 C282 0.910 . S
C1084 C826 0.983 . S
C1095 C343 2.467 . S
C1100 C544 2.443 . S
C1111 C362 1.560 . S
C1116 C624 1.699 1_655 S
C1127 C584 2.476 . S
C1132 C423 2.504 . S
C1143 C442 1.717 . S
C1148 C504 1.840 1_455 S
C1159 C503 2.058 . S
C1164 C253 2.254 . S
C1175 C543 1.335 . S
C1180 C293 1.359 . S
C1191 C583 2.027 . S
C1196 C173 2.154 . S
C1207 C213 2.311 . S
C1212 C623 2.117 . S
C1223 C663 0.381 . S
C1228 C417 0.288 . S
C1239 C373 2.912 1_554 S
C1244 C703 2.712 . S
C1255 C453 2.952 . S
C1260 C743 2.758 . S
C1271 C337 0.957 . S
C1276 C783 0.941 . S
C1287 C53 2.414 . S
C1292 C802 2.453 . S
C1303 C133 1.703 1_455 S
C1308 C863 1.587 . S
C1319 C93 2.483 . S
C1324 C882 2.503 . S
C1335 C943 1.673 . S
C1340 C13 1.873 1_655 S
C1351 C184 1.680 . S
C1356 C17 1.679 . S
C1367 C224 1.486 . S
C1372 C57 1.500 . S
C1383 C264 1.361 . S
C1388 C97 1.371 . S
C1399 C304 2.234 . S
C1404 C137 2.237 . S
C1415 C177 0.541 . S
C1420 C346 0.612 . S
C1431 C217 1.748 . S
C1436 C464 1.734 . S
C1447 C257 1.834 . S
C1452 C384 1.821 . S
C1463 C297 0.586 . S
C1468 C426 0.488 . S
C1479 C333 2.669 . S
C1484 C24 2.668 . S
C1495 C377 1.510 . S
C1500 C104 1.522 . S
C1511 C413 2.616 . S
C1516 C144 2.640 . S
C1527 C64 1.515 . S
C1532 C457 1.511 . S
C1543 C653 1.674 . S
C1548 C506 1.668 . S
C1559 C693 1.488 . S
C1564 C546 1.484 . S
C1575 C586 1.347 . S
C1580 C733 1.342 . S
C1591 C626 2.211 . S
C1596 C773 2.208 . S
C1607 C817 0.520 . S
C1612 C666 0.533 . S
C1623 C706 1.749 . S
C1628 C933 1.740 . S
C1639 C853 1.813 . S
C1644 C746 1.830 . S
C1655 C786 0.522 . S
C1660 C897 0.384 . S
C1671 C493 2.666 . S
C1676 C824 2.670 . S
C1687 C866 1.538 . S
C1692 C573 1.540 . S
C1703 C904 2.615 . S
C1708 C613 2.639 . S
C1719 C533 1.514 . S
C1724 C946 1.502 . S
C1735 C23 1.954 . S
C1740 C386 1.947 . S
C1751 C424 3.154 . S
C1756 C63 3.066 . S
C1767 C344 3.199 . S
C1772 C103 3.139 . S
C1783 C466 1.888 . S
C1788 C143 1.892 . S
C1799 C183 1.855 . S
C1804 C146 1.861 . S
C1815 C106 1.074 . S
C1820 C223 1.078 . S
C1831 C263 1.389 . S
C1836 C66 1.385 . S
C1847 C26 1.485 . S
C1852 C303 1.464 . S
C1863 C322 1.606 . S
C1868 C226 1.784 . S
C1879 C383 1.066 . S
C1884 C306 1.084 . S
C1895 C402 1.536 . S
C1900 C266 1.628 . S
C1911 C463 1.570 . S
C1916 C186 1.594 . S
C1927 C482 1.898 . S
C1932 C857 1.890 . S
C1943 C522 3.090 . S
C1948 C893 3.167 . S
C1959 C813 3.197 . S
C1964 C562 3.138 . S
C1975 C937 1.880 . S
C1980 C602 1.885 . S
C1991 C642 1.797 . S
C1996 C617 1.801 . S
C2007 C682 1.092 . S
C2012 C577 1.102 . S
C2023 C537 1.385 . S
C2028 C722 1.388 . S
C2039 C762 1.446 . S
C2044 C497 1.463 . S
C2055 C823 1.546 . S
C2060 C697 1.733 . S
C2071 C777 1.140 . S
C2076 C842 1.134 . S
C2087 C903 1.488 . S
C2092 C737 1.611 . S
C2103 C922 1.550 . S
C2108 C657 1.577 . S
