# Generated by pormake.
# Topology uow, (4)-cn, num edge types: 1
# Building blocks:
#     Node 0, Type 0, BuildingBlock: AZAVOO_clean_sbu_0, # of connection points: 4
#     Node 1, Type 0, BuildingBlock: AZAVOO_clean_sbu_0, # of connection points: 4
#     Node 2, Type 0, BuildingBlock: AZAVOO_clean_sbu_0, # of connection points: 4
#     Node 3, Type 0, BuildingBlock: AZAVOO_clean_sbu_0, # of connection points: 4
#     Node 4, Type 0, BuildingBlock: AZAVOO_clean_sbu_0, # of connection points: 4
#     Node 5, Type 0, BuildingBlock: AZAVOO_clean_sbu_0, # of connection points: 4
#     Node 6, Type 0, BuildingBlock: AZAVOO_clean_sbu_0, # of connection points: 4
#     Node 7, Type 0, BuildingBlock: AZAVOO_clean_sbu_0, # of connection points: 4
#     Node 8, Type 0, BuildingBlock: AZAVOO_clean_sbu_0, # of connection points: 4
#     Node 9, Type 0, BuildingBlock: AZAVOO_clean_sbu_0, # of connection points: 4
#     Node 10, Type 0, BuildingBlock: AZAVOO_clean_sbu_0, # of connection points: 4
#     Node 11, Type 0, BuildingBlock: AZAVOO_clean_sbu_0, # of connection points: 4
#     Node 12, Type 0, BuildingBlock: AZAVOO_clean_sbu_0, # of connection points: 4
#     Node 13, Type 0, BuildingBlock: AZAVOO_clean_sbu_0, # of connection points: 4
#     Node 14, Type 0, BuildingBlock: AZAVOO_clean_sbu_0, # of connection points: 4
#     Node 15, Type 0, BuildingBlock: AZAVOO_clean_sbu_0, # of connection points: 4
#     Node 16, Type 0, BuildingBlock: AZAVOO_clean_sbu_0, # of connection points: 4
#     Node 17, Type 0, BuildingBlock: AZAVOO_clean_sbu_0, # of connection points: 4
#     Node 18, Type 0, BuildingBlock: AZAVOO_clean_sbu_0, # of connection points: 4
#     Node 19, Type 0, BuildingBlock: AZAVOO_clean_sbu_0, # of connection points: 4
#     Node 20, Type 0, BuildingBlock: AZAVOO_clean_sbu_0, # of connection points: 4
#     Node 21, Type 0, BuildingBlock: AZAVOO_clean_sbu_0, # of connection points: 4
#     Node 22, Type 0, BuildingBlock: AZAVOO_clean_sbu_0, # of connection points: 4
#     Node 23, Type 0, BuildingBlock: AZAVOO_clean_sbu_0, # of connection points: 4
#     Node 24, Type 0, BuildingBlock: AZAVOO_clean_sbu_0, # of connection points: 4
#     Node 25, Type 0, BuildingBlock: AZAVOO_clean_sbu_0, # of connection points: 4
#     Node 26, Type 0, BuildingBlock: AZAVOO_clean_sbu_0, # of connection points: 4
#     Node 27, Type 0, BuildingBlock: AZAVOO_clean_sbu_0, # of connection points: 4
#     Node 28, Type 0, BuildingBlock: AZAVOO_clean_sbu_0, # of connection points: 4
#     Node 29, Type 0, BuildingBlock: AZAVOO_clean_sbu_0, # of connection points: 4
#     Node 30, Type 0, BuildingBlock: AZAVOO_clean_sbu_0, # of connection points: 4
#     Node 31, Type 0, BuildingBlock: AZAVOO_clean_sbu_0, # of connection points: 4
#     Edge 32, Type (0, 0), BuildingBlock: OJICUG_clean_linker_0, # of connection points: 2
#     Edge 33, Type (0, 0), BuildingBlock: OJICUG_clean_linker_0, # of connection points: 2
#     Edge 34, Type (0, 0), BuildingBlock: OJICUG_clean_linker_0, # of connection points: 2
#     Edge 35, Type (0, 0), BuildingBlock: OJICUG_clean_linker_0, # of connection points: 2
#     Edge 36, Type (0, 0), BuildingBlock: OJICUG_clean_linker_0, # of connection points: 2
#     Edge 37, Type (0, 0), BuildingBlock: OJICUG_clean_linker_0, # of connection points: 2
#     Edge 38, Type (0, 0), BuildingBlock: OJICUG_clean_linker_0, # of connection points: 2
#     Edge 39, Type (0, 0), BuildingBlock: OJICUG_clean_linker_0, # of connection points: 2
#     Edge 40, Type (0, 0), BuildingBlock: OJICUG_clean_linker_0, # of connection points: 2
#     Edge 41, Type (0, 0), BuildingBlock: OJICUG_clean_linker_0, # of connection points: 2
#     Edge 42, Type (0, 0), BuildingBlock: OJICUG_clean_linker_0, # of connection points: 2
#     Edge 43, Type (0, 0), BuildingBlock: OJICUG_clean_linker_0, # of connection points: 2
#     Edge 44, Type (0, 0), BuildingBlock: OJICUG_clean_linker_0, # of connection points: 2
#     Edge 45, Type (0, 0), BuildingBlock: OJICUG_clean_linker_0, # of connection points: 2
#     Edge 46, Type (0, 0), BuildingBlock: OJICUG_clean_linker_0, # of connection points: 2
#     Edge 47, Type (0, 0), BuildingBlock: OJICUG_clean_linker_0, # of connection points: 2
#     Edge 48, Type (0, 0), BuildingBlock: OJICUG_clean_linker_0, # of connection points: 2
#     Edge 49, Type (0, 0), BuildingBlock: OJICUG_clean_linker_0, # of connection points: 2
#     Edge 50, Type (0, 0), BuildingBlock: OJICUG_clean_linker_0, # of connection points: 2
#     Edge 51, Type (0, 0), BuildingBlock: OJICUG_clean_linker_0, # of connection points: 2
#     Edge 52, Type (0, 0), BuildingBlock: OJICUG_clean_linker_0, # of connection points: 2
#     Edge 53, Type (0, 0), BuildingBlock: OJICUG_clean_linker_0, # of connection points: 2
#     Edge 54, Type (0, 0), BuildingBlock: OJICUG_clean_linker_0, # of connection points: 2
#     Edge 55, Type (0, 0), BuildingBlock: OJICUG_clean_linker_0, # of connection points: 2
#     Edge 56, Type (0, 0), BuildingBlock: OJICUG_clean_linker_0, # of connection points: 2
#     Edge 57, Type (0, 0), BuildingBlock: OJICUG_clean_linker_0, # of connection points: 2
#     Edge 58, Type (0, 0), BuildingBlock: OJICUG_clean_linker_0, # of connection points: 2
#     Edge 59, Type (0, 0), BuildingBlock: OJICUG_clean_linker_0, # of connection points: 2
#     Edge 60, Type (0, 0), BuildingBlock: OJICUG_clean_linker_0, # of connection points: 2
#     Edge 61, Type (0, 0), BuildingBlock: OJICUG_clean_linker_0, # of connection points: 2
#     Edge 62, Type (0, 0), BuildingBlock: OJICUG_clean_linker_0, # of connection points: 2
#     Edge 63, Type (0, 0), BuildingBlock: OJICUG_clean_linker_0, # of connection points: 2
#     Edge 64, Type (0, 0), BuildingBlock: OJICUG_clean_linker_0, # of connection points: 2
#     Edge 65, Type (0, 0), BuildingBlock: OJICUG_clean_linker_0, # of connection points: 2
#     Edge 66, Type (0, 0), BuildingBlock: OJICUG_clean_linker_0, # of connection points: 2
#     Edge 67, Type (0, 0), BuildingBlock: OJICUG_clean_linker_0, # of connection points: 2
#     Edge 68, Type (0, 0), BuildingBlock: OJICUG_clean_linker_0, # of connection points: 2
#     Edge 69, Type (0, 0), BuildingBlock: OJICUG_clean_linker_0, # of connection points: 2
#     Edge 70, Type (0, 0), BuildingBlock: OJICUG_clean_linker_0, # of connection points: 2
#     Edge 71, Type (0, 0), BuildingBlock: OJICUG_clean_linker_0, # of connection points: 2
#     Edge 72, Type (0, 0), BuildingBlock: OJICUG_clean_linker_0, # of connection points: 2
#     Edge 73, Type (0, 0), BuildingBlock: OJICUG_clean_linker_0, # of connection points: 2
#     Edge 74, Type (0, 0), BuildingBlock: OJICUG_clean_linker_0, # of connection points: 2
#     Edge 75, Type (0, 0), BuildingBlock: OJICUG_clean_linker_0, # of connection points: 2
#     Edge 76, Type (0, 0), BuildingBlock: OJICUG_clean_linker_0, # of connection points: 2
#     Edge 77, Type (0, 0), BuildingBlock: OJICUG_clean_linker_0, # of connection points: 2
#     Edge 78, Type (0, 0), BuildingBlock: OJICUG_clean_linker_0, # of connection points: 2
#     Edge 79, Type (0, 0), BuildingBlock: OJICUG_clean_linker_0, # of connection points: 2
#     Edge 80, Type (0, 0), BuildingBlock: OJICUG_clean_linker_0, # of connection points: 2
#     Edge 81, Type (0, 0), BuildingBlock: OJICUG_clean_linker_0, # of connection points: 2
#     Edge 82, Type (0, 0), BuildingBlock: OJICUG_clean_linker_0, # of connection points: 2
#     Edge 83, Type (0, 0), BuildingBlock: OJICUG_clean_linker_0, # of connection points: 2
#     Edge 84, Type (0, 0), BuildingBlock: OJICUG_clean_linker_0, # of connection points: 2
#     Edge 85, Type (0, 0), BuildingBlock: OJICUG_clean_linker_0, # of connection points: 2
#     Edge 86, Type (0, 0), BuildingBlock: OJICUG_clean_linker_0, # of connection points: 2
#     Edge 87, Type (0, 0), BuildingBlock: OJICUG_clean_linker_0, # of connection points: 2
#     Edge 88, Type (0, 0), BuildingBlock: OJICUG_clean_linker_0, # of connection points: 2
#     Edge 89, Type (0, 0), BuildingBlock: OJICUG_clean_linker_0, # of connection points: 2
#     Edge 90, Type (0, 0), BuildingBlock: OJICUG_clean_linker_0, # of connection points: 2
#     Edge 91, Type (0, 0), BuildingBlock: OJICUG_clean_linker_0, # of connection points: 2
#     Edge 92, Type (0, 0), BuildingBlock: OJICUG_clean_linker_0, # of connection points: 2
#     Edge 93, Type (0, 0), BuildingBlock: OJICUG_clean_linker_0, # of connection points: 2
#     Edge 94, Type (0, 0), BuildingBlock: OJICUG_clean_linker_0, # of connection points: 2
#     Edge 95, Type (0, 0), BuildingBlock: OJICUG_clean_linker_0, # of connection points: 2
# Relax obj value: 0.269
# Max RMSD: 0.244
# Mean RMSD: 0.244
data_MOF--net-uow--node1-AZAVOO_clean_sbu_0--edge1-OJICUG_clean_linker_0
_symmetry_space_group_name_H-M    P1
_symmetry_Int_Tables_number       1
_symmetry_cell_setting            triclinic
loop_
_symmetry_equiv_pos_as_xyz
'x, y, z'
_cell_length_a     44.110576
_cell_length_b     44.100819
_cell_length_c     29.620196
_cell_angle_alpha  89.992077
_cell_angle_beta   90.073671
_cell_angle_gamma 89.940376
loop_
_atom_site_label
_atom_site_type_symbol
_atom_site_fract_x
_atom_site_fract_y
_atom_site_fract_z
_atom_type_partial_charge
Mg0 Mg 0.97446 0.36755 0.24112 0.0
O1 O 0.01192 0.35731 0.29207 0.0
O2 O 0.058 0.36427 0.26315 0.0
Mg3 Mg 0.04913 0.38283 0.19185 0.0
C4 C 0.04071 0.35677 0.29578 0.0
C5 C 0.92574 0.33832 0.30039 0.0
O6 O 0.92601 0.32061 0.26475 0.0
O7 O 0.98084 0.41804 0.25364 0.0
O8 O 0.02666 0.42497 0.22288 0.0
O9 O 0.97888 0.32073 0.21329 0.0
O10 O 0.00459 0.36014 0.18791 0.0
C11 C 0.00319 0.43505 0.24326 0.0
C12 C -0.00056 0.33144 0.18663 0.0
O13 O 0.94152 0.3624 0.29976 0.0
Mg14 Mg 0.87503 0.72262 0.472 0.0
O15 O 0.8865 0.7578 0.52622 0.0
O16 O 0.87871 0.80511 0.50223 0.0
Mg17 Mg 0.8606 0.79986 0.4299 0.0
C18 C 0.88671 0.78638 0.53286 0.0
C19 C 0.87092 0.68865 0.56594 0.0
O20 O 0.85076 0.70982 0.57446 0.0
O21 O 0.82456 0.72961 0.48644 0.0
O22 O 0.81841 0.77646 0.45862 0.0
O23 O 0.92135 0.72627 0.4422 0.0
O24 O 0.88262 0.75534 0.42243 0.0
C25 C 0.8079 0.75258 0.47739 0.0
C26 C 0.91096 0.74886 0.41902 0.0
O27 O 0.88182 0.68644 0.52633 0.0
Mg28 Mg 0.51713 0.6249 0.73372 0.0
O29 O 0.47822 0.63057 0.78334 0.0
O30 O 0.43299 0.62569 0.75038 0.0
Mg31 Mg 0.44402 0.61193 0.67752 0.0
C32 C 0.44936 0.63071 0.78513 0.0
C33 C 0.56484 0.65085 0.79757 0.0
O34 O 0.56598 0.66923 0.76271 0.0
O35 O 0.5114 0.57367 0.73847 0.0
O36 O 0.46633 0.56858 0.70443 0.0
O37 O 0.51192 0.67341 0.71366 0.0
O38 O 0.488 0.63549 0.68038 0.0
C39 C 0.48935 0.55732 0.72467 0.0
C40 C 0.49202 0.66424 0.68464 0.0
O41 O 0.54855 0.62718 0.7948 0.0
Mg42 Mg 0.60642 0.27047 0.98129 0.0
O43 O 0.60133 0.22963 0.02737 0.0
O44 O 0.60588 0.18559 0.99112 0.0
Mg45 Mg 0.61962 0.19974 0.91917 0.0
C46 C 0.60121 0.20076 0.02713 0.0
C47 C 0.57966 0.31452 0.0504 0.0
O48 O 0.56036 0.31587 0.01665 0.0
O49 O 0.65769 0.2648 0.98563 0.0
O50 O 0.66297 0.2208 0.94861 0.0
O51 O 0.55803 0.26539 0.96065 0.0
O52 O 0.59637 0.24393 0.92459 0.0
C53 C 0.67409 0.24313 0.97061 0.0
C54 C 0.56764 0.24773 0.92892 0.0
O55 O 0.6039 0.29928 0.04537 0.0
Mg56 Mg 0.97364 0.63065 0.2828 0.0
O57 O 0.01073 0.63859 0.23087 0.0
O58 O 0.05718 0.63124 0.25867 0.0
Mg59 Mg 0.04918 0.61606 0.33184 0.0
C60 C 0.03943 0.63805 0.22616 0.0
C61 C 0.92752 0.6606 0.21857 0.0
O62 O 0.93034 0.68084 0.25081 0.0
O63 O 0.98003 0.57971 0.27296 0.0
O64 O 0.02597 0.57345 0.30402 0.0
O65 O 0.97824 0.67811 0.3086 0.0
O66 O 0.00506 0.63943 0.33428 0.0
C67 C 0.00242 0.56291 0.28433 0.0
C68 C -0.00032 0.66807 0.33428 0.0
O69 O 0.94029 0.63493 0.22355 0.0
Mg70 Mg 0.61131 0.7289 0.51934 0.0
O71 O 0.60193 0.76858 0.4707 0.0
O72 O 0.61128 0.81248 0.5057 0.0
Mg73 Mg 0.63036 0.80064 0.57532 0.0
C74 C 0.60259 0.79754 0.47113 0.0
C75 C 0.61248 0.69774 0.42132 0.0
O76 O 0.63198 0.71906 0.41069 0.0
O77 O 0.66217 0.73334 0.50605 0.0
O78 O 0.67088 0.77733 0.54148 0.0
O79 O 0.56499 0.73401 0.54789 0.0
O80 O 0.60533 0.7577 0.57456 0.0
C81 C 0.68005 0.75451 0.51864 0.0
C82 C 0.57643 0.75373 0.57538 0.0
O83 O 0.60287 0.69582 0.46164 0.0
Mg84 Mg 0.51591 0.36164 0.76771 0.0
O85 O 0.48037 0.35091 0.71407 0.0
O86 O 0.43323 0.35853 0.73844 0.0
Mg87 Mg 0.43943 0.37727 0.81031 0.0
C88 C 0.4518 0.35065 0.70761 0.0
C89 C 0.56626 0.33194 0.71112 0.0
O90 O 0.56438 0.31339 0.7457 0.0
O91 O 0.50972 0.41195 0.75347 0.0
O92 O 0.46288 0.41919 0.78059 0.0
O93 O 0.5108 0.31524 0.79759 0.0
O94 O 0.48408 0.35512 0.81873 0.0
C95 C 0.48703 0.42906 0.76183 0.0
C96 C 0.48957 0.32659 0.82251 0.0
O97 O 0.55082 0.35626 0.71168 0.0
Mg98 Mg 0.87028 0.26689 0.00948 0.0
O99 O 0.87927 0.22925 0.9583 0.0
O100 O 0.87204 0.18339 0.98812 0.0
Mg101 Mg 0.85404 0.19259 0.05943 0.0
C102 C 0.87946 0.20042 0.95511 0.0
C103 C 0.89874 0.31667 0.95133 0.0
O104 O 0.91592 0.31686 0.98759 0.0
O105 O 0.81959 0.26156 0.9983 0.0
O106 O 0.81202 0.21576 0.02888 0.0
O107 O 0.91736 0.2616 0.03538 0.0
O108 O 0.87804 0.23645 0.06239 0.0
C109 C 0.80225 0.2395 0.00877 0.0
C110 C 0.90689 0.24094 0.06211 0.0
O111 O 0.87526 0.30002 0.95098 0.0
Mg112 Mg 0.00689 0.6323 0.7601 0.0
O113 O 0.96509 0.63986 0.71511 0.0
O114 O 0.9227 0.63127 0.75424 0.0
Mg115 Mg 0.93794 0.61375 0.82346 0.0
C116 C 0.93622 0.63912 0.71801 0.0
C117 C 0.05539 0.65956 0.69863 0.0
O118 O 0.05807 0.67539 0.73599 0.0
O119 O 0.00261 0.58132 0.75066 0.0
O120 O 0.96008 0.57247 0.78974 0.0
O121 O 0.00186 0.67938 0.78695 0.0
O122 O 0.98072 0.63896 0.81769 0.0
C123 C 0.9823 0.56333 0.76564 0.0
C124 C 0.98401 0.66792 0.81709 0.0
O125 O 0.03653 0.63781 0.69762 0.0
Mg126 Mg 0.1198 0.25849 0.51862 0.0
O127 O 0.10653 0.22478 0.46394 0.0
O128 O 0.11535 0.17684 0.48381 0.0
Mg129 Mg 0.13595 0.18032 0.55497 0.0
C130 C 0.10605 0.19648 0.45531 0.0
C131 C 0.08756 0.3084 0.4633 0.0
O132 O 0.06832 0.30371 0.49634 0.0
O133 O 0.1697 0.25206 0.50086 0.0
O134 O 0.1773 0.20466 0.52543 0.0
O135 O 0.07432 0.25382 0.551 0.0
O136 O 0.11343 0.22441 0.5672 0.0
C137 C 0.18693 0.22919 0.50752 0.0
C138 C 0.08515 0.23071 0.57245 0.0
O139 O 0.11321 0.29521 0.46469 0.0
Mg140 Mg 0.47513 0.36169 0.28751 0.0
O141 O 0.51083 0.35153 0.23413 0.0
O142 O 0.55802 0.35855 0.25903 0.0
Mg143 Mg 0.55195 0.37556 0.33181 0.0
C144 C 0.53941 0.35129 0.22786 0.0
C145 C 0.42809 0.33169 0.22483 0.0
O146 O 0.43181 0.31114 0.25644 0.0
O147 O 0.48238 0.41222 0.27546 0.0
O148 O 0.52909 0.41851 0.30377 0.0
O149 O 0.47897 0.31472 0.3155 0.0
O150 O 0.5074 0.35313 0.33788 0.0
C151 C 0.50514 0.42896 0.28501 0.0
C152 C 0.50118 0.32468 0.33973 0.0
O153 O 0.44058 0.35746 0.2299 0.0
Mg154 Mg 0.37398 0.72001 0.01509 0.0
O155 O 0.3818 0.7582 0.96446 0.0
O156 O 0.37562 0.8038 0.99568 0.0
Mg157 Mg 0.35958 0.79386 0.06786 0.0
C158 C 0.38197 0.78705 0.96185 0.0
C159 C 0.40013 0.66979 0.95542 0.0
O160 O 0.41736 0.66838 0.99157 0.0
O161 O 0.32323 0.72607 0.00655 0.0
O162 O 0.31678 0.77158 0.03874 0.0
O163 O 0.42166 0.72469 0.03886 0.0
O164 O 0.38291 0.74961 0.06828 0.0
C165 C 0.30637 0.74822 0.01843 0.0
C166 C 0.41169 0.74494 0.06675 0.0
O167 O 0.37742 0.68751 0.95566 0.0
Mg168 Mg 0.01676 0.36806 0.73229 0.0
O169 O 0.97793 0.35938 0.78117 0.0
O170 O 0.93259 0.36491 0.74882 0.0
Mg171 Mg 0.94314 0.38155 0.67723 0.0
C172 C 0.94908 0.35872 0.78301 0.0
C173 C 0.06347 0.33948 0.79637 0.0
O174 O 0.06372 0.32102 0.76159 0.0
O175 O 0.00964 0.41893 0.74146 0.0
O176 O 0.96446 0.42423 0.70766 0.0
O177 O 0.01309 0.32058 0.70698 0.0
O178 O 0.98786 0.3591 0.67765 0.0
C179 C 0.98718 0.43521 0.72885 0.0
C180 C 0.99303 0.3304 0.67866 0.0
O181 O 0.04819 0.36388 0.79363 0.0
Mg182 Mg 0.38209 0.26229 0.46835 0.0
O183 O 0.39126 0.22574 0.52087 0.0
O184 O 0.38471 0.17891 0.49426 0.0
Mg185 Mg 0.36905 0.18608 0.42093 0.0
C186 C 0.39135 0.19708 0.52629 0.0
C187 C 0.41152 0.30887 0.53228 0.0
O188 O 0.43196 0.30582 0.50041 0.0
O189 O 0.33127 0.25491 0.47875 0.0
O190 O 0.32601 0.20879 0.44805 0.0
O191 O 0.4295 0.25848 0.4414 0.0
O192 O 0.39111 0.2308 0.41716 0.0
C193 C 0.31492 0.2322 0.46742 0.0
C194 C 0.41958 0.23682 0.41608 0.0
O195 O 0.38592 0.29605 0.52712 0.0
Mg196 Mg 0.4751 0.62428 0.24457 0.0
O197 O 0.51807 0.63561 0.28476 0.0
O198 O 0.55946 0.62856 0.24266 0.0
Mg199 Mg 0.54262 0.60723 0.17681 0.0
C200 C 0.54675 0.63682 0.27933 0.0
C201 C 0.43144 0.65419 0.311 0.0
O202 O 0.42832 0.67041 0.2741 0.0
O203 O 0.48263 0.57394 0.25713 0.0
O204 O 0.52433 0.56598 0.21573 0.0
O205 O 0.47665 0.67062 0.21529 0.0
O206 O 0.49887 0.63082 0.18425 0.0
C207 C 0.50349 0.55654 0.24217 0.0
C208 C 0.49447 0.65969 0.18472 0.0
O209 O 0.44821 0.63074 0.30983 0.0
Mg210 Mg 0.11105 0.71833 0.98492 0.0
O211 O 0.10335 0.75768 0.03327 0.0
O212 O 0.10869 0.80273 1.00011 0.0
Mg213 Mg 0.12469 0.79107 0.92834 0.0
C214 C 0.10284 0.78655 0.03472 0.0
C215 C 0.08377 0.67208 0.05015 0.0
O216 O 0.06507 0.67104 0.01564 0.0
O217 O 0.16182 0.72484 0.99288 0.0
O218 O 0.16766 0.76977 0.95862 0.0
O219 O 0.06327 0.72258 0.96095 0.0
O220 O 0.10205 0.7465 0.93 0.0
C221 C 0.17838 0.74695 0.97998 0.0
C222 C 0.07329 0.74194 0.93178 0.0
O223 O 0.1078 0.68775 0.04669 0.0
Mg224 Mg 0.47454 0.86716 0.73662 0.0
O225 O 0.51036 0.85567 0.78966 0.0
O226 O 0.55732 0.86398 0.76469 0.0
Mg227 Mg 0.55099 0.88326 0.6933 0.0
C228 C 0.53901 0.85553 0.79553 0.0
C229 C 0.42453 0.83659 0.79307 0.0
O230 O 0.42644 0.81845 0.75802 0.0
O231 O 0.48104 0.91723 0.75196 0.0
O232 O 0.52756 0.92504 0.72404 0.0
O233 O 0.47863 0.82112 0.70599 0.0
O234 O 0.50682 0.86035 0.68602 0.0
C235 C 0.5035 0.93457 0.7435 0.0
C236 C 0.50077 0.83192 0.68244 0.0
O237 O 0.43958 0.86116 0.79278 0.0
Mg238 Mg 0.37628 0.22748 0.98859 0.0
O239 O 0.38668 0.26268 0.04298 0.0
O240 O 0.37959 0.30995 0.01829 0.0
Mg241 Mg 0.36255 0.30447 0.94536 0.0
C242 C 0.38692 0.29128 0.04939 0.0
C243 C 0.40348 0.17478 0.04341 0.0
O244 O 0.42114 0.17553 0.00774 0.0
O245 O 0.32571 0.23464 1.00066 0.0
O246 O 0.3198 0.28135 0.97235 0.0
O247 O 0.42336 0.23109 0.9608 0.0
O248 O 0.38507 0.25998 0.93899 0.0
C249 C 0.3091 0.25747 0.99084 0.0
C250 C 0.41347 0.25349 0.93679 0.0
O251 O 0.38023 0.19181 0.04422 0.0
Mg252 Mg 0.01381 0.12736 0.21651 0.0
O253 O 0.97921 0.13937 0.27073 0.0
O254 O 0.93152 0.13082 0.24941 0.0
Mg255 Mg 0.936 0.11146 0.17767 0.0
C256 C 0.95084 0.1395 0.27878 0.0
C257 C 0.05058 0.16091 0.2866 0.0
O258 O 0.03321 0.18141 0.26744 0.0
O259 O 0.0073 0.07741 0.23342 0.0
O260 O 0.96014 0.06999 0.20761 0.0
O261 O 0.00942 0.17304 0.18424 0.0
O262 O 0.98016 0.13398 0.16749 0.0
C263 C 0.98448 0.06028 0.22612 0.0
C264 C 0.98635 0.16229 0.16268 0.0
O265 O 0.04985 0.13388 0.27156 0.0
Mg266 Mg 0.11665 0.7737 0.4823 0.0
O267 O 0.10717 0.73511 0.53106 0.0
O268 O 0.11261 0.68955 0.49949 0.0
Mg269 Mg 0.13111 0.70004 0.4287 0.0
C270 C 0.10596 0.7063 0.53318 0.0
C271 C 0.08711 0.819 0.54712 0.0
O272 O 0.06877 0.8195 0.51217 0.0
O273 O 0.16736 0.76698 0.49286 0.0
O274 O 0.17359 0.72161 0.4602 0.0
O275 O 0.06937 0.76947 0.4565 0.0
O276 O 0.10832 0.74465 0.42767 0.0
C277 C 0.18409 0.74465 0.48123 0.0
C278 C 0.07952 0.74925 0.42877 0.0
O279 O 0.11195 0.80455 0.54386 0.0
Mg280 Mg 0.46997 0.12956 0.77275 0.0
O281 O 0.50983 0.13589 0.72536 0.0
O282 O 0.55463 0.13213 0.75966 0.0
Mg283 Mg 0.54206 0.11825 0.83225 0.0
C284 C 0.53867 0.1366 0.72433 0.0
C285 C 0.42463 0.15508 0.70442 0.0
O286 O 0.42271 0.17415 0.73836 0.0
O287 O 0.47703 0.07853 0.76838 0.0
O288 O 0.5216 0.07412 0.80417 0.0
O289 O 0.47373 0.17802 0.7932 0.0
O290 O 0.49715 0.14041 0.82852 0.0
C291 C 0.49917 0.06254 0.78291 0.0
C292 C 0.4922 0.169 0.82432 0.0
O293 O 0.44047 0.13122 0.70933 0.0
Mg294 Mg 0.11308 0.22849 0.02718 0.0
O295 O 0.10317 0.26508 0.97446 0.0
O296 O 0.11062 0.31163 1.00187 0.0
Mg297 Mg 0.12761 0.30439 0.07441 0.0
C298 C 0.10316 0.29384 0.96974 0.0
C299 C 0.08418 0.17913 0.96723 0.0
O300 O 0.06446 0.18163 1.0002 0.0
O301 O 0.16376 0.23529 0.01559 0.0
O302 O 0.17008 0.2813 0.04615 0.0
O303 O 0.06603 0.23242 0.05511 0.0
O304 O 0.10479 0.26011 0.07821 0.0
C305 C 0.18056 0.25772 0.0265 0.0
C306 C 0.07628 0.25423 0.0799 0.0
O307 O 0.10888 0.19386 0.96987 0.0
Mg308 Mg 0.0144 0.86493 0.26497 0.0
O309 O 0.97598 0.85757 0.21483 0.0
O310 O 0.93041 0.86374 0.24603 0.0
Mg311 Mg 0.9407 0.87953 0.31836 0.0
C312 C 0.94715 0.85754 0.21216 0.0
C313 C 0.0633 0.83736 0.20431 0.0
O314 O 0.06435 0.82017 0.24052 0.0
O315 O 0.00853 0.91597 0.25641 0.0
O316 O 0.96327 0.92208 0.28937 0.0
O317 O 0.00923 0.81718 0.2891 0.0
O318 O 0.98492 0.85623 0.31856 0.0
C319 C 0.98641 0.93273 0.26885 0.0
C320 C 0.98927 0.82741 0.3172 0.0
O321 O 0.04644 0.86073 0.20481 0.0
Mg322 Mg 0.37923 0.77128 0.53221 0.0
O323 O 0.39021 0.73251 0.48403 0.0
O324 O 0.3804 0.68681 0.51257 0.0
Mg325 Mg 0.36105 0.69705 0.5829 0.0
C326 C 0.38969 0.70373 0.48054 0.0
C327 C 0.41465 0.79998 0.45645 0.0
O328 O 0.43367 0.78228 0.47815 0.0
O329 O 0.32903 0.76497 0.5158 0.0
O330 O 0.32038 0.72001 0.54861 0.0
O331 O 0.42468 0.76764 0.56548 0.0
O332 O 0.3846 0.74116 0.58643 0.0
C333 C 0.31133 0.74314 0.52633 0.0
C334 C 0.41313 0.74655 0.59029 0.0
O335 O 0.38773 0.80265 0.47152 0.0
Mg336 Mg 0.52088 0.11988 0.26039 0.0
O337 O 0.48173 0.12799 0.21177 0.0
O338 O 0.43664 0.12248 0.24457 0.0
Mg339 Mg 0.44796 0.10635 0.31648 0.0
C340 C 0.45288 0.12856 0.21014 0.0
C341 C 0.56889 0.14663 0.19766 0.0
O342 O 0.57137 0.16331 0.23423 0.0
O343 O 0.51441 0.06885 0.25252 0.0
O344 O 0.46973 0.06334 0.2874 0.0
O345 O 0.51672 0.16772 0.28477 0.0
O346 O 0.49252 0.12901 0.31523 0.0
C347 C 0.49246 0.05234 0.26621 0.0
C348 C 0.49721 0.15777 0.31374 0.0
O349 O 0.5516 0.12362 0.19868 0.0
Mg350 Mg 0.60989 0.76184 0.02882 0.0
O351 O 0.60112 0.72486 0.97666 0.0
O352 O 0.60802 0.67843 0.00485 0.0
Mg353 Mg 0.62368 0.68627 0.07784 0.0
C354 C 0.60125 0.6961 0.97224 0.0
C355 C 0.58146 0.81055 0.96772 0.0
O356 O 0.56218 0.80904 1.00138 0.0
O357 O 0.66053 0.75477 0.01889 0.0
O358 O 0.66668 0.70887 0.05008 0.0
O359 O 0.56252 0.75806 0.05472 0.0
O360 O 0.60099 0.73071 0.08018 0.0
C361 C 0.67726 0.73236 0.03031 0.0
C362 C 0.57245 0.73658 0.08044 0.0
O363 O 0.6061 0.79567 0.97046 0.0
Mg364 Mg 0.97089 0.85714 0.77534 0.0
O365 O 0.00928 0.84882 0.7255 0.0
O366 O 0.05506 0.85533 0.75596 0.0
Mg367 Mg 0.04535 0.87007 0.82894 0.0
C368 C 0.03809 0.849 0.72236 0.0
C369 C 0.92608 0.82752 0.70909 0.0
O370 O 0.92792 0.80753 0.74182 0.0
O371 O 0.9783 0.90811 0.7662 0.0
O372 O 0.0234 0.91304 0.80037 0.0
O373 O 0.97438 0.80959 0.80163 0.0
O374 O 0.00061 0.84812 0.82883 0.0
C375 C 0.00069 0.9243 0.77937 0.0
C376 C -0.00511 0.8196 0.8289 0.0
O377 O 0.93902 0.85307 0.71425 0.0
Mg378 Mg 0.88156 0.2217 0.52462 0.0
O379 O 0.88861 0.2601 0.47435 0.0
O380 O 0.87923 0.30563 0.50415 0.0
Mg381 Mg 0.86339 0.29561 0.57641 0.0
C382 C 0.88709 0.28889 0.47104 0.0
C383 C 0.91412 0.18077 0.456 0.0
O384 O 0.93552 0.18703 0.48535 0.0
O385 O 0.83052 0.22611 0.51394 0.0
O386 O 0.82227 0.2712 0.54649 0.0
O387 O 0.92863 0.22774 0.55166 0.0
O388 O 0.88872 0.25259 0.57731 0.0
C389 C 0.81281 0.24764 0.52571 0.0
C390 C 0.91757 0.24853 0.57752 0.0
O391 O 0.8872 0.18952 0.46428 0.0
Mg392 Mg 0.51896 0.85627 0.2222 0.0
O393 O 0.48376 0.84445 0.27579 0.0
O394 O 0.43647 0.85417 0.25352 0.0
Mg395 Mg 0.44176 0.87286 0.18154 0.0
C396 C 0.4553 0.84494 0.28324 0.0
C397 C 0.55223 0.85921 0.31622 0.0
O398 O 0.53107 0.8795 0.32415 0.0
O399 O 0.51292 0.90661 0.23816 0.0
O400 O 0.46608 0.91424 0.21104 0.0
O401 O 0.51441 0.81055 0.19102 0.0
O402 O 0.48592 0.85008 0.1727 0.0
C403 C 0.4903 0.9239 0.22987 0.0
C404 C 0.49188 0.82166 0.16843 0.0
O405 O 0.55483 0.84825 0.27668 0.0
Mg406 Mg 0.87108 0.76532 0.98447 0.0
O407 O 0.88408 0.73001 0.03749 0.0
O408 O 0.87768 0.68271 0.01274 0.0
Mg409 Mg 0.85886 0.6882 0.9408 0.0
C410 C 0.88527 0.70141 0.04361 0.0
C411 C 0.89906 0.81634 0.04178 0.0
O412 O 0.91736 0.81546 0.00686 0.0
O413 O 0.8214 0.75633 0.9993 0.0
O414 O 0.8158 0.70965 0.97065 0.0
O415 O 0.91726 0.76343 0.95358 0.0
O416 O 0.87921 0.73363 0.93369 0.0
C417 C 0.80511 0.73319 0.99019 0.0
C418 C 0.90724 0.74106 0.92969 0.0
O419 O 0.87518 0.80026 0.041 0.0
Mg420 Mg 0.97988 0.1207 0.73558 0.0
O421 O 0.01518 0.13046 0.78998 0.0
O422 O 0.06226 0.12195 0.76577 0.0
Mg423 Mg 0.05629 0.10287 0.69415 0.0
C424 C 0.04376 0.13028 0.79644 0.0
C425 C 0.92927 0.15207 0.78996 0.0
O426 O 0.93222 0.17019 0.75505 0.0
O427 O 0.98423 0.07012 0.74956 0.0
O428 O 0.03106 0.06176 0.72319 0.0
O429 O 0.9868 0.16694 0.70697 0.0
O430 O 0.01268 0.12665 0.68523 0.0
C431 C 0.00649 0.05243 0.74134 0.0
C432 C 0.00824 0.15542 0.68263 0.0
O433 O 0.94423 0.12741 0.79061 0.0
Mg434 Mg 0.61724 0.21762 0.48888 0.0
O435 O 0.60996 0.25599 0.53884 0.0
O436 O 0.61602 0.30169 0.50802 0.0
Mg437 Mg 0.63201 0.29146 0.43584 0.0
C438 C 0.60984 0.2848 0.54174 0.0
C439 C 0.58922 0.17011 0.55178 0.0
O440 O 0.57132 0.16916 0.51633 0.0
O441 O 0.66828 0.22314 0.49748 0.0
O442 O 0.67435 0.26863 0.46513 0.0
O443 O 0.56948 0.22322 0.46482 0.0
O444 O 0.60855 0.24732 0.43527 0.0
C445 C 0.68499 0.24536 0.48544 0.0
C446 C 0.57971 0.24328 0.43689 0.0
O447 O 0.61315 0.18606 0.54971 0.0
C448 C 0.01626 0.27962 0.16228 0.0
C449 C 0.01821 0.31133 0.1583 0.0
H450 H 0.03403 0.23662 0.14103 0.0
C451 C 0.03872 0.32389 0.12724 0.0
H452 H 0.00072 0.26928 0.18599 0.0
C453 C 0.05736 0.3052 0.1014 0.0
C454 C 0.05572 0.27364 0.10591 0.0
H455 H 0.04043 0.34819 0.12278 0.0
H456 H 0.07282 0.31547 0.07759 0.0
C457 C 0.03499 0.26092 0.13629 0.0
C458 C 0.95099 0.81874 0.37765 0.0
C459 C 0.96994 0.80685 0.34387 0.0
H460 H 0.91763 0.80945 0.42816 0.0
C461 C 0.96959 0.77549 0.33539 0.0
H462 H 0.95098 0.84274 0.38538 0.0
C463 C 0.95026 0.75652 0.35988 0.0
C464 C 0.9314 0.76857 0.39344 0.0
H465 H 0.9838 0.7657 0.30939 0.0
H466 H 0.9495 0.73258 0.3519 0.0
C467 C 0.93183 0.79976 0.40211 0.0
C468 C 0.47174 0.71672 0.67189 0.0
C469 C 0.47219 0.68577 0.66052 0.0
H470 H 0.45146 0.76022 0.65935 0.0
C471 C 0.45283 0.67518 0.62631 0.0
H472 H 0.48626 0.72551 0.69834 0.0
C473 C 0.43328 0.69502 0.60413 0.0
C474 C 0.43287 0.72582 0.6154 0.0
H475 H 0.45288 0.65157 0.61631 0.0
H476 H 0.41895 0.68632 0.57753 0.0
C477 C 0.45208 0.7366 0.6495 0.0
C478 C 0.53154 0.20897 0.8293 0.0
C479 C 0.50992 0.19071 0.85066 0.0
H480 H 0.56742 0.24124 0.83815 0.0
C481 C 0.50648 0.19209 0.89767 0.0
H482 H 0.53463 0.20786 0.79304 0.0
C483 C 0.52433 0.2119 0.92314 0.0
C484 C 0.54662 0.22948 0.90196 0.0
H485 H 0.48994 0.17795 0.91458 0.0
H486 H 0.52154 0.21261 0.95947 0.0
C487 C 0.55018 0.2279 0.85495 0.0
C488 C 0.05085 0.68935 0.34825 0.0
C489 C 0.01981 0.68909 0.35805 0.0
H490 H 0.09402 0.70918 0.36221 0.0
C491 C 0.00823 0.70897 0.39062 0.0
H492 H 0.06016 0.67431 0.32295 0.0
C493 C 0.02749 0.72913 0.41304 0.0
C494 C 0.0587 0.72933 0.40348 0.0
H495 H 0.98448 0.70832 0.3996 0.0
H496 H 0.01804 0.74404 0.43846 0.0
C497 C 0.07014 0.70937 0.37065 0.0
C498 C 0.5252 0.77279 0.59819 0.0
C499 C 0.55687 0.7732 0.60353 0.0
H500 H 0.48271 0.7922 0.61825 0.0
C501 C 0.56981 0.79297 0.63539 0.0
H502 H 0.51454 0.75795 0.57374 0.0
C503 C 0.55152 0.81223 0.66095 0.0
C504 C 0.52 0.81182 0.65541 0.0
H505 H 0.59408 0.79354 0.64078 0.0
H506 H 0.562 0.82706 0.68553 0.0
C507 C 0.50694 0.79208 0.62388 0.0
C508 C 0.43095 0.30359 0.90866 0.0
C509 C 0.43417 0.27201 0.90945 0.0
H510 H 0.44625 0.34555 0.88131 0.0
C511 C 0.45646 0.25827 0.88259 0.0
H512 H 0.41455 0.31482 0.92998 0.0
C513 C 0.47473 0.2759 0.85425 0.0
C514 C 0.47099 0.30754 0.85273 0.0
H515 H 0.45902 0.23387 0.88244 0.0
H516 H 0.49139 0.26475 0.83318 0.0
C517 C 0.44924 0.32119 0.88077 0.0
C518 C 0.91552 0.20019 0.11924 0.0
C519 C 0.92742 0.22122 0.08835 0.0
H520 H 0.92498 0.1653 0.16736 0.0
C521 C 0.959 0.22284 0.08242 0.0
H522 H 0.89135 0.19869 0.12512 0.0
C523 C 0.9782 0.20352 0.10659 0.0
C524 C 0.96617 0.18244 0.1371 0.0
H525 H 0.96887 0.23873 0.05875 0.0
H526 H 0.00237 0.20449 0.10063 0.0
C527 C 0.93473 0.18092 0.14329 0.0
C528 C 0.96309 0.7186 0.8395 0.0
C529 C 0.96551 0.68722 0.84696 0.0
H530 H 0.94161 0.76019 0.85949 0.0
C531 C 0.94914 0.674 0.88259 0.0
H532 H 0.97527 0.72939 0.81215 0.0
C533 C 0.93031 0.69166 0.90971 0.0
C534 C 0.92775 0.72284 0.90194 0.0
H535 H 0.95079 0.64995 0.88955 0.0
H536 H 0.9179 0.68097 0.9369 0.0
C537 C 0.94412 0.73625 0.8667 0.0
C538 C 0.04294 0.22458 0.62746 0.0
C539 C 0.06538 0.21143 0.60023 0.0
H540 H 0.00808 0.21698 0.67652 0.0
C541 C 0.0689 0.17983 0.60012 0.0
H542 H 0.03994 0.24896 0.62823 0.0
C543 C 0.05026 0.16161 0.62677 0.0
C544 C 0.02806 0.17472 0.65462 0.0
H545 H 0.08552 0.16906 0.57868 0.0
H546 H 0.05315 0.13726 0.62522 0.0
C547 C 0.02471 0.20637 0.6549 0.0
C548 C 0.57106 0.2834 0.37889 0.0
C549 C 0.55915 0.26334 0.41122 0.0
H550 H 0.56186 0.31853 0.33095 0.0
C551 C 0.52776 0.26339 0.41942 0.0
H552 H 0.59505 0.28362 0.37123 0.0
C553 C 0.50881 0.2835 0.39616 0.0
C554 C 0.52093 0.30361 0.36431 0.0
H555 H 0.51791 0.2483 0.44423 0.0
H556 H 0.48481 0.28384 0.40377 0.0
C557 C 0.55213 0.30346 0.35586 0.0
C558 C 0.44049 0.80204 0.15141 0.0
C559 C 0.47166 0.80187 0.1426 0.0
H560 H 0.39712 0.7837 0.13479 0.0
C561 C 0.48325 0.7829 0.10883 0.0
H562 H 0.43116 0.81635 0.17763 0.0
C563 C 0.46387 0.76393 0.08442 0.0
C564 C 0.43256 0.7641 0.09314 0.0
H565 H 0.50715 0.78329 0.10063 0.0
H566 H 0.47334 0.74957 0.05832 0.0
C567 C 0.42109 0.78327 0.12696 0.0
C568 C 0.97799 0.27775 0.65635 0.0
C569 C 0.97451 0.30926 0.6516 0.0
H570 H 0.96258 0.23361 0.63574 0.0
C571 C 0.95277 0.32047 0.62115 0.0
H572 H 0.99449 0.26858 0.6797 0.0
C573 C 0.93424 0.30062 0.59711 0.0
C574 C 0.93754 0.26922 0.60228 0.0
H575 H 0.94996 0.34457 0.61582 0.0
H576 H 0.91769 0.30987 0.57394 0.0
C577 C 0.95984 0.25784 0.63142 0.0
C578 C 0.45969 0.16685 0.37512 0.0
C579 C 0.47856 0.17858 0.34115 0.0
H580 H 0.42641 0.17635 0.42567 0.0
C581 C 0.47861 0.21 0.33304 0.0
H582 H 0.45942 0.14283 0.38268 0.0
C583 C 0.45955 0.22914 0.3578 0.0
C584 C 0.4405 0.21718 0.39117 0.0
H585 H 0.49281 0.21968 0.30696 0.0
H586 H 0.45899 0.2531 0.34991 0.0
C587 C 0.44075 0.18597 0.39975 0.0
C588 C 0.53001 0.66781 0.12037 0.0
C589 C 0.51277 0.67987 0.15599 0.0
H590 H 0.56256 0.67666 0.06837 0.0
C591 C 0.5147 0.71102 0.16558 0.0
H592 H 0.52881 0.64395 0.11194 0.0
C593 C 0.53414 0.72957 0.14074 0.0
C594 C 0.55148 0.71734 0.10563 0.0
H595 H 0.50192 0.72092 0.1931 0.0
H596 H 0.53634 0.75323 0.14984 0.0
C597 C 0.54932 0.68642 0.09549 0.0
C598 C 0.04488 0.79595 0.84257 0.0
C599 C 0.01428 0.79873 0.85418 0.0
H600 H 0.08753 0.77539 0.85789 0.0
C601 C 0.00278 0.78246 0.89097 0.0
H602 H 0.05411 0.80842 0.81428 0.0
C603 C 0.02173 0.76319 0.91571 0.0
C604 C 0.05256 0.76062 0.90444 0.0
H605 H 0.97945 0.78532 0.90134 0.0
H606 H 0.01246 0.75104 0.94432 0.0
C607 C 0.0639 0.77705 0.86751 0.0
C608 C 0.08453 0.33795 0.34282 0.0
C609 C 0.05399 0.3469 0.3394 0.0
H610 H 0.11929 0.31876 0.38481 0.0
C611 C 0.03563 0.3455 0.37809 0.0
H612 H 0.09929 0.33883 0.31367 0.0
C613 C 0.04712 0.33443 0.41877 0.0
C614 C 0.07722 0.32416 0.42182 0.0
H615 H 0.0121 0.35255 0.37689 0.0
H616 H 0.03199 0.33304 0.44747 0.0
C617 C 0.096 0.32653 0.38361 0.0
C618 C 0.89686 0.77763 0.61488 0.0
C619 C 0.89562 0.79775 0.57812 0.0
H620 H 0.90663 0.77137 0.68478 0.0
C621 C 0.90284 0.82845 0.58535 0.0
H622 H 0.89122 0.7539 0.61077 0.0
C623 C 0.91197 0.83855 0.62817 0.0
C624 C 0.91365 0.8182 0.66467 0.0
H625 H 0.90204 0.84455 0.55775 0.0
H626 H 0.91818 0.86212 0.63249 0.0
C627 C 0.90554 0.78775 0.65757 0.0
C628 C 0.39321 0.6583 0.87292 0.0
C629 C 0.4105 0.65583 0.91272 0.0
H630 H 0.39186 0.65203 0.80109 0.0
C631 C 0.43945 0.64264 0.91048 0.0
H632 H 0.3708 0.66833 0.87356 0.0
C633 C 0.45159 0.63376 0.86911 0.0
C634 C 0.43493 0.63747 0.82902 0.0
H635 H 0.45337 0.6403 0.94043 0.0
H636 H 0.47437 0.62456 0.86848 0.0
C637 C 0.40526 0.649 0.83143 0.0
C638 C 0.60142 0.2003 0.11122 0.0
C639 C 0.59576 0.18498 0.07048 0.0
H640 H 0.59823 0.1999 0.18305 0.0
C641 C 0.58395 0.15541 0.07203 0.0
H642 H 0.61093 0.22294 0.11126 0.0
C643 C 0.57637 0.14216 0.11356 0.0
C644 C 0.58091 0.15811 0.1542 0.0
H645 H 0.57945 0.14304 0.04116 0.0
H646 H 0.56608 0.11987 0.11373 0.0
C647 C 0.5943 0.18696 0.15251 0.0
C648 C 0.03328 0.64234 0.14275 0.0
C649 C 0.05201 0.64474 0.18099 0.0
H650 H 0.02884 0.64827 0.0716 0.0
C651 C 0.0823 0.65387 0.17538 0.0
H652 H 0.00994 0.63498 0.14579 0.0
C653 C 0.09317 0.66175 0.13253 0.0
C654 C 0.07405 0.66019 0.09453 0.0
H655 H 0.09729 0.65581 0.20422 0.0
H656 H 0.11628 0.66974 0.12935 0.0
C657 C 0.04421 0.64976 0.10006 0.0
C658 C 0.58018 0.8154 0.3504 0.0
C659 C 0.56851 0.84496 0.35448 0.0
H660 H 0.59968 0.77709 0.38415 0.0
C661 C 0.56974 0.85941 0.39671 0.0
H662 H 0.57935 0.80353 0.31841 0.0
C663 C 0.58173 0.84436 0.4343 0.0
C664 C 0.59216 0.81432 0.43064 0.0
H665 H 0.56086 0.88215 0.40092 0.0
H666 H 0.58183 0.85591 0.46658 0.0
C667 C 0.59161 0.80014 0.38815 0.0
C668 C 0.40002 0.3238 0.61272 0.0
C669 C 0.42038 0.32239 0.57622 0.0
H670 H 0.39388 0.33395 0.68305 0.0
C671 C 0.45052 0.33162 0.58306 0.0
H672 H 0.37667 0.31676 0.6086 0.0
C673 C 0.46042 0.34093 0.62556 0.0
C674 C 0.44039 0.34165 0.66242 0.0
H675 H 0.46687 0.33086 0.55583 0.0
H676 H 0.48397 0.34739 0.62952 0.0
C677 C 0.4099 0.33353 0.65538 0.0
C678 C 0.91095 0.14452 0.86958 0.0
C679 C 0.91309 0.16277 0.83076 0.0
H680 H 0.89842 0.142 0.93944 0.0
C681 C 0.90202 0.19263 0.83249 0.0
H682 H 0.91927 0.1214 0.86935 0.0
C683 C 0.89048 0.20449 0.87261 0.0
C684 C 0.88937 0.18669 0.91193 0.0
H685 H 0.90323 0.20734 0.80325 0.0
H686 H 0.8829 0.22787 0.87294 0.0
C687 C 0.89904 0.15632 0.90975 0.0
C688 C 0.88851 0.66029 0.68397 0.0
C689 C 0.91801 0.64876 0.67846 0.0
H690 H 0.85041 0.68205 0.65261 0.0
C691 C 0.93058 0.64785 0.63492 0.0
H692 H 0.87821 0.66131 0.71711 0.0
C693 C 0.91444 0.65915 0.59792 0.0
C694 C 0.88558 0.67216 0.60373 0.0
H695 H 0.95315 0.63886 0.6295 0.0
H696 H 0.92523 0.6589 0.56509 0.0
C697 C 0.87257 0.67215 0.64703 0.0
C698 C 0.07136 0.19994 0.3386 0.0
C699 C 0.06777 0.16917 0.32769 0.0
H700 H 0.08619 0.23256 0.38679 0.0
C701 C 0.07838 0.14709 0.35811 0.0
H702 H 0.06361 0.21755 0.31582 0.0
C703 C 0.09133 0.15576 0.39944 0.0
C704 C 0.09396 0.18664 0.41089 0.0
H705 H 0.07577 0.12319 0.35067 0.0
H706 H 0.09869 0.13829 0.42272 0.0
C707 C 0.0843 0.20856 0.37952 0.0
C708 C 0.59083 0.32552 0.13224 0.0
C709 C 0.57076 0.32633 0.09528 0.0
H710 H 0.59677 0.33298 0.20336 0.0
C711 C 0.54092 0.33644 0.10221 0.0
H712 H 0.61396 0.31777 0.12799 0.0
C713 C 0.53101 0.34459 0.14518 0.0
C714 C 0.55078 0.34327 0.18237 0.0
H715 H 0.5248 0.33731 0.07461 0.0
H716 H 0.50769 0.35184 0.14921 0.0
C717 C 0.58098 0.33415 0.17538 0.0
C718 C 0.38935 0.78367 0.87841 0.0
C719 C 0.39012 0.80112 0.9181 0.0
H720 H 0.39883 0.7814 0.80787 0.0
C721 C 0.39967 0.83148 0.91551 0.0
H722 H 0.38175 0.76032 0.87906 0.0
C723 C 0.4097 0.84362 0.87443 0.0
C724 C 0.41 0.8257 0.83512 0.0
H725 H 0.40043 0.84554 0.94547 0.0
H726 H 0.41805 0.8667 0.87378 0.0
C727 C 0.39899 0.79586 0.83743 0.0
C728 C 0.93921 0.3429 0.9075 0.0
C729 C 0.90975 0.33089 0.90917 0.0
H730 H 0.97468 0.36082 0.86648 0.0
C731 C 0.8924 0.32999 0.8693 0.0
H732 H 0.95322 0.34397 0.93752 0.0
C733 C 0.90472 0.33991 0.82833 0.0
C734 C 0.93474 0.3505 0.82645 0.0
H735 H 0.86961 0.32086 0.8695 0.0
H736 H 0.89114 0.3383 0.79794 0.0
C737 C 0.95161 0.35239 0.86663 0.0
C738 C 0.40264 0.19389 0.65268 0.0
C739 C 0.41333 0.1642 0.65931 0.0
H740 H 0.38775 0.22747 0.60578 0.0
C741 C 0.41551 0.1447 0.62184 0.0
H742 H 0.40069 0.20958 0.68067 0.0
C743 C 0.4078 0.155 0.57851 0.0
C744 C 0.39826 0.18511 0.57187 0.0
H745 H 0.42375 0.12171 0.62584 0.0
H746 H 0.4101 0.13969 0.55013 0.0
C747 C 0.39542 0.20426 0.60955 0.0
C748 C 0.57072 0.66374 0.39511 0.0
C749 C 0.59785 0.67923 0.3857 0.0
H750 H 0.5333 0.63844 0.36888 0.0
C751 C 0.60925 0.67873 0.34141 0.0
H752 H 0.56123 0.66367 0.42882 0.0
C753 C 0.59332 0.66381 0.30701 0.0
C754 C 0.56545 0.64962 0.31617 0.0
H755 H 0.63009 0.69042 0.33311 0.0
H756 H 0.60222 0.66444 0.27296 0.0
C757 C 0.55459 0.64936 0.3607 0.0
C758 C 0.08406 0.83101 0.08021 0.0
C759 C 0.09529 0.80119 0.07827 0.0
H760 H 0.06503 0.86602 0.1218 0.0
C761 C 0.0984 0.78468 0.11859 0.0
H762 H 0.08148 0.84431 0.04971 0.0
C763 C 0.08949 0.79718 0.15971 0.0
C764 C 0.07683 0.8264 0.16156 0.0
H765 H 0.10735 0.76178 0.11839 0.0
H766 H 0.09155 0.7834 0.18983 0.0
C767 C 0.0747 0.84344 0.12149 0.0
C768 C 0.59173 0.8262 0.88739 0.0
C769 C 0.57204 0.82486 0.92466 0.0
H770 H 0.59683 0.83712 0.81717 0.0
C771 C 0.54203 0.83499 0.91942 0.0
H772 H 0.61498 0.8185 0.89031 0.0
C773 C 0.53157 0.84511 0.87762 0.0
C774 C 0.55094 0.84579 0.84001 0.0
H775 H 0.52619 0.83426 0.94732 0.0
H776 H 0.50812 0.85222 0.87477 0.0
C777 C 0.58133 0.83678 0.84549 0.0
C778 C 0.40532 0.29263 0.1742 0.0
C779 C 0.41445 0.3228 0.18101 0.0
H780 H 0.38982 0.2591 0.12767 0.0
C781 C 0.413 0.34316 0.14448 0.0
H782 H 0.4061 0.27628 0.20148 0.0
C783 C 0.40345 0.33324 0.10178 0.0
C784 C 0.39551 0.30271 0.09473 0.0
H785 H 0.41997 0.36655 0.14857 0.0
H786 H 0.4031 0.34927 0.07407 0.0
C787 C 0.39615 0.28268 0.13165 0.0
C788 C 0.90082 0.16351 0.37724 0.0
C789 C 0.92249 0.16792 0.4115 0.0
H790 H 0.89267 0.15105 0.30821 0.0
C791 C 0.95314 0.16214 0.4019 0.0
H792 H 0.87703 0.1679 0.38352 0.0
C793 C 0.96209 0.15296 0.35894 0.0
C794 C 0.94062 0.14902 0.32432 0.0
H795 H 0.9705 0.16531 0.42736 0.0
H796 H 0.986 0.14907 0.35293 0.0
C797 C 0.90979 0.154 0.33407 0.0
C798 C 0.09776 0.70918 0.6163 0.0
C799 C 0.09569 0.69248 0.57601 0.0
H800 H 0.08724 0.71165 0.68649 0.0
C801 C 0.08226 0.6636 0.57699 0.0
H802 H 0.10823 0.7314 0.61677 0.0
C803 C 0.06984 0.65233 0.61716 0.0
C804 C 0.07108 0.66957 0.6571 0.0
H805 H 0.08032 0.65025 0.54644 0.0
H806 H 0.0587 0.63046 0.61669 0.0
C807 C 0.08581 0.69778 0.65638 0.0
C808 C 0.59555 0.16155 0.63543 0.0
C809 C 0.57851 0.15789 0.59556 0.0
H810 H 0.59641 0.15754 0.70773 0.0
C811 C 0.54941 0.14515 0.59845 0.0
H812 H 0.61804 0.17134 0.63434 0.0
C813 C 0.53698 0.13774 0.64023 0.0
C814 C 0.55341 0.1425 0.6803 0.0
H815 H 0.53565 0.1419 0.56853 0.0
H816 H 0.51415 0.1287 0.64111 0.0
C817 C 0.58316 0.15373 0.67745 0.0
C818 C 0.07619 0.34817 0.87833 0.0
C819 C 0.07633 0.32927 0.84007 0.0
H820 H 0.08476 0.35189 0.94949 0.0
C821 C 0.08662 0.29925 0.84465 0.0
H822 H 0.06833 0.37139 0.87593 0.0
C823 C 0.09548 0.28801 0.88665 0.0
C824 C 0.09472 0.30659 0.92516 0.0
H825 H 0.08701 0.284 0.816 0.0
H826 H 0.10276 0.26458 0.88893 0.0
C827 C 0.08553 0.33699 0.92045 0.0
C828 C 0.8914 0.8297 0.12359 0.0
C829 C 0.9093 0.83072 0.08432 0.0
H830 H 0.88923 0.83757 0.19505 0.0
C831 C 0.9387 0.8428 0.08711 0.0
H832 H 0.86865 0.8205 0.12256 0.0
C833 C 0.95055 0.85209 0.1285 0.0
C834 C 0.9332 0.84991 0.16812 0.0
H835 H 0.95312 0.84403 0.0576 0.0
H836 H 0.97361 0.8605 0.12951 0.0
C837 C 0.90319 0.8394 0.16511 0.0
C838 C 0.39961 0.70798 0.39799 0.0
C839 C 0.39934 0.69009 0.43724 0.0
H840 H 0.40928 0.7105 0.32759 0.0
C841 C 0.40852 0.6596 0.4344 0.0
H842 H 0.39247 0.73149 0.39889 0.0
C843 C 0.41858 0.64755 0.39324 0.0
C844 C 0.41904 0.66565 0.35414 0.0
H845 H 0.40856 0.64528 0.46412 0.0
H846 H 0.42618 0.6242 0.3921 0.0
C847 C 0.40908 0.69585 0.35694 0.0
C848 C 0.4087 0.14885 0.16545 0.0
C849 C 0.43836 0.13718 0.16689 0.0
H850 H 0.37421 0.16996 0.12507 0.0
C851 C 0.45497 0.13518 0.12654 0.0
H852 H 0.39532 0.15061 0.19597 0.0
C853 C 0.44282 0.14581 0.08604 0.0
C854 C 0.41386 0.15908 0.08489 0.0
H855 H 0.47775 0.12595 0.12634 0.0
H856 H 0.45672 0.1447 0.05597 0.0
C857 C 0.39662 0.15989 0.12483 0.0
C858 C 0.58834 0.69045 0.84639 0.0
C859 C 0.57733 0.66074 0.84157 0.0
H860 H 0.60413 0.72487 0.89126 0.0
C861 C 0.57576 0.642 0.87994 0.0
H862 H 0.58984 0.70555 0.81764 0.0
C863 C 0.58423 0.65311 0.92245 0.0
C864 C 0.59396 0.68328 0.92737 0.0
H865 H 0.56733 0.61901 0.87733 0.0
H866 H 0.58228 0.6384 0.95158 0.0
C867 C 0.59633 0.70164 0.88876 0.0
C868 C 0.08237 0.83458 0.6731 0.0
C869 C 0.05174 0.84291 0.67761 0.0
H870 H 0.11779 0.82046 0.62811 0.0
C871 C 0.0338 0.8455 0.63856 0.0
H872 H 0.0968 0.83252 0.70256 0.0
C873 C 0.04587 0.83919 0.59613 0.0
C874 C 0.07612 0.8297 0.59159 0.0
H875 H 0.01022 0.85227 0.64068 0.0
H876 H 0.03108 0.84087 0.56702 0.0
C877 C 0.09441 0.82781 0.63047 0.0
C878 C 0.8935 0.28509 0.38763 0.0
C879 C 0.89448 0.30282 0.42701 0.0
H880 H 0.90179 0.28262 0.3168 0.0
C881 C 0.90328 0.33337 0.42376 0.0
H882 H 0.88645 0.26157 0.38886 0.0
C883 C 0.91235 0.34547 0.38219 0.0
C884 C 0.91233 0.32733 0.34311 0.0
H885 H 0.90416 0.3476 0.45353 0.0
H886 H 0.92013 0.36874 0.38092 0.0
C887 C 0.9021 0.29725 0.34616 0.0
C888 C 0.46518 0.82422 0.36038 0.0
C889 C 0.4443 0.83476 0.3281 0.0
H890 H 0.47219 0.80553 0.42592 0.0
C891 C 0.41329 0.83546 0.33943 0.0
H892 H 0.48925 0.82354 0.35319 0.0
C893 C 0.40344 0.82519 0.3818 0.0
C894 C 0.42441 0.81392 0.4134 0.0
H895 H 0.39662 0.84362 0.31546 0.0
H896 H 0.37942 0.82532 0.38932 0.0
C897 C 0.45537 0.81392 0.40232 0.0
C898 C 0.91273 0.64946 0.13796 0.0
C899 C 0.9142 0.66971 0.1746 0.0
H900 H 0.90239 0.6435 0.06765 0.0
C901 C 0.90511 0.69994 0.16796 0.0
H902 H 0.91968 0.62605 0.14191 0.0
C903 C 0.89572 0.70998 0.12555 0.0
C904 C 0.8948 0.69001 0.08859 0.0
H905 H 0.90595 0.71622 0.19531 0.0
H906 H 0.88929 0.73357 0.12178 0.0
C907 C 0.90295 0.65949 0.09539 0.0
C908 C 0.09546 0.16142 0.88814 0.0
C909 C 0.07538 0.16353 0.92488 0.0
H910 H 0.10134 0.14903 0.81861 0.0
C911 C 0.04558 0.15284 0.91962 0.0
H912 H 0.11857 0.16948 0.8911 0.0
C913 C 0.03566 0.14158 0.87816 0.0
C914 C 0.05536 0.14035 0.84096 0.0
H915 H 0.02948 0.15405 0.94713 0.0
H916 H 0.01232 0.13421 0.87517 0.0
C917 C 0.08559 0.14975 0.84662 0.0
C918 C 0.59159 0.32863 0.58885 0.0
C919 C 0.6018 0.2985 0.58573 0.0
H920 H 0.57232 0.36302 0.6312 0.0
C921 C 0.60306 0.28075 0.62511 0.0
H922 H 0.59045 0.34289 0.55912 0.0
C923 C 0.5931 0.29232 0.66629 0.0
C924 C 0.58129 0.32184 0.66907 0.0
H925 H 0.6112 0.25757 0.62403 0.0
H926 H 0.59358 0.27761 0.69557 0.0
C927 C 0.58126 0.34015 0.63014 0.0
C928 C 0.97471 0.48319 0.25951 0.0
C929 C 0.00233 0.46758 0.25481 0.0
H930 H 0.95297 0.52601 0.2717 0.0
C931 C 0.02964 0.48354 0.2599 0.0
H932 H 0.95333 0.47143 0.25548 0.0
C933 C 0.02943 0.5144 0.26964 0.0
C934 C 0.00192 0.53021 0.2738 0.0
H935 H 0.05128 0.47212 0.25662 0.0
H936 H 0.05095 0.52597 0.27339 0.0
C937 C 0.9745 0.51439 0.26845 0.0
C938 C 0.75886 0.72496 0.49132 0.0
C939 C 0.7753 0.75221 0.48869 0.0
H940 H 0.71533 0.70426 0.50183 0.0
C941 C 0.76008 0.77982 0.49532 0.0
H942 H 0.77003 0.70337 0.48603 0.0
C943 C 0.72919 0.7803 0.50467 0.0
C944 C 0.71257 0.75322 0.50698 0.0
H945 H 0.77211 0.8012 0.49362 0.0
H946 H 0.71827 0.80204 0.50985 0.0
C947 C 0.72759 0.72548 0.49992 0.0
C948 C 0.51613 0.47716 0.7489 0.0
C949 C 0.48839 0.46153 0.75027 0.0
H950 H 0.53825 0.52014 0.74053 0.0
C951 C 0.46136 0.47749 0.7424 0.0
H952 H 0.53729 0.46537 0.75511 0.0
C953 C 0.46193 0.50847 0.73361 0.0
C954 C 0.48951 0.52436 0.7332 0.0
H955 H 0.43966 0.46602 0.74305 0.0
H956 H 0.4406 0.52006 0.72793 0.0
C957 C 0.51666 0.50846 0.7409 0.0
C958 C 0.7544 0.26901 0.99532 0.0
C959 C 0.7697 0.24107 0.99768 0.0
H960 H 0.71173 0.29163 0.98578 0.0
C961 C 0.75341 0.21416 0.99072 0.0
H962 H 0.76645 0.29008 1.00082 0.0
C963 C 0.72247 0.21507 0.9815 0.0
C964 C 0.70696 0.24287 0.97989 0.0
H965 H 0.76462 0.19231 0.99218 0.0
H966 H 0.71059 0.19385 0.97635 0.0
C967 C 0.72314 0.26989 0.98703 0.0
C968 C 0.01353 0.48491 0.74149 0.0
C969 C 0.98669 0.46788 0.73911 0.0
H970 H 0.03319 0.52902 0.75066 0.0
C971 C 0.95869 0.4825 0.74505 0.0
H972 H 0.03538 0.47414 0.73671 0.0
C973 C 0.95747 0.51349 0.75354 0.0
C974 C 0.98417 0.5307 0.75539 0.0
H975 H 0.93764 0.4699 0.74353 0.0
H976 H 0.93551 0.52405 0.75827 0.0
C977 C 0.01226 0.51624 0.74903 0.0
C978 C 0.26638 0.20453 0.47857 0.0
C979 C 0.28208 0.23222 0.47726 0.0
H980 H 0.22421 0.182 0.48898 0.0
C981 C 0.26602 0.25931 0.4847 0.0
H982 H 0.27805 0.18322 0.47309 0.0
C983 C 0.23478 0.25861 0.49324 0.0
C984 C 0.21932 0.23077 0.4953 0.0
H985 H 0.27752 0.28099 0.48362 0.0
H986 H 0.22289 0.27974 0.49923 0.0
C987 C 0.23547 0.20381 0.48776 0.0
C988 C 0.47634 0.50873 0.26364 0.0
C989 C 0.50354 0.52416 0.25466 0.0
H990 H 0.45541 0.46608 0.2793 0.0
C991 C 0.53101 0.50808 0.25574 0.0
H992 H 0.45483 0.52058 0.26267 0.0
C993 C 0.53138 0.47722 0.26583 0.0
C994 C 0.50422 0.4616 0.27409 0.0
H995 H 0.55231 0.51942 0.24901 0.0
H996 H 0.55297 0.46549 0.26654 0.0
C997 C 0.47665 0.47757 0.27274 0.0
C998 C 0.22699 0.71936 0.99564 0.0
C999 C 0.21104 0.74672 0.99026 0.0
H1000 H 0.27011 0.69832 0.00791 0.0
C1001 C 0.22668 0.77431 0.99402 0.0
H1002 H 0.21544 0.69778 0.99267 0.0
C1003 C 0.25761 0.77463 0.00332 0.0
C1004 C 0.2737 0.74735 0.00822 0.0
H1005 H 0.21495 0.79576 0.99023 0.0
H1006 H 0.26899 0.7963 0.0062 0.0
C1007 C 0.25821 0.71967 0.00403 0.0
C1008 C 0.47383 0.98218 0.75746 0.0
C1009 C 0.5018 0.96695 0.75564 0.0
H1010 H 0.45101 0.02473 0.76673 0.0
C1011 C 0.52859 0.98323 0.76369 0.0
H1012 H 0.45284 0.97017 0.75112 0.0
C1013 C 0.52753 0.01414 0.77319 0.0
C1014 C 0.49968 0.02962 0.774 0.0
H1015 H 0.55047 0.97205 0.76267 0.0
H1016 H 0.54865 0.02604 0.77902 0.0
C1017 C 0.4728 0.01338 0.76607 0.0
C1018 C 0.26041 0.2293 0.00431 0.0
C1019 C 0.27633 0.2568 1.00072 0.0
H1020 H 0.2172 0.20794 0.01438 0.0
C1021 C 0.26045 0.28424 0.00517 0.0
H1022 H 0.27208 0.20782 1.0007 0.0
C1023 C 0.2294 0.2843 0.0133 0.0
C1024 C 0.21332 0.25694 0.01655 0.0
H1025 H 0.27207 0.30581 0.0027 0.0
H1026 H 0.21795 0.30593 0.01673 0.0
C1027 C 0.22904 0.22937 0.01172 0.0
C1028 C 0.01346 0.01222 0.2409 0.0
C1029 C 0.98578 0.02799 0.2389 0.0
H1030 H 0.03544 0.96929 0.25117 0.0
C1031 C 0.95871 0.01232 0.24739 0.0
H1032 H 0.03465 0.02377 0.23425 0.0
C1033 C 0.95918 0.98152 0.25744 0.0
C1034 C 0.98669 0.96548 0.2586 0.0
H1035 H 0.93704 0.02389 0.24628 0.0
H1036 H 0.9378 0.97018 0.26361 0.0
C1037 C 0.01389 0.98108 0.25023 0.0
C1038 C 0.26364 0.77191 0.50842 0.0
C1039 C 0.27913 0.74421 0.51295 0.0
H1040 H 0.22097 0.79383 0.49574 0.0
C1041 C 0.26322 0.71698 0.50664 0.0
H1042 H 0.27536 0.79322 0.51341 0.0
C1043 C 0.23246 0.71733 0.49608 0.0
C1044 C 0.21672 0.7449 0.49239 0.0
H1045 H 0.2746 0.69529 0.50977 0.0
H1046 H 0.22091 0.69588 0.49147 0.0
C1047 C 0.23254 0.77225 0.49871 0.0
C1048 C 0.51986 0.00354 0.24963 0.0
C1049 C 0.49268 0.01939 0.25738 0.0
H1050 H 0.54057 0.9604 0.23587 0.0
C1051 C 0.46519 0.00337 0.25753 0.0
H1052 H 0.5414 0.0153 0.24968 0.0
C1053 C 0.46471 0.97233 0.24931 0.0
C1054 C 0.49174 0.95639 0.2414 0.0
H1055 H 0.44385 0.01491 0.26335 0.0
H1056 H 0.44304 0.96078 0.24909 0.0
C1057 C 0.51942 0.97215 0.24216 0.0
C1058 C 0.75654 0.76088 0.00563 0.0
C1059 C 0.77261 0.73347 1.00176 0.0
H1060 H 0.71341 0.78207 0.0169 0.0
C1061 C 0.75713 0.70595 0.0075 0.0
H1062 H 0.76791 0.78242 1.00108 0.0
C1063 C 0.72623 0.70576 0.017 0.0
C1064 C 0.70998 0.73308 0.02022 0.0
H1065 H 0.76894 0.68447 0.00484 0.0
H1066 H 0.71499 0.68412 0.02123 0.0
C1067 C 0.72537 0.76068 0.01433 0.0
C1068 C 0.97601 0.00508 0.7543 0.0
C1069 C 0.00419 0.0199 0.75243 0.0
H1070 H 0.95269 0.96276 0.76342 0.0
C1071 C 0.0308 0.00308 0.75948 0.0
H1072 H 0.95515 0.01752 0.74868 0.0
C1073 C 0.02938 0.97215 0.76824 0.0
C1074 C 0.00134 0.9571 0.76955 0.0
H1075 H 0.05285 0.01386 0.75837 0.0
H1076 H 0.05042 0.95993 0.77349 0.0
C1077 C 0.97461 0.97379 0.76235 0.0
C1078 C 0.73313 0.27277 0.49982 0.0
C1079 C 0.71767 0.24509 0.4959 0.0
H1080 H 0.77512 0.29511 0.51238 0.0
C1081 C 0.73383 0.21783 0.50127 0.0
H1082 H 0.7213 0.29417 0.49604 0.0
C1083 C 0.76506 0.21837 0.51 0.0
C1084 C 0.78029 0.2462 0.51447 0.0
H1085 H 0.72244 0.19618 0.49817 0.0
H1086 H 0.77715 0.19715 0.51403 0.0
C1087 C 0.76398 0.27332 0.50934 0.0
loop_
_geom_bond_atom_site_label_1
_geom_bond_atom_site_label_2
_geom_bond_distance
_geom_bond_site_symmetry_2
_ccdc_geom_bond_type
Mg0 O1 2.028 . S
Mg0 O7 1.986 . S
Mg0 O9 2.114 . S
Mg0 O10 2.251 . S
Mg0 O13 2.010 1_455 S
O1 Mg0 2.028 . S
O1 C4 1.250 . S
O2 Mg3 2.028 . S
O2 C4 1.248 . S
Mg3 O2 2.028 . S
Mg3 O8 2.032 . S
Mg3 O10 2.079 . S
C4 O1 1.250 . S
C4 O2 1.248 . S
C5 O6 1.264 . S
C5 O13 1.249 . S
O6 C5 1.264 . S
O7 Mg0 1.986 . S
O7 C11 1.246 . S
O8 Mg3 2.032 . S
O8 C11 1.259 . S
O9 Mg0 2.114 . S
O9 C12 1.252 . S
O10 Mg0 2.251 . S
O10 Mg3 2.079 . S
O10 C12 1.273 . S
C11 O7 1.246 . S
C11 O8 1.259 . S
C12 O9 1.252 . S
C12 O10 1.273 . S
O13 Mg0 2.010 1_655 S
O13 C5 1.249 . S
Mg14 O15 2.028 . S
Mg14 O21 1.986 . S
Mg14 O23 2.114 . S
Mg14 O24 2.251 . S
Mg14 O27 2.010 . S
O15 Mg14 2.028 . S
O15 C18 1.250 . S
O16 Mg17 2.028 . S
O16 C18 1.248 . S
Mg17 O16 2.028 . S
Mg17 O22 2.032 . S
Mg17 O24 2.079 . S
C18 O15 1.250 . S
C18 O16 1.248 . S
C19 O20 1.264 . S
C19 O27 1.249 . S
O20 C19 1.264 . S
O21 Mg14 1.986 . S
O21 C25 1.246 . S
O22 Mg17 2.032 . S
O22 C25 1.259 . S
O23 Mg14 2.114 . S
O23 C26 1.252 . S
O24 Mg14 2.251 . S
O24 Mg17 2.079 . S
O24 C26 1.273 . S
C25 O21 1.246 . S
C25 O22 1.259 . S
C26 O23 1.252 . S
C26 O24 1.273 . S
O27 Mg14 2.010 . S
O27 C19 1.249 . S
Mg28 O29 2.028 . S
Mg28 O35 1.986 . S
Mg28 O37 2.114 . S
Mg28 O38 2.251 . S
Mg28 O41 2.010 . S
O29 Mg28 2.028 . S
O29 C32 1.250 . S
O30 Mg31 2.028 . S
O30 C32 1.248 . S
Mg31 O30 2.028 . S
Mg31 O36 2.032 . S
Mg31 O38 2.079 . S
C32 O29 1.250 . S
C32 O30 1.248 . S
C33 O34 1.264 . S
C33 O41 1.249 . S
O34 C33 1.264 . S
O35 Mg28 1.986 . S
O35 C39 1.246 . S
O36 Mg31 2.032 . S
O36 C39 1.259 . S
O37 Mg28 2.114 . S
O37 C40 1.252 . S
O38 Mg28 2.251 . S
O38 Mg31 2.079 . S
O38 C40 1.273 . S
C39 O35 1.246 . S
C39 O36 1.259 . S
C40 O37 1.252 . S
C40 O38 1.273 . S
O41 Mg28 2.010 . S
O41 C33 1.249 . S
Mg42 O43 2.028 . S
Mg42 O49 1.986 . S
Mg42 O51 2.114 1_554 S
Mg42 O52 2.251 1_554 S
Mg42 O55 2.010 . S
O43 Mg42 2.028 . S
O43 C46 1.250 . S
O44 Mg45 2.028 1_554 S
O44 C46 1.248 . S
Mg45 O44 2.028 1_556 S
Mg45 O50 2.032 1_556 S
Mg45 O52 2.079 . S
C46 O43 1.250 . S
C46 O44 1.248 . S
C47 O48 1.264 . S
C47 O55 1.249 . S
O48 C47 1.264 . S
O49 Mg42 1.986 . S
O49 C53 1.246 . S
O50 Mg45 2.032 1_554 S
O50 C53 1.259 . S
O51 Mg42 2.114 1_556 S
O51 C54 1.252 . S
O52 Mg42 2.251 1_556 S
O52 Mg45 2.079 . S
O52 C54 1.273 . S
C53 O49 1.246 . S
C53 O50 1.259 . S
C54 O51 1.252 . S
C54 O52 1.273 . S
O55 Mg42 2.010 . S
O55 C47 1.249 . S
Mg56 O57 2.028 . S
Mg56 O63 1.986 . S
Mg56 O65 2.114 . S
Mg56 O66 2.251 . S
Mg56 O69 2.010 1_455 S
O57 Mg56 2.028 . S
O57 C60 1.250 . S
O58 Mg59 2.028 . S
O58 C60 1.248 . S
Mg59 O58 2.028 . S
Mg59 O64 2.032 . S
Mg59 O66 2.079 . S
C60 O57 1.250 . S
C60 O58 1.248 . S
C61 O62 1.264 . S
C61 O69 1.249 . S
O62 C61 1.264 . S
O63 Mg56 1.986 . S
O63 C67 1.246 . S
O64 Mg59 2.032 . S
O64 C67 1.259 . S
O65 Mg56 2.114 . S
O65 C68 1.252 . S
O66 Mg56 2.251 . S
O66 Mg59 2.079 . S
O66 C68 1.273 . S
C67 O63 1.246 . S
C67 O64 1.259 . S
C68 O65 1.252 . S
C68 O66 1.273 . S
O69 Mg56 2.010 1_655 S
O69 C61 1.249 . S
Mg70 O71 2.028 . S
Mg70 O77 1.986 . S
Mg70 O79 2.114 . S
Mg70 O80 2.251 . S
Mg70 O83 2.010 . S
O71 Mg70 2.028 . S
O71 C74 1.250 . S
O72 Mg73 2.028 . S
O72 C74 1.248 . S
Mg73 O72 2.028 . S
Mg73 O78 2.032 . S
Mg73 O80 2.079 . S
C74 O71 1.250 . S
C74 O72 1.248 . S
C75 O76 1.264 . S
C75 O83 1.249 . S
O76 C75 1.264 . S
O77 Mg70 1.986 . S
O77 C81 1.246 . S
O78 Mg73 2.032 . S
O78 C81 1.259 . S
O79 Mg70 2.114 . S
O79 C82 1.252 . S
O80 Mg70 2.251 . S
O80 Mg73 2.079 . S
O80 C82 1.273 . S
C81 O77 1.246 . S
C81 O78 1.259 . S
C82 O79 1.252 . S
C82 O80 1.273 . S
O83 Mg70 2.010 . S
O83 C75 1.249 . S
Mg84 O85 2.028 . S
Mg84 O91 1.986 . S
Mg84 O93 2.114 . S
Mg84 O94 2.251 . S
Mg84 O97 2.010 . S
O85 Mg84 2.028 . S
O85 C88 1.250 . S
O86 Mg87 2.028 . S
O86 C88 1.248 . S
Mg87 O86 2.028 . S
Mg87 O92 2.032 . S
Mg87 O94 2.079 . S
C88 O85 1.250 . S
C88 O86 1.248 . S
C89 O90 1.264 . S
C89 O97 1.249 . S
O90 C89 1.264 . S
O91 Mg84 1.986 . S
O91 C95 1.246 . S
O92 Mg87 2.032 . S
O92 C95 1.259 . S
O93 Mg84 2.114 . S
O93 C96 1.252 . S
O94 Mg84 2.251 . S
O94 Mg87 2.079 . S
O94 C96 1.273 . S
C95 O91 1.246 . S
C95 O92 1.259 . S
C96 O93 1.252 . S
C96 O94 1.273 . S
O97 Mg84 2.010 . S
O97 C89 1.249 . S
Mg98 O99 2.028 . S
Mg98 O105 1.986 . S
Mg98 O107 2.114 1_556 S
Mg98 O108 2.251 1_556 S
Mg98 O111 2.010 . S
O99 Mg98 2.028 . S
O99 C102 1.250 . S
O100 Mg101 2.028 1_556 S
O100 C102 1.248 . S
Mg101 O100 2.028 1_554 S
Mg101 O106 2.032 1_554 S
Mg101 O108 2.079 . S
C102 O99 1.250 . S
C102 O100 1.248 . S
C103 O104 1.264 . S
C103 O111 1.249 . S
O104 C103 1.264 . S
O105 Mg98 1.986 . S
O105 C109 1.246 . S
O106 Mg101 2.032 1_556 S
O106 C109 1.259 . S
O107 Mg98 2.114 1_554 S
O107 C110 1.252 . S
O108 Mg98 2.251 1_554 S
O108 Mg101 2.079 . S
O108 C110 1.273 . S
C109 O105 1.246 . S
C109 O106 1.259 . S
C110 O107 1.252 . S
C110 O108 1.273 . S
O111 Mg98 2.010 . S
O111 C103 1.249 . S
Mg112 O113 2.028 . S
Mg112 O119 1.986 . S
Mg112 O121 2.114 . S
Mg112 O122 2.251 . S
Mg112 O125 2.010 1_655 S
O113 Mg112 2.028 . S
O113 C116 1.250 . S
O114 Mg115 2.028 . S
O114 C116 1.248 . S
Mg115 O114 2.028 . S
Mg115 O120 2.032 . S
Mg115 O122 2.079 . S
C116 O113 1.250 . S
C116 O114 1.248 . S
C117 O118 1.264 . S
C117 O125 1.249 . S
O118 C117 1.264 . S
O119 Mg112 1.986 . S
O119 C123 1.246 . S
O120 Mg115 2.032 . S
O120 C123 1.259 . S
O121 Mg112 2.114 . S
O121 C124 1.252 . S
O122 Mg112 2.251 . S
O122 Mg115 2.079 . S
O122 C124 1.273 . S
C123 O119 1.246 . S
C123 O120 1.259 . S
C124 O121 1.252 . S
C124 O122 1.273 . S
O125 Mg112 2.010 1_455 S
O125 C117 1.249 . S
Mg126 O127 2.028 . S
Mg126 O133 1.986 . S
Mg126 O135 2.114 . S
Mg126 O136 2.251 . S
Mg126 O139 2.010 . S
O127 Mg126 2.028 . S
O127 C130 1.250 . S
O128 Mg129 2.028 . S
O128 C130 1.248 . S
Mg129 O128 2.028 . S
Mg129 O134 2.032 . S
Mg129 O136 2.079 . S
C130 O127 1.250 . S
C130 O128 1.248 . S
C131 O132 1.264 . S
C131 O139 1.249 . S
O132 C131 1.264 . S
O133 Mg126 1.986 . S
O133 C137 1.246 . S
O134 Mg129 2.032 . S
O134 C137 1.259 . S
O135 Mg126 2.114 . S
O135 C138 1.252 . S
O136 Mg126 2.251 . S
O136 Mg129 2.079 . S
O136 C138 1.273 . S
C137 O133 1.246 . S
C137 O134 1.259 . S
C138 O135 1.252 . S
C138 O136 1.273 . S
O139 Mg126 2.010 . S
O139 C131 1.249 . S
Mg140 O141 2.028 . S
Mg140 O147 1.986 . S
Mg140 O149 2.114 . S
Mg140 O150 2.251 . S
Mg140 O153 2.010 . S
O141 Mg140 2.028 . S
O141 C144 1.250 . S
O142 Mg143 2.028 . S
O142 C144 1.248 . S
Mg143 O142 2.028 . S
Mg143 O148 2.032 . S
Mg143 O150 2.079 . S
C144 O141 1.250 . S
C144 O142 1.248 . S
C145 O146 1.264 . S
C145 O153 1.249 . S
O146 C145 1.264 . S
O147 Mg140 1.986 . S
O147 C151 1.246 . S
O148 Mg143 2.032 . S
O148 C151 1.259 . S
O149 Mg140 2.114 . S
O149 C152 1.252 . S
O150 Mg140 2.251 . S
O150 Mg143 2.079 . S
O150 C152 1.273 . S
C151 O147 1.246 . S
C151 O148 1.259 . S
C152 O149 1.252 . S
C152 O150 1.273 . S
O153 Mg140 2.010 . S
O153 C145 1.249 . S
Mg154 O155 2.028 . S
Mg154 O161 1.986 . S
Mg154 O163 2.114 1_556 S
Mg154 O164 2.251 1_556 S
Mg154 O167 2.010 . S
O155 Mg154 2.028 . S
O155 C158 1.250 . S
O156 Mg157 2.028 1_556 S
O156 C158 1.248 . S
Mg157 O156 2.028 1_554 S
Mg157 O162 2.032 1_554 S
Mg157 O164 2.079 . S
C158 O155 1.250 . S
C158 O156 1.248 . S
C159 O160 1.264 . S
C159 O167 1.249 . S
O160 C159 1.264 . S
O161 Mg154 1.986 . S
O161 C165 1.246 . S
O162 Mg157 2.032 1_556 S
O162 C165 1.259 . S
O163 Mg154 2.114 1_554 S
O163 C166 1.252 . S
O164 Mg154 2.251 1_554 S
O164 Mg157 2.079 . S
O164 C166 1.273 . S
C165 O161 1.246 . S
C165 O162 1.259 . S
C166 O163 1.252 . S
C166 O164 1.273 . S
O167 Mg154 2.010 . S
O167 C159 1.249 . S
Mg168 O169 2.028 . S
Mg168 O175 1.986 . S
Mg168 O177 2.114 . S
Mg168 O178 2.251 . S
Mg168 O181 2.010 1_655 S
O169 Mg168 2.028 . S
O169 C172 1.250 . S
O170 Mg171 2.028 . S
O170 C172 1.248 . S
Mg171 O170 2.028 . S
Mg171 O176 2.032 . S
Mg171 O178 2.079 . S
C172 O169 1.250 . S
C172 O170 1.248 . S
C173 O174 1.264 . S
C173 O181 1.249 . S
O174 C173 1.264 . S
O175 Mg168 1.986 . S
O175 C179 1.246 . S
O176 Mg171 2.032 . S
O176 C179 1.259 . S
O177 Mg168 2.114 . S
O177 C180 1.252 . S
O178 Mg168 2.251 . S
O178 Mg171 2.079 . S
O178 C180 1.273 . S
C179 O175 1.246 . S
C179 O176 1.259 . S
C180 O177 1.252 . S
C180 O178 1.273 . S
O181 Mg168 2.010 1_455 S
O181 C173 1.249 . S
Mg182 O183 2.028 . S
Mg182 O189 1.986 . S
Mg182 O191 2.114 . S
Mg182 O192 2.251 . S
Mg182 O195 2.010 . S
O183 Mg182 2.028 . S
O183 C186 1.250 . S
O184 Mg185 2.028 . S
O184 C186 1.248 . S
Mg185 O184 2.028 . S
Mg185 O190 2.032 . S
Mg185 O192 2.079 . S
C186 O183 1.250 . S
C186 O184 1.248 . S
C187 O188 1.264 . S
C187 O195 1.249 . S
O188 C187 1.264 . S
O189 Mg182 1.986 . S
O189 C193 1.246 . S
O190 Mg185 2.032 . S
O190 C193 1.259 . S
O191 Mg182 2.114 . S
O191 C194 1.252 . S
O192 Mg182 2.251 . S
O192 Mg185 2.079 . S
O192 C194 1.273 . S
C193 O189 1.246 . S
C193 O190 1.259 . S
C194 O191 1.252 . S
C194 O192 1.273 . S
O195 Mg182 2.010 . S
O195 C187 1.249 . S
Mg196 O197 2.028 . S
Mg196 O203 1.986 . S
Mg196 O205 2.114 . S
Mg196 O206 2.251 . S
Mg196 O209 2.010 . S
O197 Mg196 2.028 . S
O197 C200 1.250 . S
O198 Mg199 2.028 . S
O198 C200 1.248 . S
Mg199 O198 2.028 . S
Mg199 O204 2.032 . S
Mg199 O206 2.079 . S
C200 O197 1.250 . S
C200 O198 1.248 . S
C201 O202 1.264 . S
C201 O209 1.249 . S
O202 C201 1.264 . S
O203 Mg196 1.986 . S
O203 C207 1.246 . S
O204 Mg199 2.032 . S
O204 C207 1.259 . S
O205 Mg196 2.114 . S
O205 C208 1.252 . S
O206 Mg196 2.251 . S
O206 Mg199 2.079 . S
O206 C208 1.273 . S
C207 O203 1.246 . S
C207 O204 1.259 . S
C208 O205 1.252 . S
C208 O206 1.273 . S
O209 Mg196 2.010 . S
O209 C201 1.249 . S
Mg210 O211 2.028 . S
Mg210 O217 1.986 . S
Mg210 O219 2.114 1_554 S
Mg210 O220 2.251 1_554 S
Mg210 O223 2.010 . S
O211 Mg210 2.028 . S
O211 C214 1.250 . S
O212 Mg213 2.028 1_554 S
O212 C214 1.248 . S
Mg213 O212 2.028 1_556 S
Mg213 O218 2.032 1_556 S
Mg213 O220 2.079 . S
C214 O211 1.250 . S
C214 O212 1.248 . S
C215 O216 1.264 . S
C215 O223 1.249 . S
O216 C215 1.264 . S
O217 Mg210 1.986 . S
O217 C221 1.246 . S
O218 Mg213 2.032 1_554 S
O218 C221 1.259 . S
O219 Mg210 2.114 1_556 S
O219 C222 1.252 . S
O220 Mg210 2.251 1_556 S
O220 Mg213 2.079 . S
O220 C222 1.273 . S
C221 O217 1.246 . S
C221 O218 1.259 . S
C222 O219 1.252 . S
C222 O220 1.273 . S
O223 Mg210 2.010 . S
O223 C215 1.249 . S
Mg224 O225 2.028 . S
Mg224 O231 1.986 . S
Mg224 O233 2.114 . S
Mg224 O234 2.251 . S
Mg224 O237 2.010 . S
O225 Mg224 2.028 . S
O225 C228 1.250 . S
O226 Mg227 2.028 . S
O226 C228 1.248 . S
Mg227 O226 2.028 . S
Mg227 O232 2.032 . S
Mg227 O234 2.079 . S
C228 O225 1.250 . S
C228 O226 1.248 . S
C229 O230 1.264 . S
C229 O237 1.249 . S
O230 C229 1.264 . S
O231 Mg224 1.986 . S
O231 C235 1.246 . S
O232 Mg227 2.032 . S
O232 C235 1.259 . S
O233 Mg224 2.114 . S
O233 C236 1.252 . S
O234 Mg224 2.251 . S
O234 Mg227 2.079 . S
O234 C236 1.273 . S
C235 O231 1.246 . S
C235 O232 1.259 . S
C236 O233 1.252 . S
C236 O234 1.273 . S
O237 Mg224 2.010 . S
O237 C229 1.249 . S
Mg238 O239 2.028 . S
Mg238 O245 1.986 . S
Mg238 O247 2.114 1_554 S
Mg238 O248 2.251 1_554 S
Mg238 O251 2.010 . S
O239 Mg238 2.028 . S
O239 C242 1.250 . S
O240 Mg241 2.028 1_554 S
O240 C242 1.248 . S
Mg241 O240 2.028 1_556 S
Mg241 O246 2.032 1_556 S
Mg241 O248 2.079 . S
C242 O239 1.250 . S
C242 O240 1.248 . S
C243 O244 1.264 . S
C243 O251 1.249 . S
O244 C243 1.264 . S
O245 Mg238 1.986 . S
O245 C249 1.246 . S
O246 Mg241 2.032 1_554 S
O246 C249 1.259 . S
O247 Mg238 2.114 1_556 S
O247 C250 1.252 . S
O248 Mg238 2.251 1_556 S
O248 Mg241 2.079 . S
O248 C250 1.273 . S
C249 O245 1.246 . S
C249 O246 1.259 . S
C250 O247 1.252 . S
C250 O248 1.273 . S
O251 Mg238 2.010 . S
O251 C243 1.249 . S
Mg252 O253 2.028 . S
Mg252 O259 1.986 . S
Mg252 O261 2.114 . S
Mg252 O262 2.251 . S
Mg252 O265 2.010 1_655 S
O253 Mg252 2.028 . S
O253 C256 1.250 . S
O254 Mg255 2.028 . S
O254 C256 1.248 . S
Mg255 O254 2.028 . S
Mg255 O260 2.032 . S
Mg255 O262 2.079 . S
C256 O253 1.250 . S
C256 O254 1.248 . S
C257 O258 1.264 . S
C257 O265 1.249 . S
O258 C257 1.264 . S
O259 Mg252 1.986 . S
O259 C263 1.246 . S
O260 Mg255 2.032 . S
O260 C263 1.259 . S
O261 Mg252 2.114 . S
O261 C264 1.252 . S
O262 Mg252 2.251 . S
O262 Mg255 2.079 . S
O262 C264 1.273 . S
C263 O259 1.246 . S
C263 O260 1.259 . S
C264 O261 1.252 . S
C264 O262 1.273 . S
O265 Mg252 2.010 1_455 S
O265 C257 1.249 . S
Mg266 O267 2.028 . S
Mg266 O273 1.986 . S
Mg266 O275 2.114 . S
Mg266 O276 2.251 . S
Mg266 O279 2.010 . S
O267 Mg266 2.028 . S
O267 C270 1.250 . S
O268 Mg269 2.028 . S
O268 C270 1.248 . S
Mg269 O268 2.028 . S
Mg269 O274 2.032 . S
Mg269 O276 2.079 . S
C270 O267 1.250 . S
C270 O268 1.248 . S
C271 O272 1.264 . S
C271 O279 1.249 . S
O272 C271 1.264 . S
O273 Mg266 1.986 . S
O273 C277 1.246 . S
O274 Mg269 2.032 . S
O274 C277 1.259 . S
O275 Mg266 2.114 . S
O275 C278 1.252 . S
O276 Mg266 2.251 . S
O276 Mg269 2.079 . S
O276 C278 1.273 . S
C277 O273 1.246 . S
C277 O274 1.259 . S
C278 O275 1.252 . S
C278 O276 1.273 . S
O279 Mg266 2.010 . S
O279 C271 1.249 . S
Mg280 O281 2.028 . S
Mg280 O287 1.986 . S
Mg280 O289 2.114 . S
Mg280 O290 2.251 . S
Mg280 O293 2.010 . S
O281 Mg280 2.028 . S
O281 C284 1.250 . S
O282 Mg283 2.028 . S
O282 C284 1.248 . S
Mg283 O282 2.028 . S
Mg283 O288 2.032 . S
Mg283 O290 2.079 . S
C284 O281 1.250 . S
C284 O282 1.248 . S
C285 O286 1.264 . S
C285 O293 1.249 . S
O286 C285 1.264 . S
O287 Mg280 1.986 . S
O287 C291 1.246 . S
O288 Mg283 2.032 . S
O288 C291 1.259 . S
O289 Mg280 2.114 . S
O289 C292 1.252 . S
O290 Mg280 2.251 . S
O290 Mg283 2.079 . S
O290 C292 1.273 . S
C291 O287 1.246 . S
C291 O288 1.259 . S
C292 O289 1.252 . S
C292 O290 1.273 . S
O293 Mg280 2.010 . S
O293 C285 1.249 . S
Mg294 O295 2.028 . S
Mg294 O301 1.986 . S
Mg294 O303 2.114 1_556 S
Mg294 O304 2.251 1_556 S
Mg294 O307 2.010 . S
O295 Mg294 2.028 . S
O295 C298 1.250 . S
O296 Mg297 2.028 1_556 S
O296 C298 1.248 . S
Mg297 O296 2.028 1_554 S
Mg297 O302 2.032 1_554 S
Mg297 O304 2.079 . S
C298 O295 1.250 . S
C298 O296 1.248 . S
C299 O300 1.264 . S
C299 O307 1.249 . S
O300 C299 1.264 . S
O301 Mg294 1.986 . S
O301 C305 1.246 . S
O302 Mg297 2.032 1_556 S
O302 C305 1.259 . S
O303 Mg294 2.114 1_554 S
O303 C306 1.252 . S
O304 Mg294 2.251 1_554 S
O304 Mg297 2.079 . S
O304 C306 1.273 . S
C305 O301 1.246 . S
C305 O302 1.259 . S
C306 O303 1.252 . S
C306 O304 1.273 . S
O307 Mg294 2.010 . S
O307 C299 1.249 . S
Mg308 O309 2.028 . S
Mg308 O315 1.986 . S
Mg308 O317 2.114 . S
Mg308 O318 2.251 . S
Mg308 O321 2.010 1_655 S
O309 Mg308 2.028 . S
O309 C312 1.250 . S
O310 Mg311 2.028 . S
O310 C312 1.248 . S
Mg311 O310 2.028 . S
Mg311 O316 2.032 . S
Mg311 O318 2.079 . S
C312 O309 1.250 . S
C312 O310 1.248 . S
C313 O314 1.264 . S
C313 O321 1.249 . S
O314 C313 1.264 . S
O315 Mg308 1.986 . S
O315 C319 1.246 . S
O316 Mg311 2.032 . S
O316 C319 1.259 . S
O317 Mg308 2.114 . S
O317 C320 1.252 . S
O318 Mg308 2.251 . S
O318 Mg311 2.079 . S
O318 C320 1.273 . S
C319 O315 1.246 . S
C319 O316 1.259 . S
C320 O317 1.252 . S
C320 O318 1.273 . S
O321 Mg308 2.010 1_455 S
O321 C313 1.249 . S
Mg322 O323 2.028 . S
Mg322 O329 1.986 . S
Mg322 O331 2.114 . S
Mg322 O332 2.251 . S
Mg322 O335 2.010 . S
O323 Mg322 2.028 . S
O323 C326 1.250 . S
O324 Mg325 2.028 . S
O324 C326 1.248 . S
Mg325 O324 2.028 . S
Mg325 O330 2.032 . S
Mg325 O332 2.079 . S
C326 O323 1.250 . S
C326 O324 1.248 . S
C327 O328 1.264 . S
C327 O335 1.249 . S
O328 C327 1.264 . S
O329 Mg322 1.986 . S
O329 C333 1.246 . S
O330 Mg325 2.032 . S
O330 C333 1.259 . S
O331 Mg322 2.114 . S
O331 C334 1.252 . S
O332 Mg322 2.251 . S
O332 Mg325 2.079 . S
O332 C334 1.273 . S
C333 O329 1.246 . S
C333 O330 1.259 . S
C334 O331 1.252 . S
C334 O332 1.273 . S
O335 Mg322 2.010 . S
O335 C327 1.249 . S
Mg336 O337 2.028 . S
Mg336 O343 1.986 . S
Mg336 O345 2.114 . S
Mg336 O346 2.251 . S
Mg336 O349 2.010 . S
O337 Mg336 2.028 . S
O337 C340 1.250 . S
O338 Mg339 2.028 . S
O338 C340 1.248 . S
Mg339 O338 2.028 . S
Mg339 O344 2.032 . S
Mg339 O346 2.079 . S
C340 O337 1.250 . S
C340 O338 1.248 . S
C341 O342 1.264 . S
C341 O349 1.249 . S
O342 C341 1.264 . S
O343 Mg336 1.986 . S
O343 C347 1.246 . S
O344 Mg339 2.032 . S
O344 C347 1.259 . S
O345 Mg336 2.114 . S
O345 C348 1.252 . S
O346 Mg336 2.251 . S
O346 Mg339 2.079 . S
O346 C348 1.273 . S
C347 O343 1.246 . S
C347 O344 1.259 . S
C348 O345 1.252 . S
C348 O346 1.273 . S
O349 Mg336 2.010 . S
O349 C341 1.249 . S
Mg350 O351 2.028 . S
Mg350 O357 1.986 . S
Mg350 O359 2.114 1_556 S
Mg350 O360 2.251 1_556 S
Mg350 O363 2.010 . S
O351 Mg350 2.028 . S
O351 C354 1.250 . S
O352 Mg353 2.028 1_556 S
O352 C354 1.248 . S
Mg353 O352 2.028 1_554 S
Mg353 O358 2.032 1_554 S
Mg353 O360 2.079 . S
C354 O351 1.250 . S
C354 O352 1.248 . S
C355 O356 1.264 . S
C355 O363 1.249 . S
O356 C355 1.264 . S
O357 Mg350 1.986 . S
O357 C361 1.246 . S
O358 Mg353 2.032 1_556 S
O358 C361 1.259 . S
O359 Mg350 2.114 1_554 S
O359 C362 1.252 . S
O360 Mg350 2.251 1_554 S
O360 Mg353 2.079 . S
O360 C362 1.273 . S
C361 O357 1.246 . S
C361 O358 1.259 . S
C362 O359 1.252 . S
C362 O360 1.273 . S
O363 Mg350 2.010 . S
O363 C355 1.249 . S
Mg364 O365 2.028 . S
Mg364 O371 1.986 . S
Mg364 O373 2.114 . S
Mg364 O374 2.251 . S
Mg364 O377 2.010 1_455 S
O365 Mg364 2.028 . S
O365 C368 1.250 . S
O366 Mg367 2.028 . S
O366 C368 1.248 . S
Mg367 O366 2.028 . S
Mg367 O372 2.032 . S
Mg367 O374 2.079 . S
C368 O365 1.250 . S
C368 O366 1.248 . S
C369 O370 1.264 . S
C369 O377 1.249 . S
O370 C369 1.264 . S
O371 Mg364 1.986 . S
O371 C375 1.246 . S
O372 Mg367 2.032 . S
O372 C375 1.259 . S
O373 Mg364 2.114 . S
O373 C376 1.252 . S
O374 Mg364 2.251 . S
O374 Mg367 2.079 . S
O374 C376 1.273 . S
C375 O371 1.246 . S
C375 O372 1.259 . S
C376 O373 1.252 . S
C376 O374 1.273 . S
O377 Mg364 2.010 1_655 S
O377 C369 1.249 . S
Mg378 O379 2.028 . S
Mg378 O385 1.986 . S
Mg378 O387 2.114 . S
Mg378 O388 2.251 . S
Mg378 O391 2.010 . S
O379 Mg378 2.028 . S
O379 C382 1.250 . S
O380 Mg381 2.028 . S
O380 C382 1.248 . S
Mg381 O380 2.028 . S
Mg381 O386 2.032 . S
Mg381 O388 2.079 . S
C382 O379 1.250 . S
C382 O380 1.248 . S
C383 O384 1.264 . S
C383 O391 1.249 . S
O384 C383 1.264 . S
O385 Mg378 1.986 . S
O385 C389 1.246 . S
O386 Mg381 2.032 . S
O386 C389 1.259 . S
O387 Mg378 2.114 . S
O387 C390 1.252 . S
O388 Mg378 2.251 . S
O388 Mg381 2.079 . S
O388 C390 1.273 . S
C389 O385 1.246 . S
C389 O386 1.259 . S
C390 O387 1.252 . S
C390 O388 1.273 . S
O391 Mg378 2.010 . S
O391 C383 1.249 . S
Mg392 O393 2.028 . S
Mg392 O399 1.986 . S
Mg392 O401 2.114 . S
Mg392 O402 2.251 . S
Mg392 O405 2.010 . S
O393 Mg392 2.028 . S
O393 C396 1.250 . S
O394 Mg395 2.028 . S
O394 C396 1.248 . S
Mg395 O394 2.028 . S
Mg395 O400 2.032 . S
Mg395 O402 2.079 . S
C396 O393 1.250 . S
C396 O394 1.248 . S
C397 O398 1.264 . S
C397 O405 1.249 . S
O398 C397 1.264 . S
O399 Mg392 1.986 . S
O399 C403 1.246 . S
O400 Mg395 2.032 . S
O400 C403 1.259 . S
O401 Mg392 2.114 . S
O401 C404 1.252 . S
O402 Mg392 2.251 . S
O402 Mg395 2.079 . S
O402 C404 1.273 . S
C403 O399 1.246 . S
C403 O400 1.259 . S
C404 O401 1.252 . S
C404 O402 1.273 . S
O405 Mg392 2.010 . S
O405 C397 1.249 . S
Mg406 O407 2.028 . S
Mg406 O413 1.986 . S
Mg406 O415 2.114 1_554 S
Mg406 O416 2.251 1_554 S
Mg406 O419 2.010 . S
O407 Mg406 2.028 . S
O407 C410 1.250 . S
O408 Mg409 2.028 1_554 S
O408 C410 1.248 . S
Mg409 O408 2.028 1_556 S
Mg409 O414 2.032 1_556 S
Mg409 O416 2.079 . S
C410 O407 1.250 . S
C410 O408 1.248 . S
C411 O412 1.264 . S
C411 O419 1.249 . S
O412 C411 1.264 . S
O413 Mg406 1.986 . S
O413 C417 1.246 . S
O414 Mg409 2.032 1_554 S
O414 C417 1.259 . S
O415 Mg406 2.114 1_556 S
O415 C418 1.252 . S
O416 Mg406 2.251 1_556 S
O416 Mg409 2.079 . S
O416 C418 1.273 . S
C417 O413 1.246 . S
C417 O414 1.259 . S
C418 O415 1.252 . S
C418 O416 1.273 . S
O419 Mg406 2.010 . S
O419 C411 1.249 . S
Mg420 O421 2.028 . S
Mg420 O427 1.986 . S
Mg420 O429 2.114 . S
Mg420 O430 2.251 . S
Mg420 O433 2.010 1_455 S
O421 Mg420 2.028 . S
O421 C424 1.250 . S
O422 Mg423 2.028 . S
O422 C424 1.248 . S
Mg423 O422 2.028 . S
Mg423 O428 2.032 . S
Mg423 O430 2.079 . S
C424 O421 1.250 . S
C424 O422 1.248 . S
C425 O426 1.264 . S
C425 O433 1.249 . S
O426 C425 1.264 . S
O427 Mg420 1.986 . S
O427 C431 1.246 . S
O428 Mg423 2.032 . S
O428 C431 1.259 . S
O429 Mg420 2.114 . S
O429 C432 1.252 . S
O430 Mg420 2.251 . S
O430 Mg423 2.079 . S
O430 C432 1.273 . S
C431 O427 1.246 . S
C431 O428 1.259 . S
C432 O429 1.252 . S
C432 O430 1.273 . S
O433 Mg420 2.010 1_655 S
O433 C425 1.249 . S
Mg434 O435 2.028 . S
Mg434 O441 1.986 . S
Mg434 O443 2.114 . S
Mg434 O444 2.251 . S
Mg434 O447 2.010 . S
O435 Mg434 2.028 . S
O435 C438 1.250 . S
O436 Mg437 2.028 . S
O436 C438 1.248 . S
Mg437 O436 2.028 . S
Mg437 O442 2.032 . S
Mg437 O444 2.079 . S
C438 O435 1.250 . S
C438 O436 1.248 . S
C439 O440 1.264 . S
C439 O447 1.249 . S
O440 C439 1.264 . S
O441 Mg434 1.986 . S
O441 C445 1.246 . S
O442 Mg437 2.032 . S
O442 C445 1.259 . S
O443 Mg434 2.114 . S
O443 C446 1.252 . S
O444 Mg434 2.251 . S
O444 Mg437 2.079 . S
O444 C446 1.273 . S
C445 O441 1.246 . S
C445 O442 1.259 . S
C446 O443 1.252 . S
C446 O444 1.273 . S
O447 Mg434 2.010 . S
O447 C439 1.249 . S
C448 C449 1.387 . S
C448 H452 0.950 . S
C448 C457 1.390 . S
C449 C448 1.387 . S
C449 C451 1.387 . S
H450 C457 0.950 . S
C451 C449 1.387 . S
C451 C453 1.390 . S
C451 H455 0.950 . S
H452 C448 0.950 . S
C453 C451 1.390 . S
C453 C454 1.387 . S
C453 H456 0.950 . S
C454 C453 1.387 . S
C454 C457 1.387 . S
H455 C451 0.950 . S
H456 C453 0.950 . S
C457 C448 1.390 . S
C457 H450 0.950 . S
C457 C454 1.387 . S
C458 C459 1.387 . S
C458 H462 0.950 . S
C458 C467 1.390 . S
C459 C458 1.387 . S
C459 C461 1.387 . S
H460 C467 0.950 . S
C461 C459 1.387 . S
C461 C463 1.390 . S
C461 H465 0.950 . S
H462 C458 0.950 . S
C463 C461 1.390 . S
C463 C464 1.387 . S
C463 H466 0.950 . S
C464 C463 1.387 . S
C464 C467 1.387 . S
H465 C461 0.950 . S
H466 C463 0.950 . S
C467 C458 1.390 . S
C467 H460 0.950 . S
C467 C464 1.387 . S
C468 C469 1.387 . S
C468 H472 0.950 . S
C468 C477 1.390 . S
C469 C468 1.387 . S
C469 C471 1.387 . S
H470 C477 0.950 . S
C471 C469 1.387 . S
C471 C473 1.390 . S
C471 H475 0.950 . S
H472 C468 0.950 . S
C473 C471 1.390 . S
C473 C474 1.387 . S
C473 H476 0.950 . S
C474 C473 1.387 . S
C474 C477 1.387 . S
H475 C471 0.950 . S
H476 C473 0.950 . S
C477 C468 1.390 . S
C477 H470 0.950 . S
C477 C474 1.387 . S
C478 C479 1.387 . S
C478 H482 0.950 . S
C478 C487 1.390 . S
C479 C478 1.387 . S
C479 C481 1.387 . S
H480 C487 0.950 . S
C481 C479 1.387 . S
C481 C483 1.390 . S
C481 H485 0.950 . S
H482 C478 0.950 . S
C483 C481 1.390 . S
C483 C484 1.387 . S
C483 H486 0.950 . S
C484 C483 1.387 . S
C484 C487 1.387 . S
H485 C481 0.950 . S
H486 C483 0.950 . S
C487 C478 1.390 . S
C487 H480 0.950 . S
C487 C484 1.387 . S
C488 C489 1.387 . S
C488 H492 0.950 . S
C488 C497 1.390 . S
C489 C488 1.387 . S
C489 C491 1.387 . S
H490 C497 0.950 . S
C491 C489 1.387 . S
C491 C493 1.390 . S
C491 H495 0.950 . S
H492 C488 0.950 . S
C493 C491 1.390 . S
C493 C494 1.387 . S
C493 H496 0.950 . S
C494 C493 1.387 . S
C494 C497 1.387 . S
H495 C491 0.950 . S
H496 C493 0.950 . S
C497 C488 1.390 . S
C497 H490 0.950 . S
C497 C494 1.387 . S
C498 C499 1.387 . S
C498 H502 0.950 . S
C498 C507 1.390 . S
C499 C498 1.387 . S
C499 C501 1.387 . S
H500 C507 0.950 . S
C501 C499 1.387 . S
C501 C503 1.390 . S
C501 H505 0.950 . S
H502 C498 0.950 . S
C503 C501 1.390 . S
C503 C504 1.387 . S
C503 H506 0.950 . S
C504 C503 1.387 . S
C504 C507 1.387 . S
H505 C501 0.950 . S
H506 C503 0.950 . S
C507 C498 1.390 . S
C507 H500 0.950 . S
C507 C504 1.387 . S
C508 C509 1.387 . S
C508 H512 0.950 . S
C508 C517 1.390 . S
C509 C508 1.387 . S
C509 C511 1.387 . S
H510 C517 0.950 . S
C511 C509 1.387 . S
C511 C513 1.390 . S
C511 H515 0.950 . S
H512 C508 0.950 . S
C513 C511 1.390 . S
C513 C514 1.387 . S
C513 H516 0.950 . S
C514 C513 1.387 . S
C514 C517 1.387 . S
H515 C511 0.950 . S
H516 C513 0.950 . S
C517 C508 1.390 . S
C517 H510 0.950 . S
C517 C514 1.387 . S
C518 C519 1.387 . S
C518 H522 0.950 . S
C518 C527 1.390 . S
C519 C518 1.387 . S
C519 C521 1.387 . S
H520 C527 0.950 . S
C521 C519 1.387 . S
C521 C523 1.390 . S
C521 H525 0.950 . S
H522 C518 0.950 . S
C523 C521 1.390 . S
C523 C524 1.387 . S
C523 H526 0.950 . S
C524 C523 1.387 . S
C524 C527 1.387 . S
H525 C521 0.950 . S
H526 C523 0.950 . S
C527 C518 1.390 . S
C527 H520 0.950 . S
C527 C524 1.387 . S
C528 C529 1.387 . S
C528 H532 0.950 . S
C528 C537 1.390 . S
C529 C528 1.387 . S
C529 C531 1.387 . S
H530 C537 0.950 . S
C531 C529 1.387 . S
C531 C533 1.390 . S
C531 H535 0.950 . S
H532 C528 0.950 . S
C533 C531 1.390 . S
C533 C534 1.387 . S
C533 H536 0.950 . S
C534 C533 1.387 . S
C534 C537 1.387 . S
H535 C531 0.950 . S
H536 C533 0.950 . S
C537 C528 1.390 . S
C537 H530 0.950 . S
C537 C534 1.387 . S
C538 C539 1.387 . S
C538 H542 0.950 . S
C538 C547 1.390 . S
C539 C538 1.387 . S
C539 C541 1.387 . S
H540 C547 0.950 . S
C541 C539 1.387 . S
C541 C543 1.390 . S
C541 H545 0.950 . S
H542 C538 0.950 . S
C543 C541 1.390 . S
C543 C544 1.387 . S
C543 H546 0.950 . S
C544 C543 1.387 . S
C544 C547 1.387 . S
H545 C541 0.950 . S
H546 C543 0.950 . S
C547 C538 1.390 . S
C547 H540 0.950 . S
C547 C544 1.387 . S
C548 C549 1.387 . S
C548 H552 0.950 . S
C548 C557 1.390 . S
C549 C548 1.387 . S
C549 C551 1.387 . S
H550 C557 0.950 . S
C551 C549 1.387 . S
C551 C553 1.390 . S
C551 H555 0.950 . S
H552 C548 0.950 . S
C553 C551 1.390 . S
C553 C554 1.387 . S
C553 H556 0.950 . S
C554 C553 1.387 . S
C554 C557 1.387 . S
H555 C551 0.950 . S
H556 C553 0.950 . S
C557 C548 1.390 . S
C557 H550 0.950 . S
C557 C554 1.387 . S
C558 C559 1.387 . S
C558 H562 0.950 . S
C558 C567 1.390 . S
C559 C558 1.387 . S
C559 C561 1.387 . S
H560 C567 0.950 . S
C561 C559 1.387 . S
C561 C563 1.390 . S
C561 H565 0.950 . S
H562 C558 0.950 . S
C563 C561 1.390 . S
C563 C564 1.387 . S
C563 H566 0.950 . S
C564 C563 1.387 . S
C564 C567 1.387 . S
H565 C561 0.950 . S
H566 C563 0.950 . S
C567 C558 1.390 . S
C567 H560 0.950 . S
C567 C564 1.387 . S
C568 C569 1.387 . S
C568 H572 0.950 . S
C568 C577 1.390 . S
C569 C568 1.387 . S
C569 C571 1.387 . S
H570 C577 0.950 . S
C571 C569 1.387 . S
C571 C573 1.390 . S
C571 H575 0.950 . S
H572 C568 0.950 . S
C573 C571 1.390 . S
C573 C574 1.387 . S
C573 H576 0.950 . S
C574 C573 1.387 . S
C574 C577 1.387 . S
H575 C571 0.950 . S
H576 C573 0.950 . S
C577 C568 1.390 . S
C577 H570 0.950 . S
C577 C574 1.387 . S
C578 C579 1.387 . S
C578 H582 0.950 . S
C578 C587 1.390 . S
C579 C578 1.387 . S
C579 C581 1.387 . S
H580 C587 0.950 . S
C581 C579 1.387 . S
C581 C583 1.390 . S
C581 H585 0.950 . S
H582 C578 0.950 . S
C583 C581 1.390 . S
C583 C584 1.387 . S
C583 H586 0.950 . S
C584 C583 1.387 . S
C584 C587 1.387 . S
H585 C581 0.950 . S
H586 C583 0.950 . S
C587 C578 1.390 . S
C587 H580 0.950 . S
C587 C584 1.387 . S
C588 C589 1.387 . S
C588 H592 0.950 . S
C588 C597 1.390 . S
C589 C588 1.387 . S
C589 C591 1.387 . S
H590 C597 0.950 . S
C591 C589 1.387 . S
C591 C593 1.390 . S
C591 H595 0.950 . S
H592 C588 0.950 . S
C593 C591 1.390 . S
C593 C594 1.387 . S
C593 H596 0.950 . S
C594 C593 1.387 . S
C594 C597 1.387 . S
H595 C591 0.950 . S
H596 C593 0.950 . S
C597 C588 1.390 . S
C597 H590 0.950 . S
C597 C594 1.387 . S
C598 C599 1.387 . S
C598 H602 0.950 . S
C598 C607 1.390 . S
C599 C598 1.387 . S
C599 C601 1.387 . S
H600 C607 0.950 . S
C601 C599 1.387 . S
C601 C603 1.390 . S
C601 H605 0.950 . S
H602 C598 0.950 . S
C603 C601 1.390 . S
C603 C604 1.387 . S
C603 H606 0.950 . S
C604 C603 1.387 . S
C604 C607 1.387 . S
H605 C601 0.950 . S
H606 C603 0.950 . S
C607 C598 1.390 . S
C607 H600 0.950 . S
C607 C604 1.387 . S
C608 C609 1.387 . S
C608 H612 0.950 . S
C608 C617 1.390 . S
C609 C608 1.387 . S
C609 C611 1.387 . S
H610 C617 0.950 . S
C611 C609 1.387 . S
C611 C613 1.390 . S
C611 H615 0.950 . S
H612 C608 0.950 . S
C613 C611 1.390 . S
C613 C614 1.387 . S
C613 H616 0.950 . S
C614 C613 1.387 . S
C614 C617 1.387 . S
H615 C611 0.950 . S
H616 C613 0.950 . S
C617 C608 1.390 . S
C617 H610 0.950 . S
C617 C614 1.387 . S
C618 C619 1.387 . S
C618 H622 0.950 . S
C618 C627 1.390 . S
C619 C618 1.387 . S
C619 C621 1.387 . S
H620 C627 0.950 . S
C621 C619 1.387 . S
C621 C623 1.390 . S
C621 H625 0.950 . S
H622 C618 0.950 . S
C623 C621 1.390 . S
C623 C624 1.387 . S
C623 H626 0.950 . S
C624 C623 1.387 . S
C624 C627 1.387 . S
H625 C621 0.950 . S
H626 C623 0.950 . S
C627 C618 1.390 . S
C627 H620 0.950 . S
C627 C624 1.387 . S
C628 C629 1.387 . S
C628 H632 0.950 . S
C628 C637 1.390 . S
C629 C628 1.387 . S
C629 C631 1.387 . S
H630 C637 0.950 . S
C631 C629 1.387 . S
C631 C633 1.390 . S
C631 H635 0.950 . S
H632 C628 0.950 . S
C633 C631 1.390 . S
C633 C634 1.387 . S
C633 H636 0.950 . S
C634 C633 1.387 . S
C634 C637 1.387 . S
H635 C631 0.950 . S
H636 C633 0.950 . S
C637 C628 1.390 . S
C637 H630 0.950 . S
C637 C634 1.387 . S
C638 C639 1.387 . S
C638 H642 0.950 . S
C638 C647 1.390 . S
C639 C638 1.387 . S
C639 C641 1.387 . S
H640 C647 0.950 . S
C641 C639 1.387 . S
C641 C643 1.390 . S
C641 H645 0.950 . S
H642 C638 0.950 . S
C643 C641 1.390 . S
C643 C644 1.387 . S
C643 H646 0.950 . S
C644 C643 1.387 . S
C644 C647 1.387 . S
H645 C641 0.950 . S
H646 C643 0.950 . S
C647 C638 1.390 . S
C647 H640 0.950 . S
C647 C644 1.387 . S
C648 C649 1.387 . S
C648 H652 0.950 . S
C648 C657 1.390 . S
C649 C648 1.387 . S
C649 C651 1.387 . S
H650 C657 0.950 . S
C651 C649 1.387 . S
C651 C653 1.390 . S
C651 H655 0.950 . S
H652 C648 0.950 . S
C653 C651 1.390 . S
C653 C654 1.387 . S
C653 H656 0.950 . S
C654 C653 1.387 . S
C654 C657 1.387 . S
H655 C651 0.950 . S
H656 C653 0.950 . S
C657 C648 1.390 . S
C657 H650 0.950 . S
C657 C654 1.387 . S
C658 C659 1.387 . S
C658 H662 0.950 . S
C658 C667 1.390 . S
C659 C658 1.387 . S
C659 C661 1.387 . S
H660 C667 0.950 . S
C661 C659 1.387 . S
C661 C663 1.390 . S
C661 H665 0.950 . S
H662 C658 0.950 . S
C663 C661 1.390 . S
C663 C664 1.387 . S
C663 H666 0.950 . S
C664 C663 1.387 . S
C664 C667 1.387 . S
H665 C661 0.950 . S
H666 C663 0.950 . S
C667 C658 1.390 . S
C667 H660 0.950 . S
C667 C664 1.387 . S
C668 C669 1.387 . S
C668 H672 0.950 . S
C668 C677 1.390 . S
C669 C668 1.387 . S
C669 C671 1.387 . S
H670 C677 0.950 . S
C671 C669 1.387 . S
C671 C673 1.390 . S
C671 H675 0.950 . S
H672 C668 0.950 . S
C673 C671 1.390 . S
C673 C674 1.387 . S
C673 H676 0.950 . S
C674 C673 1.387 . S
C674 C677 1.387 . S
H675 C671 0.950 . S
H676 C673 0.950 . S
C677 C668 1.390 . S
C677 H670 0.950 . S
C677 C674 1.387 . S
C678 C679 1.387 . S
C678 H682 0.950 . S
C678 C687 1.390 . S
C679 C678 1.387 . S
C679 C681 1.387 . S
H680 C687 0.950 . S
C681 C679 1.387 . S
C681 C683 1.390 . S
C681 H685 0.950 . S
H682 C678 0.950 . S
C683 C681 1.390 . S
C683 C684 1.387 . S
C683 H686 0.950 . S
C684 C683 1.387 . S
C684 C687 1.387 . S
H685 C681 0.950 . S
H686 C683 0.950 . S
C687 C678 1.390 . S
C687 H680 0.950 . S
C687 C684 1.387 . S
C688 C689 1.387 . S
C688 H692 0.950 . S
C688 C697 1.390 . S
C689 C688 1.387 . S
C689 C691 1.387 . S
H690 C697 0.950 . S
C691 C689 1.387 . S
C691 C693 1.390 . S
C691 H695 0.950 . S
H692 C688 0.950 . S
C693 C691 1.390 . S
C693 C694 1.387 . S
C693 H696 0.950 . S
C694 C693 1.387 . S
C694 C697 1.387 . S
H695 C691 0.950 . S
H696 C693 0.950 . S
C697 C688 1.390 . S
C697 H690 0.950 . S
C697 C694 1.387 . S
C698 C699 1.387 . S
C698 H702 0.950 . S
C698 C707 1.390 . S
C699 C698 1.387 . S
C699 C701 1.387 . S
H700 C707 0.950 . S
C701 C699 1.387 . S
C701 C703 1.390 . S
C701 H705 0.950 . S
H702 C698 0.950 . S
C703 C701 1.390 . S
C703 C704 1.387 . S
C703 H706 0.950 . S
C704 C703 1.387 . S
C704 C707 1.387 . S
H705 C701 0.950 . S
H706 C703 0.950 . S
C707 C698 1.390 . S
C707 H700 0.950 . S
C707 C704 1.387 . S
C708 C709 1.387 . S
C708 H712 0.950 . S
C708 C717 1.390 . S
C709 C708 1.387 . S
C709 C711 1.387 . S
H710 C717 0.950 . S
C711 C709 1.387 . S
C711 C713 1.390 . S
C711 H715 0.950 . S
H712 C708 0.950 . S
C713 C711 1.390 . S
C713 C714 1.387 . S
C713 H716 0.950 . S
C714 C713 1.387 . S
C714 C717 1.387 . S
H715 C711 0.950 . S
H716 C713 0.950 . S
C717 C708 1.390 . S
C717 H710 0.950 . S
C717 C714 1.387 . S
C718 C719 1.387 . S
C718 H722 0.950 . S
C718 C727 1.390 . S
C719 C718 1.387 . S
C719 C721 1.387 . S
H720 C727 0.950 . S
C721 C719 1.387 . S
C721 C723 1.390 . S
C721 H725 0.950 . S
H722 C718 0.950 . S
C723 C721 1.390 . S
C723 C724 1.387 . S
C723 H726 0.950 . S
C724 C723 1.387 . S
C724 C727 1.387 . S
H725 C721 0.950 . S
H726 C723 0.950 . S
C727 C718 1.390 . S
C727 H720 0.950 . S
C727 C724 1.387 . S
C728 C729 1.387 . S
C728 H732 0.950 . S
C728 C737 1.390 . S
C729 C728 1.387 . S
C729 C731 1.387 . S
H730 C737 0.950 . S
C731 C729 1.387 . S
C731 C733 1.390 . S
C731 H735 0.950 . S
H732 C728 0.950 . S
C733 C731 1.390 . S
C733 C734 1.387 . S
C733 H736 0.950 . S
C734 C733 1.387 . S
C734 C737 1.387 . S
H735 C731 0.950 . S
H736 C733 0.950 . S
C737 C728 1.390 . S
C737 H730 0.950 . S
C737 C734 1.387 . S
C738 C739 1.387 . S
C738 H742 0.950 . S
C738 C747 1.390 . S
C739 C738 1.387 . S
C739 C741 1.387 . S
H740 C747 0.950 . S
C741 C739 1.387 . S
C741 C743 1.390 . S
C741 H745 0.950 . S
H742 C738 0.950 . S
C743 C741 1.390 . S
C743 C744 1.387 . S
C743 H746 0.950 . S
C744 C743 1.387 . S
C744 C747 1.387 . S
H745 C741 0.950 . S
H746 C743 0.950 . S
C747 C738 1.390 . S
C747 H740 0.950 . S
C747 C744 1.387 . S
C748 C749 1.387 . S
C748 H752 0.950 . S
C748 C757 1.390 . S
C749 C748 1.387 . S
C749 C751 1.387 . S
H750 C757 0.950 . S
C751 C749 1.387 . S
C751 C753 1.390 . S
C751 H755 0.950 . S
H752 C748 0.950 . S
C753 C751 1.390 . S
C753 C754 1.387 . S
C753 H756 0.950 . S
C754 C753 1.387 . S
C754 C757 1.387 . S
H755 C751 0.950 . S
H756 C753 0.950 . S
C757 C748 1.390 . S
C757 H750 0.950 . S
C757 C754 1.387 . S
C758 C759 1.387 . S
C758 H762 0.950 . S
C758 C767 1.390 . S
C759 C758 1.387 . S
C759 C761 1.387 . S
H760 C767 0.950 . S
C761 C759 1.387 . S
C761 C763 1.390 . S
C761 H765 0.950 . S
H762 C758 0.950 . S
C763 C761 1.390 . S
C763 C764 1.387 . S
C763 H766 0.950 . S
C764 C763 1.387 . S
C764 C767 1.387 . S
H765 C761 0.950 . S
H766 C763 0.950 . S
C767 C758 1.390 . S
C767 H760 0.950 . S
C767 C764 1.387 . S
C768 C769 1.387 . S
C768 H772 0.950 . S
C768 C777 1.390 . S
C769 C768 1.387 . S
C769 C771 1.387 . S
H770 C777 0.950 . S
C771 C769 1.387 . S
C771 C773 1.390 . S
C771 H775 0.950 . S
H772 C768 0.950 . S
C773 C771 1.390 . S
C773 C774 1.387 . S
C773 H776 0.950 . S
C774 C773 1.387 . S
C774 C777 1.387 . S
H775 C771 0.950 . S
H776 C773 0.950 . S
C777 C768 1.390 . S
C777 H770 0.950 . S
C777 C774 1.387 . S
C778 C779 1.387 . S
C778 H782 0.950 . S
C778 C787 1.390 . S
C779 C778 1.387 . S
C779 C781 1.387 . S
H780 C787 0.950 . S
C781 C779 1.387 . S
C781 C783 1.390 . S
C781 H785 0.950 . S
H782 C778 0.950 . S
C783 C781 1.390 . S
C783 C784 1.387 . S
C783 H786 0.950 . S
C784 C783 1.387 . S
C784 C787 1.387 . S
H785 C781 0.950 . S
H786 C783 0.950 . S
C787 C778 1.390 . S
C787 H780 0.950 . S
C787 C784 1.387 . S
C788 C789 1.387 . S
C788 H792 0.950 . S
C788 C797 1.390 . S
C789 C788 1.387 . S
C789 C791 1.387 . S
H790 C797 0.950 . S
C791 C789 1.387 . S
C791 C793 1.390 . S
C791 H795 0.950 . S
H792 C788 0.950 . S
C793 C791 1.390 . S
C793 C794 1.387 . S
C793 H796 0.950 . S
C794 C793 1.387 . S
C794 C797 1.387 . S
H795 C791 0.950 . S
H796 C793 0.950 . S
C797 C788 1.390 . S
C797 H790 0.950 . S
C797 C794 1.387 . S
C798 C799 1.387 . S
C798 H802 0.950 . S
C798 C807 1.390 . S
C799 C798 1.387 . S
C799 C801 1.387 . S
H800 C807 0.950 . S
C801 C799 1.387 . S
C801 C803 1.390 . S
C801 H805 0.950 . S
H802 C798 0.950 . S
C803 C801 1.390 . S
C803 C804 1.387 . S
C803 H806 0.950 . S
C804 C803 1.387 . S
C804 C807 1.387 . S
H805 C801 0.950 . S
H806 C803 0.950 . S
C807 C798 1.390 . S
C807 H800 0.950 . S
C807 C804 1.387 . S
C808 C809 1.387 . S
C808 H812 0.950 . S
C808 C817 1.390 . S
C809 C808 1.387 . S
C809 C811 1.387 . S
H810 C817 0.950 . S
C811 C809 1.387 . S
C811 C813 1.390 . S
C811 H815 0.950 . S
H812 C808 0.950 . S
C813 C811 1.390 . S
C813 C814 1.387 . S
C813 H816 0.950 . S
C814 C813 1.387 . S
C814 C817 1.387 . S
H815 C811 0.950 . S
H816 C813 0.950 . S
C817 C808 1.390 . S
C817 H810 0.950 . S
C817 C814 1.387 . S
C818 C819 1.387 . S
C818 H822 0.950 . S
C818 C827 1.390 . S
C819 C818 1.387 . S
C819 C821 1.387 . S
H820 C827 0.950 . S
C821 C819 1.387 . S
C821 C823 1.390 . S
C821 H825 0.950 . S
H822 C818 0.950 . S
C823 C821 1.390 . S
C823 C824 1.387 . S
C823 H826 0.950 . S
C824 C823 1.387 . S
C824 C827 1.387 . S
H825 C821 0.950 . S
H826 C823 0.950 . S
C827 C818 1.390 . S
C827 H820 0.950 . S
C827 C824 1.387 . S
C828 C829 1.387 . S
C828 H832 0.950 . S
C828 C837 1.390 . S
C829 C828 1.387 . S
C829 C831 1.387 . S
H830 C837 0.950 . S
C831 C829 1.387 . S
C831 C833 1.390 . S
C831 H835 0.950 . S
H832 C828 0.950 . S
C833 C831 1.390 . S
C833 C834 1.387 . S
C833 H836 0.950 . S
C834 C833 1.387 . S
C834 C837 1.387 . S
H835 C831 0.950 . S
H836 C833 0.950 . S
C837 C828 1.390 . S
C837 H830 0.950 . S
C837 C834 1.387 . S
C838 C839 1.387 . S
C838 H842 0.950 . S
C838 C847 1.390 . S
C839 C838 1.387 . S
C839 C841 1.387 . S
H840 C847 0.950 . S
C841 C839 1.387 . S
C841 C843 1.390 . S
C841 H845 0.950 . S
H842 C838 0.950 . S
C843 C841 1.390 . S
C843 C844 1.387 . S
C843 H846 0.950 . S
C844 C843 1.387 . S
C844 C847 1.387 . S
H845 C841 0.950 . S
H846 C843 0.950 . S
C847 C838 1.390 . S
C847 H840 0.950 . S
C847 C844 1.387 . S
C848 C849 1.387 . S
C848 H852 0.950 . S
C848 C857 1.390 . S
C849 C848 1.387 . S
C849 C851 1.387 . S
H850 C857 0.950 . S
C851 C849 1.387 . S
C851 C853 1.390 . S
C851 H855 0.950 . S
H852 C848 0.950 . S
C853 C851 1.390 . S
C853 C854 1.387 . S
C853 H856 0.950 . S
C854 C853 1.387 . S
C854 C857 1.387 . S
H855 C851 0.950 . S
H856 C853 0.950 . S
C857 C848 1.390 . S
C857 H850 0.950 . S
C857 C854 1.387 . S
C858 C859 1.387 . S
C858 H862 0.950 . S
C858 C867 1.390 . S
C859 C858 1.387 . S
C859 C861 1.387 . S
H860 C867 0.950 . S
C861 C859 1.387 . S
C861 C863 1.390 . S
C861 H865 0.950 . S
H862 C858 0.950 . S
C863 C861 1.390 . S
C863 C864 1.387 . S
C863 H866 0.950 . S
C864 C863 1.387 . S
C864 C867 1.387 . S
H865 C861 0.950 . S
H866 C863 0.950 . S
C867 C858 1.390 . S
C867 H860 0.950 . S
C867 C864 1.387 . S
C868 C869 1.387 . S
C868 H872 0.950 . S
C868 C877 1.390 . S
C869 C868 1.387 . S
C869 C871 1.387 . S
H870 C877 0.950 . S
C871 C869 1.387 . S
C871 C873 1.390 . S
C871 H875 0.950 . S
H872 C868 0.950 . S
C873 C871 1.390 . S
C873 C874 1.387 . S
C873 H876 0.950 . S
C874 C873 1.387 . S
C874 C877 1.387 . S
H875 C871 0.950 . S
H876 C873 0.950 . S
C877 C868 1.390 . S
C877 H870 0.950 . S
C877 C874 1.387 . S
C878 C879 1.387 . S
C878 H882 0.950 . S
C878 C887 1.390 . S
C879 C878 1.387 . S
C879 C881 1.387 . S
H880 C887 0.950 . S
C881 C879 1.387 . S
C881 C883 1.390 . S
C881 H885 0.950 . S
H882 C878 0.950 . S
C883 C881 1.390 . S
C883 C884 1.387 . S
C883 H886 0.950 . S
C884 C883 1.387 . S
C884 C887 1.387 . S
H885 C881 0.950 . S
H886 C883 0.950 . S
C887 C878 1.390 . S
C887 H880 0.950 . S
C887 C884 1.387 . S
C888 C889 1.387 . S
C888 H892 0.950 . S
C888 C897 1.390 . S
C889 C888 1.387 . S
C889 C891 1.387 . S
H890 C897 0.950 . S
C891 C889 1.387 . S
C891 C893 1.390 . S
C891 H895 0.950 . S
H892 C888 0.950 . S
C893 C891 1.390 . S
C893 C894 1.387 . S
C893 H896 0.950 . S
C894 C893 1.387 . S
C894 C897 1.387 . S
H895 C891 0.950 . S
H896 C893 0.950 . S
C897 C888 1.390 . S
C897 H890 0.950 . S
C897 C894 1.387 . S
C898 C899 1.387 . S
C898 H902 0.950 . S
C898 C907 1.390 . S
C899 C898 1.387 . S
C899 C901 1.387 . S
H900 C907 0.950 . S
C901 C899 1.387 . S
C901 C903 1.390 . S
C901 H905 0.950 . S
H902 C898 0.950 . S
C903 C901 1.390 . S
C903 C904 1.387 . S
C903 H906 0.950 . S
C904 C903 1.387 . S
C904 C907 1.387 . S
H905 C901 0.950 . S
H906 C903 0.950 . S
C907 C898 1.390 . S
C907 H900 0.950 . S
C907 C904 1.387 . S
C908 C909 1.387 . S
C908 H912 0.950 . S
C908 C917 1.390 . S
C909 C908 1.387 . S
C909 C911 1.387 . S
H910 C917 0.950 . S
C911 C909 1.387 . S
C911 C913 1.390 . S
C911 H915 0.950 . S
H912 C908 0.950 . S
C913 C911 1.390 . S
C913 C914 1.387 . S
C913 H916 0.950 . S
C914 C913 1.387 . S
C914 C917 1.387 . S
H915 C911 0.950 . S
H916 C913 0.950 . S
C917 C908 1.390 . S
C917 H910 0.950 . S
C917 C914 1.387 . S
C918 C919 1.387 . S
C918 H922 0.950 . S
C918 C927 1.390 . S
C919 C918 1.387 . S
C919 C921 1.387 . S
H920 C927 0.950 . S
C921 C919 1.387 . S
C921 C923 1.390 . S
C921 H925 0.950 . S
H922 C918 0.950 . S
C923 C921 1.390 . S
C923 C924 1.387 . S
C923 H926 0.950 . S
C924 C923 1.387 . S
C924 C927 1.387 . S
H925 C921 0.950 . S
H926 C923 0.950 . S
C927 C918 1.390 . S
C927 H920 0.950 . S
C927 C924 1.387 . S
C928 C929 1.387 1_655 S
C928 H932 0.950 . S
C928 C937 1.390 . S
C929 C928 1.387 1_455 S
C929 C931 1.387 . S
H930 C937 0.950 . S
C931 C929 1.387 . S
C931 C933 1.390 . S
C931 H935 0.950 . S
H932 C928 0.950 . S
C933 C931 1.390 . S
C933 C934 1.387 . S
C933 H936 0.950 . S
C934 C933 1.387 . S
C934 C937 1.387 1_455 S
H935 C931 0.950 . S
H936 C933 0.950 . S
C937 C928 1.390 . S
C937 H930 0.950 . S
C937 C934 1.387 1_655 S
C938 C939 1.387 . S
C938 H942 0.950 . S
C938 C947 1.390 . S
C939 C938 1.387 . S
C939 C941 1.387 . S
H940 C947 0.950 . S
C941 C939 1.387 . S
C941 C943 1.390 . S
C941 H945 0.950 . S
H942 C938 0.950 . S
C943 C941 1.390 . S
C943 C944 1.387 . S
C943 H946 0.950 . S
C944 C943 1.387 . S
C944 C947 1.387 . S
H945 C941 0.950 . S
H946 C943 0.950 . S
C947 C938 1.390 . S
C947 H940 0.950 . S
C947 C944 1.387 . S
C948 C949 1.387 . S
C948 H952 0.950 . S
C948 C957 1.390 . S
C949 C948 1.387 . S
C949 C951 1.387 . S
H950 C957 0.950 . S
C951 C949 1.387 . S
C951 C953 1.390 . S
C951 H955 0.950 . S
H952 C948 0.950 . S
C953 C951 1.390 . S
C953 C954 1.387 . S
C953 H956 0.950 . S
C954 C953 1.387 . S
C954 C957 1.387 . S
H955 C951 0.950 . S
H956 C953 0.950 . S
C957 C948 1.390 . S
C957 H950 0.950 . S
C957 C954 1.387 . S
C958 C959 1.387 . S
C958 H962 0.950 . S
C958 C967 1.390 1_556 S
C959 C958 1.387 . S
C959 C961 1.387 . S
H960 C967 0.950 . S
C961 C959 1.387 . S
C961 C963 1.390 1_556 S
C961 H965 0.950 . S
H962 C958 0.950 . S
C963 C961 1.390 1_554 S
C963 C964 1.387 . S
C963 H966 0.950 . S
C964 C963 1.387 . S
C964 C967 1.387 . S
H965 C961 0.950 . S
H966 C963 0.950 . S
C967 C958 1.390 1_554 S
C967 H960 0.950 . S
C967 C964 1.387 . S
C968 C969 1.387 1_455 S
C968 H972 0.950 . S
C968 C977 1.390 . S
C969 C968 1.387 1_655 S
C969 C971 1.387 . S
H970 C977 0.950 . S
C971 C969 1.387 . S
C971 C973 1.390 . S
C971 H975 0.950 . S
H972 C968 0.950 . S
C973 C971 1.390 . S
C973 C974 1.387 . S
C973 H976 0.950 . S
C974 C973 1.387 . S
C974 C977 1.387 1_655 S
H975 C971 0.950 . S
H976 C973 0.950 . S
C977 C968 1.390 . S
C977 H970 0.950 . S
C977 C974 1.387 1_455 S
C978 C979 1.387 . S
C978 H982 0.950 . S
C978 C987 1.390 . S
C979 C978 1.387 . S
C979 C981 1.387 . S
H980 C987 0.950 . S
C981 C979 1.387 . S
C981 C983 1.390 . S
C981 H985 0.950 . S
H982 C978 0.950 . S
C983 C981 1.390 . S
C983 C984 1.387 . S
C983 H986 0.950 . S
C984 C983 1.387 . S
C984 C987 1.387 . S
H985 C981 0.950 . S
H986 C983 0.950 . S
C987 C978 1.390 . S
C987 H980 0.950 . S
C987 C984 1.387 . S
C988 C989 1.387 . S
C988 H992 0.950 . S
C988 C997 1.390 . S
C989 C988 1.387 . S
C989 C991 1.387 . S
H990 C997 0.950 . S
C991 C989 1.387 . S
C991 C993 1.390 . S
C991 H995 0.950 . S
H992 C988 0.950 . S
C993 C991 1.390 . S
C993 C994 1.387 . S
C993 H996 0.950 . S
C994 C993 1.387 . S
C994 C997 1.387 . S
H995 C991 0.950 . S
H996 C993 0.950 . S
C997 C988 1.390 . S
C997 H990 0.950 . S
C997 C994 1.387 . S
C998 C999 1.387 . S
C998 H1002 0.950 . S
C998 C1007 1.390 1_554 S
C999 C998 1.387 . S
C999 C1001 1.387 . S
H1000 C1007 0.950 . S
C1001 C999 1.387 . S
C1001 C1003 1.390 1_554 S
C1001 H1005 0.950 . S
H1002 C998 0.950 . S
C1003 C1001 1.390 1_556 S
C1003 C1004 1.387 . S
C1003 H1006 0.950 . S
C1004 C1003 1.387 . S
C1004 C1007 1.387 . S
H1005 C1001 0.950 . S
H1006 C1003 0.950 . S
C1007 C998 1.390 1_556 S
C1007 H1000 0.950 . S
C1007 C1004 1.387 . S
C1008 C1009 1.387 . S
C1008 H1012 0.950 . S
C1008 C1017 1.390 1_565 S
C1009 C1008 1.387 . S
C1009 C1011 1.387 . S
H1010 C1017 0.950 . S
C1011 C1009 1.387 . S
C1011 C1013 1.390 1_565 S
C1011 H1015 0.950 . S
H1012 C1008 0.950 . S
C1013 C1011 1.390 1_545 S
C1013 C1014 1.387 . S
C1013 H1016 0.950 . S
C1014 C1013 1.387 . S
C1014 C1017 1.387 . S
H1015 C1011 0.950 . S
H1016 C1013 0.950 . S
C1017 C1008 1.390 1_545 S
C1017 H1010 0.950 . S
C1017 C1014 1.387 . S
C1018 C1019 1.387 . S
C1018 H1022 0.950 . S
C1018 C1027 1.390 1_554 S
C1019 C1018 1.387 . S
C1019 C1021 1.387 . S
H1020 C1027 0.950 . S
C1021 C1019 1.387 . S
C1021 C1023 1.390 1_554 S
C1021 H1025 0.950 . S
H1022 C1018 0.950 . S
C1023 C1021 1.390 1_556 S
C1023 C1024 1.387 . S
C1023 H1026 0.950 . S
C1024 C1023 1.387 . S
C1024 C1027 1.387 . S
H1025 C1021 0.950 . S
H1026 C1023 0.950 . S
C1027 C1018 1.390 1_556 S
C1027 H1020 0.950 . S
C1027 C1024 1.387 . S
C1028 C1029 1.387 1_455 S
C1028 H1032 0.950 . S
C1028 C1037 1.390 1_545 S
C1029 C1028 1.387 1_655 S
C1029 C1031 1.387 . S
H1030 C1037 0.950 . S
C1031 C1029 1.387 . S
C1031 C1033 1.390 1_545 S
C1031 H1035 0.950 . S
H1032 C1028 0.950 . S
C1033 C1031 1.390 1_565 S
C1033 C1034 1.387 . S
C1033 H1036 0.950 . S
C1034 C1033 1.387 . S
C1034 C1037 1.387 1_655 S
H1035 C1031 0.950 . S
H1036 C1033 0.950 . S
C1037 C1028 1.390 1_565 S
C1037 H1030 0.950 . S
C1037 C1034 1.387 1_455 S
C1038 C1039 1.387 . S
C1038 H1042 0.950 . S
C1038 C1047 1.390 . S
C1039 C1038 1.387 . S
C1039 C1041 1.387 . S
H1040 C1047 0.950 . S
C1041 C1039 1.387 . S
C1041 C1043 1.390 . S
C1041 H1045 0.950 . S
H1042 C1038 0.950 . S
C1043 C1041 1.390 . S
C1043 C1044 1.387 . S
C1043 H1046 0.950 . S
C1044 C1043 1.387 . S
C1044 C1047 1.387 . S
H1045 C1041 0.950 . S
H1046 C1043 0.950 . S
C1047 C1038 1.390 . S
C1047 H1040 0.950 . S
C1047 C1044 1.387 . S
C1048 C1049 1.387 . S
C1048 H1052 0.950 . S
C1048 C1057 1.390 1_545 S
C1049 C1048 1.387 . S
C1049 C1051 1.387 . S
H1050 C1057 0.950 . S
C1051 C1049 1.387 . S
C1051 C1053 1.390 1_545 S
C1051 H1055 0.950 . S
H1052 C1048 0.950 . S
C1053 C1051 1.390 1_565 S
C1053 C1054 1.387 . S
C1053 H1056 0.950 . S
C1054 C1053 1.387 . S
C1054 C1057 1.387 . S
H1055 C1051 0.950 . S
H1056 C1053 0.950 . S
C1057 C1048 1.390 1_565 S
C1057 H1050 0.950 . S
C1057 C1054 1.387 . S
C1058 C1059 1.387 . S
C1058 H1062 0.950 . S
C1058 C1067 1.390 1_554 S
C1059 C1058 1.387 . S
C1059 C1061 1.387 . S
H1060 C1067 0.950 . S
C1061 C1059 1.387 . S
C1061 C1063 1.390 1_554 S
C1061 H1065 0.950 . S
H1062 C1058 0.950 . S
C1063 C1061 1.390 1_556 S
C1063 C1064 1.387 . S
C1063 H1066 0.950 . S
C1064 C1063 1.387 . S
C1064 C1067 1.387 . S
H1065 C1061 0.950 . S
H1066 C1063 0.950 . S
C1067 C1058 1.390 1_556 S
C1067 H1060 0.950 . S
C1067 C1064 1.387 . S
C1068 C1069 1.387 1_655 S
C1068 H1072 0.950 . S
C1068 C1077 1.390 1_545 S
C1069 C1068 1.387 1_455 S
C1069 C1071 1.387 . S
H1070 C1077 0.950 . S
C1071 C1069 1.387 . S
C1071 C1073 1.390 1_545 S
C1071 H1075 0.950 . S
H1072 C1068 0.950 . S
C1073 C1071 1.390 1_565 S
C1073 C1074 1.387 . S
C1073 H1076 0.950 . S
C1074 C1073 1.387 . S
C1074 C1077 1.387 1_455 S
H1075 C1071 0.950 . S
H1076 C1073 0.950 . S
C1077 C1068 1.390 1_565 S
C1077 H1070 0.950 . S
C1077 C1074 1.387 1_655 S
C1078 C1079 1.387 . S
C1078 H1082 0.950 . S
C1078 C1087 1.390 . S
C1079 C1078 1.387 . S
C1079 C1081 1.387 . S
H1080 C1087 0.950 . S
C1081 C1079 1.387 . S
C1081 C1083 1.390 . S
C1081 H1085 0.950 . S
H1082 C1078 0.950 . S
C1083 C1081 1.390 . S
C1083 C1084 1.387 . S
C1083 H1086 0.950 . S
C1084 C1083 1.387 . S
C1084 C1087 1.387 . S
H1085 C1081 0.950 . S
H1086 C1083 0.950 . S
C1087 C1078 1.390 . S
C1087 H1080 0.950 . S
C1087 C1084 1.387 . S
C449 C12 1.579 . S
C454 C306 1.580 . S
C459 C320 1.581 . S
C464 C26 1.581 . S
C469 C40 1.580 . S
C474 C334 1.580 . S
C479 C292 1.580 . S
C484 C54 1.580 . S
C489 C68 1.581 . S
C494 C278 1.581 . S
C499 C82 1.579 . S
C504 C236 1.579 . S
C509 C250 1.581 . S
C514 C96 1.581 . S
C519 C110 1.581 . S
C524 C264 1.581 . S
C529 C124 1.581 . S
C534 C418 1.580 . S
C539 C138 1.581 . S
C544 C432 1.581 . S
C549 C446 1.580 . S
C554 C152 1.580 . S
C559 C404 1.579 . S
C564 C166 1.579 . S
C569 C180 1.581 . S
C574 C390 1.581 . S
C579 C348 1.580 . S
C584 C194 1.580 . S
C589 C208 1.579 . S
C594 C362 1.579 . S
C599 C376 1.579 . S
C604 C222 1.579 . S
C609 C4 1.196 . S
C614 C131 1.138 . S
C619 C18 1.196 . S
C624 C369 1.143 . S
C629 C159 1.139 . S
C634 C32 1.196 . S
C639 C46 1.196 . S
C644 C341 1.143 . S
C649 C60 1.196 . S
C654 C215 1.141 . S
C659 C397 1.140 . S
C664 C74 1.197 . S
C669 C187 1.138 . S
C674 C88 1.196 . S
C679 C425 1.139 . S
C684 C102 1.196 . S
C689 C116 1.197 . S
C694 C19 1.141 . S
C699 C257 1.138 . S
C704 C130 1.196 . S
C709 C47 1.142 . S
C714 C144 1.197 . S
C719 C158 1.197 . S
C724 C229 1.140 . S
C729 C103 1.139 . S
C734 C172 1.196 . S
C739 C285 1.138 . S
C744 C186 1.196 . S
C749 C75 1.140 . S
C754 C200 1.196 . S
C759 C214 1.196 . S
C764 C313 1.143 . S
C769 C355 1.139 . S
C774 C228 1.196 . S
C779 C145 1.142 . S
C784 C242 1.197 . S
C789 C383 1.138 . S
C794 C256 1.196 . S
C799 C270 1.196 . S
C804 C117 1.143 . S
C809 C439 1.138 . S
C814 C284 1.196 . S
C819 C173 1.138 . S
C824 C298 1.196 . S
C829 C411 1.139 . S
C834 C312 1.196 . S
C839 C326 1.197 . S
C844 C201 1.142 . S
C849 C340 1.197 . S
C854 C243 1.142 . S
C859 C33 1.138 . S
C864 C354 1.196 . S
C869 C368 1.197 . S
C874 C271 1.142 . S
C879 C382 1.196 . S
C884 C5 1.139 . S
C889 C396 1.196 . S
C894 C327 1.139 . S
C899 C61 1.143 . S
C904 C410 1.196 . S
C909 C299 1.141 . S
C914 C424 1.197 . S
C919 C438 1.196 . S
C924 C89 1.143 . S
C929 C11 1.262 . S
C934 C67 1.262 . S
C939 C25 1.262 . S
C944 C81 1.262 . S
C949 C95 1.262 . S
C954 C39 1.262 . S
C959 C109 1.262 . S
C964 C53 1.262 . S
C969 C179 1.265 . S
C974 C123 1.265 . S
C979 C193 1.262 . S
C984 C137 1.262 . S
C989 C207 1.265 . S
C994 C151 1.265 . S
C999 C221 1.265 . S
C1004 C165 1.265 . S
C1009 C235 1.262 . S
C1014 C291 1.262 . S
C1019 C249 1.262 . S
C1024 C305 1.262 . S
C1029 C263 1.262 . S
C1034 C319 1.262 . S
C1039 C333 1.262 . S
C1044 C277 1.262 . S
C1049 C347 1.265 . S
C1054 C403 1.265 . S
C1059 C417 1.265 . S
C1064 C361 1.265 . S
C1069 C431 1.265 . S
C1074 C375 1.265 . S
C1079 C445 1.262 . S
C1084 C389 1.262 . S
