# Generated by pormake.
# Topology zfx, (5)-cn, num edge types: 1
# Building blocks:
#     Node 0, Type 0, BuildingBlock: XOMCOT_clean_sbu_1, # of connection points: 5
#     Node 1, Type 0, BuildingBlock: XOMCOT_clean_sbu_1, # of connection points: 5
#     Node 2, Type 0, BuildingBlock: XOMCOT_clean_sbu_1, # of connection points: 5
#     Node 3, Type 0, BuildingBlock: XOMCOT_clean_sbu_1, # of connection points: 5
#     Node 4, Type 0, BuildingBlock: XOMCOT_clean_sbu_1, # of connection points: 5
#     Node 5, Type 0, BuildingBlock: XOMCOT_clean_sbu_1, # of connection points: 5
#     Node 6, Type 0, BuildingBlock: XOMCOT_clean_sbu_1, # of connection points: 5
#     Node 7, Type 0, BuildingBlock: XOMCOT_clean_sbu_1, # of connection points: 5
#     Node 8, Type 0, BuildingBlock: XOMCOT_clean_sbu_1, # of connection points: 5
#     Node 9, Type 0, BuildingBlock: XOMCOT_clean_sbu_1, # of connection points: 5
#     Node 10, Type 0, BuildingBlock: XOMCOT_clean_sbu_1, # of connection points: 5
#     Node 11, Type 0, BuildingBlock: XOMCOT_clean_sbu_1, # of connection points: 5
#     Node 12, Type 0, BuildingBlock: XOMCOT_clean_sbu_1, # of connection points: 5
#     Node 13, Type 0, BuildingBlock: XOMCOT_clean_sbu_1, # of connection points: 5
#     Node 14, Type 0, BuildingBlock: XOMCOT_clean_sbu_1, # of connection points: 5
#     Node 15, Type 0, BuildingBlock: XOMCOT_clean_sbu_1, # of connection points: 5
#     Edge 16, Type (0, 0), None
#     Edge 17, Type (0, 0), None
#     Edge 18, Type (0, 0), None
#     Edge 19, Type (0, 0), None
#     Edge 20, Type (0, 0), None
#     Edge 21, Type (0, 0), None
#     Edge 22, Type (0, 0), None
#     Edge 23, Type (0, 0), None
#     Edge 24, Type (0, 0), None
#     Edge 25, Type (0, 0), None
#     Edge 26, Type (0, 0), None
#     Edge 27, Type (0, 0), None
#     Edge 28, Type (0, 0), None
#     Edge 29, Type (0, 0), None
#     Edge 30, Type (0, 0), None
#     Edge 31, Type (0, 0), None
#     Edge 32, Type (0, 0), None
#     Edge 33, Type (0, 0), None
#     Edge 34, Type (0, 0), None
#     Edge 35, Type (0, 0), None
#     Edge 36, Type (0, 0), None
#     Edge 37, Type (0, 0), None
#     Edge 38, Type (0, 0), None
#     Edge 39, Type (0, 0), None
#     Edge 40, Type (0, 0), None
#     Edge 41, Type (0, 0), None
#     Edge 42, Type (0, 0), None
#     Edge 43, Type (0, 0), None
#     Edge 44, Type (0, 0), None
#     Edge 45, Type (0, 0), None
#     Edge 46, Type (0, 0), None
#     Edge 47, Type (0, 0), None
#     Edge 48, Type (0, 0), None
#     Edge 49, Type (0, 0), None
#     Edge 50, Type (0, 0), None
#     Edge 51, Type (0, 0), None
#     Edge 52, Type (0, 0), None
#     Edge 53, Type (0, 0), None
#     Edge 54, Type (0, 0), None
#     Edge 55, Type (0, 0), None
# Relax obj value: 0.474
# Max RMSD: 0.205
# Mean RMSD: 0.205
data_MOF--net-zfx--node1-XOMCOT_clean_sbu_1--edge1-none
_symmetry_space_group_name_H-M    P1
_symmetry_Int_Tables_number       1
_symmetry_cell_setting            triclinic
loop_
_symmetry_equiv_pos_as_xyz
'x, y, z'
_cell_length_a     33.120737
_cell_length_b     33.126436
_cell_length_c     11.55135
_cell_angle_alpha  89.99976
_cell_angle_beta   89.999745
_cell_angle_gamma 90.009931
loop_
_atom_site_label
_atom_site_type_symbol
_atom_site_fract_x
_atom_site_fract_y
_atom_site_fract_z
_atom_type_partial_charge
C0 C 0.58632 0.12488 0.46476 0.0
C1 C 0.61206 0.12777 0.55818 0.0
N2 N 0.60333 0.16243 0.61262 0.0
N3 N 0.56113 0.15712 0.46412 0.0
C4 C 0.57427 0.18048 0.55039 0.0
H5 H 0.58382 0.09894 0.40869 0.0
Co6 Co 0.50994 0.16097 0.40067 0.0
C7 C 0.48574 0.20113 0.64362 0.0
O8 O 0.50495 0.1763 0.71298 0.0
N9 N 0.45929 0.1621 0.34182 0.0
C10 C 0.39308 0.15965 0.31859 0.0
C11 C 0.42359 0.17234 0.38988 0.0
C12 C 0.44949 0.14093 0.24786 0.0
N13 N 0.40969 0.14195 0.22483 0.0
O14 O 0.52867 0.21006 0.30775 0.0
H15 H 0.41941 0.18825 0.47045 0.0
H16 H 0.47183 0.12863 0.18943 0.0
O17 O 0.48824 0.19636 0.53279 0.0
C18 C 0.53378 0.21234 0.19628 0.0
O19 O 0.5194 0.18354 0.13031 0.0
N20 N 0.49522 0.11202 0.47046 0.0
C21 C 0.48066 0.0315 0.52592 0.0
C22 C 0.46737 0.06261 0.59947 0.0
C23 C 0.47396 0.10301 0.56833 0.0
C24 C 0.50578 0.08208 0.39531 0.0
C25 C 0.49895 0.04172 0.4212 0.0
H26 H 0.4613 0.12635 0.62165 0.0
H27 H 0.5205 0.08979 0.31468 0.0
H28 H 0.56034 0.20865 0.57305 0.0
H29 H 0.63259 0.1048 0.58937 0.0
H30 H 0.36175 0.16864 0.32563 0.0
H31 H 0.45215 0.05571 0.68007 0.0
H32 H 0.50962 0.01869 0.36204 0.0
C33 C 0.15032 0.33143 0.71472 0.0
C34 C 0.14748 0.35717 0.80813 0.0
N35 N 0.1128 0.34849 0.86258 0.0
N36 N 0.11804 0.30628 0.7141 0.0
C37 C 0.0947 0.31944 0.80038 0.0
H38 H 0.17626 0.3289 0.65863 0.0
Co39 Co 0.11411 0.25509 0.65065 0.0
C40 C 0.07391 0.23096 0.8936 0.0
O41 O 0.09878 0.25013 0.96295 0.0
N42 N 0.1129 0.20446 0.59182 0.0
C43 C 0.11525 0.13826 0.56858 0.0
C44 C 0.1026 0.16878 0.63986 0.0
C45 C 0.13407 0.19463 0.49786 0.0
N46 N 0.13298 0.15484 0.47483 0.0
O47 O 0.06504 0.27389 0.55772 0.0
H48 H 0.08667 0.16462 0.72043 0.0
H49 H 0.14641 0.21695 0.43944 0.0
O50 O 0.07868 0.23345 0.78277 0.0
C51 C 0.06278 0.279 0.44625 0.0
O52 O 0.09157 0.2646 0.38029 0.0
N53 N 0.16304 0.24032 0.72044 0.0
C54 C 0.24356 0.22567 0.77589 0.0
C55 C 0.21242 0.2124 0.84943 0.0
C56 C 0.17202 0.21904 0.81829 0.0
C57 C 0.19301 0.25085 0.6453 0.0
C58 C 0.23336 0.24398 0.67118 0.0
H59 H 0.14866 0.20641 0.87161 0.0
H60 H 0.18532 0.26558 0.56468 0.0
H61 H 0.0665 0.30555 0.82305 0.0
H62 H 0.17047 0.37768 0.83929 0.0
H63 H 0.1062 0.10695 0.57561 0.0
H64 H 0.2193 0.19717 0.93002 0.0
H65 H 0.25641 0.25463 0.61203 0.0
C66 C 0.94355 0.89549 0.9647 0.0
C67 C 0.91781 0.8926 0.05812 0.0
N68 N 0.92653 0.85794 0.11255 0.0
N69 N 0.96874 0.86325 0.96406 0.0
C70 C 0.9556 0.83989 0.05032 0.0
H71 H 0.94605 0.92143 0.90863 0.0
Co72 Co 0.01993 0.85939 0.90061 0.0
C73 C 0.04412 0.81923 0.14355 0.0
O74 O 0.02492 0.84407 0.21291 0.0
N75 N 0.07058 0.85827 0.84176 0.0
C76 C 0.13679 0.86071 0.81853 0.0
C77 C 0.10628 0.84802 0.88981 0.0
C78 C 0.08038 0.87944 0.7478 0.0
N79 N 0.12018 0.87841 0.72476 0.0
O80 O 1.0012 0.81031 0.80768 0.0
H81 H 0.11046 0.83211 0.97038 0.0
H82 H 0.05804 0.89174 0.68938 0.0
O83 O 0.04163 0.824 1.03272 0.0
C84 C 0.99609 0.80803 0.69621 0.0
O85 O 0.01047 0.83683 0.63024 0.0
N86 N 0.03466 0.90834 0.9704 0.0
C87 C 0.04923 0.98886 1.02587 0.0
C88 C 0.06252 0.95775 0.09941 0.0
C89 C 0.05592 0.91735 0.06826 0.0
C90 C 0.02409 0.93829 0.89526 0.0
C91 C 0.03093 0.97864 0.92115 0.0
H92 H 0.06858 0.89401 0.12158 0.0
H93 H 1.00937 0.93058 0.81464 0.0
H94 H 0.96953 0.81171 0.07297 0.0
H95 H 0.89728 0.91557 0.0893 0.0
H96 H 0.16812 0.85172 0.82556 0.0
H97 H 0.07775 0.96465 0.18 0.0
H98 H 0.02026 1.00168 0.862 0.0
C99 C 0.37952 0.68897 0.21476 0.0
C100 C 0.38236 0.66323 0.30818 0.0
N101 N 0.41704 0.6719 0.36262 0.0
N102 N 0.41181 0.71411 0.21414 0.0
C103 C 0.43515 0.70094 0.30041 0.0
H104 H 0.35358 0.69151 0.15869 0.0
Co105 Co 0.41575 0.76529 0.1507 0.0
C106 C 0.45596 0.78942 0.39366 0.0
O107 O 0.43108 0.77025 0.46301 0.0
N108 N 0.41697 0.81593 0.09187 0.0
C109 C 0.41465 0.88213 0.06864 0.0
C110 C 0.42729 0.85161 0.13992 0.0
C111 C 0.39581 0.82577 0.99792 0.0
N112 N 0.39692 0.86556 0.97488 0.0
O113 O 0.46482 0.74649 0.05778 0.0
H114 H 0.44322 0.85577 0.22049 0.0
H115 H 0.38347 0.80345 0.93949 0.0
O116 O 0.45119 0.78693 0.28283 0.0
C117 C 0.46707 0.74137 0.94631 0.0
O118 O 0.43828 0.75577 0.88036 0.0
N119 N 0.36682 0.78008 0.22048 0.0
C120 C 0.2863 0.79473 0.27589 0.0
C121 C 0.31744 0.80798 0.34946 0.0
C122 C 0.35784 0.80135 0.31834 0.0
C123 C 0.33686 0.76956 0.14531 0.0
C124 C 0.29651 0.77643 0.17117 0.0
H125 H 0.38119 0.81397 0.37169 0.0
H126 H 0.34456 0.75483 0.06468 0.0
H127 H 0.46335 0.71483 0.32308 0.0
H128 H 0.35936 0.64273 0.33935 0.0
H129 H 0.42371 0.91344 0.07567 0.0
H130 H 0.31055 0.8232 0.43007 0.0
H131 H 0.27346 0.76579 0.112 0.0
C132 C 0.58508 0.89595 0.62473 0.0
C133 C 0.61091 0.89332 0.53145 0.0
N134 N 0.60256 0.85857 0.47695 0.0
N135 N 0.5602 0.86347 0.62519 0.0
C136 C 0.57362 0.84023 0.53899 0.0
H137 H 0.58228 0.92187 0.68075 0.0
Co138 Co 0.50896 0.85922 0.68804 0.0
C139 C 0.48531 0.81891 0.44463 0.0
O140 O 0.50449 0.84374 0.37519 0.0
N141 N 0.45822 0.85767 0.74629 0.0
C142 C 0.39195 0.8592 0.76952 0.0
C143 C 0.42264 0.84704 0.69807 0.0
C144 C 0.44816 0.87855 0.84055 0.0
N145 N 0.40837 0.877 0.86337 0.0
O146 O 0.52786 0.8102 0.78076 0.0
H147 H 0.41867 0.83116 0.61736 0.0
H148 H 0.47034 0.89096 0.89929 0.0
O149 O 0.48764 0.82382 0.55543 0.0
C150 C 0.53346 0.80834 0.8921 0.0
O151 O 0.51963 0.83756 0.95754 0.0
N152 N 0.49409 0.90816 0.61854 0.0
C153 C 0.48032 0.98876 0.56269 0.0
C154 C 0.46737 0.95776 0.48824 0.0
C155 C 0.47355 0.9173 0.51954 0.0
C156 C 0.5042 0.938 0.69454 0.0
C157 C 0.49772 0.9784 0.66852 0.0
H158 H 0.46129 0.89404 0.46519 0.0
H159 H 0.5185 0.93019 0.7757 0.0
H160 H 0.55994 0.81193 0.5162 0.0
H161 H 0.63123 0.91649 0.50036 0.0
H162 H 0.36074 0.8498 0.76245 0.0
H163 H 0.45282 0.96478 0.40672 0.0
H164 H 0.50811 1.00135 0.72836 0.0
C165 C 0.37903 0.33006 0.87478 0.0
C166 C 0.38162 0.35589 0.78151 0.0
N167 N 0.41638 0.34759 0.72696 0.0
N168 N 0.41154 0.30523 0.8752 0.0
C169 C 0.43476 0.31868 0.78898 0.0
H170 H 0.35311 0.32721 0.93082 0.0
Co171 Co 0.41585 0.254 0.93801 0.0
C172 C 0.4562 0.23042 0.69457 0.0
O173 O 0.43135 0.24956 0.62512 0.0
N174 N 0.41746 0.20326 0.99623 0.0
C175 C 0.41605 0.13701 1.01946 0.0
C176 C 0.42815 0.16771 0.94799 0.0
C177 C 0.39661 0.19317 0.09051 0.0
N178 N 0.39822 0.15338 0.11332 0.0
O179 O 0.46486 0.27296 1.03073 0.0
H180 H 0.44403 0.16378 0.86728 0.0
H181 H 0.38418 0.21531 0.14928 0.0
O182 O 0.45127 0.23275 0.80537 0.0
C183 C 0.46669 0.27859 0.14206 0.0
O184 O 0.43746 0.26476 0.20747 0.0
N185 N 0.36692 0.23907 0.86854 0.0
C186 C 0.2863 0.22529 0.81268 0.0
C187 C 0.31731 0.21238 0.73818 0.0
C188 C 0.35777 0.21857 0.76948 0.0
C189 C 0.33707 0.24913 0.9446 0.0
C190 C 0.29667 0.24264 0.91857 0.0
H191 H 0.38104 0.20636 0.71507 0.0
H192 H 0.34489 0.26341 1.02579 0.0
H193 H 0.46308 0.30505 0.76616 0.0
H194 H 0.35842 0.37618 0.75045 0.0
H195 H 0.4255 0.10582 1.01237 0.0
H196 H 0.31028 0.19787 0.6566 0.0
H197 H 0.27372 0.253 0.97846 0.0
C198 C 0.94482 0.12439 0.12467 0.0
C199 C 0.91899 0.12702 1.0314 0.0
N200 N 0.92733 0.16177 0.97691 0.0
N201 N 0.96969 0.15688 0.12515 0.0
C202 C 0.95627 0.18011 1.03896 0.0
H203 H 0.94763 0.09847 0.18068 0.0
Co204 Co 0.02093 0.16114 0.18798 0.0
C205 C 0.04457 0.20146 0.94457 0.0
O206 O 0.02539 0.17663 0.87513 0.0
N207 N 0.07167 0.1627 0.24623 0.0
C208 C 0.13794 0.16121 0.26946 0.0
C209 C 0.10725 0.17334 0.198 0.0
C210 C 0.08174 0.14183 0.34049 0.0
N211 N 0.12153 0.14339 0.36331 0.0
O212 O 1.00202 0.21016 0.2807 0.0
H213 H 0.11121 0.18922 0.1173 0.0
H214 H 0.05957 0.12942 0.39924 0.0
O215 O 0.04223 0.19654 0.05537 0.0
C216 C 0.99641 0.21201 0.39203 0.0
O217 O 1.01024 0.18279 0.45747 0.0
N218 N 0.03581 0.1122 0.1185 0.0
C219 C 0.04958 0.0316 0.06264 0.0
C220 C 0.06252 0.06261 0.98818 0.0
C221 C 0.05634 0.10306 1.01948 0.0
C222 C 0.02571 0.08236 0.19451 0.0
C223 C 0.03219 0.04196 0.16848 0.0
H224 H 0.06859 0.12632 0.96511 0.0
H225 H 0.01142 0.09017 0.27568 0.0
H226 H 0.96993 0.20842 1.01617 0.0
H227 H 0.89868 0.10383 1.00031 0.0
H228 H 0.16915 0.17061 0.26238 0.0
H229 H 0.07706 0.05558 0.90664 0.0
H230 H 0.02181 0.01902 0.22834 0.0
C231 C 0.15083 0.6903 0.37471 0.0
C232 C 0.14824 0.66447 0.28144 0.0
N233 N 0.11348 0.67277 0.2269 0.0
N234 N 0.11832 0.71513 0.37513 0.0
C235 C 0.0951 0.70168 0.28891 0.0
H236 H 0.17675 0.69315 0.43075 0.0
Co237 Co 0.11401 0.76636 0.43795 0.0
C238 C 0.07366 0.78994 0.19451 0.0
O239 O 0.09852 0.7708 0.12507 0.0
N240 N 0.11239 0.8171 0.49618 0.0
C241 C 0.11381 0.88335 0.5194 0.0
C242 C 0.10171 0.85265 0.44794 0.0
C243 C 0.13325 0.82719 0.59045 0.0
N244 N 0.13164 0.86698 0.61325 0.0
O245 O 0.06499 0.7474 0.53066 0.0
H246 H 0.08583 0.85659 0.36723 0.0
H247 H 0.14568 0.80505 0.64922 0.0
O248 O 0.07859 0.78761 0.30532 0.0
C249 C 0.06317 0.74177 0.64199 0.0
O250 O 0.0924 0.7556 0.7074 0.0
N251 N 0.16294 0.78129 0.36849 0.0
C252 C 0.24356 0.79509 0.31266 0.0
C253 C 0.21255 0.808 0.23817 0.0
C254 C 0.17209 0.80181 0.26945 0.0
C255 C 0.19278 0.77123 0.44455 0.0
C256 C 0.23319 0.77773 0.41854 0.0
H257 H 0.14882 0.81402 0.21503 0.0
H258 H 0.18497 0.75695 0.52573 0.0
H259 H 0.06678 0.71531 0.26609 0.0
H260 H 0.17144 0.64418 0.25038 0.0
H261 H 0.10437 0.91455 0.51231 0.0
H262 H 0.21958 0.82252 0.1566 0.0
H263 H 0.25613 0.76737 0.47843 0.0
C264 C 0.87909 0.83015 0.37483 0.0
C265 C 0.88161 0.85591 0.28138 0.0
N266 N 0.91629 0.84751 0.22657 0.0
N267 N 0.91159 0.8053 0.37515 0.0
C268 C 0.93474 0.81867 0.28869 0.0
H269 H 0.85323 0.82736 0.4311 0.0
Co270 Co 0.91588 0.75406 0.43798 0.0
C271 C 0.95619 0.73044 0.19453 0.0
O272 O 0.93132 0.74956 0.1251 0.0
N273 N 0.91748 0.70333 0.49622 0.0
C274 C 0.91602 0.63709 0.51945 0.0
C275 C 0.92816 0.66778 0.44803 0.0
C276 C 0.89657 0.69323 0.5904 0.0
N277 N 0.89815 0.65344 0.61332 0.0
O278 O 0.9649 0.77301 0.53067 0.0
H279 H 0.94408 0.66383 0.36737 0.0
H280 H 0.88413 0.71538 0.64911 0.0
O281 O 0.95129 0.73279 0.30534 0.0
C282 C 0.96671 0.77864 0.642 0.0
O283 O 0.93748 0.76481 0.70741 0.0
N284 N 0.86694 0.73915 0.36852 0.0
C285 C 0.78632 0.72534 0.31268 0.0
C286 C 0.81734 0.71239 0.23825 0.0
C287 C 0.8578 0.71859 0.26955 0.0
C288 C 0.83709 0.74925 0.44451 0.0
C289 C 0.79669 0.74275 0.41849 0.0
H290 H 0.88106 0.70633 0.21522 0.0
H291 H 0.8449 0.76356 0.52566 0.0
H292 H 0.96305 0.80505 0.2658 0.0
H293 H 0.8584 0.87621 0.25041 0.0
H294 H 0.92546 0.6059 0.51235 0.0
H295 H 0.81031 0.69783 0.15673 0.0
H296 H 0.77374 0.75314 0.47833 0.0
C297 C 0.65077 0.19021 0.87491 0.0
C298 C 0.64825 0.16445 0.78146 0.0
N299 N 0.61358 0.17286 0.72665 0.0
N300 N 0.61827 0.21507 0.87522 0.0
C301 C 0.59513 0.20169 0.78876 0.0
H302 H 0.67663 0.19301 0.93118 0.0
Co303 Co 0.61398 0.26631 0.93805 0.0
C304 C 0.57367 0.28992 0.6946 0.0
O305 O 0.59854 0.2708 0.62516 0.0
N306 N 0.61239 0.31704 0.99627 0.0
C307 C 0.61385 0.38327 1.01952 0.0
C308 C 0.60171 0.35259 0.94809 0.0
C309 C 0.63329 0.32714 0.09046 0.0
N310 N 0.63171 0.36693 0.11339 0.0
O311 O 0.56497 0.24736 1.03074 0.0
H312 H 0.58579 0.35653 0.86743 0.0
H313 H 0.64574 0.30499 0.14918 0.0
O314 O 0.57857 0.28757 0.8054 0.0
C315 C 0.56315 0.24173 0.14207 0.0
O316 O 0.59239 0.25555 0.20748 0.0
N317 N 0.66292 0.28122 0.86857 0.0
C318 C 0.74354 0.29501 0.81269 0.0
C319 C 0.71253 0.30795 0.73827 0.0
C320 C 0.67207 0.30177 0.76959 0.0
C321 C 0.69278 0.27112 0.94456 0.0
C322 C 0.73318 0.2776 0.91852 0.0
H323 H 0.6488 0.31402 0.71526 0.0
H324 H 0.68497 0.25682 1.02572 0.0
H325 H 0.56682 0.21532 0.76587 0.0
H326 H 0.67146 0.14416 0.75049 0.0
H327 H 0.6044 0.41447 1.01242 0.0
H328 H 0.71955 0.3225 0.65674 0.0
H329 H 0.75613 0.26722 0.97836 0.0
C330 C 0.65031 0.83138 0.21462 0.0
C331 C 0.64755 0.85705 0.30821 0.0
N332 N 0.61294 0.84828 0.36293 0.0
N333 N 0.61804 0.80621 0.21411 0.0
C334 C 0.59477 0.81932 0.30063 0.0
H335 H 0.6762 0.82889 0.15832 0.0
Co336 Co 0.61411 0.75502 0.15067 0.0
C337 C 0.57395 0.73087 0.39367 0.0
O338 O 0.59884 0.75001 0.46302 0.0
N339 N 0.61291 0.70438 0.09186 0.0
C340 C 0.61524 0.63818 0.06866 0.0
C341 C 0.6026 0.6687 0.13993 0.0
C342 C 0.63407 0.69455 0.9979 0.0
N343 N 0.63297 0.65475 0.97488 0.0
O344 O 0.56504 0.7738 0.05777 0.0
H345 H 0.58668 0.66455 0.2205 0.0
H346 H 0.6464 0.71686 0.93945 0.0
O347 O 0.5787 0.73337 0.28283 0.0
C348 C 0.56281 0.77894 0.9463 0.0
O349 O 0.59162 0.76458 0.88036 0.0
N350 N 0.66306 0.74027 0.22044 0.0
C351 C 0.74358 0.72568 0.27589 0.0
C352 C 0.71246 0.71239 0.34943 0.0
C353 C 0.67205 0.71899 0.31828 0.0
C354 C 0.69301 0.75082 0.14529 0.0
C355 C 0.73337 0.74398 0.17117 0.0
H356 H 0.6487 0.70633 0.37159 0.0
H357 H 0.68531 0.76554 0.06466 0.0
H358 H 0.56658 0.80542 0.32337 0.0
H359 H 0.67056 0.87757 0.33928 0.0
H360 H 0.60619 0.60687 0.07571 0.0
H361 H 0.71935 0.69716 0.43002 0.0
H362 H 0.75641 0.75464 0.11202 0.0
C363 C 0.87957 0.18895 0.71458 0.0
C364 C 0.88234 0.16327 0.80817 0.0
N365 N 0.91694 0.17205 0.86288 0.0
N366 N 0.91183 0.21412 0.71407 0.0
C367 C 0.93511 0.20103 0.80059 0.0
H368 H 0.85369 0.19142 0.65827 0.0
Co369 Co 0.91575 0.26531 0.65063 0.0
C370 C 0.95591 0.28948 0.8936 0.0
O371 O 0.93102 0.27033 0.96295 0.0
N372 N 0.91693 0.31595 0.5918 0.0
C373 C 0.91458 0.38215 0.56859 0.0
C374 C 0.92723 0.35163 0.63986 0.0
C375 C 0.89577 0.32578 0.49784 0.0
N376 N 0.89686 0.36558 0.47482 0.0
O377 O 0.96482 0.24654 0.55771 0.0
H378 H 0.94315 0.3558 0.72043 0.0
H379 H 0.88344 0.30346 0.4394 0.0
O380 O 0.95116 0.28697 0.78276 0.0
C381 C 0.96706 0.24141 0.44624 0.0
O382 O 0.93825 0.25577 0.38029 0.0
N383 N 0.8668 0.28006 0.72041 0.0
C384 C 0.78628 0.29465 0.77589 0.0
C385 C 0.81741 0.30795 0.84939 0.0
C386 C 0.85781 0.30135 0.81823 0.0
C387 C 0.83684 0.2695 0.64529 0.0
C388 C 0.79649 0.27634 0.67119 0.0
H389 H 0.88116 0.31402 0.87151 0.0
H390 H 0.84454 0.25477 0.56466 0.0
H391 H 0.9633 0.21493 0.82334 0.0
H392 H 0.85934 0.14275 0.83923 0.0
H393 H 0.92362 0.41347 0.57563 0.0
H394 H 0.81052 0.32319 0.92997 0.0
H395 H 0.77344 0.26567 0.61205 0.0
C396 C 0.08634 0.62494 0.96462 0.0
C397 C 0.11202 0.62776 0.05821 0.0
N398 N 0.10321 0.66236 0.11288 0.0
N399 N 0.06114 0.65718 0.96406 0.0
C400 C 0.07422 0.68048 0.05055 0.0
H401 H 0.08388 0.59905 0.90836 0.0
Co402 Co 1.00994 0.66103 0.9006 0.0
C403 C 0.98573 0.70116 0.14357 0.0
O404 O 1.00492 0.6763 0.21292 0.0
N405 N 0.9593 0.66215 0.84177 0.0
C406 C 0.89306 0.65973 0.81859 0.0
C407 C 0.92359 0.67238 0.88988 0.0
C408 C 0.9495 0.64102 0.74773 0.0
N409 N 0.90969 0.64208 0.72483 0.0
O410 O 0.02868 0.71012 0.80767 0.0
H411 H 0.91942 0.68826 0.9705 0.0
H412 H 0.97182 0.62874 0.68924 0.0
O413 O 0.98824 0.69641 1.03273 0.0
C414 C 0.0338 0.71238 0.6962 0.0
O415 O 0.01944 0.68357 0.63023 0.0
N416 N 0.99523 0.61208 0.97039 0.0
C417 C 0.98068 0.53155 1.02586 0.0
C418 C 0.96736 0.56267 0.09938 0.0
C419 C 0.97395 0.60307 0.06822 0.0
C420 C 1.00581 0.58213 0.89527 0.0
C421 C 0.99899 0.54178 0.92116 0.0
H422 H 0.96126 0.6264 0.1215 0.0
H423 H 0.02053 0.58984 0.81464 0.0
H424 H 0.0603 0.70865 0.07326 0.0
H425 H 0.13256 0.60479 0.08933 0.0
H426 H 0.86173 0.66873 0.82562 0.0
H427 H 0.95212 0.55576 0.17995 0.0
H428 H 1.00966 0.51874 0.86202 0.0
C429 C 0.44351 0.39541 0.46468 0.0
C430 C 0.41784 0.3926 0.55827 0.0
N431 N 0.42665 0.358 0.61294 0.0
N432 N 0.46871 0.36318 0.46412 0.0
C433 C 0.45563 0.33988 0.55061 0.0
H434 H 0.44597 0.42131 0.40841 0.0
Co435 Co 0.51991 0.35933 0.40066 0.0
C436 C 0.54413 0.31921 0.64363 0.0
O437 O 0.52494 0.34406 0.71299 0.0
N438 N 0.57056 0.35821 0.34183 0.0
C439 C 0.6368 0.36063 0.31866 0.0
C440 C 0.60627 0.34798 0.38995 0.0
C441 C 0.58036 0.37934 0.24779 0.0
N442 N 0.62017 0.37829 0.22489 0.0
O443 O 0.50118 0.31024 0.30774 0.0
H444 H 0.61044 0.3321 0.47057 0.0
H445 H 0.55804 0.39162 0.18929 0.0
O446 O 0.54161 0.32395 0.5328 0.0
C447 C 0.49606 0.30798 0.19626 0.0
O448 O 0.51042 0.33679 0.13029 0.0
N449 N 0.53462 0.40829 0.47044 0.0
C450 C 0.54916 0.48881 0.52592 0.0
C451 C 0.56247 0.4577 0.59944 0.0
C452 C 0.5559 0.4173 0.56828 0.0
C453 C 0.52404 0.43823 0.39531 0.0
C454 C 0.53086 0.47859 0.42121 0.0
H455 H 0.56859 0.39397 0.62157 0.0
H456 H 0.50933 0.43052 0.31469 0.0
H457 H 0.46956 0.31171 0.57333 0.0
H458 H 0.3973 0.41557 0.58938 0.0
H459 H 0.66813 0.35164 0.3257 0.0
H460 H 0.57771 0.46461 0.68002 0.0
H461 H 0.52018 0.50162 0.36207 0.0
C462 C 0.08506 0.39598 0.1248 0.0
C463 C 0.11083 0.39343 1.03136 0.0
N464 N 0.10239 0.35875 0.9766 0.0
N465 N 0.06017 0.36351 0.12517 0.0
C466 C 0.07352 0.34034 1.03874 0.0
H467 H 0.0823 0.42186 0.18103 0.0
Co468 Co 1.00892 0.35927 0.188 0.0
C469 C 0.98525 0.31898 0.94457 0.0
O470 O 1.00441 0.34383 0.87513 0.0
N471 N 0.95818 0.35772 0.24624 0.0
C472 C 0.89191 0.35923 0.26945 0.0
C473 C 0.9226 0.34709 0.198 0.0
C474 C 0.94811 0.37859 0.34051 0.0
N475 N 0.90832 0.37703 0.36331 0.0
O476 O 0.02782 0.31024 0.28071 0.0
H477 H 0.91864 0.33121 0.11729 0.0
H478 H 0.97028 0.39099 0.39928 0.0
O479 O 0.9876 0.32388 0.05537 0.0
C480 C 0.03344 0.30841 0.39205 0.0
O481 O 0.01965 0.33764 0.45747 0.0
N482 N 0.99406 0.40821 0.11852 0.0
C483 C 0.98033 0.48882 0.06264 0.0
C484 C 0.96735 0.45781 0.98822 0.0
C485 C 0.97351 0.41736 1.01954 0.0
C486 C 1.00419 0.43805 0.1945 0.0
C487 C 0.99773 0.47845 0.16846 0.0
H488 H 0.96123 0.39411 0.96523 0.0
H489 H 0.01849 0.43024 0.27566 0.0
H490 H 0.05986 0.31204 1.01588 0.0
H491 H 0.13115 0.41662 1.00035 0.0
H492 H 0.8607 0.34982 0.26236 0.0
H493 H 0.95279 0.46484 0.90671 0.0
H494 H 1.00813 0.5014 0.2283 0.0
C495 C 0.44476 0.6244 0.62486 0.0
C496 C 0.419 0.62696 0.53141 0.0
N497 N 0.42745 0.66163 0.47665 0.0
N498 N 0.46967 0.65687 0.62521 0.0
C499 C 0.45632 0.68004 0.53878 0.0
H500 H 0.44752 0.59853 0.6811 0.0
Co501 Co 0.52092 0.6611 0.68806 0.0
C502 C 0.5446 0.70138 0.44463 0.0
O503 O 0.52544 0.67653 0.3752 0.0
N504 N 0.57166 0.66263 0.74631 0.0
C505 C 0.63792 0.6611 0.76952 0.0
C506 C 0.60724 0.67325 0.69807 0.0
C507 C 0.58171 0.64175 0.84058 0.0
N508 N 0.62151 0.6433 0.86338 0.0
O509 O 0.50203 0.71013 0.78078 0.0
H510 H 0.61121 0.68912 0.61736 0.0
H511 H 0.55954 0.62935 0.89933 0.0
O512 O 0.54224 0.69648 0.55544 0.0
C513 C 0.49641 0.71196 0.89211 0.0
O514 O 0.5102 0.68273 0.95754 0.0
N515 N 0.53576 0.61215 0.61857 0.0
C516 C 0.5495 0.53154 0.5627 0.0
C517 C 0.56249 0.56255 0.4883 0.0
C518 C 0.55633 0.603 0.51961 0.0
C519 C 0.52562 0.58231 0.69454 0.0
C520 C 0.53208 0.54191 0.6685 0.0
H521 H 0.56862 0.62626 0.46532 0.0
H522 H 0.51132 0.59012 0.77569 0.0
H523 H 0.46999 0.70833 0.51592 0.0
H524 H 0.39867 0.60378 0.50041 0.0
H525 H 0.66914 0.67049 0.76243 0.0
H526 H 0.57706 0.55552 0.4068 0.0
H527 H 0.52167 0.51896 0.72832 0.0
loop_
_geom_bond_atom_site_label_1
_geom_bond_atom_site_label_2
_geom_bond_distance
_geom_bond_site_symmetry_2
_ccdc_geom_bond_type
C0 C1 1.351 . S
C0 N3 1.368 . S
C0 H5 0.931 . S
C1 C0 1.351 . S
C1 N2 1.373 . S
C1 H29 0.930 . S
N2 C1 1.373 . S
N2 C4 1.340 . S
N3 C0 1.368 . S
N3 C4 1.321 . S
N3 Co6 2.135 . S
C4 N2 1.340 . S
C4 N3 1.321 . S
C4 H28 0.930 . S
H5 C0 0.931 . S
Co6 N3 2.135 . S
Co6 N9 2.121 . S
Co6 O14 2.055 . S
Co6 O17 2.039 . S
Co6 N20 2.140 . S
C7 O8 1.227 . S
C7 O17 1.265 . S
O8 C7 1.227 . S
N9 Co6 2.121 . S
N9 C11 1.375 . S
N9 C12 1.313 . S
C10 C11 1.338 . S
C10 N13 1.377 . S
C10 H30 0.930 . S
C11 N9 1.375 . S
C11 C10 1.338 . S
C11 H15 0.931 . S
C12 N9 1.313 . S
C12 N13 1.344 . S
C12 H16 0.930 . S
N13 C10 1.377 . S
N13 C12 1.344 . S
O14 Co6 2.055 . S
O14 C18 1.253 . S
H15 C11 0.931 . S
H16 C12 0.930 . S
O17 Co6 2.039 . S
O17 C7 1.265 . S
C18 O14 1.253 . S
C18 O19 1.227 . S
O19 C18 1.227 . S
N20 Co6 2.140 . S
N20 C23 1.346 . S
N20 C24 1.345 . S
C21 C22 1.387 . S
C21 C25 1.391 . S
C22 C21 1.387 . S
C22 C23 1.369 . S
C22 H31 0.929 . S
C23 N20 1.346 . S
C23 C22 1.369 . S
C23 H26 0.928 . S
C24 N20 1.345 . S
C24 C25 1.371 . S
C24 H27 0.931 . S
C25 C21 1.391 . S
C25 C24 1.371 . S
C25 H32 0.930 . S
H26 C23 0.928 . S
H27 C24 0.931 . S
H28 C4 0.930 . S
H29 C1 0.930 . S
H30 C10 0.930 . S
H31 C22 0.929 . S
H32 C25 0.930 . S
C33 C34 1.351 . S
C33 N36 1.368 . S
C33 H38 0.931 . S
C34 C33 1.351 . S
C34 N35 1.373 . S
C34 H62 0.930 . S
N35 C34 1.373 . S
N35 C37 1.340 . S
N36 C33 1.368 . S
N36 C37 1.321 . S
N36 Co39 2.135 . S
C37 N35 1.340 . S
C37 N36 1.321 . S
C37 H61 0.930 . S
H38 C33 0.931 . S
Co39 N36 2.135 . S
Co39 N42 2.121 . S
Co39 O47 2.055 . S
Co39 O50 2.039 . S
Co39 N53 2.140 . S
C40 O41 1.227 . S
C40 O50 1.265 . S
O41 C40 1.227 . S
N42 Co39 2.121 . S
N42 C44 1.375 . S
N42 C45 1.313 . S
C43 C44 1.338 . S
C43 N46 1.377 . S
C43 H63 0.930 . S
C44 N42 1.375 . S
C44 C43 1.338 . S
C44 H48 0.931 . S
C45 N42 1.313 . S
C45 N46 1.344 . S
C45 H49 0.930 . S
N46 C43 1.377 . S
N46 C45 1.344 . S
O47 Co39 2.055 . S
O47 C51 1.253 . S
H48 C44 0.931 . S
H49 C45 0.930 . S
O50 Co39 2.039 . S
O50 C40 1.265 . S
C51 O47 1.253 . S
C51 O52 1.227 . S
O52 C51 1.227 . S
N53 Co39 2.140 . S
N53 C56 1.346 . S
N53 C57 1.345 . S
C54 C55 1.387 . S
C54 C58 1.391 . S
C55 C54 1.387 . S
C55 C56 1.369 . S
C55 H64 0.929 . S
C56 N53 1.346 . S
C56 C55 1.369 . S
C56 H59 0.928 . S
C57 N53 1.345 . S
C57 C58 1.371 . S
C57 H60 0.931 . S
C58 C54 1.391 . S
C58 C57 1.371 . S
C58 H65 0.930 . S
H59 C56 0.928 . S
H60 C57 0.931 . S
H61 C37 0.930 . S
H62 C34 0.930 . S
H63 C43 0.930 . S
H64 C55 0.929 . S
H65 C58 0.930 . S
C66 C67 1.351 1_556 S
C66 N69 1.368 . S
C66 H71 0.931 . S
C67 C66 1.351 1_554 S
C67 N68 1.373 . S
C67 H95 0.930 . S
N68 C67 1.373 . S
N68 C70 1.340 . S
N69 C66 1.368 . S
N69 C70 1.321 1_556 S
N69 Co72 2.135 1_655 S
C70 N68 1.340 . S
C70 N69 1.321 1_554 S
C70 H94 0.930 . S
H71 C66 0.931 . S
Co72 N69 2.135 1_455 S
Co72 N75 2.121 . S
Co72 O80 2.055 1_455 S
Co72 O83 2.039 . S
Co72 N86 2.140 . S
C73 O74 1.227 . S
C73 O83 1.265 1_554 S
O74 C73 1.227 . S
N75 Co72 2.121 . S
N75 C77 1.375 . S
N75 C78 1.313 . S
C76 C77 1.338 . S
C76 N79 1.377 . S
C76 H96 0.930 . S
C77 N75 1.375 . S
C77 C76 1.338 . S
C77 H81 0.931 . S
C78 N75 1.313 . S
C78 N79 1.344 . S
C78 H82 0.930 . S
N79 C76 1.377 . S
N79 C78 1.344 . S
O80 Co72 2.055 1_655 S
O80 C84 1.253 . S
H81 C77 0.931 . S
H82 C78 0.930 . S
O83 Co72 2.039 . S
O83 C73 1.265 1_556 S
C84 O80 1.253 . S
C84 O85 1.227 . S
O85 C84 1.227 . S
N86 Co72 2.140 . S
N86 C89 1.346 . S
N86 C90 1.345 . S
C87 C88 1.389 1_556 S
C87 C91 1.391 . S
C88 C87 1.389 1_554 S
C88 C89 1.369 1_554 S
C88 H97 0.928 1_455 S
C89 N86 1.346 . S
C89 C88 1.369 1_556 S
C89 H92 0.928 1_456 S
C90 N86 1.345 . S
C90 C91 1.371 . S
C90 H93 0.931 . S
C91 C87 1.391 . S
C91 C90 1.371 . S
C91 H98 0.930 . S
H92 C89 0.928 1_654 S
H93 C90 0.931 . S
H94 C70 0.930 . S
H95 C67 0.930 . S
H96 C76 0.930 . S
H97 C88 0.928 1_655 S
H98 C91 0.930 . S
C99 C100 1.351 . S
C99 N102 1.368 . S
C99 H104 0.931 . S
C100 C99 1.351 . S
C100 N101 1.373 . S
C100 H128 0.930 . S
N101 C100 1.373 . S
N101 C103 1.340 . S
N102 C99 1.368 . S
N102 C103 1.321 . S
N102 Co105 2.135 . S
C103 N101 1.340 . S
C103 N102 1.321 . S
C103 H127 0.930 . S
H104 C99 0.931 . S
Co105 N102 2.135 . S
Co105 N108 2.121 . S
Co105 O113 2.055 . S
Co105 O116 2.039 . S
Co105 N119 2.140 . S
C106 O107 1.227 . S
C106 O116 1.265 . S
O107 C106 1.227 . S
N108 Co105 2.121 . S
N108 C110 1.375 . S
N108 C111 1.313 1_554 S
C109 C110 1.338 1_556 S
C109 N112 1.377 . S
C109 H129 0.930 . S
C110 N108 1.375 . S
C110 C109 1.338 1_554 S
C110 H114 0.931 . S
C111 N108 1.313 1_556 S
C111 N112 1.344 . S
C111 H115 0.930 . S
N112 C109 1.377 . S
N112 C111 1.344 . S
O113 Co105 2.055 . S
O113 C117 1.253 1_554 S
H114 C110 0.931 . S
H115 C111 0.930 . S
O116 Co105 2.039 . S
O116 C106 1.265 . S
C117 O113 1.253 1_556 S
C117 O118 1.227 . S
O118 C117 1.227 . S
N119 Co105 2.140 . S
N119 C122 1.346 . S
N119 C123 1.345 . S
C120 C121 1.387 . S
C120 C124 1.391 . S
C121 C120 1.387 . S
C121 C122 1.369 . S
C121 H130 0.929 . S
C122 N119 1.346 . S
C122 C121 1.369 . S
C122 H125 0.928 . S
C123 N119 1.345 . S
C123 C124 1.371 . S
C123 H126 0.931 1_554 S
C124 C120 1.391 . S
C124 C123 1.371 . S
C124 H131 0.930 . S
H125 C122 0.928 . S
H126 C123 0.931 1_556 S
H127 C103 0.930 . S
H128 C100 0.930 . S
H129 C109 0.930 . S
H130 C121 0.929 . S
H131 C124 0.930 . S
C132 C133 1.351 . S
C132 N135 1.368 . S
C132 H137 0.931 . S
C133 C132 1.351 . S
C133 N134 1.373 . S
C133 H161 0.930 . S
N134 C133 1.373 . S
N134 C136 1.340 . S
N135 C132 1.368 . S
N135 C136 1.321 . S
N135 Co138 2.135 . S
C136 N134 1.340 . S
C136 N135 1.321 . S
C136 H160 0.930 . S
H137 C132 0.931 . S
Co138 N135 2.135 . S
Co138 N141 2.121 . S
Co138 O146 2.055 . S
Co138 O149 2.039 . S
Co138 N152 2.140 . S
C139 O140 1.227 . S
C139 O149 1.265 . S
O140 C139 1.227 . S
N141 Co138 2.121 . S
N141 C143 1.375 . S
N141 C144 1.313 . S
C142 C143 1.338 . S
C142 N145 1.377 . S
C142 H162 0.930 . S
C143 N141 1.375 . S
C143 C142 1.338 . S
C143 H147 0.931 . S
C144 N141 1.313 . S
C144 N145 1.344 . S
C144 H148 0.930 . S
N145 C142 1.377 . S
N145 C144 1.344 . S
O146 Co138 2.055 . S
O146 C150 1.253 . S
H147 C143 0.931 . S
H148 C144 0.930 . S
O149 Co138 2.039 . S
O149 C139 1.265 . S
C150 O146 1.253 . S
C150 O151 1.227 . S
O151 C150 1.227 . S
N152 Co138 2.140 . S
N152 C155 1.346 . S
N152 C156 1.345 . S
C153 C154 1.387 . S
C153 C157 1.391 . S
C154 C153 1.387 . S
C154 C155 1.369 . S
C154 H163 0.929 . S
C155 N152 1.346 . S
C155 C154 1.369 . S
C155 H158 0.928 . S
C156 N152 1.345 . S
C156 C157 1.371 . S
C156 H159 0.931 . S
C157 C153 1.391 . S
C157 C156 1.371 . S
C157 H164 0.930 . S
H158 C155 0.928 . S
H159 C156 0.931 . S
H160 C136 0.930 . S
H161 C133 0.930 . S
H162 C142 0.930 . S
H163 C154 0.929 . S
H164 C157 0.930 . S
C165 C166 1.351 . S
C165 N168 1.368 . S
C165 H170 0.931 . S
C166 C165 1.351 . S
C166 N167 1.373 . S
C166 H194 0.930 . S
N167 C166 1.373 . S
N167 C169 1.340 . S
N168 C165 1.368 . S
N168 C169 1.321 . S
N168 Co171 2.135 . S
C169 N167 1.340 . S
C169 N168 1.321 . S
C169 H193 0.930 . S
H170 C165 0.931 . S
Co171 N168 2.135 . S
Co171 N174 2.121 . S
Co171 O179 2.055 . S
Co171 O182 2.039 . S
Co171 N185 2.140 . S
C172 O173 1.227 . S
C172 O182 1.265 . S
O173 C172 1.227 . S
N174 Co171 2.121 . S
N174 C176 1.375 . S
N174 C177 1.313 1_556 S
C175 C176 1.338 1_554 S
C175 N178 1.377 . S
C175 H195 0.930 . S
C176 N174 1.375 . S
C176 C175 1.338 1_556 S
C176 H180 0.931 . S
C177 N174 1.313 1_554 S
C177 N178 1.344 . S
C177 H181 0.930 . S
N178 C175 1.377 . S
N178 C177 1.344 . S
O179 Co171 2.055 . S
O179 C183 1.253 1_556 S
H180 C176 0.931 . S
H181 C177 0.930 . S
O182 Co171 2.039 . S
O182 C172 1.265 . S
C183 O179 1.253 1_554 S
C183 O184 1.227 . S
O184 C183 1.227 . S
N185 Co171 2.140 . S
N185 C188 1.346 . S
N185 C189 1.345 . S
C186 C187 1.387 . S
C186 C190 1.391 . S
C187 C186 1.387 . S
C187 C188 1.369 . S
C187 H196 0.929 . S
C188 N185 1.346 . S
C188 C187 1.369 . S
C188 H191 0.928 . S
C189 N185 1.345 . S
C189 C190 1.371 . S
C189 H192 0.931 1_556 S
C190 C186 1.391 . S
C190 C189 1.371 . S
C190 H197 0.930 . S
H191 C188 0.928 . S
H192 C189 0.931 1_554 S
H193 C169 0.930 . S
H194 C166 0.930 . S
H195 C175 0.930 . S
H196 C187 0.929 . S
H197 C190 0.930 . S
C198 C199 1.351 1_554 S
C198 N201 1.368 . S
C198 H203 0.931 . S
C199 C198 1.351 1_556 S
C199 N200 1.373 . S
C199 H227 0.930 . S
N200 C199 1.373 . S
N200 C202 1.340 . S
N201 C198 1.368 . S
N201 C202 1.321 1_554 S
N201 Co204 2.135 1_655 S
C202 N200 1.340 . S
C202 N201 1.321 1_556 S
C202 H226 0.930 . S
H203 C198 0.931 . S
Co204 N201 2.135 1_455 S
Co204 N207 2.121 . S
Co204 O212 2.055 1_455 S
Co204 O215 2.039 . S
Co204 N218 2.140 . S
C205 O206 1.227 . S
C205 O215 1.265 1_556 S
O206 C205 1.227 . S
N207 Co204 2.121 . S
N207 C209 1.375 . S
N207 C210 1.313 . S
C208 C209 1.338 . S
C208 N211 1.377 . S
C208 H228 0.930 . S
C209 N207 1.375 . S
C209 C208 1.338 . S
C209 H213 0.931 . S
C210 N207 1.313 . S
C210 N211 1.344 . S
C210 H214 0.930 . S
N211 C208 1.377 . S
N211 C210 1.344 . S
O212 Co204 2.055 1_655 S
O212 C216 1.253 . S
H213 C209 0.931 . S
H214 C210 0.930 . S
O215 Co204 2.039 . S
O215 C205 1.265 1_554 S
C216 O212 1.253 . S
C216 O217 1.227 . S
O217 C216 1.227 . S
N218 Co204 2.140 . S
N218 C221 1.346 . S
N218 C222 1.345 . S
C219 C220 1.389 1_554 S
C219 C223 1.391 . S
C220 C219 1.389 1_556 S
C220 C221 1.369 1_556 S
C220 H229 0.928 1_455 S
C221 N218 1.346 . S
C221 C220 1.369 1_554 S
C221 H224 0.928 1_454 S
C222 N218 1.345 . S
C222 C223 1.371 . S
C222 H225 0.931 . S
C223 C219 1.391 . S
C223 C222 1.371 . S
C223 H230 0.930 . S
H224 C221 0.928 1_656 S
H225 C222 0.931 . S
H226 C202 0.930 . S
H227 C199 0.930 . S
H228 C208 0.930 . S
H229 C220 0.928 1_655 S
H230 C223 0.930 . S
C231 C232 1.351 . S
C231 N234 1.368 . S
C231 H236 0.931 . S
C232 C231 1.351 . S
C232 N233 1.373 . S
C232 H260 0.930 . S
N233 C232 1.373 . S
N233 C235 1.340 . S
N234 C231 1.368 . S
N234 C235 1.321 . S
N234 Co237 2.135 . S
C235 N233 1.340 . S
C235 N234 1.321 . S
C235 H259 0.930 . S
H236 C231 0.931 . S
Co237 N234 2.135 . S
Co237 N240 2.121 . S
Co237 O245 2.055 . S
Co237 O248 2.039 . S
Co237 N251 2.140 . S
C238 O239 1.227 . S
C238 O248 1.265 . S
O239 C238 1.227 . S
N240 Co237 2.121 . S
N240 C242 1.375 . S
N240 C243 1.313 . S
C241 C242 1.338 . S
C241 N244 1.377 . S
C241 H261 0.930 . S
C242 N240 1.375 . S
C242 C241 1.338 . S
C242 H246 0.931 . S
C243 N240 1.313 . S
C243 N244 1.344 . S
C243 H247 0.930 . S
N244 C241 1.377 . S
N244 C243 1.344 . S
O245 Co237 2.055 . S
O245 C249 1.253 . S
H246 C242 0.931 . S
H247 C243 0.930 . S
O248 Co237 2.039 . S
O248 C238 1.265 . S
C249 O245 1.253 . S
C249 O250 1.227 . S
O250 C249 1.227 . S
N251 Co237 2.140 . S
N251 C254 1.346 . S
N251 C255 1.345 . S
C252 C253 1.387 . S
C252 C256 1.391 . S
C253 C252 1.387 . S
C253 C254 1.369 . S
C253 H262 0.929 . S
C254 N251 1.346 . S
C254 C253 1.369 . S
C254 H257 0.928 . S
C255 N251 1.345 . S
C255 C256 1.371 . S
C255 H258 0.931 . S
C256 C252 1.391 . S
C256 C255 1.371 . S
C256 H263 0.930 . S
H257 C254 0.928 . S
H258 C255 0.931 . S
H259 C235 0.930 . S
H260 C232 0.930 . S
H261 C241 0.930 . S
H262 C253 0.929 . S
H263 C256 0.930 . S
C264 C265 1.351 . S
C264 N267 1.368 . S
C264 H269 0.931 . S
C265 C264 1.351 . S
C265 N266 1.373 . S
C265 H293 0.930 . S
N266 C265 1.373 . S
N266 C268 1.340 . S
N267 C264 1.368 . S
N267 C268 1.321 . S
N267 Co270 2.135 . S
C268 N266 1.340 . S
C268 N267 1.321 . S
C268 H292 0.930 . S
H269 C264 0.931 . S
Co270 N267 2.135 . S
Co270 N273 2.121 . S
Co270 O278 2.055 . S
Co270 O281 2.039 . S
Co270 N284 2.140 . S
C271 O272 1.227 . S
C271 O281 1.265 . S
O272 C271 1.227 . S
N273 Co270 2.121 . S
N273 C275 1.375 . S
N273 C276 1.313 . S
C274 C275 1.338 . S
C274 N277 1.377 . S
C274 H294 0.930 . S
C275 N273 1.375 . S
C275 C274 1.338 . S
C275 H279 0.931 . S
C276 N273 1.313 . S
C276 N277 1.344 . S
C276 H280 0.930 . S
N277 C274 1.377 . S
N277 C276 1.344 . S
O278 Co270 2.055 . S
O278 C282 1.253 . S
H279 C275 0.931 . S
H280 C276 0.930 . S
O281 Co270 2.039 . S
O281 C271 1.265 . S
C282 O278 1.253 . S
C282 O283 1.227 . S
O283 C282 1.227 . S
N284 Co270 2.140 . S
N284 C287 1.346 . S
N284 C288 1.345 . S
C285 C286 1.387 . S
C285 C289 1.391 . S
C286 C285 1.387 . S
C286 C287 1.369 . S
C286 H295 0.929 . S
C287 N284 1.346 . S
C287 C286 1.369 . S
C287 H290 0.928 . S
C288 N284 1.345 . S
C288 C289 1.371 . S
C288 H291 0.931 . S
C289 C285 1.391 . S
C289 C288 1.371 . S
C289 H296 0.930 . S
H290 C287 0.928 . S
H291 C288 0.931 . S
H292 C268 0.930 . S
H293 C265 0.930 . S
H294 C274 0.930 . S
H295 C286 0.929 . S
H296 C289 0.930 . S
C297 C298 1.351 . S
C297 N300 1.368 . S
C297 H302 0.931 . S
C298 C297 1.351 . S
C298 N299 1.373 . S
C298 H326 0.930 . S
N299 C298 1.373 . S
N299 C301 1.340 . S
N300 C297 1.368 . S
N300 C301 1.321 . S
N300 Co303 2.135 . S
C301 N299 1.340 . S
C301 N300 1.321 . S
C301 H325 0.930 . S
H302 C297 0.931 . S
Co303 N300 2.135 . S
Co303 N306 2.121 . S
Co303 O311 2.055 . S
Co303 O314 2.039 . S
Co303 N317 2.140 . S
C304 O305 1.227 . S
C304 O314 1.265 . S
O305 C304 1.227 . S
N306 Co303 2.121 . S
N306 C308 1.375 . S
N306 C309 1.313 1_556 S
C307 C308 1.338 1_554 S
C307 N310 1.377 . S
C307 H327 0.930 . S
C308 N306 1.375 . S
C308 C307 1.338 1_556 S
C308 H312 0.931 . S
C309 N306 1.313 1_554 S
C309 N310 1.344 . S
C309 H313 0.930 . S
N310 C307 1.377 . S
N310 C309 1.344 . S
O311 Co303 2.055 . S
O311 C315 1.253 1_556 S
H312 C308 0.931 . S
H313 C309 0.930 . S
O314 Co303 2.039 . S
O314 C304 1.265 . S
C315 O311 1.253 1_554 S
C315 O316 1.227 . S
O316 C315 1.227 . S
N317 Co303 2.140 . S
N317 C320 1.346 . S
N317 C321 1.345 . S
C318 C319 1.387 . S
C318 C322 1.391 . S
C319 C318 1.387 . S
C319 C320 1.369 . S
C319 H328 0.929 . S
C320 N317 1.346 . S
C320 C319 1.369 . S
C320 H323 0.928 . S
C321 N317 1.345 . S
C321 C322 1.371 . S
C321 H324 0.931 1_556 S
C322 C318 1.391 . S
C322 C321 1.371 . S
C322 H329 0.930 . S
H323 C320 0.928 . S
H324 C321 0.931 1_554 S
H325 C301 0.930 . S
H326 C298 0.930 . S
H327 C307 0.930 . S
H328 C319 0.929 . S
H329 C322 0.930 . S
C330 C331 1.351 . S
C330 N333 1.368 . S
C330 H335 0.931 . S
C331 C330 1.351 . S
C331 N332 1.373 . S
C331 H359 0.930 . S
N332 C331 1.373 . S
N332 C334 1.340 . S
N333 C330 1.368 . S
N333 C334 1.321 . S
N333 Co336 2.135 . S
C334 N332 1.340 . S
C334 N333 1.321 . S
C334 H358 0.930 . S
H335 C330 0.931 . S
Co336 N333 2.135 . S
Co336 N339 2.121 . S
Co336 O344 2.055 . S
Co336 O347 2.039 . S
Co336 N350 2.140 . S
C337 O338 1.227 . S
C337 O347 1.265 . S
O338 C337 1.227 . S
N339 Co336 2.121 . S
N339 C341 1.375 . S
N339 C342 1.313 1_554 S
C340 C341 1.338 1_556 S
C340 N343 1.377 . S
C340 H360 0.930 . S
C341 N339 1.375 . S
C341 C340 1.338 1_554 S
C341 H345 0.931 . S
C342 N339 1.313 1_556 S
C342 N343 1.344 . S
C342 H346 0.930 . S
N343 C340 1.377 . S
N343 C342 1.344 . S
O344 Co336 2.055 . S
O344 C348 1.253 1_554 S
H345 C341 0.931 . S
H346 C342 0.930 . S
O347 Co336 2.039 . S
O347 C337 1.265 . S
C348 O344 1.253 1_556 S
C348 O349 1.227 . S
O349 C348 1.227 . S
N350 Co336 2.140 . S
N350 C353 1.346 . S
N350 C354 1.345 . S
C351 C352 1.387 . S
C351 C355 1.391 . S
C352 C351 1.387 . S
C352 C353 1.369 . S
C352 H361 0.929 . S
C353 N350 1.346 . S
C353 C352 1.369 . S
C353 H356 0.928 . S
C354 N350 1.345 . S
C354 C355 1.371 . S
C354 H357 0.931 1_554 S
C355 C351 1.391 . S
C355 C354 1.371 . S
C355 H362 0.930 . S
H356 C353 0.928 . S
H357 C354 0.931 1_556 S
H358 C334 0.930 . S
H359 C331 0.930 . S
H360 C340 0.930 . S
H361 C352 0.929 . S
H362 C355 0.930 . S
C363 C364 1.351 . S
C363 N366 1.368 . S
C363 H368 0.931 . S
C364 C363 1.351 . S
C364 N365 1.373 . S
C364 H392 0.930 . S
N365 C364 1.373 . S
N365 C367 1.340 . S
N366 C363 1.368 . S
N366 C367 1.321 . S
N366 Co369 2.135 . S
C367 N365 1.340 . S
C367 N366 1.321 . S
C367 H391 0.930 . S
H368 C363 0.931 . S
Co369 N366 2.135 . S
Co369 N372 2.121 . S
Co369 O377 2.055 . S
Co369 O380 2.039 . S
Co369 N383 2.140 . S
C370 O371 1.227 . S
C370 O380 1.265 . S
O371 C370 1.227 . S
N372 Co369 2.121 . S
N372 C374 1.375 . S
N372 C375 1.313 . S
C373 C374 1.338 . S
C373 N376 1.377 . S
C373 H393 0.930 . S
C374 N372 1.375 . S
C374 C373 1.338 . S
C374 H378 0.931 . S
C375 N372 1.313 . S
C375 N376 1.344 . S
C375 H379 0.930 . S
N376 C373 1.377 . S
N376 C375 1.344 . S
O377 Co369 2.055 . S
O377 C381 1.253 . S
H378 C374 0.931 . S
H379 C375 0.930 . S
O380 Co369 2.039 . S
O380 C370 1.265 . S
C381 O377 1.253 . S
C381 O382 1.227 . S
O382 C381 1.227 . S
N383 Co369 2.140 . S
N383 C386 1.346 . S
N383 C387 1.345 . S
C384 C385 1.387 . S
C384 C388 1.391 . S
C385 C384 1.387 . S
C385 C386 1.369 . S
C385 H394 0.929 . S
C386 N383 1.346 . S
C386 C385 1.369 . S
C386 H389 0.928 . S
C387 N383 1.345 . S
C387 C388 1.371 . S
C387 H390 0.931 . S
C388 C384 1.391 . S
C388 C387 1.371 . S
C388 H395 0.930 . S
H389 C386 0.928 . S
H390 C387 0.931 . S
H391 C367 0.930 . S
H392 C364 0.930 . S
H393 C373 0.930 . S
H394 C385 0.929 . S
H395 C388 0.930 . S
C396 C397 1.351 1_556 S
C396 N399 1.368 . S
C396 H401 0.931 . S
C397 C396 1.351 1_554 S
C397 N398 1.373 . S
C397 H425 0.930 . S
N398 C397 1.373 . S
N398 C400 1.340 . S
N399 C396 1.368 . S
N399 C400 1.321 1_556 S
N399 Co402 2.135 . S
C400 N398 1.340 . S
C400 N399 1.321 1_554 S
C400 H424 0.930 . S
H401 C396 0.931 . S
Co402 N399 2.135 . S
Co402 N405 2.121 1_455 S
Co402 O410 2.055 . S
Co402 O413 2.039 1_455 S
Co402 N416 2.140 . S
C403 O404 1.227 . S
C403 O413 1.265 1_554 S
O404 C403 1.227 . S
N405 Co402 2.121 1_655 S
N405 C407 1.375 . S
N405 C408 1.313 . S
C406 C407 1.338 . S
C406 N409 1.377 . S
C406 H426 0.930 . S
C407 N405 1.375 . S
C407 C406 1.338 . S
C407 H411 0.931 . S
C408 N405 1.313 . S
C408 N409 1.344 . S
C408 H412 0.930 . S
N409 C406 1.377 . S
N409 C408 1.344 . S
O410 Co402 2.055 . S
O410 C414 1.253 . S
H411 C407 0.931 . S
H412 C408 0.930 . S
O413 Co402 2.039 1_655 S
O413 C403 1.265 1_556 S
C414 O410 1.253 . S
C414 O415 1.227 . S
O415 C414 1.227 . S
N416 Co402 2.140 . S
N416 C419 1.346 . S
N416 C420 1.346 . S
C417 C418 1.387 1_556 S
C417 C421 1.391 . S
C418 C417 1.387 1_554 S
C418 C419 1.369 1_554 S
C418 H427 0.929 . S
C419 N416 1.346 . S
C419 C418 1.369 1_556 S
C419 H422 0.928 1_556 S
C420 N416 1.346 . S
C420 C421 1.371 . S
C420 H423 0.930 1_455 S
C421 C417 1.391 . S
C421 C420 1.371 . S
C421 H428 0.930 1_455 S
H422 C419 0.928 1_554 S
H423 C420 0.930 1_655 S
H424 C400 0.930 . S
H425 C397 0.930 . S
H426 C406 0.930 . S
H427 C418 0.929 . S
H428 C421 0.930 1_655 S
C429 C430 1.351 . S
C429 N432 1.368 . S
C429 H434 0.931 . S
C430 C429 1.351 . S
C430 N431 1.373 . S
C430 H458 0.930 . S
N431 C430 1.373 . S
N431 C433 1.340 . S
N432 C429 1.368 . S
N432 C433 1.321 . S
N432 Co435 2.135 . S
C433 N431 1.340 . S
C433 N432 1.321 . S
C433 H457 0.930 . S
H434 C429 0.931 . S
Co435 N432 2.135 . S
Co435 N438 2.121 . S
Co435 O443 2.055 . S
Co435 O446 2.039 . S
Co435 N449 2.140 . S
C436 O437 1.227 . S
C436 O446 1.265 . S
O437 C436 1.227 . S
N438 Co435 2.121 . S
N438 C440 1.375 . S
N438 C441 1.313 . S
C439 C440 1.338 . S
C439 N442 1.377 . S
C439 H459 0.930 . S
C440 N438 1.375 . S
C440 C439 1.338 . S
C440 H444 0.931 . S
C441 N438 1.313 . S
C441 N442 1.344 . S
C441 H445 0.930 . S
N442 C439 1.377 . S
N442 C441 1.344 . S
O443 Co435 2.055 . S
O443 C447 1.253 . S
H444 C440 0.931 . S
H445 C441 0.930 . S
O446 Co435 2.039 . S
O446 C436 1.265 . S
C447 O443 1.253 . S
C447 O448 1.227 . S
O448 C447 1.227 . S
N449 Co435 2.140 . S
N449 C452 1.346 . S
N449 C453 1.345 . S
C450 C451 1.387 . S
C450 C454 1.391 . S
C451 C450 1.387 . S
C451 C452 1.369 . S
C451 H460 0.929 . S
C452 N449 1.346 . S
C452 C451 1.369 . S
C452 H455 0.928 . S
C453 N449 1.345 . S
C453 C454 1.371 . S
C453 H456 0.931 . S
C454 C450 1.391 . S
C454 C453 1.371 . S
C454 H461 0.930 . S
H455 C452 0.928 . S
H456 C453 0.931 . S
H457 C433 0.930 . S
H458 C430 0.930 . S
H459 C439 0.930 . S
H460 C451 0.929 . S
H461 C454 0.930 . S
C462 C463 1.351 1_554 S
C462 N465 1.368 . S
C462 H467 0.931 . S
C463 C462 1.351 1_556 S
C463 N464 1.373 . S
C463 H491 0.930 . S
N464 C463 1.373 . S
N464 C466 1.340 . S
N465 C462 1.368 . S
N465 C466 1.321 1_554 S
N465 Co468 2.135 . S
C466 N464 1.340 . S
C466 N465 1.321 1_556 S
C466 H490 0.930 . S
H467 C462 0.931 . S
Co468 N465 2.135 . S
Co468 N471 2.121 1_455 S
Co468 O476 2.055 . S
Co468 O479 2.039 1_455 S
Co468 N482 2.140 . S
C469 O470 1.227 . S
C469 O479 1.265 1_556 S
O470 C469 1.227 . S
N471 Co468 2.121 1_655 S
N471 C473 1.375 . S
N471 C474 1.313 . S
C472 C473 1.338 . S
C472 N475 1.377 . S
C472 H492 0.930 . S
C473 N471 1.375 . S
C473 C472 1.338 . S
C473 H477 0.931 . S
C474 N471 1.313 . S
C474 N475 1.344 . S
C474 H478 0.930 . S
N475 C472 1.377 . S
N475 C474 1.344 . S
O476 Co468 2.055 . S
O476 C480 1.253 . S
H477 C473 0.931 . S
H478 C474 0.930 . S
O479 Co468 2.039 1_655 S
O479 C469 1.265 1_554 S
C480 O476 1.253 . S
C480 O481 1.227 . S
O481 C480 1.227 . S
N482 Co468 2.140 . S
N482 C485 1.346 . S
N482 C486 1.346 . S
C483 C484 1.387 1_554 S
C483 C487 1.391 . S
C484 C483 1.387 1_556 S
C484 C485 1.369 1_556 S
C484 H493 0.929 . S
C485 N482 1.346 . S
C485 C484 1.369 1_554 S
C485 H488 0.928 1_554 S
C486 N482 1.346 . S
C486 C487 1.371 . S
C486 H489 0.930 1_455 S
C487 C483 1.391 . S
C487 C486 1.371 . S
C487 H494 0.930 1_455 S
H488 C485 0.928 1_556 S
H489 C486 0.930 1_655 S
H490 C466 0.930 . S
H491 C463 0.930 . S
H492 C472 0.930 . S
H493 C484 0.929 . S
H494 C487 0.930 1_655 S
C495 C496 1.351 . S
C495 N498 1.368 . S
C495 H500 0.931 . S
C496 C495 1.351 . S
C496 N497 1.373 . S
C496 H524 0.930 . S
N497 C496 1.373 . S
N497 C499 1.340 . S
N498 C495 1.368 . S
N498 C499 1.321 . S
N498 Co501 2.135 . S
C499 N497 1.340 . S
C499 N498 1.321 . S
C499 H523 0.930 . S
H500 C495 0.931 . S
Co501 N498 2.135 . S
Co501 N504 2.121 . S
Co501 O509 2.055 . S
Co501 O512 2.039 . S
Co501 N515 2.140 . S
C502 O503 1.227 . S
C502 O512 1.265 . S
O503 C502 1.227 . S
N504 Co501 2.121 . S
N504 C506 1.375 . S
N504 C507 1.313 . S
C505 C506 1.338 . S
C505 N508 1.377 . S
C505 H525 0.930 . S
C506 N504 1.375 . S
C506 C505 1.338 . S
C506 H510 0.931 . S
C507 N504 1.313 . S
C507 N508 1.344 . S
C507 H511 0.930 . S
N508 C505 1.377 . S
N508 C507 1.344 . S
O509 Co501 2.055 . S
O509 C513 1.253 . S
H510 C506 0.931 . S
H511 C507 0.930 . S
O512 Co501 2.039 . S
O512 C502 1.265 . S
C513 O509 1.253 . S
C513 O514 1.227 . S
O514 C513 1.227 . S
N515 Co501 2.140 . S
N515 C518 1.346 . S
N515 C519 1.345 . S
C516 C517 1.387 . S
C516 C520 1.391 . S
C517 C516 1.387 . S
C517 C518 1.369 . S
C517 H526 0.929 . S
C518 N515 1.346 . S
C518 C517 1.369 . S
C518 H521 0.928 . S
C519 N515 1.345 . S
C519 C520 1.371 . S
C519 H522 0.931 . S
C520 C516 1.391 . S
C520 C519 1.371 . S
C520 H527 0.930 . S
H521 C518 0.928 . S
H522 C519 0.931 . S
H523 C499 0.930 . S
H524 C496 0.930 . S
H525 C505 0.930 . S
H526 C517 0.929 . S
H527 C520 0.930 . S
C21 C153 1.877 1_545 S
C186 C54 1.877 . S
C219 C87 1.878 1_544 S
C120 C252 1.877 . S
C285 C351 1.877 . S
C384 C318 1.877 . S
C417 C483 1.877 1_556 S
C450 C516 1.877 . S
N13 N178 1.072 . S
N211 N46 1.072 . S
N244 N79 1.072 . S
N112 N145 1.072 . S
C150 C348 2.626 . S
C84 C282 2.626 . S
C216 C381 2.626 . S
C18 C315 2.626 . S
N409 N277 1.072 . S
N343 N508 1.072 . S
N310 N442 1.072 . S
N376 N475 1.072 . S
C480 C51 2.626 . S
C183 C447 2.626 . S
C117 C513 2.626 . S
C414 C249 2.626 . S
C172 C7 2.427 . S
C205 C40 2.427 . S
C73 C238 2.427 . S
C106 C139 2.427 . S
N134 N332 0.114 . S
N266 N68 0.114 . S
N365 N200 0.114 . S
N2 N299 0.114 . S
C403 C271 2.427 . S
C337 C502 2.427 . S
C436 C304 2.427 . S
C469 C370 2.427 . S
N35 N464 0.114 . S
N167 N431 0.114 . S
N497 N101 0.114 . S
N233 N398 0.114 . S
