# Generated by pormake.
# Topology ume, (4)-cn, num edge types: 1
# Building blocks:
#     Node 0, Type 0, BuildingBlock: KOZSID_clean_sbu_0, # of connection points: 4
#     Node 1, Type 0, BuildingBlock: KOZSID_clean_sbu_0, # of connection points: 4
#     Node 2, Type 0, BuildingBlock: KOZSID_clean_sbu_0, # of connection points: 4
#     Node 3, Type 0, BuildingBlock: KOZSID_clean_sbu_0, # of connection points: 4
#     Node 4, Type 0, BuildingBlock: KOZSID_clean_sbu_0, # of connection points: 4
#     Node 5, Type 0, BuildingBlock: KOZSID_clean_sbu_0, # of connection points: 4
#     Node 6, Type 0, BuildingBlock: KOZSID_clean_sbu_0, # of connection points: 4
#     Node 7, Type 0, BuildingBlock: KOZSID_clean_sbu_0, # of connection points: 4
#     Node 8, Type 0, BuildingBlock: KOZSID_clean_sbu_0, # of connection points: 4
#     Node 9, Type 0, BuildingBlock: KOZSID_clean_sbu_0, # of connection points: 4
#     Node 10, Type 0, BuildingBlock: KOZSID_clean_sbu_0, # of connection points: 4
#     Node 11, Type 0, BuildingBlock: KOZSID_clean_sbu_0, # of connection points: 4
#     Node 12, Type 0, BuildingBlock: KOZSID_clean_sbu_0, # of connection points: 4
#     Node 13, Type 0, BuildingBlock: KOZSID_clean_sbu_0, # of connection points: 4
#     Node 14, Type 0, BuildingBlock: KOZSID_clean_sbu_0, # of connection points: 4
#     Node 15, Type 0, BuildingBlock: KOZSID_clean_sbu_0, # of connection points: 4
#     Edge 16, Type (0, 0), BuildingBlock: TEMPAE_clean_linker_10, # of connection points: 2
#     Edge 17, Type (0, 0), BuildingBlock: TEMPAE_clean_linker_10, # of connection points: 2
#     Edge 18, Type (0, 0), BuildingBlock: TEMPAE_clean_linker_10, # of connection points: 2
#     Edge 19, Type (0, 0), BuildingBlock: TEMPAE_clean_linker_10, # of connection points: 2
#     Edge 20, Type (0, 0), BuildingBlock: TEMPAE_clean_linker_10, # of connection points: 2
#     Edge 21, Type (0, 0), BuildingBlock: TEMPAE_clean_linker_10, # of connection points: 2
#     Edge 22, Type (0, 0), BuildingBlock: TEMPAE_clean_linker_10, # of connection points: 2
#     Edge 23, Type (0, 0), BuildingBlock: TEMPAE_clean_linker_10, # of connection points: 2
#     Edge 24, Type (0, 0), BuildingBlock: TEMPAE_clean_linker_10, # of connection points: 2
#     Edge 25, Type (0, 0), BuildingBlock: TEMPAE_clean_linker_10, # of connection points: 2
#     Edge 26, Type (0, 0), BuildingBlock: TEMPAE_clean_linker_10, # of connection points: 2
#     Edge 27, Type (0, 0), BuildingBlock: TEMPAE_clean_linker_10, # of connection points: 2
#     Edge 28, Type (0, 0), BuildingBlock: TEMPAE_clean_linker_10, # of connection points: 2
#     Edge 29, Type (0, 0), BuildingBlock: TEMPAE_clean_linker_10, # of connection points: 2
#     Edge 30, Type (0, 0), BuildingBlock: TEMPAE_clean_linker_10, # of connection points: 2
#     Edge 31, Type (0, 0), BuildingBlock: TEMPAE_clean_linker_10, # of connection points: 2
#     Edge 32, Type (0, 0), BuildingBlock: TEMPAE_clean_linker_10, # of connection points: 2
#     Edge 33, Type (0, 0), BuildingBlock: TEMPAE_clean_linker_10, # of connection points: 2
#     Edge 34, Type (0, 0), BuildingBlock: TEMPAE_clean_linker_10, # of connection points: 2
#     Edge 35, Type (0, 0), BuildingBlock: TEMPAE_clean_linker_10, # of connection points: 2
#     Edge 36, Type (0, 0), BuildingBlock: TEMPAE_clean_linker_10, # of connection points: 2
#     Edge 37, Type (0, 0), BuildingBlock: TEMPAE_clean_linker_10, # of connection points: 2
#     Edge 38, Type (0, 0), BuildingBlock: TEMPAE_clean_linker_10, # of connection points: 2
#     Edge 39, Type (0, 0), BuildingBlock: TEMPAE_clean_linker_10, # of connection points: 2
#     Edge 40, Type (0, 0), BuildingBlock: TEMPAE_clean_linker_10, # of connection points: 2
#     Edge 41, Type (0, 0), BuildingBlock: TEMPAE_clean_linker_10, # of connection points: 2
#     Edge 42, Type (0, 0), BuildingBlock: TEMPAE_clean_linker_10, # of connection points: 2
#     Edge 43, Type (0, 0), BuildingBlock: TEMPAE_clean_linker_10, # of connection points: 2
#     Edge 44, Type (0, 0), BuildingBlock: TEMPAE_clean_linker_10, # of connection points: 2
#     Edge 45, Type (0, 0), BuildingBlock: TEMPAE_clean_linker_10, # of connection points: 2
#     Edge 46, Type (0, 0), BuildingBlock: TEMPAE_clean_linker_10, # of connection points: 2
#     Edge 47, Type (0, 0), BuildingBlock: TEMPAE_clean_linker_10, # of connection points: 2
# Relax obj value: 0.054
# Max RMSD: 0.244
# Mean RMSD: 0.214
data_MOF--net-ume--node1-KOZSID_clean_sbu_0--edge1-TEMPAE_clean_linker_10
_symmetry_space_group_name_H-M    P1
_symmetry_Int_Tables_number       1
_symmetry_cell_setting            triclinic
loop_
_symmetry_equiv_pos_as_xyz
'x, y, z'
_cell_length_a     32.722533
_cell_length_b     38.692232
_cell_length_c     135.07687
_cell_angle_alpha  90.005456
_cell_angle_beta   89.985949
_cell_angle_gamma 90.018661
loop_
_atom_site_label
_atom_site_type_symbol
_atom_site_fract_x
_atom_site_fract_y
_atom_site_fract_z
_atom_type_partial_charge
C0 C 0.33663 0.07709 0.31816 0.0
C1 C 0.35408 0.10828 0.32098 0.0
C2 C 0.32722 0.13388 0.31821 0.0
C3 C 0.29481 0.11705 0.31389 0.0
N4 N 0.29961 0.08252 0.31388 0.0
Co5 Co 0.2602 0.04889 0.30833 0.0
N6 N 0.21459 0.08279 0.30829 0.0
C7 C 0.21881 0.1173 0.30883 0.0
C8 C 0.18173 0.134 0.30915 0.0
C9 C 0.15258 0.10835 0.30876 0.0
C10 C 0.17342 0.07722 0.30818 0.0
N11 N 0.22075 0.01523 0.30274 0.0
C12 C 0.1793 0.01524 0.30291 0.0
C13 C 0.16377 0.98686 0.29788 0.0
C14 C 0.19673 0.96842 0.2945 0.0
C15 C 0.23043 0.98657 0.29762 0.0
N16 N 0.30468 0.01421 0.30824 0.0
C17 C 0.30552 0.98539 0.30265 0.0
C18 C 0.34087 0.96681 0.30374 0.0
C19 C 0.36387 0.98524 0.31036 0.0
C20 C 0.34107 0.01421 0.31299 0.0
N21 N 0.24573 0.03535 0.32205 0.0
C22 C 0.24439 0.02088 0.3426 0.0
C23 C 0.24745 0.9941 0.33558 0.0
C24 C 0.2482 1.00189 0.32533 0.0
C25 C 0.23908 0.05451 0.33903 0.0
C26 C 0.2394 0.06108 0.32885 0.0
N27 N 0.27717 0.06422 0.29478 0.0
C28 C 0.33271 0.08388 0.28424 0.0
C29 C 0.30582 0.09527 0.27684 0.0
C30 C 0.26368 0.08982 0.27864 0.0
C31 C 0.25007 0.07427 0.28759 0.0
C32 C 0.31809 0.06852 0.29295 0.0
H33 H 0.21762 0.07112 0.28879 0.0
H34 H 0.34054 0.06139 0.29838 0.0
H35 H 0.2527 0.9811 0.32011 0.0
H36 H 0.23692 0.08759 0.32656 0.0
C37 C 0.25707 0.13183 0.31119 0.0
C38 C 0.35705 0.04311 0.31894 0.0
C39 C 0.15387 0.04282 0.30715 0.0
C40 C 0.27063 0.97435 0.29757 0.0
H41 H 0.38324 0.11215 0.32459 0.0
H42 H 0.33042 0.16135 0.3195 0.0
H43 H 0.17642 0.16139 0.31013 0.0
H44 H 0.11987 0.11221 0.30902 0.0
H45 H 0.13198 0.98024 0.29673 0.0
H46 H 0.19614 0.94394 0.29063 0.0
H47 H 0.34873 0.94245 0.30029 0.0
H48 H 0.39444 0.97848 0.31271 0.0
H49 H 0.25124 0.96759 0.33798 0.0
H50 H 0.23577 0.07599 0.34411 0.0
H51 H 0.36533 0.08783 0.28357 0.0
H52 H 0.24119 0.09755 0.2732 0.0
C53 C 0.96259 0.77618 0.54584 0.0
C54 C 0.99417 0.77426 0.53902 0.0
C55 C 0.02612 0.75768 0.54367 0.0
C56 C 0.01261 0.75052 0.5531 0.0
N57 N 0.97423 0.7616 0.55462 0.0
Co58 Co 0.94463 0.75974 0.56747 0.0
N59 N 0.99539 0.75286 0.57533 0.0
C60 C 0.03101 0.74153 0.57153 0.0
C61 C 0.06036 0.73652 0.57865 0.0
C62 C 0.04185 0.74471 0.58748 0.0
C63 C 1.00207 0.75455 0.58529 0.0
N64 N 0.91406 0.75921 0.5802 0.0
C65 C 0.92736 0.76358 0.58966 0.0
C66 C 0.89438 0.76519 0.59615 0.0
C67 C 0.85988 0.75944 0.59068 0.0
C68 C 0.87328 0.75559 0.58113 0.0
N69 N 0.89376 0.7657 0.55963 0.0
C70 C 0.85576 0.75804 0.56272 0.0
C71 C 0.8265 0.76443 0.55567 0.0
C72 C 0.84737 0.77717 0.54767 0.0
C73 C 0.88832 0.7781 0.55033 0.0
N74 N 0.94024 0.70858 0.56643 0.0
C75 C 0.9565 0.63667 0.56482 0.0
C76 C 0.95488 0.65328 0.57405 0.0
C77 C 0.94662 0.68877 0.5747 0.0
C78 C 0.94623 0.65663 0.55646 0.0
C79 C 0.938 0.69234 0.55743 0.0
N80 N 0.9515 0.81013 0.56849 0.0
C81 C 0.92604 0.86849 0.5702 0.0
C82 C 0.96565 0.88202 0.56883 0.0
C83 C 0.9977 0.85853 0.56759 0.0
C84 C 0.99001 0.82323 0.56733 0.0
C85 C 0.91964 0.83241 0.57004 0.0
H86 H 0.01569 0.80661 0.56603 0.0
H87 H 0.88903 0.82256 0.57102 0.0
H88 H 0.94788 0.70038 0.58193 0.0
H89 H 0.93198 0.70714 0.5508 0.0
C90 C 0.03694 0.74033 0.56119 0.0
C91 C 0.92118 0.79027 0.54379 0.0
C92 C 0.97053 0.76178 0.59289 0.0
C93 C 0.84812 0.75334 0.57279 0.0
H94 H 0.99449 0.78411 0.53153 0.0
H95 H 0.05637 0.7532 0.54069 0.0
H96 H 0.09169 0.72841 0.57756 0.0
H97 H 0.05585 0.7429 0.59472 0.0
H98 H 0.89496 0.76945 0.60406 0.0
H99 H 0.82864 0.7592 0.59331 0.0
H100 H 0.79368 0.76226 0.55646 0.0
H101 H 0.83393 0.78543 0.54074 0.0
H102 H 0.96103 0.63913 0.58081 0.0
H103 H 0.94646 0.64522 0.54914 0.0
H104 H 0.90013 0.88553 0.57118 0.0
H105 H 0.02899 0.86721 0.5668 0.0
C106 C 0.16863 0.44249 0.81506 0.0
C107 C 0.14697 0.41184 0.81612 0.0
C108 C 0.17323 0.3855 0.81366 0.0
C109 C 0.20931 0.40138 0.81117 0.0
N110 N 0.20751 0.43603 0.81206 0.0
Co111 Co 0.25072 0.46851 0.80766 0.0
N112 N 0.29302 0.43169 0.80721 0.0
C113 C 0.28609 0.39748 0.80718 0.0
C114 C 0.32174 0.37864 0.80754 0.0
C115 C 0.35285 0.40264 0.80784 0.0
C116 C 0.33442 0.43486 0.8076 0.0
N117 N 0.29334 0.50084 0.80287 0.0
C118 C 0.33438 0.4974 0.80289 0.0
C119 C 0.3532 0.5255 0.7984 0.0
C120 C 0.32263 0.54764 0.79567 0.0
C121 C 0.28706 0.53175 0.79856 0.0
N122 N 0.21039 0.50642 0.80849 0.0
C123 C 0.21472 0.53881 0.80498 0.0
C124 C 0.18602 0.56122 0.80864 0.0
C125 C 0.16169 0.5415 0.81464 0.0
C126 C 0.17612 0.50773 0.814 0.0
N127 N 0.26516 0.47726 0.82173 0.0
C128 C 0.26548 0.48716 0.84255 0.0
C129 C 0.26816 0.51539 0.83599 0.0
C130 C 0.26805 0.5099 0.82563 0.0
C131 C 0.26602 0.45402 0.83837 0.0
C132 C 0.26615 0.44967 0.82808 0.0
N133 N 0.23381 0.45781 0.79373 0.0
C134 C 0.17728 0.44542 0.7826 0.0
C135 C 0.20215 0.42597 0.7762 0.0
C136 C 0.24433 0.42551 0.77846 0.0
C137 C 0.25948 0.44184 0.78712 0.0
C138 C 0.19335 0.46069 0.79119 0.0
H139 H 0.29177 0.44 0.78868 0.0
H140 H 0.17197 0.47328 0.79603 0.0
H141 H 0.26833 0.5321 0.82079 0.0
H142 H 0.26487 0.42365 0.82531 0.0
C143 C 0.24629 0.38484 0.80871 0.0
C144 C 0.15063 0.47727 0.81608 0.0
C145 C 0.35627 0.46821 0.80722 0.0
C146 C 0.2497 0.54854 0.79976 0.0
H147 H 0.11531 0.40872 0.81822 0.0
H148 H 0.16673 0.35807 0.81371 0.0
H149 H 0.32477 0.35084 0.80805 0.0
H150 H 0.38519 0.39705 0.80824 0.0
H151 H 0.38564 0.52995 0.79747 0.0
H152 H 0.32616 0.57332 0.79261 0.0
H153 H 0.18364 0.58874 0.80732 0.0
H154 H 0.13448 0.5504 0.81842 0.0
H155 H 0.2684 0.54159 0.83881 0.0
H156 H 0.26536 0.43127 0.84304 0.0
H157 H 0.14494 0.4484 0.78116 0.0
H158 H 0.26555 0.41144 0.77383 0.0
C159 C 0.54199 0.74268 0.04567 0.0
C160 C 0.51025 0.74416 0.03888 0.0
C161 C 0.47825 0.76073 0.04352 0.0
C162 C 0.49186 0.76831 0.05291 0.0
N163 N 0.53037 0.75752 0.05441 0.0
Co164 Co 0.56006 0.75974 0.06724 0.0
N165 N 0.50932 0.7663 0.07513 0.0
C166 C 0.47357 0.77738 0.07135 0.0
C167 C 0.44424 0.78219 0.07849 0.0
C168 C 0.4629 0.77414 0.08731 0.0
C169 C 0.50276 0.76456 0.08509 0.0
N170 N 0.59075 0.76061 0.07995 0.0
C171 C 0.57762 0.75618 0.08942 0.0
C172 C 0.61069 0.75493 0.09588 0.0
C173 C 0.64505 0.76097 0.09037 0.0
C174 C 0.63149 0.76463 0.08084 0.0
N175 N 0.61087 0.75407 0.05937 0.0
C176 C 0.64881 0.76212 0.06241 0.0
C177 C 0.67805 0.7558 0.05534 0.0
C178 C 0.65721 0.74267 0.04738 0.0
C179 C 0.61632 0.74144 0.05009 0.0
N180 N 0.56391 0.81094 0.06617 0.0
C181 C 0.5473 0.88282 0.06456 0.0
C182 C 0.54898 0.86622 0.07379 0.0
C183 C 0.55742 0.83075 0.07444 0.0
C184 C 0.55761 0.86287 0.0562 0.0
C185 C 0.56598 0.82717 0.05716 0.0
N186 N 0.55372 0.70931 0.06831 0.0
C187 C 0.57977 0.65115 0.07001 0.0
C188 C 0.54029 0.63734 0.06865 0.0
C189 C 0.508 0.66059 0.06742 0.0
C190 C 0.51533 0.69593 0.06716 0.0
C191 C 0.58581 0.68727 0.06984 0.0
H192 H 0.48947 0.71236 0.06587 0.0
H193 H 0.61633 0.69735 0.07081 0.0
H194 H 0.55625 0.81915 0.08167 0.0
H195 H 0.57203 0.81237 0.05054 0.0
C196 C 0.46753 0.77844 0.06101 0.0
C197 C 0.5835 0.72872 0.04362 0.0
C198 C 0.53444 0.75754 0.09268 0.0
C199 C 0.65653 0.76703 0.07247 0.0
H200 H 0.50983 0.73398 0.03143 0.0
H201 H 0.4479 0.76486 0.04057 0.0
H202 H 0.41282 0.79006 0.07742 0.0
H203 H 0.44895 0.77584 0.09456 0.0
H204 H 0.61028 0.7507 0.10379 0.0
H205 H 0.67632 0.76151 0.09298 0.0
H206 H 0.71086 0.75823 0.0561 0.0
H207 H 0.67065 0.73432 0.04046 0.0
H208 H 0.54275 0.88035 0.08055 0.0
H209 H 0.55733 0.87429 0.04888 0.0
H210 H 0.60584 0.63428 0.07099 0.0
H211 H 0.4768 0.65167 0.06664 0.0
C212 C 0.33569 0.44235 0.94558 0.0
C213 C 0.35739 0.41173 0.94452 0.0
C214 C 0.33113 0.38536 0.94696 0.0
C215 C 0.29503 0.40119 0.94945 0.0
N216 N 0.29681 0.43584 0.94857 0.0
Co217 Co 0.25357 0.46826 0.95297 0.0
N218 N 0.21129 0.4314 0.95341 0.0
C219 C 0.21824 0.3972 0.95343 0.0
C220 C 0.18261 0.37832 0.95306 0.0
C221 C 0.15148 0.40229 0.95277 0.0
C222 C 0.16989 0.43453 0.95302 0.0
N223 N 0.21092 0.50054 0.95777 0.0
C224 C 0.16989 0.49706 0.95775 0.0
C225 C 0.15105 0.52512 0.96225 0.0
C226 C 0.1816 0.54729 0.96499 0.0
C227 C 0.21719 0.53145 0.96209 0.0
N228 N 0.29388 0.50622 0.95216 0.0
C229 C 0.28951 0.53861 0.95567 0.0
C230 C 0.3182 0.56105 0.95202 0.0
C231 C 0.34255 0.54137 0.94602 0.0
C232 C 0.32815 0.50758 0.94665 0.0
N233 N 0.23914 0.47704 0.93891 0.0
C234 C 0.23882 0.48702 0.91809 0.0
C235 C 0.2361 0.51522 0.92466 0.0
C236 C 0.23621 0.50969 0.93502 0.0
C237 C 0.23832 0.45385 0.92226 0.0
C238 C 0.23819 0.44948 0.93254 0.0
N239 N 0.27048 0.45754 0.9669 0.0
C240 C 0.32702 0.44524 0.97804 0.0
C241 C 0.30219 0.42566 0.98443 0.0
C242 C 0.26003 0.42509 0.98215 0.0
C243 C 0.24485 0.44145 0.9735 0.0
C244 C 0.31092 0.46052 0.96945 0.0
H245 H 0.21257 0.43953 0.97194 0.0
H246 H 0.33228 0.4732 0.96462 0.0
H247 H 0.2359 0.53188 0.93986 0.0
H248 H 0.2395 0.42345 0.9353 0.0
C249 C 0.25806 0.3846 0.9519 0.0
C250 C 0.35367 0.47716 0.94457 0.0
C251 C 0.14802 0.46786 0.95342 0.0
C252 C 0.25452 0.54828 0.96089 0.0
H253 H 0.38905 0.40864 0.94242 0.0
H254 H 0.33765 0.35793 0.94691 0.0
H255 H 0.1796 0.35053 0.95254 0.0
H256 H 0.11914 0.39668 0.95237 0.0
H257 H 0.11861 0.52954 0.96318 0.0
H258 H 0.17805 0.57296 0.96806 0.0
H259 H 0.32055 0.58857 0.95334 0.0
H260 H 0.36976 0.55031 0.94224 0.0
H261 H 0.23583 0.54142 0.92185 0.0
H262 H 0.23901 0.43112 0.91758 0.0
H263 H 0.35933 0.44833 0.97949 0.0
H264 H 0.23883 0.41091 0.98676 0.0
C265 C 0.54174 0.77652 0.21491 0.0
C266 C 0.51004 0.77484 0.22171 0.0
C267 C 0.47811 0.75818 0.21707 0.0
C268 C 0.49174 0.75075 0.20767 0.0
N269 N 0.53017 0.76173 0.20615 0.0
Co270 Co 0.56001 0.75933 0.19333 0.0
N271 N 0.5094 0.75208 0.18545 0.0
C272 C 0.47372 0.74089 0.18925 0.0
C273 C 0.44448 0.73563 0.18212 0.0
C274 C 0.46313 0.74352 0.17328 0.0
C275 C 0.50288 0.75345 0.17548 0.0
N276 N 0.59077 0.75837 0.18063 0.0
C277 C 0.57762 0.76246 0.17115 0.0
C278 C 0.61069 0.76387 0.16469 0.0
C279 C 0.6451 0.75827 0.1702 0.0
C280 C 0.63155 0.75471 0.17975 0.0
N281 N 0.61076 0.76559 0.2012 0.0
C282 C 0.64879 0.75781 0.19816 0.0
C283 C 0.67797 0.76435 0.20522 0.0
C284 C 0.657 0.77731 0.21318 0.0
C285 C 0.6161 0.77821 0.21048 0.0
N286 N 0.56442 0.70816 0.19454 0.0
C287 C 0.55001 0.63599 0.19628 0.0
C288 C 0.5525 0.65212 0.187 0.0
C289 C 0.55946 0.68787 0.1863 0.0
C290 C 0.55761 0.65664 0.20466 0.0
C291 C 0.56548 0.69236 0.20362 0.0
N292 N 0.55315 0.80972 0.19215 0.0
C293 C 0.57872 0.86804 0.19035 0.0
C294 C 0.53914 0.88165 0.1917 0.0
C295 C 0.50704 0.85821 0.19297 0.0
C296 C 0.51464 0.82289 0.19327 0.0
C297 C 0.58505 0.83195 0.19058 0.0
H298 H 0.48891 0.8063 0.19457 0.0
H299 H 0.61566 0.82205 0.18964 0.0
H300 H 0.55845 0.6992 0.17903 0.0
H301 H 0.57051 0.70744 0.21024 0.0
C302 C 0.46757 0.74018 0.19959 0.0
C303 C 0.58317 0.79054 0.21698 0.0
C304 C 0.53448 0.76065 0.16789 0.0
C305 C 0.65658 0.75275 0.18811 0.0
H306 H 0.50968 0.78485 0.22918 0.0
H307 H 0.44783 0.75378 0.22004 0.0
H308 H 0.41311 0.7276 0.1832 0.0
H309 H 0.44924 0.74153 0.16604 0.0
H310 H 0.61025 0.76793 0.15677 0.0
H311 H 0.67638 0.75797 0.1676 0.0
H312 H 0.71079 0.76211 0.20446 0.0
H313 H 0.67037 0.78571 0.22011 0.0
H314 H 0.54692 0.63755 0.18029 0.0
H315 H 0.55692 0.64538 0.212 0.0
H316 H 0.60466 0.88504 0.18934 0.0
H317 H 0.47578 0.86698 0.19376 0.0
C318 C 0.16883 0.07765 0.44248 0.0
C319 C 0.15152 0.10888 0.43966 0.0
C320 C 0.17851 0.13441 0.44242 0.0
C321 C 0.21087 0.1175 0.44673 0.0
N322 N 0.2059 0.08299 0.44674 0.0
Co323 Co 0.24519 0.04926 0.45229 0.0
N324 N 0.29094 0.08304 0.45232 0.0
C325 C 0.28686 0.11757 0.45179 0.0
C326 C 0.324 0.13419 0.45148 0.0
C327 C 0.35306 0.10847 0.45186 0.0
C328 C 0.33209 0.07739 0.45244 0.0
N329 N 0.28452 0.01549 0.45786 0.0
C330 C 0.32596 0.0154 0.45769 0.0
C331 C 0.34139 0.98697 0.46272 0.0
C332 C 0.30836 0.96861 0.46609 0.0
C333 C 0.27473 0.98684 0.46298 0.0
N334 N 0.20054 0.01471 0.45239 0.0
C335 C 0.19959 0.98589 0.45798 0.0
C336 C 0.16415 0.96741 0.4569 0.0
C337 C 0.14119 0.9859 0.4503 0.0
C338 C 0.16412 0.01481 0.44765 0.0
N339 N 0.25953 0.03569 0.43856 0.0
C340 C 0.2606 0.0214 0.41799 0.0
C341 C 0.25709 0.99459 0.42499 0.0
C342 C 0.25653 1.00229 0.43524 0.0
C343 C 0.26654 0.05493 0.4216 0.0
C344 C 0.26626 0.06141 0.43178 0.0
N345 N 0.22836 0.06463 0.46584 0.0
C346 C 0.173 0.08453 0.47639 0.0
C347 C 0.2 0.09579 0.48379 0.0
C348 C 0.24209 0.09015 0.48198 0.0
C349 C 0.25556 0.07455 0.47302 0.0
C350 C 0.18748 0.0691 0.46768 0.0
H351 H 0.28798 0.07126 0.47182 0.0
H352 H 0.16497 0.06207 0.46226 0.0
H353 H 0.25173 0.98149 0.44045 0.0
H354 H 0.26911 0.08788 0.43409 0.0
C355 C 0.24866 0.13219 0.44943 0.0
C356 C 0.14824 0.04373 0.44171 0.0
C357 C 0.35151 0.04295 0.45347 0.0
C358 C 0.23448 0.97474 0.46304 0.0
H359 H 0.12234 0.11283 0.43606 0.0
H360 H 0.17542 0.1619 0.44113 0.0
H361 H 0.32942 0.16157 0.4505 0.0
H362 H 0.38578 0.11226 0.45161 0.0
H363 H 0.37315 0.98028 0.46386 0.0
H364 H 0.30885 0.94412 0.46996 0.0
H365 H 0.1562 0.94307 0.46036 0.0
H366 H 0.11058 0.97922 0.44796 0.0
H367 H 0.25283 0.96815 0.42258 0.0
H368 H 0.27032 0.07643 0.41654 0.0
H369 H 0.14042 0.08863 0.47707 0.0
H370 H 0.26466 0.09777 0.48741 0.0
C371 C 0.96247 0.74305 0.71511 0.0
C372 C 0.99418 0.74451 0.7219 0.0
C373 C 0.02623 0.76106 0.71727 0.0
C374 C 0.01268 0.76864 0.70788 0.0
N375 N 0.97417 0.75787 0.70637 0.0
Co376 Co 0.94454 0.76009 0.69353 0.0
N377 N 0.99534 0.7666 0.68565 0.0
C378 C 0.0311 0.77764 0.68945 0.0
C379 C 0.06048 0.78244 0.68232 0.0
C380 C 0.04185 0.77441 0.67349 0.0
C381 C 1.00196 0.76487 0.67569 0.0
N382 N 0.91392 0.76097 0.68081 0.0
C383 C 0.9271 0.75654 0.67135 0.0
C384 C 0.89407 0.75531 0.66487 0.0
C385 C 0.85968 0.76136 0.67037 0.0
C386 C 0.87319 0.76501 0.67991 0.0
N387 N 0.89368 0.75447 0.70138 0.0
C388 C 0.85577 0.76254 0.69833 0.0
C389 C 0.82648 0.75625 0.70539 0.0
C390 C 0.84726 0.74311 0.71335 0.0
C391 C 0.88816 0.74186 0.71066 0.0
N392 N 0.94078 0.8113 0.69459 0.0
C393 C 0.95745 0.88318 0.69618 0.0
C394 C 0.9558 0.86654 0.68696 0.0
C395 C 0.94732 0.83108 0.68632 0.0
C396 C 0.94709 0.86327 0.70455 0.0
C397 C 0.9387 0.82756 0.70359 0.0
N398 N 0.95079 0.70966 0.69247 0.0
C399 C 0.92463 0.65154 0.6907 0.0
C400 C 0.96405 0.63768 0.69209 0.0
C401 C 0.99638 0.66089 0.69336 0.0
C402 C 0.98913 0.69624 0.69364 0.0
C403 C 0.91867 0.68767 0.69089 0.0
H404 H 0.01501 0.71264 0.69495 0.0
H405 H 0.88819 0.69779 0.68991 0.0
H406 H 0.94852 0.81946 0.67909 0.0
H407 H 0.93261 0.81279 0.71022 0.0
C408 C 0.03708 0.77872 0.69978 0.0
C409 C 0.92093 0.72912 0.71714 0.0
C410 C 0.9703 0.7579 0.6681 0.0
C411 C 0.84812 0.76744 0.68826 0.0
H412 H 0.99456 0.73433 0.72935 0.0
H413 H 0.05658 0.76516 0.72023 0.0
H414 H 0.09191 0.79029 0.6834 0.0
H415 H 0.05584 0.77611 0.66625 0.0
H416 H 0.89453 0.75109 0.65696 0.0
H417 H 0.82843 0.76193 0.66775 0.0
H418 H 0.79369 0.7587 0.70462 0.0
H419 H 0.83377 0.73478 0.72027 0.0
H420 H 0.96206 0.88065 0.6802 0.0
H421 H 0.94736 0.87471 0.71186 0.0
H422 H 0.89853 0.63471 0.68969 0.0
H423 H 0.02755 0.65192 0.69417 0.0
C424 C 0.83409 0.5788 0.81606 0.0
C425 C 0.85424 0.61003 0.81743 0.0
C426 C 0.82726 0.63567 0.81483 0.0
C427 C 0.7923 0.61883 0.81194 0.0
N428 N 0.79544 0.58423 0.81273 0.0
Co429 Co 0.75419 0.55064 0.80791 0.0
N430 N 0.71055 0.58622 0.80717 0.0
C431 C 0.71615 0.6206 0.80719 0.0
C432 C 0.67974 0.63841 0.80738 0.0
C433 C 0.64958 0.61354 0.80751 0.0
C434 C 0.66929 0.58186 0.80735 0.0
N435 N 0.71345 0.5172 0.80281 0.0
C436 C 0.67228 0.51934 0.80269 0.0
C437 C 0.65501 0.49077 0.79809 0.0
C438 C 0.68674 0.46968 0.79542 0.0
C439 C 0.72141 0.48663 0.79847 0.0
N440 N 0.79603 0.51399 0.80888 0.0
C441 C 0.79355 0.48167 0.8052 0.0
C442 C 0.82283 0.46002 0.80897 0.0
C443 C 0.84554 0.48018 0.81522 0.0
C444 C 0.8296 0.51348 0.81464 0.0
N445 N 0.73848 0.54108 0.82186 0.0
C446 C 0.73518 0.53071 0.84266 0.0
C447 C 0.73697 0.50261 0.83604 0.0
C448 C 0.73797 0.5083 0.8257 0.0
C449 C 0.73251 0.56385 0.83851 0.0
C450 C 0.73418 0.56842 0.82822 0.0
N451 N 0.77216 0.562 0.79411 0.0
C452 C 0.8289 0.57775 0.7834 0.0
C453 C 0.8029 0.59244 0.77627 0.0
C454 C 0.76049 0.58965 0.77817 0.0
C455 C 0.74586 0.57438 0.78705 0.0
C456 C 0.81317 0.56257 0.79204 0.0
H457 H 0.71328 0.57368 0.78833 0.0
H458 H 0.83495 0.55294 0.7973 0.0
H459 H 0.74017 0.48621 0.82086 0.0
H460 H 0.73419 0.59452 0.82549 0.0
C461 C 0.75512 0.63433 0.80913 0.0
C462 C 0.85365 0.54458 0.81692 0.0
C463 C 0.64887 0.54787 0.80693 0.0
C464 C 0.75945 0.47104 0.79979 0.0
H465 H 0.88543 0.61395 0.81982 0.0
H466 H 0.83259 0.66327 0.81501 0.0
H467 H 0.67556 0.66609 0.80794 0.0
H468 H 0.61703 0.61825 0.8078 0.0
H469 H 0.62285 0.48534 0.79703 0.0
H470 H 0.68454 0.44397 0.79231 0.0
H471 H 0.82662 0.43267 0.80755 0.0
H472 H 0.87281 0.47203 0.81911 0.0
H473 H 0.73819 0.47638 0.83881 0.0
H474 H 0.73123 0.58655 0.84319 0.0
H475 H 0.86176 0.57912 0.78263 0.0
H476 H 0.73849 0.59952 0.7729 0.0
C477 C 0.46093 0.27548 0.04561 0.0
C478 C 0.49159 0.27217 0.0386 0.0
C479 C 0.52363 0.25553 0.04321 0.0
C480 C 0.51083 0.2495 0.05277 0.0
N481 N 0.47283 0.26128 0.0544 0.0
Co482 Co 0.44362 0.25975 0.06729 0.0
N483 N 0.49463 0.25258 0.07504 0.0
C484 C 0.52999 0.24095 0.07116 0.0
C485 C 0.55957 0.23584 0.07822 0.0
C486 C 0.54149 0.24427 0.08709 0.0
C487 C 0.50171 0.25433 0.08498 0.0
N488 N 0.41352 0.25949 0.08009 0.0
C489 C 0.42724 0.26373 0.08952 0.0
C490 C 0.39456 0.26564 0.09609 0.0
C491 C 0.35977 0.2603 0.0907 0.0
C492 C 0.37273 0.25636 0.08112 0.0
N493 N 0.39248 0.26615 0.05953 0.0
C494 C 0.35439 0.25958 0.06276 0.0
C495 C 0.32489 0.26739 0.05589 0.0
C496 C 0.34566 0.27989 0.04785 0.0
C497 C 0.38688 0.27891 0.05026 0.0
N498 N 0.4387 0.20859 0.06629 0.0
C499 C 0.45483 0.13664 0.06467 0.0
C500 C 0.45364 0.15331 0.07389 0.0
C501 C 0.44541 0.18881 0.07454 0.0
C502 C 0.44413 0.15655 0.05633 0.0
C503 C 0.43599 0.19229 0.0573 0.0
N504 N 0.45103 0.31008 0.06828 0.0
C505 C 0.42621 0.36853 0.07021 0.0
C506 C 0.46578 0.38186 0.06865 0.0
C507 C 0.49752 0.35822 0.06718 0.0
C508 C 0.48953 0.32297 0.06692 0.0
C509 C 0.4195 0.33251 0.07002 0.0
H510 H 0.51495 0.30617 0.06548 0.0
H511 H 0.38891 0.32283 0.07116 0.0
H512 H 0.44702 0.20046 0.08176 0.0
H513 H 0.42969 0.20705 0.05068 0.0
C514 C 0.53544 0.23931 0.06081 0.0
C515 C 0.41985 0.28994 0.04358 0.0
C516 C 0.47051 0.26172 0.09265 0.0
C517 C 0.3472 0.25483 0.07285 0.0
H518 H 0.49083 0.28089 0.03099 0.0
H519 H 0.55337 0.25001 0.04008 0.0
H520 H 0.59075 0.22744 0.07707 0.0
H521 H 0.55572 0.24244 0.0943 0.0
H522 H 0.39551 0.26992 0.104 0.0
H523 H 0.32863 0.2605 0.0934 0.0
H524 H 0.29207 0.26654 0.05687 0.0
H525 H 0.33187 0.28942 0.0411 0.0
H526 H 0.46015 0.1392 0.08064 0.0
H527 H 0.44399 0.14508 0.04902 0.0
H528 H 0.40054 0.38569 0.07138 0.0
H529 H 0.52879 0.36677 0.06622 0.0
C530 C 0.6681 0.94185 0.31825 0.0
C531 C 0.65073 0.91063 0.32107 0.0
C532 C 0.67764 0.88508 0.31829 0.0
C533 C 0.71001 0.90196 0.31397 0.0
N534 N 0.70513 0.93648 0.31397 0.0
Co535 Co 0.74446 0.97018 0.30841 0.0
N536 N 0.79012 0.93634 0.30834 0.0
C537 C 0.78597 0.90182 0.30887 0.0
C538 C 0.82308 0.88516 0.30917 0.0
C539 C 0.85219 0.91085 0.30878 0.0
C540 C 0.83129 0.94196 0.30821 0.0
N541 N 0.78383 1.0039 0.30281 0.0
C542 C 0.82527 1.00395 0.30297 0.0
C543 C 0.84074 0.03237 0.29794 0.0
C544 C 0.80773 0.05078 0.29459 0.0
C545 C 0.77407 0.03258 0.29771 0.0
N546 N 0.6999 1.0048 0.30834 0.0
C547 C 0.699 0.03364 0.30276 0.0
C548 C 0.66362 0.05217 0.30387 0.0
C549 C 0.64066 0.03369 0.31048 0.0
C550 C 0.66352 1.00473 0.3131 0.0
N551 N 0.75896 0.98371 0.32213 0.0
C552 C 0.76037 0.99808 0.34269 0.0
C553 C 0.75706 0.02488 0.33568 0.0
C554 C 0.7563 0.01714 0.32543 0.0
C555 C 0.76592 0.9645 0.33909 0.0
C556 C 0.76551 0.95798 0.32891 0.0
N557 N 0.72745 0.95486 0.29487 0.0
C558 C 0.6719 0.93513 0.28435 0.0
C559 C 0.69877 0.92382 0.27692 0.0
C560 C 0.74091 0.92934 0.27871 0.0
C561 C 0.75454 0.94487 0.28766 0.0
C562 C 0.68653 0.9505 0.29304 0.0
H563 H 0.78698 0.94808 0.28885 0.0
H564 H 0.6641 0.95757 0.29849 0.0
H565 H 0.75163 0.03794 0.32022 0.0
H566 H 0.76813 0.93149 0.32661 0.0
C567 C 0.74775 0.88724 0.31125 0.0
C568 C 0.64758 0.97578 0.31903 0.0
C569 C 0.85077 0.97638 0.30719 0.0
C570 C 0.73386 0.04474 0.29768 0.0
H571 H 0.62157 0.90671 0.32468 0.0
H572 H 0.67449 0.85759 0.31957 0.0
H573 H 0.82845 0.85778 0.31015 0.0
H574 H 0.8849 0.90704 0.30903 0.0
H575 H 0.87251 0.03904 0.29679 0.0
H576 H 0.80826 0.07528 0.29072 0.0
H577 H 0.65571 0.07653 0.30043 0.0
H578 H 0.61009 0.0404 0.31284 0.0
H579 H 0.7531 0.05135 0.33809 0.0
H580 H 0.76949 0.943 0.34416 0.0
H581 H 0.63929 0.93113 0.28369 0.0
H582 H 0.76339 0.92167 0.27326 0.0
C583 C 0.04341 0.24353 0.54572 0.0
C584 C 0.012 0.24545 0.53885 0.0
C585 C 0.97988 0.26193 0.54347 0.0
C586 C 0.99311 0.26903 0.55292 0.0
N587 N 0.03148 0.25801 0.55449 0.0
Co588 Co 0.06073 0.25983 0.56739 0.0
N589 N 0.00971 0.26644 0.57518 0.0
C590 C 0.97413 0.27766 0.57133 0.0
C591 C 0.94455 0.28246 0.57841 0.0
C592 C 0.96286 0.27424 0.58726 0.0
C593 C 0.00276 0.2646 0.58512 0.0
N594 N 0.09094 0.26038 0.58016 0.0
C595 C 0.07742 0.25593 0.5896 0.0
C596 C 0.11023 0.25448 0.59614 0.0
C597 C 0.14484 0.26038 0.59072 0.0
C598 C 0.13167 0.26419 0.58115 0.0
N599 N 0.11182 0.25406 0.55962 0.0
C600 C 0.14971 0.2618 0.56277 0.0
C601 C 0.17918 0.25548 0.55576 0.0
C602 C 0.15856 0.2427 0.54772 0.0
C603 C 0.11755 0.24168 0.55033 0.0
N604 N 0.06493 0.311 0.56639 0.0
C605 C 0.04864 0.3829 0.56479 0.0
C606 C 0.04974 0.36621 0.57401 0.0
C607 C 0.05805 0.33073 0.57466 0.0
C608 C 0.05941 0.36305 0.55644 0.0
C609 C 0.0676 0.32732 0.5574 0.0
N610 N 0.05406 0.20941 0.56837 0.0
C611 C 0.07968 0.15118 0.57024 0.0
C612 C 0.04025 0.1375 0.56872 0.0
C613 C 0.00819 0.16084 0.5673 0.0
C614 C 0.0157 0.19617 0.56705 0.0
C615 C 0.08592 0.18728 0.57006 0.0
H616 H 0.99003 0.2127 0.56566 0.0
H617 H 0.11641 0.19726 0.57115 0.0
H618 H 0.05645 0.31905 0.58187 0.0
H619 H 0.07398 0.31259 0.55079 0.0
C620 C 0.9685 0.27902 0.56098 0.0
C621 C 0.08489 0.2295 0.54373 0.0
C622 C 0.03415 0.25748 0.59277 0.0
C623 C 0.15705 0.26653 0.57285 0.0
H624 H 0.0119 0.23565 0.53136 0.0
H625 H 0.9497 0.26635 0.54045 0.0
H626 H 0.91321 0.29045 0.57728 0.0
H627 H 0.94866 0.27589 0.59448 0.0
H628 H 0.10946 0.25021 0.60405 0.0
H629 H 0.176 0.26076 0.5934 0.0
H630 H 0.21197 0.25772 0.5566 0.0
H631 H 0.17221 0.23448 0.54081 0.0
H632 H 0.04314 0.38029 0.58076 0.0
H633 H 0.05958 0.37455 0.54914 0.0
H634 H 0.10558 0.13423 0.57137 0.0
H635 H 0.97702 0.152 0.56637 0.0
C636 C 0.8373 0.9422 0.44256 0.0
C637 C 0.85474 0.91101 0.43974 0.0
C638 C 0.82785 0.88541 0.44251 0.0
C639 C 0.79543 0.90224 0.44682 0.0
N640 N 0.80025 0.93676 0.44682 0.0
Co641 Co 0.76083 0.97039 0.45237 0.0
N642 N 0.71521 0.93649 0.45241 0.0
C643 C 0.71942 0.90198 0.45188 0.0
C644 C 0.68233 0.88526 0.45156 0.0
C645 C 0.65319 0.91091 0.45194 0.0
C646 C 0.67404 0.94204 0.45252 0.0
N647 N 0.72138 1.00405 0.45796 0.0
C648 C 0.67994 1.00403 0.45778 0.0
C649 C 0.6644 0.03242 0.46281 0.0
C650 C 0.69736 0.05087 0.46618 0.0
C651 C 0.73106 0.03272 0.46307 0.0
N652 N 0.80534 1.00507 0.45246 0.0
C653 C 0.80618 0.0339 0.45805 0.0
C654 C 0.84154 0.05249 0.45697 0.0
C655 C 0.86456 0.03405 0.45036 0.0
C656 C 0.84175 1.00507 0.44772 0.0
N657 N 0.74641 0.98391 0.43865 0.0
C658 C 0.74505 0.99827 0.41809 0.0
C659 C 0.74829 0.02508 0.4251 0.0
C660 C 0.74903 0.01734 0.43535 0.0
C661 C 0.73956 0.96468 0.42168 0.0
C662 C 0.73994 0.95816 0.43186 0.0
N663 N 0.77773 0.95508 0.46592 0.0
C664 C 0.83318 0.93534 0.47646 0.0
C665 C 0.80623 0.92396 0.48386 0.0
C666 C 0.76411 0.92947 0.48206 0.0
C667 C 0.75058 0.94505 0.4731 0.0
C668 C 0.81863 0.95075 0.46776 0.0
H669 H 0.71814 0.94823 0.4719 0.0
H670 H 0.84112 0.95787 0.46234 0.0
H671 H 0.75364 0.03815 0.44056 0.0
H672 H 0.73737 0.93166 0.43416 0.0
C673 C 0.75768 0.88745 0.44953 0.0
C674 C 0.85774 0.97618 0.44178 0.0
C675 C 0.65451 0.97644 0.45355 0.0
C676 C 0.77126 0.04494 0.46313 0.0
H677 H 0.88392 0.90714 0.43614 0.0
H678 H 0.83105 0.85793 0.44123 0.0
H679 H 0.67701 0.85786 0.45058 0.0
H680 H 0.62048 0.90704 0.45168 0.0
H681 H 0.63261 0.03903 0.46395 0.0
H682 H 0.69676 0.07535 0.47006 0.0
H683 H 0.8494 0.07685 0.46042 0.0
H684 H 0.89514 0.04081 0.44801 0.0
H685 H 0.7522 0.05156 0.42269 0.0
H686 H 0.73606 0.94317 0.41661 0.0
H687 H 0.86579 0.93135 0.47714 0.0
H688 H 0.74158 0.92176 0.48749 0.0
C689 C 0.04358 0.27589 0.71496 0.0
C690 C 0.01296 0.27252 0.72198 0.0
C691 C 0.98093 0.25582 0.71738 0.0
C692 C 0.99368 0.2498 0.70782 0.0
N693 N 0.03165 0.26165 0.70618 0.0
Co694 Co 0.06079 0.26013 0.69327 0.0
N695 N 0.00974 0.25279 0.68555 0.0
C696 C 0.97444 0.24109 0.68944 0.0
C697 C 0.94484 0.23582 0.68239 0.0
C698 C 0.96284 0.24422 0.67351 0.0
C699 C 0.00259 0.25441 0.6756 0.0
N700 N 0.09079 0.25991 0.68046 0.0
C701 C 0.077 0.26404 0.67103 0.0
C702 C 0.10962 0.26606 0.66445 0.0
C703 C 0.14447 0.26089 0.66983 0.0
C704 C 0.13159 0.25693 0.67941 0.0
N705 N 0.11196 0.26669 0.70101 0.0
C706 C 0.15005 0.26025 0.69776 0.0
C707 C 0.17958 0.26816 0.70462 0.0
C708 C 0.15883 0.28059 0.71267 0.0
C709 C 0.1176 0.27946 0.71028 0.0
N710 N 0.06585 0.209 0.69429 0.0
C711 C 0.04985 0.13704 0.69594 0.0
C712 C 0.05101 0.15364 0.68671 0.0
C713 C 0.05918 0.18916 0.68604 0.0
C714 C 0.06054 0.15701 0.70428 0.0
C715 C 0.06863 0.19275 0.70329 0.0
N716 N 0.05323 0.31044 0.69227 0.0
C717 C 0.07793 0.36895 0.69036 0.0
C718 C 0.03832 0.3822 0.69191 0.0
C719 C 0.00662 0.35848 0.69336 0.0
C720 C 0.01469 0.32324 0.69362 0.0
C721 C 0.08471 0.33294 0.69054 0.0
H722 H 0.98931 0.30639 0.69506 0.0
H723 H 0.11533 0.32334 0.68941 0.0
H724 H 0.05754 0.20076 0.67882 0.0
H725 H 0.07491 0.20756 0.70989 0.0
C726 C 0.96905 0.23951 0.6998 0.0
C727 C 0.08464 0.29039 0.71698 0.0
C728 C 0.03372 0.26181 0.66792 0.0
C729 C 0.15718 0.25551 0.68768 0.0
H730 H 0.01376 0.28124 0.72959 0.0
H731 H 0.95122 0.25023 0.72053 0.0
H732 H 0.91369 0.22734 0.68356 0.0
H733 H 0.94857 0.24227 0.66631 0.0
H734 H 0.10859 0.27029 0.65654 0.0
H735 H 0.17559 0.26119 0.66711 0.0
H736 H 0.21239 0.26741 0.70362 0.0
H737 H 0.17265 0.29017 0.71941 0.0
H738 H 0.04453 0.13948 0.67997 0.0
H739 H 0.0607 0.14559 0.71159 0.0
H740 H 0.10357 0.38617 0.68921 0.0
H741 H 0.97533 0.36696 0.69431 0.0
C742 C 0.67034 0.57865 0.94467 0.0
C743 C 0.65027 0.6099 0.9433 0.0
C744 C 0.67729 0.63551 0.94591 0.0
C745 C 0.71221 0.61863 0.94881 0.0
N746 N 0.70899 0.58404 0.94801 0.0
Co747 Co 0.75016 0.55039 0.95283 0.0
N748 N 0.79387 0.58592 0.95358 0.0
C749 C 0.78835 0.62032 0.95357 0.0
C750 C 0.82479 0.63808 0.95339 0.0
C751 C 0.8549 0.61319 0.95325 0.0
C752 C 0.83513 0.58152 0.9534 0.0
N753 N 0.79082 0.5169 0.95792 0.0
C754 C 0.83199 0.519 0.95804 0.0
C755 C 0.8492 0.4904 0.96263 0.0
C756 C 0.81741 0.46934 0.9653 0.0
C757 C 0.78278 0.48633 0.96226 0.0
N758 N 0.70824 0.51378 0.95184 0.0
C759 C 0.71064 0.48146 0.95552 0.0
C760 C 0.68131 0.45985 0.95174 0.0
C761 C 0.65866 0.48004 0.94549 0.0
C762 C 0.67468 0.51332 0.94607 0.0
N763 N 0.76588 0.54086 0.93888 0.0
C764 C 0.76917 0.53054 0.91807 0.0
C765 C 0.76728 0.50242 0.92468 0.0
C766 C 0.76629 0.50808 0.93502 0.0
C767 C 0.77194 0.56367 0.92223 0.0
C768 C 0.77027 0.5682 0.93252 0.0
N769 N 0.73218 0.56173 0.96662 0.0
C770 C 0.67543 0.5775 0.97733 0.0
C771 C 0.70143 0.59213 0.98447 0.0
C772 C 0.74384 0.58933 0.98258 0.0
C773 C 0.75848 0.57408 0.97369 0.0
C774 C 0.69115 0.56234 0.96868 0.0
H775 H 0.79106 0.57336 0.97242 0.0
H776 H 0.66937 0.55274 0.96342 0.0
H777 H 0.76403 0.48598 0.93986 0.0
H778 H 0.77033 0.5943 0.93526 0.0
C779 C 0.74941 0.63409 0.95162 0.0
C780 C 0.65071 0.54445 0.9438 0.0
C781 C 0.85547 0.54751 0.95381 0.0
C782 C 0.74471 0.47079 0.96093 0.0
H783 H 0.6191 0.61386 0.94091 0.0
H784 H 0.67202 0.66312 0.94573 0.0
H785 H 0.82903 0.66576 0.95283 0.0
H786 H 0.88746 0.61786 0.95296 0.0
H787 H 0.88134 0.48494 0.96369 0.0
H788 H 0.81955 0.44362 0.96841 0.0
H789 H 0.67746 0.4325 0.95316 0.0
H790 H 0.63138 0.47193 0.9416 0.0
H791 H 0.76598 0.4762 0.9219 0.0
H792 H 0.7733 0.58638 0.91756 0.0
H793 H 0.64257 0.57888 0.97809 0.0
H794 H 0.76585 0.59916 0.98785 0.0
C795 C 0.46297 0.24256 0.21484 0.0
C796 C 0.49466 0.24418 0.22163 0.0
C797 C 0.52663 0.26081 0.217 0.0
C798 C 0.51303 0.2683 0.2076 0.0
N799 N 0.47458 0.25737 0.20609 0.0
Co800 Co 0.44478 0.25983 0.19327 0.0
N801 N 0.49541 0.26703 0.18539 0.0
C802 C 0.53111 0.27817 0.18919 0.0
C803 C 0.56037 0.28339 0.18206 0.0
C804 C 0.54173 0.27551 0.17322 0.0
C805 C 0.50196 0.26563 0.17542 0.0
N806 N 0.41405 0.26086 0.18056 0.0
C807 C 0.42721 0.25676 0.17109 0.0
C808 C 0.39415 0.25545 0.16462 0.0
C809 C 0.35974 0.2611 0.17014 0.0
C810 C 0.37328 0.2646 0.17968 0.0
N811 N 0.394 0.25363 0.20113 0.0
C812 C 0.35599 0.26148 0.1981 0.0
C813 C 0.32678 0.25497 0.20516 0.0
C814 C 0.34771 0.24196 0.21311 0.0
C815 C 0.38862 0.241 0.21041 0.0
N816 N 0.44046 0.31101 0.19448 0.0
C817 C 0.45491 0.38316 0.19624 0.0
C818 C 0.45244 0.36705 0.18696 0.0
C819 C 0.44546 0.33131 0.18625 0.0
C820 C 0.44727 0.3625 0.20462 0.0
C821 C 0.43938 0.32679 0.20357 0.0
N822 N 0.45154 0.20944 0.19208 0.0
C823 C 0.42584 0.15115 0.1903 0.0
C824 C 0.46539 0.13748 0.19165 0.0
C825 C 0.49754 0.16088 0.1929 0.0
C826 C 0.49002 0.19621 0.19319 0.0
C827 C 0.41958 0.18725 0.19052 0.0
H828 H 0.51578 0.21277 0.19448 0.0
H829 H 0.389 0.19719 0.18958 0.0
H830 H 0.44649 0.32 0.17897 0.0
H831 H 0.43432 0.3117 0.21018 0.0
C832 C 0.53724 0.27885 0.19953 0.0
C833 C 0.4215 0.2286 0.2169 0.0
C834 C 0.47037 0.25845 0.16783 0.0
C835 C 0.34823 0.26658 0.18805 0.0
H836 H 0.495 0.23413 0.2291 0.0
H837 H 0.55692 0.26515 0.21997 0.0
H838 H 0.59176 0.29136 0.18314 0.0
H839 H 0.55565 0.27747 0.16598 0.0
H840 H 0.3946 0.25141 0.1567 0.0
H841 H 0.32847 0.26148 0.16753 0.0
H842 H 0.29397 0.25727 0.2044 0.0
H843 H 0.33431 0.23357 0.22003 0.0
H844 H 0.45804 0.38164 0.18025 0.0
H845 H 0.44796 0.37375 0.21196 0.0
H846 H 0.39986 0.13418 0.1893 0.0
H847 H 0.52878 0.15207 0.19368 0.0
C848 C 0.9251 0.96722 0.30221 0.0
C849 C 0.89609 0.9829 0.30843 0.0
C850 C 0.96683 0.97702 0.30245 0.0
C851 C 0.98021 1.00367 0.30894 0.0
C852 C 0.95099 0.01929 0.31529 0.0
C853 C 0.90957 1.00884 0.31494 0.0
C854 C 0.99647 0.95943 0.29554 0.0
C855 C 0.96326 0.04781 0.32231 0.0
C856 C 0.09508 0.01039 0.31491 0.0
C857 C 0.10855 0.03635 0.30841 0.0
C858 C 0.05366 0.99994 0.31527 0.0
C859 C 0.02442 0.01561 0.30894 0.0
C860 C 0.0378 0.04228 0.30246 0.0
C861 C 0.07952 0.05207 0.30221 0.0
C862 C 0.0414 0.97139 0.32228 0.0
C863 C 0.00813 0.05992 0.29557 0.0
H864 H 0.91493 0.94806 0.29691 0.0
H865 H 0.88729 0.02163 0.31962 0.0
H866 H 0.00884 0.97852 0.29019 0.0
H867 H 0.02273 0.94894 0.29978 0.0
H868 H 0.98199 0.938 0.29134 0.0
H869 H 0.93741 0.05654 0.32702 0.0
H870 H 0.98847 0.03894 0.32718 0.0
H871 H 0.97485 0.07026 0.31804 0.0
H872 H 0.11737 0.99756 0.31957 0.0
H873 H 0.08969 0.07125 0.29691 0.0
H874 H 0.02981 0.94896 0.318 0.0
H875 H 0.0162 0.98024 0.32716 0.0
H876 H 0.06725 0.96264 0.32698 0.0
H877 H 0.99575 0.04087 0.29021 0.0
H878 H 0.0226 0.08138 0.29137 0.0
H879 H 0.98188 0.07038 0.29982 0.0
C880 C 1.00193 0.58695 0.57019 0.0
C881 C 0.97041 0.59944 0.56405 0.0
C882 C 0.01503 0.55219 0.56983 0.0
C883 C 0.99642 0.52866 0.56316 0.0
C884 C 0.96505 0.54111 0.55681 0.0
C885 C 0.95259 0.57616 0.55731 0.0
C886 C 0.0487 0.54056 0.5767 0.0
C887 C 0.94408 0.51719 0.54961 0.0
C888 C 0.05329 0.4436 0.55745 0.0
C889 C 0.03474 0.42012 0.56401 0.0
C890 C 0.04088 0.47867 0.55697 0.0
C891 C 0.00879 0.4909 0.56314 0.0
C892 C 0.98944 0.46715 0.56962 0.0
C893 C 0.00254 0.43239 0.56998 0.0
C894 C 0.06268 0.50284 0.54998 0.0
C895 C 0.95497 0.47854 0.5763 0.0
H896 H 0.01681 0.60455 0.57528 0.0
H897 H 0.92815 0.58512 0.55255 0.0
H898 H 0.03701 0.52024 0.58176 0.0
H899 H 0.07408 0.52901 0.57237 0.0
H900 H 0.06106 0.56212 0.58123 0.0
H901 H 0.92143 0.5309 0.54491 0.0
H902 H 0.967 0.50465 0.54474 0.0
H903 H 0.92814 0.49633 0.55372 0.0
H904 H 0.07825 0.43479 0.55282 0.0
H905 H 0.98716 0.41462 0.57494 0.0
H906 H 0.07812 0.52356 0.55426 0.0
H907 H 0.04034 0.51555 0.54499 0.0
H908 H 0.08588 0.48929 0.5454 0.0
H909 H 0.96607 0.49865 0.5815 0.0
H910 H 0.94206 0.45681 0.58067 0.0
H911 H 0.93012 0.49027 0.57184 0.0
C912 C 0.59493 0.51557 0.81618 0.0
C913 C 0.60477 0.54146 0.8093 0.0
C914 C 0.55504 0.50212 0.81692 0.0
C915 C 0.52381 0.515 0.81066 0.0
C916 C 0.53315 0.54239 0.80402 0.0
C917 C 0.57357 0.55499 0.80334 0.0
C918 C 0.54689 0.47281 0.82402 0.0
C919 C 0.50081 0.55734 0.79732 0.0
C920 C 0.4312 0.45965 0.80354 0.0
C921 C 0.40053 0.47332 0.80964 0.0
C922 C 0.47181 0.47189 0.80411 0.0
C923 C 0.48187 0.49902 0.81077 0.0
C924 C 0.45125 0.51184 0.81721 0.0
C925 C 0.41116 0.49877 0.81659 0.0
C926 C 0.5035 0.45699 0.79721 0.0
C927 C 0.46016 0.54089 0.82435 0.0
H928 H 0.61918 0.50447 0.82064 0.0
H929 H 0.58116 0.57407 0.79776 0.0
H930 H 0.52024 0.47888 0.82878 0.0
H931 H 0.53924 0.44909 0.81978 0.0
H932 H 0.57363 0.46724 0.82882 0.0
H933 H 0.5119 0.58044 0.79324 0.0
H934 H 0.49113 0.53756 0.79185 0.0
H935 H 0.47339 0.56465 0.80167 0.0
H936 H 0.42299 0.44088 0.79793 0.0
H937 H 0.38731 0.51 0.82115 0.0
H938 H 0.53137 0.4497 0.80139 0.0
H939 H 0.51257 0.47678 0.79169 0.0
H940 H 0.49202 0.43388 0.79319 0.0
H941 H 0.48739 0.53471 0.82891 0.0
H942 H 0.43398 0.54621 0.82936 0.0
H943 H 0.46722 0.56479 0.82014 0.0
C944 C 0.50078 0.08707 0.06989 0.0
C945 C 0.46877 0.09941 0.06388 0.0
C946 C 0.51393 0.05231 0.06952 0.0
C947 C 0.49483 0.02861 0.06297 0.0
C948 C 0.46292 0.04092 0.05676 0.0
C949 C 0.45046 0.07598 0.05726 0.0
C950 C 0.5482 0.04086 0.07624 0.0
C951 C 0.44138 0.01683 0.0497 0.0
C952 C 0.55128 0.94344 0.05711 0.0
C953 C 0.53331 0.92005 0.0638 0.0
C954 C 0.53881 0.9785 0.05665 0.0
C955 C 0.50726 0.99085 0.06296 0.0
C956 C 0.48849 0.96719 0.06957 0.0
C957 C 0.50163 0.93243 0.06991 0.0
C958 C 0.56 1.00255 0.04951 0.0
C959 C 0.45461 0.9787 0.07641 0.0
H960 H 0.51601 0.10477 0.07489 0.0
H961 H 0.42564 0.08483 0.05259 0.0
H962 H 0.53696 0.02066 0.0814 0.0
H963 H 0.57321 0.02922 0.07181 0.0
H964 H 0.56093 0.06253 0.08066 0.0
H965 H 0.41829 0.03042 0.0451 0.0
H966 H 0.4639 1.00423 0.04474 0.0
H967 H 0.42585 0.99603 0.05393 0.0
H968 H 0.57585 0.93456 0.05238 0.0
H969 H 0.48667 0.91476 0.07497 0.0
H970 H 0.57576 0.02337 0.05368 0.0
H971 H 0.53722 0.01514 0.04462 0.0
H972 H 0.58283 0.98893 0.04484 0.0
H973 H 0.46613 0.99893 0.08152 0.0
H974 H 0.44212 0.95705 0.08089 0.0
H975 H 0.42936 0.99031 0.07205 0.0
C976 C 0.07311 0.45923 0.95711 0.0
C977 C 0.10374 0.47292 0.95101 0.0
C978 C 0.0325 0.47145 0.95656 0.0
C979 C 0.02239 0.49858 0.94991 0.0
C980 C 0.05298 0.51143 0.94346 0.0
C981 C 0.09307 0.49837 0.94406 0.0
C982 C 1.00085 0.45653 0.96347 0.0
C983 C 0.04402 0.54048 0.93633 0.0
C984 C 0.90931 0.51516 0.94455 0.0
C985 C 0.89955 0.54106 0.95143 0.0
C986 C 0.94918 0.5017 0.9438 0.0
C987 C 0.98047 0.51457 0.95004 0.0
C988 C 0.9712 0.54194 0.95668 0.0
C989 C 0.9308 0.55456 0.95739 0.0
C990 C 0.95725 0.47239 0.93669 0.0
C991 C 0.00361 0.55688 0.96338 0.0
H992 H 0.08135 0.44045 0.96272 0.0
H993 H 0.1169 0.50962 0.9395 0.0
H994 H 0.99183 0.47631 0.969 0.0
H995 H 0.97294 0.44925 0.9593 0.0
H996 H 0.01234 0.43341 0.96748 0.0
H997 H 0.07017 0.5458 0.9313 0.0
H998 H 0.01676 0.5343 0.93178 0.0
H999 H 0.03702 0.56437 0.94054 0.0
H1000 H 0.88502 0.50408 0.9401 0.0
H1001 H 0.92327 0.57365 0.96297 0.0
H1002 H 0.96493 0.44867 0.94092 0.0
H1003 H 0.98386 0.47847 0.93191 0.0
H1004 H 0.93047 0.46682 0.93189 0.0
H1005 H 0.01332 0.53709 0.96884 0.0
H1006 H 0.99256 0.57998 0.96747 0.0
H1007 H 0.031 0.56421 0.95901 0.0
C1008 C 0.49752 0.43128 0.20381 0.0
C1009 C 0.46717 0.42071 0.19708 0.0
C1010 C 0.51167 0.46587 0.20411 0.0
C1011 C 0.49466 0.4911 0.19767 0.0
C1012 C 0.46323 0.48073 0.19106 0.0
C1013 C 0.45029 0.44584 0.19077 0.0
C1014 C 0.54572 0.4752 0.21115 0.0
C1015 C 0.44338 0.50651 0.1842 0.0
C1016 C 0.50746 0.58782 0.20384 0.0
C1017 C 0.53776 0.59844 0.19711 0.0
C1018 C 0.49331 0.55324 0.20413 0.0
C1019 C 0.51026 0.52804 0.19768 0.0
C1020 C 0.54164 0.53845 0.19105 0.0
C1021 C 0.55459 0.57334 0.19077 0.0
C1022 C 0.45933 0.54386 0.21119 0.0
C1023 C 0.56144 0.51271 0.18416 0.0
H1024 H 0.51126 0.41217 0.20863 0.0
H1025 H 0.42668 0.4382 0.18558 0.0
H1026 H 0.5725 0.48471 0.2069 0.0
H1027 H 0.53587 0.49646 0.21611 0.0
H1028 H 0.55546 0.45291 0.21576 0.0
H1029 H 0.41793 0.49495 0.17988 0.0
H1030 H 0.43134 0.5287 0.18851 0.0
H1031 H 0.46639 0.51687 0.17894 0.0
H1032 H 0.49375 0.60691 0.20869 0.0
H1033 H 0.57816 0.581 0.18558 0.0
H1034 H 0.46921 0.52257 0.21614 0.0
H1035 H 0.4325 0.53439 0.20696 0.0
H1036 H 0.44963 0.56613 0.21582 0.0
H1037 H 0.57351 0.49049 0.18845 0.0
H1038 H 0.58685 0.52429 0.17983 0.0
H1039 H 0.53838 0.50239 0.17892 0.0
C1040 C 0.41029 0.01046 0.44573 0.0
C1041 C 0.39682 0.03641 0.45223 0.0
C1042 C 0.45169 0.99998 0.44538 0.0
C1043 C 0.48091 0.01561 0.45173 0.0
C1044 C 0.46754 0.04227 0.45822 0.0
C1045 C 0.42583 0.05209 0.45845 0.0
C1046 C 0.46395 0.97144 0.43837 0.0
C1047 C 0.49719 0.05986 0.46513 0.0
C1048 C 0.58015 0.9672 0.45848 0.0
C1049 C 0.60921 0.98291 0.45228 0.0
C1050 C 0.53843 0.97699 0.45823 0.0
C1051 C 0.5251 1.00365 0.45174 0.0
C1052 C 0.55437 0.0193 0.4454 0.0
C1053 C 0.59578 1.00885 0.44577 0.0
C1054 C 0.50873 0.95937 0.46512 0.0
C1055 C 0.54216 0.04784 0.43839 0.0
H1056 H 0.38801 0.99767 0.44105 0.0
H1057 H 0.41566 0.07126 0.46375 0.0
H1058 H 0.48918 0.9803 0.4335 0.0
H1059 H 0.4755 0.949 0.44265 0.0
H1060 H 0.4381 0.96271 0.43366 0.0
H1061 H 0.48272 0.0813 0.46933 0.0
H1062 H 0.50952 0.04078 0.47048 0.0
H1063 H 0.52347 0.07033 0.46089 0.0
H1064 H 0.59027 0.94803 0.46378 0.0
H1065 H 0.61809 0.02167 0.4411 0.0
H1066 H 0.48247 0.94892 0.46087 0.0
H1067 H 0.49636 0.97843 0.47047 0.0
H1068 H 0.52316 0.93791 0.46931 0.0
H1069 H 0.51697 0.03899 0.43351 0.0
H1070 H 0.56804 0.05658 0.43369 0.0
H1071 H 0.53058 0.07029 0.44267 0.0
C1072 C 0.00397 0.08736 0.69074 0.0
C1073 C 0.03595 0.09979 0.69675 0.0
C1074 C 0.99084 0.0526 0.69113 0.0
C1075 C 0.00993 0.02899 0.6977 0.0
C1076 C 0.04179 0.04139 0.70391 0.0
C1077 C 0.05424 0.07645 0.7034 0.0
C1078 C 0.95663 0.04105 0.68441 0.0
C1079 C 0.0633 0.01739 0.711 0.0
C1080 C 0.95345 0.94384 0.7036 0.0
C1081 C 0.97146 0.92041 0.69693 0.0
C1082 C 0.96591 0.97891 0.70404 0.0
C1083 C 0.99751 0.99122 0.69774 0.0
C1084 C 0.01633 0.96752 0.69115 0.0
C1085 C 0.00319 0.93275 0.69083 0.0
C1086 C 0.94468 1.00301 0.71116 0.0
C1087 C 0.05027 0.97898 0.68432 0.0
H1088 H 0.98876 0.10501 0.68572 0.0
H1089 H 0.07903 0.08537 0.70806 0.0
H1090 H 0.96791 0.0208 0.67927 0.0
H1091 H 0.93159 0.02944 0.68884 0.0
H1092 H 0.94392 0.06266 0.67996 0.0
H1093 H 0.08635 0.03104 0.7156 0.0
H1094 H 0.04075 1.00482 0.71597 0.0
H1095 H 0.07887 0.99656 0.7068 0.0
H1096 H 0.92884 0.93499 0.70833 0.0
H1097 H 0.01819 0.91504 0.68579 0.0
H1098 H 0.92892 0.02377 0.70697 0.0
H1099 H 0.96742 0.01568 0.71605 0.0
H1100 H 0.92184 0.98942 0.71583 0.0
H1101 H 0.03877 0.99914 0.67919 0.0
H1102 H 0.06281 0.9573 0.67987 0.0
H1103 H 0.07548 0.99066 0.68868 0.0
C1104 C 0.57286 0.96409 0.31715 0.0
C1105 C 0.60462 0.97894 0.32265 0.0
C1106 C 0.53214 0.97469 0.3185 0.0
C1107 C 0.52303 1.00124 0.3254 0.0
C1108 C 0.55471 0.01461 0.33144 0.0
C1109 C 0.59515 1.00321 0.33001 0.0
C1110 C 0.49933 0.95926 0.312 0.0
C1111 C 0.54654 0.04295 0.33885 0.0
C1112 C 0.43183 0.05469 0.31711 0.0
C1113 C 0.39996 0.03985 0.32257 0.0
C1114 C 0.47251 0.04405 0.31849 0.0
C1115 C 0.48148 0.01745 0.32538 0.0
C1116 C 0.44968 1.00407 0.33139 0.0
C1117 C 0.40928 0.01552 0.32993 0.0
C1118 C 0.50546 0.05949 0.31203 0.0
C1119 C 0.45769 0.97568 0.33879 0.0
H1120 H 0.5802 0.94594 0.3113 0.0
H1121 H 0.61984 0.01517 0.33413 0.0
H1122 H 0.47258 0.95143 0.31653 0.0
H1123 H 0.48864 0.97894 0.30662 0.0
H1124 H 0.51047 0.9364 0.30782 0.0
H1125 H 0.5726 0.04661 0.34402 0.0
H1126 H 0.54127 0.06761 0.33486 0.0
H1127 H 0.51861 0.03729 0.34322 0.0
H1128 H 0.42461 0.07288 0.31126 0.0
H1129 H 0.38451 1.00356 0.33402 0.0
H1130 H 0.51627 0.03982 0.30665 0.0
H1131 H 0.5321 0.06733 0.31658 0.0
H1132 H 0.4944 0.08235 0.30784 0.0
H1133 H 0.46303 0.95105 0.33479 0.0
H1134 H 0.43153 0.972 0.34393 0.0
H1135 H 0.48554 0.9813 0.34319 0.0
C1136 C 0.00506 0.93295 0.56222 0.0
C1137 C 0.9746 0.92005 0.56859 0.0
C1138 C 0.01697 0.96781 0.56241 0.0
C1139 C 0.99725 0.99103 0.56894 0.0
C1140 C 0.96554 0.97862 0.57517 0.0
C1141 C 0.95477 0.94329 0.57497 0.0
C1142 C 0.05096 0.97973 0.55565 0.0
C1143 C 0.94311 1.00267 0.58208 0.0
C1144 C 0.05045 0.07652 0.57512 0.0
C1145 C 0.0315 0.09946 0.56851 0.0
C1146 C 0.03966 0.0412 0.57537 0.0
C1147 C 0.00889 0.02849 0.56892 0.0
C1148 C 0.99012 0.05141 0.56215 0.0
C1149 C 1.00198 0.08628 0.56194 0.0
C1150 C 0.06105 0.01748 0.58256 0.0
C1151 C 0.95718 0.03915 0.55514 0.0
H1152 H 0.01992 0.91565 0.55704 0.0
H1153 H 0.93141 0.93378 0.57996 0.0
H1154 H 0.03926 0.99943 0.55041 0.0
H1155 H 0.07557 0.9921 0.56006 0.0
H1156 H 0.06443 0.95815 0.55132 0.0
H1157 H 0.91882 0.98921 0.58635 0.0
H1158 H 0.96494 0.01452 0.58737 0.0
H1159 H 0.92897 0.02403 0.5778 0.0
H1160 H 0.07307 0.08628 0.58027 0.0
H1161 H 0.98781 0.10338 0.55659 0.0
H1162 H 0.07582 0.99593 0.57849 0.0
H1163 H 0.03845 1.00588 0.5877 0.0
H1164 H 0.08469 0.03115 0.58698 0.0
H1165 H 0.96965 0.01916 0.55009 0.0
H1166 H 0.94444 0.06051 0.55059 0.0
H1167 H 0.93189 0.02704 0.55937 0.0
C1168 C 0.08989 0.50199 0.80752 0.0
C1169 C 0.10553 0.48233 0.81537 0.0
C1170 C 0.05069 0.51607 0.80794 0.0
C1171 C 0.02383 0.50572 0.81562 0.0
C1172 C 0.03791 0.48201 0.82292 0.0
C1173 C 0.07926 0.47202 0.82298 0.0
C1174 C 0.03958 0.54288 0.80025 0.0
C1175 C 0.01021 0.46735 0.8308 0.0
C1176 C 0.92535 0.5508 0.82356 0.0
C1177 C 0.89887 0.541 0.81594 0.0
C1178 C 0.96687 0.54135 0.82327 0.0
C1179 C 0.98098 0.51869 0.8157 0.0
C1180 C 0.95397 0.50906 0.80798 0.0
C1181 C 0.91452 0.52266 0.80782 0.0
C1182 C 0.99468 0.55529 0.83123 0.0
C1183 C 0.96512 0.48331 0.8 0.0
H1184 H 0.10976 0.50916 0.80142 0.0
H1185 H 0.09104 0.45654 0.82903 0.0
H1186 H 0.03327 0.52983 0.7931 0.0
H1187 H 0.01282 0.55885 0.80236 0.0
H1188 H 0.06585 0.56054 0.79896 0.0
H1189 H 0.01823 0.43996 0.83232 0.0
H1190 H 0.01486 0.48185 0.83779 0.0
H1191 H 0.97744 0.46856 0.82873 0.0
H1192 H 0.91357 0.56529 0.82981 0.0
H1193 H 0.89443 0.51584 0.80174 0.0
H1194 H 0.02743 0.55428 0.82912 0.0
H1195 H 0.99013 0.54017 0.83812 0.0
H1196 H 0.98664 0.58253 0.83296 0.0
H1197 H 0.97142 0.49733 0.793 0.0
H1198 H 0.93891 0.46579 0.79851 0.0
H1199 H 0.9919 0.46711 0.80192 0.0
C1200 C 0.50152 0.58618 0.062 0.0
C1201 C 0.5317 0.59926 0.06841 0.0
C1202 C 0.4898 0.55127 0.06221 0.0
C1203 C 0.50943 0.52822 0.06879 0.0
C1204 C 0.5409 0.54082 0.07506 0.0
C1205 C 0.5515 0.57618 0.07484 0.0
C1206 C 0.45605 0.53915 0.05541 0.0
C1207 C 0.56322 0.51695 0.08204 0.0
C1208 C 0.45595 0.44292 0.07503 0.0
C1209 C 0.47494 0.41985 0.06846 0.0
C1210 C 0.46686 0.47821 0.07525 0.0
C1211 C 0.49781 0.49076 0.06883 0.0
C1212 C 0.51671 0.46769 0.06211 0.0
C1213 C 0.50471 0.43285 0.06192 0.0
C1214 C 0.44532 0.50209 0.08238 0.0
C1215 C 0.54987 0.47977 0.05514 0.0
H1216 H 0.4867 0.60337 0.05678 0.0
H1217 H 0.57466 0.58586 0.07986 0.0
H1218 H 0.46792 0.51928 0.05024 0.0
H1219 H 0.43129 0.52691 0.0598 0.0
H1220 H 0.44274 0.5606 0.051 0.0
H1221 H 0.58743 0.53052 0.0863 0.0
H1222 H 0.5413 0.50523 0.08733 0.0
H1223 H 0.57745 0.49549 0.07782 0.0
H1224 H 0.43316 0.43331 0.08016 0.0
H1225 H 0.5189 0.41566 0.0566 0.0
H1226 H 0.4306 0.52353 0.07825 0.0
H1227 H 0.46781 0.51385 0.08752 0.0
H1228 H 0.42161 0.48852 0.0868 0.0
H1229 H 0.53754 0.49958 0.05001 0.0
H1230 H 0.56281 0.45829 0.05067 0.0
H1231 H 0.57499 0.49206 0.05939 0.0
C1232 C 0.42507 0.47196 0.93768 0.0
C1233 C 0.39877 0.48227 0.94528 0.0
C1234 C 0.46642 0.48197 0.93776 0.0
C1235 C 0.48048 0.50569 0.94506 0.0
C1236 C 0.45358 0.51604 0.95273 0.0
C1237 C 0.41438 0.50195 0.95314 0.0
C1238 C 0.49415 0.4673 0.92988 0.0
C1239 C 0.46467 0.54288 0.96041 0.0
C1240 C 0.58977 0.52261 0.95288 0.0
C1241 C 0.60548 0.54092 0.94477 0.0
C1242 C 0.5503 0.50903 0.95272 0.0
C1243 C 0.52334 0.51866 0.94499 0.0
C1244 C 0.53752 0.5413 0.93742 0.0
C1245 C 0.57905 0.55073 0.93714 0.0
C1246 C 0.53908 0.48329 0.9607 0.0
C1247 C 0.50976 0.55524 0.92945 0.0
H1248 H 0.41331 0.45647 0.93163 0.0
H1249 H 0.39449 0.50912 0.95923 0.0
H1250 H 0.48956 0.4818 0.92289 0.0
H1251 H 0.52691 0.46851 0.93197 0.0
H1252 H 0.48611 0.43991 0.92836 0.0
H1253 H 0.47093 0.52984 0.96757 0.0
H1254 H 0.49145 0.55884 0.95831 0.0
H1255 H 0.43841 0.56053 0.9617 0.0
H1256 H 0.60982 0.51578 0.95897 0.0
H1257 H 0.59088 0.5652 0.9309 0.0
H1258 H 0.51229 0.46709 0.95876 0.0
H1259 H 0.53274 0.49733 0.96769 0.0
H1260 H 0.56526 0.46577 0.9622 0.0
H1261 H 0.51434 0.54012 0.92256 0.0
H1262 H 0.51784 0.58248 0.92772 0.0
H1263 H 0.477 0.55424 0.93155 0.0
C1264 C 0.50025 0.9328 0.19835 0.0
C1265 C 0.5303 0.91972 0.1919 0.0
C1266 C 0.48853 0.96773 0.19815 0.0
C1267 C 0.50793 0.99079 0.19152 0.0
C1268 C 0.53917 0.97814 0.18519 0.0
C1269 C 0.54985 0.94279 0.18542 0.0
C1270 C 0.45511 0.97989 0.20504 0.0
C1271 C 0.56118 1.00197 0.17813 0.0
C1272 C 0.45455 0.07631 0.1854 0.0
C1273 C 0.47414 0.0994 0.19187 0.0
C1274 C 0.46519 0.04095 0.18519 0.0
C1275 C 0.49642 0.02831 0.19152 0.0
C1276 C 0.51584 0.05139 0.19814 0.0
C1277 C 0.50418 0.08633 0.19832 0.0
C1278 C 0.44314 0.01709 0.17815 0.0
C1279 C 0.54925 0.03924 0.20503 0.0
H1280 H 0.48558 0.91561 0.20359 0.0
H1281 H 0.57289 0.93312 0.18037 0.0
H1282 H 0.46726 0.99977 0.21018 0.0
H1283 H 0.43017 0.99213 0.20072 0.0
H1284 H 0.44197 0.95846 0.2095 0.0
H1285 H 0.58505 0.98834 0.17378 0.0
H1286 H 0.539 0.01379 0.17293 0.0
H1287 H 0.57578 0.02336 0.18231 0.0
H1288 H 0.43153 0.08597 0.18035 0.0
H1289 H 0.51887 0.10354 0.20355 0.0
H1290 H 0.42856 0.99571 0.18233 0.0
H1291 H 0.4653 1.00525 0.17294 0.0
H1292 H 0.41925 0.03071 0.1738 0.0
H1293 H 0.5371 0.01938 0.21016 0.0
H1294 H 0.56239 0.06068 0.20948 0.0
H1295 H 0.57419 0.02699 0.20071 0.0
C1296 C 0.91001 1.00377 0.43079 0.0
C1297 C 0.90066 0.97945 0.43815 0.0
C1298 C 0.95042 0.01526 0.42933 0.0
C1299 C 0.98219 1.00193 0.43535 0.0
C1300 C 0.9732 0.97535 0.44225 0.0
C1301 C 0.93252 0.96466 0.44362 0.0
C1302 C 0.95844 0.04363 0.42193 0.0
C1303 C 0.00612 0.95997 0.44872 0.0
C1304 C 0.09587 0.01625 0.43073 0.0
C1305 C 0.10531 0.04057 0.43809 0.0
C1306 C 0.05544 1.00481 0.4293 0.0
C1307 C 0.02373 0.01818 0.43533 0.0
C1308 C 0.03281 0.04478 0.44222 0.0
C1309 C 0.07351 0.05542 0.44357 0.0
C1310 C 0.04732 0.97643 0.4219 0.0
C1311 C 0.99996 0.0602 0.44871 0.0
H1312 H 0.88526 0.01569 0.42669 0.0
H1313 H 0.92527 0.94647 0.44947 0.0
H1314 H 0.96375 0.06828 0.42592 0.0
H1315 H 0.98631 0.03802 0.41753 0.0
H1316 H 0.9323 0.04727 0.41678 0.0
H1317 H 0.99505 0.93712 0.45292 0.0
H1318 H 0.03278 0.95212 0.44418 0.0
H1319 H 0.01691 0.97967 0.45409 0.0
H1320 H 0.12058 1.00429 0.42663 0.0
H1321 H 0.08083 0.07361 0.44942 0.0
H1322 H 0.01941 0.98204 0.41753 0.0
H1323 H 0.04205 0.95179 0.4259 0.0
H1324 H 0.07341 0.97277 0.41674 0.0
H1325 H 0.01107 0.08309 0.45288 0.0
H1326 H 0.98925 0.04054 0.4541 0.0
H1327 H 0.97323 0.068 0.44418 0.0
C1328 C 0.99917 0.43308 0.69863 0.0
C1329 C 0.02909 0.42017 0.69212 0.0
C1330 C 0.98718 0.46792 0.69846 0.0
C1331 C 0.00625 0.49108 0.6918 0.0
C1332 C 0.03735 0.47863 0.6854 0.0
C1333 C 0.04822 0.44334 0.68559 0.0
C1334 C 0.95386 0.4799 0.7054 0.0
C1335 C 0.05907 0.50261 0.67833 0.0
C1336 C 0.95285 0.57663 0.68582 0.0
C1337 C 0.97255 0.5996 0.6923 0.0
C1338 C 0.96339 0.54126 0.68557 0.0
C1339 C 0.99468 0.52855 0.69186 0.0
C1340 C 0.0142 0.55149 0.69851 0.0
C1341 C 0.00255 0.5864 0.69874 0.0
C1342 C 0.94119 0.51751 0.67853 0.0
C1343 C 0.04776 0.53924 0.70534 0.0
H1344 H 0.98486 0.41584 0.70392 0.0
H1345 H 0.07114 0.4338 0.68049 0.0
H1346 H 0.96609 0.4996 0.71057 0.0
H1347 H 0.92887 0.49229 0.70113 0.0
H1348 H 0.94076 0.45834 0.70981 0.0
H1349 H 0.08286 0.4891 0.67392 0.0
H1350 H 0.03671 0.51446 0.67318 0.0
H1351 H 0.07373 0.52397 0.68251 0.0
H1352 H 0.92983 0.5864 0.68078 0.0
H1353 H 0.01729 0.60352 0.70399 0.0
H1354 H 0.92685 0.49598 0.6827 0.0
H1355 H 0.96322 0.50586 0.67325 0.0
H1356 H 0.9171 0.53116 0.67426 0.0
H1357 H 0.03573 0.51929 0.71047 0.0
H1358 H 0.06098 0.56061 0.7098 0.0
H1359 H 0.07262 0.52707 0.70097 0.0
C1360 C 0.22384 0.99144 0.35869 0.0
C1361 C 0.24869 0.01503 0.35357 0.0
C1362 C 0.2252 0.98888 0.36916 0.0
C1363 C 0.25264 1.00988 0.37468 0.0
C1364 C 0.27897 0.03262 0.36946 0.0
C1365 C 0.27641 0.03512 0.35906 0.0
C1366 C 0.19608 0.96467 0.37434 0.0
C1367 C 0.30925 0.05514 0.37489 0.0
C1368 C 0.23035 0.03719 0.40143 0.0
C1369 C 0.25624 0.01568 0.407 0.0
C1370 C 0.22776 0.03457 0.39103 0.0
C1371 C 0.25212 0.01012 0.38589 0.0
C1372 C 0.27763 0.98769 0.39149 0.0
C1373 C 0.2791 0.9905 0.40195 0.0
C1374 C 0.19957 0.05871 0.38552 0.0
C1375 C 0.30458 0.96156 0.38639 0.0
H1376 H 0.20216 0.97597 0.35455 0.0
H1377 H 0.29603 0.0532 0.35518 0.0
H1378 H 0.21301 0.94749 0.37947 0.0
H1379 H 0.17418 0.97986 0.37885 0.0
H1380 H 0.17855 0.94846 0.36904 0.0
H1381 H 0.32986 0.06928 0.36976 0.0
H1382 H 0.29266 0.07432 0.37949 0.0
H1383 H 0.32814 0.03923 0.37996 0.0
H1384 H 0.21212 0.05644 0.40524 0.0
H1385 H 0.29933 0.97387 0.40615 0.0
H1386 H 0.17928 0.04381 0.38051 0.0
H1387 H 0.21781 0.07655 0.38084 0.0
H1388 H 0.18033 0.07437 0.3906 0.0
H1389 H 0.2862 0.94523 0.38132 0.0
H1390 H 0.32071 0.94455 0.39174 0.0
H1391 H 0.32771 0.97518 0.38182 0.0
C1392 C 0.96027 0.7339 0.6097 0.0
C1393 C 0.98017 0.75878 0.60384 0.0
C1394 C 0.96319 0.73421 0.62012 0.0
C1395 C 0.98919 0.75834 0.6249 0.0
C1396 C 0.01261 0.78128 0.61894 0.0
C1397 C 0.00712 0.78178 0.60853 0.0
C1398 C 0.93657 0.70985 0.62601 0.0
C1399 C 0.04284 0.80594 0.62354 0.0
C1400 C 0.96043 0.78578 0.65128 0.0
C1401 C 0.97997 0.76075 0.65715 0.0
C1402 C 0.96342 0.78542 0.64086 0.0
C1403 C 0.98916 0.76106 0.63609 0.0
C1404 C 0.01222 0.73792 0.64206 0.0
C1405 C 0.00665 0.7375 0.65247 0.0
C1406 C 0.93714 0.80998 0.63496 0.0
C1407 C 0.04214 0.71296 0.63748 0.0
H1408 H 0.94047 0.71521 0.60613 0.0
H1409 H 0.02334 0.80065 0.60409 0.0
H1410 H 0.95583 0.69227 0.63049 0.0
H1411 H 0.91714 0.72479 0.63122 0.0
H1412 H 0.91642 0.69394 0.62121 0.0
H1413 H 0.06551 0.81527 0.61803 0.0
H1414 H 0.02643 0.82872 0.62653 0.0
H1415 H 0.05938 0.79347 0.62976 0.0
H1416 H 0.94086 0.80467 0.65484 0.0
H1417 H 0.0226 0.7185 0.65692 0.0
H1418 H 0.91752 0.79518 0.62976 0.0
H1419 H 0.95664 0.82735 0.63046 0.0
H1420 H 0.9172 0.82611 0.63975 0.0
H1421 H 0.02546 0.69017 0.63458 0.0
H1422 H 0.06485 0.70369 0.64299 0.0
H1423 H 0.05866 0.72512 0.6312 0.0
C1424 C 0.2326 0.47053 0.85882 0.0
C1425 C 0.26047 0.49145 0.8536 0.0
C1426 C 0.22851 0.47247 0.8692 0.0
C1427 C 0.25306 0.49576 0.87472 0.0
C1428 C 0.28067 0.51754 0.8695 0.0
C1429 C 0.28383 0.51531 0.85905 0.0
C1430 C 0.1983 0.44896 0.87431 0.0
C1431 C 0.30778 0.54256 0.87499 0.0
C1432 C 0.22044 0.51519 0.9016 0.0
C1433 C 0.24383 0.49135 0.90704 0.0
C1434 C 0.22359 0.51746 0.89115 0.0
C1435 C 0.25123 0.49574 0.88593 0.0
C1436 C 0.2758 0.47246 0.89143 0.0
C1437 C 0.27172 0.47049 0.90182 0.0
C1438 C 0.19646 0.54246 0.88566 0.0
C1439 C 0.30604 0.44902 0.88632 0.0
H1440 H 0.21374 0.45243 0.85474 0.0
H1441 H 0.30556 0.53154 0.85517 0.0
H1442 H 0.2148 0.43074 0.87923 0.0
H1443 H 0.17734 0.46435 0.87903 0.0
H1444 H 0.17978 0.43373 0.86897 0.0
H1445 H 0.32604 0.55899 0.8699 0.0
H1446 H 0.28909 0.55952 0.87982 0.0
H1447 H 0.32902 0.52805 0.87986 0.0
H1448 H 0.19868 0.53138 0.90549 0.0
H1449 H 0.2906 0.4524 0.90589 0.0
H1450 H 0.17523 0.52794 0.88079 0.0
H1451 H 0.21513 0.55946 0.88084 0.0
H1452 H 0.17818 0.55885 0.89076 0.0
H1453 H 0.28956 0.43079 0.88139 0.0
H1454 H 0.32458 0.43379 0.89165 0.0
H1455 H 0.32698 0.46444 0.8816 0.0
C1456 C 0.54442 0.78527 0.10951 0.0
C1457 C 0.52482 0.7603 0.10363 0.0
C1458 C 0.54149 0.78482 0.11993 0.0
C1459 C 0.51576 0.76042 0.1247 0.0
C1460 C 0.49264 0.73734 0.11871 0.0
C1461 C 0.49814 0.73702 0.1083 0.0
C1462 C 0.56781 0.80933 0.12585 0.0
C1463 C 0.4627 0.71238 0.12329 0.0
C1464 C 0.54473 0.73298 0.15106 0.0
C1465 C 0.52487 0.7578 0.15695 0.0
C1466 C 0.54178 0.73341 0.14064 0.0
C1467 C 0.51578 0.75759 0.13588 0.0
C1468 C 0.49241 0.78048 0.14187 0.0
C1469 C 0.49793 0.78085 0.15227 0.0
C1470 C 0.56838 0.70913 0.13472 0.0
C1471 C 0.46221 0.80522 0.1373 0.0
H1472 H 0.56398 0.80419 0.10596 0.0
H1473 H 0.48214 0.71807 0.10384 0.0
H1474 H 0.54834 0.8267 0.13035 0.0
H1475 H 0.58741 0.79451 0.13104 0.0
H1476 H 0.58778 0.82547 0.12106 0.0
H1477 H 0.44014 0.70292 0.11777 0.0
H1478 H 0.47938 0.6897 0.12625 0.0
H1479 H 0.446 0.72463 0.12952 0.0
H1480 H 0.5645 0.71423 0.1546 0.0
H1481 H 0.48174 0.79968 0.15674 0.0
H1482 H 0.58785 0.72414 0.12953 0.0
H1483 H 0.54911 0.69163 0.1302 0.0
H1484 H 0.58849 0.69313 0.1395 0.0
H1485 H 0.47864 0.82813 0.1344 0.0
H1486 H 0.43943 0.81432 0.14282 0.0
H1487 H 0.4458 0.79292 0.13103 0.0
C1488 C 0.76557 0.50273 0.85804 0.0
C1489 C 0.73792 0.52625 0.85377 0.0
C1490 C 0.77117 0.50078 0.86842 0.0
C1491 C 0.74847 0.52269 0.87483 0.0
C1492 C 0.71966 0.54573 0.87057 0.0
C1493 C 0.71483 0.54726 0.86018 0.0
C1494 C 0.80236 0.47593 0.87253 0.0
C1495 C 0.69438 0.56941 0.877 0.0
C1496 C 0.73865 0.5027 0.90268 0.0
C1497 C 0.76642 0.52612 0.90696 0.0
C1498 C 0.73303 0.50081 0.8923 0.0
C1499 C 0.75585 0.52266 0.8859 0.0
C1500 C 0.78478 0.54559 0.89016 0.0
C1501 C 0.78961 0.54708 0.90055 0.0
C1502 C 0.70171 0.47606 0.88818 0.0
C1503 C 0.81018 0.56921 0.88374 0.0
H1504 H 0.78401 0.4866 0.85324 0.0
H1505 H 0.69295 0.56522 0.85707 0.0
H1506 H 0.8272 0.49057 0.87624 0.0
H1507 H 0.78811 0.45906 0.87821 0.0
H1508 H 0.81606 0.45938 0.86669 0.0
H1509 H 0.67196 0.58468 0.87265 0.0
H1510 H 0.6776 0.55415 0.88265 0.0
H1511 H 0.71471 0.58757 0.88102 0.0
H1512 H 0.72013 0.48661 0.90748 0.0
H1513 H 0.81158 0.56497 0.90368 0.0
H1514 H 0.71588 0.45917 0.8825 0.0
H1515 H 0.67696 0.49079 0.88448 0.0
H1516 H 0.68793 0.45954 0.89402 0.0
H1517 H 0.82688 0.55392 0.87809 0.0
H1518 H 0.83268 0.58439 0.8881 0.0
H1519 H 0.78995 0.58746 0.87973 0.0
C1520 C 0.50695 0.23806 0.15223 0.0
C1521 C 0.48005 0.26121 0.15688 0.0
C1522 C 0.51257 0.23838 0.14183 0.0
C1523 C 0.48936 0.26131 0.13582 0.0
C1524 C 0.4634 0.28558 0.14056 0.0
C1525 C 0.46034 0.28605 0.15098 0.0
C1526 C 0.54271 0.21353 0.13728 0.0
C1527 C 0.43699 0.30993 0.13462 0.0
C1528 C 0.50732 0.28178 0.10825 0.0
C1529 C 0.48045 0.25866 0.10357 0.0
C1530 C 0.5128 0.2814 0.11866 0.0
C1531 C 0.48948 0.25844 0.12464 0.0
C1532 C 0.46361 0.23416 0.11987 0.0
C1533 C 0.46067 0.23377 0.10945 0.0
C1534 C 0.54284 0.30626 0.12324 0.0
C1535 C 0.43709 0.20979 0.12578 0.0
H1536 H 0.52303 0.21922 0.15671 0.0
H1537 H 0.44061 0.30488 0.15451 0.0
H1538 H 0.52618 0.19081 0.13429 0.0
H1539 H 0.55945 0.22587 0.13106 0.0
H1540 H 0.5652 0.20415 0.14282 0.0
H1541 H 0.41692 0.32603 0.13939 0.0
H1542 H 0.4564 0.32734 0.13011 0.0
H1543 H 0.4175 0.29498 0.12943 0.0
H1544 H 0.52342 0.30068 0.10379 0.0
H1545 H 0.44087 0.21504 0.1059 0.0
H1546 H 0.55938 0.29398 0.12949 0.0
H1547 H 0.52625 0.32903 0.12618 0.0
H1548 H 0.56551 0.31558 0.11773 0.0
H1549 H 0.45639 0.19251 0.13035 0.0
H1550 H 0.41726 0.19356 0.12099 0.0
H1551 H 0.41734 0.22475 0.13091 0.0
C1552 C 0.72952 0.98299 0.35923 0.0
C1553 C 0.75618 1.00387 0.35367 0.0
C1554 C 0.72706 0.98558 0.36963 0.0
C1555 C 0.75238 1.0093 0.37478 0.0
C1556 C 0.7787 0.0311 0.3692 0.0
C1557 C 0.78 0.02838 0.35873 0.0
C1558 C 0.69798 0.96215 0.37513 0.0
C1559 C 0.8067 0.05641 0.3743 0.0
C1560 C 0.72523 0.02836 0.40203 0.0
C1561 C 0.74926 1.00405 0.40711 0.0
C1562 C 0.72651 0.03101 0.39157 0.0
C1563 C 0.75304 1.00935 0.38599 0.0
C1564 C 0.77856 0.98585 0.39116 0.0
C1565 C 0.77611 0.98332 0.40156 0.0
C1566 C 0.69829 0.05609 0.38645 0.0
C1567 C 0.80786 0.96258 0.38567 0.0
H1568 H 0.71061 0.96424 0.35541 0.0
H1569 H 0.80084 0.0445 0.35454 0.0
H1570 H 0.71555 0.94372 0.37976 0.0
H1571 H 0.67836 0.97753 0.38018 0.0
H1572 H 0.67804 0.94715 0.37005 0.0
H1573 H 0.82341 0.07306 0.36896 0.0
H1574 H 0.78902 0.07314 0.37941 0.0
H1575 H 0.82935 0.0421 0.37883 0.0
H1576 H 0.70423 0.04436 0.40622 0.0
H1577 H 0.79517 0.96472 0.4054 0.0
H1578 H 0.67575 0.04157 0.38193 0.0
H1579 H 0.71581 0.07288 0.38132 0.0
H1580 H 0.68145 0.07267 0.39178 0.0
H1581 H 0.79046 0.94398 0.38106 0.0
H1582 H 0.82794 0.94777 0.39077 0.0
H1583 H 0.82732 0.97805 0.38061 0.0
C1584 C 0.99669 0.28145 0.6523 0.0
C1585 C 0.02374 0.25855 0.657 0.0
C1586 C 0.99117 0.2809 0.6419 0.0
C1587 C 0.01462 0.25799 0.63594 0.0
C1588 C 0.04068 0.23391 0.64073 0.0
C1589 C 0.04366 0.23368 0.65114 0.0
C1590 C 0.96093 0.30552 0.6373 0.0
C1591 C 0.06734 0.2096 0.63483 0.0
C1592 C 0.99744 0.23716 0.60836 0.0
C1593 C 0.02421 0.2604 0.6037 0.0
C1594 C 0.99174 0.23759 0.61876 0.0
C1595 C 0.01474 0.26074 0.62475 0.0
C1596 C 0.04054 0.28511 0.62 0.0
C1597 C 0.04368 0.28544 0.60958 0.0
C1598 C 0.96176 0.21262 0.62332 0.0
C1599 C 0.06672 0.3097 0.62592 0.0
H1600 H 0.98049 0.30034 0.65674 0.0
H1601 H 0.0636 0.2151 0.65471 0.0
H1602 H 0.97732 0.32841 0.63436 0.0
H1603 H 0.94455 0.29311 0.63104 0.0
H1604 H 0.93813 0.31469 0.6428 0.0
H1605 H 0.08735 0.19359 0.63964 0.0
H1606 H 0.04814 0.19212 0.6303 0.0
H1607 H 0.08692 0.22459 0.62967 0.0
H1608 H 0.98155 0.21815 0.6039 0.0
H1609 H 0.06335 0.30429 0.60604 0.0
H1610 H 0.94506 0.22485 0.62956 0.0
H1611 H 0.97843 0.18992 0.62628 0.0
H1612 H 0.93922 0.20321 0.61779 0.0
H1613 H 0.04716 0.32702 0.63041 0.0
H1614 H 0.08668 0.32587 0.62115 0.0
H1615 H 0.08633 0.29492 0.63113 0.0
C1616 C 0.36148 0.10501 0.26382 0.0
C1617 C 0.32239 0.11321 0.2676 0.0
C1618 C 0.3791 0.12313 0.25577 0.0
C1619 C 0.35718 0.15003 0.25102 0.0
C1620 C 0.31728 0.15787 0.25454 0.0
C1621 C 0.3006 0.13969 0.26275 0.0
C1622 C 0.42164 0.11361 0.25242 0.0
C1623 C 0.29218 0.1858 0.24968 0.0
C1624 C 0.41472 0.21895 0.23559 0.0
C1625 C 0.41007 0.2068 0.22584 0.0
C1626 C 0.3985 0.20056 0.2438 0.0
C1627 C 0.3759 0.16955 0.24232 0.0
C1628 C 0.3713 0.1572 0.23248 0.0
C1629 C 0.38845 0.17573 0.22445 0.0
C1630 C 0.40491 0.21477 0.25408 0.0
C1631 C 0.34716 0.12479 0.23038 0.0
H1632 H 0.37871 0.08417 0.26716 0.0
H1633 H 0.27069 0.14689 0.26549 0.0
H1634 H 0.42099 0.10498 0.24459 0.0
H1635 H 0.44184 0.13662 0.25279 0.0
H1636 H 0.43526 0.09272 0.25699 0.0
H1637 H 0.26114 0.188 0.25295 0.0
H1638 H 0.3079 0.21106 0.25044 0.0
H1639 H 0.28912 0.18046 0.24164 0.0
H1640 H 0.4298 0.24351 0.23679 0.0
H1641 H 0.38386 0.16641 0.21696 0.0
H1642 H 0.41865 0.1947 0.25891 0.0
H1643 H 0.37504 0.22197 0.25737 0.0
H1644 H 0.42505 0.23789 0.2541 0.0
H1645 H 0.36037 0.10264 0.23449 0.0
H1646 H 0.34658 0.11831 0.22237 0.0
H1647 H 0.31525 0.12808 0.233 0.0
C1648 C 0.80076 0.87953 0.49795 0.0
C1649 C 0.8227 0.90594 0.4931 0.0
C1650 C 0.81732 0.8613 0.50615 0.0
C1651 C 0.85726 0.86901 0.50968 0.0
C1652 C 0.87933 0.89584 0.50492 0.0
C1653 C 0.86182 0.91402 0.49688 0.0
C1654 C 0.79206 0.83345 0.51102 0.0
C1655 C 0.92192 0.90522 0.50828 0.0
C1656 C 0.88835 0.84321 0.53624 0.0
C1657 C 0.9098 0.81206 0.53485 0.0
C1658 C 0.8713 0.86179 0.52821 0.0
C1659 C 0.87585 0.84942 0.51837 0.0
C1660 C 0.89827 0.81833 0.5169 0.0
C1661 C 0.91436 0.79989 0.52511 0.0
C1662 C 0.84735 0.89429 0.53031 0.0
C1663 C 0.90462 0.8041 0.50662 0.0
H1664 H 0.77083 0.87242 0.4952 0.0
H1665 H 0.87917 0.93481 0.49354 0.0
H1666 H 0.80765 0.80814 0.51025 0.0
H1667 H 0.78903 0.83879 0.51905 0.0
H1668 H 0.76102 0.83136 0.50774 0.0
H1669 H 0.93567 0.92606 0.5037 0.0
H1670 H 0.9213 0.91386 0.5161 0.0
H1671 H 0.94199 0.88213 0.50791 0.0
H1672 H 0.88382 0.85256 0.54373 0.0
H1673 H 0.92929 0.77527 0.5239 0.0
H1674 H 0.81543 0.89112 0.52769 0.0
H1675 H 0.86071 0.9164 0.52621 0.0
H1676 H 0.84678 0.90076 0.53833 0.0
H1677 H 0.87471 0.797 0.50333 0.0
H1678 H 0.92464 0.78091 0.50659 0.0
H1679 H 0.91847 0.82412 0.50178 0.0
C1680 C 0.09222 0.34589 0.72679 0.0
C1681 C 0.09531 0.30973 0.72638 0.0
C1682 C 0.10823 0.36501 0.73487 0.0
C1683 C 0.12861 0.34781 0.74277 0.0
C1684 C 0.13097 0.31112 0.74245 0.0
C1685 C 0.11422 0.29267 0.73434 0.0
C1686 C 0.10412 0.40383 0.73485 0.0
C1687 C 0.15248 0.29132 0.75053 0.0
C1688 C 0.20587 0.39901 0.7588 0.0
C1689 C 0.18367 0.40591 0.76753 0.0
C1690 C 0.18858 0.38024 0.75078 0.0
C1691 C 0.14763 0.36803 0.75129 0.0
C1692 C 0.12504 0.3749 0.76003 0.0
C1693 C 0.14322 0.39318 0.76798 0.0
C1694 C 0.21432 0.37341 0.74172 0.0
C1695 C 0.08137 0.3628 0.76102 0.0
H1696 H 0.07824 0.35936 0.72062 0.0
H1697 H 0.11736 0.2648 0.73402 0.0
H1698 H 0.08957 0.41266 0.74183 0.0
H1699 H 0.13485 0.41587 0.73448 0.0
H1700 H 0.08569 0.41329 0.7285 0.0
H1701 H 0.15095 0.26293 0.74937 0.0
H1702 H 0.18507 0.29919 0.75083 0.0
H1703 H 0.13876 0.29751 0.75783 0.0
H1704 H 0.23683 0.4086 0.75813 0.0
H1705 H 0.12549 0.39701 0.77466 0.0
H1706 H 0.19986 0.38535 0.73513 0.0
H1707 H 0.21614 0.34519 0.74032 0.0
H1708 H 0.24584 0.38376 0.74248 0.0
H1709 H 0.06278 0.37303 0.75481 0.0
H1710 H 0.06722 0.37114 0.76811 0.0
H1711 H 0.08009 0.3342 0.7606 0.0
C1712 C 0.6452 0.60194 0.99742 0.0
C1713 C 0.68391 0.61077 0.99352 0.0
C1714 C 0.62703 0.62046 1.00533 0.0
C1715 C 0.64806 0.64838 1.00985 0.0
C1716 C 0.68753 0.65695 1.00619 0.0
C1717 C 0.70466 0.63846 0.9981 0.0
C1718 C 0.58488 0.61024 1.0088 0.0
C1719 C 0.71178 0.68593 1.01081 0.0
C1720 C 0.58962 0.71762 0.02497 0.0
C1721 C 0.59498 0.70639 0.03479 0.0
C1722 C 0.60568 0.69871 1.01683 0.0
C1723 C 0.62901 0.66818 1.01845 0.0
C1724 C 0.63436 0.65677 0.02836 0.0
C1725 C 0.61721 0.67572 0.03632 0.0
C1726 C 0.59837 0.71189 1.00648 0.0
C1727 C 0.6594 0.625 0.03062 0.0
H1728 H 0.62869 0.58025 0.99432 0.0
H1729 H 0.73417 0.64632 0.99526 0.0
H1730 H 0.58604 0.60203 1.01666 0.0
H1731 H 0.56401 0.6328 1.00837 0.0
H1732 H 0.57173 0.58882 1.00434 0.0
H1733 H 0.74267 0.68859 1.00748 0.0
H1734 H 0.69521 0.71072 1.00988 0.0
H1735 H 0.71518 0.68141 1.01888 0.0
H1736 H 0.57412 0.7419 0.02363 0.0
H1737 H 0.62234 0.66708 0.04385 0.0
H1738 H 0.58536 0.69104 1.0018 0.0
H1739 H 0.62782 0.71976 1.00309 0.0
H1740 H 0.57726 0.73437 1.00635 0.0
H1741 H 0.64662 0.60227 0.02669 0.0
H1742 H 0.66046 0.61919 0.03867 0.0
H1743 H 0.69112 0.62869 0.02791 0.0
C1744 C 0.41195 0.34553 0.03384 0.0
C1745 C 0.40921 0.30934 0.03419 0.0
C1746 C 0.39591 0.36467 0.02576 0.0
C1747 C 0.37585 0.34744 1.01782 0.0
C1748 C 0.37384 0.31074 1.01809 0.0
C1749 C 0.39061 0.29227 0.02619 0.0
C1750 C 0.39965 0.40351 0.02585 0.0
C1751 C 0.35268 0.29091 1.00995 0.0
C1752 C 0.29843 0.39839 1.00179 0.0
C1753 C 0.32072 0.40559 0.99308 0.0
C1754 C 0.31574 0.37959 1.00979 0.0
C1755 C 0.3568 0.36767 1.00931 0.0
C1756 C 0.37949 0.37485 1.0006 0.0
C1757 C 0.36128 0.39313 0.99266 0.0
C1758 C 0.28989 0.37241 1.01881 0.0
C1759 C 0.42329 0.36309 0.99964 0.0
H1760 H 0.42567 0.359 0.04004 0.0
H1761 H 0.38772 0.26438 0.02647 0.0
H1762 H 0.41423 0.41257 1.0189 0.0
H1763 H 0.36879 0.41532 0.0262 0.0
H1764 H 0.41787 0.41301 0.03224 0.0
H1765 H 0.35447 0.26251 1.01107 0.0
H1766 H 0.32002 0.29854 1.00962 0.0
H1767 H 0.36647 0.29733 1.00268 0.0
H1768 H 0.26739 0.40777 1.00244 0.0
H1769 H 0.37909 0.39718 0.986 0.0
H1770 H 0.3041 0.38436 0.02543 0.0
H1771 H 0.28833 0.34416 1.02017 0.0
H1772 H 0.25829 0.38253 1.01803 0.0
H1773 H 0.44166 0.37333 1.00589 0.0
H1774 H 0.43749 0.37167 0.99258 0.0
H1775 H 0.42482 0.33448 1.00002 0.0
C1776 C 0.70404 0.87948 0.26281 0.0
C1777 C 0.68219 0.90588 0.26768 0.0
C1778 C 0.68736 0.86131 0.2546 0.0
C1779 C 0.6474 0.86907 0.2511 0.0
C1780 C 0.62543 0.89589 0.25589 0.0
C1781 C 0.64305 0.91401 0.26393 0.0
C1782 C 0.71252 0.83346 0.24971 0.0
C1783 C 0.58283 0.90533 0.25256 0.0
C1784 C 0.61606 0.84345 0.22454 0.0
C1785 C 0.59455 0.81233 0.22592 0.0
C1786 C 0.6332 0.86198 0.23257 0.0
C1787 C 0.6287 0.84956 0.24241 0.0
C1788 C 0.6062 0.81849 0.24388 0.0
C1789 C 0.58999 0.80012 0.23566 0.0
C1790 C 0.65721 0.89446 0.23048 0.0
C1791 C 0.5999 0.8042 0.25415 0.0
H1792 H 0.73399 0.87234 0.26553 0.0
H1793 H 0.62577 0.93479 0.26729 0.0
H1794 H 0.69688 0.80816 0.25047 0.0
H1795 H 0.71551 0.83886 0.24167 0.0
H1796 H 0.74358 0.83132 0.25297 0.0
H1797 H 0.56917 0.92615 0.25715 0.0
H1798 H 0.5834 0.91401 0.24474 0.0
H1799 H 0.56272 0.88226 0.25293 0.0
H1800 H 0.62058 0.85282 0.21705 0.0
H1801 H 0.57498 0.77552 0.23686 0.0
H1802 H 0.68915 0.89123 0.23307 0.0
H1803 H 0.64396 0.91655 0.23461 0.0
H1804 H 0.6577 0.901 0.22247 0.0
H1805 H 0.62982 0.79706 0.25742 0.0
H1806 H 0.57984 0.78103 0.25417 0.0
H1807 H 0.58612 0.8242 0.259 0.0
C1808 C 0.14445 0.10583 0.49681 0.0
C1809 C 0.1836 0.11382 0.49304 0.0
C1810 C 0.127 0.12404 0.50486 0.0
C1811 C 0.14916 0.15081 0.50963 0.0
C1812 C 0.18913 0.15842 0.5061 0.0
C1813 C 0.20564 0.14016 0.49789 0.0
C1814 C 0.08437 0.11477 0.50822 0.0
C1815 C 0.21449 0.18619 0.51097 0.0
C1816 C 0.09211 0.22 0.52504 0.0
C1817 C 0.09653 0.20779 0.53479 0.0
C1818 C 0.10828 0.20157 0.51684 0.0
C1819 C 0.13061 0.17044 0.51831 0.0
C1820 C 0.13505 0.15806 0.52816 0.0
C1821 C 0.11795 0.17663 0.53618 0.0
C1822 C 0.10206 0.21584 0.50656 0.0
C1823 C 0.15892 0.12552 0.53026 0.0
H1824 H 0.12703 0.0851 0.49348 0.0
H1825 H 0.23561 0.14719 0.49514 0.0
H1826 H 0.08495 0.10614 0.51605 0.0
H1827 H 0.06438 0.13791 0.50784 0.0
H1828 H 0.07057 0.09396 0.50364 0.0
H1829 H 0.24556 0.18819 0.5077 0.0
H1830 H 0.19902 0.21155 0.5102 0.0
H1831 H 0.21747 0.18084 0.51901 0.0
H1832 H 0.07722 0.24464 0.52384 0.0
H1833 H 0.12236 0.16725 0.54367 0.0
H1834 H 0.08812 0.19587 0.50172 0.0
H1835 H 0.13202 0.22282 0.50327 0.0
H1836 H 0.08217 0.2391 0.50653 0.0
H1837 H 0.14548 0.10342 0.52616 0.0
H1838 H 0.15949 0.11907 0.53827 0.0
H1839 H 0.19084 0.1286 0.52763 0.0
C1840 C 0.88708 0.67615 0.72444 0.0
C1841 C 0.90938 0.7068 0.72597 0.0
C1842 C 0.86992 0.6572 0.73239 0.0
C1843 C 0.87532 0.66857 0.7423 0.0
C1844 C 0.89869 0.69908 0.74392 0.0
C1845 C 0.91477 0.718 0.73579 0.0
C1846 C 0.84481 0.62545 0.73012 0.0
C1847 C 0.90605 0.71223 0.75428 0.0
C1848 C 0.7997 0.63882 0.76266 0.0
C1849 C 0.82042 0.6111 0.76722 0.0
C1850 C 0.81682 0.65733 0.75457 0.0
C1851 C 0.85627 0.64875 0.7509 0.0
C1852 C 0.87727 0.6208 0.75541 0.0
C1853 C 0.85911 0.60226 0.76332 0.0
C1854 C 0.7926 0.68634 0.74997 0.0
C1855 C 0.91939 0.61057 0.75192 0.0
H1856 H 0.88194 0.66753 0.7169 0.0
H1857 H 0.93031 0.74227 0.73713 0.0
H1858 H 0.85758 0.60269 0.73404 0.0
H1859 H 0.81311 0.62914 0.73285 0.0
H1860 H 0.8437 0.61968 0.72207 0.0
H1861 H 0.92719 0.73469 0.75441 0.0
H1862 H 0.87663 0.7201 0.75768 0.0
H1863 H 0.91905 0.69135 0.75895 0.0
H1864 H 0.77021 0.64669 0.7655 0.0
H1865 H 0.87559 0.58056 0.76641 0.0
H1866 H 0.78917 0.68185 0.74189 0.0
H1867 H 0.80921 0.71112 0.7509 0.0
H1868 H 0.76173 0.689 0.7533 0.0
H1869 H 0.91819 0.60239 0.74406 0.0
H1870 H 0.93253 0.58913 0.75637 0.0
H1871 H 0.9403 0.63311 0.75235 0.0
loop_
_geom_bond_atom_site_label_1
_geom_bond_atom_site_label_2
_geom_bond_distance
_geom_bond_site_symmetry_2
_ccdc_geom_bond_type
C0 C1 1.443 . S
C0 N4 1.376 . S
C0 C38 1.389 . S
C1 C0 1.443 . S
C1 C2 1.340 . S
C1 H41 0.951 . S
C2 C1 1.340 . S
C2 C3 1.439 . S
C2 H42 0.950 . S
C3 C2 1.439 . S
C3 N4 1.374 . S
C3 C37 1.395 . S
N4 C0 1.376 . S
N4 C3 1.374 . S
N4 Co5 2.008 . S
Co5 N4 2.008 . S
Co5 N6 1.995 . S
Co5 N11 2.008 . S
Co5 N16 1.995 . S
Co5 N21 2.282 . S
Co5 N27 2.282 . S
N6 Co5 1.995 . S
N6 C7 1.376 . S
N6 C10 1.383 . S
C7 N6 1.376 . S
C7 C8 1.446 . S
C7 C37 1.391 . S
C8 C7 1.446 . S
C8 C9 1.339 . S
C8 H43 0.949 . S
C9 C8 1.339 . S
C9 C10 1.439 . S
C9 H44 0.950 . S
C10 N6 1.383 . S
C10 C9 1.439 . S
C10 C39 1.392 . S
N11 Co5 2.008 . S
N11 C12 1.376 . S
N11 C15 1.374 1_545 S
C12 N11 1.376 . S
C12 C13 1.443 1_545 S
C12 C39 1.389 . S
C13 C12 1.443 1_565 S
C13 C14 1.340 . S
C13 H45 0.951 . S
C14 C13 1.340 . S
C14 C15 1.439 . S
C14 H46 0.950 . S
C15 N11 1.374 1_565 S
C15 C14 1.439 . S
C15 C40 1.395 . S
N16 Co5 1.995 . S
N16 C17 1.376 1_545 S
N16 C20 1.383 . S
C17 N16 1.376 1_565 S
C17 C18 1.446 . S
C17 C40 1.391 . S
C18 C17 1.446 . S
C18 C19 1.339 . S
C18 H47 0.949 . S
C19 C18 1.339 . S
C19 C20 1.439 1_565 S
C19 H48 0.950 . S
C20 N16 1.383 . S
C20 C19 1.439 1_545 S
C20 C38 1.392 . S
N21 Co5 2.282 . S
N21 C24 1.332 . S
N21 C26 1.332 . S
C22 C23 1.386 . S
C22 C25 1.388 . S
C23 C22 1.386 . S
C23 C24 1.382 . S
C23 H49 0.950 1_545 S
C24 N21 1.332 . S
C24 C23 1.382 . S
C24 H35 0.952 1_545 S
C25 C22 1.388 . S
C25 C26 1.382 . S
C25 H50 0.950 . S
C26 N21 1.332 . S
C26 C25 1.382 . S
C26 H36 0.948 . S
N27 Co5 2.282 . S
N27 C31 1.332 . S
N27 C32 1.332 . S
C28 C29 1.388 . S
C28 C32 1.382 . S
C28 H51 0.950 . S
C29 C28 1.388 . S
C29 C30 1.386 . S
C30 C29 1.386 . S
C30 C31 1.382 . S
C30 H52 0.950 . S
C31 N27 1.332 . S
C31 C30 1.382 . S
C31 H33 0.952 . S
C32 N27 1.332 . S
C32 C28 1.382 . S
C32 H34 0.948 . S
H33 C31 0.952 . S
H34 C32 0.948 . S
H35 C24 0.952 1_565 S
H36 C26 0.948 . S
C37 C3 1.395 . S
C37 C7 1.391 . S
C38 C0 1.389 . S
C38 C20 1.392 . S
C39 C10 1.392 . S
C39 C12 1.389 . S
C40 C15 1.395 . S
C40 C17 1.391 . S
H41 C1 0.951 . S
H42 C2 0.950 . S
H43 C8 0.949 . S
H44 C9 0.950 . S
H45 C13 0.951 . S
H46 C14 0.950 . S
H47 C18 0.949 . S
H48 C19 0.950 . S
H49 C23 0.950 1_565 S
H50 C25 0.950 . S
H51 C28 0.950 . S
H52 C30 0.950 . S
C53 C54 1.443 1_655 S
C53 N57 1.376 . S
C53 C91 1.389 . S
C54 C53 1.443 1_455 S
C54 C55 1.340 . S
C54 H94 0.951 . S
C55 C54 1.340 . S
C55 C56 1.439 . S
C55 H95 0.950 . S
C56 C55 1.439 . S
C56 N57 1.374 1_455 S
C56 C90 1.395 . S
N57 C53 1.376 . S
N57 C56 1.374 1_655 S
N57 Co58 2.008 . S
Co58 N57 2.008 . S
Co58 N59 1.995 1_655 S
Co58 N64 2.008 . S
Co58 N69 1.995 . S
Co58 N74 2.282 . S
Co58 N80 2.282 . S
N59 Co58 1.995 1_455 S
N59 C60 1.376 . S
N59 C63 1.383 . S
C60 N59 1.376 . S
C60 C61 1.446 . S
C60 C90 1.391 . S
C61 C60 1.446 . S
C61 C62 1.339 . S
C61 H96 0.949 . S
C62 C61 1.339 . S
C62 C63 1.439 . S
C62 H97 0.950 . S
C63 N59 1.383 . S
C63 C62 1.439 . S
C63 C92 1.392 1_455 S
N64 Co58 2.008 . S
N64 C65 1.376 . S
N64 C68 1.374 . S
C65 N64 1.376 . S
C65 C66 1.443 . S
C65 C92 1.389 . S
C66 C65 1.443 . S
C66 C67 1.340 . S
C66 H98 0.951 . S
C67 C66 1.340 . S
C67 C68 1.439 . S
C67 H99 0.950 . S
C68 N64 1.374 . S
C68 C67 1.439 . S
C68 C93 1.395 . S
N69 Co58 1.995 . S
N69 C70 1.376 . S
N69 C73 1.383 . S
C70 N69 1.376 . S
C70 C71 1.446 . S
C70 C93 1.391 . S
C71 C70 1.446 . S
C71 C72 1.339 . S
C71 H100 0.949 . S
C72 C71 1.339 . S
C72 C73 1.439 . S
C72 H101 0.950 . S
C73 N69 1.383 . S
C73 C72 1.439 . S
C73 C91 1.392 . S
N74 Co58 2.282 . S
N74 C77 1.332 . S
N74 C79 1.332 . S
C75 C76 1.386 . S
C75 C78 1.388 . S
C76 C75 1.386 . S
C76 C77 1.382 . S
C76 H102 0.950 . S
C77 N74 1.332 . S
C77 C76 1.382 . S
C77 H88 0.952 . S
C78 C75 1.388 . S
C78 C79 1.382 . S
C78 H103 0.950 1_655 S
C79 N74 1.332 . S
C79 C78 1.382 . S
C79 H89 0.948 1_655 S
N80 Co58 2.282 . S
N80 C84 1.332 . S
N80 C85 1.332 . S
C81 C82 1.388 . S
C81 C85 1.382 . S
C81 H104 0.950 . S
C82 C81 1.388 . S
C82 C83 1.386 . S
C83 C82 1.386 . S
C83 C84 1.382 . S
C83 H105 0.950 1_655 S
C84 N80 1.332 . S
C84 C83 1.382 . S
C84 H86 0.952 1_655 S
C85 N80 1.332 . S
C85 C81 1.382 . S
C85 H87 0.948 . S
H86 C84 0.952 1_455 S
H87 C85 0.948 . S
H88 C77 0.952 . S
H89 C79 0.948 1_455 S
C90 C56 1.395 . S
C90 C60 1.391 . S
C91 C53 1.389 . S
C91 C73 1.392 . S
C92 C63 1.392 1_655 S
C92 C65 1.389 . S
C93 C68 1.395 . S
C93 C70 1.391 . S
H94 C54 0.951 . S
H95 C55 0.950 . S
H96 C61 0.949 . S
H97 C62 0.950 . S
H98 C66 0.951 . S
H99 C67 0.950 . S
H100 C71 0.949 . S
H101 C72 0.950 . S
H102 C76 0.950 . S
H103 C78 0.950 1_455 S
H104 C81 0.950 . S
H105 C83 0.950 1_455 S
C106 C107 1.443 . S
C106 N110 1.376 . S
C106 C144 1.389 . S
C107 C106 1.443 . S
C107 C108 1.340 . S
C107 H147 0.951 . S
C108 C107 1.340 . S
C108 C109 1.439 . S
C108 H148 0.950 . S
C109 C108 1.439 . S
C109 N110 1.374 . S
C109 C143 1.395 . S
N110 C106 1.376 . S
N110 C109 1.374 . S
N110 Co111 2.008 . S
Co111 N110 2.008 . S
Co111 N112 1.995 . S
Co111 N117 2.008 . S
Co111 N122 1.995 . S
Co111 N127 2.282 . S
Co111 N133 2.282 . S
N112 Co111 1.995 . S
N112 C113 1.376 . S
N112 C116 1.383 . S
C113 N112 1.376 . S
C113 C114 1.446 . S
C113 C143 1.391 . S
C114 C113 1.446 . S
C114 C115 1.339 . S
C114 H149 0.949 . S
C115 C114 1.339 . S
C115 C116 1.439 . S
C115 H150 0.950 . S
C116 N112 1.383 . S
C116 C115 1.439 . S
C116 C145 1.392 . S
N117 Co111 2.008 . S
N117 C118 1.376 . S
N117 C121 1.374 . S
C118 N117 1.376 . S
C118 C119 1.443 . S
C118 C145 1.389 . S
C119 C118 1.443 . S
C119 C120 1.340 . S
C119 H151 0.951 . S
C120 C119 1.340 . S
C120 C121 1.439 . S
C120 H152 0.950 . S
C121 N117 1.374 . S
C121 C120 1.439 . S
C121 C146 1.395 . S
N122 Co111 1.995 . S
N122 C123 1.376 . S
N122 C126 1.383 . S
C123 N122 1.376 . S
C123 C124 1.446 . S
C123 C146 1.391 . S
C124 C123 1.446 . S
C124 C125 1.339 . S
C124 H153 0.949 . S
C125 C124 1.339 . S
C125 C126 1.439 . S
C125 H154 0.950 . S
C126 N122 1.383 . S
C126 C125 1.439 . S
C126 C144 1.392 . S
N127 Co111 2.282 . S
N127 C130 1.332 . S
N127 C132 1.332 . S
C128 C129 1.386 . S
C128 C131 1.388 . S
C129 C128 1.386 . S
C129 C130 1.382 . S
C129 H155 0.950 . S
C130 N127 1.332 . S
C130 C129 1.382 . S
C130 H141 0.952 . S
C131 C128 1.388 . S
C131 C132 1.382 . S
C131 H156 0.950 . S
C132 N127 1.332 . S
C132 C131 1.382 . S
C132 H142 0.948 . S
N133 Co111 2.282 . S
N133 C137 1.332 . S
N133 C138 1.332 . S
C134 C135 1.388 . S
C134 C138 1.382 . S
C134 H157 0.950 . S
C135 C134 1.388 . S
C135 C136 1.386 . S
C136 C135 1.386 . S
C136 C137 1.382 . S
C136 H158 0.950 . S
C137 N133 1.332 . S
C137 C136 1.382 . S
C137 H139 0.952 . S
C138 N133 1.332 . S
C138 C134 1.382 . S
C138 H140 0.948 . S
H139 C137 0.952 . S
H140 C138 0.948 . S
H141 C130 0.952 . S
H142 C132 0.948 . S
C143 C109 1.395 . S
C143 C113 1.391 . S
C144 C106 1.389 . S
C144 C126 1.392 . S
C145 C116 1.392 . S
C145 C118 1.389 . S
C146 C121 1.395 . S
C146 C123 1.391 . S
H147 C107 0.951 . S
H148 C108 0.950 . S
H149 C114 0.949 . S
H150 C115 0.950 . S
H151 C119 0.951 . S
H152 C120 0.950 . S
H153 C124 0.949 . S
H154 C125 0.950 . S
H155 C129 0.950 . S
H156 C131 0.950 . S
H157 C134 0.950 . S
H158 C136 0.950 . S
C159 C160 1.443 . S
C159 N163 1.376 . S
C159 C197 1.389 . S
C160 C159 1.443 . S
C160 C161 1.340 . S
C160 H200 0.951 . S
C161 C160 1.340 . S
C161 C162 1.439 . S
C161 H201 0.950 . S
C162 C161 1.439 . S
C162 N163 1.374 . S
C162 C196 1.395 . S
N163 C159 1.376 . S
N163 C162 1.374 . S
N163 Co164 2.008 . S
Co164 N163 2.008 . S
Co164 N165 1.995 . S
Co164 N170 2.008 . S
Co164 N175 1.995 . S
Co164 N180 2.282 . S
Co164 N186 2.282 . S
N165 Co164 1.995 . S
N165 C166 1.376 . S
N165 C169 1.383 . S
C166 N165 1.376 . S
C166 C167 1.446 . S
C166 C196 1.391 . S
C167 C166 1.446 . S
C167 C168 1.339 . S
C167 H202 0.949 . S
C168 C167 1.339 . S
C168 C169 1.439 . S
C168 H203 0.950 . S
C169 N165 1.383 . S
C169 C168 1.439 . S
C169 C198 1.392 . S
N170 Co164 2.008 . S
N170 C171 1.376 . S
N170 C174 1.374 . S
C171 N170 1.376 . S
C171 C172 1.443 . S
C171 C198 1.389 . S
C172 C171 1.443 . S
C172 C173 1.340 . S
C172 H204 0.951 . S
C173 C172 1.340 . S
C173 C174 1.439 . S
C173 H205 0.950 . S
C174 N170 1.374 . S
C174 C173 1.439 . S
C174 C199 1.395 . S
N175 Co164 1.995 . S
N175 C176 1.376 . S
N175 C179 1.383 . S
C176 N175 1.376 . S
C176 C177 1.446 . S
C176 C199 1.391 . S
C177 C176 1.446 . S
C177 C178 1.339 . S
C177 H206 0.949 . S
C178 C177 1.339 . S
C178 C179 1.439 . S
C178 H207 0.950 . S
C179 N175 1.383 . S
C179 C178 1.439 . S
C179 C197 1.392 . S
N180 Co164 2.282 . S
N180 C183 1.332 . S
N180 C185 1.332 . S
C181 C182 1.386 . S
C181 C184 1.388 . S
C182 C181 1.386 . S
C182 C183 1.382 . S
C182 H208 0.950 . S
C183 N180 1.332 . S
C183 C182 1.382 . S
C183 H194 0.952 . S
C184 C181 1.388 . S
C184 C185 1.382 . S
C184 H209 0.950 . S
C185 N180 1.332 . S
C185 C184 1.382 . S
C185 H195 0.948 . S
N186 Co164 2.282 . S
N186 C190 1.332 . S
N186 C191 1.332 . S
C187 C188 1.388 . S
C187 C191 1.382 . S
C187 H210 0.950 . S
C188 C187 1.388 . S
C188 C189 1.386 . S
C189 C188 1.386 . S
C189 C190 1.382 . S
C189 H211 0.950 . S
C190 N186 1.332 . S
C190 C189 1.382 . S
C190 H192 0.952 . S
C191 N186 1.332 . S
C191 C187 1.382 . S
C191 H193 0.948 . S
H192 C190 0.952 . S
H193 C191 0.948 . S
H194 C183 0.952 . S
H195 C185 0.948 . S
C196 C162 1.395 . S
C196 C166 1.391 . S
C197 C159 1.389 . S
C197 C179 1.392 . S
C198 C169 1.392 . S
C198 C171 1.389 . S
C199 C174 1.395 . S
C199 C176 1.391 . S
H200 C160 0.951 . S
H201 C161 0.950 . S
H202 C167 0.949 . S
H203 C168 0.950 . S
H204 C172 0.951 . S
H205 C173 0.950 . S
H206 C177 0.949 . S
H207 C178 0.950 . S
H208 C182 0.950 . S
H209 C184 0.950 . S
H210 C187 0.950 . S
H211 C189 0.950 . S
C212 C213 1.443 . S
C212 N216 1.376 . S
C212 C250 1.389 . S
C213 C212 1.443 . S
C213 C214 1.340 . S
C213 H253 0.951 . S
C214 C213 1.340 . S
C214 C215 1.439 . S
C214 H254 0.950 . S
C215 C214 1.439 . S
C215 N216 1.374 . S
C215 C249 1.395 . S
N216 C212 1.376 . S
N216 C215 1.374 . S
N216 Co217 2.008 . S
Co217 N216 2.008 . S
Co217 N218 1.995 . S
Co217 N223 2.008 . S
Co217 N228 1.995 . S
Co217 N233 2.282 . S
Co217 N239 2.282 . S
N218 Co217 1.995 . S
N218 C219 1.376 . S
N218 C222 1.383 . S
C219 N218 1.376 . S
C219 C220 1.446 . S
C219 C249 1.391 . S
C220 C219 1.446 . S
C220 C221 1.339 . S
C220 H255 0.949 . S
C221 C220 1.339 . S
C221 C222 1.439 . S
C221 H256 0.950 . S
C222 N218 1.383 . S
C222 C221 1.439 . S
C222 C251 1.392 . S
N223 Co217 2.008 . S
N223 C224 1.376 . S
N223 C227 1.374 . S
C224 N223 1.376 . S
C224 C225 1.443 . S
C224 C251 1.389 . S
C225 C224 1.443 . S
C225 C226 1.340 . S
C225 H257 0.951 . S
C226 C225 1.340 . S
C226 C227 1.439 . S
C226 H258 0.950 . S
C227 N223 1.374 . S
C227 C226 1.439 . S
C227 C252 1.395 . S
N228 Co217 1.995 . S
N228 C229 1.376 . S
N228 C232 1.383 . S
C229 N228 1.376 . S
C229 C230 1.446 . S
C229 C252 1.391 . S
C230 C229 1.446 . S
C230 C231 1.339 . S
C230 H259 0.949 . S
C231 C230 1.339 . S
C231 C232 1.439 . S
C231 H260 0.950 . S
C232 N228 1.383 . S
C232 C231 1.439 . S
C232 C250 1.392 . S
N233 Co217 2.282 . S
N233 C236 1.332 . S
N233 C238 1.332 . S
C234 C235 1.386 . S
C234 C237 1.388 . S
C235 C234 1.386 . S
C235 C236 1.382 . S
C235 H261 0.950 . S
C236 N233 1.332 . S
C236 C235 1.382 . S
C236 H247 0.952 . S
C237 C234 1.388 . S
C237 C238 1.382 . S
C237 H262 0.950 . S
C238 N233 1.332 . S
C238 C237 1.382 . S
C238 H248 0.948 . S
N239 Co217 2.282 . S
N239 C243 1.332 . S
N239 C244 1.332 . S
C240 C241 1.388 . S
C240 C244 1.382 . S
C240 H263 0.950 . S
C241 C240 1.388 . S
C241 C242 1.386 . S
C242 C241 1.386 . S
C242 C243 1.382 . S
C242 H264 0.950 . S
C243 N239 1.332 . S
C243 C242 1.382 . S
C243 H245 0.952 . S
C244 N239 1.332 . S
C244 C240 1.382 . S
C244 H246 0.948 . S
H245 C243 0.952 . S
H246 C244 0.948 . S
H247 C236 0.952 . S
H248 C238 0.948 . S
C249 C215 1.395 . S
C249 C219 1.391 . S
C250 C212 1.389 . S
C250 C232 1.392 . S
C251 C222 1.392 . S
C251 C224 1.389 . S
C252 C227 1.395 . S
C252 C229 1.391 . S
H253 C213 0.951 . S
H254 C214 0.950 . S
H255 C220 0.949 . S
H256 C221 0.950 . S
H257 C225 0.951 . S
H258 C226 0.950 . S
H259 C230 0.949 . S
H260 C231 0.950 . S
H261 C235 0.950 . S
H262 C237 0.950 . S
H263 C240 0.950 . S
H264 C242 0.950 . S
C265 C266 1.443 . S
C265 N269 1.376 . S
C265 C303 1.389 . S
C266 C265 1.443 . S
C266 C267 1.340 . S
C266 H306 0.951 . S
C267 C266 1.340 . S
C267 C268 1.439 . S
C267 H307 0.950 . S
C268 C267 1.439 . S
C268 N269 1.374 . S
C268 C302 1.395 . S
N269 C265 1.376 . S
N269 C268 1.374 . S
N269 Co270 2.008 . S
Co270 N269 2.008 . S
Co270 N271 1.995 . S
Co270 N276 2.008 . S
Co270 N281 1.995 . S
Co270 N286 2.282 . S
Co270 N292 2.282 . S
N271 Co270 1.995 . S
N271 C272 1.376 . S
N271 C275 1.383 . S
C272 N271 1.376 . S
C272 C273 1.446 . S
C272 C302 1.391 . S
C273 C272 1.446 . S
C273 C274 1.339 . S
C273 H308 0.949 . S
C274 C273 1.339 . S
C274 C275 1.439 . S
C274 H309 0.950 . S
C275 N271 1.383 . S
C275 C274 1.439 . S
C275 C304 1.392 . S
N276 Co270 2.008 . S
N276 C277 1.376 . S
N276 C280 1.374 . S
C277 N276 1.376 . S
C277 C278 1.443 . S
C277 C304 1.389 . S
C278 C277 1.443 . S
C278 C279 1.340 . S
C278 H310 0.951 . S
C279 C278 1.340 . S
C279 C280 1.439 . S
C279 H311 0.950 . S
C280 N276 1.374 . S
C280 C279 1.439 . S
C280 C305 1.395 . S
N281 Co270 1.995 . S
N281 C282 1.376 . S
N281 C285 1.383 . S
C282 N281 1.376 . S
C282 C283 1.446 . S
C282 C305 1.391 . S
C283 C282 1.446 . S
C283 C284 1.339 . S
C283 H312 0.949 . S
C284 C283 1.339 . S
C284 C285 1.439 . S
C284 H313 0.950 . S
C285 N281 1.383 . S
C285 C284 1.439 . S
C285 C303 1.392 . S
N286 Co270 2.282 . S
N286 C289 1.332 . S
N286 C291 1.332 . S
C287 C288 1.386 . S
C287 C290 1.388 . S
C288 C287 1.386 . S
C288 C289 1.382 . S
C288 H314 0.950 . S
C289 N286 1.332 . S
C289 C288 1.382 . S
C289 H300 0.952 . S
C290 C287 1.388 . S
C290 C291 1.382 . S
C290 H315 0.950 . S
C291 N286 1.332 . S
C291 C290 1.382 . S
C291 H301 0.948 . S
N292 Co270 2.282 . S
N292 C296 1.332 . S
N292 C297 1.332 . S
C293 C294 1.388 . S
C293 C297 1.382 . S
C293 H316 0.950 . S
C294 C293 1.388 . S
C294 C295 1.386 . S
C295 C294 1.386 . S
C295 C296 1.382 . S
C295 H317 0.950 . S
C296 N292 1.332 . S
C296 C295 1.382 . S
C296 H298 0.952 . S
C297 N292 1.332 . S
C297 C293 1.382 . S
C297 H299 0.948 . S
H298 C296 0.952 . S
H299 C297 0.948 . S
H300 C289 0.952 . S
H301 C291 0.948 . S
C302 C268 1.395 . S
C302 C272 1.391 . S
C303 C265 1.389 . S
C303 C285 1.392 . S
C304 C275 1.392 . S
C304 C277 1.389 . S
C305 C280 1.395 . S
C305 C282 1.391 . S
H306 C266 0.951 . S
H307 C267 0.950 . S
H308 C273 0.949 . S
H309 C274 0.950 . S
H310 C278 0.951 . S
H311 C279 0.950 . S
H312 C283 0.949 . S
H313 C284 0.950 . S
H314 C288 0.950 . S
H315 C290 0.950 . S
H316 C293 0.950 . S
H317 C295 0.950 . S
C318 C319 1.443 . S
C318 N322 1.376 . S
C318 C356 1.389 . S
C319 C318 1.443 . S
C319 C320 1.340 . S
C319 H359 0.951 . S
C320 C319 1.340 . S
C320 C321 1.439 . S
C320 H360 0.950 . S
C321 C320 1.439 . S
C321 N322 1.374 . S
C321 C355 1.395 . S
N322 C318 1.376 . S
N322 C321 1.374 . S
N322 Co323 2.008 . S
Co323 N322 2.008 . S
Co323 N324 1.995 . S
Co323 N329 2.008 . S
Co323 N334 1.995 . S
Co323 N339 2.282 . S
Co323 N345 2.282 . S
N324 Co323 1.995 . S
N324 C325 1.376 . S
N324 C328 1.383 . S
C325 N324 1.376 . S
C325 C326 1.446 . S
C325 C355 1.391 . S
C326 C325 1.446 . S
C326 C327 1.339 . S
C326 H361 0.949 . S
C327 C326 1.339 . S
C327 C328 1.439 . S
C327 H362 0.950 . S
C328 N324 1.383 . S
C328 C327 1.439 . S
C328 C357 1.392 . S
N329 Co323 2.008 . S
N329 C330 1.376 . S
N329 C333 1.374 1_545 S
C330 N329 1.376 . S
C330 C331 1.443 1_545 S
C330 C357 1.389 . S
C331 C330 1.443 1_565 S
C331 C332 1.340 . S
C331 H363 0.951 . S
C332 C331 1.340 . S
C332 C333 1.439 . S
C332 H364 0.950 . S
C333 N329 1.374 1_565 S
C333 C332 1.439 . S
C333 C358 1.395 . S
N334 Co323 1.995 . S
N334 C335 1.376 1_545 S
N334 C338 1.383 . S
C335 N334 1.376 1_565 S
C335 C336 1.446 . S
C335 C358 1.391 . S
C336 C335 1.446 . S
C336 C337 1.339 . S
C336 H365 0.949 . S
C337 C336 1.339 . S
C337 C338 1.439 1_565 S
C337 H366 0.950 . S
C338 N334 1.383 . S
C338 C337 1.439 1_545 S
C338 C356 1.392 . S
N339 Co323 2.282 . S
N339 C342 1.332 . S
N339 C344 1.332 . S
C340 C341 1.386 . S
C340 C343 1.388 . S
C341 C340 1.386 . S
C341 C342 1.382 . S
C341 H367 0.950 1_545 S
C342 N339 1.332 . S
C342 C341 1.382 . S
C342 H353 0.952 1_545 S
C343 C340 1.388 . S
C343 C344 1.382 . S
C343 H368 0.950 . S
C344 N339 1.332 . S
C344 C343 1.382 . S
C344 H354 0.948 . S
N345 Co323 2.282 . S
N345 C349 1.332 . S
N345 C350 1.332 . S
C346 C347 1.388 . S
C346 C350 1.382 . S
C346 H369 0.950 . S
C347 C346 1.388 . S
C347 C348 1.386 . S
C348 C347 1.386 . S
C348 C349 1.382 . S
C348 H370 0.950 . S
C349 N345 1.332 . S
C349 C348 1.382 . S
C349 H351 0.952 . S
C350 N345 1.332 . S
C350 C346 1.382 . S
C350 H352 0.948 . S
H351 C349 0.952 . S
H352 C350 0.948 . S
H353 C342 0.952 1_565 S
H354 C344 0.948 . S
C355 C321 1.395 . S
C355 C325 1.391 . S
C356 C318 1.389 . S
C356 C338 1.392 . S
C357 C328 1.392 . S
C357 C330 1.389 . S
C358 C333 1.395 . S
C358 C335 1.391 . S
H359 C319 0.951 . S
H360 C320 0.950 . S
H361 C326 0.949 . S
H362 C327 0.950 . S
H363 C331 0.951 . S
H364 C332 0.950 . S
H365 C336 0.949 . S
H366 C337 0.950 . S
H367 C341 0.950 1_565 S
H368 C343 0.950 . S
H369 C346 0.950 . S
H370 C348 0.950 . S
C371 C372 1.443 1_655 S
C371 N375 1.376 . S
C371 C409 1.389 . S
C372 C371 1.443 1_455 S
C372 C373 1.340 . S
C372 H412 0.951 . S
C373 C372 1.340 . S
C373 C374 1.439 . S
C373 H413 0.950 . S
C374 C373 1.439 . S
C374 N375 1.374 1_455 S
C374 C408 1.395 . S
N375 C371 1.376 . S
N375 C374 1.374 1_655 S
N375 Co376 2.008 . S
Co376 N375 2.008 . S
Co376 N377 1.995 1_655 S
Co376 N382 2.008 . S
Co376 N387 1.995 . S
Co376 N392 2.282 . S
Co376 N398 2.282 . S
N377 Co376 1.995 1_455 S
N377 C378 1.376 . S
N377 C381 1.383 . S
C378 N377 1.376 . S
C378 C379 1.446 . S
C378 C408 1.391 . S
C379 C378 1.446 . S
C379 C380 1.339 . S
C379 H414 0.949 . S
C380 C379 1.339 . S
C380 C381 1.439 . S
C380 H415 0.950 . S
C381 N377 1.383 . S
C381 C380 1.439 . S
C381 C410 1.392 1_455 S
N382 Co376 2.008 . S
N382 C383 1.376 . S
N382 C386 1.374 . S
C383 N382 1.376 . S
C383 C384 1.443 . S
C383 C410 1.389 . S
C384 C383 1.443 . S
C384 C385 1.340 . S
C384 H416 0.951 . S
C385 C384 1.340 . S
C385 C386 1.439 . S
C385 H417 0.950 . S
C386 N382 1.374 . S
C386 C385 1.439 . S
C386 C411 1.395 . S
N387 Co376 1.995 . S
N387 C388 1.376 . S
N387 C391 1.383 . S
C388 N387 1.376 . S
C388 C389 1.446 . S
C388 C411 1.391 . S
C389 C388 1.446 . S
C389 C390 1.339 . S
C389 H418 0.949 . S
C390 C389 1.339 . S
C390 C391 1.439 . S
C390 H419 0.950 . S
C391 N387 1.383 . S
C391 C390 1.439 . S
C391 C409 1.392 . S
N392 Co376 2.282 . S
N392 C395 1.332 . S
N392 C397 1.332 . S
C393 C394 1.386 . S
C393 C396 1.388 . S
C394 C393 1.386 . S
C394 C395 1.382 . S
C394 H420 0.950 . S
C395 N392 1.332 . S
C395 C394 1.382 . S
C395 H406 0.952 . S
C396 C393 1.388 . S
C396 C397 1.382 . S
C396 H421 0.950 1_655 S
C397 N392 1.332 . S
C397 C396 1.382 . S
C397 H407 0.948 1_655 S
N398 Co376 2.282 . S
N398 C402 1.332 . S
N398 C403 1.332 . S
C399 C400 1.388 . S
C399 C403 1.382 . S
C399 H422 0.950 . S
C400 C399 1.388 . S
C400 C401 1.386 . S
C401 C400 1.386 . S
C401 C402 1.382 . S
C401 H423 0.950 1_655 S
C402 N398 1.332 . S
C402 C401 1.382 . S
C402 H404 0.952 1_655 S
C403 N398 1.332 . S
C403 C399 1.382 . S
C403 H405 0.948 . S
H404 C402 0.952 1_455 S
H405 C403 0.948 . S
H406 C395 0.952 . S
H407 C397 0.948 1_455 S
C408 C374 1.395 . S
C408 C378 1.391 . S
C409 C371 1.389 . S
C409 C391 1.392 . S
C410 C381 1.392 1_655 S
C410 C383 1.389 . S
C411 C386 1.395 . S
C411 C388 1.391 . S
H412 C372 0.951 . S
H413 C373 0.950 . S
H414 C379 0.949 . S
H415 C380 0.950 . S
H416 C384 0.951 . S
H417 C385 0.950 . S
H418 C389 0.949 . S
H419 C390 0.950 . S
H420 C394 0.950 . S
H421 C396 0.950 1_455 S
H422 C399 0.950 . S
H423 C401 0.950 1_455 S
C424 C425 1.443 . S
C424 N428 1.376 . S
C424 C462 1.389 . S
C425 C424 1.443 . S
C425 C426 1.340 . S
C425 H465 0.951 . S
C426 C425 1.340 . S
C426 C427 1.439 . S
C426 H466 0.950 . S
C427 C426 1.439 . S
C427 N428 1.374 . S
C427 C461 1.395 . S
N428 C424 1.376 . S
N428 C427 1.374 . S
N428 Co429 2.008 . S
Co429 N428 2.008 . S
Co429 N430 1.995 . S
Co429 N435 2.008 . S
Co429 N440 1.995 . S
Co429 N445 2.282 . S
Co429 N451 2.282 . S
N430 Co429 1.995 . S
N430 C431 1.376 . S
N430 C434 1.383 . S
C431 N430 1.376 . S
C431 C432 1.446 . S
C431 C461 1.391 . S
C432 C431 1.446 . S
C432 C433 1.339 . S
C432 H467 0.949 . S
C433 C432 1.339 . S
C433 C434 1.439 . S
C433 H468 0.950 . S
C434 N430 1.383 . S
C434 C433 1.439 . S
C434 C463 1.392 . S
N435 Co429 2.008 . S
N435 C436 1.376 . S
N435 C439 1.374 . S
C436 N435 1.376 . S
C436 C437 1.443 . S
C436 C463 1.389 . S
C437 C436 1.443 . S
C437 C438 1.340 . S
C437 H469 0.951 . S
C438 C437 1.340 . S
C438 C439 1.439 . S
C438 H470 0.950 . S
C439 N435 1.374 . S
C439 C438 1.439 . S
C439 C464 1.395 . S
N440 Co429 1.995 . S
N440 C441 1.376 . S
N440 C444 1.383 . S
C441 N440 1.376 . S
C441 C442 1.446 . S
C441 C464 1.391 . S
C442 C441 1.446 . S
C442 C443 1.339 . S
C442 H471 0.949 . S
C443 C442 1.339 . S
C443 C444 1.439 . S
C443 H472 0.950 . S
C444 N440 1.383 . S
C444 C443 1.439 . S
C444 C462 1.392 . S
N445 Co429 2.282 . S
N445 C448 1.332 . S
N445 C450 1.332 . S
C446 C447 1.386 . S
C446 C449 1.388 . S
C447 C446 1.386 . S
C447 C448 1.382 . S
C447 H473 0.950 . S
C448 N445 1.332 . S
C448 C447 1.382 . S
C448 H459 0.952 . S
C449 C446 1.388 . S
C449 C450 1.382 . S
C449 H474 0.950 . S
C450 N445 1.332 . S
C450 C449 1.382 . S
C450 H460 0.948 . S
N451 Co429 2.282 . S
N451 C455 1.332 . S
N451 C456 1.332 . S
C452 C453 1.388 . S
C452 C456 1.382 . S
C452 H475 0.950 . S
C453 C452 1.388 . S
C453 C454 1.386 . S
C454 C453 1.386 . S
C454 C455 1.382 . S
C454 H476 0.950 . S
C455 N451 1.332 . S
C455 C454 1.382 . S
C455 H457 0.952 . S
C456 N451 1.332 . S
C456 C452 1.382 . S
C456 H458 0.948 . S
H457 C455 0.952 . S
H458 C456 0.948 . S
H459 C448 0.952 . S
H460 C450 0.948 . S
C461 C427 1.395 . S
C461 C431 1.391 . S
C462 C424 1.389 . S
C462 C444 1.392 . S
C463 C434 1.392 . S
C463 C436 1.389 . S
C464 C439 1.395 . S
C464 C441 1.391 . S
H465 C425 0.951 . S
H466 C426 0.950 . S
H467 C432 0.949 . S
H468 C433 0.950 . S
H469 C437 0.951 . S
H470 C438 0.950 . S
H471 C442 0.949 . S
H472 C443 0.950 . S
H473 C447 0.950 . S
H474 C449 0.950 . S
H475 C452 0.950 . S
H476 C454 0.950 . S
C477 C478 1.443 . S
C477 N481 1.376 . S
C477 C515 1.389 . S
C478 C477 1.443 . S
C478 C479 1.340 . S
C478 H518 0.951 . S
C479 C478 1.340 . S
C479 C480 1.439 . S
C479 H519 0.950 . S
C480 C479 1.439 . S
C480 N481 1.374 . S
C480 C514 1.395 . S
N481 C477 1.376 . S
N481 C480 1.374 . S
N481 Co482 2.008 . S
Co482 N481 2.008 . S
Co482 N483 1.995 . S
Co482 N488 2.008 . S
Co482 N493 1.995 . S
Co482 N498 2.282 . S
Co482 N504 2.282 . S
N483 Co482 1.995 . S
N483 C484 1.376 . S
N483 C487 1.383 . S
C484 N483 1.376 . S
C484 C485 1.446 . S
C484 C514 1.391 . S
C485 C484 1.446 . S
C485 C486 1.339 . S
C485 H520 0.949 . S
C486 C485 1.339 . S
C486 C487 1.439 . S
C486 H521 0.950 . S
C487 N483 1.383 . S
C487 C486 1.439 . S
C487 C516 1.392 . S
N488 Co482 2.008 . S
N488 C489 1.376 . S
N488 C492 1.374 . S
C489 N488 1.376 . S
C489 C490 1.443 . S
C489 C516 1.389 . S
C490 C489 1.443 . S
C490 C491 1.340 . S
C490 H522 0.951 . S
C491 C490 1.340 . S
C491 C492 1.439 . S
C491 H523 0.950 . S
C492 N488 1.374 . S
C492 C491 1.439 . S
C492 C517 1.395 . S
N493 Co482 1.995 . S
N493 C494 1.376 . S
N493 C497 1.383 . S
C494 N493 1.376 . S
C494 C495 1.446 . S
C494 C517 1.391 . S
C495 C494 1.446 . S
C495 C496 1.339 . S
C495 H524 0.949 . S
C496 C495 1.339 . S
C496 C497 1.439 . S
C496 H525 0.950 . S
C497 N493 1.383 . S
C497 C496 1.439 . S
C497 C515 1.392 . S
N498 Co482 2.282 . S
N498 C501 1.332 . S
N498 C503 1.332 . S
C499 C500 1.386 . S
C499 C502 1.388 . S
C500 C499 1.386 . S
C500 C501 1.382 . S
C500 H526 0.950 . S
C501 N498 1.332 . S
C501 C500 1.382 . S
C501 H512 0.952 . S
C502 C499 1.388 . S
C502 C503 1.382 . S
C502 H527 0.950 . S
C503 N498 1.332 . S
C503 C502 1.382 . S
C503 H513 0.948 . S
N504 Co482 2.282 . S
N504 C508 1.332 . S
N504 C509 1.332 . S
C505 C506 1.388 . S
C505 C509 1.382 . S
C505 H528 0.950 . S
C506 C505 1.388 . S
C506 C507 1.386 . S
C507 C506 1.386 . S
C507 C508 1.382 . S
C507 H529 0.950 . S
C508 N504 1.332 . S
C508 C507 1.382 . S
C508 H510 0.952 . S
C509 N504 1.332 . S
C509 C505 1.382 . S
C509 H511 0.948 . S
H510 C508 0.952 . S
H511 C509 0.948 . S
H512 C501 0.952 . S
H513 C503 0.948 . S
C514 C480 1.395 . S
C514 C484 1.391 . S
C515 C477 1.389 . S
C515 C497 1.392 . S
C516 C487 1.392 . S
C516 C489 1.389 . S
C517 C492 1.395 . S
C517 C494 1.391 . S
H518 C478 0.951 . S
H519 C479 0.950 . S
H520 C485 0.949 . S
H521 C486 0.950 . S
H522 C490 0.951 . S
H523 C491 0.950 . S
H524 C495 0.949 . S
H525 C496 0.950 . S
H526 C500 0.950 . S
H527 C502 0.950 . S
H528 C505 0.950 . S
H529 C507 0.950 . S
C530 C531 1.443 . S
C530 N534 1.376 . S
C530 C568 1.389 . S
C531 C530 1.443 . S
C531 C532 1.340 . S
C531 H571 0.951 . S
C532 C531 1.340 . S
C532 C533 1.439 . S
C532 H572 0.950 . S
C533 C532 1.439 . S
C533 N534 1.374 . S
C533 C567 1.395 . S
N534 C530 1.376 . S
N534 C533 1.374 . S
N534 Co535 2.008 . S
Co535 N534 2.008 . S
Co535 N536 1.995 . S
Co535 N541 2.008 . S
Co535 N546 1.995 . S
Co535 N551 2.282 . S
Co535 N557 2.282 . S
N536 Co535 1.995 . S
N536 C537 1.376 . S
N536 C540 1.383 . S
C537 N536 1.376 . S
C537 C538 1.446 . S
C537 C567 1.391 . S
C538 C537 1.446 . S
C538 C539 1.339 . S
C538 H573 0.949 . S
C539 C538 1.339 . S
C539 C540 1.439 . S
C539 H574 0.950 . S
C540 N536 1.383 . S
C540 C539 1.439 . S
C540 C569 1.392 . S
N541 Co535 2.008 . S
N541 C542 1.376 . S
N541 C545 1.374 1_565 S
C542 N541 1.376 . S
C542 C543 1.443 1_565 S
C542 C569 1.389 . S
C543 C542 1.443 1_545 S
C543 C544 1.340 . S
C543 H575 0.951 . S
C544 C543 1.340 . S
C544 C545 1.439 . S
C544 H576 0.950 . S
C545 N541 1.374 1_545 S
C545 C544 1.439 . S
C545 C570 1.395 . S
N546 Co535 1.995 . S
N546 C547 1.376 1_565 S
N546 C550 1.383 . S
C547 N546 1.376 1_545 S
C547 C548 1.446 . S
C547 C570 1.391 . S
C548 C547 1.446 . S
C548 C549 1.339 . S
C548 H577 0.949 . S
C549 C548 1.339 . S
C549 C550 1.439 1_545 S
C549 H578 0.950 . S
C550 N546 1.383 . S
C550 C549 1.439 1_565 S
C550 C568 1.392 . S
N551 Co535 2.282 . S
N551 C554 1.332 . S
N551 C556 1.332 . S
C552 C553 1.386 . S
C552 C555 1.388 . S
C553 C552 1.386 . S
C553 C554 1.382 . S
C553 H579 0.950 1_565 S
C554 N551 1.332 . S
C554 C553 1.382 . S
C554 H565 0.952 1_565 S
C555 C552 1.388 . S
C555 C556 1.382 . S
C555 H580 0.950 . S
C556 N551 1.332 . S
C556 C555 1.382 . S
C556 H566 0.948 . S
N557 Co535 2.282 . S
N557 C561 1.332 . S
N557 C562 1.332 . S
C558 C559 1.388 . S
C558 C562 1.382 . S
C558 H581 0.950 . S
C559 C558 1.388 . S
C559 C560 1.386 . S
C560 C559 1.386 . S
C560 C561 1.382 . S
C560 H582 0.950 . S
C561 N557 1.332 . S
C561 C560 1.382 . S
C561 H563 0.952 . S
C562 N557 1.332 . S
C562 C558 1.382 . S
C562 H564 0.948 . S
H563 C561 0.952 . S
H564 C562 0.948 . S
H565 C554 0.952 1_545 S
H566 C556 0.948 . S
C567 C533 1.395 . S
C567 C537 1.391 . S
C568 C530 1.389 . S
C568 C550 1.392 . S
C569 C540 1.392 . S
C569 C542 1.389 . S
C570 C545 1.395 . S
C570 C547 1.391 . S
H571 C531 0.951 . S
H572 C532 0.950 . S
H573 C538 0.949 . S
H574 C539 0.950 . S
H575 C543 0.951 . S
H576 C544 0.950 . S
H577 C548 0.949 . S
H578 C549 0.950 . S
H579 C553 0.950 1_545 S
H580 C555 0.950 . S
H581 C558 0.950 . S
H582 C560 0.950 . S
C583 C584 1.443 1_455 S
C583 N587 1.376 . S
C583 C621 1.389 . S
C584 C583 1.443 1_655 S
C584 C585 1.340 . S
C584 H624 0.951 . S
C585 C584 1.340 . S
C585 C586 1.439 . S
C585 H625 0.950 . S
C586 C585 1.439 . S
C586 N587 1.374 1_655 S
C586 C620 1.395 . S
N587 C583 1.376 . S
N587 C586 1.374 1_455 S
N587 Co588 2.008 . S
Co588 N587 2.008 . S
Co588 N589 1.995 1_455 S
Co588 N594 2.008 . S
Co588 N599 1.995 . S
Co588 N604 2.282 . S
Co588 N610 2.282 . S
N589 Co588 1.995 1_655 S
N589 C590 1.376 . S
N589 C593 1.383 . S
C590 N589 1.376 . S
C590 C591 1.446 . S
C590 C620 1.391 . S
C591 C590 1.446 . S
C591 C592 1.339 . S
C591 H626 0.949 . S
C592 C591 1.339 . S
C592 C593 1.439 . S
C592 H627 0.950 . S
C593 N589 1.383 . S
C593 C592 1.439 . S
C593 C622 1.392 1_655 S
N594 Co588 2.008 . S
N594 C595 1.376 . S
N594 C598 1.374 . S
C595 N594 1.376 . S
C595 C596 1.443 . S
C595 C622 1.389 . S
C596 C595 1.443 . S
C596 C597 1.340 . S
C596 H628 0.951 . S
C597 C596 1.340 . S
C597 C598 1.439 . S
C597 H629 0.950 . S
C598 N594 1.374 . S
C598 C597 1.439 . S
C598 C623 1.395 . S
N599 Co588 1.995 . S
N599 C600 1.376 . S
N599 C603 1.383 . S
C600 N599 1.376 . S
C600 C601 1.446 . S
C600 C623 1.391 . S
C601 C600 1.446 . S
C601 C602 1.339 . S
C601 H630 0.949 . S
C602 C601 1.339 . S
C602 C603 1.439 . S
C602 H631 0.950 . S
C603 N599 1.383 . S
C603 C602 1.439 . S
C603 C621 1.392 . S
N604 Co588 2.282 . S
N604 C607 1.332 . S
N604 C609 1.332 . S
C605 C606 1.386 . S
C605 C608 1.388 . S
C606 C605 1.386 . S
C606 C607 1.382 . S
C606 H632 0.950 . S
C607 N604 1.332 . S
C607 C606 1.382 . S
C607 H618 0.952 . S
C608 C605 1.388 . S
C608 C609 1.382 . S
C608 H633 0.950 1_455 S
C609 N604 1.332 . S
C609 C608 1.382 . S
C609 H619 0.948 1_455 S
N610 Co588 2.282 . S
N610 C614 1.332 . S
N610 C615 1.332 . S
C611 C612 1.388 . S
C611 C615 1.382 . S
C611 H634 0.950 . S
C612 C611 1.388 . S
C612 C613 1.386 . S
C613 C612 1.386 . S
C613 C614 1.382 . S
C613 H635 0.950 1_455 S
C614 N610 1.332 . S
C614 C613 1.382 . S
C614 H616 0.952 1_455 S
C615 N610 1.332 . S
C615 C611 1.382 . S
C615 H617 0.948 . S
H616 C614 0.952 1_655 S
H617 C615 0.948 . S
H618 C607 0.952 . S
H619 C609 0.948 1_655 S
C620 C586 1.395 . S
C620 C590 1.391 . S
C621 C583 1.389 . S
C621 C603 1.392 . S
C622 C593 1.392 1_455 S
C622 C595 1.389 . S
C623 C598 1.395 . S
C623 C600 1.391 . S
H624 C584 0.951 . S
H625 C585 0.950 . S
H626 C591 0.949 . S
H627 C592 0.950 . S
H628 C596 0.951 . S
H629 C597 0.950 . S
H630 C601 0.949 . S
H631 C602 0.950 . S
H632 C606 0.950 . S
H633 C608 0.950 1_655 S
H634 C611 0.950 . S
H635 C613 0.950 1_655 S
C636 C637 1.443 . S
C636 N640 1.376 . S
C636 C674 1.389 . S
C637 C636 1.443 . S
C637 C638 1.340 . S
C637 H677 0.951 . S
C638 C637 1.340 . S
C638 C639 1.439 . S
C638 H678 0.950 . S
C639 C638 1.439 . S
C639 N640 1.374 . S
C639 C673 1.395 . S
N640 C636 1.376 . S
N640 C639 1.374 . S
N640 Co641 2.008 . S
Co641 N640 2.008 . S
Co641 N642 1.995 . S
Co641 N647 2.008 . S
Co641 N652 1.995 . S
Co641 N657 2.282 . S
Co641 N663 2.282 . S
N642 Co641 1.995 . S
N642 C643 1.376 . S
N642 C646 1.383 . S
C643 N642 1.376 . S
C643 C644 1.446 . S
C643 C673 1.391 . S
C644 C643 1.446 . S
C644 C645 1.339 . S
C644 H679 0.949 . S
C645 C644 1.339 . S
C645 C646 1.439 . S
C645 H680 0.950 . S
C646 N642 1.383 . S
C646 C645 1.439 . S
C646 C675 1.392 . S
N647 Co641 2.008 . S
N647 C648 1.376 . S
N647 C651 1.374 1_565 S
C648 N647 1.376 . S
C648 C649 1.443 1_565 S
C648 C675 1.389 . S
C649 C648 1.443 1_545 S
C649 C650 1.340 . S
C649 H681 0.951 . S
C650 C649 1.340 . S
C650 C651 1.439 . S
C650 H682 0.950 . S
C651 N647 1.374 1_545 S
C651 C650 1.439 . S
C651 C676 1.395 . S
N652 Co641 1.995 . S
N652 C653 1.376 1_565 S
N652 C656 1.383 . S
C653 N652 1.376 1_545 S
C653 C654 1.446 . S
C653 C676 1.391 . S
C654 C653 1.446 . S
C654 C655 1.339 . S
C654 H683 0.949 . S
C655 C654 1.339 . S
C655 C656 1.439 1_545 S
C655 H684 0.950 . S
C656 N652 1.383 . S
C656 C655 1.439 1_565 S
C656 C674 1.392 . S
N657 Co641 2.282 . S
N657 C660 1.332 . S
N657 C662 1.332 . S
C658 C659 1.386 . S
C658 C661 1.388 . S
C659 C658 1.386 . S
C659 C660 1.382 . S
C659 H685 0.950 1_565 S
C660 N657 1.332 . S
C660 C659 1.382 . S
C660 H671 0.952 1_565 S
C661 C658 1.388 . S
C661 C662 1.382 . S
C661 H686 0.950 . S
C662 N657 1.332 . S
C662 C661 1.382 . S
C662 H672 0.948 . S
N663 Co641 2.282 . S
N663 C667 1.332 . S
N663 C668 1.332 . S
C664 C665 1.388 . S
C664 C668 1.382 . S
C664 H687 0.950 . S
C665 C664 1.388 . S
C665 C666 1.386 . S
C666 C665 1.386 . S
C666 C667 1.382 . S
C666 H688 0.950 . S
C667 N663 1.332 . S
C667 C666 1.382 . S
C667 H669 0.952 . S
C668 N663 1.332 . S
C668 C664 1.382 . S
C668 H670 0.948 . S
H669 C667 0.952 . S
H670 C668 0.948 . S
H671 C660 0.952 1_545 S
H672 C662 0.948 . S
C673 C639 1.395 . S
C673 C643 1.391 . S
C674 C636 1.389 . S
C674 C656 1.392 . S
C675 C646 1.392 . S
C675 C648 1.389 . S
C676 C651 1.395 . S
C676 C653 1.391 . S
H677 C637 0.951 . S
H678 C638 0.950 . S
H679 C644 0.949 . S
H680 C645 0.950 . S
H681 C649 0.951 . S
H682 C650 0.950 . S
H683 C654 0.949 . S
H684 C655 0.950 . S
H685 C659 0.950 1_545 S
H686 C661 0.950 . S
H687 C664 0.950 . S
H688 C666 0.950 . S
C689 C690 1.443 1_455 S
C689 N693 1.376 . S
C689 C727 1.389 . S
C690 C689 1.443 1_655 S
C690 C691 1.340 . S
C690 H730 0.951 . S
C691 C690 1.340 . S
C691 C692 1.439 . S
C691 H731 0.950 . S
C692 C691 1.439 . S
C692 N693 1.374 1_655 S
C692 C726 1.395 . S
N693 C689 1.376 . S
N693 C692 1.374 1_455 S
N693 Co694 2.008 . S
Co694 N693 2.008 . S
Co694 N695 1.995 1_455 S
Co694 N700 2.008 . S
Co694 N705 1.995 . S
Co694 N710 2.282 . S
Co694 N716 2.282 . S
N695 Co694 1.995 1_655 S
N695 C696 1.376 . S
N695 C699 1.383 . S
C696 N695 1.376 . S
C696 C697 1.446 . S
C696 C726 1.391 . S
C697 C696 1.446 . S
C697 C698 1.339 . S
C697 H732 0.949 . S
C698 C697 1.339 . S
C698 C699 1.439 . S
C698 H733 0.950 . S
C699 N695 1.383 . S
C699 C698 1.439 . S
C699 C728 1.392 1_655 S
N700 Co694 2.008 . S
N700 C701 1.376 . S
N700 C704 1.374 . S
C701 N700 1.376 . S
C701 C702 1.443 . S
C701 C728 1.389 . S
C702 C701 1.443 . S
C702 C703 1.340 . S
C702 H734 0.951 . S
C703 C702 1.340 . S
C703 C704 1.439 . S
C703 H735 0.950 . S
C704 N700 1.374 . S
C704 C703 1.439 . S
C704 C729 1.395 . S
N705 Co694 1.995 . S
N705 C706 1.376 . S
N705 C709 1.383 . S
C706 N705 1.376 . S
C706 C707 1.446 . S
C706 C729 1.391 . S
C707 C706 1.446 . S
C707 C708 1.339 . S
C707 H736 0.949 . S
C708 C707 1.339 . S
C708 C709 1.439 . S
C708 H737 0.950 . S
C709 N705 1.383 . S
C709 C708 1.439 . S
C709 C727 1.392 . S
N710 Co694 2.282 . S
N710 C713 1.332 . S
N710 C715 1.332 . S
C711 C712 1.386 . S
C711 C714 1.388 . S
C712 C711 1.386 . S
C712 C713 1.382 . S
C712 H738 0.950 . S
C713 N710 1.332 . S
C713 C712 1.382 . S
C713 H724 0.952 . S
C714 C711 1.388 . S
C714 C715 1.382 . S
C714 H739 0.950 1_455 S
C715 N710 1.332 . S
C715 C714 1.382 . S
C715 H725 0.948 1_455 S
N716 Co694 2.282 . S
N716 C720 1.332 . S
N716 C721 1.332 . S
C717 C718 1.388 . S
C717 C721 1.382 . S
C717 H740 0.950 . S
C718 C717 1.388 . S
C718 C719 1.386 . S
C719 C718 1.386 . S
C719 C720 1.382 . S
C719 H741 0.950 1_455 S
C720 N716 1.332 . S
C720 C719 1.382 . S
C720 H722 0.952 1_455 S
C721 N716 1.332 . S
C721 C717 1.382 . S
C721 H723 0.948 . S
H722 C720 0.952 1_655 S
H723 C721 0.948 . S
H724 C713 0.952 . S
H725 C715 0.948 1_655 S
C726 C692 1.395 . S
C726 C696 1.391 . S
C727 C689 1.389 . S
C727 C709 1.392 . S
C728 C699 1.392 1_455 S
C728 C701 1.389 . S
C729 C704 1.395 . S
C729 C706 1.391 . S
H730 C690 0.951 . S
H731 C691 0.950 . S
H732 C697 0.949 . S
H733 C698 0.950 . S
H734 C702 0.951 . S
H735 C703 0.950 . S
H736 C707 0.949 . S
H737 C708 0.950 . S
H738 C712 0.950 . S
H739 C714 0.950 1_655 S
H740 C717 0.950 . S
H741 C719 0.950 1_655 S
C742 C743 1.443 . S
C742 N746 1.376 . S
C742 C780 1.389 . S
C743 C742 1.443 . S
C743 C744 1.340 . S
C743 H783 0.951 . S
C744 C743 1.340 . S
C744 C745 1.439 . S
C744 H784 0.950 . S
C745 C744 1.439 . S
C745 N746 1.374 . S
C745 C779 1.395 . S
N746 C742 1.376 . S
N746 C745 1.374 . S
N746 Co747 2.008 . S
Co747 N746 2.008 . S
Co747 N748 1.995 . S
Co747 N753 2.008 . S
Co747 N758 1.995 . S
Co747 N763 2.282 . S
Co747 N769 2.282 . S
N748 Co747 1.995 . S
N748 C749 1.376 . S
N748 C752 1.383 . S
C749 N748 1.376 . S
C749 C750 1.446 . S
C749 C779 1.391 . S
C750 C749 1.446 . S
C750 C751 1.339 . S
C750 H785 0.949 . S
C751 C750 1.339 . S
C751 C752 1.439 . S
C751 H786 0.950 . S
C752 N748 1.383 . S
C752 C751 1.439 . S
C752 C781 1.392 . S
N753 Co747 2.008 . S
N753 C754 1.376 . S
N753 C757 1.374 . S
C754 N753 1.376 . S
C754 C755 1.443 . S
C754 C781 1.389 . S
C755 C754 1.443 . S
C755 C756 1.340 . S
C755 H787 0.951 . S
C756 C755 1.340 . S
C756 C757 1.439 . S
C756 H788 0.950 . S
C757 N753 1.374 . S
C757 C756 1.439 . S
C757 C782 1.395 . S
N758 Co747 1.995 . S
N758 C759 1.376 . S
N758 C762 1.383 . S
C759 N758 1.376 . S
C759 C760 1.446 . S
C759 C782 1.391 . S
C760 C759 1.446 . S
C760 C761 1.339 . S
C760 H789 0.949 . S
C761 C760 1.339 . S
C761 C762 1.439 . S
C761 H790 0.950 . S
C762 N758 1.383 . S
C762 C761 1.439 . S
C762 C780 1.392 . S
N763 Co747 2.282 . S
N763 C766 1.332 . S
N763 C768 1.332 . S
C764 C765 1.386 . S
C764 C767 1.388 . S
C765 C764 1.386 . S
C765 C766 1.382 . S
C765 H791 0.950 . S
C766 N763 1.332 . S
C766 C765 1.382 . S
C766 H777 0.952 . S
C767 C764 1.388 . S
C767 C768 1.382 . S
C767 H792 0.950 . S
C768 N763 1.332 . S
C768 C767 1.382 . S
C768 H778 0.948 . S
N769 Co747 2.282 . S
N769 C773 1.332 . S
N769 C774 1.332 . S
C770 C771 1.388 . S
C770 C774 1.382 . S
C770 H793 0.950 . S
C771 C770 1.388 . S
C771 C772 1.386 . S
C772 C771 1.386 . S
C772 C773 1.382 . S
C772 H794 0.950 . S
C773 N769 1.332 . S
C773 C772 1.382 . S
C773 H775 0.952 . S
C774 N769 1.332 . S
C774 C770 1.382 . S
C774 H776 0.948 . S
H775 C773 0.952 . S
H776 C774 0.948 . S
H777 C766 0.952 . S
H778 C768 0.948 . S
C779 C745 1.395 . S
C779 C749 1.391 . S
C780 C742 1.389 . S
C780 C762 1.392 . S
C781 C752 1.392 . S
C781 C754 1.389 . S
C782 C757 1.395 . S
C782 C759 1.391 . S
H783 C743 0.951 . S
H784 C744 0.950 . S
H785 C750 0.949 . S
H786 C751 0.950 . S
H787 C755 0.951 . S
H788 C756 0.950 . S
H789 C760 0.949 . S
H790 C761 0.950 . S
H791 C765 0.950 . S
H792 C767 0.950 . S
H793 C770 0.950 . S
H794 C772 0.950 . S
C795 C796 1.443 . S
C795 N799 1.376 . S
C795 C833 1.389 . S
C796 C795 1.443 . S
C796 C797 1.340 . S
C796 H836 0.951 . S
C797 C796 1.340 . S
C797 C798 1.439 . S
C797 H837 0.950 . S
C798 C797 1.439 . S
C798 N799 1.374 . S
C798 C832 1.395 . S
N799 C795 1.376 . S
N799 C798 1.374 . S
N799 Co800 2.008 . S
Co800 N799 2.008 . S
Co800 N801 1.995 . S
Co800 N806 2.008 . S
Co800 N811 1.995 . S
Co800 N816 2.282 . S
Co800 N822 2.282 . S
N801 Co800 1.995 . S
N801 C802 1.376 . S
N801 C805 1.383 . S
C802 N801 1.376 . S
C802 C803 1.446 . S
C802 C832 1.391 . S
C803 C802 1.446 . S
C803 C804 1.339 . S
C803 H838 0.949 . S
C804 C803 1.339 . S
C804 C805 1.439 . S
C804 H839 0.950 . S
C805 N801 1.383 . S
C805 C804 1.439 . S
C805 C834 1.392 . S
N806 Co800 2.008 . S
N806 C807 1.376 . S
N806 C810 1.374 . S
C807 N806 1.376 . S
C807 C808 1.443 . S
C807 C834 1.389 . S
C808 C807 1.443 . S
C808 C809 1.340 . S
C808 H840 0.951 . S
C809 C808 1.340 . S
C809 C810 1.439 . S
C809 H841 0.950 . S
C810 N806 1.374 . S
C810 C809 1.439 . S
C810 C835 1.395 . S
N811 Co800 1.995 . S
N811 C812 1.376 . S
N811 C815 1.383 . S
C812 N811 1.376 . S
C812 C813 1.446 . S
C812 C835 1.391 . S
C813 C812 1.446 . S
C813 C814 1.339 . S
C813 H842 0.949 . S
C814 C813 1.339 . S
C814 C815 1.439 . S
C814 H843 0.950 . S
C815 N811 1.383 . S
C815 C814 1.439 . S
C815 C833 1.392 . S
N816 Co800 2.282 . S
N816 C819 1.332 . S
N816 C821 1.332 . S
C817 C818 1.386 . S
C817 C820 1.388 . S
C818 C817 1.386 . S
C818 C819 1.382 . S
C818 H844 0.950 . S
C819 N816 1.332 . S
C819 C818 1.382 . S
C819 H830 0.952 . S
C820 C817 1.388 . S
C820 C821 1.382 . S
C820 H845 0.950 . S
C821 N816 1.332 . S
C821 C820 1.382 . S
C821 H831 0.948 . S
N822 Co800 2.282 . S
N822 C826 1.332 . S
N822 C827 1.332 . S
C823 C824 1.388 . S
C823 C827 1.382 . S
C823 H846 0.950 . S
C824 C823 1.388 . S
C824 C825 1.386 . S
C825 C824 1.386 . S
C825 C826 1.382 . S
C825 H847 0.950 . S
C826 N822 1.332 . S
C826 C825 1.382 . S
C826 H828 0.952 . S
C827 N822 1.332 . S
C827 C823 1.382 . S
C827 H829 0.948 . S
H828 C826 0.952 . S
H829 C827 0.948 . S
H830 C819 0.952 . S
H831 C821 0.948 . S
C832 C798 1.395 . S
C832 C802 1.391 . S
C833 C795 1.389 . S
C833 C815 1.392 . S
C834 C805 1.392 . S
C834 C807 1.389 . S
C835 C810 1.395 . S
C835 C812 1.391 . S
H836 C796 0.951 . S
H837 C797 0.950 . S
H838 C803 0.949 . S
H839 C804 0.950 . S
H840 C808 0.951 . S
H841 C809 0.950 . S
H842 C813 0.949 . S
H843 C814 0.950 . S
H844 C818 0.950 . S
H845 C820 0.950 . S
H846 C823 0.950 . S
H847 C825 0.950 . S
C848 C849 1.391 . S
C848 C850 1.394 . S
C848 H864 0.931 . S
C849 C848 1.391 . S
C849 C853 1.376 . S
C850 C848 1.394 . S
C850 C851 1.369 . S
C850 C854 1.531 . S
C851 C850 1.369 . S
C851 C852 1.410 1_565 S
C851 C859 1.503 1_665 S
C852 C851 1.410 1_545 S
C852 C853 1.392 1_545 S
C852 C855 1.511 . S
C853 C849 1.376 . S
C853 C852 1.392 1_565 S
C853 H865 0.929 . S
C854 C850 1.531 . S
C854 H866 0.960 1_655 S
C854 H867 0.962 1_655 S
C854 H868 0.960 . S
C855 C852 1.511 . S
C855 H869 0.961 . S
C855 H870 0.961 . S
C855 H871 0.961 . S
C856 C857 1.370 . S
C856 C858 1.363 1_545 S
C856 H872 0.931 1_545 S
C857 C856 1.370 . S
C857 C861 1.408 . S
C858 C856 1.363 1_565 S
C858 C859 1.370 1_565 S
C858 C862 1.524 . S
C859 C851 1.503 1_445 S
C859 C858 1.370 1_545 S
C859 C860 1.403 . S
C860 C859 1.403 . S
C860 C861 1.404 . S
C860 C863 1.539 1_455 S
C861 C857 1.408 . S
C861 C860 1.404 . S
C861 H873 0.930 . S
C862 C858 1.524 . S
C862 H874 0.956 . S
C862 H875 0.961 . S
C862 H876 0.961 . S
C863 C860 1.539 1_655 S
C863 H877 0.958 . S
C863 H878 0.961 . S
C863 H879 0.960 . S
H864 C848 0.931 . S
H865 C853 0.929 . S
H866 C854 0.960 1_455 S
H867 C854 0.962 1_455 S
H868 C854 0.960 . S
H869 C855 0.961 . S
H870 C855 0.961 . S
H871 C855 0.961 . S
H872 C856 0.931 1_565 S
H873 C861 0.930 . S
H874 C862 0.956 . S
H875 C862 0.961 . S
H876 C862 0.961 . S
H877 C863 0.958 . S
H878 C863 0.961 . S
H879 C863 0.960 . S
C880 C881 1.391 . S
C880 C882 1.394 . S
C880 H896 0.931 . S
C881 C880 1.391 . S
C881 C885 1.376 . S
C882 C880 1.394 . S
C882 C883 1.369 . S
C882 C886 1.531 1_655 S
C883 C882 1.369 . S
C883 C884 1.410 . S
C883 C891 1.503 1_655 S
C884 C883 1.410 . S
C884 C885 1.392 . S
C884 C887 1.511 . S
C885 C881 1.376 . S
C885 C884 1.392 . S
C885 H897 0.929 . S
C886 C882 1.531 1_455 S
C886 H898 0.960 . S
C886 H899 0.962 . S
C886 H900 0.960 . S
C887 C884 1.511 . S
C887 H901 0.961 . S
C887 H902 0.961 . S
C887 H903 0.961 . S
C888 C889 1.370 . S
C888 C890 1.363 . S
C888 H904 0.931 . S
C889 C888 1.370 . S
C889 C893 1.408 1_455 S
C890 C888 1.363 . S
C890 C891 1.370 . S
C890 C894 1.524 . S
C891 C883 1.503 1_455 S
C891 C890 1.370 . S
C891 C892 1.403 1_455 S
C892 C891 1.403 1_655 S
C892 C893 1.404 . S
C892 C895 1.539 . S
C893 C889 1.408 1_655 S
C893 C892 1.404 . S
C893 H905 0.930 . S
C894 C890 1.524 . S
C894 H906 0.956 . S
C894 H907 0.961 . S
C894 H908 0.961 . S
C895 C892 1.539 . S
C895 H909 0.958 . S
C895 H910 0.961 . S
C895 H911 0.960 . S
H896 C880 0.931 . S
H897 C885 0.929 . S
H898 C886 0.960 . S
H899 C886 0.962 . S
H900 C886 0.960 . S
H901 C887 0.961 . S
H902 C887 0.961 . S
H903 C887 0.961 . S
H904 C888 0.931 . S
H905 C893 0.930 . S
H906 C894 0.956 . S
H907 C894 0.961 . S
H908 C894 0.961 . S
H909 C895 0.958 . S
H910 C895 0.961 . S
H911 C895 0.960 . S
C912 C913 1.391 . S
C912 C914 1.394 . S
C912 H928 0.931 . S
C913 C912 1.391 . S
C913 C917 1.376 . S
C914 C912 1.394 . S
C914 C915 1.369 . S
C914 C918 1.531 . S
C915 C914 1.369 . S
C915 C916 1.410 . S
C915 C923 1.503 . S
C916 C915 1.410 . S
C916 C917 1.392 . S
C916 C919 1.511 . S
C917 C913 1.376 . S
C917 C916 1.392 . S
C917 H929 0.929 . S
C918 C914 1.531 . S
C918 H930 0.960 . S
C918 H931 0.962 . S
C918 H932 0.960 . S
C919 C916 1.511 . S
C919 H933 0.961 . S
C919 H934 0.961 . S
C919 H935 0.961 . S
C920 C921 1.370 . S
C920 C922 1.363 . S
C920 H936 0.931 . S
C921 C920 1.370 . S
C921 C925 1.408 . S
C922 C920 1.363 . S
C922 C923 1.370 . S
C922 C926 1.524 . S
C923 C915 1.503 . S
C923 C922 1.370 . S
C923 C924 1.403 . S
C924 C923 1.403 . S
C924 C925 1.404 . S
C924 C927 1.539 . S
C925 C921 1.408 . S
C925 C924 1.404 . S
C925 H937 0.930 . S
C926 C922 1.524 . S
C926 H938 0.956 . S
C926 H939 0.961 . S
C926 H940 0.961 . S
C927 C924 1.539 . S
C927 H941 0.958 . S
C927 H942 0.961 . S
C927 H943 0.960 . S
H928 C912 0.931 . S
H929 C917 0.929 . S
H930 C918 0.960 . S
H931 C918 0.962 . S
H932 C918 0.960 . S
H933 C919 0.961 . S
H934 C919 0.961 . S
H935 C919 0.961 . S
H936 C920 0.931 . S
H937 C925 0.930 . S
H938 C926 0.956 . S
H939 C926 0.961 . S
H940 C926 0.961 . S
H941 C927 0.958 . S
H942 C927 0.961 . S
H943 C927 0.960 . S
C944 C945 1.391 . S
C944 C946 1.394 . S
C944 H960 0.931 . S
C945 C944 1.391 . S
C945 C949 1.376 . S
C946 C944 1.394 . S
C946 C947 1.369 . S
C946 C950 1.531 . S
C947 C946 1.369 . S
C947 C948 1.410 . S
C947 C955 1.503 1_545 S
C948 C947 1.410 . S
C948 C949 1.392 . S
C948 C951 1.511 1_545 S
C949 C945 1.376 . S
C949 C948 1.392 . S
C949 H961 0.929 . S
C950 C946 1.531 . S
C950 H962 0.960 . S
C950 H963 0.962 . S
C950 H964 0.960 . S
C951 C948 1.511 1_565 S
C951 H965 0.961 1_565 S
C951 H966 0.961 . S
C951 H967 0.961 . S
C952 C953 1.370 . S
C952 C954 1.363 . S
C952 H968 0.931 . S
C953 C952 1.370 . S
C953 C957 1.408 . S
C954 C952 1.363 . S
C954 C955 1.370 . S
C954 C958 1.524 . S
C955 C947 1.503 1_565 S
C955 C954 1.370 . S
C955 C956 1.403 . S
C956 C955 1.403 . S
C956 C957 1.404 . S
C956 C959 1.539 . S
C957 C953 1.408 . S
C957 C956 1.404 . S
C957 H969 0.930 . S
C958 C954 1.524 . S
C958 H970 0.956 1_565 S
C958 H971 0.961 1_565 S
C958 H972 0.961 . S
C959 C956 1.539 . S
C959 H973 0.958 . S
C959 H974 0.961 . S
C959 H975 0.960 . S
H960 C944 0.931 . S
H961 C949 0.929 . S
H962 C950 0.960 . S
H963 C950 0.962 . S
H964 C950 0.960 . S
H965 C951 0.961 1_545 S
H966 C951 0.961 . S
H967 C951 0.961 . S
H968 C952 0.931 . S
H969 C957 0.930 . S
H970 C958 0.956 1_545 S
H971 C958 0.961 1_545 S
H972 C958 0.961 . S
H973 C959 0.958 . S
H974 C959 0.961 . S
H975 C959 0.960 . S
C976 C977 1.391 . S
C976 C978 1.394 . S
C976 H992 0.931 . S
C977 C976 1.391 . S
C977 C981 1.376 . S
C978 C976 1.394 . S
C978 C979 1.369 . S
C978 C982 1.531 1_455 S
C979 C978 1.369 . S
C979 C980 1.410 . S
C979 C987 1.503 1_455 S
C980 C979 1.410 . S
C980 C981 1.392 . S
C980 C983 1.511 . S
C981 C977 1.376 . S
C981 C980 1.392 . S
C981 H993 0.929 . S
C982 C978 1.531 1_655 S
C982 H994 0.960 . S
C982 H995 0.962 . S
C982 H996 0.960 . S
C983 C980 1.511 . S
C983 H997 0.961 . S
C983 H998 0.961 . S
C983 H999 0.961 . S
C984 C985 1.370 . S
C984 C986 1.363 . S
C984 H1000 0.931 . S
C985 C984 1.370 . S
C985 C989 1.408 . S
C986 C984 1.363 . S
C986 C987 1.370 . S
C986 C990 1.524 . S
C987 C979 1.503 1_655 S
C987 C986 1.370 . S
C987 C988 1.403 . S
C988 C987 1.403 . S
C988 C989 1.404 . S
C988 C991 1.539 . S
C989 C985 1.408 . S
C989 C988 1.404 . S
C989 H1001 0.930 . S
C990 C986 1.524 . S
C990 H1002 0.956 . S
C990 H1003 0.961 1_655 S
C990 H1004 0.961 . S
C991 C988 1.539 . S
C991 H1005 0.958 . S
C991 H1006 0.961 . S
C991 H1007 0.960 1_655 S
H992 C976 0.931 . S
H993 C981 0.929 . S
H994 C982 0.960 . S
H995 C982 0.962 . S
H996 C982 0.960 . S
H997 C983 0.961 . S
H998 C983 0.961 . S
H999 C983 0.961 . S
H1000 C984 0.931 . S
H1001 C989 0.930 . S
H1002 C990 0.956 . S
H1003 C990 0.961 1_455 S
H1004 C990 0.961 . S
H1005 C991 0.958 . S
H1006 C991 0.961 . S
H1007 C991 0.960 1_455 S
C1008 C1009 1.391 . S
C1008 C1010 1.394 . S
C1008 H1024 0.931 . S
C1009 C1008 1.391 . S
C1009 C1013 1.376 . S
C1010 C1008 1.394 . S
C1010 C1011 1.369 . S
C1010 C1014 1.531 . S
C1011 C1010 1.369 . S
C1011 C1012 1.410 . S
C1011 C1019 1.503 . S
C1012 C1011 1.410 . S
C1012 C1013 1.392 . S
C1012 C1015 1.511 . S
C1013 C1009 1.376 . S
C1013 C1012 1.392 . S
C1013 H1025 0.929 . S
C1014 C1010 1.531 . S
C1014 H1026 0.960 . S
C1014 H1027 0.962 . S
C1014 H1028 0.960 . S
C1015 C1012 1.511 . S
C1015 H1029 0.961 . S
C1015 H1030 0.961 . S
C1015 H1031 0.961 . S
C1016 C1017 1.370 . S
C1016 C1018 1.363 . S
C1016 H1032 0.931 . S
C1017 C1016 1.370 . S
C1017 C1021 1.408 . S
C1018 C1016 1.363 . S
C1018 C1019 1.370 . S
C1018 C1022 1.524 . S
C1019 C1011 1.503 . S
C1019 C1018 1.370 . S
C1019 C1020 1.403 . S
C1020 C1019 1.403 . S
C1020 C1021 1.404 . S
C1020 C1023 1.539 . S
C1021 C1017 1.408 . S
C1021 C1020 1.404 . S
C1021 H1033 0.930 . S
C1022 C1018 1.524 . S
C1022 H1034 0.956 . S
C1022 H1035 0.961 . S
C1022 H1036 0.961 . S
C1023 C1020 1.539 . S
C1023 H1037 0.958 . S
C1023 H1038 0.961 . S
C1023 H1039 0.960 . S
H1024 C1008 0.931 . S
H1025 C1013 0.929 . S
H1026 C1014 0.960 . S
H1027 C1014 0.962 . S
H1028 C1014 0.960 . S
H1029 C1015 0.961 . S
H1030 C1015 0.961 . S
H1031 C1015 0.961 . S
H1032 C1016 0.931 . S
H1033 C1021 0.930 . S
H1034 C1022 0.956 . S
H1035 C1022 0.961 . S
H1036 C1022 0.961 . S
H1037 C1023 0.958 . S
H1038 C1023 0.961 . S
H1039 C1023 0.960 . S
C1040 C1041 1.391 . S
C1040 C1042 1.392 . S
C1040 H1056 0.931 . S
C1041 C1040 1.391 . S
C1041 C1045 1.376 . S
C1042 C1040 1.392 . S
C1042 C1043 1.367 . S
C1042 C1046 1.534 1_545 S
C1043 C1042 1.367 . S
C1043 C1044 1.410 . S
C1043 C1051 1.503 1_545 S
C1044 C1043 1.410 . S
C1044 C1045 1.392 . S
C1044 C1047 1.511 . S
C1045 C1041 1.376 . S
C1045 C1044 1.392 . S
C1045 H1057 0.929 . S
C1046 C1042 1.534 1_565 S
C1046 H1058 0.960 . S
C1046 H1059 0.962 . S
C1046 H1060 0.960 . S
C1047 C1044 1.511 . S
C1047 H1061 0.961 . S
C1047 H1062 0.961 . S
C1047 H1063 0.961 . S
C1048 C1049 1.370 . S
C1048 C1050 1.363 . S
C1048 H1064 0.931 . S
C1049 C1048 1.370 . S
C1049 C1053 1.408 . S
C1050 C1048 1.363 . S
C1050 C1051 1.370 . S
C1050 C1054 1.524 . S
C1051 C1043 1.503 1_565 S
C1051 C1050 1.370 . S
C1051 C1052 1.403 1_565 S
C1052 C1051 1.403 1_545 S
C1052 C1053 1.404 1_545 S
C1052 C1055 1.539 . S
C1053 C1049 1.408 . S
C1053 C1052 1.404 1_565 S
C1053 H1065 0.930 . S
C1054 C1050 1.524 . S
C1054 H1066 0.956 . S
C1054 H1067 0.961 . S
C1054 H1068 0.961 . S
C1055 C1052 1.539 . S
C1055 H1069 0.958 . S
C1055 H1070 0.961 . S
C1055 H1071 0.960 . S
H1056 C1040 0.931 . S
H1057 C1045 0.929 . S
H1058 C1046 0.960 . S
H1059 C1046 0.962 . S
H1060 C1046 0.960 . S
H1061 C1047 0.961 . S
H1062 C1047 0.961 . S
H1063 C1047 0.961 . S
H1064 C1048 0.931 . S
H1065 C1053 0.930 . S
H1066 C1054 0.956 . S
H1067 C1054 0.961 . S
H1068 C1054 0.961 . S
H1069 C1055 0.958 . S
H1070 C1055 0.961 . S
H1071 C1055 0.960 . S
C1072 C1073 1.391 . S
C1072 C1074 1.394 1_455 S
C1072 H1088 0.931 1_455 S
C1073 C1072 1.391 . S
C1073 C1077 1.376 . S
C1074 C1072 1.394 1_655 S
C1074 C1075 1.369 1_655 S
C1074 C1078 1.531 . S
C1075 C1074 1.369 1_455 S
C1075 C1076 1.410 . S
C1075 C1083 1.503 1_445 S
C1076 C1075 1.410 . S
C1076 C1077 1.392 . S
C1076 C1079 1.500 1_545 S
C1077 C1073 1.376 . S
C1077 C1076 1.392 . S
C1077 H1089 0.929 . S
C1078 C1074 1.531 . S
C1078 H1090 0.960 . S
C1078 H1091 0.962 . S
C1078 H1092 0.960 . S
C1079 C1076 1.500 1_565 S
C1079 H1093 0.953 1_565 S
C1079 H1094 0.974 . S
C1079 H1095 0.967 . S
C1080 C1081 1.370 . S
C1080 C1082 1.363 . S
C1080 H1096 0.931 . S
C1081 C1080 1.370 . S
C1081 C1085 1.408 . S
C1082 C1080 1.363 . S
C1082 C1083 1.370 . S
C1082 C1086 1.547 . S
C1083 C1075 1.503 1_665 S
C1083 C1082 1.370 . S
C1083 C1084 1.403 1_655 S
C1084 C1083 1.403 1_455 S
C1084 C1085 1.404 1_455 S
C1084 C1087 1.539 . S
C1085 C1081 1.408 . S
C1085 C1084 1.404 1_655 S
C1085 H1097 0.930 1_655 S
C1086 C1082 1.547 . S
C1086 H1098 0.932 1_565 S
C1086 H1099 0.947 1_565 S
C1086 H1100 0.976 . S
C1087 C1084 1.539 . S
C1087 H1101 0.958 . S
C1087 H1102 0.961 . S
C1087 H1103 0.960 . S
H1088 C1072 0.931 1_655 S
H1089 C1077 0.929 . S
H1090 C1078 0.960 . S
H1091 C1078 0.962 . S
H1092 C1078 0.960 . S
H1093 C1079 0.953 1_545 S
H1094 C1079 0.974 . S
H1095 C1079 0.967 . S
H1096 C1080 0.931 . S
H1097 C1085 0.930 1_455 S
H1098 C1086 0.932 1_545 S
H1099 C1086 0.947 1_545 S
H1100 C1086 0.976 . S
H1101 C1087 0.958 . S
H1102 C1087 0.961 . S
H1103 C1087 0.960 . S
C1104 C1105 1.391 . S
C1104 C1106 1.394 . S
C1104 H1120 0.931 . S
C1105 C1104 1.391 . S
C1105 C1109 1.376 . S
C1106 C1104 1.394 . S
C1106 C1107 1.369 . S
C1106 C1110 1.531 . S
C1107 C1106 1.369 . S
C1107 C1108 1.410 1_565 S
C1107 C1115 1.503 1_565 S
C1108 C1107 1.410 1_545 S
C1108 C1109 1.392 1_545 S
C1108 C1111 1.511 . S
C1109 C1105 1.376 . S
C1109 C1108 1.392 1_565 S
C1109 H1121 0.929 . S
C1110 C1106 1.531 . S
C1110 H1122 0.960 . S
C1110 H1123 0.962 . S
C1110 H1124 0.960 . S
C1111 C1108 1.511 . S
C1111 H1125 0.961 . S
C1111 H1126 0.961 . S
C1111 H1127 0.961 . S
C1112 C1113 1.370 . S
C1112 C1114 1.363 . S
C1112 H1128 0.931 . S
C1113 C1112 1.370 . S
C1113 C1117 1.408 . S
C1114 C1112 1.363 . S
C1114 C1115 1.370 . S
C1114 C1118 1.524 . S
C1115 C1107 1.503 1_545 S
C1115 C1114 1.370 . S
C1115 C1116 1.403 . S
C1116 C1115 1.403 . S
C1116 C1117 1.404 . S
C1116 C1119 1.539 1_545 S
C1117 C1113 1.408 . S
C1117 C1116 1.404 . S
C1117 H1129 0.930 . S
C1118 C1114 1.524 . S
C1118 H1130 0.956 . S
C1118 H1131 0.961 . S
C1118 H1132 0.961 . S
C1119 C1116 1.539 1_565 S
C1119 H1133 0.958 . S
C1119 H1134 0.963 1_565 S
C1119 H1135 0.960 . S
H1120 C1104 0.931 . S
H1121 C1109 0.929 . S
H1122 C1110 0.960 . S
H1123 C1110 0.962 . S
H1124 C1110 0.960 . S
H1125 C1111 0.961 . S
H1126 C1111 0.961 . S
H1127 C1111 0.961 . S
H1128 C1112 0.931 . S
H1129 C1117 0.930 . S
H1130 C1118 0.956 . S
H1131 C1118 0.961 . S
H1132 C1118 0.961 . S
H1133 C1119 0.958 . S
H1134 C1119 0.963 1_545 S
H1135 C1119 0.960 . S
C1136 C1137 1.382 1_455 S
C1136 C1138 1.397 . S
C1136 H1152 0.936 . S
C1137 C1136 1.382 1_655 S
C1137 C1141 1.376 . S
C1138 C1136 1.397 . S
C1138 C1139 1.369 1_455 S
C1138 C1142 1.531 . S
C1139 C1138 1.369 1_655 S
C1139 C1140 1.410 . S
C1139 C1147 1.503 1_665 S
C1140 C1139 1.410 . S
C1140 C1141 1.392 . S
C1140 C1143 1.511 1_565 S
C1141 C1137 1.376 . S
C1141 C1140 1.392 . S
C1141 H1153 0.929 . S
C1142 C1138 1.531 . S
C1142 H1154 0.960 . S
C1142 H1155 0.962 . S
C1142 H1156 0.960 . S
C1143 C1140 1.511 1_545 S
C1143 H1157 0.961 . S
C1143 H1158 0.961 . S
C1143 H1159 0.961 . S
C1144 C1145 1.370 . S
C1144 C1146 1.363 . S
C1144 H1160 0.931 . S
C1145 C1144 1.370 . S
C1145 C1149 1.408 . S
C1146 C1144 1.363 . S
C1146 C1147 1.370 . S
C1146 C1150 1.516 1_455 S
C1147 C1139 1.503 1_445 S
C1147 C1146 1.370 . S
C1147 C1148 1.403 . S
C1148 C1147 1.403 . S
C1148 C1149 1.404 . S
C1148 C1151 1.539 . S
C1149 C1145 1.408 . S
C1149 C1148 1.404 . S
C1149 H1161 0.930 . S
C1150 C1146 1.516 1_655 S
C1150 H1162 0.940 1_645 S
C1150 H1163 0.988 . S
C1150 H1164 0.959 1_655 S
C1151 C1148 1.539 . S
C1151 H1165 0.958 . S
C1151 H1166 0.961 . S
C1151 H1167 0.960 1_455 S
H1152 C1136 0.936 . S
H1153 C1141 0.929 . S
H1154 C1142 0.960 . S
H1155 C1142 0.962 . S
H1156 C1142 0.960 . S
H1157 C1143 0.961 . S
H1158 C1143 0.961 . S
H1159 C1143 0.961 . S
H1160 C1144 0.931 . S
H1161 C1149 0.930 . S
H1162 C1150 0.940 1_465 S
H1163 C1150 0.988 . S
H1164 C1150 0.959 1_455 S
H1165 C1151 0.958 . S
H1166 C1151 0.961 . S
H1167 C1151 0.960 1_655 S
C1168 C1169 1.391 . S
C1168 C1170 1.394 . S
C1168 H1184 0.931 . S
C1169 C1168 1.391 . S
C1169 C1173 1.376 . S
C1170 C1168 1.394 . S
C1170 C1171 1.369 . S
C1170 C1174 1.531 . S
C1171 C1170 1.369 . S
C1171 C1172 1.410 . S
C1171 C1179 1.503 1_455 S
C1172 C1171 1.410 . S
C1172 C1173 1.392 . S
C1172 C1175 1.511 1_455 S
C1173 C1169 1.376 . S
C1173 C1172 1.392 . S
C1173 H1185 0.929 . S
C1174 C1170 1.531 . S
C1174 H1186 0.960 . S
C1174 H1187 0.962 . S
C1174 H1188 0.960 . S
C1175 C1172 1.511 1_655 S
C1175 H1189 0.961 . S
C1175 H1190 0.961 . S
C1175 H1191 0.961 . S
C1176 C1177 1.370 . S
C1176 C1178 1.363 . S
C1176 H1192 0.931 . S
C1177 C1176 1.370 . S
C1177 C1181 1.408 . S
C1178 C1176 1.363 . S
C1178 C1179 1.370 . S
C1178 C1182 1.524 1_655 S
C1179 C1171 1.503 1_655 S
C1179 C1178 1.370 . S
C1179 C1180 1.403 . S
C1180 C1179 1.403 . S
C1180 C1181 1.404 . S
C1180 C1183 1.539 . S
C1181 C1177 1.408 . S
C1181 C1180 1.404 . S
C1181 H1193 0.930 . S
C1182 C1178 1.524 1_455 S
C1182 H1194 0.956 . S
C1182 H1195 0.961 . S
C1182 H1196 0.961 1_455 S
C1183 C1180 1.539 . S
C1183 H1197 0.958 . S
C1183 H1198 0.961 . S
C1183 H1199 0.960 . S
H1184 C1168 0.931 . S
H1185 C1173 0.929 . S
H1186 C1174 0.960 . S
H1187 C1174 0.962 . S
H1188 C1174 0.960 . S
H1189 C1175 0.961 . S
H1190 C1175 0.961 . S
H1191 C1175 0.961 . S
H1192 C1176 0.931 . S
H1193 C1181 0.930 . S
H1194 C1182 0.956 . S
H1195 C1182 0.961 . S
H1196 C1182 0.961 1_655 S
H1197 C1183 0.958 . S
H1198 C1183 0.961 . S
H1199 C1183 0.960 . S
C1200 C1201 1.391 . S
C1200 C1202 1.394 . S
C1200 H1216 0.931 . S
C1201 C1200 1.391 . S
C1201 C1205 1.376 . S
C1202 C1200 1.394 . S
C1202 C1203 1.369 . S
C1202 C1206 1.531 . S
C1203 C1202 1.369 . S
C1203 C1204 1.410 . S
C1203 C1211 1.503 . S
C1204 C1203 1.410 . S
C1204 C1205 1.392 . S
C1204 C1207 1.511 . S
C1205 C1201 1.376 . S
C1205 C1204 1.392 . S
C1205 H1217 0.929 . S
C1206 C1202 1.531 . S
C1206 H1218 0.960 . S
C1206 H1219 0.962 . S
C1206 H1220 0.960 . S
C1207 C1204 1.511 . S
C1207 H1221 0.961 . S
C1207 H1222 0.961 . S
C1207 H1223 0.961 . S
C1208 C1209 1.370 . S
C1208 C1210 1.363 . S
C1208 H1224 0.931 . S
C1209 C1208 1.370 . S
C1209 C1213 1.408 . S
C1210 C1208 1.363 . S
C1210 C1211 1.370 . S
C1210 C1214 1.524 . S
C1211 C1203 1.503 . S
C1211 C1210 1.370 . S
C1211 C1212 1.403 . S
C1212 C1211 1.403 . S
C1212 C1213 1.404 . S
C1212 C1215 1.539 . S
C1213 C1209 1.408 . S
C1213 C1212 1.404 . S
C1213 H1225 0.930 . S
C1214 C1210 1.524 . S
C1214 H1226 0.956 . S
C1214 H1227 0.961 . S
C1214 H1228 0.961 . S
C1215 C1212 1.539 . S
C1215 H1229 0.958 . S
C1215 H1230 0.961 . S
C1215 H1231 0.960 . S
H1216 C1200 0.931 . S
H1217 C1205 0.929 . S
H1218 C1206 0.960 . S
H1219 C1206 0.962 . S
H1220 C1206 0.960 . S
H1221 C1207 0.961 . S
H1222 C1207 0.961 . S
H1223 C1207 0.961 . S
H1224 C1208 0.931 . S
H1225 C1213 0.930 . S
H1226 C1214 0.956 . S
H1227 C1214 0.961 . S
H1228 C1214 0.961 . S
H1229 C1215 0.958 . S
H1230 C1215 0.961 . S
H1231 C1215 0.960 . S
C1232 C1233 1.391 . S
C1232 C1234 1.394 . S
C1232 H1248 0.931 . S
C1233 C1232 1.391 . S
C1233 C1237 1.376 . S
C1234 C1232 1.394 . S
C1234 C1235 1.369 . S
C1234 C1238 1.531 . S
C1235 C1234 1.369 . S
C1235 C1236 1.410 . S
C1235 C1243 1.503 . S
C1236 C1235 1.410 . S
C1236 C1237 1.392 . S
C1236 C1239 1.511 . S
C1237 C1233 1.376 . S
C1237 C1236 1.392 . S
C1237 H1249 0.929 . S
C1238 C1234 1.531 . S
C1238 H1250 0.960 . S
C1238 H1251 0.962 . S
C1238 H1252 0.960 . S
C1239 C1236 1.511 . S
C1239 H1253 0.961 . S
C1239 H1254 0.961 . S
C1239 H1255 0.961 . S
C1240 C1241 1.370 . S
C1240 C1242 1.363 . S
C1240 H1256 0.931 . S
C1241 C1240 1.370 . S
C1241 C1245 1.408 . S
C1242 C1240 1.363 . S
C1242 C1243 1.370 . S
C1242 C1246 1.524 . S
C1243 C1235 1.503 . S
C1243 C1242 1.370 . S
C1243 C1244 1.403 . S
C1244 C1243 1.403 . S
C1244 C1245 1.404 . S
C1244 C1247 1.539 . S
C1245 C1241 1.408 . S
C1245 C1244 1.404 . S
C1245 H1257 0.930 . S
C1246 C1242 1.524 . S
C1246 H1258 0.956 . S
C1246 H1259 0.961 . S
C1246 H1260 0.961 . S
C1247 C1244 1.539 . S
C1247 H1261 0.958 . S
C1247 H1262 0.961 . S
C1247 H1263 0.960 . S
H1248 C1232 0.931 . S
H1249 C1237 0.929 . S
H1250 C1238 0.960 . S
H1251 C1238 0.962 . S
H1252 C1238 0.960 . S
H1253 C1239 0.961 . S
H1254 C1239 0.961 . S
H1255 C1239 0.961 . S
H1256 C1240 0.931 . S
H1257 C1245 0.930 . S
H1258 C1246 0.956 . S
H1259 C1246 0.961 . S
H1260 C1246 0.961 . S
H1261 C1247 0.958 . S
H1262 C1247 0.961 . S
H1263 C1247 0.960 . S
C1264 C1265 1.391 . S
C1264 C1266 1.394 . S
C1264 H1280 0.931 . S
C1265 C1264 1.391 . S
C1265 C1269 1.376 . S
C1266 C1264 1.394 . S
C1266 C1267 1.369 . S
C1266 C1270 1.531 . S
C1267 C1266 1.369 . S
C1267 C1268 1.410 . S
C1267 C1275 1.503 1_565 S
C1268 C1267 1.410 . S
C1268 C1269 1.392 . S
C1268 C1271 1.511 1_565 S
C1269 C1265 1.376 . S
C1269 C1268 1.392 . S
C1269 H1281 0.929 . S
C1270 C1266 1.531 . S
C1270 H1282 0.960 . S
C1270 H1283 0.962 . S
C1270 H1284 0.960 . S
C1271 C1268 1.511 1_545 S
C1271 H1285 0.961 1_545 S
C1271 H1286 0.961 . S
C1271 H1287 0.961 . S
C1272 C1273 1.370 . S
C1272 C1274 1.363 . S
C1272 H1288 0.931 . S
C1273 C1272 1.370 . S
C1273 C1277 1.408 . S
C1274 C1272 1.363 . S
C1274 C1275 1.370 . S
C1274 C1278 1.524 1_545 S
C1275 C1267 1.503 1_545 S
C1275 C1274 1.370 . S
C1275 C1276 1.403 . S
C1276 C1275 1.403 . S
C1276 C1277 1.404 . S
C1276 C1279 1.539 . S
C1277 C1273 1.408 . S
C1277 C1276 1.404 . S
C1277 H1289 0.930 . S
C1278 C1274 1.524 1_565 S
C1278 H1290 0.956 . S
C1278 H1291 0.961 . S
C1278 H1292 0.961 1_565 S
C1279 C1276 1.539 . S
C1279 H1293 0.958 . S
C1279 H1294 0.961 . S
C1279 H1295 0.960 . S
H1280 C1264 0.931 . S
H1281 C1269 0.929 . S
H1282 C1270 0.960 . S
H1283 C1270 0.962 . S
H1284 C1270 0.960 . S
H1285 C1271 0.961 1_565 S
H1286 C1271 0.961 . S
H1287 C1271 0.961 . S
H1288 C1272 0.931 . S
H1289 C1277 0.930 . S
H1290 C1278 0.956 . S
H1291 C1278 0.961 . S
H1292 C1278 0.961 1_545 S
H1293 C1279 0.958 . S
H1294 C1279 0.961 . S
H1295 C1279 0.960 . S
C1296 C1297 1.391 . S
C1296 C1298 1.394 1_565 S
C1296 H1312 0.931 . S
C1297 C1296 1.391 . S
C1297 C1301 1.376 . S
C1298 C1296 1.394 1_545 S
C1298 C1299 1.369 1_545 S
C1298 C1302 1.531 . S
C1299 C1298 1.369 1_565 S
C1299 C1300 1.410 . S
C1299 C1307 1.503 1_665 S
C1300 C1299 1.410 . S
C1300 C1301 1.392 . S
C1300 C1303 1.511 1_655 S
C1301 C1297 1.376 . S
C1301 C1300 1.392 . S
C1301 H1313 0.929 . S
C1302 C1298 1.531 . S
C1302 H1314 0.960 . S
C1302 H1315 0.962 . S
C1302 H1316 0.960 . S
C1303 C1300 1.511 1_455 S
C1303 H1317 0.961 . S
C1303 H1318 0.961 . S
C1303 H1319 0.961 . S
C1304 C1305 1.370 . S
C1304 C1306 1.363 . S
C1304 H1320 0.931 . S
C1305 C1304 1.370 . S
C1305 C1309 1.408 . S
C1306 C1304 1.363 . S
C1306 C1307 1.370 . S
C1306 C1310 1.524 1_545 S
C1307 C1299 1.503 1_445 S
C1307 C1306 1.370 . S
C1307 C1308 1.403 . S
C1308 C1307 1.403 . S
C1308 C1309 1.404 . S
C1308 C1311 1.539 1_455 S
C1309 C1305 1.408 . S
C1309 C1308 1.404 . S
C1309 H1321 0.930 . S
C1310 C1306 1.524 1_565 S
C1310 H1322 0.956 . S
C1310 H1323 0.961 . S
C1310 H1324 0.961 . S
C1311 C1308 1.539 1_655 S
C1311 H1325 0.958 . S
C1311 H1326 0.961 1_655 S
C1311 H1327 0.960 . S
H1312 C1296 0.931 . S
H1313 C1301 0.929 . S
H1314 C1302 0.960 . S
H1315 C1302 0.962 . S
H1316 C1302 0.960 . S
H1317 C1303 0.961 . S
H1318 C1303 0.961 . S
H1319 C1303 0.961 . S
H1320 C1304 0.931 . S
H1321 C1309 0.930 . S
H1322 C1310 0.956 . S
H1323 C1310 0.961 . S
H1324 C1310 0.961 . S
H1325 C1311 0.958 . S
H1326 C1311 0.961 1_455 S
H1327 C1311 0.960 . S
C1328 C1329 1.391 . S
C1328 C1330 1.394 . S
C1328 H1344 0.931 . S
C1329 C1328 1.391 . S
C1329 C1333 1.376 . S
C1330 C1328 1.394 . S
C1330 C1331 1.369 . S
C1330 C1334 1.531 1_455 S
C1331 C1330 1.369 . S
C1331 C1332 1.410 . S
C1331 C1339 1.503 1_455 S
C1332 C1331 1.410 . S
C1332 C1333 1.392 . S
C1332 C1335 1.511 . S
C1333 C1329 1.376 . S
C1333 C1332 1.392 . S
C1333 H1345 0.929 . S
C1334 C1330 1.531 1_655 S
C1334 H1346 0.960 . S
C1334 H1347 0.962 . S
C1334 H1348 0.960 . S
C1335 C1332 1.511 . S
C1335 H1349 0.961 . S
C1335 H1350 0.961 . S
C1335 H1351 0.961 . S
C1336 C1337 1.370 . S
C1336 C1338 1.363 . S
C1336 H1352 0.931 . S
C1337 C1336 1.370 . S
C1337 C1341 1.408 . S
C1338 C1336 1.363 . S
C1338 C1339 1.370 . S
C1338 C1342 1.524 . S
C1339 C1331 1.503 1_655 S
C1339 C1338 1.370 . S
C1339 C1340 1.403 1_655 S
C1340 C1339 1.403 1_455 S
C1340 C1341 1.404 1_455 S
C1340 C1343 1.539 . S
C1341 C1337 1.408 . S
C1341 C1340 1.404 1_655 S
C1341 H1353 0.930 1_655 S
C1342 C1338 1.524 . S
C1342 H1354 0.956 . S
C1342 H1355 0.961 . S
C1342 H1356 0.961 . S
C1343 C1340 1.539 . S
C1343 H1357 0.958 . S
C1343 H1358 0.961 . S
C1343 H1359 0.960 . S
H1344 C1328 0.931 . S
H1345 C1333 0.929 . S
H1346 C1334 0.960 . S
H1347 C1334 0.962 . S
H1348 C1334 0.960 . S
H1349 C1335 0.961 . S
H1350 C1335 0.961 . S
H1351 C1335 0.961 . S
H1352 C1336 0.931 . S
H1353 C1341 0.930 1_455 S
H1354 C1342 0.956 . S
H1355 C1342 0.961 . S
H1356 C1342 0.961 . S
H1357 C1343 0.958 . S
H1358 C1343 0.961 . S
H1359 C1343 0.960 . S
C1360 C1361 1.391 . S
C1360 C1362 1.394 . S
C1360 H1376 0.931 . S
C1361 C1360 1.391 . S
C1361 C1365 1.376 . S
C1362 C1360 1.394 . S
C1362 C1363 1.369 . S
C1362 C1366 1.532 . S
C1363 C1362 1.369 . S
C1363 C1364 1.410 . S
C1363 C1371 1.503 . S
C1364 C1363 1.410 . S
C1364 C1365 1.392 . S
C1364 C1367 1.511 . S
C1365 C1361 1.376 . S
C1365 C1364 1.392 . S
C1365 H1377 0.929 . S
C1366 C1362 1.532 . S
C1366 H1378 0.959 1_545 S
C1366 H1379 0.964 . S
C1366 H1380 0.958 1_545 S
C1367 C1364 1.511 . S
C1367 H1381 0.961 . S
C1367 H1382 0.961 . S
C1367 H1383 0.961 . S
C1368 C1369 1.370 . S
C1368 C1370 1.363 . S
C1368 H1384 0.931 . S
C1369 C1368 1.370 . S
C1369 C1373 1.408 1_545 S
C1370 C1368 1.363 . S
C1370 C1371 1.370 . S
C1370 C1374 1.524 . S
C1371 C1363 1.503 . S
C1371 C1370 1.370 . S
C1371 C1372 1.403 1_545 S
C1372 C1371 1.403 1_565 S
C1372 C1373 1.404 . S
C1372 C1375 1.539 . S
C1373 C1369 1.408 1_565 S
C1373 C1372 1.404 . S
C1373 H1385 0.930 . S
C1374 C1370 1.524 . S
C1374 H1386 0.956 . S
C1374 H1387 0.961 . S
C1374 H1388 0.961 . S
C1375 C1372 1.539 . S
C1375 H1389 0.958 . S
C1375 H1390 0.961 . S
C1375 H1391 0.960 . S
H1376 C1360 0.931 . S
H1377 C1365 0.929 . S
H1378 C1366 0.959 1_565 S
H1379 C1366 0.964 . S
H1380 C1366 0.958 1_565 S
H1381 C1367 0.961 . S
H1382 C1367 0.961 . S
H1383 C1367 0.961 . S
H1384 C1368 0.931 . S
H1385 C1373 0.930 . S
H1386 C1374 0.956 . S
H1387 C1374 0.961 . S
H1388 C1374 0.961 . S
H1389 C1375 0.958 . S
H1390 C1375 0.961 . S
H1391 C1375 0.960 . S
C1392 C1393 1.391 . S
C1392 C1394 1.394 . S
C1392 H1408 0.931 . S
C1393 C1392 1.391 . S
C1393 C1397 1.376 1_655 S
C1394 C1392 1.394 . S
C1394 C1395 1.369 . S
C1394 C1398 1.531 . S
C1395 C1394 1.369 . S
C1395 C1396 1.410 1_655 S
C1395 C1403 1.503 . S
C1396 C1395 1.410 1_455 S
C1396 C1397 1.392 . S
C1396 C1399 1.511 . S
C1397 C1393 1.376 1_455 S
C1397 C1396 1.392 . S
C1397 H1409 0.929 . S
C1398 C1394 1.531 . S
C1398 H1410 0.960 . S
C1398 H1411 0.962 . S
C1398 H1412 0.960 . S
C1399 C1396 1.511 . S
C1399 H1413 0.961 . S
C1399 H1414 0.961 . S
C1399 H1415 0.961 . S
C1400 C1401 1.370 . S
C1400 C1402 1.363 . S
C1400 H1416 0.931 . S
C1401 C1400 1.370 . S
C1401 C1405 1.408 . S
C1402 C1400 1.363 . S
C1402 C1403 1.370 . S
C1402 C1406 1.524 . S
C1403 C1395 1.503 . S
C1403 C1402 1.370 . S
C1403 C1404 1.403 . S
C1404 C1403 1.403 . S
C1404 C1405 1.404 . S
C1404 C1407 1.539 . S
C1405 C1401 1.408 . S
C1405 C1404 1.404 . S
C1405 H1417 0.930 . S
C1406 C1402 1.524 . S
C1406 H1418 0.956 . S
C1406 H1419 0.961 . S
C1406 H1420 0.961 . S
C1407 C1404 1.539 . S
C1407 H1421 0.958 . S
C1407 H1422 0.961 1_655 S
C1407 H1423 0.960 1_655 S
H1408 C1392 0.931 . S
H1409 C1397 0.929 . S
H1410 C1398 0.960 . S
H1411 C1398 0.962 . S
H1412 C1398 0.960 . S
H1413 C1399 0.961 . S
H1414 C1399 0.961 . S
H1415 C1399 0.961 . S
H1416 C1400 0.931 . S
H1417 C1405 0.930 . S
H1418 C1406 0.956 . S
H1419 C1406 0.961 . S
H1420 C1406 0.961 . S
H1421 C1407 0.958 . S
H1422 C1407 0.961 1_455 S
H1423 C1407 0.960 1_455 S
C1424 C1425 1.391 . S
C1424 C1426 1.394 . S
C1424 H1440 0.931 . S
C1425 C1424 1.391 . S
C1425 C1429 1.376 . S
C1426 C1424 1.394 . S
C1426 C1427 1.369 . S
C1426 C1430 1.531 . S
C1427 C1426 1.369 . S
C1427 C1428 1.410 . S
C1427 C1435 1.503 . S
C1428 C1427 1.410 . S
C1428 C1429 1.392 . S
C1428 C1431 1.511 . S
C1429 C1425 1.376 . S
C1429 C1428 1.392 . S
C1429 H1441 0.929 . S
C1430 C1426 1.531 . S
C1430 H1442 0.960 . S
C1430 H1443 0.962 . S
C1430 H1444 0.960 . S
C1431 C1428 1.511 . S
C1431 H1445 0.961 . S
C1431 H1446 0.961 . S
C1431 H1447 0.961 . S
C1432 C1433 1.370 . S
C1432 C1434 1.363 . S
C1432 H1448 0.931 . S
C1433 C1432 1.370 . S
C1433 C1437 1.408 . S
C1434 C1432 1.363 . S
C1434 C1435 1.370 . S
C1434 C1438 1.524 . S
C1435 C1427 1.503 . S
C1435 C1434 1.370 . S
C1435 C1436 1.403 . S
C1436 C1435 1.403 . S
C1436 C1437 1.404 . S
C1436 C1439 1.539 . S
C1437 C1433 1.408 . S
C1437 C1436 1.404 . S
C1437 H1449 0.930 . S
C1438 C1434 1.524 . S
C1438 H1450 0.956 . S
C1438 H1451 0.961 . S
C1438 H1452 0.961 . S
C1439 C1436 1.539 . S
C1439 H1453 0.958 . S
C1439 H1454 0.961 . S
C1439 H1455 0.960 . S
H1440 C1424 0.931 . S
H1441 C1429 0.929 . S
H1442 C1430 0.960 . S
H1443 C1430 0.962 . S
H1444 C1430 0.960 . S
H1445 C1431 0.961 . S
H1446 C1431 0.961 . S
H1447 C1431 0.961 . S
H1448 C1432 0.931 . S
H1449 C1437 0.930 . S
H1450 C1438 0.956 . S
H1451 C1438 0.961 . S
H1452 C1438 0.961 . S
H1453 C1439 0.958 . S
H1454 C1439 0.961 . S
H1455 C1439 0.960 . S
C1456 C1457 1.391 . S
C1456 C1458 1.394 . S
C1456 H1472 0.931 . S
C1457 C1456 1.391 . S
C1457 C1461 1.376 . S
C1458 C1456 1.394 . S
C1458 C1459 1.369 . S
C1458 C1462 1.531 . S
C1459 C1458 1.369 . S
C1459 C1460 1.410 . S
C1459 C1467 1.503 . S
C1460 C1459 1.410 . S
C1460 C1461 1.392 . S
C1460 C1463 1.511 . S
C1461 C1457 1.376 . S
C1461 C1460 1.392 . S
C1461 H1473 0.929 . S
C1462 C1458 1.531 . S
C1462 H1474 0.960 . S
C1462 H1475 0.962 . S
C1462 H1476 0.960 . S
C1463 C1460 1.511 . S
C1463 H1477 0.961 . S
C1463 H1478 0.961 . S
C1463 H1479 0.961 . S
C1464 C1465 1.370 . S
C1464 C1466 1.363 . S
C1464 H1480 0.931 . S
C1465 C1464 1.370 . S
C1465 C1469 1.408 . S
C1466 C1464 1.363 . S
C1466 C1467 1.370 . S
C1466 C1470 1.524 . S
C1467 C1459 1.503 . S
C1467 C1466 1.370 . S
C1467 C1468 1.403 . S
C1468 C1467 1.403 . S
C1468 C1469 1.404 . S
C1468 C1471 1.539 . S
C1469 C1465 1.408 . S
C1469 C1468 1.404 . S
C1469 H1481 0.930 . S
C1470 C1466 1.524 . S
C1470 H1482 0.956 . S
C1470 H1483 0.961 . S
C1470 H1484 0.961 . S
C1471 C1468 1.539 . S
C1471 H1485 0.958 . S
C1471 H1486 0.961 . S
C1471 H1487 0.960 . S
H1472 C1456 0.931 . S
H1473 C1461 0.929 . S
H1474 C1462 0.960 . S
H1475 C1462 0.962 . S
H1476 C1462 0.960 . S
H1477 C1463 0.961 . S
H1478 C1463 0.961 . S
H1479 C1463 0.961 . S
H1480 C1464 0.931 . S
H1481 C1469 0.930 . S
H1482 C1470 0.956 . S
H1483 C1470 0.961 . S
H1484 C1470 0.961 . S
H1485 C1471 0.958 . S
H1486 C1471 0.961 . S
H1487 C1471 0.960 . S
C1488 C1489 1.391 . S
C1488 C1490 1.394 . S
C1488 H1504 0.931 . S
C1489 C1488 1.391 . S
C1489 C1493 1.376 . S
C1490 C1488 1.394 . S
C1490 C1491 1.369 . S
C1490 C1494 1.531 . S
C1491 C1490 1.369 . S
C1491 C1492 1.410 . S
C1491 C1499 1.503 . S
C1492 C1491 1.410 . S
C1492 C1493 1.392 . S
C1492 C1495 1.511 . S
C1493 C1489 1.376 . S
C1493 C1492 1.392 . S
C1493 H1505 0.929 . S
C1494 C1490 1.531 . S
C1494 H1506 0.960 . S
C1494 H1507 0.962 . S
C1494 H1508 0.960 . S
C1495 C1492 1.511 . S
C1495 H1509 0.961 . S
C1495 H1510 0.961 . S
C1495 H1511 0.961 . S
C1496 C1497 1.370 . S
C1496 C1498 1.363 . S
C1496 H1512 0.931 . S
C1497 C1496 1.370 . S
C1497 C1501 1.408 . S
C1498 C1496 1.363 . S
C1498 C1499 1.370 . S
C1498 C1502 1.524 . S
C1499 C1491 1.503 . S
C1499 C1498 1.370 . S
C1499 C1500 1.403 . S
C1500 C1499 1.403 . S
C1500 C1501 1.404 . S
C1500 C1503 1.539 . S
C1501 C1497 1.408 . S
C1501 C1500 1.404 . S
C1501 H1513 0.930 . S
C1502 C1498 1.524 . S
C1502 H1514 0.956 . S
C1502 H1515 0.961 . S
C1502 H1516 0.961 . S
C1503 C1500 1.539 . S
C1503 H1517 0.958 . S
C1503 H1518 0.961 . S
C1503 H1519 0.960 . S
H1504 C1488 0.931 . S
H1505 C1493 0.929 . S
H1506 C1494 0.960 . S
H1507 C1494 0.962 . S
H1508 C1494 0.960 . S
H1509 C1495 0.961 . S
H1510 C1495 0.961 . S
H1511 C1495 0.961 . S
H1512 C1496 0.931 . S
H1513 C1501 0.930 . S
H1514 C1502 0.956 . S
H1515 C1502 0.961 . S
H1516 C1502 0.961 . S
H1517 C1503 0.958 . S
H1518 C1503 0.961 . S
H1519 C1503 0.960 . S
C1520 C1521 1.391 . S
C1520 C1522 1.394 . S
C1520 H1536 0.931 . S
C1521 C1520 1.391 . S
C1521 C1525 1.376 . S
C1522 C1520 1.394 . S
C1522 C1523 1.369 . S
C1522 C1526 1.531 . S
C1523 C1522 1.369 . S
C1523 C1524 1.410 . S
C1523 C1531 1.503 . S
C1524 C1523 1.410 . S
C1524 C1525 1.392 . S
C1524 C1527 1.511 . S
C1525 C1521 1.376 . S
C1525 C1524 1.392 . S
C1525 H1537 0.929 . S
C1526 C1522 1.531 . S
C1526 H1538 0.960 . S
C1526 H1539 0.962 . S
C1526 H1540 0.960 . S
C1527 C1524 1.511 . S
C1527 H1541 0.961 . S
C1527 H1542 0.961 . S
C1527 H1543 0.961 . S
C1528 C1529 1.370 . S
C1528 C1530 1.363 . S
C1528 H1544 0.931 . S
C1529 C1528 1.370 . S
C1529 C1533 1.408 . S
C1530 C1528 1.363 . S
C1530 C1531 1.370 . S
C1530 C1534 1.524 . S
C1531 C1523 1.503 . S
C1531 C1530 1.370 . S
C1531 C1532 1.403 . S
C1532 C1531 1.403 . S
C1532 C1533 1.404 . S
C1532 C1535 1.539 . S
C1533 C1529 1.408 . S
C1533 C1532 1.404 . S
C1533 H1545 0.930 . S
C1534 C1530 1.524 . S
C1534 H1546 0.956 . S
C1534 H1547 0.961 . S
C1534 H1548 0.961 . S
C1535 C1532 1.539 . S
C1535 H1549 0.958 . S
C1535 H1550 0.961 . S
C1535 H1551 0.960 . S
H1536 C1520 0.931 . S
H1537 C1525 0.929 . S
H1538 C1526 0.960 . S
H1539 C1526 0.962 . S
H1540 C1526 0.960 . S
H1541 C1527 0.961 . S
H1542 C1527 0.961 . S
H1543 C1527 0.961 . S
H1544 C1528 0.931 . S
H1545 C1533 0.930 . S
H1546 C1534 0.956 . S
H1547 C1534 0.961 . S
H1548 C1534 0.961 . S
H1549 C1535 0.958 . S
H1550 C1535 0.961 . S
H1551 C1535 0.960 . S
C1552 C1553 1.391 . S
C1552 C1554 1.394 . S
C1552 H1568 0.931 . S
C1553 C1552 1.391 . S
C1553 C1557 1.376 . S
C1554 C1552 1.394 . S
C1554 C1555 1.369 . S
C1554 C1558 1.531 . S
C1555 C1554 1.369 . S
C1555 C1556 1.410 . S
C1555 C1563 1.503 . S
C1556 C1555 1.410 . S
C1556 C1557 1.392 . S
C1556 C1559 1.511 1_565 S
C1557 C1553 1.376 . S
C1557 C1556 1.392 . S
C1557 H1569 0.929 1_565 S
C1558 C1554 1.531 . S
C1558 H1570 0.960 . S
C1558 H1571 0.962 . S
C1558 H1572 0.960 . S
C1559 C1556 1.511 1_545 S
C1559 H1573 0.961 . S
C1559 H1574 0.961 . S
C1559 H1575 0.961 1_545 S
C1560 C1561 1.370 . S
C1560 C1562 1.363 . S
C1560 H1576 0.931 1_565 S
C1561 C1560 1.370 . S
C1561 C1565 1.408 . S
C1562 C1560 1.363 . S
C1562 C1563 1.370 . S
C1562 C1566 1.524 1_565 S
C1563 C1555 1.503 . S
C1563 C1562 1.370 . S
C1563 C1564 1.403 . S
C1564 C1563 1.403 . S
C1564 C1565 1.404 . S
C1564 C1567 1.539 . S
C1565 C1561 1.408 . S
C1565 C1564 1.404 . S
C1565 H1577 0.930 . S
C1566 C1562 1.524 1_545 S
C1566 H1578 0.957 . S
C1566 H1579 0.961 . S
C1566 H1580 0.961 . S
C1567 C1564 1.539 . S
C1567 H1581 0.958 . S
C1567 H1582 0.961 . S
C1567 H1583 0.960 . S
H1568 C1552 0.931 . S
H1569 C1557 0.929 1_545 S
H1570 C1558 0.960 . S
H1571 C1558 0.962 . S
H1572 C1558 0.960 . S
H1573 C1559 0.961 . S
H1574 C1559 0.961 . S
H1575 C1559 0.961 1_565 S
H1576 C1560 0.931 1_545 S
H1577 C1565 0.930 . S
H1578 C1566 0.957 . S
H1579 C1566 0.961 . S
H1580 C1566 0.961 . S
H1581 C1567 0.958 . S
H1582 C1567 0.961 . S
H1583 C1567 0.960 . S
C1584 C1585 1.391 . S
C1584 C1586 1.394 . S
C1584 H1600 0.931 1_455 S
C1585 C1584 1.391 . S
C1585 C1589 1.376 . S
C1586 C1584 1.394 . S
C1586 C1587 1.369 . S
C1586 C1590 1.531 1_455 S
C1587 C1586 1.369 . S
C1587 C1588 1.410 . S
C1587 C1595 1.503 . S
C1588 C1587 1.410 . S
C1588 C1589 1.392 . S
C1588 C1591 1.511 . S
C1589 C1585 1.376 . S
C1589 C1588 1.392 . S
C1589 H1601 0.929 . S
C1590 C1586 1.531 1_655 S
C1590 H1602 0.960 . S
C1590 H1603 0.962 . S
C1590 H1604 0.960 . S
C1591 C1588 1.511 . S
C1591 H1605 0.961 . S
C1591 H1606 0.961 . S
C1591 H1607 0.961 . S
C1592 C1593 1.370 . S
C1592 C1594 1.363 . S
C1592 H1608 0.931 1_455 S
C1593 C1592 1.370 . S
C1593 C1597 1.408 . S
C1594 C1592 1.363 . S
C1594 C1595 1.370 . S
C1594 C1598 1.524 1_455 S
C1595 C1587 1.503 . S
C1595 C1594 1.370 . S
C1595 C1596 1.403 . S
C1596 C1595 1.403 . S
C1596 C1597 1.404 . S
C1596 C1599 1.539 . S
C1597 C1593 1.408 . S
C1597 C1596 1.404 . S
C1597 H1609 0.930 . S
C1598 C1594 1.524 1_655 S
C1598 H1610 0.956 . S
C1598 H1611 0.961 . S
C1598 H1612 0.961 . S
C1599 C1596 1.539 . S
C1599 H1613 0.958 . S
C1599 H1614 0.961 . S
C1599 H1615 0.960 . S
H1600 C1584 0.931 1_655 S
H1601 C1589 0.929 . S
H1602 C1590 0.960 . S
H1603 C1590 0.962 . S
H1604 C1590 0.960 . S
H1605 C1591 0.961 . S
H1606 C1591 0.961 . S
H1607 C1591 0.961 . S
H1608 C1592 0.931 1_655 S
H1609 C1597 0.930 . S
H1610 C1598 0.956 . S
H1611 C1598 0.961 . S
H1612 C1598 0.961 . S
H1613 C1599 0.958 . S
H1614 C1599 0.961 . S
H1615 C1599 0.960 . S
C1616 C1617 1.391 . S
C1616 C1618 1.394 . S
C1616 H1632 0.931 . S
C1617 C1616 1.391 . S
C1617 C1621 1.376 . S
C1618 C1616 1.394 . S
C1618 C1619 1.369 . S
C1618 C1622 1.531 . S
C1619 C1618 1.369 . S
C1619 C1620 1.410 . S
C1619 C1627 1.503 . S
C1620 C1619 1.410 . S
C1620 C1621 1.392 . S
C1620 C1623 1.511 . S
C1621 C1617 1.376 . S
C1621 C1620 1.392 . S
C1621 H1633 0.929 . S
C1622 C1618 1.531 . S
C1622 H1634 0.960 . S
C1622 H1635 0.962 . S
C1622 H1636 0.960 . S
C1623 C1620 1.511 . S
C1623 H1637 0.961 . S
C1623 H1638 0.961 . S
C1623 H1639 0.961 . S
C1624 C1625 1.370 . S
C1624 C1626 1.363 . S
C1624 H1640 0.931 . S
C1625 C1624 1.370 . S
C1625 C1629 1.408 . S
C1626 C1624 1.363 . S
C1626 C1627 1.370 . S
C1626 C1630 1.524 . S
C1627 C1619 1.503 . S
C1627 C1626 1.370 . S
C1627 C1628 1.403 . S
C1628 C1627 1.403 . S
C1628 C1629 1.404 . S
C1628 C1631 1.539 . S
C1629 C1625 1.408 . S
C1629 C1628 1.404 . S
C1629 H1641 0.930 . S
C1630 C1626 1.524 . S
C1630 H1642 0.956 . S
C1630 H1643 0.961 . S
C1630 H1644 0.961 . S
C1631 C1628 1.539 . S
C1631 H1645 0.958 . S
C1631 H1646 0.961 . S
C1631 H1647 0.960 . S
H1632 C1616 0.931 . S
H1633 C1621 0.929 . S
H1634 C1622 0.960 . S
H1635 C1622 0.962 . S
H1636 C1622 0.960 . S
H1637 C1623 0.961 . S
H1638 C1623 0.961 . S
H1639 C1623 0.961 . S
H1640 C1624 0.931 . S
H1641 C1629 0.930 . S
H1642 C1630 0.956 . S
H1643 C1630 0.961 . S
H1644 C1630 0.961 . S
H1645 C1631 0.958 . S
H1646 C1631 0.961 . S
H1647 C1631 0.960 . S
C1648 C1649 1.391 . S
C1648 C1650 1.394 . S
C1648 H1664 0.931 . S
C1649 C1648 1.391 . S
C1649 C1653 1.376 . S
C1650 C1648 1.394 . S
C1650 C1651 1.369 . S
C1650 C1654 1.531 . S
C1651 C1650 1.369 . S
C1651 C1652 1.410 . S
C1651 C1659 1.503 . S
C1652 C1651 1.410 . S
C1652 C1653 1.392 . S
C1652 C1655 1.511 . S
C1653 C1649 1.376 . S
C1653 C1652 1.392 . S
C1653 H1665 0.929 . S
C1654 C1650 1.531 . S
C1654 H1666 0.960 . S
C1654 H1667 0.962 . S
C1654 H1668 0.960 . S
C1655 C1652 1.511 . S
C1655 H1669 0.961 . S
C1655 H1670 0.961 . S
C1655 H1671 0.961 . S
C1656 C1657 1.370 . S
C1656 C1658 1.363 . S
C1656 H1672 0.931 . S
C1657 C1656 1.370 . S
C1657 C1661 1.408 . S
C1658 C1656 1.363 . S
C1658 C1659 1.370 . S
C1658 C1662 1.524 . S
C1659 C1651 1.503 . S
C1659 C1658 1.370 . S
C1659 C1660 1.403 . S
C1660 C1659 1.403 . S
C1660 C1661 1.404 . S
C1660 C1663 1.539 . S
C1661 C1657 1.408 . S
C1661 C1660 1.404 . S
C1661 H1673 0.930 . S
C1662 C1658 1.524 . S
C1662 H1674 0.956 . S
C1662 H1675 0.961 . S
C1662 H1676 0.961 . S
C1663 C1660 1.539 . S
C1663 H1677 0.958 . S
C1663 H1678 0.961 . S
C1663 H1679 0.960 . S
H1664 C1648 0.931 . S
H1665 C1653 0.929 . S
H1666 C1654 0.960 . S
H1667 C1654 0.962 . S
H1668 C1654 0.960 . S
H1669 C1655 0.961 . S
H1670 C1655 0.961 . S
H1671 C1655 0.961 . S
H1672 C1656 0.931 . S
H1673 C1661 0.930 . S
H1674 C1662 0.956 . S
H1675 C1662 0.961 . S
H1676 C1662 0.961 . S
H1677 C1663 0.958 . S
H1678 C1663 0.961 . S
H1679 C1663 0.960 . S
C1680 C1681 1.391 . S
C1680 C1682 1.394 . S
C1680 H1696 0.931 . S
C1681 C1680 1.391 . S
C1681 C1685 1.376 . S
C1682 C1680 1.394 . S
C1682 C1683 1.369 . S
C1682 C1686 1.531 . S
C1683 C1682 1.369 . S
C1683 C1684 1.410 . S
C1683 C1691 1.503 . S
C1684 C1683 1.410 . S
C1684 C1685 1.392 . S
C1684 C1687 1.511 . S
C1685 C1681 1.376 . S
C1685 C1684 1.392 . S
C1685 H1697 0.929 . S
C1686 C1682 1.531 . S
C1686 H1698 0.960 . S
C1686 H1699 0.962 . S
C1686 H1700 0.960 . S
C1687 C1684 1.511 . S
C1687 H1701 0.961 . S
C1687 H1702 0.961 . S
C1687 H1703 0.961 . S
C1688 C1689 1.370 . S
C1688 C1690 1.363 . S
C1688 H1704 0.931 . S
C1689 C1688 1.370 . S
C1689 C1693 1.408 . S
C1690 C1688 1.363 . S
C1690 C1691 1.370 . S
C1690 C1694 1.524 . S
C1691 C1683 1.503 . S
C1691 C1690 1.370 . S
C1691 C1692 1.403 . S
C1692 C1691 1.403 . S
C1692 C1693 1.404 . S
C1692 C1695 1.539 . S
C1693 C1689 1.408 . S
C1693 C1692 1.404 . S
C1693 H1705 0.930 . S
C1694 C1690 1.524 . S
C1694 H1706 0.956 . S
C1694 H1707 0.961 . S
C1694 H1708 0.961 . S
C1695 C1692 1.539 . S
C1695 H1709 0.958 . S
C1695 H1710 0.961 . S
C1695 H1711 0.960 . S
H1696 C1680 0.931 . S
H1697 C1685 0.929 . S
H1698 C1686 0.960 . S
H1699 C1686 0.962 . S
H1700 C1686 0.960 . S
H1701 C1687 0.961 . S
H1702 C1687 0.961 . S
H1703 C1687 0.961 . S
H1704 C1688 0.931 . S
H1705 C1693 0.930 . S
H1706 C1694 0.956 . S
H1707 C1694 0.961 . S
H1708 C1694 0.961 . S
H1709 C1695 0.958 . S
H1710 C1695 0.961 . S
H1711 C1695 0.960 . S
C1712 C1713 1.391 . S
C1712 C1714 1.394 . S
C1712 H1728 0.931 . S
C1713 C1712 1.391 . S
C1713 C1717 1.376 . S
C1714 C1712 1.394 . S
C1714 C1715 1.369 . S
C1714 C1718 1.531 . S
C1715 C1714 1.369 . S
C1715 C1716 1.410 . S
C1715 C1723 1.503 1_556 S
C1716 C1715 1.410 . S
C1716 C1717 1.392 . S
C1716 C1719 1.552 . S
C1717 C1713 1.376 . S
C1717 C1716 1.392 . S
C1717 H1729 0.929 . S
C1718 C1714 1.531 . S
C1718 H1730 0.960 . S
C1718 H1731 0.962 . S
C1718 H1732 0.960 . S
C1719 C1716 1.552 . S
C1719 H1733 0.994 . S
C1719 H1734 0.940 1_556 S
C1719 H1735 0.913 1_556 S
C1720 C1721 1.370 . S
C1720 C1722 1.320 1_554 S
C1720 H1736 0.931 . S
C1721 C1720 1.370 . S
C1721 C1725 1.408 . S
C1722 C1720 1.320 1_556 S
C1722 C1723 1.358 1_556 S
C1722 C1726 1.582 . S
C1723 C1715 1.503 1_554 S
C1723 C1722 1.358 1_554 S
C1723 C1724 1.403 . S
C1724 C1723 1.403 . S
C1724 C1725 1.404 . S
C1724 C1727 1.539 . S
C1725 C1721 1.408 . S
C1725 C1724 1.404 . S
C1725 H1737 0.930 . S
C1726 C1722 1.582 . S
C1726 H1738 0.956 . S
C1726 H1739 0.961 . S
C1726 H1740 0.961 . S
C1727 C1724 1.539 . S
C1727 H1741 0.958 . S
C1727 H1742 0.961 . S
C1727 H1743 0.960 . S
H1728 C1712 0.931 . S
H1729 C1717 0.929 . S
H1730 C1718 0.960 . S
H1731 C1718 0.962 . S
H1732 C1718 0.960 . S
H1733 C1719 0.994 . S
H1734 C1719 0.940 1_554 S
H1735 C1719 0.913 1_554 S
H1736 C1720 0.931 . S
H1737 C1725 0.930 . S
H1738 C1726 0.956 . S
H1739 C1726 0.961 . S
H1740 C1726 0.961 . S
H1741 C1727 0.958 . S
H1742 C1727 0.961 . S
H1743 C1727 0.960 . S
C1744 C1745 1.391 . S
C1744 C1746 1.394 . S
C1744 H1760 0.931 . S
C1745 C1744 1.391 . S
C1745 C1749 1.376 . S
C1746 C1744 1.394 . S
C1746 C1747 1.322 1_554 S
C1746 C1750 1.531 . S
C1747 C1746 1.322 1_556 S
C1747 C1748 1.407 . S
C1747 C1755 1.553 . S
C1748 C1747 1.407 . S
C1748 C1749 1.402 1_556 S
C1748 C1751 1.503 . S
C1749 C1745 1.376 . S
C1749 C1748 1.402 1_554 S
C1749 H1761 0.929 . S
C1750 C1746 1.531 . S
C1750 H1762 0.960 1_554 S
C1750 H1763 0.962 . S
C1750 H1764 0.960 . S
C1751 C1748 1.503 . S
C1751 H1765 0.961 . S
C1751 H1766 0.961 . S
C1751 H1767 0.961 . S
C1752 C1753 1.370 . S
C1752 C1754 1.363 . S
C1752 H1768 0.931 . S
C1753 C1752 1.370 . S
C1753 C1757 1.408 . S
C1754 C1752 1.363 . S
C1754 C1755 1.370 . S
C1754 C1758 1.524 1_556 S
C1755 C1747 1.553 . S
C1755 C1754 1.370 . S
C1755 C1756 1.403 . S
C1756 C1755 1.403 . S
C1756 C1757 1.404 . S
C1756 C1759 1.539 . S
C1757 C1753 1.408 . S
C1757 C1756 1.404 . S
C1757 H1769 0.930 . S
C1758 C1754 1.524 1_554 S
C1758 H1770 0.956 . S
C1758 H1771 0.961 . S
C1758 H1772 0.961 . S
C1759 C1756 1.539 . S
C1759 H1773 0.958 . S
C1759 H1774 0.961 . S
C1759 H1775 0.960 . S
H1760 C1744 0.931 . S
H1761 C1749 0.929 . S
H1762 C1750 0.960 1_556 S
H1763 C1750 0.962 . S
H1764 C1750 0.960 . S
H1765 C1751 0.961 . S
H1766 C1751 0.961 . S
H1767 C1751 0.961 . S
H1768 C1752 0.931 . S
H1769 C1757 0.930 . S
H1770 C1758 0.956 . S
H1771 C1758 0.961 . S
H1772 C1758 0.961 . S
H1773 C1759 0.958 . S
H1774 C1759 0.961 . S
H1775 C1759 0.960 . S
C1776 C1777 1.391 . S
C1776 C1778 1.394 . S
C1776 H1792 0.931 . S
C1777 C1776 1.391 . S
C1777 C1781 1.376 . S
C1778 C1776 1.394 . S
C1778 C1779 1.369 . S
C1778 C1782 1.531 . S
C1779 C1778 1.369 . S
C1779 C1780 1.410 . S
C1779 C1787 1.503 . S
C1780 C1779 1.410 . S
C1780 C1781 1.392 . S
C1780 C1783 1.511 . S
C1781 C1777 1.376 . S
C1781 C1780 1.392 . S
C1781 H1793 0.929 . S
C1782 C1778 1.531 . S
C1782 H1794 0.960 . S
C1782 H1795 0.962 . S
C1782 H1796 0.960 . S
C1783 C1780 1.511 . S
C1783 H1797 0.961 . S
C1783 H1798 0.961 . S
C1783 H1799 0.961 . S
C1784 C1785 1.370 . S
C1784 C1786 1.363 . S
C1784 H1800 0.931 . S
C1785 C1784 1.370 . S
C1785 C1789 1.408 . S
C1786 C1784 1.363 . S
C1786 C1787 1.370 . S
C1786 C1790 1.524 . S
C1787 C1779 1.503 . S
C1787 C1786 1.370 . S
C1787 C1788 1.403 . S
C1788 C1787 1.403 . S
C1788 C1789 1.404 . S
C1788 C1791 1.539 . S
C1789 C1785 1.408 . S
C1789 C1788 1.404 . S
C1789 H1801 0.930 . S
C1790 C1786 1.524 . S
C1790 H1802 0.956 . S
C1790 H1803 0.961 . S
C1790 H1804 0.961 . S
C1791 C1788 1.539 . S
C1791 H1805 0.958 . S
C1791 H1806 0.961 . S
C1791 H1807 0.960 . S
H1792 C1776 0.931 . S
H1793 C1781 0.929 . S
H1794 C1782 0.960 . S
H1795 C1782 0.962 . S
H1796 C1782 0.960 . S
H1797 C1783 0.961 . S
H1798 C1783 0.961 . S
H1799 C1783 0.961 . S
H1800 C1784 0.931 . S
H1801 C1789 0.930 . S
H1802 C1790 0.956 . S
H1803 C1790 0.961 . S
H1804 C1790 0.961 . S
H1805 C1791 0.958 . S
H1806 C1791 0.961 . S
H1807 C1791 0.960 . S
C1808 C1809 1.391 . S
C1808 C1810 1.394 . S
C1808 H1824 0.931 . S
C1809 C1808 1.391 . S
C1809 C1813 1.376 . S
C1810 C1808 1.394 . S
C1810 C1811 1.369 . S
C1810 C1814 1.531 . S
C1811 C1810 1.369 . S
C1811 C1812 1.410 . S
C1811 C1819 1.503 . S
C1812 C1811 1.410 . S
C1812 C1813 1.392 . S
C1812 C1815 1.511 . S
C1813 C1809 1.376 . S
C1813 C1812 1.392 . S
C1813 H1825 0.929 . S
C1814 C1810 1.531 . S
C1814 H1826 0.960 . S
C1814 H1827 0.962 . S
C1814 H1828 0.960 . S
C1815 C1812 1.511 . S
C1815 H1829 0.961 . S
C1815 H1830 0.961 . S
C1815 H1831 0.961 . S
C1816 C1817 1.370 . S
C1816 C1818 1.363 . S
C1816 H1832 0.931 . S
C1817 C1816 1.370 . S
C1817 C1821 1.408 . S
C1818 C1816 1.363 . S
C1818 C1819 1.370 . S
C1818 C1822 1.524 . S
C1819 C1811 1.503 . S
C1819 C1818 1.370 . S
C1819 C1820 1.403 . S
C1820 C1819 1.403 . S
C1820 C1821 1.404 . S
C1820 C1823 1.539 . S
C1821 C1817 1.408 . S
C1821 C1820 1.404 . S
C1821 H1833 0.930 . S
C1822 C1818 1.524 . S
C1822 H1834 0.956 . S
C1822 H1835 0.961 . S
C1822 H1836 0.961 . S
C1823 C1820 1.539 . S
C1823 H1837 0.958 . S
C1823 H1838 0.961 . S
C1823 H1839 0.960 . S
H1824 C1808 0.931 . S
H1825 C1813 0.929 . S
H1826 C1814 0.960 . S
H1827 C1814 0.962 . S
H1828 C1814 0.960 . S
H1829 C1815 0.961 . S
H1830 C1815 0.961 . S
H1831 C1815 0.961 . S
H1832 C1816 0.931 . S
H1833 C1821 0.930 . S
H1834 C1822 0.956 . S
H1835 C1822 0.961 . S
H1836 C1822 0.961 . S
H1837 C1823 0.958 . S
H1838 C1823 0.961 . S
H1839 C1823 0.960 . S
C1840 C1841 1.391 . S
C1840 C1842 1.394 . S
C1840 H1856 0.931 . S
C1841 C1840 1.391 . S
C1841 C1845 1.376 . S
C1842 C1840 1.394 . S
C1842 C1843 1.369 . S
C1842 C1846 1.531 . S
C1843 C1842 1.369 . S
C1843 C1844 1.410 . S
C1843 C1851 1.503 . S
C1844 C1843 1.410 . S
C1844 C1845 1.392 . S
C1844 C1847 1.511 . S
C1845 C1841 1.376 . S
C1845 C1844 1.392 . S
C1845 H1857 0.929 . S
C1846 C1842 1.531 . S
C1846 H1858 0.960 . S
C1846 H1859 0.962 . S
C1846 H1860 0.960 . S
C1847 C1844 1.511 . S
C1847 H1861 0.961 . S
C1847 H1862 0.961 . S
C1847 H1863 0.961 . S
C1848 C1849 1.370 . S
C1848 C1850 1.363 . S
C1848 H1864 0.931 . S
C1849 C1848 1.370 . S
C1849 C1853 1.408 . S
C1850 C1848 1.363 . S
C1850 C1851 1.370 . S
C1850 C1854 1.524 . S
C1851 C1843 1.503 . S
C1851 C1850 1.370 . S
C1851 C1852 1.403 . S
C1852 C1851 1.403 . S
C1852 C1853 1.404 . S
C1852 C1855 1.539 . S
C1853 C1849 1.408 . S
C1853 C1852 1.404 . S
C1853 H1865 0.930 . S
C1854 C1850 1.524 . S
C1854 H1866 0.956 . S
C1854 H1867 0.961 . S
C1854 H1868 0.961 . S
C1855 C1852 1.539 . S
C1855 H1869 0.958 . S
C1855 H1870 0.961 . S
C1855 H1871 0.960 . S
H1856 C1840 0.931 . S
H1857 C1845 0.929 . S
H1858 C1846 0.960 . S
H1859 C1846 0.962 . S
H1860 C1846 0.960 . S
H1861 C1847 0.961 . S
H1862 C1847 0.961 . S
H1863 C1847 0.961 . S
H1864 C1848 0.931 . S
H1865 C1853 0.930 . S
H1866 C1854 0.956 . S
H1867 C1854 0.961 . S
H1868 C1854 0.961 . S
H1869 C1855 0.958 . S
H1870 C1855 0.961 . S
H1871 C1855 0.960 . S
C849 C569 2.360 . S
C857 C39 2.388 . S
C881 C75 2.141 . S
C889 C605 2.126 . S
C913 C463 2.390 . S
C921 C145 2.380 . S
C945 C499 2.138 . S
C953 C181 2.128 . S
C977 C251 2.370 . S
C985 C781 2.384 . S
C1009 C817 2.120 . S
C1017 C287 2.135 . S
C1041 C357 2.393 . S
C1049 C675 2.379 . S
C1073 C711 2.137 . S
C1081 C393 2.127 . S
C1105 C568 1.277 . S
C1113 C38 1.267 . S
C1137 C82 0.996 . S
C1145 C612 0.996 . S
C1169 C144 1.299 . S
C1177 C462 1.265 . S
C1201 C188 1.003 . S
C1209 C506 0.994 . S
C1233 C250 1.238 . S
C1241 C780 1.286 . S
C1265 C294 1.018 . S
C1273 C824 0.986 . S
C1297 C674 1.256 . S
C1305 C356 1.284 . S
C1329 C718 1.023 . S
C1337 C400 0.982 . S
C1361 C22 1.910 . S
C1369 C340 1.920 . S
C1393 C92 1.834 . S
C1401 C410 1.810 . S
C1425 C128 1.915 . S
C1433 C234 1.903 . S
C1457 C198 1.834 . S
C1465 C304 1.812 . S
C1489 C446 1.885 . S
C1497 C764 1.918 . S
C1521 C834 1.792 . S
C1529 C516 1.817 . S
C1553 C552 1.915 . S
C1561 C658 1.903 . S
C1585 C728 1.791 . S
C1593 C622 1.819 . S
C1617 C29 1.913 . S
C1625 C833 1.899 . S
C1649 C665 1.876 . S
C1657 C91 1.913 . S
C1681 C727 1.918 . S
C1689 C135 1.891 . S
C1713 C771 1.913 . S
C1721 C197 1.899 . S
C1745 C515 1.917 . S
C1753 C241 1.892 . S
C1777 C559 1.876 . S
C1785 C303 1.912 . S
C1809 C347 1.912 . S
C1817 C621 1.900 . S
C1841 C409 1.909 . S
C1849 C453 1.897 . S
