# Generated by pormake.
# Topology lcy, (6)-cn, num edge types: 1
# Building blocks:
#     Node 0, Type 0, BuildingBlock: IZENUY_clean_sbu_0, # of connection points: 6
#     Node 1, Type 0, BuildingBlock: IZENUY_clean_sbu_0, # of connection points: 6
#     Node 2, Type 0, BuildingBlock: IZENUY_clean_sbu_0, # of connection points: 6
#     Node 3, Type 0, BuildingBlock: IZENUY_clean_sbu_0, # of connection points: 6
#     Edge 4, Type (0, 0), BuildingBlock: UVAHIK_clean_linker_0, # of connection points: 2
#     Edge 5, Type (0, 0), BuildingBlock: UVAHIK_clean_linker_0, # of connection points: 2
#     Edge 6, Type (0, 0), BuildingBlock: UVAHIK_clean_linker_0, # of connection points: 2
#     Edge 7, Type (0, 0), BuildingBlock: UVAHIK_clean_linker_0, # of connection points: 2
#     Edge 8, Type (0, 0), BuildingBlock: UVAHIK_clean_linker_0, # of connection points: 2
#     Edge 9, Type (0, 0), BuildingBlock: UVAHIK_clean_linker_0, # of connection points: 2
#     Edge 10, Type (0, 0), BuildingBlock: UVAHIK_clean_linker_0, # of connection points: 2
#     Edge 11, Type (0, 0), BuildingBlock: UVAHIK_clean_linker_0, # of connection points: 2
#     Edge 12, Type (0, 0), BuildingBlock: UVAHIK_clean_linker_0, # of connection points: 2
#     Edge 13, Type (0, 0), BuildingBlock: UVAHIK_clean_linker_0, # of connection points: 2
#     Edge 14, Type (0, 0), BuildingBlock: UVAHIK_clean_linker_0, # of connection points: 2
#     Edge 15, Type (0, 0), BuildingBlock: UVAHIK_clean_linker_0, # of connection points: 2
# Relax obj value: 0.232
# Max RMSD: 0.227
# Mean RMSD: 0.227
data_MOF--net-lcy--node1-IZENUY_clean_sbu_0--edge1-UVAHIK_clean_linker_0
_symmetry_space_group_name_H-M    P1
_symmetry_Int_Tables_number       1
_symmetry_cell_setting            triclinic
loop_
_symmetry_equiv_pos_as_xyz
'x, y, z'
_cell_length_a     32.841678
_cell_length_b     32.856292
_cell_length_c     32.841409
_cell_angle_alpha  90.189841
_cell_angle_beta   89.966194
_cell_angle_gamma 90.198453
loop_
_atom_site_label
_atom_site_type_symbol
_atom_site_fract_x
_atom_site_fract_y
_atom_site_fract_z
_atom_type_partial_charge
Fe0 Fe 0.40696 0.364 0.33093 0.0
Fe1 Fe 0.36485 0.33086 0.40678 0.0
O2 O 0.36768 0.36699 0.36735 0.0
Fe3 Fe 0.3311 0.40592 0.36415 0.0
O4 O 0.31475 0.38831 0.3146 0.0
O5 O 0.37638 0.38537 0.28894 0.0
O6 O 0.38989 0.31424 0.31464 0.0
C7 C 0.38903 0.28398 0.33802 0.0
C8 C 0.40519 0.44556 0.34204 0.0
O9 O 0.38687 0.28889 0.37632 0.0
C10 C 0.34244 0.40515 0.44573 0.0
O11 O 0.44476 0.34231 0.36647 0.0
O12 O 0.4142 0.34583 0.42584 0.0
O13 O 0.36652 0.44379 0.34189 0.0
O14 O 0.42595 0.41357 0.34522 0.0
C15 C 0.28482 0.33685 0.3884 0.0
O16 O 0.3425 0.36647 0.44443 0.0
O17 O 0.34539 0.42553 0.41345 0.0
C18 C 0.44634 0.34281 0.40513 0.0
O19 O 0.31536 0.31386 0.38969 0.0
O20 O 0.28927 0.37516 0.38606 0.0
C21 C 0.3381 0.38737 0.2842 0.0
Fe22 Fe 0.83216 0.08651 0.62482 0.0
Fe23 Fe 0.8722 0.15933 0.58313 0.0
O24 O 0.87004 0.12454 0.62381 0.0
Fe25 Fe 0.90598 0.12802 0.66349 0.0
O26 O 0.92498 0.07791 0.65218 0.0
O27 O 0.86482 0.04831 0.65017 0.0
O28 O 0.84949 0.06545 0.57716 0.0
C29 C 0.84979 0.08495 0.54428 0.0
C30 C 0.83294 0.10626 0.70486 0.0
O31 O 0.85155 0.12355 0.54465 0.0
C32 C 0.89134 0.20795 0.65243 0.0
O33 O 0.79305 0.11819 0.59963 0.0
O34 O 0.82226 0.17836 0.59517 0.0
O35 O 0.8715 0.10818 0.70335 0.0
O36 O 0.81243 0.10517 0.67256 0.0
C37 C 0.95254 0.14544 0.59261 0.0
O38 O 0.89303 0.20167 0.61426 0.0
O39 O 0.88861 0.17848 0.67671 0.0
C40 C 0.7906 0.1566 0.59571 0.0
O41 O 0.92243 0.14193 0.56912 0.0
O42 O 0.94728 0.14823 0.63084 0.0
C43 C 0.90338 0.04616 0.65308 0.0
Fe44 Fe 0.08422 0.61946 0.8347 0.0
Fe45 Fe 0.16332 0.58628 0.86988 0.0
O46 O 0.12377 0.62236 0.8708 0.0
Fe47 Fe 0.12385 0.66112 0.90796 0.0
O48 O 0.07593 0.64378 0.92822 0.0
O49 O 0.04465 0.64001 0.86927 0.0
O50 O 0.06972 0.56937 0.85212 0.0
C51 C 0.09321 0.53927 0.85004 0.0
C52 C 0.09562 0.70118 0.83663 0.0
O53 O 0.13151 0.54449 0.84918 0.0
C54 C 0.20417 0.66013 0.8905 0.0
O55 O 0.11696 0.59861 0.79363 0.0
O56 O 0.17852 0.60217 0.81965 0.0
O57 O 0.0989 0.69931 0.87512 0.0
O58 O 0.09643 0.66926 0.81535 0.0
C59 C 0.15037 0.5913 0.95106 0.0
O60 O 0.20259 0.62148 0.89027 0.0
O61 O 0.17186 0.68058 0.88973 0.0
C62 C 0.15544 0.5996 0.78911 0.0
O63 O 0.1498 0.56862 0.92009 0.0
O64 O 0.14873 0.62975 0.94746 0.0
C65 C 0.04349 0.64231 0.9079 0.0
Fe66 Fe 0.5851 0.8717 0.16051 0.0
Fe67 Fe 0.66395 0.90592 0.12532 0.0
O68 O 0.62369 0.8704 0.12326 0.0
Fe69 Fe 0.62197 0.83378 0.08403 0.0
O70 O 0.57368 0.85257 0.06635 0.0
O71 O 0.54439 0.8526 0.12632 0.0
O72 O 0.57073 0.92247 0.14558 0.0
C73 C 0.59469 0.95236 0.14789 0.0
C74 C 0.59604 0.79024 0.15436 0.0
O75 O 0.63296 0.94694 0.14845 0.0
C76 C 0.70284 0.83286 0.0998 0.0
O77 O 0.61884 0.89085 0.20166 0.0
O78 O 0.67971 0.88727 0.17436 0.0
O79 O 0.59767 0.79399 0.11585 0.0
O80 O 0.59755 0.82112 0.17713 0.0
C81 C 0.64908 0.90574 0.04416 0.0
O82 O 0.70224 0.87143 0.10246 0.0
O83 O 0.67013 0.81288 0.09941 0.0
C84 C 0.65733 0.88914 0.20544 0.0
O85 O 0.65015 0.92636 0.07651 0.0
O86 O 0.64599 0.86718 0.04539 0.0
C87 C 0.54192 0.85255 0.08773 0.0
C88 C 0.14861 0.53408 0.00036 0.0
C89 C 0.16288 0.5729 0.98981 0.0
C90 C 0.16538 0.51341 0.03337 0.0
C91 C 0.23617 0.52588 0.12205 0.0
H92 H 0.24684 0.40891 0.10936 0.0
C93 C 0.34301 0.42745 0.22014 0.0
C94 C 0.32117 0.40013 0.24477 0.0
C95 C 0.32393 0.44646 0.18734 0.0
C96 C 0.244 0.44155 0.11313 0.0
H97 H 0.20517 0.6211 0.00558 0.0
H98 H 0.23588 0.58454 0.06201 0.0
H99 H 0.21148 0.44805 0.05736 0.0
H100 H 0.26334 0.36934 0.2532 0.0
H101 H 0.23052 0.40137 0.19445 0.0
H102 H 0.27056 0.51903 0.17708 0.0
C103 C 0.21076 0.57032 0.04601 0.0
C104 C 0.22334 0.46405 0.08368 0.0
C105 C 0.19321 0.5914 0.0136 0.0
C106 C 0.28082 0.39015 0.2345 0.0
C107 C 0.26209 0.40844 0.20108 0.0
C108 C 0.25763 0.50345 0.15096 0.0
C109 C 0.19768 0.53063 0.05582 0.0
C110 C 0.21895 0.50657 0.08778 0.0
C111 C 0.28313 0.43766 0.17814 0.0
C112 C 0.26159 0.46117 0.14672 0.0
H113 H 0.1251 0.51932 0.98242 0.0
H114 H 0.15353 0.48352 0.04064 0.0
H115 H 0.23286 0.5583 0.12687 0.0
H116 H 0.37396 0.4361 0.22774 0.0
H117 H 0.34063 0.46891 0.16986 0.0
C118 C 0.65456 0.9171 0.27663 0.0
C119 C 0.67697 0.89941 0.24473 0.0
C120 C 0.67457 0.93355 0.31055 0.0
C121 C 0.7744 0.93765 0.36412 0.0
H122 H 0.73628 0.04369 0.39916 0.0
C123 C 0.83632 0.01999 0.50675 0.0
C124 C 0.83885 0.06275 0.5065 0.0
C125 C 0.81949 -0.00108 0.47385 0.0
C126 C 0.74764 0.01433 0.38941 0.0
H127 H 0.73768 0.88264 0.22475 0.0
H128 H 0.77235 0.91153 0.28337 0.0
H129 H 0.69941 0.00689 0.34628 0.0
H130 H 0.82799 0.11667 0.47023 0.0
H131 H 0.79933 0.07971 0.41226 0.0
H132 H 0.8233 0.94563 0.40645 0.0
C133 C 0.73941 0.91267 0.28247 0.0
C134 C 0.72604 0.99287 0.3596 0.0
C135 C 0.71948 0.89626 0.24868 0.0
C136 C 0.82636 0.08377 0.47149 0.0
C137 C 0.80953 0.06261 0.43846 0.0
C138 C 0.79608 0.95918 0.39385 0.0
C139 C 0.71733 0.93254 0.31327 0.0
C140 C 0.73916 0.95427 0.34657 0.0
C141 C 0.80491 0.02003 0.43974 0.0
C142 C 0.78297 -0.00221 0.40685 0.0
H143 H 0.62178 0.91999 0.27457 0.0
H144 H 0.6566 0.94796 0.33416 0.0
H145 H 0.78522 0.90789 0.35499 0.0
H146 H 0.84582 0.00276 0.53315 0.0
H147 H 0.81621 0.96619 0.47605 0.0
C148 C 0.15059 0.57147 0.71805 0.0
C149 C 0.1741 0.58845 0.74959 0.0
C150 C 0.16946 0.55486 0.68359 0.0
C151 C 0.26821 0.5499 0.62804 0.0
H152 H 0.22658 0.44559 0.59104 0.0
C153 C 0.31619 0.40518 0.51761 0.0
C154 C 0.33012 0.42674 0.48341 0.0
C155 C 0.29915 0.42591 0.55075 0.0
C156 C 0.23889 0.47446 0.60132 0.0
H157 H 0.23568 0.60351 0.76854 0.0
H158 H 0.26836 0.57428 0.7091 0.0
H159 H 0.19147 0.4819 0.64535 0.0
H160 H 0.33889 0.48716 0.45814 0.0
H161 H 0.30883 0.52297 0.51533 0.0
H162 H 0.31638 0.54185 0.58497 0.0
C163 C 0.23542 0.5739 0.71062 0.0
C164 C 0.21832 0.49566 0.63197 0.0
C165 C 0.21663 0.59049 0.74491 0.0
C166 C 0.32836 0.46951 0.48392 0.0
C167 C 0.31127 0.49015 0.51689 0.0
C168 C 0.28888 0.52862 0.59754 0.0
C169 C 0.21218 0.55499 0.67999 0.0
C170 C 0.23277 0.5336 0.64577 0.0
C171 C 0.2957 0.4686 0.55037 0.0
C172 C 0.27451 0.49062 0.58381 0.0
H173 H 0.11777 0.56944 0.72068 0.0
H174 H 0.15063 0.54118 0.66017 0.0
H175 H 0.28001 0.57919 0.63768 0.0
H176 H 0.31716 0.37224 0.51826 0.0
H177 H 0.28815 0.40843 0.57643 0.0
C178 C 0.67406 0.90526 0.97184 0.0
C179 C 0.65922 0.9268 0.00572 0.0
C180 C 0.68939 0.92623 0.93807 0.0
C181 C 0.6931 0.02785 0.88883 0.0
H182 H 0.79645 0.98952 0.84671 0.0
C183 C 0.76937 0.09324 0.74464 0.0
C184 C 0.81214 0.09535 0.74331 0.0
C185 C 0.74952 0.0758 0.77788 0.0
C186 C 0.76783 0.00089 0.85846 0.0
H187 H 0.6464 0.98708 0.02969 0.0
H188 H 0.67321 0.02337 0.97125 0.0
H189 H 0.76177 0.951 0.89972 0.0
H190 H 0.86745 0.08328 0.7772 0.0
H191 H 0.83265 0.05344 0.83569 0.0
H192 H 0.69966 0.07826 0.84822 0.0
C193 C 0.67305 0.99041 0.97052 0.0
C194 C 0.74759 0.97841 0.88832 0.0
C195 C 0.65789 0.96955 0.00418 0.0
C196 C 0.83449 0.08201 0.77719 0.0
C197 C 0.81458 0.0645 0.81049 0.0
C198 C 0.71336 0.05036 0.85896 0.0
C199 C 0.68989 0.96907 0.93749 0.0
C200 C 0.71005 0.99168 0.90394 0.0
C201 C 0.77194 0.06014 0.81065 0.0
C202 C 0.75102 0.03719 0.84351 0.0
H203 H 0.67545 0.87233 0.97208 0.0
H204 H 0.70159 0.90892 0.91275 0.0
H205 H 0.6641 0.03878 0.90004 0.0
H206 H 0.75118 0.10343 0.71914 0.0
H207 H 0.71668 0.07279 0.7769 0.0
C208 C 0.01489 0.18889 0.59273 0.0
C209 C 0.99161 0.15791 0.5744 0.0
C210 C 0.04718 0.20682 0.57158 0.0
C211 C 0.12218 0.19454 0.49262 0.0
H212 H 0.1068 0.30916 0.46947 0.0
C213 C 0.2352 0.27939 0.38978 0.0
C214 C 0.24539 0.31942 0.40081 0.0
C215 C 0.20185 0.25992 0.40765 0.0
C216 C 0.11204 0.27736 0.47609 0.0
H217 H 0.98513 0.11967 0.52091 0.0
H218 H 0.04301 0.14991 0.48463 0.0
H219 H 0.05703 0.27294 0.51103 0.0
H220 H 0.22833 0.371 0.43824 0.0
H221 H 0.17132 0.33676 0.47076 0.0
H222 H 0.17795 0.19885 0.45959 0.0
C223 C 0.0357 0.16066 0.51499 0.0
C224 C 0.0834 0.25666 0.49977 0.0
C225 C 0.00277 0.14339 0.5357 0.0
C226 C 0.22069 0.3403 0.42872 0.0
C227 C 0.18793 0.32053 0.44736 0.0
C228 C 0.15135 0.21541 0.4697 0.0
C229 C 0.05727 0.19333 0.53227 0.0
C230 C 0.08828 0.21514 0.50817 0.0
C231 C 0.17865 0.27968 0.43784 0.0
C232 C 0.14668 0.25714 0.46101 0.0
H233 H 0.0066 0.20099 0.62232 0.0
H234 H 0.0636 0.23194 0.58544 0.0
H235 H 0.12647 0.16248 0.49887 0.0
H236 H 0.2538 0.26273 0.36819 0.0
H237 H 0.19501 0.22896 0.39851 0.0
C238 C 0.08002 0.74121 0.77405 0.0
C239 C 0.08286 0.73943 0.81674 0.0
C240 C 0.0628 0.77487 0.75501 0.0
C241 C 0.9909 0.85811 0.77476 0.0
H242 H 0.03146 0.89919 0.67182 0.0
C243 C 0.96599 0.00499 0.66464 0.0
C244 C 0.92327 0.00767 0.66501 0.0
C245 C 0.98556 0.97107 0.6807 0.0
C246 C 0.01982 0.88818 0.70063 0.0
H247 H 0.07159 0.77264 0.8728 0.0
H248 H 0.04201 0.83192 0.83936 0.0
H249 H 0.06841 0.84547 0.70675 0.0
H250 H 0.86751 0.97592 0.6809 0.0
H251 H 0.90183 0.91615 0.70858 0.0
H252 H 0.94281 0.90151 0.76906 0.0
C253 C 0.05247 0.80677 0.82074 0.0
C254 C 0.04084 0.85719 0.72051 0.0
C255 C 0.06978 0.773 0.83987 0.0
C256 C 0.90046 0.97479 0.68019 0.0
C257 C 0.92012 0.94076 0.6964 0.0
C258 C 0.96989 0.88915 0.75488 0.0
C259 C 0.04806 0.80769 0.77814 0.0
C260 C 0.02664 0.84178 0.75781 0.0
C261 C 0.96292 0.9389 0.69749 0.0
C262 C 0.98414 0.90458 0.71761 0.0
H263 H 0.08992 0.71595 0.75525 0.0
H264 H 0.0596 0.7744 0.72219 0.0
H265 H 0.97881 0.84652 0.80315 0.0
H266 H 0.98451 0.02971 0.65301 0.0
H267 H 0.01853 0.97081 0.68134 0.0
C268 C 0.27596 0.66 0.91674 0.0
C269 C 0.2423 0.68155 0.90173 0.0
C270 C 0.30894 0.68084 0.93406 0.0
C271 C 0.35643 0.78333 0.94488 0.0
H272 H 0.39814 0.73848 0.04556 0.0
C273 C 0.50061 0.84443 0.02444 0.0
C274 C 0.50293 0.84294 0.06717 0.0
C275 C 0.46695 0.82845 0.00398 0.0
C276 C 0.38646 0.75173 0.01779 0.0
H277 H 0.21812 0.74195 0.89073 0.0
H278 H 0.27511 0.77801 0.92116 0.0
H279 H 0.34562 0.70182 0.00806 0.0
H280 H 0.47038 0.82595 0.12205 0.0
H281 H 0.411 0.79873 0.08623 0.0
H282 H 0.39653 0.83375 0.95518 0.0
C283 C 0.2763 0.74511 0.91951 0.0
C284 C 0.35686 0.7303 0.99586 0.0
C285 C 0.24346 0.72435 0.90219 0.0
C286 C 0.46959 0.82748 0.08912 0.0
C287 C 0.43578 0.81146 0.06856 0.0
C288 C 0.38592 0.80483 0.96689 0.0
C289 C 0.30895 0.72362 0.93664 0.0
C290 C 0.34156 0.74577 0.95907 0.0
C291 C 0.43464 0.81071 0.02571 0.0
C292 C 0.4014 0.78923 0.00356 0.0
H293 H 0.27609 0.62704 0.91679 0.0
H294 H 0.33403 0.66339 0.94624 0.0
H295 H 0.3455 0.79602 0.91654 0.0
H296 H 0.52567 0.85635 0.00657 0.0
H297 H 0.46729 0.82819 0.971 0.0
C298 C 0.43025 0.22067 0.34219 0.0
C299 C 0.40208 0.24461 0.32101 0.0
C300 C 0.44958 0.18817 0.32272 0.0
C301 C 0.47336 0.15144 0.21793 0.0
H302 H 0.51501 0.05788 0.276 0.0
C303 C 0.53905 0.00352 0.14585 0.0
C304 C 0.57732 0.99161 0.1606 0.0
C305 C 0.51882 0.03663 0.16319 0.0
C306 C 0.50373 0.08408 0.25959 0.0
H307 H 0.3697 0.25188 0.26414 0.0
H308 H 0.40126 0.19353 0.23091 0.0
H309 H 0.47292 0.10735 0.31193 0.0
H310 H 0.62499 0.00529 0.20422 0.0
H311 H 0.58893 0.06276 0.23533 0.0
H312 H 0.50297 0.12667 0.16515 0.0
C313 C 0.41006 0.20079 0.26186 0.0
C314 C 0.47971 0.11253 0.28011 0.0
C315 C 0.39147 0.23387 0.28103 0.0
C316 C 0.59577 0.01426 0.19194 0.0
C317 C 0.57506 0.04678 0.20995 0.0
C318 C 0.49664 0.12248 0.19725 0.0
C319 C 0.44052 0.17841 0.2819 0.0
C320 C 0.46438 0.14681 0.25966 0.0
C321 C 0.53613 0.05765 0.19619 0.0
C322 C 0.51227 0.08881 0.21802 0.0
H323 H 0.43946 0.22875 0.37286 0.0
H324 H 0.47315 0.17217 0.33915 0.0
H325 H 0.46308 0.17781 0.20121 0.0
H326 H 0.52419 0.98631 0.12187 0.0
H327 H 0.48875 0.04448 0.15224 0.0
C328 C 0.71832 0.15244 0.57098 0.0
C329 C 0.75163 0.1759 0.58428 0.0
C330 C 0.68376 0.17133 0.55492 0.0
C331 C 0.63123 0.27093 0.54678 0.0
H332 H 0.58841 0.2252 0.44652 0.0
C333 C 0.51763 0.31558 0.4044 0.0
C334 C 0.48417 0.33076 0.42634 0.0
C335 C 0.55079 0.29861 0.42485 0.0
C336 C 0.60029 0.23858 0.47428 0.0
H337 H 0.77385 0.2376 0.59328 0.0
H338 H 0.71407 0.27028 0.56514 0.0
H339 H 0.64315 0.19036 0.48215 0.0
H340 H 0.46032 0.34193 0.48702 0.0
H341 H 0.51783 0.31218 0.52247 0.0
H342 H 0.58913 0.31972 0.53832 0.0
C343 C 0.71438 0.23739 0.56716 0.0
C344 C 0.63119 0.21824 0.49507 0.0
C345 C 0.74882 0.21858 0.58309 0.0
C346 C 0.48552 0.3304 0.46914 0.0
C347 C 0.51862 0.31347 0.48953 0.0
C348 C 0.60036 0.29129 0.52597 0.0
C349 C 0.68181 0.21402 0.55207 0.0
C350 C 0.64715 0.23428 0.53146 0.0
C351 C 0.55122 0.29657 0.46763 0.0
C352 C 0.58464 0.27544 0.48938 0.0
H353 H 0.7195 0.1195 0.57155 0.0
H354 H 0.65886 0.15251 0.5441 0.0
H355 H 0.64264 0.28394 0.5749 0.0
H356 H 0.51761 0.31543 0.37142 0.0
H357 H 0.57582 0.28651 0.40712 0.0
C358 C 0.03597 0.48921 0.84978 0.0
C359 C 0.0754 0.50007 0.83714 0.0
C360 C 0.0158 0.45629 0.83172 0.0
C361 C 0.00618 0.40703 0.73496 0.0
H362 H 0.95723 0.3163 0.79226 0.0
C363 C 0.93512 0.27 0.65013 0.0
C364 C 0.90437 0.24744 0.66944 0.0
C365 C 0.9539 0.30253 0.67031 0.0
C366 C 0.96987 0.34185 0.77574 0.0
H367 H 0.12515 0.4845 0.7966 0.0
H368 H 0.08935 0.42741 0.76434 0.0
H369 H 0.99582 0.36738 0.83014 0.0
H370 H 0.86699 0.24277 0.72353 0.0
H371 H 0.89772 0.30117 0.75777 0.0
H372 H 0.97914 0.38298 0.68084 0.0
C373 C 0.07442 0.44411 0.78858 0.0
C374 C 0.99237 0.37079 0.79752 0.0
C375 C 0.09498 0.47644 0.8073 0.0
C376 C 0.89078 0.25966 0.70808 0.0
C377 C 0.90887 0.29277 0.72789 0.0
C378 C 0.98296 0.37862 0.71326 0.0
C379 C 0.03439 0.43436 0.80008 0.0
C380 C 0.011 0.40336 0.77723 0.0
C381 C 0.94174 0.31374 0.70994 0.0
C382 C 0.9647 0.3454 0.73327 0.0
H383 H 0.0202 0.50713 0.87258 0.0
H384 H 0.98489 0.44931 0.84097 0.0
H385 H 0.01979 0.43236 0.7188 0.0
H386 H 0.9466 0.26083 0.62056 0.0
H387 H 0.97935 0.3174 0.65552 0.0
C388 C 0.97038 0.66462 0.90756 0.0
C389 C 0.0051 0.65234 0.92925 0.0
C390 C 0.93677 0.68075 0.92822 0.0
C391 C 0.86318 0.6978 0.9834 0.0
H392 H 0.8899 0.77867 0.06572 0.0
C393 C 0.74056 0.7685 0.08569 0.0
C394 C 0.74072 0.81124 0.08857 0.0
C395 C 0.77366 0.74788 0.06902 0.0
C396 C 0.88201 0.75625 0.04277 0.0
H397 H 0.03051 0.64457 0.98978 0.0
H398 H 0.97201 0.67247 0.0255 0.0
H399 H 0.94448 0.7431 0.02986 0.0
H400 H 0.77689 0.86562 0.07836 0.0
H401 H 0.83511 0.82935 0.04945 0.0
H402 H 0.80071 0.71127 0.996 0.0
C403 C 0.97109 0.67044 0.99258 0.0
C404 C 0.91318 0.73562 0.02251 0.0
C405 C 0.00449 0.65422 0.97205 0.0
C406 C 0.7758 0.83272 0.07659 0.0
C407 C 0.80911 0.81196 0.06001 0.0
C408 C 0.832 0.71818 0.00391 0.0
C409 C 0.93739 0.68492 0.97086 0.0
C410 C 0.90408 0.7062 0.99261 0.0
C411 C 0.80784 0.76943 0.05506 0.0
C412 C 0.84111 0.74762 0.03378 0.0
H413 H 0.96988 0.66361 0.8746 0.0
H414 H 0.91114 0.6917 0.91071 0.0
H415 H 0.8553 0.67522 0.96059 0.0
H416 H 0.71424 0.7509 0.09506 0.0
H417 H 0.77221 0.71503 0.06637 0.0
C418 C 0.56937 0.71858 0.14942 0.0
C419 C 0.58455 0.75094 0.17309 0.0
C420 C 0.5532 0.68389 0.16819 0.0
C421 C 0.49421 0.63104 0.21632 0.0
H422 H 0.53962 0.58689 0.31572 0.0
C423 C 0.40444 0.51689 0.31485 0.0
C424 C 0.42639 0.48334 0.32948 0.0
C425 C 0.42485 0.55002 0.2975 0.0
C426 C 0.52664 0.59866 0.28785 0.0
H427 H 0.59681 0.77123 0.2349 0.0
H428 H 0.56838 0.71139 0.26732 0.0
H429 H 0.57623 0.64012 0.27939 0.0
H430 H 0.4871 0.45924 0.33918 0.0
H431 H 0.5224 0.5165 0.30864 0.0
H432 H 0.44508 0.58889 0.22428 0.0
C433 C 0.56905 0.71246 0.23437 0.0
C434 C 0.54748 0.62942 0.26719 0.0
C435 C 0.58514 0.74698 0.21571 0.0
C436 C 0.46918 0.48452 0.32812 0.0
C437 C 0.48951 0.51751 0.31073 0.0
C438 C 0.47343 0.60014 0.23691 0.0
C439 C 0.55208 0.68087 0.21092 0.0
C440 C 0.53139 0.64617 0.23131 0.0
C441 C 0.46759 0.55028 0.29445 0.0
C442 C 0.4893 0.58372 0.27304 0.0
H443 H 0.56855 0.72065 0.11653 0.0
H444 H 0.54095 0.65975 0.14925 0.0
H445 H 0.48067 0.64362 0.18908 0.0
H446 H 0.37147 0.51701 0.31549 0.0
H447 H 0.40709 0.57517 0.28593 0.0
loop_
_geom_bond_atom_site_label_1
_geom_bond_atom_site_label_2
_geom_bond_distance
_geom_bond_site_symmetry_2
_ccdc_geom_bond_type
Fe0 O2 1.918 . S
Fe0 O5 1.997 . S
Fe0 O6 2.002 . S
Fe0 O11 1.976 . S
Fe0 O14 1.996 . S
Fe1 O2 1.918 . S
Fe1 O9 1.997 . S
Fe1 O12 1.996 . S
Fe1 O16 1.976 . S
Fe1 O19 2.002 . S
O2 Fe0 1.918 . S
O2 Fe1 1.918 . S
O2 Fe3 1.918 . S
Fe3 O2 1.918 . S
Fe3 O4 2.002 . S
Fe3 O13 1.976 . S
Fe3 O17 1.996 . S
Fe3 O20 1.997 . S
O4 Fe3 2.002 . S
O4 C21 1.295 . S
O5 Fe0 1.997 . S
O5 C21 1.235 . S
O6 Fe0 2.002 . S
O6 C7 1.295 . S
C7 O6 1.295 . S
C7 O9 1.235 . S
C8 O13 1.287 . S
C8 O14 1.255 . S
O9 Fe1 1.997 . S
O9 C7 1.235 . S
C10 O16 1.287 . S
C10 O17 1.255 . S
O11 Fe0 1.976 . S
O11 C18 1.287 . S
O12 Fe1 1.996 . S
O12 C18 1.255 . S
O13 Fe3 1.976 . S
O13 C8 1.287 . S
O14 Fe0 1.996 . S
O14 C8 1.255 . S
C15 O19 1.295 . S
C15 O20 1.235 . S
O16 Fe1 1.976 . S
O16 C10 1.287 . S
O17 Fe3 1.996 . S
O17 C10 1.255 . S
C18 O11 1.287 . S
C18 O12 1.255 . S
O19 Fe1 2.002 . S
O19 C15 1.295 . S
O20 Fe3 1.997 . S
O20 C15 1.235 . S
C21 O4 1.295 . S
C21 O5 1.235 . S
Fe22 O24 1.918 . S
Fe22 O27 1.997 . S
Fe22 O28 2.002 . S
Fe22 O33 1.976 . S
Fe22 O36 1.996 . S
Fe23 O24 1.918 . S
Fe23 O31 1.997 . S
Fe23 O34 1.996 . S
Fe23 O38 1.976 . S
Fe23 O41 2.002 . S
O24 Fe22 1.918 . S
O24 Fe23 1.918 . S
O24 Fe25 1.918 . S
Fe25 O24 1.918 . S
Fe25 O26 2.002 . S
Fe25 O35 1.976 . S
Fe25 O39 1.996 . S
Fe25 O42 1.997 . S
O26 Fe25 2.002 . S
O26 C43 1.295 . S
O27 Fe22 1.997 . S
O27 C43 1.235 . S
O28 Fe22 2.002 . S
O28 C29 1.295 . S
C29 O28 1.295 . S
C29 O31 1.235 . S
C30 O35 1.287 . S
C30 O36 1.255 . S
O31 Fe23 1.997 . S
O31 C29 1.235 . S
C32 O38 1.287 . S
C32 O39 1.255 . S
O33 Fe22 1.976 . S
O33 C40 1.287 . S
O34 Fe23 1.996 . S
O34 C40 1.255 . S
O35 Fe25 1.976 . S
O35 C30 1.287 . S
O36 Fe22 1.996 . S
O36 C30 1.255 . S
C37 O41 1.295 . S
C37 O42 1.235 . S
O38 Fe23 1.976 . S
O38 C32 1.287 . S
O39 Fe25 1.996 . S
O39 C32 1.255 . S
C40 O33 1.287 . S
C40 O34 1.255 . S
O41 Fe23 2.002 . S
O41 C37 1.295 . S
O42 Fe25 1.997 . S
O42 C37 1.235 . S
C43 O26 1.295 . S
C43 O27 1.235 . S
Fe44 O46 1.918 . S
Fe44 O49 1.997 . S
Fe44 O50 2.002 . S
Fe44 O55 1.976 . S
Fe44 O58 1.996 . S
Fe45 O46 1.918 . S
Fe45 O53 1.997 . S
Fe45 O56 1.996 . S
Fe45 O60 1.976 . S
Fe45 O63 2.002 . S
O46 Fe44 1.918 . S
O46 Fe45 1.918 . S
O46 Fe47 1.918 . S
Fe47 O46 1.918 . S
Fe47 O48 2.002 . S
Fe47 O57 1.976 . S
Fe47 O61 1.996 . S
Fe47 O64 1.997 . S
O48 Fe47 2.002 . S
O48 C65 1.295 . S
O49 Fe44 1.997 . S
O49 C65 1.235 . S
O50 Fe44 2.002 . S
O50 C51 1.295 . S
C51 O50 1.295 . S
C51 O53 1.235 . S
C52 O57 1.287 . S
C52 O58 1.255 . S
O53 Fe45 1.997 . S
O53 C51 1.235 . S
C54 O60 1.287 . S
C54 O61 1.255 . S
O55 Fe44 1.976 . S
O55 C62 1.287 . S
O56 Fe45 1.996 . S
O56 C62 1.255 . S
O57 Fe47 1.976 . S
O57 C52 1.287 . S
O58 Fe44 1.996 . S
O58 C52 1.255 . S
C59 O63 1.295 . S
C59 O64 1.235 . S
O60 Fe45 1.976 . S
O60 C54 1.287 . S
O61 Fe47 1.996 . S
O61 C54 1.255 . S
C62 O55 1.287 . S
C62 O56 1.255 . S
O63 Fe45 2.002 . S
O63 C59 1.295 . S
O64 Fe47 1.997 . S
O64 C59 1.235 . S
C65 O48 1.295 . S
C65 O49 1.235 . S
Fe66 O68 1.918 . S
Fe66 O71 1.997 . S
Fe66 O72 2.002 . S
Fe66 O77 1.976 . S
Fe66 O80 1.996 . S
Fe67 O68 1.918 . S
Fe67 O75 1.997 . S
Fe67 O78 1.996 . S
Fe67 O82 1.976 . S
Fe67 O85 2.002 . S
O68 Fe66 1.918 . S
O68 Fe67 1.918 . S
O68 Fe69 1.918 . S
Fe69 O68 1.918 . S
Fe69 O70 2.002 . S
Fe69 O79 1.976 . S
Fe69 O83 1.996 . S
Fe69 O86 1.997 . S
O70 Fe69 2.002 . S
O70 C87 1.295 . S
O71 Fe66 1.997 . S
O71 C87 1.235 . S
O72 Fe66 2.002 . S
O72 C73 1.295 . S
C73 O72 1.295 . S
C73 O75 1.235 . S
C74 O79 1.287 . S
C74 O80 1.255 . S
O75 Fe67 1.997 . S
O75 C73 1.235 . S
C76 O82 1.287 . S
C76 O83 1.255 . S
O77 Fe66 1.976 . S
O77 C84 1.287 . S
O78 Fe67 1.996 . S
O78 C84 1.255 . S
O79 Fe69 1.976 . S
O79 C74 1.287 . S
O80 Fe66 1.996 . S
O80 C74 1.255 . S
C81 O85 1.295 . S
C81 O86 1.235 . S
O82 Fe67 1.976 . S
O82 C76 1.287 . S
O83 Fe69 1.996 . S
O83 C76 1.255 . S
C84 O77 1.287 . S
C84 O78 1.255 . S
O85 Fe67 2.002 . S
O85 C81 1.295 . S
O86 Fe69 1.997 . S
O86 C81 1.235 . S
C87 O70 1.295 . S
C87 O71 1.235 . S
C88 C89 1.349 . S
C88 C90 1.327 1_556 S
C88 H113 0.950 . S
C89 C88 1.349 . S
C89 C105 1.349 1_556 S
C90 C88 1.327 1_554 S
C90 C109 1.429 . S
C90 H114 0.950 . S
C91 C108 1.574 . S
C91 C110 1.368 . S
C91 H115 0.949 . S
H92 C96 0.949 . S
C93 C94 1.349 . S
C93 C95 1.327 . S
C93 H116 0.950 . S
C94 C93 1.349 . S
C94 C106 1.349 . S
C95 C93 1.327 . S
C95 C111 1.429 . S
C95 H117 0.950 . S
C96 H92 0.949 . S
C96 C104 1.574 . S
C96 C112 1.368 . S
H97 C105 0.950 . S
H98 C103 0.950 . S
H99 C104 0.949 . S
H100 C106 0.950 . S
H101 C107 0.950 . S
H102 C108 0.949 . S
C103 H98 0.950 . S
C103 C105 1.327 . S
C103 C109 1.429 . S
C104 C96 1.574 . S
C104 H99 0.949 . S
C104 C110 1.368 . S
C105 C89 1.349 1_554 S
C105 H97 0.950 . S
C105 C103 1.327 . S
C106 C94 1.349 . S
C106 H100 0.950 . S
C106 C107 1.327 . S
C107 H101 0.950 . S
C107 C106 1.327 . S
C107 C111 1.429 . S
C108 C91 1.574 . S
C108 H102 0.949 . S
C108 C112 1.368 . S
C109 C90 1.429 . S
C109 C103 1.429 . S
C109 C110 1.523 . S
C110 C91 1.368 . S
C110 C104 1.368 . S
C110 C109 1.523 . S
C111 C95 1.429 . S
C111 C107 1.429 . S
C111 C112 1.523 . S
C112 C96 1.368 . S
C112 C108 1.368 . S
C112 C111 1.523 . S
H113 C88 0.950 . S
H114 C90 0.950 . S
H115 C91 0.949 . S
H116 C93 0.950 . S
H117 C95 0.950 . S
C118 C119 1.349 . S
C118 C120 1.327 . S
C118 H143 0.950 . S
C119 C118 1.349 . S
C119 C135 1.349 . S
C120 C118 1.327 . S
C120 C139 1.429 . S
C120 H144 0.950 . S
C121 C138 1.574 . S
C121 C140 1.368 . S
C121 H145 0.949 . S
H122 C126 0.949 . S
C123 C124 1.349 . S
C123 C125 1.327 . S
C123 H146 0.950 . S
C124 C123 1.349 . S
C124 C136 1.349 . S
C125 C123 1.327 . S
C125 C141 1.429 . S
C125 H147 0.950 1_545 S
C126 H122 0.949 . S
C126 C134 1.574 . S
C126 C142 1.368 . S
H127 C135 0.950 . S
H128 C133 0.950 . S
H129 C134 0.949 . S
H130 C136 0.950 . S
H131 C137 0.950 . S
H132 C138 0.949 . S
C133 H128 0.950 . S
C133 C135 1.327 . S
C133 C139 1.429 . S
C134 C126 1.574 . S
C134 H129 0.949 . S
C134 C140 1.368 1_545 S
C135 C119 1.349 . S
C135 H127 0.950 . S
C135 C133 1.327 . S
C136 C124 1.349 . S
C136 H130 0.950 . S
C136 C137 1.327 . S
C137 H131 0.950 . S
C137 C136 1.327 . S
C137 C141 1.429 . S
C138 C121 1.574 . S
C138 H132 0.949 . S
C138 C142 1.368 1_565 S
C139 C120 1.429 . S
C139 C133 1.429 . S
C139 C140 1.523 . S
C140 C121 1.368 . S
C140 C134 1.368 1_565 S
C140 C139 1.523 . S
C141 C125 1.429 . S
C141 C137 1.429 . S
C141 C142 1.523 . S
C142 C126 1.368 . S
C142 C138 1.368 1_545 S
C142 C141 1.523 . S
H143 C118 0.950 . S
H144 C120 0.950 . S
H145 C121 0.949 . S
H146 C123 0.950 . S
H147 C125 0.950 1_565 S
C148 C149 1.349 . S
C148 C150 1.327 . S
C148 H173 0.950 . S
C149 C148 1.349 . S
C149 C165 1.349 . S
C150 C148 1.327 . S
C150 C169 1.429 . S
C150 H174 0.950 . S
C151 C168 1.574 . S
C151 C170 1.368 . S
C151 H175 0.949 . S
H152 C156 0.949 . S
C153 C154 1.349 . S
C153 C155 1.327 . S
C153 H176 0.950 . S
C154 C153 1.349 . S
C154 C166 1.349 . S
C155 C153 1.327 . S
C155 C171 1.429 . S
C155 H177 0.950 . S
C156 H152 0.949 . S
C156 C164 1.574 . S
C156 C172 1.368 . S
H157 C165 0.950 . S
H158 C163 0.950 . S
H159 C164 0.949 . S
H160 C166 0.950 . S
H161 C167 0.950 . S
H162 C168 0.949 . S
C163 H158 0.950 . S
C163 C165 1.327 . S
C163 C169 1.429 . S
C164 C156 1.574 . S
C164 H159 0.949 . S
C164 C170 1.368 . S
C165 C149 1.349 . S
C165 H157 0.950 . S
C165 C163 1.327 . S
C166 C154 1.349 . S
C166 H160 0.950 . S
C166 C167 1.327 . S
C167 H161 0.950 . S
C167 C166 1.327 . S
C167 C171 1.429 . S
C168 C151 1.574 . S
C168 H162 0.949 . S
C168 C172 1.368 . S
C169 C150 1.429 . S
C169 C163 1.429 . S
C169 C170 1.523 . S
C170 C151 1.368 . S
C170 C164 1.368 . S
C170 C169 1.523 . S
C171 C155 1.429 . S
C171 C167 1.429 . S
C171 C172 1.523 . S
C172 C156 1.368 . S
C172 C168 1.368 . S
C172 C171 1.523 . S
H173 C148 0.950 . S
H174 C150 0.950 . S
H175 C151 0.949 . S
H176 C153 0.950 . S
H177 C155 0.950 . S
C178 C179 1.349 1_556 S
C178 C180 1.327 . S
C178 H203 0.950 . S
C179 C178 1.349 1_554 S
C179 C195 1.349 1_554 S
C180 C178 1.327 . S
C180 C199 1.429 . S
C180 H204 0.950 . S
C181 C198 1.574 . S
C181 C200 1.368 1_545 S
C181 H205 0.949 . S
H182 C186 0.949 . S
C183 C184 1.349 . S
C183 C185 1.327 . S
C183 H206 0.950 . S
C184 C183 1.349 . S
C184 C196 1.349 . S
C185 C183 1.327 . S
C185 C201 1.429 . S
C185 H207 0.950 . S
C186 H182 0.949 . S
C186 C194 1.574 . S
C186 C202 1.368 1_565 S
H187 C195 0.950 1_554 S
H188 C193 0.950 1_545 S
H189 C194 0.949 . S
H190 C196 0.950 . S
H191 C197 0.950 . S
H192 C198 0.949 . S
C193 H188 0.950 1_565 S
C193 C195 1.327 . S
C193 C199 1.429 . S
C194 C186 1.574 . S
C194 H189 0.949 . S
C194 C200 1.368 . S
C195 C179 1.349 1_556 S
C195 H187 0.950 1_556 S
C195 C193 1.327 . S
C196 C184 1.349 . S
C196 H190 0.950 . S
C196 C197 1.327 . S
C197 H191 0.950 . S
C197 C196 1.327 . S
C197 C201 1.429 . S
C198 C181 1.574 . S
C198 H192 0.949 . S
C198 C202 1.368 . S
C199 C180 1.429 . S
C199 C193 1.429 . S
C199 C200 1.523 . S
C200 C181 1.368 1_565 S
C200 C194 1.368 . S
C200 C199 1.523 . S
C201 C185 1.429 . S
C201 C197 1.429 . S
C201 C202 1.523 . S
C202 C186 1.368 1_545 S
C202 C198 1.368 . S
C202 C201 1.523 . S
H203 C178 0.950 . S
H204 C180 0.950 . S
H205 C181 0.949 . S
H206 C183 0.950 . S
H207 C185 0.950 . S
C208 C209 1.349 1_455 S
C208 C210 1.327 . S
C208 H233 0.950 . S
C209 C208 1.349 1_655 S
C209 C225 1.349 1_655 S
C210 C208 1.327 . S
C210 C229 1.429 . S
C210 H234 0.950 . S
C211 C228 1.574 . S
C211 C230 1.368 . S
C211 H235 0.949 . S
H212 C216 0.949 . S
C213 C214 1.349 . S
C213 C215 1.327 . S
C213 H236 0.950 . S
C214 C213 1.349 . S
C214 C226 1.349 . S
C215 C213 1.327 . S
C215 C231 1.429 . S
C215 H237 0.950 . S
C216 H212 0.949 . S
C216 C224 1.574 . S
C216 C232 1.368 . S
H217 C225 0.950 1_655 S
H218 C223 0.950 . S
H219 C224 0.949 . S
H220 C226 0.950 . S
H221 C227 0.950 . S
H222 C228 0.949 . S
C223 H218 0.950 . S
C223 C225 1.327 . S
C223 C229 1.429 . S
C224 C216 1.574 . S
C224 H219 0.949 . S
C224 C230 1.368 . S
C225 C209 1.349 1_455 S
C225 H217 0.950 1_455 S
C225 C223 1.327 . S
C226 C214 1.349 . S
C226 H220 0.950 . S
C226 C227 1.327 . S
C227 H221 0.950 . S
C227 C226 1.327 . S
C227 C231 1.429 . S
C228 C211 1.574 . S
C228 H222 0.949 . S
C228 C232 1.368 . S
C229 C210 1.429 . S
C229 C223 1.429 . S
C229 C230 1.523 . S
C230 C211 1.368 . S
C230 C224 1.368 . S
C230 C229 1.523 . S
C231 C215 1.429 . S
C231 C227 1.429 . S
C231 C232 1.523 . S
C232 C216 1.368 . S
C232 C228 1.368 . S
C232 C231 1.523 . S
H233 C208 0.950 . S
H234 C210 0.950 . S
H235 C211 0.949 . S
H236 C213 0.950 . S
H237 C215 0.950 . S
C238 C239 1.349 . S
C238 C240 1.327 . S
C238 H263 0.950 . S
C239 C238 1.349 . S
C239 C255 1.349 . S
C240 C238 1.327 . S
C240 C259 1.429 . S
C240 H264 0.950 . S
C241 C258 1.574 . S
C241 C260 1.368 . S
C241 H265 0.949 . S
H242 C246 0.949 . S
C243 C244 1.349 . S
C243 C245 1.327 1_545 S
C243 H266 0.950 . S
C244 C243 1.349 . S
C244 C256 1.349 1_545 S
C245 C243 1.327 1_565 S
C245 C261 1.429 . S
C245 H267 0.950 . S
C246 H242 0.949 . S
C246 C254 1.574 . S
C246 C262 1.368 . S
H247 C255 0.950 . S
H248 C253 0.950 . S
H249 C254 0.949 . S
H250 C256 0.950 . S
H251 C257 0.950 . S
H252 C258 0.949 . S
C253 H248 0.950 . S
C253 C255 1.327 . S
C253 C259 1.429 . S
C254 C246 1.574 . S
C254 H249 0.949 . S
C254 C260 1.368 1_655 S
C255 C239 1.349 . S
C255 H247 0.950 . S
C255 C253 1.327 . S
C256 C244 1.349 1_565 S
C256 H250 0.950 . S
C256 C257 1.327 . S
C257 H251 0.950 . S
C257 C256 1.327 . S
C257 C261 1.429 . S
C258 C241 1.574 . S
C258 H252 0.949 . S
C258 C262 1.368 1_455 S
C259 C240 1.429 . S
C259 C253 1.429 . S
C259 C260 1.523 . S
C260 C241 1.368 . S
C260 C254 1.368 1_455 S
C260 C259 1.523 . S
C261 C245 1.429 . S
C261 C257 1.429 . S
C261 C262 1.523 . S
C262 C246 1.368 . S
C262 C258 1.368 1_655 S
C262 C261 1.523 . S
H263 C238 0.950 . S
H264 C240 0.950 . S
H265 C241 0.949 . S
H266 C243 0.950 . S
H267 C245 0.950 . S
C268 C269 1.349 . S
C268 C270 1.327 . S
C268 H293 0.950 . S
C269 C268 1.349 . S
C269 C285 1.349 . S
C270 C268 1.327 . S
C270 C289 1.429 . S
C270 H294 0.950 . S
C271 C288 1.574 . S
C271 C290 1.368 . S
C271 H295 0.949 . S
H272 C276 0.949 . S
C273 C274 1.349 . S
C273 C275 1.327 . S
C273 H296 0.950 . S
C274 C273 1.349 . S
C274 C286 1.349 . S
C275 C273 1.327 . S
C275 C291 1.429 . S
C275 H297 0.950 . S
C276 H272 0.949 . S
C276 C284 1.574 . S
C276 C292 1.368 . S
H277 C285 0.950 . S
H278 C283 0.950 . S
H279 C284 0.949 . S
H280 C286 0.950 . S
H281 C287 0.950 . S
H282 C288 0.949 . S
C283 H278 0.950 . S
C283 C285 1.327 . S
C283 C289 1.429 . S
C284 C276 1.574 . S
C284 H279 0.949 . S
C284 C290 1.368 1_554 S
C285 C269 1.349 . S
C285 H277 0.950 . S
C285 C283 1.327 . S
C286 C274 1.349 . S
C286 H280 0.950 . S
C286 C287 1.327 . S
C287 H281 0.950 . S
C287 C286 1.327 . S
C287 C291 1.429 . S
C288 C271 1.574 . S
C288 H282 0.949 . S
C288 C292 1.368 1_556 S
C289 C270 1.429 . S
C289 C283 1.429 . S
C289 C290 1.523 . S
C290 C271 1.368 . S
C290 C284 1.368 1_556 S
C290 C289 1.523 . S
C291 C275 1.429 . S
C291 C287 1.429 . S
C291 C292 1.523 . S
C292 C276 1.368 . S
C292 C288 1.368 1_554 S
C292 C291 1.523 . S
H293 C268 0.950 . S
H294 C270 0.950 . S
H295 C271 0.949 . S
H296 C273 0.950 . S
H297 C275 0.950 . S
C298 C299 1.349 . S
C298 C300 1.327 . S
C298 H323 0.950 . S
C299 C298 1.349 . S
C299 C315 1.349 . S
C300 C298 1.327 . S
C300 C319 1.429 . S
C300 H324 0.950 . S
C301 C318 1.574 . S
C301 C320 1.368 . S
C301 H325 0.949 . S
H302 C306 0.949 . S
C303 C304 1.349 1_545 S
C303 C305 1.327 . S
C303 H326 0.950 1_545 S
C304 C303 1.349 1_565 S
C304 C316 1.349 1_565 S
C305 C303 1.327 . S
C305 C321 1.429 . S
C305 H327 0.950 . S
C306 H302 0.949 . S
C306 C314 1.574 . S
C306 C322 1.368 . S
H307 C315 0.950 . S
H308 C313 0.950 . S
H309 C314 0.949 . S
H310 C316 0.950 . S
H311 C317 0.950 . S
H312 C318 0.949 . S
C313 H308 0.950 . S
C313 C315 1.327 . S
C313 C319 1.429 . S
C314 C306 1.574 . S
C314 H309 0.949 . S
C314 C320 1.368 . S
C315 C299 1.349 . S
C315 H307 0.950 . S
C315 C313 1.327 . S
C316 C304 1.349 1_545 S
C316 H310 0.950 . S
C316 C317 1.327 . S
C317 H311 0.950 . S
C317 C316 1.327 . S
C317 C321 1.429 . S
C318 C301 1.574 . S
C318 H312 0.949 . S
C318 C322 1.368 . S
C319 C300 1.429 . S
C319 C313 1.429 . S
C319 C320 1.523 . S
C320 C301 1.368 . S
C320 C314 1.368 . S
C320 C319 1.523 . S
C321 C305 1.429 . S
C321 C317 1.429 . S
C321 C322 1.523 . S
C322 C306 1.368 . S
C322 C318 1.368 . S
C322 C321 1.523 . S
H323 C298 0.950 . S
H324 C300 0.950 . S
H325 C301 0.949 . S
H326 C303 0.950 1_565 S
H327 C305 0.950 . S
C328 C329 1.349 . S
C328 C330 1.327 . S
C328 H353 0.950 . S
C329 C328 1.349 . S
C329 C345 1.349 . S
C330 C328 1.327 . S
C330 C349 1.429 . S
C330 H354 0.950 . S
C331 C348 1.574 . S
C331 C350 1.368 . S
C331 H355 0.949 . S
H332 C336 0.949 . S
C333 C334 1.349 . S
C333 C335 1.327 . S
C333 H356 0.950 . S
C334 C333 1.349 . S
C334 C346 1.349 . S
C335 C333 1.327 . S
C335 C351 1.429 . S
C335 H357 0.950 . S
C336 H332 0.949 . S
C336 C344 1.574 . S
C336 C352 1.368 . S
H337 C345 0.950 . S
H338 C343 0.950 . S
H339 C344 0.949 . S
H340 C346 0.950 . S
H341 C347 0.950 . S
H342 C348 0.949 . S
C343 H338 0.950 . S
C343 C345 1.327 . S
C343 C349 1.429 . S
C344 C336 1.574 . S
C344 H339 0.949 . S
C344 C350 1.368 . S
C345 C329 1.349 . S
C345 H337 0.950 . S
C345 C343 1.327 . S
C346 C334 1.349 . S
C346 H340 0.950 . S
C346 C347 1.327 . S
C347 H341 0.950 . S
C347 C346 1.327 . S
C347 C351 1.429 . S
C348 C331 1.574 . S
C348 H342 0.949 . S
C348 C352 1.368 . S
C349 C330 1.429 . S
C349 C343 1.429 . S
C349 C350 1.523 . S
C350 C331 1.368 . S
C350 C344 1.368 . S
C350 C349 1.523 . S
C351 C335 1.429 . S
C351 C347 1.429 . S
C351 C352 1.523 . S
C352 C336 1.368 . S
C352 C348 1.368 . S
C352 C351 1.523 . S
H353 C328 0.950 . S
H354 C330 0.950 . S
H355 C331 0.949 . S
H356 C333 0.950 . S
H357 C335 0.950 . S
C358 C359 1.349 . S
C358 C360 1.327 . S
C358 H383 0.950 . S
C359 C358 1.349 . S
C359 C375 1.349 . S
C360 C358 1.327 . S
C360 C379 1.429 . S
C360 H384 0.950 . S
C361 C378 1.574 1_455 S
C361 C380 1.368 . S
C361 H385 0.949 . S
H362 C366 0.949 . S
C363 C364 1.349 . S
C363 C365 1.327 . S
C363 H386 0.950 . S
C364 C363 1.349 . S
C364 C376 1.349 . S
C365 C363 1.327 . S
C365 C381 1.429 . S
C365 H387 0.950 . S
C366 H362 0.949 . S
C366 C374 1.574 . S
C366 C382 1.368 . S
H367 C375 0.950 . S
H368 C373 0.950 . S
H369 C374 0.949 . S
H370 C376 0.950 . S
H371 C377 0.950 . S
H372 C378 0.949 . S
C373 H368 0.950 . S
C373 C375 1.327 . S
C373 C379 1.429 . S
C374 C366 1.574 . S
C374 H369 0.949 . S
C374 C380 1.368 1_655 S
C375 C359 1.349 . S
C375 H367 0.950 . S
C375 C373 1.327 . S
C376 C364 1.349 . S
C376 H370 0.950 . S
C376 C377 1.327 . S
C377 H371 0.950 . S
C377 C376 1.327 . S
C377 C381 1.429 . S
C378 C361 1.574 1_655 S
C378 H372 0.949 . S
C378 C382 1.368 . S
C379 C360 1.429 . S
C379 C373 1.429 . S
C379 C380 1.523 . S
C380 C361 1.368 . S
C380 C374 1.368 1_455 S
C380 C379 1.523 . S
C381 C365 1.429 . S
C381 C377 1.429 . S
C381 C382 1.523 . S
C382 C366 1.368 . S
C382 C378 1.368 . S
C382 C381 1.523 . S
H383 C358 0.950 . S
H384 C360 0.950 . S
H385 C361 0.949 . S
H386 C363 0.950 . S
H387 C365 0.950 . S
C388 C389 1.349 1_655 S
C388 C390 1.327 . S
C388 H413 0.950 1_655 S
C389 C388 1.349 1_455 S
C389 C405 1.349 1_455 S
C390 C388 1.327 . S
C390 C409 1.429 . S
C390 H414 0.950 . S
C391 C408 1.574 . S
C391 C410 1.368 1_554 S
C391 H415 0.949 . S
H392 C396 0.948 1_556 S
C393 C394 1.349 . S
C393 C395 1.327 . S
C393 H416 0.950 . S
C394 C393 1.349 . S
C394 C406 1.349 . S
C395 C393 1.327 . S
C395 C411 1.429 . S
C395 H417 0.950 . S
C396 H392 0.948 1_554 S
C396 C404 1.574 1_554 S
C396 C412 1.368 . S
H397 C405 0.950 . S
H398 C403 0.950 . S
H399 C404 0.949 . S
H400 C406 0.950 . S
H401 C407 0.950 . S
H402 C408 0.949 . S
C403 H398 0.950 . S
C403 C405 1.327 . S
C403 C409 1.429 . S
C404 C396 1.574 1_556 S
C404 H399 0.949 . S
C404 C410 1.368 . S
C405 C389 1.349 1_655 S
C405 H397 0.950 . S
C405 C403 1.327 . S
C406 C394 1.349 . S
C406 H400 0.950 . S
C406 C407 1.327 . S
C407 H401 0.950 . S
C407 C406 1.327 . S
C407 C411 1.429 . S
C408 C391 1.574 . S
C408 H402 0.949 . S
C408 C412 1.368 . S
C409 C390 1.429 . S
C409 C403 1.429 . S
C409 C410 1.523 . S
C410 C391 1.368 1_556 S
C410 C404 1.368 . S
C410 C409 1.523 . S
C411 C395 1.429 . S
C411 C407 1.429 . S
C411 C412 1.523 . S
C412 C396 1.368 . S
C412 C408 1.368 . S
C412 C411 1.523 . S
H413 C388 0.950 1_455 S
H414 C390 0.950 . S
H415 C391 0.949 . S
H416 C393 0.950 . S
H417 C395 0.950 . S
C418 C419 1.349 . S
C418 C420 1.327 . S
C418 H443 0.950 . S
C419 C418 1.349 . S
C419 C435 1.349 . S
C420 C418 1.327 . S
C420 C439 1.429 . S
C420 H444 0.950 . S
C421 C438 1.574 . S
C421 C440 1.368 . S
C421 H445 0.949 . S
H422 C426 0.949 . S
C423 C424 1.349 . S
C423 C425 1.327 . S
C423 H446 0.950 . S
C424 C423 1.349 . S
C424 C436 1.349 . S
C425 C423 1.327 . S
C425 C441 1.429 . S
C425 H447 0.950 . S
C426 H422 0.949 . S
C426 C434 1.574 . S
C426 C442 1.368 . S
H427 C435 0.950 . S
H428 C433 0.950 . S
H429 C434 0.949 . S
H430 C436 0.950 . S
H431 C437 0.950 . S
H432 C438 0.949 . S
C433 H428 0.950 . S
C433 C435 1.327 . S
C433 C439 1.429 . S
C434 C426 1.574 . S
C434 H429 0.949 . S
C434 C440 1.368 . S
C435 C419 1.349 . S
C435 H427 0.950 . S
C435 C433 1.327 . S
C436 C424 1.349 . S
C436 H430 0.950 . S
C436 C437 1.327 . S
C437 H431 0.950 . S
C437 C436 1.327 . S
C437 C441 1.429 . S
C438 C421 1.574 . S
C438 H432 0.949 . S
C438 C442 1.368 . S
C439 C420 1.429 . S
C439 C433 1.429 . S
C439 C440 1.523 . S
C440 C421 1.368 . S
C440 C434 1.368 . S
C440 C439 1.523 . S
C441 C425 1.429 . S
C441 C437 1.429 . S
C441 C442 1.523 . S
C442 C426 1.368 . S
C442 C438 1.368 . S
C442 C441 1.523 . S
H443 C418 0.950 . S
H444 C420 0.950 . S
H445 C421 0.949 . S
H446 C423 0.950 . S
H447 C425 0.950 . S
C89 C59 1.321 . S
C94 C21 1.317 . S
C119 C84 1.284 . S
C124 C29 1.267 . S
C149 C62 1.231 . S
C154 C10 1.233 . S
C179 C81 1.267 . S
C184 C30 1.284 . S
C209 C37 1.321 . S
C214 C15 1.317 . S
C239 C52 1.284 . S
C244 C43 1.267 . S
C269 C54 1.284 . S
C274 C87 1.267 . S
C299 C7 1.317 . S
C304 C73 1.321 . S
C329 C40 1.231 . S
C334 C18 1.233 . S
C359 C51 1.267 . S
C364 C32 1.284 . S
C389 C65 1.267 . S
C394 C76 1.284 . S
C419 C74 1.231 . S
C424 C8 1.233 . S
