# Generated by pormake.
# Topology wmi, (6)-cn, num edge types: 1
# Building blocks:
#     Node 0, Type 0, BuildingBlock: BETFAJ_clean_sbu_0, # of connection points: 6
#     Node 1, Type 0, BuildingBlock: BETFAJ_clean_sbu_0, # of connection points: 6
#     Node 2, Type 0, BuildingBlock: BETFAJ_clean_sbu_0, # of connection points: 6
#     Node 3, Type 0, BuildingBlock: BETFAJ_clean_sbu_0, # of connection points: 6
#     Node 4, Type 0, BuildingBlock: BETFAJ_clean_sbu_0, # of connection points: 6
#     Node 5, Type 0, BuildingBlock: BETFAJ_clean_sbu_0, # of connection points: 6
#     Node 6, Type 0, BuildingBlock: BETFAJ_clean_sbu_0, # of connection points: 6
#     Node 7, Type 0, BuildingBlock: BETFAJ_clean_sbu_0, # of connection points: 6
#     Node 8, Type 0, BuildingBlock: BETFAJ_clean_sbu_0, # of connection points: 6
#     Node 9, Type 0, BuildingBlock: BETFAJ_clean_sbu_0, # of connection points: 6
#     Node 10, Type 0, BuildingBlock: BETFAJ_clean_sbu_0, # of connection points: 6
#     Node 11, Type 0, BuildingBlock: BETFAJ_clean_sbu_0, # of connection points: 6
#     Node 12, Type 0, BuildingBlock: BETFAJ_clean_sbu_0, # of connection points: 6
#     Node 13, Type 0, BuildingBlock: BETFAJ_clean_sbu_0, # of connection points: 6
#     Node 14, Type 0, BuildingBlock: BETFAJ_clean_sbu_0, # of connection points: 6
#     Node 15, Type 0, BuildingBlock: BETFAJ_clean_sbu_0, # of connection points: 6
#     Node 16, Type 0, BuildingBlock: BETFAJ_clean_sbu_0, # of connection points: 6
#     Node 17, Type 0, BuildingBlock: BETFAJ_clean_sbu_0, # of connection points: 6
#     Edge 18, Type (0, 0), BuildingBlock: AJUNOK_clean_linker_0, # of connection points: 2
#     Edge 19, Type (0, 0), BuildingBlock: AJUNOK_clean_linker_0, # of connection points: 2
#     Edge 20, Type (0, 0), BuildingBlock: AJUNOK_clean_linker_0, # of connection points: 2
#     Edge 21, Type (0, 0), BuildingBlock: AJUNOK_clean_linker_0, # of connection points: 2
#     Edge 22, Type (0, 0), BuildingBlock: AJUNOK_clean_linker_0, # of connection points: 2
#     Edge 23, Type (0, 0), BuildingBlock: AJUNOK_clean_linker_0, # of connection points: 2
#     Edge 24, Type (0, 0), BuildingBlock: AJUNOK_clean_linker_0, # of connection points: 2
#     Edge 25, Type (0, 0), BuildingBlock: AJUNOK_clean_linker_0, # of connection points: 2
#     Edge 26, Type (0, 0), BuildingBlock: AJUNOK_clean_linker_0, # of connection points: 2
#     Edge 27, Type (0, 0), BuildingBlock: AJUNOK_clean_linker_0, # of connection points: 2
#     Edge 28, Type (0, 0), BuildingBlock: AJUNOK_clean_linker_0, # of connection points: 2
#     Edge 29, Type (0, 0), BuildingBlock: AJUNOK_clean_linker_0, # of connection points: 2
#     Edge 30, Type (0, 0), BuildingBlock: AJUNOK_clean_linker_0, # of connection points: 2
#     Edge 31, Type (0, 0), BuildingBlock: AJUNOK_clean_linker_0, # of connection points: 2
#     Edge 32, Type (0, 0), BuildingBlock: AJUNOK_clean_linker_0, # of connection points: 2
#     Edge 33, Type (0, 0), BuildingBlock: AJUNOK_clean_linker_0, # of connection points: 2
#     Edge 34, Type (0, 0), BuildingBlock: AJUNOK_clean_linker_0, # of connection points: 2
#     Edge 35, Type (0, 0), BuildingBlock: AJUNOK_clean_linker_0, # of connection points: 2
#     Edge 36, Type (0, 0), BuildingBlock: AJUNOK_clean_linker_0, # of connection points: 2
#     Edge 37, Type (0, 0), BuildingBlock: AJUNOK_clean_linker_0, # of connection points: 2
#     Edge 38, Type (0, 0), BuildingBlock: AJUNOK_clean_linker_0, # of connection points: 2
#     Edge 39, Type (0, 0), BuildingBlock: AJUNOK_clean_linker_0, # of connection points: 2
#     Edge 40, Type (0, 0), BuildingBlock: AJUNOK_clean_linker_0, # of connection points: 2
#     Edge 41, Type (0, 0), BuildingBlock: AJUNOK_clean_linker_0, # of connection points: 2
#     Edge 42, Type (0, 0), BuildingBlock: AJUNOK_clean_linker_0, # of connection points: 2
#     Edge 43, Type (0, 0), BuildingBlock: AJUNOK_clean_linker_0, # of connection points: 2
#     Edge 44, Type (0, 0), BuildingBlock: AJUNOK_clean_linker_0, # of connection points: 2
#     Edge 45, Type (0, 0), BuildingBlock: AJUNOK_clean_linker_0, # of connection points: 2
#     Edge 46, Type (0, 0), BuildingBlock: AJUNOK_clean_linker_0, # of connection points: 2
#     Edge 47, Type (0, 0), BuildingBlock: AJUNOK_clean_linker_0, # of connection points: 2
#     Edge 48, Type (0, 0), BuildingBlock: AJUNOK_clean_linker_0, # of connection points: 2
#     Edge 49, Type (0, 0), BuildingBlock: AJUNOK_clean_linker_0, # of connection points: 2
#     Edge 50, Type (0, 0), BuildingBlock: AJUNOK_clean_linker_0, # of connection points: 2
#     Edge 51, Type (0, 0), BuildingBlock: AJUNOK_clean_linker_0, # of connection points: 2
#     Edge 52, Type (0, 0), BuildingBlock: AJUNOK_clean_linker_0, # of connection points: 2
#     Edge 53, Type (0, 0), BuildingBlock: AJUNOK_clean_linker_0, # of connection points: 2
#     Edge 54, Type (0, 0), BuildingBlock: AJUNOK_clean_linker_0, # of connection points: 2
#     Edge 55, Type (0, 0), BuildingBlock: AJUNOK_clean_linker_0, # of connection points: 2
#     Edge 56, Type (0, 0), BuildingBlock: AJUNOK_clean_linker_0, # of connection points: 2
#     Edge 57, Type (0, 0), BuildingBlock: AJUNOK_clean_linker_0, # of connection points: 2
#     Edge 58, Type (0, 0), BuildingBlock: AJUNOK_clean_linker_0, # of connection points: 2
#     Edge 59, Type (0, 0), BuildingBlock: AJUNOK_clean_linker_0, # of connection points: 2
#     Edge 60, Type (0, 0), BuildingBlock: AJUNOK_clean_linker_0, # of connection points: 2
#     Edge 61, Type (0, 0), BuildingBlock: AJUNOK_clean_linker_0, # of connection points: 2
#     Edge 62, Type (0, 0), BuildingBlock: AJUNOK_clean_linker_0, # of connection points: 2
#     Edge 63, Type (0, 0), BuildingBlock: AJUNOK_clean_linker_0, # of connection points: 2
#     Edge 64, Type (0, 0), BuildingBlock: AJUNOK_clean_linker_0, # of connection points: 2
#     Edge 65, Type (0, 0), BuildingBlock: AJUNOK_clean_linker_0, # of connection points: 2
#     Edge 66, Type (0, 0), BuildingBlock: AJUNOK_clean_linker_0, # of connection points: 2
#     Edge 67, Type (0, 0), BuildingBlock: AJUNOK_clean_linker_0, # of connection points: 2
#     Edge 68, Type (0, 0), BuildingBlock: AJUNOK_clean_linker_0, # of connection points: 2
#     Edge 69, Type (0, 0), BuildingBlock: AJUNOK_clean_linker_0, # of connection points: 2
#     Edge 70, Type (0, 0), BuildingBlock: AJUNOK_clean_linker_0, # of connection points: 2
#     Edge 71, Type (0, 0), BuildingBlock: AJUNOK_clean_linker_0, # of connection points: 2
# Relax obj value: 0.112
# Max RMSD: 0.239
# Mean RMSD: 0.239
data_MOF--net-wmi--node1-BETFAJ_clean_sbu_0--edge1-AJUNOK_clean_linker_0
_symmetry_space_group_name_H-M    P1
_symmetry_Int_Tables_number       1
_symmetry_cell_setting            triclinic
loop_
_symmetry_equiv_pos_as_xyz
'x, y, z'
_cell_length_a     32.130429
_cell_length_b     32.160855
_cell_length_c     56.382515
_cell_angle_alpha  89.707974
_cell_angle_beta   90.043876
_cell_angle_gamma 119.95176
loop_
_atom_site_label
_atom_site_type_symbol
_atom_site_fract_x
_atom_site_fract_y
_atom_site_fract_z
_atom_type_partial_charge
Sm0 Sm 0.56084 0.07798 0.13111 0.0
Sm1 Sm 0.46991 1.02124 0.10797 0.0
C2 C 0.64566 0.14225 0.14914 0.0
C3 C 0.69451 0.18082 0.14258 0.0
C4 C 0.71695 0.18032 0.12125 0.0
C5 C 0.76323 0.21812 0.11566 0.0
C6 C 0.78742 0.25714 0.13118 0.0
C7 C 0.76502 0.25693 0.15262 0.0
C8 C 0.71914 0.21924 0.15823 0.0
C9 C 0.48184 1.02767 0.16152 0.0
C10 C 0.5072 0.13376 0.11217 0.0
C11 C 0.38264 0.94994 0.09798 0.0
C12 C 0.35844 0.89736 0.10127 0.0
C13 C 0.36959 0.87714 0.12072 0.0
C14 C 0.34462 0.82743 0.12444 0.0
C15 C 0.30823 0.79701 0.10872 0.0
C16 C 0.29863 0.81718 0.08872 0.0
C17 C 0.32344 0.86694 0.08507 0.0
C18 C 0.53936 0.07024 0.07428 0.0
C19 C 0.54111 0.97614 0.11731 0.0
O20 O 0.63383 0.09803 0.14437 0.0
O21 O 0.61045 0.15072 0.14556 0.0
O22 O 0.48509 0.05274 0.14397 0.0
O23 O 0.52165 1.0272 0.164 0.0
O24 O 0.5492 0.13607 0.11368 0.0
O25 O 0.46729 0.09149 0.11241 0.0
O26 O 0.393 0.97535 0.11734 0.0
O27 O 0.41727 0.96855 0.08234 0.0
O28 O 0.54514 0.05043 0.09263 0.0
O29 O 0.49723 0.06662 0.07455 0.0
O30 O 0.49595 0.96659 0.11773 0.0
O31 O 0.57582 1.02082 0.11791 0.0
H32 H 0.69862 0.15102 0.10888 0.0
H33 H 0.77965 0.21743 0.099 0.0
H34 H 0.78304 0.28616 0.16507 0.0
H35 H 0.7027 0.22024 0.17483 0.0
H36 H 0.39702 0.89983 0.13329 0.0
H37 H 0.35317 0.81281 0.13983 0.0
H38 H 0.27059 0.79458 0.07639 0.0
H39 H 0.31457 0.88175 0.06987 0.0
Sm40 Sm 0.04787 0.53635 0.12855 0.0
Sm41 Sm 0.09382 0.48194 0.11118 0.0
C42 C 0.99353 0.57582 0.13716 0.0
C43 C 0.94794 0.5748 0.1308 0.0
C44 C 0.94711 0.60432 0.11246 0.0
C45 C 0.90561 0.60706 0.10788 0.0
C46 C 0.8638 0.58035 0.12149 0.0
C47 C 0.86456 0.55076 0.1398 0.0
C48 C 0.90607 0.54808 0.14442 0.0
C49 C 0.08415 0.50079 0.16316 0.0
C50 C 0.97894 0.42291 0.1155 0.0
C51 C 0.15574 0.45078 0.10798 0.0
C52 C 0.20863 0.47662 0.11026 0.0
C53 C 0.23197 0.51559 0.12589 0.0
C54 C 0.28208 0.54098 0.12757 0.0
C55 C 0.30998 0.52777 0.11379 0.0
C56 C 0.28652 0.48889 0.09807 0.0
C57 C 0.23633 0.46361 0.09631 0.0
C58 C 0.05903 0.51137 0.07428 0.0
C59 C 0.15994 0.60055 0.12153 0.0
O60 O 1.02756 0.59174 0.12116 0.0
O61 O 0.99146 0.54061 0.14985 0.0
O62 O 0.05926 0.47933 0.14553 0.0
O63 O 0.09157 0.54434 0.16355 0.0
O64 O 0.98406 0.46624 0.11451 0.0
O65 O 1.0172 0.41762 0.11672 0.0
O66 O 0.13186 0.44732 0.12736 0.0
O67 O 0.13851 0.46136 0.08933 0.0
O68 O 0.08069 0.53697 0.09225 0.0
O69 O 0.05424 0.46884 0.07625 0.0
O70 O 0.15889 0.55962 0.11717 0.0
O71 O 0.12065 0.60226 0.12518 0.0
H72 H 0.97886 0.62608 0.10184 0.0
H73 H 0.90624 0.63017 0.09367 0.0
H74 H 0.83331 0.53045 0.15097 0.0
H75 H 0.9056 0.52576 0.15899 0.0
H76 H 0.21152 0.52662 0.13678 0.0
H77 H 0.29898 0.57123 0.13951 0.0
H78 H 0.30701 0.47762 0.08732 0.0
H79 H 0.21916 0.43389 0.08407 0.0
Sm80 Sm 0.57798 0.55118 0.12809 0.0
Sm81 Sm 0.62776 0.65154 0.11105 0.0
C82 C 0.5373 0.45864 0.13972 0.0
C83 C 0.53416 0.4123 0.13415 0.0
C84 C 0.54923 0.4039 0.11221 0.0
C85 C 0.54242 0.35827 0.10691 0.0
C86 C 0.52011 0.32019 0.12337 0.0
C87 C 0.506 0.32927 0.14547 0.0
C88 C 0.51283 0.37475 0.15073 0.0
C89 C 0.60718 0.62264 0.16271 0.0
C90 C 0.69058 0.59634 0.11236 0.0
C91 C 0.6688 0.74574 0.10773 0.0
C92 C 0.64642 0.77629 0.1069 0.0
C93 C 0.60392 0.76299 0.1197 0.0
C94 C 0.58355 0.79254 0.11991 0.0
C95 C 0.60502 0.83598 0.1072 0.0
C96 C 0.64695 0.84872 0.09394 0.0
C97 C 0.66742 0.81911 0.09378 0.0
C98 C 0.57866 0.58864 0.07466 0.0
C99 C 0.51244 0.59609 0.11906 0.0
O100 O 0.51963 0.47575 0.12408 0.0
O101 O 0.57646 0.492 0.14975 0.0
O102 O 0.63075 0.62048 0.14572 0.0
O103 O 0.56397 0.58613 0.16191 0.0
O104 O 0.64975 0.55748 0.11787 0.0
O105 O 0.69278 0.63835 0.10906 0.0
O106 O 0.66339 0.72307 0.12782 0.0
O107 O 0.6626 0.71877 0.08923 0.0
O108 O 0.60275 0.58165 0.09051 0.0
O109 O 0.57911 0.62852 0.07856 0.0
O110 O 0.55215 0.63718 0.12308 0.0
O111 O 0.51417 0.55689 0.11544 0.0
H112 H 0.56571 0.43238 0.09912 0.0
H113 H 0.55401 0.35257 0.0898 0.0
H114 H 0.4901 0.30132 0.15884 0.0
H115 H 0.50098 0.38048 0.16777 0.0
H116 H 0.58692 0.73018 0.13005 0.0
H117 H 0.55197 0.78218 0.13073 0.0
H118 H 0.66429 0.88201 0.08393 0.0
H119 H 0.7 0.82999 0.08371 0.0
Sm120 Sm 0.09508 0.53883 0.91988 0.0
Sm121 Sm 1.03652 0.44611 0.94222 0.0
C122 C 0.1614 0.62483 0.90359 0.0
C123 C 0.2 0.67287 0.91116 0.0
C124 C 0.19489 0.69686 0.93078 0.0
C125 C 0.23176 0.74317 0.93679 0.0
C126 C 0.27442 0.76626 0.92333 0.0
C127 C 0.2794 0.74176 0.90392 0.0
C128 C 0.24264 0.69576 0.8979 0.0
C129 C 0.04899 0.46105 0.88861 0.0
C130 C 0.14957 0.48573 0.94102 0.0
C131 C 0.96498 0.35798 0.95056 0.0
C132 C 0.9124 0.33463 0.94746 0.0
C133 C 0.89255 0.34787 0.92864 0.0
C134 C 0.84278 0.32413 0.92521 0.0
C135 C 0.81193 0.28684 0.94057 0.0
C136 C 0.83177 0.27498 0.95991 0.0
C137 C 0.88158 0.2986 0.96329 0.0
C138 C 0.08223 0.51443 0.97647 0.0
C139 C 0.99083 0.51666 0.93161 0.0
O140 O 0.11692 0.61307 0.90789 0.0
O141 O 0.16903 0.58888 0.90642 0.0
O142 O 0.07192 0.46382 0.90694 0.0
O143 O 0.04869 0.5009 0.88579 0.0
O144 O 0.15114 0.52732 0.9394 0.0
O145 O 0.10804 0.44527 0.93927 0.0
O146 O 0.99055 0.3705 0.93109 0.0
O147 O 0.98372 0.39062 0.96705 0.0
O148 O 0.06366 0.52067 0.95777 0.0
O149 O 0.07785 0.472 0.97668 0.0
O150 O 0.98184 0.47175 0.93213 0.0
O151 O 1.03527 0.55196 0.93074 0.0
H152 H 0.16244 0.67993 0.9414 0.0
H153 H 0.22711 0.7607 0.95208 0.0
H154 H 0.31161 0.75854 0.89311 0.0
H155 H 0.2474 0.67812 0.88267 0.0
H156 H 0.91554 0.37606 0.91635 0.0
H157 H 0.82843 0.33442 0.91034 0.0
H158 H 0.80884 0.24619 0.97195 0.0
H159 H 0.89609 0.2881 0.97801 0.0
Sm160 Sm 0.5712 0.56755 0.92182 0.0
Sm161 Sm 0.67003 0.60984 0.93982 0.0
C162 C 0.47885 0.53067 0.91084 0.0
C163 C 0.43217 0.5245 0.91908 0.0
C164 C 0.42188 0.56211 0.91791 0.0
C165 C 0.37616 0.5541 0.92406 0.0
C166 C 0.33972 0.50838 0.93156 0.0
C167 C 0.35021 0.47095 0.93283 0.0
C168 C 0.39582 0.47891 0.92665 0.0
C169 C 0.64347 0.59428 0.88749 0.0
C170 C 0.62184 0.67954 0.9364 0.0
C171 C 0.7636 0.64641 0.94486 0.0
C172 C 0.7925 0.62242 0.94642 0.0
C173 C 0.77583 0.57726 0.93588 0.0
C174 C 0.80484 0.55631 0.93506 0.0
C175 C 0.85111 0.57999 0.94487 0.0
C176 C 0.867 0.62435 0.95625 0.0
C177 C 0.83794 0.6454 0.95699 0.0
C178 C 0.60405 0.56333 0.9757 0.0
C179 C 0.60782 0.49531 0.93032 0.0
O180 O 0.49599 0.50745 0.92262 0.0
O181 O 0.51244 0.57293 0.90346 0.0
O182 O 0.64309 0.61761 0.90492 0.0
O183 O 0.60355 0.55376 0.88691 0.0
O184 O 0.581 0.64003 0.93217 0.0
O185 O 0.66227 0.67864 0.94019 0.0
O186 O 0.74282 0.64202 0.92436 0.0
O187 O 0.73537 0.64077 0.96281 0.0
O188 O 0.60023 0.58941 0.95979 0.0
O189 O 0.64196 0.55983 0.97192 0.0
O190 O 0.65085 0.53316 0.92686 0.0
O191 O 0.57134 0.50135 0.93483 0.0
H192 H 0.44877 0.59748 0.91183 0.0
H193 H 0.36895 0.58347 0.92229 0.0
H194 H 0.32301 0.43537 0.9385 0.0
H195 H 0.40241 0.44901 0.92743 0.0
H196 H 0.74103 0.55893 0.92743 0.0
H197 H 0.79185 0.52269 0.92576 0.0
H198 H 0.90247 0.64335 0.96407 0.0
H199 H 0.85148 0.68016 0.96522 0.0
Sm200 Sm 0.55102 1.02955 0.92242 0.0
Sm201 Sm 0.49683 0.07552 0.94048 0.0
C202 C 0.59461 0.97913 0.91383 0.0
C203 C 0.5967 0.93459 0.91789 0.0
C204 C 0.58823 0.9123 0.94032 0.0
C205 C 0.59469 0.87256 0.9439 0.0
C206 C 0.60955 0.8543 0.92512 0.0
C207 C 0.61839 0.87708 0.90283 0.0
C208 C 0.61194 0.9166 0.89927 0.0
C209 C 0.51397 0.06543 0.88833 0.0
C210 C 0.43701 0.96041 0.9367 0.0
C211 C 0.46661 0.13797 0.94362 0.0
C212 C 0.49252 0.19097 0.94037 0.0
C213 C 0.49088 0.21086 0.91836 0.0
C214 C 0.51638 0.26049 0.9147 0.0
C215 C 0.54391 0.29171 0.93301 0.0
C216 C 0.54606 0.27194 0.95497 0.0
C217 C 0.52072 0.22212 0.9586 0.0
C218 C 0.52877 0.042 0.97683 0.0
C219 C 0.61455 0.1422 0.92841 0.0
O220 O 0.60488 1.00838 0.9317 0.0
O221 O 0.56123 0.97787 0.90001 0.0
O222 O 0.49313 0.04058 0.9062 0.0
O223 O 0.5576 0.07292 0.8874 0.0
O224 O 0.48009 0.96458 0.93574 0.0
O225 O 0.43224 0.999 0.93639 0.0
O226 O 0.46134 0.11292 0.92451 0.0
O227 O 0.47727 0.12079 0.96232 0.0
O228 O 0.5532 0.06342 0.95844 0.0
O229 O 0.48599 0.03691 0.97566 0.0
O230 O 0.57373 0.14099 0.93338 0.0
O231 O 0.61637 0.10305 0.92469 0.0
H232 H 0.57695 0.92577 0.95509 0.0
H233 H 0.58738 0.85563 0.96123 0.0
H234 H 0.63053 0.86437 0.88808 0.0
H235 H 0.61961 0.93365 0.88196 0.0
H236 H 0.46974 0.18802 0.90389 0.0
H237 H 0.51393 0.27458 0.89759 0.0
H238 H 0.56596 0.29502 0.96961 0.0
H239 H 0.52295 0.2081 0.97577 0.0
Sm240 Sm 0.22116 0.39991 0.45981 0.0
Sm241 Sm 0.12348 0.35149 0.43913 0.0
C242 C 0.31264 0.45423 0.47289 0.0
C243 C 0.35903 0.49782 0.46748 0.0
C244 C 0.36753 0.52269 0.44585 0.0
C245 C 0.41343 0.56142 0.44054 0.0
C246 C 0.45171 0.57562 0.45666 0.0
C247 C 0.44248 0.55117 0.47849 0.0
C248 C 0.39675 0.5127 0.48378 0.0
C249 C 0.1448 0.35902 0.49209 0.0
C250 C 0.17604 0.46626 0.44275 0.0
C251 C 1.03163 0.28834 0.43243 0.0
C252 C 1.00304 0.23544 0.43582 0.0
C253 C 0.99457 0.21481 0.45866 0.0
C254 C 0.96817 0.16499 0.46169 0.0
C255 C 0.94979 0.13446 0.44201 0.0
C256 C 0.95856 0.15495 0.41917 0.0
C257 C 0.98484 0.2049 0.41612 0.0
C258 C 0.1923 0.39075 0.40435 0.0
C259 C 0.17812 0.28875 0.45198 0.0
O260 O 0.29762 0.41905 0.45776 0.0
O261 O 0.27771 0.45923 0.48164 0.0
O262 O 0.1494 0.38441 0.47437 0.0
O263 O 0.18221 0.35384 0.49391 0.0
O264 O 0.21531 0.46288 0.44374 0.0
O265 O 0.13307 0.42722 0.44371 0.0
O266 O 0.04786 0.31433 0.4516 0.0
O267 O 0.06312 0.30407 0.41517 0.0
O268 O 0.19505 0.36872 0.4226 0.0
O269 O 0.15318 0.39333 0.40488 0.0
O270 O 0.13716 0.28776 0.44758 0.0
O271 O 0.21813 0.32908 0.45535 0.0
H272 H 0.33895 0.51171 0.43296 0.0
H273 H 0.41923 0.57969 0.42364 0.0
H274 H 0.47062 0.56196 0.4916 0.0
H275 H 0.39101 0.49403 0.50057 0.0
H276 H 1.00815 0.23707 0.47428 0.0
H277 H 0.96186 0.15026 0.47951 0.0
H278 H 0.94395 0.13242 0.4037 0.0
H279 H 0.9907 0.21969 0.39833 0.0
Sm280 Sm 0.70171 0.85458 0.46095 0.0
Sm281 Sm 0.75662 0.81377 0.44094 0.0
C282 C 0.63912 0.88154 0.47459 0.0
C283 C 0.60085 0.89078 0.46553 0.0
C284 C 0.61195 0.93677 0.45751 0.0
C285 C 0.57542 0.94636 0.45093 0.0
C286 C 0.52686 0.91026 0.4522 0.0
C287 C 0.51583 0.86432 0.4602 0.0
C288 C 0.55228 0.85472 0.46675 0.0
C289 C 0.74432 0.82188 0.49397 0.0
C290 C 0.64224 0.74462 0.44391 0.0
C291 C 0.82204 0.78758 0.43387 0.0
C292 C 0.87485 0.81146 0.43476 0.0
C293 C 0.90307 0.86168 0.43575 0.0
C294 C 0.95292 0.88386 0.43883 0.0
C295 C 0.97516 0.85598 0.44124 0.0
C296 C 0.9469 0.80573 0.43942 0.0
C297 C 0.89718 0.7837 0.43631 0.0
C298 C 0.71501 0.83864 0.40518 0.0
C299 C 0.80911 0.93151 0.45042 0.0
O300 O 0.68351 0.91156 0.46861 0.0
O301 O 0.63015 0.83722 0.47537 0.0
O302 O 0.72084 0.8009 0.47598 0.0
O303 O 0.74708 0.86334 0.49553 0.0
O304 O 0.64279 0.78586 0.44333 0.0
O305 O 0.68314 0.74437 0.44601 0.0
O306 O 0.80086 0.78326 0.45423 0.0
O307 O 0.80329 0.80032 0.41672 0.0
O308 O 0.73434 0.86387 0.42355 0.0
O309 O 0.71511 0.79834 0.40649 0.0
O310 O 0.81523 0.89374 0.44932 0.0
O311 O 0.76593 0.92583 0.45149 0.0
H312 H 0.64889 0.96568 0.45668 0.0
H313 H 0.58515 0.98215 0.44494 0.0
H314 H 0.47882 0.83599 0.46207 0.0
H315 H 0.54225 0.8192 0.47331 0.0
H316 H 0.88637 0.88356 0.43468 0.0
H317 H 0.9738 0.9226 0.44009 0.0
H318 H 0.96324 0.78339 0.44072 0.0
H319 H 0.87606 0.7449 0.43558 0.0
Sm320 Sm 0.25336 0.8885 0.46029 0.0
Sm321 Sm 0.2942 0.98452 0.43938 0.0
C322 C 0.22645 0.79884 0.47387 0.0
C323 C 0.22055 0.75235 0.46531 0.0
C324 C 0.17756 0.71801 0.45444 0.0
C325 C 0.1702 0.6725 0.44849 0.0
C326 C 0.20557 0.66002 0.45325 0.0
C327 C 0.24866 0.69447 0.46398 0.0
C328 C 0.25604 0.73997 0.46992 0.0
C329 C 0.28633 0.96434 0.49263 0.0
C330 C 0.36264 0.93887 0.44112 0.0
C331 C 0.31814 0.0753 0.43226 0.0
C332 C 0.29208 0.10211 0.43424 0.0
C333 C 0.24269 0.08041 0.4292 0.0
C334 C 0.21787 0.10537 0.433 0.0
C335 C 0.24191 0.15212 0.44222 0.0
C336 C 0.29147 0.1739 0.44681 0.0
C337 C 0.31622 0.14909 0.44292 0.0
C338 C 0.26803 0.91678 0.40445 0.0
C339 C 0.17718 0.92106 0.4516 0.0
O340 O 0.19692 0.81228 0.46575 0.0
O341 O 0.2699 0.83502 0.47674 0.0
O342 O 0.30709 0.96167 0.4745 0.0
O343 O 0.24529 0.92523 0.49484 0.0
O344 O 0.32124 0.89837 0.4415 0.0
O345 O 0.36376 0.98034 0.44347 0.0
O346 O 0.32548 0.05938 0.45229 0.0
O347 O 0.3055 0.04407 0.41512 0.0
O348 O 0.24326 0.91164 0.423 0.0
O349 O 0.30776 0.95783 0.40466 0.0
O350 O 0.21503 0.96439 0.44871 0.0
O351 O 0.182 0.88313 0.45331 0.0
H352 H 0.14907 0.72588 0.45091 0.0
H353 H 0.13661 0.64689 0.44027 0.0
H354 H 0.27621 0.68578 0.4685 0.0
H355 H 0.28916 0.76505 0.47869 0.0
H356 H 0.22315 0.04397 0.42266 0.0
H357 H 0.17978 0.08784 0.42922 0.0
H358 H 0.31118 0.2103 0.45341 0.0
H359 H 0.3542 0.16642 0.44701 0.0
Sm360 Sm 0.74789 0.8746 0.25097 0.0
Sm361 Sm 0.69352 0.78115 0.27273 0.0
C362 C 0.81062 0.96235 0.23492 0.0
C363 C 0.84503 1.01176 0.2429 0.0
C364 C 0.86994 1.02058 0.26448 0.0
C365 C 0.90559 0.06736 0.27051 0.0
C366 C 0.91696 0.10638 0.25516 0.0
C367 C 0.89114 0.09736 0.23382 0.0
C368 C 0.85559 0.05066 0.22781 0.0
C369 C 0.69904 0.79781 0.21945 0.0
C370 C 0.80669 0.82164 0.26781 0.0
C371 C 0.62297 0.69283 0.2815 0.0
C372 C 0.57041 0.66764 0.27711 0.0
C373 C 0.55196 0.66062 0.2539 0.0
C374 C 0.50238 0.63541 0.24996 0.0
C375 C 0.47007 0.61698 0.26911 0.0
C376 C 0.4884 0.62537 0.29232 0.0
C377 C 0.53808 0.65036 0.29627 0.0
C378 C 0.74068 0.8489 0.30719 0.0
C379 C 0.64441 0.84892 0.26539 0.0
O380 O 0.76479 0.94694 0.23735 0.0
O381 O 0.82151 0.92911 0.23951 0.0
O382 O 0.72475 0.80057 0.23659 0.0
O383 O 0.69752 0.83721 0.21792 0.0
O384 O 0.8076 0.86301 0.26649 0.0
O385 O 0.76506 0.781 0.26784 0.0
O386 O 0.65094 0.70431 0.2629 0.0
O387 O 0.63945 0.72663 0.29746 0.0
O388 O 0.72 0.85478 0.2893 0.0
O389 O 0.73829 0.80739 0.3063 0.0
O390 O 0.63689 0.80472 0.26328 0.0
O391 O 0.68864 0.88477 0.26602 0.0
H392 H 0.86257 0.99119 0.27643 0.0
H393 H 0.92471 0.07297 0.28708 0.0
H394 H 0.89963 0.12614 0.22128 0.0
H395 H 0.83722 0.04473 0.21098 0.0
H396 H 0.57574 0.6738 0.2387 0.0
H397 H 0.48924 0.62935 0.23189 0.0
H398 H 0.46439 0.61078 0.3074 0.0
H399 H 0.55127 0.65539 0.31432 0.0
Sm400 Sm 0.22866 0.9066 0.25048 0.0
Sm401 Sm 0.32227 0.94841 0.27192 0.0
C402 C 0.14016 0.87886 0.23472 0.0
C403 C 0.09089 0.86401 0.24302 0.0
C404 C 0.08241 0.87988 0.2647 0.0
C405 C 1.0356 0.86825 0.27119 0.0
C406 C 0.99627 0.84039 0.2562 0.0
C407 C 1.00502 0.82383 0.23475 0.0
C408 C 0.05173 0.83542 0.2283 0.0
C409 C 0.30596 0.94009 0.2186 0.0
C410 C 0.27661 1.01648 0.26796 0.0
C411 C 0.41232 0.97212 0.28114 0.0
C412 C 0.43968 0.94644 0.28068 0.0
C413 C 0.42959 0.9103 0.26393 0.0
C414 C 0.45818 0.88875 0.26267 0.0
C415 C 0.49721 0.9029 0.27816 0.0
C416 C 0.5057 0.93751 0.29556 0.0
C417 C 0.47723 0.95904 0.29679 0.0
C418 C 0.2536 0.92289 0.30664 0.0
C419 C 0.25953 0.83135 0.26266 0.0
O420 O 0.15624 0.84931 0.23838 0.0
O421 O 0.17311 0.92354 0.23795 0.0
O422 O 0.30193 0.96119 0.23616 0.0
O423 O 0.26798 0.89817 0.21694 0.0
O424 O 0.2364 0.97488 0.26752 0.0
O425 O 0.31839 1.01788 0.26652 0.0
O426 O 0.39819 0.97962 0.26063 0.0
O427 O 0.37958 0.95927 0.29763 0.0
O428 O 0.24917 0.89746 0.28854 0.0
O429 O 0.29372 0.96346 0.30565 0.0
O430 O 0.30306 0.86959 0.26271 0.0
O431 O 0.22172 0.83662 0.26253 0.0
H432 H 0.11204 0.90204 0.27637 0.0
H433 H 1.03022 0.88163 0.28783 0.0
H434 H 0.97601 0.80346 0.22245 0.0
H435 H 0.05745 0.82307 0.21142 0.0
H436 H 0.40051 0.8997 0.25139 0.0
H437 H 0.45111 0.8627 0.24889 0.0
H438 H 0.53535 0.94891 0.30784 0.0
H439 H 0.48532 0.98644 0.30998 0.0
Sm440 Sm 0.19774 0.35941 0.25058 0.0
Sm441 Sm 0.1542 0.41066 0.27253 0.0
C442 C 0.22869 0.30053 0.23612 0.0
C443 C 0.23532 0.25995 0.24416 0.0
C444 C 0.27942 0.26871 0.25383 0.0
C445 C 0.28714 0.23065 0.25974 0.0
C446 C 0.25101 0.18281 0.25612 0.0
C447 C 0.20699 0.17406 0.24637 0.0
C448 C 0.19925 0.21207 0.24048 0.0
C449 C 0.16612 0.40545 0.21909 0.0
C450 C 0.08608 0.29703 0.2673 0.0
C451 C 0.13136 0.47728 0.28186 0.0
C452 C 0.15719 0.53 0.27783 0.0
C453 C 0.16324 0.54925 0.25478 0.0
C454 C 0.1871 0.59888 0.25114 0.0
C455 C 0.20567 0.63055 0.27039 0.0
C456 C 0.20088 0.61146 0.29336 0.0
C457 C 0.17681 0.56169 0.29704 0.0
C458 C 0.18051 0.36688 0.30665 0.0
C459 C 0.27085 0.46794 0.26058 0.0
O460 O 0.25638 0.34258 0.24543 0.0
O461 O 0.18507 0.29241 0.23251 0.0
O462 O 0.1444 0.37978 0.23654 0.0
O463 O 0.20745 0.4079 0.21702 0.0
O464 O 0.12764 0.29798 0.26665 0.0
O465 O 0.0851 0.33767 0.26704 0.0
O466 O 0.11619 0.45008 0.26304 0.0
O467 O 0.14944 0.46117 0.2978 0.0
O468 O 0.20558 0.38856 0.28846 0.0
O469 O 0.13963 0.36595 0.30604 0.0
O470 O 0.23174 0.47158 0.26226 0.0
O471 O 0.26761 0.42583 0.25937 0.0
H472 H 0.30837 0.3051 0.25655 0.0
H473 H 0.32146 0.23868 0.26714 0.0
H474 H 0.17881 0.13774 0.24272 0.0
H475 H 0.16524 0.20389 0.23262 0.0
H476 H 0.14906 0.52606 0.23949 0.0
H477 H 0.19021 0.6126 0.23324 0.0
H478 H 0.21402 0.63497 0.30858 0.0
H479 H 0.17291 0.54795 0.31498 0.0
Sm480 Sm 0.89088 0.7348 0.79458 0.0
Sm481 Sm 0.79585 0.67713 0.77475 0.0
C482 C 0.97931 0.79922 0.8088 0.0
C483 C 1.02968 0.82978 0.80072 0.0
C484 C 1.04117 0.84453 0.77696 0.0
C485 C 0.08872 0.87767 0.77039 0.0
C486 C 0.12566 0.89701 0.78748 0.0
C487 C 0.11411 0.88049 0.81104 0.0
C488 C 0.06672 0.84736 0.81755 0.0
C489 C 0.81521 0.69094 0.82766 0.0
C490 C 0.83647 0.79065 0.77625 0.0
C491 C 0.70572 0.60825 0.76814 0.0
C492 C 0.67727 0.55541 0.77062 0.0
C493 C 0.63574 0.53524 0.78471 0.0
C494 C 0.60728 0.48552 0.78706 0.0
C495 C 0.61955 0.45465 0.7753 0.0
C496 C 0.66185 0.47478 0.76164 0.0
C497 C 0.69057 0.52479 0.75935 0.0
C498 C 0.86176 0.7207 0.73888 0.0
C499 C 0.86564 0.63014 0.78376 0.0
O500 O 0.96207 0.75294 0.81019 0.0
O501 O 0.94776 0.81024 0.801 0.0
O502 O 0.81744 0.71391 0.80939 0.0
O503 O 0.85469 0.6896 0.82946 0.0
O504 O 0.87815 0.79219 0.77707 0.0
O505 O 0.79604 0.74916 0.77841 0.0
O506 O 0.72105 0.63229 0.78787 0.0
O507 O 0.73736 0.62617 0.75101 0.0
O508 O 0.86879 0.70192 0.75727 0.0
O509 O 0.82015 0.71813 0.73996 0.0
O510 O 0.82087 0.62172 0.78497 0.0
O511 O 0.90104 0.67434 0.7817 0.0
H512 H 1.01326 0.83132 0.76361 0.0
H513 H 0.09641 0.88875 0.752 0.0
H514 H 0.14141 0.8947 0.82469 0.0
H515 H 0.05873 0.83662 0.83599 0.0
H516 H 0.62498 0.55805 0.79376 0.0
H517 H 0.57512 0.4711 0.79787 0.0
H518 H 0.67191 0.45194 0.75213 0.0
H519 H 0.72272 0.53937 0.74853 0.0
Sm520 Sm 0.3737 0.17379 0.79734 0.0
Sm521 Sm 0.43275 0.13389 0.78038 0.0
C522 C 0.31204 0.20155 0.81136 0.0
C523 C 0.27931 0.21829 0.80291 0.0
C524 C 0.26818 0.21793 0.77879 0.0
C525 C 0.23534 0.23231 0.7716 0.0
C526 C 0.21285 0.24701 0.78842 0.0
C527 C 0.22525 0.24838 0.81245 0.0
C528 C 0.25804 0.23417 0.81958 0.0
C529 C 0.41604 0.14433 0.83201 0.0
C530 C 0.31736 0.06382 0.77815 0.0
C531 C 0.50092 0.11117 0.78435 0.0
C532 C 0.55357 0.13725 0.78075 0.0
C533 C 0.58346 0.17968 0.79335 0.0
C534 C 0.63342 0.20174 0.79155 0.0
C535 C 0.65455 0.18207 0.77702 0.0
C536 C 0.62464 0.14085 0.76367 0.0
C537 C 0.57464 0.1186 0.76558 0.0
C538 C 0.41374 0.16656 0.73951 0.0
C539 C 0.47762 0.25062 0.78198 0.0
O540 O 0.3581 0.23083 0.80889 0.0
O541 O 0.29977 0.15695 0.80723 0.0
O542 O 0.39265 0.1218 0.81421 0.0
O543 O 0.4212 0.18686 0.83147 0.0
O544 O 0.31596 0.10385 0.78055 0.0
O545 O 0.3585 0.06377 0.77992 0.0
O546 O 0.48552 0.12602 0.80198 0.0
O547 O 0.4734 0.1001 0.76555 0.0
O548 O 0.39764 0.17098 0.75951 0.0
O549 O 0.43778 0.14423 0.74091 0.0
O550 O 0.48678 0.21562 0.78663 0.0
O551 O 0.43302 0.24091 0.78039 0.0
H552 H 0.28446 0.20609 0.7656 0.0
H553 H 0.22731 0.23161 0.7529 0.0
H554 H 0.20843 0.25906 0.82589 0.0
H555 H 0.26619 0.23479 0.83827 0.0
H556 H 0.56841 0.19514 0.80521 0.0
H557 H 0.65542 0.23282 0.8024 0.0
H558 H 0.64002 0.125 0.75226 0.0
H559 H 0.55248 0.0861 0.75566 0.0
Sm560 Sm 0.93783 0.21928 0.79326 0.0
Sm561 Sm 0.97565 0.31495 0.77397 0.0
C562 C 0.9133 0.13006 0.8066 0.0
C563 C 0.89816 0.08098 0.79753 0.0
C564 C 0.93264 0.06719 0.7931 0.0
C565 C 0.91871 1.01988 0.78689 0.0
C566 C 0.86984 0.98482 0.78481 0.0
C567 C 0.83526 0.99859 0.78911 0.0
C568 C 0.84923 0.04604 0.7954 0.0
C569 C 0.96543 0.29235 0.82692 0.0
C570 C 0.04812 0.2737 0.77564 0.0
C571 C 0.99656 0.40515 0.76711 0.0
C572 C 0.97098 0.43248 0.7686 0.0
C573 C 0.92927 0.41612 0.7825 0.0
C574 C 0.90726 0.44415 0.78488 0.0
C575 C 0.927 0.48909 0.77361 0.0
C576 C 0.96785 0.5046 0.75917 0.0
C577 C 0.98955 0.47649 0.75665 0.0
C578 C 0.95467 0.25052 0.73771 0.0
C579 C 0.85868 0.24455 0.78117 0.0
O580 O 0.8829 0.14577 0.80543 0.0
O581 O 0.95748 0.16396 0.80263 0.0
O582 O 0.98858 0.29234 0.80917 0.0
O583 O 0.9253 0.25216 0.82803 0.0
O584 O 1.00778 0.23231 0.77587 0.0
O585 O 0.04722 0.31415 0.77816 0.0
O586 O 1.00362 0.38907 0.78715 0.0
O587 O 0.98405 0.37402 0.74998 0.0
O588 O 0.92849 0.24289 0.75594 0.0
O589 O 0.9936 0.29205 0.73914 0.0
O590 O 0.89474 0.28917 0.78318 0.0
O591 O 0.86791 0.20941 0.77943 0.0
H592 H 0.97059 0.09269 0.79505 0.0
H593 H 0.94641 1.01045 0.7845 0.0
H594 H 0.79734 0.97255 0.78779 0.0
H595 H 0.82161 0.05508 0.79906 0.0
H596 H 0.91449 0.38232 0.79197 0.0
H597 H 0.87607 0.43167 0.79626 0.0
H598 H 0.98368 0.53916 0.7503 0.0
H599 H 1.02158 0.4897 0.74582 0.0
Sm600 Sm 0.4129 0.20476 0.58841 0.0
Sm601 Sm 0.35525 0.10482 0.60475 0.0
C602 C 0.46914 0.29685 0.57678 0.0
C603 C 0.51113 0.34377 0.583 0.0
C604 C 0.52717 0.35579 0.60649 0.0
C605 C 0.56449 0.40216 0.61199 0.0
C606 C 0.58637 0.43737 0.5941 0.0
C607 C 0.57016 0.42496 0.57064 0.0
C608 C 0.53308 0.3787 0.56517 0.0
C609 C 0.37035 0.13463 0.55309 0.0
C610 C 0.47257 0.1527 0.60513 0.0
C611 C 0.29791 1.01116 0.60898 0.0
C612 C 0.24542 0.9826 0.61218 0.0
C613 C 0.21707 1.00428 0.60918 0.0
C614 C 0.16698 0.9764 0.6082 0.0
C615 C 0.14421 0.92627 0.61056 0.0
C616 C 0.17273 0.90502 0.61495 0.0
C617 C 0.22289 0.93292 0.61559 0.0
C618 C 0.37204 0.16785 0.64157 0.0
C619 C 0.30333 0.16729 0.59677 0.0
O620 O 0.43122 0.28084 0.59037 0.0
O621 O 0.47635 0.26272 0.56895 0.0
O622 O 0.3935 0.13444 0.57073 0.0
O623 O 0.36631 0.17272 0.55358 0.0
O624 O 0.47438 0.19412 0.60149 0.0
O625 O 0.431 0.11179 0.60607 0.0
O626 O 0.31129 0.03343 0.58854 0.0
O627 O 0.32304 0.03804 0.62678 0.0
O628 O 0.40291 0.17292 0.62601 0.0
O629 O 0.33112 0.13018 0.63697 0.0
O630 O 0.29883 0.12524 0.59164 0.0
O631 O 0.34578 0.20406 0.60104 0.0
H632 H 0.51039 0.32961 0.62061 0.0
H633 H 0.5757 0.41069 0.63028 0.0
H634 H 0.58646 0.45101 0.55643 0.0
H635 H 0.521 0.3704 0.54696 0.0
H636 H 0.23374 0.04261 0.60651 0.0
H637 H 0.1464 0.99394 0.60439 0.0
H638 H 0.15626 0.86651 0.61713 0.0
H639 H 0.24407 0.91549 0.6179 0.0
Sm640 Sm 0.89803 0.24205 0.58447 0.0
Sm641 Sm 0.9948 0.28314 0.60143 0.0
C642 C 0.80795 0.21573 0.57199 0.0
C643 C 0.7598 0.20405 0.58121 0.0
C644 C 0.74435 0.23774 0.57873 0.0
C645 C 0.69767 0.22611 0.58517 0.0
C646 C 0.66483 0.18029 0.59414 0.0
C647 C 0.68043 0.14671 0.59701 0.0
C648 C 0.7273 0.15838 0.59054 0.0
C649 C 0.96933 0.27221 0.54942 0.0
C650 C 0.95092 0.35289 0.6 0.0
C651 C 0.08578 0.3054 0.60431 0.0
C652 C 0.11082 0.27728 0.60368 0.0
C653 C 0.13934 0.28135 0.58393 0.0
C654 C 0.16346 0.2553 0.58295 0.0
C655 C 0.15991 0.22501 0.60179 0.0
C656 C 0.13035 0.21983 0.62125 0.0
C657 C 0.10593 0.24563 0.62218 0.0
C658 C 0.93409 0.26157 0.63952 0.0
C659 C 0.92712 0.16486 0.59649 0.0
O660 O 0.82308 0.18541 0.57578 0.0
O661 O 0.8426 0.26028 0.57308 0.0
O662 O 0.96843 0.29469 0.56711 0.0
O663 O 0.9317 0.22982 0.54966 0.0
O664 O 0.91036 0.3118 0.60191 0.0
O665 O 0.99154 0.35287 0.59633 0.0
O666 O 0.06546 0.30683 0.58449 0.0
O667 O 0.0596 0.30085 0.62297 0.0
O668 O 0.92499 0.23498 0.62138 0.0
O669 O 0.97478 0.30122 0.63693 0.0
O670 O 0.97128 0.202 0.59475 0.0
O671 O 0.89054 0.17215 0.59712 0.0
H672 H 0.76807 0.27295 0.57127 0.0
H673 H 0.68685 0.25274 0.58248 0.0
H674 H 0.6564 0.11137 0.6042 0.0
H675 H 0.73777 0.13134 0.59253 0.0
H676 H 0.14346 0.30518 0.56934 0.0
H677 H 0.18638 0.26025 0.56785 0.0
H678 H 0.12682 0.19642 0.63593 0.0
H679 H 0.08368 0.24107 0.63749 0.0
Sm680 Sm 0.8614 0.68799 0.58461 0.0
Sm681 Sm 0.82351 0.74239 0.60667 0.0
C682 C 0.88495 0.62469 0.56829 0.0
C683 C 0.89703 0.58781 0.57631 0.0
C684 C 0.94258 0.60051 0.58558 0.0
C685 C 0.95428 0.56507 0.5914 0.0
C686 C 0.92084 0.51618 0.58797 0.0
C687 C 0.87518 0.50362 0.57902 0.0
C688 C 0.86352 0.53892 0.57319 0.0
C689 C 0.82996 0.73435 0.55321 0.0
C690 C 0.7529 0.62885 0.60417 0.0
C691 C 0.80207 0.81049 0.6156 0.0
C692 C 0.82826 0.86344 0.61535 0.0
C693 C 0.86978 0.88976 0.60141 0.0
C694 C 0.89152 0.93984 0.5996 0.0
C695 C 0.87192 0.96428 0.61164 0.0
C696 C 0.83164 0.93791 0.62637 0.0
C697 C 0.81008 0.88801 0.62822 0.0
C698 C 0.84797 0.69794 0.64117 0.0
C699 C 0.94082 0.79202 0.59721 0.0
O700 O 0.9161 0.66982 0.57201 0.0
O701 O 0.84072 0.61517 0.57113 0.0
O702 O 0.80837 0.70947 0.57089 0.0
O703 O 0.87117 0.73669 0.55124 0.0
O704 O 0.79393 0.62913 0.60313 0.0
O705 O 0.75255 0.66974 0.60247 0.0
O706 O 0.79565 0.7898 0.59499 0.0
O707 O 0.81352 0.78952 0.63219 0.0
O708 O 0.87291 0.71773 0.62266 0.0
O709 O 0.80829 0.69942 0.64078 0.0
O710 O 0.90402 0.79973 0.59812 0.0
O711 O 0.93319 0.74818 0.59607 0.0
H712 H 0.96941 0.63783 0.58812 0.0
H713 H 0.98948 0.57594 0.59862 0.0
H714 H 0.84869 0.46635 0.57598 0.0
H715 H 0.82838 0.52791 0.56583 0.0
H716 H 0.88441 0.8715 0.59128 0.0
H717 H 0.9221 0.95911 0.58791 0.0
H718 H 0.8159 0.95586 0.63591 0.0
H719 H 0.77827 0.86845 0.63913 0.0
C720 C 0.60332 0.95145 0.11766 0.0
C721 C 0.55454 0.9382 0.11526 0.0
C722 C 0.6189 0.91824 0.11482 0.0
C723 C 0.58653 0.87005 0.10947 0.0
H724 H 0.6302 0.98805 0.12179 0.0
H725 H 0.65675 0.93043 0.11714 0.0
S726 S 0.45496 0.81629 0.10091 0.0
N727 N 0.47378 0.87315 0.10701 0.0
N728 N 0.50318 0.8104 0.10162 0.0
C729 C 0.5375 0.85588 0.10714 0.0
C730 C 0.52151 0.88998 0.11002 0.0
C731 C 0.26835 0.71025 0.09665 0.0
C732 C 0.27722 0.74499 0.11408 0.0
C733 C 0.23326 0.66179 0.10011 0.0
C734 C 0.20535 0.64683 0.1209 0.0
H735 H 0.28736 0.72096 0.07988 0.0
H736 H 0.22562 0.63671 0.08578 0.0
S737 S 0.21703 0.72242 0.17269 0.0
N738 N 0.25756 0.75993 0.15361 0.0
N739 N 0.19119 0.66935 0.1598 0.0
C740 C 0.2157 0.68057 0.13892 0.0
C741 C 0.25178 0.72956 0.1356 0.0
C742 C 0.39196 0.56671 0.09524 0.0
C743 C 0.36336 0.5537 0.11586 0.0
C744 C 0.44174 0.58522 0.09655 0.0
C745 C 0.46483 0.592 0.11851 0.0
H746 H 0.37548 0.56079 0.07789 0.0
H747 H 0.46191 0.5917 0.08022 0.0
S748 S 0.40746 0.56569 0.17778 0.0
N749 N 0.36264 0.55066 0.15905 0.0
N750 N 0.45633 0.58592 0.16129 0.0
C751 C 0.43736 0.58157 0.13928 0.0
C752 C 0.38658 0.56245 0.13802 0.0
C753 C 0.96417 0.57709 0.92902 0.0
C754 C 0.95231 0.52927 0.93355 0.0
C755 C 0.93119 0.59268 0.93275 0.0
C756 C 0.88465 0.56125 0.94118 0.0
H757 H 0.99964 0.60326 0.9227 0.0
H758 H 0.94232 0.62983 0.92888 0.0
S759 S 0.83443 0.43193 0.95525 0.0
N760 N 0.88995 0.45006 0.94642 0.0
N761 N 0.82763 0.47951 0.95352 0.0
C762 C 0.87157 0.51293 0.94527 0.0
C763 C 0.90543 0.49692 0.94144 0.0
C764 C 0.53563 0.36172 0.92084 0.0
C765 C 0.56488 0.34452 0.93002 0.0
C766 C 0.55143 0.41076 0.91993 0.0
C767 C 0.59732 0.4451 0.92808 0.0
H768 H 0.49924 0.33697 0.91521 0.0
H769 H 0.52665 0.42177 0.91339 0.0
S770 S 0.69011 0.41958 0.95144 0.0
N771 N 0.64372 0.36602 0.9457 0.0
N772 N 0.67338 0.45888 0.94403 0.0
C773 C 0.62814 0.42891 0.93616 0.0
C774 C 0.61183 0.37847 0.93725 0.0
C775 C 0.67671 0.21347 0.9502 0.0
C776 C 0.66082 0.18751 0.92897 0.0
C777 C 0.72548 0.24764 0.95348 0.0
C778 C 0.75965 0.25739 0.93549 0.0
H779 H 0.65211 0.20473 0.96497 0.0
H780 H 0.7369 0.26503 0.97055 0.0
S781 S 0.73458 0.20229 0.87573 0.0
N782 N 0.68179 0.17619 0.88915 0.0
N783 N 0.77305 0.24078 0.89503 0.0
C784 C 0.7433 0.23402 0.91359 0.0
C785 C 0.69395 0.19892 0.91042 0.0
C786 C 0.18946 0.18522 0.42863 0.0
C787 C 0.21617 0.17903 0.44676 0.0
C788 C 0.17241 0.21768 0.43124 0.0
C789 C 0.18153 0.24471 0.45207 0.0
H790 H 0.18445 0.16731 0.41178 0.0
H791 H 0.15537 0.22434 0.41626 0.0
S792 S 0.24144 0.23501 0.50629 0.0
N793 N 0.24437 0.19736 0.48746 0.0
N794 N 0.21331 0.25883 0.4921 0.0
C795 C 0.20462 0.23589 0.47094 0.0
C796 C 0.22169 0.20288 0.46836 0.0
C797 C 0.87893 0.06519 0.46127 0.0
C798 C 0.91799 0.0818 0.44553 0.0
C799 C 0.84547 1.01621 0.46346 0.0
C800 C 0.84986 0.98155 0.45025 0.0
H801 H 0.87301 0.09043 0.47131 0.0
H802 H 0.81504 1.00547 0.4752 0.0
S803 S 0.94774 1.0058 0.40792 0.0
N804 N 0.96092 0.05946 0.41754 0.0
N805 N 0.89767 0.96713 0.42167 0.0
C806 C 0.88985 0.99732 0.43522 0.0
C807 C 0.92388 0.0475 0.43279 0.0
C808 C 0.11127 0.93243 0.43456 0.0
C809 C 0.12767 0.91288 0.45213 0.0
C810 C 0.06177 0.91549 0.43169 0.0
C811 C 1.02743 0.87857 0.4463 0.0
H812 H 0.13641 0.95862 0.42207 0.0
H813 H 0.0502 0.92955 0.41721 0.0
S814 S 0.05316 0.82238 0.49762 0.0
N815 N 0.10645 0.85939 0.48615 0.0
N816 N 1.01406 0.82827 0.48101 0.0
C817 C 1.04395 0.86166 0.46503 0.0
C818 C 0.09393 0.87866 0.46787 0.0
C819 C 0.58161 0.92115 0.27328 0.0
C820 C 0.53267 0.88649 0.27461 0.0
C821 C 0.61668 0.90819 0.27001 0.0
C822 C 0.6047 0.8598 0.26794 0.0
H823 H 0.59305 0.95897 0.2746 0.0
H824 H 0.65373 0.93685 0.26921 0.0
S825 S 0.48124 0.75465 0.27009 0.0
N826 N 0.47346 0.80136 0.27346 0.0
N827 N 0.53977 0.77673 0.26727 0.0
C828 C 0.55571 0.82447 0.26898 0.0
C829 C 0.51965 0.83786 0.27227 0.0
C830 C 0.20884 0.74548 0.25223 0.0
C831 C 0.2513 0.78175 0.26262 0.0
C832 C 0.1957 0.69712 0.25414 0.0
C833 C 0.22417 0.68273 0.26672 0.0
H834 H 0.18479 0.7544 0.24292 0.0
H835 H 0.16186 0.6706 0.24645 0.0
S836 S 0.34102 0.76366 0.2955 0.0
N837 N 0.32362 0.80033 0.28459 0.0
N838 N 0.29861 0.70882 0.2884 0.0
C839 C 0.26774 0.71863 0.27647 0.0
C840 C 0.28149 0.76829 0.27427 0.0
C841 C 0.40446 0.54377 0.25011 0.0
C842 C 0.41807 0.58371 0.26478 0.0
C843 C 0.35634 0.50788 0.24804 0.0
C844 C 0.31964 0.51065 0.26028 0.0
H845 H 0.43147 0.53898 0.24102 0.0
H846 H 0.348 0.47689 0.23725 0.0
S847 S 0.33551 0.61075 0.29868 0.0
N848 N 0.39064 0.62611 0.29023 0.0
N849 N 0.29966 0.55863 0.28599 0.0
C850 C 0.33224 0.5518 0.27385 0.0
C851 C 0.38161 0.58823 0.27626 0.0
C852 C 0.84677 0.54551 0.77464 0.0
C853 C 0.87785 0.59123 0.7841 0.0
C854 C 0.86196 0.51146 0.77195 0.0
C855 C 0.9086 0.52231 0.7786 0.0
H856 H 0.81145 0.53675 0.76836 0.0
H857 H 0.83784 0.47726 0.76383 0.0
S858 S 1.00058 0.63354 0.8077 0.0
N859 N 0.95526 0.64285 0.80273 0.0
N860 N 0.98337 0.57942 0.79738 0.0
C861 C 0.93868 0.56665 0.78929 0.0
C862 C 0.9234 0.60096 0.79213 0.0
C863 C 0.5368 0.38485 0.77158 0.0
C864 C 0.5857 0.40191 0.77597 0.0
C865 C 0.50295 0.33602 0.77312 0.0
C866 C 0.5162 0.30163 0.7792 0.0
H867 H 0.52439 0.40958 0.76695 0.0
H868 H 0.46579 0.32545 0.76971 0.0
S869 S 0.64032 0.32741 0.79166 0.0
N870 N 0.64636 0.38065 0.78605 0.0
N871 N 0.58244 0.28827 0.78893 0.0
C872 C 0.56529 0.31794 0.78309 0.0
C873 C 0.60006 0.36813 0.78144 0.0
C874 C 0.72327 0.16782 0.7817 0.0
C875 C 0.70713 0.20056 0.77791 0.0
C876 C 0.77213 0.18303 0.78304 0.0
C877 C 0.80744 0.23182 0.78064 0.0
H878 H 0.69783 0.1299 0.78393 0.0
H879 H 0.78206 0.15583 0.78605 0.0
S880 S 0.78406 0.33242 0.77055 0.0
N881 N 0.73001 0.28429 0.77189 0.0
N882 N 0.82259 0.31311 0.77442 0.0
C883 C 0.79195 0.2653 0.77713 0.0
C884 C 0.74168 0.24964 0.77579 0.0
C885 C 0.19244 0.17611 0.583 0.0
C886 C 0.19134 0.20344 0.60222 0.0
C887 C 0.2267 0.16101 0.58195 0.0
C888 C 0.26143 0.1739 0.59983 0.0
H889 H 0.16756 0.16755 0.5684 0.0
H890 H 0.22775 0.14169 0.56649 0.0
S891 S 0.27272 0.24325 0.65419 0.0
N892 N 0.22662 0.24066 0.63991 0.0
N893 N 0.29133 0.21348 0.63767 0.0
C894 C 0.25953 0.1997 0.61943 0.0
C895 C 0.22438 0.2142 0.62071 0.0
C896 C 0.85539 1.02924 0.59995 0.0
C897 C 0.88909 1.01589 0.60682 0.0
C898 C 0.86885 0.07721 0.59599 0.0
C899 C 0.91673 0.11444 0.59879 0.0
H900 H 0.81798 1.00222 0.59764 0.0
H901 H 0.84093 0.08503 0.59092 0.0
S902 S 1.01949 0.09853 0.6159 0.0
N903 N 0.97296 0.04338 0.61564 0.0
N904 N 0.99848 0.1343 0.60831 0.0
C905 C 0.95132 0.10166 0.60506 0.0
C906 C 0.93747 0.05227 0.60903 0.0
C907 C 0.07566 0.85496 0.59171 0.0
C908 C 0.09163 0.89549 0.60623 0.0
C909 C 1.02679 0.82346 0.588 0.0
C910 C 0.99145 0.83113 0.59846 0.0
H911 H 0.1012 0.84709 0.58325 0.0
H912 H 1.01659 0.79206 0.57718 0.0
S913 S 1.01366 0.93362 0.63664 0.0
N914 N 0.06791 0.94296 0.63031 0.0
N915 N 0.97555 0.88374 0.62282 0.0
C916 C 1.00658 0.87273 0.61204 0.0
C917 C 0.05676 0.90489 0.61605 0.0
C918 C 0.57283 0.10475 0.0347 0.0
C919 C 0.55667 0.06603 0.05066 0.0
C920 C 0.57038 0.09736 1.01007 0.0
C921 C 0.55046 0.05081 1.00066 0.0
H922 H 0.58312 0.14024 0.04122 0.0
H923 H 0.57901 0.12752 0.99841 0.0
S924 S 0.5082 0.93825 0.03489 0.0
N925 N 0.52551 0.98033 0.05531 0.0
N926 N 0.51885 0.96631 1.00906 0.0
C927 C 0.53818 1.01248 1.01638 0.0
C928 C 0.54187 1.02015 0.04142 0.0
C929 C 1.03369 0.51716 1.00986 0.0
C930 C 0.0794 0.53354 0.99978 0.0
C931 C 1.02749 0.51552 0.03462 0.0
C932 C 0.06692 0.53139 0.05 0.0
H933 H 1.00199 0.50042 0.99875 0.0
H934 H 0.99133 0.49771 0.04175 0.0
S935 S 0.19448 0.58342 0.03226 0.0
N936 N 0.1649 0.56997 1.00689 0.0
N937 N 0.15362 0.56879 0.05328 0.0
C938 C 0.1132 0.55263 0.04 0.0
C939 C 0.11935 0.55323 1.01487 0.0
C940 C 0.60339 0.54067 1.01834 0.0
C941 C 0.58616 0.55913 1.00048 0.0
C942 C 0.59733 0.54656 0.04254 0.0
C943 C 0.57354 0.57101 0.04985 0.0
H944 H 0.62451 0.52412 1.01365 0.0
H945 H 0.61418 0.53476 0.05548 0.0
S946 S 0.51251 0.61681 1.01038 0.0
N947 N 0.53776 0.59608 0.99197 0.0
N948 N 0.52575 0.60672 0.03734 0.0
C949 C 0.5518 0.58511 0.03224 0.0
C950 C 0.55817 0.57931 1.00758 0.0
C951 C 0.18716 0.33932 0.37065 0.0
C952 C 0.20849 0.38549 0.38064 0.0
C953 C 0.1834 0.33303 0.34592 0.0
C954 C 0.20204 0.37269 0.33042 0.0
H955 H 0.16835 0.30791 0.38194 0.0
H956 H 0.16191 0.29708 0.33897 0.0
S957 S 0.26723 0.50084 0.34776 0.0
N958 N 0.25246 0.47123 0.37324 0.0
N959 N 0.24748 0.45959 0.32683 0.0
C960 C 0.22819 0.4189 0.34022 0.0
C961 C 0.23088 0.42526 0.36536 0.0
C962 C 0.68409 0.84499 0.36569 0.0
C963 C 0.72315 0.86015 0.38124 0.0
C964 C 0.69097 0.8482 0.34096 0.0
C965 C 0.737 0.8654 0.33107 0.0
H966 H 0.64775 0.82658 0.3726 0.0
H967 H 0.65957 0.83215 0.32963 0.0
S968 S 0.85122 0.91368 0.36415 0.0
N969 N 0.8098 0.89772 0.38499 0.0
N970 N 0.82232 0.90159 0.33861 0.0
C971 C 0.77655 0.88422 0.34639 0.0
C972 C 0.76971 0.88215 0.3715 0.0
C973 C 0.21678 0.92071 0.34563 0.0
C974 C 0.23829 0.90205 0.33061 0.0
C975 C 0.22016 0.91861 0.37044 0.0
C976 C 0.24628 0.89891 0.38096 0.0
H977 H 0.20134 0.9411 0.33819 0.0
H978 H 0.20712 0.93746 0.38129 0.0
S979 S 0.3047 0.84079 0.3495 0.0
N980 N 0.28169 0.85835 0.3281 0.0
N981 N 0.28986 0.85641 0.37461 0.0
C982 C 0.2642 0.87645 0.36621 0.0
C983 C 0.2597 0.87747 0.34102 0.0
C984 C 0.85518 0.66944 0.7049 0.0
C985 C 0.8774 0.71555 0.71501 0.0
C986 C 0.85095 0.66338 0.68017 0.0
C987 C 0.86991 0.70319 0.66478 0.0
H988 H 0.83613 0.63799 0.71614 0.0
H989 H 0.82884 0.62757 0.67316 0.0
S990 S 0.93717 0.83111 0.68241 0.0
N991 N 0.92247 0.80129 0.70782 0.0
N992 N 0.91643 0.79006 0.66137 0.0
C993 C 0.89682 0.74925 0.67467 0.0
C994 C 0.90008 0.7554 0.69983 0.0
C995 C 0.43177 0.19801 0.67463 0.0
C996 C 0.3847 0.18211 0.66676 0.0
C997 C 0.44161 0.19732 0.69883 0.0
C998 C 0.4051 0.18176 0.7161 0.0
H999 H 0.46043 0.20699 0.66198 0.0
H1000 H 0.47756 0.2059 0.70391 0.0
S1001 S 0.27788 0.14544 0.70525 0.0
N1002 N 0.30241 0.15662 0.67855 0.0
N1003 N 0.32168 0.15664 0.72406 0.0
C1004 C 0.35915 0.17104 0.7088 0.0
C1005 C 0.34879 0.17092 0.68408 0.0
C1006 C 0.90095 0.25751 0.6799 0.0
C1007 C 0.92316 0.24148 0.6638 0.0
C1008 C 0.9058 0.25401 0.70452 0.0
C1009 C 0.93413 0.2356 0.71375 0.0
H1010 H 0.88316 0.27644 0.67346 0.0
H1011 H 0.8915 0.27041 0.71629 0.0
S1012 S 0.99631 0.18531 0.67904 0.0
N1013 N 0.97055 0.20232 0.65881 0.0
N1014 N 0.98145 0.19788 0.70499 0.0
C1015 C 0.95354 0.21635 0.69788 0.0
C1016 C 0.94758 0.21875 0.67289 0.0
C1017 C 0.37169 0.93456 0.19635 0.0
C1018 C 0.34974 0.96117 0.20331 0.0
C1019 C 0.41582 0.95647 0.18377 0.0
C1020 C 0.43876 1.00539 0.17727 0.0
H1021 H 0.35524 0.89693 0.20108 0.0
H1022 H 0.43136 0.93477 0.17856 0.0
S1023 S 0.39564 0.09029 0.1909 0.0
N1024 N 0.35486 0.03907 0.20295 0.0
N1025 N 0.43565 0.07922 0.17854 0.0
C1026 C 0.41671 0.03191 0.18393 0.0
C1027 C 0.37286 1.01012 0.19717 0.0
C1028 C 0.15475 0.50199 0.184 0.0
C1029 C 0.10514 0.47888 0.17903 0.0
C1030 C 0.1751 0.4778 0.19622 0.0
C1031 C 0.14627 0.4302 0.20438 0.0
H1032 H 0.17812 0.53833 0.17778 0.0
H1033 H 0.21336 0.49672 0.19967 0.0
S1034 S 1.01449 0.35457 0.19632 0.0
N1035 N 1.02819 0.4058 0.18312 0.0
N1036 N 0.06555 0.3616 0.20688 0.0
C1037 C 0.09664 0.40739 0.19986 0.0
C1038 C 0.07635 0.43137 0.18698 0.0
C1039 C 0.69683 0.72747 0.19978 0.0
C1040 C 0.67376 0.754 0.20445 0.0
C1041 C 0.67421 0.68462 0.1868 0.0
C1042 C 0.62668 0.66507 0.1787 0.0
H1043 H 0.73318 0.74036 0.20596 0.0
H1044 H 0.69427 0.66653 0.18304 0.0
S1045 S 0.5491 0.71892 0.18711 0.0
N1046 N 0.60012 0.75715 0.20016 0.0
N1047 N 0.55678 0.67527 0.17664 0.0
C1048 C 0.60253 0.69046 0.18369 0.0
C1049 C 0.62628 0.73524 0.19631 0.0
C1050 C 0.98665 0.40634 0.85862 0.0
C1051 C 1.02702 0.41786 0.8729 0.0
C1052 C 0.96514 0.36432 0.84459 0.0
C1053 C 0.98371 0.33279 0.84406 0.0
H1054 H 0.97136 0.42968 0.85842 0.0
H1055 H 0.9346 0.35713 0.83361 0.0
S1056 S 0.08934 0.347 0.87743 0.0
N1057 N 0.08441 0.39371 0.88537 0.0
N1058 N 1.04521 0.31658 0.85853 0.0
C1059 C 1.02411 0.34416 0.85803 0.0
C1060 C 1.04535 0.3861 0.87259 0.0
C1061 C 0.71864 0.59987 0.87019 0.0
C1062 C 0.68348 0.61391 0.86992 0.0
C1063 C 0.76158 0.62499 0.8568 0.0
C1064 C 0.77071 0.66487 0.84254 0.0
H1065 H 0.71373 0.57038 0.88147 0.0
H1066 H 0.78772 0.61314 0.85764 0.0
S1067 S 0.69011 0.71621 0.8362 0.0
N1068 N 0.66118 0.67059 0.85468 0.0
N1069 N 0.74034 0.71684 0.82926 0.0
C1070 C 0.73534 0.67866 0.84205 0.0
C1071 C 0.69225 0.65354 0.85582 0.0
C1072 C 0.41971 0.07767 0.85306 0.0
C1073 C 0.44196 0.12693 0.84756 0.0
C1074 C 0.44374 0.05844 0.86595 0.0
C1075 C 0.49185 0.08715 0.87304 0.0
H1076 H 0.38312 0.05367 0.84744 0.0
H1077 H 0.42451 1.02049 0.87024 0.0
S1078 S 0.56711 0.21829 0.86293 0.0
N1079 N 0.5151 0.20434 0.85053 0.0
N1080 N 0.56094 0.16769 0.87383 0.0
C1081 C 0.51491 0.13644 0.86749 0.0
C1082 C 0.48981 0.15644 0.85502 0.0
C1083 C 1.03657 0.26697 0.52862 0.0
C1084 C 1.01136 0.29163 0.53304 0.0
C1085 C 0.08071 0.28916 0.51604 0.0
C1086 C 0.10043 0.33629 0.50702 0.0
H1087 H 1.02298 0.23104 0.53561 0.0
H1088 H 0.09906 0.26911 0.51305 0.0
S1089 S 0.04816 0.41569 0.51371 0.0
N1090 N 1.00994 0.36578 0.5277 0.0
N1091 N 0.09077 0.40628 0.50333 0.0
C1092 C 0.07497 0.36068 0.51107 0.0
C1093 C 1.03108 0.33872 0.52427 0.0
C1094 C 0.81337 0.8279 0.5185 0.0
C1095 C 0.76589 0.80078 0.51006 0.0
C1096 C 0.83499 0.80611 0.53169 0.0
C1097 C 0.80941 0.75675 0.53736 0.0
H1098 H 0.83427 0.86586 0.5144 0.0
H1099 H 0.87149 0.82816 0.53793 0.0
S1100 S 0.68408 0.67039 0.51992 0.0
N1101 N 0.6945 0.72192 0.50824 0.0
N1102 N 0.73396 0.68196 0.53383 0.0
C1103 C 0.76183 0.72971 0.52933 0.0
C1104 C 0.74043 0.75142 0.51545 0.0
C1105 C 0.27832 1.02494 0.51818 0.0
C1106 C 0.30695 1.00756 0.50822 0.0
C1107 C 0.299 0.06783 0.5316 0.0
C1108 C 0.34886 0.0941 0.53593 0.0
H1109 H 0.23986 1.00568 0.51533 0.0
H1110 H 0.27572 0.07954 0.53929 0.0
S1111 S 0.43916 0.06334 0.51439 0.0
N1112 N 0.38776 1.02059 0.50361 0.0
N1113 N 0.4258 0.09896 0.52953 0.0
C1114 C 0.37749 0.07672 0.52623 0.0
C1115 C 0.3568 0.03414 0.51218 0.0
C1116 C 0.5523 0.26778 0.10917 0.0
C1117 C 0.51358 0.27176 0.11808 0.0
C1118 C 0.54891 0.22286 0.10628 0.0
C1119 C 0.50649 0.17977 0.11198 0.0
H1120 H 0.58627 0.29974 0.10528 0.0
H1121 H 0.58044 0.22209 0.10012 0.0
S1122 S 0.39308 0.17014 0.13383 0.0
N1123 N 0.4301 0.22844 0.13089 0.0
N1124 N 0.42387 0.14408 0.12563 0.0
C1125 C 0.4667 0.18307 0.11984 0.0
C1126 C 0.47025 0.22896 0.12292 0.0
C1127 C 0.87499 0.29324 0.12006 0.0
C1128 C 0.83523 0.29905 0.12499 0.0
C1129 C 0.92119 0.33324 0.1164 0.0
C1130 C 0.92922 0.38054 0.11716 0.0
H1131 H 0.87066 0.25762 0.11983 0.0
H1132 H 0.9509 0.327 0.11337 0.0
S1133 S 0.83545 0.41435 0.12762 0.0
N1134 N 0.80614 0.35521 0.12914 0.0
N1135 N 0.89186 0.43002 0.12214 0.0
C1136 C 0.88902 0.38642 0.12121 0.0
C1137 C 0.84239 0.34583 0.12515 0.0
C1138 C 0.78102 0.63302 0.11259 0.0
C1139 C 0.73491 0.592 0.11169 0.0
C1140 C 0.8226 0.62906 0.11512 0.0
C1141 C 0.81979 0.58396 0.11698 0.0
H1142 H 0.78503 0.6685 0.11216 0.0
H1143 H 0.85711 0.66164 0.11644 0.0
S1144 S 0.70877 0.46534 0.11263 0.0
N1145 N 0.6899 0.50445 0.11068 0.0
N1146 N 0.76764 0.49758 0.11552 0.0
C1147 C 0.77426 0.54277 0.11506 0.0
C1148 C 0.73204 0.54665 0.11236 0.0
C1149 C 0.2497 0.45945 0.92711 0.0
C1150 C 0.29035 0.4993 0.93698 0.0
C1151 C 0.20331 0.45304 0.92992 0.0
C1152 C 0.19597 0.48636 0.94262 0.0
H1153 H 0.25398 0.43421 0.91619 0.0
H1154 H 0.17353 0.42343 0.92092 0.0
S1155 S 0.28892 0.5921 0.97524 0.0
N1156 N 0.31895 0.5689 0.96252 0.0
N1157 N 0.23231 0.55746 0.9674 0.0
C1158 C 0.23583 0.52459 0.95377 0.0
C1159 C 0.28285 0.53095 0.95104 0.0
C1160 C 0.64173 0.80621 0.9463 0.0
C1161 C 0.61349 0.81016 0.92816 0.0
C1162 C 0.646 0.76467 0.94875 0.0
C1163 C 0.62132 0.72537 0.93343 0.0
H1164 H 0.66096 0.8356 0.95853 0.0
H1165 H 0.66773 0.76288 0.96297 0.0
S1166 S 0.54308 0.71787 0.88305 0.0
N1167 N 0.56078 0.77102 0.89476 0.0
N1168 N 0.56874 0.69391 0.89912 0.0
C1169 C 0.59329 0.72926 0.91521 0.0
C1170 C 0.58934 0.7713 0.91265 0.0
C1171 C 0.40067 0.87104 0.93364 0.0
C1172 C 0.39399 0.91099 0.93608 0.0
C1173 C 0.36182 0.82456 0.93024 0.0
C1174 C 0.31426 0.8155 0.92929 0.0
H1175 H 0.43643 0.87563 0.93368 0.0
H1176 H 0.36923 0.79543 0.92798 0.0
S1177 S 0.27609 0.90636 0.93599 0.0
N1178 N 0.33519 0.93753 0.93835 0.0
N1179 N 0.26229 0.85007 0.93196 0.0
C1180 C 0.30663 0.85457 0.9326 0.0
C1181 C 0.34636 0.90222 0.93596 0.0
C1182 C 0.15315 0.56977 0.45492 0.0
C1183 C 0.19673 0.61058 0.44811 0.0
C1184 C 0.14564 0.52301 0.45208 0.0
C1185 C 0.18146 0.51513 0.44235 0.0
H1186 H 0.12523 0.57401 0.46336 0.0
H1187 H 0.11233 0.493 0.4585 0.0
S1188 S 0.29928 0.60922 0.41857 0.0
N1189 N 0.27407 0.63941 0.42886 0.0
N1190 N 0.26039 0.55211 0.42378 0.0
C1191 C 0.22425 0.5555 0.43442 0.0
C1192 C 0.23179 0.60299 0.43725 0.0
C1193 C 0.55236 0.70095 0.43973 0.0
C1194 C 0.59467 0.69927 0.44443 0.0
C1195 C 0.50653 0.66055 0.44292 0.0
C1196 C 0.50082 0.61664 0.45117 0.0
H1197 H 0.55445 0.73419 0.43407 0.0
H1198 H 0.47531 0.6643 0.43975 0.0
S1199 S 0.59945 0.59139 0.46414 0.0
N1200 N 0.62742 0.64861 0.45639 0.0
N1201 N 0.54148 0.57281 0.46224 0.0
C1202 C 0.5427 0.6138 0.45505 0.0
C1203 C 0.58946 0.65494 0.45168 0.0
C1204 C 0.48792 0.9615 0.45579 0.0
C1205 C 0.48756 0.92077 0.44635 0.0
C1206 C 0.44862 0.96902 0.45276 0.0
C1207 C 0.40742 0.936 0.44023 0.0
H1208 H 0.51783 0.98664 0.46654 0.0
H1209 H 0.44951 0.99948 0.46138 0.0
S1210 S 0.3916 0.82793 0.40873 0.0
N1211 N 0.44481 0.8504 0.42142 0.0
N1212 N 0.371 0.86397 0.41609 0.0
C1213 C 0.40787 0.89675 0.42953 0.0
C1214 C 0.44784 0.88926 0.4325 0.0
C1215 C 0.89633 0.86657 0.27195 0.0
C1216 C 0.85375 0.82268 0.26787 0.0
C1217 C 0.94187 0.87128 0.26905 0.0
C1218 C 0.94719 0.83238 0.26182 0.0
H1219 H 0.8947 0.89827 0.27682 0.0
H1220 H 0.9732 0.90635 0.27155 0.0
S1221 S 0.84762 0.7083 0.25107 0.0
N1222 N 0.82013 0.73853 0.25777 0.0
N1223 N 0.90575 0.74725 0.25254 0.0
C1224 C 0.90502 0.78767 0.25869 0.0
C1225 C 0.85842 0.78281 0.26174 0.0
C1226 C 0.3086 0.10342 0.25723 0.0
C1227 C 0.27321 0.06104 0.26825 0.0
C1228 C 0.3019 0.14319 0.254 0.0
C1229 C 0.25958 0.14213 0.2617 0.0
H1230 H 0.34069 0.10514 0.25004 0.0
H1231 H 0.32924 0.17427 0.24456 0.0
S1232 S 0.15924 0.04239 0.29475 0.0
N1233 N 0.19651 1.02238 0.28901 0.0
N1234 N 0.18436 0.09692 0.28321 0.0
C1235 C 0.22524 0.10092 0.2739 0.0
C1236 C 0.23195 0.06052 0.27712 0.0
C1237 C 1.00257 0.16131 0.26758 0.0
C1238 C 0.95797 0.15554 0.26049 0.0
C1239 C 1.04303 0.20705 0.27056 0.0
C1240 C 1.04085 0.24933 0.26677 0.0
H1241 H 1.0068 0.13019 0.27002 0.0
H1242 H 0.07667 0.20913 0.27537 0.0
S1243 S 0.93154 0.2541 0.24988 0.0
N1244 N 0.91325 0.19617 0.25124 0.0
N1245 N 0.9892 0.28203 0.25669 0.0
C1246 C 0.99598 0.2441 0.26056 0.0
C1247 C 0.95472 0.19737 0.25741 0.0
C1248 C 0.81081 0.84822 0.79081 0.0
C1249 C 0.83719 0.83712 0.77468 0.0
C1250 C 0.81988 0.89568 0.79324 0.0
C1251 C 0.85546 0.93369 0.77952 0.0
H1252 H 0.78528 0.82075 0.8027 0.0
H1253 H 0.80069 0.903 0.80685 0.0
S1254 S 0.9279 0.92123 0.73171 0.0
N1255 N 0.89614 0.86662 0.74293 0.0
N1256 N 0.91203 0.95498 0.74683 0.0
C1257 C 0.87929 0.92204 0.76208 0.0
C1258 C 0.87045 0.87403 0.75984 0.0
C1259 C 0.26284 0.97601 0.78743 0.0
C1260 C 0.27034 1.01835 0.77613 0.0
C1261 C 0.21624 0.93614 0.79017 0.0
C1262 C 0.17531 0.93674 0.78146 0.0
H1263 H 0.29277 0.97461 0.79545 0.0
H1264 H 0.21207 0.90507 0.79982 0.0
S1265 S 0.17613 0.03751 0.74856 0.0
N1266 N 0.2332 0.057 0.75456 0.0
N1267 N 0.14626 0.9828 0.75983 0.0
C1268 C 0.18279 0.97794 0.76896 0.0
C1269 C 0.23005 1.01847 0.76628 0.0
C1270 C 0.17362 0.29818 0.79112 0.0
C1271 C 0.17437 0.25808 0.78152 0.0
C1272 C 0.13423 0.30541 0.78763 0.0
C1273 C 0.09383 0.2725 0.77461 0.0
H1274 H 0.20308 0.32339 0.80208 0.0
H1275 H 0.13426 0.33535 0.79637 0.0
S1276 S 0.07925 0.16398 0.74402 0.0
N1277 N 0.13205 0.18678 0.75715 0.0
N1278 N 0.05876 0.20055 0.7504 0.0
C1279 C 0.09532 0.23382 0.76382 0.0
C1280 C 0.13535 0.22657 0.7673 0.0
C1281 C 0.55989 0.19439 0.6152 0.0
C1282 C 0.51927 0.15353 0.60615 0.0
C1283 C 0.60635 0.20143 0.61225 0.0
C1284 C 0.61446 0.16816 0.5999 0.0
H1285 H 0.55592 0.22213 0.62396 0.0
H1286 H 0.63639 0.23404 0.6191 0.0
S1287 S 0.52018 0.05468 0.57303 0.0
N1288 N 0.49 0.07849 0.58498 0.0
N1289 N 0.57734 0.09197 0.57903 0.0
C1290 C 0.57395 0.1261 0.59159 0.0
C1291 C 0.52642 0.11874 0.59481 0.0
C1292 C 0.9075 0.39742 0.609 0.0
C1293 C 0.94858 0.39803 0.59982 0.0
C1294 C 0.89989 0.43641 0.60587 0.0
C1295 C 0.93295 0.47786 0.59336 0.0
H1296 H 0.88009 0.3659 0.61816 0.0
H1297 H 0.86721 0.43363 0.61289 0.0
S1298 S 0.04704 0.49849 0.56622 0.0
N1299 N 1.02366 0.44451 0.57829 0.0
N1300 N 1.00913 0.51764 0.5722 0.0
C1301 C 0.97514 0.47983 0.58484 0.0
C1302 C 0.983 0.44002 0.58812 0.0
C1303 C 0.62649 0.52762 0.59048 0.0
C1304 C 0.6267 0.48669 0.59951 0.0
C1305 C 0.66615 0.57411 0.59344 0.0
C1306 C 0.70785 0.58141 0.60526 0.0
H1307 H 0.59577 0.52356 0.5806 0.0
H1308 H 0.66505 0.60417 0.58535 0.0
S1309 S 0.72582 0.4868 0.63337 0.0
N1310 N 0.67158 0.45715 0.62169 0.0
N1311 N 0.74569 0.54395 0.62729 0.0
C1312 C 0.70772 0.541 0.61517 0.0
C1313 C 0.66731 0.49385 0.61231 0.0
loop_
_geom_bond_atom_site_label_1
_geom_bond_atom_site_label_2
_geom_bond_distance
_geom_bond_site_symmetry_2
_ccdc_geom_bond_type
Sm0 C2 2.846 . S
Sm0 O20 2.543 . S
Sm0 O21 2.450 . S
Sm0 O22 2.681 1_545 S
Sm0 O23 2.464 . S
Sm0 O24 2.396 . S
Sm0 O28 2.386 . S
Sm0 O31 2.408 1_545 S
Sm1 C11 2.846 . S
Sm1 O22 2.386 . S
Sm1 O25 2.408 1_565 S
Sm1 O26 2.543 . S
Sm1 O27 2.450 . S
Sm1 O28 2.681 1_565 S
Sm1 O29 2.464 . S
Sm1 O30 2.396 . S
C2 Sm0 2.846 . S
C2 C3 1.506 . S
C2 O20 1.261 . S
C2 O21 1.242 . S
C3 C2 1.506 . S
C3 C4 1.358 . S
C3 C8 1.382 . S
C4 C3 1.358 . S
C4 C5 1.385 . S
C4 H32 0.930 . S
C5 C4 1.385 . S
C5 C6 1.395 . S
C5 H33 0.929 . S
C6 C5 1.395 . S
C6 C7 1.335 . S
C7 C6 1.335 . S
C7 C8 1.398 . S
C7 H34 0.930 . S
C8 C3 1.382 . S
C8 C7 1.398 . S
C8 H35 0.929 . S
C9 O22 1.271 1_545 S
C9 O23 1.251 . S
C10 O24 1.252 . S
C10 O25 1.272 . S
C11 Sm1 2.846 . S
C11 C12 1.506 . S
C11 O26 1.261 . S
C11 O27 1.242 . S
C12 C11 1.506 . S
C12 C13 1.358 . S
C12 C17 1.382 . S
C13 C12 1.358 . S
C13 C14 1.385 . S
C13 H36 0.930 . S
C14 C13 1.385 . S
C14 C15 1.395 . S
C14 H37 0.929 . S
C15 C14 1.395 . S
C15 C16 1.335 . S
C16 C15 1.335 . S
C16 C17 1.398 . S
C16 H38 0.930 . S
C17 C12 1.382 . S
C17 C16 1.398 . S
C17 H39 0.929 . S
C18 O28 1.271 . S
C18 O29 1.251 1_545 S
C19 O30 1.252 . S
C19 O31 1.272 . S
O20 Sm0 2.543 . S
O20 C2 1.261 . S
O21 Sm0 2.450 . S
O21 C2 1.242 . S
O22 Sm0 2.681 1_565 S
O22 Sm1 2.386 . S
O22 C9 1.271 1_565 S
O23 Sm0 2.464 . S
O23 C9 1.251 . S
O24 Sm0 2.396 . S
O24 C10 1.252 . S
O25 Sm1 2.408 1_545 S
O25 C10 1.272 . S
O26 Sm1 2.543 . S
O26 C11 1.261 . S
O27 Sm1 2.450 . S
O27 C11 1.242 . S
O28 Sm0 2.386 . S
O28 Sm1 2.681 1_545 S
O28 C18 1.271 . S
O29 Sm1 2.464 . S
O29 C18 1.251 1_565 S
O30 Sm1 2.396 . S
O30 C19 1.252 . S
O31 Sm0 2.408 1_565 S
O31 C19 1.272 . S
H32 C4 0.930 . S
H33 C5 0.929 . S
H34 C7 0.930 . S
H35 C8 0.929 . S
H36 C13 0.930 . S
H37 C14 0.929 . S
H38 C16 0.930 . S
H39 C17 0.929 . S
Sm40 C42 2.846 . S
Sm40 O60 2.543 . S
Sm40 O61 2.450 . S
Sm40 O62 2.681 1_655 S
Sm40 O63 2.464 1_655 S
Sm40 O64 2.396 . S
Sm40 O68 2.386 1_655 S
Sm40 O71 2.408 1_655 S
Sm41 C51 2.846 . S
Sm41 O62 2.386 . S
Sm41 O65 2.408 1_455 S
Sm41 O66 2.543 . S
Sm41 O67 2.450 . S
Sm41 O68 2.681 . S
Sm41 O69 2.464 . S
Sm41 O70 2.396 . S
C42 Sm40 2.846 . S
C42 C43 1.506 . S
C42 O60 1.261 . S
C42 O61 1.242 . S
C43 C42 1.506 . S
C43 C44 1.358 . S
C43 C48 1.382 . S
C44 C43 1.358 . S
C44 C45 1.385 . S
C44 H72 0.930 . S
C45 C44 1.385 . S
C45 C46 1.395 . S
C45 H73 0.929 . S
C46 C45 1.395 . S
C46 C47 1.335 . S
C47 C46 1.335 . S
C47 C48 1.398 . S
C47 H74 0.930 . S
C48 C43 1.382 . S
C48 C47 1.398 . S
C48 H75 0.929 . S
C49 O62 1.271 . S
C49 O63 1.251 . S
C50 O64 1.252 . S
C50 O65 1.272 . S
C51 Sm41 2.846 . S
C51 C52 1.506 . S
C51 O66 1.261 . S
C51 O67 1.242 . S
C52 C51 1.506 . S
C52 C53 1.358 . S
C52 C57 1.382 . S
C53 C52 1.358 . S
C53 C54 1.385 . S
C53 H76 0.930 . S
C54 C53 1.385 . S
C54 C55 1.395 . S
C54 H77 0.929 . S
C55 C54 1.395 . S
C55 C56 1.335 . S
C56 C55 1.335 . S
C56 C57 1.398 . S
C56 H78 0.930 . S
C57 C52 1.382 . S
C57 C56 1.398 . S
C57 H79 0.929 . S
C58 O68 1.271 . S
C58 O69 1.251 . S
C59 O70 1.252 . S
C59 O71 1.272 . S
O60 Sm40 2.543 . S
O60 C42 1.261 . S
O61 Sm40 2.450 . S
O61 C42 1.242 . S
O62 Sm40 2.681 1_455 S
O62 Sm41 2.386 . S
O62 C49 1.271 . S
O63 Sm40 2.464 1_455 S
O63 C49 1.251 . S
O64 Sm40 2.396 . S
O64 C50 1.252 . S
O65 Sm41 2.408 1_655 S
O65 C50 1.272 . S
O66 Sm41 2.543 . S
O66 C51 1.261 . S
O67 Sm41 2.450 . S
O67 C51 1.242 . S
O68 Sm40 2.386 1_455 S
O68 Sm41 2.681 . S
O68 C58 1.271 . S
O69 Sm41 2.464 . S
O69 C58 1.251 . S
O70 Sm41 2.396 . S
O70 C59 1.252 . S
O71 Sm40 2.408 1_455 S
O71 C59 1.272 . S
H72 C44 0.930 . S
H73 C45 0.929 . S
H74 C47 0.930 . S
H75 C48 0.929 . S
H76 C53 0.930 . S
H77 C54 0.929 . S
H78 C56 0.930 . S
H79 C57 0.929 . S
Sm80 C82 2.846 . S
Sm80 O100 2.543 . S
Sm80 O101 2.450 . S
Sm80 O102 2.681 . S
Sm80 O103 2.464 . S
Sm80 O104 2.396 . S
Sm80 O108 2.386 . S
Sm80 O111 2.408 . S
Sm81 C91 2.846 . S
Sm81 O102 2.386 . S
Sm81 O105 2.408 . S
Sm81 O106 2.543 . S
Sm81 O107 2.450 . S
Sm81 O108 2.681 . S
Sm81 O109 2.464 . S
Sm81 O110 2.396 . S
C82 Sm80 2.846 . S
C82 C83 1.506 . S
C82 O100 1.261 . S
C82 O101 1.242 . S
C83 C82 1.506 . S
C83 C84 1.358 . S
C83 C88 1.382 . S
C84 C83 1.358 . S
C84 C85 1.385 . S
C84 H112 0.930 . S
C85 C84 1.385 . S
C85 C86 1.395 . S
C85 H113 0.929 . S
C86 C85 1.395 . S
C86 C87 1.335 . S
C87 C86 1.335 . S
C87 C88 1.398 . S
C87 H114 0.930 . S
C88 C83 1.382 . S
C88 C87 1.398 . S
C88 H115 0.929 . S
C89 O102 1.271 . S
C89 O103 1.251 . S
C90 O104 1.252 . S
C90 O105 1.272 . S
C91 Sm81 2.846 . S
C91 C92 1.506 . S
C91 O106 1.261 . S
C91 O107 1.242 . S
C92 C91 1.506 . S
C92 C93 1.358 . S
C92 C97 1.382 . S
C93 C92 1.358 . S
C93 C94 1.385 . S
C93 H116 0.930 . S
C94 C93 1.385 . S
C94 C95 1.395 . S
C94 H117 0.929 . S
C95 C94 1.395 . S
C95 C96 1.335 . S
C96 C95 1.335 . S
C96 C97 1.398 . S
C96 H118 0.930 . S
C97 C92 1.382 . S
C97 C96 1.398 . S
C97 H119 0.929 . S
C98 O108 1.271 . S
C98 O109 1.251 . S
C99 O110 1.252 . S
C99 O111 1.272 . S
O100 Sm80 2.543 . S
O100 C82 1.261 . S
O101 Sm80 2.450 . S
O101 C82 1.242 . S
O102 Sm80 2.681 . S
O102 Sm81 2.386 . S
O102 C89 1.271 . S
O103 Sm80 2.464 . S
O103 C89 1.251 . S
O104 Sm80 2.396 . S
O104 C90 1.252 . S
O105 Sm81 2.408 . S
O105 C90 1.272 . S
O106 Sm81 2.543 . S
O106 C91 1.261 . S
O107 Sm81 2.450 . S
O107 C91 1.242 . S
O108 Sm80 2.386 . S
O108 Sm81 2.681 . S
O108 C98 1.271 . S
O109 Sm81 2.464 . S
O109 C98 1.251 . S
O110 Sm81 2.396 . S
O110 C99 1.252 . S
O111 Sm80 2.408 . S
O111 C99 1.272 . S
H112 C84 0.930 . S
H113 C85 0.929 . S
H114 C87 0.930 . S
H115 C88 0.929 . S
H116 C93 0.930 . S
H117 C94 0.929 . S
H118 C96 0.930 . S
H119 C97 0.929 . S
Sm120 C122 2.846 . S
Sm120 O140 2.543 . S
Sm120 O141 2.450 . S
Sm120 O142 2.681 1_455 S
Sm120 O143 2.464 . S
Sm120 O144 2.396 . S
Sm120 O148 2.386 . S
Sm120 O151 2.408 1_455 S
Sm121 C131 2.846 . S
Sm121 O142 2.386 . S
Sm121 O145 2.408 1_655 S
Sm121 O146 2.543 . S
Sm121 O147 2.450 . S
Sm121 O148 2.681 1_655 S
Sm121 O149 2.464 . S
Sm121 O150 2.396 . S
C122 Sm120 2.846 . S
C122 C123 1.506 . S
C122 O140 1.261 . S
C122 O141 1.242 . S
C123 C122 1.506 . S
C123 C124 1.358 . S
C123 C128 1.382 . S
C124 C123 1.358 . S
C124 C125 1.385 . S
C124 H152 0.930 . S
C125 C124 1.385 . S
C125 C126 1.395 . S
C125 H153 0.929 . S
C126 C125 1.395 . S
C126 C127 1.335 . S
C127 C126 1.335 . S
C127 C128 1.398 . S
C127 H154 0.930 . S
C128 C123 1.382 . S
C128 C127 1.398 . S
C128 H155 0.929 . S
C129 O142 1.271 1_455 S
C129 O143 1.251 . S
C130 O144 1.252 . S
C130 O145 1.272 . S
C131 Sm121 2.846 . S
C131 C132 1.506 . S
C131 O146 1.261 . S
C131 O147 1.242 . S
C132 C131 1.506 . S
C132 C133 1.358 . S
C132 C137 1.382 . S
C133 C132 1.358 . S
C133 C134 1.385 . S
C133 H156 0.930 . S
C134 C133 1.385 . S
C134 C135 1.395 . S
C134 H157 0.929 . S
C135 C134 1.395 . S
C135 C136 1.335 . S
C136 C135 1.335 . S
C136 C137 1.398 . S
C136 H158 0.930 . S
C137 C132 1.382 . S
C137 C136 1.398 . S
C137 H159 0.929 . S
C138 O148 1.271 . S
C138 O149 1.251 1_455 S
C139 O150 1.252 . S
C139 O151 1.272 . S
O140 Sm120 2.543 . S
O140 C122 1.261 . S
O141 Sm120 2.450 . S
O141 C122 1.242 . S
O142 Sm120 2.681 1_655 S
O142 Sm121 2.386 . S
O142 C129 1.271 1_655 S
O143 Sm120 2.464 . S
O143 C129 1.251 . S
O144 Sm120 2.396 . S
O144 C130 1.252 . S
O145 Sm121 2.408 1_455 S
O145 C130 1.272 . S
O146 Sm121 2.543 . S
O146 C131 1.261 . S
O147 Sm121 2.450 . S
O147 C131 1.242 . S
O148 Sm120 2.386 . S
O148 Sm121 2.681 1_455 S
O148 C138 1.271 . S
O149 Sm121 2.464 . S
O149 C138 1.251 1_655 S
O150 Sm121 2.396 . S
O150 C139 1.252 . S
O151 Sm120 2.408 1_655 S
O151 C139 1.272 . S
H152 C124 0.930 . S
H153 C125 0.929 . S
H154 C127 0.930 . S
H155 C128 0.929 . S
H156 C133 0.930 . S
H157 C134 0.929 . S
H158 C136 0.930 . S
H159 C137 0.929 . S
Sm160 C162 2.846 . S
Sm160 O180 2.543 . S
Sm160 O181 2.450 . S
Sm160 O182 2.681 . S
Sm160 O183 2.464 . S
Sm160 O184 2.396 . S
Sm160 O188 2.386 . S
Sm160 O191 2.408 . S
Sm161 C171 2.846 . S
Sm161 O182 2.386 . S
Sm161 O185 2.408 . S
Sm161 O186 2.543 . S
Sm161 O187 2.450 . S
Sm161 O188 2.681 . S
Sm161 O189 2.464 . S
Sm161 O190 2.396 . S
C162 Sm160 2.846 . S
C162 C163 1.506 . S
C162 O180 1.261 . S
C162 O181 1.242 . S
C163 C162 1.506 . S
C163 C164 1.358 . S
C163 C168 1.382 . S
C164 C163 1.358 . S
C164 C165 1.385 . S
C164 H192 0.930 . S
C165 C164 1.385 . S
C165 C166 1.395 . S
C165 H193 0.929 . S
C166 C165 1.395 . S
C166 C167 1.335 . S
C167 C166 1.335 . S
C167 C168 1.398 . S
C167 H194 0.930 . S
C168 C163 1.382 . S
C168 C167 1.398 . S
C168 H195 0.929 . S
C169 O182 1.271 . S
C169 O183 1.251 . S
C170 O184 1.252 . S
C170 O185 1.272 . S
C171 Sm161 2.846 . S
C171 C172 1.506 . S
C171 O186 1.261 . S
C171 O187 1.242 . S
C172 C171 1.506 . S
C172 C173 1.358 . S
C172 C177 1.382 . S
C173 C172 1.358 . S
C173 C174 1.385 . S
C173 H196 0.930 . S
C174 C173 1.385 . S
C174 C175 1.395 . S
C174 H197 0.929 . S
C175 C174 1.395 . S
C175 C176 1.335 . S
C176 C175 1.335 . S
C176 C177 1.398 . S
C176 H198 0.930 . S
C177 C172 1.382 . S
C177 C176 1.398 . S
C177 H199 0.929 . S
C178 O188 1.271 . S
C178 O189 1.251 . S
C179 O190 1.252 . S
C179 O191 1.272 . S
O180 Sm160 2.543 . S
O180 C162 1.261 . S
O181 Sm160 2.450 . S
O181 C162 1.242 . S
O182 Sm160 2.681 . S
O182 Sm161 2.386 . S
O182 C169 1.271 . S
O183 Sm160 2.464 . S
O183 C169 1.251 . S
O184 Sm160 2.396 . S
O184 C170 1.252 . S
O185 Sm161 2.408 . S
O185 C170 1.272 . S
O186 Sm161 2.543 . S
O186 C171 1.261 . S
O187 Sm161 2.450 . S
O187 C171 1.242 . S
O188 Sm160 2.386 . S
O188 Sm161 2.681 . S
O188 C178 1.271 . S
O189 Sm161 2.464 . S
O189 C178 1.251 . S
O190 Sm161 2.396 . S
O190 C179 1.252 . S
O191 Sm160 2.408 . S
O191 C179 1.272 . S
H192 C164 0.930 . S
H193 C165 0.929 . S
H194 C167 0.930 . S
H195 C168 0.929 . S
H196 C173 0.930 . S
H197 C174 0.929 . S
H198 C176 0.930 . S
H199 C177 0.929 . S
Sm200 C202 2.846 . S
Sm200 O220 2.543 . S
Sm200 O221 2.450 . S
Sm200 O222 2.681 1_565 S
Sm200 O223 2.464 1_565 S
Sm200 O224 2.396 . S
Sm200 O228 2.386 1_565 S
Sm200 O231 2.408 1_565 S
Sm201 C211 2.846 . S
Sm201 O222 2.386 . S
Sm201 O225 2.408 1_545 S
Sm201 O226 2.543 . S
Sm201 O227 2.450 . S
Sm201 O228 2.681 . S
Sm201 O229 2.464 . S
Sm201 O230 2.396 . S
C202 Sm200 2.846 . S
C202 C203 1.506 . S
C202 O220 1.261 . S
C202 O221 1.242 . S
C203 C202 1.506 . S
C203 C204 1.358 . S
C203 C208 1.382 . S
C204 C203 1.358 . S
C204 C205 1.385 . S
C204 H232 0.930 . S
C205 C204 1.385 . S
C205 C206 1.395 . S
C205 H233 0.929 . S
C206 C205 1.395 . S
C206 C207 1.335 . S
C207 C206 1.335 . S
C207 C208 1.398 . S
C207 H234 0.930 . S
C208 C203 1.382 . S
C208 C207 1.398 . S
C208 H235 0.929 . S
C209 O222 1.271 . S
C209 O223 1.251 . S
C210 O224 1.252 . S
C210 O225 1.272 . S
C211 Sm201 2.846 . S
C211 C212 1.506 . S
C211 O226 1.261 . S
C211 O227 1.242 . S
C212 C211 1.506 . S
C212 C213 1.358 . S
C212 C217 1.382 . S
C213 C212 1.358 . S
C213 C214 1.385 . S
C213 H236 0.930 . S
C214 C213 1.385 . S
C214 C215 1.395 . S
C214 H237 0.929 . S
C215 C214 1.395 . S
C215 C216 1.335 . S
C216 C215 1.335 . S
C216 C217 1.398 . S
C216 H238 0.930 . S
C217 C212 1.382 . S
C217 C216 1.398 . S
C217 H239 0.929 . S
C218 O228 1.271 . S
C218 O229 1.251 . S
C219 O230 1.252 . S
C219 O231 1.272 . S
O220 Sm200 2.543 . S
O220 C202 1.261 . S
O221 Sm200 2.450 . S
O221 C202 1.242 . S
O222 Sm200 2.681 1_545 S
O222 Sm201 2.386 . S
O222 C209 1.271 . S
O223 Sm200 2.464 1_545 S
O223 C209 1.251 . S
O224 Sm200 2.396 . S
O224 C210 1.252 . S
O225 Sm201 2.408 1_565 S
O225 C210 1.272 . S
O226 Sm201 2.543 . S
O226 C211 1.261 . S
O227 Sm201 2.450 . S
O227 C211 1.242 . S
O228 Sm200 2.386 1_545 S
O228 Sm201 2.681 . S
O228 C218 1.271 . S
O229 Sm201 2.464 . S
O229 C218 1.251 . S
O230 Sm201 2.396 . S
O230 C219 1.252 . S
O231 Sm200 2.408 1_545 S
O231 C219 1.272 . S
H232 C204 0.930 . S
H233 C205 0.929 . S
H234 C207 0.930 . S
H235 C208 0.929 . S
H236 C213 0.930 . S
H237 C214 0.929 . S
H238 C216 0.930 . S
H239 C217 0.929 . S
Sm240 C242 2.846 . S
Sm240 O260 2.543 . S
Sm240 O261 2.450 . S
Sm240 O262 2.681 . S
Sm240 O263 2.464 . S
Sm240 O264 2.396 . S
Sm240 O268 2.386 . S
Sm240 O271 2.408 . S
Sm241 C251 2.846 . S
Sm241 O262 2.386 . S
Sm241 O265 2.408 . S
Sm241 O266 2.543 . S
Sm241 O267 2.450 . S
Sm241 O268 2.681 . S
Sm241 O269 2.464 . S
Sm241 O270 2.396 . S
C242 Sm240 2.846 . S
C242 C243 1.506 . S
C242 O260 1.261 . S
C242 O261 1.242 . S
C243 C242 1.506 . S
C243 C244 1.358 . S
C243 C248 1.382 . S
C244 C243 1.358 . S
C244 C245 1.385 . S
C244 H272 0.930 . S
C245 C244 1.385 . S
C245 C246 1.395 . S
C245 H273 0.929 . S
C246 C245 1.395 . S
C246 C247 1.335 . S
C247 C246 1.335 . S
C247 C248 1.398 . S
C247 H274 0.930 . S
C248 C243 1.382 . S
C248 C247 1.398 . S
C248 H275 0.929 . S
C249 O262 1.271 . S
C249 O263 1.251 . S
C250 O264 1.252 . S
C250 O265 1.272 . S
C251 Sm241 2.846 . S
C251 C252 1.506 1_455 S
C251 O266 1.261 . S
C251 O267 1.242 . S
C252 C251 1.506 1_655 S
C252 C253 1.358 . S
C252 C257 1.382 . S
C253 C252 1.358 . S
C253 C254 1.385 . S
C253 H276 0.930 . S
C254 C253 1.385 . S
C254 C255 1.395 . S
C254 H277 0.929 . S
C255 C254 1.395 . S
C255 C256 1.335 . S
C256 C255 1.335 . S
C256 C257 1.398 . S
C256 H278 0.930 . S
C257 C252 1.382 . S
C257 C256 1.398 . S
C257 H279 0.929 . S
C258 O268 1.271 . S
C258 O269 1.251 . S
C259 O270 1.252 . S
C259 O271 1.272 . S
O260 Sm240 2.543 . S
O260 C242 1.261 . S
O261 Sm240 2.450 . S
O261 C242 1.242 . S
O262 Sm240 2.681 . S
O262 Sm241 2.386 . S
O262 C249 1.271 . S
O263 Sm240 2.464 . S
O263 C249 1.251 . S
O264 Sm240 2.396 . S
O264 C250 1.252 . S
O265 Sm241 2.408 . S
O265 C250 1.272 . S
O266 Sm241 2.543 . S
O266 C251 1.261 . S
O267 Sm241 2.450 . S
O267 C251 1.242 . S
O268 Sm240 2.386 . S
O268 Sm241 2.681 . S
O268 C258 1.271 . S
O269 Sm241 2.464 . S
O269 C258 1.251 . S
O270 Sm241 2.396 . S
O270 C259 1.252 . S
O271 Sm240 2.408 . S
O271 C259 1.272 . S
H272 C244 0.930 . S
H273 C245 0.929 . S
H274 C247 0.930 . S
H275 C248 0.929 . S
H276 C253 0.930 . S
H277 C254 0.929 . S
H278 C256 0.930 . S
H279 C257 0.929 . S
Sm280 C282 2.846 . S
Sm280 O300 2.543 . S
Sm280 O301 2.450 . S
Sm280 O302 2.681 . S
Sm280 O303 2.464 . S
Sm280 O304 2.396 . S
Sm280 O308 2.386 . S
Sm280 O311 2.408 . S
Sm281 C291 2.846 . S
Sm281 O302 2.386 . S
Sm281 O305 2.408 . S
Sm281 O306 2.543 . S
Sm281 O307 2.450 . S
Sm281 O308 2.681 . S
Sm281 O309 2.464 . S
Sm281 O310 2.396 . S
C282 Sm280 2.846 . S
C282 C283 1.506 . S
C282 O300 1.261 . S
C282 O301 1.242 . S
C283 C282 1.506 . S
C283 C284 1.358 . S
C283 C288 1.382 . S
C284 C283 1.358 . S
C284 C285 1.385 . S
C284 H312 0.930 . S
C285 C284 1.385 . S
C285 C286 1.395 . S
C285 H313 0.929 . S
C286 C285 1.395 . S
C286 C287 1.335 . S
C287 C286 1.335 . S
C287 C288 1.398 . S
C287 H314 0.930 . S
C288 C283 1.382 . S
C288 C287 1.398 . S
C288 H315 0.929 . S
C289 O302 1.271 . S
C289 O303 1.251 . S
C290 O304 1.252 . S
C290 O305 1.272 . S
C291 Sm281 2.846 . S
C291 C292 1.506 . S
C291 O306 1.261 . S
C291 O307 1.242 . S
C292 C291 1.506 . S
C292 C293 1.358 . S
C292 C297 1.382 . S
C293 C292 1.358 . S
C293 C294 1.385 . S
C293 H316 0.930 . S
C294 C293 1.385 . S
C294 C295 1.395 . S
C294 H317 0.929 . S
C295 C294 1.395 . S
C295 C296 1.335 . S
C296 C295 1.335 . S
C296 C297 1.398 . S
C296 H318 0.930 . S
C297 C292 1.382 . S
C297 C296 1.398 . S
C297 H319 0.929 . S
C298 O308 1.271 . S
C298 O309 1.251 . S
C299 O310 1.252 . S
C299 O311 1.272 . S
O300 Sm280 2.543 . S
O300 C282 1.261 . S
O301 Sm280 2.450 . S
O301 C282 1.242 . S
O302 Sm280 2.681 . S
O302 Sm281 2.386 . S
O302 C289 1.271 . S
O303 Sm280 2.464 . S
O303 C289 1.251 . S
O304 Sm280 2.396 . S
O304 C290 1.252 . S
O305 Sm281 2.408 . S
O305 C290 1.272 . S
O306 Sm281 2.543 . S
O306 C291 1.261 . S
O307 Sm281 2.450 . S
O307 C291 1.242 . S
O308 Sm280 2.386 . S
O308 Sm281 2.681 . S
O308 C298 1.271 . S
O309 Sm281 2.464 . S
O309 C298 1.251 . S
O310 Sm281 2.396 . S
O310 C299 1.252 . S
O311 Sm280 2.408 . S
O311 C299 1.272 . S
H312 C284 0.930 . S
H313 C285 0.929 . S
H314 C287 0.930 . S
H315 C288 0.929 . S
H316 C293 0.930 . S
H317 C294 0.929 . S
H318 C296 0.930 . S
H319 C297 0.929 . S
Sm320 C322 2.846 . S
Sm320 O340 2.543 . S
Sm320 O341 2.450 . S
Sm320 O342 2.681 . S
Sm320 O343 2.464 . S
Sm320 O344 2.396 . S
Sm320 O348 2.386 . S
Sm320 O351 2.408 . S
Sm321 C331 2.846 1_565 S
Sm321 O342 2.386 . S
Sm321 O345 2.408 . S
Sm321 O346 2.516 1_565 S
Sm321 O347 2.450 1_565 S
Sm321 O348 2.681 . S
Sm321 O349 2.464 . S
Sm321 O350 2.396 . S
C322 Sm320 2.846 . S
C322 C323 1.506 . S
C322 O340 1.261 . S
C322 O341 1.242 . S
C323 C322 1.506 . S
C323 C324 1.358 . S
C323 C328 1.382 . S
C324 C323 1.358 . S
C324 C325 1.385 . S
C324 H352 0.930 . S
C325 C324 1.385 . S
C325 C326 1.395 . S
C325 H353 0.929 . S
C326 C325 1.395 . S
C326 C327 1.335 . S
C327 C326 1.335 . S
C327 C328 1.398 . S
C327 H354 0.930 . S
C328 C323 1.382 . S
C328 C327 1.398 . S
C328 H355 0.929 . S
C329 O342 1.271 . S
C329 O343 1.251 . S
C330 O344 1.252 . S
C330 O345 1.272 . S
C331 Sm321 2.846 1_545 S
C331 C332 1.506 . S
C331 O346 1.275 . S
C331 O347 1.242 . S
C332 C331 1.506 . S
C332 C333 1.358 . S
C332 C337 1.382 . S
C333 C332 1.358 . S
C333 C334 1.385 . S
C333 H356 0.930 . S
C334 C333 1.385 . S
C334 C335 1.395 . S
C334 H357 0.929 . S
C335 C334 1.395 . S
C335 C336 1.335 . S
C336 C335 1.335 . S
C336 C337 1.398 . S
C336 H358 0.930 . S
C337 C332 1.382 . S
C337 C336 1.398 . S
C337 H359 0.929 . S
C338 O348 1.271 . S
C338 O349 1.251 . S
C339 O350 1.252 . S
C339 O351 1.272 . S
O340 Sm320 2.543 . S
O340 C322 1.261 . S
O341 Sm320 2.450 . S
O341 C322 1.242 . S
O342 Sm320 2.681 . S
O342 Sm321 2.386 . S
O342 C329 1.271 . S
O343 Sm320 2.464 . S
O343 C329 1.251 . S
O344 Sm320 2.396 . S
O344 C330 1.252 . S
O345 Sm321 2.408 . S
O345 C330 1.272 . S
O346 Sm321 2.516 1_545 S
O346 C331 1.275 . S
O347 Sm321 2.450 1_545 S
O347 C331 1.242 . S
O348 Sm320 2.386 . S
O348 Sm321 2.681 . S
O348 C338 1.271 . S
O349 Sm321 2.464 . S
O349 C338 1.251 . S
O350 Sm321 2.396 . S
O350 C339 1.252 . S
O351 Sm320 2.408 . S
O351 C339 1.272 . S
H352 C324 0.930 . S
H353 C325 0.929 . S
H354 C327 0.930 . S
H355 C328 0.929 . S
H356 C333 0.930 . S
H357 C334 0.929 . S
H358 C336 0.930 . S
H359 C337 0.929 . S
Sm360 C362 2.846 . S
Sm360 O380 2.543 . S
Sm360 O381 2.450 . S
Sm360 O382 2.681 . S
Sm360 O383 2.464 . S
Sm360 O384 2.396 . S
Sm360 O388 2.386 . S
Sm360 O391 2.408 . S
Sm361 C371 2.846 . S
Sm361 O382 2.386 . S
Sm361 O385 2.408 . S
Sm361 O386 2.543 . S
Sm361 O387 2.450 . S
Sm361 O388 2.681 . S
Sm361 O389 2.464 . S
Sm361 O390 2.396 . S
C362 Sm360 2.846 . S
C362 C363 1.506 . S
C362 O380 1.261 . S
C362 O381 1.242 . S
C363 C362 1.506 . S
C363 C364 1.358 1_565 S
C363 C368 1.382 1_565 S
C364 C363 1.358 1_545 S
C364 C365 1.385 . S
C364 H392 0.930 1_545 S
C365 C364 1.385 . S
C365 C366 1.395 . S
C365 H393 0.929 . S
C366 C365 1.395 . S
C366 C367 1.335 . S
C367 C366 1.335 . S
C367 C368 1.398 . S
C367 H394 0.930 . S
C368 C363 1.382 1_545 S
C368 C367 1.398 . S
C368 H395 0.930 . S
C369 O382 1.271 . S
C369 O383 1.251 . S
C370 O384 1.252 . S
C370 O385 1.272 . S
C371 Sm361 2.846 . S
C371 C372 1.506 . S
C371 O386 1.261 . S
C371 O387 1.242 . S
C372 C371 1.506 . S
C372 C373 1.358 . S
C372 C377 1.382 . S
C373 C372 1.358 . S
C373 C374 1.385 . S
C373 H396 0.930 . S
C374 C373 1.385 . S
C374 C375 1.395 . S
C374 H397 0.929 . S
C375 C374 1.395 . S
C375 C376 1.335 . S
C376 C375 1.335 . S
C376 C377 1.398 . S
C376 H398 0.930 . S
C377 C372 1.382 . S
C377 C376 1.398 . S
C377 H399 0.929 . S
C378 O388 1.271 . S
C378 O389 1.251 . S
C379 O390 1.252 . S
C379 O391 1.272 . S
O380 Sm360 2.543 . S
O380 C362 1.261 . S
O381 Sm360 2.450 . S
O381 C362 1.242 . S
O382 Sm360 2.681 . S
O382 Sm361 2.386 . S
O382 C369 1.271 . S
O383 Sm360 2.464 . S
O383 C369 1.251 . S
O384 Sm360 2.396 . S
O384 C370 1.252 . S
O385 Sm361 2.408 . S
O385 C370 1.272 . S
O386 Sm361 2.543 . S
O386 C371 1.261 . S
O387 Sm361 2.450 . S
O387 C371 1.242 . S
O388 Sm360 2.386 . S
O388 Sm361 2.681 . S
O388 C378 1.271 . S
O389 Sm361 2.464 . S
O389 C378 1.251 . S
O390 Sm361 2.396 . S
O390 C379 1.252 . S
O391 Sm360 2.408 . S
O391 C379 1.272 . S
H392 C364 0.930 1_565 S
H393 C365 0.929 . S
H394 C367 0.930 . S
H395 C368 0.930 . S
H396 C373 0.930 . S
H397 C374 0.929 . S
H398 C376 0.930 . S
H399 C377 0.929 . S
Sm400 C402 2.846 . S
Sm400 O420 2.543 . S
Sm400 O421 2.450 . S
Sm400 O422 2.681 . S
Sm400 O423 2.464 . S
Sm400 O424 2.396 . S
Sm400 O428 2.386 . S
Sm400 O431 2.408 . S
Sm401 C411 2.846 . S
Sm401 O422 2.386 . S
Sm401 O425 2.408 . S
Sm401 O426 2.543 . S
Sm401 O427 2.450 . S
Sm401 O428 2.681 . S
Sm401 O429 2.464 . S
Sm401 O430 2.396 . S
C402 Sm400 2.846 . S
C402 C403 1.506 . S
C402 O420 1.261 . S
C402 O421 1.242 . S
C403 C402 1.506 . S
C403 C404 1.358 . S
C403 C408 1.382 . S
C404 C403 1.358 . S
C404 C405 1.385 1_455 S
C404 H432 0.930 . S
C405 C404 1.385 1_655 S
C405 C406 1.395 . S
C405 H433 0.929 . S
C406 C405 1.395 . S
C406 C407 1.335 . S
C407 C406 1.335 . S
C407 C408 1.398 1_655 S
C407 H434 0.930 . S
C408 C403 1.382 . S
C408 C407 1.398 1_455 S
C408 H435 0.929 . S
C409 O422 1.271 . S
C409 O423 1.251 . S
C410 O424 1.252 . S
C410 O425 1.272 . S
C411 Sm401 2.846 . S
C411 C412 1.506 . S
C411 O426 1.261 . S
C411 O427 1.242 . S
C412 C411 1.506 . S
C412 C413 1.358 . S
C412 C417 1.382 . S
C413 C412 1.358 . S
C413 C414 1.385 . S
C413 H436 0.930 . S
C414 C413 1.385 . S
C414 C415 1.395 . S
C414 H437 0.929 . S
C415 C414 1.395 . S
C415 C416 1.335 . S
C416 C415 1.335 . S
C416 C417 1.398 . S
C416 H438 0.930 . S
C417 C412 1.382 . S
C417 C416 1.398 . S
C417 H439 0.929 . S
C418 O428 1.271 . S
C418 O429 1.251 . S
C419 O430 1.252 . S
C419 O431 1.272 . S
O420 Sm400 2.543 . S
O420 C402 1.261 . S
O421 Sm400 2.450 . S
O421 C402 1.242 . S
O422 Sm400 2.681 . S
O422 Sm401 2.386 . S
O422 C409 1.271 . S
O423 Sm400 2.464 . S
O423 C409 1.251 . S
O424 Sm400 2.396 . S
O424 C410 1.252 . S
O425 Sm401 2.408 . S
O425 C410 1.272 . S
O426 Sm401 2.543 . S
O426 C411 1.261 . S
O427 Sm401 2.450 . S
O427 C411 1.242 . S
O428 Sm400 2.386 . S
O428 Sm401 2.681 . S
O428 C418 1.271 . S
O429 Sm401 2.464 . S
O429 C418 1.251 . S
O430 Sm401 2.396 . S
O430 C419 1.252 . S
O431 Sm400 2.408 . S
O431 C419 1.272 . S
H432 C404 0.930 . S
H433 C405 0.929 . S
H434 C407 0.930 . S
H435 C408 0.929 . S
H436 C413 0.930 . S
H437 C414 0.929 . S
H438 C416 0.930 . S
H439 C417 0.929 . S
Sm440 C442 2.846 . S
Sm440 O460 2.543 . S
Sm440 O461 2.450 . S
Sm440 O462 2.681 . S
Sm440 O463 2.464 . S
Sm440 O464 2.396 . S
Sm440 O468 2.386 . S
Sm440 O471 2.408 . S
Sm441 C451 2.846 . S
Sm441 O462 2.386 . S
Sm441 O465 2.408 . S
Sm441 O466 2.543 . S
Sm441 O467 2.450 . S
Sm441 O468 2.681 . S
Sm441 O469 2.464 . S
Sm441 O470 2.396 . S
C442 Sm440 2.846 . S
C442 C443 1.506 . S
C442 O460 1.261 . S
C442 O461 1.242 . S
C443 C442 1.506 . S
C443 C444 1.358 . S
C443 C448 1.382 . S
C444 C443 1.358 . S
C444 C445 1.385 . S
C444 H472 0.930 . S
C445 C444 1.385 . S
C445 C446 1.395 . S
C445 H473 0.929 . S
C446 C445 1.395 . S
C446 C447 1.335 . S
C447 C446 1.335 . S
C447 C448 1.398 . S
C447 H474 0.930 . S
C448 C443 1.382 . S
C448 C447 1.398 . S
C448 H475 0.929 . S
C449 O462 1.271 . S
C449 O463 1.251 . S
C450 O464 1.252 . S
C450 O465 1.272 . S
C451 Sm441 2.846 . S
C451 C452 1.506 . S
C451 O466 1.261 . S
C451 O467 1.242 . S
C452 C451 1.506 . S
C452 C453 1.358 . S
C452 C457 1.382 . S
C453 C452 1.358 . S
C453 C454 1.385 . S
C453 H476 0.930 . S
C454 C453 1.385 . S
C454 C455 1.395 . S
C454 H477 0.929 . S
C455 C454 1.395 . S
C455 C456 1.335 . S
C456 C455 1.335 . S
C456 C457 1.398 . S
C456 H478 0.930 . S
C457 C452 1.382 . S
C457 C456 1.398 . S
C457 H479 0.929 . S
C458 O468 1.271 . S
C458 O469 1.251 . S
C459 O470 1.252 . S
C459 O471 1.272 . S
O460 Sm440 2.543 . S
O460 C442 1.261 . S
O461 Sm440 2.450 . S
O461 C442 1.242 . S
O462 Sm440 2.681 . S
O462 Sm441 2.386 . S
O462 C449 1.271 . S
O463 Sm440 2.464 . S
O463 C449 1.251 . S
O464 Sm440 2.396 . S
O464 C450 1.252 . S
O465 Sm441 2.408 . S
O465 C450 1.272 . S
O466 Sm441 2.543 . S
O466 C451 1.261 . S
O467 Sm441 2.450 . S
O467 C451 1.242 . S
O468 Sm440 2.386 . S
O468 Sm441 2.681 . S
O468 C458 1.271 . S
O469 Sm441 2.464 . S
O469 C458 1.251 . S
O470 Sm441 2.396 . S
O470 C459 1.252 . S
O471 Sm440 2.408 . S
O471 C459 1.272 . S
H472 C444 0.930 . S
H473 C445 0.929 . S
H474 C447 0.930 . S
H475 C448 0.929 . S
H476 C453 0.930 . S
H477 C454 0.929 . S
H478 C456 0.930 . S
H479 C457 0.929 . S
Sm480 C482 2.846 . S
Sm480 O500 2.543 . S
Sm480 O501 2.450 . S
Sm480 O502 2.681 . S
Sm480 O503 2.464 . S
Sm480 O504 2.396 . S
Sm480 O508 2.386 . S
Sm480 O511 2.408 . S
Sm481 C491 2.846 . S
Sm481 O502 2.386 . S
Sm481 O505 2.408 . S
Sm481 O506 2.543 . S
Sm481 O507 2.450 . S
Sm481 O508 2.681 . S
Sm481 O509 2.464 . S
Sm481 O510 2.396 . S
C482 Sm480 2.846 . S
C482 C483 1.506 . S
C482 O500 1.261 . S
C482 O501 1.242 . S
C483 C482 1.506 . S
C483 C484 1.358 1_655 S
C483 C488 1.382 1_655 S
C484 C483 1.358 1_455 S
C484 C485 1.385 . S
C484 H512 0.930 1_455 S
C485 C484 1.385 . S
C485 C486 1.395 . S
C485 H513 0.929 . S
C486 C485 1.395 . S
C486 C487 1.335 . S
C487 C486 1.335 . S
C487 C488 1.398 . S
C487 H514 0.930 . S
C488 C483 1.382 1_455 S
C488 C487 1.398 . S
C488 H515 0.930 . S
C489 O502 1.271 . S
C489 O503 1.251 . S
C490 O504 1.252 . S
C490 O505 1.272 . S
C491 Sm481 2.846 . S
C491 C492 1.506 . S
C491 O506 1.261 . S
C491 O507 1.242 . S
C492 C491 1.506 . S
C492 C493 1.358 . S
C492 C497 1.382 . S
C493 C492 1.358 . S
C493 C494 1.385 . S
C493 H516 0.930 . S
C494 C493 1.385 . S
C494 C495 1.395 . S
C494 H517 0.929 . S
C495 C494 1.395 . S
C495 C496 1.335 . S
C496 C495 1.335 . S
C496 C497 1.398 . S
C496 H518 0.930 . S
C497 C492 1.382 . S
C497 C496 1.398 . S
C497 H519 0.929 . S
C498 O508 1.271 . S
C498 O509 1.251 . S
C499 O510 1.252 . S
C499 O511 1.272 . S
O500 Sm480 2.543 . S
O500 C482 1.261 . S
O501 Sm480 2.450 . S
O501 C482 1.242 . S
O502 Sm480 2.681 . S
O502 Sm481 2.386 . S
O502 C489 1.271 . S
O503 Sm480 2.464 . S
O503 C489 1.251 . S
O504 Sm480 2.396 . S
O504 C490 1.252 . S
O505 Sm481 2.408 . S
O505 C490 1.272 . S
O506 Sm481 2.543 . S
O506 C491 1.261 . S
O507 Sm481 2.450 . S
O507 C491 1.242 . S
O508 Sm480 2.386 . S
O508 Sm481 2.681 . S
O508 C498 1.271 . S
O509 Sm481 2.464 . S
O509 C498 1.251 . S
O510 Sm481 2.396 . S
O510 C499 1.252 . S
O511 Sm480 2.408 . S
O511 C499 1.272 . S
H512 C484 0.930 1_655 S
H513 C485 0.929 . S
H514 C487 0.930 . S
H515 C488 0.930 . S
H516 C493 0.930 . S
H517 C494 0.929 . S
H518 C496 0.930 . S
H519 C497 0.929 . S
Sm520 C522 2.846 . S
Sm520 O540 2.543 . S
Sm520 O541 2.450 . S
Sm520 O542 2.681 . S
Sm520 O543 2.464 . S
Sm520 O544 2.396 . S
Sm520 O548 2.386 . S
Sm520 O551 2.408 . S
Sm521 C531 2.846 . S
Sm521 O542 2.386 . S
Sm521 O545 2.408 . S
Sm521 O546 2.543 . S
Sm521 O547 2.450 . S
Sm521 O548 2.681 . S
Sm521 O549 2.464 . S
Sm521 O550 2.396 . S
C522 Sm520 2.846 . S
C522 C523 1.506 . S
C522 O540 1.261 . S
C522 O541 1.242 . S
C523 C522 1.506 . S
C523 C524 1.358 . S
C523 C528 1.382 . S
C524 C523 1.358 . S
C524 C525 1.385 . S
C524 H552 0.930 . S
C525 C524 1.385 . S
C525 C526 1.395 . S
C525 H553 0.929 . S
C526 C525 1.395 . S
C526 C527 1.335 . S
C527 C526 1.335 . S
C527 C528 1.398 . S
C527 H554 0.930 . S
C528 C523 1.382 . S
C528 C527 1.398 . S
C528 H555 0.929 . S
C529 O542 1.271 . S
C529 O543 1.251 . S
C530 O544 1.252 . S
C530 O545 1.272 . S
C531 Sm521 2.846 . S
C531 C532 1.506 . S
C531 O546 1.261 . S
C531 O547 1.242 . S
C532 C531 1.506 . S
C532 C533 1.358 . S
C532 C537 1.382 . S
C533 C532 1.358 . S
C533 C534 1.385 . S
C533 H556 0.930 . S
C534 C533 1.385 . S
C534 C535 1.395 . S
C534 H557 0.929 . S
C535 C534 1.395 . S
C535 C536 1.335 . S
C536 C535 1.335 . S
C536 C537 1.398 . S
C536 H558 0.930 . S
C537 C532 1.382 . S
C537 C536 1.398 . S
C537 H559 0.929 . S
C538 O548 1.271 . S
C538 O549 1.251 . S
C539 O550 1.252 . S
C539 O551 1.272 . S
O540 Sm520 2.543 . S
O540 C522 1.261 . S
O541 Sm520 2.450 . S
O541 C522 1.242 . S
O542 Sm520 2.681 . S
O542 Sm521 2.386 . S
O542 C529 1.271 . S
O543 Sm520 2.464 . S
O543 C529 1.251 . S
O544 Sm520 2.396 . S
O544 C530 1.252 . S
O545 Sm521 2.408 . S
O545 C530 1.272 . S
O546 Sm521 2.543 . S
O546 C531 1.261 . S
O547 Sm521 2.450 . S
O547 C531 1.242 . S
O548 Sm520 2.386 . S
O548 Sm521 2.681 . S
O548 C538 1.271 . S
O549 Sm521 2.464 . S
O549 C538 1.251 . S
O550 Sm521 2.396 . S
O550 C539 1.252 . S
O551 Sm520 2.408 . S
O551 C539 1.272 . S
H552 C524 0.930 . S
H553 C525 0.929 . S
H554 C527 0.930 . S
H555 C528 0.929 . S
H556 C533 0.930 . S
H557 C534 0.929 . S
H558 C536 0.930 . S
H559 C537 0.929 . S
Sm560 C562 2.846 . S
Sm560 O580 2.543 . S
Sm560 O581 2.450 . S
Sm560 O582 2.681 . S
Sm560 O583 2.464 . S
Sm560 O584 2.396 . S
Sm560 O588 2.386 . S
Sm560 O591 2.408 . S
Sm561 C571 2.846 . S
Sm561 O582 2.386 . S
Sm561 O585 2.408 . S
Sm561 O586 2.543 . S
Sm561 O587 2.450 . S
Sm561 O588 2.681 . S
Sm561 O589 2.464 . S
Sm561 O590 2.396 . S
C562 Sm560 2.846 . S
C562 C563 1.506 . S
C562 O580 1.261 . S
C562 O581 1.242 . S
C563 C562 1.506 . S
C563 C564 1.358 . S
C563 C568 1.382 . S
C564 C563 1.358 . S
C564 C565 1.385 1_545 S
C564 H592 0.930 . S
C565 C564 1.385 1_565 S
C565 C566 1.395 . S
C565 H593 0.929 . S
C566 C565 1.395 . S
C566 C567 1.335 . S
C567 C566 1.335 . S
C567 C568 1.398 1_565 S
C567 H594 0.930 . S
C568 C563 1.382 . S
C568 C567 1.398 1_545 S
C568 H595 0.929 . S
C569 O582 1.271 . S
C569 O583 1.251 . S
C570 O584 1.252 . S
C570 O585 1.272 . S
C571 Sm561 2.846 . S
C571 C572 1.506 . S
C571 O586 1.261 . S
C571 O587 1.242 . S
C572 C571 1.506 . S
C572 C573 1.358 . S
C572 C577 1.382 . S
C573 C572 1.358 . S
C573 C574 1.385 . S
C573 H596 0.930 . S
C574 C573 1.385 . S
C574 C575 1.395 . S
C574 H597 0.929 . S
C575 C574 1.395 . S
C575 C576 1.335 . S
C576 C575 1.335 . S
C576 C577 1.398 . S
C576 H598 0.930 . S
C577 C572 1.382 . S
C577 C576 1.398 . S
C577 H599 0.929 . S
C578 O588 1.271 . S
C578 O589 1.251 . S
C579 O590 1.252 . S
C579 O591 1.272 . S
O580 Sm560 2.543 . S
O580 C562 1.261 . S
O581 Sm560 2.450 . S
O581 C562 1.242 . S
O582 Sm560 2.681 . S
O582 Sm561 2.386 . S
O582 C569 1.271 . S
O583 Sm560 2.464 . S
O583 C569 1.251 . S
O584 Sm560 2.396 . S
O584 C570 1.252 . S
O585 Sm561 2.408 . S
O585 C570 1.272 . S
O586 Sm561 2.543 . S
O586 C571 1.261 . S
O587 Sm561 2.450 . S
O587 C571 1.242 . S
O588 Sm560 2.386 . S
O588 Sm561 2.681 . S
O588 C578 1.271 . S
O589 Sm561 2.464 . S
O589 C578 1.251 . S
O590 Sm561 2.396 . S
O590 C579 1.252 . S
O591 Sm560 2.408 . S
O591 C579 1.272 . S
H592 C564 0.930 . S
H593 C565 0.929 . S
H594 C567 0.930 . S
H595 C568 0.929 . S
H596 C573 0.930 . S
H597 C574 0.929 . S
H598 C576 0.930 . S
H599 C577 0.929 . S
Sm600 C602 2.846 . S
Sm600 O620 2.543 . S
Sm600 O621 2.450 . S
Sm600 O622 2.681 . S
Sm600 O623 2.464 . S
Sm600 O624 2.396 . S
Sm600 O628 2.386 . S
Sm600 O631 2.408 . S
Sm601 C611 2.846 . S
Sm601 O622 2.386 . S
Sm601 O625 2.408 . S
Sm601 O626 2.543 . S
Sm601 O627 2.450 . S
Sm601 O628 2.681 . S
Sm601 O629 2.464 . S
Sm601 O630 2.396 . S
C602 Sm600 2.846 . S
C602 C603 1.506 . S
C602 O620 1.261 . S
C602 O621 1.242 . S
C603 C602 1.506 . S
C603 C604 1.358 . S
C603 C608 1.382 . S
C604 C603 1.358 . S
C604 C605 1.385 . S
C604 H632 0.930 . S
C605 C604 1.385 . S
C605 C606 1.395 . S
C605 H633 0.929 . S
C606 C605 1.395 . S
C606 C607 1.335 . S
C607 C606 1.335 . S
C607 C608 1.398 . S
C607 H634 0.930 . S
C608 C603 1.382 . S
C608 C607 1.398 . S
C608 H635 0.929 . S
C609 O622 1.271 . S
C609 O623 1.251 . S
C610 O624 1.252 . S
C610 O625 1.272 . S
C611 Sm601 2.846 . S
C611 C612 1.506 1_545 S
C611 O626 1.261 . S
C611 O627 1.242 . S
C612 C611 1.506 1_565 S
C612 C613 1.358 . S
C612 C617 1.382 . S
C613 C612 1.358 . S
C613 C614 1.385 . S
C613 H636 0.930 . S
C614 C613 1.385 . S
C614 C615 1.395 . S
C614 H637 0.929 . S
C615 C614 1.395 . S
C615 C616 1.335 . S
C616 C615 1.335 . S
C616 C617 1.398 . S
C616 H638 0.930 . S
C617 C612 1.382 . S
C617 C616 1.398 . S
C617 H639 0.929 . S
C618 O628 1.271 . S
C618 O629 1.251 . S
C619 O630 1.252 . S
C619 O631 1.272 . S
O620 Sm600 2.543 . S
O620 C602 1.261 . S
O621 Sm600 2.450 . S
O621 C602 1.242 . S
O622 Sm600 2.681 . S
O622 Sm601 2.386 . S
O622 C609 1.271 . S
O623 Sm600 2.464 . S
O623 C609 1.251 . S
O624 Sm600 2.396 . S
O624 C610 1.252 . S
O625 Sm601 2.408 . S
O625 C610 1.272 . S
O626 Sm601 2.543 . S
O626 C611 1.261 . S
O627 Sm601 2.450 . S
O627 C611 1.242 . S
O628 Sm600 2.386 . S
O628 Sm601 2.681 . S
O628 C618 1.271 . S
O629 Sm601 2.464 . S
O629 C618 1.251 . S
O630 Sm601 2.396 . S
O630 C619 1.252 . S
O631 Sm600 2.408 . S
O631 C619 1.272 . S
H632 C604 0.930 . S
H633 C605 0.929 . S
H634 C607 0.930 . S
H635 C608 0.929 . S
H636 C613 0.930 . S
H637 C614 0.929 . S
H638 C616 0.930 . S
H639 C617 0.929 . S
Sm640 C642 2.846 . S
Sm640 O660 2.543 . S
Sm640 O661 2.450 . S
Sm640 O662 2.681 . S
Sm640 O663 2.464 . S
Sm640 O664 2.396 . S
Sm640 O668 2.386 . S
Sm640 O671 2.408 . S
Sm641 C651 2.846 1_655 S
Sm641 O662 2.386 . S
Sm641 O665 2.408 . S
Sm641 O666 2.516 1_655 S
Sm641 O667 2.450 1_655 S
Sm641 O668 2.681 . S
Sm641 O669 2.464 . S
Sm641 O670 2.396 . S
C642 Sm640 2.846 . S
C642 C643 1.506 . S
C642 O660 1.261 . S
C642 O661 1.242 . S
C643 C642 1.506 . S
C643 C644 1.358 . S
C643 C648 1.382 . S
C644 C643 1.358 . S
C644 C645 1.385 . S
C644 H672 0.930 . S
C645 C644 1.385 . S
C645 C646 1.395 . S
C645 H673 0.929 . S
C646 C645 1.395 . S
C646 C647 1.335 . S
C647 C646 1.335 . S
C647 C648 1.398 . S
C647 H674 0.930 . S
C648 C643 1.382 . S
C648 C647 1.398 . S
C648 H675 0.929 . S
C649 O662 1.271 . S
C649 O663 1.251 . S
C650 O664 1.252 . S
C650 O665 1.272 . S
C651 Sm641 2.846 1_455 S
C651 C652 1.506 . S
C651 O666 1.275 . S
C651 O667 1.242 . S
C652 C651 1.506 . S
C652 C653 1.358 . S
C652 C657 1.382 . S
C653 C652 1.358 . S
C653 C654 1.385 . S
C653 H676 0.930 . S
C654 C653 1.385 . S
C654 C655 1.395 . S
C654 H677 0.929 . S
C655 C654 1.395 . S
C655 C656 1.335 . S
C656 C655 1.335 . S
C656 C657 1.398 . S
C656 H678 0.930 . S
C657 C652 1.382 . S
C657 C656 1.398 . S
C657 H679 0.929 . S
C658 O668 1.271 . S
C658 O669 1.251 . S
C659 O670 1.252 . S
C659 O671 1.272 . S
O660 Sm640 2.543 . S
O660 C642 1.261 . S
O661 Sm640 2.450 . S
O661 C642 1.242 . S
O662 Sm640 2.681 . S
O662 Sm641 2.386 . S
O662 C649 1.271 . S
O663 Sm640 2.464 . S
O663 C649 1.251 . S
O664 Sm640 2.396 . S
O664 C650 1.252 . S
O665 Sm641 2.408 . S
O665 C650 1.272 . S
O666 Sm641 2.516 1_455 S
O666 C651 1.275 . S
O667 Sm641 2.450 1_455 S
O667 C651 1.242 . S
O668 Sm640 2.386 . S
O668 Sm641 2.681 . S
O668 C658 1.271 . S
O669 Sm641 2.464 . S
O669 C658 1.251 . S
O670 Sm641 2.396 . S
O670 C659 1.252 . S
O671 Sm640 2.408 . S
O671 C659 1.272 . S
H672 C644 0.930 . S
H673 C645 0.929 . S
H674 C647 0.930 . S
H675 C648 0.929 . S
H676 C653 0.930 . S
H677 C654 0.929 . S
H678 C656 0.930 . S
H679 C657 0.929 . S
Sm680 C682 2.846 . S
Sm680 O700 2.543 . S
Sm680 O701 2.450 . S
Sm680 O702 2.681 . S
Sm680 O703 2.464 . S
Sm680 O704 2.396 . S
Sm680 O708 2.386 . S
Sm680 O711 2.408 . S
Sm681 C691 2.846 . S
Sm681 O702 2.386 . S
Sm681 O705 2.408 . S
Sm681 O706 2.543 . S
Sm681 O707 2.450 . S
Sm681 O708 2.681 . S
Sm681 O709 2.464 . S
Sm681 O710 2.396 . S
C682 Sm680 2.846 . S
C682 C683 1.506 . S
C682 O700 1.261 . S
C682 O701 1.242 . S
C683 C682 1.506 . S
C683 C684 1.358 . S
C683 C688 1.382 . S
C684 C683 1.358 . S
C684 C685 1.385 . S
C684 H712 0.930 . S
C685 C684 1.385 . S
C685 C686 1.395 . S
C685 H713 0.929 . S
C686 C685 1.395 . S
C686 C687 1.335 . S
C687 C686 1.335 . S
C687 C688 1.398 . S
C687 H714 0.930 . S
C688 C683 1.382 . S
C688 C687 1.398 . S
C688 H715 0.929 . S
C689 O702 1.271 . S
C689 O703 1.251 . S
C690 O704 1.252 . S
C690 O705 1.272 . S
C691 Sm681 2.846 . S
C691 C692 1.506 . S
C691 O706 1.261 . S
C691 O707 1.242 . S
C692 C691 1.506 . S
C692 C693 1.358 . S
C692 C697 1.382 . S
C693 C692 1.358 . S
C693 C694 1.385 . S
C693 H716 0.930 . S
C694 C693 1.385 . S
C694 C695 1.395 . S
C694 H717 0.929 . S
C695 C694 1.395 . S
C695 C696 1.335 . S
C696 C695 1.335 . S
C696 C697 1.398 . S
C696 H718 0.930 . S
C697 C692 1.382 . S
C697 C696 1.398 . S
C697 H719 0.929 . S
C698 O708 1.271 . S
C698 O709 1.251 . S
C699 O710 1.252 . S
C699 O711 1.272 . S
O700 Sm680 2.543 . S
O700 C682 1.261 . S
O701 Sm680 2.450 . S
O701 C682 1.242 . S
O702 Sm680 2.681 . S
O702 Sm681 2.386 . S
O702 C689 1.271 . S
O703 Sm680 2.464 . S
O703 C689 1.251 . S
O704 Sm680 2.396 . S
O704 C690 1.252 . S
O705 Sm681 2.408 . S
O705 C690 1.272 . S
O706 Sm681 2.543 . S
O706 C691 1.261 . S
O707 Sm681 2.450 . S
O707 C691 1.242 . S
O708 Sm680 2.386 . S
O708 Sm681 2.681 . S
O708 C698 1.271 . S
O709 Sm681 2.464 . S
O709 C698 1.251 . S
O710 Sm681 2.396 . S
O710 C699 1.252 . S
O711 Sm680 2.408 . S
O711 C699 1.272 . S
H712 C684 0.930 . S
H713 C685 0.929 . S
H714 C687 0.930 . S
H715 C688 0.929 . S
H716 C693 0.930 . S
H717 C694 0.929 . S
H718 C696 0.930 . S
H719 C697 0.929 . S
C720 C721 1.369 . S
C720 C722 1.419 . S
C720 H724 0.930 . S
C721 C720 1.369 . S
C721 C730 1.429 . S
C722 C720 1.419 . S
C722 C723 1.363 . S
C722 H725 0.929 . S
C723 C722 1.363 . S
C723 C729 1.428 . S
H724 C720 0.930 . S
H725 C722 0.929 . S
S726 N727 1.613 . S
S726 N728 1.610 . S
N727 S726 1.613 . S
N727 C730 1.350 . S
N728 S726 1.610 . S
N728 C729 1.351 . S
C729 C723 1.428 . S
C729 N728 1.351 . S
C729 C730 1.434 . S
C730 C721 1.429 . S
C730 N727 1.350 . S
C730 C729 1.434 . S
C731 C732 1.369 . S
C731 C733 1.419 . S
C731 H735 0.930 . S
C732 C731 1.369 . S
C732 C741 1.429 . S
C733 C731 1.419 . S
C733 C734 1.363 . S
C733 H736 0.929 . S
C734 C733 1.363 . S
C734 C740 1.428 . S
H735 C731 0.930 . S
H736 C733 0.929 . S
S737 N738 1.613 . S
S737 N739 1.610 . S
N738 S737 1.613 . S
N738 C741 1.350 . S
N739 S737 1.610 . S
N739 C740 1.351 . S
C740 C734 1.428 . S
C740 N739 1.351 . S
C740 C741 1.434 . S
C741 C732 1.429 . S
C741 N738 1.350 . S
C741 C740 1.434 . S
C742 C743 1.369 . S
C742 C744 1.419 . S
C742 H746 0.930 . S
C743 C742 1.369 . S
C743 C752 1.429 . S
C744 C742 1.419 . S
C744 C745 1.363 . S
C744 H747 0.929 . S
C745 C744 1.363 . S
C745 C751 1.428 . S
H746 C742 0.930 . S
H747 C744 0.929 . S
S748 N749 1.613 . S
S748 N750 1.610 . S
N749 S748 1.613 . S
N749 C752 1.350 . S
N750 S748 1.610 . S
N750 C751 1.351 . S
C751 C745 1.428 . S
C751 N750 1.351 . S
C751 C752 1.434 . S
C752 C743 1.429 . S
C752 N749 1.350 . S
C752 C751 1.434 . S
C753 C754 1.369 . S
C753 C755 1.419 . S
C753 H757 0.930 . S
C754 C753 1.369 . S
C754 C763 1.429 . S
C755 C753 1.419 . S
C755 C756 1.363 . S
C755 H758 0.929 . S
C756 C755 1.363 . S
C756 C762 1.428 . S
H757 C753 0.930 . S
H758 C755 0.929 . S
S759 N760 1.613 . S
S759 N761 1.610 . S
N760 S759 1.613 . S
N760 C763 1.350 . S
N761 S759 1.610 . S
N761 C762 1.351 . S
C762 C756 1.428 . S
C762 N761 1.351 . S
C762 C763 1.434 . S
C763 C754 1.429 . S
C763 N760 1.350 . S
C763 C762 1.434 . S
C764 C765 1.369 . S
C764 C766 1.419 . S
C764 H768 0.930 . S
C765 C764 1.369 . S
C765 C774 1.429 . S
C766 C764 1.419 . S
C766 C767 1.363 . S
C766 H769 0.929 . S
C767 C766 1.363 . S
C767 C773 1.428 . S
H768 C764 0.930 . S
H769 C766 0.929 . S
S770 N771 1.613 . S
S770 N772 1.610 . S
N771 S770 1.613 . S
N771 C774 1.350 . S
N772 S770 1.610 . S
N772 C773 1.351 . S
C773 C767 1.428 . S
C773 N772 1.351 . S
C773 C774 1.434 . S
C774 C765 1.429 . S
C774 N771 1.350 . S
C774 C773 1.434 . S
C775 C776 1.369 . S
C775 C777 1.419 . S
C775 H779 0.930 . S
C776 C775 1.369 . S
C776 C785 1.429 . S
C777 C775 1.419 . S
C777 C778 1.363 . S
C777 H780 0.929 . S
C778 C777 1.363 . S
C778 C784 1.428 . S
H779 C775 0.930 . S
H780 C777 0.929 . S
S781 N782 1.613 . S
S781 N783 1.610 . S
N782 S781 1.613 . S
N782 C785 1.350 . S
N783 S781 1.610 . S
N783 C784 1.351 . S
C784 C778 1.428 . S
C784 N783 1.351 . S
C784 C785 1.434 . S
C785 C776 1.429 . S
C785 N782 1.350 . S
C785 C784 1.434 . S
C786 C787 1.369 . S
C786 C788 1.419 . S
C786 H790 0.930 . S
C787 C786 1.369 . S
C787 C796 1.429 . S
C788 C786 1.419 . S
C788 C789 1.363 . S
C788 H791 0.929 . S
C789 C788 1.363 . S
C789 C795 1.428 . S
H790 C786 0.930 . S
H791 C788 0.929 . S
S792 N793 1.613 . S
S792 N794 1.610 . S
N793 S792 1.613 . S
N793 C796 1.350 . S
N794 S792 1.610 . S
N794 C795 1.351 . S
C795 C789 1.428 . S
C795 N794 1.351 . S
C795 C796 1.434 . S
C796 C787 1.429 . S
C796 N793 1.350 . S
C796 C795 1.434 . S
C797 C798 1.369 . S
C797 C799 1.419 1_545 S
C797 H801 0.930 . S
C798 C797 1.369 . S
C798 C807 1.429 1_545 S
C799 C797 1.419 1_565 S
C799 C800 1.363 . S
C799 H802 0.929 . S
C800 C799 1.363 . S
C800 C806 1.428 . S
H801 C797 0.930 . S
H802 C799 0.929 . S
S803 N804 1.613 1_565 S
S803 N805 1.610 . S
N804 S803 1.613 1_545 S
N804 C807 1.350 1_545 S
N805 S803 1.610 . S
N805 C806 1.351 . S
C806 C800 1.428 . S
C806 N805 1.351 . S
C806 C807 1.433 . S
C807 C798 1.429 1_565 S
C807 N804 1.350 1_565 S
C807 C806 1.433 . S
C808 C809 1.369 . S
C808 C810 1.419 . S
C808 H812 0.930 . S
C809 C808 1.369 . S
C809 C818 1.429 . S
C810 C808 1.419 . S
C810 C811 1.363 1_455 S
C810 H813 0.929 . S
C811 C810 1.363 1_655 S
C811 C817 1.428 1_655 S
H812 C808 0.930 . S
H813 C810 0.929 . S
S814 N815 1.613 1_655 S
S814 N816 1.610 . S
N815 S814 1.613 1_455 S
N815 C818 1.350 . S
N816 S814 1.610 . S
N816 C817 1.351 1_655 S
C817 C811 1.428 1_455 S
C817 N816 1.351 1_455 S
C817 C818 1.434 . S
C818 C809 1.429 . S
C818 N815 1.350 . S
C818 C817 1.434 . S
C819 C820 1.369 . S
C819 C821 1.419 . S
C819 H823 0.930 . S
C820 C819 1.369 . S
C820 C829 1.429 . S
C821 C819 1.419 . S
C821 C822 1.363 . S
C821 H824 0.929 . S
C822 C821 1.363 . S
C822 C828 1.428 . S
H823 C819 0.930 . S
H824 C821 0.929 . S
S825 N826 1.613 . S
S825 N827 1.610 . S
N826 S825 1.613 . S
N826 C829 1.350 . S
N827 S825 1.610 . S
N827 C828 1.351 . S
C828 C822 1.428 . S
C828 N827 1.351 . S
C828 C829 1.434 . S
C829 C820 1.429 . S
C829 N826 1.350 . S
C829 C828 1.434 . S
C830 C831 1.369 . S
C830 C832 1.419 . S
C830 H834 0.930 . S
C831 C830 1.369 . S
C831 C840 1.429 . S
C832 C830 1.419 . S
C832 C833 1.363 . S
C832 H835 0.929 . S
C833 C832 1.363 . S
C833 C839 1.428 . S
H834 C830 0.930 . S
H835 C832 0.929 . S
S836 N837 1.613 . S
S836 N838 1.610 . S
N837 S836 1.613 . S
N837 C840 1.350 . S
N838 S836 1.610 . S
N838 C839 1.351 . S
C839 C833 1.428 . S
C839 N838 1.351 . S
C839 C840 1.434 . S
C840 C831 1.429 . S
C840 N837 1.350 . S
C840 C839 1.434 . S
C841 C842 1.369 . S
C841 C843 1.419 . S
C841 H845 0.930 . S
C842 C841 1.369 . S
C842 C851 1.429 . S
C843 C841 1.419 . S
C843 C844 1.363 . S
C843 H846 0.929 . S
C844 C843 1.363 . S
C844 C850 1.428 . S
H845 C841 0.930 . S
H846 C843 0.929 . S
S847 N848 1.613 . S
S847 N849 1.610 . S
N848 S847 1.613 . S
N848 C851 1.350 . S
N849 S847 1.610 . S
N849 C850 1.351 . S
C850 C844 1.428 . S
C850 N849 1.351 . S
C850 C851 1.434 . S
C851 C842 1.429 . S
C851 N848 1.350 . S
C851 C850 1.434 . S
C852 C853 1.369 . S
C852 C854 1.419 . S
C852 H856 0.930 . S
C853 C852 1.369 . S
C853 C862 1.429 . S
C854 C852 1.419 . S
C854 C855 1.363 . S
C854 H857 0.929 . S
C855 C854 1.363 . S
C855 C861 1.428 . S
H856 C852 0.930 . S
H857 C854 0.929 . S
S858 N859 1.613 . S
S858 N860 1.610 . S
N859 S858 1.613 . S
N859 C862 1.350 . S
N860 S858 1.610 . S
N860 C861 1.351 . S
C861 C855 1.428 . S
C861 N860 1.351 . S
C861 C862 1.434 . S
C862 C853 1.429 . S
C862 N859 1.350 . S
C862 C861 1.434 . S
C863 C864 1.369 . S
C863 C865 1.419 . S
C863 H867 0.930 . S
C864 C863 1.369 . S
C864 C873 1.429 . S
C865 C863 1.419 . S
C865 C866 1.363 . S
C865 H868 0.929 . S
C866 C865 1.363 . S
C866 C872 1.428 . S
H867 C863 0.930 . S
H868 C865 0.929 . S
S869 N870 1.613 . S
S869 N871 1.610 . S
N870 S869 1.613 . S
N870 C873 1.350 . S
N871 S869 1.610 . S
N871 C872 1.351 . S
C872 C866 1.428 . S
C872 N871 1.351 . S
C872 C873 1.434 . S
C873 C864 1.429 . S
C873 N870 1.350 . S
C873 C872 1.434 . S
C874 C875 1.369 . S
C874 C876 1.419 . S
C874 H878 0.930 . S
C875 C874 1.369 . S
C875 C884 1.429 . S
C876 C874 1.419 . S
C876 C877 1.363 . S
C876 H879 0.929 . S
C877 C876 1.363 . S
C877 C883 1.428 . S
H878 C874 0.930 . S
H879 C876 0.929 . S
S880 N881 1.613 . S
S880 N882 1.610 . S
N881 S880 1.613 . S
N881 C884 1.350 . S
N882 S880 1.610 . S
N882 C883 1.351 . S
C883 C877 1.428 . S
C883 N882 1.351 . S
C883 C884 1.434 . S
C884 C875 1.429 . S
C884 N881 1.350 . S
C884 C883 1.434 . S
C885 C886 1.369 . S
C885 C887 1.419 . S
C885 H889 0.930 . S
C886 C885 1.369 . S
C886 C895 1.429 . S
C887 C885 1.419 . S
C887 C888 1.363 . S
C887 H890 0.929 . S
C888 C887 1.363 . S
C888 C894 1.428 . S
H889 C885 0.930 . S
H890 C887 0.929 . S
S891 N892 1.613 . S
S891 N893 1.610 . S
N892 S891 1.613 . S
N892 C895 1.350 . S
N893 S891 1.610 . S
N893 C894 1.351 . S
C894 C888 1.428 . S
C894 N893 1.351 . S
C894 C895 1.434 . S
C895 C886 1.429 . S
C895 N892 1.350 . S
C895 C894 1.434 . S
C896 C897 1.369 1_545 S
C896 C898 1.419 . S
C896 H900 0.930 1_545 S
C897 C896 1.369 1_565 S
C897 C906 1.429 1_565 S
C898 C896 1.419 . S
C898 C899 1.363 . S
C898 H901 0.929 . S
C899 C898 1.363 . S
C899 C905 1.428 . S
H900 C896 0.930 1_565 S
H901 C898 0.929 . S
S902 N903 1.613 . S
S902 N904 1.610 . S
N903 S902 1.613 . S
N903 C906 1.350 . S
N904 S902 1.610 . S
N904 C905 1.351 . S
C905 C899 1.428 . S
C905 N904 1.351 . S
C905 C906 1.434 . S
C906 C897 1.429 1_545 S
C906 N903 1.350 . S
C906 C905 1.434 . S
C907 C908 1.369 . S
C907 C909 1.419 1_455 S
C907 H911 0.930 . S
C908 C907 1.369 . S
C908 C917 1.454 . S
C909 C907 1.419 1_655 S
C909 C910 1.363 . S
C909 H912 0.929 . S
C910 C909 1.363 . S
C910 C916 1.428 . S
H911 C907 0.930 . S
H912 C909 0.929 . S
S913 N914 1.613 1_655 S
S913 N915 1.610 . S
N914 S913 1.613 1_455 S
N914 C917 1.340 . S
N915 S913 1.610 . S
N915 C916 1.351 . S
C916 C910 1.428 . S
C916 N915 1.351 . S
C916 C917 1.416 1_655 S
C917 C908 1.454 . S
C917 N914 1.340 . S
C917 C916 1.416 1_455 S
C918 C919 1.369 . S
C918 C920 1.419 1_554 S
C918 H922 0.930 . S
C919 C918 1.369 . S
C919 C928 1.429 1_545 S
C920 C918 1.419 1_556 S
C920 C921 1.363 . S
C920 H923 0.929 . S
C921 C920 1.363 . S
C921 C927 1.428 1_545 S
H922 C918 0.930 . S
H923 C920 0.929 . S
S924 N925 1.613 . S
S924 N926 1.610 1_554 S
N925 S924 1.613 . S
N925 C928 1.350 . S
N926 S924 1.610 1_556 S
N926 C927 1.351 . S
C927 C921 1.428 1_565 S
C927 N926 1.351 . S
C927 C928 1.434 1_556 S
C928 C919 1.429 1_565 S
C928 N925 1.350 . S
C928 C927 1.434 1_554 S
C929 C930 1.369 1_655 S
C929 C931 1.419 1_556 S
C929 H933 0.930 . S
C930 C929 1.369 1_455 S
C930 C939 1.429 . S
C931 C929 1.419 1_554 S
C931 C932 1.363 1_655 S
C931 H934 0.929 . S
C932 C931 1.363 1_455 S
C932 C938 1.428 . S
H933 C929 0.930 . S
H934 C931 0.929 . S
S935 N936 1.613 1_554 S
S935 N937 1.610 . S
N936 S935 1.613 1_556 S
N936 C939 1.350 . S
N937 S935 1.610 . S
N937 C938 1.351 . S
C938 C932 1.428 . S
C938 N937 1.351 . S
C938 C939 1.434 1_554 S
C939 C930 1.429 . S
C939 N936 1.350 . S
C939 C938 1.434 1_556 S
C940 C941 1.369 . S
C940 C942 1.419 1_556 S
C940 H944 0.930 . S
C941 C940 1.369 . S
C941 C950 1.429 . S
C942 C940 1.419 1_554 S
C942 C943 1.363 . S
C942 H945 0.929 . S
C943 C942 1.363 . S
C943 C949 1.428 . S
H944 C940 0.930 . S
H945 C942 0.929 . S
S946 N947 1.615 1_554 S
S946 N948 1.608 . S
N947 S946 1.615 1_556 S
N947 C950 1.350 . S
N948 S946 1.608 . S
N948 C949 1.351 . S
C949 C943 1.428 . S
C949 N948 1.351 . S
C949 C950 1.434 1_554 S
C950 C941 1.429 . S
C950 N947 1.350 . S
C950 C949 1.434 1_556 S
C951 C952 1.369 . S
C951 C953 1.419 . S
C951 H955 0.930 . S
C952 C951 1.369 . S
C952 C961 1.429 . S
C953 C951 1.419 . S
C953 C954 1.363 . S
C953 H956 0.929 . S
C954 C953 1.363 . S
C954 C960 1.428 . S
H955 C951 0.930 . S
H956 C953 0.929 . S
S957 N958 1.613 . S
S957 N959 1.610 . S
N958 S957 1.613 . S
N958 C961 1.350 . S
N959 S957 1.610 . S
N959 C960 1.351 . S
C960 C954 1.428 . S
C960 N959 1.351 . S
C960 C961 1.434 . S
C961 C952 1.429 . S
C961 N958 1.350 . S
C961 C960 1.434 . S
C962 C963 1.369 . S
C962 C964 1.419 . S
C962 H966 0.930 . S
C963 C962 1.369 . S
C963 C972 1.429 . S
C964 C962 1.419 . S
C964 C965 1.363 . S
C964 H967 0.929 . S
C965 C964 1.363 . S
C965 C971 1.428 . S
H966 C962 0.930 . S
H967 C964 0.929 . S
S968 N969 1.613 . S
S968 N970 1.610 . S
N969 S968 1.613 . S
N969 C972 1.350 . S
N970 S968 1.610 . S
N970 C971 1.351 . S
C971 C965 1.428 . S
C971 N970 1.351 . S
C971 C972 1.434 . S
C972 C963 1.429 . S
C972 N969 1.350 . S
C972 C971 1.434 . S
C973 C974 1.369 . S
C973 C975 1.419 . S
C973 H977 0.930 . S
C974 C973 1.369 . S
C974 C983 1.429 . S
C975 C973 1.419 . S
C975 C976 1.363 . S
C975 H978 0.929 . S
C976 C975 1.363 . S
C976 C982 1.428 . S
H977 C973 0.930 . S
H978 C975 0.929 . S
S979 N980 1.613 . S
S979 N981 1.610 . S
N980 S979 1.613 . S
N980 C983 1.350 . S
N981 S979 1.610 . S
N981 C982 1.351 . S
C982 C976 1.428 . S
C982 N981 1.351 . S
C982 C983 1.434 . S
C983 C974 1.429 . S
C983 N980 1.350 . S
C983 C982 1.434 . S
C984 C985 1.369 . S
C984 C986 1.419 . S
C984 H988 0.930 . S
C985 C984 1.369 . S
C985 C994 1.429 . S
C986 C984 1.419 . S
C986 C987 1.363 . S
C986 H989 0.929 . S
C987 C986 1.363 . S
C987 C993 1.428 . S
H988 C984 0.930 . S
H989 C986 0.929 . S
S990 N991 1.613 . S
S990 N992 1.610 . S
N991 S990 1.613 . S
N991 C994 1.350 . S
N992 S990 1.610 . S
N992 C993 1.351 . S
C993 C987 1.428 . S
C993 N992 1.351 . S
C993 C994 1.434 . S
C994 C985 1.429 . S
C994 N991 1.350 . S
C994 C993 1.434 . S
C995 C996 1.369 . S
C995 C997 1.419 . S
C995 H999 0.930 . S
C996 C995 1.369 . S
C996 C1005 1.429 . S
C997 C995 1.419 . S
C997 C998 1.363 . S
C997 H1000 0.929 . S
C998 C997 1.363 . S
C998 C1004 1.428 . S
H999 C995 0.930 . S
H1000 C997 0.929 . S
S1001 N1002 1.613 . S
S1001 N1003 1.610 . S
N1002 S1001 1.613 . S
N1002 C1005 1.350 . S
N1003 S1001 1.610 . S
N1003 C1004 1.351 . S
C1004 C998 1.428 . S
C1004 N1003 1.351 . S
C1004 C1005 1.434 . S
C1005 C996 1.429 . S
C1005 N1002 1.350 . S
C1005 C1004 1.434 . S
C1006 C1007 1.369 . S
C1006 C1008 1.419 . S
C1006 H1010 0.930 . S
C1007 C1006 1.369 . S
C1007 C1016 1.429 . S
C1008 C1006 1.419 . S
C1008 C1009 1.363 . S
C1008 H1011 0.929 . S
C1009 C1008 1.363 . S
C1009 C1015 1.428 . S
H1010 C1006 0.930 . S
H1011 C1008 0.929 . S
S1012 N1013 1.613 . S
S1012 N1014 1.610 . S
N1013 S1012 1.613 . S
N1013 C1016 1.350 . S
N1014 S1012 1.610 . S
N1014 C1015 1.351 . S
C1015 C1009 1.428 . S
C1015 N1014 1.351 . S
C1015 C1016 1.434 . S
C1016 C1007 1.429 . S
C1016 N1013 1.350 . S
C1016 C1015 1.434 . S
C1017 C1018 1.369 . S
C1017 C1019 1.419 . S
C1017 H1021 0.930 . S
C1018 C1017 1.369 . S
C1018 C1027 1.429 . S
C1019 C1017 1.419 . S
C1019 C1020 1.363 . S
C1019 H1022 0.929 . S
C1020 C1019 1.363 . S
C1020 C1026 1.428 . S
H1021 C1017 0.930 . S
H1022 C1019 0.929 . S
S1023 N1024 1.613 1_545 S
S1023 N1025 1.610 . S
N1024 S1023 1.613 1_565 S
N1024 C1027 1.350 . S
N1025 S1023 1.610 . S
N1025 C1026 1.351 1_545 S
C1026 C1020 1.428 . S
C1026 N1025 1.351 1_565 S
C1026 C1027 1.434 . S
C1027 C1018 1.429 . S
C1027 N1024 1.350 . S
C1027 C1026 1.434 . S
C1028 C1029 1.369 . S
C1028 C1030 1.419 . S
C1028 H1032 0.930 . S
C1029 C1028 1.369 . S
C1029 C1038 1.429 . S
C1030 C1028 1.419 . S
C1030 C1031 1.363 . S
C1030 H1033 0.929 . S
C1031 C1030 1.363 . S
C1031 C1037 1.428 . S
H1032 C1028 0.930 . S
H1033 C1030 0.929 . S
S1034 N1035 1.608 . S
S1034 N1036 1.610 1_655 S
N1035 S1034 1.608 . S
N1035 C1038 1.332 1_655 S
N1036 S1034 1.610 1_455 S
N1036 C1037 1.351 . S
C1037 C1031 1.428 . S
C1037 N1036 1.351 . S
C1037 C1038 1.434 . S
C1038 C1029 1.429 . S
C1038 N1035 1.332 1_455 S
C1038 C1037 1.434 . S
C1039 C1040 1.369 . S
C1039 C1041 1.419 . S
C1039 H1043 0.930 . S
C1040 C1039 1.369 . S
C1040 C1049 1.429 . S
C1041 C1039 1.419 . S
C1041 C1042 1.363 . S
C1041 H1044 0.929 . S
C1042 C1041 1.363 . S
C1042 C1048 1.428 . S
H1043 C1039 0.930 . S
H1044 C1041 0.929 . S
S1045 N1046 1.613 . S
S1045 N1047 1.610 . S
N1046 S1045 1.613 . S
N1046 C1049 1.350 . S
N1047 S1045 1.610 . S
N1047 C1048 1.351 . S
C1048 C1042 1.428 . S
C1048 N1047 1.351 . S
C1048 C1049 1.434 . S
C1049 C1040 1.429 . S
C1049 N1046 1.350 . S
C1049 C1048 1.434 . S
C1050 C1051 1.369 . S
C1050 C1052 1.419 . S
C1050 H1054 0.930 . S
C1051 C1050 1.369 . S
C1051 C1060 1.429 . S
C1052 C1050 1.419 . S
C1052 C1053 1.363 . S
C1052 H1055 0.929 . S
C1053 C1052 1.363 . S
C1053 C1059 1.428 . S
H1054 C1050 0.930 . S
H1055 C1052 0.929 . S
S1056 N1057 1.613 . S
S1056 N1058 1.610 . S
N1057 S1056 1.613 . S
N1057 C1060 1.350 . S
N1058 S1056 1.610 . S
N1058 C1059 1.351 . S
C1059 C1053 1.428 . S
C1059 N1058 1.351 . S
C1059 C1060 1.434 . S
C1060 C1051 1.429 . S
C1060 N1057 1.350 . S
C1060 C1059 1.434 . S
C1061 C1062 1.369 . S
C1061 C1063 1.419 . S
C1061 H1065 0.930 . S
C1062 C1061 1.369 . S
C1062 C1071 1.429 . S
C1063 C1061 1.419 . S
C1063 C1064 1.363 . S
C1063 H1066 0.929 . S
C1064 C1063 1.363 . S
C1064 C1070 1.428 . S
H1065 C1061 0.930 . S
H1066 C1063 0.929 . S
S1067 N1068 1.613 . S
S1067 N1069 1.610 . S
N1068 S1067 1.613 . S
N1068 C1071 1.350 . S
N1069 S1067 1.610 . S
N1069 C1070 1.351 . S
C1070 C1064 1.428 . S
C1070 N1069 1.351 . S
C1070 C1071 1.434 . S
C1071 C1062 1.429 . S
C1071 N1068 1.350 . S
C1071 C1070 1.434 . S
C1072 C1073 1.369 . S
C1072 C1074 1.419 . S
C1072 H1076 0.930 . S
C1073 C1072 1.369 . S
C1073 C1082 1.429 . S
C1074 C1072 1.419 . S
C1074 C1075 1.363 . S
C1074 H1077 0.929 . S
C1075 C1074 1.363 . S
C1075 C1081 1.428 . S
H1076 C1072 0.930 . S
H1077 C1074 0.929 . S
S1078 N1079 1.613 . S
S1078 N1080 1.610 . S
N1079 S1078 1.613 . S
N1079 C1082 1.350 . S
N1080 S1078 1.610 . S
N1080 C1081 1.351 . S
C1081 C1075 1.428 . S
C1081 N1080 1.351 . S
C1081 C1082 1.434 . S
C1082 C1073 1.429 . S
C1082 N1079 1.350 . S
C1082 C1081 1.434 . S
C1083 C1084 1.369 . S
C1083 C1085 1.419 1_655 S
C1083 H1087 0.930 . S
C1084 C1083 1.369 . S
C1084 C1093 1.429 1_655 S
C1085 C1083 1.419 1_455 S
C1085 C1086 1.363 . S
C1085 H1088 0.929 . S
C1086 C1085 1.363 . S
C1086 C1092 1.428 . S
H1087 C1083 0.930 . S
H1088 C1085 0.929 . S
S1089 N1090 1.613 1_455 S
S1089 N1091 1.610 . S
N1090 S1089 1.613 1_655 S
N1090 C1093 1.350 1_655 S
N1091 S1089 1.610 . S
N1091 C1092 1.351 . S
C1092 C1086 1.428 . S
C1092 N1091 1.351 . S
C1092 C1093 1.434 . S
C1093 C1084 1.429 1_455 S
C1093 N1090 1.350 1_455 S
C1093 C1092 1.434 . S
C1094 C1095 1.369 . S
C1094 C1096 1.419 . S
C1094 H1098 0.930 . S
C1095 C1094 1.369 . S
C1095 C1104 1.429 . S
C1096 C1094 1.419 . S
C1096 C1097 1.363 . S
C1096 H1099 0.929 . S
C1097 C1096 1.363 . S
C1097 C1103 1.428 . S
H1098 C1094 0.930 . S
H1099 C1096 0.929 . S
S1100 N1101 1.613 . S
S1100 N1102 1.610 . S
N1101 S1100 1.613 . S
N1101 C1104 1.350 . S
N1102 S1100 1.610 . S
N1102 C1103 1.351 . S
C1103 C1097 1.428 . S
C1103 N1102 1.351 . S
C1103 C1104 1.434 . S
C1104 C1095 1.429 . S
C1104 N1101 1.350 . S
C1104 C1103 1.434 . S
C1105 C1106 1.369 . S
C1105 C1107 1.419 1_565 S
C1105 H1109 0.930 . S
C1106 C1105 1.369 . S
C1106 C1115 1.429 1_565 S
C1107 C1105 1.419 1_545 S
C1107 C1108 1.363 . S
C1107 H1110 0.929 . S
C1108 C1107 1.363 . S
C1108 C1114 1.428 . S
H1109 C1105 0.930 . S
H1110 C1107 0.929 . S
S1111 N1112 1.613 . S
S1111 N1113 1.610 . S
N1112 S1111 1.613 . S
N1112 C1115 1.350 . S
N1113 S1111 1.610 . S
N1113 C1114 1.351 . S
C1114 C1108 1.428 . S
C1114 N1113 1.351 . S
C1114 C1115 1.434 . S
C1115 C1106 1.429 1_545 S
C1115 N1112 1.350 . S
C1115 C1114 1.434 . S
C1116 C1117 1.369 . S
C1116 C1118 1.419 . S
C1116 H1120 0.930 . S
C1117 C1116 1.369 . S
C1117 C1126 1.429 . S
C1118 C1116 1.419 . S
C1118 C1119 1.363 . S
C1118 H1121 0.929 . S
C1119 C1118 1.363 . S
C1119 C1125 1.428 . S
H1120 C1116 0.930 . S
H1121 C1118 0.929 . S
S1122 N1123 1.613 . S
S1122 N1124 1.610 . S
N1123 S1122 1.613 . S
N1123 C1126 1.350 . S
N1124 S1122 1.610 . S
N1124 C1125 1.351 . S
C1125 C1119 1.428 . S
C1125 N1124 1.351 . S
C1125 C1126 1.434 . S
C1126 C1117 1.429 . S
C1126 N1123 1.350 . S
C1126 C1125 1.434 . S
C1127 C1128 1.369 . S
C1127 C1129 1.419 . S
C1127 H1131 0.930 . S
C1128 C1127 1.369 . S
C1128 C1137 1.429 . S
C1129 C1127 1.419 . S
C1129 C1130 1.363 . S
C1129 H1132 0.929 . S
C1130 C1129 1.363 . S
C1130 C1136 1.428 . S
H1131 C1127 0.930 . S
H1132 C1129 0.929 . S
S1133 N1134 1.613 . S
S1133 N1135 1.610 . S
N1134 S1133 1.613 . S
N1134 C1137 1.350 . S
N1135 S1133 1.610 . S
N1135 C1136 1.351 . S
C1136 C1130 1.428 . S
C1136 N1135 1.351 . S
C1136 C1137 1.434 . S
C1137 C1128 1.429 . S
C1137 N1134 1.350 . S
C1137 C1136 1.434 . S
C1138 C1139 1.369 . S
C1138 C1140 1.419 . S
C1138 H1142 0.930 . S
C1139 C1138 1.369 . S
C1139 C1148 1.429 . S
C1140 C1138 1.419 . S
C1140 C1141 1.363 . S
C1140 H1143 0.929 . S
C1141 C1140 1.363 . S
C1141 C1147 1.428 . S
H1142 C1138 0.930 . S
H1143 C1140 0.929 . S
S1144 N1145 1.613 . S
S1144 N1146 1.610 . S
N1145 S1144 1.613 . S
N1145 C1148 1.350 . S
N1146 S1144 1.610 . S
N1146 C1147 1.351 . S
C1147 C1141 1.428 . S
C1147 N1146 1.351 . S
C1147 C1148 1.434 . S
C1148 C1139 1.429 . S
C1148 N1145 1.350 . S
C1148 C1147 1.434 . S
C1149 C1150 1.369 . S
C1149 C1151 1.419 . S
C1149 H1153 0.930 . S
C1150 C1149 1.369 . S
C1150 C1159 1.429 . S
C1151 C1149 1.419 . S
C1151 C1152 1.363 . S
C1151 H1154 0.929 . S
C1152 C1151 1.363 . S
C1152 C1158 1.428 . S
H1153 C1149 0.930 . S
H1154 C1151 0.929 . S
S1155 N1156 1.613 . S
S1155 N1157 1.610 . S
N1156 S1155 1.613 . S
N1156 C1159 1.350 . S
N1157 S1155 1.610 . S
N1157 C1158 1.351 . S
C1158 C1152 1.428 . S
C1158 N1157 1.351 . S
C1158 C1159 1.434 . S
C1159 C1150 1.429 . S
C1159 N1156 1.350 . S
C1159 C1158 1.434 . S
C1160 C1161 1.369 . S
C1160 C1162 1.419 . S
C1160 H1164 0.930 . S
C1161 C1160 1.369 . S
C1161 C1170 1.429 . S
C1162 C1160 1.419 . S
C1162 C1163 1.363 . S
C1162 H1165 0.929 . S
C1163 C1162 1.363 . S
C1163 C1169 1.428 . S
H1164 C1160 0.930 . S
H1165 C1162 0.929 . S
S1166 N1167 1.613 . S
S1166 N1168 1.610 . S
N1167 S1166 1.613 . S
N1167 C1170 1.350 . S
N1168 S1166 1.610 . S
N1168 C1169 1.351 . S
C1169 C1163 1.428 . S
C1169 N1168 1.351 . S
C1169 C1170 1.434 . S
C1170 C1161 1.429 . S
C1170 N1167 1.350 . S
C1170 C1169 1.434 . S
C1171 C1172 1.369 . S
C1171 C1173 1.419 . S
C1171 H1175 0.930 . S
C1172 C1171 1.369 . S
C1172 C1181 1.429 . S
C1173 C1171 1.419 . S
C1173 C1174 1.363 . S
C1173 H1176 0.929 . S
C1174 C1173 1.363 . S
C1174 C1180 1.428 . S
H1175 C1171 0.930 . S
H1176 C1173 0.929 . S
S1177 N1178 1.613 . S
S1177 N1179 1.610 . S
N1178 S1177 1.613 . S
N1178 C1181 1.350 . S
N1179 S1177 1.610 . S
N1179 C1180 1.351 . S
C1180 C1174 1.428 . S
C1180 N1179 1.351 . S
C1180 C1181 1.434 . S
C1181 C1172 1.429 . S
C1181 N1178 1.350 . S
C1181 C1180 1.434 . S
C1182 C1183 1.369 . S
C1182 C1184 1.419 . S
C1182 H1186 0.930 . S
C1183 C1182 1.369 . S
C1183 C1192 1.429 . S
C1184 C1182 1.419 . S
C1184 C1185 1.363 . S
C1184 H1187 0.929 . S
C1185 C1184 1.363 . S
C1185 C1191 1.428 . S
H1186 C1182 0.930 . S
H1187 C1184 0.929 . S
S1188 N1189 1.613 . S
S1188 N1190 1.610 . S
N1189 S1188 1.613 . S
N1189 C1192 1.350 . S
N1190 S1188 1.610 . S
N1190 C1191 1.351 . S
C1191 C1185 1.428 . S
C1191 N1190 1.351 . S
C1191 C1192 1.434 . S
C1192 C1183 1.429 . S
C1192 N1189 1.350 . S
C1192 C1191 1.434 . S
C1193 C1194 1.369 . S
C1193 C1195 1.419 . S
C1193 H1197 0.930 . S
C1194 C1193 1.369 . S
C1194 C1203 1.429 . S
C1195 C1193 1.419 . S
C1195 C1196 1.363 . S
C1195 H1198 0.929 . S
C1196 C1195 1.363 . S
C1196 C1202 1.428 . S
H1197 C1193 0.930 . S
H1198 C1195 0.929 . S
S1199 N1200 1.613 . S
S1199 N1201 1.610 . S
N1200 S1199 1.613 . S
N1200 C1203 1.350 . S
N1201 S1199 1.610 . S
N1201 C1202 1.351 . S
C1202 C1196 1.428 . S
C1202 N1201 1.351 . S
C1202 C1203 1.434 . S
C1203 C1194 1.429 . S
C1203 N1200 1.350 . S
C1203 C1202 1.434 . S
C1204 C1205 1.369 . S
C1204 C1206 1.419 . S
C1204 H1208 0.930 . S
C1205 C1204 1.369 . S
C1205 C1214 1.429 . S
C1206 C1204 1.419 . S
C1206 C1207 1.363 . S
C1206 H1209 0.929 . S
C1207 C1206 1.363 . S
C1207 C1213 1.428 . S
H1208 C1204 0.930 . S
H1209 C1206 0.929 . S
S1210 N1211 1.613 . S
S1210 N1212 1.610 . S
N1211 S1210 1.613 . S
N1211 C1214 1.350 . S
N1212 S1210 1.610 . S
N1212 C1213 1.351 . S
C1213 C1207 1.428 . S
C1213 N1212 1.351 . S
C1213 C1214 1.434 . S
C1214 C1205 1.429 . S
C1214 N1211 1.350 . S
C1214 C1213 1.434 . S
C1215 C1216 1.369 . S
C1215 C1217 1.419 . S
C1215 H1219 0.930 . S
C1216 C1215 1.369 . S
C1216 C1225 1.429 . S
C1217 C1215 1.419 . S
C1217 C1218 1.363 . S
C1217 H1220 0.929 . S
C1218 C1217 1.363 . S
C1218 C1224 1.428 . S
H1219 C1215 0.930 . S
H1220 C1217 0.929 . S
S1221 N1222 1.613 . S
S1221 N1223 1.610 . S
N1222 S1221 1.613 . S
N1222 C1225 1.350 . S
N1223 S1221 1.610 . S
N1223 C1224 1.351 . S
C1224 C1218 1.428 . S
C1224 N1223 1.351 . S
C1224 C1225 1.434 . S
C1225 C1216 1.429 . S
C1225 N1222 1.350 . S
C1225 C1224 1.434 . S
C1226 C1227 1.369 1_545 S
C1226 C1228 1.419 . S
C1226 H1230 0.930 . S
C1227 C1226 1.369 1_565 S
C1227 C1236 1.429 . S
C1228 C1226 1.419 . S
C1228 C1229 1.363 . S
C1228 H1231 0.929 . S
C1229 C1228 1.363 . S
C1229 C1235 1.428 . S
H1230 C1226 0.930 . S
H1231 C1228 0.929 . S
S1232 N1233 1.613 . S
S1232 N1234 1.610 . S
N1233 S1232 1.613 . S
N1233 C1236 1.350 . S
N1234 S1232 1.610 . S
N1234 C1235 1.351 1_565 S
C1235 C1229 1.428 . S
C1235 N1234 1.351 1_545 S
C1235 C1236 1.434 1_545 S
C1236 C1227 1.429 . S
C1236 N1233 1.350 . S
C1236 C1235 1.434 1_565 S
C1237 C1238 1.369 1_455 S
C1237 C1239 1.419 . S
C1237 H1241 0.930 . S
C1238 C1237 1.369 1_655 S
C1238 C1247 1.429 . S
C1239 C1237 1.419 . S
C1239 C1240 1.363 . S
C1239 H1242 0.929 . S
C1240 C1239 1.363 . S
C1240 C1246 1.428 1_455 S
H1241 C1237 0.930 . S
H1242 C1239 0.929 . S
S1243 N1244 1.613 . S
S1243 N1245 1.610 . S
N1244 S1243 1.613 . S
N1244 C1247 1.350 . S
N1245 S1243 1.610 . S
N1245 C1246 1.351 . S
C1246 C1240 1.428 1_655 S
C1246 N1245 1.351 . S
C1246 C1247 1.434 . S
C1247 C1238 1.429 . S
C1247 N1244 1.350 . S
C1247 C1246 1.434 . S
C1248 C1249 1.369 . S
C1248 C1250 1.419 . S
C1248 H1252 0.930 . S
C1249 C1248 1.369 . S
C1249 C1258 1.429 . S
C1250 C1248 1.419 . S
C1250 C1251 1.363 . S
C1250 H1253 0.929 . S
C1251 C1250 1.363 . S
C1251 C1257 1.428 . S
H1252 C1248 0.930 . S
H1253 C1250 0.929 . S
S1254 N1255 1.613 . S
S1254 N1256 1.610 . S
N1255 S1254 1.613 . S
N1255 C1258 1.350 . S
N1256 S1254 1.610 . S
N1256 C1257 1.351 . S
C1257 C1251 1.428 . S
C1257 N1256 1.351 . S
C1257 C1258 1.434 . S
C1258 C1249 1.429 . S
C1258 N1255 1.350 . S
C1258 C1257 1.434 . S
C1259 C1260 1.369 1_565 S
C1259 C1261 1.419 . S
C1259 H1263 0.930 . S
C1260 C1259 1.369 1_545 S
C1260 C1269 1.429 . S
C1261 C1259 1.419 . S
C1261 C1262 1.363 . S
C1261 H1264 0.929 . S
C1262 C1261 1.363 . S
C1262 C1268 1.428 1_565 S
H1263 C1259 0.930 . S
H1264 C1261 0.929 . S
S1265 N1266 1.613 . S
S1265 N1267 1.610 . S
N1266 S1265 1.613 . S
N1266 C1269 1.350 . S
N1267 S1265 1.610 . S
N1267 C1268 1.351 . S
C1268 C1262 1.428 1_545 S
C1268 N1267 1.351 . S
C1268 C1269 1.434 . S
C1269 C1260 1.429 . S
C1269 N1266 1.350 . S
C1269 C1268 1.434 . S
C1270 C1271 1.369 . S
C1270 C1272 1.419 . S
C1270 H1274 0.930 . S
C1271 C1270 1.369 . S
C1271 C1280 1.429 . S
C1272 C1270 1.419 . S
C1272 C1273 1.363 1_455 S
C1272 H1275 0.929 . S
C1273 C1272 1.363 1_655 S
C1273 C1279 1.428 1_655 S
H1274 C1270 0.930 . S
H1275 C1272 0.929 . S
S1276 N1277 1.613 . S
S1276 N1278 1.610 1_455 S
N1277 S1276 1.613 . S
N1277 C1280 1.350 . S
N1278 S1276 1.610 1_655 S
N1278 C1279 1.351 1_655 S
C1279 C1273 1.428 1_455 S
C1279 N1278 1.351 1_455 S
C1279 C1280 1.434 . S
C1280 C1271 1.429 . S
C1280 N1277 1.350 . S
C1280 C1279 1.434 . S
C1281 C1282 1.369 . S
C1281 C1283 1.419 . S
C1281 H1285 0.930 . S
C1282 C1281 1.369 . S
C1282 C1291 1.429 . S
C1283 C1281 1.419 . S
C1283 C1284 1.363 . S
C1283 H1286 0.929 . S
C1284 C1283 1.363 . S
C1284 C1290 1.428 . S
H1285 C1281 0.930 . S
H1286 C1283 0.929 . S
S1287 N1288 1.613 . S
S1287 N1289 1.610 . S
N1288 S1287 1.613 . S
N1288 C1291 1.350 . S
N1289 S1287 1.610 . S
N1289 C1290 1.351 . S
C1290 C1284 1.428 . S
C1290 N1289 1.351 . S
C1290 C1291 1.434 . S
C1291 C1282 1.429 . S
C1291 N1288 1.350 . S
C1291 C1290 1.434 . S
C1292 C1293 1.369 . S
C1292 C1294 1.419 . S
C1292 H1296 0.930 . S
C1293 C1292 1.369 . S
C1293 C1302 1.429 . S
C1294 C1292 1.419 . S
C1294 C1295 1.363 . S
C1294 H1297 0.929 . S
C1295 C1294 1.363 . S
C1295 C1301 1.428 . S
H1296 C1292 0.930 . S
H1297 C1294 0.929 . S
S1298 N1299 1.613 . S
S1298 N1300 1.610 . S
N1299 S1298 1.613 . S
N1299 C1302 1.350 . S
N1300 S1298 1.610 . S
N1300 C1301 1.351 . S
C1301 C1295 1.428 . S
C1301 N1300 1.351 . S
C1301 C1302 1.434 . S
C1302 C1293 1.429 . S
C1302 N1299 1.350 . S
C1302 C1301 1.434 . S
C1303 C1304 1.369 . S
C1303 C1305 1.419 . S
C1303 H1307 0.930 . S
C1304 C1303 1.369 . S
C1304 C1313 1.429 . S
C1305 C1303 1.419 . S
C1305 C1306 1.363 . S
C1305 H1308 0.929 . S
C1306 C1305 1.363 . S
C1306 C1312 1.428 . S
H1307 C1303 0.930 . S
H1308 C1305 0.929 . S
S1309 N1310 1.613 . S
S1309 N1311 1.610 . S
N1310 S1309 1.613 . S
N1310 C1313 1.350 . S
N1311 S1309 1.610 . S
N1311 C1312 1.351 . S
C1312 C1306 1.428 . S
C1312 N1311 1.351 . S
C1312 C1313 1.434 . S
C1313 C1304 1.429 . S
C1313 N1310 1.350 . S
C1313 C1312 1.434 . S
C721 C19 1.331 . S
C723 C95 1.384 . S
C732 C15 1.384 . S
C734 C59 1.326 . S
C743 C55 1.384 . S
C745 C99 1.326 . S
C754 C139 1.329 . S
C756 C175 1.386 . S
C765 C215 1.388 . S
C767 C179 1.324 . S
C776 C219 1.322 . S
C778 C135 1.387 . S
C787 C335 1.383 . S
C789 C259 1.329 . S
C798 C255 1.389 . S
C800 C299 1.324 . S
C809 C339 1.324 . S
C811 C295 1.386 . S
C820 C415 1.383 . S
C822 C379 1.329 . S
C831 C419 1.321 . S
C833 C455 1.389 . S
C842 C375 1.389 . S
C844 C459 1.323 . S
C853 C499 1.318 . S
C855 C575 1.389 . S
C864 C495 1.390 . S
C866 C539 1.321 . S
C875 C535 1.385 . S
C877 C579 1.328 . S
C886 C655 1.389 . S
C888 C619 1.320 . S
C897 C695 1.390 . S
C899 C659 1.321 . S
C908 C615 1.388 . S
C910 C699 1.325 . S
C919 C18 1.660 . S
C921 C218 1.664 . S
C930 C138 1.665 . S
C932 C58 1.661 . S
C941 C178 1.655 . S
C943 C98 1.658 . S
C952 C258 1.662 . S
C954 C458 1.657 . S
C963 C298 1.662 . S
C965 C378 1.665 . S
C974 C418 1.662 . S
C976 C338 1.665 . S
C985 C498 1.664 . S
C987 C698 1.659 . S
C996 C618 1.655 . S
C998 C538 1.659 . S
C1007 C658 1.663 . S
C1009 C578 1.665 . S
C1018 C409 2.529 . S
C1020 C9 2.531 1_565 S
C1029 C49 2.531 . S
C1031 C449 2.529 . S
C1040 C369 2.531 . S
C1042 C89 2.530 . S
C1051 C129 2.528 1_655 S
C1053 C569 2.532 . S
C1062 C169 2.533 . S
C1064 C489 2.528 . S
C1073 C529 2.528 . S
C1075 C209 2.531 . S
C1084 C649 2.529 . S
C1086 C249 2.531 . S
C1095 C289 2.528 . S
C1097 C689 2.532 . S
C1106 C329 2.528 . S
C1108 C609 2.532 . S
C1117 C86 1.873 . S
C1119 C10 1.903 . S
C1128 C6 1.880 . S
C1130 C50 1.900 . S
C1139 C90 1.899 . S
C1141 C46 1.878 . S
C1150 C166 1.872 . S
C1152 C130 1.905 . S
C1161 C206 1.880 . S
C1163 C170 1.900 . S
C1172 C210 1.906 . S
C1174 C126 1.874 . S
C1183 C326 1.880 . S
C1185 C250 1.901 . S
C1194 C290 1.905 . S
C1196 C246 1.873 . S
C1205 C286 1.880 . S
C1207 C330 1.901 . S
C1216 C370 1.905 . S
C1218 C406 1.873 . S
C1227 C410 1.899 . S
C1229 C446 1.878 . S
C1238 C366 1.876 . S
C1240 C450 1.901 . S
C1249 C490 1.906 . S
C1251 C566 1.874 . S
C1260 C530 1.900 . S
C1262 C486 1.879 . S
C1271 C526 1.874 . S
C1273 C570 1.905 . S
C1282 C610 1.900 . S
C1284 C646 1.877 . S
C1293 C650 1.905 . S
C1295 C686 1.873 . S
C1304 C606 1.877 . S
C1306 C690 1.903 . S
