# Generated by pormake.
# Topology wfx, (7)-cn, num edge types: 1
# Building blocks:
#     Node 0, Type 0, BuildingBlock: HICVOG_clean_sbu_0, # of connection points: 7
#     Node 1, Type 0, BuildingBlock: HICVOG_clean_sbu_0, # of connection points: 7
#     Node 2, Type 0, BuildingBlock: HICVOG_clean_sbu_0, # of connection points: 7
#     Node 3, Type 0, BuildingBlock: HICVOG_clean_sbu_0, # of connection points: 7
#     Node 4, Type 0, BuildingBlock: HICVOG_clean_sbu_0, # of connection points: 7
#     Node 5, Type 0, BuildingBlock: HICVOG_clean_sbu_0, # of connection points: 7
#     Node 6, Type 0, BuildingBlock: HICVOG_clean_sbu_0, # of connection points: 7
#     Node 7, Type 0, BuildingBlock: HICVOG_clean_sbu_0, # of connection points: 7
#     Node 8, Type 0, BuildingBlock: HICVOG_clean_sbu_0, # of connection points: 7
#     Node 9, Type 0, BuildingBlock: HICVOG_clean_sbu_0, # of connection points: 7
#     Node 10, Type 0, BuildingBlock: HICVOG_clean_sbu_0, # of connection points: 7
#     Node 11, Type 0, BuildingBlock: HICVOG_clean_sbu_0, # of connection points: 7
#     Node 12, Type 0, BuildingBlock: HICVOG_clean_sbu_0, # of connection points: 7
#     Node 13, Type 0, BuildingBlock: HICVOG_clean_sbu_0, # of connection points: 7
#     Node 14, Type 0, BuildingBlock: HICVOG_clean_sbu_0, # of connection points: 7
#     Node 15, Type 0, BuildingBlock: HICVOG_clean_sbu_0, # of connection points: 7
#     Edge 16, Type (0, 0), BuildingBlock: CIFDUS_clean_linker_0, # of connection points: 2
#     Edge 17, Type (0, 0), BuildingBlock: CIFDUS_clean_linker_0, # of connection points: 2
#     Edge 18, Type (0, 0), BuildingBlock: CIFDUS_clean_linker_0, # of connection points: 2
#     Edge 19, Type (0, 0), BuildingBlock: CIFDUS_clean_linker_0, # of connection points: 2
#     Edge 20, Type (0, 0), BuildingBlock: CIFDUS_clean_linker_0, # of connection points: 2
#     Edge 21, Type (0, 0), BuildingBlock: CIFDUS_clean_linker_0, # of connection points: 2
#     Edge 22, Type (0, 0), BuildingBlock: CIFDUS_clean_linker_0, # of connection points: 2
#     Edge 23, Type (0, 0), BuildingBlock: CIFDUS_clean_linker_0, # of connection points: 2
#     Edge 24, Type (0, 0), BuildingBlock: CIFDUS_clean_linker_0, # of connection points: 2
#     Edge 25, Type (0, 0), BuildingBlock: CIFDUS_clean_linker_0, # of connection points: 2
#     Edge 26, Type (0, 0), BuildingBlock: CIFDUS_clean_linker_0, # of connection points: 2
#     Edge 27, Type (0, 0), BuildingBlock: CIFDUS_clean_linker_0, # of connection points: 2
#     Edge 28, Type (0, 0), BuildingBlock: CIFDUS_clean_linker_0, # of connection points: 2
#     Edge 29, Type (0, 0), BuildingBlock: CIFDUS_clean_linker_0, # of connection points: 2
#     Edge 30, Type (0, 0), BuildingBlock: CIFDUS_clean_linker_0, # of connection points: 2
#     Edge 31, Type (0, 0), BuildingBlock: CIFDUS_clean_linker_0, # of connection points: 2
#     Edge 32, Type (0, 0), BuildingBlock: CIFDUS_clean_linker_0, # of connection points: 2
#     Edge 33, Type (0, 0), BuildingBlock: CIFDUS_clean_linker_0, # of connection points: 2
#     Edge 34, Type (0, 0), BuildingBlock: CIFDUS_clean_linker_0, # of connection points: 2
#     Edge 35, Type (0, 0), BuildingBlock: CIFDUS_clean_linker_0, # of connection points: 2
#     Edge 36, Type (0, 0), BuildingBlock: CIFDUS_clean_linker_0, # of connection points: 2
#     Edge 37, Type (0, 0), BuildingBlock: CIFDUS_clean_linker_0, # of connection points: 2
#     Edge 38, Type (0, 0), BuildingBlock: CIFDUS_clean_linker_0, # of connection points: 2
#     Edge 39, Type (0, 0), BuildingBlock: CIFDUS_clean_linker_0, # of connection points: 2
#     Edge 40, Type (0, 0), BuildingBlock: CIFDUS_clean_linker_0, # of connection points: 2
#     Edge 41, Type (0, 0), BuildingBlock: CIFDUS_clean_linker_0, # of connection points: 2
#     Edge 42, Type (0, 0), BuildingBlock: CIFDUS_clean_linker_0, # of connection points: 2
#     Edge 43, Type (0, 0), BuildingBlock: CIFDUS_clean_linker_0, # of connection points: 2
#     Edge 44, Type (0, 0), BuildingBlock: CIFDUS_clean_linker_0, # of connection points: 2
#     Edge 45, Type (0, 0), BuildingBlock: CIFDUS_clean_linker_0, # of connection points: 2
#     Edge 46, Type (0, 0), BuildingBlock: CIFDUS_clean_linker_0, # of connection points: 2
#     Edge 47, Type (0, 0), BuildingBlock: CIFDUS_clean_linker_0, # of connection points: 2
#     Edge 48, Type (0, 0), BuildingBlock: CIFDUS_clean_linker_0, # of connection points: 2
#     Edge 49, Type (0, 0), BuildingBlock: CIFDUS_clean_linker_0, # of connection points: 2
#     Edge 50, Type (0, 0), BuildingBlock: CIFDUS_clean_linker_0, # of connection points: 2
#     Edge 51, Type (0, 0), BuildingBlock: CIFDUS_clean_linker_0, # of connection points: 2
#     Edge 52, Type (0, 0), BuildingBlock: CIFDUS_clean_linker_0, # of connection points: 2
#     Edge 53, Type (0, 0), BuildingBlock: CIFDUS_clean_linker_0, # of connection points: 2
#     Edge 54, Type (0, 0), BuildingBlock: CIFDUS_clean_linker_0, # of connection points: 2
#     Edge 55, Type (0, 0), BuildingBlock: CIFDUS_clean_linker_0, # of connection points: 2
#     Edge 56, Type (0, 0), BuildingBlock: CIFDUS_clean_linker_0, # of connection points: 2
#     Edge 57, Type (0, 0), BuildingBlock: CIFDUS_clean_linker_0, # of connection points: 2
#     Edge 58, Type (0, 0), BuildingBlock: CIFDUS_clean_linker_0, # of connection points: 2
#     Edge 59, Type (0, 0), BuildingBlock: CIFDUS_clean_linker_0, # of connection points: 2
#     Edge 60, Type (0, 0), BuildingBlock: CIFDUS_clean_linker_0, # of connection points: 2
#     Edge 61, Type (0, 0), BuildingBlock: CIFDUS_clean_linker_0, # of connection points: 2
#     Edge 62, Type (0, 0), BuildingBlock: CIFDUS_clean_linker_0, # of connection points: 2
#     Edge 63, Type (0, 0), BuildingBlock: CIFDUS_clean_linker_0, # of connection points: 2
#     Edge 64, Type (0, 0), BuildingBlock: CIFDUS_clean_linker_0, # of connection points: 2
#     Edge 65, Type (0, 0), BuildingBlock: CIFDUS_clean_linker_0, # of connection points: 2
#     Edge 66, Type (0, 0), BuildingBlock: CIFDUS_clean_linker_0, # of connection points: 2
#     Edge 67, Type (0, 0), BuildingBlock: CIFDUS_clean_linker_0, # of connection points: 2
#     Edge 68, Type (0, 0), BuildingBlock: CIFDUS_clean_linker_0, # of connection points: 2
#     Edge 69, Type (0, 0), BuildingBlock: CIFDUS_clean_linker_0, # of connection points: 2
#     Edge 70, Type (0, 0), BuildingBlock: CIFDUS_clean_linker_0, # of connection points: 2
#     Edge 71, Type (0, 0), BuildingBlock: CIFDUS_clean_linker_0, # of connection points: 2
# Relax obj value: 0.381
# Max RMSD: 0.262
# Mean RMSD: 0.262
data_MOF--net-wfx--node1-HICVOG_clean_sbu_0--edge1-CIFDUS_clean_linker_0
_symmetry_space_group_name_H-M    P1
_symmetry_Int_Tables_number       1
_symmetry_cell_setting            triclinic
loop_
_symmetry_equiv_pos_as_xyz
'x, y, z'
_cell_length_a     29.254922
_cell_length_b     29.302378
_cell_length_c     58.15364
_cell_angle_alpha  89.972734
_cell_angle_beta   90.315497
_cell_angle_gamma 89.873686
loop_
_atom_site_label
_atom_site_type_symbol
_atom_site_fract_x
_atom_site_fract_y
_atom_site_fract_z
_atom_type_partial_charge
Zn0 Zn 0.67777 0.06928 0.08063 0.0
C1 C 0.59581 1.00866 0.12423 0.0
N2 N 0.56557 1.00614 0.10673 0.0
C3 C 0.58448 0.03174 0.09025 0.0
N4 N 0.62517 0.04932 0.09742 0.0
N5 N 0.63173 0.03615 0.11898 0.0
C6 C 0.75459 0.99876 0.14655 0.0
O7 O 0.72936 0.96243 0.14294 0.0
O8 O 0.65861 0.08053 0.04819 0.0
Zn9 Zn 0.6743 0.06992 0.14031 0.0
N10 N 0.72158 1.0202 0.0827 0.0
C11 C 0.74114 0.94237 0.08932 0.0
C12 C 0.70832 0.9769 0.08767 0.0
C13 C 0.76606 0.03035 0.07918 0.0
N14 N 0.78563 0.95222 0.085 0.0
C15 C 0.79916 0.99551 0.07999 0.0
O16 O 0.69818 0.13462 0.12947 0.0
C17 C 0.71272 0.15081 0.11041 0.0
O18 O 0.70754 0.12816 0.09188 0.0
H19 H 0.6726 0.96919 0.09009 0.0
H20 H 0.77472 0.06491 0.07434 0.0
C21 C 0.64939 0.08325 0.19004 0.0
C22 C 0.61766 0.0987 0.2067 0.0
C23 C 0.56437 0.11483 0.17676 0.0
C24 C 0.59572 0.10028 0.16052 0.0
N25 N 0.6374 0.08445 0.16728 0.0
N26 N 0.57606 0.11381 0.19929 0.0
H27 H 0.68324 0.07177 0.19491 0.0
C28 C 0.62909 0.11226 0.04774 0.0
O29 O 0.61824 0.13269 0.06708 0.0
O30 O 0.73594 0.03816 0.14657 0.0
H31 H 0.58714 0.10223 0.14244 0.0
H32 H 0.73113 0.90776 0.09333 0.0
H33 H 0.5311 0.12736 0.17152 0.0
Zn34 Zn 0.45144 0.65598 0.07042 0.0
C35 C 0.56045 0.60756 0.10508 0.0
N36 N 0.56554 0.57958 0.08696 0.0
C37 C 0.52873 0.58819 0.07381 0.0
N38 N 0.50239 0.62166 0.08345 0.0
N39 N 0.52136 0.63291 0.10356 0.0
C40 C 0.52269 0.76172 0.14686 0.0
O41 O 0.48103 0.76317 0.15515 0.0
O42 O 0.39122 0.62542 0.07437 0.0
Zn43 Zn 0.49158 0.6727 0.12798 0.0
N44 N 0.4597 0.6681 0.03803 0.0
C45 C 0.49872 0.67331 1.00236 0.0
C46 C 0.49724 0.6587 0.02516 0.0
C47 C 0.42519 0.69405 0.0295 0.0
N48 N 0.46518 0.70118 0.99425 0.0
C49 C 0.42866 0.71301 1.00744 0.0
O50 O 0.42749 0.70383 0.12039 0.0
C51 C 0.41448 0.72435 0.1021 0.0
O52 O 0.4381 0.71935 0.08393 0.0
H53 H 0.52645 0.64166 0.03255 0.0
H54 H 0.39792 0.70369 0.04102 0.0
C55 C 0.47522 0.64434 0.17675 0.0
C56 C 0.46201 0.61128 0.19329 0.0
C57 C 0.45739 0.55585 0.16354 0.0
C58 C 0.47003 0.58839 0.14744 0.0
N59 N 0.47901 0.63192 0.15415 0.0
N60 N 0.45364 0.56801 0.1859 0.0
H61 H 0.48118 0.67946 0.18156 0.0
C62 C 0.37151 0.61731 0.09337 0.0
O63 O 0.39488 0.61744 0.11265 0.0
O64 O 0.53537 0.72599 0.13599 0.0
H65 H 0.47227 0.57894 0.12953 0.0
H66 H 0.52789 0.66535 0.99172 0.0
H67 H 0.45027 0.52116 0.15831 0.0
Zn68 Zn 0.88927 0.48595 0.13457 0.0
C69 C 0.97383 0.51679 0.07882 0.0
N70 N 0.97431 0.55792 0.08891 0.0
C71 C 0.94742 0.55292 0.1074 0.0
N72 N 0.92987 0.50998 0.10894 0.0
N73 N 0.9466 0.48727 0.09093 0.0
C74 C 1.00236 0.35246 0.10046 0.0
O75 O 0.97189 0.33466 0.11433 0.0
O76 O 0.83836 0.53481 0.13927 0.0
Zn77 Zn 0.93431 0.42318 0.08458 0.0
N78 N 0.93028 0.47383 0.16094 0.0
C79 C 1.0048 0.44533 0.16945 0.0
C80 C 0.97181 0.459 0.15364 0.0
C81 C 0.92001 0.47433 0.18391 0.0
N82 N 0.99485 0.44589 0.19214 0.0
C83 C 0.95344 0.45967 0.20018 0.0
O84 O 0.88506 0.38857 0.10135 0.0
C85 C 0.85566 0.38934 0.11728 0.0
O86 O 0.85268 0.42437 0.13028 0.0
H87 H 0.97916 0.45712 0.13549 0.0
H88 H 0.88611 0.48443 0.18922 0.0
C89 C 0.89922 0.37593 0.04642 0.0
C90 C 0.87971 0.37073 0.02454 0.0
C91 C 0.8972 0.44812 1.01617 0.0
C92 C 0.91119 0.45432 0.03877 0.0
N93 N 0.9146 0.41766 0.05304 0.0
N94 N 0.88091 0.40687 1.00977 0.0
H95 H 0.89912 0.3482 0.05871 0.0
C96 C 0.79891 0.52639 0.14767 0.0
O97 O 0.79177 0.48631 0.1571 0.0
O98 O 0.99222 0.38792 0.08894 0.0
H99 H 0.91833 0.48824 0.04478 0.0
H100 H 0.03797 0.43371 0.16374 0.0
H101 H 0.89611 0.47652 1.00429 0.0
Zn102 Zn 0.0714 0.8819 0.13254 0.0
C103 C 0.03765 0.97283 0.08022 0.0
N104 N 1.00621 0.98761 0.09514 0.0
C105 C 1.01041 0.95868 0.11311 0.0
N106 N 0.04443 0.92756 0.10979 0.0
N107 N 0.06069 0.93603 0.08894 0.0
C108 C 0.13767 0.96241 0.04871 0.0
O109 O 0.14533 0.97433 0.07017 0.0
O110 O 1.02553 0.82891 0.13787 0.0
Zn111 Zn 0.09491 0.89138 0.07179 0.0
N112 N 0.08717 0.91842 0.16003 0.0
C113 C 0.12581 0.98779 0.16886 0.0
C114 C 0.10782 0.95744 0.15292 0.0
C115 C 0.08399 0.90841 0.18302 0.0
N116 N 0.12309 0.97793 0.19153 0.0
C117 C 0.1029 0.9392 0.19942 0.0
O118 O 0.15071 0.85992 0.0868 0.0
C119 C 0.16214 0.84566 0.10675 0.0
O120 O 0.13506 0.85165 0.12379 0.0
H121 H 0.11126 0.96449 0.13476 0.0
H122 H 0.06849 0.87668 0.18838 0.0
C123 C 0.04395 0.8401 0.03941 0.0
C124 C 1.00337 0.82013 0.03118 0.0
C125 C 0.97573 0.81629 0.06939 0.0
C126 C 1.01561 0.83702 0.07734 0.0
N127 N 0.04865 0.84892 0.06216 0.0
N128 N 0.97053 0.80837 0.04656 0.0
H129 H 0.07117 0.85008 0.02799 0.0
C130 C 0.03379 0.79 0.14697 0.0
O131 O 0.07397 0.78282 0.15651 0.0
O132 O 0.11826 0.9246 0.04454 0.0
H133 H 1.01931 0.84545 0.09526 0.0
H134 H 0.14239 1.01881 0.16327 0.0
H135 H 0.94867 0.80739 0.08111 0.0
Zn136 Zn 0.17889 0.993 0.40124 0.0
C137 C 0.1059 0.02687 0.45971 0.0
N138 N 0.1175 0.0694 0.45364 0.0
C139 C 0.14119 0.06353 0.43411 0.0
N140 N 0.14506 1.01873 0.42834 0.0
N141 N 0.12184 0.9957 0.44419 0.0
C142 C 0.04551 0.87504 0.42053 0.0
O143 O 0.07871 0.86019 0.40734 0.0
O144 O 0.23405 0.03659 0.39622 0.0
Zn145 Zn 0.1119 0.9298 0.44357 0.0
N146 N 0.13614 0.98981 0.37481 0.0
C147 C 0.05746 0.98975 0.36396 0.0
C148 C 0.09144 0.99516 0.38054 0.0
C149 C 0.14813 0.97908 0.35271 0.0
N150 N 0.06923 0.97899 0.34212 0.0
C151 C 0.11356 0.97341 0.3357 0.0
O152 O 0.16297 0.89022 0.42978 0.0
C153 C 0.19745 0.89112 0.4165 0.0
O154 O 0.20738 0.92766 0.40555 0.0
H155 H 0.08196 1.00272 0.39804 0.0
H156 H 0.1838 0.97384 0.34867 0.0
C157 C 0.15495 0.90697 0.48377 0.0
C158 C 0.16114 0.89351 0.50651 0.0
C159 C 0.08128 0.88508 0.51057 0.0
C160 C 0.07525 0.89821 0.48764 0.0
N161 N 0.1123 0.90958 0.47488 0.0
N162 N 0.12419 0.88344 0.51963 0.0
H163 H 0.18381 0.91662 0.47326 0.0
C164 C 0.27351 1.02466 0.38896 0.0
O165 O 0.27929 0.9827 0.38156 0.0
O166 O 0.05032 0.91391 0.42992 0.0
H167 H 0.04151 0.90064 0.48035 0.0
H168 H 1.02184 0.99373 0.36844 0.0
H169 H 0.05215 0.87704 0.52117 0.0
Zn170 Zn 0.58029 0.17608 0.40814 0.0
C171 C 0.53542 0.10611 0.46491 0.0
N172 N 0.50256 0.08965 0.45109 0.0
C173 C 0.50998 0.11143 0.43103 0.0
N174 N 0.54638 0.14036 0.43231 0.0
N175 N 0.56147 0.13724 0.45382 0.0
C176 C 0.63506 0.2028 0.50969 0.0
O177 O 0.61975 0.24452 0.50652 0.0
O178 O 0.54879 0.23572 0.39795 0.0
Zn179 Zn 0.5861 0.18916 0.46903 0.0
N180 N 0.59157 0.13383 0.38287 0.0
C181 C 0.61437 0.05774 0.3743 0.0
C182 C 0.60255 0.09111 0.39017 0.0
C183 C 0.59271 0.14484 0.36006 0.0
N184 N 0.61545 0.06847 0.35165 0.0
C185 C 0.60512 0.11107 0.3438 0.0
O186 O 0.63852 0.22175 0.4534 0.0
C187 C 0.66181 0.22048 0.43499 0.0
O188 O 0.64624 0.19971 0.41725 0.0
H189 H 0.60259 0.08317 0.40832 0.0
H190 H 0.58536 0.17955 0.35488 0.0
C191 C 0.51697 0.22284 0.49747 0.0
C192 C 0.47714 0.24673 0.50354 0.0
C193 C 0.47126 0.27364 0.46503 0.0
C194 C 0.51178 0.25105 0.45949 0.0
N195 N 0.53396 0.22659 0.47593 0.0
N196 N 0.4554 0.27168 0.48695 0.0
H197 H 0.53583 0.20269 0.50982 0.0
C198 C 0.50892 0.25238 0.39473 0.0
O199 O 0.47286 0.2265 0.39777 0.0
O200 O 0.61821 0.17061 0.49776 0.0
H201 H 0.52525 0.25246 0.44227 0.0
H202 H 0.62303 1.02359 0.37993 0.0
H203 H 0.45309 0.29335 0.45215 0.0
Zn204 Zn 0.37424 0.57253 0.45616 0.0
C205 C 0.45702 0.5082 0.41602 0.0
N206 N 0.4845 0.5054 0.4347 0.0
C207 C 0.46588 0.53521 0.4494 0.0
N208 N 0.42846 0.55566 0.44007 0.0
N209 N 0.42371 0.54019 0.41884 0.0
C210 C 0.28994 0.53741 0.38216 0.0
O211 O 0.28505 0.57985 0.37525 0.0
O212 O 0.3939 0.59232 0.48753 0.0
Zn213 Zn 0.38093 0.56893 0.39592 0.0
N214 N 0.33618 0.51871 0.45629 0.0
C215 C 0.32466 0.43861 0.45228 0.0
C216 C 0.35374 0.47633 0.45258 0.0
C217 C 0.29088 0.52485 0.45955 0.0
N218 N 0.27938 0.44459 0.45642 0.0
C219 C 0.26149 0.48693 0.45987 0.0
O220 O 0.34901 0.63133 0.40537 0.0
C221 C 0.33257 0.64766 0.42402 0.0
O222 O 0.33891 0.62682 0.443 0.0
H223 H 0.38996 0.47167 0.44998 0.0
H224 H 0.27861 0.55897 0.46313 0.0
C225 C 0.40817 0.58389 0.34648 0.0
C226 C 0.44012 0.60062 0.33023 0.0
C227 C 0.49147 0.61758 0.36087 0.0
C228 C 0.45997 0.6016 0.37669 0.0
N229 N 0.4191 0.58481 0.3694 0.0
N230 N 0.48082 0.6168 0.3382 0.0
H231 H 0.37492 0.5716 0.34116 0.0
C232 C 0.41834 0.62756 0.48453 0.0
O233 O 0.42366 0.64329 0.46354 0.0
O234 O 0.32889 0.52435 0.3896 0.0
H235 H 0.46778 0.60334 0.39485 0.0
H236 H 0.33817 0.40471 0.44938 0.0
H237 H 0.52404 0.63099 0.36655 0.0
Zn238 Zn 0.98163 0.37322 0.46537 0.0
C239 C 0.05227 0.45878 0.42535 0.0
N240 N 0.05419 0.48576 0.44404 0.0
C241 C 0.02788 0.46401 0.45933 0.0
N242 N 1.0109 0.42445 0.45025 0.0
N243 N 1.02522 0.4218 0.42861 0.0
C244 C 0.07886 0.31108 0.39812 0.0
O245 O 0.10909 0.3407 0.40554 0.0
O246 O 0.94313 0.39444 0.49127 0.0
Zn247 Zn 0.9991 0.38149 0.40355 0.0
N248 N 0.02953 0.3333 0.47607 0.0
C249 C 0.09834 0.29252 0.46886 0.0
C250 C 0.06006 0.31628 0.46083 0.0
C251 C 0.03536 0.32736 0.499 0.0
N252 N 0.10489 0.28761 0.49189 0.0
C253 C 0.0747 0.30511 0.50732 0.0
O254 O 0.93509 0.3536 0.41022 0.0
C255 C 0.91455 0.33583 0.42734 0.0
O256 O 0.9317 0.33886 0.44746 0.0
H257 H 0.05494 0.32204 0.44271 0.0
H258 H 1.00969 0.34065 0.51051 0.0
C259 C 0.98714 0.41149 0.35412 0.0
C260 C 0.97112 0.44413 0.33783 0.0
C261 C 0.95422 0.49483 0.36856 0.0
C262 C 0.96901 0.46249 0.38439 0.0
N263 N 0.98588 0.42175 0.3771 0.0
N264 N 0.95549 0.48488 0.34586 0.0
H265 H 0.99875 0.3781 0.3488 0.0
C266 C 0.91082 0.41735 0.48231 0.0
O267 O 0.92021 0.44289 0.46437 0.0
O268 O 0.03715 0.32341 0.39593 0.0
H269 H 0.96627 0.46959 0.40256 0.0
H270 H 0.12297 0.27867 0.45692 0.0
H271 H 0.94107 0.52741 0.37427 0.0
Zn272 Zn 0.3791 0.99607 0.96565 0.0
C273 C 0.47369 0.04927 0.92777 0.0
N274 N 0.49911 0.05379 0.94704 0.0
C275 C 0.47586 0.02968 0.96273 0.0
N276 N 0.43756 1.01113 0.95328 0.0
N277 N 0.43691 1.02198 0.93117 0.0
C278 C 0.31997 0.05921 0.89295 0.0
O279 O 0.34656 0.09509 0.89124 0.0
O280 O 0.37659 1.00458 1.00009 0.0
Zn281 Zn 0.39713 0.98851 0.9083 0.0
N282 N 0.33737 0.04138 0.95385 0.0
C283 C 0.31855 0.11835 0.94462 0.0
C284 C 0.35117 0.08479 0.9495 0.0
C285 C 0.29258 0.03012 0.95345 0.0
N286 N 0.27342 0.10765 0.94566 0.0
C287 C 0.25952 0.06413 0.94977 0.0
O288 O 0.37206 0.92458 0.91928 0.0
C289 C 0.35499 0.90893 0.93793 0.0
O290 O 0.35552 0.93314 0.95617 0.0
H291 H 0.38688 0.09366 0.95082 0.0
H292 H 0.28285 0.99595 0.95852 0.0
C293 C 0.42428 0.97208 0.8597 0.0
C294 C 0.4566 0.95779 0.84305 0.0
C295 C 0.5114 0.94726 0.87296 0.0
C296 C 0.47947 0.96086 0.88917 0.0
N297 N 0.43677 0.97352 0.88236 0.0
N298 N 0.49927 0.94602 0.85047 0.0
H299 H 0.38956 0.98079 0.85501 0.0
C300 C 0.37679 0.97171 1.01428 0.0
O301 O 0.36964 0.97978 0.03617 0.0
O302 O 0.337 1.02084 0.89896 0.0
H303 H 0.48851 0.96078 0.90721 0.0
H304 H 0.32893 0.15314 0.9413 0.0
H305 H 0.54553 0.93733 0.87821 0.0
Zn306 Zn 0.57659 0.3808 0.89462 0.0
C307 C 0.54061 0.45465 0.95225 0.0
N308 N 0.51113 0.47548 0.93792 0.0
C309 C 0.51607 0.45288 0.91791 0.0
N310 N 0.54889 0.42009 0.91949 0.0
N311 N 0.56275 0.41983 0.94123 0.0
C312 C 0.65581 0.37985 0.97265 0.0
O313 O 0.65322 0.40468 0.95384 0.0
O314 O 0.53469 0.32522 0.88963 0.0
Zn315 Zn 0.58044 0.36 0.95242 0.0
N316 N 0.58439 0.42142 0.86793 0.0
C317 C 0.60399 0.4981 0.85863 0.0
C318 C 0.59419 0.46471 0.87478 0.0
C319 C 0.58526 0.4099 0.84511 0.0
N320 N 0.60496 0.48685 0.8361 0.0
C321 C 0.59627 0.44375 0.82856 0.0
O322 O 0.62727 0.32263 0.93429 0.0
C323 C 0.6531 0.32543 0.91686 0.0
O324 O 0.64277 0.35338 0.90077 0.0
H325 H 0.59556 0.4732 0.89282 0.0
H326 H 0.57913 0.37489 0.84011 0.0
C327 C 0.5316 0.27919 0.96019 0.0
C328 C 0.4935 0.25031 0.96144 0.0
C329 C 0.44589 0.31146 0.94953 0.0
C330 C 0.48384 0.34024 0.94881 0.0
N331 N 0.52588 0.32352 0.95441 0.0
N332 N 0.45137 0.26741 0.95633 0.0
H333 H 0.56548 0.26738 0.96491 0.0
C334 C 0.54926 0.28658 0.88264 0.0
O335 O 0.59163 0.28334 0.87545 0.0
O336 O 0.61904 0.36338 0.98082 0.0
H337 H 0.47962 0.3755 0.94387 0.0
H338 H 0.61163 0.53261 0.86398 0.0
H339 H 0.41222 0.32431 0.94525 0.0
Zn340 Zn 0.15314 0.61922 0.95795 0.0
C341 C 0.13114 0.50009 0.9252 0.0
N342 N 0.10734 0.49037 0.94442 0.0
C343 C 0.10985 0.52887 0.95675 0.0
N344 N 0.13506 0.56097 0.94529 0.0
N345 N 0.14848 0.54326 0.92536 0.0
C346 C 0.26232 0.50528 0.8865 0.0
O347 O 0.237 0.46869 0.88385 0.0
O348 O 0.10056 0.66327 0.95389 0.0
Zn349 Zn 0.18436 0.57684 0.90057 0.0
N350 N 0.16999 0.60383 0.9893 0.0
C351 C 0.19608 0.54182 1.01223 0.0
C352 C 0.18913 0.56156 0.99088 0.0
C353 C 0.16176 0.62929 1.00843 0.0
N354 N 0.18798 0.56689 0.03126 0.0
C355 C 0.17218 0.61067 0.03022 0.0
O356 O 0.21373 0.6407 0.90862 0.0
C357 C 0.22289 0.66543 0.92619 0.0
O358 O 0.2058 0.65589 0.94561 0.0
H359 H 0.19724 0.54242 0.97556 0.0
H360 H 0.14799 0.66339 1.0066 0.0
C361 C 0.15345 0.59054 0.85139 0.0
C362 C 0.11907 0.60367 0.83531 0.0
C363 C 0.06648 0.61132 0.86609 0.0
C364 C 0.10032 0.59881 0.8817 0.0
N365 N 0.143 0.58848 0.8743 0.0
N366 N 0.07663 0.61355 0.84344 0.0
H367 H 0.18801 0.58337 0.84593 0.0
C368 C 0.06246 0.65593 0.94381 0.0
O369 O 0.05306 0.61511 0.93585 0.0
O370 O 0.24369 0.543 0.89221 0.0
H371 H 0.09287 0.59756 0.89977 0.0
H372 H 0.20932 0.50744 1.01374 0.0
H373 H 0.0324 0.61954 0.87193 0.0
Zn374 Zn 1.00549 0.17976 0.89941 0.0
C375 C 0.03649 0.10007 0.95647 0.0
N376 N 0.06916 0.08324 0.94276 0.0
C377 C 0.06564 0.10881 0.92355 0.0
N378 N 0.03097 0.13973 0.92496 0.0
N379 N 1.01353 0.13504 0.94588 0.0
C380 C 0.93599 0.12151 0.99065 0.0
O381 O 0.92964 0.09811 0.97162 0.0
O382 O 0.05187 0.23123 0.89344 0.0
Zn383 Zn 0.9743 0.18197 0.95872 0.0
N384 N 0.99638 0.13936 0.87246 0.0
C385 C 0.97461 0.06356 0.86242 0.0
C386 C 0.98645 0.09586 0.87887 0.0
C387 C 0.99431 0.15193 0.84974 0.0
N388 N 0.97211 0.07596 0.84003 0.0
C389 C 0.98137 0.11918 0.8329 0.0
O390 O 0.91703 0.20091 0.94059 0.0
C391 C 0.90892 0.21352 0.91998 0.0
O392 O 0.93973 0.20916 0.90448 0.0
H393 H 0.98639 0.08644 0.89681 0.0
H394 H 1.00089 0.18699 0.84497 0.0
C395 C 0.03159 0.24062 0.98407 0.0
C396 C 0.06297 0.27624 0.98779 0.0
C397 C 0.05164 0.2997 0.94898 0.0
C398 C 1.02139 0.26368 0.94545 0.0
N399 N 1.01244 0.23468 0.96302 0.0
N400 N 0.07173 0.305 0.96992 0.0
H401 H 1.02082 0.21828 0.99767 0.0
C402 C 0.04514 0.26849 0.88256 0.0
O403 O 1.0057 0.27497 0.87214 0.0
O404 O 0.95366 0.16087 0.98951 0.0
H405 H 1.00491 0.25895 0.92897 0.0
H406 H 0.96661 0.02895 0.86746 0.0
H407 H 0.05845 0.32383 0.93539 0.0
Zn408 Zn 0.88387 0.07357 0.63321 0.0
C409 C 0.95099 0.03609 0.5741 0.0
N410 N 0.93882 0.9936 0.58002 0.0
C411 C 0.91657 0.99931 0.60001 0.0
N412 N 0.91405 0.04398 0.60617 0.0
N413 N 0.93657 0.06702 0.59008 0.0
C414 C 1.0217 0.18197 0.61396 0.0
O415 O 0.98875 0.20563 0.62359 0.0
O416 O 0.83009 0.03632 0.64596 0.0
Zn417 Zn 0.94913 0.13279 0.59152 0.0
N418 N 0.92964 0.08554 0.65755 0.0
C419 C 1.00836 0.09956 0.66538 0.0
C420 C 0.97339 0.08861 0.65004 0.0
C421 C 0.91964 0.0919 0.68032 0.0
N422 N 0.99854 0.1061 0.6879 0.0
C423 C 0.95524 0.10233 0.69614 0.0
O424 O 0.89921 0.17592 0.60449 0.0
C425 C 0.86154 0.17205 0.61519 0.0
O426 O 0.85106 0.13445 0.62493 0.0
H427 H 0.98103 0.08279 0.63216 0.0
H428 H 0.88451 0.08943 0.68588 0.0
C429 C 0.90764 0.15563 0.55145 0.0
C430 C 0.90038 0.17467 0.52981 0.0
C431 C 0.97985 0.18767 0.52634 0.0
C432 C 0.98668 0.17024 0.54852 0.0
N433 N 0.95027 0.15393 0.56039 0.0
N434 N 0.93671 0.18978 0.51746 0.0
H435 H 0.8793 0.14318 0.56158 0.0
C436 C 0.80203 1.01468 0.63316 0.0
O437 O 0.81031 1.01156 0.61106 0.0
O438 O 1.01156 0.14409 0.60472 0.0
H439 H 1.02039 0.1698 0.55613 0.0
H440 H 0.0432 0.1026 0.65944 0.0
H441 H 1.00844 0.20032 0.5165 0.0
Zn442 Zn 0.48693 0.89102 0.6376 0.0
C443 C 0.5143 0.99288 0.59057 0.0
N444 N 0.54791 1.00389 0.60533 0.0
C445 C 0.54581 0.971 0.62157 0.0
N446 N 0.5115 0.94099 0.61713 0.0
N447 N 0.49292 0.95408 0.59739 0.0
C448 C 0.40014 0.95169 0.56095 0.0
O449 O 0.40019 0.95927 0.58322 0.0
O450 O 0.53602 0.84045 0.63951 0.0
Zn451 Zn 0.47087 0.90724 0.57773 0.0
N452 N 0.47101 0.92389 0.66585 0.0
C453 C 0.43205 0.9923 0.67609 0.0
C454 C 0.44892 0.96288 0.65954 0.0
C455 C 0.47598 0.91251 0.68856 0.0
N456 N 0.43693 0.98131 0.69853 0.0
C457 C 0.45804 0.94225 0.70561 0.0
O458 O 0.42221 0.86607 0.59088 0.0
C459 C 0.405 0.85006 0.60916 0.0
O460 O 0.42443 0.85817 0.62848 0.0
H461 H 0.44375 0.97081 0.64157 0.0
H462 H 0.49233 0.88061 0.69312 0.0
C463 C 0.51678 0.82788 0.56314 0.0
C464 C 0.5544 0.80027 0.55775 0.0
C465 C 0.60408 0.86192 0.5659 0.0
C466 C 0.56644 0.88954 0.57069 0.0
N467 N 0.52353 0.87193 0.56913 0.0
N468 N 0.59722 0.81816 0.55909 0.0
H469 H 0.48211 0.81532 0.56164 0.0
C470 C 0.5326 0.80073 0.64836 0.0
O471 O 0.49618 0.79082 0.66049 0.0
O472 O 0.43492 0.93291 0.55188 0.0
H473 H 0.57165 0.92453 0.57578 0.0
H474 H 0.41466 1.02345 0.67118 0.0
H475 H 0.63839 0.87542 0.56711 0.0
Zn476 Zn 0.67452 0.49855 0.6277 0.0
C477 C 0.58907 0.5337 0.57366 0.0
N478 N 0.59167 0.57523 0.58314 0.0
C479 C 0.61956 0.56913 0.60131 0.0
N480 N 0.63477 0.52527 0.60294 0.0
N481 N 0.61573 0.5029 0.58539 0.0
C482 C 0.54957 0.37824 0.59833 0.0
O483 O 0.5773 0.36186 0.61416 0.0
O484 O 0.72315 0.54653 0.63632 0.0
Zn485 Zn 0.6243 0.43736 0.57884 0.0
N486 N 0.63398 0.48016 0.65278 0.0
C487 C 0.56156 0.4467 0.66046 0.0
C488 C 0.59319 0.46402 0.64503 0.0
C489 C 0.64461 0.47929 0.6757 0.0
N490 N 0.57192 0.44583 0.68318 0.0
C491 C 0.61251 0.46153 0.69155 0.0
O492 O 0.67432 0.39917 0.59484 0.0
C493 C 0.70777 0.40356 0.60872 0.0
O494 O 0.71309 0.44054 0.62004 0.0
H495 H 0.58553 0.46393 0.62684 0.0
H496 H 0.67785 0.49108 0.68128 0.0
C497 C 0.65572 0.38844 0.53991 0.0
C498 C 0.67237 0.38306 0.51741 0.0
C499 C 0.64675 0.4581 0.50857 0.0
C500 C 0.63852 0.46549 0.53169 0.0
N501 N 0.6394 0.42985 0.54662 0.0
N502 N 0.66444 0.41752 0.50209 0.0
H503 H 0.65946 0.36171 0.5526 0.0
C504 C 0.76082 0.53609 0.64626 0.0
O505 O 0.76604 0.49449 0.65431 0.0
O506 O 0.56421 0.407 0.58379 0.0
H507 H 0.63443 0.49968 0.53763 0.0
H508 H 0.52908 0.43367 0.65442 0.0
H509 H 0.64371 0.48567 0.49627 0.0
Zn510 Zn 0.06515 0.68626 0.63352 0.0
C511 C 1.02555 0.60733 0.57799 0.0
N512 N 0.9955 0.5902 0.59294 0.0
C513 C 1.00122 0.6162 0.61177 0.0
N514 N 0.03447 0.64814 0.6089 0.0
N515 N 0.04898 0.64328 0.58737 0.0
C516 C 0.12581 0.62235 0.54339 0.0
O517 O 0.13264 0.6026 0.56341 0.0
O518 O 1.0272 0.74292 0.64295 0.0
Zn519 Zn 0.08807 0.68851 0.57238 0.0
N520 N 0.07788 0.64453 0.65936 0.0
C521 C 0.10453 0.56938 0.66759 0.0
C522 C 0.09053 0.60241 0.65191 0.0
C523 C 0.07965 0.65524 0.68227 0.0
N524 N 0.10639 0.57984 0.69024 0.0
C525 C 0.09463 0.62181 0.69835 0.0
O526 O 0.14621 0.71044 0.58893 0.0
C527 C 0.15811 0.71986 0.60951 0.0
O528 O 0.13049 0.71242 0.6261 0.0
H529 H 0.09052 0.59472 0.63374 0.0
H530 H 0.07111 0.6895 0.6877 0.0
C531 C 0.03382 0.74652 0.54406 0.0
C532 C 1.00525 0.78394 0.53884 0.0
C533 C 1.01293 0.80878 0.57768 0.0
C534 C 0.04141 0.7718 0.5825 0.0
N535 N 0.05066 0.74116 0.56569 0.0
N536 N 0.99573 0.81395 0.5561 0.0
H537 H 0.0437 0.72191 0.53133 0.0
C538 C 0.98925 0.75587 0.63418 0.0
O539 O 0.96919 0.7295 0.61897 0.0
O540 O 0.10839 0.66196 0.54273 0.0
H541 H 0.05614 0.7674 0.59944 0.0
H542 H 0.1145 0.53576 0.66177 0.0
H543 H 1.0051 0.83362 0.59083 0.0
H544 H 0.44926 0.06157 1.00547 0.0
H545 H 0.55151 0.9808 0.97137 0.0
H546 H 0.59608 0.97572 1.00696 0.0
H547 H 0.6077 0.99601 0.04803 0.0
H548 H 0.50503 0.07562 0.08243 0.0
H549 H 0.45874 0.07817 0.04723 0.0
C550 C 0.48044 0.04155 1.00609 0.0
C551 C 0.49626 1.02039 0.98587 0.0
C552 C 0.50635 0.039 0.02678 0.0
C553 C 0.53799 0.99648 0.98678 0.0
C554 C 0.56378 0.99388 1.00713 0.0
C555 C 0.57571 1.01476 0.0476 0.0
C556 C 0.56098 0.03757 0.06757 0.0
C557 C 0.54882 1.01563 0.02721 0.0
C558 C 0.51806 0.05937 0.06707 0.0
C559 C 0.49123 0.06036 0.04698 0.0
H560 H 0.59258 0.54335 0.04855 0.0
H561 H 0.44812 0.57252 0.04921 0.0
H562 H 0.43884 0.53051 1.01288 0.0
H563 H 0.47274 0.48772 0.97995 0.0
H564 H 0.61767 0.46248 0.97936 0.0
H565 H 0.6255 0.49861 1.01687 0.0
C566 C 0.55882 0.54045 0.04092 0.0
C567 C 0.52116 0.56222 0.05165 0.0
C568 C 0.55378 0.51579 0.02013 0.0
C569 C 0.47787 0.5573 0.04132 0.0
C570 C 0.47259 0.53291 0.02054 0.0
C571 C 0.50597 0.48914 0.98827 0.0
C572 C 0.54443 0.46968 0.97701 0.0
C573 C 0.51039 0.51223 1.00966 0.0
C574 C 0.58713 0.47355 0.98795 0.0
C575 C 0.59172 0.49568 1.00928 0.0
H576 H 0.08247 0.46076 0.98685 0.0
H577 H 0.0814 0.60651 0.97972 0.0
H578 H 0.0409 0.61484 1.01535 0.0
H579 H 1.00443 0.58131 0.0491 0.0
H580 H 1.00517 0.43561 0.05785 0.0
H581 H 0.04596 0.42662 0.02172 0.0
C582 C 0.07353 0.49448 0.99304 0.0
C583 C 0.0859 0.53346 0.97987 0.0
C584 C 0.0498 0.49887 1.01431 0.0
C585 C 0.07302 0.57614 0.98865 0.0
C586 C 0.04967 0.58085 1.00947 0.0
C587 C 1.0137 0.54732 0.04342 0.0
C588 C 1.00072 0.50903 0.05677 0.0
C589 C 0.03778 0.54251 0.02249 0.0
C590 C 1.01388 0.46578 0.04854 0.0
C591 C 0.03755 0.46066 0.0276 0.0
H592 H 0.05363 0.05946 0.0642 0.0
H593 H 1.01407 0.92579 0.04143 0.0
H594 H 1.00972 0.95276 1.00162 0.0
H595 H 1.01736 1.01505 0.97283 0.0
H596 H 0.05654 0.149 0.99536 0.0
H597 H 0.05994 0.12234 0.03536 0.0
C598 C 0.04458 0.03615 0.05045 0.0
C599 C 0.03706 0.98955 0.05572 0.0
C600 C 0.04098 0.05261 0.02749 0.0
C601 C 1.02334 0.96059 0.03775 0.0
C602 C 1.01998 0.97645 1.01497 0.0
C603 C 1.02581 0.0386 0.98658 0.0
C604 C 0.0339 0.08497 0.98115 0.0
C605 C 0.02892 1.02237 1.00955 0.0
C606 C 0.04697 0.11427 0.99913 0.0
C607 C 0.04982 0.09859 0.02201 0.0
H608 H 0.11149 0.06586 0.50201 0.0
H609 H 1.02689 0.97633 0.46155 0.0
H610 H 0.97095 0.97307 0.49284 0.0
H611 H 0.94534 0.99686 0.53177 0.0
H612 H 0.02945 0.08746 0.57188 0.0
H613 H 0.08537 0.09053 0.54067 0.0
C614 C 0.08114 0.04495 0.5002 0.0
C615 C 0.07466 1.01937 0.47976 0.0
C616 C 0.04832 0.04469 0.51805 0.0
C617 C 0.0341 0.99428 0.47741 0.0
C618 C 1.00166 0.99315 0.49522 0.0
C619 C 0.97557 1.01795 0.53352 0.0
C620 C 0.98203 0.04362 0.55394 0.0
C621 C 1.00824 1.01844 0.51559 0.0
C622 C 1.02227 0.0693 0.55611 0.0
C623 C 0.05474 0.07029 0.53833 0.0
H624 H 0.46827 0.09575 0.49675 0.0
H625 H 0.61319 0.07883 0.48728 0.0
H626 H 0.61938 0.04122 0.5249 0.0
H627 H 0.58262 1.00934 0.55985 0.0
H628 H 0.43935 0.03332 0.57088 0.0
H629 H 0.43295 0.07056 0.53332 0.0
C630 C 0.50133 0.08448 0.50312 0.0
C631 C 0.5404 0.09085 0.48932 0.0
C632 C 0.50452 0.0627 0.5248 0.0
C633 C 0.58284 0.07551 0.49774 0.0
C634 C 0.58624 0.05344 0.51916 0.0
C635 C 0.54989 1.02229 0.55388 0.0
C636 C 0.51054 1.01513 0.56744 0.0
C637 C 0.54719 0.04611 0.5327 0.0
C638 C 0.4691 0.03444 0.55997 0.0
C639 C 0.46579 0.05696 0.53871 0.0
H640 H 0.58831 0.58596 0.53556 0.0
H641 H 0.52319 0.46795 0.56432 0.0
H642 H 0.47714 0.45888 0.52915 0.0
H643 H 0.45628 0.4848 0.4892 0.0
H644 H 0.52648 0.60021 0.4604 0.0
H645 H 0.57014 0.60965 0.49607 0.0
C646 C 0.56407 0.55813 0.53414 0.0
C647 C 0.56041 0.52658 0.55242 0.0
C648 C 0.53833 0.55305 0.5137 0.0
C649 C 0.52849 0.49112 0.55024 0.0
C650 C 0.5016 0.48654 0.53017 0.0
C651 C 0.48026 0.51272 0.49107 0.0
C652 C 0.48635 0.54345 0.47256 0.0
C653 C 0.50625 0.51729 0.51167 0.0
C654 C 0.51961 0.57758 0.47471 0.0
C655 C 0.54495 0.58265 0.49505 0.0
H656 H 0.03615 0.5186 0.56543 0.0
H657 H 1.01277 0.65193 0.5369 0.0
H658 H 1.01066 0.61945 0.49799 0.0
H659 H 1.01546 0.55238 0.47198 0.0
H660 H 0.03394 0.41843 0.50068 0.0
H661 H 0.03681 0.451 0.53952 0.0
C662 C 0.03121 0.54063 0.55063 0.0
C663 C 0.02767 0.58841 0.55401 0.0
C664 C 0.02797 0.52107 0.52837 0.0
C665 C 1.01887 0.6159 0.53471 0.0
C666 C 1.01666 0.59696 0.5125 0.0
C667 C 1.01931 0.53016 0.48678 0.0
C668 C 1.02303 0.4824 0.48334 0.0
C669 C 1.02126 0.54956 0.50908 0.0
C670 C 0.029 0.4546 0.50276 0.0
C671 C 0.03142 0.47356 0.52498 0.0
H672 H 0.64541 0.93128 0.12308 0.0
H673 H 0.54009 1.00007 0.16107 0.0
H674 H 0.51031 0.92658 0.17415 0.0
H675 H 0.50441 0.84353 0.16772 0.0
H676 H 0.60627 0.77525 0.1267 0.0
H677 H 0.64694 0.84733 0.12176 0.0
C678 C 0.61755 0.93028 0.13525 0.0
C679 C 0.59551 0.97134 0.14137 0.0
C680 C 0.5987 0.88764 0.14132 0.0
C681 C 0.55841 0.96919 0.15656 0.0
C682 C 0.54069 0.92699 0.16357 0.0
C683 C 0.53599 0.84411 0.15805 0.0
C684 C 0.55165 0.80381 0.14726 0.0
C685 C 0.55891 0.88604 0.15492 0.0
C686 C 0.59296 0.80553 0.13501 0.0
C687 C 0.61632 0.84689 0.13217 0.0
H688 H 0.71193 0.5209 0.16489 0.0
H689 H 0.79546 0.60159 0.11949 0.0
H690 H 0.72762 0.64274 0.1061 0.0
H691 H 0.64347 0.64626 0.10233 0.0
H692 H 0.56019 0.56282 0.14614 0.0
H693 H 0.62841 0.53383 0.16562 0.0
C694 C 0.71555 0.54814 0.15241 0.0
C695 C 0.75905 0.55744 0.14301 0.0
C696 C 0.67608 0.57156 0.14457 0.0
C697 C 0.76271 0.59326 0.12699 0.0
C698 C 0.72374 0.61683 0.11924 0.0
C699 C 0.64021 0.62363 0.11701 0.0
C700 C 0.59634 0.60804 0.12324 0.0
C701 C 0.68006 0.60518 0.1273 0.0
C702 C 0.59295 0.57712 0.14161 0.0
C703 C 0.63231 0.55953 0.15238 0.0
H704 H 0.03832 0.70334 0.16513 0.0
H705 H 0.95671 0.78795 0.12016 0.0
H706 H 0.91455 0.72094 0.10696 0.0
H707 H 0.91031 0.63691 0.10341 0.0
H708 H 0.99054 0.55257 0.14885 0.0
H709 H 1.02213 0.62045 0.16735 0.0
C710 C 1.01067 0.70734 0.1528 0.0
C711 C 1.00193 0.75073 0.14304 0.0
C712 C 0.98588 0.66847 0.14552 0.0
C713 C 0.96523 0.75504 0.12745 0.0
C714 C 0.94088 0.71662 0.11996 0.0
C715 C 0.93278 0.63345 0.11821 0.0
C716 C 0.94719 0.58947 0.12503 0.0
C717 C 0.95207 0.67292 0.12823 0.0
C718 C 0.97751 0.58566 0.14375 0.0
C719 C 0.99654 0.62471 0.15397 0.0
H720 H 0.80931 0.92249 0.14155 0.0
H721 H 0.81543 0.06825 0.15214 0.0
H722 H 0.89794 0.06656 0.14762 0.0
H723 H 0.96697 1.02604 0.13542 0.0
H724 H 0.96161 0.88163 0.12257 0.0
H725 H 0.88142 0.87999 0.13419 0.0
C726 C 0.82876 0.95374 0.14334 0.0
C727 C 0.80564 0.99551 0.147 0.0
C728 C 0.87681 0.9527 0.14056 0.0
C729 C 0.83179 0.03559 0.14919 0.0
C730 C 0.87924 0.03472 0.14663 0.0
C731 C 0.94879 0.99385 0.13621 0.0
C732 C 0.97085 0.95377 0.12877 0.0
C733 C 0.90197 0.99375 0.14171 0.0
C734 C 0.94637 0.91255 0.12919 0.0
C735 C 0.89993 0.91192 0.13523 0.0
H736 H 0.158 0.26866 0.41226 0.0
H737 H 1.02666 0.2413 0.38111 0.0
H738 H 0.04059 0.15939 0.3843 0.0
H739 H 0.08409 0.09606 0.40175 0.0
H740 H 0.21137 0.12357 0.43628 0.0
H741 H 0.20614 0.2041 0.42526 0.0
C742 C 0.1328 0.24486 0.40569 0.0
C743 C 0.09103 0.26151 0.39666 0.0
C744 C 0.14059 0.19744 0.40808 0.0
C745 C 0.05889 0.2298 0.38834 0.0
C746 C 0.06685 0.18277 0.39015 0.0
C747 C 0.11185 0.11929 0.40575 0.0
C748 C 0.14896 0.10348 0.4191 0.0
C749 C 0.10687 0.16617 0.40068 0.0
C750 C 0.1835 0.13445 0.42521 0.0
C751 C 0.17987 0.18079 0.41936 0.0
H752 H 0.36219 1.00936 0.3757 0.0
H753 H 0.27717 0.10845 0.40995 0.0
H754 H 0.34497 0.15133 0.42149 0.0
H755 H 0.42858 0.15331 0.42748 0.0
H756 H 0.51335 0.05223 0.39509 0.0
H757 H 0.44616 1.01871 0.37653 0.0
C758 C 0.35831 0.04081 0.38531 0.0
C759 C 0.31425 0.05499 0.39228 0.0
C760 C 0.39776 0.06528 0.3921 0.0
C761 C 0.31032 0.09619 0.40454 0.0
C762 C 0.34926 0.12084 0.41117 0.0
C763 C 0.43254 0.12549 0.41533 0.0
C764 C 0.47631 0.10629 0.41209 0.0
C765 C 0.39322 0.10487 0.40574 0.0
C766 C 0.48058 0.06891 0.39715 0.0
C767 C 0.44183 0.049 0.38698 0.0
H768 H 0.52798 0.46595 0.39607 0.0
H769 H 0.38208 0.4578 0.40391 0.0
H770 H 0.38437 0.37611 0.39545 0.0
H771 H 0.43019 0.30458 0.39357 0.0
H772 H 0.57697 0.31405 0.38761 0.0
H773 H 0.57202 0.39687 0.38766 0.0
C774 C 0.49642 0.44668 0.39479 0.0
C775 C 0.4549 0.46818 0.40044 0.0
C776 C 0.49842 0.39924 0.3911 0.0
C777 C 0.41437 0.4426 0.3991 0.0
C778 C 0.41588 0.39543 0.39482 0.0
C779 C 0.46101 0.32472 0.39182 0.0
C780 C 0.50401 0.30267 0.39103 0.0
C781 C 0.45804 0.37295 0.39204 0.0
C782 C 0.54345 0.32967 0.3886 0.0
C783 C 0.5407 0.37727 0.38857 0.0
H784 H 0.13359 0.41765 0.42371 0.0
H785 H 0.05051 0.51861 0.38969 0.0
H786 H 0.11801 0.54901 0.37037 0.0
H787 H 0.20196 0.55488 0.36872 0.0
H788 H 0.28512 0.45486 0.40403 0.0
H789 H 0.21645 0.41537 0.41683 0.0
C790 C 0.12992 0.44426 0.41086 0.0
C791 C 0.08677 0.46435 0.40721 0.0
C792 C 0.16926 0.46265 0.40062 0.0
C793 C 0.08295 0.50125 0.39193 0.0
C794 C 0.12178 0.5192 0.38126 0.0
C795 C 0.20515 0.52386 0.37878 0.0
C796 C 0.24881 0.50843 0.38572 0.0
C797 C 0.16536 0.50143 0.38629 0.0
C798 C 0.25211 0.46789 0.3986 0.0
C799 C 0.21277 0.44527 0.40598 0.0
H800 H 0.57347 0.19854 0.87294 0.0
H801 H 0.46319 0.27911 0.90075 0.0
H802 H 0.42379 0.20951 0.91249 0.0
H803 H 0.42668 0.12691 0.92017 0.0
H804 H 0.53991 0.04737 0.8954 0.0
H805 H 0.57118 0.11481 0.87632 0.0
C806 C 0.54037 0.20098 0.88116 0.0
C807 C 0.52172 0.24431 0.88619 0.0
C808 C 0.51818 0.16069 0.88823 0.0
C809 C 0.47867 0.24646 0.8968 0.0
C810 C 0.45605 0.20655 0.90353 0.0
C811 C 0.45694 0.12388 0.90964 0.0
C812 C 0.48027 0.08181 0.90867 0.0
C813 C 0.47615 0.16355 0.89998 0.0
C814 C 0.52056 0.07893 0.89577 0.0
C815 C 0.53892 0.11779 0.88527 0.0
H816 H 0.47401 0.528 0.90188 0.0
H817 H 0.46957 0.38144 0.89857 0.0
H818 H 0.38989 0.38455 0.88572 0.0
H819 H 0.31743 0.42892 0.88277 0.0
H820 H 0.3227 0.5758 0.88845 0.0
H821 H 0.40527 0.57258 0.89306 0.0
C822 C 0.45617 0.49683 0.89732 0.0
C823 C 0.47804 0.45457 0.90093 0.0
C824 C 0.40963 0.49895 0.89114 0.0
C825 C 0.45424 0.41443 0.89533 0.0
C826 C 0.4081 0.41625 0.88852 0.0
C827 C 0.33671 0.46027 0.88459 0.0
C828 C 0.31335 0.5025 0.8857 0.0
C829 C 0.38476 0.45826 0.88752 0.0
C830 C 0.33927 0.54272 0.8879 0.0
C831 C 0.38674 0.54099 0.89049 0.0
H832 H 0.03726 0.35589 0.866 0.0
H833 H 0.12687 0.26883 0.9058 0.0
H834 H 0.17056 0.33517 0.91829 0.0
H835 H 0.17286 0.41843 0.92431 0.0
H836 H 0.08256 0.50542 0.88541 0.0
H837 H 0.05093 0.43911 0.86556 0.0
C838 C 0.06702 0.35121 0.87695 0.0
C839 C 0.07774 0.3073 0.88548 0.0
C840 C 0.09207 0.38978 0.88424 0.0
C841 C 0.11711 0.30208 0.89927 0.0
C842 C 0.1422 0.34015 0.90648 0.0
C843 C 0.14809 0.42298 0.91054 0.0
C844 C 0.13073 0.467 0.90605 0.0
C845 C 0.12866 0.3843 0.89995 0.0
C846 C 0.09767 0.4723 0.88866 0.0
C847 C 0.0787 0.43407 0.87771 0.0
H848 H 0.26706 0.13725 0.89377 0.0
H849 H 0.25802 0.99079 0.88749 0.0
H850 H 0.17516 0.99492 0.89068 0.0
H851 H 0.10735 0.03793 0.90289 0.0
H852 H 0.1161 0.18322 0.9121 0.0
H853 H 0.19597 0.18204 0.8999 0.0
C854 C 0.24689 0.10633 0.89262 0.0
C855 C 0.26917 0.06364 0.89084 0.0
C856 C 0.19885 0.10875 0.89522 0.0
C857 C 0.24219 1.02405 0.88925 0.0
C858 C 0.1946 0.02636 0.89104 0.0
C859 C 0.12617 0.0696 0.90112 0.0
C860 C 0.10523 0.11083 0.90773 0.0
C861 C 0.17278 0.0682 0.89514 0.0
C862 C 0.13052 0.15141 0.90609 0.0
C863 C 0.17675 0.15047 0.89969 0.0
H864 H 0.90952 0.79369 0.61857 0.0
H865 H 0.03275 0.82673 0.65605 0.0
H866 H 1.01369 0.90784 0.6539 0.0
H867 H 0.9696 0.96966 0.63502 0.0
H868 H 0.85068 0.93574 0.59473 0.0
H869 H 0.85918 0.85546 0.60505 0.0
C870 C 0.93174 0.81849 0.62675 0.0
C871 C 0.97294 0.80387 0.63716 0.0
C872 C 0.92103 0.86534 0.62504 0.0
C873 C 1.00101 0.83673 0.64778 0.0
C874 C 0.99017 0.88331 0.64649 0.0
C875 C 0.94415 0.94495 0.62961 0.0
C876 C 0.90865 0.95899 0.61472 0.0
C877 C 0.95119 0.89816 0.63438 0.0
C878 C 0.87717 0.92624 0.60692 0.0
C879 C 0.88274 0.88003 0.61239 0.0
H880 H 0.75145 0.93821 0.62495 0.0
H881 H 0.74725 0.06869 0.65902 0.0
H882 H 0.66455 0.06183 0.66371 0.0
H883 H 0.59254 1.02595 0.65071 0.0
H884 H 0.59674 0.89397 0.61836 0.0
H885 H 0.67995 0.89309 0.62123 0.0
C886 C 0.73254 0.96435 0.63408 0.0
C887 C 0.75531 1.00414 0.6414 0.0
C888 C 0.68488 0.95987 0.637 0.0
C889 C 0.73054 0.03771 0.65329 0.0
C890 C 0.68314 0.03393 0.65585 0.0
C891 C 0.61156 0.99587 0.64552 0.0
C892 C 0.58836 0.96009 0.63433 0.0
C893 C 0.6597 0.99609 0.64686 0.0
C894 C 0.6135 0.92162 0.62737 0.0
C895 C 0.66137 0.92158 0.62855 0.0
H896 H 0.54298 0.71503 0.66705 0.0
H897 H 0.59388 0.8022 0.6131 0.0
H898 H 0.6353 0.73806 0.59654 0.0
H899 H 0.64635 0.65512 0.59365 0.0
H900 H 0.59433 0.56692 0.6465 0.0
H901 H 0.56603 0.63332 0.66773 0.0
C902 C 0.56395 0.72023 0.65196 0.0
C903 C 0.5646 0.76353 0.64121 0.0
C904 C 0.58793 0.68285 0.64241 0.0
C905 C 0.59239 0.76951 0.62177 0.0
C906 C 0.61614 0.73268 0.61221 0.0
C907 C 0.63084 0.65064 0.61041 0.0
C908 C 0.62308 0.60607 0.61863 0.0
C909 C 0.61291 0.68893 0.62192 0.0
C910 C 0.60195 0.6007 0.64008 0.0
C911 C 0.58476 0.63879 0.65195 0.0
H912 H 0.84631 0.52371 0.66487 0.0
H913 H 0.76728 0.61751 0.62332 0.0
H914 H 0.83676 0.65896 0.61354 0.0
H915 H 0.92038 0.65859 0.61046 0.0
H916 H 1.00002 0.56335 0.6503 0.0
H917 H 0.9302 0.53308 0.66746 0.0
C918 C 0.84406 0.55386 0.6541 0.0
C919 C 0.80141 0.5668 0.64452 0.0
C920 C 0.88448 0.57737 0.64825 0.0
C921 C 0.7994 0.6063 0.63079 0.0
C922 C 0.83928 0.63005 0.62512 0.0
C923 C 0.92274 0.6335 0.62413 0.0
C924 C 0.96577 0.61468 0.62979 0.0
C925 C 0.88215 0.6148 0.633 0.0
C926 C 0.96777 0.57981 0.64633 0.0
C927 C 0.92757 0.56174 0.65574 0.0
H928 H 0.55625 0.18342 0.95349 0.0
H929 H 0.4424 0.21976 0.99658 0.0
H930 H 0.47369 0.17358 0.02775 0.0
H931 H 0.54335 0.14371 0.04542 0.0
H932 H 0.65698 0.10362 1.00305 0.0
H933 H 0.61669 0.13239 0.96883 0.0
C934 C 0.53745 0.17943 0.96939 0.0
C935 C 0.4984 0.20634 0.97332 0.0
C936 C 0.55672 0.15448 0.98757 0.0
C937 C 0.47309 0.19999 0.99346 0.0
C938 C 0.49144 0.17437 1.01144 0.0
C939 C 0.55884 0.1401 0.02862 0.0
C940 C 0.60337 0.12291 0.02669 0.0
C941 C 0.53499 0.15499 1.0092 0.0
C942 C 0.6229 0.11766 1.00487 0.0
C943 C 0.59982 0.13378 0.98536 0.0
H944 H 0.16862 0.58348 0.07493 0.0
H945 H 0.19126 0.70331 0.03369 0.0
H946 H 0.25803 0.72218 0.05659 0.0
H947 H 0.32412 0.68601 0.07513 0.0
H948 H 0.3082 0.56041 0.11266 0.0
H949 H 0.22606 0.56037 0.10361 0.0
C950 C 0.187 0.61497 0.07172 0.0
C951 C 0.17844 0.63902 0.05113 0.0
C952 C 0.22853 0.62236 0.08322 0.0
C953 C 0.19921 0.68192 0.04836 0.0
C954 C 0.23829 0.69228 0.06116 0.0
C955 C 0.30225 0.65974 0.08217 0.0
C956 C 0.32174 0.62251 0.09385 0.0
C957 C 0.25588 0.65969 0.07652 0.0
C958 C 0.29356 0.58875 0.10317 0.0
C959 C 0.24675 0.58889 0.09803 0.0
H960 H 0.0618 0.22373 0.02793 0.0
H961 H 0.10891 0.35313 1.00122 0.0
H962 H 0.11311 0.38322 0.04003 0.0
H963 H 0.07642 0.38206 0.07755 0.0
H964 H 1.01134 0.25909 0.10132 0.0
H965 H 0.0414 0.21741 0.06839 0.0
C966 C 0.07247 0.25873 0.03027 0.0
C967 C 0.08087 0.28736 1.01121 0.0
C968 C 0.07093 0.27731 0.05244 0.0
C969 C 0.09975 0.33081 1.0153 0.0
C970 C 0.10206 0.34827 0.03758 0.0
C971 C 0.0705 0.34562 0.076 0.0
C972 C 0.03959 0.32423 0.09097 0.0
C973 C 0.08353 0.32332 0.05582 0.0
C974 C 0.03383 0.27673 0.08957 0.0
C975 C 0.05036 0.25305 0.07046 0.0
H976 H 0.21611 0.10881 0.98284 0.0
H977 H 0.2015 0.99634 0.93582 0.0
H978 H 0.15043 0.9579 0.96241 0.0
H979 H 0.1324 0.94574 1.00297 0.0
H980 H 0.16107 0.05205 0.05231 0.0
H981 H 0.185 0.10281 0.02146 0.0
C982 C 0.19972 0.07701 0.97798 0.0
C983 C 0.21285 0.05504 0.95766 0.0
C984 C 0.17524 0.05268 0.99451 0.0
C985 C 0.19148 1.01401 0.95132 0.0
C986 C 0.16337 0.99141 0.96687 0.0
C987 C 0.14341 0.9802 1.00692 0.0
C988 C 0.14697 0.99454 0.02989 0.0
C989 C 0.15874 1.00854 0.98922 0.0
C990 C 0.15988 0.03966 0.03478 0.0
C991 C 0.17306 0.06888 1.01713 0.0
H992 H 1.02519 0.73938 0.49747 0.0
H993 H 0.9475 0.85247 0.52521 0.0
H994 H 0.9393 0.88408 0.48683 0.0
H995 H 0.97332 0.89096 0.44856 0.0
H996 H 0.05881 0.78243 0.42287 0.0
H997 H 0.04311 0.73719 0.45697 0.0
C998 C 1.00589 0.77058 0.49558 0.0
C999 C 0.98945 0.79468 0.5149 0.0
C1000 C 1.00277 0.78974 0.47353 0.0
C1001 C 0.96231 0.83379 0.51101 0.0
C1002 C 0.95735 0.85199 0.48894 0.0
C1003 C 0.98696 0.85659 0.45 0.0
C1004 C 1.01912 0.84113 0.43385 0.0
C1005 C 0.98031 0.83199 0.47042 0.0
C1006 C 0.03521 0.79597 0.43544 0.0
C1007 C 1.02669 0.7702 0.45514 0.0
H1008 H 0.8331 0.22156 0.55021 0.0
H1009 H 0.86294 0.13727 0.49143 0.0
H1010 H 0.7812 0.13355 0.48189 0.0
H1011 H 0.70199 0.15257 0.49109 0.0
H1012 H 0.67263 0.24395 0.54726 0.0
H1013 H 0.75389 0.24493 0.55791 0.0
C1014 C 0.82152 0.20295 0.53513 0.0
C1015 C 0.85335 0.17963 0.52144 0.0
C1016 C 0.77489 0.20096 0.52991 0.0
C1017 C 0.83867 0.15572 0.50195 0.0
C1018 C 0.7921 0.15308 0.49675 0.0
C1019 C 0.71326 0.17184 0.506 0.0
C1020 C 0.68154 0.19724 0.51881 0.0
C1021 C 0.75997 0.17484 0.51089 0.0
C1022 C 0.69657 0.22347 0.53752 0.0
C1023 C 0.74291 0.22449 0.54338 0.0
H1024 H 0.49684 0.67273 0.48041 0.0
H1025 H 0.39857 0.62847 0.53067 0.0
H1026 H 0.43901 0.67227 0.56051 0.0
H1027 H 0.49556 0.73248 0.56996 0.0
H1028 H 0.59557 0.77094 0.51927 0.0
H1029 H 0.56309 0.71659 0.49212 0.0
C1030 C 0.48467 0.67182 0.49799 0.0
C1031 C 0.44443 0.64838 0.50336 0.0
C1032 C 0.50892 0.69509 0.51493 0.0
C1033 C 0.42937 0.64683 0.52621 0.0
C1034 C 0.45253 0.67162 0.5432 0.0
C1035 C 0.51098 0.72773 0.55321 0.0
C1036 C 0.54674 0.75648 0.54618 0.0
C1037 C 0.49148 0.69714 0.5375 0.0
C1038 C 0.56765 0.74943 0.52485 0.0
C1039 C 0.54867 0.71895 0.50921 0.0
H1040 H 0.70522 0.3616 0.47547 0.0
H1041 H 0.72939 0.33229 0.54714 0.0
H1042 H 0.81131 0.3357 0.541 0.0
H1043 H 0.87357 0.37177 0.51854 0.0
H1044 H 0.84401 0.41979 0.44977 0.0
H1045 H 0.76715 0.38929 0.45205 0.0
C1046 C 0.72846 0.355 0.48972 0.0
C1047 C 0.71092 0.3516 0.51208 0.0
C1048 C 0.77484 0.36468 0.48697 0.0
C1049 C 0.74131 0.33852 0.52985 0.0
C1050 C 0.78854 0.34164 0.52653 0.0
C1051 C 0.85022 0.37544 0.5041 0.0
C1052 C 0.86403 0.3993 0.48435 0.0
C1053 C 0.80519 0.35932 0.50579 0.0
C1054 C 0.83378 0.40314 0.46555 0.0
C1055 C 0.78995 0.38508 0.46666 0.0
H1056 H 0.32813 0.8955 0.02365 0.0
H1057 H 0.44611 0.94426 0.98728 0.0
H1058 H 0.46697 0.8666 0.97678 0.0
H1059 H 0.4578 0.78519 0.98308 0.0
H1060 H 0.33932 0.73481 0.01893 0.0
H1061 H 0.31054 0.8127 0.02292 0.0
C1062 C 0.35812 0.88887 1.01327 0.0
C1063 C 0.38608 0.92517 1.00642 0.0
C1064 C 0.36956 0.84399 1.00712 0.0
C1065 C 0.42442 0.91669 0.99274 0.0
C1066 C 0.43621 0.87231 0.98669 0.0
C1067 C 0.42502 0.79089 0.99123 0.0
C1068 C 0.40197 0.7545 1.00172 0.0
C1069 C 0.40977 0.83566 0.99439 0.0
C1070 C 0.35887 0.76254 1.01161 0.0
C1071 C 0.3427 0.80709 1.01422 0.0
H1072 H 0.68343 0.34248 1.01367 0.0
H1073 H 0.72865 0.3726 0.94474 0.0
H1074 H 0.80453 0.34532 0.95381 0.0
H1075 H 0.86163 0.33407 0.98324 0.0
H1076 H 0.82086 0.32622 0.05401 0.0
H1077 H 0.74139 0.31832 0.04259 0.0
C1078 C 0.70988 0.34241 1.00068 0.0
C1079 C 0.7006 0.36032 0.97877 0.0
C1080 C 0.75486 0.32966 1.00645 0.0
C1081 C 0.735 0.35982 0.96194 0.0
C1082 C 0.77852 0.34384 0.96701 0.0
C1083 C 0.83538 0.32851 0.99607 0.0
C1084 C 0.84664 0.33406 0.01931 0.0
C1085 C 0.78948 0.33138 0.98952 0.0
C1086 C 0.81316 0.32397 0.03588 0.0
C1087 C 0.7672 0.32094 0.02936 0.0
H1088 H 0.06386 0.74683 0.93885 0.0
H1089 H 0.97975 0.63536 0.9616 0.0
H1090 H 0.94128 0.68544 0.98882 0.0
H1091 H 0.95257 0.7511 1.01411 0.0
H1092 H 0.04014 0.86151 0.9927 0.0
H1093 H 0.05551 0.82225 0.95669 0.0
C1094 C 0.03529 0.7344 0.94889 0.0
C1095 C 1.02541 0.68766 0.94898 0.0
C1096 C 1.01526 0.76274 0.96531 0.0
C1097 C 0.98806 0.67138 0.96156 0.0
C1098 C 0.96662 0.69985 0.9774 0.0
C1099 C 0.97368 0.76745 1.00125 0.0
C1100 C 0.99814 0.80719 1.00676 0.0
C1101 C 0.98311 0.74425 0.98081 0.0
C1102 C 1.02363 0.82907 0.98953 0.0
C1103 C 0.0321 0.80689 0.96881 0.0
H1104 H 0.85293 0.07078 0.08535 0.0
H1105 H 0.8483 0.93892 0.05255 0.0
H1106 H 0.89963 0.9658 0.02262 0.0
H1107 H 0.92471 0.03207 1.00029 0.0
H1108 H 0.92491 0.16561 0.03153 0.0
H1109 H 0.89488 0.13337 0.06712 0.0
C1110 C 0.86425 0.04766 0.07196 0.0
C1111 C 0.84486 1.00394 0.07027 0.0
C1112 C 0.89098 0.0643 0.05395 0.0
C1113 C 0.86171 0.97327 0.05379 0.0
C1114 C 0.8904 0.98886 0.03641 0.0
C1115 C 0.91884 0.05398 1.01501 0.0
C1116 C 0.92507 0.10129 1.01309 0.0
C1117 C 0.90164 0.03527 0.03531 0.0
C1118 C 0.91907 0.12917 0.03248 0.0
C1119 C 0.90218 0.11074 0.05286 0.0
H1120 H 0.03199 0.27366 0.60932 0.0
H1121 H 0.09776 0.14558 0.59377 0.0
H1122 H 0.13067 0.1785 0.55915 0.0
H1123 H 0.11802 0.23416 0.52806 0.0
H1124 H 0.04919 0.36109 0.54305 0.0
H1125 H 0.03982 0.33797 0.58292 0.0
C1126 C 0.0552 0.25348 0.59896 0.0
C1127 C 0.06017 0.20656 0.60325 0.0
C1128 C 0.0716 0.27179 0.57834 0.0
C1129 C 0.0921 0.1815 0.59031 0.0
C1130 C 0.11038 0.20011 0.57027 0.0
C1131 C 0.10229 0.2574 0.5402 0.0
C1132 C 0.08164 0.29785 0.5323 0.0
C1133 C 0.09665 0.24374 0.56312 0.0
C1134 C 0.06278 0.32834 0.54839 0.0
C1135 C 0.05787 0.31542 0.57129 0.0
H1136 H 0.19287 0.95658 0.53537 0.0
H1137 H 0.23151 0.83638 0.49755 0.0
H1138 H 0.31169 0.84714 0.50884 0.0
H1139 H 0.37006 0.89096 0.52966 0.0
H1140 H 0.33113 1.01157 0.56731 0.0
H1141 H 0.25161 1.00171 0.55518 0.0
C1142 C 0.21896 0.93241 0.53008 0.0
C1143 C 0.20697 0.89517 0.51634 0.0
C1144 C 0.26472 0.9398 0.53594 0.0
C1145 C 0.24054 0.86459 0.50872 0.0
C1146 C 0.28618 0.87112 0.51487 0.0
C1147 C 0.34433 0.91576 0.5346 0.0
C1148 C 0.3561 0.95228 0.54901 0.0
C1149 C 0.29868 0.9089 0.52827 0.0
C1150 C 0.32252 0.98356 0.55593 0.0
C1151 C 0.27714 0.9776 0.54928 0.0
H1152 H 0.53311 0.28726 0.60017 0.0
H1153 H 0.47118 0.41564 0.5816 0.0
H1154 H 0.42729 0.3786 0.55124 0.0
H1155 H 0.43121 0.31761 0.52261 0.0
H1156 H 0.49332 0.18872 0.54076 0.0
H1157 H 0.51106 0.21755 0.57901 0.0
C1158 C 0.50797 0.30657 0.5904 0.0
C1159 C 0.50715 0.35434 0.59203 0.0
C1160 C 0.48421 0.28524 0.57234 0.0
C1161 C 0.47363 0.37894 0.57982 0.0
C1162 C 0.44878 0.35782 0.56232 0.0
C1163 C 0.44682 0.29497 0.53517 0.0
C1164 C 0.46504 0.25283 0.52816 0.0
C1165 C 0.45756 0.31202 0.55705 0.0
C1166 C 0.48257 0.22301 0.5451 0.0
C1167 C 0.49248 0.23932 0.56711 0.0
H1168 H 0.13905 0.53151 0.53845 0.0
H1169 H 0.12963 0.65721 0.49997 0.0
H1170 H 0.15627 0.61815 0.46548 0.0
H1171 H 0.20027 0.5542 0.44994 0.0
H1172 H 0.21777 0.43197 0.49027 0.0
H1173 H 0.16614 0.46191 0.5194 0.0
C1174 C 0.14235 0.5502 0.52244 0.0
C1175 C 0.13473 0.5975 0.52192 0.0
C1176 C 0.15827 0.52774 0.50284 0.0
C1177 C 0.13693 0.62099 0.5009 0.0
C1178 C 0.1518 0.59864 0.48114 0.0
C1179 C 0.19143 0.53362 0.46478 0.0
C1180 C 0.21479 0.49246 0.46884 0.0
C1181 C 0.16527 0.55278 0.48236 0.0
C1182 C 0.2013 0.46459 0.48723 0.0
C1183 C 0.17252 0.48209 0.50413 0.0
H1184 H 0.65647 0.06544 0.31248 0.0
H1185 H 0.55797 0.17502 0.31777 0.0
H1186 H 0.5573 0.183 0.27608 0.0
H1187 H 0.57991 0.15532 0.2381 0.0
H1188 H 0.67534 0.04325 0.23246 0.0
H1189 H 0.6822 0.04029 0.27432 0.0
C1190 C 0.63496 0.09131 0.30459 0.0
C1191 C 0.60738 0.11961 0.31851 0.0
C1192 C 0.63407 0.09523 0.28048 0.0
C1193 C 0.58014 0.15315 0.30781 0.0
C1194 C 0.57941 0.15749 0.28384 0.0
C1195 C 0.60249 0.13029 0.24594 0.0
C1196 C 0.62697 0.09948 0.23194 0.0
C1197 C 0.60558 0.12819 0.27003 0.0
C1198 C 0.65645 0.06779 0.24257 0.0
C1199 C 0.66006 0.0658 0.2666 0.0
H1200 H 0.47818 0.65817 0.29921 0.0
H1201 H 0.3853 0.54414 0.30361 0.0
H1202 H 0.3812 0.54078 0.26169 0.0
H1203 H 0.40897 0.56584 0.22391 0.0
H1204 H 0.50475 0.67755 0.21972 0.0
H1205 H 0.50227 0.68622 0.26141 0.0
C1206 C 0.45671 0.63266 0.29108 0.0
C1207 C 0.43218 0.60137 0.3048 0.0
C1208 C 0.45518 0.63035 0.26692 0.0
C1209 C 0.40418 0.56905 0.29376 0.0
C1210 C 0.40215 0.56683 0.26969 0.0
C1211 C 0.42918 0.59238 0.23202 0.0
C1212 C 0.45708 0.62093 0.21842 0.0
C1213 C 0.42827 0.59667 0.25613 0.0
C1214 C 0.4825 0.65536 0.22942 0.0
C1215 C 0.48142 0.66009 0.2534 0.0
H1216 H 0.91571 0.48618 0.30661 0.0
H1217 H 1.02383 0.38581 0.31115 0.0
H1218 H 1.0247 0.37992 0.26928 0.0
H1219 H 0.99847 0.40668 0.23139 0.0
H1220 H 0.89276 0.50959 0.22688 0.0
H1221 H 0.88726 0.51061 0.26874 0.0
C1222 C 0.9395 0.46278 0.29856 0.0
C1223 C 0.9697 0.43649 0.31234 0.0
C1224 C 0.94035 0.46007 0.27439 0.0
C1225 C 0.99973 0.40611 0.30132 0.0
C1226 C 1.00052 0.40299 0.27725 0.0
C1227 C 0.97398 0.42934 0.23945 0.0
C1228 C 0.94607 0.45803 0.22567 0.0
C1229 C 0.9715 0.43033 0.26363 0.0
C1230 C 0.91433 0.48663 0.2367 0.0
C1231 C 0.91143 0.48752 0.26076 0.0
H1232 H 0.0587 0.9273 0.30565 0.0
H1233 H 0.1889 0.9961 0.30963 0.0
H1234 H 0.19853 0.98683 0.26823 0.0
H1235 H 0.16692 0.9659 0.23044 0.0
H1236 H 0.03615 0.89857 0.22599 0.0
H1237 H 0.03019 0.90005 0.268 0.0
C1238 C 0.08949 0.93991 0.29754 0.0
C1239 C 0.12298 0.96252 0.31099 0.0
C1240 C 0.09462 0.93487 0.27356 0.0
C1241 C 0.16274 0.97813 0.30004 0.0
C1242 C 0.1681 0.97317 0.27623 0.0
C1243 C 0.13726 0.95099 0.23863 0.0
C1244 C 0.10191 0.9323 0.2249 0.0
C1245 C 0.13383 0.95254 0.26277 0.0
C1246 C 0.06408 0.91276 0.23595 0.0
C1247 C 0.06048 0.91403 0.26003 0.0
H1248 H 0.40224 0.97728 0.73812 0.0
H1249 H 0.51973 0.88902 0.73057 0.0
H1250 H 0.52668 0.88373 0.77239 0.0
H1251 H 0.50293 0.90871 0.81091 0.0
H1252 H 0.3885 1.00139 0.81775 0.0
H1253 H 0.37709 1.00007 0.77634 0.0
C1254 C 0.42945 0.95666 0.74548 0.0
C1255 C 0.46049 0.93372 0.73093 0.0
C1256 C 0.43397 0.9547 0.7695 0.0
C1257 C 0.49495 0.90672 0.74106 0.0
C1258 C 0.49921 0.90402 0.76507 0.0
C1259 C 0.47529 0.92862 0.80347 0.0
C1260 C 0.44659 0.95497 0.81783 0.0
C1261 C 0.46943 0.9286 0.77943 0.0
C1262 C 0.41083 0.9801 0.80758 0.0
C1263 C 0.40446 0.97971 0.78372 0.0
H1264 H 0.64866 0.48927 0.79795 0.0
H1265 H 0.5504 0.37982 0.80193 0.0
H1266 H 0.55013 0.37374 0.75998 0.0
H1267 H 0.5731 0.40362 0.72218 0.0
H1268 H 0.66876 0.51556 0.71861 0.0
H1269 H 0.67479 0.51614 0.76039 0.0
C1270 C 0.62726 0.4638 0.78974 0.0
C1271 C 0.59944 0.43515 0.80329 0.0
C1272 C 0.62667 0.46105 0.76561 0.0
C1273 C 0.57254 0.40204 0.79217 0.0
C1274 C 0.57208 0.39883 0.7681 0.0
C1275 C 0.59555 0.42807 0.73046 0.0
C1276 C 0.62047 0.45946 0.71697 0.0
C1277 C 0.5983 0.42879 0.75464 0.0
C1278 C 0.64963 0.49048 0.72821 0.0
C1279 C 0.6528 0.49113 0.75224 0.0
H1280 H 0.07378 0.65849 0.80511 0.0
H1281 H 0.17961 0.55563 0.80792 0.0
H1282 H 0.18338 0.55545 0.76595 0.0
H1283 H 0.1524 0.57984 0.72847 0.0
H1284 H 0.0448 0.68089 0.72573 0.0
H1285 H 0.04633 0.68652 0.76763 0.0
C1286 C 0.09801 0.63618 0.79662 0.0
C1287 C 0.12633 0.60704 0.8099 0.0
C1288 C 0.09952 0.63576 0.77242 0.0
C1289 C 0.15776 0.57885 0.79841 0.0
C1290 C 0.15962 0.57843 0.77431 0.0
C1291 C 0.12939 0.60341 0.73696 0.0
C1292 C 0.09845 0.62986 0.72371 0.0
C1293 C 0.13003 0.60606 0.76115 0.0
C1294 C 0.06938 0.66048 0.7352 0.0
C1295 C 0.06997 0.66343 0.75927 0.0
H1296 H 0.92018 0.08273 0.803 0.0
H1297 H 0.03344 0.17659 0.80591 0.0
H1298 H 0.03267 0.18221 0.76385 0.0
H1299 H 1.00432 0.1548 0.72613 0.0
H1300 H 0.89137 0.06027 0.72369 0.0
H1301 H 0.88735 0.06102 0.76558 0.0
C1302 C 0.94445 0.10489 0.79448 0.0
C1303 C 0.977 0.12905 0.80774 0.0
C1304 C 0.94399 0.10765 0.77029 0.0
C1305 C 1.00776 0.15793 0.79632 0.0
C1306 C 1.00756 0.16081 0.77219 0.0
C1307 C 0.97841 0.13472 0.73472 0.0
C1308 C 0.94817 0.10751 0.72152 0.0
C1309 C 0.97651 0.13499 0.75898 0.0
C1310 C 0.91471 0.08205 0.73311 0.0
C1311 C 0.91266 0.08212 0.75719 0.0
H1312 H 0.85179 0.31281 0.09048 0.0
H1313 H 0.78984 0.3716 0.15063 0.0
H1314 H 0.74104 0.30379 0.15453 0.0
H1315 H 0.71529 0.22637 0.14044 0.0
H1316 H 0.7751 0.17355 0.07811 0.0
H1317 H 0.82391 0.24014 0.07536 0.0
C1318 C 0.82715 0.31151 0.10428 0.0
C1319 C 0.82467 0.34822 0.12005 0.0
C1320 C 0.79828 0.27292 0.10603 0.0
C1321 C 0.79285 0.34447 0.13809 0.0
C1322 C 0.76476 0.30545 0.14032 0.0
C1323 C 0.73887 0.2295 0.12622 0.0
C1324 C 0.74088 0.19419 0.10948 0.0
C1325 C 0.76701 0.26922 0.12435 0.0
C1326 C 0.77191 0.19964 0.0912 0.0
C1327 C 0.80029 0.23793 0.08961 0.0
H1328 H 0.34277 0.73056 0.13381 0.0
H1329 H 0.38516 0.78086 0.06752 0.0
H1330 H 0.3131 0.82198 0.06337 0.0
H1331 H 0.23595 0.84194 0.07717 0.0
H1332 H 0.19276 0.79412 0.14369 0.0
H1333 H 0.26571 0.75382 0.14864 0.0
C1334 C 0.33653 0.75078 0.1185 0.0
C1335 C 0.37043 0.75217 0.10106 0.0
C1336 C 0.29394 0.77444 0.11591 0.0
C1337 C 0.36059 0.77859 0.08133 0.0
C1338 C 0.31889 0.80208 0.07879 0.0
C1339 C 0.24227 0.82282 0.09284 0.0
C1340 C 0.20793 0.82146 0.10998 0.0
C1341 C 0.28496 0.79994 0.09576 0.0
C1342 C 0.21785 0.79632 0.13011 0.0
C1343 C 0.25989 0.77304 0.13297 0.0
H1344 H 0.33191 0.7229 0.39404 0.0
H1345 H 0.26733 0.67014 0.45505 0.0
H1346 H 0.22067 0.73866 0.4579 0.0
H1347 H 0.19775 0.8145 0.44382 0.0
H1348 H 0.26341 0.87083 0.38404 0.0
H1349 H 0.30939 0.80112 0.38017 0.0
C1350 C 0.30749 0.72628 0.40788 0.0
C1351 C 0.30361 0.69063 0.4243 0.0
C1352 C 0.28069 0.76696 0.40979 0.0
C1353 C 0.27175 0.6965 0.44219 0.0
C1354 C 0.24474 0.73594 0.44386 0.0
C1355 C 0.222 0.81173 0.42985 0.0
C1356 C 0.22652 0.84847 0.41419 0.0
C1357 C 0.24892 0.77156 0.42788 0.0
C1358 C 0.2588 0.84363 0.39642 0.0
C1359 C 0.28521 0.80347 0.39416 0.0
H1360 H 0.8586 0.29938 0.46042 0.0
H1361 H 0.86603 0.31969 0.38711 0.0
H1362 H 0.79054 0.28456 0.38239 0.0
H1363 H 0.72008 0.24913 0.39938 0.0
H1364 H 0.71226 0.23776 0.4732 0.0
H1365 H 0.78948 0.26627 0.47714 0.0
C1366 C 0.84402 0.29613 0.44332 0.0
C1367 C 0.8687 0.31262 0.42419 0.0
C1368 C 0.79988 0.27685 0.44074 0.0
C1369 C 0.84838 0.30771 0.40227 0.0
C1370 C 0.80488 0.28754 0.39954 0.0
C1371 C 0.73523 0.25297 0.41631 0.0
C1372 C 0.70974 0.24004 0.43595 0.0
C1373 C 0.77987 0.27222 0.41868 0.0
C1374 C 0.7305 0.24619 0.45768 0.0
C1375 C 0.77497 0.26307 0.46003 0.0
H1376 H 0.34733 0.84079 0.90408 0.0
H1377 H 0.30484 0.87422 0.97302 0.0
H1378 H 0.26413 0.80257 0.97582 0.0
H1379 H 0.2375 0.73107 0.95889 0.0
H1380 H 0.27398 0.69696 0.88924 0.0
H1381 H 0.31906 0.76744 0.88659 0.0
C1382 C 0.32944 0.83231 0.91977 0.0
C1383 C 0.3308 0.86322 0.93859 0.0
C1384 C 0.3043 0.79064 0.92114 0.0
C1385 C 0.30631 0.85123 0.95851 0.0
C1386 C 0.28229 0.8101 0.96008 0.0
C1387 C 0.25541 0.7386 0.94306 0.0
C1388 C 0.25203 0.70795 0.92431 0.0
C1389 C 0.28082 0.77957 0.94154 0.0
C1390 C 0.2756 0.71937 0.90402 0.0
C1391 C 0.30152 0.75993 0.9025 0.0
H1392 H 0.82789 0.20528 0.94334 0.0
H1393 H 0.88566 0.27191 0.88424 0.0
H1394 H 0.81275 0.31136 0.87714 0.0
H1395 H 0.73183 0.32983 0.88882 0.0
H1396 H 0.67541 0.25791 0.94696 0.0
H1397 H 0.74724 0.21838 0.95293 0.0
C1398 C 0.82469 0.22819 0.92877 0.0
C1399 C 0.863 0.23536 0.91445 0.0
C1400 C 0.78219 0.25029 0.92451 0.0
C1401 C 0.85725 0.2652 0.8956 0.0
C1402 C 0.8153 0.28804 0.89155 0.0
C1403 C 0.73495 0.30505 0.90258 0.0
C1404 C 0.69725 0.29777 0.91747 0.0
C1405 C 0.77731 0.28124 0.90599 0.0
C1406 C 0.70298 0.2651 0.93516 0.0
C1407 C 0.74451 0.24219 0.93871 0.0
H1408 H 0.69331 0.31073 0.60564 0.0
H1409 H 0.80005 0.40949 0.61688 0.0
H1410 H 0.85685 0.34798 0.61902 0.0
H1411 H 0.87696 0.2652 0.61755 0.0
H1412 H 0.76878 0.16649 0.61067 0.0
H1413 H 0.71254 0.22809 0.60706 0.0
C1414 C 0.72899 0.31886 0.60864 0.0
C1415 C 0.74208 0.36517 0.61099 0.0
C1416 C 0.76154 0.28292 0.61069 0.0
C1417 C 0.78862 0.37452 0.61508 0.0
C1418 C 0.82129 0.33918 0.61625 0.0
C1419 C 0.84104 0.25716 0.6154 0.0
C1420 C 0.82743 0.21081 0.61442 0.0
C1421 C 0.80829 0.29313 0.61409 0.0
C1422 C 0.78051 0.20147 0.61173 0.0
C1423 C 0.74818 0.23687 0.60957 0.0
H1424 H 0.22295 0.74643 0.57802 0.0
H1425 H 0.1983 0.74421 0.65102 0.0
H1426 H 0.27167 0.78234 0.65788 0.0
H1427 H 0.34361 0.81867 0.64298 0.0
H1428 H 0.36506 0.82052 0.56954 0.0
H1429 H 0.29344 0.78096 0.5634 0.0
C1430 C 0.23346 0.75395 0.59551 0.0
C1431 C 0.20433 0.74192 0.61391 0.0
C1432 C 0.27586 0.77633 0.59939 0.0
C1433 C 0.21939 0.75262 0.63638 0.0
C1434 C 0.26165 0.77465 0.64035 0.0
C1435 C 0.33285 0.81015 0.62565 0.0
C1436 C 0.3608 0.82311 0.60684 0.0
C1437 C 0.29037 0.787 0.62198 0.0
C1438 C 0.34521 0.81157 0.58454 0.0
C1439 C 0.30379 0.78868 0.58089 0.0
loop_
_geom_bond_atom_site_label_1
_geom_bond_atom_site_label_2
_geom_bond_distance
_geom_bond_site_symmetry_2
_ccdc_geom_bond_type
Zn0 N4 2.020 . S
Zn0 O8 2.019 . S
Zn0 N10 2.119 . S
Zn0 O18 1.975 . S
C1 N2 1.334 . S
C1 N5 1.336 1_565 S
N2 C1 1.334 . S
N2 C3 1.334 1_565 S
C3 N2 1.334 1_545 S
C3 N4 1.336 . S
N4 Zn0 2.020 . S
N4 C3 1.336 . S
N4 N5 1.354 . S
N5 C1 1.336 1_545 S
N5 N4 1.354 . S
N5 Zn9 2.020 . S
C6 O7 1.244 . S
C6 O30 1.257 1_565 S
O7 C6 1.244 . S
O8 Zn0 2.019 . S
O8 C28 1.257 . S
Zn9 N5 2.020 . S
Zn9 O16 1.975 . S
Zn9 N25 2.119 . S
Zn9 O30 2.019 . S
N10 Zn0 2.119 . S
N10 C12 1.334 . S
N10 C13 1.328 . S
C11 C12 1.391 . S
C11 N14 1.329 . S
C11 H32 0.930 . S
C12 N10 1.334 . S
C12 C11 1.391 . S
C12 H19 0.930 . S
C13 N10 1.328 . S
C13 C15 1.392 . S
C13 H20 0.930 . S
N14 C11 1.329 . S
N14 C15 1.331 . S
C15 C13 1.392 . S
C15 N14 1.331 . S
O16 Zn9 1.975 . S
O16 C17 1.252 . S
C17 O16 1.252 . S
C17 O18 1.252 . S
O18 Zn0 1.975 . S
O18 C17 1.252 . S
H19 C12 0.930 . S
H20 C13 0.930 . S
C21 C22 1.392 . S
C21 N25 1.328 . S
C21 H27 0.930 . S
C22 C21 1.392 . S
C22 N26 1.331 . S
C23 C24 1.391 . S
C23 N26 1.329 . S
C23 H33 0.930 . S
C24 C23 1.391 . S
C24 N25 1.334 . S
C24 H31 0.930 . S
N25 Zn9 2.119 . S
N25 C21 1.328 . S
N25 C24 1.334 . S
N26 C22 1.331 . S
N26 C23 1.329 . S
H27 C21 0.930 . S
C28 O8 1.257 . S
C28 O29 1.244 . S
O29 C28 1.244 . S
O30 C6 1.257 1_545 S
O30 Zn9 2.019 . S
H31 C24 0.930 . S
H32 C11 0.930 . S
H33 C23 0.930 . S
Zn34 N38 2.020 . S
Zn34 O42 2.019 . S
Zn34 N44 2.119 . S
Zn34 O52 1.975 . S
C35 N36 1.334 . S
C35 N39 1.336 . S
N36 C35 1.334 . S
N36 C37 1.334 . S
C37 N36 1.334 . S
C37 N38 1.336 . S
N38 Zn34 2.020 . S
N38 C37 1.336 . S
N38 N39 1.354 . S
N39 C35 1.336 . S
N39 N38 1.354 . S
N39 Zn43 2.020 . S
C40 O41 1.244 . S
C40 O64 1.257 . S
O41 C40 1.244 . S
O42 Zn34 2.019 . S
O42 C62 1.257 . S
Zn43 N39 2.020 . S
Zn43 O50 1.975 . S
Zn43 N59 2.119 . S
Zn43 O64 2.019 . S
N44 Zn34 2.119 . S
N44 C46 1.334 . S
N44 C47 1.328 . S
C45 C46 1.391 . S
C45 N48 1.329 . S
C45 H66 0.930 . S
C46 N44 1.334 . S
C46 C45 1.391 . S
C46 H53 0.930 . S
C47 N44 1.328 . S
C47 C49 1.392 . S
C47 H54 0.930 . S
N48 C45 1.329 . S
N48 C49 1.331 . S
C49 C47 1.392 . S
C49 N48 1.331 . S
O50 Zn43 1.975 . S
O50 C51 1.252 . S
C51 O50 1.252 . S
C51 O52 1.252 . S
O52 Zn34 1.975 . S
O52 C51 1.252 . S
H53 C46 0.930 . S
H54 C47 0.930 . S
C55 C56 1.392 . S
C55 N59 1.328 . S
C55 H61 0.930 . S
C56 C55 1.392 . S
C56 N60 1.331 . S
C57 C58 1.391 . S
C57 N60 1.329 . S
C57 H67 0.930 . S
C58 C57 1.391 . S
C58 N59 1.334 . S
C58 H65 0.930 . S
N59 Zn43 2.119 . S
N59 C55 1.328 . S
N59 C58 1.334 . S
N60 C56 1.331 . S
N60 C57 1.329 . S
H61 C55 0.930 . S
C62 O42 1.257 . S
C62 O63 1.244 . S
O63 C62 1.244 . S
O64 C40 1.257 . S
O64 Zn43 2.019 . S
H65 C58 0.930 . S
H66 C45 0.930 . S
H67 C57 0.930 . S
Zn68 N72 2.020 . S
Zn68 O76 2.019 . S
Zn68 N78 2.119 . S
Zn68 O86 1.975 . S
C69 N70 1.334 . S
C69 N73 1.336 . S
N70 C69 1.334 . S
N70 C71 1.334 . S
C71 N70 1.334 . S
C71 N72 1.336 . S
N72 Zn68 2.020 . S
N72 C71 1.336 . S
N72 N73 1.354 . S
N73 C69 1.336 . S
N73 N72 1.354 . S
N73 Zn77 2.020 . S
C74 O75 1.244 . S
C74 O98 1.257 . S
O75 C74 1.244 . S
O76 Zn68 2.019 . S
O76 C96 1.257 . S
Zn77 N73 2.020 . S
Zn77 O84 1.975 . S
Zn77 N93 2.119 . S
Zn77 O98 2.019 . S
N78 Zn68 2.119 . S
N78 C80 1.334 . S
N78 C81 1.328 . S
C79 C80 1.391 . S
C79 N82 1.329 . S
C79 H100 0.930 . S
C80 N78 1.334 . S
C80 C79 1.391 . S
C80 H87 0.930 . S
C81 N78 1.328 . S
C81 C83 1.392 . S
C81 H88 0.930 . S
N82 C79 1.329 . S
N82 C83 1.331 . S
C83 C81 1.392 . S
C83 N82 1.331 . S
O84 Zn77 1.975 . S
O84 C85 1.252 . S
C85 O84 1.252 . S
C85 O86 1.252 . S
O86 Zn68 1.975 . S
O86 C85 1.252 . S
H87 C80 0.930 . S
H88 C81 0.930 . S
C89 C90 1.392 . S
C89 N93 1.328 . S
C89 H95 0.930 . S
C90 C89 1.392 . S
C90 N94 1.331 . S
C91 C92 1.391 . S
C91 N94 1.329 . S
C91 H101 0.930 . S
C92 C91 1.391 . S
C92 N93 1.334 . S
C92 H99 0.930 . S
N93 Zn77 2.119 . S
N93 C89 1.328 . S
N93 C92 1.334 . S
N94 C90 1.331 . S
N94 C91 1.329 . S
H95 C89 0.930 . S
C96 O76 1.257 . S
C96 O97 1.244 . S
O97 C96 1.244 . S
O98 C74 1.257 . S
O98 Zn77 2.019 . S
H99 C92 0.930 . S
H100 C79 0.930 . S
H101 C91 0.930 . S
Zn102 N106 2.020 . S
Zn102 O110 2.019 . S
Zn102 N112 2.119 . S
Zn102 O120 1.975 . S
C103 N104 1.334 1_455 S
C103 N107 1.336 . S
N104 C103 1.334 1_655 S
N104 C105 1.334 . S
C105 N104 1.334 . S
C105 N106 1.336 1_655 S
N106 Zn102 2.020 . S
N106 C105 1.336 1_455 S
N106 N107 1.354 . S
N107 C103 1.336 . S
N107 N106 1.354 . S
N107 Zn111 2.020 . S
C108 O109 1.244 . S
C108 O132 1.257 . S
O109 C108 1.244 . S
O110 Zn102 2.019 . S
O110 C130 1.257 1_455 S
Zn111 N107 2.020 . S
Zn111 O118 1.975 . S
Zn111 N127 2.119 . S
Zn111 O132 2.019 . S
N112 Zn102 2.119 . S
N112 C114 1.334 . S
N112 C115 1.328 . S
C113 C114 1.391 . S
C113 N116 1.329 . S
C113 H134 0.930 . S
C114 N112 1.334 . S
C114 C113 1.391 . S
C114 H121 0.930 . S
C115 N112 1.328 . S
C115 C117 1.392 . S
C115 H122 0.930 . S
N116 C113 1.329 . S
N116 C117 1.331 . S
C117 C115 1.392 . S
C117 N116 1.331 . S
O118 Zn111 1.975 . S
O118 C119 1.252 . S
C119 O118 1.252 . S
C119 O120 1.252 . S
O120 Zn102 1.975 . S
O120 C119 1.252 . S
H121 C114 0.930 . S
H122 C115 0.930 . S
C123 C124 1.392 . S
C123 N127 1.328 . S
C123 H129 0.930 . S
C124 C123 1.392 . S
C124 N128 1.331 . S
C125 C126 1.391 . S
C125 N128 1.329 . S
C125 H135 0.930 . S
C126 C125 1.391 . S
C126 N127 1.334 . S
C126 H133 0.930 . S
N127 Zn111 2.119 . S
N127 C123 1.328 . S
N127 C126 1.334 . S
N128 C124 1.331 . S
N128 C125 1.329 . S
H129 C123 0.930 . S
C130 O110 1.257 1_655 S
C130 O131 1.244 . S
O131 C130 1.244 . S
O132 C108 1.257 . S
O132 Zn111 2.019 . S
H133 C126 0.930 . S
H134 C113 0.930 . S
H135 C125 0.930 . S
Zn136 N140 2.020 . S
Zn136 O144 2.019 . S
Zn136 N146 2.119 . S
Zn136 O154 1.975 . S
C137 N138 1.334 1_565 S
C137 N141 1.336 . S
N138 C137 1.334 1_545 S
N138 C139 1.334 . S
C139 N138 1.334 . S
C139 N140 1.336 1_545 S
N140 Zn136 2.020 . S
N140 C139 1.336 1_565 S
N140 N141 1.354 . S
N141 C137 1.336 . S
N141 N140 1.354 . S
N141 Zn145 2.020 . S
C142 O143 1.244 . S
C142 O166 1.257 . S
O143 C142 1.244 . S
O144 Zn136 2.019 . S
O144 C164 1.257 1_565 S
Zn145 N141 2.020 . S
Zn145 O152 1.975 . S
Zn145 N161 2.119 . S
Zn145 O166 2.019 . S
N146 Zn136 2.119 . S
N146 C148 1.334 . S
N146 C149 1.328 . S
C147 C148 1.391 . S
C147 N150 1.329 . S
C147 H168 0.930 . S
C148 N146 1.334 . S
C148 C147 1.391 . S
C148 H155 0.930 . S
C149 N146 1.328 . S
C149 C151 1.392 . S
C149 H156 0.930 . S
N150 C147 1.329 . S
N150 C151 1.331 . S
C151 C149 1.392 . S
C151 N150 1.331 . S
O152 Zn145 1.975 . S
O152 C153 1.252 . S
C153 O152 1.252 . S
C153 O154 1.252 . S
O154 Zn136 1.975 . S
O154 C153 1.252 . S
H155 C148 0.930 . S
H156 C149 0.930 . S
C157 C158 1.392 . S
C157 N161 1.328 . S
C157 H163 0.930 . S
C158 C157 1.392 . S
C158 N162 1.331 . S
C159 C160 1.391 . S
C159 N162 1.329 . S
C159 H169 0.930 . S
C160 C159 1.391 . S
C160 N161 1.334 . S
C160 H167 0.930 . S
N161 Zn145 2.119 . S
N161 C157 1.328 . S
N161 C160 1.334 . S
N162 C158 1.331 . S
N162 C159 1.329 . S
H163 C157 0.930 . S
C164 O144 1.257 1_545 S
C164 O165 1.244 . S
O165 C164 1.244 . S
O166 C142 1.257 . S
O166 Zn145 2.019 . S
H167 C160 0.930 . S
H168 C147 0.930 . S
H169 C159 0.930 . S
Zn170 N174 2.020 . S
Zn170 O178 2.019 . S
Zn170 N180 2.119 . S
Zn170 O188 1.975 . S
C171 N172 1.334 . S
C171 N175 1.336 . S
N172 C171 1.334 . S
N172 C173 1.334 . S
C173 N172 1.334 . S
C173 N174 1.336 . S
N174 Zn170 2.020 . S
N174 C173 1.336 . S
N174 N175 1.354 . S
N175 C171 1.336 . S
N175 N174 1.354 . S
N175 Zn179 2.020 . S
C176 O177 1.244 . S
C176 O200 1.257 . S
O177 C176 1.244 . S
O178 Zn170 2.019 . S
O178 C198 1.257 . S
Zn179 N175 2.020 . S
Zn179 O186 1.975 . S
Zn179 N195 2.119 . S
Zn179 O200 2.019 . S
N180 Zn170 2.119 . S
N180 C182 1.334 . S
N180 C183 1.328 . S
C181 C182 1.391 . S
C181 N184 1.329 . S
C181 H202 0.930 . S
C182 N180 1.334 . S
C182 C181 1.391 . S
C182 H189 0.930 . S
C183 N180 1.328 . S
C183 C185 1.392 . S
C183 H190 0.930 . S
N184 C181 1.329 . S
N184 C185 1.331 . S
C185 C183 1.392 . S
C185 N184 1.331 . S
O186 Zn179 1.975 . S
O186 C187 1.252 . S
C187 O186 1.252 . S
C187 O188 1.252 . S
O188 Zn170 1.975 . S
O188 C187 1.252 . S
H189 C182 0.930 . S
H190 C183 0.930 . S
C191 C192 1.392 . S
C191 N195 1.328 . S
C191 H197 0.930 . S
C192 C191 1.392 . S
C192 N196 1.331 . S
C193 C194 1.391 . S
C193 N196 1.329 . S
C193 H203 0.930 . S
C194 C193 1.391 . S
C194 N195 1.334 . S
C194 H201 0.930 . S
N195 Zn179 2.119 . S
N195 C191 1.328 . S
N195 C194 1.334 . S
N196 C192 1.331 . S
N196 C193 1.329 . S
H197 C191 0.930 . S
C198 O178 1.257 . S
C198 O199 1.244 . S
O199 C198 1.244 . S
O200 C176 1.257 . S
O200 Zn179 2.019 . S
H201 C194 0.930 . S
H202 C181 0.930 . S
H203 C193 0.930 . S
Zn204 N208 2.020 . S
Zn204 O212 2.019 . S
Zn204 N214 2.119 . S
Zn204 O222 1.975 . S
C205 N206 1.334 . S
C205 N209 1.336 . S
N206 C205 1.334 . S
N206 C207 1.334 . S
C207 N206 1.334 . S
C207 N208 1.336 . S
N208 Zn204 2.020 . S
N208 C207 1.336 . S
N208 N209 1.354 . S
N209 C205 1.336 . S
N209 N208 1.354 . S
N209 Zn213 2.020 . S
C210 O211 1.244 . S
C210 O234 1.257 . S
O211 C210 1.244 . S
O212 Zn204 2.019 . S
O212 C232 1.257 . S
Zn213 N209 2.020 . S
Zn213 O220 1.975 . S
Zn213 N229 2.119 . S
Zn213 O234 2.019 . S
N214 Zn204 2.119 . S
N214 C216 1.334 . S
N214 C217 1.328 . S
C215 C216 1.391 . S
C215 N218 1.329 . S
C215 H236 0.930 . S
C216 N214 1.334 . S
C216 C215 1.391 . S
C216 H223 0.930 . S
C217 N214 1.328 . S
C217 C219 1.392 . S
C217 H224 0.930 . S
N218 C215 1.329 . S
N218 C219 1.331 . S
C219 C217 1.392 . S
C219 N218 1.331 . S
O220 Zn213 1.975 . S
O220 C221 1.252 . S
C221 O220 1.252 . S
C221 O222 1.252 . S
O222 Zn204 1.975 . S
O222 C221 1.252 . S
H223 C216 0.930 . S
H224 C217 0.930 . S
C225 C226 1.392 . S
C225 N229 1.328 . S
C225 H231 0.930 . S
C226 C225 1.392 . S
C226 N230 1.331 . S
C227 C228 1.391 . S
C227 N230 1.329 . S
C227 H237 0.930 . S
C228 C227 1.391 . S
C228 N229 1.334 . S
C228 H235 0.930 . S
N229 Zn213 2.119 . S
N229 C225 1.328 . S
N229 C228 1.334 . S
N230 C226 1.331 . S
N230 C227 1.329 . S
H231 C225 0.930 . S
C232 O212 1.257 . S
C232 O233 1.244 . S
O233 C232 1.244 . S
O234 C210 1.257 . S
O234 Zn213 2.019 . S
H235 C228 0.930 . S
H236 C215 0.930 . S
H237 C227 0.930 . S
Zn238 N242 2.020 . S
Zn238 O246 2.019 . S
Zn238 N248 2.119 . S
Zn238 O256 1.975 . S
C239 N240 1.334 . S
C239 N243 1.336 1_455 S
N240 C239 1.334 . S
N240 C241 1.334 1_455 S
C241 N240 1.334 1_655 S
C241 N242 1.336 . S
N242 Zn238 2.020 . S
N242 C241 1.336 . S
N242 N243 1.354 . S
N243 C239 1.336 1_655 S
N243 N242 1.354 . S
N243 Zn247 2.020 . S
C244 O245 1.244 . S
C244 O268 1.257 1_455 S
O245 C244 1.244 . S
O246 Zn238 2.019 . S
O246 C266 1.257 . S
Zn247 N243 2.020 . S
Zn247 O254 1.975 . S
Zn247 N263 2.119 . S
Zn247 O268 2.019 . S
N248 Zn238 2.119 . S
N248 C250 1.334 . S
N248 C251 1.328 . S
C249 C250 1.391 . S
C249 N252 1.329 . S
C249 H270 0.930 . S
C250 N248 1.334 . S
C250 C249 1.391 . S
C250 H257 0.930 . S
C251 N248 1.328 . S
C251 C253 1.392 . S
C251 H258 0.930 . S
N252 C249 1.329 . S
N252 C253 1.331 . S
C253 C251 1.392 . S
C253 N252 1.331 . S
O254 Zn247 1.975 . S
O254 C255 1.252 . S
C255 O254 1.252 . S
C255 O256 1.252 . S
O256 Zn238 1.975 . S
O256 C255 1.252 . S
H257 C250 0.930 . S
H258 C251 0.930 . S
C259 C260 1.392 . S
C259 N263 1.328 . S
C259 H265 0.930 . S
C260 C259 1.392 . S
C260 N264 1.331 . S
C261 C262 1.391 . S
C261 N264 1.329 . S
C261 H271 0.930 . S
C262 C261 1.391 . S
C262 N263 1.334 . S
C262 H269 0.930 . S
N263 Zn247 2.119 . S
N263 C259 1.328 . S
N263 C262 1.334 . S
N264 C260 1.331 . S
N264 C261 1.329 . S
H265 C259 0.930 . S
C266 O246 1.257 . S
C266 O267 1.244 . S
O267 C266 1.244 . S
O268 C244 1.257 1_655 S
O268 Zn247 2.019 . S
H269 C262 0.930 . S
H270 C249 0.930 . S
H271 C261 0.930 . S
Zn272 N276 2.020 . S
Zn272 O280 2.019 . S
Zn272 N282 2.119 . S
Zn272 O290 1.975 . S
C273 N274 1.334 . S
C273 N277 1.336 1_545 S
N274 C273 1.334 . S
N274 C275 1.334 1_545 S
C275 N274 1.334 1_565 S
C275 N276 1.336 . S
N276 Zn272 2.020 . S
N276 C275 1.336 . S
N276 N277 1.354 . S
N277 C273 1.336 1_565 S
N277 N276 1.354 . S
N277 Zn281 2.020 . S
C278 O279 1.244 . S
C278 O302 1.257 1_545 S
O279 C278 1.244 . S
O280 Zn272 2.019 . S
O280 C300 1.257 . S
Zn281 N277 2.020 . S
Zn281 O288 1.975 . S
Zn281 N297 2.119 . S
Zn281 O302 2.019 . S
N282 Zn272 2.119 . S
N282 C284 1.334 . S
N282 C285 1.328 . S
C283 C284 1.391 . S
C283 N286 1.329 . S
C283 H304 0.930 . S
C284 N282 1.334 . S
C284 C283 1.391 . S
C284 H291 0.930 . S
C285 N282 1.328 . S
C285 C287 1.392 . S
C285 H292 0.930 . S
N286 C283 1.329 . S
N286 C287 1.331 . S
C287 C285 1.392 . S
C287 N286 1.331 . S
O288 Zn281 1.975 . S
O288 C289 1.252 . S
C289 O288 1.252 . S
C289 O290 1.252 . S
O290 Zn272 1.975 . S
O290 C289 1.252 . S
H291 C284 0.930 . S
H292 C285 0.930 . S
C293 C294 1.392 . S
C293 N297 1.328 . S
C293 H299 0.930 . S
C294 C293 1.392 . S
C294 N298 1.331 . S
C295 C296 1.391 . S
C295 N298 1.329 . S
C295 H305 0.930 . S
C296 C295 1.391 . S
C296 N297 1.334 . S
C296 H303 0.930 . S
N297 Zn281 2.119 . S
N297 C293 1.328 . S
N297 C296 1.334 . S
N298 C294 1.331 . S
N298 C295 1.329 . S
H299 C293 0.930 . S
C300 O280 1.257 . S
C300 O301 1.244 . S
O301 C300 1.244 . S
O302 C278 1.257 1_565 S
O302 Zn281 2.019 . S
H303 C296 0.930 . S
H304 C283 0.930 . S
H305 C295 0.930 . S
Zn306 N310 2.020 . S
Zn306 O314 2.019 . S
Zn306 N316 2.119 . S
Zn306 O324 1.975 . S
C307 N308 1.334 . S
C307 N311 1.336 . S
N308 C307 1.334 . S
N308 C309 1.334 . S
C309 N308 1.334 . S
C309 N310 1.336 . S
N310 Zn306 2.020 . S
N310 C309 1.336 . S
N310 N311 1.354 . S
N311 C307 1.336 . S
N311 N310 1.354 . S
N311 Zn315 2.020 . S
C312 O313 1.244 . S
C312 O336 1.257 . S
O313 C312 1.244 . S
O314 Zn306 2.019 . S
O314 C334 1.257 . S
Zn315 N311 2.020 . S
Zn315 O322 1.975 . S
Zn315 N331 2.119 . S
Zn315 O336 2.019 . S
N316 Zn306 2.119 . S
N316 C318 1.334 . S
N316 C319 1.328 . S
C317 C318 1.391 . S
C317 N320 1.329 . S
C317 H338 0.930 . S
C318 N316 1.334 . S
C318 C317 1.391 . S
C318 H325 0.930 . S
C319 N316 1.328 . S
C319 C321 1.392 . S
C319 H326 0.930 . S
N320 C317 1.329 . S
N320 C321 1.331 . S
C321 C319 1.392 . S
C321 N320 1.331 . S
O322 Zn315 1.975 . S
O322 C323 1.252 . S
C323 O322 1.252 . S
C323 O324 1.252 . S
O324 Zn306 1.975 . S
O324 C323 1.252 . S
H325 C318 0.930 . S
H326 C319 0.930 . S
C327 C328 1.392 . S
C327 N331 1.328 . S
C327 H333 0.930 . S
C328 C327 1.392 . S
C328 N332 1.331 . S
C329 C330 1.391 . S
C329 N332 1.329 . S
C329 H339 0.930 . S
C330 C329 1.391 . S
C330 N331 1.334 . S
C330 H337 0.930 . S
N331 Zn315 2.119 . S
N331 C327 1.328 . S
N331 C330 1.334 . S
N332 C328 1.331 . S
N332 C329 1.329 . S
H333 C327 0.930 . S
C334 O314 1.257 . S
C334 O335 1.244 . S
O335 C334 1.244 . S
O336 C312 1.257 . S
O336 Zn315 2.019 . S
H337 C330 0.930 . S
H338 C317 0.930 . S
H339 C329 0.930 . S
Zn340 N344 2.020 . S
Zn340 O348 2.019 . S
Zn340 N350 2.119 . S
Zn340 O358 1.975 . S
C341 N342 1.334 . S
C341 N345 1.336 . S
N342 C341 1.334 . S
N342 C343 1.334 . S
C343 N342 1.334 . S
C343 N344 1.336 . S
N344 Zn340 2.020 . S
N344 C343 1.336 . S
N344 N345 1.354 . S
N345 C341 1.336 . S
N345 N344 1.354 . S
N345 Zn349 2.020 . S
C346 O347 1.244 . S
C346 O370 1.257 . S
O347 C346 1.244 . S
O348 Zn340 2.019 . S
O348 C368 1.257 . S
Zn349 N345 2.020 . S
Zn349 O356 1.975 . S
Zn349 N365 2.119 . S
Zn349 O370 2.019 . S
N350 Zn340 2.119 . S
N350 C352 1.334 . S
N350 C353 1.328 . S
C351 C352 1.391 . S
C351 N354 1.329 . S
C351 H372 0.930 . S
C352 N350 1.334 . S
C352 C351 1.391 . S
C352 H359 0.930 . S
C353 N350 1.328 . S
C353 C355 1.392 . S
C353 H360 0.930 . S
N354 C351 1.329 . S
N354 C355 1.331 . S
C355 C353 1.392 . S
C355 N354 1.331 . S
O356 Zn349 1.975 . S
O356 C357 1.252 . S
C357 O356 1.252 . S
C357 O358 1.252 . S
O358 Zn340 1.975 . S
O358 C357 1.252 . S
H359 C352 0.930 . S
H360 C353 0.930 . S
C361 C362 1.392 . S
C361 N365 1.328 . S
C361 H367 0.930 . S
C362 C361 1.392 . S
C362 N366 1.331 . S
C363 C364 1.391 . S
C363 N366 1.329 . S
C363 H373 0.930 . S
C364 C363 1.391 . S
C364 N365 1.334 . S
C364 H371 0.930 . S
N365 Zn349 2.119 . S
N365 C361 1.328 . S
N365 C364 1.334 . S
N366 C362 1.331 . S
N366 C363 1.329 . S
H367 C361 0.930 . S
C368 O348 1.257 . S
C368 O369 1.244 . S
O369 C368 1.244 . S
O370 C346 1.257 . S
O370 Zn349 2.019 . S
H371 C364 0.930 . S
H372 C351 0.930 . S
H373 C363 0.930 . S
Zn374 N378 2.020 . S
Zn374 O382 2.019 . S
Zn374 N384 2.119 . S
Zn374 O392 1.975 . S
C375 N376 1.334 1_655 S
C375 N379 1.336 . S
N376 C375 1.334 1_455 S
N376 C377 1.334 . S
C377 N376 1.334 . S
C377 N378 1.336 1_455 S
N378 Zn374 2.020 . S
N378 C377 1.336 1_655 S
N378 N379 1.354 . S
N379 C375 1.336 . S
N379 N378 1.354 . S
N379 Zn383 2.020 . S
C380 O381 1.244 . S
C380 O404 1.257 . S
O381 C380 1.244 . S
O382 Zn374 2.019 . S
O382 C402 1.257 1_655 S
Zn383 N379 2.020 . S
Zn383 O390 1.975 . S
Zn383 N399 2.119 . S
Zn383 O404 2.019 . S
N384 Zn374 2.119 . S
N384 C386 1.334 . S
N384 C387 1.328 . S
C385 C386 1.391 . S
C385 N388 1.329 . S
C385 H406 0.930 . S
C386 N384 1.334 . S
C386 C385 1.391 . S
C386 H393 0.930 . S
C387 N384 1.328 . S
C387 C389 1.392 . S
C387 H394 0.930 . S
N388 C385 1.329 . S
N388 C389 1.331 . S
C389 C387 1.392 . S
C389 N388 1.331 . S
O390 Zn383 1.975 . S
O390 C391 1.252 . S
C391 O390 1.252 . S
C391 O392 1.252 . S
O392 Zn374 1.975 . S
O392 C391 1.252 . S
H393 C386 0.930 . S
H394 C387 0.930 . S
C395 C396 1.392 . S
C395 N399 1.328 . S
C395 H401 0.930 . S
C396 C395 1.392 . S
C396 N400 1.331 . S
C397 C398 1.391 . S
C397 N400 1.329 . S
C397 H407 0.930 . S
C398 C397 1.391 . S
C398 N399 1.334 . S
C398 H405 0.930 . S
N399 Zn383 2.119 . S
N399 C395 1.328 . S
N399 C398 1.334 . S
N400 C396 1.331 . S
N400 C397 1.329 . S
H401 C395 0.930 . S
C402 O382 1.257 1_455 S
C402 O403 1.244 . S
O403 C402 1.244 . S
O404 C380 1.257 . S
O404 Zn383 2.019 . S
H405 C398 0.930 . S
H406 C385 0.930 . S
H407 C397 0.930 . S
Zn408 N412 2.020 . S
Zn408 O416 2.019 . S
Zn408 N418 2.119 . S
Zn408 O426 1.975 . S
C409 N410 1.334 1_545 S
C409 N413 1.336 . S
N410 C409 1.334 1_565 S
N410 C411 1.334 . S
C411 N410 1.334 . S
C411 N412 1.336 1_565 S
N412 Zn408 2.020 . S
N412 C411 1.336 1_545 S
N412 N413 1.354 . S
N413 C409 1.336 . S
N413 N412 1.354 . S
N413 Zn417 2.020 . S
C414 O415 1.244 . S
C414 O438 1.257 . S
O415 C414 1.244 . S
O416 Zn408 2.019 . S
O416 C436 1.257 1_545 S
Zn417 N413 2.020 . S
Zn417 O424 1.975 . S
Zn417 N433 2.119 . S
Zn417 O438 2.019 . S
N418 Zn408 2.119 . S
N418 C420 1.334 . S
N418 C421 1.328 . S
C419 C420 1.391 . S
C419 N422 1.329 . S
C419 H440 0.930 . S
C420 N418 1.334 . S
C420 C419 1.391 . S
C420 H427 0.930 . S
C421 N418 1.328 . S
C421 C423 1.392 . S
C421 H428 0.930 . S
N422 C419 1.329 . S
N422 C423 1.331 . S
C423 C421 1.392 . S
C423 N422 1.331 . S
O424 Zn417 1.975 . S
O424 C425 1.252 . S
C425 O424 1.252 . S
C425 O426 1.252 . S
O426 Zn408 1.975 . S
O426 C425 1.252 . S
H427 C420 0.930 . S
H428 C421 0.930 . S
C429 C430 1.392 . S
C429 N433 1.328 . S
C429 H435 0.930 . S
C430 C429 1.392 . S
C430 N434 1.331 . S
C431 C432 1.391 . S
C431 N434 1.329 . S
C431 H441 0.930 . S
C432 C431 1.391 . S
C432 N433 1.334 . S
C432 H439 0.930 . S
N433 Zn417 2.119 . S
N433 C429 1.328 . S
N433 C432 1.334 . S
N434 C430 1.331 . S
N434 C431 1.329 . S
H435 C429 0.930 . S
C436 O416 1.257 1_565 S
C436 O437 1.244 . S
O437 C436 1.244 . S
O438 C414 1.257 . S
O438 Zn417 2.019 . S
H439 C432 0.930 . S
H440 C419 0.930 . S
H441 C431 0.930 . S
Zn442 N446 2.020 . S
Zn442 O450 2.019 . S
Zn442 N452 2.119 . S
Zn442 O460 1.975 . S
C443 N444 1.334 . S
C443 N447 1.336 . S
N444 C443 1.334 . S
N444 C445 1.334 . S
C445 N444 1.334 . S
C445 N446 1.336 . S
N446 Zn442 2.020 . S
N446 C445 1.336 . S
N446 N447 1.354 . S
N447 C443 1.336 . S
N447 N446 1.354 . S
N447 Zn451 2.020 . S
C448 O449 1.244 . S
C448 O472 1.257 . S
O449 C448 1.244 . S
O450 Zn442 2.019 . S
O450 C470 1.257 . S
Zn451 N447 2.020 . S
Zn451 O458 1.975 . S
Zn451 N467 2.119 . S
Zn451 O472 2.019 . S
N452 Zn442 2.119 . S
N452 C454 1.334 . S
N452 C455 1.328 . S
C453 C454 1.391 . S
C453 N456 1.329 . S
C453 H474 0.930 . S
C454 N452 1.334 . S
C454 C453 1.391 . S
C454 H461 0.930 . S
C455 N452 1.328 . S
C455 C457 1.392 . S
C455 H462 0.930 . S
N456 C453 1.329 . S
N456 C457 1.331 . S
C457 C455 1.392 . S
C457 N456 1.331 . S
O458 Zn451 1.975 . S
O458 C459 1.252 . S
C459 O458 1.252 . S
C459 O460 1.252 . S
O460 Zn442 1.975 . S
O460 C459 1.252 . S
H461 C454 0.930 . S
H462 C455 0.930 . S
C463 C464 1.392 . S
C463 N467 1.328 . S
C463 H469 0.930 . S
C464 C463 1.392 . S
C464 N468 1.331 . S
C465 C466 1.391 . S
C465 N468 1.329 . S
C465 H475 0.930 . S
C466 C465 1.391 . S
C466 N467 1.334 . S
C466 H473 0.930 . S
N467 Zn451 2.119 . S
N467 C463 1.328 . S
N467 C466 1.334 . S
N468 C464 1.331 . S
N468 C465 1.329 . S
H469 C463 0.930 . S
C470 O450 1.257 . S
C470 O471 1.244 . S
O471 C470 1.244 . S
O472 C448 1.257 . S
O472 Zn451 2.019 . S
H473 C466 0.930 . S
H474 C453 0.930 . S
H475 C465 0.930 . S
Zn476 N480 2.020 . S
Zn476 O484 2.019 . S
Zn476 N486 2.119 . S
Zn476 O494 1.975 . S
C477 N478 1.334 . S
C477 N481 1.336 . S
N478 C477 1.334 . S
N478 C479 1.334 . S
C479 N478 1.334 . S
C479 N480 1.336 . S
N480 Zn476 2.020 . S
N480 C479 1.336 . S
N480 N481 1.354 . S
N481 C477 1.336 . S
N481 N480 1.354 . S
N481 Zn485 2.020 . S
C482 O483 1.244 . S
C482 O506 1.257 . S
O483 C482 1.244 . S
O484 Zn476 2.019 . S
O484 C504 1.257 . S
Zn485 N481 2.020 . S
Zn485 O492 1.975 . S
Zn485 N501 2.119 . S
Zn485 O506 2.019 . S
N486 Zn476 2.119 . S
N486 C488 1.334 . S
N486 C489 1.328 . S
C487 C488 1.391 . S
C487 N490 1.329 . S
C487 H508 0.930 . S
C488 N486 1.334 . S
C488 C487 1.391 . S
C488 H495 0.930 . S
C489 N486 1.328 . S
C489 C491 1.392 . S
C489 H496 0.930 . S
N490 C487 1.329 . S
N490 C491 1.331 . S
C491 C489 1.392 . S
C491 N490 1.331 . S
O492 Zn485 1.975 . S
O492 C493 1.252 . S
C493 O492 1.252 . S
C493 O494 1.252 . S
O494 Zn476 1.975 . S
O494 C493 1.252 . S
H495 C488 0.930 . S
H496 C489 0.930 . S
C497 C498 1.392 . S
C497 N501 1.328 . S
C497 H503 0.930 . S
C498 C497 1.392 . S
C498 N502 1.331 . S
C499 C500 1.391 . S
C499 N502 1.329 . S
C499 H509 0.930 . S
C500 C499 1.391 . S
C500 N501 1.334 . S
C500 H507 0.930 . S
N501 Zn485 2.119 . S
N501 C497 1.328 . S
N501 C500 1.334 . S
N502 C498 1.331 . S
N502 C499 1.329 . S
H503 C497 0.930 . S
C504 O484 1.257 . S
C504 O505 1.244 . S
O505 C504 1.244 . S
O506 C482 1.257 . S
O506 Zn485 2.019 . S
H507 C500 0.930 . S
H508 C487 0.930 . S
H509 C499 0.930 . S
Zn510 N514 2.020 . S
Zn510 O518 2.019 . S
Zn510 N520 2.119 . S
Zn510 O528 1.975 . S
C511 N512 1.334 1_455 S
C511 N515 1.336 . S
N512 C511 1.334 1_655 S
N512 C513 1.334 . S
C513 N512 1.334 . S
C513 N514 1.336 1_655 S
N514 Zn510 2.020 . S
N514 C513 1.336 1_455 S
N514 N515 1.354 . S
N515 C511 1.336 . S
N515 N514 1.354 . S
N515 Zn519 2.020 . S
C516 O517 1.244 . S
C516 O540 1.257 . S
O517 C516 1.244 . S
O518 Zn510 2.019 . S
O518 C538 1.257 1_455 S
Zn519 N515 2.020 . S
Zn519 O526 1.975 . S
Zn519 N535 2.119 . S
Zn519 O540 2.019 . S
N520 Zn510 2.119 . S
N520 C522 1.334 . S
N520 C523 1.328 . S
C521 C522 1.391 . S
C521 N524 1.329 . S
C521 H542 0.930 . S
C522 N520 1.334 . S
C522 C521 1.391 . S
C522 H529 0.930 . S
C523 N520 1.328 . S
C523 C525 1.392 . S
C523 H530 0.930 . S
N524 C521 1.329 . S
N524 C525 1.331 . S
C525 C523 1.392 . S
C525 N524 1.331 . S
O526 Zn519 1.975 . S
O526 C527 1.252 . S
C527 O526 1.252 . S
C527 O528 1.252 . S
O528 Zn510 1.975 . S
O528 C527 1.252 . S
H529 C522 0.930 . S
H530 C523 0.930 . S
C531 C532 1.392 . S
C531 N535 1.328 . S
C531 H537 0.930 . S
C532 C531 1.392 . S
C532 N536 1.331 . S
C533 C534 1.391 . S
C533 N536 1.329 . S
C533 H543 0.930 . S
C534 C533 1.391 . S
C534 N535 1.334 . S
C534 H541 0.930 . S
N535 Zn519 2.119 . S
N535 C531 1.328 . S
N535 C534 1.334 . S
N536 C532 1.331 . S
N536 C533 1.329 . S
H537 C531 0.930 . S
C538 O518 1.257 1_655 S
C538 O539 1.244 . S
O539 C538 1.244 . S
O540 C516 1.257 . S
O540 Zn519 2.019 . S
H541 C534 0.930 . S
H542 C521 0.930 . S
H543 C533 0.930 . S
H544 C550 0.930 . S
H545 C553 0.930 . S
H546 C554 0.930 . S
H547 C555 0.930 . S
H548 C558 0.930 . S
H549 C559 0.930 . S
C550 H544 0.930 . S
C550 C551 1.355 . S
C550 C552 1.382 1_556 S
C551 C550 1.355 . S
C551 C553 1.419 1_565 S
C552 C550 1.382 1_554 S
C552 C557 1.422 1_564 S
C552 C559 1.446 . S
C553 H545 0.930 . S
C553 C551 1.419 1_545 S
C553 C554 1.362 . S
C554 H546 0.930 . S
C554 C553 1.362 . S
C554 C557 1.446 . S
C555 H547 0.930 . S
C555 C556 1.355 . S
C555 C557 1.382 1_554 S
C556 C555 1.355 . S
C556 C558 1.419 1_545 S
C557 C552 1.422 1_546 S
C557 C554 1.446 . S
C557 C555 1.382 1_556 S
C558 H548 0.930 . S
C558 C556 1.419 1_565 S
C558 C559 1.362 . S
C559 H549 0.930 . S
C559 C552 1.446 . S
C559 C558 1.362 . S
H560 C566 0.930 . S
H561 C569 0.930 . S
H562 C570 0.930 . S
H563 C571 0.930 . S
H564 C574 0.930 . S
H565 C575 0.930 . S
C566 H560 0.930 . S
C566 C567 1.355 . S
C566 C568 1.415 . S
C567 C566 1.355 . S
C567 C569 1.419 . S
C568 C566 1.415 . S
C568 C573 1.425 1_554 S
C568 C575 1.409 . S
C569 H561 0.930 . S
C569 C567 1.419 . S
C569 C570 1.362 1_554 S
C570 H562 0.930 . S
C570 C569 1.362 1_556 S
C570 C573 1.409 . S
C571 H563 0.930 . S
C571 C572 1.355 . S
C571 C573 1.415 . S
C572 C571 1.355 . S
C572 C574 1.419 . S
C573 C568 1.425 1_556 S
C573 C570 1.409 . S
C573 C571 1.415 . S
C574 H564 0.930 . S
C574 C572 1.419 . S
C574 C575 1.362 1_556 S
C575 H565 0.930 . S
C575 C568 1.409 . S
C575 C574 1.362 1_554 S
H576 C582 0.930 . S
H577 C585 0.930 . S
H578 C586 0.930 1_554 S
H579 C587 0.930 . S
H580 C590 0.930 . S
H581 C591 0.930 1_556 S
C582 H576 0.930 . S
C582 C583 1.355 . S
C582 C584 1.415 . S
C583 C582 1.355 . S
C583 C585 1.419 . S
C584 C582 1.415 . S
C584 C589 1.425 1_456 S
C584 C591 1.409 1_456 S
C585 H577 0.930 . S
C585 C583 1.419 . S
C585 C586 1.362 . S
C586 H578 0.930 1_556 S
C586 C585 1.362 . S
C586 C589 1.409 1_456 S
C587 H579 0.930 . S
C587 C588 1.355 . S
C587 C589 1.415 . S
C588 C587 1.355 . S
C588 C590 1.419 . S
C589 C584 1.425 1_654 S
C589 C586 1.409 1_654 S
C589 C587 1.415 . S
C590 H580 0.930 . S
C590 C588 1.419 . S
C590 C591 1.362 . S
C591 H581 0.930 1_554 S
C591 C584 1.409 1_654 S
C591 C590 1.362 . S
H592 C598 0.930 . S
H593 C601 0.930 . S
H594 C602 0.930 1_556 S
H595 C603 0.930 . S
H596 C606 0.930 . S
H597 C607 0.930 1_554 S
C598 H592 0.930 . S
C598 C599 1.355 1_655 S
C598 C600 1.415 . S
C599 C598 1.355 1_455 S
C599 C601 1.419 . S
C600 C598 1.415 . S
C600 C605 1.425 1_664 S
C600 C607 1.409 1_564 S
C601 H593 0.930 . S
C601 C599 1.419 . S
C601 C602 1.362 . S
C602 H594 0.930 1_554 S
C602 C601 1.362 . S
C602 C605 1.409 1_564 S
C603 H595 0.930 . S
C603 C604 1.355 1_455 S
C603 C605 1.415 . S
C604 C603 1.355 1_655 S
C604 C606 1.419 . S
C605 C600 1.425 1_446 S
C605 C602 1.409 1_546 S
C605 C603 1.415 . S
C606 H596 0.930 . S
C606 C604 1.419 . S
C606 C607 1.362 . S
C607 H597 0.930 1_556 S
C607 C600 1.409 1_546 S
C607 C606 1.362 . S
H608 C614 0.930 . S
H609 C617 0.930 . S
H610 C618 0.930 . S
H611 C619 0.930 . S
H612 C622 0.930 . S
H613 C623 0.930 . S
C614 H608 0.930 . S
C614 C615 1.355 . S
C614 C616 1.415 . S
C615 C614 1.355 . S
C615 C617 1.419 1_565 S
C616 C614 1.415 . S
C616 C621 1.425 1_465 S
C616 C623 1.409 . S
C617 H609 0.930 . S
C617 C615 1.419 1_545 S
C617 C618 1.362 1_455 S
C618 H610 0.930 . S
C618 C617 1.362 1_655 S
C618 C621 1.409 . S
C619 H611 0.930 . S
C619 C620 1.355 . S
C619 C621 1.415 . S
C620 C619 1.355 . S
C620 C622 1.419 1_545 S
C621 C616 1.425 1_645 S
C621 C618 1.409 . S
C621 C619 1.415 . S
C622 H612 0.930 . S
C622 C620 1.419 1_565 S
C622 C623 1.362 1_655 S
C623 H613 0.930 . S
C623 C616 1.409 . S
C623 C622 1.362 1_455 S
H624 C630 0.930 . S
H625 C633 0.930 . S
H626 C634 0.930 1_565 S
H627 C635 0.930 . S
H628 C638 0.930 . S
H629 C639 0.930 1_545 S
C630 H624 0.930 . S
C630 C631 1.355 . S
C630 C632 1.415 . S
C631 C630 1.355 . S
C631 C633 1.419 . S
C632 C630 1.415 . S
C632 C637 1.425 1_545 S
C632 C639 1.409 1_545 S
C633 H625 0.930 . S
C633 C631 1.419 . S
C633 C634 1.362 . S
C634 H626 0.930 1_545 S
C634 C633 1.362 . S
C634 C637 1.409 1_545 S
C635 H627 0.930 . S
C635 C636 1.355 . S
C635 C637 1.415 . S
C636 C635 1.355 . S
C636 C638 1.419 . S
C637 C632 1.425 1_565 S
C637 C634 1.409 1_565 S
C637 C635 1.415 . S
C638 H628 0.930 . S
C638 C636 1.419 . S
C638 C639 1.362 . S
C639 H629 0.930 1_565 S
C639 C632 1.409 1_565 S
C639 C638 1.362 . S
H640 C646 0.930 . S
H641 C649 0.930 . S
H642 C650 0.930 . S
H643 C651 0.930 . S
H644 C654 0.930 . S
H645 C655 0.930 . S
C646 H640 0.930 . S
C646 C647 1.355 . S
C646 C648 1.415 . S
C647 C646 1.355 . S
C647 C649 1.419 . S
C648 C646 1.415 . S
C648 C653 1.425 . S
C648 C655 1.409 . S
C649 H641 0.930 . S
C649 C647 1.419 . S
C649 C650 1.362 . S
C650 H642 0.930 . S
C650 C649 1.362 . S
C650 C653 1.409 . S
C651 H643 0.930 . S
C651 C652 1.355 . S
C651 C653 1.415 . S
C652 C651 1.355 . S
C652 C654 1.419 . S
C653 C648 1.425 . S
C653 C650 1.409 . S
C653 C651 1.415 . S
C654 H644 0.930 . S
C654 C652 1.419 . S
C654 C655 1.362 . S
C655 H645 0.930 . S
C655 C648 1.409 . S
C655 C654 1.362 . S
H656 C662 0.930 . S
H657 C665 0.930 . S
H658 C666 0.930 . S
H659 C667 0.930 . S
H660 C670 0.930 . S
H661 C671 0.930 . S
C662 H656 0.930 . S
C662 C663 1.355 . S
C662 C664 1.415 . S
C663 C662 1.355 . S
C663 C665 1.419 1_455 S
C664 C662 1.415 . S
C664 C669 1.425 1_455 S
C664 C671 1.409 . S
C665 H657 0.930 . S
C665 C663 1.419 1_655 S
C665 C666 1.362 . S
C666 H658 0.930 . S
C666 C665 1.362 . S
C666 C669 1.409 . S
C667 H659 0.930 . S
C667 C668 1.355 . S
C667 C669 1.415 . S
C668 C667 1.355 . S
C668 C670 1.419 1_655 S
C669 C664 1.425 1_655 S
C669 C666 1.409 . S
C669 C667 1.415 . S
C670 H660 0.930 . S
C670 C668 1.419 1_455 S
C670 C671 1.362 . S
C671 H661 0.930 . S
C671 C664 1.409 . S
C671 C670 1.362 . S
H672 C678 0.930 . S
H673 C681 0.930 . S
H674 C682 0.930 . S
H675 C683 0.930 . S
H676 C686 0.930 . S
H677 C687 0.930 . S
C678 H672 0.930 . S
C678 C679 1.355 . S
C678 C680 1.415 . S
C679 C678 1.355 . S
C679 C681 1.419 . S
C680 C678 1.415 . S
C680 C685 1.425 . S
C680 C687 1.409 . S
C681 H673 0.930 . S
C681 C679 1.419 . S
C681 C682 1.362 . S
C682 H674 0.930 . S
C682 C681 1.362 . S
C682 C685 1.409 . S
C683 H675 0.930 . S
C683 C684 1.355 . S
C683 C685 1.415 . S
C684 C683 1.355 . S
C684 C686 1.419 . S
C685 C680 1.425 . S
C685 C682 1.409 . S
C685 C683 1.415 . S
C686 H676 0.930 . S
C686 C684 1.419 . S
C686 C687 1.362 . S
C687 H677 0.930 . S
C687 C680 1.409 . S
C687 C686 1.362 . S
H688 C694 0.930 . S
H689 C697 0.930 . S
H690 C698 0.930 . S
H691 C699 0.930 . S
H692 C702 0.930 . S
H693 C703 0.930 . S
C694 H688 0.930 . S
C694 C695 1.355 . S
C694 C696 1.415 . S
C695 C694 1.355 . S
C695 C697 1.419 . S
C696 C694 1.415 . S
C696 C701 1.425 . S
C696 C703 1.409 . S
C697 H689 0.930 . S
C697 C695 1.419 . S
C697 C698 1.362 . S
C698 H690 0.930 . S
C698 C697 1.362 . S
C698 C701 1.409 . S
C699 H691 0.930 . S
C699 C700 1.355 . S
C699 C701 1.415 . S
C700 C699 1.355 . S
C700 C702 1.419 . S
C701 C696 1.425 . S
C701 C698 1.409 . S
C701 C699 1.415 . S
C702 H692 0.930 . S
C702 C700 1.419 . S
C702 C703 1.362 . S
C703 H693 0.930 . S
C703 C696 1.409 . S
C703 C702 1.362 . S
H704 C710 0.930 1_455 S
H705 C713 0.930 . S
H706 C714 0.930 . S
H707 C715 0.930 . S
H708 C718 0.930 . S
H709 C719 0.930 . S
C710 H704 0.930 1_655 S
C710 C711 1.355 . S
C710 C712 1.415 . S
C711 C710 1.355 . S
C711 C713 1.419 . S
C712 C710 1.415 . S
C712 C717 1.425 . S
C712 C719 1.409 . S
C713 H705 0.930 . S
C713 C711 1.419 . S
C713 C714 1.362 . S
C714 H706 0.930 . S
C714 C713 1.362 . S
C714 C717 1.409 . S
C715 H707 0.930 . S
C715 C716 1.355 . S
C715 C717 1.415 . S
C716 C715 1.355 . S
C716 C718 1.419 . S
C717 C712 1.425 . S
C717 C714 1.409 . S
C717 C715 1.415 . S
C718 H708 0.930 . S
C718 C716 1.419 . S
C718 C719 1.362 . S
C719 H709 0.930 . S
C719 C712 1.409 . S
C719 C718 1.362 . S
H720 C726 0.930 . S
H721 C729 0.930 1_545 S
H722 C730 0.930 1_545 S
H723 C731 0.930 . S
H724 C734 0.930 . S
H725 C735 0.930 . S
C726 H720 0.930 . S
C726 C727 1.355 . S
C726 C728 1.415 . S
C727 C726 1.355 . S
C727 C729 1.419 . S
C728 C726 1.415 . S
C728 C733 1.425 . S
C728 C735 1.409 . S
C729 H721 0.930 1_565 S
C729 C727 1.419 . S
C729 C730 1.362 . S
C730 H722 0.930 1_565 S
C730 C729 1.362 . S
C730 C733 1.409 . S
C731 H723 0.930 . S
C731 C732 1.355 . S
C731 C733 1.415 . S
C732 C731 1.355 . S
C732 C734 1.419 . S
C733 C728 1.425 . S
C733 C730 1.409 . S
C733 C731 1.415 . S
C734 H724 0.930 . S
C734 C732 1.419 . S
C734 C735 1.362 . S
C735 H725 0.930 . S
C735 C728 1.409 . S
C735 C734 1.362 . S
H736 C742 0.930 . S
H737 C745 0.930 1_655 S
H738 C746 0.930 . S
H739 C747 0.930 . S
H740 C750 0.930 . S
H741 C751 0.930 . S
C742 H736 0.930 . S
C742 C743 1.355 . S
C742 C744 1.415 . S
C743 C742 1.355 . S
C743 C745 1.419 . S
C744 C742 1.415 . S
C744 C749 1.425 . S
C744 C751 1.409 . S
C745 H737 0.930 1_455 S
C745 C743 1.419 . S
C745 C746 1.362 . S
C746 H738 0.930 . S
C746 C745 1.362 . S
C746 C749 1.409 . S
C747 H739 0.930 . S
C747 C748 1.355 . S
C747 C749 1.415 . S
C748 C747 1.355 . S
C748 C750 1.419 . S
C749 C744 1.425 . S
C749 C746 1.409 . S
C749 C747 1.415 . S
C750 H740 0.930 . S
C750 C748 1.419 . S
C750 C751 1.362 . S
C751 H741 0.930 . S
C751 C744 1.409 . S
C751 C750 1.362 . S
H752 C758 0.930 . S
H753 C761 0.930 . S
H754 C762 0.930 . S
H755 C763 0.930 . S
H756 C766 0.930 . S
H757 C767 0.930 . S
C758 H752 0.930 . S
C758 C759 1.355 . S
C758 C760 1.415 . S
C759 C758 1.355 . S
C759 C761 1.419 . S
C760 C758 1.415 . S
C760 C765 1.425 . S
C760 C767 1.409 . S
C761 H753 0.930 . S
C761 C759 1.419 . S
C761 C762 1.362 . S
C762 H754 0.930 . S
C762 C761 1.362 . S
C762 C765 1.409 . S
C763 H755 0.930 . S
C763 C764 1.355 . S
C763 C765 1.415 . S
C764 C763 1.355 . S
C764 C766 1.419 . S
C765 C760 1.425 . S
C765 C762 1.409 . S
C765 C763 1.415 . S
C766 H756 0.930 . S
C766 C764 1.419 . S
C766 C767 1.362 . S
C767 H757 0.930 . S
C767 C760 1.409 . S
C767 C766 1.362 . S
H768 C774 0.930 . S
H769 C777 0.930 . S
H770 C778 0.930 . S
H771 C779 0.930 . S
H772 C782 0.930 . S
H773 C783 0.930 . S
C774 H768 0.930 . S
C774 C775 1.355 . S
C774 C776 1.415 . S
C775 C774 1.355 . S
C775 C777 1.419 . S
C776 C774 1.415 . S
C776 C781 1.425 . S
C776 C783 1.409 . S
C777 H769 0.930 . S
C777 C775 1.419 . S
C777 C778 1.362 . S
C778 H770 0.930 . S
C778 C777 1.362 . S
C778 C781 1.409 . S
C779 H771 0.930 . S
C779 C780 1.355 . S
C779 C781 1.415 . S
C780 C779 1.355 . S
C780 C782 1.419 . S
C781 C776 1.425 . S
C781 C778 1.409 . S
C781 C779 1.415 . S
C782 H772 0.930 . S
C782 C780 1.419 . S
C782 C783 1.362 . S
C783 H773 0.930 . S
C783 C776 1.409 . S
C783 C782 1.362 . S
H784 C790 0.930 . S
H785 C793 0.930 . S
H786 C794 0.930 . S
H787 C795 0.930 . S
H788 C798 0.930 . S
H789 C799 0.930 . S
C790 H784 0.930 . S
C790 C791 1.355 . S
C790 C792 1.415 . S
C791 C790 1.355 . S
C791 C793 1.419 . S
C792 C790 1.415 . S
C792 C797 1.425 . S
C792 C799 1.409 . S
C793 H785 0.930 . S
C793 C791 1.419 . S
C793 C794 1.362 . S
C794 H786 0.930 . S
C794 C793 1.362 . S
C794 C797 1.409 . S
C795 H787 0.930 . S
C795 C796 1.355 . S
C795 C797 1.415 . S
C796 C795 1.355 . S
C796 C798 1.419 . S
C797 C792 1.425 . S
C797 C794 1.409 . S
C797 C795 1.415 . S
C798 H788 0.930 . S
C798 C796 1.419 . S
C798 C799 1.362 . S
C799 H789 0.930 . S
C799 C792 1.409 . S
C799 C798 1.362 . S
H800 C806 0.930 . S
H801 C809 0.930 . S
H802 C810 0.930 . S
H803 C811 0.930 . S
H804 C814 0.930 . S
H805 C815 0.930 . S
C806 H800 0.930 . S
C806 C807 1.355 . S
C806 C808 1.415 . S
C807 C806 1.355 . S
C807 C809 1.419 . S
C808 C806 1.415 . S
C808 C813 1.425 . S
C808 C815 1.409 . S
C809 H801 0.930 . S
C809 C807 1.419 . S
C809 C810 1.362 . S
C810 H802 0.930 . S
C810 C809 1.362 . S
C810 C813 1.409 . S
C811 H803 0.930 . S
C811 C812 1.355 . S
C811 C813 1.415 . S
C812 C811 1.355 . S
C812 C814 1.419 . S
C813 C808 1.425 . S
C813 C810 1.409 . S
C813 C811 1.415 . S
C814 H804 0.930 . S
C814 C812 1.419 . S
C814 C815 1.362 . S
C815 H805 0.930 . S
C815 C808 1.409 . S
C815 C814 1.362 . S
H816 C822 0.930 . S
H817 C825 0.930 . S
H818 C826 0.930 . S
H819 C827 0.930 . S
H820 C830 0.930 . S
H821 C831 0.930 . S
C822 H816 0.930 . S
C822 C823 1.355 . S
C822 C824 1.415 . S
C823 C822 1.355 . S
C823 C825 1.419 . S
C824 C822 1.415 . S
C824 C829 1.425 . S
C824 C831 1.409 . S
C825 H817 0.930 . S
C825 C823 1.419 . S
C825 C826 1.362 . S
C826 H818 0.930 . S
C826 C825 1.362 . S
C826 C829 1.409 . S
C827 H819 0.930 . S
C827 C828 1.355 . S
C827 C829 1.415 . S
C828 C827 1.355 . S
C828 C830 1.419 . S
C829 C824 1.425 . S
C829 C826 1.409 . S
C829 C827 1.415 . S
C830 H820 0.930 . S
C830 C828 1.419 . S
C830 C831 1.362 . S
C831 H821 0.930 . S
C831 C824 1.409 . S
C831 C830 1.362 . S
H832 C838 0.930 . S
H833 C841 0.930 . S
H834 C842 0.930 . S
H835 C843 0.930 . S
H836 C846 0.930 . S
H837 C847 0.930 . S
C838 H832 0.930 . S
C838 C839 1.355 . S
C838 C840 1.415 . S
C839 C838 1.355 . S
C839 C841 1.419 . S
C840 C838 1.415 . S
C840 C845 1.425 . S
C840 C847 1.409 . S
C841 H833 0.930 . S
C841 C839 1.419 . S
C841 C842 1.362 . S
C842 H834 0.930 . S
C842 C841 1.362 . S
C842 C845 1.409 . S
C843 H835 0.930 . S
C843 C844 1.355 . S
C843 C845 1.415 . S
C844 C843 1.355 . S
C844 C846 1.419 . S
C845 C840 1.425 . S
C845 C842 1.409 . S
C845 C843 1.415 . S
C846 H836 0.930 . S
C846 C844 1.419 . S
C846 C847 1.362 . S
C847 H837 0.930 . S
C847 C840 1.409 . S
C847 C846 1.362 . S
H848 C854 0.930 . S
H849 C857 0.930 1_565 S
H850 C858 0.930 1_565 S
H851 C859 0.930 . S
H852 C862 0.930 . S
H853 C863 0.930 . S
C854 H848 0.930 . S
C854 C855 1.355 . S
C854 C856 1.415 . S
C855 C854 1.355 . S
C855 C857 1.419 . S
C856 C854 1.415 . S
C856 C861 1.425 . S
C856 C863 1.409 . S
C857 H849 0.930 1_545 S
C857 C855 1.419 . S
C857 C858 1.362 . S
C858 H850 0.930 1_545 S
C858 C857 1.362 . S
C858 C861 1.409 . S
C859 H851 0.930 . S
C859 C860 1.355 . S
C859 C861 1.415 . S
C860 C859 1.355 . S
C860 C862 1.419 . S
C861 C856 1.425 . S
C861 C858 1.409 . S
C861 C859 1.415 . S
C862 H852 0.930 . S
C862 C860 1.419 . S
C862 C863 1.362 . S
C863 H853 0.930 . S
C863 C856 1.409 . S
C863 C862 1.362 . S
H864 C870 0.930 . S
H865 C873 0.930 1_455 S
H866 C874 0.930 . S
H867 C875 0.930 . S
H868 C878 0.930 . S
H869 C879 0.930 . S
C870 H864 0.930 . S
C870 C871 1.355 . S
C870 C872 1.415 . S
C871 C870 1.355 . S
C871 C873 1.419 . S
C872 C870 1.415 . S
C872 C877 1.425 . S
C872 C879 1.409 . S
C873 H865 0.930 1_655 S
C873 C871 1.419 . S
C873 C874 1.362 . S
C874 H866 0.930 . S
C874 C873 1.362 . S
C874 C877 1.409 . S
C875 H867 0.930 . S
C875 C876 1.355 . S
C875 C877 1.415 . S
C876 C875 1.355 . S
C876 C878 1.419 . S
C877 C872 1.425 . S
C877 C874 1.409 . S
C877 C875 1.415 . S
C878 H868 0.930 . S
C878 C876 1.419 . S
C878 C879 1.362 . S
C879 H869 0.930 . S
C879 C872 1.409 . S
C879 C878 1.362 . S
H880 C886 0.930 . S
H881 C889 0.930 1_545 S
H882 C890 0.930 1_545 S
H883 C891 0.930 . S
H884 C894 0.930 . S
H885 C895 0.930 . S
C886 H880 0.930 . S
C886 C887 1.355 . S
C886 C888 1.415 . S
C887 C886 1.355 . S
C887 C889 1.419 . S
C888 C886 1.415 . S
C888 C893 1.425 . S
C888 C895 1.409 . S
C889 H881 0.930 1_565 S
C889 C887 1.419 . S
C889 C890 1.362 . S
C890 H882 0.930 1_565 S
C890 C889 1.362 . S
C890 C893 1.409 . S
C891 H883 0.930 . S
C891 C892 1.355 . S
C891 C893 1.415 . S
C892 C891 1.355 . S
C892 C894 1.419 . S
C893 C888 1.425 . S
C893 C890 1.409 . S
C893 C891 1.415 . S
C894 H884 0.930 . S
C894 C892 1.419 . S
C894 C895 1.362 . S
C895 H885 0.930 . S
C895 C888 1.409 . S
C895 C894 1.362 . S
H896 C902 0.930 . S
H897 C905 0.930 . S
H898 C906 0.930 . S
H899 C907 0.930 . S
H900 C910 0.930 . S
H901 C911 0.930 . S
C902 H896 0.930 . S
C902 C903 1.355 . S
C902 C904 1.415 . S
C903 C902 1.355 . S
C903 C905 1.419 . S
C904 C902 1.415 . S
C904 C909 1.425 . S
C904 C911 1.409 . S
C905 H897 0.930 . S
C905 C903 1.419 . S
C905 C906 1.362 . S
C906 H898 0.930 . S
C906 C905 1.362 . S
C906 C909 1.409 . S
C907 H899 0.930 . S
C907 C908 1.355 . S
C907 C909 1.415 . S
C908 C907 1.355 . S
C908 C910 1.419 . S
C909 C904 1.425 . S
C909 C906 1.409 . S
C909 C907 1.415 . S
C910 H900 0.930 . S
C910 C908 1.419 . S
C910 C911 1.362 . S
C911 H901 0.930 . S
C911 C904 1.409 . S
C911 C910 1.362 . S
H912 C918 0.930 . S
H913 C921 0.930 . S
H914 C922 0.930 . S
H915 C923 0.930 . S
H916 C926 0.930 . S
H917 C927 0.930 . S
C918 H912 0.930 . S
C918 C919 1.355 . S
C918 C920 1.415 . S
C919 C918 1.355 . S
C919 C921 1.419 . S
C920 C918 1.415 . S
C920 C925 1.425 . S
C920 C927 1.409 . S
C921 H913 0.930 . S
C921 C919 1.419 . S
C921 C922 1.362 . S
C922 H914 0.930 . S
C922 C921 1.362 . S
C922 C925 1.409 . S
C923 H915 0.930 . S
C923 C924 1.355 . S
C923 C925 1.415 . S
C924 C923 1.355 . S
C924 C926 1.419 . S
C925 C920 1.425 . S
C925 C922 1.409 . S
C925 C923 1.415 . S
C926 H916 0.930 . S
C926 C924 1.419 . S
C926 C927 1.362 . S
C927 H917 0.930 . S
C927 C920 1.409 . S
C927 C926 1.362 . S
H928 C934 0.930 . S
H929 C937 0.930 . S
H930 C938 0.930 . S
H931 C939 0.930 . S
H932 C942 0.930 . S
H933 C943 0.930 . S
C934 H928 0.930 . S
C934 C935 1.355 . S
C934 C936 1.415 1_556 S
C935 C934 1.355 . S
C935 C937 1.419 1_556 S
C936 C934 1.415 1_554 S
C936 C941 1.425 . S
C936 C943 1.409 . S
C937 H929 0.930 . S
C937 C935 1.419 1_554 S
C937 C938 1.362 . S
C938 H930 0.930 . S
C938 C937 1.362 . S
C938 C941 1.409 . S
C939 H931 0.930 . S
C939 C940 1.355 . S
C939 C941 1.415 . S
C940 C939 1.355 . S
C940 C942 1.419 . S
C941 C936 1.425 . S
C941 C938 1.409 . S
C941 C939 1.415 . S
C942 H932 0.930 . S
C942 C940 1.419 . S
C942 C943 1.362 . S
C943 H933 0.930 . S
C943 C936 1.409 . S
C943 C942 1.362 . S
H944 C950 0.930 . S
H945 C953 0.930 . S
H946 C954 0.930 . S
H947 C955 0.930 . S
H948 C958 0.930 . S
H949 C959 0.930 . S
C950 H944 0.930 . S
C950 C951 1.355 1_554 S
C950 C952 1.415 . S
C951 C950 1.355 1_556 S
C951 C953 1.419 . S
C952 C950 1.415 . S
C952 C957 1.425 . S
C952 C959 1.409 . S
C953 H945 0.930 . S
C953 C951 1.419 . S
C953 C954 1.362 1_556 S
C954 H946 0.930 . S
C954 C953 1.362 1_554 S
C954 C957 1.409 . S
C955 H947 0.930 . S
C955 C956 1.355 . S
C955 C957 1.415 . S
C956 C955 1.355 . S
C956 C958 1.419 . S
C957 C952 1.425 . S
C957 C954 1.409 . S
C957 C955 1.415 . S
C958 H948 0.930 . S
C958 C956 1.419 . S
C958 C959 1.362 . S
C959 H949 0.930 . S
C959 C952 1.409 . S
C959 C958 1.362 . S
H960 C966 0.930 . S
H961 C969 0.930 . S
H962 C970 0.930 . S
H963 C971 0.930 . S
H964 C974 0.930 . S
H965 C975 0.930 . S
C966 H960 0.930 . S
C966 C967 1.355 1_554 S
C966 C968 1.415 . S
C967 C966 1.355 1_556 S
C967 C969 1.419 . S
C968 C966 1.415 . S
C968 C973 1.425 . S
C968 C975 1.409 . S
C969 H961 0.930 . S
C969 C967 1.419 . S
C969 C970 1.362 1_556 S
C970 H962 0.930 . S
C970 C969 1.362 1_554 S
C970 C973 1.409 . S
C971 H963 0.930 . S
C971 C972 1.355 . S
C971 C973 1.415 . S
C972 C971 1.355 . S
C972 C974 1.419 . S
C973 C968 1.425 . S
C973 C970 1.409 . S
C973 C971 1.415 . S
C974 H964 0.930 . S
C974 C972 1.419 . S
C974 C975 1.362 . S
C975 H965 0.930 . S
C975 C968 1.409 . S
C975 C974 1.362 . S
H976 C982 0.930 . S
H977 C985 0.930 . S
H978 C986 0.930 . S
H979 C987 0.930 . S
H980 C990 0.930 . S
H981 C991 0.930 . S
C982 H976 0.930 . S
C982 C983 1.355 1_554 S
C982 C984 1.415 . S
C983 C982 1.355 1_556 S
C983 C985 1.419 . S
C984 C982 1.415 . S
C984 C989 1.425 . S
C984 C991 1.409 . S
C985 H977 0.930 . S
C985 C983 1.419 . S
C985 C986 1.362 . S
C986 H978 0.930 . S
C986 C985 1.362 . S
C986 C989 1.409 1_556 S
C987 H979 0.930 . S
C987 C988 1.355 . S
C987 C989 1.415 . S
C988 C987 1.355 . S
C988 C990 1.419 . S
C989 C984 1.425 . S
C989 C986 1.409 1_554 S
C989 C987 1.415 . S
C990 H980 0.930 . S
C990 C988 1.419 . S
C990 C991 1.362 . S
C991 H981 0.930 . S
C991 C984 1.409 . S
C991 C990 1.362 . S
H992 C998 0.930 . S
H993 C1001 0.930 . S
H994 C1002 0.930 . S
H995 C1003 0.930 . S
H996 C1006 0.930 . S
H997 C1007 0.930 . S
C998 H992 0.930 . S
C998 C999 1.355 . S
C998 C1000 1.415 . S
C999 C998 1.355 . S
C999 C1001 1.419 . S
C1000 C998 1.415 . S
C1000 C1005 1.425 . S
C1000 C1007 1.409 . S
C1001 H993 0.930 . S
C1001 C999 1.419 . S
C1001 C1002 1.362 . S
C1002 H994 0.930 . S
C1002 C1001 1.362 . S
C1002 C1005 1.409 . S
C1003 H995 0.930 . S
C1003 C1004 1.355 . S
C1003 C1005 1.415 . S
C1004 C1003 1.355 . S
C1004 C1006 1.419 . S
C1005 C1000 1.425 . S
C1005 C1002 1.409 . S
C1005 C1003 1.415 . S
C1006 H996 0.930 . S
C1006 C1004 1.419 . S
C1006 C1007 1.362 . S
C1007 H997 0.930 . S
C1007 C1000 1.409 . S
C1007 C1006 1.362 . S
H1008 C1014 0.930 . S
H1009 C1017 0.930 . S
H1010 C1018 0.930 . S
H1011 C1019 0.930 . S
H1012 C1022 0.930 . S
H1013 C1023 0.930 . S
C1014 H1008 0.930 . S
C1014 C1015 1.355 . S
C1014 C1016 1.415 . S
C1015 C1014 1.355 . S
C1015 C1017 1.419 . S
C1016 C1014 1.415 . S
C1016 C1021 1.425 . S
C1016 C1023 1.409 . S
C1017 H1009 0.930 . S
C1017 C1015 1.419 . S
C1017 C1018 1.362 . S
C1018 H1010 0.930 . S
C1018 C1017 1.362 . S
C1018 C1021 1.409 . S
C1019 H1011 0.930 . S
C1019 C1020 1.355 . S
C1019 C1021 1.415 . S
C1020 C1019 1.355 . S
C1020 C1022 1.419 . S
C1021 C1016 1.425 . S
C1021 C1018 1.409 . S
C1021 C1019 1.415 . S
C1022 H1012 0.930 . S
C1022 C1020 1.419 . S
C1022 C1023 1.362 . S
C1023 H1013 0.930 . S
C1023 C1016 1.409 . S
C1023 C1022 1.362 . S
H1024 C1030 0.930 . S
H1025 C1033 0.930 . S
H1026 C1034 0.930 . S
H1027 C1035 0.930 . S
H1028 C1038 0.930 . S
H1029 C1039 0.930 . S
C1030 H1024 0.930 . S
C1030 C1031 1.355 . S
C1030 C1032 1.415 . S
C1031 C1030 1.355 . S
C1031 C1033 1.419 . S
C1032 C1030 1.415 . S
C1032 C1037 1.425 . S
C1032 C1039 1.409 . S
C1033 H1025 0.930 . S
C1033 C1031 1.419 . S
C1033 C1034 1.362 . S
C1034 H1026 0.930 . S
C1034 C1033 1.362 . S
C1034 C1037 1.409 . S
C1035 H1027 0.930 . S
C1035 C1036 1.355 . S
C1035 C1037 1.415 . S
C1036 C1035 1.355 . S
C1036 C1038 1.419 . S
C1037 C1032 1.425 . S
C1037 C1034 1.409 . S
C1037 C1035 1.415 . S
C1038 H1028 0.930 . S
C1038 C1036 1.419 . S
C1038 C1039 1.362 . S
C1039 H1029 0.930 . S
C1039 C1032 1.409 . S
C1039 C1038 1.362 . S
H1040 C1046 0.930 . S
H1041 C1049 0.930 . S
H1042 C1050 0.930 . S
H1043 C1051 0.930 . S
H1044 C1054 0.930 . S
H1045 C1055 0.930 . S
C1046 H1040 0.930 . S
C1046 C1047 1.355 . S
C1046 C1048 1.415 . S
C1047 C1046 1.355 . S
C1047 C1049 1.419 . S
C1048 C1046 1.415 . S
C1048 C1053 1.425 . S
C1048 C1055 1.409 . S
C1049 H1041 0.930 . S
C1049 C1047 1.419 . S
C1049 C1050 1.362 . S
C1050 H1042 0.930 . S
C1050 C1049 1.362 . S
C1050 C1053 1.409 . S
C1051 H1043 0.930 . S
C1051 C1052 1.355 . S
C1051 C1053 1.415 . S
C1052 C1051 1.355 . S
C1052 C1054 1.419 . S
C1053 C1048 1.425 . S
C1053 C1050 1.409 . S
C1053 C1051 1.415 . S
C1054 H1044 0.930 . S
C1054 C1052 1.419 . S
C1054 C1055 1.362 . S
C1055 H1045 0.930 . S
C1055 C1048 1.409 . S
C1055 C1054 1.362 . S
H1056 C1062 0.930 . S
H1057 C1065 0.930 . S
H1058 C1066 0.930 . S
H1059 C1067 0.930 . S
H1060 C1070 0.930 . S
H1061 C1071 0.930 . S
C1062 H1056 0.930 . S
C1062 C1063 1.355 . S
C1062 C1064 1.415 . S
C1063 C1062 1.355 . S
C1063 C1065 1.419 . S
C1064 C1062 1.415 . S
C1064 C1069 1.425 . S
C1064 C1071 1.409 . S
C1065 H1057 0.930 . S
C1065 C1063 1.419 . S
C1065 C1066 1.362 . S
C1066 H1058 0.930 . S
C1066 C1065 1.362 . S
C1066 C1069 1.409 . S
C1067 H1059 0.930 . S
C1067 C1068 1.355 1_556 S
C1067 C1069 1.415 . S
C1068 C1067 1.355 1_554 S
C1068 C1070 1.419 . S
C1069 C1064 1.425 . S
C1069 C1066 1.409 . S
C1069 C1067 1.415 . S
C1070 H1060 0.930 . S
C1070 C1068 1.419 . S
C1070 C1071 1.362 1_554 S
C1071 H1061 0.930 . S
C1071 C1064 1.409 . S
C1071 C1070 1.362 1_556 S
H1072 C1078 0.930 . S
H1073 C1081 0.930 . S
H1074 C1082 0.930 . S
H1075 C1083 0.930 . S
H1076 C1086 0.930 . S
H1077 C1087 0.930 . S
C1078 H1072 0.930 . S
C1078 C1079 1.355 . S
C1078 C1080 1.415 . S
C1079 C1078 1.355 . S
C1079 C1081 1.419 . S
C1080 C1078 1.415 . S
C1080 C1085 1.425 . S
C1080 C1087 1.409 1_556 S
C1081 H1073 0.930 . S
C1081 C1079 1.419 . S
C1081 C1082 1.362 . S
C1082 H1074 0.930 . S
C1082 C1081 1.362 . S
C1082 C1085 1.409 . S
C1083 H1075 0.930 . S
C1083 C1084 1.355 1_556 S
C1083 C1085 1.415 . S
C1084 C1083 1.355 1_554 S
C1084 C1086 1.419 . S
C1085 C1080 1.425 . S
C1085 C1082 1.409 . S
C1085 C1083 1.415 . S
C1086 H1076 0.930 . S
C1086 C1084 1.419 . S
C1086 C1087 1.362 . S
C1087 H1077 0.930 . S
C1087 C1080 1.409 1_554 S
C1087 C1086 1.362 . S
H1088 C1094 0.930 . S
H1089 C1097 0.930 . S
H1090 C1098 0.930 . S
H1091 C1099 0.930 . S
H1092 C1102 0.930 . S
H1093 C1103 0.930 . S
C1094 H1088 0.930 . S
C1094 C1095 1.355 . S
C1094 C1096 1.415 . S
C1095 C1094 1.355 . S
C1095 C1097 1.419 . S
C1096 C1094 1.415 . S
C1096 C1101 1.425 . S
C1096 C1103 1.409 . S
C1097 H1089 0.930 . S
C1097 C1095 1.419 . S
C1097 C1098 1.362 . S
C1098 H1090 0.930 . S
C1098 C1097 1.362 . S
C1098 C1101 1.409 . S
C1099 H1091 0.930 . S
C1099 C1100 1.355 . S
C1099 C1101 1.415 1_554 S
C1100 C1099 1.355 . S
C1100 C1102 1.419 1_554 S
C1101 C1096 1.425 . S
C1101 C1098 1.409 . S
C1101 C1099 1.415 1_556 S
C1102 H1092 0.930 . S
C1102 C1100 1.419 1_556 S
C1102 C1103 1.362 . S
C1103 H1093 0.930 . S
C1103 C1096 1.409 . S
C1103 C1102 1.362 . S
H1104 C1110 0.930 . S
H1105 C1113 0.930 . S
H1106 C1114 0.930 . S
H1107 C1115 0.930 . S
H1108 C1118 0.930 . S
H1109 C1119 0.930 . S
C1110 H1104 0.930 . S
C1110 C1111 1.355 . S
C1110 C1112 1.415 1_554 S
C1111 C1110 1.355 . S
C1111 C1113 1.419 1_554 S
C1112 C1110 1.415 1_556 S
C1112 C1117 1.425 . S
C1112 C1119 1.409 . S
C1113 H1105 0.930 . S
C1113 C1111 1.419 1_556 S
C1113 C1114 1.362 . S
C1114 H1106 0.930 . S
C1114 C1113 1.362 . S
C1114 C1117 1.409 . S
C1115 H1107 0.930 . S
C1115 C1116 1.355 . S
C1115 C1117 1.415 . S
C1116 C1115 1.355 . S
C1116 C1118 1.419 . S
C1117 C1112 1.425 . S
C1117 C1114 1.409 . S
C1117 C1115 1.415 . S
C1118 H1108 0.930 . S
C1118 C1116 1.419 . S
C1118 C1119 1.362 . S
C1119 H1109 0.930 . S
C1119 C1112 1.409 . S
C1119 C1118 1.362 . S
H1120 C1126 0.930 . S
H1121 C1129 0.930 . S
H1122 C1130 0.930 . S
H1123 C1131 0.930 . S
H1124 C1134 0.930 . S
H1125 C1135 0.930 . S
C1126 H1120 0.930 . S
C1126 C1127 1.355 . S
C1126 C1128 1.415 . S
C1127 C1126 1.355 . S
C1127 C1129 1.419 . S
C1128 C1126 1.415 . S
C1128 C1133 1.425 . S
C1128 C1135 1.409 . S
C1129 H1121 0.930 . S
C1129 C1127 1.419 . S
C1129 C1130 1.362 . S
C1130 H1122 0.930 . S
C1130 C1129 1.362 . S
C1130 C1133 1.409 . S
C1131 H1123 0.930 . S
C1131 C1132 1.355 . S
C1131 C1133 1.415 . S
C1132 C1131 1.355 . S
C1132 C1134 1.419 . S
C1133 C1128 1.425 . S
C1133 C1130 1.409 . S
C1133 C1131 1.415 . S
C1134 H1124 0.930 . S
C1134 C1132 1.419 . S
C1134 C1135 1.362 . S
C1135 H1125 0.930 . S
C1135 C1128 1.409 . S
C1135 C1134 1.362 . S
H1136 C1142 0.930 . S
H1137 C1145 0.930 . S
H1138 C1146 0.930 . S
H1139 C1147 0.930 . S
H1140 C1150 0.930 . S
H1141 C1151 0.930 . S
C1142 H1136 0.930 . S
C1142 C1143 1.355 . S
C1142 C1144 1.415 . S
C1143 C1142 1.355 . S
C1143 C1145 1.419 . S
C1144 C1142 1.415 . S
C1144 C1149 1.425 . S
C1144 C1151 1.409 . S
C1145 H1137 0.930 . S
C1145 C1143 1.419 . S
C1145 C1146 1.362 . S
C1146 H1138 0.930 . S
C1146 C1145 1.362 . S
C1146 C1149 1.409 . S
C1147 H1139 0.930 . S
C1147 C1148 1.355 . S
C1147 C1149 1.415 . S
C1148 C1147 1.355 . S
C1148 C1150 1.419 . S
C1149 C1144 1.425 . S
C1149 C1146 1.409 . S
C1149 C1147 1.415 . S
C1150 H1140 0.930 . S
C1150 C1148 1.419 . S
C1150 C1151 1.362 . S
C1151 H1141 0.930 . S
C1151 C1144 1.409 . S
C1151 C1150 1.362 . S
H1152 C1158 0.930 . S
H1153 C1161 0.930 . S
H1154 C1162 0.930 . S
H1155 C1163 0.930 . S
H1156 C1166 0.930 . S
H1157 C1167 0.930 . S
C1158 H1152 0.930 . S
C1158 C1159 1.355 . S
C1158 C1160 1.415 . S
C1159 C1158 1.355 . S
C1159 C1161 1.419 . S
C1160 C1158 1.415 . S
C1160 C1165 1.425 . S
C1160 C1167 1.409 . S
C1161 H1153 0.930 . S
C1161 C1159 1.419 . S
C1161 C1162 1.362 . S
C1162 H1154 0.930 . S
C1162 C1161 1.362 . S
C1162 C1165 1.409 . S
C1163 H1155 0.930 . S
C1163 C1164 1.355 . S
C1163 C1165 1.415 . S
C1164 C1163 1.355 . S
C1164 C1166 1.419 . S
C1165 C1160 1.425 . S
C1165 C1162 1.409 . S
C1165 C1163 1.415 . S
C1166 H1156 0.930 . S
C1166 C1164 1.419 . S
C1166 C1167 1.362 . S
C1167 H1157 0.930 . S
C1167 C1160 1.409 . S
C1167 C1166 1.362 . S
H1168 C1174 0.930 . S
H1169 C1177 0.930 . S
H1170 C1178 0.930 . S
H1171 C1179 0.930 . S
H1172 C1182 0.930 . S
H1173 C1183 0.930 . S
C1174 H1168 0.930 . S
C1174 C1175 1.355 . S
C1174 C1176 1.415 . S
C1175 C1174 1.355 . S
C1175 C1177 1.419 . S
C1176 C1174 1.415 . S
C1176 C1181 1.425 . S
C1176 C1183 1.409 . S
C1177 H1169 0.930 . S
C1177 C1175 1.419 . S
C1177 C1178 1.362 . S
C1178 H1170 0.930 . S
C1178 C1177 1.362 . S
C1178 C1181 1.409 . S
C1179 H1171 0.930 . S
C1179 C1180 1.355 . S
C1179 C1181 1.415 . S
C1180 C1179 1.355 . S
C1180 C1182 1.419 . S
C1181 C1176 1.425 . S
C1181 C1178 1.409 . S
C1181 C1179 1.415 . S
C1182 H1172 0.930 . S
C1182 C1180 1.419 . S
C1182 C1183 1.362 . S
C1183 H1173 0.930 . S
C1183 C1176 1.409 . S
C1183 C1182 1.362 . S
H1184 C1190 0.930 . S
H1185 C1193 0.930 . S
H1186 C1194 0.930 . S
H1187 C1195 0.930 . S
H1188 C1198 0.926 1_565 S
H1189 C1199 0.925 1_565 S
C1190 H1184 0.930 . S
C1190 C1191 1.355 . S
C1190 C1192 1.415 . S
C1191 C1190 1.355 . S
C1191 C1193 1.419 . S
C1192 C1190 1.415 . S
C1192 C1197 1.425 . S
C1192 C1199 1.409 . S
C1193 H1185 0.930 . S
C1193 C1191 1.419 . S
C1193 C1194 1.362 . S
C1194 H1186 0.930 . S
C1194 C1193 1.362 . S
C1194 C1197 1.409 . S
C1195 H1187 0.930 . S
C1195 C1196 1.355 . S
C1195 C1197 1.415 . S
C1196 C1195 1.355 . S
C1196 C1198 1.419 . S
C1197 C1192 1.425 . S
C1197 C1194 1.409 . S
C1197 C1195 1.415 . S
C1198 H1188 0.926 1_545 S
C1198 C1196 1.419 . S
C1198 C1199 1.362 . S
C1199 H1189 0.925 1_545 S
C1199 C1192 1.409 . S
C1199 C1198 1.362 . S
H1200 C1206 0.930 . S
H1201 C1209 0.930 . S
H1202 C1210 0.930 . S
H1203 C1211 0.930 . S
H1204 C1214 0.930 . S
H1205 C1215 0.930 . S
C1206 H1200 0.930 . S
C1206 C1207 1.355 . S
C1206 C1208 1.415 . S
C1207 C1206 1.355 . S
C1207 C1209 1.419 . S
C1208 C1206 1.415 . S
C1208 C1213 1.425 . S
C1208 C1215 1.409 . S
C1209 H1201 0.930 . S
C1209 C1207 1.419 . S
C1209 C1210 1.362 . S
C1210 H1202 0.930 . S
C1210 C1209 1.362 . S
C1210 C1213 1.409 . S
C1211 H1203 0.930 . S
C1211 C1212 1.355 . S
C1211 C1213 1.415 . S
C1212 C1211 1.355 . S
C1212 C1214 1.419 . S
C1213 C1208 1.425 . S
C1213 C1210 1.409 . S
C1213 C1211 1.415 . S
C1214 H1204 0.930 . S
C1214 C1212 1.419 . S
C1214 C1215 1.362 . S
C1215 H1205 0.930 . S
C1215 C1208 1.409 . S
C1215 C1214 1.362 . S
H1216 C1222 0.930 . S
H1217 C1225 0.930 . S
H1218 C1226 0.930 . S
H1219 C1227 0.930 . S
H1220 C1230 0.930 . S
H1221 C1231 0.930 . S
C1222 H1216 0.930 . S
C1222 C1223 1.355 . S
C1222 C1224 1.415 . S
C1223 C1222 1.355 . S
C1223 C1225 1.419 . S
C1224 C1222 1.415 . S
C1224 C1229 1.425 . S
C1224 C1231 1.409 . S
C1225 H1217 0.930 . S
C1225 C1223 1.419 . S
C1225 C1226 1.362 . S
C1226 H1218 0.930 . S
C1226 C1225 1.362 . S
C1226 C1229 1.409 . S
C1227 H1219 0.930 . S
C1227 C1228 1.355 . S
C1227 C1229 1.415 . S
C1228 C1227 1.355 . S
C1228 C1230 1.419 . S
C1229 C1224 1.425 . S
C1229 C1226 1.409 . S
C1229 C1227 1.415 . S
C1230 H1220 0.930 . S
C1230 C1228 1.419 . S
C1230 C1231 1.362 . S
C1231 H1221 0.930 . S
C1231 C1224 1.409 . S
C1231 C1230 1.362 . S
H1232 C1238 0.930 . S
H1233 C1241 0.930 1_545 S
H1234 C1242 0.930 1_545 S
H1235 C1243 0.930 . S
H1236 C1246 0.930 . S
H1237 C1247 0.930 . S
C1238 H1232 0.930 . S
C1238 C1239 1.355 . S
C1238 C1240 1.415 . S
C1239 C1238 1.355 . S
C1239 C1241 1.419 . S
C1240 C1238 1.415 . S
C1240 C1245 1.425 . S
C1240 C1247 1.409 . S
C1241 H1233 0.930 1_565 S
C1241 C1239 1.419 . S
C1241 C1242 1.362 . S
C1242 H1234 0.930 1_565 S
C1242 C1241 1.362 . S
C1242 C1245 1.409 . S
C1243 H1235 0.930 . S
C1243 C1244 1.355 . S
C1243 C1245 1.415 . S
C1244 C1243 1.355 . S
C1244 C1246 1.419 . S
C1245 C1240 1.425 . S
C1245 C1242 1.409 . S
C1245 C1243 1.415 . S
C1246 H1236 0.930 . S
C1246 C1244 1.419 . S
C1246 C1247 1.362 . S
C1247 H1237 0.930 . S
C1247 C1240 1.409 . S
C1247 C1246 1.362 . S
H1248 C1254 0.930 . S
H1249 C1257 0.930 . S
H1250 C1258 0.930 . S
H1251 C1259 0.930 . S
H1252 C1262 0.930 . S
H1253 C1263 0.930 . S
C1254 H1248 0.930 . S
C1254 C1255 1.355 . S
C1254 C1256 1.415 . S
C1255 C1254 1.355 . S
C1255 C1257 1.419 . S
C1256 C1254 1.415 . S
C1256 C1261 1.425 . S
C1256 C1263 1.409 . S
C1257 H1249 0.930 . S
C1257 C1255 1.419 . S
C1257 C1258 1.362 . S
C1258 H1250 0.930 . S
C1258 C1257 1.362 . S
C1258 C1261 1.409 . S
C1259 H1251 0.930 . S
C1259 C1260 1.355 . S
C1259 C1261 1.415 . S
C1260 C1259 1.355 . S
C1260 C1262 1.419 . S
C1261 C1256 1.425 . S
C1261 C1258 1.409 . S
C1261 C1259 1.415 . S
C1262 H1252 0.930 . S
C1262 C1260 1.419 . S
C1262 C1263 1.362 . S
C1263 H1253 0.930 . S
C1263 C1256 1.409 . S
C1263 C1262 1.362 . S
H1264 C1270 0.930 . S
H1265 C1273 0.930 . S
H1266 C1274 0.930 . S
H1267 C1275 0.930 . S
H1268 C1278 0.930 . S
H1269 C1279 0.930 . S
C1270 H1264 0.930 . S
C1270 C1271 1.355 . S
C1270 C1272 1.415 . S
C1271 C1270 1.355 . S
C1271 C1273 1.419 . S
C1272 C1270 1.415 . S
C1272 C1277 1.425 . S
C1272 C1279 1.409 . S
C1273 H1265 0.930 . S
C1273 C1271 1.419 . S
C1273 C1274 1.362 . S
C1274 H1266 0.930 . S
C1274 C1273 1.362 . S
C1274 C1277 1.409 . S
C1275 H1267 0.930 . S
C1275 C1276 1.355 . S
C1275 C1277 1.415 . S
C1276 C1275 1.355 . S
C1276 C1278 1.419 . S
C1277 C1272 1.425 . S
C1277 C1274 1.409 . S
C1277 C1275 1.415 . S
C1278 H1268 0.930 . S
C1278 C1276 1.419 . S
C1278 C1279 1.362 . S
C1279 H1269 0.930 . S
C1279 C1272 1.409 . S
C1279 C1278 1.362 . S
H1280 C1286 0.930 . S
H1281 C1289 0.930 . S
H1282 C1290 0.930 . S
H1283 C1291 0.930 . S
H1284 C1294 0.930 . S
H1285 C1295 0.930 . S
C1286 H1280 0.930 . S
C1286 C1287 1.355 . S
C1286 C1288 1.415 . S
C1287 C1286 1.355 . S
C1287 C1289 1.419 . S
C1288 C1286 1.415 . S
C1288 C1293 1.425 . S
C1288 C1295 1.409 . S
C1289 H1281 0.930 . S
C1289 C1287 1.419 . S
C1289 C1290 1.362 . S
C1290 H1282 0.930 . S
C1290 C1289 1.362 . S
C1290 C1293 1.409 . S
C1291 H1283 0.930 . S
C1291 C1292 1.355 . S
C1291 C1293 1.415 . S
C1292 C1291 1.355 . S
C1292 C1294 1.419 . S
C1293 C1288 1.425 . S
C1293 C1290 1.409 . S
C1293 C1291 1.415 . S
C1294 H1284 0.930 . S
C1294 C1292 1.419 . S
C1294 C1295 1.362 . S
C1295 H1285 0.930 . S
C1295 C1288 1.409 . S
C1295 C1294 1.362 . S
H1296 C1302 0.930 . S
H1297 C1305 0.930 . S
H1298 C1306 0.930 . S
H1299 C1307 0.930 . S
H1300 C1310 0.930 . S
H1301 C1311 0.930 . S
C1302 H1296 0.930 . S
C1302 C1303 1.355 . S
C1302 C1304 1.415 . S
C1303 C1302 1.355 . S
C1303 C1305 1.419 . S
C1304 C1302 1.415 . S
C1304 C1309 1.425 . S
C1304 C1311 1.409 . S
C1305 H1297 0.930 . S
C1305 C1303 1.419 . S
C1305 C1306 1.362 . S
C1306 H1298 0.930 . S
C1306 C1305 1.362 . S
C1306 C1309 1.409 . S
C1307 H1299 0.930 . S
C1307 C1308 1.355 . S
C1307 C1309 1.415 . S
C1308 C1307 1.355 . S
C1308 C1310 1.419 . S
C1309 C1304 1.425 . S
C1309 C1306 1.409 . S
C1309 C1307 1.415 . S
C1310 H1300 0.930 . S
C1310 C1308 1.419 . S
C1310 C1311 1.362 . S
C1311 H1301 0.930 . S
C1311 C1304 1.409 . S
C1311 C1310 1.362 . S
H1312 C1318 0.930 . S
H1313 C1321 0.930 . S
H1314 C1322 0.930 . S
H1315 C1323 0.930 . S
H1316 C1326 0.930 . S
H1317 C1327 0.930 . S
C1318 H1312 0.930 . S
C1318 C1319 1.355 . S
C1318 C1320 1.415 . S
C1319 C1318 1.355 . S
C1319 C1321 1.419 . S
C1320 C1318 1.415 . S
C1320 C1325 1.425 . S
C1320 C1327 1.409 . S
C1321 H1313 0.930 . S
C1321 C1319 1.419 . S
C1321 C1322 1.362 . S
C1322 H1314 0.930 . S
C1322 C1321 1.362 . S
C1322 C1325 1.409 . S
C1323 H1315 0.930 . S
C1323 C1324 1.355 . S
C1323 C1325 1.415 . S
C1324 C1323 1.355 . S
C1324 C1326 1.419 . S
C1325 C1320 1.425 . S
C1325 C1322 1.409 . S
C1325 C1323 1.415 . S
C1326 H1316 0.930 . S
C1326 C1324 1.419 . S
C1326 C1327 1.362 . S
C1327 H1317 0.930 . S
C1327 C1320 1.409 . S
C1327 C1326 1.362 . S
H1328 C1334 0.930 . S
H1329 C1337 0.930 . S
H1330 C1338 0.930 . S
H1331 C1339 0.930 . S
H1332 C1342 0.930 . S
H1333 C1343 0.930 . S
C1334 H1328 0.930 . S
C1334 C1335 1.355 . S
C1334 C1336 1.415 . S
C1335 C1334 1.355 . S
C1335 C1337 1.419 . S
C1336 C1334 1.415 . S
C1336 C1341 1.425 . S
C1336 C1343 1.409 . S
C1337 H1329 0.930 . S
C1337 C1335 1.419 . S
C1337 C1338 1.362 . S
C1338 H1330 0.930 . S
C1338 C1337 1.362 . S
C1338 C1341 1.409 . S
C1339 H1331 0.930 . S
C1339 C1340 1.355 . S
C1339 C1341 1.415 . S
C1340 C1339 1.355 . S
C1340 C1342 1.419 . S
C1341 C1336 1.425 . S
C1341 C1338 1.409 . S
C1341 C1339 1.415 . S
C1342 H1332 0.930 . S
C1342 C1340 1.419 . S
C1342 C1343 1.362 . S
C1343 H1333 0.930 . S
C1343 C1336 1.409 . S
C1343 C1342 1.362 . S
H1344 C1350 0.930 . S
H1345 C1353 0.930 . S
H1346 C1354 0.930 . S
H1347 C1355 0.930 . S
H1348 C1358 0.930 . S
H1349 C1359 0.930 . S
C1350 H1344 0.930 . S
C1350 C1351 1.355 . S
C1350 C1352 1.415 . S
C1351 C1350 1.355 . S
C1351 C1353 1.419 . S
C1352 C1350 1.415 . S
C1352 C1357 1.425 . S
C1352 C1359 1.409 . S
C1353 H1345 0.930 . S
C1353 C1351 1.419 . S
C1353 C1354 1.362 . S
C1354 H1346 0.930 . S
C1354 C1353 1.362 . S
C1354 C1357 1.409 . S
C1355 H1347 0.930 . S
C1355 C1356 1.355 . S
C1355 C1357 1.415 . S
C1356 C1355 1.355 . S
C1356 C1358 1.419 . S
C1357 C1352 1.425 . S
C1357 C1354 1.409 . S
C1357 C1355 1.415 . S
C1358 H1348 0.930 . S
C1358 C1356 1.419 . S
C1358 C1359 1.362 . S
C1359 H1349 0.930 . S
C1359 C1352 1.409 . S
C1359 C1358 1.362 . S
H1360 C1366 0.930 . S
H1361 C1369 0.930 . S
H1362 C1370 0.930 . S
H1363 C1371 0.930 . S
H1364 C1374 0.930 . S
H1365 C1375 0.930 . S
C1366 H1360 0.930 . S
C1366 C1367 1.355 . S
C1366 C1368 1.415 . S
C1367 C1366 1.355 . S
C1367 C1369 1.419 . S
C1368 C1366 1.415 . S
C1368 C1373 1.425 . S
C1368 C1375 1.409 . S
C1369 H1361 0.930 . S
C1369 C1367 1.419 . S
C1369 C1370 1.362 . S
C1370 H1362 0.930 . S
C1370 C1369 1.362 . S
C1370 C1373 1.409 . S
C1371 H1363 0.930 . S
C1371 C1372 1.355 . S
C1371 C1373 1.415 . S
C1372 C1371 1.355 . S
C1372 C1374 1.419 . S
C1373 C1368 1.425 . S
C1373 C1370 1.409 . S
C1373 C1371 1.415 . S
C1374 H1364 0.930 . S
C1374 C1372 1.419 . S
C1374 C1375 1.362 . S
C1375 H1365 0.930 . S
C1375 C1368 1.409 . S
C1375 C1374 1.362 . S
H1376 C1382 0.930 . S
H1377 C1385 0.930 . S
H1378 C1386 0.930 . S
H1379 C1387 0.930 . S
H1380 C1390 0.930 . S
H1381 C1391 0.930 . S
C1382 H1376 0.930 . S
C1382 C1383 1.355 . S
C1382 C1384 1.415 . S
C1383 C1382 1.355 . S
C1383 C1385 1.419 . S
C1384 C1382 1.415 . S
C1384 C1389 1.425 . S
C1384 C1391 1.409 . S
C1385 H1377 0.930 . S
C1385 C1383 1.419 . S
C1385 C1386 1.362 . S
C1386 H1378 0.930 . S
C1386 C1385 1.362 . S
C1386 C1389 1.409 . S
C1387 H1379 0.930 . S
C1387 C1388 1.355 . S
C1387 C1389 1.415 . S
C1388 C1387 1.355 . S
C1388 C1390 1.419 . S
C1389 C1384 1.425 . S
C1389 C1386 1.409 . S
C1389 C1387 1.415 . S
C1390 H1380 0.930 . S
C1390 C1388 1.419 . S
C1390 C1391 1.362 . S
C1391 H1381 0.930 . S
C1391 C1384 1.409 . S
C1391 C1390 1.362 . S
H1392 C1398 0.930 . S
H1393 C1401 0.930 . S
H1394 C1402 0.930 . S
H1395 C1403 0.930 . S
H1396 C1406 0.930 . S
H1397 C1407 0.930 . S
C1398 H1392 0.930 . S
C1398 C1399 1.355 . S
C1398 C1400 1.415 . S
C1399 C1398 1.355 . S
C1399 C1401 1.419 . S
C1400 C1398 1.415 . S
C1400 C1405 1.425 . S
C1400 C1407 1.409 . S
C1401 H1393 0.930 . S
C1401 C1399 1.419 . S
C1401 C1402 1.362 . S
C1402 H1394 0.930 . S
C1402 C1401 1.362 . S
C1402 C1405 1.409 . S
C1403 H1395 0.930 . S
C1403 C1404 1.355 . S
C1403 C1405 1.415 . S
C1404 C1403 1.355 . S
C1404 C1406 1.419 . S
C1405 C1400 1.425 . S
C1405 C1402 1.409 . S
C1405 C1403 1.415 . S
C1406 H1396 0.930 . S
C1406 C1404 1.419 . S
C1406 C1407 1.362 . S
C1407 H1397 0.930 . S
C1407 C1400 1.409 . S
C1407 C1406 1.362 . S
H1408 C1414 0.930 . S
H1409 C1417 0.930 . S
H1410 C1418 0.930 . S
H1411 C1419 0.930 . S
H1412 C1422 0.930 . S
H1413 C1423 0.930 . S
C1414 H1408 0.930 . S
C1414 C1415 1.355 . S
C1414 C1416 1.415 . S
C1415 C1414 1.355 . S
C1415 C1417 1.419 . S
C1416 C1414 1.415 . S
C1416 C1421 1.425 . S
C1416 C1423 1.409 . S
C1417 H1409 0.930 . S
C1417 C1415 1.419 . S
C1417 C1418 1.362 . S
C1418 H1410 0.930 . S
C1418 C1417 1.362 . S
C1418 C1421 1.409 . S
C1419 H1411 0.930 . S
C1419 C1420 1.355 . S
C1419 C1421 1.415 . S
C1420 C1419 1.355 . S
C1420 C1422 1.419 . S
C1421 C1416 1.425 . S
C1421 C1418 1.409 . S
C1421 C1419 1.415 . S
C1422 H1412 0.930 . S
C1422 C1420 1.419 . S
C1422 C1423 1.362 . S
C1423 H1413 0.930 . S
C1423 C1416 1.409 . S
C1423 C1422 1.362 . S
H1424 C1430 0.930 . S
H1425 C1433 0.930 . S
H1426 C1434 0.930 . S
H1427 C1435 0.930 . S
H1428 C1438 0.930 . S
H1429 C1439 0.930 . S
C1430 H1424 0.930 . S
C1430 C1431 1.355 . S
C1430 C1432 1.415 . S
C1431 C1430 1.355 . S
C1431 C1433 1.419 . S
C1432 C1430 1.415 . S
C1432 C1437 1.425 . S
C1432 C1439 1.409 . S
C1433 H1425 0.930 . S
C1433 C1431 1.419 . S
C1433 C1434 1.362 . S
C1434 H1426 0.930 . S
C1434 C1433 1.362 . S
C1434 C1437 1.409 . S
C1435 H1427 0.930 . S
C1435 C1436 1.355 . S
C1435 C1437 1.415 . S
C1436 C1435 1.355 . S
C1436 C1438 1.419 . S
C1437 C1432 1.425 . S
C1437 C1434 1.409 . S
C1437 C1435 1.415 . S
C1438 H1428 0.930 . S
C1438 C1436 1.419 . S
C1438 C1439 1.362 . S
C1439 H1429 0.930 . S
C1439 C1432 1.409 . S
C1439 C1438 1.362 . S
C551 C275 2.796 . S
C556 C3 2.796 . S
C567 C37 2.816 . S
C572 C307 2.816 . S
C583 C343 2.823 . S
C588 C69 2.823 . S
C599 C103 2.824 . S
C604 C375 2.824 . S
C615 C137 2.802 . S
C620 C409 2.802 . S
C631 C171 2.796 . S
C636 C443 2.796 . S
C647 C477 2.800 . S
C652 C207 2.800 . S
C663 C511 2.804 . S
C668 C241 2.804 . S
C679 C1 1.848 . S
C684 C40 1.821 . S
C695 C96 1.735 . S
C700 C35 1.911 . S
C711 C130 1.770 . S
C716 C71 1.879 . S
C727 C6 1.761 . S
C732 C105 1.899 . S
C743 C244 1.811 . S
C748 C139 1.864 . S
C759 C164 1.750 . S
C764 C173 1.894 . S
C775 C205 1.896 . S
C780 C198 1.766 . S
C791 C239 1.871 . S
C796 C210 1.782 . S
C807 C334 1.772 . S
C812 C273 1.878 . S
C823 C309 1.883 . S
C828 C346 1.786 . S
C839 C402 1.766 . S
C844 C341 1.882 . S
C855 C278 1.739 . S
C860 C377 1.910 . S
C871 C538 1.735 . S
C876 C411 1.910 . S
C887 C436 1.759 . S
C892 C445 1.900 . S
C903 C470 1.780 . S
C908 C479 1.872 . S
C919 C504 1.803 . S
C924 C513 1.857 . S
C935 C328 0.728 . S
C940 C28 0.604 . S
C951 C355 0.728 . S
C956 C62 0.787 . S
C967 C396 0.590 . S
C972 C74 0.644 . S
C983 C287 0.627 . S
C988 C108 0.750 . S
C999 C532 0.597 . S
C1004 C142 0.714 . S
C1015 C430 0.624 . S
C1020 C176 0.747 . S
C1031 C232 0.674 . S
C1036 C464 0.786 . S
C1047 C498 0.784 . S
C1052 C266 0.670 . S
C1063 C300 0.782 . S
C1068 C49 0.751 . S
C1079 C312 0.717 . S
C1084 C90 0.599 . S
C1095 C368 0.707 . S
C1100 C124 0.794 . S
C1111 C15 0.792 . S
C1116 C380 0.695 . S
C1127 C414 0.737 . S
C1132 C253 0.792 . S
C1143 C158 0.613 . S
C1148 C448 0.736 . S
C1159 C482 0.631 . S
C1164 C192 0.760 . S
C1175 C516 0.642 . S
C1180 C219 0.768 . S
C1191 C185 1.317 . S
C1196 C22 1.347 . S
C1207 C226 1.327 . S
C1212 C56 1.355 . S
C1223 C260 1.290 . S
C1228 C83 1.287 . S
C1239 C151 1.363 . S
C1244 C117 1.353 . S
C1255 C457 1.334 . S
C1260 C294 1.303 . S
C1271 C321 1.287 . S
C1276 C491 1.291 . S
C1287 C362 1.287 . S
C1292 C525 1.290 . S
C1303 C389 1.290 . S
C1308 C423 1.315 . S
C1319 C85 1.849 . S
C1324 C17 1.827 . S
C1335 C51 1.869 . S
C1340 C119 1.865 . S
C1351 C221 1.828 . S
C1356 C153 1.853 . S
C1367 C255 1.872 . S
C1372 C187 1.857 . S
C1383 C289 1.827 . S
C1388 C357 1.841 . S
C1399 C391 1.872 . S
C1404 C323 1.856 . S
C1415 C493 1.865 . S
C1420 C425 1.868 . S
C1431 C527 1.827 . S
C1436 C459 1.841 . S
