# Generated by pormake.
# Topology uob, (4)-cn, num edge types: 1
# Building blocks:
#     Node 0, Type 0, BuildingBlock: NAWXER_clean_sbu_0, # of connection points: 4
#     Node 1, Type 0, BuildingBlock: NAWXER_clean_sbu_0, # of connection points: 4
#     Node 2, Type 0, BuildingBlock: NAWXER_clean_sbu_0, # of connection points: 4
#     Node 3, Type 0, BuildingBlock: NAWXER_clean_sbu_0, # of connection points: 4
#     Node 4, Type 0, BuildingBlock: NAWXER_clean_sbu_0, # of connection points: 4
#     Node 5, Type 0, BuildingBlock: NAWXER_clean_sbu_0, # of connection points: 4
#     Node 6, Type 0, BuildingBlock: NAWXER_clean_sbu_0, # of connection points: 4
#     Node 7, Type 0, BuildingBlock: NAWXER_clean_sbu_0, # of connection points: 4
#     Node 8, Type 0, BuildingBlock: NAWXER_clean_sbu_0, # of connection points: 4
#     Node 9, Type 0, BuildingBlock: NAWXER_clean_sbu_0, # of connection points: 4
#     Node 10, Type 0, BuildingBlock: NAWXER_clean_sbu_0, # of connection points: 4
#     Node 11, Type 0, BuildingBlock: NAWXER_clean_sbu_0, # of connection points: 4
#     Node 12, Type 0, BuildingBlock: NAWXER_clean_sbu_0, # of connection points: 4
#     Node 13, Type 0, BuildingBlock: NAWXER_clean_sbu_0, # of connection points: 4
#     Node 14, Type 0, BuildingBlock: NAWXER_clean_sbu_0, # of connection points: 4
#     Node 15, Type 0, BuildingBlock: NAWXER_clean_sbu_0, # of connection points: 4
#     Edge 16, Type (0, 0), BuildingBlock: EZIPEK_clean_linker_0, # of connection points: 2
#     Edge 17, Type (0, 0), BuildingBlock: EZIPEK_clean_linker_0, # of connection points: 2
#     Edge 18, Type (0, 0), BuildingBlock: EZIPEK_clean_linker_0, # of connection points: 2
#     Edge 19, Type (0, 0), BuildingBlock: EZIPEK_clean_linker_0, # of connection points: 2
#     Edge 20, Type (0, 0), BuildingBlock: EZIPEK_clean_linker_0, # of connection points: 2
#     Edge 21, Type (0, 0), BuildingBlock: EZIPEK_clean_linker_0, # of connection points: 2
#     Edge 22, Type (0, 0), BuildingBlock: EZIPEK_clean_linker_0, # of connection points: 2
#     Edge 23, Type (0, 0), BuildingBlock: EZIPEK_clean_linker_0, # of connection points: 2
#     Edge 24, Type (0, 0), BuildingBlock: EZIPEK_clean_linker_0, # of connection points: 2
#     Edge 25, Type (0, 0), BuildingBlock: EZIPEK_clean_linker_0, # of connection points: 2
#     Edge 26, Type (0, 0), BuildingBlock: EZIPEK_clean_linker_0, # of connection points: 2
#     Edge 27, Type (0, 0), BuildingBlock: EZIPEK_clean_linker_0, # of connection points: 2
#     Edge 28, Type (0, 0), BuildingBlock: EZIPEK_clean_linker_0, # of connection points: 2
#     Edge 29, Type (0, 0), BuildingBlock: EZIPEK_clean_linker_0, # of connection points: 2
#     Edge 30, Type (0, 0), BuildingBlock: EZIPEK_clean_linker_0, # of connection points: 2
#     Edge 31, Type (0, 0), BuildingBlock: EZIPEK_clean_linker_0, # of connection points: 2
#     Edge 32, Type (0, 0), BuildingBlock: EZIPEK_clean_linker_0, # of connection points: 2
#     Edge 33, Type (0, 0), BuildingBlock: EZIPEK_clean_linker_0, # of connection points: 2
#     Edge 34, Type (0, 0), BuildingBlock: EZIPEK_clean_linker_0, # of connection points: 2
#     Edge 35, Type (0, 0), BuildingBlock: EZIPEK_clean_linker_0, # of connection points: 2
#     Edge 36, Type (0, 0), BuildingBlock: EZIPEK_clean_linker_0, # of connection points: 2
#     Edge 37, Type (0, 0), BuildingBlock: EZIPEK_clean_linker_0, # of connection points: 2
#     Edge 38, Type (0, 0), BuildingBlock: EZIPEK_clean_linker_0, # of connection points: 2
#     Edge 39, Type (0, 0), BuildingBlock: EZIPEK_clean_linker_0, # of connection points: 2
#     Edge 40, Type (0, 0), BuildingBlock: EZIPEK_clean_linker_0, # of connection points: 2
#     Edge 41, Type (0, 0), BuildingBlock: EZIPEK_clean_linker_0, # of connection points: 2
#     Edge 42, Type (0, 0), BuildingBlock: EZIPEK_clean_linker_0, # of connection points: 2
#     Edge 43, Type (0, 0), BuildingBlock: EZIPEK_clean_linker_0, # of connection points: 2
#     Edge 44, Type (0, 0), BuildingBlock: EZIPEK_clean_linker_0, # of connection points: 2
#     Edge 45, Type (0, 0), BuildingBlock: EZIPEK_clean_linker_0, # of connection points: 2
#     Edge 46, Type (0, 0), BuildingBlock: EZIPEK_clean_linker_0, # of connection points: 2
#     Edge 47, Type (0, 0), BuildingBlock: EZIPEK_clean_linker_0, # of connection points: 2
# Relax obj value: 0.120
# Max RMSD: 0.245
# Mean RMSD: 0.245
data_MOF--net-uob--node1-NAWXER_clean_sbu_0--edge1-EZIPEK_clean_linker_0
_symmetry_space_group_name_H-M    P1
_symmetry_Int_Tables_number       1
_symmetry_cell_setting            triclinic
loop_
_symmetry_equiv_pos_as_xyz
'x, y, z'
_cell_length_a     38.411389
_cell_length_b     38.344178
_cell_length_c     20.788617
_cell_angle_alpha  90.019731
_cell_angle_beta   90.103987
_cell_angle_gamma 90.015906
loop_
_atom_site_label
_atom_site_type_symbol
_atom_site_fract_x
_atom_site_fract_y
_atom_site_fract_z
_atom_type_partial_charge
C0 C 0.10581 0.09303 0.3964 0.0
C1 C 0.12979 0.10457 0.16479 0.0
O2 O 0.11635 0.06515 0.36907 0.0
Zn3 Zn 0.13759 0.04893 0.27897 0.0
O4 O 0.10458 0.12135 0.36422 0.0
Zn5 Zn 0.12121 0.10154 0.28361 0.0
O6 O 0.08001 0.06383 0.26711 0.0
O7 O 0.10447 0.01182 0.26041 0.0
O8 O 0.12021 0.12831 0.20359 0.0
O9 O 0.13895 0.07493 0.18765 0.0
O10 O 0.18501 0.03855 0.30778 0.0
O11 O 0.17444 0.09468 0.3132 0.0
C12 C 0.0772 0.03078 0.25914 0.0
C13 C 0.1946 0.0689 0.32521 0.0
C14 C 0.92402 0.59715 0.63305 0.0
C15 C 0.91331 0.63308 0.40689 0.0
O16 O 0.95117 0.61235 0.61085 0.0
Zn17 Zn 0.96854 0.6364 0.5218 0.0
O18 O 0.89692 0.59538 0.59761 0.0
Zn19 Zn 0.91709 0.61772 0.52367 0.0
O20 O 0.95547 0.57836 0.50416 0.0
O21 O 0.00646 0.60458 0.49983 0.0
O22 O 0.89054 0.61986 0.4437 0.0
O23 O 0.94242 0.64261 0.43139 0.0
O24 O 0.97922 0.68286 0.55391 0.0
O25 O 0.9239 0.66902 0.56646 0.0
C26 C 0.98852 0.5767 0.49724 0.0
C27 C 0.94942 0.68992 0.57713 0.0
C28 C 0.39773 0.41288 0.89868 0.0
C29 C 0.37682 0.40488 0.67145 0.0
O30 O 0.38658 0.44211 0.87667 0.0
Zn31 Zn 0.36834 0.46132 0.78348 0.0
O32 O 0.40095 0.38651 0.86202 0.0
Zn33 Zn 0.3827 0.40927 0.78857 0.0
O34 O 0.42513 0.4466 0.77289 0.0
O35 O 0.40039 0.49881 0.77161 0.0
O36 O 0.3796 0.38079 0.71266 0.0
O37 O 0.37199 0.43629 0.69075 0.0
O38 O 0.32026 0.47399 0.80298 0.0
O39 O 0.33098 0.41898 0.82509 0.0
C40 C 0.42758 0.47996 0.76857 0.0
C41 C 0.31091 0.44555 0.82895 0.0
C42 C 0.60378 0.89606 0.13629 0.0
C43 C 0.60441 0.87708 0.90925 0.0
O44 O 0.5734 0.88673 0.11705 0.0
Zn45 Zn 0.55045 0.87067 0.02586 0.0
O46 O 0.62919 0.89774 0.09742 0.0
Zn47 Zn 0.60313 0.88216 0.02584 0.0
O48 O 0.56775 0.92703 0.01514 0.0
O49 O 0.5145 0.90502 0.01873 0.0
O50 O 0.62947 0.8791 0.94856 0.0
O51 O 0.57329 0.87345 0.93072 0.0
O52 O 0.53595 0.82305 0.04501 0.0
O53 O 0.5919 0.82955 0.05698 0.0
C54 C 0.53453 0.93132 0.01444 0.0
C55 C 0.56492 0.81014 0.06215 0.0
C56 C 0.19032 0.44483 -0.0002 0.0
C57 C 0.07249 0.48064 0.06456 0.0
O58 O 0.17063 0.4187 0.01205 0.0
Zn59 Zn 0.11734 0.41096 0.04128 0.0
O60 O 0.1803 0.4751 0.0169 0.0
Zn61 Zn 0.13346 0.46349 0.04624 0.0
O62 O 0.13774 0.43624 0.13626 0.0
O63 O 0.11693 0.38358 0.1195 0.0
O64 O 0.09954 0.49987 0.06522 0.0
O65 O 0.07571 0.44767 0.05676 0.0
O66 O 0.10126 0.39074 0.96158 0.0
O67 O 0.11329 0.44687 0.95527 0.0
C68 C 0.12861 0.40635 0.1583 0.0
C69 C 0.10327 0.41866 0.92841 0.0
C70 C 0.59815 0.61136 0.1849 0.0
C71 C 0.59967 0.63592 0.41044 0.0
O72 O 0.56767 0.62036 0.20399 0.0
Zn73 Zn 0.54483 0.63831 0.29466 0.0
O74 O 0.62386 0.61077 0.22345 0.0
Zn75 Zn 0.59778 0.62755 0.29402 0.0
O76 O 0.56317 0.58244 0.308 0.0
O77 O 0.50939 0.60324 0.3047 0.0
O78 O 0.62444 0.63393 0.37072 0.0
O79 O 0.56831 0.63805 0.38937 0.0
O80 O 0.52956 0.68555 0.27097 0.0
O81 O 0.58546 0.67791 0.25447 0.0
C82 C 0.53006 0.5775 0.30999 0.0
C83 C 0.55793 0.69618 0.24652 0.0
C84 C 0.40161 0.10328 0.43804 0.0
C85 C 0.37528 0.10141 0.6655 0.0
O86 O 0.39084 0.07315 0.45605 0.0
Zn87 Zn 0.37152 0.04998 0.54513 0.0
O88 O 0.4035 0.12859 0.47755 0.0
Zn89 Zn 0.38577 0.10244 0.54785 0.0
O90 O 0.42882 0.06627 0.55778 0.0
O91 O 0.40573 0.01361 0.55717 0.0
O92 O 0.38373 0.12653 0.62923 0.0
O93 O 0.36809 0.07183 0.64 0.0
O94 O 0.32493 0.03649 0.51806 0.0
O95 O 0.33404 0.09296 0.50815 0.0
C96 C 0.4325 0.03308 0.56042 0.0
C97 C 0.31494 0.06606 0.49755 0.0
C98 C 0.90245 0.88946 0.66758 0.0
C99 C 0.89072 0.87539 0.89807 0.0
O100 O 0.93113 0.88068 0.69466 0.0
Zn101 Zn 0.94912 0.86659 0.78926 0.0
O102 O 0.87444 0.8913 0.70004 0.0
Zn103 Zn 0.89583 0.87813 0.78014 0.0
O104 O 0.93041 0.92291 0.79362 0.0
O105 O 0.98411 0.90215 0.80017 0.0
O106 O 0.86681 0.87758 0.85614 0.0
O107 O 0.92225 0.87068 0.8797 0.0
O108 O 0.96385 0.81838 0.7752 0.0
O109 O 0.90834 0.82488 0.75701 0.0
C110 C 0.96333 0.92802 0.7997 0.0
C111 C 0.93524 0.80518 0.75641 0.0
C112 C 0.68733 0.56552 0.83035 0.0
C113 C 0.56621 0.53961 0.77528 0.0
O114 O 0.66837 0.59294 0.82801 0.0
Zn115 Zn 0.61624 0.6058 0.79865 0.0
O116 O 0.67589 0.53717 0.80651 0.0
Zn117 Zn 0.628 0.55242 0.79035 0.0
O118 O 0.62626 0.58039 0.70018 0.0
O119 O 0.61994 0.63588 0.72536 0.0
O120 O 0.59141 0.51819 0.77975 0.0
O121 O 0.57227 0.57244 0.77841 0.0
O122 O 0.60021 0.62614 0.87689 0.0
O123 O 0.6148 0.57045 0.88501 0.0
C124 C 0.62265 0.61235 0.68286 0.0
C125 C 0.60491 0.599 0.91107 0.0
C126 C 0.41888 0.11168 0.16486 0.0
C127 C 0.40269 0.12763 0.93572 0.0
O128 O 0.44729 0.12097 0.13758 0.0
Zn129 Zn 0.46405 0.13375 0.04095 0.0
O130 O 0.39132 0.10747 0.13166 0.0
Zn131 Zn 0.41108 0.12218 0.05208 0.0
O132 O 0.44437 0.07768 0.03359 0.0
O133 O 0.49836 0.09697 0.02967 0.0
O134 O 0.37997 0.12444 0.97937 0.0
O135 O 0.43488 0.13121 0.95129 0.0
O136 O 0.47968 0.18193 0.05557 0.0
O137 O 0.42448 0.17464 0.08013 0.0
C138 C 0.47704 0.07155 0.0281 0.0
C139 C 0.452 0.1935 0.08147 0.0
C140 C 0.9363 0.9748 0.26409 0.0
C141 C 0.81608 0.95412 0.32918 0.0
O142 O 0.92946 0.94203 0.26773 0.0
Zn143 Zn 0.8832 0.91031 0.2872 0.0
O144 O 0.91161 0.99687 0.26742 0.0
Zn145 Zn 0.87449 0.96375 0.28079 0.0
O146 O 0.89214 0.9438 0.37336 0.0
O147 O 0.89971 0.88725 0.36208 0.0
O148 O 0.82798 0.98155 0.30292 0.0
O149 O 0.8335 0.92578 0.32463 0.0
O150 O 0.87559 0.88147 0.21289 0.0
O151 O 0.87286 0.93721 0.18872 0.0
C152 C 0.90163 0.91443 0.39708 0.0
C153 C 0.87371 0.90517 0.17067 0.0
C154 C 0.03584 0.43345 0.5121 0.0
C155 C 0.05895 0.31213 0.57763 0.0
O156 O 0.06803 0.42699 0.52359 0.0
Zn157 Zn 0.10036 0.38195 0.54544 0.0
O158 O 0.01381 0.40858 0.51105 0.0
Zn159 Zn 0.04687 0.37173 0.53163 0.0
O160 O 0.06105 0.3896 0.62565 0.0
O161 O 0.11804 0.39659 0.62762 0.0
O162 O 0.03084 0.32471 0.55495 0.0
O163 O 0.08696 0.32982 0.57151 0.0
O164 O 0.13203 0.3795 0.47334 0.0
O165 O 0.07738 0.37137 0.4442 0.0
C166 C 0.0888 0.39729 0.65647 0.0
C167 C 0.10958 0.37513 0.42924 0.0
C168 C 0.69578 0.95041 0.49922 0.0
C169 C 0.57185 0.97485 0.54151 0.0
O170 O 0.67649 0.92319 0.50019 0.0
Zn171 Zn 0.62351 0.9095 0.52225 0.0
O172 O 0.68199 0.97912 0.51613 0.0
Zn173 Zn 0.63406 0.96309 0.52897 0.0
O174 O 0.6314 0.93572 0.62012 0.0
O175 O 0.62591 0.87996 0.59605 0.0
O176 O 0.59676 0.99665 0.53757 0.0
O177 O 0.57846 0.9421 0.53906 0.0
O178 O 0.60994 0.88785 0.44379 0.0
O179 O 0.62288 0.94386 0.43415 0.0
C180 C 0.62785 0.90383 0.63805 0.0
C181 C 0.61398 0.91475 0.40887 0.0
C182 C 0.04741 0.18811 0.74021 0.0
C183 C 0.01837 0.06929 0.80547 0.0
O184 O 0.07437 0.16856 0.74475 0.0
Zn185 Zn 0.08596 0.11672 0.77846 0.0
O186 O 0.0188 0.17804 0.76466 0.0
Zn187 Zn 0.0334 0.13095 0.78791 0.0
O188 O 0.06151 0.1343 0.87724 0.0
O189 O 0.11527 0.11921 0.85509 0.0
O190 O 0.99848 0.09582 0.80767 0.0
O191 O 0.05102 0.07359 0.79574 0.0
O192 O 0.10557 0.0997 0.69975 0.0
O193 O 0.04972 0.11209 0.69394 0.0
C194 C 0.09261 0.12795 0.89634 0.0
C195 C 0.07745 0.10081 0.66699 0.0
C196 C 0.93206 0.53579 0.04568 0.0
C197 C 0.81307 0.5713 0.98866 0.0
O198 O 0.9289 0.5685 0.034 0.0
Zn199 Zn 0.8873 0.60566 0.01584 0.0
O200 O 0.90506 0.51656 0.04901 0.0
Zn201 Zn 0.87173 0.55338 0.03072 0.0
O202 O 0.8891 0.56566 0.9355 0.0
O203 O 0.90156 0.62179 0.93135 0.0
O204 O 0.82328 0.54198 0.01023 0.0
O205 O 0.83351 0.59746 0.99394 0.0
O206 O 0.89 0.6369 0.08971 0.0
O207 O 0.87561 0.58353 0.11857 0.0
C208 C 0.89887 0.59231 0.90335 0.0
C209 C 0.88331 0.61506 0.13388 0.0
C210 C 0.41136 0.40013 0.17224 0.0
C211 C 0.40553 0.38183 0.4001 0.0
O212 O 0.44125 0.3907 0.19388 0.0
Zn213 Zn 0.46221 0.37524 0.28711 0.0
O214 O 0.38537 0.40267 0.20958 0.0
Zn215 Zn 0.40954 0.38717 0.2836 0.0
O216 O 0.44497 0.43146 0.29813 0.0
O217 O 0.49833 0.4096 0.29772 0.0
O218 O 0.38138 0.38447 0.35897 0.0
O219 O 0.43703 0.37786 0.38071 0.0
O220 O 0.47658 0.32731 0.26958 0.0
O221 O 0.42087 0.33411 0.25514 0.0
C222 C 0.47812 0.43574 0.30192 0.0
C223 C 0.44768 0.31434 0.25202 0.0
C224 C 0.28537 0.05051 0.39251 0.0
C225 C 0.28466 0.06881 0.45223 0.0
C226 C 0.22724 0.09318 0.42385 0.0
C227 C 0.22727 0.07359 0.36493 0.0
N228 N 0.26088 0.04307 0.28546 0.0
N229 N 0.25852 0.11277 0.51913 0.0
C230 C 0.25765 0.05484 0.3473 0.0
C231 C 0.2568 0.0919 0.46578 0.0
N232 N 0.31289 0.02924 0.37822 0.0
N233 N 0.19849 0.11169 0.44222 0.0
H234 H 0.27759 0.11018 0.55454 0.0
H235 H 0.2423 0.1341 0.52685 0.0
H236 H 0.1768 0.11598 0.41365 0.0
H237 H 0.19476 0.12134 0.48848 0.0
H238 H 0.31265 0.01126 0.34069 0.0
H239 H 0.33574 0.02839 0.4052 0.0
H240 H 0.28356 0.03225 0.2668 0.0
H241 H 0.24203 0.04763 0.25027 0.0
C242 C 0.96273 0.74632 0.72824 0.0
C243 C 0.93443 0.77011 0.72261 0.0
C244 C 0.91646 0.74129 0.62224 0.0
C245 C 0.94519 0.71823 0.62617 0.0
N246 N 0.98831 0.6913 0.69512 0.0
N247 N 0.87514 0.77489 0.68354 0.0
C248 C 0.96643 0.71863 0.68258 0.0
C249 C 0.90835 0.763 0.67561 0.0
N250 N 0.98534 0.74923 0.7787 0.0
N251 N 0.89713 0.74311 0.56714 0.0
H252 H 0.86648 0.78568 0.72662 0.0
H253 H 0.85495 0.76864 0.65201 0.0
H254 H 0.90271 0.72827 0.52636 0.0
H255 H 0.87792 0.76193 0.55998 0.0
H256 H 0.00942 0.73678 0.78024 0.0
H257 H 0.97971 0.76407 0.81942 0.0
H258 H 1.00159 0.68817 0.73843 0.0
H259 H 0.99069 0.66967 0.66515 0.0
C260 C 0.25268 0.42058 0.86073 0.0
C261 C 0.2802 0.44426 0.87294 0.0
C262 C 0.25293 0.46004 0.9764 0.0
C263 C 0.2228 0.44054 0.9598 0.0
N264 N 0.19393 0.40212 0.88283 0.0
N265 N 0.30716 0.48677 0.9431 0.0
C266 C 0.22284 0.42029 0.90166 0.0
C267 C 0.2804 0.46416 0.93085 0.0
N268 N 0.25499 0.39814 0.8097 0.0
N269 N 0.25625 0.47281 0.03756 0.0
H270 H 0.32958 0.48828 0.91513 0.0
H271 H 0.30643 0.50545 0.97943 0.0
H272 H 0.23764 0.46846 0.07317 0.0
H273 H 0.2789 0.4842 0.05535 0.0
H274 H 0.23879 0.3766 0.80363 0.0
H275 H 0.2746 0.39957 0.77518 0.0
H276 H 0.19062 0.3919 0.83682 0.0
H277 H 0.17172 0.39898 0.91031 0.0
C278 C 0.53794 0.75202 0.09701 0.0
C279 C 0.56637 0.77588 0.09849 0.0
C280 C 0.58693 0.74895 0.19869 0.0
C281 C 0.55871 0.72514 0.19813 0.0
N282 N 0.51452 0.69671 0.1333 0.0
N283 N 0.62671 0.78062 0.13121 0.0
C284 C 0.53596 0.72467 0.14371 0.0
C285 C 0.59361 0.76965 0.14347 0.0
N286 N 0.51368 0.75423 0.04912 0.0
N287 N 0.60746 0.75211 0.25206 0.0
H288 H 0.6342 0.79047 0.08665 0.0
H289 H 0.64768 0.77446 0.16104 0.0
H290 H 0.60282 0.7382 0.29432 0.0
H291 H 0.62667 0.77121 0.25618 0.0
H292 H 0.48958 0.74182 0.05116 0.0
H293 H 0.5179 0.76838 0.00701 0.0
H294 H 0.5002 0.69318 0.09123 0.0
H295 H 0.51362 0.67495 0.16314 0.0
C296 C 0.74676 0.59035 0.85253 0.0
C297 C 0.72001 0.56663 0.86935 0.0
C298 C 0.75023 0.5544 0.97173 0.0
C299 C 0.7795 0.57403 0.95099 0.0
N300 N 0.80537 0.61105 0.86808 0.0
N301 N 0.69618 0.52516 0.94502 0.0
C302 C 0.77754 0.59258 0.89098 0.0
C303 C 0.72186 0.54822 0.92875 0.0
N304 N 0.74271 0.6111 0.79945 0.0
N305 N 0.74847 0.54369 0.0344 0.0
H306 H 0.67335 0.5219 0.91859 0.0
H307 H 0.69837 0.50759 0.98301 0.0
H308 H 0.76754 0.54988 0.06832 0.0
H309 H 0.72647 0.53238 0.05485 0.0
H310 H 0.75796 0.63298 0.79023 0.0
H311 H 0.72267 0.60779 0.76608 0.0
H312 H 0.80721 0.61988 0.82087 0.0
H313 H 0.82822 0.61581 0.89299 0.0
C314 C 0.41846 0.27157 0.17487 0.0
C315 C 0.44607 0.27915 0.21847 0.0
C316 C 0.47591 0.22627 0.17831 0.0
C317 C 0.45244 0.22469 0.12503 0.0
N318 N 0.40334 0.24975 0.06941 0.0
N319 N 0.49905 0.25879 0.2688 0.0
C320 C 0.42445 0.24868 0.12229 0.0
C321 C 0.47442 0.25519 0.22184 0.0
N322 N 0.38554 0.28329 0.1865 0.0
N323 N 0.49765 0.19883 0.19095 0.0
H324 H 0.49503 0.2738 0.30994 0.0
H325 H 0.5232 0.24647 0.26719 0.0
H326 H 0.49865 0.17627 0.16316 0.0
H327 H 0.5124 0.19668 0.23282 0.0
H328 H 0.36431 0.27637 0.15788 0.0
H329 H 0.37835 0.29461 0.23003 0.0
H330 H 0.38434 0.26889 0.06312 0.0
H331 H 0.40729 0.23389 0.02926 0.0
C332 C 0.78351 0.97921 0.42539 0.0
C333 C 0.78526 0.95498 0.37328 0.0
C334 C 0.73925 0.92103 0.42503 0.0
C335 C 0.73117 0.94922 0.46696 0.0
N336 N 0.7503 1.00369 0.51365 0.0
N337 N 0.75973 0.90541 0.31933 0.0
C338 C 0.75452 0.97813 0.46865 0.0
C339 C 0.76142 0.92683 0.37172 0.0
N340 N 0.81077 1.00129 0.4372 0.0
N341 N 0.72857 0.88793 0.43876 0.0
H342 H 0.77467 0.90949 0.27812 0.0
H343 H 0.74076 0.8861 0.31455 0.0
H344 H 0.71788 0.88115 0.48306 0.0
H345 H 0.73577 0.86647 0.41095 0.0
H346 H 0.81264 0.01673 0.47828 0.0
H347 H 0.83341 1.0018 0.40982 0.0
H348 H 0.7625 0.02791 0.5107 0.0
H349 H 0.73489 1.00041 0.55442 0.0
C350 C 0.03818 0.25037 0.59719 0.0
C351 C 0.05862 0.27924 0.61757 0.0
C352 C 0.07342 0.24696 0.71728 0.0
C353 C 0.04951 0.2204 0.70022 0.0
N354 N 0.00732 0.19733 0.62502 0.0
N355 N 0.09401 0.30562 0.70223 0.0
C356 C 0.03117 0.22242 0.64073 0.0
C357 C 0.07615 0.27755 0.6786 0.0
N358 N 0.0274 0.2485 0.53453 0.0
N359 N 0.0938 0.243 0.77088 0.0
H360 H 0.09847 0.32851 0.67733 0.0
H361 H 0.10231 0.30764 0.74979 0.0
H362 H 0.0902 0.22311 0.80442 0.0
H363 H 0.11569 0.25821 0.78032 0.0
H364 H 0.01561 0.22659 0.51446 0.0
H365 H 0.03382 0.26731 0.50033 0.0
H366 H 0.99 0.19964 0.58666 0.0
H367 H 0.00312 0.17501 0.65246 0.0
C368 C 0.01719 0.0245 0.20976 0.0
C369 C 0.04178 0.01476 0.25787 0.0
C370 C 0.99728 0.97807 0.30988 0.0
C371 C 0.97313 0.98708 0.26048 0.0
N372 N 0.9623 0.01228 0.15634 0.0
N373 N 0.05329 0.98814 0.36095 0.0
C374 C 0.98369 0.00856 0.20857 0.0
C375 C 0.0315 0.99256 0.3093 0.0
N376 N 0.02511 0.05029 0.16687 0.0
N377 N 0.98748 0.95576 0.35784 0.0
H378 H 0.07799 0.99922 0.36418 0.0
H379 H 0.04622 0.97597 0.40365 0.0
H380 H 0.96192 0.94799 0.36523 0.0
H381 H 0.00478 0.94358 0.38915 0.0
H382 H 0.00703 0.06145 0.13571 0.0
H383 H 0.04897 0.06305 0.16622 0.0
H384 H 0.96998 0.02409 0.11355 0.0
H385 H 0.93787 1.0005 0.15313 0.0
C386 C 0.99652 0.51763 0.44537 0.0
C387 C 0.00509 0.54158 0.49535 0.0
C388 C 0.03065 0.49373 0.55786 0.0
C389 C 0.02457 0.47041 0.50596 0.0
N390 N 0.00827 0.46165 0.39519 0.0
N391 N 0.03666 0.55331 0.59397 0.0
C392 C 0.00938 0.48278 0.44813 0.0
C393 C 0.0245 0.52998 0.54954 0.0
N394 N 0.97554 0.52794 0.3958 0.0
N395 N 0.0401 0.48099 0.61678 0.0
H396 H 0.03179 0.57996 0.59208 0.0
H397 H 0.0543 0.54659 0.63002 0.0
H398 H 0.0431 0.45449 0.62597 0.0
H399 H 0.04119 0.49616 0.65831 0.0
H400 H 0.96513 0.51074 0.36207 0.0
H401 H 0.96666 0.55344 0.39076 0.0
H402 H 1.00101 0.47038 0.34966 0.0
H403 H 0.01755 0.43608 0.39553 0.0
C404 C 0.48573 0.48994 0.71608 0.0
C405 C 0.46237 0.49659 0.76741 0.0
C406 C 0.50446 0.53664 0.81642 0.0
C407 C 0.52969 0.52678 0.76958 0.0
N408 N 0.54453 0.49415 0.6741 0.0
N409 N 0.45179 0.52089 0.87274 0.0
C410 C 0.52038 0.5033 0.7193 0.0
C411 C 0.47224 0.51865 0.819 0.0
N412 N 0.47428 0.47207 0.66314 0.0
N413 N 0.51073 0.56331 0.85859 0.0
H414 H 0.4281 0.50791 0.87767 0.0
H415 H 0.45993 0.53273 0.9153 0.0
H416 H 0.53408 0.57679 0.862 0.0
H417 H 0.49139 0.57428 0.88727 0.0
H418 H 0.48864 0.46926 0.62106 0.0
H419 H 0.44904 0.4622 0.65916 0.0
H420 H 0.54106 0.47388 0.64141 0.0
H421 H 0.56881 0.50614 0.67044 0.0
C422 C 0.525 0.99066 0.96456 0.0
C423 C 0.51954 0.96705 0.01613 0.0
C424 C 0.48127 0.00945 0.06896 0.0
C425 C 0.48984 0.03486 0.02146 0.0
N426 N 0.51985 0.0497 0.9232 0.0
N427 N 0.49873 0.95671 0.12388 0.0
C428 C 0.51192 0.02549 0.96917 0.0
C429 C 0.4993 0.97716 0.06992 0.0
N430 N 0.54136 0.97928 0.91005 0.0
N431 N 0.45557 0.0155 0.11299 0.0
H432 H 0.51199 0.93308 0.12758 0.0
H433 H 0.4882 0.96491 0.1675 0.0
H434 H 0.4416 0.03857 0.1164 0.0
H435 H 0.44567 0.99612 0.14293 0.0
H436 H 0.54311 0.99378 0.86789 0.0
H437 H 0.55109 0.95402 0.90512 0.0
H438 H 0.5392 0.04624 0.88881 0.0
H439 H 0.50775 0.07399 0.92044 0.0
C440 C 0.02654 0.5149 0.0064 0.0
C441 C 0.03696 0.49606 0.06212 0.0
C442 C 0.97869 0.5044 0.10866 0.0
C443 C 0.9676 0.52073 0.05098 0.0
N444 N 0.97869 0.53466 0.93977 0.0
N445 N 0.02074 0.4666 0.16033 0.0
C446 C 0.99097 0.5243 0.99853 0.0
C447 C 0.01235 0.48889 0.11148 0.0
N448 N 0.05039 0.52324 0.96009 0.0
N449 N 0.95764 0.50484 0.16161 0.0
H450 H 0.04495 0.45465 0.16414 0.0
H451 H 1.00273 0.45755 0.19382 0.0
H452 H 0.93288 0.516 0.16148 0.0
H453 H 0.96589 0.49696 0.2071 0.0
H454 H 0.04533 0.54081 0.92304 0.0
H455 H 0.07604 0.51444 0.96041 0.0
H456 H 0.99347 0.53433 0.89785 0.0
H457 H 0.95254 0.54013 0.93119 0.0
C458 C 0.50351 0.48825 0.24833 0.0
C459 C 0.49269 0.47152 0.30568 0.0
C460 C 0.50878 0.52372 0.36776 0.0
C461 C 0.51614 0.54142 0.30941 0.0
N462 N 0.51283 0.54304 0.19355 0.0
N463 N 0.48141 0.4739 0.4196 0.0
C464 C 0.5113 0.5244 0.24951 0.0
C465 C 0.49421 0.48946 0.36543 0.0
N466 N 0.50718 0.46949 0.19285 0.0
N467 N 0.51625 0.53943 0.42517 0.0
H468 H 0.47173 0.44846 0.41981 0.0
H469 H 0.47839 0.4868 0.46331 0.0
H470 H 0.52608 0.56476 0.42826 0.0
H471 H 0.5149 0.5267 0.46932 0.0
H472 H 0.51861 0.47961 0.15144 0.0
H473 H 0.50149 0.44295 0.18967 0.0
H474 H 0.50562 0.53277 0.14906 0.0
H475 H 0.51837 0.56965 0.19217 0.0
C476 C 0.49381 0.02632 0.60433 0.0
C477 C 0.46801 0.01751 0.5578 0.0
C478 C 0.50896 0.97745 0.50515 0.0
C479 C 0.53534 0.98733 0.54976 0.0
N480 N 0.55071 0.01413 0.65064 0.0
N481 N 0.45452 0.99261 0.45397 0.0
C482 C 0.52723 0.01009 0.60157 0.0
C483 C 0.4764 0.99497 0.50589 0.0
N484 N 0.48682 0.05104 0.64992 0.0
N485 N 0.51434 0.95075 0.4627 0.0
H486 H 0.43117 0.00631 0.45023 0.0
H487 H 0.46129 0.98036 0.41107 0.0
H488 H 0.53757 0.93712 0.45857 0.0
H489 H 0.49447 0.93964 0.43537 0.0
H490 H 0.50551 0.06189 0.68017 0.0
H491 H 0.46263 0.06285 0.65499 0.0
H492 H 0.54543 0.02718 0.69339 0.0
H493 H 0.57473 1.00147 0.65168 0.0
C494 C 0.01409 0.00856 0.85268 0.0
C495 C 0.00373 0.03327 0.80526 0.0
C496 C 0.97041 0.98737 0.75004 0.0
C497 C 0.97709 0.96424 0.80196 0.0
N498 N 1.00011 0.95487 0.90847 0.0
N499 N 0.97016 0.04654 0.70967 0.0
C500 C 0.99748 0.97541 0.85494 0.0
C501 C 0.98097 0.02287 0.75466 0.0
N502 N 0.04051 0.01612 0.89441 0.0
N503 N 0.95617 0.97486 0.69427 0.0
H504 H 0.97998 0.07179 0.70629 0.0
H505 H 0.94999 0.04165 0.67735 0.0
H506 H 0.94962 0.94875 0.68776 0.0
H507 H 0.95415 0.98938 0.65212 0.0
H508 H 0.05133 0.99783 0.92563 0.0
H509 H 0.05418 0.03949 0.89329 0.0
H510 H 0.01146 0.96333 0.95129 0.0
H511 H 0.98797 0.93062 0.91227 0.0
C512 C 0.10451 0.06922 0.57485 0.0
C513 C 0.07766 0.09109 0.59722 0.0
C514 C 0.06362 0.10732 0.4857 0.0
C515 C 0.09515 0.09125 0.46523 0.0
N516 N 0.14691 0.05754 0.49317 0.0
N517 N 0.02112 0.11494 0.57058 0.0
C518 C 0.11565 0.07185 0.51024 0.0
C519 C 0.05403 0.10589 0.55194 0.0
N520 N 0.11778 0.04414 0.61468 0.0
N521 N 0.04243 0.12328 0.44173 0.0
H522 H 0.01046 0.10755 0.61439 0.0
H523 H 1.00215 0.12481 0.53988 0.0
H524 H 0.0449 0.11985 0.39224 0.0
H525 H 0.02266 0.14058 0.45397 0.0
H526 H 0.13495 0.02482 0.59938 0.0
H527 H 0.10779 0.03971 0.66064 0.0
H528 H 0.1646 0.04773 0.52664 0.0
H529 H 0.15722 0.05801 0.44713 0.0
C530 C 0.94947 0.5961 0.74592 0.0
C531 C 0.92315 0.58563 0.70191 0.0
C532 C 0.88516 0.56996 0.79148 0.0
C533 C 0.90822 0.58775 0.83451 0.0
N534 N 0.96456 0.61399 0.85404 0.0
N535 N 0.87718 0.54419 0.68588 0.0
C536 C 0.94108 0.5997 0.81211 0.0
C537 C 0.89416 0.56703 0.7255 0.0
N538 N 0.98323 0.59855 0.72587 0.0
N539 N 0.85391 0.55723 0.81232 0.0
H540 H 0.88608 0.53864 0.63959 0.0
H541 H 0.85775 0.52721 0.70125 0.0
H542 H 0.84619 0.55673 0.86012 0.0
H543 H 0.83421 0.54908 0.78129 0.0
H544 H 0.0041 0.60393 0.75628 0.0
H545 H 0.9912 0.58956 0.68101 0.0
H546 H 0.98634 0.62802 0.83923 0.0
H547 H 0.96186 0.6128 0.90387 0.0
C548 C 0.38472 0.38106 0.06878 0.0
C549 C 0.40659 0.40452 0.1027 0.0
C550 C 0.42604 0.43036 0.00169 0.0
C551 C 0.40199 0.40894 0.96834 0.0
N552 N 0.3524 0.37001 0.97129 0.0
N553 N 0.44166 0.45659 0.10367 0.0
C554 C 0.37961 0.38593 0.00208 0.0
C555 C 0.42552 0.43067 0.06981 0.0
N556 N 0.3697 0.35342 0.09963 0.0
N557 N 0.44996 0.44954 0.96835 0.0
H558 H 0.44022 0.45828 0.15369 0.0
H559 H 0.45325 0.47817 0.08209 0.0
H560 H 0.45155 0.4491 0.91825 0.0
H561 H 0.47016 0.46321 0.99038 0.0
H562 H 0.35703 0.33326 0.07546 0.0
H563 H 0.37226 0.34902 0.14883 0.0
H564 H 0.33303 0.35625 0.99546 0.0
H565 H 0.34709 0.3732 0.92247 0.0
C566 C 0.59147 0.9344 0.30143 0.0
C567 C 0.61284 0.91169 0.33839 0.0
C568 C 0.63003 0.88007 0.24156 0.0
C569 C 0.60927 0.90313 0.20468 0.0
N570 N 0.57678 0.95659 0.19559 0.0
N571 N 0.65998 0.8699 0.34191 0.0
C572 C 0.59186 0.93161 0.23347 0.0
C573 C 0.63431 0.88649 0.30801 0.0
N574 N 0.57006 0.95787 0.33108 0.0
N575 N 0.64467 0.85132 0.21366 0.0
H576 H 0.66479 0.87449 0.39049 0.0
H577 H 0.67885 0.85424 0.32057 0.0
H578 H 0.64314 0.84613 0.16457 0.0
H579 H 0.6563 0.8313 0.23985 0.0
H580 H 0.55059 0.97167 0.30722 0.0
H581 H 0.57021 0.96224 0.38042 0.0
H582 H 0.56664 0.97986 0.21329 0.0
H583 H 0.5772 0.95553 0.14544 0.0
C584 C 0.06555 0.38879 0.77006 0.0
C585 C 0.08678 0.40728 0.72527 0.0
C586 C 0.11597 0.43751 0.81339 0.0
C587 C 0.09525 0.41854 0.8585 0.0
N588 N 0.04104 0.38855 0.87717 0.0
N589 N 0.1196 0.45965 0.70477 0.0
C590 C 0.06709 0.39805 0.83602 0.0
C591 C 0.10795 0.43501 0.74712 0.0
N592 N 0.04498 0.36151 0.75131 0.0
N593 N 0.14442 0.45647 0.83202 0.0
H594 H 0.11273 0.45957 0.65618 0.0
H595 H 0.13227 0.48238 0.71931 0.0
H596 H 0.15278 0.45957 0.87911 0.0
H597 H 0.16221 0.46666 0.79921 0.0
H598 H 0.03304 0.34478 0.78407 0.0
H599 H 0.04172 0.35333 0.7041 0.0
H600 H 0.01818 0.37643 0.86191 0.0
H601 H 0.04026 0.39672 0.92503 0.0
C602 C 0.59073 0.57572 0.08651 0.0
C603 C 0.60374 0.60615 0.11617 0.0
C604 C 0.623 0.62845 0.01262 0.0
C605 C 0.60431 0.6012 0.98171 0.0
N606 N 0.56781 0.54975 0.98963 0.0
N607 N 0.62886 0.6638 0.10798 0.0
C608 C 0.58761 0.57485 0.01869 0.0
C609 C 0.61895 0.63322 0.07948 0.0
N610 N 0.58236 0.54737 0.12315 0.0
N611 N 0.64639 0.64834 0.97926 0.0
H612 H 0.62775 0.66799 0.15745 0.0
H613 H 0.63589 0.68588 0.08179 0.0
H614 H 0.65246 0.64412 0.93104 0.0
H615 H 0.66294 0.66625 0.0014 0.0
H616 H 0.57591 0.52315 0.10377 0.0
H617 H 0.58516 0.54722 0.17312 0.0
H618 H 0.55191 0.53261 0.01504 0.0
H619 H 0.56498 0.54762 0.94005 0.0
C620 C 0.38544 0.12885 0.3324 0.0
C621 C 0.40886 0.10874 0.36969 0.0
C622 C 0.44014 0.09074 0.27289 0.0
C623 C 0.41702 0.11157 0.23568 0.0
N624 N 0.37582 0.15925 0.23242 0.0
N625 N 0.46199 0.07583 0.3791 0.0
C626 C 0.39204 0.13324 0.26609 0.0
C627 C 0.43733 0.09124 0.34099 0.0
N628 N 0.356 0.14246 0.3595 0.0
N629 N 0.46405 0.06982 0.24333 0.0
H630 H 0.46062 0.07592 0.42924 0.0
H631 H 0.4852 0.06549 0.36178 0.0
H632 H 0.4687 0.07039 0.19411 0.0
H633 H 0.47826 0.05061 0.26707 0.0
H634 H 0.33598 0.15357 0.33252 0.0
H635 H 0.35009 0.14016 0.40823 0.0
H636 H 0.36013 0.17802 0.2541 0.0
H637 H 0.38108 0.16462 0.18425 0.0
C638 C 0.91567 0.87065 0.55584 0.0
C639 C 0.90303 0.89682 0.59811 0.0
C640 C 0.90331 0.93911 0.51009 0.0
C641 C 0.91092 0.91157 0.46661 0.0
N642 N 0.94299 0.8582 0.45373 0.0
N643 N 0.88351 0.95593 0.61616 0.0
C644 C 0.92266 0.87927 0.49105 0.0
C645 C 0.89638 0.93108 0.57547 0.0
N646 N 0.91933 0.8371 0.57683 0.0
N647 N 0.90664 0.97301 0.49078 0.0
H648 H 0.88015 0.95191 0.66532 0.0
H649 H 0.87401 0.9799 0.60042 0.0
H650 H 0.91806 0.97984 0.44714 0.0
H651 H 0.9037 0.99429 0.5214 0.0
H652 H 0.92492 0.81625 0.54643 0.0
H653 H 0.91336 0.82954 0.62359 0.0
H654 H 0.95484 0.83555 0.47061 0.0
H655 H 0.9521 0.86611 0.40878 0.0
C656 C 0.12823 0.14508 0.99497 0.0
C657 C 0.10093 0.12518 0.96662 0.0
C658 C 0.10125 0.08665 0.06032 0.0
C659 C 0.12449 0.10925 0.09365 0.0
N660 N 0.1594 0.1615 0.09255 0.0
N661 N 0.05384 0.08432 0.98521 0.0
C662 C 0.13766 0.1391 0.06092 0.0
C663 C 0.08501 0.0984 0.00323 0.0
N664 N 0.14496 0.16972 0.95908 0.0
N665 N 0.095 0.05339 0.08087 0.0
H666 H 0.03975 0.09231 0.94516 0.0
H667 H 0.04005 0.06712 0.01458 0.0
H668 H 0.10651 0.04197 0.12082 0.0
H669 H 0.08079 0.03554 0.05348 0.0
H670 H 0.16747 0.18246 0.97421 0.0
H671 H 0.13708 0.1763 0.91258 0.0
H672 H 0.16675 0.18569 0.07431 0.0
H673 H 0.16912 0.15632 0.13845 0.0
C674 C 0.87525 0.64564 0.30937 0.0
C675 C 0.90757 0.63358 0.33518 0.0
C676 C 0.92457 0.61282 0.22731 0.0
C677 C 0.89192 0.62361 0.20226 0.0
N678 N 0.83795 0.65428 0.21524 0.0
N679 N 0.96615 0.61203 0.31413 0.0
C680 C 0.86778 0.64132 0.24216 0.0
C681 C 0.93318 0.61926 0.29285 0.0
N682 N 0.85192 0.66162 0.34931 0.0
N683 N 0.94721 0.59504 0.18862 0.0
H684 H 0.97399 0.6118 0.36182 0.0
H685 H 0.98711 0.6078 0.28344 0.0
H686 H 0.94416 0.59331 0.13907 0.0
H687 H 0.96822 0.58055 0.20567 0.0
H688 H 0.82647 0.66782 0.33669 0.0
H689 H 0.85808 0.66891 0.39631 0.0
H690 H 0.81986 0.66957 0.23938 0.0
H691 H 0.83186 0.65097 0.16668 0.0
C692 C 0.41078 0.37517 0.58275 0.0
C693 C 0.38296 0.39742 0.60204 0.0
C694 C 0.37373 0.41311 0.48934 0.0
C695 C 0.3975 0.38667 0.46964 0.0
N696 N 0.43208 0.33659 0.49978 0.0
N697 N 0.33236 0.43075 0.57043 0.0
C698 C 0.41402 0.36581 0.51696 0.0
C699 C 0.36264 0.41427 0.55435 0.0
N700 N 0.4356 0.36474 0.62581 0.0
N701 N 0.36338 0.43861 0.44757 0.0
H702 H 0.32236 0.43071 0.61704 0.0
H703 H 0.31532 0.44085 0.53607 0.0
H704 H 0.37333 0.44116 0.40122 0.0
H705 H 0.34839 0.45989 0.46192 0.0
H706 H 0.4578 0.35103 0.61204 0.0
H707 H 0.43658 0.37346 0.67324 0.0
H708 H 0.44199 0.31908 0.53352 0.0
H709 H 0.43366 0.32776 0.45244 0.0
C710 C 0.64361 0.91232 0.75437 0.0
C711 C 0.623 0.89535 0.70723 0.0
C712 C 0.59418 0.86198 0.79263 0.0
C713 C 0.61096 0.88284 0.83965 0.0
N714 N 0.64401 0.93542 0.86208 0.0
N715 N 0.57137 0.86086 0.68458 0.0
C716 C 0.63364 0.91014 0.8198 0.0
C717 C 0.59626 0.87193 0.72699 0.0
N718 N 0.67316 0.92982 0.7373 0.0
N719 N 0.57696 0.83228 0.80999 0.0
H720 H 0.56967 0.86972 0.63732 0.0
H721 H 0.54981 0.84626 0.69875 0.0
H722 H 0.57601 0.82329 0.85729 0.0
H723 H 0.56701 0.8147 0.7764 0.0
H724 H 0.69045 0.94007 0.77111 0.0
H725 H 0.68246 0.93051 0.69021 0.0
H726 H 0.65812 0.95731 0.8478 0.0
H727 H 0.63489 0.93704 0.90917 0.0
C728 C 0.12999 0.35705 0.31842 0.0
C729 C 0.11886 0.38331 0.36158 0.0
C730 C 0.11519 0.42523 0.27292 0.0
C731 C 0.1282 0.39955 0.22935 0.0
N732 N 0.15674 0.34392 0.21559 0.0
N733 N 0.11102 0.44459 0.38328 0.0
C734 C 0.13816 0.36622 0.25358 0.0
C735 C 0.11485 0.41807 0.33985 0.0
N736 N 0.13229 0.32332 0.33905 0.0
N737 N 0.10087 0.45568 0.2511 0.0
H738 H 0.11106 0.44063 0.43284 0.0
H739 H 0.11171 0.47085 0.37043 0.0
H740 H 0.09949 0.46293 0.20312 0.0
H741 H 0.08692 0.47259 0.28065 0.0
H742 H 0.13655 0.30235 0.30818 0.0
H743 H 0.1276 0.31613 0.38668 0.0
H744 H 0.16729 0.32059 0.23228 0.0
H745 H 0.16495 0.35052 0.16938 0.0
C746 C 0.64018 0.60454 0.56756 0.0
C747 C 0.61864 0.6211 0.61355 0.0
C748 C 0.58942 0.65274 0.52616 0.0
C749 C 0.60688 0.63175 0.48032 0.0
N750 N 0.6421 0.58025 0.46085 0.0
N751 N 0.56616 0.65468 0.6337 0.0
C752 C 0.63055 0.60563 0.50178 0.0
C753 C 0.59148 0.64369 0.59229 0.0
N754 N 0.67017 0.58825 0.58619 0.0
N755 N 0.57145 0.6817 0.50711 0.0
H756 H 0.56452 0.64658 0.68139 0.0
H757 H 0.54429 0.66852 0.61843 0.0
H758 H 0.57047 0.69001 0.45938 0.0
H759 H 0.56091 0.69946 0.53968 0.0
H760 H 0.6881 0.57834 0.55333 0.0
H761 H 0.67903 0.58829 0.63367 0.0
H762 H 0.65698 0.55912 0.4764 0.0
H763 H 0.63331 0.57761 0.41366 0.0
C764 C 0.36511 0.13681 0.76608 0.0
C765 C 0.37777 0.10568 0.73693 0.0
C766 C 0.40012 0.0868 0.84218 0.0
C767 C 0.3929 0.12022 0.86795 0.0
N768 N 0.37013 0.17818 0.85425 0.0
N769 N 0.4122 0.05267 0.74784 0.0
C770 C 0.37569 0.14556 0.82991 0.0
C771 C 0.3963 0.08091 0.77516 0.0
N772 N 0.34189 0.1573 0.73359 0.0
N773 N 0.40973 0.06013 0.88208 0.0
H774 H 0.41054 0.04607 0.69955 0.0
H775 H 0.42995 0.03706 0.77255 0.0
H776 H 0.41213 0.06308 0.93166 0.0
H777 H 0.41153 0.03427 0.86705 0.0
H778 H 0.32936 0.17862 0.7542 0.0
H779 H 0.33227 0.15074 0.68821 0.0
H780 H 0.36115 0.19898 0.82661 0.0
H781 H 0.37695 0.18509 0.90118 0.0
C782 C 0.90057 0.87082 0.0795 0.0
C783 C 0.87587 0.89593 0.10101 0.0
C784 C 0.86174 0.90913 0.98856 0.0
C785 C 0.8831 0.88092 0.96774 0.0
N786 N 0.91493 0.82895 0.9968 0.0
N787 N 0.82648 0.93227 0.07496 0.0
C788 C 0.89996 0.85983 0.01431 0.0
C789 C 0.85438 0.91299 0.05524 0.0
N790 N 0.92626 0.85909 0.11957 0.0
N791 N 0.8503 0.93374 0.94595 0.0
H792 H 0.81933 0.93456 0.12316 0.0
H793 H 0.80828 0.94261 0.04296 0.0
H794 H 0.85699 0.93388 0.89744 0.0
H795 H 0.83751 0.95639 0.96042 0.0
H796 H 0.94652 0.84317 0.10375 0.0
H797 H 0.93008 0.86856 0.16602 0.0
H798 H 0.92493 0.81132 0.03024 0.0
H799 H 0.91365 0.81917 0.95002 0.0
loop_
_geom_bond_atom_site_label_1
_geom_bond_atom_site_label_2
_geom_bond_distance
_geom_bond_site_symmetry_2
_ccdc_geom_bond_type
C0 O2 1.247 . S
C0 O4 1.258 . S
C1 O8 1.247 . S
C1 O9 1.258 . S
O2 C0 1.247 . S
O2 Zn3 2.028 . S
Zn3 O2 2.028 . S
Zn3 O7 2.035 . S
Zn3 O9 2.035 . S
Zn3 O10 2.028 . S
O4 C0 1.258 . S
O4 Zn5 2.035 . S
Zn5 O4 2.035 . S
Zn5 O6 2.028 . S
Zn5 O8 2.028 . S
Zn5 O11 2.035 . S
O6 Zn5 2.028 . S
O6 C12 1.247 . S
O7 Zn3 2.035 . S
O7 C12 1.258 . S
O8 C1 1.247 . S
O8 Zn5 2.028 . S
O9 C1 1.258 . S
O9 Zn3 2.035 . S
O10 Zn3 2.028 . S
O10 C13 1.247 . S
O11 Zn5 2.035 . S
O11 C13 1.258 . S
C12 O6 1.247 . S
C12 O7 1.258 . S
C13 O10 1.247 . S
C13 O11 1.258 . S
C14 O16 1.247 . S
C14 O18 1.258 . S
C15 O22 1.247 . S
C15 O23 1.258 . S
O16 C14 1.247 . S
O16 Zn17 2.028 . S
Zn17 O16 2.028 . S
Zn17 O21 2.035 . S
Zn17 O23 2.035 . S
Zn17 O24 2.028 . S
O18 C14 1.258 . S
O18 Zn19 2.035 . S
Zn19 O18 2.035 . S
Zn19 O20 2.028 . S
Zn19 O22 2.028 . S
Zn19 O25 2.035 . S
O20 Zn19 2.028 . S
O20 C26 1.247 . S
O21 Zn17 2.035 . S
O21 C26 1.258 . S
O22 C15 1.247 . S
O22 Zn19 2.028 . S
O23 C15 1.258 . S
O23 Zn17 2.035 . S
O24 Zn17 2.028 . S
O24 C27 1.247 . S
O25 Zn19 2.035 . S
O25 C27 1.258 . S
C26 O20 1.247 . S
C26 O21 1.258 . S
C27 O24 1.247 . S
C27 O25 1.258 . S
C28 O30 1.247 . S
C28 O32 1.258 . S
C29 O36 1.247 . S
C29 O37 1.258 . S
O30 C28 1.247 . S
O30 Zn31 2.028 . S
Zn31 O30 2.028 . S
Zn31 O35 2.035 . S
Zn31 O37 2.035 . S
Zn31 O38 2.028 . S
O32 C28 1.258 . S
O32 Zn33 2.035 . S
Zn33 O32 2.035 . S
Zn33 O34 2.028 . S
Zn33 O36 2.028 . S
Zn33 O39 2.035 . S
O34 Zn33 2.028 . S
O34 C40 1.247 . S
O35 Zn31 2.035 . S
O35 C40 1.258 . S
O36 C29 1.247 . S
O36 Zn33 2.028 . S
O37 C29 1.258 . S
O37 Zn31 2.035 . S
O38 Zn31 2.028 . S
O38 C41 1.247 . S
O39 Zn33 2.035 . S
O39 C41 1.258 . S
C40 O34 1.247 . S
C40 O35 1.258 . S
C41 O38 1.247 . S
C41 O39 1.258 . S
C42 O44 1.247 . S
C42 O46 1.258 . S
C43 O50 1.247 . S
C43 O51 1.258 . S
O44 C42 1.247 . S
O44 Zn45 2.028 . S
Zn45 O44 2.028 . S
Zn45 O49 2.035 . S
Zn45 O51 2.035 1_554 S
Zn45 O52 2.028 . S
O46 C42 1.258 . S
O46 Zn47 2.035 . S
Zn47 O46 2.035 . S
Zn47 O48 2.028 . S
Zn47 O50 2.028 1_554 S
Zn47 O53 2.035 . S
O48 Zn47 2.028 . S
O48 C54 1.247 . S
O49 Zn45 2.035 . S
O49 C54 1.258 . S
O50 C43 1.247 . S
O50 Zn47 2.028 1_556 S
O51 C43 1.258 . S
O51 Zn45 2.035 1_556 S
O52 Zn45 2.028 . S
O52 C55 1.247 . S
O53 Zn47 2.035 . S
O53 C55 1.258 . S
C54 O48 1.247 . S
C54 O49 1.258 . S
C55 O52 1.247 . S
C55 O53 1.258 . S
C56 O58 1.249 . S
C56 O60 1.259 . S
C57 O64 1.247 . S
C57 O65 1.258 . S
O58 C56 1.249 . S
O58 Zn59 2.028 . S
Zn59 O58 2.028 . S
Zn59 O63 2.035 . S
Zn59 O65 2.035 . S
Zn59 O66 2.028 1_554 S
O60 C56 1.259 . S
O60 Zn61 2.035 . S
Zn61 O60 2.035 . S
Zn61 O62 2.028 . S
Zn61 O64 2.028 . S
Zn61 O67 2.035 1_554 S
O62 Zn61 2.028 . S
O62 C68 1.247 . S
O63 Zn59 2.035 . S
O63 C68 1.258 . S
O64 C57 1.247 . S
O64 Zn61 2.028 . S
O65 C57 1.258 . S
O65 Zn59 2.035 . S
O66 Zn59 2.028 1_556 S
O66 C69 1.247 . S
O67 Zn61 2.035 1_556 S
O67 C69 1.258 . S
C68 O62 1.247 . S
C68 O63 1.258 . S
C69 O66 1.247 . S
C69 O67 1.258 . S
C70 O72 1.247 . S
C70 O74 1.258 . S
C71 O78 1.247 . S
C71 O79 1.258 . S
O72 C70 1.247 . S
O72 Zn73 2.028 . S
Zn73 O72 2.028 . S
Zn73 O77 2.035 . S
Zn73 O79 2.035 . S
Zn73 O80 2.028 . S
O74 C70 1.258 . S
O74 Zn75 2.035 . S
Zn75 O74 2.035 . S
Zn75 O76 2.028 . S
Zn75 O78 2.028 . S
Zn75 O81 2.035 . S
O76 Zn75 2.028 . S
O76 C82 1.247 . S
O77 Zn73 2.035 . S
O77 C82 1.258 . S
O78 C71 1.247 . S
O78 Zn75 2.028 . S
O79 C71 1.258 . S
O79 Zn73 2.035 . S
O80 Zn73 2.028 . S
O80 C83 1.247 . S
O81 Zn75 2.035 . S
O81 C83 1.258 . S
C82 O76 1.247 . S
C82 O77 1.258 . S
C83 O80 1.247 . S
C83 O81 1.258 . S
C84 O86 1.247 . S
C84 O88 1.258 . S
C85 O92 1.247 . S
C85 O93 1.258 . S
O86 C84 1.247 . S
O86 Zn87 2.028 . S
Zn87 O86 2.028 . S
Zn87 O91 2.035 . S
Zn87 O93 2.035 . S
Zn87 O94 2.028 . S
O88 C84 1.258 . S
O88 Zn89 2.035 . S
Zn89 O88 2.035 . S
Zn89 O90 2.028 . S
Zn89 O92 2.028 . S
Zn89 O95 2.035 . S
O90 Zn89 2.028 . S
O90 C96 1.247 . S
O91 Zn87 2.035 . S
O91 C96 1.258 . S
O92 C85 1.247 . S
O92 Zn89 2.028 . S
O93 C85 1.258 . S
O93 Zn87 2.035 . S
O94 Zn87 2.028 . S
O94 C97 1.247 . S
O95 Zn89 2.035 . S
O95 C97 1.258 . S
C96 O90 1.247 . S
C96 O91 1.258 . S
C97 O94 1.247 . S
C97 O95 1.258 . S
C98 O100 1.247 . S
C98 O102 1.258 . S
C99 O106 1.247 . S
C99 O107 1.258 . S
O100 C98 1.247 . S
O100 Zn101 2.028 . S
Zn101 O100 2.028 . S
Zn101 O105 2.035 . S
Zn101 O107 2.035 . S
Zn101 O108 2.028 . S
O102 C98 1.258 . S
O102 Zn103 2.035 . S
Zn103 O102 2.035 . S
Zn103 O104 2.028 . S
Zn103 O106 2.028 . S
Zn103 O109 2.035 . S
O104 Zn103 2.028 . S
O104 C110 1.247 . S
O105 Zn101 2.035 . S
O105 C110 1.258 . S
O106 C99 1.247 . S
O106 Zn103 2.028 . S
O107 C99 1.258 . S
O107 Zn101 2.035 . S
O108 Zn101 2.028 . S
O108 C111 1.247 . S
O109 Zn103 2.035 . S
O109 C111 1.258 . S
C110 O104 1.247 . S
C110 O105 1.258 . S
C111 O108 1.247 . S
C111 O109 1.258 . S
C112 O114 1.247 . S
C112 O116 1.258 . S
C113 O120 1.247 . S
C113 O121 1.258 . S
O114 C112 1.247 . S
O114 Zn115 2.028 . S
Zn115 O114 2.028 . S
Zn115 O119 2.035 . S
Zn115 O121 2.035 . S
Zn115 O122 2.028 . S
O116 C112 1.258 . S
O116 Zn117 2.035 . S
Zn117 O116 2.035 . S
Zn117 O118 2.028 . S
Zn117 O120 2.028 . S
Zn117 O123 2.035 . S
O118 Zn117 2.028 . S
O118 C124 1.247 . S
O119 Zn115 2.035 . S
O119 C124 1.258 . S
O120 C113 1.247 . S
O120 Zn117 2.028 . S
O121 C113 1.258 . S
O121 Zn115 2.035 . S
O122 Zn115 2.028 . S
O122 C125 1.247 . S
O123 Zn117 2.035 . S
O123 C125 1.258 . S
C124 O118 1.247 . S
C124 O119 1.258 . S
C125 O122 1.247 . S
C125 O123 1.258 . S
C126 O128 1.247 . S
C126 O130 1.258 . S
C127 O134 1.247 . S
C127 O135 1.258 . S
O128 C126 1.247 . S
O128 Zn129 2.028 . S
Zn129 O128 2.028 . S
Zn129 O133 2.035 . S
Zn129 O135 2.035 1_554 S
Zn129 O136 2.028 . S
O130 C126 1.258 . S
O130 Zn131 2.035 . S
Zn131 O130 2.035 . S
Zn131 O132 2.028 . S
Zn131 O134 2.028 1_554 S
Zn131 O137 2.035 . S
O132 Zn131 2.028 . S
O132 C138 1.247 . S
O133 Zn129 2.035 . S
O133 C138 1.258 . S
O134 C127 1.247 . S
O134 Zn131 2.028 1_556 S
O135 C127 1.258 . S
O135 Zn129 2.035 1_556 S
O136 Zn129 2.028 . S
O136 C139 1.247 . S
O137 Zn131 2.035 . S
O137 C139 1.258 . S
C138 O132 1.247 . S
C138 O133 1.258 . S
C139 O136 1.247 . S
C139 O137 1.258 . S
C140 O142 1.247 . S
C140 O144 1.258 . S
C141 O148 1.247 . S
C141 O149 1.258 . S
O142 C140 1.247 . S
O142 Zn143 2.028 . S
Zn143 O142 2.028 . S
Zn143 O147 2.035 . S
Zn143 O149 2.035 . S
Zn143 O150 2.028 . S
O144 C140 1.258 . S
O144 Zn145 2.035 . S
Zn145 O144 2.035 . S
Zn145 O146 2.028 . S
Zn145 O148 2.028 . S
Zn145 O151 2.035 . S
O146 Zn145 2.028 . S
O146 C152 1.247 . S
O147 Zn143 2.035 . S
O147 C152 1.258 . S
O148 C141 1.247 . S
O148 Zn145 2.028 . S
O149 C141 1.258 . S
O149 Zn143 2.035 . S
O150 Zn143 2.028 . S
O150 C153 1.247 . S
O151 Zn145 2.035 . S
O151 C153 1.258 . S
C152 O146 1.247 . S
C152 O147 1.258 . S
C153 O150 1.247 . S
C153 O151 1.258 . S
C154 O156 1.247 . S
C154 O158 1.258 . S
C155 O162 1.247 . S
C155 O163 1.258 . S
O156 C154 1.247 . S
O156 Zn157 2.028 . S
Zn157 O156 2.028 . S
Zn157 O161 2.035 . S
Zn157 O163 2.035 . S
Zn157 O164 2.028 . S
O158 C154 1.258 . S
O158 Zn159 2.035 . S
Zn159 O158 2.035 . S
Zn159 O160 2.028 . S
Zn159 O162 2.028 . S
Zn159 O165 2.035 . S
O160 Zn159 2.028 . S
O160 C166 1.247 . S
O161 Zn157 2.035 . S
O161 C166 1.258 . S
O162 C155 1.247 . S
O162 Zn159 2.028 . S
O163 C155 1.258 . S
O163 Zn157 2.035 . S
O164 Zn157 2.028 . S
O164 C167 1.247 . S
O165 Zn159 2.035 . S
O165 C167 1.258 . S
C166 O160 1.247 . S
C166 O161 1.258 . S
C167 O164 1.247 . S
C167 O165 1.258 . S
C168 O170 1.247 . S
C168 O172 1.258 . S
C169 O176 1.247 . S
C169 O177 1.258 . S
O170 C168 1.247 . S
O170 Zn171 2.028 . S
Zn171 O170 2.028 . S
Zn171 O175 2.035 . S
Zn171 O177 2.035 . S
Zn171 O178 2.028 . S
O172 C168 1.258 . S
O172 Zn173 2.035 . S
Zn173 O172 2.035 . S
Zn173 O174 2.028 . S
Zn173 O176 2.028 . S
Zn173 O179 2.035 . S
O174 Zn173 2.028 . S
O174 C180 1.247 . S
O175 Zn171 2.035 . S
O175 C180 1.258 . S
O176 C169 1.247 . S
O176 Zn173 2.028 . S
O177 C169 1.258 . S
O177 Zn171 2.035 . S
O178 Zn171 2.028 . S
O178 C181 1.247 . S
O179 Zn173 2.035 . S
O179 C181 1.258 . S
C180 O174 1.247 . S
C180 O175 1.258 . S
C181 O178 1.247 . S
C181 O179 1.258 . S
C182 O184 1.247 . S
C182 O186 1.258 . S
C183 O190 1.247 . S
C183 O191 1.258 . S
O184 C182 1.247 . S
O184 Zn185 2.028 . S
Zn185 O184 2.028 . S
Zn185 O189 2.035 . S
Zn185 O191 2.035 . S
Zn185 O192 2.028 . S
O186 C182 1.258 . S
O186 Zn187 2.035 . S
Zn187 O186 2.035 . S
Zn187 O188 2.028 . S
Zn187 O190 2.028 . S
Zn187 O193 2.035 . S
O188 Zn187 2.028 . S
O188 C194 1.247 . S
O189 Zn185 2.035 . S
O189 C194 1.258 . S
O190 C183 1.247 . S
O190 Zn187 2.028 . S
O191 C183 1.258 . S
O191 Zn185 2.035 . S
O192 Zn185 2.028 . S
O192 C195 1.247 . S
O193 Zn187 2.035 . S
O193 C195 1.258 . S
C194 O188 1.247 . S
C194 O189 1.258 . S
C195 O192 1.247 . S
C195 O193 1.258 . S
C196 O198 1.247 . S
C196 O200 1.258 . S
C197 O204 1.248 . S
C197 O205 1.260 . S
O198 C196 1.247 . S
O198 Zn199 2.028 . S
Zn199 O198 2.028 . S
Zn199 O203 2.035 1_554 S
Zn199 O205 2.035 . S
Zn199 O206 2.028 . S
O200 C196 1.258 . S
O200 Zn201 2.035 . S
Zn201 O200 2.035 . S
Zn201 O202 2.028 1_554 S
Zn201 O204 2.028 . S
Zn201 O207 2.035 . S
O202 Zn201 2.028 1_556 S
O202 C208 1.247 . S
O203 Zn199 2.035 1_556 S
O203 C208 1.258 . S
O204 C197 1.248 . S
O204 Zn201 2.028 . S
O205 C197 1.260 . S
O205 Zn199 2.035 . S
O206 Zn199 2.028 . S
O206 C209 1.247 . S
O207 Zn201 2.035 . S
O207 C209 1.258 . S
C208 O202 1.247 . S
C208 O203 1.258 . S
C209 O206 1.247 . S
C209 O207 1.258 . S
C210 O212 1.247 . S
C210 O214 1.258 . S
C211 O218 1.247 . S
C211 O219 1.258 . S
O212 C210 1.247 . S
O212 Zn213 2.028 . S
Zn213 O212 2.028 . S
Zn213 O217 2.035 . S
Zn213 O219 2.035 . S
Zn213 O220 2.028 . S
O214 C210 1.258 . S
O214 Zn215 2.035 . S
Zn215 O214 2.035 . S
Zn215 O216 2.028 . S
Zn215 O218 2.028 . S
Zn215 O221 2.035 . S
O216 Zn215 2.028 . S
O216 C222 1.247 . S
O217 Zn213 2.035 . S
O217 C222 1.258 . S
O218 C211 1.247 . S
O218 Zn215 2.028 . S
O219 C211 1.258 . S
O219 Zn213 2.035 . S
O220 Zn213 2.028 . S
O220 C223 1.247 . S
O221 Zn215 2.035 . S
O221 C223 1.258 . S
C222 O216 1.247 . S
C222 O217 1.258 . S
C223 O220 1.247 . S
C223 O221 1.258 . S
C224 C225 1.363 . S
C224 C230 1.379 . S
C224 N232 1.356 . S
C225 C224 1.363 . S
C225 C231 1.363 . S
C226 C227 1.363 . S
C226 C231 1.379 . S
C226 N233 1.356 . S
C227 C226 1.363 . S
C227 C230 1.363 . S
N228 C230 1.356 . S
N228 H240 0.984 . S
N228 H241 0.985 . S
N229 C231 1.356 . S
N229 H234 0.984 . S
N229 H235 0.985 . S
C230 C224 1.379 . S
C230 C227 1.363 . S
C230 N228 1.356 . S
C231 C225 1.363 . S
C231 C226 1.379 . S
C231 N229 1.356 . S
N232 C224 1.356 . S
N232 H238 0.984 . S
N232 H239 0.984 . S
N233 C226 1.356 . S
N233 H236 0.984 . S
N233 H237 0.985 . S
H234 N229 0.984 . S
H235 N229 0.985 . S
H236 N233 0.984 . S
H237 N233 0.985 . S
H238 N232 0.984 . S
H239 N232 0.984 . S
H240 N228 0.984 . S
H241 N228 0.985 . S
C242 C243 1.363 . S
C242 C248 1.379 . S
C242 N250 1.356 . S
C243 C242 1.363 . S
C243 C249 1.363 . S
C244 C245 1.363 . S
C244 C249 1.379 . S
C244 N251 1.356 . S
C245 C244 1.363 . S
C245 C248 1.363 . S
N246 C248 1.356 . S
N246 H258 0.984 . S
N246 H259 0.985 . S
N247 C249 1.356 . S
N247 H252 0.984 . S
N247 H253 0.985 . S
C248 C242 1.379 . S
C248 C245 1.363 . S
C248 N246 1.356 . S
C249 C243 1.363 . S
C249 C244 1.379 . S
C249 N247 1.356 . S
N250 C242 1.356 . S
N250 H256 0.984 . S
N250 H257 0.984 . S
N251 C244 1.356 . S
N251 H254 0.984 . S
N251 H255 0.985 . S
H252 N247 0.984 . S
H253 N247 0.985 . S
H254 N251 0.984 . S
H255 N251 0.985 . S
H256 N250 0.984 . S
H257 N250 0.984 . S
H258 N246 0.984 . S
H259 N246 0.985 . S
C260 C261 1.363 . S
C260 C266 1.379 . S
C260 N268 1.356 . S
C261 C260 1.363 . S
C261 C267 1.363 . S
C262 C263 1.363 . S
C262 C267 1.379 . S
C262 N269 1.356 1_556 S
C263 C262 1.363 . S
C263 C266 1.363 . S
N264 C266 1.356 . S
N264 H276 0.984 . S
N264 H277 0.985 . S
N265 C267 1.356 . S
N265 H270 0.984 . S
N265 H271 0.985 . S
C266 C260 1.379 . S
C266 C263 1.363 . S
C266 N264 1.356 . S
C267 C261 1.363 . S
C267 C262 1.379 . S
C267 N265 1.356 . S
N268 C260 1.356 . S
N268 H274 0.984 . S
N268 H275 0.984 . S
N269 C262 1.356 1_554 S
N269 H272 0.984 . S
N269 H273 0.985 . S
H270 N265 0.984 . S
H271 N265 0.985 . S
H272 N269 0.984 . S
H273 N269 0.985 . S
H274 N268 0.984 . S
H275 N268 0.984 . S
H276 N264 0.984 . S
H277 N264 0.985 . S
C278 C279 1.363 . S
C278 C284 1.379 . S
C278 N286 1.356 . S
C279 C278 1.363 . S
C279 C285 1.363 . S
C280 C281 1.363 . S
C280 C285 1.379 . S
C280 N287 1.356 . S
C281 C280 1.363 . S
C281 C284 1.363 . S
N282 C284 1.356 . S
N282 H294 0.984 . S
N282 H295 0.985 . S
N283 C285 1.356 . S
N283 H288 0.984 . S
N283 H289 0.985 . S
C284 C278 1.379 . S
C284 C281 1.363 . S
C284 N282 1.356 . S
C285 C279 1.363 . S
C285 C280 1.379 . S
C285 N283 1.356 . S
N286 C278 1.356 . S
N286 H292 0.984 . S
N286 H293 0.984 . S
N287 C280 1.356 . S
N287 H290 0.984 . S
N287 H291 0.985 . S
H288 N283 0.984 . S
H289 N283 0.985 . S
H290 N287 0.984 . S
H291 N287 0.985 . S
H292 N286 0.984 . S
H293 N286 0.984 . S
H294 N282 0.984 . S
H295 N282 0.985 . S
C296 C297 1.363 . S
C296 C302 1.379 . S
C296 N304 1.356 . S
C297 C296 1.363 . S
C297 C303 1.363 . S
C298 C299 1.363 . S
C298 C303 1.379 . S
C298 N305 1.356 1_556 S
C299 C298 1.363 . S
C299 C302 1.363 . S
N300 C302 1.356 . S
N300 H312 0.984 . S
N300 H313 0.985 . S
N301 C303 1.356 . S
N301 H306 0.984 . S
N301 H307 0.985 . S
C302 C296 1.379 . S
C302 C299 1.363 . S
C302 N300 1.356 . S
C303 C297 1.363 . S
C303 C298 1.379 . S
C303 N301 1.356 . S
N304 C296 1.356 . S
N304 H310 0.984 . S
N304 H311 0.984 . S
N305 C298 1.356 1_554 S
N305 H308 0.984 . S
N305 H309 0.985 . S
H306 N301 0.984 . S
H307 N301 0.985 . S
H308 N305 0.984 . S
H309 N305 0.985 . S
H310 N304 0.984 . S
H311 N304 0.984 . S
H312 N300 0.984 . S
H313 N300 0.985 . S
C314 C315 1.363 . S
C314 C320 1.379 . S
C314 N322 1.356 . S
C315 C314 1.363 . S
C315 C321 1.363 . S
C316 C317 1.363 . S
C316 C321 1.379 . S
C316 N323 1.356 . S
C317 C316 1.363 . S
C317 C320 1.363 . S
N318 C320 1.356 . S
N318 H330 0.984 . S
N318 H331 0.985 . S
N319 C321 1.356 . S
N319 H324 0.984 . S
N319 H325 0.985 . S
C320 C314 1.379 . S
C320 C317 1.363 . S
C320 N318 1.356 . S
C321 C315 1.363 . S
C321 C316 1.379 . S
C321 N319 1.356 . S
N322 C314 1.356 . S
N322 H328 0.984 . S
N322 H329 0.984 . S
N323 C316 1.356 . S
N323 H326 0.984 . S
N323 H327 0.985 . S
H324 N319 0.984 . S
H325 N319 0.985 . S
H326 N323 0.984 . S
H327 N323 0.985 . S
H328 N322 0.984 . S
H329 N322 0.984 . S
H330 N318 0.984 . S
H331 N318 0.985 . S
C332 C333 1.363 . S
C332 C338 1.379 . S
C332 N340 1.356 . S
C333 C332 1.363 . S
C333 C339 1.363 . S
C334 C335 1.363 . S
C334 C339 1.379 . S
C334 N341 1.356 . S
C335 C334 1.363 . S
C335 C338 1.363 . S
N336 C338 1.356 . S
N336 H348 0.984 . S
N336 H349 0.985 . S
N337 C339 1.356 . S
N337 H342 0.984 . S
N337 H343 0.985 . S
C338 C332 1.379 . S
C338 C335 1.363 . S
C338 N336 1.356 . S
C339 C333 1.363 . S
C339 C334 1.379 . S
C339 N337 1.356 . S
N340 C332 1.356 . S
N340 H346 0.984 . S
N340 H347 0.984 . S
N341 C334 1.356 . S
N341 H344 0.984 . S
N341 H345 0.985 . S
H342 N337 0.984 . S
H343 N337 0.985 . S
H344 N341 0.984 . S
H345 N341 0.985 . S
H346 N340 0.984 . S
H347 N340 0.984 . S
H348 N336 0.984 . S
H349 N336 0.985 . S
C350 C351 1.363 . S
C350 C356 1.379 . S
C350 N358 1.356 . S
C351 C350 1.363 . S
C351 C357 1.363 . S
C352 C353 1.363 . S
C352 C357 1.379 . S
C352 N359 1.356 . S
C353 C352 1.363 . S
C353 C356 1.363 . S
N354 C356 1.356 . S
N354 H366 0.984 . S
N354 H367 0.985 . S
N355 C357 1.356 . S
N355 H360 0.984 . S
N355 H361 0.985 . S
C356 C350 1.379 . S
C356 C353 1.363 . S
C356 N354 1.356 . S
C357 C351 1.363 . S
C357 C352 1.379 . S
C357 N355 1.356 . S
N358 C350 1.356 . S
N358 H364 0.984 . S
N358 H365 0.984 . S
N359 C352 1.356 . S
N359 H362 0.984 . S
N359 H363 0.985 . S
H360 N355 0.984 . S
H361 N355 0.985 . S
H362 N359 0.984 . S
H363 N359 0.985 . S
H364 N358 0.984 . S
H365 N358 0.984 . S
H366 N354 0.984 . S
H367 N354 0.985 . S
C368 C369 1.363 1_655 S
C368 C374 1.379 1_545 S
C368 N376 1.356 . S
C369 C368 1.363 1_455 S
C369 C375 1.363 . S
C370 C371 1.363 1_455 S
C370 C375 1.379 1_565 S
C370 N377 1.356 . S
C371 C370 1.363 1_655 S
C371 C374 1.363 . S
N372 C374 1.356 . S
N372 H384 0.984 . S
N372 H385 0.985 . S
N373 C375 1.356 . S
N373 H378 0.984 . S
N373 H379 0.985 . S
C374 C368 1.379 1_565 S
C374 C371 1.363 . S
C374 N372 1.356 . S
C375 C369 1.363 . S
C375 C370 1.379 1_545 S
C375 N373 1.356 . S
N376 C368 1.356 . S
N376 H382 0.984 . S
N376 H383 0.984 1_655 S
N377 C370 1.356 . S
N377 H380 0.984 1_455 S
N377 H381 0.985 . S
H378 N373 0.984 . S
H379 N373 0.985 . S
H380 N377 0.984 1_655 S
H381 N377 0.985 . S
H382 N376 0.984 . S
H383 N376 0.984 1_455 S
H384 N372 0.984 . S
H385 N372 0.985 . S
C386 C387 1.363 . S
C386 C392 1.379 1_655 S
C386 N394 1.356 . S
C387 C386 1.363 . S
C387 C393 1.363 . S
C388 C389 1.363 . S
C388 C393 1.379 1_455 S
C388 N395 1.356 . S
C389 C388 1.363 . S
C389 C392 1.363 . S
N390 C392 1.356 . S
N390 H402 0.984 . S
N390 H403 0.985 . S
N391 C393 1.356 . S
N391 H396 0.984 . S
N391 H397 0.985 . S
C392 C386 1.379 1_455 S
C392 C389 1.363 . S
C392 N390 1.356 . S
C393 C387 1.363 . S
C393 C388 1.379 1_655 S
C393 N391 1.356 . S
N394 C386 1.356 . S
N394 H400 0.984 . S
N394 H401 0.984 . S
N395 C388 1.356 . S
N395 H398 0.984 . S
N395 H399 0.985 . S
H396 N391 0.984 . S
H397 N391 0.985 . S
H398 N395 0.984 . S
H399 N395 0.985 . S
H400 N394 0.984 . S
H401 N394 0.984 . S
H402 N390 0.984 . S
H403 N390 0.985 . S
C404 C405 1.363 . S
C404 C410 1.379 . S
C404 N412 1.356 . S
C405 C404 1.363 . S
C405 C411 1.363 . S
C406 C407 1.363 . S
C406 C411 1.379 . S
C406 N413 1.356 . S
C407 C406 1.363 . S
C407 C410 1.363 . S
N408 C410 1.356 . S
N408 H420 0.984 . S
N408 H421 0.985 . S
N409 C411 1.356 . S
N409 H414 0.984 . S
N409 H415 0.985 . S
C410 C404 1.379 . S
C410 C407 1.363 . S
C410 N408 1.356 . S
C411 C405 1.363 . S
C411 C406 1.379 . S
C411 N409 1.356 . S
N412 C404 1.356 . S
N412 H418 0.984 . S
N412 H419 0.984 . S
N413 C406 1.356 . S
N413 H416 0.984 . S
N413 H417 0.985 . S
H414 N409 0.984 . S
H415 N409 0.985 . S
H416 N413 0.984 . S
H417 N413 0.985 . S
H418 N412 0.984 . S
H419 N412 0.984 . S
H420 N408 0.984 . S
H421 N408 0.985 . S
C422 C423 1.363 1_546 S
C422 C428 1.379 . S
C422 N430 1.356 . S
C423 C422 1.363 1_564 S
C423 C429 1.363 . S
C424 C425 1.363 1_565 S
C424 C429 1.379 . S
C424 N431 1.356 . S
C425 C424 1.363 1_545 S
C425 C428 1.363 1_554 S
N426 C428 1.356 . S
N426 H438 0.984 . S
N426 H439 0.985 . S
N427 C429 1.356 . S
N427 H432 0.984 . S
N427 H433 0.985 . S
C428 C422 1.379 . S
C428 C425 1.363 1_556 S
C428 N426 1.356 . S
C429 C423 1.363 . S
C429 C424 1.379 . S
C429 N427 1.356 . S
N430 C422 1.356 . S
N430 H436 0.984 . S
N430 H437 0.984 1_545 S
N431 C424 1.356 . S
N431 H434 0.984 1_565 S
N431 H435 0.985 . S
H432 N427 0.984 . S
H433 N427 0.985 . S
H434 N431 0.984 1_545 S
H435 N431 0.985 . S
H436 N430 0.984 . S
H437 N430 0.984 1_565 S
H438 N426 0.984 . S
H439 N426 0.985 . S
C440 C441 1.364 . S
C440 C446 1.379 . S
C440 N448 1.355 1_554 S
C441 C440 1.364 . S
C441 C447 1.363 1_455 S
C442 C443 1.363 . S
C442 C447 1.379 . S
C442 N449 1.356 . S
C443 C442 1.363 . S
C443 C446 1.364 1_655 S
N444 C446 1.355 1_556 S
N444 H456 0.984 . S
N444 H457 0.985 1_455 S
N445 C447 1.356 . S
N445 H450 0.984 1_655 S
N445 H451 0.985 . S
C446 C440 1.379 . S
C446 C443 1.364 1_455 S
C446 N444 1.355 1_554 S
C447 C441 1.363 1_655 S
C447 C442 1.379 . S
C447 N445 1.356 . S
N448 C440 1.355 1_556 S
N448 H454 0.984 . S
N448 H455 0.984 . S
N449 C442 1.356 . S
N449 H452 0.984 . S
N449 H453 0.985 . S
H450 N445 0.984 1_455 S
H451 N445 0.985 . S
H452 N449 0.984 . S
H453 N449 0.985 . S
H454 N448 0.984 . S
H455 N448 0.984 . S
H456 N444 0.984 . S
H457 N444 0.985 1_655 S
C458 C459 1.363 . S
C458 C464 1.379 . S
C458 N466 1.356 . S
C459 C458 1.363 . S
C459 C465 1.363 . S
C460 C461 1.363 . S
C460 C465 1.379 . S
C460 N467 1.356 . S
C461 C460 1.363 . S
C461 C464 1.363 . S
N462 C464 1.356 . S
N462 H474 0.984 . S
N462 H475 0.985 . S
N463 C465 1.356 . S
N463 H468 0.984 . S
N463 H469 0.985 . S
C464 C458 1.379 . S
C464 C461 1.363 . S
C464 N462 1.356 . S
C465 C459 1.363 . S
C465 C460 1.379 . S
C465 N463 1.356 . S
N466 C458 1.356 . S
N466 H472 0.984 . S
N466 H473 0.984 . S
N467 C460 1.356 . S
N467 H470 0.984 . S
N467 H471 0.985 . S
H468 N463 0.984 . S
H469 N463 0.985 . S
H470 N467 0.984 . S
H471 N467 0.985 . S
H472 N466 0.984 . S
H473 N466 0.984 . S
H474 N462 0.984 . S
H475 N462 0.985 . S
C476 C477 1.363 . S
C476 C482 1.379 1_545 S
C476 N484 1.356 . S
C477 C476 1.363 . S
C477 C483 1.363 . S
C478 C479 1.363 . S
C478 C483 1.379 1_565 S
C478 N485 1.356 . S
C479 C478 1.363 . S
C479 C482 1.363 . S
N480 C482 1.356 . S
N480 H492 0.984 . S
N480 H493 0.985 . S
N481 C483 1.356 . S
N481 H486 0.984 . S
N481 H487 0.985 . S
C482 C476 1.379 1_565 S
C482 C479 1.363 . S
C482 N480 1.356 . S
C483 C477 1.363 . S
C483 C478 1.379 1_545 S
C483 N481 1.356 . S
N484 C476 1.356 . S
N484 H490 0.984 . S
N484 H491 0.984 . S
N485 C478 1.356 . S
N485 H488 0.984 . S
N485 H489 0.985 . S
H486 N481 0.984 . S
H487 N481 0.985 . S
H488 N485 0.984 . S
H489 N485 0.985 . S
H490 N484 0.984 . S
H491 N484 0.984 . S
H492 N480 0.984 . S
H493 N480 0.985 . S
C494 C495 1.363 1_565 S
C494 C500 1.379 1_455 S
C494 N502 1.356 . S
C495 C494 1.363 1_545 S
C495 C501 1.363 . S
C496 C497 1.363 1_545 S
C496 C501 1.379 1_655 S
C496 N503 1.356 . S
C497 C496 1.363 1_565 S
C497 C500 1.363 . S
N498 C500 1.356 . S
N498 H510 0.984 . S
N498 H511 0.985 . S
N499 C501 1.356 . S
N499 H504 0.984 . S
N499 H505 0.985 . S
C500 C494 1.379 1_655 S
C500 C497 1.363 . S
C500 N498 1.356 . S
C501 C495 1.363 . S
C501 C496 1.379 1_455 S
C501 N499 1.356 . S
N502 C494 1.356 . S
N502 H508 0.984 . S
N502 H509 0.984 1_565 S
N503 C496 1.356 . S
N503 H506 0.984 1_545 S
N503 H507 0.985 . S
H504 N499 0.984 . S
H505 N499 0.985 . S
H506 N503 0.984 1_565 S
H507 N503 0.985 . S
H508 N502 0.984 . S
H509 N502 0.984 1_545 S
H510 N498 0.984 . S
H511 N498 0.985 . S
C512 C513 1.363 . S
C512 C518 1.379 . S
C512 N520 1.356 . S
C513 C512 1.363 . S
C513 C519 1.363 . S
C514 C515 1.363 . S
C514 C519 1.379 . S
C514 N521 1.356 . S
C515 C514 1.363 . S
C515 C518 1.363 . S
N516 C518 1.356 . S
N516 H528 0.984 . S
N516 H529 0.985 . S
N517 C519 1.356 . S
N517 H522 0.984 . S
N517 H523 0.985 . S
C518 C512 1.379 . S
C518 C515 1.363 . S
C518 N516 1.356 . S
C519 C513 1.363 . S
C519 C514 1.379 . S
C519 N517 1.356 . S
N520 C512 1.356 . S
N520 H526 0.984 . S
N520 H527 0.984 . S
N521 C514 1.356 . S
N521 H524 0.984 . S
N521 H525 0.985 . S
H522 N517 0.984 . S
H523 N517 0.985 . S
H524 N521 0.984 . S
H525 N521 0.985 . S
H526 N520 0.984 . S
H527 N520 0.984 . S
H528 N516 0.984 . S
H529 N516 0.985 . S
C530 C531 1.363 . S
C530 C536 1.379 . S
C530 N538 1.356 . S
C531 C530 1.363 . S
C531 C537 1.363 . S
C532 C533 1.363 . S
C532 C537 1.379 . S
C532 N539 1.356 . S
C533 C532 1.363 . S
C533 C536 1.363 . S
N534 C536 1.356 . S
N534 H546 0.984 . S
N534 H547 0.985 . S
N535 C537 1.356 . S
N535 H540 0.984 . S
N535 H541 0.985 . S
C536 C530 1.379 . S
C536 C533 1.363 . S
C536 N534 1.356 . S
C537 C531 1.363 . S
C537 C532 1.379 . S
C537 N535 1.356 . S
N538 C530 1.356 . S
N538 H544 0.984 . S
N538 H545 0.984 . S
N539 C532 1.356 . S
N539 H542 0.984 . S
N539 H543 0.985 . S
H540 N535 0.984 . S
H541 N535 0.985 . S
H542 N539 0.984 . S
H543 N539 0.985 . S
H544 N538 0.984 . S
H545 N538 0.984 . S
H546 N534 0.984 . S
H547 N534 0.985 . S
C548 C549 1.363 . S
C548 C554 1.379 1_554 S
C548 N556 1.356 . S
C549 C548 1.363 . S
C549 C555 1.363 . S
C550 C551 1.363 1_554 S
C550 C555 1.379 . S
C550 N557 1.356 1_554 S
C551 C550 1.363 1_556 S
C551 C554 1.363 . S
N552 C554 1.356 . S
N552 H564 0.984 . S
N552 H565 0.985 . S
N553 C555 1.356 . S
N553 H558 0.984 . S
N553 H559 0.985 . S
C554 C548 1.379 1_556 S
C554 C551 1.363 . S
C554 N552 1.356 . S
C555 C549 1.363 . S
C555 C550 1.379 . S
C555 N553 1.356 . S
N556 C548 1.356 . S
N556 H562 0.984 . S
N556 H563 0.984 . S
N557 C550 1.356 1_556 S
N557 H560 0.984 . S
N557 H561 0.985 1_556 S
H558 N553 0.984 . S
H559 N553 0.985 . S
H560 N557 0.984 . S
H561 N557 0.985 1_554 S
H562 N556 0.984 . S
H563 N556 0.984 . S
H564 N552 0.984 . S
H565 N552 0.985 . S
C566 C567 1.363 . S
C566 C572 1.379 . S
C566 N574 1.356 . S
C567 C566 1.363 . S
C567 C573 1.363 . S
C568 C569 1.363 . S
C568 C573 1.379 . S
C568 N575 1.356 . S
C569 C568 1.363 . S
C569 C572 1.363 . S
N570 C572 1.356 . S
N570 H582 0.984 . S
N570 H583 0.985 . S
N571 C573 1.356 . S
N571 H576 0.984 . S
N571 H577 0.985 . S
C572 C566 1.379 . S
C572 C569 1.363 . S
C572 N570 1.356 . S
C573 C567 1.363 . S
C573 C568 1.379 . S
C573 N571 1.356 . S
N574 C566 1.356 . S
N574 H580 0.984 . S
N574 H581 0.984 . S
N575 C568 1.356 . S
N575 H578 0.984 . S
N575 H579 0.985 . S
H576 N571 0.984 . S
H577 N571 0.985 . S
H578 N575 0.984 . S
H579 N575 0.985 . S
H580 N574 0.984 . S
H581 N574 0.984 . S
H582 N570 0.984 . S
H583 N570 0.985 . S
C584 C585 1.363 . S
C584 C590 1.379 . S
C584 N592 1.356 . S
C585 C584 1.363 . S
C585 C591 1.363 . S
C586 C587 1.363 . S
C586 C591 1.379 . S
C586 N593 1.356 . S
C587 C586 1.363 . S
C587 C590 1.363 . S
N588 C590 1.356 . S
N588 H600 0.984 . S
N588 H601 0.985 . S
N589 C591 1.356 . S
N589 H594 0.984 . S
N589 H595 0.985 . S
C590 C584 1.379 . S
C590 C587 1.363 . S
C590 N588 1.356 . S
C591 C585 1.363 . S
C591 C586 1.379 . S
C591 N589 1.356 . S
N592 C584 1.356 . S
N592 H598 0.984 . S
N592 H599 0.984 . S
N593 C586 1.356 . S
N593 H596 0.984 . S
N593 H597 0.985 . S
H594 N589 0.984 . S
H595 N589 0.985 . S
H596 N593 0.984 . S
H597 N593 0.985 . S
H598 N592 0.984 . S
H599 N592 0.984 . S
H600 N588 0.984 . S
H601 N588 0.985 . S
C602 C603 1.363 . S
C602 C608 1.379 . S
C602 N610 1.356 . S
C603 C602 1.363 . S
C603 C609 1.363 . S
C604 C605 1.363 . S
C604 C609 1.379 1_556 S
C604 N611 1.356 . S
C605 C604 1.363 . S
C605 C608 1.363 1_556 S
N606 C608 1.356 1_556 S
N606 H618 0.984 . S
N606 H619 0.985 . S
N607 C609 1.356 . S
N607 H612 0.984 . S
N607 H613 0.985 . S
C608 C602 1.379 . S
C608 C605 1.363 1_554 S
C608 N606 1.356 1_554 S
C609 C603 1.363 . S
C609 C604 1.379 1_554 S
C609 N607 1.356 . S
N610 C602 1.356 . S
N610 H616 0.984 . S
N610 H617 0.984 . S
N611 C604 1.356 . S
N611 H614 0.984 . S
N611 H615 0.985 . S
H612 N607 0.984 . S
H613 N607 0.985 . S
H614 N611 0.984 . S
H615 N611 0.985 . S
H616 N610 0.984 . S
H617 N610 0.984 . S
H618 N606 0.984 . S
H619 N606 0.985 . S
C620 C621 1.363 . S
C620 C626 1.379 . S
C620 N628 1.356 . S
C621 C620 1.363 . S
C621 C627 1.363 . S
C622 C623 1.363 . S
C622 C627 1.379 . S
C622 N629 1.356 . S
C623 C622 1.363 . S
C623 C626 1.363 . S
N624 C626 1.356 . S
N624 H636 0.984 . S
N624 H637 0.985 . S
N625 C627 1.356 . S
N625 H630 0.984 . S
N625 H631 0.985 . S
C626 C620 1.379 . S
C626 C623 1.363 . S
C626 N624 1.356 . S
C627 C621 1.363 . S
C627 C622 1.379 . S
C627 N625 1.356 . S
N628 C620 1.356 . S
N628 H634 0.984 . S
N628 H635 0.984 . S
N629 C622 1.356 . S
N629 H632 0.984 . S
N629 H633 0.985 . S
H630 N625 0.984 . S
H631 N625 0.985 . S
H632 N629 0.984 . S
H633 N629 0.985 . S
H634 N628 0.984 . S
H635 N628 0.984 . S
H636 N624 0.984 . S
H637 N624 0.985 . S
C638 C639 1.363 . S
C638 C644 1.379 . S
C638 N646 1.356 . S
C639 C638 1.363 . S
C639 C645 1.363 . S
C640 C641 1.363 . S
C640 C645 1.379 . S
C640 N647 1.356 . S
C641 C640 1.363 . S
C641 C644 1.363 . S
N642 C644 1.356 . S
N642 H654 0.984 . S
N642 H655 0.985 . S
N643 C645 1.356 . S
N643 H648 0.984 . S
N643 H649 0.985 . S
C644 C638 1.379 . S
C644 C641 1.363 . S
C644 N642 1.356 . S
C645 C639 1.363 . S
C645 C640 1.379 . S
C645 N643 1.356 . S
N646 C638 1.356 . S
N646 H652 0.984 . S
N646 H653 0.984 . S
N647 C640 1.356 . S
N647 H650 0.984 . S
N647 H651 0.985 . S
H648 N643 0.984 . S
H649 N643 0.985 . S
H650 N647 0.984 . S
H651 N647 0.985 . S
H652 N646 0.984 . S
H653 N646 0.984 . S
H654 N642 0.984 . S
H655 N642 0.985 . S
C656 C657 1.363 1_554 S
C656 C662 1.379 . S
C656 N664 1.356 1_554 S
C657 C656 1.363 1_556 S
C657 C663 1.363 1_556 S
C658 C659 1.363 . S
C658 C663 1.379 . S
C658 N665 1.356 . S
C659 C658 1.363 . S
C659 C662 1.363 . S
N660 C662 1.356 . S
N660 H672 0.984 . S
N660 H673 0.985 . S
N661 C663 1.356 1_556 S
N661 H666 0.984 . S
N661 H667 0.985 . S
C662 C656 1.379 . S
C662 C659 1.363 . S
C662 N660 1.356 . S
C663 C657 1.363 1_554 S
C663 C658 1.379 . S
C663 N661 1.356 1_554 S
N664 C656 1.356 1_556 S
N664 H670 0.984 . S
N664 H671 0.984 . S
N665 C658 1.356 . S
N665 H668 0.984 . S
N665 H669 0.985 . S
H666 N661 0.984 . S
H667 N661 0.985 . S
H668 N665 0.984 . S
H669 N665 0.985 . S
H670 N664 0.984 . S
H671 N664 0.984 . S
H672 N660 0.984 . S
H673 N660 0.985 . S
C674 C675 1.363 . S
C674 C680 1.379 . S
C674 N682 1.356 . S
C675 C674 1.363 . S
C675 C681 1.363 . S
C676 C677 1.363 . S
C676 C681 1.379 . S
C676 N683 1.356 . S
C677 C676 1.363 . S
C677 C680 1.363 . S
N678 C680 1.356 . S
N678 H690 0.984 . S
N678 H691 0.985 . S
N679 C681 1.356 . S
N679 H684 0.984 . S
N679 H685 0.985 . S
C680 C674 1.379 . S
C680 C677 1.363 . S
C680 N678 1.356 . S
C681 C675 1.363 . S
C681 C676 1.379 . S
C681 N679 1.356 . S
N682 C674 1.356 . S
N682 H688 0.984 . S
N682 H689 0.984 . S
N683 C676 1.356 . S
N683 H686 0.984 . S
N683 H687 0.985 . S
H684 N679 0.984 . S
H685 N679 0.985 . S
H686 N683 0.984 . S
H687 N683 0.985 . S
H688 N682 0.984 . S
H689 N682 0.984 . S
H690 N678 0.984 . S
H691 N678 0.985 . S
C692 C693 1.363 . S
C692 C698 1.379 . S
C692 N700 1.356 . S
C693 C692 1.363 . S
C693 C699 1.363 . S
C694 C695 1.363 . S
C694 C699 1.379 . S
C694 N701 1.356 . S
C695 C694 1.363 . S
C695 C698 1.363 . S
N696 C698 1.356 . S
N696 H708 0.984 . S
N696 H709 0.985 . S
N697 C699 1.356 . S
N697 H702 0.984 . S
N697 H703 0.985 . S
C698 C692 1.379 . S
C698 C695 1.363 . S
C698 N696 1.356 . S
C699 C693 1.363 . S
C699 C694 1.379 . S
C699 N697 1.356 . S
N700 C692 1.356 . S
N700 H706 0.984 . S
N700 H707 0.984 . S
N701 C694 1.356 . S
N701 H704 0.984 . S
N701 H705 0.985 . S
H702 N697 0.984 . S
H703 N697 0.985 . S
H704 N701 0.984 . S
H705 N701 0.985 . S
H706 N700 0.984 . S
H707 N700 0.984 . S
H708 N696 0.984 . S
H709 N696 0.985 . S
C710 C711 1.363 . S
C710 C716 1.379 . S
C710 N718 1.356 . S
C711 C710 1.363 . S
C711 C717 1.363 . S
C712 C713 1.363 . S
C712 C717 1.379 . S
C712 N719 1.356 . S
C713 C712 1.363 . S
C713 C716 1.363 . S
N714 C716 1.356 . S
N714 H726 0.984 . S
N714 H727 0.985 . S
N715 C717 1.356 . S
N715 H720 0.984 . S
N715 H721 0.985 . S
C716 C710 1.379 . S
C716 C713 1.363 . S
C716 N714 1.356 . S
C717 C711 1.363 . S
C717 C712 1.379 . S
C717 N715 1.356 . S
N718 C710 1.356 . S
N718 H724 0.984 . S
N718 H725 0.984 . S
N719 C712 1.356 . S
N719 H722 0.984 . S
N719 H723 0.985 . S
H720 N715 0.984 . S
H721 N715 0.985 . S
H722 N719 0.984 . S
H723 N719 0.985 . S
H724 N718 0.984 . S
H725 N718 0.984 . S
H726 N714 0.984 . S
H727 N714 0.985 . S
C728 C729 1.363 . S
C728 C734 1.379 . S
C728 N736 1.356 . S
C729 C728 1.363 . S
C729 C735 1.363 . S
C730 C731 1.363 . S
C730 C735 1.379 . S
C730 N737 1.356 . S
C731 C730 1.363 . S
C731 C734 1.363 . S
N732 C734 1.356 . S
N732 H744 0.984 . S
N732 H745 0.985 . S
N733 C735 1.356 . S
N733 H738 0.984 . S
N733 H739 0.985 . S
C734 C728 1.379 . S
C734 C731 1.363 . S
C734 N732 1.356 . S
C735 C729 1.363 . S
C735 C730 1.379 . S
C735 N733 1.356 . S
N736 C728 1.356 . S
N736 H742 0.984 . S
N736 H743 0.984 . S
N737 C730 1.356 . S
N737 H740 0.984 . S
N737 H741 0.985 . S
H738 N733 0.984 . S
H739 N733 0.985 . S
H740 N737 0.984 . S
H741 N737 0.985 . S
H742 N736 0.984 . S
H743 N736 0.984 . S
H744 N732 0.984 . S
H745 N732 0.985 . S
C746 C747 1.363 . S
C746 C752 1.379 . S
C746 N754 1.356 . S
C747 C746 1.363 . S
C747 C753 1.363 . S
C748 C749 1.363 . S
C748 C753 1.379 . S
C748 N755 1.356 . S
C749 C748 1.363 . S
C749 C752 1.363 . S
N750 C752 1.356 . S
N750 H762 0.984 . S
N750 H763 0.985 . S
N751 C753 1.356 . S
N751 H756 0.984 . S
N751 H757 0.985 . S
C752 C746 1.379 . S
C752 C749 1.363 . S
C752 N750 1.356 . S
C753 C747 1.363 . S
C753 C748 1.379 . S
C753 N751 1.356 . S
N754 C746 1.356 . S
N754 H760 0.984 . S
N754 H761 0.984 . S
N755 C748 1.356 . S
N755 H758 0.984 . S
N755 H759 0.985 . S
H756 N751 0.984 . S
H757 N751 0.985 . S
H758 N755 0.984 . S
H759 N755 0.985 . S
H760 N754 0.984 . S
H761 N754 0.984 . S
H762 N750 0.984 . S
H763 N750 0.985 . S
C764 C765 1.363 . S
C764 C770 1.379 . S
C764 N772 1.356 . S
C765 C764 1.363 . S
C765 C771 1.363 . S
C766 C767 1.363 . S
C766 C771 1.379 . S
C766 N773 1.356 . S
C767 C766 1.363 . S
C767 C770 1.363 . S
N768 C770 1.356 . S
N768 H780 0.984 . S
N768 H781 0.985 . S
N769 C771 1.356 . S
N769 H774 0.984 . S
N769 H775 0.985 . S
C770 C764 1.379 . S
C770 C767 1.363 . S
C770 N768 1.356 . S
C771 C765 1.363 . S
C771 C766 1.379 . S
C771 N769 1.356 . S
N772 C764 1.356 . S
N772 H778 0.984 . S
N772 H779 0.984 . S
N773 C766 1.356 . S
N773 H776 0.984 . S
N773 H777 0.985 . S
H774 N769 0.984 . S
H775 N769 0.985 . S
H776 N773 0.984 . S
H777 N773 0.985 . S
H778 N772 0.984 . S
H779 N772 0.984 . S
H780 N768 0.984 . S
H781 N768 0.985 . S
C782 C783 1.363 . S
C782 C788 1.379 . S
C782 N790 1.356 . S
C783 C782 1.363 . S
C783 C789 1.363 . S
C784 C785 1.363 . S
C784 C789 1.379 1_556 S
C784 N791 1.356 . S
C785 C784 1.363 . S
C785 C788 1.363 1_556 S
N786 C788 1.356 1_556 S
N786 H798 0.984 1_556 S
N786 H799 0.985 . S
N787 C789 1.356 . S
N787 H792 0.984 . S
N787 H793 0.985 . S
C788 C782 1.379 . S
C788 C785 1.363 1_554 S
C788 N786 1.356 1_554 S
C789 C783 1.363 . S
C789 C784 1.379 1_554 S
C789 N787 1.356 . S
N790 C782 1.356 . S
N790 H796 0.984 . S
N790 H797 0.984 . S
N791 C784 1.356 . S
N791 H794 0.984 . S
N791 H795 0.985 . S
H792 N787 0.984 . S
H793 N787 0.985 . S
H794 N791 0.984 . S
H795 N791 0.985 . S
H796 N790 0.984 . S
H797 N790 0.984 . S
H798 N786 0.984 1_554 S
H799 N786 0.985 . S
C225 C97 2.031 . S
C227 C13 2.031 . S
C243 C111 2.031 . S
C245 C27 2.031 . S
C261 C41 2.031 . S
C263 C56 2.026 1_556 S
C279 C55 2.031 . S
C281 C83 2.031 . S
C297 C112 2.033 . S
C299 C197 2.024 1_556 S
C315 C223 2.031 . S
C317 C139 2.031 . S
C333 C141 2.031 . S
C335 C168 2.033 . S
C351 C155 2.031 . S
C353 C182 2.033 . S
C369 C12 1.982 . S
C371 C140 1.982 . S
C387 C26 1.982 . S
C389 C154 1.982 . S
C405 C40 1.982 . S
C407 C113 1.977 . S
C423 C54 1.982 . S
C425 C138 1.982 . S
C441 C57 1.977 . S
C443 C196 1.982 . S
C459 C222 1.982 . S
C461 C82 1.982 . S
C477 C96 1.982 . S
C479 C169 1.977 . S
C495 C183 1.977 . S
C497 C110 1.982 . S
C513 C195 0.924 . S
C515 C0 0.924 . S
C531 C14 0.924 . S
C533 C208 0.924 . S
C549 C210 0.924 . S
C551 C28 0.924 . S
C567 C181 0.924 . S
C569 C42 0.924 . S
C585 C166 0.924 . S
C587 C69 0.924 . S
C603 C70 0.924 . S
C605 C125 0.924 . S
C621 C84 0.924 . S
C623 C126 0.924 . S
C639 C98 0.924 . S
C641 C152 0.924 . S
C657 C194 1.701 . S
C659 C1 1.699 . S
C675 C15 1.699 . S
C677 C209 1.699 . S
C693 C29 1.699 . S
C695 C211 1.699 . S
C711 C180 1.701 . S
C713 C43 1.699 . S
C729 C167 1.699 . S
C731 C68 1.701 . S
C747 C124 1.701 . S
C749 C71 1.699 . S
C765 C85 1.699 . S
C767 C127 1.699 . S
C783 C153 1.699 . S
C785 C99 1.699 . S
