# Generated by pormake.
# Topology zfl, (5)-cn, num edge types: 1
# Building blocks:
#     Node 0, Type 0, BuildingBlock: XOMCOT_clean_sbu_0, # of connection points: 5
#     Node 1, Type 0, BuildingBlock: XOMCOT_clean_sbu_0, # of connection points: 5
#     Node 2, Type 0, BuildingBlock: XOMCOT_clean_sbu_0, # of connection points: 5
#     Node 3, Type 0, BuildingBlock: XOMCOT_clean_sbu_0, # of connection points: 5
#     Node 4, Type 0, BuildingBlock: XOMCOT_clean_sbu_0, # of connection points: 5
#     Node 5, Type 0, BuildingBlock: XOMCOT_clean_sbu_0, # of connection points: 5
#     Node 6, Type 0, BuildingBlock: XOMCOT_clean_sbu_0, # of connection points: 5
#     Node 7, Type 0, BuildingBlock: XOMCOT_clean_sbu_0, # of connection points: 5
#     Node 8, Type 0, BuildingBlock: XOMCOT_clean_sbu_0, # of connection points: 5
#     Node 9, Type 0, BuildingBlock: XOMCOT_clean_sbu_0, # of connection points: 5
#     Node 10, Type 0, BuildingBlock: XOMCOT_clean_sbu_0, # of connection points: 5
#     Node 11, Type 0, BuildingBlock: XOMCOT_clean_sbu_0, # of connection points: 5
#     Node 12, Type 0, BuildingBlock: XOMCOT_clean_sbu_0, # of connection points: 5
#     Node 13, Type 0, BuildingBlock: XOMCOT_clean_sbu_0, # of connection points: 5
#     Node 14, Type 0, BuildingBlock: XOMCOT_clean_sbu_0, # of connection points: 5
#     Node 15, Type 0, BuildingBlock: XOMCOT_clean_sbu_0, # of connection points: 5
#     Edge 16, Type (0, 0), BuildingBlock: KIFKEQ_clean_linker_1, # of connection points: 2
#     Edge 17, Type (0, 0), BuildingBlock: KIFKEQ_clean_linker_1, # of connection points: 2
#     Edge 18, Type (0, 0), BuildingBlock: KIFKEQ_clean_linker_1, # of connection points: 2
#     Edge 19, Type (0, 0), BuildingBlock: KIFKEQ_clean_linker_1, # of connection points: 2
#     Edge 20, Type (0, 0), BuildingBlock: KIFKEQ_clean_linker_1, # of connection points: 2
#     Edge 21, Type (0, 0), BuildingBlock: KIFKEQ_clean_linker_1, # of connection points: 2
#     Edge 22, Type (0, 0), BuildingBlock: KIFKEQ_clean_linker_1, # of connection points: 2
#     Edge 23, Type (0, 0), BuildingBlock: KIFKEQ_clean_linker_1, # of connection points: 2
#     Edge 24, Type (0, 0), BuildingBlock: KIFKEQ_clean_linker_1, # of connection points: 2
#     Edge 25, Type (0, 0), BuildingBlock: KIFKEQ_clean_linker_1, # of connection points: 2
#     Edge 26, Type (0, 0), BuildingBlock: KIFKEQ_clean_linker_1, # of connection points: 2
#     Edge 27, Type (0, 0), BuildingBlock: KIFKEQ_clean_linker_1, # of connection points: 2
#     Edge 28, Type (0, 0), BuildingBlock: KIFKEQ_clean_linker_1, # of connection points: 2
#     Edge 29, Type (0, 0), BuildingBlock: KIFKEQ_clean_linker_1, # of connection points: 2
#     Edge 30, Type (0, 0), BuildingBlock: KIFKEQ_clean_linker_1, # of connection points: 2
#     Edge 31, Type (0, 0), BuildingBlock: KIFKEQ_clean_linker_1, # of connection points: 2
#     Edge 32, Type (0, 0), BuildingBlock: KIFKEQ_clean_linker_1, # of connection points: 2
#     Edge 33, Type (0, 0), BuildingBlock: KIFKEQ_clean_linker_1, # of connection points: 2
#     Edge 34, Type (0, 0), BuildingBlock: KIFKEQ_clean_linker_1, # of connection points: 2
#     Edge 35, Type (0, 0), BuildingBlock: KIFKEQ_clean_linker_1, # of connection points: 2
#     Edge 36, Type (0, 0), BuildingBlock: KIFKEQ_clean_linker_1, # of connection points: 2
#     Edge 37, Type (0, 0), BuildingBlock: KIFKEQ_clean_linker_1, # of connection points: 2
#     Edge 38, Type (0, 0), BuildingBlock: KIFKEQ_clean_linker_1, # of connection points: 2
#     Edge 39, Type (0, 0), BuildingBlock: KIFKEQ_clean_linker_1, # of connection points: 2
#     Edge 40, Type (0, 0), BuildingBlock: KIFKEQ_clean_linker_1, # of connection points: 2
#     Edge 41, Type (0, 0), BuildingBlock: KIFKEQ_clean_linker_1, # of connection points: 2
#     Edge 42, Type (0, 0), BuildingBlock: KIFKEQ_clean_linker_1, # of connection points: 2
#     Edge 43, Type (0, 0), BuildingBlock: KIFKEQ_clean_linker_1, # of connection points: 2
#     Edge 44, Type (0, 0), BuildingBlock: KIFKEQ_clean_linker_1, # of connection points: 2
#     Edge 45, Type (0, 0), BuildingBlock: KIFKEQ_clean_linker_1, # of connection points: 2
#     Edge 46, Type (0, 0), BuildingBlock: KIFKEQ_clean_linker_1, # of connection points: 2
#     Edge 47, Type (0, 0), BuildingBlock: KIFKEQ_clean_linker_1, # of connection points: 2
#     Edge 48, Type (0, 0), BuildingBlock: KIFKEQ_clean_linker_1, # of connection points: 2
#     Edge 49, Type (0, 0), BuildingBlock: KIFKEQ_clean_linker_1, # of connection points: 2
#     Edge 50, Type (0, 0), BuildingBlock: KIFKEQ_clean_linker_1, # of connection points: 2
#     Edge 51, Type (0, 0), BuildingBlock: KIFKEQ_clean_linker_1, # of connection points: 2
#     Edge 52, Type (0, 0), BuildingBlock: KIFKEQ_clean_linker_1, # of connection points: 2
#     Edge 53, Type (0, 0), BuildingBlock: KIFKEQ_clean_linker_1, # of connection points: 2
#     Edge 54, Type (0, 0), BuildingBlock: KIFKEQ_clean_linker_1, # of connection points: 2
#     Edge 55, Type (0, 0), BuildingBlock: KIFKEQ_clean_linker_1, # of connection points: 2
# Relax obj value: 0.225
# Max RMSD: 0.258
# Mean RMSD: 0.258
data_MOF--net-zfl--node1-XOMCOT_clean_sbu_0--edge1-KIFKEQ_clean_linker_1
_symmetry_space_group_name_H-M    P1
_symmetry_Int_Tables_number       1
_symmetry_cell_setting            triclinic
loop_
_symmetry_equiv_pos_as_xyz
'x, y, z'
_cell_length_a     32.611393
_cell_length_b     32.586109
_cell_length_c     60.28175
_cell_angle_alpha  89.950263
_cell_angle_beta   89.989393
_cell_angle_gamma 89.970735
loop_
_atom_site_label
_atom_site_type_symbol
_atom_site_fract_x
_atom_site_fract_y
_atom_site_fract_z
_atom_type_partial_charge
Co0 Co 0.55908 0.12098 0.08067 0.0
C1 C 0.57129 0.03757 0.09735 0.0
C2 C 0.61982 0.05419 0.07515 0.0
C3 C 0.62339 0.01301 0.08008 0.0
N4 N 0.58776 0.0699 0.08652 0.0
N5 N 0.59254 1.00268 0.09386 0.0
H6 H 0.54259 0.03887 0.10632 0.0
H7 H 0.63787 0.07094 0.06312 0.0
C8 C 0.64422 0.14898 0.09622 0.0
O9 O 0.65392 0.11171 0.10254 0.0
N10 N 0.52873 0.17128 0.07451 0.0
C11 C 0.50893 0.18143 0.0556 0.0
C12 C 0.48822 0.21766 0.05876 0.0
C13 C 0.52021 0.20221 0.08879 0.0
N14 N 0.49507 0.23062 0.07964 0.0
C15 C 0.49586 0.11519 0.11337 0.0
C16 C 0.54705 0.10684 0.14962 0.0
C17 C 0.50516 0.09869 0.15223 0.0
C18 C 0.47912 0.10462 0.13402 0.0
C19 C 0.56241 0.11783 0.12883 0.0
N20 N 0.53719 0.12021 0.1108 0.0
H21 H 0.47585 0.11716 0.09911 0.0
H22 H 0.59489 0.12154 0.12717 0.0
H23 H 0.50864 0.16378 0.04046 0.0
H24 H 0.53091 0.20314 0.10578 0.0
O25 O 0.51724 0.0882 0.06618 0.0
O26 O 0.57177 0.11444 0.04947 0.0
O27 O 0.60802 0.15703 0.08905 0.0
C28 C 0.53918 0.09143 0.04821 0.0
H29 H 0.64499 0.99171 0.07277 0.0
H30 H 0.46937 0.23324 0.0466 0.0
H31 H 0.56811 0.10313 0.16338 0.0
H32 H 0.44654 0.09869 0.13536 0.0
Co33 Co 0.40144 0.56219 0.64235 0.0
C34 C 0.48719 0.589 0.64438 0.0
C35 C 0.4484 0.63731 0.63277 0.0
C36 C 0.48866 0.64764 0.62838 0.0
N37 N 0.44738 0.60035 0.64287 0.0
N38 N 0.513 0.61685 0.6355 0.0
H39 H 0.49698 0.55846 0.64866 0.0
H40 H 0.42174 0.65344 0.62662 0.0
C41 C 0.36338 0.6395 0.66124 0.0
O42 O 0.39538 0.644 0.67425 0.0
N43 N 0.35702 0.52327 0.64132 0.0
C44 C 0.36038 0.48328 0.64671 0.0
C45 C 0.32392 0.46406 0.6421 0.0
C46 C 0.31844 0.52808 0.63361 0.0
N47 N 0.29766 0.49217 0.63388 0.0
C48 C 0.44152 0.5241 0.6793 0.0
C49 C 0.38522 0.54467 0.71165 0.0
C50 C 0.41928 0.52073 0.7175 0.0
C51 C 0.44739 0.51027 0.70095 0.0
C52 C 0.38003 0.55727 0.68954 0.0
N53 N 0.40898 0.5485 0.67377 0.0
H54 H 0.46248 0.51329 0.66686 0.0
H55 H 0.35199 0.57278 0.68512 0.0
H56 H 0.38785 0.46889 0.65308 0.0
H57 H 0.30636 0.5567 0.62724 0.0
O58 O 0.43739 0.5214 0.6293 0.0
O59 O 0.40096 0.56645 0.61022 0.0
O60 O 0.36078 0.60815 0.64852 0.0
C61 C 0.42778 0.53687 0.61013 0.0
H62 H 0.49877 0.67396 0.61889 0.0
H63 H 0.31721 0.43183 0.6445 0.0
H64 H 0.36208 0.55227 0.72387 0.0
H65 H 0.47369 0.49112 0.70467 0.0
Co66 Co 0.95186 0.39456 0.07671 0.0
C67 C 0.94092 0.47736 0.09419 0.0
C68 C 0.89119 0.46166 0.07262 0.0
C69 C 0.88836 0.5028 0.07771 0.0
N70 N 0.92361 0.44541 0.08346 0.0
N71 N 0.91999 0.51256 0.09107 0.0
H72 H 0.97007 0.4756 0.1027 0.0
H73 H 0.87247 0.44535 0.06072 0.0
C74 C 0.86761 0.36629 0.09348 0.0
O75 O 0.85847 0.40345 0.10018 0.0
N76 N 0.98182 0.34443 0.06967 0.0
C77 C 1.00079 0.3349 0.05043 0.0
C78 C 0.02159 0.29853 0.053 0.0
C79 C 0.99093 0.31302 0.08357 0.0
N80 N 0.01562 0.28488 0.07385 0.0
C81 C 0.01674 0.39953 0.10848 0.0
C82 C 0.96795 0.40286 0.14591 0.0
C83 C 0.0101 0.41051 0.14816 0.0
C84 C 0.03473 0.40767 0.12911 0.0
C85 C 0.95127 0.39476 0.12503 0.0
N86 N 0.97536 0.39428 0.10651 0.0
H87 H 0.0359 0.39898 0.09385 0.0
H88 H 0.9187 0.39129 0.12385 0.0
H89 H 1.00048 0.3531 0.03546 0.0
H90 H 0.98098 0.31156 0.10068 0.0
O91 O 0.99291 0.42783 0.0618 0.0
O92 O 0.93754 0.40216 0.04575 0.0
O93 O 0.90332 0.35829 0.0856 0.0
C94 C 0.97001 0.42527 0.04416 0.0
H95 H 0.8668 0.52449 0.07069 0.0
H96 H 0.03989 0.28336 0.04047 0.0
H97 H 0.94745 0.40518 0.15999 0.0
H98 H 0.06753 0.41255 0.13001 0.0
Co99 Co 0.10706 0.93683 0.63737 0.0
C100 C 0.02077 0.91201 0.64011 0.0
C101 C 0.05794 0.86288 0.62797 0.0
C102 C 0.01721 0.85316 0.62447 0.0
N103 N 0.06019 0.89992 0.63788 0.0
N104 N 0.99392 0.88439 0.63202 0.0
H105 H 0.01175 0.9427 0.6445 0.0
H106 H 0.08399 0.84608 0.62158 0.0
C107 C 0.14208 0.85914 0.65768 0.0
O108 O 0.10905 0.85537 0.66999 0.0
N109 N 0.1525 0.97461 0.63656 0.0
C110 C 0.15074 0.01378 0.64362 0.0
C111 C 0.18886 0.03111 0.64154 0.0
C112 C 0.19159 0.96866 0.62988 0.0
N113 N 0.21447 1.00282 0.63295 0.0
C114 C 0.06627 0.97832 0.6729 0.0
C115 C 0.11772 0.95515 0.70701 0.0
C116 C 0.0834 0.9796 0.71196 0.0
C117 C 0.0582 0.99184 0.69435 0.0
C118 C 0.12492 0.94249 0.68507 0.0
N119 N 0.09803 0.95227 0.66844 0.0
H120 H 0.04756 0.99049 0.65977 0.0
H121 H 0.15266 0.92573 0.68156 0.0
H122 H 0.12356 0.02874 0.64994 0.0
H123 H 0.20315 0.93998 0.62333 0.0
O124 O 0.07303 0.97789 0.62301 0.0
O125 O 0.109 0.93056 0.60538 0.0
O126 O 0.14622 0.89026 0.64489 0.0
C127 C 0.0831 0.96088 0.60431 0.0
H128 H 0.00593 0.82685 0.61539 0.0
H129 H 0.19708 0.06233 0.64575 0.0
H130 H 0.13886 0.94582 0.71991 0.0
H131 H 0.03279 0.0127 0.69695 0.0
Co132 Co 0.56669 0.39976 0.93858 0.0
C133 C 0.5745 0.48341 0.92115 0.0
C134 C 0.62239 0.47033 0.9444 0.0
C135 C 0.6228 0.51175 0.93985 0.0
N136 N 0.59246 0.4523 0.93237 0.0
N137 N 0.59249 0.51987 0.92529 0.0
H138 H 0.54621 0.48024 0.91194 0.0
H139 H 0.64088 0.45491 0.95676 0.0
C140 C 0.65306 0.37555 0.92319 0.0
O141 O 0.66234 0.41358 0.91817 0.0
N142 N 0.5396 0.3478 0.94534 0.0
C143 C 0.52769 0.33431 0.96553 0.0
C144 C 0.5098 0.29643 0.96339 0.0
C145 C 0.52906 0.31726 0.9312 0.0
N146 N 0.51052 0.28564 0.94182 0.0
C147 C 0.50268 0.40107 0.90616 0.0
C148 C 0.55285 0.41287 0.86973 0.0
C149 C 0.51038 0.4173 0.86716 0.0
C150 C 0.48505 0.4098 0.88551 0.0
C151 C 0.56917 0.40337 0.89053 0.0
N152 N 0.54428 0.39902 0.9086 0.0
H153 H 0.48302 0.39786 0.9205 0.0
H154 H 0.60194 0.4026 0.89226 0.0
H155 H 0.53136 0.35051 0.98101 0.0
H156 H 0.53509 0.31794 0.91356 0.0
O157 O 0.52339 0.43019 0.95329 0.0
O158 O 0.57985 0.40732 0.96961 0.0
O159 O 0.61685 0.36618 0.92977 0.0
C160 C 0.54585 0.42816 0.97112 0.0
H161 H 0.64245 0.53441 0.94753 0.0
H162 H 0.49646 0.27861 0.97671 0.0
H163 H 0.57342 0.41811 0.8559 0.0
H164 H 0.45207 0.41298 0.8842 0.0
Co165 Co 0.10813 0.56562 0.37345 0.0
C166 C 0.02264 0.59026 0.36978 0.0
C167 C 0.05808 0.63688 0.38559 0.0
C168 C 0.01716 0.64345 0.39037 0.0
N169 N 0.0616 0.60294 0.37291 0.0
N170 N 0.99504 0.61333 0.38082 0.0
H171 H 0.0148 0.56158 0.36214 0.0
H172 H 0.08359 0.65226 0.39347 0.0
C173 C 0.14292 0.64457 0.35493 0.0
O174 O 0.10942 0.64942 0.34311 0.0
N175 N 0.15302 0.5272 0.37439 0.0
C176 C 0.14966 0.48728 0.36898 0.0
C177 C 0.18713 0.46887 0.37149 0.0
C178 C 0.19255 0.53266 0.38034 0.0
N179 N 0.21419 0.4973 0.37857 0.0
C180 C 0.07021 0.52285 0.33734 0.0
C181 C 0.12237 0.54813 0.30396 0.0
C182 C 0.09091 0.52039 0.29884 0.0
C183 C 0.06478 0.50777 0.31591 0.0
C184 C 0.12712 0.56214 0.32584 0.0
N185 N 0.10018 0.55078 0.34217 0.0
H186 H 0.05111 0.51027 0.35021 0.0
H187 H 0.15359 0.5806 0.32958 0.0
H188 H 0.12168 0.47238 0.36376 0.0
H189 H 0.20515 0.56171 0.38571 0.0
O190 O 0.07315 0.52467 0.38741 0.0
O191 O 0.10939 0.57108 0.4055 0.0
O192 O 0.14774 0.61214 0.36666 0.0
C193 C 0.08309 0.54113 0.40628 0.0
H194 H 0.00538 0.66536 0.40226 0.0
H195 H 0.19365 0.43668 0.36884 0.0
H196 H 0.14412 0.55758 0.29137 0.0
H197 H 0.04046 0.48587 0.31283 0.0
Co198 Co 0.95483 0.11934 0.9343 0.0
C199 C 0.93363 0.03864 0.91667 0.0
C200 C 0.89081 0.0568 0.94175 0.0
C201 C 0.88455 0.01592 0.93699 0.0
N202 N 0.92132 0.07126 0.92874 0.0
N203 N 0.91168 1.00466 0.92126 0.0
H204 H 0.96109 0.03844 0.9066 0.0
H205 H 0.8761 0.07398 0.95488 0.0
C206 C 0.87165 0.15366 0.92012 0.0
O207 O 0.85963 0.11692 0.91414 0.0
N208 N 0.99016 0.16616 0.94022 0.0
C209 C 0.01979 0.16896 0.95577 0.0
C210 C 0.04 0.20553 0.95327 0.0
C211 C 0.993 0.20134 0.9284 0.0
N212 N 0.02328 0.22606 0.93607 0.0
C213 C 0.0157 0.11088 0.90067 0.0
C214 C 0.96271 0.10646 0.865 0.0
C215 C 1.004 0.09606 0.86184 0.0
C216 C 0.03101 0.10002 0.87978 0.0
C217 C 0.9488 0.1177 0.88605 0.0
N218 N 0.97481 0.11799 0.9038 0.0
H219 H 0.03636 0.11126 0.91469 0.0
H220 H 0.91665 0.12325 0.88811 0.0
H221 H 0.02758 0.1458 0.96785 0.0
H222 H 0.97365 0.20825 0.91431 0.0
O223 O 0.9942 0.08211 0.94748 0.0
O224 O 0.94417 0.11337 0.96579 0.0
O225 O 0.90846 0.15957 0.92701 0.0
C226 C 0.9744 0.08721 0.96603 0.0
H227 H 0.86342 0.99554 0.94538 0.0
H228 H 0.06608 0.21536 0.96298 0.0
H229 H 0.94098 0.10436 0.85146 0.0
H230 H 0.06316 0.09233 0.87803 0.0
Co231 Co 0.39871 0.94288 0.37689 0.0
C232 C 0.48376 0.91427 0.3729 0.0
C233 C 0.44474 0.86688 0.38541 0.0
C234 C 0.48503 0.85526 0.38858 0.0
N235 N 0.4439 0.90404 0.37552 0.0
N236 N 0.50946 0.88536 0.38078 0.0
H237 H 0.49412 0.9445 0.36841 0.0
H238 H 0.41816 0.85138 0.3921 0.0
C239 C 0.36062 0.86744 0.35617 0.0
O240 O 0.39302 0.86369 0.34337 0.0
N241 N 0.35495 0.98244 0.37872 0.0
C242 C 0.35938 0.02288 0.37474 0.0
C243 C 0.32301 0.0423 0.37932 0.0
C244 C 0.31583 0.97756 0.38554 0.0
N245 N 0.29575 0.01387 0.38609 0.0
C246 C 0.43961 0.98384 0.34121 0.0
C247 C 0.38577 0.96398 0.3076 0.0
C248 C 0.42112 0.98667 0.30236 0.0
C249 C 0.44751 0.99738 0.31973 0.0
C250 C 0.37884 0.95123 0.32956 0.0
N251 N 0.40691 0.95915 0.34588 0.0
H252 H 0.45949 0.99462 0.35418 0.0
H253 H 0.35049 0.93571 0.33333 0.0
H254 H 0.38744 0.03739 0.36929 0.0
H255 H 0.30276 0.9485 0.39062 0.0
O256 O 0.43497 0.98203 0.39113 0.0
O257 O 0.39789 0.93572 0.40889 0.0
O258 O 0.35762 0.89801 0.36942 0.0
C259 C 0.42475 0.96517 0.40985 0.0
H260 H 0.49541 0.82854 0.39767 0.0
H261 H 0.317 0.07487 0.37781 0.0
H262 H 0.36374 0.95596 0.29489 0.0
H263 H 0.47386 0.01692 0.31692 0.0
Co264 Co 0.43991 0.90909 0.87701 0.0
C265 C 0.41512 0.9957 0.87683 0.0
C266 C 0.36856 0.9578 0.89106 0.0
C267 C 0.36012 0.99821 0.89618 0.0
N268 N 0.40321 0.95612 0.87884 0.0
N269 N 0.3898 0.02196 0.88736 0.0
H270 H 0.44477 1.00492 0.87083 0.0
H271 H 0.35312 0.93133 0.89794 0.0
C272 C 0.35895 0.87611 0.85995 0.0
O273 O 0.35235 0.91121 0.84982 0.0
N274 N 0.47734 0.86332 0.87571 0.0
C275 C 0.51493 0.86404 0.86645 0.0
C276 C 0.53212 0.82572 0.86829 0.0
C277 C 0.47233 0.82476 0.88345 0.0
N278 N 0.5054 0.80109 0.87896 0.0
C279 C 0.47774 0.9511 0.84066 0.0
C280 C 0.45302 0.89919 0.80707 0.0
C281 C 0.47997 0.93142 0.80203 0.0
C282 C 0.4919 0.95768 0.81916 0.0
C283 C 0.4397 0.8934 0.82904 0.0
N284 N 0.45135 0.91979 0.84556 0.0
H285 H 0.49048 0.96999 0.85353 0.0
H286 H 0.42191 0.86641 0.83273 0.0
H287 H 0.52904 0.89066 0.85896 0.0
H288 H 0.44508 0.8142 0.89197 0.0
O289 O 0.4826 0.94245 0.89018 0.0
O290 O 0.43813 0.9053 0.9092 0.0
O291 O 0.39258 0.87028 0.87046 0.0
C292 C 0.4682 0.93155 0.90939 0.0
H293 H 0.33615 0.00879 0.9072 0.0
H294 H 0.56237 0.81685 0.86265 0.0
H295 H 0.44391 0.8775 0.79439 0.0
H296 H 0.51304 0.98271 0.81611 0.0
Co297 Co 0.61681 0.44747 0.43873 0.0
C298 C 0.53352 0.43794 0.42166 0.0
C299 C 0.54795 0.38929 0.44425 0.0
C300 C 0.50675 0.38734 0.43928 0.0
N301 N 0.56499 0.42051 0.43275 0.0
N302 N 0.49776 0.41829 0.42524 0.0
H303 H 0.53619 0.46616 0.41234 0.0
H304 H 0.56386 0.37076 0.45642 0.0
C305 C 0.64228 0.36202 0.42247 0.0
O306 O 0.60462 0.35319 0.41656 0.0
N307 N 0.66798 0.47598 0.44508 0.0
C308 C 0.68054 0.49169 0.46465 0.0
C309 C 0.71723 0.51163 0.46159 0.0
C310 C 0.69786 0.48607 0.43049 0.0
N311 N 0.72801 0.50838 0.44008 0.0
C312 C 0.61244 0.512 0.40673 0.0
C313 C 0.60592 0.46283 0.36958 0.0
C314 C 0.59965 0.50525 0.36722 0.0
C315 C 0.60414 0.53001 0.38612 0.0
C316 C 0.61439 0.44611 0.39044 0.0
N317 N 0.61646 0.47047 0.40882 0.0
H318 H 0.61424 0.53135 0.42125 0.0
H319 H 0.61674 0.41338 0.3918 0.0
H320 H 0.6644 0.48938 0.48024 0.0
H321 H 0.697 0.47821 0.41306 0.0
O322 O 0.58556 0.48983 0.45372 0.0
O323 O 0.61021 0.43386 0.46981 0.0
O324 O 0.65131 0.39791 0.42972 0.0
C325 C 0.58844 0.46727 0.47148 0.0
H326 H 0.48463 0.36668 0.44667 0.0
H327 H 0.7347 0.52715 0.47433 0.0
H328 H 0.60228 0.44223 0.35563 0.0
H329 H 0.60046 0.56298 0.38515 0.0
Co330 Co 0.06151 0.61611 0.87416 0.0
C331 C 0.09013 0.53119 0.87266 0.0
C332 C 0.13137 0.56897 0.89106 0.0
C333 C 0.13928 0.52842 0.89613 0.0
N334 N 0.10005 0.57076 0.87647 0.0
N335 N 0.11255 0.50468 0.88487 0.0
H336 H 0.06396 0.52199 0.86315 0.0
H337 H 0.14398 0.59526 0.89961 0.0
C338 C 0.1424 0.65112 0.85863 0.0
O339 O 0.15085 0.61556 0.84944 0.0
N340 N 0.02221 0.6601 0.87239 0.0
C341 C 0.98458 0.6575 0.86327 0.0
C342 C 0.96562 0.69497 0.86505 0.0
C343 C 0.02551 0.6989 0.87995 0.0
N344 N 0.9913 0.72092 0.87553 0.0
C345 C 0.02508 0.57354 0.83764 0.0
C346 C 0.05416 0.62223 0.80367 0.0
C347 C 0.02865 0.58888 0.79842 0.0
C348 C 0.01383 0.56483 0.8159 0.0
C349 C 0.0648 0.62995 0.82589 0.0
N350 N 0.05151 0.60475 0.84261 0.0
H351 H 0.01084 0.55572 0.85055 0.0
H352 H 0.08244 0.65708 0.82946 0.0
H353 H 0.97154 0.63014 0.85605 0.0
H354 H 0.05231 0.71076 0.88837 0.0
O355 O 0.01998 0.58084 0.88708 0.0
O356 O 0.06193 0.62009 0.90641 0.0
O357 O 0.10756 0.65675 0.86798 0.0
C358 C 0.03319 0.59238 0.90641 0.0
H359 H 0.15974 0.51783 0.90905 0.0
H360 H 0.93487 0.70232 0.85956 0.0
H361 H 0.06559 0.64238 0.79078 0.0
H362 H 0.99236 0.54007 0.81296 0.0
Co363 Co 0.88837 0.05237 0.435 0.0
C364 C 0.97148 0.06753 0.41916 0.0
C365 C 0.95364 0.11389 0.44239 0.0
C366 C 0.99496 0.11809 0.4381 0.0
N367 N 0.93865 0.08277 0.43002 0.0
N368 N 0.00605 0.08853 0.42369 0.0
H369 H 0.97082 0.0395 0.40956 0.0
H370 H 0.93634 0.13057 0.45477 0.0
C371 C 0.85891 0.13785 0.42095 0.0
O372 O 0.89618 0.14826 0.41505 0.0
N373 N 0.83899 0.02018 0.44032 0.0
C374 C 0.82967 0.99813 0.45863 0.0
C375 C 0.79413 0.97666 0.45492 0.0
C376 C 0.80824 0.01222 0.42585 0.0
N377 N 0.78079 0.98529 0.4343 0.0
C378 C 0.89583 0.99194 0.40096 0.0
C379 C 0.90336 0.0459 0.36582 0.0
C380 C 0.9125 1.00438 0.36239 0.0
C381 C 0.90698 0.97693 0.38004 0.0
C382 C 0.89185 0.05953 0.38687 0.0
N383 N 0.8899 0.03298 0.40437 0.0
H384 H 0.89414 0.97085 0.41478 0.0
H385 H 0.88729 0.09178 0.38913 0.0
H386 H 0.84745 0.99676 0.4737 0.0
H387 H 0.8068 0.02462 0.4092 0.0
O388 O 0.92236 0.01029 0.44837 0.0
O389 O 0.89432 0.06226 0.46659 0.0
O390 O 0.8512 0.10119 0.42761 0.0
C391 C 0.91842 0.03033 0.46691 0.0
H392 H 0.01583 0.1389 0.44636 0.0
H393 H 0.77926 0.95611 0.46652 0.0
H394 H 0.90665 0.06801 0.3525 0.0
H395 H 0.91365 0.94458 0.37807 0.0
Co396 Co 0.44651 0.61083 0.14276 0.0
C397 C 0.41836 0.52542 0.14518 0.0
C398 C 0.37157 0.56479 0.13235 0.0
C399 C 0.36098 0.52461 0.12791 0.0
N400 N 0.40779 0.5654 0.14317 0.0
N401 N 0.39075 0.49996 0.13587 0.0
H402 H 0.44834 0.51508 0.15012 0.0
H403 H 0.35638 0.59163 0.12571 0.0
C404 C 0.36954 0.64907 0.16173 0.0
O405 O 0.36486 0.61679 0.17456 0.0
N406 N 0.48594 0.65481 0.14182 0.0
C407 C 0.52597 0.65077 0.14689 0.0
C408 C 0.54549 0.68722 0.14257 0.0
C409 C 0.48142 0.69377 0.13459 0.0
N410 N 0.51753 0.71415 0.13485 0.0
C411 C 0.48489 0.57016 0.17937 0.0
C412 C 0.46584 0.62655 0.21194 0.0
C413 C 0.49026 0.59261 0.21745 0.0
C414 C 0.49969 0.56432 0.20081 0.0
C415 C 0.45205 0.6316 0.19001 0.0
N416 N 0.46033 0.60274 0.17412 0.0
H417 H 0.49536 0.54927 0.16681 0.0
H418 H 0.43629 0.65963 0.1858 0.0
H419 H 0.54017 0.6229 0.15289 0.0
H420 H 0.45281 0.70647 0.12858 0.0
O421 O 0.48672 0.57451 0.12952 0.0
O422 O 0.44218 0.61184 0.11062 0.0
O423 O 0.40103 0.65189 0.14913 0.0
C424 C 0.47144 0.58468 0.1104 0.0
H425 H 0.33544 0.51465 0.1178 0.0
H426 H 0.57782 0.69349 0.14483 0.0
H427 H 0.45895 0.64982 0.2242 0.0
H428 H 0.51907 0.53804 0.20423 0.0
Co429 Co 0.89191 0.45248 0.57756 0.0
C430 C 0.9752 0.4402 0.59424 0.0
C431 C 0.95842 0.39141 0.57225 0.0
C432 C 0.99955 0.38773 0.5772 0.0
N433 N 0.94285 0.4237 0.58348 0.0
N434 N 0.00998 0.41874 0.59084 0.0
H435 H 0.97399 0.46901 0.60311 0.0
H436 H 0.94161 0.37325 0.56031 0.0
C437 C 0.86342 0.36753 0.59343 0.0
O438 O 0.9006 0.3576 0.59975 0.0
N439 N 0.84162 0.48271 0.57131 0.0
C440 C 0.83013 0.50004 0.55193 0.0
C441 C 0.7926 0.51853 0.55465 0.0
C442 C 0.81046 0.49079 0.58551 0.0
N443 N 0.78019 0.51283 0.57576 0.0
C444 C 0.89718 0.51589 0.61006 0.0
C445 C 0.90421 0.46546 0.64672 0.0
C446 C 0.91148 0.50765 0.64934 0.0
C447 C 0.90659 0.5331 0.63071 0.0
C448 C 0.89468 0.44957 0.62583 0.0
N449 N 0.89254 0.47448 0.60766 0.0
H450 H 0.89531 0.5357 0.5957 0.0
H451 H 0.8917 0.41696 0.62426 0.0
H452 H 0.84749 0.49971 0.53669 0.0
H453 H 0.80983 0.48049 0.60258 0.0
O454 O 0.92492 0.49423 0.56322 0.0
O455 O 0.89852 0.44005 0.54625 0.0
O456 O 0.85572 0.40364 0.58599 0.0
C457 C 0.92161 0.47263 0.54516 0.0
H458 H 0.02075 0.3659 0.57 0.0
H459 H 0.77612 0.5356 0.54208 0.0
H460 H 0.90807 0.44432 0.66043 0.0
H461 H 0.911 0.56595 0.63191 0.0
Co462 Co 0.07088 0.90396 0.13751 0.0
C463 C 0.09709 0.99009 0.13875 0.0
C464 C 0.14458 0.95134 0.12615 0.0
C465 C 0.15419 0.9916 0.12121 0.0
N466 N 0.10854 0.95029 0.13715 0.0
N467 N 0.12402 0.01584 0.12907 0.0
H468 H 0.06699 0.99996 0.14374 0.0
H469 H 0.1603 0.92459 0.11979 0.0
C470 C 0.14845 0.86879 0.15743 0.0
O471 O 0.15247 0.90223 0.1694 0.0
N472 N 0.03233 0.85919 0.13732 0.0
C473 C 0.99248 0.86283 0.14287 0.0
C474 C 0.97308 0.82633 0.13868 0.0
C475 C 0.03688 0.82038 0.12989 0.0
N476 N 1.0009 0.79975 0.13052 0.0
C477 C 0.03164 0.9462 0.17332 0.0
C478 C 0.05334 0.89328 0.20709 0.0
C479 C 0.02983 0.92813 0.21227 0.0
C480 C 0.01846 0.95421 0.19485 0.0
C481 C 0.06573 0.88622 0.18511 0.0
N482 N 0.05662 0.9137 0.16864 0.0
H483 H 0.01992 0.96545 0.16029 0.0
H484 H 0.08163 0.85804 0.18141 0.0
H485 H 0.97822 0.89058 0.14897 0.0
H486 H 0.06528 0.80806 0.1234 0.0
O487 O 0.02989 0.93834 0.12337 0.0
O488 O 0.07595 0.90107 0.10551 0.0
O489 O 0.11713 0.86433 0.14487 0.0
C490 C 0.04593 0.92731 0.10457 0.0
H491 H 0.17939 1.00182 0.1109 0.0
H492 H 0.94086 0.81985 0.14123 0.0
H493 H 0.06203 0.87153 0.21985 0.0
H494 H 0.99836 0.98017 0.19763 0.0
Co495 Co 0.61659 0.05988 0.57954 0.0
C496 C 0.53357 0.07177 0.59653 0.0
C497 C 0.54828 0.1178 0.57245 0.0
C498 C 0.50672 0.11916 0.57649 0.0
N499 N 0.56533 0.08833 0.58526 0.0
N500 N 0.4976 0.08997 0.59154 0.0
H501 H 0.53588 0.04388 0.60619 0.0
H502 H 0.56438 0.13493 0.55978 0.0
C503 C 0.64387 0.1461 0.59343 0.0
O504 O 0.60622 0.15619 0.59878 0.0
N505 N 0.66712 0.02989 0.57334 0.0
C506 C 0.679 0.0142 0.55363 0.0
C507 C 0.71623 0.99517 0.55611 0.0
C508 C 0.69793 0.02035 0.58752 0.0
N509 N 0.72823 0.99892 0.5774 0.0
C510 C 0.61214 0.9983 0.61311 0.0
C511 C 0.60481 0.05083 0.64887 0.0
C512 C 0.59751 0.00881 0.65218 0.0
C513 C 0.60259 0.9823 0.63404 0.0
C514 C 0.61443 0.06554 0.6277 0.0
N515 N 0.6167 0.03955 0.60999 0.0
H516 H 0.61405 0.97769 0.59911 0.0
H517 H 0.6172 0.0981 0.62549 0.0
H518 H 0.66213 0.01599 0.53826 0.0
H519 H 0.69833 0.02913 0.60483 0.0
O520 O 0.58388 0.01699 0.56605 0.0
O521 O 0.60929 0.07066 0.54812 0.0
O522 O 0.6523 0.10945 0.58711 0.0
C523 C 0.58666 0.0377 0.54765 0.0
H524 H 0.48464 0.13838 0.568 0.0
H525 H 0.73277 0.97903 0.54323 0.0
H526 H 0.60088 0.07267 0.66222 0.0
H527 H 0.59817 0.94953 0.63581 0.0
H528 H 0.53599 0.03286 0.17409 0.0
H529 H 0.43918 0.12285 0.17746 0.0
H530 H 0.51277 1.0028 0.20879 0.0
H531 H 0.41663 0.09392 0.21297 0.0
H532 H 0.36817 0.01334 0.26953 0.0
H533 H 0.3858 0.03792 0.23239 0.0
H534 H 0.5141 0.01718 0.24651 0.0
H535 H 0.49638 0.99031 0.28263 0.0
C536 C 0.50993 0.0465 0.18247 0.0
C537 C 0.48978 0.08058 0.17327 0.0
C538 C 0.49662 0.02936 0.20244 0.0
C539 C 0.46314 0.04622 0.21403 0.0
C540 C 0.4423 0.07982 0.20451 0.0
C541 C 0.45532 0.09663 0.18424 0.0
C542 C 0.40005 0.01333 0.26451 0.0
C543 C 0.43082 1.00001 0.27922 0.0
C544 C 0.41024 0.028 0.2433 0.0
C545 C 0.45145 0.0297 0.23631 0.0
C546 C 0.48199 0.01584 0.251 0.0
C547 C 0.47182 1.00094 0.27199 0.0
H548 H 0.44715 0.38508 0.84278 0.0
H549 H 0.53434 0.48463 0.84385 0.0
H550 H 0.41991 0.41052 0.80735 0.0
H551 H 0.50695 0.51024 0.80871 0.0
H552 H 0.42122 0.5652 0.75593 0.0
H553 H 0.43959 0.54058 0.79314 0.0
H554 H 0.45006 0.41717 0.7678 0.0
H555 H 0.43224 0.44184 0.73069 0.0
C556 C 0.46028 0.41247 0.83548 0.0
C557 C 0.49309 0.43266 0.84592 0.0
C558 C 0.4448 0.42697 0.81524 0.0
C559 C 0.46124 0.46244 0.80531 0.0
C560 C 0.49343 0.48307 0.81605 0.0
C561 C 0.50936 0.46818 0.83603 0.0
C562 C 0.42686 0.53276 0.75845 0.0
C563 C 0.4255 0.50544 0.74046 0.0
C564 C 0.43761 0.51872 0.77966 0.0
C565 C 0.44639 0.47697 0.78334 0.0
C566 C 0.44323 0.44943 0.76551 0.0
C567 C 0.43324 0.46357 0.74427 0.0
H568 H 0.06988 0.46813 0.15617 0.0
H569 H 0.98925 0.38324 0.18978 0.0
H570 H 0.09467 0.49283 0.19189 0.0
H571 H 0.01212 0.40953 0.22534 0.0
H572 H 0.08105 0.44013 0.28733 0.0
H573 H 0.06668 0.41184 0.25079 0.0
H574 H 0.07335 0.53364 0.22253 0.0
H575 H 0.08909 0.56162 0.25919 0.0
C576 C 0.05767 0.45441 0.17114 0.0
C577 C 0.02744 0.42364 0.16998 0.0
C578 C 0.07148 0.46906 0.19168 0.0
C579 C 0.05536 0.45344 0.21164 0.0
C580 C 0.02575 0.42207 0.21043 0.0
C581 C 0.01215 0.40729 0.18994 0.0
C582 C 0.07964 0.46081 0.27327 0.0
C583 C 0.08578 0.50316 0.27615 0.0
C584 C 0.0712 0.44463 0.25229 0.0
C585 C 0.06819 0.47041 0.23362 0.0
C586 C 0.07576 0.51269 0.23642 0.0
C587 C 0.08468 0.52884 0.25744 0.0
H588 H 0.00786 0.98787 0.73102 0.0
H589 H 0.13683 1.00294 0.74523 0.0
H590 H 0.99074 0.01606 0.76692 0.0
H591 H 0.11965 0.0287 0.78214 0.0
H592 H 0.07114 0.11648 0.8366 0.0
H593 H 0.09206 0.08652 0.8011 0.0
H594 H 0.98988 1.00223 0.8047 0.0
H595 H 0.9684 0.03334 0.83943 0.0
C596 C 0.0327 0.997 0.74186 0.0
C597 C 0.07378 0.99347 0.735 0.0
C598 C 0.02284 0.01267 0.76273 0.0
C599 C 0.05373 0.02469 0.77764 0.0
C600 C 0.09496 0.0203 0.77104 0.0
C601 C 0.10487 1.00492 0.74996 0.0
C602 C 0.05327 0.09158 0.82968 0.0
C603 C 0.01775 0.07774 0.84054 0.0
C604 C 0.06536 0.07416 0.80942 0.0
C605 C 0.04249 0.0421 0.79978 0.0
C606 C 0.00769 0.02756 0.81116 0.0
C607 C 0.99534 0.04534 0.83115 0.0
H608 H 0.56023 0.94295 0.79133 0.0
H609 H 0.44016 0.93222 0.76189 0.0
H610 H 0.58965 0.95779 0.75512 0.0
H611 H 0.46936 0.94823 0.72546 0.0
H612 H 0.53972 0.94919 0.66005 0.0
H613 H 0.51259 0.92621 0.69563 0.0
H614 H 0.5915 0.01247 0.72933 0.0
H615 H 0.62015 0.03376 0.69393 0.0
C616 C 0.54008 0.9439 0.77705 0.0
C617 C 0.49779 0.93689 0.77949 0.0
C618 C 0.55692 0.9526 0.75627 0.0
C619 C 0.5319 0.95489 0.7373 0.0
C620 C 0.4897 0.94645 0.73962 0.0
C621 C 0.47287 0.93735 0.76049 0.0
C622 C 0.55192 0.96268 0.67507 0.0
C623 C 0.58233 0.99331 0.67403 0.0
C624 C 0.53586 0.9499 0.6955 0.0
C625 C 0.54969 0.96744 0.71546 0.0
C626 C 0.5804 0.99775 0.7144 0.0
C627 C 0.59655 0.0104 0.69401 0.0
H628 H 0.54468 0.56781 0.3597 0.0
H629 H 0.62385 0.4826 0.32533 0.0
H630 H 0.52039 0.5942 0.32425 0.0
H631 H 0.59771 0.50707 0.29002 0.0
H632 H 0.56986 0.57801 0.22839 0.0
H633 H 0.59811 0.56177 0.26473 0.0
H634 H 0.47778 0.5763 0.29383 0.0
H635 H 0.45001 0.59409 0.25736 0.0
C636 C 0.55722 0.55487 0.34462 0.0
C637 C 0.58635 0.52298 0.3455 0.0
C638 C 0.54275 0.56963 0.32423 0.0
C639 C 0.55686 0.5528 0.30413 0.0
C640 C 0.58644 0.52133 0.30505 0.0
C641 C 0.60109 0.5068 0.3254 0.0
C642 C 0.54956 0.57805 0.24262 0.0
C643 C 0.50767 0.58696 0.24003 0.0
C644 C 0.56567 0.56846 0.26346 0.0
C645 C 0.54022 0.56698 0.2823 0.0
C646 C 0.49849 0.57743 0.27981 0.0
C647 C 0.48246 0.58754 0.25891 0.0
H648 H 0.0197 0.51349 0.77923 0.0
H649 H 0.00764 0.64292 0.76499 0.0
H650 H 0.99023 0.49714 0.74326 0.0
H651 H 0.97895 0.62625 0.7285 0.0
H652 H 0.96835 0.56869 0.65642 0.0
H653 H 0.99768 0.59101 0.69169 0.0
H654 H 0.91977 0.50552 0.72649 0.0
H655 H 0.8895 0.48398 0.69146 0.0
C656 C 0.01082 0.53853 0.76842 0.0
C657 C 0.01551 0.57957 0.77523 0.0
C658 C 0.9939 0.5291 0.74778 0.0
C659 C 0.98162 0.56038 0.7332 0.0
C660 C 0.9881 0.60148 0.73942 0.0
C661 C 1.00474 0.611 0.76028 0.0
C662 C 0.95673 0.55524 0.67159 0.0
C663 C 0.92665 0.5242 0.67096 0.0
C664 C 0.97376 0.56796 0.69181 0.0
C665 C 0.96143 0.54965 0.71183 0.0
C666 C 0.93049 0.51964 0.71129 0.0
C667 C 0.91319 0.50724 0.69116 0.0
H668 H 1.00448 0.87395 0.24475 0.0
H669 H 0.02325 1.00314 0.23218 0.0
H670 H 0.97854 0.8902 0.28174 0.0
H671 H 0.99494 0.01945 0.2682 0.0
H672 H 0.97691 0.03891 0.34089 0.0
H673 H 0.00816 0.01808 0.30608 0.0
H674 H 0.92106 0.91857 0.30069 0.0
H675 H 0.8909 0.93877 0.33626 0.0
C676 C 1.00329 0.90577 0.24986 0.0
C677 C 0.01584 0.9372 0.23534 0.0
C678 C 0.98781 0.91516 0.27099 0.0
C679 C 0.98442 0.9562 0.27808 0.0
C680 C 0.99754 0.98744 0.26361 0.0
C681 C 0.01329 0.97808 0.24269 0.0
C682 C 0.96436 0.01267 0.33221 0.0
C683 C 0.9311 0.99082 0.34112 0.0
C684 C 0.9822 1.00072 0.31218 0.0
C685 C 0.9669 0.96689 0.30027 0.0
C686 C 0.934 0.94451 0.30943 0.0
C687 C 0.91649 0.95619 0.32973 0.0
H688 H 0.63731 0.23073 0.08507 0.0
H689 H 0.72428 0.14099 0.10903 0.0
H690 H 0.69148 0.28257 0.08468 0.0
H691 H 0.77799 0.19274 0.10891 0.0
H692 H 0.87364 0.28453 0.0822 0.0
H693 H 0.8195 0.23265 0.08319 0.0
H694 H 0.73497 0.32253 0.10928 0.0
H695 H 0.78859 0.37429 0.10802 0.0
C696 C 0.66783 0.22208 0.09041 0.0
C697 C 0.67626 0.18157 0.09707 0.0
C698 C 0.69893 0.25186 0.09026 0.0
C699 C 0.7393 0.24187 0.09667 0.0
C700 C 0.74752 0.20146 0.10353 0.0
C701 C 0.71649 0.1718 0.10377 0.0
C702 C 0.84356 0.29318 0.08823 0.0
C703 C 0.83564 0.33371 0.09501 0.0
C704 C 0.81249 0.26338 0.08888 0.0
C705 C 0.77268 0.27337 0.09624 0.0
C706 C 0.76498 0.3138 0.10319 0.0
C707 C 0.79598 0.34347 0.10263 0.0
H708 H 0.20118 0.84253 0.62666 0.0
H709 H 0.15722 0.80339 0.69083 0.0
H710 H 0.25379 0.78888 0.6277 0.0
H711 H 0.21055 0.7504 0.69205 0.0
H712 H 0.34522 0.69601 0.69349 0.0
H713 H 0.29158 0.74871 0.69298 0.0
H714 H 0.2535 0.70792 0.62814 0.0
H715 H 0.30643 0.65457 0.62881 0.0
C716 C 0.20288 0.82268 0.64105 0.0
C717 C 0.17489 0.8273 0.65866 0.0
C718 C 0.2329 0.79181 0.64158 0.0
C719 C 0.23631 0.76535 0.65994 0.0
C720 C 0.20881 0.77039 0.67771 0.0
C721 C 0.17818 0.80067 0.67697 0.0
C722 C 0.32531 0.69814 0.67916 0.0
C723 C 0.33017 0.67099 0.6612 0.0
C724 C 0.2945 0.72825 0.67891 0.0
C725 C 0.26838 0.73259 0.66049 0.0
C726 C 0.27331 0.70555 0.6425 0.0
C727 C 0.3035 0.67484 0.64296 0.0
H728 H 0.79351 0.15078 0.90411 0.0
H729 H 0.8808 0.23411 0.93368 0.0
H730 H 0.74193 0.20441 0.90407 0.0
H731 H 0.82842 0.28806 0.93396 0.0
H732 H 0.73382 0.38509 0.91162 0.0
H733 H 0.78736 0.33291 0.91013 0.0
H734 H 0.69956 0.24094 0.93025 0.0
H735 H 0.64584 0.29296 0.9314 0.0
C736 C 0.80183 0.1806 0.91061 0.0
C737 C 0.84145 0.18793 0.91901 0.0
C738 C 0.77198 0.21137 0.91073 0.0
C739 C 0.7807 0.25053 0.91924 0.0
C740 C 0.82064 0.25832 0.92716 0.0
C741 C 0.85067 0.22736 0.92706 0.0
C742 C 0.7258 0.3537 0.91562 0.0
C743 C 0.68532 0.3433 0.92155 0.0
C744 C 0.75668 0.3238 0.91493 0.0
C745 C 0.74793 0.28263 0.92007 0.0
C746 C 0.70739 0.27221 0.92589 0.0
C747 C 0.67653 0.30212 0.92664 0.0
H748 H 0.15646 0.70355 0.32329 0.0
H749 H 0.20276 0.65877 0.38589 0.0
H750 H 0.20881 0.75748 0.32323 0.0
H751 H 0.25438 0.71339 0.38604 0.0
H752 H 0.30398 0.84912 0.38828 0.0
H753 H 0.25199 0.79484 0.3878 0.0
H754 H 0.29018 0.76013 0.32193 0.0
H755 H 0.34291 0.81368 0.32257 0.0
C756 C 0.17775 0.70521 0.33704 0.0
C757 C 0.1754 0.67674 0.35457 0.0
C758 C 0.2078 0.73605 0.33697 0.0
C759 C 0.23563 0.7398 0.35467 0.0
C760 C 0.2332 0.71147 0.37224 0.0
C761 C 0.20377 0.68004 0.37208 0.0
C762 C 0.30123 0.83001 0.37366 0.0
C763 C 0.32769 0.83577 0.35547 0.0
C764 C 0.2716 0.79878 0.37345 0.0
C765 C 0.26703 0.77315 0.35484 0.0
C766 C 0.29286 0.77946 0.33647 0.0
C767 C 0.32313 0.81006 0.33688 0.0
H768 H 0.13292 0.73217 0.87047 0.0
H769 H 0.22284 0.64621 0.84581 0.0
H770 H 0.18489 0.78631 0.87051 0.0
H771 H 0.27457 0.70024 0.84584 0.0
H772 H 0.36623 0.79572 0.87315 0.0
H773 H 0.31385 0.74215 0.87258 0.0
H774 H 0.22718 0.82795 0.84462 0.0
H775 H 0.27951 0.88157 0.84521 0.0
C776 C 0.16368 0.72479 0.86499 0.0
C777 C 0.17355 0.68469 0.85813 0.0
C778 C 0.19348 0.75593 0.86492 0.0
C779 C 0.23406 0.74772 0.85823 0.0
C780 C 0.24383 0.70764 0.85134 0.0
C781 C 0.21399 0.67666 0.85118 0.0
C782 C 0.33605 0.80321 0.86683 0.0
C783 C 0.32725 0.84308 0.85919 0.0
C784 C 0.30601 0.77238 0.86641 0.0
C785 C 0.26617 0.78062 0.85855 0.0
C786 C 0.25735 0.82053 0.85098 0.0
C787 C 0.28752 0.85125 0.85118 0.0
H788 H 0.86601 0.21735 0.40714 0.0
H789 H 0.77732 0.13075 0.43251 0.0
H790 H 0.81407 0.27074 0.40681 0.0
H791 H 0.72515 0.1848 0.4325 0.0
H792 H 0.63289 0.2823 0.40905 0.0
H793 H 0.68418 0.228 0.40807 0.0
H794 H 0.77542 0.31288 0.43229 0.0
H795 H 0.72419 0.36753 0.43293 0.0
C796 C 0.83538 0.20957 0.41265 0.0
C797 C 0.826 0.16956 0.4199 0.0
C798 C 0.80558 0.24045 0.41261 0.0
C799 C 0.7654 0.23235 0.41979 0.0
C800 C 0.7557 0.19214 0.42669 0.0
C801 C 0.78565 0.16113 0.42678 0.0
C802 C 0.66393 0.28957 0.41406 0.0
C803 C 0.67432 0.32949 0.42102 0.0
C804 C 0.69332 0.25821 0.41367 0.0
C805 C 0.73401 0.26585 0.42016 0.0
C806 C 0.74451 0.30589 0.42692 0.0
C807 C 0.71507 0.33728 0.42737 0.0
H808 H 0.20441 0.85454 0.19051 0.0
H809 H 0.165 0.809 0.12676 0.0
H810 H 0.25772 0.80156 0.1919 0.0
H811 H 0.21902 0.75674 0.12796 0.0
H812 H 0.3542 0.70575 0.12917 0.0
H813 H 0.30033 0.75816 0.12828 0.0
H814 H 0.25969 0.7202 0.19322 0.0
H815 H 0.31288 0.66703 0.19393 0.0
C816 C 0.20713 0.8333 0.17678 0.0
C817 C 0.18034 0.83604 0.15853 0.0
C818 C 0.2376 0.80287 0.17763 0.0
C819 C 0.24268 0.77505 0.16001 0.0
C820 C 0.21604 0.7779 0.14172 0.0
C821 C 0.18497 0.8077 0.1411 0.0
C822 C 0.33386 0.70861 0.14329 0.0
C823 C 0.3379 0.68211 0.16162 0.0
C824 C 0.30286 0.73849 0.14272 0.0
C825 C 0.2757 0.74328 0.16066 0.0
C826 C 0.28023 0.71736 0.17917 0.0
C827 C 0.31063 0.68684 0.17954 0.0
H828 H 0.6358 0.22653 0.60572 0.0
H829 H 0.72602 0.13847 0.58361 0.0
H830 H 0.68803 0.27978 0.60644 0.0
H831 H 0.77832 0.19215 0.58398 0.0
H832 H 0.86999 0.2883 0.60807 0.0
H833 H 0.81758 0.23525 0.60876 0.0
H834 H 0.72971 0.32102 0.58179 0.0
H835 H 0.78218 0.37457 0.58144 0.0
C836 C 0.66681 0.21841 0.60102 0.0
C837 C 0.67657 0.178 0.59462 0.0
C838 C 0.69677 0.24918 0.60127 0.0
C839 C 0.73748 0.2405 0.59517 0.0
C840 C 0.74741 0.19996 0.58901 0.0
C841 C 0.71735 0.16913 0.58871 0.0
C842 C 0.83947 0.29607 0.60237 0.0
C843 C 0.83045 0.3359 0.5947 0.0
C844 C 0.80941 0.2654 0.60261 0.0
C845 C 0.76934 0.27359 0.59521 0.0
C846 C 0.7601 0.31361 0.58782 0.0
C847 C 0.79026 0.34435 0.58754 0.0
H848 H 0.58296 0.73991 0.11159 0.0
H849 H 0.47101 0.78147 0.14219 0.0
H850 H 0.59998 0.81006 0.10135 0.0
H851 H 0.48868 0.85247 0.13303 0.0
H852 H 0.51563 0.97198 0.09603 0.0
H853 H 0.49584 0.90189 0.10517 0.0
H854 H 0.62334 0.87132 0.11624 0.0
H855 H 0.64282 0.94107 0.10601 0.0
C856 C 0.56214 0.76433 0.11624 0.0
C857 C 0.52581 0.75545 0.12775 0.0
C858 C 0.57199 0.80465 0.11056 0.0
C859 C 0.54611 0.83734 0.11663 0.0
C860 C 0.50923 0.82822 0.12783 0.0
C861 C 0.49904 0.78762 0.13315 0.0
C862 C 0.53929 0.95024 0.10059 0.0
C863 C 0.58078 0.96184 0.10034 0.0
C864 C 0.52799 0.91002 0.1059 0.0
C865 C 0.5579 0.88056 0.11139 0.0
C866 C 0.5994 0.89267 0.11158 0.0
C867 C 0.61069 0.93269 0.10589 0.0
H868 H 0.7084 0.52819 0.55481 0.0
H869 H 0.76692 0.53282 0.61899 0.0
H870 H 0.64636 0.55735 0.57059 0.0
H871 H 0.70454 0.5624 0.6349 0.0
H872 H 0.56792 0.56991 0.65765 0.0
H873 H 0.63404 0.54563 0.64399 0.0
H874 H 0.61984 0.62067 0.58539 0.0
H875 H 0.55314 0.64361 0.59865 0.0
C876 C 0.70818 0.53579 0.57228 0.0
C877 C 0.74284 0.52836 0.58558 0.0
C878 C 0.67256 0.5527 0.58134 0.0
C879 C 0.6705 0.56282 0.60399 0.0
C880 C 0.70493 0.5548 0.61742 0.0
C881 C 0.74067 0.53773 0.60832 0.0
C882 C 0.57912 0.58148 0.64194 0.0
C883 C 0.55498 0.60847 0.6292 0.0
C884 C 0.61719 0.56777 0.63416 0.0
C885 C 0.63213 0.58073 0.61343 0.0
C886 C 0.60895 0.60941 0.60123 0.0
C887 C 0.57089 0.62311 0.60901 0.0
H888 H 0.99761 0.5417 0.09213 0.0
H889 H 0.87151 0.5753 0.1036 0.0
H890 H 0.0192 0.61149 0.10069 0.0
H891 H 0.89284 0.6448 0.11317 0.0
H892 H 0.93531 0.77506 0.10719 0.0
H893 H 0.91707 0.70513 0.0972 0.0
H894 H 0.02812 0.66115 0.1285 0.0
H895 H 0.04698 0.73197 0.13748 0.0
C896 C 0.97459 0.56395 0.0969 0.0
C897 C 0.93286 0.5532 0.09725 0.0
C898 C 0.98693 0.604 0.10185 0.0
C899 C 0.95784 0.63411 0.10754 0.0
C900 C 0.91612 0.62287 0.10833 0.0
C901 C 0.90379 0.58301 0.10302 0.0
C902 C 0.95584 0.75035 0.11178 0.0
C903 C 0.99238 0.75869 0.12319 0.0
C904 C 0.94529 0.71018 0.10625 0.0
C905 C 0.97067 0.67714 0.11236 0.0
C906 C 0.00791 0.68571 0.12333 0.0
C907 C 0.0188 0.72618 0.12852 0.0
H908 H 0.74103 0.97505 0.62016 0.0
H909 H 0.79987 0.98444 0.55619 0.0
H910 H 0.8027 0.94222 0.6352 0.0
H911 H 0.86087 0.9518 0.57103 0.0
H912 H 0.95075 0.85963 0.59589 0.0
H913 H 0.88384 0.88494 0.58414 0.0
H914 H 0.87489 0.957 0.64405 0.0
H915 H 0.94136 0.93057 0.65609 0.0
C916 C 0.76715 0.97046 0.60937 0.0
C917 C 0.76527 0.98203 0.5869 0.0
C918 C 0.80242 0.9515 0.61794 0.0
C919 C 0.8365 0.94367 0.60422 0.0
C920 C 0.83482 0.95619 0.58193 0.0
C921 C 0.79979 0.97509 0.57341 0.0
C922 C 0.93406 0.87991 0.60685 0.0
C923 C 0.95157 0.8933 0.62687 0.0
C924 C 0.8959 0.89493 0.59998 0.0
C925 C 0.87429 0.92361 0.61296 0.0
C926 C 0.89062 0.93496 0.63363 0.0
C927 C 0.92882 0.92 0.64048 0.0
H928 H 0.59404 0.59052 0.94892 0.0
H929 H 0.55701 0.53892 0.88613 0.0
H930 H 0.56827 0.65759 0.9373 0.0
H931 H 0.53098 0.60609 0.8745 0.0
H932 H 0.54518 0.7445 0.85453 0.0
H933 H 0.56351 0.67482 0.86569 0.0
H934 H 0.50016 0.69223 0.92788 0.0
H935 H 0.48184 0.76228 0.9166 0.0
C936 C 0.58062 0.59359 0.93259 0.0
C937 C 0.57785 0.55957 0.91834 0.0
C938 C 0.56537 0.63184 0.92605 0.0
C939 C 0.54749 0.63702 0.90503 0.0
C940 C 0.54473 0.60302 0.89077 0.0
C941 C 0.55949 0.56462 0.89743 0.0
C942 C 0.53495 0.7333 0.87051 0.0
C943 C 0.51233 0.7588 0.88478 0.0
C944 C 0.54518 0.69335 0.87683 0.0
C945 C 0.53345 0.67818 0.89769 0.0
C946 C 0.50989 0.7033 0.91177 0.0
C947 C 0.49911 0.74316 0.90528 0.0
H948 H 0.76705 0.48156 0.40303 0.0
H949 H 0.77013 0.57589 0.45328 0.0
H950 H 0.82903 0.51002 0.3864 0.0
H951 H 0.8328 0.60343 0.43714 0.0
H952 H 0.93028 0.66154 0.39201 0.0
H953 H 0.86249 0.63856 0.40465 0.0
H954 H 0.90088 0.51245 0.39733 0.0
H955 H 0.96768 0.53499 0.38511 0.0
C956 C 0.78072 0.50849 0.41045 0.0
C957 C 0.76375 0.5261 0.42964 0.0
C958 C 0.81646 0.52464 0.40103 0.0
C959 C 0.83605 0.55888 0.41052 0.0
C960 C 0.81838 0.57725 0.4293 0.0
C961 C 0.78272 0.56105 0.43875 0.0
C962 C 0.92396 0.62898 0.39297 0.0
C963 C 0.95427 0.6003 0.38708 0.0
C964 C 0.88526 0.61578 0.40024 0.0
C965 C 0.87612 0.57362 0.40176 0.0
C966 C 0.90641 0.5451 0.3958 0.0
C967 C 0.94489 0.55819 0.38865 0.0
H968 H 0.93961 0.98226 0.88096 0.0
H969 H 0.907 0.93476 0.94544 0.0
H970 H 0.96119 0.91359 0.86939 0.0
H971 H 0.92834 0.8661 0.93388 0.0
H972 H 0.01537 0.76128 0.91251 0.0
H973 H 0.99588 0.83108 0.92344 0.0
H974 H 0.92746 0.8446 0.86255 0.0
H975 H 0.94707 0.77513 0.85167 0.0
C976 C 0.93688 0.95705 0.89258 0.0
C977 C 0.92144 0.96374 0.91403 0.0
C978 C 0.9491 0.91782 0.88597 0.0
C979 C 0.94663 0.88463 0.9008 0.0
C980 C 0.93095 0.89125 0.9222 0.0
C981 C 0.91823 0.93039 0.92872 0.0
C982 C 0.99661 0.77944 0.9014 0.0
C983 C 0.98258 0.76284 0.88131 0.0
C984 C 0.98514 0.81913 0.90772 0.0
C985 C 0.95997 0.84309 0.89388 0.0
C986 C 0.94699 0.82687 0.8735 0.0
C987 C 0.95797 0.78708 0.86734 0.0
H988 H 0.55039 0.8631 0.41798 0.0
H989 H 0.56463 0.92491 0.35518 0.0
H990 H 0.61873 0.88497 0.42893 0.0
H991 H 0.63379 0.94612 0.36577 0.0
H992 H 0.7291 0.0222 0.40529 0.0
H993 H 0.66555 0.99378 0.39021 0.0
H994 H 0.69009 0.87899 0.42372 0.0
H995 H 0.75257 0.90802 0.43918 0.0
C996 C 0.56868 0.88031 0.40623 0.0
C997 C 0.55218 0.89222 0.3857 0.0
C998 C 0.60796 0.89301 0.4125 0.0
C999 C 0.63192 0.91765 0.39831 0.0
C1000 C 0.61603 0.92791 0.37733 0.0
C1001 C 0.57658 0.91548 0.37115 0.0
C1002 C 0.72098 0.9908 0.40917 0.0
C1003 C 0.74543 0.96755 0.42365 0.0
C1004 C 0.68465 0.97435 0.40049 0.0
C1005 C 0.67229 0.93409 0.4059 0.0
C1006 C 0.69792 0.91038 0.41961 0.0
C1007 C 0.73384 0.92697 0.42845 0.0
H1008 H 0.50236 0.21213 0.96222 0.0
H1009 H 0.47947 0.27483 0.90033 0.0
H1010 H 0.46905 0.15099 0.94792 0.0
H1011 H 0.44587 0.2132 0.88587 0.0
H1012 H 0.43145 0.07683 0.86235 0.0
H1013 H 0.46005 0.14228 0.8746 0.0
H1014 H 0.40095 0.12695 0.9382 0.0
H1015 H 0.37354 0.06109 0.92617 0.0
C1016 C 0.48995 0.21298 0.94558 0.0
C1017 C 0.4933 0.24861 0.93251 0.0
C1018 C 0.47067 0.17789 0.93739 0.0
C1019 C 0.45413 0.17731 0.91587 0.0
C1020 C 0.45836 0.21255 0.90252 0.0
C1021 C 0.47774 0.24783 0.91075 0.0
C1022 C 0.42423 0.08774 0.87886 0.0
C1023 C 0.40038 0.06359 0.8933 0.0
C1024 C 0.44043 0.12535 0.88584 0.0
C1025 C 0.43327 0.13967 0.90749 0.0
C1026 C 0.40769 0.11649 0.92154 0.0
C1027 C 0.39142 0.07895 0.91453 0.0
H1028 H 0.26333 0.4396 0.36041 0.0
H1029 H 0.26174 0.538 0.40836 0.0
H1030 H 0.33265 0.42169 0.37158 0.0
H1031 H 0.33181 0.52025 0.41942 0.0
H1032 H 0.47196 0.49615 0.41733 0.0
H1033 H 0.404 0.51773 0.40505 0.0
H1034 H 0.36408 0.39138 0.40534 0.0
H1035 H 0.43239 0.36972 0.41718 0.0
C1036 C 0.27774 0.45739 0.3734 0.0
C1037 C 0.2567 0.48984 0.38375 0.0
C1038 C 0.31751 0.4471 0.37978 0.0
C1039 C 0.33743 0.46915 0.39659 0.0
C1040 C 0.3172 0.50275 0.40635 0.0
C1041 C 0.27715 0.51299 0.4 0.0
C1042 C 0.44885 0.47292 0.41453 0.0
C1043 C 0.45763 0.43111 0.41804 0.0
C1044 C 0.40979 0.48537 0.40775 0.0
C1045 C 0.37877 0.45626 0.40417 0.0
C1046 C 0.38752 0.41449 0.40773 0.0
C1047 C 0.42647 0.40209 0.41467 0.0
H1048 H 0.06817 0.28388 0.95765 0.0
H1049 H 0.00929 0.25808 0.89491 0.0
H1050 H 0.09293 0.34869 0.9431 0.0
H1051 H 0.03339 0.32392 0.88061 0.0
H1052 H 0.03848 0.46706 0.87868 0.0
H1053 H 0.01934 0.39829 0.88926 0.0
H1054 H 0.14159 0.3765 0.91397 0.0
H1055 H 0.16171 0.44581 0.90272 0.0
C1056 C 0.06077 0.29163 0.94068 0.0
C1057 C 0.0368 0.26525 0.92747 0.0
C1058 C 0.07509 0.32894 0.93235 0.0
C1059 C 0.06544 0.34122 0.91067 0.0
C1060 C 0.04121 0.31525 0.89744 0.0
C1061 C 0.02719 0.2776 0.9057 0.0
C1062 C 0.062 0.44769 0.88573 0.0
C1063 C 0.10206 0.46239 0.88962 0.0
C1064 C 0.05072 0.40802 0.89191 0.0
C1065 C 0.0789 0.38199 0.90241 0.0
C1066 C 0.1191 0.3961 0.90603 0.0
C1067 C 0.13061 0.4358 0.89961 0.0
H1068 H 0.22857 0.96856 0.37673 0.0
H1069 H 0.26948 0.07744 0.41064 0.0
H1070 H 0.15735 0.98623 0.38524 0.0
H1071 H 0.199 0.0944 0.42017 0.0
H1072 H 0.03642 0.01154 0.42092 0.0
H1073 H 0.10682 0.99172 0.41271 0.0
H1074 H 0.13888 0.11966 0.40447 0.0
H1075 H 0.06865 0.13913 0.4137 0.0
C1076 C 0.22221 0.99586 0.38636 0.0
C1077 C 0.25427 0.02183 0.39289 0.0
C1078 C 0.18149 0.00605 0.3913 0.0
C1079 C 0.17215 0.04211 0.40321 0.0
C1080 C 0.20468 0.06711 0.41042 0.0
C1081 C 0.24515 0.05727 0.40514 0.0
C1082 C 0.05854 0.03531 0.41716 0.0
C1083 C 0.0472 0.07689 0.41786 0.0
C1084 C 0.09894 0.02399 0.4124 0.0
C1085 C 0.12884 0.054 0.40795 0.0
C1086 C 0.11708 0.09563 0.4083 0.0
C1087 C 0.07682 0.10692 0.41342 0.0
H1088 H 0.41964 0.26182 0.07216 0.0
H1089 H 0.52971 0.28023 0.11049 0.0
H1090 H 0.39027 0.32417 0.08761 0.0
H1091 H 0.50099 0.34369 0.1256 0.0
H1092 H 0.4286 0.44263 0.16089 0.0
H1093 H 0.4514 0.3746 0.14905 0.0
H1094 H 0.39722 0.3957 0.08458 0.0
H1095 H 0.37363 0.46282 0.09677 0.0
C1096 C 0.43768 0.27945 0.08382 0.0
C1097 C 0.47718 0.26636 0.08993 0.0
C1098 C 0.42089 0.31533 0.09267 0.0
C1099 C 0.4433 0.33948 0.10772 0.0
C1100 C 0.48251 0.32576 0.11428 0.0
C1101 C 0.49913 0.28947 0.10558 0.0
C1102 C 0.42106 0.43224 0.14433 0.0
C1103 C 0.39905 0.45791 0.12985 0.0
C1104 C 0.43444 0.39345 0.13744 0.0
C1105 C 0.42648 0.3795 0.11577 0.0
C1106 C 0.40341 0.40487 0.10151 0.0
C1107 C 0.38971 0.44346 0.1085 0.0
H1108 H 0.27226 0.42655 0.61067 0.0
H1109 H 0.23054 0.53951 0.64014 0.0
H1110 H 0.20244 0.40998 0.59973 0.0
H1111 H 0.15982 0.5223 0.63028 0.0
H1112 H 0.04126 0.49549 0.59261 0.0
H1113 H 0.11125 0.51496 0.60208 0.0
H1114 H 0.14056 0.38733 0.61408 0.0
H1115 H 0.07097 0.36818 0.60351 0.0
C1116 C 0.24787 0.44769 0.61492 0.0
C1117 C 0.25661 0.48417 0.62632 0.0
C1118 C 0.20773 0.4381 0.60883 0.0
C1119 C 0.17505 0.46439 0.61438 0.0
C1120 C 0.18406 0.50142 0.62547 0.0
C1121 C 0.2245 0.51136 0.63119 0.0
C1122 C 0.06272 0.47174 0.59743 0.0
C1123 C 0.05081 0.43031 0.59737 0.0
C1124 C 0.10287 0.48285 0.60293 0.0
C1125 C 0.13194 0.45281 0.60881 0.0
C1126 C 0.11954 0.41136 0.60913 0.0
C1127 C 0.07959 0.40026 0.60324 0.0
H1128 H 0.09041 0.25333 0.06489 0.0
H1129 H 0.98257 0.23482 0.10506 0.0
H1130 H 0.12059 0.19089 0.07982 0.0
H1131 H 0.01207 0.1713 0.11965 0.0
H1132 H 0.08651 0.07306 0.15423 0.0
H1133 H 0.06268 0.14074 0.14239 0.0
H1134 H 0.11431 0.11933 0.07734 0.0
H1135 H 0.13906 0.05255 0.08957 0.0
C1136 C 0.073 0.23564 0.07682 0.0
C1137 C 0.03392 0.24881 0.08365 0.0
C1138 C 0.09027 0.19969 0.08537 0.0
C1139 C 0.06876 0.17554 0.10084 0.0
C1140 C 0.02991 0.18923 0.10801 0.0
C1141 C 0.01283 0.22558 0.09961 0.0
C1142 C 0.09326 0.08331 0.13753 0.0
C1143 C 0.11494 0.05768 0.1229 0.0
C1144 C 0.07927 0.1219 0.13063 0.0
C1145 C 0.0862 0.13567 0.10881 0.0
C1146 C 0.1089 0.11031 0.09438 0.0
C1147 C 0.12325 0.07192 0.10138 0.0
H1148 H 0.42893 0.0891 0.56624 0.0
H1149 H 0.47587 0.05711 0.63092 0.0
H1150 H 0.36147 0.06277 0.57674 0.0
H1151 H 0.40838 0.03055 0.64142 0.0
H1152 H 0.26852 0.04484 0.65773 0.0
H1153 H 0.33875 0.0631 0.6478 0.0
H1154 H 0.32718 0.99429 0.58693 0.0
H1155 H 0.2565 0.97591 0.59706 0.0
C1156 C 0.42472 0.07673 0.58275 0.0
C1157 C 0.45752 0.07554 0.59787 0.0
C1158 C 0.3863 0.06112 0.58864 0.0
C1159 C 0.37976 0.04447 0.60986 0.0
C1160 C 0.41254 0.04332 0.62498 0.0
C1161 C 0.4511 0.05843 0.61898 0.0
C1162 C 0.28119 0.03331 0.64234 0.0
C1163 C 0.25717 0.00918 0.62808 0.0
C1164 C 0.3214 0.04354 0.63672 0.0
C1165 C 0.33833 0.0303 0.61655 0.0
C1166 C 0.31472 1.00516 0.60251 0.0
C1167 C 0.27455 0.99436 0.60835 0.0
H1168 H 0.51446 1.00072 0.91278 0.0
H1169 H 0.45068 0.91079 0.95247 0.0
H1170 H 0.53066 0.0397 0.94597 0.0
H1171 H 0.46842 0.9489 0.98602 0.0
H1172 H 0.46885 0.04887 0.03909 0.0
H1173 H 0.45271 0.0096 1.00578 0.0
H1174 H 0.57084 0.04156 0.97818 0.0
H1175 H 0.58606 0.08204 0.01107 0.0
C1176 C 0.50464 0.98877 0.92869 0.0
C1177 C 0.48153 0.95246 0.93 0.0
C1178 C 0.51402 0.01115 0.9478 0.0
C1179 C 0.50096 0.99761 0.96883 0.0
C1180 C 0.47846 0.96076 0.97014 0.0
C1181 C 0.46865 0.93859 0.95093 0.0
C1182 C 0.4912 0.04771 0.02581 0.0
C1183 C 0.52862 0.0688 0.02766 0.0
C1184 C 0.48214 0.02483 1.00677 0.0
C1185 C 0.51047 0.02211 0.98918 0.0
C1186 C 0.5479 0.04335 0.99113 0.0
C1187 C 0.55675 0.06653 0.01006 0.0
H1188 H 0.49749 0.4912 0.60711 0.0
H1189 H 0.4087 0.55589 0.5671 0.0
H1190 H 0.53732 0.47553 0.57407 0.0
H1191 H 0.44767 0.53883 0.53376 0.0
H1192 H 0.54789 0.5385 0.48116 0.0
H1193 H 0.50915 0.55482 0.51462 0.0
H1194 H 0.53882 0.43544 0.54156 0.0
H1195 H 0.57875 0.41993 0.50847 0.0
C1196 C 0.48606 0.50143 0.59117 0.0
C1197 C 0.44979 0.52457 0.5897 0.0
C1198 C 0.5089 0.49236 0.57216 0.0
C1199 C 0.49585 0.50584 0.55112 0.0
C1200 C 0.45913 0.5285 0.54967 0.0
C1201 C 0.43651 0.53795 0.56875 0.0
C1202 C 0.54637 0.51591 0.49433 0.0
C1203 C 0.56653 0.478 0.49221 0.0
C1204 C 0.52381 0.52508 0.51345 0.0
C1205 C 0.52053 0.49641 0.53086 0.0
C1206 C 0.54105 0.45859 0.52872 0.0
C1207 C 0.56389 0.44958 0.50968 0.0
H1208 H 0.03876 0.47025 0.03481 0.0
H1209 H 0.92173 0.43472 1.0075 0.0
H1210 H 0.05263 0.51144 1.00184 0.0
H1211 H 0.93473 0.47699 0.97492 0.0
H1212 H 0.98873 0.52188 0.90941 0.0
H1213 H 0.9741 0.48138 0.94233 0.0
H1214 H 0.03432 0.57256 0.98291 0.0
H1215 H 0.05037 0.61236 0.94964 0.0
C1216 C 0.01597 0.47126 0.02176 0.0
C1217 C 0.97927 0.44896 0.02373 0.0
C1218 C 0.02372 0.49525 1.00291 0.0
C1219 C 0.99479 0.49786 0.9856 0.0
C1220 C 0.95809 0.47537 0.98765 0.0
C1221 C 0.95053 0.45115 1.00641 0.0
C1222 C 0.9984 0.53361 0.92539 0.0
C1223 C 0.02048 0.57055 0.9269 0.0
C1224 C 0.98993 0.51033 0.94435 0.0
C1225 C 1.00297 0.52348 0.96544 0.0
C1226 C 0.02434 0.56098 0.96697 0.0
C1227 C 0.03318 0.58411 0.94792 0.0
H1228 H 0.98777 0.984 0.46903 0.0
H1229 H 0.90227 0.0508 0.51 0.0
H1230 H 0.02935 0.96859 0.5015 0.0
H1231 H 0.94244 0.03355 0.54282 0.0
H1232 H 0.04159 0.03157 0.59511 0.0
H1233 H 1.00253 0.04813 0.56184 0.0
H1234 H 0.03536 0.93047 0.53378 0.0
H1235 H 0.07617 0.91522 0.56658 0.0
C1236 C 0.97748 0.99476 0.4851 0.0
C1237 C 0.94175 0.01856 0.48699 0.0
C1238 C 1.00127 0.98579 0.50381 0.0
C1239 C 0.98958 0.99982 0.52499 0.0
C1240 C 0.95317 0.02295 0.52683 0.0
C1241 C 0.9298 0.03255 0.50803 0.0
C1242 C 0.04085 0.00955 0.58166 0.0
C1243 C 0.06223 0.97227 0.58337 0.0
C1244 C 0.018 0.01877 0.56264 0.0
C1245 C 0.01526 0.99058 0.54499 0.0
C1246 C 0.03712 0.95338 0.54673 0.0
C1247 C 0.06056 0.94451 0.5656 0.0
H1248 H 0.47365 0.46728 0.98055 0.0
H1249 H 0.59242 0.43882 0.00821 0.0
H1250 H 0.45594 0.50517 0.01412 0.0
H1251 H 0.5755 0.47785 0.04137 0.0
H1252 H 0.51799 0.51563 0.10696 0.0
H1253 H 0.53471 0.47704 0.07366 0.0
H1254 H 0.47019 0.56665 0.03387 0.0
H1255 H 0.45211 0.60442 0.06747 0.0
C1256 C 0.49599 0.46916 0.9938 0.0
C1257 C 0.53434 0.44987 0.99178 0.0
C1258 C 0.486 0.49122 0.01299 0.0
C1259 C 0.51428 0.4948 0.03054 0.0
C1260 C 0.55262 0.47529 0.02844 0.0
C1261 C 0.56244 0.45299 0.00935 0.0
C1262 C 0.50766 0.5273 0.09108 0.0
C1263 C 0.48395 0.56324 0.08983 0.0
C1264 C 0.51735 0.50519 0.07192 0.0
C1265 C 0.50394 0.51863 0.05095 0.0
C1266 C 0.48055 0.55494 0.04972 0.0
C1267 C 0.4705 0.57686 0.06895 0.0
H1268 H 0.0772 0.58601 0.44425 0.0
H1269 H 0.03989 0.47112 0.41508 0.0
H1270 H 0.03714 0.57065 0.47722 0.0
H1271 H 1.00168 0.45421 0.44861 0.0
H1272 H 0.90436 0.45082 0.50237 0.0
H1273 H 0.94335 0.46754 0.46904 0.0
H1274 H 0.03174 0.5329 0.50921 0.0
H1275 H 0.99117 0.51825 0.54211 0.0
C1276 C 0.06111 0.55697 0.44512 0.0
C1277 C 0.06194 0.52965 0.42713 0.0
C1278 C 0.03813 0.54799 0.46412 0.0
C1279 C 0.0159 0.51102 0.46585 0.0
C1280 C 0.01752 0.48335 0.4479 0.0
C1281 C 0.03989 0.49276 0.42871 0.0
C1282 C 0.93198 0.46905 0.50395 0.0
C1283 C 0.94454 0.48351 0.52479 0.0
C1284 C 0.95469 0.47835 0.48486 0.0
C1285 C 0.9911 0.50158 0.48619 0.0
C1286 C 1.00357 0.51576 0.50722 0.0
C1287 C 0.98038 0.5072 0.5262 0.0
H1288 H 0.08947 0.93141 0.06603 0.0
H1289 H 0.97533 0.96925 0.09592 0.0
H1290 H 0.07283 0.97042 0.03279 0.0
H1291 H 0.95735 0.00654 0.06225 0.0
H1292 H 0.9552 0.10512 0.00905 0.0
H1293 H 0.97232 0.0656 0.04213 0.0
H1294 H 0.03265 0.97489 1.00113 0.0
H1295 H 0.0174 0.01578 0.96835 0.0
C1296 C 0.06035 0.94737 0.06528 0.0
C1297 C 0.03364 0.94719 0.08354 0.0
C1298 C 0.05067 0.96973 0.04615 0.0
C1299 C 0.01369 0.99196 0.04468 0.0
C1300 C 0.98651 0.99069 0.06283 0.0
C1301 C 0.99655 0.9689 0.08209 0.0
C1302 C 0.97231 0.07683 1.0072 0.0
C1303 C 0.98519 0.06365 0.98617 0.0
C1304 C 0.98185 0.05387 0.02615 0.0
C1305 C 1.00382 0.01672 0.02447 0.0
C1306 C 0.01643 1.00361 1.00328 0.0
C1307 C 0.00753 0.02696 0.98441 0.0
H1308 H 0.46512 0.0363 0.41905 0.0
H1309 H 0.43242 0.91934 0.44756 0.0
H1310 H 0.50324 0.05368 0.45245 0.0
H1311 H 0.4725 0.93538 0.48053 0.0
H1312 H 0.51854 0.98963 0.54538 0.0
H1313 H 0.47761 0.97332 0.5128 0.0
H1314 H 0.56307 0.04083 0.47175 0.0
H1315 H 0.6024 0.059 0.50467 0.0
C1316 C 0.46618 0.01426 0.43251 0.0
C1317 C 0.44558 0.97659 0.43076 0.0
C1318 C 0.48849 0.02398 0.45162 0.0
C1319 C 0.49153 0.99588 0.46933 0.0
C1320 C 0.47049 0.95823 0.46754 0.0
C1321 C 0.44752 0.94888 0.44857 0.0
C1322 C 0.52861 1.00076 0.52934 0.0
C1323 C 0.56368 0.02553 0.52755 0.0
C1324 C 0.50522 0.99128 0.51057 0.0
C1325 C 0.51671 0.00572 0.48942 0.0
C1326 C 0.55246 0.02986 0.4877 0.0
C1327 C 0.57537 0.04 0.50655 0.0
loop_
_geom_bond_atom_site_label_1
_geom_bond_atom_site_label_2
_geom_bond_distance
_geom_bond_site_symmetry_2
_ccdc_geom_bond_type
Co0 N4 2.148 . S
Co0 N10 2.128 . S
Co0 N20 2.194 . S
Co0 O25 2.351 . S
Co0 O26 2.155 . S
Co0 O27 2.096 . S
C1 N4 1.301 . S
C1 N5 1.328 1_545 S
C1 H6 0.930 . S
C2 C3 1.333 . S
C2 N4 1.317 . S
C2 H7 0.930 . S
C3 C2 1.333 . S
C3 N5 1.350 1_545 S
C3 H29 0.931 . S
N4 Co0 2.148 . S
N4 C1 1.301 . S
N4 C2 1.317 . S
N5 C1 1.328 1_565 S
N5 C3 1.350 1_565 S
H6 C1 0.930 . S
H7 C2 0.930 . S
C8 O9 1.224 . S
C8 O27 1.247 . S
O9 C8 1.224 . S
N10 Co0 2.128 . S
N10 C11 1.355 . S
N10 C13 1.311 . S
C11 N10 1.355 . S
C11 C12 1.363 . S
C11 H23 0.929 . S
C12 C11 1.363 . S
C12 N14 1.375 . S
C12 H30 0.931 . S
C13 N10 1.311 . S
C13 N14 1.347 . S
C13 H24 0.929 . S
N14 C12 1.375 . S
N14 C13 1.347 . S
C15 C18 1.365 . S
C15 N20 1.328 . S
C15 H21 0.929 . S
C16 C17 1.362 . S
C16 C19 1.378 . S
C16 H31 0.929 . S
C17 C16 1.362 . S
C17 C18 1.366 . S
C18 C15 1.365 . S
C18 C17 1.366 . S
C18 H32 0.930 . S
C19 C16 1.378 . S
C19 N20 1.315 . S
C19 H22 0.930 . S
N20 Co0 2.194 . S
N20 C15 1.328 . S
N20 C19 1.315 . S
H21 C15 0.929 . S
H22 C19 0.930 . S
H23 C11 0.929 . S
H24 C13 0.929 . S
O25 Co0 2.351 . S
O25 C28 1.244 . S
O26 Co0 2.155 . S
O26 C28 1.240 . S
O27 Co0 2.096 . S
O27 C8 1.247 . S
C28 O25 1.244 . S
C28 O26 1.240 . S
H29 C3 0.931 . S
H30 C12 0.931 . S
H31 C16 0.929 . S
H32 C18 0.930 . S
Co33 N37 2.148 . S
Co33 N43 2.128 . S
Co33 N53 2.194 . S
Co33 O58 2.351 . S
Co33 O59 2.155 . S
Co33 O60 2.096 . S
C34 N37 1.301 . S
C34 N38 1.328 . S
C34 H39 0.930 . S
C35 C36 1.333 . S
C35 N37 1.317 . S
C35 H40 0.930 . S
C36 C35 1.333 . S
C36 N38 1.350 . S
C36 H62 0.931 . S
N37 Co33 2.148 . S
N37 C34 1.301 . S
N37 C35 1.317 . S
N38 C34 1.328 . S
N38 C36 1.350 . S
H39 C34 0.930 . S
H40 C35 0.930 . S
C41 O42 1.224 . S
C41 O60 1.247 . S
O42 C41 1.224 . S
N43 Co33 2.128 . S
N43 C44 1.355 . S
N43 C46 1.311 . S
C44 N43 1.355 . S
C44 C45 1.363 . S
C44 H56 0.929 . S
C45 C44 1.363 . S
C45 N47 1.375 . S
C45 H63 0.931 . S
C46 N43 1.311 . S
C46 N47 1.347 . S
C46 H57 0.929 . S
N47 C45 1.375 . S
N47 C46 1.347 . S
C48 C51 1.365 . S
C48 N53 1.328 . S
C48 H54 0.929 . S
C49 C50 1.362 . S
C49 C52 1.378 . S
C49 H64 0.929 . S
C50 C49 1.362 . S
C50 C51 1.366 . S
C51 C48 1.365 . S
C51 C50 1.366 . S
C51 H65 0.930 . S
C52 C49 1.378 . S
C52 N53 1.315 . S
C52 H55 0.930 . S
N53 Co33 2.194 . S
N53 C48 1.328 . S
N53 C52 1.315 . S
H54 C48 0.929 . S
H55 C52 0.930 . S
H56 C44 0.929 . S
H57 C46 0.929 . S
O58 Co33 2.351 . S
O58 C61 1.244 . S
O59 Co33 2.155 . S
O59 C61 1.240 . S
O60 Co33 2.096 . S
O60 C41 1.247 . S
C61 O58 1.244 . S
C61 O59 1.240 . S
H62 C36 0.931 . S
H63 C45 0.931 . S
H64 C49 0.929 . S
H65 C51 0.930 . S
Co66 N70 2.148 . S
Co66 N76 2.128 . S
Co66 N86 2.194 1_655 S
Co66 O91 2.351 1_655 S
Co66 O92 2.155 . S
Co66 O93 2.096 . S
C67 N70 1.301 . S
C67 N71 1.328 . S
C67 H72 0.930 . S
C68 C69 1.333 . S
C68 N70 1.317 . S
C68 H73 0.930 . S
C69 C68 1.333 . S
C69 N71 1.350 . S
C69 H95 0.931 . S
N70 Co66 2.148 . S
N70 C67 1.301 . S
N70 C68 1.317 . S
N71 C67 1.328 . S
N71 C69 1.350 . S
H72 C67 0.930 . S
H73 C68 0.930 . S
C74 O75 1.224 . S
C74 O93 1.247 . S
O75 C74 1.224 . S
N76 Co66 2.128 . S
N76 C77 1.355 1_655 S
N76 C79 1.311 . S
C77 N76 1.355 1_455 S
C77 C78 1.363 . S
C77 H89 0.929 . S
C78 C77 1.363 . S
C78 N80 1.375 . S
C78 H96 0.931 . S
C79 N76 1.311 . S
C79 N80 1.347 1_655 S
C79 H90 0.929 . S
N80 C78 1.375 . S
N80 C79 1.347 1_455 S
C81 C84 1.365 . S
C81 N86 1.328 . S
C81 H87 0.929 . S
C82 C83 1.362 . S
C82 C85 1.378 1_455 S
C82 H97 0.929 1_455 S
C83 C82 1.362 . S
C83 C84 1.366 . S
C84 C81 1.365 . S
C84 C83 1.366 . S
C84 H98 0.930 . S
C85 C82 1.378 1_655 S
C85 N86 1.315 1_655 S
C85 H88 0.930 . S
N86 Co66 2.194 1_455 S
N86 C81 1.328 . S
N86 C85 1.315 1_455 S
H87 C81 0.929 . S
H88 C85 0.930 . S
H89 C77 0.929 . S
H90 C79 0.929 . S
O91 Co66 2.351 1_455 S
O91 C94 1.244 . S
O92 Co66 2.155 . S
O92 C94 1.240 1_655 S
O93 Co66 2.096 . S
O93 C74 1.247 . S
C94 O91 1.244 . S
C94 O92 1.240 1_455 S
H95 C69 0.931 . S
H96 C78 0.931 . S
H97 C82 0.929 1_655 S
H98 C84 0.930 . S
Co99 N103 2.148 . S
Co99 N109 2.128 . S
Co99 N119 2.194 1_565 S
Co99 O124 2.351 1_565 S
Co99 O125 2.155 . S
Co99 O126 2.096 . S
C100 N103 1.301 . S
C100 N104 1.328 1_455 S
C100 H105 0.930 . S
C101 C102 1.333 . S
C101 N103 1.317 . S
C101 H106 0.930 . S
C102 C101 1.333 . S
C102 N104 1.350 1_455 S
C102 H128 0.931 . S
N103 Co99 2.148 . S
N103 C100 1.301 . S
N103 C101 1.317 . S
N104 C100 1.328 1_655 S
N104 C102 1.350 1_655 S
H105 C100 0.930 . S
H106 C101 0.930 . S
C107 O108 1.224 . S
C107 O126 1.247 . S
O108 C107 1.224 . S
N109 Co99 2.128 . S
N109 C110 1.355 1_565 S
N109 C112 1.311 . S
C110 N109 1.355 1_545 S
C110 C111 1.363 . S
C110 H122 0.929 . S
C111 C110 1.363 . S
C111 N113 1.375 . S
C111 H129 0.931 . S
C112 N109 1.311 . S
C112 N113 1.347 1_565 S
C112 H123 0.929 . S
N113 C111 1.375 . S
N113 C112 1.347 1_545 S
C114 C117 1.365 . S
C114 N119 1.328 . S
C114 H120 0.929 . S
C115 C116 1.362 . S
C115 C118 1.378 1_545 S
C115 H130 0.929 1_545 S
C116 C115 1.362 . S
C116 C117 1.366 . S
C117 C114 1.365 . S
C117 C116 1.366 . S
C117 H131 0.930 . S
C118 C115 1.378 1_565 S
C118 N119 1.315 1_565 S
C118 H121 0.930 . S
N119 Co99 2.194 1_545 S
N119 C114 1.328 . S
N119 C118 1.315 1_545 S
H120 C114 0.929 . S
H121 C118 0.930 . S
H122 C110 0.929 . S
H123 C112 0.929 . S
O124 Co99 2.351 1_545 S
O124 C127 1.244 . S
O125 Co99 2.155 . S
O125 C127 1.240 1_565 S
O126 Co99 2.096 . S
O126 C107 1.247 . S
C127 O124 1.244 . S
C127 O125 1.240 1_545 S
H128 C102 0.931 . S
H129 C111 0.931 . S
H130 C115 0.929 1_565 S
H131 C117 0.930 . S
Co132 N136 2.148 . S
Co132 N142 2.128 . S
Co132 N152 2.194 . S
Co132 O157 2.351 . S
Co132 O158 2.155 . S
Co132 O159 2.096 . S
C133 N136 1.301 . S
C133 N137 1.328 . S
C133 H138 0.930 . S
C134 C135 1.333 . S
C134 N136 1.317 . S
C134 H139 0.930 . S
C135 C134 1.333 . S
C135 N137 1.350 . S
C135 H161 0.931 . S
N136 Co132 2.148 . S
N136 C133 1.301 . S
N136 C134 1.317 . S
N137 C133 1.328 . S
N137 C135 1.350 . S
H138 C133 0.930 . S
H139 C134 0.930 . S
C140 O141 1.224 . S
C140 O159 1.247 . S
O141 C140 1.224 . S
N142 Co132 2.128 . S
N142 C143 1.355 . S
N142 C145 1.311 . S
C143 N142 1.355 . S
C143 C144 1.363 . S
C143 H155 0.929 . S
C144 C143 1.363 . S
C144 N146 1.375 . S
C144 H162 0.931 . S
C145 N142 1.311 . S
C145 N146 1.347 . S
C145 H156 0.929 . S
N146 C144 1.375 . S
N146 C145 1.347 . S
C147 C150 1.365 . S
C147 N152 1.328 . S
C147 H153 0.929 . S
C148 C149 1.362 . S
C148 C151 1.378 . S
C148 H163 0.929 . S
C149 C148 1.362 . S
C149 C150 1.366 . S
C150 C147 1.365 . S
C150 C149 1.366 . S
C150 H164 0.930 . S
C151 C148 1.378 . S
C151 N152 1.315 . S
C151 H154 0.930 . S
N152 Co132 2.194 . S
N152 C147 1.328 . S
N152 C151 1.315 . S
H153 C147 0.929 . S
H154 C151 0.930 . S
H155 C143 0.929 . S
H156 C145 0.929 . S
O157 Co132 2.351 . S
O157 C160 1.244 . S
O158 Co132 2.155 . S
O158 C160 1.240 . S
O159 Co132 2.096 . S
O159 C140 1.247 . S
C160 O157 1.244 . S
C160 O158 1.240 . S
H161 C135 0.931 . S
H162 C144 0.931 . S
H163 C148 0.929 . S
H164 C150 0.930 . S
Co165 N169 2.148 . S
Co165 N175 2.128 . S
Co165 N185 2.194 . S
Co165 O190 2.351 . S
Co165 O191 2.155 . S
Co165 O192 2.096 . S
C166 N169 1.301 . S
C166 N170 1.328 1_455 S
C166 H171 0.930 . S
C167 C168 1.333 . S
C167 N169 1.317 . S
C167 H172 0.930 . S
C168 C167 1.333 . S
C168 N170 1.350 1_455 S
C168 H194 0.931 . S
N169 Co165 2.148 . S
N169 C166 1.301 . S
N169 C167 1.317 . S
N170 C166 1.328 1_655 S
N170 C168 1.350 1_655 S
H171 C166 0.930 . S
H172 C167 0.930 . S
C173 O174 1.224 . S
C173 O192 1.247 . S
O174 C173 1.224 . S
N175 Co165 2.128 . S
N175 C176 1.355 . S
N175 C178 1.311 . S
C176 N175 1.355 . S
C176 C177 1.363 . S
C176 H188 0.929 . S
C177 C176 1.363 . S
C177 N179 1.375 . S
C177 H195 0.931 . S
C178 N175 1.311 . S
C178 N179 1.347 . S
C178 H189 0.929 . S
N179 C177 1.375 . S
N179 C178 1.347 . S
C180 C183 1.365 . S
C180 N185 1.328 . S
C180 H186 0.929 . S
C181 C182 1.362 . S
C181 C184 1.378 . S
C181 H196 0.929 . S
C182 C181 1.362 . S
C182 C183 1.366 . S
C183 C180 1.365 . S
C183 C182 1.366 . S
C183 H197 0.930 . S
C184 C181 1.378 . S
C184 N185 1.315 . S
C184 H187 0.930 . S
N185 Co165 2.194 . S
N185 C180 1.328 . S
N185 C184 1.315 . S
H186 C180 0.929 . S
H187 C184 0.930 . S
H188 C176 0.929 . S
H189 C178 0.929 . S
O190 Co165 2.351 . S
O190 C193 1.244 . S
O191 Co165 2.155 . S
O191 C193 1.240 . S
O192 Co165 2.096 . S
O192 C173 1.247 . S
C193 O190 1.244 . S
C193 O191 1.240 . S
H194 C168 0.931 . S
H195 C177 0.931 . S
H196 C181 0.929 . S
H197 C183 0.930 . S
Co198 N202 2.148 . S
Co198 N208 2.128 . S
Co198 N218 2.194 1_655 S
Co198 O223 2.351 1_655 S
Co198 O224 2.155 . S
Co198 O225 2.096 . S
C199 N202 1.301 . S
C199 N203 1.328 1_545 S
C199 H204 0.930 . S
C200 C201 1.333 . S
C200 N202 1.317 . S
C200 H205 0.930 . S
C201 C200 1.333 . S
C201 N203 1.350 1_545 S
C201 H227 0.931 . S
N202 Co198 2.148 . S
N202 C199 1.301 . S
N202 C200 1.317 . S
N203 C199 1.328 1_565 S
N203 C201 1.350 1_565 S
H204 C199 0.930 . S
H205 C200 0.930 . S
C206 O207 1.224 . S
C206 O225 1.247 . S
O207 C206 1.224 . S
N208 Co198 2.128 . S
N208 C209 1.355 1_655 S
N208 C211 1.311 . S
C209 N208 1.355 1_455 S
C209 C210 1.363 . S
C209 H221 0.929 . S
C210 C209 1.363 . S
C210 N212 1.375 . S
C210 H228 0.931 . S
C211 N208 1.311 . S
C211 N212 1.347 1_655 S
C211 H222 0.929 . S
N212 C210 1.375 . S
N212 C211 1.347 1_455 S
C213 C216 1.365 . S
C213 N218 1.328 . S
C213 H219 0.929 . S
C214 C215 1.362 . S
C214 C217 1.378 1_455 S
C214 H229 0.929 1_455 S
C215 C214 1.362 . S
C215 C216 1.366 . S
C216 C213 1.365 . S
C216 C215 1.366 . S
C216 H230 0.930 . S
C217 C214 1.378 1_655 S
C217 N218 1.315 1_655 S
C217 H220 0.930 . S
N218 Co198 2.194 1_455 S
N218 C213 1.328 . S
N218 C217 1.315 1_455 S
H219 C213 0.929 . S
H220 C217 0.930 . S
H221 C209 0.929 . S
H222 C211 0.929 . S
O223 Co198 2.351 1_455 S
O223 C226 1.244 . S
O224 Co198 2.155 . S
O224 C226 1.240 1_655 S
O225 Co198 2.096 . S
O225 C206 1.247 . S
C226 O223 1.244 . S
C226 O224 1.240 1_455 S
H227 C201 0.931 . S
H228 C210 0.931 . S
H229 C214 0.929 1_655 S
H230 C216 0.930 . S
Co231 N235 2.148 . S
Co231 N241 2.128 . S
Co231 N251 2.194 1_565 S
Co231 O256 2.351 1_565 S
Co231 O257 2.155 . S
Co231 O258 2.096 . S
C232 N235 1.301 . S
C232 N236 1.328 . S
C232 H237 0.930 . S
C233 C234 1.333 . S
C233 N235 1.317 . S
C233 H238 0.930 . S
C234 C233 1.333 . S
C234 N236 1.350 . S
C234 H260 0.931 . S
N235 Co231 2.148 . S
N235 C232 1.301 . S
N235 C233 1.317 . S
N236 C232 1.328 . S
N236 C234 1.350 . S
H237 C232 0.930 . S
H238 C233 0.930 . S
C239 O240 1.224 . S
C239 O258 1.247 . S
O240 C239 1.224 . S
N241 Co231 2.128 . S
N241 C242 1.355 1_565 S
N241 C244 1.311 . S
C242 N241 1.355 1_545 S
C242 C243 1.363 . S
C242 H254 0.929 . S
C243 C242 1.363 . S
C243 N245 1.375 . S
C243 H261 0.931 . S
C244 N241 1.311 . S
C244 N245 1.347 1_565 S
C244 H255 0.929 . S
N245 C243 1.375 . S
N245 C244 1.347 1_545 S
C246 C249 1.365 . S
C246 N251 1.328 . S
C246 H252 0.929 . S
C247 C248 1.362 . S
C247 C250 1.378 1_545 S
C247 H262 0.929 1_545 S
C248 C247 1.362 . S
C248 C249 1.366 . S
C249 C246 1.365 . S
C249 C248 1.366 . S
C249 H263 0.930 . S
C250 C247 1.378 1_565 S
C250 N251 1.315 1_565 S
C250 H253 0.930 . S
N251 Co231 2.194 1_545 S
N251 C246 1.328 . S
N251 C250 1.315 1_545 S
H252 C246 0.929 . S
H253 C250 0.930 . S
H254 C242 0.929 . S
H255 C244 0.929 . S
O256 Co231 2.351 1_545 S
O256 C259 1.244 . S
O257 Co231 2.155 . S
O257 C259 1.240 1_565 S
O258 Co231 2.096 . S
O258 C239 1.247 . S
C259 O256 1.244 . S
C259 O257 1.240 1_545 S
H260 C234 0.931 . S
H261 C243 0.931 . S
H262 C247 0.929 1_565 S
H263 C249 0.930 . S
Co264 N268 2.148 . S
Co264 N274 2.128 . S
Co264 N284 2.194 . S
Co264 O289 2.351 . S
Co264 O290 2.155 . S
Co264 O291 2.096 . S
C265 N268 1.301 . S
C265 N269 1.328 1_565 S
C265 H270 0.930 . S
C266 C267 1.333 . S
C266 N268 1.317 . S
C266 H271 0.930 . S
C267 C266 1.333 . S
C267 N269 1.350 1_565 S
C267 H293 0.931 . S
N268 Co264 2.148 . S
N268 C265 1.301 . S
N268 C266 1.317 . S
N269 C265 1.328 1_545 S
N269 C267 1.350 1_545 S
H270 C265 0.930 . S
H271 C266 0.930 . S
C272 O273 1.224 . S
C272 O291 1.247 . S
O273 C272 1.224 . S
N274 Co264 2.128 . S
N274 C275 1.355 . S
N274 C277 1.311 . S
C275 N274 1.355 . S
C275 C276 1.363 . S
C275 H287 0.929 . S
C276 C275 1.363 . S
C276 N278 1.375 . S
C276 H294 0.931 . S
C277 N274 1.311 . S
C277 N278 1.347 . S
C277 H288 0.929 . S
N278 C276 1.375 . S
N278 C277 1.347 . S
C279 C282 1.365 . S
C279 N284 1.328 . S
C279 H285 0.929 . S
C280 C281 1.362 . S
C280 C283 1.378 . S
C280 H295 0.929 . S
C281 C280 1.362 . S
C281 C282 1.366 . S
C282 C279 1.365 . S
C282 C281 1.366 . S
C282 H296 0.930 . S
C283 C280 1.378 . S
C283 N284 1.315 . S
C283 H286 0.930 . S
N284 Co264 2.194 . S
N284 C279 1.328 . S
N284 C283 1.315 . S
H285 C279 0.929 . S
H286 C283 0.930 . S
H287 C275 0.929 . S
H288 C277 0.929 . S
O289 Co264 2.351 . S
O289 C292 1.244 . S
O290 Co264 2.155 . S
O290 C292 1.240 . S
O291 Co264 2.096 . S
O291 C272 1.247 . S
C292 O289 1.244 . S
C292 O290 1.240 . S
H293 C267 0.931 . S
H294 C276 0.931 . S
H295 C280 0.929 . S
H296 C282 0.930 . S
Co297 N301 2.148 . S
Co297 N307 2.128 . S
Co297 N317 2.194 . S
Co297 O322 2.351 . S
Co297 O323 2.155 . S
Co297 O324 2.096 . S
C298 N301 1.301 . S
C298 N302 1.328 . S
C298 H303 0.930 . S
C299 C300 1.333 . S
C299 N301 1.317 . S
C299 H304 0.930 . S
C300 C299 1.333 . S
C300 N302 1.350 . S
C300 H326 0.931 . S
N301 Co297 2.148 . S
N301 C298 1.301 . S
N301 C299 1.317 . S
N302 C298 1.328 . S
N302 C300 1.350 . S
H303 C298 0.930 . S
H304 C299 0.930 . S
C305 O306 1.224 . S
C305 O324 1.247 . S
O306 C305 1.224 . S
N307 Co297 2.128 . S
N307 C308 1.355 . S
N307 C310 1.311 . S
C308 N307 1.355 . S
C308 C309 1.363 . S
C308 H320 0.929 . S
C309 C308 1.363 . S
C309 N311 1.375 . S
C309 H327 0.931 . S
C310 N307 1.311 . S
C310 N311 1.347 . S
C310 H321 0.929 . S
N311 C309 1.375 . S
N311 C310 1.347 . S
C312 C315 1.365 . S
C312 N317 1.328 . S
C312 H318 0.929 . S
C313 C314 1.362 . S
C313 C316 1.378 . S
C313 H328 0.929 . S
C314 C313 1.362 . S
C314 C315 1.366 . S
C315 C312 1.365 . S
C315 C314 1.366 . S
C315 H329 0.930 . S
C316 C313 1.378 . S
C316 N317 1.315 . S
C316 H319 0.930 . S
N317 Co297 2.194 . S
N317 C312 1.328 . S
N317 C316 1.315 . S
H318 C312 0.929 . S
H319 C316 0.930 . S
H320 C308 0.929 . S
H321 C310 0.929 . S
O322 Co297 2.351 . S
O322 C325 1.244 . S
O323 Co297 2.155 . S
O323 C325 1.240 . S
O324 Co297 2.096 . S
O324 C305 1.247 . S
C325 O322 1.244 . S
C325 O323 1.240 . S
H326 C300 0.931 . S
H327 C309 0.931 . S
H328 C313 0.929 . S
H329 C315 0.930 . S
Co330 N334 2.148 . S
Co330 N340 2.128 . S
Co330 N350 2.194 1_455 S
Co330 O355 2.351 1_455 S
Co330 O356 2.155 . S
Co330 O357 2.096 . S
C331 N334 1.301 . S
C331 N335 1.328 . S
C331 H336 0.930 . S
C332 C333 1.333 . S
C332 N334 1.317 . S
C332 H337 0.930 . S
C333 C332 1.333 . S
C333 N335 1.350 . S
C333 H359 0.931 . S
N334 Co330 2.148 . S
N334 C331 1.301 . S
N334 C332 1.317 . S
N335 C331 1.328 . S
N335 C333 1.350 . S
H336 C331 0.930 . S
H337 C332 0.930 . S
C338 O339 1.224 . S
C338 O357 1.247 . S
O339 C338 1.224 . S
N340 Co330 2.128 . S
N340 C341 1.355 1_455 S
N340 C343 1.311 . S
C341 N340 1.355 1_655 S
C341 C342 1.363 . S
C341 H353 0.929 . S
C342 C341 1.363 . S
C342 N344 1.375 . S
C342 H360 0.931 . S
C343 N340 1.311 . S
C343 N344 1.347 1_455 S
C343 H354 0.929 . S
N344 C342 1.375 . S
N344 C343 1.347 1_655 S
C345 C348 1.365 . S
C345 N350 1.328 . S
C345 H351 0.929 . S
C346 C347 1.362 . S
C346 C349 1.378 1_655 S
C346 H361 0.929 1_655 S
C347 C346 1.362 . S
C347 C348 1.366 . S
C348 C345 1.365 . S
C348 C347 1.366 . S
C348 H362 0.930 . S
C349 C346 1.378 1_455 S
C349 N350 1.315 1_455 S
C349 H352 0.930 . S
N350 Co330 2.194 1_655 S
N350 C345 1.328 . S
N350 C349 1.315 1_655 S
H351 C345 0.929 . S
H352 C349 0.930 . S
H353 C341 0.929 . S
H354 C343 0.929 . S
O355 Co330 2.351 1_655 S
O355 C358 1.244 . S
O356 Co330 2.155 . S
O356 C358 1.240 1_455 S
O357 Co330 2.096 . S
O357 C338 1.247 . S
C358 O355 1.244 . S
C358 O356 1.240 1_655 S
H359 C333 0.931 . S
H360 C342 0.931 . S
H361 C346 0.929 1_455 S
H362 C348 0.930 . S
Co363 N367 2.148 . S
Co363 N373 2.128 . S
Co363 N383 2.194 1_545 S
Co363 O388 2.351 1_545 S
Co363 O389 2.155 . S
Co363 O390 2.096 . S
C364 N367 1.301 . S
C364 N368 1.328 1_655 S
C364 H369 0.930 . S
C365 C366 1.333 . S
C365 N367 1.317 . S
C365 H370 0.930 . S
C366 C365 1.333 . S
C366 N368 1.350 1_655 S
C366 H392 0.931 . S
N367 Co363 2.148 . S
N367 C364 1.301 . S
N367 C365 1.317 . S
N368 C364 1.328 1_455 S
N368 C366 1.350 1_455 S
H369 C364 0.930 . S
H370 C365 0.930 . S
C371 O372 1.224 . S
C371 O390 1.247 . S
O372 C371 1.224 . S
N373 Co363 2.128 . S
N373 C374 1.355 1_545 S
N373 C376 1.311 . S
C374 N373 1.355 1_565 S
C374 C375 1.363 . S
C374 H386 0.929 . S
C375 C374 1.363 . S
C375 N377 1.375 . S
C375 H393 0.931 . S
C376 N373 1.311 . S
C376 N377 1.347 1_545 S
C376 H387 0.929 . S
N377 C375 1.375 . S
N377 C376 1.347 1_565 S
C378 C381 1.365 . S
C378 N383 1.328 . S
C378 H384 0.929 . S
C379 C380 1.362 . S
C379 C382 1.378 1_565 S
C379 H394 0.929 1_565 S
C380 C379 1.362 . S
C380 C381 1.366 . S
C381 C378 1.365 . S
C381 C380 1.366 . S
C381 H395 0.930 . S
C382 C379 1.378 1_545 S
C382 N383 1.315 1_545 S
C382 H385 0.930 . S
N383 Co363 2.194 1_565 S
N383 C378 1.328 . S
N383 C382 1.315 1_565 S
H384 C378 0.929 . S
H385 C382 0.930 . S
H386 C374 0.929 . S
H387 C376 0.929 . S
O388 Co363 2.351 1_565 S
O388 C391 1.244 . S
O389 Co363 2.155 . S
O389 C391 1.240 1_545 S
O390 Co363 2.096 . S
O390 C371 1.247 . S
C391 O388 1.244 . S
C391 O389 1.240 1_565 S
H392 C366 0.931 . S
H393 C375 0.931 . S
H394 C379 0.929 1_545 S
H395 C381 0.930 . S
Co396 N400 2.148 . S
Co396 N406 2.128 . S
Co396 N416 2.194 . S
Co396 O421 2.351 . S
Co396 O422 2.155 . S
Co396 O423 2.096 . S
C397 N400 1.301 . S
C397 N401 1.328 . S
C397 H402 0.930 . S
C398 C399 1.333 . S
C398 N400 1.317 . S
C398 H403 0.930 . S
C399 C398 1.333 . S
C399 N401 1.350 . S
C399 H425 0.931 . S
N400 Co396 2.148 . S
N400 C397 1.301 . S
N400 C398 1.317 . S
N401 C397 1.328 . S
N401 C399 1.350 . S
H402 C397 0.930 . S
H403 C398 0.930 . S
C404 O405 1.224 . S
C404 O423 1.247 . S
O405 C404 1.224 . S
N406 Co396 2.128 . S
N406 C407 1.355 . S
N406 C409 1.311 . S
C407 N406 1.355 . S
C407 C408 1.363 . S
C407 H419 0.929 . S
C408 C407 1.363 . S
C408 N410 1.375 . S
C408 H426 0.931 . S
C409 N406 1.311 . S
C409 N410 1.347 . S
C409 H420 0.929 . S
N410 C408 1.375 . S
N410 C409 1.347 . S
C411 C414 1.365 . S
C411 N416 1.328 . S
C411 H417 0.929 . S
C412 C413 1.362 . S
C412 C415 1.378 . S
C412 H427 0.929 . S
C413 C412 1.362 . S
C413 C414 1.366 . S
C414 C411 1.365 . S
C414 C413 1.366 . S
C414 H428 0.930 . S
C415 C412 1.378 . S
C415 N416 1.315 . S
C415 H418 0.930 . S
N416 Co396 2.194 . S
N416 C411 1.328 . S
N416 C415 1.315 . S
H417 C411 0.929 . S
H418 C415 0.930 . S
H419 C407 0.929 . S
H420 C409 0.929 . S
O421 Co396 2.351 . S
O421 C424 1.244 . S
O422 Co396 2.155 . S
O422 C424 1.240 . S
O423 Co396 2.096 . S
O423 C404 1.247 . S
C424 O421 1.244 . S
C424 O422 1.240 . S
H425 C399 0.931 . S
H426 C408 0.931 . S
H427 C412 0.929 . S
H428 C414 0.930 . S
Co429 N433 2.148 . S
Co429 N439 2.128 . S
Co429 N449 2.194 . S
Co429 O454 2.351 . S
Co429 O455 2.155 . S
Co429 O456 2.096 . S
C430 N433 1.301 . S
C430 N434 1.328 1_655 S
C430 H435 0.930 . S
C431 C432 1.333 . S
C431 N433 1.317 . S
C431 H436 0.930 . S
C432 C431 1.333 . S
C432 N434 1.350 1_655 S
C432 H458 0.931 . S
N433 Co429 2.148 . S
N433 C430 1.301 . S
N433 C431 1.317 . S
N434 C430 1.328 1_455 S
N434 C432 1.350 1_455 S
H435 C430 0.930 . S
H436 C431 0.930 . S
C437 O438 1.224 . S
C437 O456 1.247 . S
O438 C437 1.224 . S
N439 Co429 2.128 . S
N439 C440 1.355 . S
N439 C442 1.311 . S
C440 N439 1.355 . S
C440 C441 1.363 . S
C440 H452 0.929 . S
C441 C440 1.363 . S
C441 N443 1.375 . S
C441 H459 0.931 . S
C442 N439 1.311 . S
C442 N443 1.347 . S
C442 H453 0.929 . S
N443 C441 1.375 . S
N443 C442 1.347 . S
C444 C447 1.365 . S
C444 N449 1.328 . S
C444 H450 0.929 . S
C445 C446 1.362 . S
C445 C448 1.378 . S
C445 H460 0.929 . S
C446 C445 1.362 . S
C446 C447 1.366 . S
C447 C444 1.365 . S
C447 C446 1.366 . S
C447 H461 0.930 . S
C448 C445 1.378 . S
C448 N449 1.315 . S
C448 H451 0.930 . S
N449 Co429 2.194 . S
N449 C444 1.328 . S
N449 C448 1.315 . S
H450 C444 0.929 . S
H451 C448 0.930 . S
H452 C440 0.929 . S
H453 C442 0.929 . S
O454 Co429 2.351 . S
O454 C457 1.244 . S
O455 Co429 2.155 . S
O455 C457 1.240 . S
O456 Co429 2.096 . S
O456 C437 1.247 . S
C457 O454 1.244 . S
C457 O455 1.240 . S
H458 C432 0.931 . S
H459 C441 0.931 . S
H460 C445 0.929 . S
H461 C447 0.930 . S
Co462 N466 2.148 . S
Co462 N472 2.128 . S
Co462 N482 2.194 1_455 S
Co462 O487 2.351 1_455 S
Co462 O488 2.155 . S
Co462 O489 2.096 . S
C463 N466 1.301 . S
C463 N467 1.328 1_565 S
C463 H468 0.930 . S
C464 C465 1.333 . S
C464 N466 1.317 . S
C464 H469 0.930 . S
C465 C464 1.333 . S
C465 N467 1.350 1_565 S
C465 H491 0.931 . S
N466 Co462 2.148 . S
N466 C463 1.301 . S
N466 C464 1.317 . S
N467 C463 1.328 1_545 S
N467 C465 1.350 1_545 S
H468 C463 0.930 . S
H469 C464 0.930 . S
C470 O471 1.224 . S
C470 O489 1.247 . S
O471 C470 1.224 . S
N472 Co462 2.128 . S
N472 C473 1.355 1_455 S
N472 C475 1.311 . S
C473 N472 1.355 1_655 S
C473 C474 1.363 . S
C473 H485 0.929 . S
C474 C473 1.363 . S
C474 N476 1.375 . S
C474 H492 0.931 . S
C475 N472 1.311 . S
C475 N476 1.347 1_455 S
C475 H486 0.929 . S
N476 C474 1.375 . S
N476 C475 1.347 1_655 S
C477 C480 1.365 . S
C477 N482 1.328 . S
C477 H483 0.929 . S
C478 C479 1.362 . S
C478 C481 1.378 1_655 S
C478 H493 0.929 1_655 S
C479 C478 1.362 . S
C479 C480 1.366 . S
C480 C477 1.365 . S
C480 C479 1.366 . S
C480 H494 0.930 . S
C481 C478 1.378 1_455 S
C481 N482 1.315 1_455 S
C481 H484 0.930 . S
N482 Co462 2.194 1_655 S
N482 C477 1.328 . S
N482 C481 1.315 1_655 S
H483 C477 0.929 . S
H484 C481 0.930 . S
H485 C473 0.929 . S
H486 C475 0.929 . S
O487 Co462 2.351 1_655 S
O487 C490 1.244 . S
O488 Co462 2.155 . S
O488 C490 1.240 1_455 S
O489 Co462 2.096 . S
O489 C470 1.247 . S
C490 O487 1.244 . S
C490 O488 1.240 1_655 S
H491 C465 0.931 . S
H492 C474 0.931 . S
H493 C478 0.929 1_455 S
H494 C480 0.930 . S
Co495 N499 2.148 . S
Co495 N505 2.128 . S
Co495 N515 2.194 1_545 S
Co495 O520 2.351 1_545 S
Co495 O521 2.155 . S
Co495 O522 2.096 . S
C496 N499 1.301 . S
C496 N500 1.328 . S
C496 H501 0.930 . S
C497 C498 1.333 . S
C497 N499 1.317 . S
C497 H502 0.930 . S
C498 C497 1.333 . S
C498 N500 1.350 . S
C498 H524 0.931 . S
N499 Co495 2.148 . S
N499 C496 1.301 . S
N499 C497 1.317 . S
N500 C496 1.328 . S
N500 C498 1.350 . S
H501 C496 0.930 . S
H502 C497 0.930 . S
C503 O504 1.224 . S
C503 O522 1.247 . S
O504 C503 1.224 . S
N505 Co495 2.128 . S
N505 C506 1.355 1_545 S
N505 C508 1.311 . S
C506 N505 1.355 1_565 S
C506 C507 1.363 . S
C506 H518 0.929 . S
C507 C506 1.363 . S
C507 N509 1.375 . S
C507 H525 0.931 . S
C508 N505 1.311 . S
C508 N509 1.347 1_545 S
C508 H519 0.929 . S
N509 C507 1.375 . S
N509 C508 1.347 1_565 S
C510 C513 1.365 . S
C510 N515 1.328 . S
C510 H516 0.929 . S
C511 C512 1.362 . S
C511 C514 1.378 1_565 S
C511 H526 0.929 1_565 S
C512 C511 1.362 . S
C512 C513 1.366 . S
C513 C510 1.365 . S
C513 C512 1.366 . S
C513 H527 0.930 . S
C514 C511 1.378 1_545 S
C514 N515 1.315 1_545 S
C514 H517 0.930 . S
N515 Co495 2.194 1_565 S
N515 C510 1.328 . S
N515 C514 1.315 1_565 S
H516 C510 0.929 . S
H517 C514 0.930 . S
H518 C506 0.929 . S
H519 C508 0.929 . S
O520 Co495 2.351 1_565 S
O520 C523 1.244 . S
O521 Co495 2.155 . S
O521 C523 1.240 1_545 S
O522 Co495 2.096 . S
O522 C503 1.247 . S
C523 O520 1.244 . S
C523 O521 1.240 1_565 S
H524 C498 0.931 . S
H525 C507 0.931 . S
H526 C511 0.929 1_545 S
H527 C513 0.930 . S
H528 C536 0.950 . S
H529 C541 0.950 . S
H530 C538 0.950 . S
H531 C540 0.950 . S
H532 C542 0.950 . S
H533 C544 0.950 . S
H534 C546 0.950 . S
H535 C547 0.950 . S
C536 H528 0.950 . S
C536 C537 1.386 . S
C536 C538 1.391 . S
C537 C536 1.386 . S
C537 C541 1.393 . S
C538 H530 0.950 . S
C538 C536 1.391 . S
C538 C539 1.400 . S
C539 C538 1.400 . S
C539 C540 1.398 . S
C539 C545 1.491 . S
C540 H531 0.950 . S
C540 C539 1.398 . S
C540 C541 1.391 . S
C541 H529 0.950 . S
C541 C537 1.393 . S
C541 C540 1.391 . S
C542 H532 0.950 . S
C542 C543 1.386 . S
C542 C544 1.391 . S
C543 C542 1.386 . S
C543 C547 1.393 . S
C544 H533 0.950 . S
C544 C542 1.391 . S
C544 C545 1.400 . S
C545 C539 1.491 . S
C545 C544 1.400 . S
C545 C546 1.398 . S
C546 H534 0.950 . S
C546 C545 1.398 . S
C546 C547 1.391 . S
C547 H535 0.950 . S
C547 C543 1.393 . S
C547 C546 1.391 . S
H548 C556 0.950 . S
H549 C561 0.950 . S
H550 C558 0.950 . S
H551 C560 0.950 . S
H552 C562 0.950 . S
H553 C564 0.950 . S
H554 C566 0.950 . S
H555 C567 0.950 . S
C556 H548 0.950 . S
C556 C557 1.386 . S
C556 C558 1.391 . S
C557 C556 1.386 . S
C557 C561 1.393 . S
C558 H550 0.950 . S
C558 C556 1.391 . S
C558 C559 1.400 . S
C559 C558 1.400 . S
C559 C560 1.398 . S
C559 C565 1.491 . S
C560 H551 0.950 . S
C560 C559 1.398 . S
C560 C561 1.391 . S
C561 H549 0.950 . S
C561 C557 1.393 . S
C561 C560 1.391 . S
C562 H552 0.950 . S
C562 C563 1.386 . S
C562 C564 1.391 . S
C563 C562 1.386 . S
C563 C567 1.393 . S
C564 H553 0.950 . S
C564 C562 1.391 . S
C564 C565 1.400 . S
C565 C559 1.491 . S
C565 C564 1.400 . S
C565 C566 1.398 . S
C566 H554 0.950 . S
C566 C565 1.398 . S
C566 C567 1.391 . S
C567 H555 0.950 . S
C567 C563 1.393 . S
C567 C566 1.391 . S
H568 C576 0.950 . S
H569 C581 0.950 . S
H570 C578 0.950 . S
H571 C580 0.950 . S
H572 C582 0.950 . S
H573 C584 0.950 . S
H574 C586 0.950 . S
H575 C587 0.950 . S
C576 H568 0.950 . S
C576 C577 1.386 . S
C576 C578 1.391 . S
C577 C576 1.386 . S
C577 C581 1.393 . S
C578 H570 0.950 . S
C578 C576 1.391 . S
C578 C579 1.400 . S
C579 C578 1.400 . S
C579 C580 1.398 . S
C579 C585 1.491 . S
C580 H571 0.950 . S
C580 C579 1.398 . S
C580 C581 1.391 . S
C581 H569 0.950 . S
C581 C577 1.393 . S
C581 C580 1.391 . S
C582 H572 0.950 . S
C582 C583 1.386 . S
C582 C584 1.391 . S
C583 C582 1.386 . S
C583 C587 1.393 . S
C584 H573 0.950 . S
C584 C582 1.391 . S
C584 C585 1.400 . S
C585 C579 1.491 . S
C585 C584 1.400 . S
C585 C586 1.398 . S
C586 H574 0.950 . S
C586 C585 1.398 . S
C586 C587 1.391 . S
C587 H575 0.950 . S
C587 C583 1.393 . S
C587 C586 1.391 . S
H588 C596 0.950 . S
H589 C601 0.950 . S
H590 C598 0.950 . S
H591 C600 0.950 . S
H592 C602 0.950 . S
H593 C604 0.950 . S
H594 C606 0.950 . S
H595 C607 0.950 . S
C596 H588 0.950 . S
C596 C597 1.386 . S
C596 C598 1.391 . S
C597 C596 1.386 . S
C597 C601 1.393 . S
C598 H590 0.950 . S
C598 C596 1.391 . S
C598 C599 1.400 . S
C599 C598 1.400 . S
C599 C600 1.398 . S
C599 C605 1.491 . S
C600 H591 0.950 . S
C600 C599 1.398 . S
C600 C601 1.391 . S
C601 H589 0.950 . S
C601 C597 1.393 . S
C601 C600 1.391 . S
C602 H592 0.950 . S
C602 C603 1.386 . S
C602 C604 1.391 . S
C603 C602 1.386 . S
C603 C607 1.393 . S
C604 H593 0.950 . S
C604 C602 1.391 . S
C604 C605 1.400 . S
C605 C599 1.491 . S
C605 C604 1.400 . S
C605 C606 1.398 . S
C606 H594 0.950 . S
C606 C605 1.398 . S
C606 C607 1.391 . S
C607 H595 0.950 . S
C607 C603 1.393 . S
C607 C606 1.391 . S
H608 C616 0.950 . S
H609 C621 0.950 . S
H610 C618 0.950 . S
H611 C620 0.950 . S
H612 C622 0.950 . S
H613 C624 0.950 . S
H614 C626 0.950 . S
H615 C627 0.950 . S
C616 H608 0.950 . S
C616 C617 1.386 . S
C616 C618 1.391 . S
C617 C616 1.386 . S
C617 C621 1.393 . S
C618 H610 0.950 . S
C618 C616 1.391 . S
C618 C619 1.400 . S
C619 C618 1.400 . S
C619 C620 1.398 . S
C619 C625 1.491 . S
C620 H611 0.950 . S
C620 C619 1.398 . S
C620 C621 1.391 . S
C621 H609 0.950 . S
C621 C617 1.393 . S
C621 C620 1.391 . S
C622 H612 0.950 . S
C622 C623 1.386 . S
C622 C624 1.391 . S
C623 C622 1.386 . S
C623 C627 1.393 . S
C624 H613 0.950 . S
C624 C622 1.391 . S
C624 C625 1.400 . S
C625 C619 1.491 . S
C625 C624 1.400 . S
C625 C626 1.398 . S
C626 H614 0.950 . S
C626 C625 1.398 . S
C626 C627 1.391 . S
C627 H615 0.950 . S
C627 C623 1.393 . S
C627 C626 1.391 . S
H628 C636 0.950 . S
H629 C641 0.950 . S
H630 C638 0.950 . S
H631 C640 0.950 . S
H632 C642 0.950 . S
H633 C644 0.950 . S
H634 C646 0.950 . S
H635 C647 0.950 . S
C636 H628 0.950 . S
C636 C637 1.386 . S
C636 C638 1.391 . S
C637 C636 1.386 . S
C637 C641 1.393 . S
C638 H630 0.950 . S
C638 C636 1.391 . S
C638 C639 1.400 . S
C639 C638 1.400 . S
C639 C640 1.398 . S
C639 C645 1.491 . S
C640 H631 0.950 . S
C640 C639 1.398 . S
C640 C641 1.391 . S
C641 H629 0.950 . S
C641 C637 1.393 . S
C641 C640 1.391 . S
C642 H632 0.950 . S
C642 C643 1.386 . S
C642 C644 1.391 . S
C643 C642 1.386 . S
C643 C647 1.393 . S
C644 H633 0.950 . S
C644 C642 1.391 . S
C644 C645 1.400 . S
C645 C639 1.491 . S
C645 C644 1.400 . S
C645 C646 1.398 . S
C646 H634 0.950 . S
C646 C645 1.398 . S
C646 C647 1.391 . S
C647 H635 0.950 . S
C647 C643 1.393 . S
C647 C646 1.391 . S
H648 C656 0.950 . S
H649 C661 0.950 . S
H650 C658 0.950 . S
H651 C660 0.950 . S
H652 C662 0.950 . S
H653 C664 0.950 . S
H654 C666 0.950 . S
H655 C667 0.950 . S
C656 H648 0.950 . S
C656 C657 1.386 . S
C656 C658 1.391 . S
C657 C656 1.386 . S
C657 C661 1.393 . S
C658 H650 0.950 . S
C658 C656 1.391 . S
C658 C659 1.400 . S
C659 C658 1.400 . S
C659 C660 1.398 . S
C659 C665 1.491 . S
C660 H651 0.950 . S
C660 C659 1.398 . S
C660 C661 1.391 . S
C661 H649 0.950 . S
C661 C657 1.393 . S
C661 C660 1.391 . S
C662 H652 0.950 . S
C662 C663 1.386 . S
C662 C664 1.391 . S
C663 C662 1.386 . S
C663 C667 1.393 . S
C664 H653 0.950 . S
C664 C662 1.391 . S
C664 C665 1.400 . S
C665 C659 1.491 . S
C665 C664 1.400 . S
C665 C666 1.398 . S
C666 H654 0.950 . S
C666 C665 1.398 . S
C666 C667 1.391 . S
C667 H655 0.950 . S
C667 C663 1.393 . S
C667 C666 1.391 . S
H668 C676 0.950 . S
H669 C681 0.950 . S
H670 C678 0.950 . S
H671 C680 0.950 . S
H672 C682 0.950 . S
H673 C684 0.950 . S
H674 C686 0.950 . S
H675 C687 0.950 . S
C676 H668 0.950 . S
C676 C677 1.386 . S
C676 C678 1.391 . S
C677 C676 1.386 . S
C677 C681 1.393 . S
C678 H670 0.950 . S
C678 C676 1.391 . S
C678 C679 1.400 . S
C679 C678 1.400 . S
C679 C680 1.398 . S
C679 C685 1.491 . S
C680 H671 0.950 . S
C680 C679 1.398 . S
C680 C681 1.391 . S
C681 H669 0.950 . S
C681 C677 1.393 . S
C681 C680 1.391 . S
C682 H672 0.950 . S
C682 C683 1.386 . S
C682 C684 1.391 . S
C683 C682 1.386 . S
C683 C687 1.393 . S
C684 H673 0.950 . S
C684 C682 1.391 . S
C684 C685 1.400 . S
C685 C679 1.491 . S
C685 C684 1.400 . S
C685 C686 1.398 . S
C686 H674 0.950 . S
C686 C685 1.398 . S
C686 C687 1.391 . S
C687 H675 0.950 . S
C687 C683 1.393 . S
C687 C686 1.391 . S
H688 C696 0.950 . S
H689 C701 0.950 . S
H690 C698 0.950 . S
H691 C700 0.950 . S
H692 C702 0.950 . S
H693 C704 0.950 . S
H694 C706 0.950 . S
H695 C707 0.950 . S
C696 H688 0.950 . S
C696 C697 1.386 . S
C696 C698 1.391 . S
C697 C696 1.386 . S
C697 C701 1.393 . S
C698 H690 0.950 . S
C698 C696 1.391 . S
C698 C699 1.400 . S
C699 C698 1.400 . S
C699 C700 1.398 . S
C699 C705 1.491 . S
C700 H691 0.950 . S
C700 C699 1.398 . S
C700 C701 1.391 . S
C701 H689 0.950 . S
C701 C697 1.393 . S
C701 C700 1.391 . S
C702 H692 0.950 . S
C702 C703 1.386 . S
C702 C704 1.391 . S
C703 C702 1.386 . S
C703 C707 1.393 . S
C704 H693 0.950 . S
C704 C702 1.391 . S
C704 C705 1.400 . S
C705 C699 1.491 . S
C705 C704 1.400 . S
C705 C706 1.398 . S
C706 H694 0.950 . S
C706 C705 1.398 . S
C706 C707 1.391 . S
C707 H695 0.950 . S
C707 C703 1.393 . S
C707 C706 1.391 . S
H708 C716 0.950 . S
H709 C721 0.950 . S
H710 C718 0.950 . S
H711 C720 0.950 . S
H712 C722 0.950 . S
H713 C724 0.950 . S
H714 C726 0.950 . S
H715 C727 0.950 . S
C716 H708 0.950 . S
C716 C717 1.386 . S
C716 C718 1.391 . S
C717 C716 1.386 . S
C717 C721 1.393 . S
C718 H710 0.950 . S
C718 C716 1.391 . S
C718 C719 1.400 . S
C719 C718 1.400 . S
C719 C720 1.398 . S
C719 C725 1.491 . S
C720 H711 0.950 . S
C720 C719 1.398 . S
C720 C721 1.391 . S
C721 H709 0.950 . S
C721 C717 1.393 . S
C721 C720 1.391 . S
C722 H712 0.950 . S
C722 C723 1.386 . S
C722 C724 1.391 . S
C723 C722 1.386 . S
C723 C727 1.393 . S
C724 H713 0.950 . S
C724 C722 1.391 . S
C724 C725 1.400 . S
C725 C719 1.491 . S
C725 C724 1.400 . S
C725 C726 1.398 . S
C726 H714 0.950 . S
C726 C725 1.398 . S
C726 C727 1.391 . S
C727 H715 0.950 . S
C727 C723 1.393 . S
C727 C726 1.391 . S
H728 C736 0.950 . S
H729 C741 0.950 . S
H730 C738 0.950 . S
H731 C740 0.950 . S
H732 C742 0.950 . S
H733 C744 0.950 . S
H734 C746 0.950 . S
H735 C747 0.950 . S
C736 H728 0.950 . S
C736 C737 1.386 . S
C736 C738 1.391 . S
C737 C736 1.386 . S
C737 C741 1.393 . S
C738 H730 0.950 . S
C738 C736 1.391 . S
C738 C739 1.400 . S
C739 C738 1.400 . S
C739 C740 1.398 . S
C739 C745 1.491 . S
C740 H731 0.950 . S
C740 C739 1.398 . S
C740 C741 1.391 . S
C741 H729 0.950 . S
C741 C737 1.393 . S
C741 C740 1.391 . S
C742 H732 0.950 . S
C742 C743 1.386 . S
C742 C744 1.391 . S
C743 C742 1.386 . S
C743 C747 1.393 . S
C744 H733 0.950 . S
C744 C742 1.391 . S
C744 C745 1.400 . S
C745 C739 1.491 . S
C745 C744 1.400 . S
C745 C746 1.398 . S
C746 H734 0.950 . S
C746 C745 1.398 . S
C746 C747 1.391 . S
C747 H735 0.950 . S
C747 C743 1.393 . S
C747 C746 1.391 . S
H748 C756 0.950 . S
H749 C761 0.950 . S
H750 C758 0.950 . S
H751 C760 0.950 . S
H752 C762 0.950 . S
H753 C764 0.950 . S
H754 C766 0.950 . S
H755 C767 0.950 . S
C756 H748 0.950 . S
C756 C757 1.386 . S
C756 C758 1.391 . S
C757 C756 1.386 . S
C757 C761 1.393 . S
C758 H750 0.950 . S
C758 C756 1.391 . S
C758 C759 1.400 . S
C759 C758 1.400 . S
C759 C760 1.398 . S
C759 C765 1.491 . S
C760 H751 0.950 . S
C760 C759 1.398 . S
C760 C761 1.391 . S
C761 H749 0.950 . S
C761 C757 1.393 . S
C761 C760 1.391 . S
C762 H752 0.950 . S
C762 C763 1.386 . S
C762 C764 1.391 . S
C763 C762 1.386 . S
C763 C767 1.393 . S
C764 H753 0.950 . S
C764 C762 1.391 . S
C764 C765 1.400 . S
C765 C759 1.491 . S
C765 C764 1.400 . S
C765 C766 1.398 . S
C766 H754 0.950 . S
C766 C765 1.398 . S
C766 C767 1.391 . S
C767 H755 0.950 . S
C767 C763 1.393 . S
C767 C766 1.391 . S
H768 C776 0.950 . S
H769 C781 0.950 . S
H770 C778 0.950 . S
H771 C780 0.950 . S
H772 C782 0.950 . S
H773 C784 0.950 . S
H774 C786 0.950 . S
H775 C787 0.950 . S
C776 H768 0.950 . S
C776 C777 1.386 . S
C776 C778 1.391 . S
C777 C776 1.386 . S
C777 C781 1.393 . S
C778 H770 0.950 . S
C778 C776 1.391 . S
C778 C779 1.400 . S
C779 C778 1.400 . S
C779 C780 1.398 . S
C779 C785 1.491 . S
C780 H771 0.950 . S
C780 C779 1.398 . S
C780 C781 1.391 . S
C781 H769 0.950 . S
C781 C777 1.393 . S
C781 C780 1.391 . S
C782 H772 0.950 . S
C782 C783 1.386 . S
C782 C784 1.391 . S
C783 C782 1.386 . S
C783 C787 1.393 . S
C784 H773 0.950 . S
C784 C782 1.391 . S
C784 C785 1.400 . S
C785 C779 1.491 . S
C785 C784 1.400 . S
C785 C786 1.398 . S
C786 H774 0.950 . S
C786 C785 1.398 . S
C786 C787 1.391 . S
C787 H775 0.950 . S
C787 C783 1.393 . S
C787 C786 1.391 . S
H788 C796 0.950 . S
H789 C801 0.950 . S
H790 C798 0.950 . S
H791 C800 0.950 . S
H792 C802 0.950 . S
H793 C804 0.950 . S
H794 C806 0.950 . S
H795 C807 0.950 . S
C796 H788 0.950 . S
C796 C797 1.386 . S
C796 C798 1.391 . S
C797 C796 1.386 . S
C797 C801 1.393 . S
C798 H790 0.950 . S
C798 C796 1.391 . S
C798 C799 1.400 . S
C799 C798 1.400 . S
C799 C800 1.398 . S
C799 C805 1.491 . S
C800 H791 0.950 . S
C800 C799 1.398 . S
C800 C801 1.391 . S
C801 H789 0.950 . S
C801 C797 1.393 . S
C801 C800 1.391 . S
C802 H792 0.950 . S
C802 C803 1.386 . S
C802 C804 1.391 . S
C803 C802 1.386 . S
C803 C807 1.393 . S
C804 H793 0.950 . S
C804 C802 1.391 . S
C804 C805 1.400 . S
C805 C799 1.491 . S
C805 C804 1.400 . S
C805 C806 1.398 . S
C806 H794 0.950 . S
C806 C805 1.398 . S
C806 C807 1.391 . S
C807 H795 0.950 . S
C807 C803 1.393 . S
C807 C806 1.391 . S
H808 C816 0.950 . S
H809 C821 0.950 . S
H810 C818 0.950 . S
H811 C820 0.950 . S
H812 C822 0.950 . S
H813 C824 0.950 . S
H814 C826 0.950 . S
H815 C827 0.950 . S
C816 H808 0.950 . S
C816 C817 1.386 . S
C816 C818 1.391 . S
C817 C816 1.386 . S
C817 C821 1.393 . S
C818 H810 0.950 . S
C818 C816 1.391 . S
C818 C819 1.400 . S
C819 C818 1.400 . S
C819 C820 1.398 . S
C819 C825 1.491 . S
C820 H811 0.950 . S
C820 C819 1.398 . S
C820 C821 1.391 . S
C821 H809 0.950 . S
C821 C817 1.393 . S
C821 C820 1.391 . S
C822 H812 0.950 . S
C822 C823 1.386 . S
C822 C824 1.391 . S
C823 C822 1.386 . S
C823 C827 1.393 . S
C824 H813 0.950 . S
C824 C822 1.391 . S
C824 C825 1.400 . S
C825 C819 1.491 . S
C825 C824 1.400 . S
C825 C826 1.398 . S
C826 H814 0.950 . S
C826 C825 1.398 . S
C826 C827 1.391 . S
C827 H815 0.950 . S
C827 C823 1.393 . S
C827 C826 1.391 . S
H828 C836 0.950 . S
H829 C841 0.950 . S
H830 C838 0.950 . S
H831 C840 0.950 . S
H832 C842 0.950 . S
H833 C844 0.950 . S
H834 C846 0.950 . S
H835 C847 0.950 . S
C836 H828 0.950 . S
C836 C837 1.386 . S
C836 C838 1.391 . S
C837 C836 1.386 . S
C837 C841 1.393 . S
C838 H830 0.950 . S
C838 C836 1.391 . S
C838 C839 1.400 . S
C839 C838 1.400 . S
C839 C840 1.398 . S
C839 C845 1.491 . S
C840 H831 0.950 . S
C840 C839 1.398 . S
C840 C841 1.391 . S
C841 H829 0.950 . S
C841 C837 1.393 . S
C841 C840 1.391 . S
C842 H832 0.950 . S
C842 C843 1.386 . S
C842 C844 1.391 . S
C843 C842 1.386 . S
C843 C847 1.393 . S
C844 H833 0.950 . S
C844 C842 1.391 . S
C844 C845 1.400 . S
C845 C839 1.491 . S
C845 C844 1.400 . S
C845 C846 1.398 . S
C846 H834 0.950 . S
C846 C845 1.398 . S
C846 C847 1.391 . S
C847 H835 0.950 . S
C847 C843 1.393 . S
C847 C846 1.391 . S
H848 C856 0.950 . S
H849 C861 0.950 . S
H850 C858 0.950 . S
H851 C860 0.950 . S
H852 C862 0.950 . S
H853 C864 0.950 . S
H854 C866 0.950 . S
H855 C867 0.950 . S
C856 H848 0.950 . S
C856 C857 1.386 . S
C856 C858 1.391 . S
C857 C856 1.386 . S
C857 C861 1.393 . S
C858 H850 0.950 . S
C858 C856 1.391 . S
C858 C859 1.400 . S
C859 C858 1.400 . S
C859 C860 1.398 . S
C859 C865 1.491 . S
C860 H851 0.950 . S
C860 C859 1.398 . S
C860 C861 1.391 . S
C861 H849 0.950 . S
C861 C857 1.393 . S
C861 C860 1.391 . S
C862 H852 0.950 . S
C862 C863 1.386 . S
C862 C864 1.391 . S
C863 C862 1.386 . S
C863 C867 1.393 . S
C864 H853 0.950 . S
C864 C862 1.391 . S
C864 C865 1.400 . S
C865 C859 1.491 . S
C865 C864 1.400 . S
C865 C866 1.398 . S
C866 H854 0.950 . S
C866 C865 1.398 . S
C866 C867 1.391 . S
C867 H855 0.950 . S
C867 C863 1.393 . S
C867 C866 1.391 . S
H868 C876 0.950 . S
H869 C881 0.950 . S
H870 C878 0.950 . S
H871 C880 0.950 . S
H872 C882 0.950 . S
H873 C884 0.950 . S
H874 C886 0.950 . S
H875 C887 0.950 . S
C876 H868 0.950 . S
C876 C877 1.386 . S
C876 C878 1.391 . S
C877 C876 1.386 . S
C877 C881 1.393 . S
C878 H870 0.950 . S
C878 C876 1.391 . S
C878 C879 1.400 . S
C879 C878 1.400 . S
C879 C880 1.398 . S
C879 C885 1.491 . S
C880 H871 0.950 . S
C880 C879 1.398 . S
C880 C881 1.391 . S
C881 H869 0.950 . S
C881 C877 1.393 . S
C881 C880 1.391 . S
C882 H872 0.950 . S
C882 C883 1.386 . S
C882 C884 1.391 . S
C883 C882 1.386 . S
C883 C887 1.393 . S
C884 H873 0.950 . S
C884 C882 1.391 . S
C884 C885 1.400 . S
C885 C879 1.491 . S
C885 C884 1.400 . S
C885 C886 1.398 . S
C886 H874 0.950 . S
C886 C885 1.398 . S
C886 C887 1.391 . S
C887 H875 0.950 . S
C887 C883 1.393 . S
C887 C886 1.391 . S
H888 C896 0.958 . S
H889 C901 0.950 . S
H890 C898 0.950 1_455 S
H891 C900 0.950 . S
H892 C902 0.950 . S
H893 C904 0.950 . S
H894 C906 0.950 . S
H895 C907 0.950 . S
C896 H888 0.958 . S
C896 C897 1.386 . S
C896 C898 1.391 . S
C897 C896 1.386 . S
C897 C901 1.393 . S
C898 H890 0.950 1_655 S
C898 C896 1.391 . S
C898 C899 1.400 . S
C899 C898 1.400 . S
C899 C900 1.398 . S
C899 C905 1.491 . S
C900 H891 0.950 . S
C900 C899 1.398 . S
C900 C901 1.391 . S
C901 H889 0.950 . S
C901 C897 1.393 . S
C901 C900 1.391 . S
C902 H892 0.950 . S
C902 C903 1.385 . S
C902 C904 1.391 . S
C903 C902 1.385 . S
C903 C907 1.393 1_655 S
C904 H893 0.950 . S
C904 C902 1.391 . S
C904 C905 1.400 . S
C905 C899 1.491 . S
C905 C904 1.400 . S
C905 C906 1.398 1_655 S
C906 H894 0.950 . S
C906 C905 1.398 1_455 S
C906 C907 1.391 . S
C907 H895 0.950 . S
C907 C903 1.393 1_455 S
C907 C906 1.391 . S
H908 C916 0.950 . S
H909 C921 0.950 . S
H910 C918 0.950 . S
H911 C920 0.950 . S
H912 C922 0.950 . S
H913 C924 0.950 . S
H914 C926 0.950 . S
H915 C927 0.950 . S
C916 H908 0.950 . S
C916 C917 1.386 . S
C916 C918 1.391 . S
C917 C916 1.386 . S
C917 C921 1.393 . S
C918 H910 0.950 . S
C918 C916 1.391 . S
C918 C919 1.400 . S
C919 C918 1.400 . S
C919 C920 1.398 . S
C919 C925 1.491 . S
C920 H911 0.950 . S
C920 C919 1.398 . S
C920 C921 1.391 . S
C921 H909 0.950 . S
C921 C917 1.393 . S
C921 C920 1.391 . S
C922 H912 0.950 . S
C922 C923 1.386 . S
C922 C924 1.391 . S
C923 C922 1.386 . S
C923 C927 1.393 . S
C924 H913 0.950 . S
C924 C922 1.391 . S
C924 C925 1.400 . S
C925 C919 1.491 . S
C925 C924 1.400 . S
C925 C926 1.398 . S
C926 H914 0.950 . S
C926 C925 1.398 . S
C926 C927 1.391 . S
C927 H915 0.950 . S
C927 C923 1.393 . S
C927 C926 1.391 . S
H928 C936 0.950 . S
H929 C941 0.950 . S
H930 C938 0.950 . S
H931 C940 0.950 . S
H932 C942 0.950 . S
H933 C944 0.950 . S
H934 C946 0.950 . S
H935 C947 0.950 . S
C936 H928 0.950 . S
C936 C937 1.386 . S
C936 C938 1.391 . S
C937 C936 1.386 . S
C937 C941 1.393 . S
C938 H930 0.950 . S
C938 C936 1.391 . S
C938 C939 1.400 . S
C939 C938 1.400 . S
C939 C940 1.398 . S
C939 C945 1.491 . S
C940 H931 0.950 . S
C940 C939 1.398 . S
C940 C941 1.391 . S
C941 H929 0.950 . S
C941 C937 1.393 . S
C941 C940 1.391 . S
C942 H932 0.950 . S
C942 C943 1.386 . S
C942 C944 1.391 . S
C943 C942 1.386 . S
C943 C947 1.393 . S
C944 H933 0.950 . S
C944 C942 1.391 . S
C944 C945 1.400 . S
C945 C939 1.491 . S
C945 C944 1.400 . S
C945 C946 1.398 . S
C946 H934 0.950 . S
C946 C945 1.398 . S
C946 C947 1.391 . S
C947 H935 0.950 . S
C947 C943 1.393 . S
C947 C946 1.391 . S
H948 C956 0.950 . S
H949 C961 0.950 . S
H950 C958 0.950 . S
H951 C960 0.950 . S
H952 C962 0.950 . S
H953 C964 0.950 . S
H954 C966 0.950 . S
H955 C967 0.950 . S
C956 H948 0.950 . S
C956 C957 1.386 . S
C956 C958 1.391 . S
C957 C956 1.386 . S
C957 C961 1.393 . S
C958 H950 0.950 . S
C958 C956 1.391 . S
C958 C959 1.400 . S
C959 C958 1.400 . S
C959 C960 1.398 . S
C959 C965 1.491 . S
C960 H951 0.950 . S
C960 C959 1.398 . S
C960 C961 1.391 . S
C961 H949 0.950 . S
C961 C957 1.393 . S
C961 C960 1.391 . S
C962 H952 0.950 . S
C962 C963 1.386 . S
C962 C964 1.391 . S
C963 C962 1.386 . S
C963 C967 1.393 . S
C964 H953 0.950 . S
C964 C962 1.391 . S
C964 C965 1.400 . S
C965 C959 1.491 . S
C965 C964 1.400 . S
C965 C966 1.398 . S
C966 H954 0.950 . S
C966 C965 1.398 . S
C966 C967 1.391 . S
C967 H955 0.950 . S
C967 C963 1.393 . S
C967 C966 1.391 . S
H968 C976 0.950 . S
H969 C981 0.950 . S
H970 C978 0.950 . S
H971 C980 0.950 . S
H972 C982 0.950 . S
H973 C984 0.947 1_455 S
H974 C986 0.950 . S
H975 C987 0.950 . S
C976 H968 0.950 . S
C976 C977 1.386 . S
C976 C978 1.391 . S
C977 C976 1.386 . S
C977 C981 1.393 . S
C978 H970 0.950 . S
C978 C976 1.391 . S
C978 C979 1.400 . S
C979 C978 1.400 . S
C979 C980 1.398 . S
C979 C985 1.491 . S
C980 H971 0.950 . S
C980 C979 1.398 . S
C980 C981 1.391 . S
C981 H969 0.950 . S
C981 C977 1.393 . S
C981 C980 1.391 . S
C982 H972 0.950 . S
C982 C983 1.386 1_455 S
C982 C984 1.391 1_455 S
C983 C982 1.386 1_655 S
C983 C987 1.393 . S
C984 H973 0.947 1_655 S
C984 C982 1.391 1_655 S
C984 C985 1.400 . S
C985 C979 1.491 . S
C985 C984 1.400 . S
C985 C986 1.398 . S
C986 H974 0.950 . S
C986 C985 1.398 . S
C986 C987 1.391 . S
C987 H975 0.950 . S
C987 C983 1.393 . S
C987 C986 1.391 . S
H988 C996 0.950 . S
H989 C1001 0.950 . S
H990 C998 0.950 . S
H991 C1000 0.950 1_545 S
H992 C1002 0.950 . S
H993 C1004 0.950 . S
H994 C1006 0.950 . S
H995 C1007 0.950 . S
C996 H988 0.950 . S
C996 C997 1.386 . S
C996 C998 1.391 . S
C997 C996 1.386 . S
C997 C1001 1.393 . S
C998 H990 0.950 . S
C998 C996 1.391 . S
C998 C999 1.400 . S
C999 C998 1.400 . S
C999 C1000 1.398 . S
C999 C1005 1.491 . S
C1000 H991 0.950 1_565 S
C1000 C999 1.398 . S
C1000 C1001 1.391 . S
C1001 H989 0.950 . S
C1001 C997 1.393 . S
C1001 C1000 1.391 . S
C1002 H992 0.950 . S
C1002 C1003 1.377 1_545 S
C1002 C1004 1.391 . S
C1003 C1002 1.377 1_565 S
C1003 C1007 1.405 . S
C1004 H993 0.950 . S
C1004 C1002 1.391 . S
C1004 C1005 1.400 1_545 S
C1005 C999 1.491 . S
C1005 C1004 1.400 1_565 S
C1005 C1006 1.398 . S
C1006 H994 0.950 . S
C1006 C1005 1.398 . S
C1006 C1007 1.391 . S
C1007 H995 0.950 . S
C1007 C1003 1.405 . S
C1007 C1006 1.391 . S
H1008 C1016 0.950 . S
H1009 C1021 0.950 . S
H1010 C1018 0.950 . S
H1011 C1020 0.950 . S
H1012 C1022 0.950 . S
H1013 C1024 0.950 . S
H1014 C1026 0.950 . S
H1015 C1027 0.950 . S
C1016 H1008 0.950 . S
C1016 C1017 1.386 . S
C1016 C1018 1.391 . S
C1017 C1016 1.386 . S
C1017 C1021 1.393 . S
C1018 H1010 0.950 . S
C1018 C1016 1.391 . S
C1018 C1019 1.400 . S
C1019 C1018 1.400 . S
C1019 C1020 1.398 . S
C1019 C1025 1.491 . S
C1020 H1011 0.950 . S
C1020 C1019 1.398 . S
C1020 C1021 1.391 . S
C1021 H1009 0.950 . S
C1021 C1017 1.393 . S
C1021 C1020 1.391 . S
C1022 H1012 0.950 . S
C1022 C1023 1.386 . S
C1022 C1024 1.391 . S
C1023 C1022 1.386 . S
C1023 C1027 1.393 . S
C1024 H1013 0.950 . S
C1024 C1022 1.391 . S
C1024 C1025 1.400 . S
C1025 C1019 1.491 . S
C1025 C1024 1.400 . S
C1025 C1026 1.398 . S
C1026 H1014 0.950 . S
C1026 C1025 1.398 . S
C1026 C1027 1.391 . S
C1027 H1015 0.950 . S
C1027 C1023 1.393 . S
C1027 C1026 1.391 . S
H1028 C1036 0.950 . S
H1029 C1041 0.950 . S
H1030 C1038 0.950 . S
H1031 C1040 0.950 . S
H1032 C1042 0.950 . S
H1033 C1044 0.950 . S
H1034 C1046 0.950 . S
H1035 C1047 0.950 . S
C1036 H1028 0.950 . S
C1036 C1037 1.386 . S
C1036 C1038 1.391 . S
C1037 C1036 1.386 . S
C1037 C1041 1.393 . S
C1038 H1030 0.950 . S
C1038 C1036 1.391 . S
C1038 C1039 1.400 . S
C1039 C1038 1.400 . S
C1039 C1040 1.398 . S
C1039 C1045 1.491 . S
C1040 H1031 0.950 . S
C1040 C1039 1.398 . S
C1040 C1041 1.391 . S
C1041 H1029 0.950 . S
C1041 C1037 1.393 . S
C1041 C1040 1.391 . S
C1042 H1032 0.950 . S
C1042 C1043 1.386 . S
C1042 C1044 1.391 . S
C1043 C1042 1.386 . S
C1043 C1047 1.393 . S
C1044 H1033 0.950 . S
C1044 C1042 1.391 . S
C1044 C1045 1.400 . S
C1045 C1039 1.491 . S
C1045 C1044 1.400 . S
C1045 C1046 1.398 . S
C1046 H1034 0.950 . S
C1046 C1045 1.398 . S
C1046 C1047 1.391 . S
C1047 H1035 0.950 . S
C1047 C1043 1.393 . S
C1047 C1046 1.391 . S
H1048 C1056 0.950 . S
H1049 C1061 0.950 . S
H1050 C1058 0.950 . S
H1051 C1060 0.950 . S
H1052 C1062 0.944 1_655 S
H1053 C1064 0.950 1_655 S
H1054 C1066 0.950 . S
H1055 C1067 0.950 . S
C1056 H1048 0.950 . S
C1056 C1057 1.383 . S
C1056 C1058 1.391 . S
C1057 C1056 1.383 . S
C1057 C1061 1.394 1_455 S
C1058 H1050 0.950 . S
C1058 C1056 1.391 . S
C1058 C1059 1.400 . S
C1059 C1058 1.400 . S
C1059 C1060 1.398 1_455 S
C1059 C1065 1.491 . S
C1060 H1051 0.950 . S
C1060 C1059 1.398 1_655 S
C1060 C1061 1.391 . S
C1061 H1049 0.950 . S
C1061 C1057 1.394 1_655 S
C1061 C1060 1.391 . S
C1062 H1052 0.944 1_455 S
C1062 C1063 1.386 . S
C1062 C1064 1.391 . S
C1063 C1062 1.386 . S
C1063 C1067 1.393 . S
C1064 H1053 0.950 1_455 S
C1064 C1062 1.391 . S
C1064 C1065 1.400 . S
C1065 C1059 1.491 . S
C1065 C1064 1.400 . S
C1065 C1066 1.398 . S
C1066 H1054 0.950 . S
C1066 C1065 1.398 . S
C1066 C1067 1.391 . S
C1067 H1055 0.950 . S
C1067 C1063 1.393 . S
C1067 C1066 1.391 . S
H1068 C1076 0.950 . S
H1069 C1081 0.950 . S
H1070 C1078 0.950 . S
H1071 C1080 0.950 . S
H1072 C1082 0.950 . S
H1073 C1084 0.950 . S
H1074 C1086 0.950 . S
H1075 C1087 0.950 . S
C1076 H1068 0.950 . S
C1076 C1077 1.386 1_545 S
C1076 C1078 1.391 . S
C1077 C1076 1.386 1_565 S
C1077 C1081 1.393 . S
C1078 H1070 0.950 . S
C1078 C1076 1.391 . S
C1078 C1079 1.400 . S
C1079 C1078 1.400 . S
C1079 C1080 1.398 1_545 S
C1079 C1085 1.491 . S
C1080 H1071 0.950 . S
C1080 C1079 1.398 1_565 S
C1080 C1081 1.391 . S
C1081 H1069 0.950 . S
C1081 C1077 1.393 . S
C1081 C1080 1.391 . S
C1082 H1072 0.950 . S
C1082 C1083 1.386 . S
C1082 C1084 1.391 . S
C1083 C1082 1.386 . S
C1083 C1087 1.393 . S
C1084 H1073 0.950 . S
C1084 C1082 1.391 . S
C1084 C1085 1.400 . S
C1085 C1079 1.491 . S
C1085 C1084 1.400 . S
C1085 C1086 1.398 . S
C1086 H1074 0.950 . S
C1086 C1085 1.398 . S
C1086 C1087 1.391 . S
C1087 H1075 0.950 . S
C1087 C1083 1.393 . S
C1087 C1086 1.391 . S
H1088 C1096 0.950 . S
H1089 C1101 0.950 . S
H1090 C1098 0.950 . S
H1091 C1100 0.950 . S
H1092 C1102 0.950 . S
H1093 C1104 0.950 . S
H1094 C1106 0.950 . S
H1095 C1107 0.950 . S
C1096 H1088 0.950 . S
C1096 C1097 1.386 . S
C1096 C1098 1.391 . S
C1097 C1096 1.386 . S
C1097 C1101 1.393 . S
C1098 H1090 0.950 . S
C1098 C1096 1.391 . S
C1098 C1099 1.400 . S
C1099 C1098 1.400 . S
C1099 C1100 1.398 . S
C1099 C1105 1.491 . S
C1100 H1091 0.950 . S
C1100 C1099 1.398 . S
C1100 C1101 1.391 . S
C1101 H1089 0.950 . S
C1101 C1097 1.393 . S
C1101 C1100 1.391 . S
C1102 H1092 0.950 . S
C1102 C1103 1.386 . S
C1102 C1104 1.391 . S
C1103 C1102 1.386 . S
C1103 C1107 1.393 . S
C1104 H1093 0.950 . S
C1104 C1102 1.391 . S
C1104 C1105 1.400 . S
C1105 C1099 1.491 . S
C1105 C1104 1.400 . S
C1105 C1106 1.398 . S
C1106 H1094 0.950 . S
C1106 C1105 1.398 . S
C1106 C1107 1.391 . S
C1107 H1095 0.950 . S
C1107 C1103 1.393 . S
C1107 C1106 1.391 . S
H1108 C1116 0.950 . S
H1109 C1121 0.950 . S
H1110 C1118 0.950 . S
H1111 C1120 0.950 . S
H1112 C1122 0.950 . S
H1113 C1124 0.950 . S
H1114 C1126 0.950 . S
H1115 C1127 0.950 . S
C1116 H1108 0.950 . S
C1116 C1117 1.386 . S
C1116 C1118 1.391 . S
C1117 C1116 1.386 . S
C1117 C1121 1.393 . S
C1118 H1110 0.950 . S
C1118 C1116 1.391 . S
C1118 C1119 1.400 . S
C1119 C1118 1.400 . S
C1119 C1120 1.398 . S
C1119 C1125 1.491 . S
C1120 H1111 0.950 . S
C1120 C1119 1.398 . S
C1120 C1121 1.391 . S
C1121 H1109 0.950 . S
C1121 C1117 1.393 . S
C1121 C1120 1.391 . S
C1122 H1112 0.950 . S
C1122 C1123 1.386 . S
C1122 C1124 1.391 . S
C1123 C1122 1.386 . S
C1123 C1127 1.393 . S
C1124 H1113 0.950 . S
C1124 C1122 1.391 . S
C1124 C1125 1.400 . S
C1125 C1119 1.491 . S
C1125 C1124 1.400 . S
C1125 C1126 1.398 . S
C1126 H1114 0.950 . S
C1126 C1125 1.398 . S
C1126 C1127 1.391 . S
C1127 H1115 0.950 . S
C1127 C1123 1.393 . S
C1127 C1126 1.391 . S
H1128 C1136 0.950 . S
H1129 C1141 0.950 . S
H1130 C1138 0.950 . S
H1131 C1140 0.950 . S
H1132 C1142 0.950 . S
H1133 C1144 0.950 1_655 S
H1134 C1146 0.950 . S
H1135 C1147 0.950 . S
C1136 H1128 0.950 . S
C1136 C1137 1.386 1_455 S
C1136 C1138 1.391 . S
C1137 C1136 1.386 1_655 S
C1137 C1141 1.393 . S
C1138 H1130 0.950 . S
C1138 C1136 1.391 . S
C1138 C1139 1.400 . S
C1139 C1138 1.400 . S
C1139 C1140 1.398 1_455 S
C1139 C1145 1.491 . S
C1140 H1131 0.950 . S
C1140 C1139 1.398 1_655 S
C1140 C1141 1.391 . S
C1141 H1129 0.950 . S
C1141 C1137 1.393 . S
C1141 C1140 1.391 . S
C1142 H1132 0.950 . S
C1142 C1143 1.386 . S
C1142 C1144 1.391 . S
C1143 C1142 1.386 . S
C1143 C1147 1.393 . S
C1144 H1133 0.950 1_455 S
C1144 C1142 1.391 . S
C1144 C1145 1.400 . S
C1145 C1139 1.491 . S
C1145 C1144 1.400 . S
C1145 C1146 1.398 . S
C1146 H1134 0.950 . S
C1146 C1145 1.398 . S
C1146 C1147 1.391 . S
C1147 H1135 0.950 . S
C1147 C1143 1.393 . S
C1147 C1146 1.391 . S
H1148 C1156 0.950 . S
H1149 C1161 0.950 . S
H1150 C1158 0.950 . S
H1151 C1160 0.959 . S
H1152 C1162 0.950 . S
H1153 C1164 0.950 . S
H1154 C1166 0.950 . S
H1155 C1167 0.950 . S
C1156 H1148 0.950 . S
C1156 C1157 1.386 . S
C1156 C1158 1.391 . S
C1157 C1156 1.386 . S
C1157 C1161 1.393 . S
C1158 H1150 0.950 . S
C1158 C1156 1.391 . S
C1158 C1159 1.400 . S
C1159 C1158 1.400 . S
C1159 C1160 1.398 . S
C1159 C1165 1.491 . S
C1160 H1151 0.959 . S
C1160 C1159 1.398 . S
C1160 C1161 1.391 . S
C1161 H1149 0.950 . S
C1161 C1157 1.393 . S
C1161 C1160 1.391 . S
C1162 H1152 0.950 . S
C1162 C1163 1.377 1_565 S
C1162 C1164 1.391 . S
C1163 C1162 1.377 1_545 S
C1163 C1167 1.410 . S
C1164 H1153 0.950 . S
C1164 C1162 1.391 . S
C1164 C1165 1.400 1_565 S
C1165 C1159 1.491 . S
C1165 C1164 1.400 1_545 S
C1165 C1166 1.398 . S
C1166 H1154 0.950 . S
C1166 C1165 1.398 . S
C1166 C1167 1.391 . S
C1167 H1155 0.950 . S
C1167 C1163 1.410 . S
C1167 C1166 1.391 . S
H1168 C1176 0.950 . S
H1169 C1181 0.950 . S
H1170 C1178 0.950 1_545 S
H1171 C1180 0.950 1_554 S
H1172 C1182 0.950 . S
H1173 C1184 0.950 1_565 S
H1174 C1186 0.950 1_556 S
H1175 C1187 0.950 . S
C1176 H1168 0.950 . S
C1176 C1177 1.386 . S
C1176 C1178 1.391 . S
C1177 C1176 1.386 . S
C1177 C1181 1.393 . S
C1178 H1170 0.950 1_565 S
C1178 C1176 1.391 . S
C1178 C1179 1.400 . S
C1179 C1178 1.400 . S
C1179 C1180 1.398 . S
C1179 C1185 1.491 1_566 S
C1180 H1171 0.950 1_556 S
C1180 C1179 1.398 . S
C1180 C1181 1.391 . S
C1181 H1169 0.950 . S
C1181 C1177 1.393 . S
C1181 C1180 1.391 . S
C1182 H1172 0.950 . S
C1182 C1183 1.386 . S
C1182 C1184 1.391 . S
C1183 C1182 1.386 . S
C1183 C1187 1.393 . S
C1184 H1173 0.950 1_545 S
C1184 C1182 1.391 . S
C1184 C1185 1.400 . S
C1185 C1179 1.491 1_544 S
C1185 C1184 1.400 . S
C1185 C1186 1.398 . S
C1186 H1174 0.950 1_554 S
C1186 C1185 1.398 . S
C1186 C1187 1.391 . S
C1187 H1175 0.950 . S
C1187 C1183 1.393 . S
C1187 C1186 1.391 . S
H1188 C1196 0.950 . S
H1189 C1201 0.950 . S
H1190 C1198 0.950 . S
H1191 C1200 0.950 . S
H1192 C1202 0.950 . S
H1193 C1204 0.950 . S
H1194 C1206 0.950 . S
H1195 C1207 0.950 . S
C1196 H1188 0.950 . S
C1196 C1197 1.386 . S
C1196 C1198 1.391 . S
C1197 C1196 1.386 . S
C1197 C1201 1.393 . S
C1198 H1190 0.950 . S
C1198 C1196 1.391 . S
C1198 C1199 1.400 . S
C1199 C1198 1.400 . S
C1199 C1200 1.398 . S
C1199 C1205 1.491 . S
C1200 H1191 0.950 . S
C1200 C1199 1.398 . S
C1200 C1201 1.391 . S
C1201 H1189 0.950 . S
C1201 C1197 1.393 . S
C1201 C1200 1.391 . S
C1202 H1192 0.950 . S
C1202 C1203 1.386 . S
C1202 C1204 1.391 . S
C1203 C1202 1.386 . S
C1203 C1207 1.393 . S
C1204 H1193 0.950 . S
C1204 C1202 1.391 . S
C1204 C1205 1.400 . S
C1205 C1199 1.491 . S
C1205 C1204 1.400 . S
C1205 C1206 1.398 . S
C1206 H1194 0.950 . S
C1206 C1205 1.398 . S
C1206 C1207 1.391 . S
C1207 H1195 0.950 . S
C1207 C1203 1.393 . S
C1207 C1206 1.391 . S
H1208 C1216 0.950 . S
H1209 C1221 0.950 . S
H1210 C1218 0.950 1_655 S
H1211 C1220 0.950 1_556 S
H1212 C1222 0.950 . S
H1213 C1224 0.950 1_455 S
H1214 C1226 0.950 1_554 S
H1215 C1227 0.950 . S
C1216 H1208 0.950 . S
C1216 C1217 1.386 . S
C1216 C1218 1.391 . S
C1217 C1216 1.386 . S
C1217 C1221 1.393 . S
C1218 H1210 0.950 1_455 S
C1218 C1216 1.391 . S
C1218 C1219 1.400 . S
C1219 C1218 1.400 . S
C1219 C1220 1.398 . S
C1219 C1225 1.491 1_454 S
C1220 H1211 0.950 1_554 S
C1220 C1219 1.398 . S
C1220 C1221 1.391 . S
C1221 H1209 0.950 . S
C1221 C1217 1.393 . S
C1221 C1220 1.391 . S
C1222 H1212 0.950 . S
C1222 C1223 1.386 . S
C1222 C1224 1.391 . S
C1223 C1222 1.386 . S
C1223 C1227 1.393 . S
C1224 H1213 0.950 1_655 S
C1224 C1222 1.391 . S
C1224 C1225 1.400 . S
C1225 C1219 1.491 1_656 S
C1225 C1224 1.400 . S
C1225 C1226 1.398 . S
C1226 H1214 0.950 1_556 S
C1226 C1225 1.398 . S
C1226 C1227 1.391 . S
C1227 H1215 0.950 . S
C1227 C1223 1.393 . S
C1227 C1226 1.391 . S
H1228 C1236 0.950 . S
H1229 C1241 0.950 . S
H1230 C1238 0.950 1_455 S
H1231 C1240 0.950 . S
H1232 C1242 0.950 . S
H1233 C1244 0.950 1_655 S
H1234 C1246 0.950 . S
H1235 C1247 0.950 . S
C1236 H1228 0.950 . S
C1236 C1237 1.386 1_545 S
C1236 C1238 1.391 . S
C1237 C1236 1.386 1_565 S
C1237 C1241 1.393 . S
C1238 H1230 0.950 1_655 S
C1238 C1236 1.391 . S
C1238 C1239 1.400 1_545 S
C1239 C1238 1.400 1_565 S
C1239 C1240 1.398 . S
C1239 C1245 1.491 1_665 S
C1240 H1231 0.950 . S
C1240 C1239 1.398 . S
C1240 C1241 1.391 . S
C1241 H1229 0.950 . S
C1241 C1237 1.393 . S
C1241 C1240 1.391 . S
C1242 H1232 0.950 . S
C1242 C1243 1.386 1_565 S
C1242 C1244 1.391 . S
C1243 C1242 1.386 1_545 S
C1243 C1247 1.393 . S
C1244 H1233 0.950 1_455 S
C1244 C1242 1.391 . S
C1244 C1245 1.400 1_565 S
C1245 C1239 1.491 1_445 S
C1245 C1244 1.400 1_545 S
C1245 C1246 1.398 . S
C1246 H1234 0.950 . S
C1246 C1245 1.398 . S
C1246 C1247 1.391 . S
C1247 H1235 0.950 . S
C1247 C1243 1.393 . S
C1247 C1246 1.391 . S
H1248 C1256 0.950 . S
H1249 C1261 0.950 . S
H1250 C1258 0.950 . S
H1251 C1260 0.950 1_554 S
H1252 C1262 0.950 . S
H1253 C1264 0.950 . S
H1254 C1266 0.950 1_556 S
H1255 C1267 0.950 . S
C1256 H1248 0.950 . S
C1256 C1257 1.386 . S
C1256 C1258 1.391 . S
C1257 C1256 1.386 . S
C1257 C1261 1.393 . S
C1258 H1250 0.950 . S
C1258 C1256 1.391 . S
C1258 C1259 1.400 . S
C1259 C1258 1.400 . S
C1259 C1260 1.398 . S
C1259 C1265 1.491 1_556 S
C1260 H1251 0.950 1_556 S
C1260 C1259 1.398 . S
C1260 C1261 1.391 . S
C1261 H1249 0.950 . S
C1261 C1257 1.393 . S
C1261 C1260 1.391 . S
C1262 H1252 0.950 . S
C1262 C1263 1.386 . S
C1262 C1264 1.391 . S
C1263 C1262 1.386 . S
C1263 C1267 1.393 . S
C1264 H1253 0.950 . S
C1264 C1262 1.391 . S
C1264 C1265 1.400 . S
C1265 C1259 1.491 1_554 S
C1265 C1264 1.400 . S
C1265 C1266 1.398 . S
C1266 H1254 0.950 1_554 S
C1266 C1265 1.398 . S
C1266 C1267 1.391 . S
C1267 H1255 0.950 . S
C1267 C1263 1.393 . S
C1267 C1266 1.391 . S
H1268 C1276 0.950 . S
H1269 C1281 0.950 . S
H1270 C1278 0.950 . S
H1271 C1280 0.950 . S
H1272 C1282 0.950 . S
H1273 C1284 0.950 . S
H1274 C1286 0.950 . S
H1275 C1287 0.950 . S
C1276 H1268 0.950 . S
C1276 C1277 1.386 . S
C1276 C1278 1.391 . S
C1277 C1276 1.386 . S
C1277 C1281 1.393 . S
C1278 H1270 0.950 . S
C1278 C1276 1.391 . S
C1278 C1279 1.400 . S
C1279 C1278 1.400 . S
C1279 C1280 1.398 . S
C1279 C1285 1.491 1_455 S
C1280 H1271 0.950 . S
C1280 C1279 1.398 . S
C1280 C1281 1.391 . S
C1281 H1269 0.950 . S
C1281 C1277 1.393 . S
C1281 C1280 1.391 . S
C1282 H1272 0.950 . S
C1282 C1283 1.386 . S
C1282 C1284 1.391 . S
C1283 C1282 1.386 . S
C1283 C1287 1.393 . S
C1284 H1273 0.950 . S
C1284 C1282 1.391 . S
C1284 C1285 1.400 . S
C1285 C1279 1.491 1_655 S
C1285 C1284 1.400 . S
C1285 C1286 1.398 . S
C1286 H1274 0.950 . S
C1286 C1285 1.398 . S
C1286 C1287 1.391 . S
C1287 H1275 0.950 . S
C1287 C1283 1.393 . S
C1287 C1286 1.391 . S
H1288 C1296 0.950 . S
H1289 C1301 0.950 . S
H1290 C1298 0.950 1_556 S
H1291 C1300 0.950 1_445 S
H1292 C1302 0.950 . S
H1293 C1304 0.950 1_554 S
H1294 C1306 0.950 1_665 S
H1295 C1307 0.950 . S
C1296 H1288 0.950 . S
C1296 C1297 1.386 . S
C1296 C1298 1.391 . S
C1297 C1296 1.386 . S
C1297 C1301 1.393 . S
C1298 H1290 0.950 1_554 S
C1298 C1296 1.391 . S
C1298 C1299 1.400 . S
C1299 C1298 1.400 . S
C1299 C1300 1.398 . S
C1299 C1305 1.491 1_664 S
C1300 H1291 0.950 1_665 S
C1300 C1299 1.398 . S
C1300 C1301 1.391 . S
C1301 H1289 0.950 . S
C1301 C1297 1.393 . S
C1301 C1300 1.391 . S
C1302 H1292 0.950 . S
C1302 C1303 1.386 . S
C1302 C1304 1.391 . S
C1303 C1302 1.386 . S
C1303 C1307 1.393 . S
C1304 H1293 0.950 1_556 S
C1304 C1302 1.391 . S
C1304 C1305 1.400 . S
C1305 C1299 1.491 1_446 S
C1305 C1304 1.400 . S
C1305 C1306 1.398 . S
C1306 H1294 0.950 1_445 S
C1306 C1305 1.398 . S
C1306 C1307 1.391 . S
C1307 H1295 0.950 . S
C1307 C1303 1.393 . S
C1307 C1306 1.391 . S
H1308 C1316 0.950 . S
H1309 C1321 0.950 . S
H1310 C1318 0.950 . S
H1311 C1320 0.949 1_565 S
H1312 C1322 0.950 . S
H1313 C1324 0.950 . S
H1314 C1326 0.949 1_545 S
H1315 C1327 0.950 . S
C1316 H1308 0.950 . S
C1316 C1317 1.386 . S
C1316 C1318 1.391 . S
C1317 C1316 1.386 . S
C1317 C1321 1.393 . S
C1318 H1310 0.950 . S
C1318 C1316 1.391 . S
C1318 C1319 1.400 . S
C1319 C1318 1.400 . S
C1319 C1320 1.398 . S
C1319 C1325 1.491 1_545 S
C1320 H1311 0.949 1_545 S
C1320 C1319 1.398 . S
C1320 C1321 1.391 . S
C1321 H1309 0.950 . S
C1321 C1317 1.393 . S
C1321 C1320 1.391 . S
C1322 H1312 0.950 . S
C1322 C1323 1.386 . S
C1322 C1324 1.391 . S
C1323 C1322 1.386 . S
C1323 C1327 1.393 . S
C1324 H1313 0.950 . S
C1324 C1322 1.391 . S
C1324 C1325 1.400 . S
C1325 C1319 1.491 1_565 S
C1325 C1324 1.400 . S
C1325 C1326 1.398 . S
C1326 H1314 0.949 1_565 S
C1326 C1325 1.398 . S
C1326 C1327 1.391 . S
C1327 H1315 0.950 . S
C1327 C1323 1.393 . S
C1327 C1326 1.391 . S
C537 C17 1.585 . S
C543 C248 1.570 . S
C557 C149 1.587 . S
C563 C50 1.571 . S
C577 C83 1.571 . S
C583 C182 1.582 . S
C597 C116 1.571 . S
C603 C215 1.582 . S
C617 C281 1.583 . S
C623 C512 1.571 . S
C637 C314 1.585 . S
C643 C413 1.574 . S
C657 C347 1.586 . S
C663 C446 1.569 . S
C677 C479 1.571 . S
C683 C380 1.582 . S
C697 C8 2.168 . S
C703 C74 2.169 . S
C717 C107 2.166 . S
C723 C41 2.165 . S
C737 C206 2.170 . S
C743 C140 2.169 . S
C757 C173 2.172 . S
C763 C239 2.171 . S
C777 C338 2.169 . S
C783 C272 2.167 . S
C797 C371 2.166 . S
C803 C305 2.168 . S
C817 C470 2.165 . S
C823 C404 2.165 . S
C837 C503 2.168 . S
C843 C437 2.169 . S
C857 N410 0.698 . S
C863 N5 0.685 . S
C877 N443 0.717 . S
C883 N38 0.687 . S
C897 N71 0.679 . S
C903 N476 0.680 . S
C917 N509 0.666 . S
C923 N104 0.678 . S
C937 N137 0.685 . S
C943 N278 0.711 . S
C957 N311 0.685 . S
C963 N170 0.680 . S
C977 N203 0.679 . S
C983 N344 0.667 . S
C997 N236 0.681 . S
C1003 N377 0.683 . S
C1017 N146 0.670 . S
C1023 N269 0.678 . S
C1037 N179 0.702 . S
C1043 N302 0.683 . S
C1057 N212 0.681 . S
C1063 N335 0.679 . S
C1077 N245 0.713 1_565 S
C1083 N368 0.685 . S
C1097 N14 0.707 . S
C1103 N401 0.684 . S
C1117 N47 0.693 . S
C1123 N434 0.681 . S
C1137 N80 0.706 1_655 S
C1143 N467 0.684 . S
C1157 N500 0.678 . S
C1163 N113 0.673 . S
C1177 C292 1.686 . S
C1183 C28 1.686 . S
C1197 C61 1.711 . S
C1203 C325 1.711 . S
C1217 C94 1.712 . S
C1223 C358 1.712 . S
C1237 C391 1.693 . S
C1243 C127 1.693 . S
C1257 C160 1.711 . S
C1263 C424 1.711 . S
C1277 C193 1.699 . S
C1283 C457 1.699 . S
C1297 C490 1.709 . S
C1303 C226 1.709 . S
C1317 C259 1.713 . S
C1323 C523 1.713 . S
