# Generated by pormake.
# Topology fnh, (5)-cn, num edge types: 1
# Building blocks:
#     Node 0, Type 0, BuildingBlock: XOMCOT_clean_sbu_1, # of connection points: 5
#     Node 1, Type 0, BuildingBlock: XOMCOT_clean_sbu_1, # of connection points: 5
#     Node 2, Type 0, BuildingBlock: XOMCOT_clean_sbu_1, # of connection points: 5
#     Node 3, Type 0, BuildingBlock: XOMCOT_clean_sbu_1, # of connection points: 5
#     Node 4, Type 0, BuildingBlock: XOMCOT_clean_sbu_1, # of connection points: 5
#     Node 5, Type 0, BuildingBlock: XOMCOT_clean_sbu_1, # of connection points: 5
#     Node 6, Type 0, BuildingBlock: XOMCOT_clean_sbu_1, # of connection points: 5
#     Node 7, Type 0, BuildingBlock: XOMCOT_clean_sbu_1, # of connection points: 5
#     Node 8, Type 0, BuildingBlock: XOMCOT_clean_sbu_1, # of connection points: 5
#     Node 9, Type 0, BuildingBlock: XOMCOT_clean_sbu_1, # of connection points: 5
#     Node 10, Type 0, BuildingBlock: XOMCOT_clean_sbu_1, # of connection points: 5
#     Node 11, Type 0, BuildingBlock: XOMCOT_clean_sbu_1, # of connection points: 5
#     Node 12, Type 0, BuildingBlock: XOMCOT_clean_sbu_1, # of connection points: 5
#     Node 13, Type 0, BuildingBlock: XOMCOT_clean_sbu_1, # of connection points: 5
#     Node 14, Type 0, BuildingBlock: XOMCOT_clean_sbu_1, # of connection points: 5
#     Node 15, Type 0, BuildingBlock: XOMCOT_clean_sbu_1, # of connection points: 5
#     Node 16, Type 0, BuildingBlock: XOMCOT_clean_sbu_1, # of connection points: 5
#     Node 17, Type 0, BuildingBlock: XOMCOT_clean_sbu_1, # of connection points: 5
#     Edge 18, Type (0, 0), BuildingBlock: XUDNAN_clean_linker_2, # of connection points: 2
#     Edge 19, Type (0, 0), BuildingBlock: XUDNAN_clean_linker_2, # of connection points: 2
#     Edge 20, Type (0, 0), BuildingBlock: XUDNAN_clean_linker_2, # of connection points: 2
#     Edge 21, Type (0, 0), BuildingBlock: XUDNAN_clean_linker_2, # of connection points: 2
#     Edge 22, Type (0, 0), BuildingBlock: XUDNAN_clean_linker_2, # of connection points: 2
#     Edge 23, Type (0, 0), BuildingBlock: XUDNAN_clean_linker_2, # of connection points: 2
#     Edge 24, Type (0, 0), BuildingBlock: XUDNAN_clean_linker_2, # of connection points: 2
#     Edge 25, Type (0, 0), BuildingBlock: XUDNAN_clean_linker_2, # of connection points: 2
#     Edge 26, Type (0, 0), BuildingBlock: XUDNAN_clean_linker_2, # of connection points: 2
#     Edge 27, Type (0, 0), BuildingBlock: XUDNAN_clean_linker_2, # of connection points: 2
#     Edge 28, Type (0, 0), BuildingBlock: XUDNAN_clean_linker_2, # of connection points: 2
#     Edge 29, Type (0, 0), BuildingBlock: XUDNAN_clean_linker_2, # of connection points: 2
#     Edge 30, Type (0, 0), BuildingBlock: XUDNAN_clean_linker_2, # of connection points: 2
#     Edge 31, Type (0, 0), BuildingBlock: XUDNAN_clean_linker_2, # of connection points: 2
#     Edge 32, Type (0, 0), BuildingBlock: XUDNAN_clean_linker_2, # of connection points: 2
#     Edge 33, Type (0, 0), BuildingBlock: XUDNAN_clean_linker_2, # of connection points: 2
#     Edge 34, Type (0, 0), BuildingBlock: XUDNAN_clean_linker_2, # of connection points: 2
#     Edge 35, Type (0, 0), BuildingBlock: XUDNAN_clean_linker_2, # of connection points: 2
#     Edge 36, Type (0, 0), BuildingBlock: XUDNAN_clean_linker_2, # of connection points: 2
#     Edge 37, Type (0, 0), BuildingBlock: XUDNAN_clean_linker_2, # of connection points: 2
#     Edge 38, Type (0, 0), BuildingBlock: XUDNAN_clean_linker_2, # of connection points: 2
#     Edge 39, Type (0, 0), BuildingBlock: XUDNAN_clean_linker_2, # of connection points: 2
#     Edge 40, Type (0, 0), BuildingBlock: XUDNAN_clean_linker_2, # of connection points: 2
#     Edge 41, Type (0, 0), BuildingBlock: XUDNAN_clean_linker_2, # of connection points: 2
#     Edge 42, Type (0, 0), BuildingBlock: XUDNAN_clean_linker_2, # of connection points: 2
#     Edge 43, Type (0, 0), BuildingBlock: XUDNAN_clean_linker_2, # of connection points: 2
#     Edge 44, Type (0, 0), BuildingBlock: XUDNAN_clean_linker_2, # of connection points: 2
#     Edge 45, Type (0, 0), BuildingBlock: XUDNAN_clean_linker_2, # of connection points: 2
#     Edge 46, Type (0, 0), BuildingBlock: XUDNAN_clean_linker_2, # of connection points: 2
#     Edge 47, Type (0, 0), BuildingBlock: XUDNAN_clean_linker_2, # of connection points: 2
#     Edge 48, Type (0, 0), BuildingBlock: XUDNAN_clean_linker_2, # of connection points: 2
#     Edge 49, Type (0, 0), BuildingBlock: XUDNAN_clean_linker_2, # of connection points: 2
#     Edge 50, Type (0, 0), BuildingBlock: XUDNAN_clean_linker_2, # of connection points: 2
#     Edge 51, Type (0, 0), BuildingBlock: XUDNAN_clean_linker_2, # of connection points: 2
#     Edge 52, Type (0, 0), BuildingBlock: XUDNAN_clean_linker_2, # of connection points: 2
#     Edge 53, Type (0, 0), BuildingBlock: XUDNAN_clean_linker_2, # of connection points: 2
#     Edge 54, Type (0, 0), BuildingBlock: XUDNAN_clean_linker_2, # of connection points: 2
#     Edge 55, Type (0, 0), BuildingBlock: XUDNAN_clean_linker_2, # of connection points: 2
#     Edge 56, Type (0, 0), BuildingBlock: XUDNAN_clean_linker_2, # of connection points: 2
#     Edge 57, Type (0, 0), BuildingBlock: XUDNAN_clean_linker_2, # of connection points: 2
#     Edge 58, Type (0, 0), BuildingBlock: XUDNAN_clean_linker_2, # of connection points: 2
#     Edge 59, Type (0, 0), BuildingBlock: XUDNAN_clean_linker_2, # of connection points: 2
#     Edge 60, Type (0, 0), BuildingBlock: XUDNAN_clean_linker_2, # of connection points: 2
#     Edge 61, Type (0, 0), BuildingBlock: XUDNAN_clean_linker_2, # of connection points: 2
#     Edge 62, Type (0, 0), BuildingBlock: XUDNAN_clean_linker_2, # of connection points: 2
# Relax obj value: 0.165
# Max RMSD: 0.171
# Mean RMSD: 0.171
data_MOF--net-fnh--node1-XOMCOT_clean_sbu_1--edge1-XUDNAN_clean_linker_2
_symmetry_space_group_name_H-M    P1
_symmetry_Int_Tables_number       1
_symmetry_cell_setting            triclinic
loop_
_symmetry_equiv_pos_as_xyz
'x, y, z'
_cell_length_a     69.450294
_cell_length_b     69.41874
_cell_length_c     23.738469
_cell_angle_alpha  90.014667
_cell_angle_beta   89.910541
_cell_angle_gamma 120.01362
loop_
_atom_site_label
_atom_site_type_symbol
_atom_site_fract_x
_atom_site_fract_y
_atom_site_fract_z
_atom_type_partial_charge
C0 C 0.06613 0.19344 0.26294 0.0
C1 C 0.05262 0.19567 0.30147 0.0
N2 N 0.06028 0.19519 0.35304 0.0
N3 N 0.08181 0.19107 0.29057 0.0
C4 C 0.07779 0.1922 0.34548 0.0
H5 H 0.06505 0.19444 0.21781 0.0
Co6 Co 0.10577 0.19097 0.25901 0.0
C7 C 0.12682 0.17596 0.35382 0.0
O8 O 0.14598 0.19203 0.33515 0.0
N9 N 0.12997 0.19116 0.22605 0.0
C10 C 0.16378 0.20106 0.19481 0.0
C11 C 0.14917 0.20837 0.20651 0.0
C12 C 0.13298 0.17346 0.22358 0.0
N13 N 0.15365 0.17919 0.20651 0.0
O14 O 0.08415 0.16331 0.21239 0.0
H15 H 0.15273 0.22527 0.20152 0.0
H16 H 0.12054 0.15686 0.23649 0.0
O17 O 0.10874 0.17293 0.3287 0.0
C18 C 0.07933 0.16853 0.16377 0.0
O19 O 0.09075 0.18958 0.14903 0.0
N20 N 0.12483 0.21988 0.29336 0.0
C21 C 0.15124 0.2655 0.32304 0.0
C22 C 0.14649 0.24834 0.36213 0.0
C23 C 0.13291 0.22577 0.34698 0.0
C24 C 0.12784 0.23633 0.25654 0.0
C25 C 0.14112 0.25901 0.26996 0.0
H26 H 0.12872 0.21332 0.37907 0.0
H27 H 0.12032 0.23177 0.21523 0.0
H28 H 0.08774 0.19132 0.37932 0.0
H29 H 0.03879 0.19826 0.29248 0.0
H30 H 0.18035 0.21095 0.17757 0.0
H31 H 0.15293 0.25229 0.40463 0.0
H32 H 0.14385 0.27131 0.23818 0.0
C33 C 0.82378 0.88065 0.27123 0.0
C34 C 0.82176 0.86383 0.30542 0.0
N35 N 0.83683 0.87318 0.34672 0.0
N36 N 0.84017 0.90028 0.29101 0.0
C37 C 0.84786 0.89526 0.33715 0.0
H38 H 0.81389 0.87881 0.23433 0.0
Co39 Co 0.84837 0.92635 0.25508 0.0
C40 C 0.86134 0.9606 0.35146 0.0
O41 O 0.84578 0.96385 0.32992 0.0
N42 N 0.85649 0.95156 0.21432 0.0
C43 C 0.87875 0.98232 0.16663 0.0
C44 C 0.87345 0.97271 0.21932 0.0
C45 C 0.85214 0.94867 0.15898 0.0
N46 N 0.8653 0.96694 0.12908 0.0
O47 O 0.8754 0.92566 0.22049 0.0
H48 H 0.88329 0.97989 0.25673 0.0
H49 H 0.84138 0.93257 0.14023 0.0
O50 O 0.86517 0.946 0.32682 0.0
C51 C 0.87038 0.91194 0.17831 0.0
O52 O 0.84926 0.8999 0.16515 0.0
N53 N 0.81998 0.92363 0.27891 0.0
C54 C 0.7732 0.90328 0.29587 0.0
C55 C 0.78755 0.9054 0.34035 0.0
C56 C 0.81081 0.91567 0.3311 0.0
C57 C 0.8063 0.92324 0.23696 0.0
C58 C 0.78328 0.9136 0.24474 0.0
H59 H 0.82115 0.91542 0.36477 0.0
H60 H 0.81251 0.9287 0.19519 0.0
H61 H 0.86131 0.90741 0.36294 0.0
H62 H 0.80995 0.84624 0.30113 0.0
H63 H 0.89248 0.99864 0.15632 0.0
H64 H 0.78081 0.89786 0.38087 0.0
H65 H 0.77328 0.91315 0.20927 0.0
C66 C 0.15444 0.94882 0.27098 0.0
C67 C 0.17138 0.96632 0.29863 0.0
N68 N 0.16239 0.97362 0.33752 0.0
N69 N 0.13487 0.94516 0.29193 0.0
C70 C 0.1401 0.9605 0.33239 0.0
H71 H 0.15619 0.93919 0.23761 0.0
Co72 Co 0.10919 0.92325 0.26143 0.0
C73 C 0.07737 0.904 0.36439 0.0
O74 O 0.07685 0.88536 0.35134 0.0
N75 N 0.08444 0.90159 0.22565 0.0
C76 C 0.05218 0.87635 0.18895 0.0
C77 C 0.06234 0.88929 0.23556 0.0
C78 C 0.08705 0.89674 0.17248 0.0
N79 N 0.06796 0.88122 0.14976 0.0
O80 O 0.1059 0.94721 0.21724 0.0
H81 H 0.05378 0.89021 0.27247 0.0
H82 H 0.10287 0.90442 0.15075 0.0
O83 O 0.08934 0.92142 0.33258 0.0
C84 C 0.11893 0.95468 0.17338 0.0
O85 O 0.13155 0.94594 0.16348 0.0
N86 N 0.11582 0.90138 0.29489 0.0
C87 C 0.13546 0.87618 0.33331 0.0
C88 C 0.13347 0.89148 0.36861 0.0
C89 C 0.1237 0.90376 0.34885 0.0
C90 C 0.11771 0.88666 0.26004 0.0
C91 C 0.12695 0.87377 0.27847 0.0
H92 H 0.12338 0.91597 0.37649 0.0
H93 H 0.11317 0.88539 0.21641 0.0
H94 H 0.12783 0.96161 0.35817 0.0
H95 H 0.18893 0.97308 0.29053 0.0
H96 H 0.03453 0.86514 0.18318 0.0
H97 H 0.14018 0.89479 0.41083 0.0
H98 H 0.12772 0.86228 0.24902 0.0
C99 C 0.2125 0.07464 0.75926 0.0
C100 C 0.21576 0.06284 0.71779 0.0
N101 N 0.20423 0.06274 0.67218 0.0
N102 N 0.19888 0.08172 0.73982 0.0
C103 C 0.19402 0.07418 0.68671 0.0
H104 H 0.2205 0.07879 0.79998 0.0
Co105 Co 0.19376 0.10133 0.77835 0.0
C106 C 0.17853 0.12298 0.68656 0.0
O107 O 0.19363 0.14196 0.70853 0.0
N108 N 0.1889 0.12065 0.82037 0.0
C109 C 0.16863 0.13073 0.8714 0.0
C110 C 0.17096 0.12339 0.81954 0.0
C111 C 0.19701 0.12624 0.87293 0.0
N112 N 0.18492 0.13217 0.90481 0.0
O113 O 0.16687 0.07534 0.81836 0.0
H114 H 0.15847 0.11743 0.78694 0.0
H115 H 0.20902 0.12241 0.89061 0.0
O116 O 0.17574 0.10468 0.70978 0.0
C117 C 0.17299 0.06891 0.86309 0.0
O118 O 0.19433 0.07958 0.87463 0.0
N119 N 0.22217 0.12498 0.75003 0.0
C120 C 0.26769 0.15228 0.7195 0.0
C121 C 0.25061 0.14424 0.67884 0.0
C122 C 0.22815 0.13023 0.69465 0.0
C123 C 0.23869 0.13234 0.78958 0.0
C124 C 0.26124 0.14601 0.77555 0.0
H125 H 0.21585 0.12278 0.6618 0.0
H126 H 0.23473 0.1264 0.83221 0.0
H127 H 0.18435 0.0781 0.65817 0.0
H128 H 0.22614 0.05534 0.72063 0.0
H129 H 0.15468 0.13241 0.88529 0.0
H130 H 0.25462 0.1479 0.63462 0.0
H131 H 0.27357 0.15135 0.80864 0.0
C132 C 0.96257 0.14851 0.77896 0.0
C133 C 0.97886 0.16574 0.74855 0.0
N134 N 0.98049 0.15757 0.69861 0.0
N135 N 0.95435 0.12962 0.7485 0.0
C136 C 0.96549 0.13564 0.69946 0.0
H137 H 0.95658 0.14982 0.81997 0.0
Co138 Co 0.93132 0.10341 0.77358 0.0
C139 C 0.91327 0.07003 0.67421 0.0
O140 O 0.89398 0.0671 0.69119 0.0
N141 N 0.90801 0.07719 0.80095 0.0
C142 C 0.87538 0.04875 0.82637 0.0
C143 C 0.88703 0.07125 0.81644 0.0
C144 C 0.90881 0.05824 0.80307 0.0
N145 N 0.88912 0.04065 0.81726 0.0
O146 O 0.95397 0.09865 0.81961 0.0
H147 H 0.88028 0.0822 0.82 0.0
H148 H 0.92353 0.05729 0.79309 0.0
O149 O 0.93106 0.08478 0.70109 0.0
C150 C 0.9588 0.10845 0.86856 0.0
O151 O 0.94686 0.11727 0.88509 0.0
N152 N 0.91135 0.11189 0.7391 0.0
C153 C 0.8882 0.13388 0.70267 0.0
C154 C 0.8966 0.12434 0.66405 0.0
C155 C 0.90861 0.11412 0.68286 0.0
C156 C 0.90384 0.12148 0.77701 0.0
C157 C 0.89207 0.13213 0.76007 0.0
H158 H 0.91643 0.10891 0.65181 0.0
H159 H 0.90764 0.1215 0.82121 0.0
H160 H 0.9625 0.12431 0.66489 0.0
H161 H 0.9882 0.18303 0.76117 0.0
H162 H 0.85841 0.03926 0.84138 0.0
H163 H 0.89443 0.12513 0.61917 0.0
H164 H 0.88696 0.13978 0.79201 0.0
C165 C 0.8964 0.8421 0.77601 0.0
C166 C 0.88261 0.84364 0.73738 0.0
N167 N 0.88887 0.84068 0.68605 0.0
N168 N 0.91148 0.83866 0.74869 0.0
C169 C 0.90644 0.83783 0.69383 0.0
H170 H 0.89453 0.84218 0.82109 0.0
Co171 Co 0.9309 0.83136 0.78042 0.0
C172 C 0.97077 0.84724 0.69329 0.0
O173 O 0.97394 0.83126 0.71209 0.0
N174 N 0.94977 0.82317 0.81413 0.0
C175 C 0.963 0.80218 0.84701 0.0
C176 C 0.94453 0.80219 0.82763 0.0
C177 C 0.97135 0.83579 0.82825 0.0
N178 N 0.97992 0.82329 0.84715 0.0
O179 O 0.94084 0.85785 0.83466 0.0
H180 H 0.92836 0.78755 0.82381 0.0
H181 H 0.98057 0.85372 0.82429 0.0
O182 O 0.95493 0.84954 0.71633 0.0
C183 C 0.92983 0.85166 0.88184 0.0
O184 O 0.91769 0.83011 0.89027 0.0
N185 N 0.917 0.80367 0.73827 0.0
C186 C 0.89434 0.75755 0.71501 0.0
C187 C 0.91268 0.77257 0.68218 0.0
C188 C 0.92375 0.79567 0.69425 0.0
C189 C 0.89775 0.78949 0.76599 0.0
C190 C 0.88647 0.76654 0.75574 0.0
H191 H 0.93803 0.80662 0.66938 0.0
H192 H 0.89221 0.7958 0.80029 0.0
H193 H 0.91493 0.83435 0.66051 0.0
H194 H 0.86838 0.84558 0.74635 0.0
H195 H 0.96381 0.7877 0.86046 0.0
H196 H 0.91918 0.76643 0.64966 0.0
H197 H 0.87228 0.75573 0.78176 0.0
C198 C 0.73922 0.53034 0.63292 0.0
C199 C 0.7265 0.52698 0.68024 0.0
N200 N 0.72755 0.5115 0.71241 0.0
N201 N 0.74814 0.51704 0.63555 0.0
C202 C 0.74032 0.50543 0.68349 0.0
H203 H 0.74289 0.54267 0.60053 0.0
Co204 Co 0.76971 0.51824 0.58904 0.0
C205 C 0.7952 0.50743 0.68317 0.0
O206 O 0.81201 0.52762 0.67558 0.0
N207 N 0.7909 0.51947 0.54 0.0
C208 C 0.81973 0.52123 0.495 0.0
C209 C 0.80894 0.5171 0.54588 0.0
C210 C 0.7907 0.5243 0.48515 0.0
N211 N 0.80821 0.52588 0.45725 0.0
O212 O 0.74574 0.49065 0.54605 0.0
H213 H 0.81401 0.51235 0.58368 0.0
H214 H 0.77833 0.52738 0.4663 0.0
O215 O 0.77793 0.50065 0.65019 0.0
C216 C 0.7349 0.49614 0.51077 0.0
O217 O 0.74023 0.51716 0.51062 0.0
N218 N 0.79096 0.54742 0.62083 0.0
C219 C 0.81622 0.59282 0.65549 0.0
C220 C 0.80406 0.57548 0.6944 0.0
C221 C 0.79154 0.55314 0.67637 0.0
C222 C 0.80231 0.56416 0.58255 0.0
C223 C 0.8152 0.58656 0.59884 0.0
H224 H 0.78193 0.54051 0.70731 0.0
H225 H 0.80083 0.56063 0.53815 0.0
H226 H 0.74533 0.49403 0.69918 0.0
H227 H 0.71809 0.53603 0.69108 0.0
H228 H 0.8345 0.52024 0.48596 0.0
H229 H 0.80351 0.57904 0.73854 0.0
H230 H 0.82408 0.59887 0.56653 0.0
C231 C 0.48746 0.21177 0.59278 0.0
C232 C 0.48874 0.19411 0.61431 0.0
N233 N 0.50533 0.20209 0.65228 0.0
N234 N 0.50303 0.23067 0.61754 0.0
C235 C 0.51375 0.22432 0.65336 0.0
H236 H 0.47569 0.21091 0.5617 0.0
Co237 Co 0.50709 0.25824 0.60205 0.0
C238 C 0.54016 0.29135 0.68745 0.0
O239 O 0.55152 0.30281 0.64324 0.0
N240 N 0.51012 0.28569 0.58658 0.0
C241 C 0.50538 0.31482 0.59827 0.0
C242 C 0.50569 0.29751 0.6246 0.0
C243 C 0.51195 0.29584 0.53708 0.0
N244 N 0.50909 0.3136 0.54325 0.0
O245 O 0.53537 0.26483 0.55731 0.0
H246 H 0.50149 0.29303 0.66836 0.0
H247 H 0.51424 0.28969 0.4972 0.0
O248 O 0.52301 0.27174 0.67894 0.0
C249 C 0.53028 0.25407 0.5096 0.0
O250 O 0.50918 0.24366 0.49542 0.0
N251 N 0.47815 0.24907 0.63291 0.0
C252 C 0.4322 0.23205 0.65371 0.0
C253 C 0.44705 0.2349 0.69793 0.0
C254 C 0.47003 0.24344 0.68663 0.0
C255 C 0.46389 0.24589 0.58981 0.0
C256 C 0.44121 0.23759 0.59913 0.0
H257 H 0.48114 0.24523 0.72067 0.0
H258 H 0.47022 0.24955 0.54715 0.0
H259 H 0.52684 0.23565 0.68128 0.0
H260 H 0.47805 0.17674 0.60381 0.0
H261 H 0.50127 0.32646 0.61741 0.0
H262 H 0.44102 0.23078 0.7408 0.0
H263 H 0.4307 0.2352 0.56311 0.0
C264 C 0.82197 0.28511 0.60344 0.0
C265 C 0.8394 0.30113 0.63344 0.0
N266 N 0.83106 0.30908 0.67223 0.0
N267 N 0.80278 0.28291 0.62352 0.0
C268 C 0.80878 0.29784 0.66532 0.0
H269 H 0.82307 0.27528 0.56954 0.0
Co270 Co 0.77645 0.26259 0.59198 0.0
C271 C 0.74687 0.24501 0.70215 0.0
O272 O 0.74942 0.22757 0.69904 0.0
N273 N 0.75083 0.24231 0.55589 0.0
C274 C 0.72186 0.21145 0.5231 0.0
C275 C 0.73271 0.22289 0.571 0.0
C276 C 0.75027 0.24256 0.49937 0.0
N277 N 0.73312 0.22402 0.47864 0.0
O278 O 0.77466 0.28843 0.55276 0.0
H279 H 0.72843 0.21638 0.61305 0.0
H280 H 0.76343 0.25498 0.47351 0.0
O281 O 0.75693 0.26073 0.66443 0.0
C282 C 0.78876 0.29763 0.51137 0.0
O283 O 0.80196 0.28965 0.50035 0.0
N284 N 0.7819 0.23898 0.61872 0.0
C285 C 0.80332 0.21351 0.63415 0.0
C286 C 0.80261 0.22691 0.67765 0.0
C287 C 0.79215 0.23972 0.66886 0.0
C288 C 0.78176 0.22523 0.57715 0.0
C289 C 0.79198 0.21233 0.5842 0.0
H290 H 0.79358 0.25132 0.70125 0.0
H291 H 0.77535 0.22541 0.53596 0.0
H292 H 0.79708 0.29989 0.6912 0.0
H293 H 0.85681 0.30637 0.62768 0.0
H294 H 0.70755 0.19486 0.52091 0.0
H295 H 0.81139 0.22875 0.71671 0.0
H296 H 0.792 0.20235 0.54916 0.0
C297 C 0.86701 0.39716 0.10679 0.0
C298 C 0.86787 0.3829 0.0682 0.0
N299 N 0.86554 0.38954 0.01673 0.0
N300 N 0.86408 0.41252 0.07932 0.0
C301 C 0.86316 0.40741 0.02454 0.0
H302 H 0.86986 0.39716 0.15149 0.0
Co303 Co 0.86773 0.43816 0.10967 0.0
C304 C 0.85097 0.45968 0.01846 0.0
O305 O 0.86608 0.47914 0.038 0.0
N306 N 0.87215 0.4643 0.1422 0.0
C307 C 0.88842 0.4993 0.17114 0.0
C308 C 0.89186 0.48237 0.15495 0.0
C309 C 0.85689 0.47034 0.15343 0.0
N310 N 0.8664 0.49183 0.16982 0.0
O311 O 0.84072 0.41934 0.1609 0.0
H312 H 0.90792 0.48362 0.15162 0.0
H313 H 0.83922 0.45928 0.14802 0.0
O314 O 0.84923 0.44191 0.0424 0.0
C315 C 0.8468 0.41491 0.20874 0.0
O316 O 0.86823 0.42579 0.21949 0.0
N317 N 0.89603 0.45425 0.07034 0.0
C318 C 0.94164 0.4782 0.03984 0.0
C319 C 0.92525 0.47914 1.00684 0.0
C320 C 0.90253 0.46665 0.02195 0.0
C321 C 0.91162 0.4521 0.10063 0.0
C322 C 0.93429 0.46379 0.08629 0.0
H323 H 0.89056 0.46726 0.99454 0.0
H324 H 0.90651 0.44194 0.13825 0.0
H325 H 0.86254 0.41757 0.9908 0.0
H326 H 0.87069 0.36921 0.07701 0.0
H327 H 0.90133 0.51591 0.18221 0.0
H328 H 0.92997 0.48952 0.96956 0.0
H329 H 0.9461 0.46234 0.11313 0.0
C330 C 0.62092 0.47719 0.09716 0.0
C331 C 0.64212 0.49075 0.07734 0.0
N332 N 0.64921 0.47773 0.05387 0.0
N333 N 0.61475 0.4559 0.08505 0.0
C334 C 0.63226 0.45669 0.05902 0.0
H335 H 0.6108 0.48237 0.12003 0.0
Co336 Co 0.59 0.43155 0.11145 0.0
C337 C 0.57895 0.40402 0.99643 0.0
O338 O 0.56625 0.41193 0.98023 0.0
N339 N 0.56506 0.40719 0.13986 0.0
C340 C 0.53082 0.37865 0.15049 0.0
C341 C 0.54736 0.39087 0.11239 0.0
C342 C 0.55898 0.40458 0.19426 0.0
N343 N 0.53813 0.38761 0.20161 0.0
O344 O 0.61069 0.42553 0.1624 0.0
H345 H 0.54573 0.38864 0.06748 0.0
H346 H 0.56933 0.41551 0.22747 0.0
O347 O 0.58941 0.41068 0.0445 0.0
C348 C 0.6184 0.43925 0.20482 0.0
O349 O 0.61051 0.45283 0.21093 0.0
N350 N 0.57132 0.44135 0.07297 0.0
C351 C 0.54792 0.46317 0.03677 0.0
C352 C 0.56425 0.46252 1.00268 0.0
C353 C 0.57613 0.45218 0.02211 0.0
C354 C 0.55598 0.44258 0.10707 0.0
C355 C 0.54408 0.45302 0.08978 0.0
H356 H 0.58961 0.45339 0.99658 0.0
H357 H 0.55347 0.43643 0.14966 0.0
H358 H 0.63252 0.44208 0.04417 0.0
H359 H 0.65159 0.50871 0.08018 0.0
H360 H 0.51443 0.36487 0.14115 0.0
H361 H 0.56844 0.47067 0.962 0.0
H362 H 0.532 0.45324 0.11828 0.0
C363 C 0.55502 0.17436 0.09246 0.0
C364 C 0.54088 0.17225 0.04955 0.0
N365 N 0.55201 0.17584 1.00072 0.0
N366 N 0.57487 0.17927 0.07043 0.0
C367 C 0.57262 0.18033 1.01445 0.0
H368 H 0.55044 0.17064 0.13626 0.0
Co369 Co 0.596 0.17609 0.10804 0.0
C370 C 0.63563 0.19164 0.02136 0.0
O371 O 0.63713 0.17447 0.0387 0.0
N372 N 0.61663 0.17212 0.14786 0.0
C373 C 0.63214 0.15573 0.19447 0.0
C374 C 0.61251 0.15366 0.17659 0.0
C375 C 0.63878 0.18578 0.15213 0.0
N376 N 0.64867 0.17577 0.17809 0.0
O377 O 0.60202 0.20282 0.1588 0.0
H378 H 0.59635 0.13952 0.18493 0.0
H379 H 0.64758 0.20245 0.13488 0.0
O380 O 0.62047 0.19498 0.0448 0.0
C381 C 0.58988 0.19655 0.20435 0.0
O382 O 0.57816 0.17501 0.21348 0.0
N383 N 0.58579 0.14789 0.06885 0.0
C384 C 0.56527 0.10306 0.0308 0.0
C385 C 0.58039 0.12095 0.99663 0.0
C386 C 0.5901 0.14315 1.01587 0.0
C387 C 0.56986 0.13086 0.10041 0.0
C388 C 0.55994 0.10853 0.08318 0.0
H389 H 0.60047 0.15627 0.98708 0.0
H390 H 0.56482 0.13464 0.14012 0.0
H391 H 0.58504 0.18215 0.98401 0.0
H392 H 0.52348 0.16732 0.05362 0.0
H393 H 0.63406 0.14372 0.2193 0.0
H394 H 0.58469 0.11792 0.95501 0.0
H395 H 0.54768 0.09571 0.11031 0.0
C396 C 0.41882 0.88009 0.94002 0.0
C397 C 0.40463 0.88117 0.97819 0.0
N398 N 0.40179 0.8672 0.02083 0.0
N399 N 0.4247 0.86537 0.95827 0.0
C400 C 0.41396 0.8576 1.00742 0.0
H401 H 0.42541 0.89027 0.90272 0.0
Co402 Co 0.44589 0.86173 0.92219 0.0
C403 C 0.46595 0.85129 0.02966 0.0
O404 O 0.4824 0.87186 0.02647 0.0
N405 N 0.46697 0.85845 0.88271 0.0
C406 C 0.49857 0.8631 0.84658 0.0
C407 C 0.48728 0.8615 0.89573 0.0
C408 C 0.46611 0.85759 0.82621 0.0
N409 N 0.48503 0.86062 0.80347 0.0
O410 O 0.42093 0.83347 0.88279 0.0
H411 H 0.49434 0.86431 0.93725 0.0
H412 H 0.45287 0.85718 0.80161 0.0
O413 O 0.45003 0.84466 0.99237 0.0
C414 C 0.41167 0.83837 0.84167 0.0
O415 O 0.41906 0.8596 0.83268 0.0
N416 N 0.46844 0.89156 0.94837 0.0
C417 C 0.49218 0.93876 0.96218 0.0
C418 C 0.47937 0.92447 1.00631 0.0
C419 C 0.4676 0.90107 0.99852 0.0
C420 C 0.48153 0.90539 0.90618 0.0
C421 C 0.49377 0.92855 0.91267 0.0
H422 H 0.4568 0.89074 0.03197 0.0
H423 H 0.48147 0.89891 0.86492 0.0
H424 H 0.41619 0.84634 0.03446 0.0
H425 H 0.39753 0.8919 0.97545 0.0
H426 H 0.51563 0.86684 0.84266 0.0
H427 H 0.47733 0.93127 0.04543 0.0
H428 H 0.50364 0.93843 0.87735 0.0
C429 C 0.18728 0.55027 0.94157 0.0
C430 C 0.18545 0.53564 0.98277 0.0
N431 N 0.18272 0.54336 0.03239 0.0
N432 N 0.18601 0.56725 0.96535 0.0
C433 C 0.1834 0.56267 0.02079 0.0
H434 H 0.18771 0.54761 0.89695 0.0
Co435 Co 0.18087 0.5872 0.92782 0.0
C436 C 0.19755 0.62875 1.011 0.0
O437 O 0.18223 0.63248 0.99005 0.0
N438 N 0.17474 0.60623 0.88805 0.0
C439 C 0.15525 0.6188 0.8435 0.0
C440 C 0.15492 0.60029 0.86423 0.0
C441 C 0.18733 0.62819 0.87813 0.0
N442 N 0.17551 0.63644 0.85337 0.0
O443 O 0.20791 0.59508 0.87646 0.0
H444 H 0.14098 0.58358 0.86185 0.0
H445 H 0.20448 0.63805 0.89132 0.0
O446 O 0.19913 0.61207 0.99067 0.0
C447 C 0.20234 0.58342 0.83023 0.0
O448 O 0.18093 0.5707 0.82079 0.0
N449 N 0.15256 0.57554 0.96761 0.0
C450 C 0.10685 0.55615 0.99534 0.0
C451 C 0.12326 0.5749 0.02435 0.0
C452 C 0.14599 0.58399 1.0109 0.0
C453 C 0.13698 0.55618 0.94262 0.0
C454 C 0.11421 0.54629 0.95563 0.0
H455 H 0.15788 0.5978 0.03538 0.0
H456 H 0.14212 0.54908 0.90933 0.0
H457 H 0.18078 0.57268 0.05142 0.0
H458 H 0.18471 0.51985 0.9762 0.0
H459 H 0.14177 0.6191 0.82147 0.0
H460 H 0.11853 0.58268 0.0569 0.0
H461 H 0.10236 0.53175 0.9323 0.0
C462 C 0.48747 0.62438 0.95252 0.0
C463 C 0.50084 0.6393 0.99247 0.0
N464 N 0.48819 0.64476 0.02395 0.0
N465 N 0.4664 0.61999 0.96027 0.0
C466 C 0.46763 0.63359 1.00202 0.0
H467 H 0.49257 0.61609 0.92254 0.0
Co468 Co 0.44191 0.59723 0.92597 0.0
C469 C 0.41904 0.59279 0.04809 0.0
O470 O 0.43729 0.59832 0.07658 0.0
N471 N 0.41805 0.57424 0.8913 0.0
C472 C 0.38991 0.54004 0.87876 0.0
C473 C 0.4011 0.55657 0.9173 0.0
C474 C 0.41701 0.56808 0.83728 0.0
N475 N 0.40008 0.54724 0.82864 0.0
O476 O 0.43777 0.62064 0.88208 0.0
H477 H 0.39812 0.55483 0.96216 0.0
H478 H 0.42905 0.57832 0.80571 0.0
O479 O 0.42001 0.59323 0.99325 0.0
C480 C 0.45224 0.6292 0.84127 0.0
O481 O 0.46562 0.62112 0.83456 0.0
N482 N 0.44956 0.57583 0.95541 0.0
C483 C 0.46748 0.54713 0.96878 0.0
C484 C 0.45509 0.54986 1.0122 0.0
C485 C 0.44604 0.56409 1.00448 0.0
C486 C 0.46126 0.57301 0.91312 0.0
C487 C 0.47041 0.55919 0.91895 0.0
H488 H 0.43601 0.56513 0.03757 0.0
H489 H 0.46386 0.58199 0.87404 0.0
H490 H 0.45339 0.63379 0.01976 0.0
H491 H 0.51796 0.64407 1.00128 0.0
H492 H 0.37611 0.52358 0.88758 0.0
H493 H 0.45194 0.54067 0.05121 0.0
H494 H 0.47996 0.55816 0.88417 0.0
C495 C 0.54743 0.74361 0.43396 0.0
C496 C 0.54029 0.72359 0.40784 0.0
N497 N 0.52203 0.71882 0.37758 0.0
N498 N 0.5339 0.75148 0.4196 0.0
C499 C 0.51846 0.73601 0.38572 0.0
H500 H 0.56151 0.75184 0.46198 0.0
Co501 Co 0.53592 0.77652 0.44905 0.0
C502 C 0.52149 0.79761 0.35301 0.0
O503 O 0.53913 0.81641 0.36764 0.0
N504 N 0.53842 0.80201 0.48155 0.0
C505 C 0.55258 0.83551 0.51983 0.0
C506 C 0.5562 0.81827 0.50877 0.0
C507 C 0.52363 0.80921 0.47996 0.0
N508 N 0.53224 0.82997 0.50072 0.0
O509 O 0.50872 0.75644 0.49903 0.0
H510 H 0.57086 0.81783 0.52119 0.0
H511 H 0.50706 0.79966 0.4626 0.0
O512 O 0.51747 0.77966 0.38063 0.0
C513 C 0.51443 0.74872 0.54197 0.0
O514 O 0.53586 0.75662 0.54893 0.0
N515 N 0.56433 0.7939 0.41024 0.0
C516 C 0.609 0.8167 0.37008 0.0
C517 C 0.59072 0.81044 0.33357 0.0
C518 C 0.56864 0.7986 0.35408 0.0
C519 C 0.58178 0.79846 0.4451 0.0
C520 C 0.60396 0.81014 0.42658 0.0
H521 H 0.5552 0.79277 0.32419 0.0
H522 H 0.57845 0.79246 0.48804 0.0
H523 H 0.5048 0.73726 0.36793 0.0
H524 H 0.54839 0.71375 0.40956 0.0
H525 H 0.56366 0.85055 0.54261 0.0
H526 H 0.59333 0.81441 0.28915 0.0
H527 H 0.61702 0.81324 0.45627 0.0
C528 C 0.29169 0.81282 0.4349 0.0
C529 C 0.30792 0.82984 0.40408 0.0
N530 N 0.31418 0.82092 0.3625 0.0
N531 N 0.28783 0.79328 0.41315 0.0
C532 C 0.3018 0.79864 0.36923 0.0
H533 H 0.28282 0.81451 0.47029 0.0
Co534 Co 0.26696 0.76672 0.44309 0.0
C535 C 0.25154 0.73942 0.32973 0.0
O536 O 0.23516 0.74368 0.32903 0.0
N537 N 0.24623 0.74046 0.47632 0.0
C538 C 0.21465 0.71052 0.50191 0.0
C539 C 0.22755 0.72254 0.45683 0.0
C540 C 0.2447 0.73855 0.53262 0.0
N541 N 0.22562 0.72085 0.54905 0.0
O542 O 0.2923 0.76488 0.48464 0.0
H543 H 0.22242 0.71931 0.4135 0.0
H544 H 0.25607 0.75115 0.56135 0.0
O545 O 0.26606 0.74788 0.37059 0.0
C546 C 0.29909 0.77792 0.52857 0.0
O547 O 0.28872 0.78899 0.53912 0.0
N548 N 0.24348 0.77244 0.41508 0.0
C549 C 0.2164 0.79239 0.40112 0.0
C550 C 0.23253 0.79524 0.36074 0.0
C551 C 0.24577 0.78518 0.36839 0.0
C552 C 0.22729 0.76904 0.45338 0.0
C553 C 0.21334 0.77802 0.44625 0.0
H554 H 0.25871 0.78873 0.33794 0.0
H555 H 0.22577 0.76059 0.49253 0.0
H556 H 0.3022 0.78643 0.34172 0.0
H557 H 0.31438 0.84739 0.41156 0.0
H558 H 0.1981 0.69613 0.50035 0.0
H559 H 0.23583 0.80612 0.32495 0.0
H560 H 0.20082 0.77435 0.47811 0.0
C561 C 0.22313 0.49158 0.45749 0.0
C562 C 0.20462 0.4896 0.43111 0.0
N563 N 0.21073 0.49783 0.37888 0.0
N564 N 0.24072 0.50145 0.42215 0.0
C565 C 0.23262 0.50501 0.3745 0.0
H566 H 0.22342 0.48525 0.49883 0.0
Co567 Co 0.26827 0.50516 0.4363 0.0
C568 C 0.30134 0.53897 0.35214 0.0
O569 O 0.31199 0.55042 0.397 0.0
N570 N 0.29568 0.50777 0.45029 0.0
C571 C 0.32488 0.50333 0.43582 0.0
C572 C 0.30712 0.50329 0.41116 0.0
C573 C 0.30653 0.50997 0.49879 0.0
N574 N 0.32432 0.50731 0.49088 0.0
O575 O 0.2753 0.53339 0.48107 0.0
H576 H 0.30221 0.49907 0.36766 0.0
H577 H 0.30106 0.51266 0.53924 0.0
O578 O 0.28192 0.5214 0.35967 0.0
C579 C 0.26684 0.52869 0.53161 0.0
O580 O 0.25953 0.50828 0.54946 0.0
N581 N 0.2585 0.47626 0.40481 0.0
C582 C 0.23934 0.43018 0.38267 0.0
C583 C 0.24194 0.44532 0.33947 0.0
C584 C 0.25164 0.46838 0.35139 0.0
C585 C 0.25563 0.46173 0.44701 0.0
C586 C 0.24639 0.43895 0.43692 0.0
H587 H 0.25316 0.47973 0.31818 0.0
H588 H 0.26022 0.46788 0.48959 0.0
H589 H 0.24234 0.51207 0.33664 0.0
H590 H 0.18786 0.48178 0.44775 0.0
H591 H 0.33657 0.49953 0.41559 0.0
H592 H 0.2367 0.43943 0.29692 0.0
H593 H 0.24439 0.42815 0.47208 0.0
H594 H 0.1498 0.11056 0.97314 0.0
H595 H 0.22095 0.1543 0.97044 0.0
H596 H 0.22093 0.1589 0.0735 0.0
H597 H 0.13571 0.1384 0.04441 0.0
H598 H 0.1141 0.11753 0.08837 0.0
H599 H 0.12093 0.10954 0.02345 0.0
H600 H 0.12831 0.0813 0.0765 0.0
H601 H 0.12165 0.08961 0.14239 0.0
H602 H 0.14787 0.09048 0.13388 0.0
H603 H 0.21232 0.17012 0.16053 0.0
H604 H 0.19632 0.18879 0.21499 0.0
H605 H 0.13024 0.13752 0.16835 0.0
C606 C 0.16533 0.12055 0.99514 0.0
C607 C 0.18527 0.13258 0.96489 0.0
C608 C 0.20552 0.14521 0.99368 0.0
C609 C 0.20563 0.14755 0.05216 0.0
C610 C 0.18538 0.13671 0.08104 0.0
C611 C 0.16556 0.12294 0.05346 0.0
C612 C 0.1457 0.11728 0.09047 0.0
C613 C 0.12816 0.12099 0.05986 0.0
C614 C 0.13528 0.09325 0.11211 0.0
C615 C 0.15723 0.13365 0.13783 0.0
C616 C 0.1802 0.14331 0.1341 0.0
C617 C 0.19445 0.16226 0.16499 0.0
C618 C 0.18528 0.17293 0.1954 0.0
C619 C 0.16213 0.16463 0.1944 0.0
C620 C 0.14795 0.1438 0.16996 0.0
H621 H 0.91814 0.03134 0.86558 0.0
H622 H 0.85054 1.00183 0.80624 0.0
H623 H 0.84 0.96891 0.86494 0.0
H624 H 0.91414 0.9728 0.91359 0.0
H625 H 0.93125 0.98756 0.97315 0.0
H626 H 0.9367 1.00094 0.90519 0.0
H627 H 0.93437 0.03345 0.95089 0.0
H628 H 0.9282 0.02011 0.0179 0.0
H629 H 0.90928 0.02789 0.9875 0.0
H630 H 0.83312 0.95055 0.9535 0.0
H631 H 0.83124 0.94673 0.05657 0.0
H632 H 0.90267 0.98854 0.06702 0.0
C633 C 0.90155 0.01717 0.86227 0.0
C634 C 0.88503 0.01901 0.83257 0.0
C635 C 0.86329 1.00064 0.82955 0.0
C636 C 0.85728 0.98181 0.86243 0.0
C637 C 0.87324 0.98177 0.89807 0.0
C638 C 0.8953 0.99874 0.89684 0.0
C639 C 0.90772 0.99831 0.94884 0.0
C640 C 0.92337 0.98935 0.93431 0.0
C641 C 0.92057 0.02128 0.97793 0.0
C642 C 0.88838 0.98167 0.98385 0.0
C643 C 0.86898 0.97112 0.9525 0.0
C644 C 0.84831 0.95798 0.97785 0.0
C645 C 0.84733 0.95614 0.03642 0.0
C646 C 0.86684 0.96767 0.06903 0.0
C647 C 0.88761 0.97983 0.04242 0.0
H648 H 0.04244 0.83919 0.11619 0.0
H649 H 0.08653 0.90604 0.05715 0.0
H650 H 0.07612 0.89372 0.95899 0.0
H651 H 0.04733 0.80944 0.97784 0.0
H652 H 1.01844 0.78859 0.98559 0.0
H653 H 0.03562 0.80035 0.04714 0.0
H654 H 1.00755 0.81129 0.08642 0.0
H655 H 0.99047 0.79958 0.02577 0.0
H656 H 1.00028 0.82825 0.04392 0.0
H657 H 0.05225 0.87842 0.87744 0.0
H658 H 1.01809 0.8612 0.8203 0.0
H659 H 0.99021 0.80331 0.92879 0.0
C660 C 0.05043 0.85081 0.08195 0.0
C661 C 0.065 0.87336 0.09323 0.0
C662 C 0.07537 0.88857 0.0486 0.0
C663 C 0.0697 0.88166 0.99284 0.0
C664 C 0.05414 0.85941 0.98276 0.0
C665 C 0.04509 0.84401 0.02616 0.0
C666 C 0.02579 0.82232 1.00605 0.0
C667 C 0.03219 0.8041 1.00402 0.0
C668 C 1.00482 0.815 0.04263 0.0
C669 C 0.02323 0.8291 0.94734 0.0
C670 C 0.04037 0.85014 0.93354 0.0
C671 C 0.03919 0.86163 0.88663 0.0
C672 C 1.01962 0.8519 0.85487 0.0
C673 C 1.00155 0.83101 0.87058 0.0
C674 C 1.00399 0.81903 0.9151 0.0
H675 H 0.86395 0.87287 0.133 0.0
H676 H 0.91248 0.94312 0.13404 0.0
H677 H 0.93382 0.9367 0.05882 0.0
H678 H 0.90287 0.85253 0.10898 0.0
H679 H 0.88336 0.82989 0.06542 0.0
H680 H 0.8734 0.84059 0.12039 0.0
H681 H 0.84985 0.84739 0.04724 0.0
H682 H 0.85994 0.83698 0.99195 0.0
H683 H 0.86326 0.86437 0.98627 0.0
H684 H 0.9485 0.92082 0.97225 0.0
H685 H 0.95504 0.89851 0.89996 0.0
H686 H 0.89689 0.83916 0.96148 0.0
C687 C 0.87937 0.88696 0.11856 0.0
C688 C 0.88653 0.90855 0.14123 0.0
C689 C 0.90669 0.92634 0.11938 0.0
C690 C 0.91884 0.92278 0.07573 0.0
C691 C 0.91094 0.90123 0.05374 0.0
C692 C 0.89169 0.88364 0.07571 0.0
C693 C 0.88609 0.862 0.04587 0.0
C694 C 0.88646 0.84527 0.08765 0.0
C695 C 0.86345 0.85211 1.01608 0.0
C696 C 0.90498 0.86983 1.00321 0.0
C697 C 0.91922 0.89252 1.00741 0.0
C698 C 0.93737 0.90303 0.96984 0.0
C699 C 0.94102 0.89018 0.92834 0.0
C700 C 0.9268 0.86675 0.92423 0.0
C701 C 0.90854 0.85687 0.96285 0.0
H702 H 0.18485 0.04391 0.92784 0.0
H703 H 0.12776 0.05159 0.89521 0.0
H704 H 0.10719 0.02446 0.97244 0.0
H705 H 0.15469 0.98491 0.95935 0.0
H706 H 0.17441 0.98746 1.01227 0.0
H707 H 0.18334 1.00669 0.95414 0.0
H708 H 0.19872 0.03957 0.02444 0.0
H709 H 0.18955 0.02043 0.08279 0.0
H710 H 0.18048 0.04055 0.07703 0.0
H711 H 0.09344 0.99547 0.06312 0.0
H712 H 0.08859 0.96894 0.14044 0.0
H713 H 0.15533 0.98161 0.10877 0.0
C714 C 0.16788 0.03983 0.9361 0.0
C715 C 0.15811 0.05013 0.90399 0.0
C716 C 0.1358 0.04396 0.91762 0.0
C717 C 0.12402 0.02858 0.96226 0.0
C718 C 0.13449 0.01911 0.99358 0.0
C719 C 0.15599 0.02455 0.97991 0.0
C720 C 0.16411 1.01252 0.01835 0.0
C721 C 0.16945 0.99697 0.98398 0.0
C722 C 0.18441 0.02927 0.05267 0.0
C723 C 0.14402 0.99931 0.05639 0.0
C724 C 0.12694 1.00321 0.0424 0.0
C725 C 0.10692 0.99252 0.07348 0.0
C726 C 0.10428 0.97748 0.11813 0.0
C727 C 0.12148 0.97285 0.132 0.0
C728 C 0.1416 0.9844 0.10022 0.0
H729 H 0.9857 0.14592 0.93001 0.0
H730 H 0.97585 0.08023 0.89811 0.0
H731 H 1.00409 0.08675 0.97187 0.0
H732 H 0.04562 0.17345 0.95285 0.0
H733 H 0.04508 0.19179 1.00578 0.0
H734 H 0.02457 0.18139 0.95058 0.0
H735 H 0.99333 0.16592 0.02564 0.0
H736 H 1.01374 0.17598 0.08107 0.0
H737 H 0.99269 0.14699 0.07857 0.0
H738 H 0.03399 0.10164 0.05964 0.0
H739 H 0.06221 0.12324 0.13363 0.0
H740 H 0.05267 0.17927 0.10185 0.0
C741 C 0.98958 0.13287 0.93776 0.0
C742 C 0.97829 0.11249 0.90692 0.0
C743 C 0.98421 0.09611 0.9196 0.0
C744 C 1.00023 0.09968 0.96229 0.0
C745 C 1.01073 0.11991 0.99243 0.0
C746 C 1.0057 0.13632 0.97938 0.0
C747 C 1.01922 0.15688 1.01589 0.0
C748 C 0.03453 0.17707 0.97909 0.0
C749 C 1.00382 0.16172 0.05244 0.0
C750 C 0.03268 0.14975 0.05224 0.0
C751 C 0.02756 0.12829 0.03909 0.0
C752 C 0.03795 0.11846 0.06924 0.0
C753 C 0.05397 0.13085 0.11203 0.0
C754 C 0.06 0.15319 0.12477 0.0
C755 C 0.04878 0.16234 0.09396 0.0
H756 H 0.84807 0.55044 0.41006 0.0
H757 H 0.77827 0.50878 0.3731 0.0
H758 H 0.7872 0.50645 0.27378 0.0
H759 H 0.86591 0.5748 0.25274 0.0
H760 H 0.8913 0.57408 0.26211 0.0
H761 H 0.8795 0.58141 0.32036 0.0
H762 H 0.8797 0.55041 0.38047 0.0
H763 H 0.89125 0.54302 0.32304 0.0
H764 H 0.86553 0.52217 0.35459 0.0
H765 H 0.80304 0.49656 0.19553 0.0
H766 H 0.82374 0.48142 0.14668 0.0
H767 H 0.88391 0.52928 0.23254 0.0
C768 C 0.83481 0.54185 0.37986 0.0
C769 C 0.81269 0.52966 0.39835 0.0
C770 C 0.79537 0.51835 0.35906 0.0
C771 C 0.80033 0.51708 0.30254 0.0
C772 C 0.82263 0.52762 0.28617 0.0
C773 C 0.83965 0.54047 0.32351 0.0
C774 C 0.86206 0.54591 0.30014 0.0
C775 C 0.87548 0.57051 0.28278 0.0
C776 C 0.87534 0.53996 0.34199 0.0
C777 C 0.85464 0.53104 0.24889 0.0
C778 C 0.83204 0.52168 0.23951 0.0
C779 C 0.82083 0.50431 0.20128 0.0
C780 C 0.83268 0.49551 0.17441 0.0
C781 C 0.85543 0.50383 0.18675 0.0
C782 C 0.86666 0.52267 0.22164 0.0
H783 H 0.5104 0.34539 0.23143 0.0
H784 H 0.54065 0.41346 0.28955 0.0
H785 H 0.52745 0.40024 0.38592 0.0
H786 H 0.46239 0.31984 0.34292 0.0
H787 H 0.46544 0.29558 0.34741 0.0
H788 H 0.46981 0.30989 0.2811 0.0
H789 H 0.5088 0.31373 0.27404 0.0
H790 H 0.50491 0.30005 0.34048 0.0
H791 H 0.52859 0.32743 0.33001 0.0
H792 H 0.52112 0.38098 0.47543 0.0
H793 H 0.52079 0.35686 0.55195 0.0
H794 H 0.49455 0.3009 0.43706 0.0
C795 C 0.5131 0.35738 0.26404 0.0
C796 C 0.52646 0.38029 0.25378 0.0
C797 C 0.53054 0.39577 0.29725 0.0
C798 C 0.52286 0.38841 0.35179 0.0
C799 C 0.51101 0.36557 0.36163 0.0
C800 C 0.50577 0.35021 0.3187 0.0
C801 C 0.49695 0.32697 0.34151 0.0
C802 C 0.47217 0.3122 0.32741 0.0
C803 C 0.51065 0.31647 0.32027 0.0
C804 C 0.50026 0.33204 0.40364 0.0
C805 C 0.50753 0.35421 0.41456 0.0
C806 C 0.51465 0.36343 0.46784 0.0
C807 C 0.51457 0.34969 0.51088 0.0
C808 C 0.50772 0.32713 0.49995 0.0
C809 C 0.49996 0.31813 0.44617 0.0
H810 H 0.72839 0.24709 0.39605 0.0
H811 H 0.7307 0.18744 0.43303 0.0
H812 H 0.72251 0.17583 0.3335 0.0
H813 H 0.68238 0.22359 0.33121 0.0
H814 H 0.68783 0.24399 0.27716 0.0
H815 H 0.70354 0.25231 0.34081 0.0
H816 H 0.73995 0.26833 0.28268 0.0
H817 H 0.72402 0.25955 0.21836 0.0
H818 H 0.7439 0.25079 0.2336 0.0
H819 H 0.70442 0.16561 0.24415 0.0
H820 H 0.67128 0.1537 0.18564 0.0
H821 H 0.67714 0.21831 0.20481 0.0
C822 C 0.72794 0.23205 0.38182 0.0
C823 C 0.73003 0.21802 0.42074 0.0
C824 C 0.72892 0.19816 0.4029 0.0
C825 C 0.72477 0.19178 0.34641 0.0
C826 C 0.72161 0.20542 0.30876 0.0
C827 C 0.72304 0.2252 0.32591 0.0
C828 C 0.71302 0.23366 0.28284 0.0
C829 C 0.69565 0.2386 0.30963 0.0
C830 C 0.73132 0.2543 0.25256 0.0
C831 C 0.70265 0.21387 0.24349 0.0
C832 C 0.70947 0.19871 0.25643 0.0
C833 C 0.69931 0.1775 0.23286 0.0
C834 C 0.68037 0.17077 0.20012 0.0
C835 C 0.67162 0.18507 0.19234 0.0
C836 C 0.68387 0.20735 0.20996 0.0
H837 H 0.55326 0.18515 0.27066 0.0
H838 H 0.61834 0.24171 0.23677 0.0
H839 H 0.61205 0.26279 0.31307 0.0
H840 H 0.52531 0.21642 0.29813 0.0
H841 H 0.50751 0.19719 0.35131 0.0
H842 H 0.51785 0.18755 0.29477 0.0
H843 H 0.53429 0.17204 0.36764 0.0
H844 H 0.52425 0.18188 0.42441 0.0
H845 H 0.55334 0.19036 0.42028 0.0
H846 H 0.59711 0.27723 0.40297 0.0
H847 H 0.57543 0.28313 0.47838 0.0
H848 H 0.52028 0.21698 0.44724 0.0
C849 C 0.56634 0.20205 0.27871 0.0
C850 C 0.58647 0.21148 0.24654 0.0
C851 C 0.60273 0.23382 0.25952 0.0
C852 C 0.59926 0.24592 0.30357 0.0
C853 C 0.57926 0.23582 0.33486 0.0
C854 C 0.56301 0.21432 0.32173 0.0
C855 C 0.54264 0.20683 0.35933 0.0
C856 C 0.52212 0.2017 0.32377 0.0
C857 C 0.53838 0.18658 0.39501 0.0
C858 C 0.54964 0.22723 0.39635 0.0
C859 C 0.57089 0.2439 0.38262 0.0
C860 C 0.58046 0.26408 0.41305 0.0
C861 C 0.56804 0.26731 0.45667 0.0
C862 C 0.5459 0.25063 0.47006 0.0
C863 C 0.53705 0.23031 0.43898 0.0
H864 H 0.85994 0.39634 0.29166 0.0
H865 H 0.79973 0.39119 0.22359 0.0
H866 H 0.77771 0.36249 0.29648 0.0
H867 H 0.83729 0.33816 0.32027 0.0
H868 H 0.8539 0.34316 0.38264 0.0
H869 H 0.86391 0.36323 0.32634 0.0
H870 H 0.86859 0.39379 0.3966 0.0
H871 H 0.85834 0.37374 0.45302 0.0
H872 H 0.84508 0.38982 0.43798 0.0
H873 H 0.76222 0.33261 0.38472 0.0
H874 H 0.75645 0.30595 0.46236 0.0
H875 H 0.82738 0.33133 0.46711 0.0
C876 C 0.84209 0.38941 0.29167 0.0
C877 C 0.83188 0.39664 0.25101 0.0
C878 C 0.80831 0.38637 0.25348 0.0
C879 C 0.79562 0.36996 0.29534 0.0
C880 C 0.80644 0.36349 0.33499 0.0
C881 C 0.8293 0.37298 0.33246 0.0
C882 C 0.83751 0.36311 0.37741 0.0
C883 C 0.84882 0.35121 0.35003 0.0
C884 C 0.85332 0.38119 0.41868 0.0
C885 C 0.81591 0.34656 0.40653 0.0
C886 C 0.79797 0.3469 0.3823 0.0
C887 C 0.7764 0.33257 0.40337 0.0
C888 C 0.7732 0.3175 0.44841 0.0
C889 C 0.79138 0.31647 0.4726 0.0
C890 C 0.81296 0.3316 0.45086 0.0
H891 H 0.6411 0.47352 0.2796 0.0
H892 H 0.6374 0.41188 0.22842 0.0
H893 H 0.66571 0.41789 0.30167 0.0
H894 H 0.70002 0.50435 0.30509 0.0
H895 H 0.69727 0.51944 0.3634 0.0
H896 H 0.67708 0.50957 0.30751 0.0
H897 H 0.64559 0.48867 0.38045 0.0
H898 H 0.66571 0.49835 0.43652 0.0
H899 H 0.64685 0.46897 0.42759 0.0
H900 H 0.69643 0.43264 0.38918 0.0
H901 H 0.72353 0.45351 0.46607 0.0
H902 H 0.70548 0.50473 0.45467 0.0
C903 C 0.64603 0.46104 0.28324 0.0
C904 C 0.63644 0.44199 0.24714 0.0
C905 C 0.64411 0.4266 0.25457 0.0
C906 C 0.6603 0.42995 0.29668 0.0
C907 C 0.66915 0.44892 0.33175 0.0
C908 C 0.66212 0.4642 0.32445 0.0
C909 C 0.67387 0.48353 0.36551 0.0
C910 C 0.68789 0.50551 0.33347 0.0
C911 C 0.657 0.48495 0.40484 0.0
C912 C 0.68864 0.47701 0.39802 0.0
C913 C 0.68593 0.45701 0.37868 0.0
C914 C 0.69836 0.44827 0.40382 0.0
C915 C 0.71379 0.46024 0.44822 0.0
C916 C 0.71704 0.48102 0.46791 0.0
C917 C 0.70384 0.48902 0.44177 0.0
H918 H 0.48914 0.81322 0.52568 0.0
H919 H 0.55093 0.8746 0.50081 0.0
H920 H 0.53754 0.8943 0.5603 0.0
H921 H 0.45331 0.84479 0.56327 0.0
H922 H 0.43758 0.82254 0.61239 0.0
H923 H 0.44548 0.81662 0.54495 0.0
H924 H 0.46342 0.7968 0.59633 0.0
H925 H 0.45648 0.80324 0.66334 0.0
H926 H 0.4851 0.81198 0.64741 0.0
H927 H 0.52897 0.9006 0.65346 0.0
H928 H 0.51976 0.89602 0.75496 0.0
H929 H 0.46153 0.83238 0.72213 0.0
C930 C 0.49898 0.8311 0.52955 0.0
C931 C 0.52118 0.84235 0.51088 0.0
C932 C 0.534 0.86568 0.51639 0.0
C933 C 0.52641 0.87702 0.54979 0.0
C934 C 0.50578 0.86479 0.57599 0.0
C935 C 0.49148 0.84249 0.5635 0.0
C936 C 0.47265 0.83196 0.6059 0.0
C937 C 0.45098 0.82881 0.58009 0.0
C938 C 0.4693 0.80974 0.62964 0.0
C939 C 0.48136 0.85009 0.64988 0.0
C940 C 0.4999 0.86929 0.63085 0.0
C941 C 0.51382 0.88621 0.66794 0.0
C942 C 0.50886 0.88333 0.72549 0.0
C943 C 0.49007 0.86383 0.74496 0.0
C944 C 0.47577 0.8475 0.70683 0.0
H945 H 0.21771 0.6676 0.82934 0.0
H946 H 0.15037 0.65571 0.83633 0.0
H947 H 0.16077 0.68751 0.77391 0.0
H948 H 0.24532 0.73392 0.7963 0.0
H949 H 0.26536 0.73172 0.75254 0.0
H950 H 0.2562 0.71631 0.81766 0.0
H951 H 0.24552 0.68025 0.76261 0.0
H952 H 0.25376 0.69511 0.69759 0.0
H953 H 0.22581 0.67208 0.70549 0.0
H954 H 0.17176 0.70493 0.68327 0.0
H955 H 0.18596 0.71402 0.5857 0.0
H956 H 0.24753 0.7183 0.6376 0.0
C957 C 0.2056 0.67263 0.82058 0.0
C958 C 0.18315 0.65884 0.83553 0.0
C959 C 0.16756 0.66568 0.82337 0.0
C960 C 0.17342 0.68397 0.78863 0.0
C961 C 0.19508 0.69557 0.76799 0.0
C962 C 0.21138 0.69096 0.78585 0.0
C963 C 0.23195 0.70259 0.74924 0.0
C964 C 0.25082 0.72231 0.78082 0.0
C965 C 0.23963 0.68652 0.72743 0.0
C966 C 0.22304 0.71067 0.70254 0.0
C967 C 0.20211 0.70734 0.71517 0.0
C968 C 0.18855 0.70874 0.67387 0.0
C969 C 0.19644 0.71339 0.61852 0.0
C970 C 0.21767 0.71668 0.60546 0.0
C971 C 0.23139 0.71615 0.64798 0.0
H972 H 0.31317 0.49216 0.5967 0.0
H973 H 0.36821 0.52233 0.47928 0.0
H974 H 0.39418 0.52658 0.55539 0.0
H975 H 0.33639 0.52802 0.69758 0.0
H976 H 0.32543 0.50932 0.75683 0.0
H977 H 0.3108 0.50183 0.69131 0.0
H978 H 0.31223 0.46521 0.68956 0.0
H979 H 0.32703 0.47269 0.7556 0.0
H980 H 0.33861 0.46623 0.69536 0.0
H981 H 0.41431 0.53684 0.64468 0.0
H982 H 0.4269 0.55229 0.73968 0.0
H983 H 0.35888 0.51574 0.79965 0.0
C984 C 0.33063 0.49907 0.58704 0.0
C985 C 0.33887 0.50708 0.53287 0.0
C986 C 0.3617 0.51597 0.52085 0.0
C987 C 0.37649 0.51827 0.56364 0.0
C988 C 0.368 0.51117 0.61764 0.0
C989 C 0.34549 0.50141 0.62927 0.0
C990 C 0.34094 0.49892 0.69174 0.0
C991 C 0.32765 0.51022 0.71039 0.0
C992 C 0.329 0.4743 0.70907 0.0
C993 C 0.36449 0.51103 0.71342 0.0
C994 C 0.37988 0.51717 0.67026 0.0
C995 C 0.4025 0.53156 0.67909 0.0
C996 C 0.40946 0.54053 0.73291 0.0
C997 C 0.39376 0.53523 0.77667 0.0
C998 C 0.37124 0.51958 0.76724 0.0
H999 H 0.19394 0.5464 0.76942 0.0
H1000 H 0.24623 0.61451 0.79436 0.0
H1001 H 0.26839 0.6096 0.71848 0.0
H1002 H 0.23 0.52338 0.74464 0.0
H1003 H 0.21131 0.50342 0.69409 0.0
H1004 H 0.20052 0.51304 0.74964 0.0
H1005 H 0.18142 0.52511 0.67532 0.0
H1006 H 0.19241 0.51582 0.61952 0.0
H1007 H 0.19788 0.54408 0.6201 0.0
H1008 H 0.28426 0.59577 0.62996 0.0
H1009 H 0.29227 0.57483 0.55672 0.0
H1010 H 0.22968 0.51588 0.59623 0.0
C1011 C 0.21014 0.56041 0.7595 0.0
C1012 C 0.21807 0.58097 0.78895 0.0
C1013 C 0.23955 0.59853 0.77371 0.0
C1014 C 0.25224 0.59585 0.72989 0.0
C1015 C 0.2436 0.57536 0.70124 0.0
C1016 C 0.22303 0.55788 0.71675 0.0
C1017 C 0.21717 0.53723 0.68177 0.0
C1018 C 0.2146 0.51814 0.7198 0.0
C1019 C 0.19596 0.53015 0.64714 0.0
C1020 C 0.23744 0.54549 0.64348 0.0
C1021 C 0.25259 0.5676 0.6543 0.0
C1022 C 0.27233 0.57844 0.62218 0.0
C1023 C 0.27675 0.56643 0.57984 0.0
C1024 C 0.26172 0.5435 0.56956 0.0
C1025 C 0.24175 0.53331 0.60224 0.0
H1026 H 0.52463 0.72312 0.61012 0.0
H1027 H 0.46883 0.73217 0.57064 0.0
H1028 H 0.44635 0.70389 0.64402 0.0
H1029 H 0.49318 0.66386 0.63274 0.0
H1030 H 0.51137 0.66469 0.68794 0.0
H1031 H 0.52203 0.68535 0.63302 0.0
H1032 H 0.536 0.71646 0.7082 0.0
H1033 H 0.5252 0.69589 0.76333 0.0
H1034 H 0.51665 0.71645 0.75896 0.0
H1035 H 0.4301 0.67293 0.731 0.0
H1036 H 0.42305 0.6446 0.80528 0.0
H1037 H 0.4901 0.65691 0.78194 0.0
C1038 C 0.50765 0.71933 0.61637 0.0
C1039 C 0.49885 0.73042 0.58352 0.0
C1040 C 0.47631 0.72424 0.59414 0.0
C1041 C 0.46338 0.7081 0.63643 0.0
C1042 C 0.47287 0.69778 0.66835 0.0
C1043 C 0.49461 0.70326 0.6577 0.0
C1044 C 0.50147 0.69001 0.69563 0.0
C1045 C 0.50736 0.67509 0.66023 0.0
C1046 C 0.52099 0.70563 0.73378 0.0
C1047 C 0.48042 0.67611 0.73007 0.0
C1048 C 0.46392 0.68068 0.71464 0.0
C1049 C 0.44315 0.66949 0.74245 0.0
C1050 C 0.43923 0.65336 0.78537 0.0
C1051 C 0.45585 0.64807 0.80073 0.0
C1052 C 0.47672 0.66009 0.77214 0.0
H1053 H 0.38204 0.84555 0.78293 0.0
H1054 H 0.4012 0.79541 0.80191 0.0
H1055 H 0.37557 0.7739 0.72302 0.0
H1056 H 0.32397 0.80863 0.74905 0.0
H1057 H 0.32334 0.82824 0.7004 0.0
H1058 H 0.34223 0.83807 0.75914 0.0
H1059 H 0.37514 0.85979 0.69039 0.0
H1060 H 0.35639 0.84977 0.63139 0.0
H1061 H 0.3797 0.84513 0.63396 0.0
H1062 H 0.34648 0.75849 0.63192 0.0
H1063 H 0.31914 0.7517 0.55518 0.0
H1064 H 0.32124 0.81317 0.60017 0.0
C1065 C 0.38079 0.82987 0.77142 0.0
C1066 C 0.39385 0.82234 0.80023 0.0
C1067 C 0.39135 0.80166 0.78223 0.0
C1068 C 0.37684 0.78938 0.73659 0.0
C1069 C 0.36461 0.79773 0.70852 0.0
C1070 C 0.36652 0.81757 0.72643 0.0
C1071 C 0.35224 0.82374 0.69061 0.0
C1072 C 0.33439 0.82472 0.72696 0.0
C1073 C 0.36673 0.84592 0.65978 0.0
C1074 C 0.34178 0.80445 0.64917 0.0
C1075 C 0.34893 0.78942 0.65926 0.0
C1076 C 0.34101 0.77039 0.62464 0.0
C1077 C 0.32546 0.76665 0.58037 0.0
C1078 C 0.31763 0.78176 0.57027 0.0
C1079 C 0.32645 0.80096 0.60567 0.0
H1080 H 0.20142 0.39967 0.32199 0.0
H1081 H 0.2557 0.40437 0.42267 0.0
H1082 H 0.23928 0.36372 0.41801 0.0
H1083 H 0.15851 0.34906 0.38352 0.0
H1084 H 0.14361 0.33745 0.31883 0.0
H1085 H 0.1599 0.36719 0.32733 0.0
H1086 H 0.18202 0.37013 0.23684 0.0
H1087 H 0.16569 0.34041 0.22786 0.0
H1088 H 0.19558 0.35385 0.23078 0.0
H1089 H 0.21631 0.32221 0.40709 0.0
H1090 H 0.18954 0.28298 0.38575 0.0
H1091 H 0.14942 0.30355 0.29103 0.0
C1092 C 0.21003 0.39217 0.34222 0.0
C1093 C 0.22994 0.40552 0.37311 0.0
C1094 C 0.24039 0.39476 0.39939 0.0
C1095 C 0.23118 0.37156 0.39688 0.0
C1096 C 0.21137 0.35889 0.36759 0.0
C1097 C 0.20096 0.36875 0.3402 0.0
C1098 C 0.17956 0.35094 0.31242 0.0
C1099 C 0.15919 0.35118 0.337 0.0
C1100 C 0.18079 0.35402 0.24815 0.0
C1101 C 0.1796 0.32966 0.32883 0.0
C1102 C 0.19813 0.33474 0.3608 0.0
C1103 C 0.20177 0.31807 0.38195 0.0
C1104 C 0.18626 0.29568 0.36994 0.0
C1105 C 0.16709 0.28975 0.3368 0.0
C1106 C 0.16388 0.30724 0.31604 0.0
H1107 H 0.7436 0.89707 0.38511 0.0
H1108 H 0.74536 0.87541 0.21448 0.0
H1109 H 0.70471 0.85219 0.21495 0.0
H1110 H 0.69829 0.84342 0.43394 0.0
H1111 H 0.68556 0.85533 0.47722 0.0
H1112 H 0.7151 0.87064 0.46437 0.0
H1113 H 0.71176 0.90375 0.42615 0.0
H1114 H 0.68221 0.88851 0.4388 0.0
H1115 H 0.69271 0.89921 0.36944 0.0
H1116 H 0.6635 0.83097 0.2323 0.0
H1117 H 0.62491 0.81273 0.26653 0.0
H1118 H 0.64803 0.84737 0.42622 0.0
C1119 C 0.73546 0.88739 0.34792 0.0
C1120 C 0.7481 0.88867 0.29925 0.0
C1121 C 0.73643 0.87549 0.25181 0.0
C1122 C 0.71316 0.86199 0.25173 0.0
C1123 C 0.70126 0.86142 0.29957 0.0
C1124 C 0.71194 0.87367 0.347 0.0
C1125 C 0.69485 0.86978 0.39273 0.0
C1126 C 0.69869 0.85916 0.44518 0.0
C1127 C 0.69542 0.89162 0.40766 0.0
C1128 C 0.67307 0.85354 0.36345 0.0
C1129 C 0.67727 0.849 0.3097 0.0
C1130 C 0.66003 0.83451 0.2743 0.0
C1131 C 0.63796 0.82432 0.29413 0.0
C1132 C 0.63289 0.82851 0.34918 0.0
C1133 C 0.65098 0.84347 0.38408 0.0
H1134 H 0.20362 0.80917 0.30848 0.0
H1135 H 0.20169 0.80652 0.49159 0.0
H1136 H 0.18029 0.8257 0.49273 0.0
H1137 H 0.21157 0.86539 0.30126 0.0
H1138 H 0.19492 0.85998 0.23878 0.0
H1139 H 0.20943 0.84493 0.25103 0.0
H1140 H 0.17237 0.80771 0.24197 0.0
H1141 H 0.15773 0.82266 0.23003 0.0
H1142 H 0.14919 0.80261 0.28634 0.0
H1143 H 0.15768 0.8441 0.47577 0.0
H1144 H 0.13845 0.86337 0.44197 0.0
H1145 H 0.15789 0.85888 0.27029 0.0
C1146 C 0.19881 0.81263 0.34892 0.0
C1147 C 0.20398 0.80528 0.39986 0.0
C1148 C 0.19732 0.81068 0.45151 0.0
C1149 C 0.18525 0.82195 0.45284 0.0
C1150 C 0.1801 0.82844 0.40229 0.0
C1151 C 0.18692 0.82434 0.35123 0.0
C1152 C 0.17976 0.83408 0.30337 0.0
C1153 C 0.20013 0.85217 0.27174 0.0
C1154 C 0.16382 0.81566 0.26304 0.0
C1155 C 0.16777 0.84406 0.3357 0.0
C1156 C 0.16807 0.8404 0.39268 0.0
C1157 C 0.15766 0.84739 0.43122 0.0
C1158 C 0.14687 0.85863 0.41137 0.0
C1159 C 0.14665 0.86333 0.35315 0.0
C1160 C 0.15733 0.85568 0.315 0.0
H1161 H 0.40093 0.19799 0.72427 0.0
H1162 H 0.40728 0.24752 0.60255 0.0
H1163 H 0.36691 0.23261 0.60612 0.0
H1164 H 0.34917 0.1533 0.6735 0.0
H1165 H 0.33763 0.1424 0.74201 0.0
H1166 H 0.36733 0.15715 0.73187 0.0
H1167 H 0.37185 0.1845 0.81164 0.0
H1168 H 0.34217 0.16973 0.82226 0.0
H1169 H 0.35661 0.19921 0.80823 0.0
H1170 H 0.32526 0.21116 0.61778 0.0
H1171 H 0.28581 0.1866 0.64303 0.0
H1172 H 0.305 0.15123 0.76022 0.0
C1173 C 0.39389 0.20592 0.69902 0.0
C1174 C 0.40765 0.22388 0.66237 0.0
C1175 C 0.3974 0.23352 0.63002 0.0
C1176 C 0.37433 0.2252 0.63191 0.0
C1177 C 0.36125 0.2072 0.66694 0.0
C1178 C 0.37061 0.19781 0.70058 0.0
C1179 C 0.35246 0.17851 0.73439 0.0
C1180 C 0.3516 0.15654 0.71955 0.0
C1181 C 0.35599 0.18328 0.79791 0.0
C1182 C 0.33157 0.17849 0.71406 0.0
C1183 C 0.3371 0.19516 0.6749 0.0
C1184 C 0.32078 0.19815 0.64873 0.0
C1185 C 0.29829 0.18395 0.66311 0.0
C1186 C 0.29196 0.16686 0.7038 0.0
C1187 C 0.30907 0.16423 0.7295 0.0
H1188 H 0.85609 0.14069 0.75785 0.0
H1189 H 0.89503 0.15746 0.60351 0.0
H1190 H 0.87742 0.17848 0.57099 0.0
H1191 H 0.80599 0.13546 0.69724 0.0
H1192 H 0.80019 0.14839 0.75565 0.0
H1193 H 0.8152 0.13378 0.76709 0.0
H1194 H 0.84744 0.16902 0.8126 0.0
H1195 H 0.83253 0.18374 0.80129 0.0
H1196 H 0.86032 0.19484 0.77393 0.0
H1197 H 0.85572 0.19792 0.5536 0.0
H1198 H 0.83211 0.21506 0.55373 0.0
H1199 H 0.80794 0.18832 0.72065 0.0
C1200 C 0.86113 0.14884 0.71731 0.0
C1201 C 0.87698 0.14677 0.68324 0.0
C1202 C 0.88262 0.15784 0.63029 0.0
C1203 C 0.87281 0.17017 0.61144 0.0
C1204 C 0.85738 0.17176 0.64586 0.0
C1205 C 0.85161 0.16153 0.69787 0.0
C1206 C 0.83478 0.16636 0.7268 0.0
C1207 C 0.81273 0.14471 0.73731 0.0
C1208 C 0.84434 0.17926 0.78193 0.0
C1209 C 0.83197 0.18083 0.6828 0.0
C1210 C 0.84516 0.18357 0.6364 0.0
C1211 C 0.84534 0.19584 0.58975 0.0
C1212 C 0.8317 0.20546 0.59014 0.0
C1213 C 0.81787 0.20303 0.63688 0.0
C1214 C 0.81829 0.19064 0.68423 0.0
H1215 H 0.87337 0.72742 0.62631 0.0
H1216 H 0.89371 0.7314 0.80042 0.0
H1217 H 0.87707 0.69057 0.80336 0.0
H1218 H 0.82029 0.67728 0.64329 0.0
H1219 H 0.82075 0.66577 0.57556 0.0
H1220 H 0.83539 0.69548 0.58547 0.0
H1221 H 0.87181 0.69772 0.55083 0.0
H1222 H 0.85725 0.66801 0.54076 0.0
H1223 H 0.88162 0.68103 0.58482 0.0
H1224 H 0.85796 0.64903 0.78831 0.0
H1225 H 0.83703 0.61002 0.75759 0.0
H1226 H 0.82627 0.63155 0.59452 0.0
C1227 C 0.87453 0.71966 0.66472 0.0
C1228 C 0.88506 0.73276 0.71316 0.0
C1229 C 0.88583 0.72183 0.76285 0.0
C1230 C 0.87641 0.69859 0.7649 0.0
C1231 C 0.86595 0.68611 0.71697 0.0
C1232 C 0.86484 0.6962 0.66778 0.0
C1233 C 0.85175 0.6786 0.62319 0.0
C1234 C 0.8308 0.67933 0.60586 0.0
C1235 C 0.86649 0.68152 0.57185 0.0
C1236 C 0.84571 0.65717 0.65503 0.0
C1237 C 0.85424 0.66198 0.70892 0.0
C1238 C 0.85106 0.6451 0.74625 0.0
C1239 C 0.83885 0.62279 0.72837 0.0
C1240 C 0.82951 0.61708 0.67349 0.0
C1241 C 0.8332 0.63485 0.63653 0.0
H1242 H 0.07155 0.51279 1.0111 0.0
H1243 H 0.08648 0.58115 0.99613 0.0
H1244 H 0.0464 0.56864 1.00276 0.0
H1245 H 1.02021 0.48714 0.93246 0.0
H1246 H 1.00615 0.46329 0.97812 0.0
H1247 H 0.03598 0.47739 0.97127 0.0
H1248 H 0.0401 0.48308 0.07924 0.0
H1249 H 1.01028 0.46888 0.08644 0.0
H1250 H 0.02699 0.49654 0.11445 0.0
H1251 H 1.00412 0.54845 1.00619 0.0
H1252 H 0.96371 0.5229 0.01765 0.0
H1253 H 0.97547 0.46754 0.03764 0.0
C1254 C 0.06637 0.52512 1.00936 0.0
C1255 C 0.08239 0.54808 1.00307 0.0
C1256 C 0.07475 0.56358 1.00144 0.0
C1257 C 0.05191 0.55658 1.00479 0.0
C1258 C 0.0366 0.53392 1.01066 0.0
C1259 C 0.04352 0.51843 1.01392 0.0
C1260 C 0.02359 0.49516 0.02252 0.0
C1261 C 1.02136 0.47984 0.97315 0.0
C1262 C 0.02535 0.48534 0.07903 0.0
C1263 C 1.00442 0.49997 0.02314 0.0
C1264 C 1.01232 0.52243 1.0154 0.0
C1265 C 0.99783 0.53087 1.01268 0.0
C1266 C 0.9748 0.51615 0.01886 0.0
C1267 C 0.96618 0.49312 0.02859 0.0
C1268 C 0.98139 0.48503 0.0306 0.0
H1269 H 0.48846 0.53862 0.05943 0.0
H1270 H 0.46763 0.51966 0.8862 0.0
H1271 H 0.48582 0.49709 0.88518 0.0
H1272 H 0.54181 0.54248 0.04697 0.0
H1273 H 0.54104 0.53053 0.11492 0.0
H1274 H 0.52593 0.54505 0.10365 0.0
H1275 H 0.48957 0.51035 0.13637 0.0
H1276 H 0.50461 0.49578 0.1481 0.0
H1277 H 0.48067 0.48397 0.10252 0.0
H1278 H 0.50819 0.47801 0.89972 0.0
H1279 H 0.53027 0.46121 0.93212 0.0
H1280 H 0.53596 0.49025 0.09746 0.0
C1281 C 0.48745 0.52947 0.02156 0.0
C1282 C 0.47674 0.53145 0.9725 0.0
C1283 C 0.47604 0.51909 0.92399 0.0
C1284 C 0.48629 0.50603 0.92299 0.0
C1285 C 0.49719 0.50497 0.97109 0.0
C1286 C 0.49761 0.51607 0.01985 0.0
C1287 C 0.51056 0.51188 0.06558 0.0
C1288 C 0.53105 0.53379 0.08385 0.0
C1289 C 0.49545 0.49978 0.11614 0.0
C1290 C 0.51739 0.49689 0.0347 0.0
C1291 C 0.50958 0.49328 0.98007 0.0
C1292 C 0.51424 0.48061 0.9426 0.0
C1293 C 0.52699 0.47122 0.96133 0.0
C1294 C 0.53498 0.4742 0.01743 0.0
C1295 C 0.52998 0.48731 0.05447 0.0
H1296 H 0.55402 0.06432 0.09215 0.0
H1297 H 0.55063 0.08702 0.92399 0.0
H1298 H 0.53181 0.04827 0.89039 0.0
H1299 H 0.5644 0.02017 0.04807 0.0
H1300 H 0.54758 1.0011 0.10274 0.0
H1301 H 0.56085 0.03067 0.11442 0.0
H1302 H 0.52274 0.02675 0.13883 0.0
H1303 H 0.50935 0.99718 0.1271 0.0
H1304 H 0.5002 1.01363 0.08915 0.0
H1305 H 0.51225 1.007 0.8746 0.0
H1306 H 0.49506 0.96641 0.8759 0.0
H1307 H 0.51137 0.96868 0.05331 0.0
C1308 C 0.54927 0.06117 0.04825 0.0
C1309 C 0.55411 0.07913 1.01081 0.0
C1310 C 0.54764 0.07396 0.95362 0.0
C1311 C 0.53671 0.05184 0.93411 0.0
C1312 C 0.53223 0.03469 0.97193 0.0
C1313 C 0.53839 0.03903 0.02779 0.0
C1314 C 0.53174 0.01733 0.05918 0.0
C1315 C 0.55238 0.01732 0.08248 0.0
C1316 C 0.51501 1.0135 0.10637 0.0
C1317 C 0.52086 1.00015 1.01224 0.0
C1318 C 0.52131 1.01069 0.96244 0.0
C1319 C 0.51212 0.99866 0.91324 0.0
C1320 C 0.5025 0.9754 0.91441 0.0
C1321 C 0.50216 0.96387 0.96429 0.0
C1322 C 0.51131 0.97666 1.01421 0.0
H1323 H 0.16112 0.18915 0.42958 0.0
H1324 H 0.09592 0.13287 0.3953 0.0
H1325 H 0.10133 0.11208 0.4738 0.0
H1326 H 0.18873 0.15889 0.4625 0.0
H1327 H 0.20568 0.1779 0.51695 0.0
H1328 H 0.19606 0.18772 0.45931 0.0
H1329 H 0.17809 0.20262 0.52961 0.0
H1330 H 0.18784 0.19303 0.58748 0.0
H1331 H 0.15868 0.18407 0.58146 0.0
H1332 H 0.11668 0.09666 0.55983 0.0
H1333 H 0.13704 0.09127 0.63931 0.0
H1334 H 0.19109 0.15869 0.61534 0.0
C1335 C 0.14774 0.17245 0.43829 0.0
C1336 C 0.12794 0.16291 0.40497 0.0
C1337 C 0.11116 0.14094 0.41946 0.0
C1338 C 0.11425 0.12889 0.46421 0.0
C1339 C 0.13422 0.13885 0.49542 0.0
C1340 C 0.15049 0.16039 0.48283 0.0
C1341 C 0.17042 0.16802 0.52194 0.0
C1342 C 0.19146 0.17345 0.48816 0.0
C1343 C 0.17396 0.18812 0.55721 0.0
C1344 C 0.16318 0.14756 0.55893 0.0
C1345 C 0.14234 0.13064 0.54325 0.0
C1346 C 0.13291 0.11009 0.5719 0.0
C1347 C 0.14471 0.10704 0.61727 0.0
C1348 C 0.1659 0.12444 0.63498 0.0
C1349 C 0.17497 0.14485 0.6042 0.0
H1350 H 0.8788 0.04727 0.59998 0.0
H1351 H 0.94478 0.05827 0.63417 0.0
H1352 H 0.93949 0.03115 0.55812 0.0
H1353 H 0.8523 0.98896 0.57395 0.0
H1354 H 0.8345 0.98949 0.51956 0.0
H1355 H 0.84423 1.00993 0.57495 0.0
H1356 H 0.86077 0.04158 0.50102 0.0
H1357 H 0.8509 0.02124 0.44538 0.0
H1358 H 0.87993 0.04211 0.44887 0.0
H1359 H 0.9242 0.99926 0.47411 0.0
H1360 H 0.90362 0.97215 0.39711 0.0
H1361 H 0.84847 0.98376 0.4216 0.0
C1362 C 0.89241 0.04427 0.59178 0.0
C1363 C 0.91239 0.05541 0.62428 0.0
C1364 C 0.9294 0.05048 0.61053 0.0
C1365 C 0.92638 0.0348 0.5672 0.0
C1366 C 0.90622 0.02392 0.53686 0.0
C1367 C 0.88968 0.02886 0.5489 0.0
C1368 C 0.86945 0.01546 0.51142 0.0
C1369 C 0.84891 1.00006 0.5471 0.0
C1370 C 0.86501 0.03102 0.47449 0.0
C1371 C 0.87684 1.00203 0.4758 0.0
C1372 C 0.89802 1.0068 0.49074 0.0
C1373 C 0.90768 0.99576 0.46275 0.0
C1374 C 0.89574 0.98011 0.41883 0.0
C1375 C 0.87415 0.97538 0.40203 0.0
C1376 C 0.86487 0.98667 0.43217 0.0
H1377 H 0.06253 0.87362 0.45082 0.0
H1378 H 0.05745 0.93001 0.39265 0.0
H1379 H 0.02994 0.92285 0.46927 0.0
H1380 H 1.00568 0.83804 0.48429 0.0
H1381 H 1.01128 0.82607 0.54506 0.0
H1382 H 0.0309 0.83668 0.48777 0.0
H1383 H 0.06206 0.86249 0.55664 0.0
H1384 H 0.04256 0.85184 0.61426 0.0
H1385 H 0.05808 0.88134 0.60083 0.0
H1386 H 0.99936 0.90614 0.55625 0.0
H1387 H 0.97442 0.88509 0.63667 0.0
H1388 H 1.00136 0.84071 0.63444 0.0
C1389 C 0.05592 0.88478 0.45401 0.0
C1390 C 0.06264 0.90259 0.41458 0.0
C1391 C 0.05314 0.91645 0.42178 0.0
C1392 C 0.03722 0.9123 0.46542 0.0
C1393 C 0.03074 0.89423 0.50272 0.0
C1394 C 0.04023 0.88094 0.49718 0.0
C1395 C 0.03094 0.86246 0.54124 0.0
C1396 C 1.019 0.83946 0.51289 0.0
C1397 C 0.04951 0.86467 0.58057 0.0
C1398 C 1.01449 0.86701 0.57279 0.0
C1399 C 1.01433 0.88533 0.55047 0.0
C1400 C 0.99977 0.89192 0.5735 0.0
C1401 C 0.98547 0.87977 0.61962 0.0
C1402 C 0.98554 0.861 0.64347 0.0
C1403 C 1.00052 0.8549 0.61865 0.0
H1404 H 0.87237 0.86658 0.65521 0.0
H1405 H 0.88167 0.81229 0.60019 0.0
H1406 H 0.86433 0.81151 0.50849 0.0
H1407 H 0.8194 0.84956 0.58047 0.0
H1408 H 0.82761 0.87795 0.56338 0.0
H1409 H 0.83743 0.87175 0.62728 0.0
H1410 H 0.87817 0.89906 0.59726 0.0
H1411 H 0.8685 0.90528 0.53343 0.0
H1412 H 0.888 0.89535 0.53003 0.0
H1413 H 0.84881 0.81873 0.42129 0.0
H1414 H 0.83925 0.83567 0.34194 0.0
H1415 H 0.84196 0.88609 0.45426 0.0
C1416 C 0.87019 0.8542 0.62422 0.0
C1417 C 0.87806 0.83942 0.63414 0.0
C1418 C 0.8757 0.82379 0.59259 0.0
C1419 C 0.86571 0.82307 0.54095 0.0
C1420 C 0.85832 0.83814 0.5321 0.0
C1421 C 0.86058 0.8535 0.57251 0.0
C1422 C 0.85379 0.86959 0.55055 0.0
C1423 C 0.83334 0.86705 0.58231 0.0
C1424 C 0.87328 0.89373 0.55294 0.0
C1425 C 0.84809 0.86137 0.49085 0.0
C1426 C 0.85023 0.84288 0.48128 0.0
C1427 C 0.84682 0.83304 0.42834 0.0
C1428 C 0.84143 0.84267 0.38378 0.0
C1429 C 0.8401 0.86208 0.39283 0.0
C1430 C 0.84306 0.87127 0.44693 0.0
H1431 H 0.14676 0.99639 0.39673 0.0
H1432 H 0.20485 0.9891 0.37307 0.0
H1433 H 0.22393 0.01577 0.44919 0.0
H1434 H 0.17664 0.05578 0.44107 0.0
H1435 H 0.15571 0.05096 0.49296 0.0
H1436 H 0.1481 0.03466 0.42925 0.0
H1437 H 0.13064 0.99846 0.48877 0.0
H1438 H 0.13825 0.01459 0.55244 0.0
H1439 H 0.14739 0.99475 0.54083 0.0
H1440 H 0.23481 0.03877 0.53514 0.0
H1441 H 0.23667 0.05688 0.62588 0.0
H1442 H 0.17081 0.04742 0.59661 0.0
C1443 C 0.16358 1.00059 0.4069 0.0
C1444 C 0.17426 0.99068 0.37855 0.0
C1445 C 0.19637 0.99674 0.39322 0.0
C1446 C 0.20741 1.01188 0.43658 0.0
C1447 C 0.19613 0.02084 0.46465 0.0
C1448 C 0.17475 0.01551 0.45035 0.0
C1449 C 0.16542 0.02544 0.49117 0.0
C1450 C 0.16123 0.04274 0.46185 0.0
C1451 C 0.14418 1.00722 0.52 0.0
C1452 C 0.18458 0.03634 0.53195 0.0
C1453 C 0.20228 0.03386 0.51534 0.0
C1454 C 0.22121 0.04114 0.54831 0.0
C1455 C 0.222 0.05113 0.59999 0.0
C1456 C 0.20385 0.05348 0.6181 0.0
C1457 C 0.18509 0.04624 0.58323 0.0
H1458 H 0.97005 0.15152 0.58862 0.0
H1459 H 0.02285 0.19115 0.7063 0.0
H1460 H 0.04849 0.21022 0.62676 0.0
H1461 H 1.00093 0.14092 0.49642 0.0
H1462 H 0.98757 0.14264 0.4331 0.0
H1463 H 0.97259 0.13519 0.49859 0.0
H1464 H 0.96466 0.16775 0.48727 0.0
H1465 H 0.97965 0.17531 0.42143 0.0
H1466 H 0.98748 0.19563 0.47682 0.0
H1467 H 0.06949 0.21931 0.53711 0.0
H1468 H 0.08418 0.21931 0.44205 0.0
H1469 H 1.01733 0.17517 0.38248 0.0
C1470 C 0.98692 0.16451 0.59733 0.0
C1471 C 0.99469 0.16994 0.65296 0.0
C1472 C 1.01673 0.18701 0.66355 0.0
C1473 C 0.0313 0.19791 0.61881 0.0
C1474 C 0.02326 0.19178 0.56417 0.0
C1475 C 1.00149 0.1757 0.55325 0.0
C1476 C 0.99751 0.17066 0.49115 0.0
C1477 C 0.98918 0.1459 0.47916 0.0
C1478 C 0.98137 0.17777 0.4678 0.0
C1479 C 1.02078 0.18542 0.46915 0.0
C1480 C 0.03535 0.19771 0.5118 0.0
C1481 C 0.0582 0.21033 0.503 0.0
C1482 C 0.0664 0.21011 0.44933 0.0
C1483 C 0.0517 0.19743 0.40564 0.0
C1484 C 0.02866 0.18545 0.41522 0.0
H1485 H 0.82584 0.5232 0.7692 0.0
H1486 H 0.77105 0.46107 0.70862 0.0
H1487 H 0.77837 0.44107 0.78572 0.0
H1488 H 0.86248 0.50332 0.80735 0.0
H1489 H 0.87305 0.52097 0.86848 0.0
H1490 H 0.86291 0.5295 0.80929 0.0
H1491 H 0.83547 0.53388 0.8746 0.0
H1492 H 0.84558 0.52544 0.93404 0.0
H1493 H 0.81633 0.51075 0.91763 0.0
H1494 H 0.79466 0.42781 0.87517 0.0
H1495 H 0.81474 0.42467 0.95877 0.0
H1496 H 0.85741 0.49629 0.95759 0.0
C1497 C 0.81519 0.50533 0.77153 0.0
C1498 C 0.79778 0.49396 0.73126 0.0
C1499 C 0.78445 0.4705 0.73795 0.0
C1500 C 0.78863 0.45894 0.78202 0.0
C1501 C 0.80618 0.47084 0.82042 0.0
C1502 C 0.81902 0.4937 0.81521 0.0
C1503 C 0.83674 0.50329 0.86104 0.0
C1504 C 0.86018 0.51496 0.83497 0.0
C1505 C 0.83332 0.51928 0.89907 0.0
C1506 C 0.83229 0.48246 0.89324 0.0
C1507 C 0.81469 0.46369 0.8697 0.0
C1508 C 0.8083 0.44267 0.89333 0.0
C1509 C 0.8199 0.44095 0.94128 0.0
C1510 C 0.83788 0.46011 0.96645 0.0
C1511 C 0.84381 0.48103 0.9409 0.0
H1512 H 0.57694 0.40055 0.88073 0.0
H1513 H 0.57537 0.36345 0.02875 0.0
H1514 H 0.56475 0.33021 0.96851 0.0
H1515 H 0.53076 0.35728 0.81022 0.0
H1516 H 0.54259 0.3651 0.74064 0.0
H1517 H 0.55105 0.38585 0.79507 0.0
H1518 H 0.5922 0.39684 0.78017 0.0
H1519 H 0.58391 0.37638 0.72503 0.0
H1520 H 0.60003 0.37572 0.78367 0.0
H1521 H 0.54981 0.2986 0.88706 0.0
H1522 H 0.53879 0.2763 0.79844 0.0
H1523 H 0.55291 0.33541 0.70465 0.0
C1524 C 0.57495 0.38562 0.90061 0.0
C1525 C 0.57753 0.38511 0.9602 0.0
C1526 C 0.5742 0.36483 0.98361 0.0
C1527 C 0.56781 0.34564 0.94937 0.0
C1528 C 0.56493 0.34667 0.89095 0.0
C1529 C 0.56896 0.36651 0.86694 0.0
C1530 C 0.565 0.36379 0.80343 0.0
C1531 C 0.54624 0.36828 0.78636 0.0
C1532 C 0.58657 0.37909 0.77117 0.0
C1533 C 0.55796 0.33934 0.7948 0.0
C1534 C 0.55762 0.32946 0.84566 0.0
C1535 C 0.55045 0.30656 0.84735 0.0
C1536 C 0.54402 0.29383 0.79653 0.0
C1537 C 0.54507 0.30384 0.74357 0.0
C1538 C 0.55212 0.32702 0.74376 0.0
H1539 H 0.66942 0.18707 0.97397 0.0
H1540 H 0.63808 0.22721 0.95569 0.0
H1541 H 0.66349 0.24698 0.87489 0.0
H1542 H 0.72555 0.22962 0.94067 0.0
H1543 H 0.73168 0.21051 0.90429 0.0
H1544 H 0.71149 0.20066 0.96041 0.0
H1545 H 0.68205 0.17132 0.89345 0.0
H1546 H 0.70215 0.18103 0.83721 0.0
H1547 H 0.67599 0.18018 0.82775 0.0
H1548 H 0.69469 0.26231 0.78862 0.0
H1549 H 0.72347 0.26877 0.71617 0.0
H1550 H 0.73273 0.21782 0.79542 0.0
C1551 C 0.66772 0.20009 0.95361 0.0
C1552 C 0.65133 0.20534 0.97276 0.0
C1553 C 0.65028 0.22264 0.94328 0.0
C1554 C 0.6648 0.23402 0.89678 0.0
C1555 C 0.68065 0.22818 0.87919 0.0
C1556 C 0.68195 0.21147 0.9075 0.0
C1557 C 0.69974 0.20749 0.88135 0.0
C1558 C 0.7182 0.21236 0.92423 0.0
C1559 C 0.68936 0.18359 0.8586 0.0
C1560 C 0.70845 0.22441 0.83348 0.0
C1561 C 0.69749 0.23643 0.83228 0.0
C1562 C 0.70315 0.2528 0.79021 0.0
C1563 C 0.7198 0.25656 0.74892 0.0
C1564 C 0.73093 0.24404 0.74889 0.0
C1565 C 0.72494 0.22795 0.79294 0.0
H1566 H 0.57262 0.20008 0.90911 0.0
H1567 H 0.51109 0.14386 0.9679 0.0
H1568 H 0.49494 0.13929 0.87285 0.0
H1569 H 0.54897 0.22404 0.83522 0.0
H1570 H 0.56867 0.23434 0.77793 0.0
H1571 H 0.57704 0.22971 0.84567 0.0
H1572 H 0.58939 0.20364 0.80011 0.0
H1573 H 0.58089 0.20814 0.73193 0.0
H1574 H 0.56987 0.18025 0.75853 0.0
H1575 H 0.48362 0.14463 0.77869 0.0
H1576 H 0.4766 0.16175 0.69631 0.0
H1577 H 0.54539 0.21471 0.69772 0.0
C1578 C 0.55601 0.18642 0.90116 0.0
C1579 C 0.54303 0.1723 0.94513 0.0
C1580 C 0.52113 0.15493 0.93442 0.0
C1581 C 0.512 0.15201 0.8805 0.0
C1582 C 0.52508 0.16656 0.83805 0.0
C1583 C 0.54662 0.18349 0.84781 0.0
C1584 C 0.55586 0.1991 0.79812 0.0
C1585 C 0.56303 0.2232 0.81529 0.0
C1586 C 0.57514 0.19768 0.77054 0.0
C1587 C 0.53563 0.1892 0.76051 0.0
C1588 C 0.51832 0.16997 0.78333 0.0
C1589 C 0.49717 0.15933 0.75957 0.0
C1590 C 0.49334 0.16914 0.7127 0.0
C1591 C 0.51051 0.18954 0.69101 0.0
C1592 C 0.53208 0.19908 0.71367 0.0
H1593 H 0.84183 0.38594 0.92445 0.0
H1594 H 0.89234 0.37297 0.99069 0.0
H1595 H 0.89337 0.35602 0.89993 0.0
H1596 H 0.81141 0.33608 0.85949 0.0
H1597 H 0.80347 0.34624 0.79908 0.0
H1598 H 0.80991 0.36123 0.86443 0.0
H1599 H 0.83979 0.39693 0.81409 0.0
H1600 H 0.83339 0.38202 0.74827 0.0
H1601 H 0.86153 0.39617 0.77428 0.0
H1602 H 0.88555 0.33666 0.80853 0.0
H1603 H 0.86748 0.31354 0.72506 0.0
H1604 H 0.82162 0.33872 0.71894 0.0
C1605 C 0.85353 0.38009 0.91902 0.0
C1606 C 0.86706 0.38072 0.96378 0.0
C1607 C 0.88176 0.37239 0.95651 0.0
C1608 C 0.88267 0.36307 0.90509 0.0
C1609 C 0.8688 0.36236 0.86185 0.0
C1610 C 0.85445 0.37059 0.86833 0.0
C1611 C 0.83912 0.3651 0.8185 0.0
C1612 C 0.81454 0.35134 0.83648 0.0
C1613 C 0.84375 0.38632 0.78691 0.0
C1614 C 0.84629 0.35146 0.78431 0.0
C1615 C 0.86386 0.35064 0.80919 0.0
C1616 C 0.87212 0.33753 0.7879 0.0
C1617 C 0.86179 0.3245 0.74055 0.0
C1618 C 0.84325 0.32451 0.71593 0.0
C1619 C 0.8358 0.33854 0.73725 0.0
H1620 H 0.67144 0.51542 0.99346 0.0
H1621 H 0.67109 0.45495 0.04053 0.0
H1622 H 0.69755 0.46109 0.96417 0.0
H1623 H 0.66704 0.50771 0.86025 0.0
H1624 H 0.68541 0.53556 0.83524 0.0
H1625 H 0.67287 0.53138 0.90353 0.0
H1626 H 0.71145 0.55385 0.95084 0.0
H1627 H 0.72429 0.55897 0.88223 0.0
H1628 H 0.73261 0.54666 0.93695 0.0
H1629 H 0.713 0.46676 0.86945 0.0
H1630 H 0.72286 0.47545 0.77004 0.0
H1631 H 0.71575 0.53398 0.78584 0.0
C1632 C 0.67796 0.50422 0.98974 0.0
C1633 C 0.6691 0.48461 0.02206 0.0
C1634 C 0.67748 0.4699 1.0153 0.0
C1635 C 0.69264 0.47336 0.97243 0.0
C1636 C 0.69958 0.49187 0.93788 0.0
C1637 C 0.69313 0.50752 0.94716 0.0
C1638 C 0.70016 0.52401 0.89916 0.0
C1639 C 0.68017 0.52466 0.87305 0.0
C1640 C 0.71821 0.54725 0.91845 0.0
C1641 C 0.70957 0.51387 0.85928 0.0
C1642 C 0.70948 0.49564 0.88284 0.0
C1643 C 0.71424 0.48164 0.85135 0.0
C1644 C 0.71972 0.4867 0.79461 0.0
C1645 C 0.72058 0.50573 0.76993 0.0
C1646 C 0.71546 0.51944 0.80309 0.0
H1647 H 0.5274 0.83523 0.29849 0.0
H1648 H 0.48415 0.76373 0.29366 0.0
H1649 H 0.46388 0.76833 0.21256 0.0
H1650 H 0.48627 0.8505 0.26499 0.0
H1651 H 0.50548 0.87434 0.22411 0.0
H1652 H 0.51554 0.86471 0.28119 0.0
H1653 H 0.54279 0.86124 0.21306 0.0
H1654 H 0.53283 0.87088 0.15582 0.0
H1655 H 0.53217 0.84467 0.15017 0.0
H1656 H 0.44826 0.78313 0.12458 0.0
H1657 H 0.44146 0.80448 0.0501 0.0
H1658 H 0.49582 0.86546 0.11746 0.0
C1659 C 0.51364 0.82029 0.28099 0.0
C1660 C 0.50766 0.79896 0.30394 0.0
C1661 C 0.48934 0.78028 0.27815 0.0
C1662 C 0.47767 0.78284 0.23154 0.0
C1663 C 0.48423 0.80425 0.21017 0.0
C1664 C 0.50195 0.82257 0.23488 0.0
C1665 C 0.50647 0.84394 0.20539 0.0
C1666 C 0.50325 0.85927 0.24636 0.0
C1667 C 0.52995 0.85588 0.17959 0.0
C1668 C 0.48872 0.83517 0.15965 0.0
C1669 C 0.47581 0.81225 0.16243 0.0
C1670 C 0.45849 0.80106 0.123 0.0
C1671 C 0.4546 0.8134 0.08044 0.0
C1672 C 0.46791 0.83696 0.07653 0.0
C1673 C 0.48506 0.84757 0.11782 0.0
H1674 H 0.22854 0.72899 0.22985 0.0
H1675 H 0.27055 0.71138 0.32542 0.0
H1676 H 0.26311 0.68179 0.25471 0.0
H1677 H 0.18704 0.67443 0.19364 0.0
H1678 H 0.18217 0.6821 0.12483 0.0
H1679 H 0.19227 0.70224 0.18086 0.0
H1680 H 0.22593 0.7291 0.11945 0.0
H1681 H 0.21587 0.70906 0.06306 0.0
H1682 H 0.24365 0.71963 0.08973 0.0
H1683 H 0.24757 0.65081 0.16852 0.0
H1684 H 0.22833 0.62638 0.08594 0.0
H1685 H 0.1973 0.66588 0.05122 0.0
C1686 C 0.23656 0.71921 0.23616 0.0
C1687 C 0.25042 0.72308 0.28422 0.0
C1688 C 0.26018 0.70938 0.28938 0.0
C1689 C 0.25583 0.69227 0.24913 0.0
C1690 C 0.24165 0.68874 0.20295 0.0
C1691 C 0.2324 0.70222 0.19666 0.0
C1692 C 0.21737 0.6954 0.14506 0.0
C1693 C 0.19329 0.68811 0.16213 0.0
C1694 C 0.22624 0.71443 0.10177 0.0
C1695 C 0.21919 0.67578 0.12276 0.0
C1696 C 0.23324 0.67194 0.1561 0.0
C1697 C 0.23672 0.6541 0.14264 0.0
C1698 C 0.22569 0.64016 0.09511 0.0
C1699 C 0.21107 0.64379 0.06056 0.0
C1700 C 0.20821 0.66217 0.07556 0.0
H1701 H 0.3466 0.56647 0.3353 0.0
H1702 H 0.28644 0.52465 0.24123 0.0
H1703 H 0.30883 0.53464 0.15282 0.0
H1704 H 0.37456 0.61014 0.23198 0.0
H1705 H 0.40166 0.61392 0.24721 0.0
H1706 H 0.38064 0.60406 0.30136 0.0
H1707 H 0.3849 0.56946 0.3163 0.0
H1708 H 0.40599 0.57927 0.2624 0.0
H1709 H 0.38186 0.5519 0.25708 0.0
H1710 H 0.34018 0.55097 0.07088 0.0
H1711 H 0.37454 0.56794 1.01237 0.0
H1712 H 0.41377 0.59714 0.16264 0.0
C1713 C 0.33788 0.55945 0.29621 0.0
C1714 C 0.31431 0.54484 0.2963 0.0
C1715 C 0.30421 0.53594 0.24337 0.0
C1716 C 0.31696 0.54162 0.19255 0.0
C1717 C 0.34014 0.55612 0.19433 0.0
C1718 C 0.35039 0.56467 0.24544 0.0
C1719 C 0.37553 0.57911 0.23756 0.0
C1720 C 0.38357 0.60323 0.2556 0.0
C1721 C 0.38779 0.56935 0.27028 0.0
C1722 C 0.37811 0.57762 0.17407 0.0
C1723 C 0.35757 0.56447 0.14933 0.0
C1724 C 0.35618 0.56114 0.09066 0.0
C1725 C 0.37596 0.57101 0.05728 0.0
C1726 C 0.39734 0.58408 0.08186 0.0
C1727 C 0.39799 0.58734 0.14148 0.0
H1728 H 0.21179 0.48654 0.27205 0.0
H1729 H 0.1792 0.50957 0.3867 0.0
H1730 H 0.16125 0.51698 0.30595 0.0
H1731 H 0.22827 0.527 0.18087 0.0
H1732 H 0.2245 0.51131 0.11727 0.0
H1733 H 0.22893 0.50136 0.18286 0.0
H1734 H 0.19222 0.46391 0.17015 0.0
H1735 H 0.18777 0.47362 0.10362 0.0
H1736 H 0.16661 0.46388 0.15744 0.0
H1737 H 0.15505 0.53036 0.21448 0.0
H1738 H 0.15915 0.54666 0.11985 0.0
H1739 H 0.19676 0.51549 0.06586 0.0
C1740 C 0.20019 0.49236 0.27987 0.0
C1741 C 0.19677 0.49764 0.3347 0.0
C1742 C 0.1817 0.50531 0.34449 0.0
C1743 C 0.17147 0.50948 0.29902 0.0
C1744 C 0.17626 0.50537 0.24471 0.0
C1745 C 0.18995 0.49653 0.23511 0.0
C1746 C 0.19542 0.4969 0.17348 0.0
C1747 C 0.22076 0.50993 0.16308 0.0
C1748 C 0.18486 0.47316 0.14978 0.0
C1749 C 0.18422 0.509 0.15036 0.0
C1750 C 0.17273 0.51323 0.19163 0.0
C1751 C 0.16345 0.52663 0.18147 0.0
C1752 C 0.16618 0.5361 0.12792 0.0
C1753 C 0.17834 0.53231 0.08574 0.0
C1754 C 0.18695 0.51819 0.09694 0.0
H1755 H 0.49932 0.71853 0.2847 0.0
H1756 H 0.5206 0.67906 0.37974 0.0
H1757 H 0.51024 0.65301 0.30023 0.0
H1758 H 0.45198 0.66918 0.20643 0.0
H1759 H 0.45756 0.6861 0.1443 0.0
H1760 H 0.46175 0.69851 0.2132 0.0
H1761 H 0.50222 0.72713 0.18509 0.0
H1762 H 0.49859 0.71444 0.11709 0.0
H1763 H 0.52068 0.71739 0.16253 0.0
H1764 H 0.50627 0.63709 0.20569 0.0
H1765 H 0.50259 0.6279 0.1043 0.0
H1766 H 0.48204 0.67634 0.07182 0.0
C1767 C 0.50083 0.70387 0.29004 0.0
C1768 C 0.51109 0.701 0.33801 0.0
C1769 C 0.5132 0.68181 0.34278 0.0
C1770 C 0.50718 0.66682 0.29811 0.0
C1771 C 0.49856 0.67103 0.24983 0.0
C1772 C 0.4947 0.68868 0.24608 0.0
C1773 C 0.48743 0.69081 0.18751 0.0
C1774 C 0.46324 0.68584 0.1879 0.0
C1775 C 0.50318 0.7138 0.16159 0.0
C1776 C 0.48944 0.67265 0.15804 0.0
C1777 C 0.49565 0.6613 0.19491 0.0
C1778 C 0.50083 0.6454 0.17662 0.0
C1779 C 0.49913 0.64062 0.11915 0.0
C1780 C 0.49234 0.65174 0.08114 0.0
C1781 C 0.48729 0.66778 0.1007 0.0
H1782 H 0.33517 0.80554 0.29507 0.0
H1783 H 0.3272 0.86288 0.32622 0.0
H1784 H 0.3511 0.88195 0.24504 0.0
H1785 H 0.39232 0.83572 0.24351 0.0
H1786 H 0.38727 0.8152 0.19029 0.0
H1787 H 0.37165 0.80698 0.25512 0.0
H1788 H 0.33484 0.78947 0.19837 0.0
H1789 H 0.35032 0.7977 0.13347 0.0
H1790 H 0.3303 0.80633 0.14835 0.0
H1791 H 0.37352 0.89381 0.15757 0.0
H1792 H 0.39339 0.89781 0.06866 0.0
H1793 H 0.38438 0.83168 0.091 0.0
C1794 C 0.33847 0.82212 0.28516 0.0
C1795 C 0.32932 0.83267 0.31738 0.0
C1796 C 0.33429 0.85452 0.30303 0.0
C1797 C 0.34778 0.8655 0.25674 0.0
C1798 C 0.3561 0.85439 0.22532 0.0
C1799 C 0.35168 0.83321 0.23885 0.0
C1800 C 0.36142 0.8244 0.196 0.0
C1801 C 0.37923 0.82034 0.22285 0.0
C1802 C 0.34312 0.80323 0.16736 0.0
C1803 C 0.37164 0.84381 0.15572 0.0
C1804 C 0.36858 0.86101 0.17373 0.0
C1805 C 0.3761 0.8805 0.14294 0.0
C1806 C 0.38714 0.88249 0.0922 0.0
C1807 C 0.39031 0.86497 0.07273 0.0
C1808 C 0.38246 0.84544 0.10511 0.0
loop_
_geom_bond_atom_site_label_1
_geom_bond_atom_site_label_2
_geom_bond_distance
_geom_bond_site_symmetry_2
_ccdc_geom_bond_type
C0 C1 1.351 . S
C0 N3 1.368 . S
C0 H5 0.931 . S
C1 C0 1.351 . S
C1 N2 1.373 . S
C1 H29 0.930 . S
N2 C1 1.373 . S
N2 C4 1.340 . S
N3 C0 1.368 . S
N3 C4 1.321 . S
N3 Co6 2.135 . S
C4 N2 1.340 . S
C4 N3 1.321 . S
C4 H28 0.930 . S
H5 C0 0.931 . S
Co6 N3 2.135 . S
Co6 N9 2.121 . S
Co6 O14 2.055 . S
Co6 O17 2.039 . S
Co6 N20 2.140 . S
C7 O8 1.227 . S
C7 O17 1.265 . S
O8 C7 1.227 . S
N9 Co6 2.121 . S
N9 C11 1.375 . S
N9 C12 1.313 . S
C10 C11 1.338 . S
C10 N13 1.377 . S
C10 H30 0.930 . S
C11 N9 1.375 . S
C11 C10 1.338 . S
C11 H15 0.931 . S
C12 N9 1.313 . S
C12 N13 1.344 . S
C12 H16 0.930 . S
N13 C10 1.377 . S
N13 C12 1.344 . S
O14 Co6 2.055 . S
O14 C18 1.253 . S
H15 C11 0.931 . S
H16 C12 0.930 . S
O17 Co6 2.039 . S
O17 C7 1.265 . S
C18 O14 1.253 . S
C18 O19 1.227 . S
O19 C18 1.227 . S
N20 Co6 2.140 . S
N20 C23 1.346 . S
N20 C24 1.345 . S
C21 C22 1.387 . S
C21 C25 1.391 . S
C22 C21 1.387 . S
C22 C23 1.369 . S
C22 H31 0.929 . S
C23 N20 1.346 . S
C23 C22 1.369 . S
C23 H26 0.928 . S
C24 N20 1.345 . S
C24 C25 1.371 . S
C24 H27 0.931 . S
C25 C21 1.391 . S
C25 C24 1.371 . S
C25 H32 0.930 . S
H26 C23 0.928 . S
H27 C24 0.931 . S
H28 C4 0.930 . S
H29 C1 0.930 . S
H30 C10 0.930 . S
H31 C22 0.929 . S
H32 C25 0.930 . S
C33 C34 1.351 . S
C33 N36 1.368 . S
C33 H38 0.931 . S
C34 C33 1.351 . S
C34 N35 1.373 . S
C34 H62 0.930 . S
N35 C34 1.373 . S
N35 C37 1.340 . S
N36 C33 1.368 . S
N36 C37 1.321 . S
N36 Co39 2.135 . S
C37 N35 1.340 . S
C37 N36 1.321 . S
C37 H61 0.930 . S
H38 C33 0.931 . S
Co39 N36 2.135 . S
Co39 N42 2.121 . S
Co39 O47 2.055 . S
Co39 O50 2.039 . S
Co39 N53 2.140 . S
C40 O41 1.227 . S
C40 O50 1.265 . S
O41 C40 1.227 . S
N42 Co39 2.121 . S
N42 C44 1.375 . S
N42 C45 1.313 . S
C43 C44 1.338 . S
C43 N46 1.377 . S
C43 H63 0.930 . S
C44 N42 1.375 . S
C44 C43 1.338 . S
C44 H48 0.931 . S
C45 N42 1.313 . S
C45 N46 1.344 . S
C45 H49 0.930 . S
N46 C43 1.377 . S
N46 C45 1.344 . S
O47 Co39 2.055 . S
O47 C51 1.253 . S
H48 C44 0.931 . S
H49 C45 0.930 . S
O50 Co39 2.039 . S
O50 C40 1.265 . S
C51 O47 1.253 . S
C51 O52 1.227 . S
O52 C51 1.227 . S
N53 Co39 2.140 . S
N53 C56 1.346 . S
N53 C57 1.345 . S
C54 C55 1.387 . S
C54 C58 1.391 . S
C55 C54 1.387 . S
C55 C56 1.369 . S
C55 H64 0.929 . S
C56 N53 1.346 . S
C56 C55 1.369 . S
C56 H59 0.928 . S
C57 N53 1.345 . S
C57 C58 1.371 . S
C57 H60 0.931 . S
C58 C54 1.391 . S
C58 C57 1.371 . S
C58 H65 0.930 . S
H59 C56 0.928 . S
H60 C57 0.931 . S
H61 C37 0.930 . S
H62 C34 0.930 . S
H63 C43 0.930 . S
H64 C55 0.929 . S
H65 C58 0.930 . S
C66 C67 1.351 . S
C66 N69 1.368 . S
C66 H71 0.931 . S
C67 C66 1.351 . S
C67 N68 1.373 . S
C67 H95 0.930 . S
N68 C67 1.373 . S
N68 C70 1.340 . S
N69 C66 1.368 . S
N69 C70 1.321 . S
N69 Co72 2.135 . S
C70 N68 1.340 . S
C70 N69 1.321 . S
C70 H94 0.930 . S
H71 C66 0.931 . S
Co72 N69 2.135 . S
Co72 N75 2.121 . S
Co72 O80 2.055 . S
Co72 O83 2.039 . S
Co72 N86 2.140 . S
C73 O74 1.227 . S
C73 O83 1.265 . S
O74 C73 1.227 . S
N75 Co72 2.121 . S
N75 C77 1.375 . S
N75 C78 1.313 . S
C76 C77 1.338 . S
C76 N79 1.377 . S
C76 H96 0.930 . S
C77 N75 1.375 . S
C77 C76 1.338 . S
C77 H81 0.931 . S
C78 N75 1.313 . S
C78 N79 1.344 . S
C78 H82 0.930 . S
N79 C76 1.377 . S
N79 C78 1.344 . S
O80 Co72 2.055 . S
O80 C84 1.253 . S
H81 C77 0.931 . S
H82 C78 0.930 . S
O83 Co72 2.039 . S
O83 C73 1.265 . S
C84 O80 1.253 . S
C84 O85 1.227 . S
O85 C84 1.227 . S
N86 Co72 2.140 . S
N86 C89 1.346 . S
N86 C90 1.345 . S
C87 C88 1.387 . S
C87 C91 1.391 . S
C88 C87 1.387 . S
C88 C89 1.369 . S
C88 H97 0.929 . S
C89 N86 1.346 . S
C89 C88 1.369 . S
C89 H92 0.928 . S
C90 N86 1.345 . S
C90 C91 1.371 . S
C90 H93 0.931 . S
C91 C87 1.391 . S
C91 C90 1.371 . S
C91 H98 0.930 . S
H92 C89 0.928 . S
H93 C90 0.931 . S
H94 C70 0.930 . S
H95 C67 0.930 . S
H96 C76 0.930 . S
H97 C88 0.929 . S
H98 C91 0.930 . S
C99 C100 1.351 . S
C99 N102 1.368 . S
C99 H104 0.931 . S
C100 C99 1.351 . S
C100 N101 1.373 . S
C100 H128 0.930 . S
N101 C100 1.373 . S
N101 C103 1.340 . S
N102 C99 1.368 . S
N102 C103 1.321 . S
N102 Co105 2.135 . S
C103 N101 1.340 . S
C103 N102 1.321 . S
C103 H127 0.930 . S
H104 C99 0.931 . S
Co105 N102 2.135 . S
Co105 N108 2.121 . S
Co105 O113 2.055 . S
Co105 O116 2.039 . S
Co105 N119 2.140 . S
C106 O107 1.227 . S
C106 O116 1.265 . S
O107 C106 1.227 . S
N108 Co105 2.121 . S
N108 C110 1.375 . S
N108 C111 1.313 . S
C109 C110 1.338 . S
C109 N112 1.377 . S
C109 H129 0.930 . S
C110 N108 1.375 . S
C110 C109 1.338 . S
C110 H114 0.931 . S
C111 N108 1.313 . S
C111 N112 1.344 . S
C111 H115 0.930 . S
N112 C109 1.377 . S
N112 C111 1.344 . S
O113 Co105 2.055 . S
O113 C117 1.253 . S
H114 C110 0.931 . S
H115 C111 0.930 . S
O116 Co105 2.039 . S
O116 C106 1.265 . S
C117 O113 1.253 . S
C117 O118 1.227 . S
O118 C117 1.227 . S
N119 Co105 2.140 . S
N119 C122 1.346 . S
N119 C123 1.345 . S
C120 C121 1.387 . S
C120 C124 1.391 . S
C121 C120 1.387 . S
C121 C122 1.369 . S
C121 H130 0.929 . S
C122 N119 1.346 . S
C122 C121 1.369 . S
C122 H125 0.928 . S
C123 N119 1.345 . S
C123 C124 1.371 . S
C123 H126 0.931 . S
C124 C120 1.391 . S
C124 C123 1.371 . S
C124 H131 0.930 . S
H125 C122 0.928 . S
H126 C123 0.931 . S
H127 C103 0.930 . S
H128 C100 0.930 . S
H129 C109 0.930 . S
H130 C121 0.929 . S
H131 C124 0.930 . S
C132 C133 1.351 . S
C132 N135 1.368 . S
C132 H137 0.931 . S
C133 C132 1.351 . S
C133 N134 1.373 . S
C133 H161 0.930 . S
N134 C133 1.373 . S
N134 C136 1.340 . S
N135 C132 1.368 . S
N135 C136 1.321 . S
N135 Co138 2.135 . S
C136 N134 1.340 . S
C136 N135 1.321 . S
C136 H160 0.930 . S
H137 C132 0.931 . S
Co138 N135 2.135 . S
Co138 N141 2.121 . S
Co138 O146 2.055 . S
Co138 O149 2.039 . S
Co138 N152 2.140 . S
C139 O140 1.227 . S
C139 O149 1.265 . S
O140 C139 1.227 . S
N141 Co138 2.121 . S
N141 C143 1.375 . S
N141 C144 1.313 . S
C142 C143 1.338 . S
C142 N145 1.377 . S
C142 H162 0.930 . S
C143 N141 1.375 . S
C143 C142 1.338 . S
C143 H147 0.931 . S
C144 N141 1.313 . S
C144 N145 1.344 . S
C144 H148 0.930 . S
N145 C142 1.377 . S
N145 C144 1.344 . S
O146 Co138 2.055 . S
O146 C150 1.253 . S
H147 C143 0.931 . S
H148 C144 0.930 . S
O149 Co138 2.039 . S
O149 C139 1.265 . S
C150 O146 1.253 . S
C150 O151 1.227 . S
O151 C150 1.227 . S
N152 Co138 2.140 . S
N152 C155 1.346 . S
N152 C156 1.345 . S
C153 C154 1.387 . S
C153 C157 1.391 . S
C154 C153 1.387 . S
C154 C155 1.369 . S
C154 H163 0.929 . S
C155 N152 1.346 . S
C155 C154 1.369 . S
C155 H158 0.928 . S
C156 N152 1.345 . S
C156 C157 1.371 . S
C156 H159 0.931 . S
C157 C153 1.391 . S
C157 C156 1.371 . S
C157 H164 0.930 . S
H158 C155 0.928 . S
H159 C156 0.931 . S
H160 C136 0.930 . S
H161 C133 0.930 . S
H162 C142 0.930 . S
H163 C154 0.929 . S
H164 C157 0.930 . S
C165 C166 1.351 . S
C165 N168 1.368 . S
C165 H170 0.931 . S
C166 C165 1.351 . S
C166 N167 1.373 . S
C166 H194 0.930 . S
N167 C166 1.373 . S
N167 C169 1.340 . S
N168 C165 1.368 . S
N168 C169 1.321 . S
N168 Co171 2.135 . S
C169 N167 1.340 . S
C169 N168 1.321 . S
C169 H193 0.930 . S
H170 C165 0.931 . S
Co171 N168 2.135 . S
Co171 N174 2.121 . S
Co171 O179 2.055 . S
Co171 O182 2.039 . S
Co171 N185 2.140 . S
C172 O173 1.227 . S
C172 O182 1.265 . S
O173 C172 1.227 . S
N174 Co171 2.121 . S
N174 C176 1.375 . S
N174 C177 1.313 . S
C175 C176 1.338 . S
C175 N178 1.377 . S
C175 H195 0.930 . S
C176 N174 1.375 . S
C176 C175 1.338 . S
C176 H180 0.931 . S
C177 N174 1.313 . S
C177 N178 1.344 . S
C177 H181 0.930 . S
N178 C175 1.377 . S
N178 C177 1.344 . S
O179 Co171 2.055 . S
O179 C183 1.253 . S
H180 C176 0.931 . S
H181 C177 0.930 . S
O182 Co171 2.039 . S
O182 C172 1.265 . S
C183 O179 1.253 . S
C183 O184 1.227 . S
O184 C183 1.227 . S
N185 Co171 2.140 . S
N185 C188 1.346 . S
N185 C189 1.345 . S
C186 C187 1.387 . S
C186 C190 1.391 . S
C187 C186 1.387 . S
C187 C188 1.369 . S
C187 H196 0.929 . S
C188 N185 1.346 . S
C188 C187 1.369 . S
C188 H191 0.928 . S
C189 N185 1.345 . S
C189 C190 1.371 . S
C189 H192 0.931 . S
C190 C186 1.391 . S
C190 C189 1.371 . S
C190 H197 0.930 . S
H191 C188 0.928 . S
H192 C189 0.931 . S
H193 C169 0.930 . S
H194 C166 0.930 . S
H195 C175 0.930 . S
H196 C187 0.929 . S
H197 C190 0.930 . S
C198 C199 1.351 . S
C198 N201 1.368 . S
C198 H203 0.931 . S
C199 C198 1.351 . S
C199 N200 1.373 . S
C199 H227 0.930 . S
N200 C199 1.373 . S
N200 C202 1.340 . S
N201 C198 1.368 . S
N201 C202 1.321 . S
N201 Co204 2.135 . S
C202 N200 1.340 . S
C202 N201 1.321 . S
C202 H226 0.930 . S
H203 C198 0.931 . S
Co204 N201 2.135 . S
Co204 N207 2.121 . S
Co204 O212 2.055 . S
Co204 O215 2.039 . S
Co204 N218 2.140 . S
C205 O206 1.227 . S
C205 O215 1.265 . S
O206 C205 1.227 . S
N207 Co204 2.121 . S
N207 C209 1.375 . S
N207 C210 1.313 . S
C208 C209 1.338 . S
C208 N211 1.377 . S
C208 H228 0.930 . S
C209 N207 1.375 . S
C209 C208 1.338 . S
C209 H213 0.931 . S
C210 N207 1.313 . S
C210 N211 1.344 . S
C210 H214 0.930 . S
N211 C208 1.377 . S
N211 C210 1.344 . S
O212 Co204 2.055 . S
O212 C216 1.253 . S
H213 C209 0.931 . S
H214 C210 0.930 . S
O215 Co204 2.039 . S
O215 C205 1.265 . S
C216 O212 1.253 . S
C216 O217 1.227 . S
O217 C216 1.227 . S
N218 Co204 2.140 . S
N218 C221 1.346 . S
N218 C222 1.345 . S
C219 C220 1.387 . S
C219 C223 1.391 . S
C220 C219 1.387 . S
C220 C221 1.369 . S
C220 H229 0.929 . S
C221 N218 1.346 . S
C221 C220 1.369 . S
C221 H224 0.928 . S
C222 N218 1.345 . S
C222 C223 1.371 . S
C222 H225 0.931 . S
C223 C219 1.391 . S
C223 C222 1.371 . S
C223 H230 0.930 . S
H224 C221 0.928 . S
H225 C222 0.931 . S
H226 C202 0.930 . S
H227 C199 0.930 . S
H228 C208 0.930 . S
H229 C220 0.929 . S
H230 C223 0.930 . S
C231 C232 1.351 . S
C231 N234 1.368 . S
C231 H236 0.931 . S
C232 C231 1.351 . S
C232 N233 1.373 . S
C232 H260 0.930 . S
N233 C232 1.373 . S
N233 C235 1.340 . S
N234 C231 1.368 . S
N234 C235 1.321 . S
N234 Co237 2.135 . S
C235 N233 1.340 . S
C235 N234 1.321 . S
C235 H259 0.930 . S
H236 C231 0.931 . S
Co237 N234 2.135 . S
Co237 N240 2.121 . S
Co237 O245 2.055 . S
Co237 O248 2.039 . S
Co237 N251 2.140 . S
C238 O239 1.227 . S
C238 O248 1.265 . S
O239 C238 1.227 . S
N240 Co237 2.121 . S
N240 C242 1.375 . S
N240 C243 1.313 . S
C241 C242 1.338 . S
C241 N244 1.377 . S
C241 H261 0.930 . S
C242 N240 1.375 . S
C242 C241 1.338 . S
C242 H246 0.931 . S
C243 N240 1.313 . S
C243 N244 1.344 . S
C243 H247 0.930 . S
N244 C241 1.377 . S
N244 C243 1.344 . S
O245 Co237 2.055 . S
O245 C249 1.253 . S
H246 C242 0.931 . S
H247 C243 0.930 . S
O248 Co237 2.039 . S
O248 C238 1.265 . S
C249 O245 1.253 . S
C249 O250 1.227 . S
O250 C249 1.227 . S
N251 Co237 2.140 . S
N251 C254 1.346 . S
N251 C255 1.345 . S
C252 C253 1.387 . S
C252 C256 1.391 . S
C253 C252 1.387 . S
C253 C254 1.369 . S
C253 H262 0.929 . S
C254 N251 1.346 . S
C254 C253 1.369 . S
C254 H257 0.928 . S
C255 N251 1.345 . S
C255 C256 1.371 . S
C255 H258 0.931 . S
C256 C252 1.391 . S
C256 C255 1.371 . S
C256 H263 0.930 . S
H257 C254 0.928 . S
H258 C255 0.931 . S
H259 C235 0.930 . S
H260 C232 0.930 . S
H261 C241 0.930 . S
H262 C253 0.929 . S
H263 C256 0.930 . S
C264 C265 1.351 . S
C264 N267 1.368 . S
C264 H269 0.931 . S
C265 C264 1.351 . S
C265 N266 1.373 . S
C265 H293 0.930 . S
N266 C265 1.373 . S
N266 C268 1.340 . S
N267 C264 1.368 . S
N267 C268 1.321 . S
N267 Co270 2.135 . S
C268 N266 1.340 . S
C268 N267 1.321 . S
C268 H292 0.930 . S
H269 C264 0.931 . S
Co270 N267 2.135 . S
Co270 N273 2.121 . S
Co270 O278 2.055 . S
Co270 O281 2.039 . S
Co270 N284 2.140 . S
C271 O272 1.227 . S
C271 O281 1.265 . S
O272 C271 1.227 . S
N273 Co270 2.121 . S
N273 C275 1.375 . S
N273 C276 1.313 . S
C274 C275 1.338 . S
C274 N277 1.377 . S
C274 H294 0.930 . S
C275 N273 1.375 . S
C275 C274 1.338 . S
C275 H279 0.931 . S
C276 N273 1.313 . S
C276 N277 1.344 . S
C276 H280 0.930 . S
N277 C274 1.377 . S
N277 C276 1.344 . S
O278 Co270 2.055 . S
O278 C282 1.253 . S
H279 C275 0.931 . S
H280 C276 0.930 . S
O281 Co270 2.039 . S
O281 C271 1.265 . S
C282 O278 1.253 . S
C282 O283 1.227 . S
O283 C282 1.227 . S
N284 Co270 2.140 . S
N284 C287 1.346 . S
N284 C288 1.345 . S
C285 C286 1.387 . S
C285 C289 1.391 . S
C286 C285 1.387 . S
C286 C287 1.369 . S
C286 H295 0.929 . S
C287 N284 1.346 . S
C287 C286 1.369 . S
C287 H290 0.928 . S
C288 N284 1.345 . S
C288 C289 1.371 . S
C288 H291 0.931 . S
C289 C285 1.391 . S
C289 C288 1.371 . S
C289 H296 0.930 . S
H290 C287 0.928 . S
H291 C288 0.931 . S
H292 C268 0.930 . S
H293 C265 0.930 . S
H294 C274 0.930 . S
H295 C286 0.929 . S
H296 C289 0.930 . S
C297 C298 1.351 1_554 S
C297 N300 1.368 . S
C297 H302 0.931 . S
C298 C297 1.351 1_556 S
C298 N299 1.373 . S
C298 H326 0.930 . S
N299 C298 1.373 . S
N299 C301 1.340 . S
N300 C297 1.368 . S
N300 C301 1.321 1_554 S
N300 Co303 2.135 . S
C301 N299 1.340 . S
C301 N300 1.321 1_556 S
C301 H325 0.930 . S
H302 C297 0.931 . S
Co303 N300 2.135 . S
Co303 N306 2.121 . S
Co303 O311 2.055 . S
Co303 O314 2.039 . S
Co303 N317 2.140 . S
C304 O305 1.227 . S
C304 O314 1.265 1_556 S
O305 C304 1.227 . S
N306 Co303 2.121 . S
N306 C308 1.375 . S
N306 C309 1.313 . S
C307 C308 1.338 . S
C307 N310 1.377 . S
C307 H327 0.930 . S
C308 N306 1.375 . S
C308 C307 1.338 . S
C308 H312 0.931 . S
C309 N306 1.313 . S
C309 N310 1.344 . S
C309 H313 0.930 . S
N310 C307 1.377 . S
N310 C309 1.344 . S
O311 Co303 2.055 . S
O311 C315 1.253 . S
H312 C308 0.931 . S
H313 C309 0.930 . S
O314 Co303 2.039 . S
O314 C304 1.265 1_554 S
C315 O311 1.253 . S
C315 O316 1.227 . S
O316 C315 1.227 . S
N317 Co303 2.140 . S
N317 C320 1.346 . S
N317 C321 1.345 . S
C318 C319 1.387 . S
C318 C322 1.391 . S
C319 C318 1.387 . S
C319 C320 1.369 . S
C319 H328 0.929 1_554 S
C320 N317 1.346 . S
C320 C319 1.369 . S
C320 H323 0.928 1_554 S
C321 N317 1.345 . S
C321 C322 1.371 . S
C321 H324 0.931 . S
C322 C318 1.391 . S
C322 C321 1.371 . S
C322 H329 0.930 . S
H323 C320 0.928 1_556 S
H324 C321 0.931 . S
H325 C301 0.930 . S
H326 C298 0.930 . S
H327 C307 0.930 . S
H328 C319 0.929 1_556 S
H329 C322 0.930 . S
C330 C331 1.351 1_554 S
C330 N333 1.368 . S
C330 H335 0.931 . S
C331 C330 1.351 1_556 S
C331 N332 1.373 . S
C331 H359 0.930 . S
N332 C331 1.373 . S
N332 C334 1.340 . S
N333 C330 1.368 . S
N333 C334 1.321 1_554 S
N333 Co336 2.135 . S
C334 N332 1.340 . S
C334 N333 1.321 1_556 S
C334 H358 0.930 . S
H335 C330 0.931 . S
Co336 N333 2.135 . S
Co336 N339 2.121 . S
Co336 O344 2.055 . S
Co336 O347 2.039 . S
Co336 N350 2.140 . S
C337 O338 1.227 . S
C337 O347 1.265 1_556 S
O338 C337 1.227 . S
N339 Co336 2.121 . S
N339 C341 1.375 . S
N339 C342 1.313 . S
C340 C341 1.338 . S
C340 N343 1.377 . S
C340 H360 0.930 . S
C341 N339 1.375 . S
C341 C340 1.338 . S
C341 H345 0.931 . S
C342 N339 1.313 . S
C342 N343 1.344 . S
C342 H346 0.930 . S
N343 C340 1.377 . S
N343 C342 1.344 . S
O344 Co336 2.055 . S
O344 C348 1.253 . S
H345 C341 0.931 . S
H346 C342 0.930 . S
O347 Co336 2.039 . S
O347 C337 1.265 1_554 S
C348 O344 1.253 . S
C348 O349 1.227 . S
O349 C348 1.227 . S
N350 Co336 2.140 . S
N350 C353 1.346 . S
N350 C354 1.345 . S
C351 C352 1.387 . S
C351 C355 1.391 . S
C352 C351 1.387 . S
C352 C353 1.369 . S
C352 H361 0.929 1_554 S
C353 N350 1.346 . S
C353 C352 1.369 . S
C353 H356 0.928 1_554 S
C354 N350 1.345 . S
C354 C355 1.371 . S
C354 H357 0.931 . S
C355 C351 1.391 . S
C355 C354 1.371 . S
C355 H362 0.930 . S
H356 C353 0.928 1_556 S
H357 C354 0.931 . S
H358 C334 0.930 . S
H359 C331 0.930 . S
H360 C340 0.930 . S
H361 C352 0.929 1_556 S
H362 C355 0.930 . S
C363 C364 1.351 1_554 S
C363 N366 1.368 . S
C363 H368 0.931 . S
C364 C363 1.351 1_556 S
C364 N365 1.373 . S
C364 H392 0.930 . S
N365 C364 1.373 . S
N365 C367 1.340 . S
N366 C363 1.368 . S
N366 C367 1.321 1_554 S
N366 Co369 2.135 . S
C367 N365 1.340 . S
C367 N366 1.321 1_556 S
C367 H391 0.930 . S
H368 C363 0.931 . S
Co369 N366 2.135 . S
Co369 N372 2.121 . S
Co369 O377 2.055 . S
Co369 O380 2.039 . S
Co369 N383 2.140 . S
C370 O371 1.227 . S
C370 O380 1.265 1_556 S
O371 C370 1.227 . S
N372 Co369 2.121 . S
N372 C374 1.375 . S
N372 C375 1.313 . S
C373 C374 1.338 . S
C373 N376 1.377 . S
C373 H393 0.930 . S
C374 N372 1.375 . S
C374 C373 1.338 . S
C374 H378 0.931 . S
C375 N372 1.313 . S
C375 N376 1.344 . S
C375 H379 0.930 . S
N376 C373 1.377 . S
N376 C375 1.344 . S
O377 Co369 2.055 . S
O377 C381 1.253 . S
H378 C374 0.931 . S
H379 C375 0.930 . S
O380 Co369 2.039 . S
O380 C370 1.265 1_554 S
C381 O377 1.253 . S
C381 O382 1.227 . S
O382 C381 1.227 . S
N383 Co369 2.140 . S
N383 C386 1.346 . S
N383 C387 1.345 . S
C384 C385 1.387 . S
C384 C388 1.391 . S
C385 C384 1.387 . S
C385 C386 1.369 . S
C385 H394 0.929 1_554 S
C386 N383 1.346 . S
C386 C385 1.369 . S
C386 H389 0.928 1_554 S
C387 N383 1.345 . S
C387 C388 1.371 . S
C387 H390 0.931 . S
C388 C384 1.391 . S
C388 C387 1.371 . S
C388 H395 0.930 . S
H389 C386 0.928 1_556 S
H390 C387 0.931 . S
H391 C367 0.930 . S
H392 C364 0.930 . S
H393 C373 0.930 . S
H394 C385 0.929 1_556 S
H395 C388 0.930 . S
C396 C397 1.351 1_556 S
C396 N399 1.368 . S
C396 H401 0.931 . S
C397 C396 1.351 1_554 S
C397 N398 1.373 . S
C397 H425 0.930 . S
N398 C397 1.373 . S
N398 C400 1.340 . S
N399 C396 1.368 . S
N399 C400 1.321 1_556 S
N399 Co402 2.135 . S
C400 N398 1.340 . S
C400 N399 1.321 1_554 S
C400 H424 0.930 . S
H401 C396 0.931 . S
Co402 N399 2.135 . S
Co402 N405 2.121 . S
Co402 O410 2.055 . S
Co402 O413 2.039 . S
Co402 N416 2.140 . S
C403 O404 1.227 . S
C403 O413 1.265 1_554 S
O404 C403 1.227 . S
N405 Co402 2.121 . S
N405 C407 1.375 . S
N405 C408 1.313 . S
C406 C407 1.338 . S
C406 N409 1.377 . S
C406 H426 0.930 . S
C407 N405 1.375 . S
C407 C406 1.338 . S
C407 H411 0.931 . S
C408 N405 1.313 . S
C408 N409 1.344 . S
C408 H412 0.930 . S
N409 C406 1.377 . S
N409 C408 1.344 . S
O410 Co402 2.055 . S
O410 C414 1.253 . S
H411 C407 0.931 . S
H412 C408 0.930 . S
O413 Co402 2.039 . S
O413 C403 1.265 1_556 S
C414 O410 1.253 . S
C414 O415 1.227 . S
O415 C414 1.227 . S
N416 Co402 2.140 . S
N416 C419 1.346 . S
N416 C420 1.345 . S
C417 C418 1.387 . S
C417 C421 1.391 . S
C418 C417 1.387 . S
C418 C419 1.369 . S
C418 H427 0.929 1_556 S
C419 N416 1.346 . S
C419 C418 1.369 . S
C419 H422 0.928 1_556 S
C420 N416 1.345 . S
C420 C421 1.371 . S
C420 H423 0.931 . S
C421 C417 1.391 . S
C421 C420 1.371 . S
C421 H428 0.930 . S
H422 C419 0.928 1_554 S
H423 C420 0.931 . S
H424 C400 0.930 . S
H425 C397 0.930 . S
H426 C406 0.930 . S
H427 C418 0.929 1_554 S
H428 C421 0.930 . S
C429 C430 1.351 1_556 S
C429 N432 1.368 . S
C429 H434 0.931 . S
C430 C429 1.351 1_554 S
C430 N431 1.373 . S
C430 H458 0.930 . S
N431 C430 1.373 . S
N431 C433 1.340 . S
N432 C429 1.368 . S
N432 C433 1.321 1_556 S
N432 Co435 2.135 . S
C433 N431 1.340 . S
C433 N432 1.321 1_554 S
C433 H457 0.930 . S
H434 C429 0.931 . S
Co435 N432 2.135 . S
Co435 N438 2.121 . S
Co435 O443 2.055 . S
Co435 O446 2.039 . S
Co435 N449 2.140 . S
C436 O437 1.227 . S
C436 O446 1.265 1_554 S
O437 C436 1.227 . S
N438 Co435 2.121 . S
N438 C440 1.375 . S
N438 C441 1.313 . S
C439 C440 1.338 . S
C439 N442 1.377 . S
C439 H459 0.930 . S
C440 N438 1.375 . S
C440 C439 1.338 . S
C440 H444 0.931 . S
C441 N438 1.313 . S
C441 N442 1.344 . S
C441 H445 0.930 . S
N442 C439 1.377 . S
N442 C441 1.344 . S
O443 Co435 2.055 . S
O443 C447 1.253 . S
H444 C440 0.931 . S
H445 C441 0.930 . S
O446 Co435 2.039 . S
O446 C436 1.265 1_556 S
C447 O443 1.253 . S
C447 O448 1.227 . S
O448 C447 1.227 . S
N449 Co435 2.140 . S
N449 C452 1.346 . S
N449 C453 1.345 . S
C450 C451 1.387 . S
C450 C454 1.391 . S
C451 C450 1.387 . S
C451 C452 1.369 . S
C451 H460 0.929 1_556 S
C452 N449 1.346 . S
C452 C451 1.369 . S
C452 H455 0.928 1_556 S
C453 N449 1.345 . S
C453 C454 1.371 . S
C453 H456 0.931 . S
C454 C450 1.391 . S
C454 C453 1.371 . S
C454 H461 0.930 . S
H455 C452 0.928 1_554 S
H456 C453 0.931 . S
H457 C433 0.930 . S
H458 C430 0.930 . S
H459 C439 0.930 . S
H460 C451 0.929 1_554 S
H461 C454 0.930 . S
C462 C463 1.351 1_556 S
C462 N465 1.368 . S
C462 H467 0.931 . S
C463 C462 1.351 1_554 S
C463 N464 1.373 . S
C463 H491 0.930 . S
N464 C463 1.373 . S
N464 C466 1.340 . S
N465 C462 1.368 . S
N465 C466 1.321 1_556 S
N465 Co468 2.135 . S
C466 N464 1.340 . S
C466 N465 1.321 1_554 S
C466 H490 0.930 . S
H467 C462 0.931 . S
Co468 N465 2.135 . S
Co468 N471 2.121 . S
Co468 O476 2.055 . S
Co468 O479 2.039 . S
Co468 N482 2.140 . S
C469 O470 1.227 . S
C469 O479 1.265 1_554 S
O470 C469 1.227 . S
N471 Co468 2.121 . S
N471 C473 1.375 . S
N471 C474 1.313 . S
C472 C473 1.338 . S
C472 N475 1.377 . S
C472 H492 0.930 . S
C473 N471 1.375 . S
C473 C472 1.338 . S
C473 H477 0.931 . S
C474 N471 1.313 . S
C474 N475 1.344 . S
C474 H478 0.930 . S
N475 C472 1.377 . S
N475 C474 1.344 . S
O476 Co468 2.055 . S
O476 C480 1.253 . S
H477 C473 0.931 . S
H478 C474 0.930 . S
O479 Co468 2.039 . S
O479 C469 1.265 1_556 S
C480 O476 1.253 . S
C480 O481 1.227 . S
O481 C480 1.227 . S
N482 Co468 2.140 . S
N482 C485 1.346 . S
N482 C486 1.345 . S
C483 C484 1.387 . S
C483 C487 1.391 . S
C484 C483 1.387 . S
C484 C485 1.369 . S
C484 H493 0.929 1_556 S
C485 N482 1.346 . S
C485 C484 1.369 . S
C485 H488 0.928 1_556 S
C486 N482 1.345 . S
C486 C487 1.371 . S
C486 H489 0.931 . S
C487 C483 1.391 . S
C487 C486 1.371 . S
C487 H494 0.930 . S
H488 C485 0.928 1_554 S
H489 C486 0.931 . S
H490 C466 0.930 . S
H491 C463 0.930 . S
H492 C472 0.930 . S
H493 C484 0.929 1_554 S
H494 C487 0.930 . S
C495 C496 1.351 . S
C495 N498 1.368 . S
C495 H500 0.931 . S
C496 C495 1.351 . S
C496 N497 1.373 . S
C496 H524 0.930 . S
N497 C496 1.373 . S
N497 C499 1.340 . S
N498 C495 1.368 . S
N498 C499 1.321 . S
N498 Co501 2.135 . S
C499 N497 1.340 . S
C499 N498 1.321 . S
C499 H523 0.930 . S
H500 C495 0.931 . S
Co501 N498 2.135 . S
Co501 N504 2.121 . S
Co501 O509 2.055 . S
Co501 O512 2.039 . S
Co501 N515 2.140 . S
C502 O503 1.227 . S
C502 O512 1.265 . S
O503 C502 1.227 . S
N504 Co501 2.121 . S
N504 C506 1.375 . S
N504 C507 1.313 . S
C505 C506 1.338 . S
C505 N508 1.377 . S
C505 H525 0.930 . S
C506 N504 1.375 . S
C506 C505 1.338 . S
C506 H510 0.931 . S
C507 N504 1.313 . S
C507 N508 1.344 . S
C507 H511 0.930 . S
N508 C505 1.377 . S
N508 C507 1.344 . S
O509 Co501 2.055 . S
O509 C513 1.253 . S
H510 C506 0.931 . S
H511 C507 0.930 . S
O512 Co501 2.039 . S
O512 C502 1.265 . S
C513 O509 1.253 . S
C513 O514 1.227 . S
O514 C513 1.227 . S
N515 Co501 2.140 . S
N515 C518 1.346 . S
N515 C519 1.345 . S
C516 C517 1.387 . S
C516 C520 1.391 . S
C517 C516 1.387 . S
C517 C518 1.369 . S
C517 H526 0.929 . S
C518 N515 1.346 . S
C518 C517 1.369 . S
C518 H521 0.928 . S
C519 N515 1.345 . S
C519 C520 1.371 . S
C519 H522 0.931 . S
C520 C516 1.391 . S
C520 C519 1.371 . S
C520 H527 0.930 . S
H521 C518 0.928 . S
H522 C519 0.931 . S
H523 C499 0.930 . S
H524 C496 0.930 . S
H525 C505 0.930 . S
H526 C517 0.929 . S
H527 C520 0.930 . S
C528 C529 1.351 . S
C528 N531 1.368 . S
C528 H533 0.931 . S
C529 C528 1.351 . S
C529 N530 1.373 . S
C529 H557 0.930 . S
N530 C529 1.373 . S
N530 C532 1.340 . S
N531 C528 1.368 . S
N531 C532 1.321 . S
N531 Co534 2.135 . S
C532 N530 1.340 . S
C532 N531 1.321 . S
C532 H556 0.930 . S
H533 C528 0.931 . S
Co534 N531 2.135 . S
Co534 N537 2.121 . S
Co534 O542 2.055 . S
Co534 O545 2.039 . S
Co534 N548 2.140 . S
C535 O536 1.227 . S
C535 O545 1.265 . S
O536 C535 1.227 . S
N537 Co534 2.121 . S
N537 C539 1.375 . S
N537 C540 1.313 . S
C538 C539 1.338 . S
C538 N541 1.377 . S
C538 H558 0.930 . S
C539 N537 1.375 . S
C539 C538 1.338 . S
C539 H543 0.931 . S
C540 N537 1.313 . S
C540 N541 1.344 . S
C540 H544 0.930 . S
N541 C538 1.377 . S
N541 C540 1.344 . S
O542 Co534 2.055 . S
O542 C546 1.253 . S
H543 C539 0.931 . S
H544 C540 0.930 . S
O545 Co534 2.039 . S
O545 C535 1.265 . S
C546 O542 1.253 . S
C546 O547 1.227 . S
O547 C546 1.227 . S
N548 Co534 2.140 . S
N548 C551 1.346 . S
N548 C552 1.345 . S
C549 C550 1.387 . S
C549 C553 1.391 . S
C550 C549 1.387 . S
C550 C551 1.369 . S
C550 H559 0.929 . S
C551 N548 1.346 . S
C551 C550 1.369 . S
C551 H554 0.928 . S
C552 N548 1.345 . S
C552 C553 1.371 . S
C552 H555 0.931 . S
C553 C549 1.391 . S
C553 C552 1.371 . S
C553 H560 0.930 . S
H554 C551 0.928 . S
H555 C552 0.931 . S
H556 C532 0.930 . S
H557 C529 0.930 . S
H558 C538 0.930 . S
H559 C550 0.929 . S
H560 C553 0.930 . S
C561 C562 1.351 . S
C561 N564 1.368 . S
C561 H566 0.931 . S
C562 C561 1.351 . S
C562 N563 1.373 . S
C562 H590 0.930 . S
N563 C562 1.373 . S
N563 C565 1.340 . S
N564 C561 1.368 . S
N564 C565 1.321 . S
N564 Co567 2.135 . S
C565 N563 1.340 . S
C565 N564 1.321 . S
C565 H589 0.930 . S
H566 C561 0.931 . S
Co567 N564 2.135 . S
Co567 N570 2.121 . S
Co567 O575 2.055 . S
Co567 O578 2.039 . S
Co567 N581 2.140 . S
C568 O569 1.227 . S
C568 O578 1.265 . S
O569 C568 1.227 . S
N570 Co567 2.121 . S
N570 C572 1.375 . S
N570 C573 1.313 . S
C571 C572 1.338 . S
C571 N574 1.377 . S
C571 H591 0.930 . S
C572 N570 1.375 . S
C572 C571 1.338 . S
C572 H576 0.931 . S
C573 N570 1.313 . S
C573 N574 1.344 . S
C573 H577 0.930 . S
N574 C571 1.377 . S
N574 C573 1.344 . S
O575 Co567 2.055 . S
O575 C579 1.253 . S
H576 C572 0.931 . S
H577 C573 0.930 . S
O578 Co567 2.039 . S
O578 C568 1.265 . S
C579 O575 1.253 . S
C579 O580 1.227 . S
O580 C579 1.227 . S
N581 Co567 2.140 . S
N581 C584 1.346 . S
N581 C585 1.345 . S
C582 C583 1.387 . S
C582 C586 1.391 . S
C583 C582 1.387 . S
C583 C584 1.369 . S
C583 H592 0.929 . S
C584 N581 1.346 . S
C584 C583 1.369 . S
C584 H587 0.928 . S
C585 N581 1.345 . S
C585 C586 1.371 . S
C585 H588 0.931 . S
C586 C582 1.391 . S
C586 C585 1.371 . S
C586 H593 0.930 . S
H587 C584 0.928 . S
H588 C585 0.931 . S
H589 C565 0.930 . S
H590 C562 0.930 . S
H591 C571 0.930 . S
H592 C583 0.929 . S
H593 C586 0.930 . S
H594 C606 0.930 . S
H595 C608 0.930 . S
H596 C609 0.930 . S
H597 C613 0.959 . S
H598 C613 0.959 . S
H599 C613 0.961 . S
H600 C614 0.960 . S
H601 C614 0.961 . S
H602 C614 0.959 . S
H603 C617 0.929 . S
H604 C618 0.931 . S
H605 C620 0.930 . S
C606 H594 0.930 . S
C606 C607 1.399 . S
C606 C611 1.399 . S
C607 C606 1.399 . S
C607 C608 1.376 . S
C608 H595 0.930 . S
C608 C607 1.376 . S
C608 C609 1.388 1_556 S
C609 H596 0.930 . S
C609 C608 1.388 1_554 S
C609 C610 1.391 . S
C610 C609 1.391 . S
C610 C611 1.388 1_554 S
C610 C616 1.469 . S
C611 C606 1.399 . S
C611 C610 1.388 1_556 S
C611 C612 1.516 . S
C612 C611 1.516 . S
C612 C613 1.502 . S
C612 C614 1.561 . S
C612 C615 1.526 1_556 S
C613 H597 0.959 . S
C613 H598 0.959 . S
C613 H599 0.961 . S
C613 C612 1.502 . S
C614 H600 0.960 . S
C614 H601 0.961 . S
C614 H602 0.959 . S
C614 C612 1.561 . S
C615 C612 1.526 1_554 S
C615 C616 1.396 . S
C615 C620 1.390 . S
C616 C610 1.469 . S
C616 C615 1.396 . S
C616 C617 1.399 . S
C617 H603 0.929 . S
C617 C616 1.399 . S
C617 C618 1.385 . S
C618 H604 0.931 . S
C618 C617 1.385 . S
C618 C619 1.389 . S
C619 C618 1.389 . S
C619 C620 1.387 . S
C620 H605 0.930 . S
C620 C615 1.390 . S
C620 C619 1.387 . S
H621 C633 0.930 . S
H622 C635 0.930 . S
H623 C636 0.930 1_554 S
H624 C640 0.959 . S
H625 C640 0.959 . S
H626 C640 0.961 . S
H627 C641 0.960 1_545 S
H628 C641 0.962 . S
H629 C641 0.959 1_544 S
H630 C644 0.929 1_545 S
H631 C645 0.931 . S
H632 C647 0.930 . S
C633 H621 0.930 . S
C633 C634 1.399 . S
C633 C638 1.399 . S
C634 C633 1.399 . S
C634 C635 1.376 . S
C635 H622 0.930 . S
C635 C634 1.376 . S
C635 C636 1.388 . S
C636 H623 0.930 1_556 S
C636 C635 1.388 . S
C636 C637 1.390 . S
C637 C636 1.390 . S
C637 C638 1.394 . S
C637 C643 1.465 1_546 S
C638 C633 1.399 . S
C638 C637 1.394 . S
C638 C639 1.516 1_545 S
C639 C638 1.516 1_565 S
C639 C640 1.502 . S
C639 C641 1.561 . S
C639 C642 1.526 1_556 S
C640 H624 0.959 . S
C640 H625 0.959 . S
C640 H626 0.961 . S
C640 C639 1.502 . S
C641 H627 0.960 1_565 S
C641 H628 0.962 . S
C641 H629 0.959 1_566 S
C641 C639 1.561 . S
C642 C639 1.526 1_554 S
C642 C643 1.396 . S
C642 C647 1.390 . S
C643 C637 1.465 1_564 S
C643 C642 1.396 . S
C643 C644 1.399 . S
C644 H630 0.929 1_565 S
C644 C643 1.399 . S
C644 C645 1.385 . S
C645 H631 0.931 . S
C645 C644 1.385 . S
C645 C646 1.389 . S
C646 C645 1.389 . S
C646 C647 1.387 . S
C647 H632 0.930 . S
C647 C642 1.390 . S
C647 C646 1.387 . S
H648 C660 0.930 . S
H649 C662 0.930 . S
H650 C663 0.930 . S
H651 C667 0.933 1_456 S
H652 C667 0.979 1_556 S
H653 C667 0.933 1_455 S
H654 C668 0.960 . S
H655 C668 0.961 . S
H656 C668 0.959 . S
H657 C671 0.929 . S
H658 C672 0.931 . S
H659 C674 0.930 . S
C660 H648 0.930 . S
C660 C661 1.399 . S
C660 C665 1.399 . S
C661 C660 1.399 . S
C661 C662 1.376 . S
C662 H649 0.930 . S
C662 C661 1.376 . S
C662 C663 1.388 . S
C663 H650 0.930 . S
C663 C662 1.388 . S
C663 C664 1.390 . S
C664 C663 1.390 . S
C664 C665 1.394 . S
C664 C670 1.465 1_454 S
C665 C660 1.399 . S
C665 C664 1.394 . S
C665 C666 1.516 1_455 S
C666 C665 1.516 1_655 S
C666 C667 1.540 . S
C666 C668 1.561 . S
C666 C669 1.526 1_554 S
C667 H651 0.933 1_654 S
C667 H652 0.979 1_554 S
C667 H653 0.933 1_655 S
C667 C666 1.540 . S
C668 H654 0.960 . S
C668 H655 0.961 . S
C668 H656 0.959 . S
C668 C666 1.561 . S
C669 C666 1.526 1_556 S
C669 C670 1.396 . S
C669 C674 1.390 . S
C670 C664 1.465 1_656 S
C670 C669 1.396 . S
C670 C671 1.399 . S
C671 H657 0.929 . S
C671 C670 1.399 . S
C671 C672 1.385 . S
C672 H658 0.931 . S
C672 C671 1.385 . S
C672 C673 1.389 . S
C673 C672 1.389 . S
C673 C674 1.387 . S
C674 H659 0.930 . S
C674 C669 1.390 . S
C674 C673 1.387 . S
H675 C687 0.930 . S
H676 C689 0.930 . S
H677 C690 0.930 . S
H678 C694 0.959 . S
H679 C694 0.959 . S
H680 C694 0.961 . S
H681 C695 0.960 . S
H682 C695 0.961 . S
H683 C695 0.959 . S
H684 C698 0.929 . S
H685 C699 0.931 . S
H686 C701 0.930 . S
C687 H675 0.930 . S
C687 C688 1.399 . S
C687 C692 1.399 . S
C688 C687 1.399 . S
C688 C689 1.376 . S
C689 H676 0.930 . S
C689 C688 1.376 . S
C689 C690 1.388 . S
C690 H677 0.930 . S
C690 C689 1.388 . S
C690 C691 1.390 . S
C691 C690 1.390 . S
C691 C692 1.394 . S
C691 C697 1.465 1_554 S
C692 C687 1.399 . S
C692 C691 1.394 . S
C692 C693 1.516 . S
C693 C692 1.516 . S
C693 C694 1.502 1_554 S
C693 C695 1.561 . S
C693 C696 1.526 1_554 S
C694 H678 0.959 . S
C694 H679 0.959 . S
C694 H680 0.961 . S
C694 C693 1.502 1_556 S
C695 H681 0.960 . S
C695 H682 0.961 . S
C695 H683 0.959 . S
C695 C693 1.561 . S
C696 C693 1.526 1_556 S
C696 C697 1.396 . S
C696 C701 1.390 . S
C697 C691 1.465 1_556 S
C697 C696 1.396 . S
C697 C698 1.399 . S
C698 H684 0.929 . S
C698 C697 1.399 . S
C698 C699 1.385 . S
C699 H685 0.931 . S
C699 C698 1.385 . S
C699 C700 1.389 . S
C700 C699 1.389 . S
C700 C701 1.387 . S
C701 H686 0.930 . S
C701 C696 1.390 . S
C701 C700 1.387 . S
H702 C714 0.930 . S
H703 C716 0.930 . S
H704 C717 0.930 1_565 S
H705 C721 0.959 . S
H706 C721 0.959 . S
H707 C721 0.961 . S
H708 C722 0.960 . S
H709 C722 0.961 . S
H710 C722 0.959 . S
H711 C725 0.929 1_556 S
H712 C726 0.931 . S
H713 C728 0.930 . S
C714 H702 0.930 . S
C714 C715 1.399 . S
C714 C719 1.399 . S
C715 C714 1.399 . S
C715 C716 1.376 . S
C716 H703 0.930 . S
C716 C715 1.376 . S
C716 C717 1.388 . S
C717 H704 0.930 1_545 S
C717 C716 1.388 . S
C717 C718 1.390 . S
C718 C717 1.390 . S
C718 C719 1.394 . S
C718 C724 1.465 1_546 S
C719 C714 1.399 . S
C719 C718 1.394 . S
C719 C720 1.516 1_556 S
C720 C719 1.516 1_554 S
C720 C721 1.502 . S
C720 C722 1.561 . S
C720 C723 1.526 1_545 S
C721 H705 0.959 . S
C721 H706 0.959 . S
C721 H707 0.961 . S
C721 C720 1.502 . S
C722 H708 0.960 . S
C722 H709 0.961 . S
C722 H710 0.959 . S
C722 C720 1.561 . S
C723 C720 1.526 1_565 S
C723 C724 1.396 . S
C723 C728 1.390 . S
C724 C718 1.465 1_564 S
C724 C723 1.396 . S
C724 C725 1.399 . S
C725 H711 0.929 1_554 S
C725 C724 1.399 . S
C725 C726 1.385 . S
C726 H712 0.931 . S
C726 C725 1.385 . S
C726 C727 1.389 . S
C727 C726 1.389 . S
C727 C728 1.387 . S
C728 H713 0.930 . S
C728 C723 1.390 . S
C728 C727 1.387 . S
H729 C741 0.930 . S
H730 C743 0.930 . S
H731 C744 0.930 . S
H732 C748 0.959 . S
H733 C748 0.959 . S
H734 C748 0.961 . S
H735 C749 0.960 . S
H736 C749 0.961 . S
H737 C749 0.959 . S
H738 C752 0.929 . S
H739 C753 0.931 . S
H740 C755 0.930 . S
C741 H729 0.930 . S
C741 C742 1.399 . S
C741 C746 1.399 . S
C742 C741 1.399 . S
C742 C743 1.376 . S
C743 H730 0.930 . S
C743 C742 1.376 . S
C743 C744 1.388 . S
C744 H731 0.930 . S
C744 C743 1.388 . S
C744 C745 1.390 . S
C745 C744 1.390 . S
C745 C746 1.394 . S
C745 C751 1.465 1_656 S
C746 C741 1.399 . S
C746 C745 1.394 . S
C746 C747 1.510 1_655 S
C747 C746 1.510 1_455 S
C747 C748 1.495 1_456 S
C747 C749 1.578 . S
C747 C750 1.524 1_556 S
C748 H732 0.959 . S
C748 H733 0.959 . S
C748 H734 0.961 . S
C748 C747 1.495 1_654 S
C749 H735 0.960 . S
C749 H736 0.961 . S
C749 H737 0.959 . S
C749 C747 1.578 . S
C750 C747 1.524 1_554 S
C750 C751 1.396 . S
C750 C755 1.390 . S
C751 C745 1.465 1_454 S
C751 C750 1.396 . S
C751 C752 1.399 . S
C752 H738 0.929 . S
C752 C751 1.399 . S
C752 C753 1.385 . S
C753 H739 0.931 . S
C753 C752 1.385 . S
C753 C754 1.389 . S
C754 C753 1.389 . S
C754 C755 1.387 . S
C755 H740 0.930 . S
C755 C750 1.390 . S
C755 C754 1.387 . S
H756 C768 0.930 . S
H757 C770 0.930 . S
H758 C771 0.930 . S
H759 C775 0.959 . S
H760 C775 0.959 . S
H761 C775 0.961 . S
H762 C776 0.960 . S
H763 C776 0.961 . S
H764 C776 0.959 . S
H765 C779 0.929 . S
H766 C780 0.931 . S
H767 C782 0.930 . S
C768 H756 0.930 . S
C768 C769 1.399 . S
C768 C773 1.399 . S
C769 C768 1.399 . S
C769 C770 1.376 . S
C770 H757 0.930 . S
C770 C769 1.376 . S
C770 C771 1.388 . S
C771 H758 0.930 . S
C771 C770 1.388 . S
C771 C772 1.390 . S
C772 C771 1.390 . S
C772 C773 1.394 . S
C772 C778 1.465 . S
C773 C768 1.399 . S
C773 C772 1.394 . S
C773 C774 1.516 . S
C774 C773 1.516 . S
C774 C775 1.502 . S
C774 C776 1.561 . S
C774 C777 1.526 . S
C775 H759 0.959 . S
C775 H760 0.959 . S
C775 H761 0.961 . S
C775 C774 1.502 . S
C776 H762 0.960 . S
C776 H763 0.961 . S
C776 H764 0.959 . S
C776 C774 1.561 . S
C777 C774 1.526 . S
C777 C778 1.396 . S
C777 C782 1.390 . S
C778 C772 1.465 . S
C778 C777 1.396 . S
C778 C779 1.399 . S
C779 H765 0.929 . S
C779 C778 1.399 . S
C779 C780 1.385 . S
C780 H766 0.931 . S
C780 C779 1.385 . S
C780 C781 1.389 . S
C781 C780 1.389 . S
C781 C782 1.387 . S
C782 H767 0.930 . S
C782 C777 1.390 . S
C782 C781 1.387 . S
H783 C795 0.930 . S
H784 C797 0.930 . S
H785 C798 0.930 . S
H786 C802 0.959 . S
H787 C802 0.959 . S
H788 C802 0.961 . S
H789 C803 0.960 . S
H790 C803 0.961 . S
H791 C803 0.959 . S
H792 C806 0.929 . S
H793 C807 0.931 . S
H794 C809 0.930 . S
C795 H783 0.930 . S
C795 C796 1.399 . S
C795 C800 1.399 . S
C796 C795 1.399 . S
C796 C797 1.376 . S
C797 H784 0.930 . S
C797 C796 1.376 . S
C797 C798 1.388 . S
C798 H785 0.930 . S
C798 C797 1.388 . S
C798 C799 1.390 . S
C799 C798 1.390 . S
C799 C800 1.394 . S
C799 C805 1.465 . S
C800 C795 1.399 . S
C800 C799 1.394 . S
C800 C801 1.516 . S
C801 C800 1.516 . S
C801 C802 1.502 . S
C801 C803 1.561 . S
C801 C804 1.526 . S
C802 H786 0.959 . S
C802 H787 0.959 . S
C802 H788 0.961 . S
C802 C801 1.502 . S
C803 H789 0.960 . S
C803 H790 0.961 . S
C803 H791 0.959 . S
C803 C801 1.561 . S
C804 C801 1.526 . S
C804 C805 1.396 . S
C804 C809 1.390 . S
C805 C799 1.465 . S
C805 C804 1.396 . S
C805 C806 1.399 . S
C806 H792 0.929 . S
C806 C805 1.399 . S
C806 C807 1.385 . S
C807 H793 0.931 . S
C807 C806 1.385 . S
C807 C808 1.389 . S
C808 C807 1.389 . S
C808 C809 1.387 . S
C809 H794 0.930 . S
C809 C804 1.390 . S
C809 C808 1.387 . S
H810 C822 0.930 . S
H811 C824 0.930 . S
H812 C825 0.930 . S
H813 C829 0.959 . S
H814 C829 0.959 . S
H815 C829 0.961 . S
H816 C830 0.960 . S
H817 C830 0.961 . S
H818 C830 0.959 . S
H819 C833 0.929 . S
H820 C834 0.931 . S
H821 C836 0.930 . S
C822 H810 0.930 . S
C822 C823 1.399 . S
C822 C827 1.399 . S
C823 C822 1.399 . S
C823 C824 1.376 . S
C824 H811 0.930 . S
C824 C823 1.376 . S
C824 C825 1.388 . S
C825 H812 0.930 . S
C825 C824 1.388 . S
C825 C826 1.390 . S
C826 C825 1.390 . S
C826 C827 1.394 . S
C826 C832 1.465 . S
C827 C822 1.399 . S
C827 C826 1.394 . S
C827 C828 1.516 . S
C828 C827 1.516 . S
C828 C829 1.502 . S
C828 C830 1.561 . S
C828 C831 1.526 . S
C829 H813 0.959 . S
C829 H814 0.959 . S
C829 H815 0.961 . S
C829 C828 1.502 . S
C830 H816 0.960 . S
C830 H817 0.961 . S
C830 H818 0.959 . S
C830 C828 1.561 . S
C831 C828 1.526 . S
C831 C832 1.396 . S
C831 C836 1.390 . S
C832 C826 1.465 . S
C832 C831 1.396 . S
C832 C833 1.399 . S
C833 H819 0.929 . S
C833 C832 1.399 . S
C833 C834 1.385 . S
C834 H820 0.931 . S
C834 C833 1.385 . S
C834 C835 1.389 . S
C835 C834 1.389 . S
C835 C836 1.387 . S
C836 H821 0.930 . S
C836 C831 1.390 . S
C836 C835 1.387 . S
H837 C849 0.930 . S
H838 C851 0.930 . S
H839 C852 0.930 . S
H840 C856 0.959 . S
H841 C856 0.959 . S
H842 C856 0.961 . S
H843 C857 0.960 . S
H844 C857 0.961 . S
H845 C857 0.959 . S
H846 C860 0.929 . S
H847 C861 0.931 . S
H848 C863 0.930 . S
C849 H837 0.930 . S
C849 C850 1.399 . S
C849 C854 1.399 . S
C850 C849 1.399 . S
C850 C851 1.376 . S
C851 H838 0.930 . S
C851 C850 1.376 . S
C851 C852 1.388 . S
C852 H839 0.930 . S
C852 C851 1.388 . S
C852 C853 1.390 . S
C853 C852 1.390 . S
C853 C854 1.394 . S
C853 C859 1.465 . S
C854 C849 1.399 . S
C854 C853 1.394 . S
C854 C855 1.516 . S
C855 C854 1.516 . S
C855 C856 1.502 . S
C855 C857 1.561 . S
C855 C858 1.526 . S
C856 H840 0.959 . S
C856 H841 0.959 . S
C856 H842 0.961 . S
C856 C855 1.502 . S
C857 H843 0.960 . S
C857 H844 0.961 . S
C857 H845 0.959 . S
C857 C855 1.561 . S
C858 C855 1.526 . S
C858 C859 1.396 . S
C858 C863 1.390 . S
C859 C853 1.465 . S
C859 C858 1.396 . S
C859 C860 1.399 . S
C860 H846 0.929 . S
C860 C859 1.399 . S
C860 C861 1.385 . S
C861 H847 0.931 . S
C861 C860 1.385 . S
C861 C862 1.389 . S
C862 C861 1.389 . S
C862 C863 1.387 . S
C863 H848 0.930 . S
C863 C858 1.390 . S
C863 C862 1.387 . S
H864 C876 0.930 . S
H865 C878 0.930 . S
H866 C879 0.930 . S
H867 C883 0.959 . S
H868 C883 0.959 . S
H869 C883 0.961 . S
H870 C884 0.960 . S
H871 C884 0.961 . S
H872 C884 0.959 . S
H873 C887 0.929 . S
H874 C888 0.931 . S
H875 C890 0.930 . S
C876 H864 0.930 . S
C876 C877 1.399 . S
C876 C881 1.399 . S
C877 C876 1.399 . S
C877 C878 1.376 . S
C878 H865 0.930 . S
C878 C877 1.376 . S
C878 C879 1.388 . S
C879 H866 0.930 . S
C879 C878 1.388 . S
C879 C880 1.390 . S
C880 C879 1.390 . S
C880 C881 1.394 . S
C880 C886 1.465 . S
C881 C876 1.399 . S
C881 C880 1.394 . S
C881 C882 1.516 . S
C882 C881 1.516 . S
C882 C883 1.502 . S
C882 C884 1.561 . S
C882 C885 1.526 . S
C883 H867 0.959 . S
C883 H868 0.959 . S
C883 H869 0.961 . S
C883 C882 1.502 . S
C884 H870 0.960 . S
C884 H871 0.961 . S
C884 H872 0.959 . S
C884 C882 1.561 . S
C885 C882 1.526 . S
C885 C886 1.396 . S
C885 C890 1.390 . S
C886 C880 1.465 . S
C886 C885 1.396 . S
C886 C887 1.399 . S
C887 H873 0.929 . S
C887 C886 1.399 . S
C887 C888 1.385 . S
C888 H874 0.931 . S
C888 C887 1.385 . S
C888 C889 1.389 . S
C889 C888 1.389 . S
C889 C890 1.387 . S
C890 H875 0.930 . S
C890 C885 1.390 . S
C890 C889 1.387 . S
H891 C903 0.930 . S
H892 C905 0.930 . S
H893 C906 0.930 . S
H894 C910 0.959 . S
H895 C910 0.959 . S
H896 C910 0.961 . S
H897 C911 0.960 . S
H898 C911 0.961 . S
H899 C911 0.959 . S
H900 C914 0.929 . S
H901 C915 0.931 . S
H902 C917 0.930 . S
C903 H891 0.930 . S
C903 C904 1.399 . S
C903 C908 1.399 . S
C904 C903 1.399 . S
C904 C905 1.376 . S
C905 H892 0.930 . S
C905 C904 1.376 . S
C905 C906 1.388 . S
C906 H893 0.930 . S
C906 C905 1.388 . S
C906 C907 1.390 . S
C907 C906 1.390 . S
C907 C908 1.394 . S
C907 C913 1.465 . S
C908 C903 1.399 . S
C908 C907 1.394 . S
C908 C909 1.516 . S
C909 C908 1.516 . S
C909 C910 1.502 . S
C909 C911 1.561 . S
C909 C912 1.526 . S
C910 H894 0.959 . S
C910 H895 0.959 . S
C910 H896 0.961 . S
C910 C909 1.502 . S
C911 H897 0.960 . S
C911 H898 0.961 . S
C911 H899 0.959 . S
C911 C909 1.561 . S
C912 C909 1.526 . S
C912 C913 1.396 . S
C912 C917 1.390 . S
C913 C907 1.465 . S
C913 C912 1.396 . S
C913 C914 1.399 . S
C914 H900 0.929 . S
C914 C913 1.399 . S
C914 C915 1.385 . S
C915 H901 0.931 . S
C915 C914 1.385 . S
C915 C916 1.389 . S
C916 C915 1.389 . S
C916 C917 1.387 . S
C917 H902 0.930 . S
C917 C912 1.390 . S
C917 C916 1.387 . S
H918 C930 0.930 . S
H919 C932 0.930 . S
H920 C933 0.930 . S
H921 C937 0.959 . S
H922 C937 0.959 . S
H923 C937 0.961 . S
H924 C938 0.960 . S
H925 C938 0.961 . S
H926 C938 0.959 . S
H927 C941 0.929 . S
H928 C942 0.931 . S
H929 C944 0.930 . S
C930 H918 0.930 . S
C930 C931 1.399 . S
C930 C935 1.399 . S
C931 C930 1.399 . S
C931 C932 1.376 . S
C932 H919 0.930 . S
C932 C931 1.376 . S
C932 C933 1.388 . S
C933 H920 0.930 . S
C933 C932 1.388 . S
C933 C934 1.390 . S
C934 C933 1.390 . S
C934 C935 1.394 . S
C934 C940 1.465 . S
C935 C930 1.399 . S
C935 C934 1.394 . S
C935 C936 1.516 . S
C936 C935 1.516 . S
C936 C937 1.502 . S
C936 C938 1.561 . S
C936 C939 1.526 . S
C937 H921 0.959 . S
C937 H922 0.959 . S
C937 H923 0.961 . S
C937 C936 1.502 . S
C938 H924 0.960 . S
C938 H925 0.961 . S
C938 H926 0.959 . S
C938 C936 1.561 . S
C939 C936 1.526 . S
C939 C940 1.396 . S
C939 C944 1.390 . S
C940 C934 1.465 . S
C940 C939 1.396 . S
C940 C941 1.399 . S
C941 H927 0.929 . S
C941 C940 1.399 . S
C941 C942 1.385 . S
C942 H928 0.931 . S
C942 C941 1.385 . S
C942 C943 1.389 . S
C943 C942 1.389 . S
C943 C944 1.387 . S
C944 H929 0.930 . S
C944 C939 1.390 . S
C944 C943 1.387 . S
H945 C957 0.930 . S
H946 C959 0.930 . S
H947 C960 0.930 . S
H948 C964 0.959 . S
H949 C964 0.959 . S
H950 C964 0.961 . S
H951 C965 0.960 . S
H952 C965 0.961 . S
H953 C965 0.959 . S
H954 C968 0.929 . S
H955 C969 0.931 . S
H956 C971 0.930 . S
C957 H945 0.930 . S
C957 C958 1.399 . S
C957 C962 1.399 . S
C958 C957 1.399 . S
C958 C959 1.376 . S
C959 H946 0.930 . S
C959 C958 1.376 . S
C959 C960 1.388 . S
C960 H947 0.930 . S
C960 C959 1.388 . S
C960 C961 1.390 . S
C961 C960 1.390 . S
C961 C962 1.394 . S
C961 C967 1.465 . S
C962 C957 1.399 . S
C962 C961 1.394 . S
C962 C963 1.516 . S
C963 C962 1.516 . S
C963 C964 1.502 . S
C963 C965 1.561 . S
C963 C966 1.526 . S
C964 H948 0.959 . S
C964 H949 0.959 . S
C964 H950 0.961 . S
C964 C963 1.502 . S
C965 H951 0.960 . S
C965 H952 0.961 . S
C965 H953 0.959 . S
C965 C963 1.561 . S
C966 C963 1.526 . S
C966 C967 1.396 . S
C966 C971 1.390 . S
C967 C961 1.465 . S
C967 C966 1.396 . S
C967 C968 1.399 . S
C968 H954 0.929 . S
C968 C967 1.399 . S
C968 C969 1.385 . S
C969 H955 0.931 . S
C969 C968 1.385 . S
C969 C970 1.389 . S
C970 C969 1.389 . S
C970 C971 1.387 . S
C971 H956 0.930 . S
C971 C966 1.390 . S
C971 C970 1.387 . S
H972 C984 0.930 . S
H973 C986 0.930 . S
H974 C987 0.930 . S
H975 C991 0.959 . S
H976 C991 0.959 . S
H977 C991 0.961 . S
H978 C992 0.960 . S
H979 C992 0.961 . S
H980 C992 0.959 . S
H981 C995 0.929 . S
H982 C996 0.931 . S
H983 C998 0.930 . S
C984 H972 0.930 . S
C984 C985 1.399 . S
C984 C989 1.399 . S
C985 C984 1.399 . S
C985 C986 1.376 . S
C986 H973 0.930 . S
C986 C985 1.376 . S
C986 C987 1.388 . S
C987 H974 0.930 . S
C987 C986 1.388 . S
C987 C988 1.390 . S
C988 C987 1.390 . S
C988 C989 1.394 . S
C988 C994 1.465 . S
C989 C984 1.399 . S
C989 C988 1.394 . S
C989 C990 1.516 . S
C990 C989 1.516 . S
C990 C991 1.502 . S
C990 C992 1.561 . S
C990 C993 1.526 . S
C991 H975 0.959 . S
C991 H976 0.959 . S
C991 H977 0.961 . S
C991 C990 1.502 . S
C992 H978 0.960 . S
C992 H979 0.961 . S
C992 H980 0.959 . S
C992 C990 1.561 . S
C993 C990 1.526 . S
C993 C994 1.396 . S
C993 C998 1.390 . S
C994 C988 1.465 . S
C994 C993 1.396 . S
C994 C995 1.399 . S
C995 H981 0.929 . S
C995 C994 1.399 . S
C995 C996 1.385 . S
C996 H982 0.931 . S
C996 C995 1.385 . S
C996 C997 1.389 . S
C997 C996 1.389 . S
C997 C998 1.387 . S
C998 H983 0.930 . S
C998 C993 1.390 . S
C998 C997 1.387 . S
H999 C1011 0.930 . S
H1000 C1013 0.930 . S
H1001 C1014 0.930 . S
H1002 C1018 0.959 . S
H1003 C1018 0.959 . S
H1004 C1018 0.961 . S
H1005 C1019 0.960 . S
H1006 C1019 0.961 . S
H1007 C1019 0.959 . S
H1008 C1022 0.929 . S
H1009 C1023 0.931 . S
H1010 C1025 0.930 . S
C1011 H999 0.930 . S
C1011 C1012 1.399 . S
C1011 C1016 1.399 . S
C1012 C1011 1.399 . S
C1012 C1013 1.376 . S
C1013 H1000 0.930 . S
C1013 C1012 1.376 . S
C1013 C1014 1.388 . S
C1014 H1001 0.930 . S
C1014 C1013 1.388 . S
C1014 C1015 1.390 . S
C1015 C1014 1.390 . S
C1015 C1016 1.394 . S
C1015 C1021 1.465 . S
C1016 C1011 1.399 . S
C1016 C1015 1.394 . S
C1016 C1017 1.516 . S
C1017 C1016 1.516 . S
C1017 C1018 1.502 . S
C1017 C1019 1.561 . S
C1017 C1020 1.526 . S
C1018 H1002 0.959 . S
C1018 H1003 0.959 . S
C1018 H1004 0.961 . S
C1018 C1017 1.502 . S
C1019 H1005 0.960 . S
C1019 H1006 0.961 . S
C1019 H1007 0.959 . S
C1019 C1017 1.561 . S
C1020 C1017 1.526 . S
C1020 C1021 1.396 . S
C1020 C1025 1.390 . S
C1021 C1015 1.465 . S
C1021 C1020 1.396 . S
C1021 C1022 1.399 . S
C1022 H1008 0.929 . S
C1022 C1021 1.399 . S
C1022 C1023 1.385 . S
C1023 H1009 0.931 . S
C1023 C1022 1.385 . S
C1023 C1024 1.389 . S
C1024 C1023 1.389 . S
C1024 C1025 1.387 . S
C1025 H1010 0.930 . S
C1025 C1020 1.390 . S
C1025 C1024 1.387 . S
H1026 C1038 0.930 . S
H1027 C1040 0.930 . S
H1028 C1041 0.930 . S
H1029 C1045 0.959 . S
H1030 C1045 0.959 . S
H1031 C1045 0.961 . S
H1032 C1046 0.960 . S
H1033 C1046 0.961 . S
H1034 C1046 0.959 . S
H1035 C1049 0.929 . S
H1036 C1050 0.931 . S
H1037 C1052 0.930 . S
C1038 H1026 0.930 . S
C1038 C1039 1.399 . S
C1038 C1043 1.399 . S
C1039 C1038 1.399 . S
C1039 C1040 1.376 . S
C1040 H1027 0.930 . S
C1040 C1039 1.376 . S
C1040 C1041 1.388 . S
C1041 H1028 0.930 . S
C1041 C1040 1.388 . S
C1041 C1042 1.390 . S
C1042 C1041 1.390 . S
C1042 C1043 1.394 . S
C1042 C1048 1.465 . S
C1043 C1038 1.399 . S
C1043 C1042 1.394 . S
C1043 C1044 1.516 . S
C1044 C1043 1.516 . S
C1044 C1045 1.502 . S
C1044 C1046 1.561 . S
C1044 C1047 1.526 . S
C1045 H1029 0.959 . S
C1045 H1030 0.959 . S
C1045 H1031 0.961 . S
C1045 C1044 1.502 . S
C1046 H1032 0.960 . S
C1046 H1033 0.961 . S
C1046 H1034 0.959 . S
C1046 C1044 1.561 . S
C1047 C1044 1.526 . S
C1047 C1048 1.396 . S
C1047 C1052 1.390 . S
C1048 C1042 1.465 . S
C1048 C1047 1.396 . S
C1048 C1049 1.399 . S
C1049 H1035 0.929 . S
C1049 C1048 1.399 . S
C1049 C1050 1.385 . S
C1050 H1036 0.931 . S
C1050 C1049 1.385 . S
C1050 C1051 1.389 . S
C1051 C1050 1.389 . S
C1051 C1052 1.387 . S
C1052 H1037 0.930 . S
C1052 C1047 1.390 . S
C1052 C1051 1.387 . S
H1053 C1065 0.930 . S
H1054 C1067 0.930 . S
H1055 C1068 0.930 . S
H1056 C1072 0.959 . S
H1057 C1072 0.959 . S
H1058 C1072 0.961 . S
H1059 C1073 0.960 . S
H1060 C1073 0.961 . S
H1061 C1073 0.959 . S
H1062 C1076 0.929 . S
H1063 C1077 0.931 . S
H1064 C1079 0.930 . S
C1065 H1053 0.930 . S
C1065 C1066 1.399 . S
C1065 C1070 1.399 . S
C1066 C1065 1.399 . S
C1066 C1067 1.376 . S
C1067 H1054 0.930 . S
C1067 C1066 1.376 . S
C1067 C1068 1.388 . S
C1068 H1055 0.930 . S
C1068 C1067 1.388 . S
C1068 C1069 1.390 . S
C1069 C1068 1.390 . S
C1069 C1070 1.394 . S
C1069 C1075 1.465 . S
C1070 C1065 1.399 . S
C1070 C1069 1.394 . S
C1070 C1071 1.516 . S
C1071 C1070 1.516 . S
C1071 C1072 1.502 . S
C1071 C1073 1.561 . S
C1071 C1074 1.526 . S
C1072 H1056 0.959 . S
C1072 H1057 0.959 . S
C1072 H1058 0.961 . S
C1072 C1071 1.502 . S
C1073 H1059 0.960 . S
C1073 H1060 0.961 . S
C1073 H1061 0.959 . S
C1073 C1071 1.561 . S
C1074 C1071 1.526 . S
C1074 C1075 1.396 . S
C1074 C1079 1.390 . S
C1075 C1069 1.465 . S
C1075 C1074 1.396 . S
C1075 C1076 1.399 . S
C1076 H1062 0.929 . S
C1076 C1075 1.399 . S
C1076 C1077 1.385 . S
C1077 H1063 0.931 . S
C1077 C1076 1.385 . S
C1077 C1078 1.389 . S
C1078 C1077 1.389 . S
C1078 C1079 1.387 . S
C1079 H1064 0.930 . S
C1079 C1074 1.390 . S
C1079 C1078 1.387 . S
H1080 C1092 0.930 . S
H1081 C1094 0.930 . S
H1082 C1095 0.930 . S
H1083 C1099 0.959 . S
H1084 C1099 0.959 . S
H1085 C1099 0.961 . S
H1086 C1100 0.960 . S
H1087 C1100 0.961 . S
H1088 C1100 0.959 . S
H1089 C1103 0.929 . S
H1090 C1104 0.931 . S
H1091 C1106 0.930 . S
C1092 H1080 0.930 . S
C1092 C1093 1.399 . S
C1092 C1097 1.399 . S
C1093 C1092 1.399 . S
C1093 C1094 1.376 . S
C1094 H1081 0.930 . S
C1094 C1093 1.376 . S
C1094 C1095 1.388 . S
C1095 H1082 0.930 . S
C1095 C1094 1.388 . S
C1095 C1096 1.390 . S
C1096 C1095 1.390 . S
C1096 C1097 1.394 . S
C1096 C1102 1.465 . S
C1097 C1092 1.399 . S
C1097 C1096 1.394 . S
C1097 C1098 1.516 . S
C1098 C1097 1.516 . S
C1098 C1099 1.502 . S
C1098 C1100 1.561 . S
C1098 C1101 1.526 . S
C1099 H1083 0.959 . S
C1099 H1084 0.959 . S
C1099 H1085 0.961 . S
C1099 C1098 1.502 . S
C1100 H1086 0.960 . S
C1100 H1087 0.961 . S
C1100 H1088 0.959 . S
C1100 C1098 1.561 . S
C1101 C1098 1.526 . S
C1101 C1102 1.396 . S
C1101 C1106 1.390 . S
C1102 C1096 1.465 . S
C1102 C1101 1.396 . S
C1102 C1103 1.399 . S
C1103 H1089 0.929 . S
C1103 C1102 1.399 . S
C1103 C1104 1.385 . S
C1104 H1090 0.931 . S
C1104 C1103 1.385 . S
C1104 C1105 1.389 . S
C1105 C1104 1.389 . S
C1105 C1106 1.387 . S
C1106 H1091 0.930 . S
C1106 C1101 1.390 . S
C1106 C1105 1.387 . S
H1107 C1119 0.930 . S
H1108 C1121 0.930 . S
H1109 C1122 0.930 . S
H1110 C1126 0.959 . S
H1111 C1126 0.959 . S
H1112 C1126 0.961 . S
H1113 C1127 0.960 . S
H1114 C1127 0.961 . S
H1115 C1127 0.959 . S
H1116 C1130 0.929 . S
H1117 C1131 0.931 . S
H1118 C1133 0.930 . S
C1119 H1107 0.930 . S
C1119 C1120 1.399 . S
C1119 C1124 1.399 . S
C1120 C1119 1.399 . S
C1120 C1121 1.376 . S
C1121 H1108 0.930 . S
C1121 C1120 1.376 . S
C1121 C1122 1.388 . S
C1122 H1109 0.930 . S
C1122 C1121 1.388 . S
C1122 C1123 1.390 . S
C1123 C1122 1.390 . S
C1123 C1124 1.394 . S
C1123 C1129 1.465 . S
C1124 C1119 1.399 . S
C1124 C1123 1.394 . S
C1124 C1125 1.516 . S
C1125 C1124 1.516 . S
C1125 C1126 1.502 . S
C1125 C1127 1.561 . S
C1125 C1128 1.526 . S
C1126 H1110 0.959 . S
C1126 H1111 0.959 . S
C1126 H1112 0.961 . S
C1126 C1125 1.502 . S
C1127 H1113 0.960 . S
C1127 H1114 0.961 . S
C1127 H1115 0.959 . S
C1127 C1125 1.561 . S
C1128 C1125 1.526 . S
C1128 C1129 1.396 . S
C1128 C1133 1.390 . S
C1129 C1123 1.465 . S
C1129 C1128 1.396 . S
C1129 C1130 1.399 . S
C1130 H1116 0.929 . S
C1130 C1129 1.399 . S
C1130 C1131 1.385 . S
C1131 H1117 0.931 . S
C1131 C1130 1.385 . S
C1131 C1132 1.389 . S
C1132 C1131 1.389 . S
C1132 C1133 1.387 . S
C1133 H1118 0.930 . S
C1133 C1128 1.390 . S
C1133 C1132 1.387 . S
H1134 C1146 0.930 . S
H1135 C1148 0.930 . S
H1136 C1149 0.930 . S
H1137 C1153 0.959 . S
H1138 C1153 0.959 . S
H1139 C1153 0.961 . S
H1140 C1154 0.960 . S
H1141 C1154 0.961 . S
H1142 C1154 0.959 . S
H1143 C1157 0.929 . S
H1144 C1158 0.931 . S
H1145 C1160 0.930 . S
C1146 H1134 0.930 . S
C1146 C1147 1.399 . S
C1146 C1151 1.399 . S
C1147 C1146 1.399 . S
C1147 C1148 1.376 . S
C1148 H1135 0.930 . S
C1148 C1147 1.376 . S
C1148 C1149 1.388 . S
C1149 H1136 0.930 . S
C1149 C1148 1.388 . S
C1149 C1150 1.390 . S
C1150 C1149 1.390 . S
C1150 C1151 1.394 . S
C1150 C1156 1.465 . S
C1151 C1146 1.399 . S
C1151 C1150 1.394 . S
C1151 C1152 1.516 . S
C1152 C1151 1.516 . S
C1152 C1153 1.502 . S
C1152 C1154 1.561 . S
C1152 C1155 1.526 . S
C1153 H1137 0.959 . S
C1153 H1138 0.959 . S
C1153 H1139 0.961 . S
C1153 C1152 1.502 . S
C1154 H1140 0.960 . S
C1154 H1141 0.961 . S
C1154 H1142 0.959 . S
C1154 C1152 1.561 . S
C1155 C1152 1.526 . S
C1155 C1156 1.396 . S
C1155 C1160 1.390 . S
C1156 C1150 1.465 . S
C1156 C1155 1.396 . S
C1156 C1157 1.399 . S
C1157 H1143 0.929 . S
C1157 C1156 1.399 . S
C1157 C1158 1.385 . S
C1158 H1144 0.931 . S
C1158 C1157 1.385 . S
C1158 C1159 1.389 . S
C1159 C1158 1.389 . S
C1159 C1160 1.387 . S
C1160 H1145 0.930 . S
C1160 C1155 1.390 . S
C1160 C1159 1.387 . S
H1161 C1173 0.930 . S
H1162 C1175 0.930 . S
H1163 C1176 0.930 . S
H1164 C1180 0.959 . S
H1165 C1180 0.959 . S
H1166 C1180 0.961 . S
H1167 C1181 0.960 . S
H1168 C1181 0.961 . S
H1169 C1181 0.959 . S
H1170 C1184 0.929 . S
H1171 C1185 0.931 . S
H1172 C1187 0.930 . S
C1173 H1161 0.930 . S
C1173 C1174 1.399 . S
C1173 C1178 1.399 . S
C1174 C1173 1.399 . S
C1174 C1175 1.376 . S
C1175 H1162 0.930 . S
C1175 C1174 1.376 . S
C1175 C1176 1.388 . S
C1176 H1163 0.930 . S
C1176 C1175 1.388 . S
C1176 C1177 1.390 . S
C1177 C1176 1.390 . S
C1177 C1178 1.394 . S
C1177 C1183 1.465 . S
C1178 C1173 1.399 . S
C1178 C1177 1.394 . S
C1178 C1179 1.516 . S
C1179 C1178 1.516 . S
C1179 C1180 1.502 . S
C1179 C1181 1.561 . S
C1179 C1182 1.526 . S
C1180 H1164 0.959 . S
C1180 H1165 0.959 . S
C1180 H1166 0.961 . S
C1180 C1179 1.502 . S
C1181 H1167 0.960 . S
C1181 H1168 0.961 . S
C1181 H1169 0.959 . S
C1181 C1179 1.561 . S
C1182 C1179 1.526 . S
C1182 C1183 1.396 . S
C1182 C1187 1.390 . S
C1183 C1177 1.465 . S
C1183 C1182 1.396 . S
C1183 C1184 1.399 . S
C1184 H1170 0.929 . S
C1184 C1183 1.399 . S
C1184 C1185 1.385 . S
C1185 H1171 0.931 . S
C1185 C1184 1.385 . S
C1185 C1186 1.389 . S
C1186 C1185 1.389 . S
C1186 C1187 1.387 . S
C1187 H1172 0.930 . S
C1187 C1182 1.390 . S
C1187 C1186 1.387 . S
H1188 C1200 0.930 . S
H1189 C1202 0.930 . S
H1190 C1203 0.930 . S
H1191 C1207 0.959 . S
H1192 C1207 0.959 . S
H1193 C1207 0.961 . S
H1194 C1208 0.960 . S
H1195 C1208 0.961 . S
H1196 C1208 0.959 . S
H1197 C1211 0.929 . S
H1198 C1212 0.931 . S
H1199 C1214 0.930 . S
C1200 H1188 0.930 . S
C1200 C1201 1.399 . S
C1200 C1205 1.399 . S
C1201 C1200 1.399 . S
C1201 C1202 1.376 . S
C1202 H1189 0.930 . S
C1202 C1201 1.376 . S
C1202 C1203 1.388 . S
C1203 H1190 0.930 . S
C1203 C1202 1.388 . S
C1203 C1204 1.390 . S
C1204 C1203 1.390 . S
C1204 C1205 1.394 . S
C1204 C1210 1.465 . S
C1205 C1200 1.399 . S
C1205 C1204 1.394 . S
C1205 C1206 1.516 . S
C1206 C1205 1.516 . S
C1206 C1207 1.502 . S
C1206 C1208 1.561 . S
C1206 C1209 1.526 . S
C1207 H1191 0.959 . S
C1207 H1192 0.959 . S
C1207 H1193 0.961 . S
C1207 C1206 1.502 . S
C1208 H1194 0.960 . S
C1208 H1195 0.961 . S
C1208 H1196 0.959 . S
C1208 C1206 1.561 . S
C1209 C1206 1.526 . S
C1209 C1210 1.396 . S
C1209 C1214 1.390 . S
C1210 C1204 1.465 . S
C1210 C1209 1.396 . S
C1210 C1211 1.399 . S
C1211 H1197 0.929 . S
C1211 C1210 1.399 . S
C1211 C1212 1.385 . S
C1212 H1198 0.931 . S
C1212 C1211 1.385 . S
C1212 C1213 1.389 . S
C1213 C1212 1.389 . S
C1213 C1214 1.387 . S
C1214 H1199 0.930 . S
C1214 C1209 1.390 . S
C1214 C1213 1.387 . S
H1215 C1227 0.930 . S
H1216 C1229 0.930 . S
H1217 C1230 0.930 . S
H1218 C1234 0.959 . S
H1219 C1234 0.959 . S
H1220 C1234 0.961 . S
H1221 C1235 0.960 . S
H1222 C1235 0.961 . S
H1223 C1235 0.959 . S
H1224 C1238 0.929 . S
H1225 C1239 0.931 . S
H1226 C1241 0.930 . S
C1227 H1215 0.930 . S
C1227 C1228 1.399 . S
C1227 C1232 1.399 . S
C1228 C1227 1.399 . S
C1228 C1229 1.376 . S
C1229 H1216 0.930 . S
C1229 C1228 1.376 . S
C1229 C1230 1.388 . S
C1230 H1217 0.930 . S
C1230 C1229 1.388 . S
C1230 C1231 1.390 . S
C1231 C1230 1.390 . S
C1231 C1232 1.394 . S
C1231 C1237 1.465 . S
C1232 C1227 1.399 . S
C1232 C1231 1.394 . S
C1232 C1233 1.516 . S
C1233 C1232 1.516 . S
C1233 C1234 1.502 . S
C1233 C1235 1.561 . S
C1233 C1236 1.526 . S
C1234 H1218 0.959 . S
C1234 H1219 0.959 . S
C1234 H1220 0.961 . S
C1234 C1233 1.502 . S
C1235 H1221 0.960 . S
C1235 H1222 0.961 . S
C1235 H1223 0.959 . S
C1235 C1233 1.561 . S
C1236 C1233 1.526 . S
C1236 C1237 1.396 . S
C1236 C1241 1.390 . S
C1237 C1231 1.465 . S
C1237 C1236 1.396 . S
C1237 C1238 1.399 . S
C1238 H1224 0.929 . S
C1238 C1237 1.399 . S
C1238 C1239 1.385 . S
C1239 H1225 0.931 . S
C1239 C1238 1.385 . S
C1239 C1240 1.389 . S
C1240 C1239 1.389 . S
C1240 C1241 1.387 . S
C1241 H1226 0.930 . S
C1241 C1236 1.390 . S
C1241 C1240 1.387 . S
H1242 C1254 0.930 . S
H1243 C1256 0.930 . S
H1244 C1257 0.930 . S
H1245 C1261 0.959 . S
H1246 C1261 0.959 . S
H1247 C1261 0.961 . S
H1248 C1262 0.960 1_455 S
H1249 C1262 0.961 . S
H1250 C1262 0.959 . S
H1251 C1265 0.929 . S
H1252 C1266 0.931 . S
H1253 C1268 0.930 1_556 S
C1254 H1242 0.930 . S
C1254 C1255 1.399 . S
C1254 C1259 1.399 . S
C1255 C1254 1.399 . S
C1255 C1256 1.376 1_556 S
C1256 H1243 0.930 . S
C1256 C1255 1.376 1_554 S
C1256 C1257 1.388 . S
C1257 H1244 0.930 . S
C1257 C1256 1.388 . S
C1257 C1258 1.390 . S
C1258 C1257 1.390 . S
C1258 C1259 1.394 1_554 S
C1258 C1264 1.465 1_455 S
C1259 C1254 1.399 . S
C1259 C1258 1.394 1_556 S
C1259 C1260 1.516 1_455 S
C1260 C1259 1.516 1_655 S
C1260 C1261 1.502 . S
C1260 C1262 1.561 . S
C1260 C1263 1.526 . S
C1261 H1245 0.959 . S
C1261 H1246 0.959 . S
C1261 H1247 0.961 . S
C1261 C1260 1.502 . S
C1262 H1248 0.960 1_655 S
C1262 H1249 0.961 . S
C1262 H1250 0.959 . S
C1262 C1260 1.561 . S
C1263 C1260 1.526 . S
C1263 C1264 1.396 1_556 S
C1263 C1268 1.390 1_556 S
C1264 C1258 1.465 1_655 S
C1264 C1263 1.396 1_554 S
C1264 C1265 1.399 . S
C1265 H1251 0.929 . S
C1265 C1264 1.399 . S
C1265 C1266 1.385 . S
C1266 H1252 0.931 . S
C1266 C1265 1.385 . S
C1266 C1267 1.389 . S
C1267 C1266 1.389 . S
C1267 C1268 1.387 . S
C1268 H1253 0.930 1_554 S
C1268 C1263 1.390 1_554 S
C1268 C1267 1.387 . S
H1269 C1281 0.930 . S
H1270 C1283 0.930 . S
H1271 C1284 0.930 . S
H1272 C1288 0.959 1_556 S
H1273 C1288 0.959 . S
H1274 C1288 0.961 . S
H1275 C1289 0.960 . S
H1276 C1289 0.961 . S
H1277 C1289 0.959 . S
H1278 C1292 0.929 . S
H1279 C1293 0.931 . S
H1280 C1295 0.930 . S
C1281 H1269 0.930 . S
C1281 C1282 1.399 . S
C1281 C1286 1.399 1_556 S
C1282 C1281 1.399 . S
C1282 C1283 1.376 . S
C1283 H1270 0.930 . S
C1283 C1282 1.376 . S
C1283 C1284 1.388 . S
C1284 H1271 0.930 . S
C1284 C1283 1.388 . S
C1284 C1285 1.390 . S
C1285 C1284 1.390 . S
C1285 C1286 1.394 1_556 S
C1285 C1291 1.464 1_556 S
C1286 C1281 1.399 1_554 S
C1286 C1285 1.394 1_554 S
C1286 C1287 1.516 . S
C1287 C1286 1.516 . S
C1287 C1288 1.502 . S
C1287 C1289 1.561 . S
C1287 C1290 1.526 . S
C1288 H1272 0.959 1_554 S
C1288 H1273 0.959 . S
C1288 H1274 0.961 . S
C1288 C1287 1.502 . S
C1289 H1275 0.960 . S
C1289 H1276 0.961 . S
C1289 H1277 0.959 . S
C1289 C1287 1.561 . S
C1290 C1287 1.526 . S
C1290 C1291 1.399 . S
C1290 C1295 1.390 . S
C1291 C1285 1.464 1_554 S
C1291 C1290 1.399 . S
C1291 C1292 1.398 1_554 S
C1292 H1278 0.929 . S
C1292 C1291 1.398 1_556 S
C1292 C1293 1.385 1_556 S
C1293 H1279 0.931 . S
C1293 C1292 1.385 1_554 S
C1293 C1294 1.389 . S
C1294 C1293 1.389 . S
C1294 C1295 1.387 . S
C1295 H1280 0.930 . S
C1295 C1290 1.390 . S
C1295 C1294 1.387 . S
H1296 C1308 0.930 . S
H1297 C1310 0.930 . S
H1298 C1311 0.930 . S
H1299 C1315 0.959 . S
H1300 C1315 0.959 . S
H1301 C1315 0.964 . S
H1302 C1316 0.960 . S
H1303 C1316 0.961 . S
H1304 C1316 0.959 . S
H1305 C1319 0.929 . S
H1306 C1320 0.931 . S
H1307 C1322 0.935 . S
C1308 H1296 0.930 . S
C1308 C1309 1.399 . S
C1308 C1313 1.399 . S
C1309 C1308 1.399 . S
C1309 C1310 1.376 1_554 S
C1310 H1297 0.930 . S
C1310 C1309 1.376 1_556 S
C1310 C1311 1.388 . S
C1311 H1298 0.930 . S
C1311 C1310 1.388 . S
C1311 C1312 1.390 . S
C1312 C1311 1.390 . S
C1312 C1313 1.394 1_556 S
C1312 C1318 1.465 1_545 S
C1313 C1308 1.399 . S
C1313 C1312 1.394 1_554 S
C1313 C1314 1.516 1_545 S
C1314 C1313 1.516 1_565 S
C1314 C1315 1.502 . S
C1314 C1316 1.561 . S
C1314 C1317 1.526 . S
C1315 H1299 0.959 . S
C1315 H1300 0.959 . S
C1315 H1301 0.964 . S
C1315 C1314 1.502 . S
C1316 H1302 0.960 . S
C1316 H1303 0.961 . S
C1316 H1304 0.959 . S
C1316 C1314 1.561 . S
C1317 C1314 1.526 . S
C1317 C1318 1.396 1_554 S
C1317 C1322 1.391 . S
C1318 C1312 1.465 1_565 S
C1318 C1317 1.396 1_556 S
C1318 C1319 1.399 . S
C1319 H1305 0.929 . S
C1319 C1318 1.399 . S
C1319 C1320 1.385 . S
C1320 H1306 0.931 . S
C1320 C1319 1.385 . S
C1320 C1321 1.389 . S
C1321 C1320 1.389 . S
C1321 C1322 1.380 1_556 S
C1322 H1307 0.935 . S
C1322 C1317 1.391 . S
C1322 C1321 1.380 1_554 S
H1323 C1335 0.930 . S
H1324 C1337 0.930 . S
H1325 C1338 0.930 . S
H1326 C1342 0.959 . S
H1327 C1342 0.959 . S
H1328 C1342 0.961 . S
H1329 C1343 0.960 . S
H1330 C1343 0.961 . S
H1331 C1343 0.959 . S
H1332 C1346 0.929 . S
H1333 C1347 0.931 . S
H1334 C1349 0.930 . S
C1335 H1323 0.930 . S
C1335 C1336 1.399 . S
C1335 C1340 1.399 . S
C1336 C1335 1.399 . S
C1336 C1337 1.376 . S
C1337 H1324 0.930 . S
C1337 C1336 1.376 . S
C1337 C1338 1.388 . S
C1338 H1325 0.930 . S
C1338 C1337 1.388 . S
C1338 C1339 1.390 . S
C1339 C1338 1.390 . S
C1339 C1340 1.394 . S
C1339 C1345 1.465 . S
C1340 C1335 1.399 . S
C1340 C1339 1.394 . S
C1340 C1341 1.516 . S
C1341 C1340 1.516 . S
C1341 C1342 1.502 . S
C1341 C1343 1.561 . S
C1341 C1344 1.526 . S
C1342 H1326 0.959 . S
C1342 H1327 0.959 . S
C1342 H1328 0.961 . S
C1342 C1341 1.502 . S
C1343 H1329 0.960 . S
C1343 H1330 0.961 . S
C1343 H1331 0.959 . S
C1343 C1341 1.561 . S
C1344 C1341 1.526 . S
C1344 C1345 1.396 . S
C1344 C1349 1.390 . S
C1345 C1339 1.465 . S
C1345 C1344 1.396 . S
C1345 C1346 1.399 . S
C1346 H1332 0.929 . S
C1346 C1345 1.399 . S
C1346 C1347 1.385 . S
C1347 H1333 0.931 . S
C1347 C1346 1.385 . S
C1347 C1348 1.389 . S
C1348 C1347 1.389 . S
C1348 C1349 1.387 . S
C1349 H1334 0.930 . S
C1349 C1344 1.390 . S
C1349 C1348 1.387 . S
H1350 C1362 0.930 . S
H1351 C1364 0.930 . S
H1352 C1365 0.930 . S
H1353 C1369 0.959 . S
H1354 C1369 0.959 . S
H1355 C1369 0.961 . S
H1356 C1370 0.960 . S
H1357 C1370 0.961 . S
H1358 C1370 0.959 . S
H1359 C1373 0.929 1_545 S
H1360 C1374 0.931 . S
H1361 C1376 0.930 . S
C1362 H1350 0.930 . S
C1362 C1363 1.399 . S
C1362 C1367 1.399 . S
C1363 C1362 1.399 . S
C1363 C1364 1.376 . S
C1364 H1351 0.930 . S
C1364 C1363 1.376 . S
C1364 C1365 1.388 . S
C1365 H1352 0.930 . S
C1365 C1364 1.388 . S
C1365 C1366 1.390 . S
C1366 C1365 1.390 . S
C1366 C1367 1.394 . S
C1366 C1372 1.465 1_545 S
C1367 C1362 1.399 . S
C1367 C1366 1.394 . S
C1367 C1368 1.516 1_545 S
C1368 C1367 1.516 1_565 S
C1368 C1369 1.502 . S
C1368 C1370 1.561 . S
C1368 C1371 1.526 . S
C1369 H1353 0.959 . S
C1369 H1354 0.959 . S
C1369 H1355 0.961 . S
C1369 C1368 1.502 . S
C1370 H1356 0.960 . S
C1370 H1357 0.961 . S
C1370 H1358 0.959 . S
C1370 C1368 1.561 . S
C1371 C1368 1.526 . S
C1371 C1372 1.396 . S
C1371 C1376 1.390 . S
C1372 C1366 1.465 1_565 S
C1372 C1371 1.396 . S
C1372 C1373 1.399 . S
C1373 H1359 0.929 1_565 S
C1373 C1372 1.399 . S
C1373 C1374 1.385 . S
C1374 H1360 0.931 . S
C1374 C1373 1.385 . S
C1374 C1375 1.389 . S
C1375 C1374 1.389 . S
C1375 C1376 1.387 . S
C1376 H1361 0.930 . S
C1376 C1371 1.390 . S
C1376 C1375 1.387 . S
H1377 C1389 0.930 . S
H1378 C1391 0.930 . S
H1379 C1392 0.930 . S
H1380 C1396 0.959 . S
H1381 C1396 0.959 . S
H1382 C1396 0.961 . S
H1383 C1397 0.960 . S
H1384 C1397 0.961 . S
H1385 C1397 0.959 . S
H1386 C1400 0.929 . S
H1387 C1401 0.931 . S
H1388 C1403 0.930 . S
C1389 H1377 0.930 . S
C1389 C1390 1.399 . S
C1389 C1394 1.399 . S
C1390 C1389 1.399 . S
C1390 C1391 1.376 . S
C1391 H1378 0.930 . S
C1391 C1390 1.376 . S
C1391 C1392 1.388 . S
C1392 H1379 0.930 . S
C1392 C1391 1.388 . S
C1392 C1393 1.390 . S
C1393 C1392 1.390 . S
C1393 C1394 1.394 . S
C1393 C1399 1.490 . S
C1394 C1389 1.399 . S
C1394 C1393 1.394 . S
C1394 C1395 1.516 1_455 S
C1395 C1394 1.516 1_655 S
C1395 C1396 1.502 . S
C1395 C1397 1.561 . S
C1395 C1398 1.526 . S
C1396 H1380 0.959 . S
C1396 H1381 0.959 . S
C1396 H1382 0.961 . S
C1396 C1395 1.502 . S
C1397 H1383 0.960 . S
C1397 H1384 0.961 . S
C1397 H1385 0.959 . S
C1397 C1395 1.561 . S
C1398 C1395 1.526 . S
C1398 C1399 1.366 1_655 S
C1398 C1403 1.390 . S
C1399 C1393 1.490 . S
C1399 C1398 1.366 1_455 S
C1399 C1400 1.401 . S
C1400 H1386 0.929 . S
C1400 C1399 1.401 . S
C1400 C1401 1.385 1_455 S
C1401 H1387 0.931 . S
C1401 C1400 1.385 1_655 S
C1401 C1402 1.389 . S
C1402 C1401 1.389 . S
C1402 C1403 1.387 . S
C1403 H1388 0.930 . S
C1403 C1398 1.390 . S
C1403 C1402 1.387 . S
H1404 C1416 0.930 . S
H1405 C1418 0.930 . S
H1406 C1419 0.930 . S
H1407 C1423 0.959 . S
H1408 C1423 0.959 . S
H1409 C1423 0.961 . S
H1410 C1424 0.960 . S
H1411 C1424 0.961 . S
H1412 C1424 0.959 . S
H1413 C1427 0.929 . S
H1414 C1428 0.931 . S
H1415 C1430 0.930 . S
C1416 H1404 0.930 . S
C1416 C1417 1.399 . S
C1416 C1421 1.399 . S
C1417 C1416 1.399 . S
C1417 C1418 1.376 . S
C1418 H1405 0.930 . S
C1418 C1417 1.376 . S
C1418 C1419 1.388 . S
C1419 H1406 0.930 . S
C1419 C1418 1.388 . S
C1419 C1420 1.390 . S
C1420 C1419 1.390 . S
C1420 C1421 1.394 . S
C1420 C1426 1.465 . S
C1421 C1416 1.399 . S
C1421 C1420 1.394 . S
C1421 C1422 1.516 . S
C1422 C1421 1.516 . S
C1422 C1423 1.502 . S
C1422 C1424 1.561 . S
C1422 C1425 1.526 . S
C1423 H1407 0.959 . S
C1423 H1408 0.959 . S
C1423 H1409 0.961 . S
C1423 C1422 1.502 . S
C1424 H1410 0.960 . S
C1424 H1411 0.961 . S
C1424 H1412 0.959 . S
C1424 C1422 1.561 . S
C1425 C1422 1.526 . S
C1425 C1426 1.396 . S
C1425 C1430 1.390 . S
C1426 C1420 1.465 . S
C1426 C1425 1.396 . S
C1426 C1427 1.399 . S
C1427 H1413 0.929 . S
C1427 C1426 1.399 . S
C1427 C1428 1.385 . S
C1428 H1414 0.931 . S
C1428 C1427 1.385 . S
C1428 C1429 1.389 . S
C1429 C1428 1.389 . S
C1429 C1430 1.387 . S
C1430 H1415 0.930 . S
C1430 C1425 1.390 . S
C1430 C1429 1.387 . S
H1431 C1443 0.930 . S
H1432 C1445 0.930 . S
H1433 C1446 0.930 . S
H1434 C1450 0.959 . S
H1435 C1450 0.959 . S
H1436 C1450 0.961 1_565 S
H1437 C1451 0.960 . S
H1438 C1451 0.961 . S
H1439 C1451 0.959 . S
H1440 C1454 0.929 . S
H1441 C1455 0.931 . S
H1442 C1457 0.930 . S
C1443 H1431 0.930 . S
C1443 C1444 1.399 . S
C1443 C1448 1.399 . S
C1444 C1443 1.399 . S
C1444 C1445 1.376 . S
C1445 H1432 0.930 . S
C1445 C1444 1.376 . S
C1445 C1446 1.388 . S
C1446 H1433 0.930 . S
C1446 C1445 1.388 . S
C1446 C1447 1.390 . S
C1447 C1446 1.390 . S
C1447 C1448 1.394 . S
C1447 C1453 1.465 1_565 S
C1448 C1443 1.399 . S
C1448 C1447 1.394 . S
C1448 C1449 1.516 . S
C1449 C1448 1.516 . S
C1449 C1450 1.502 1_565 S
C1449 C1451 1.561 . S
C1449 C1452 1.526 1_565 S
C1450 H1434 0.959 . S
C1450 H1435 0.959 . S
C1450 H1436 0.961 1_545 S
C1450 C1449 1.502 1_545 S
C1451 H1437 0.960 . S
C1451 H1438 0.961 . S
C1451 H1439 0.959 . S
C1451 C1449 1.561 . S
C1452 C1449 1.526 1_545 S
C1452 C1453 1.396 . S
C1452 C1457 1.390 . S
C1453 C1447 1.465 1_545 S
C1453 C1452 1.396 . S
C1453 C1454 1.399 . S
C1454 H1440 0.929 . S
C1454 C1453 1.399 . S
C1454 C1455 1.385 . S
C1455 H1441 0.931 . S
C1455 C1454 1.385 . S
C1455 C1456 1.389 . S
C1456 C1455 1.389 . S
C1456 C1457 1.387 . S
C1457 H1442 0.930 . S
C1457 C1452 1.390 . S
C1457 C1456 1.387 . S
H1458 C1470 0.930 . S
H1459 C1472 0.930 . S
H1460 C1473 0.930 1_455 S
H1461 C1477 0.959 . S
H1462 C1477 0.959 . S
H1463 C1477 0.961 . S
H1464 C1478 0.960 . S
H1465 C1478 0.961 . S
H1466 C1478 0.959 . S
H1467 C1481 0.929 . S
H1468 C1482 0.931 . S
H1469 C1484 0.930 . S
C1470 H1458 0.930 . S
C1470 C1471 1.399 . S
C1470 C1475 1.399 . S
C1471 C1470 1.399 . S
C1471 C1472 1.376 . S
C1472 H1459 0.930 . S
C1472 C1471 1.376 . S
C1472 C1473 1.388 . S
C1473 H1460 0.930 1_655 S
C1473 C1472 1.388 . S
C1473 C1474 1.390 . S
C1474 C1473 1.390 . S
C1474 C1475 1.394 . S
C1474 C1480 1.465 1_655 S
C1475 C1470 1.399 . S
C1475 C1474 1.394 . S
C1475 C1476 1.516 . S
C1476 C1475 1.516 . S
C1476 C1477 1.502 . S
C1476 C1478 1.561 . S
C1476 C1479 1.526 1_655 S
C1477 H1461 0.959 . S
C1477 H1462 0.959 . S
C1477 H1463 0.961 . S
C1477 C1476 1.502 . S
C1478 H1464 0.960 . S
C1478 H1465 0.961 . S
C1478 H1466 0.959 . S
C1478 C1476 1.561 . S
C1479 C1476 1.526 1_455 S
C1479 C1480 1.396 . S
C1479 C1484 1.390 . S
C1480 C1474 1.465 1_455 S
C1480 C1479 1.396 . S
C1480 C1481 1.399 . S
C1481 H1467 0.929 . S
C1481 C1480 1.399 . S
C1481 C1482 1.385 . S
C1482 H1468 0.931 . S
C1482 C1481 1.385 . S
C1482 C1483 1.389 . S
C1483 C1482 1.389 . S
C1483 C1484 1.387 . S
C1484 H1469 0.930 . S
C1484 C1479 1.390 . S
C1484 C1483 1.387 . S
H1485 C1497 0.930 . S
H1486 C1499 0.930 . S
H1487 C1500 0.930 . S
H1488 C1504 0.959 . S
H1489 C1504 0.959 . S
H1490 C1504 0.961 . S
H1491 C1505 0.960 . S
H1492 C1505 0.961 . S
H1493 C1505 0.959 . S
H1494 C1508 0.929 . S
H1495 C1509 0.931 . S
H1496 C1511 0.930 . S
C1497 H1485 0.930 . S
C1497 C1498 1.399 . S
C1497 C1502 1.399 . S
C1498 C1497 1.399 . S
C1498 C1499 1.376 . S
C1499 H1486 0.930 . S
C1499 C1498 1.376 . S
C1499 C1500 1.388 . S
C1500 H1487 0.930 . S
C1500 C1499 1.388 . S
C1500 C1501 1.390 . S
C1501 C1500 1.390 . S
C1501 C1502 1.394 . S
C1501 C1507 1.465 . S
C1502 C1497 1.399 . S
C1502 C1501 1.394 . S
C1502 C1503 1.516 . S
C1503 C1502 1.516 . S
C1503 C1504 1.502 . S
C1503 C1505 1.561 . S
C1503 C1506 1.526 . S
C1504 H1488 0.959 . S
C1504 H1489 0.959 . S
C1504 H1490 0.961 . S
C1504 C1503 1.502 . S
C1505 H1491 0.960 . S
C1505 H1492 0.961 . S
C1505 H1493 0.959 . S
C1505 C1503 1.561 . S
C1506 C1503 1.526 . S
C1506 C1507 1.396 . S
C1506 C1511 1.390 . S
C1507 C1501 1.465 . S
C1507 C1506 1.396 . S
C1507 C1508 1.399 . S
C1508 H1494 0.929 . S
C1508 C1507 1.399 . S
C1508 C1509 1.385 . S
C1509 H1495 0.931 . S
C1509 C1508 1.385 . S
C1509 C1510 1.389 . S
C1510 C1509 1.389 . S
C1510 C1511 1.387 . S
C1511 H1496 0.930 . S
C1511 C1506 1.390 . S
C1511 C1510 1.387 . S
H1512 C1524 0.930 . S
H1513 C1526 0.944 . S
H1514 C1527 0.930 . S
H1515 C1531 0.959 . S
H1516 C1531 0.959 . S
H1517 C1531 0.961 . S
H1518 C1532 0.960 . S
H1519 C1532 0.961 . S
H1520 C1532 0.959 . S
H1521 C1535 0.929 . S
H1522 C1536 0.931 . S
H1523 C1538 0.930 . S
C1524 H1512 0.930 . S
C1524 C1525 1.399 . S
C1524 C1529 1.399 . S
C1525 C1524 1.399 . S
C1525 C1526 1.376 . S
C1526 H1513 0.944 . S
C1526 C1525 1.376 . S
C1526 C1527 1.388 . S
C1527 H1514 0.930 . S
C1527 C1526 1.388 . S
C1527 C1528 1.390 . S
C1528 C1527 1.390 . S
C1528 C1529 1.394 . S
C1528 C1534 1.465 . S
C1529 C1524 1.399 . S
C1529 C1528 1.394 . S
C1529 C1530 1.516 . S
C1530 C1529 1.516 . S
C1530 C1531 1.502 . S
C1530 C1532 1.561 . S
C1530 C1533 1.526 . S
C1531 H1515 0.959 . S
C1531 H1516 0.959 . S
C1531 H1517 0.961 . S
C1531 C1530 1.502 . S
C1532 H1518 0.960 . S
C1532 H1519 0.961 . S
C1532 H1520 0.959 . S
C1532 C1530 1.561 . S
C1533 C1530 1.526 . S
C1533 C1534 1.396 . S
C1533 C1538 1.390 . S
C1534 C1528 1.465 . S
C1534 C1533 1.396 . S
C1534 C1535 1.399 . S
C1535 H1521 0.929 . S
C1535 C1534 1.399 . S
C1535 C1536 1.385 . S
C1536 H1522 0.931 . S
C1536 C1535 1.385 . S
C1536 C1537 1.389 . S
C1537 C1536 1.389 . S
C1537 C1538 1.387 . S
C1538 H1523 0.930 . S
C1538 C1533 1.390 . S
C1538 C1537 1.387 . S
H1539 C1551 0.930 . S
H1540 C1553 0.930 . S
H1541 C1554 0.930 . S
H1542 C1558 0.959 . S
H1543 C1558 0.959 . S
H1544 C1558 0.961 . S
H1545 C1559 0.960 . S
H1546 C1559 0.961 . S
H1547 C1559 0.959 . S
H1548 C1562 0.929 . S
H1549 C1563 0.931 . S
H1550 C1565 0.930 . S
C1551 H1539 0.930 . S
C1551 C1552 1.399 . S
C1551 C1556 1.399 . S
C1552 C1551 1.399 . S
C1552 C1553 1.376 . S
C1553 H1540 0.930 . S
C1553 C1552 1.376 . S
C1553 C1554 1.388 . S
C1554 H1541 0.930 . S
C1554 C1553 1.388 . S
C1554 C1555 1.390 . S
C1555 C1554 1.390 . S
C1555 C1556 1.394 . S
C1555 C1561 1.465 . S
C1556 C1551 1.399 . S
C1556 C1555 1.394 . S
C1556 C1557 1.516 . S
C1557 C1556 1.516 . S
C1557 C1558 1.502 . S
C1557 C1559 1.561 . S
C1557 C1560 1.526 . S
C1558 H1542 0.959 . S
C1558 H1543 0.959 . S
C1558 H1544 0.961 . S
C1558 C1557 1.502 . S
C1559 H1545 0.960 . S
C1559 H1546 0.961 . S
C1559 H1547 0.959 . S
C1559 C1557 1.561 . S
C1560 C1557 1.526 . S
C1560 C1561 1.396 . S
C1560 C1565 1.390 . S
C1561 C1555 1.465 . S
C1561 C1560 1.396 . S
C1561 C1562 1.399 . S
C1562 H1548 0.929 . S
C1562 C1561 1.399 . S
C1562 C1563 1.385 . S
C1563 H1549 0.931 . S
C1563 C1562 1.385 . S
C1563 C1564 1.389 . S
C1564 C1563 1.389 . S
C1564 C1565 1.387 . S
C1565 H1550 0.930 . S
C1565 C1560 1.390 . S
C1565 C1564 1.387 . S
H1566 C1578 0.930 . S
H1567 C1580 0.930 . S
H1568 C1581 0.930 . S
H1569 C1585 0.959 . S
H1570 C1585 0.959 . S
H1571 C1585 0.961 . S
H1572 C1586 0.960 . S
H1573 C1586 0.961 . S
H1574 C1586 0.959 . S
H1575 C1589 0.929 . S
H1576 C1590 0.931 . S
H1577 C1592 0.930 . S
C1578 H1566 0.930 . S
C1578 C1579 1.399 . S
C1578 C1583 1.399 . S
C1579 C1578 1.399 . S
C1579 C1580 1.376 . S
C1580 H1567 0.930 . S
C1580 C1579 1.376 . S
C1580 C1581 1.388 . S
C1581 H1568 0.930 . S
C1581 C1580 1.388 . S
C1581 C1582 1.390 . S
C1582 C1581 1.390 . S
C1582 C1583 1.394 . S
C1582 C1588 1.465 . S
C1583 C1578 1.399 . S
C1583 C1582 1.394 . S
C1583 C1584 1.516 . S
C1584 C1583 1.516 . S
C1584 C1585 1.502 . S
C1584 C1586 1.561 . S
C1584 C1587 1.526 . S
C1585 H1569 0.959 . S
C1585 H1570 0.959 . S
C1585 H1571 0.961 . S
C1585 C1584 1.502 . S
C1586 H1572 0.960 . S
C1586 H1573 0.961 . S
C1586 H1574 0.959 . S
C1586 C1584 1.561 . S
C1587 C1584 1.526 . S
C1587 C1588 1.396 . S
C1587 C1592 1.390 . S
C1588 C1582 1.465 . S
C1588 C1587 1.396 . S
C1588 C1589 1.399 . S
C1589 H1575 0.929 . S
C1589 C1588 1.399 . S
C1589 C1590 1.385 . S
C1590 H1576 0.931 . S
C1590 C1589 1.385 . S
C1590 C1591 1.389 . S
C1591 C1590 1.389 . S
C1591 C1592 1.387 . S
C1592 H1577 0.930 . S
C1592 C1587 1.390 . S
C1592 C1591 1.387 . S
H1593 C1605 0.930 . S
H1594 C1607 0.930 . S
H1595 C1608 0.930 . S
H1596 C1612 0.959 . S
H1597 C1612 0.959 . S
H1598 C1612 0.961 . S
H1599 C1613 0.960 . S
H1600 C1613 0.961 . S
H1601 C1613 0.959 . S
H1602 C1616 0.929 . S
H1603 C1617 0.931 . S
H1604 C1619 0.930 . S
C1605 H1593 0.930 . S
C1605 C1606 1.399 . S
C1605 C1610 1.399 . S
C1606 C1605 1.399 . S
C1606 C1607 1.376 . S
C1607 H1594 0.930 . S
C1607 C1606 1.376 . S
C1607 C1608 1.388 . S
C1608 H1595 0.930 . S
C1608 C1607 1.388 . S
C1608 C1609 1.390 . S
C1609 C1608 1.390 . S
C1609 C1610 1.394 . S
C1609 C1615 1.465 . S
C1610 C1605 1.399 . S
C1610 C1609 1.394 . S
C1610 C1611 1.516 . S
C1611 C1610 1.516 . S
C1611 C1612 1.502 . S
C1611 C1613 1.561 . S
C1611 C1614 1.526 . S
C1612 H1596 0.959 . S
C1612 H1597 0.959 . S
C1612 H1598 0.961 . S
C1612 C1611 1.502 . S
C1613 H1599 0.960 . S
C1613 H1600 0.961 . S
C1613 H1601 0.959 . S
C1613 C1611 1.561 . S
C1614 C1611 1.526 . S
C1614 C1615 1.396 . S
C1614 C1619 1.390 . S
C1615 C1609 1.465 . S
C1615 C1614 1.396 . S
C1615 C1616 1.399 . S
C1616 H1602 0.929 . S
C1616 C1615 1.399 . S
C1616 C1617 1.385 . S
C1617 H1603 0.931 . S
C1617 C1616 1.385 . S
C1617 C1618 1.389 . S
C1618 C1617 1.389 . S
C1618 C1619 1.387 . S
C1619 H1604 0.930 . S
C1619 C1614 1.390 . S
C1619 C1618 1.387 . S
H1620 C1632 0.930 . S
H1621 C1634 0.930 . S
H1622 C1635 0.930 . S
H1623 C1639 0.959 . S
H1624 C1639 0.959 . S
H1625 C1639 0.961 . S
H1626 C1640 0.960 . S
H1627 C1640 0.961 . S
H1628 C1640 0.959 . S
H1629 C1643 0.929 . S
H1630 C1644 0.931 . S
H1631 C1646 0.930 . S
C1632 H1620 0.930 . S
C1632 C1633 1.399 . S
C1632 C1637 1.399 . S
C1633 C1632 1.399 . S
C1633 C1634 1.376 . S
C1634 H1621 0.930 . S
C1634 C1633 1.376 . S
C1634 C1635 1.388 . S
C1635 H1622 0.930 . S
C1635 C1634 1.388 . S
C1635 C1636 1.390 . S
C1636 C1635 1.390 . S
C1636 C1637 1.394 . S
C1636 C1642 1.465 . S
C1637 C1632 1.399 . S
C1637 C1636 1.394 . S
C1637 C1638 1.516 . S
C1638 C1637 1.516 . S
C1638 C1639 1.502 . S
C1638 C1640 1.561 . S
C1638 C1641 1.526 . S
C1639 H1623 0.959 . S
C1639 H1624 0.959 . S
C1639 H1625 0.961 . S
C1639 C1638 1.502 . S
C1640 H1626 0.960 . S
C1640 H1627 0.961 . S
C1640 H1628 0.959 . S
C1640 C1638 1.561 . S
C1641 C1638 1.526 . S
C1641 C1642 1.396 . S
C1641 C1646 1.390 . S
C1642 C1636 1.465 . S
C1642 C1641 1.396 . S
C1642 C1643 1.399 . S
C1643 H1629 0.929 . S
C1643 C1642 1.399 . S
C1643 C1644 1.385 . S
C1644 H1630 0.931 . S
C1644 C1643 1.385 . S
C1644 C1645 1.389 . S
C1645 C1644 1.389 . S
C1645 C1646 1.387 . S
C1646 H1631 0.930 . S
C1646 C1641 1.390 . S
C1646 C1645 1.387 . S
H1647 C1659 0.930 . S
H1648 C1661 0.930 . S
H1649 C1662 0.930 . S
H1650 C1666 0.959 . S
H1651 C1666 0.959 . S
H1652 C1666 0.961 . S
H1653 C1667 0.960 . S
H1654 C1667 0.961 . S
H1655 C1667 0.959 . S
H1656 C1670 0.929 . S
H1657 C1671 0.910 1_556 S
H1658 C1673 0.930 . S
C1659 H1647 0.930 . S
C1659 C1660 1.399 . S
C1659 C1664 1.399 . S
C1660 C1659 1.399 . S
C1660 C1661 1.376 . S
C1661 H1648 0.930 . S
C1661 C1660 1.376 . S
C1661 C1662 1.388 . S
C1662 H1649 0.930 . S
C1662 C1661 1.388 . S
C1662 C1663 1.390 . S
C1663 C1662 1.390 . S
C1663 C1664 1.394 . S
C1663 C1669 1.465 . S
C1664 C1659 1.399 . S
C1664 C1663 1.394 . S
C1664 C1665 1.516 . S
C1665 C1664 1.516 . S
C1665 C1666 1.502 . S
C1665 C1667 1.561 . S
C1665 C1668 1.526 . S
C1666 H1650 0.959 . S
C1666 H1651 0.959 . S
C1666 H1652 0.961 . S
C1666 C1665 1.502 . S
C1667 H1653 0.960 . S
C1667 H1654 0.961 . S
C1667 H1655 0.959 . S
C1667 C1665 1.561 . S
C1668 C1665 1.526 . S
C1668 C1669 1.396 . S
C1668 C1673 1.390 . S
C1669 C1663 1.465 . S
C1669 C1668 1.396 . S
C1669 C1670 1.399 . S
C1670 H1656 0.929 . S
C1670 C1669 1.399 . S
C1670 C1671 1.385 . S
C1671 H1657 0.910 1_554 S
C1671 C1670 1.385 . S
C1671 C1672 1.389 . S
C1672 C1671 1.389 . S
C1672 C1673 1.387 . S
C1673 H1658 0.930 . S
C1673 C1668 1.390 . S
C1673 C1672 1.387 . S
H1674 C1686 0.930 . S
H1675 C1688 0.930 . S
H1676 C1689 0.930 . S
H1677 C1693 0.959 . S
H1678 C1693 0.959 . S
H1679 C1693 0.961 . S
H1680 C1694 0.960 . S
H1681 C1694 0.961 . S
H1682 C1694 0.959 . S
H1683 C1697 0.929 . S
H1684 C1698 0.931 . S
H1685 C1700 0.930 . S
C1686 H1674 0.930 . S
C1686 C1687 1.399 . S
C1686 C1691 1.399 . S
C1687 C1686 1.399 . S
C1687 C1688 1.376 . S
C1688 H1675 0.930 . S
C1688 C1687 1.376 . S
C1688 C1689 1.388 . S
C1689 H1676 0.930 . S
C1689 C1688 1.388 . S
C1689 C1690 1.390 . S
C1690 C1689 1.390 . S
C1690 C1691 1.394 . S
C1690 C1696 1.465 . S
C1691 C1686 1.399 . S
C1691 C1690 1.394 . S
C1691 C1692 1.516 . S
C1692 C1691 1.516 . S
C1692 C1693 1.502 . S
C1692 C1694 1.561 . S
C1692 C1695 1.526 . S
C1693 H1677 0.959 . S
C1693 H1678 0.959 . S
C1693 H1679 0.961 . S
C1693 C1692 1.502 . S
C1694 H1680 0.960 . S
C1694 H1681 0.961 . S
C1694 H1682 0.959 . S
C1694 C1692 1.561 . S
C1695 C1692 1.526 . S
C1695 C1696 1.396 . S
C1695 C1700 1.390 . S
C1696 C1690 1.465 . S
C1696 C1695 1.396 . S
C1696 C1697 1.399 . S
C1697 H1683 0.929 . S
C1697 C1696 1.399 . S
C1697 C1698 1.385 . S
C1698 H1684 0.931 . S
C1698 C1697 1.385 . S
C1698 C1699 1.389 . S
C1699 C1698 1.389 . S
C1699 C1700 1.387 . S
C1700 H1685 0.930 . S
C1700 C1695 1.390 . S
C1700 C1699 1.387 . S
H1701 C1713 0.930 . S
H1702 C1715 0.930 . S
H1703 C1716 0.930 . S
H1704 C1720 0.959 . S
H1705 C1720 0.959 . S
H1706 C1720 0.961 . S
H1707 C1721 0.960 . S
H1708 C1721 0.961 . S
H1709 C1721 0.959 . S
H1710 C1724 0.929 . S
H1711 C1725 0.931 . S
H1712 C1727 0.930 . S
C1713 H1701 0.930 . S
C1713 C1714 1.399 . S
C1713 C1718 1.399 . S
C1714 C1713 1.399 . S
C1714 C1715 1.376 . S
C1715 H1702 0.930 . S
C1715 C1714 1.376 . S
C1715 C1716 1.388 . S
C1716 H1703 0.930 . S
C1716 C1715 1.388 . S
C1716 C1717 1.390 . S
C1717 C1716 1.390 . S
C1717 C1718 1.394 . S
C1717 C1723 1.465 . S
C1718 C1713 1.399 . S
C1718 C1717 1.394 . S
C1718 C1719 1.516 . S
C1719 C1718 1.516 . S
C1719 C1720 1.502 . S
C1719 C1721 1.561 . S
C1719 C1722 1.526 . S
C1720 H1704 0.959 . S
C1720 H1705 0.959 . S
C1720 H1706 0.961 . S
C1720 C1719 1.502 . S
C1721 H1707 0.960 . S
C1721 H1708 0.961 . S
C1721 H1709 0.959 . S
C1721 C1719 1.561 . S
C1722 C1719 1.526 . S
C1722 C1723 1.396 . S
C1722 C1727 1.390 . S
C1723 C1717 1.465 . S
C1723 C1722 1.396 . S
C1723 C1724 1.399 . S
C1724 H1710 0.929 . S
C1724 C1723 1.399 . S
C1724 C1725 1.385 . S
C1725 H1711 0.931 . S
C1725 C1724 1.385 . S
C1725 C1726 1.389 . S
C1726 C1725 1.389 . S
C1726 C1727 1.387 . S
C1727 H1712 0.930 . S
C1727 C1722 1.390 . S
C1727 C1726 1.387 . S
H1728 C1740 0.930 . S
H1729 C1742 0.930 . S
H1730 C1743 0.930 . S
H1731 C1747 0.959 . S
H1732 C1747 0.959 . S
H1733 C1747 0.961 . S
H1734 C1748 0.960 . S
H1735 C1748 0.961 . S
H1736 C1748 0.959 . S
H1737 C1751 0.929 . S
H1738 C1752 0.931 . S
H1739 C1754 0.930 . S
C1740 H1728 0.930 . S
C1740 C1741 1.399 . S
C1740 C1745 1.399 . S
C1741 C1740 1.399 . S
C1741 C1742 1.376 . S
C1742 H1729 0.930 . S
C1742 C1741 1.376 . S
C1742 C1743 1.388 . S
C1743 H1730 0.930 . S
C1743 C1742 1.388 . S
C1743 C1744 1.390 . S
C1744 C1743 1.390 . S
C1744 C1745 1.394 . S
C1744 C1750 1.465 . S
C1745 C1740 1.399 . S
C1745 C1744 1.394 . S
C1745 C1746 1.516 . S
C1746 C1745 1.516 . S
C1746 C1747 1.502 . S
C1746 C1748 1.561 . S
C1746 C1749 1.526 . S
C1747 H1731 0.959 . S
C1747 H1732 0.959 . S
C1747 H1733 0.961 . S
C1747 C1746 1.502 . S
C1748 H1734 0.960 . S
C1748 H1735 0.961 . S
C1748 H1736 0.959 . S
C1748 C1746 1.561 . S
C1749 C1746 1.526 . S
C1749 C1750 1.396 . S
C1749 C1754 1.390 . S
C1750 C1744 1.465 . S
C1750 C1749 1.396 . S
C1750 C1751 1.399 . S
C1751 H1737 0.929 . S
C1751 C1750 1.399 . S
C1751 C1752 1.385 . S
C1752 H1738 0.931 . S
C1752 C1751 1.385 . S
C1752 C1753 1.389 . S
C1753 C1752 1.389 . S
C1753 C1754 1.387 . S
C1754 H1739 0.930 . S
C1754 C1749 1.390 . S
C1754 C1753 1.387 . S
H1755 C1767 0.930 . S
H1756 C1769 0.930 . S
H1757 C1770 0.930 . S
H1758 C1774 0.959 . S
H1759 C1774 0.959 . S
H1760 C1774 0.961 . S
H1761 C1775 0.960 . S
H1762 C1775 0.961 . S
H1763 C1775 0.959 . S
H1764 C1778 0.929 . S
H1765 C1779 0.931 . S
H1766 C1781 0.930 . S
C1767 H1755 0.930 . S
C1767 C1768 1.399 . S
C1767 C1772 1.399 . S
C1768 C1767 1.399 . S
C1768 C1769 1.376 . S
C1769 H1756 0.930 . S
C1769 C1768 1.376 . S
C1769 C1770 1.388 . S
C1770 H1757 0.930 . S
C1770 C1769 1.388 . S
C1770 C1771 1.390 . S
C1771 C1770 1.390 . S
C1771 C1772 1.394 . S
C1771 C1777 1.465 . S
C1772 C1767 1.399 . S
C1772 C1771 1.394 . S
C1772 C1773 1.516 . S
C1773 C1772 1.516 . S
C1773 C1774 1.502 . S
C1773 C1775 1.561 . S
C1773 C1776 1.526 . S
C1774 H1758 0.959 . S
C1774 H1759 0.959 . S
C1774 H1760 0.961 . S
C1774 C1773 1.502 . S
C1775 H1761 0.960 . S
C1775 H1762 0.961 . S
C1775 H1763 0.959 . S
C1775 C1773 1.561 . S
C1776 C1773 1.526 . S
C1776 C1777 1.396 . S
C1776 C1781 1.390 . S
C1777 C1771 1.465 . S
C1777 C1776 1.396 . S
C1777 C1778 1.399 . S
C1778 H1764 0.929 . S
C1778 C1777 1.399 . S
C1778 C1779 1.385 . S
C1779 H1765 0.931 . S
C1779 C1778 1.385 . S
C1779 C1780 1.389 . S
C1780 C1779 1.389 . S
C1780 C1781 1.387 . S
C1781 H1766 0.930 . S
C1781 C1776 1.390 . S
C1781 C1780 1.387 . S
H1782 C1794 0.930 . S
H1783 C1796 0.930 . S
H1784 C1797 0.930 . S
H1785 C1801 0.959 . S
H1786 C1801 0.959 . S
H1787 C1801 0.961 . S
H1788 C1802 0.960 . S
H1789 C1802 0.961 . S
H1790 C1802 0.959 . S
H1791 C1805 0.929 . S
H1792 C1806 0.931 . S
H1793 C1808 0.930 . S
C1794 H1782 0.930 . S
C1794 C1795 1.399 . S
C1794 C1799 1.399 . S
C1795 C1794 1.399 . S
C1795 C1796 1.376 . S
C1796 H1783 0.930 . S
C1796 C1795 1.376 . S
C1796 C1797 1.388 . S
C1797 H1784 0.930 . S
C1797 C1796 1.388 . S
C1797 C1798 1.390 . S
C1798 C1797 1.390 . S
C1798 C1799 1.394 . S
C1798 C1804 1.465 . S
C1799 C1794 1.399 . S
C1799 C1798 1.394 . S
C1799 C1800 1.516 . S
C1800 C1799 1.516 . S
C1800 C1801 1.502 . S
C1800 C1802 1.561 . S
C1800 C1803 1.526 . S
C1801 H1785 0.959 . S
C1801 H1786 0.959 . S
C1801 H1787 0.961 . S
C1801 C1800 1.502 . S
C1802 H1788 0.960 . S
C1802 H1789 0.961 . S
C1802 H1790 0.959 . S
C1802 C1800 1.561 . S
C1803 C1800 1.526 . S
C1803 C1804 1.396 . S
C1803 C1808 1.390 . S
C1804 C1798 1.465 . S
C1804 C1803 1.396 . S
C1804 C1805 1.399 . S
C1805 H1791 0.929 . S
C1805 C1804 1.399 . S
C1805 C1806 1.385 . S
C1806 H1792 0.931 . S
C1806 C1805 1.385 . S
C1806 C1807 1.389 . S
C1807 C1806 1.389 . S
C1807 C1808 1.387 . S
C1808 H1793 0.930 . S
C1808 C1803 1.390 . S
C1808 C1807 1.387 . S
C607 N112 1.152 . S
C619 N13 1.057 . S
C634 N145 1.171 . S
C646 N46 1.083 . S
C661 N79 1.097 . S
C673 N178 1.091 . S
C688 C51 2.230 . S
C700 C183 2.227 . S
C715 C117 2.240 . S
C727 C84 2.235 . S
C742 C150 2.231 . S
C754 C18 2.227 . S
C769 N211 1.137 . S
C781 N310 1.063 . S
C796 N343 1.119 . S
C808 N244 1.073 . S
C823 N277 1.145 . S
C835 N376 1.129 . S
C850 C381 2.238 . S
C862 C249 2.236 . S
C877 C315 2.240 . S
C889 C282 2.231 . S
C904 C348 2.226 . S
C916 C216 2.239 . S
C931 N508 1.165 . S
C943 N409 1.100 . S
C958 N442 1.172 . S
C970 N541 1.078 . S
C985 N574 1.059 . S
C997 N475 1.166 . S
C1012 C447 2.240 . S
C1024 C579 2.233 . S
C1039 C513 2.240 . S
C1051 C480 2.231 . S
C1066 C414 2.230 . S
C1078 C546 2.241 . S
C1093 C582 1.417 . S
C1105 C21 1.394 . S
C1120 C54 1.419 . S
C1132 C516 1.398 . S
C1147 C549 1.421 . S
C1159 C87 1.390 . S
C1174 C252 1.420 . S
C1186 C120 1.392 . S
C1201 C153 1.406 . S
C1213 C285 1.411 . S
C1228 C186 1.417 . S
C1240 C219 1.393 . S
C1255 C450 1.389 . S
C1267 C318 1.422 . S
C1282 C483 1.407 . S
C1294 C351 1.400 . S
C1309 C384 1.395 . S
C1321 C417 1.420 . S
C1336 C7 1.941 . S
C1348 C106 1.938 . S
C1363 C139 1.920 . S
C1375 C40 1.938 . S
C1390 C73 1.915 . S
C1402 C172 1.953 . S
C1417 N167 0.799 . S
C1429 N35 0.670 . S
C1444 N68 0.799 . S
C1456 N101 0.785 . S
C1471 N134 0.718 . S
C1483 N2 0.839 . S
C1498 C205 1.938 . S
C1510 C304 1.942 . S
C1525 C337 1.954 . S
C1537 C238 1.921 . S
C1552 C370 1.951 . S
C1564 C271 1.928 . S
C1579 N365 0.812 . S
C1591 N233 0.770 . S
C1606 N299 0.808 . S
C1618 N266 0.775 . S
C1633 N332 0.705 . S
C1645 N200 0.745 . S
C1660 C502 1.914 . S
C1672 C403 1.952 . S
C1687 C535 1.950 . S
C1699 C436 1.929 . S
C1714 C568 1.928 . S
C1726 C469 1.929 . S
C1741 N563 0.670 . S
C1753 N431 0.837 . S
C1768 N497 0.725 . S
C1780 N464 0.836 . S
C1795 N530 0.822 . S
C1807 N398 0.755 . S
