# Generated by pormake.
# Topology uoc, (4)-cn, num edge types: 1
# Building blocks:
#     Node 0, Type 0, BuildingBlock: QUQFOY_clean_sbu_1, # of connection points: 4
#     Node 1, Type 0, BuildingBlock: QUQFOY_clean_sbu_1, # of connection points: 4
#     Node 2, Type 0, BuildingBlock: QUQFOY_clean_sbu_1, # of connection points: 4
#     Node 3, Type 0, BuildingBlock: QUQFOY_clean_sbu_1, # of connection points: 4
#     Node 4, Type 0, BuildingBlock: QUQFOY_clean_sbu_1, # of connection points: 4
#     Node 5, Type 0, BuildingBlock: QUQFOY_clean_sbu_1, # of connection points: 4
#     Node 6, Type 0, BuildingBlock: QUQFOY_clean_sbu_1, # of connection points: 4
#     Node 7, Type 0, BuildingBlock: QUQFOY_clean_sbu_1, # of connection points: 4
#     Edge 8, Type (0, 0), BuildingBlock: CIFDUS_clean_linker_0, # of connection points: 2
#     Edge 9, Type (0, 0), BuildingBlock: CIFDUS_clean_linker_0, # of connection points: 2
#     Edge 10, Type (0, 0), BuildingBlock: CIFDUS_clean_linker_0, # of connection points: 2
#     Edge 11, Type (0, 0), BuildingBlock: CIFDUS_clean_linker_0, # of connection points: 2
#     Edge 12, Type (0, 0), BuildingBlock: CIFDUS_clean_linker_0, # of connection points: 2
#     Edge 13, Type (0, 0), BuildingBlock: CIFDUS_clean_linker_0, # of connection points: 2
#     Edge 14, Type (0, 0), BuildingBlock: CIFDUS_clean_linker_0, # of connection points: 2
#     Edge 15, Type (0, 0), BuildingBlock: CIFDUS_clean_linker_0, # of connection points: 2
#     Edge 16, Type (0, 0), BuildingBlock: CIFDUS_clean_linker_0, # of connection points: 2
#     Edge 17, Type (0, 0), BuildingBlock: CIFDUS_clean_linker_0, # of connection points: 2
#     Edge 18, Type (0, 0), BuildingBlock: CIFDUS_clean_linker_0, # of connection points: 2
#     Edge 19, Type (0, 0), BuildingBlock: CIFDUS_clean_linker_0, # of connection points: 2
#     Edge 20, Type (0, 0), BuildingBlock: CIFDUS_clean_linker_0, # of connection points: 2
#     Edge 21, Type (0, 0), BuildingBlock: CIFDUS_clean_linker_0, # of connection points: 2
#     Edge 22, Type (0, 0), BuildingBlock: CIFDUS_clean_linker_0, # of connection points: 2
#     Edge 23, Type (0, 0), BuildingBlock: CIFDUS_clean_linker_0, # of connection points: 2
# Relax obj value: 0.071
# Max RMSD: 0.099
# Mean RMSD: 0.099
data_MOF--net-uoc--node1-QUQFOY_clean_sbu_1--edge1-CIFDUS_clean_linker_0
_symmetry_space_group_name_H-M    P1
_symmetry_Int_Tables_number       1
_symmetry_cell_setting            triclinic
loop_
_symmetry_equiv_pos_as_xyz
'x, y, z'
_cell_length_a     24.140613
_cell_length_b     24.288651
_cell_length_c     48.842172
_cell_angle_alpha  89.856058
_cell_angle_beta   90.226834
_cell_angle_gamma 110.05544
loop_
_atom_site_label
_atom_site_type_symbol
_atom_site_fract_x
_atom_site_fract_y
_atom_site_fract_z
_atom_type_partial_charge
O0 O 0.14876 0.1885 0.13408 0.0
Cd1 Cd 0.19174 0.27791 0.1365 0.0
Cd2 Cd 0.08384 0.27529 0.14535 0.0
O3 O 0.05977 0.19268 0.1286 0.0
O4 O 0.26521 0.29355 0.11463 0.0
O5 O 0.19153 0.32314 0.10233 0.0
C6 C 0.24145 0.31739 0.09651 0.0
C7 C 0.04423 0.34548 0.13082 0.0
C8 C 0.09439 0.16335 0.12861 0.0
C9 C 0.16729 0.30487 0.19273 0.0
O10 O 0.11366 0.28341 0.18526 0.0
O11 O 0.20847 0.3146 0.17522 0.0
O12 O 0.01312 0.30009 0.1446 0.0
O13 O 0.09737 0.34985 0.1243 0.0
O14 O 0.70574 0.62796 0.41602 0.0
Cd15 Cd 0.79493 0.67435 0.41349 0.0
Cd16 Cd 0.79636 0.56786 0.40413 0.0
O17 O 0.71294 0.54052 0.42101 0.0
O18 O 0.80697 0.74773 0.43493 0.0
O19 O 0.84109 0.67799 0.4479 0.0
C20 C 0.83263 0.7265 0.45332 0.0
C21 C 0.87524 0.54142 0.41974 0.0
C22 C 0.68196 0.57363 0.42124 0.0
C23 C 0.82268 0.65066 0.35696 0.0
O24 O 0.80257 0.59718 0.36425 0.0
O25 O 0.83143 0.69129 0.37463 0.0
O26 O 0.83193 0.50453 0.4065 0.0
O27 O 0.87208 0.59219 0.42529 0.0
O28 O 0.37582 0.30614 0.63354 0.0
Cd29 Cd 0.31489 0.22419 0.63923 0.0
Cd30 Cd 0.41152 0.1924 0.63936 0.0
O31 O 0.45218 0.27799 0.62649 0.0
O32 O 0.24037 0.22808 0.6233 0.0
O33 O 0.28962 0.17464 0.60566 0.0
C34 C 0.24694 0.19527 0.6037 0.0
C35 C 0.43758 0.11702 0.61996 0.0
C36 C 0.42967 0.31822 0.62727 0.0
C37 C 0.34198 0.17969 0.69206 0.0
O38 O 0.3882 0.1784 0.68011 0.0
O39 O 0.30319 0.19388 0.67901 0.0
O40 O 0.47385 0.1566 0.63509 0.0
O41 O 0.38676 0.12143 0.61477 0.0
O42 O 0.82305 0.85579 0.91746 0.0
Cd43 Cd 0.74057 0.79544 0.91099 0.0
Cd44 Cd 0.71187 0.89123 0.90343 0.0
O45 O 0.7947 0.93268 0.91976 0.0
O46 O 0.73872 0.72464 0.9321 0.0
O47 O 0.68511 0.77956 0.94268 0.0
C48 C 0.70333 0.73682 0.94889 0.0
C49 C 0.63336 0.9196 0.91756 0.0
C50 C 0.83479 0.91006 0.922 0.0
C51 C 0.70824 0.81396 0.8543 0.0
O52 O 0.7074 0.86276 0.86334 0.0
O53 O 0.71622 0.7764 0.87061 0.0
O54 O 0.67551 0.95357 0.90286 0.0
O55 O 0.63627 0.86955 0.92491 0.0
O56 O 0.63825 0.67709 0.63302 0.0
Cd57 Cd 0.69732 0.76002 0.63854 0.0
Cd58 Cd 0.59971 0.7899 0.63959 0.0
O59 O 0.56071 0.70402 0.62674 0.0
O60 O 0.77047 0.76477 0.61839 0.0
O61 O 0.71086 0.81255 0.60599 0.0
C62 C 0.75602 0.79726 0.60072 0.0
C63 C 0.57088 0.86415 0.62038 0.0
C64 C 0.58403 0.66433 0.62713 0.0
C65 C 0.67234 0.8033 0.69176 0.0
O66 O 0.62549 0.8043 0.68012 0.0
O67 O 0.71084 0.78954 0.67843 0.0
O68 O 0.53591 0.82433 0.63583 0.0
O69 O 0.62179 0.86062 0.61483 0.0
O70 O 0.19288 0.12394 0.91761 0.0
Cd71 Cd 0.27519 0.18446 0.91112 0.0
Cd72 Cd 0.304 0.08874 0.90355 0.0
O73 O 0.22129 0.04703 0.91973 0.0
O74 O 0.27647 0.25541 0.93173 0.0
O75 O 0.33091 0.20147 0.94292 0.0
C76 C 0.31226 0.24404 0.94873 0.0
C77 C 0.38264 0.06028 0.91774 0.0
C78 C 0.18122 0.06961 0.92204 0.0
C79 C 0.30721 0.16643 0.8545 0.0
O80 O 0.30828 0.1176 0.86349 0.0
O81 O 0.29911 0.2037 0.87081 0.0
O82 O 0.34036 0.02644 0.90298 0.0
O83 O 0.37975 0.11023 0.92515 0.0
O84 O 0.86488 0.79484 0.1356 0.0
Cd85 Cd 0.82215 0.70539 0.13809 0.0
Cd86 Cd 0.93043 0.70819 0.14719 0.0
O87 O 0.95393 0.79083 0.13039 0.0
O88 O 0.74876 0.68929 0.11579 0.0
O89 O 0.82301 0.66041 0.10403 0.0
C90 C 0.773 0.66579 0.09787 0.0
C91 C 0.97002 0.63836 0.1324 0.0
C92 C 0.9192 0.82005 0.13019 0.0
C93 C 0.84723 0.67784 0.19443 0.0
O94 O 0.90083 0.69942 0.18707 0.0
O95 O 0.80596 0.66841 0.17684 0.0
O96 O 1.00124 0.68347 0.14633 0.0
O97 O 0.91675 0.634 0.12596 0.0
O98 O 0.31373 0.33979 0.41308 0.0
Cd99 Cd 0.2245 0.2931 0.41078 0.0
Cd100 Cd 0.22272 0.39918 0.40413 0.0
O101 O 0.30607 0.42594 0.42122 0.0
O102 O 0.21665 0.2166 0.42841 0.0
O103 O 0.18091 0.28096 0.44638 0.0
C104 C 0.19193 0.23272 0.44878 0.0
C105 C 0.14306 0.42274 0.42034 0.0
C106 C 0.33737 0.39327 0.41987 0.0
C107 C 0.1952 0.32199 0.35535 0.0
O108 O 0.21685 0.37469 0.36356 0.0
O109 O 0.18584 0.27982 0.37226 0.0
O110 O 0.18643 0.46133 0.40797 0.0
O111 O 0.1467 0.37165 0.4249 0.0
H112 H 0.3296 0.28572 0.0748 0.0
H113 H 0.20551 0.37217 0.05467 0.0
H114 H 0.22607 0.36692 1.00605 0.0
H115 H 0.26486 0.32154 0.96953 0.0
H116 H 0.38303 0.22832 0.98971 0.0
H117 H 0.38017 0.25353 0.03792 0.0
C118 C 0.30822 0.30487 0.05984 0.0
C119 C 0.26532 0.32842 0.06835 0.0
C120 C 0.31862 0.29974 0.03184 0.0
C121 C 0.23825 0.35323 0.04868 0.0
C122 C 0.24977 0.34997 1.02083 0.0
C123 C 0.29124 0.30797 0.98434 0.0
C124 C 0.32326 0.27216 0.97606 0.0
C125 C 0.28767 0.32078 1.01216 0.0
C126 C 0.3575 0.2554 0.99553 0.0
C127 C 0.35562 0.26953 1.02316 0.0
H128 H 0.76185 0.5897 0.31377 0.0
H129 H 0.90915 0.74404 0.33473 0.0
H130 H 0.93049 0.76531 0.28605 0.0
H131 H 0.90789 0.73892 0.23762 0.0
H132 H 0.75542 0.58952 0.21666 0.0
H133 H 0.73512 0.56724 0.26534 0.0
C134 C 0.79865 0.62795 0.30762 0.0
C135 C 0.83437 0.66496 0.32769 0.0
C136 C 0.80957 0.64064 0.27969 0.0
C137 C 0.88118 0.71497 0.31958 0.0
C138 C 0.89342 0.72701 0.2918 0.0
C139 C 0.87027 0.70145 0.24377 0.0
C140 C 0.83351 0.66543 0.2237 0.0
C141 C 0.85808 0.68997 0.2717 0.0
C142 C 0.78427 0.61772 0.23181 0.0
C143 C 0.7728 0.60496 0.25959 0.0
H144 H 0.25231 0.1329 0.55804 0.0
H145 H 0.16646 0.24748 0.59098 0.0
H146 H 0.13231 0.2615 0.54536 0.0
H147 H 0.14284 0.25592 0.49554 0.0
H148 H 0.23006 0.14265 0.46251 0.0
H149 H 0.24635 0.11261 0.50861 0.0
C150 C 0.22481 0.15969 0.55536 0.0
C151 C 0.21318 0.19011 0.57784 0.0
C152 C 0.2061 0.16849 0.52892 0.0
C153 C 0.17678 0.22404 0.57403 0.0
C154 C 0.15743 0.23241 0.54787 0.0
C155 C 0.16401 0.22348 0.49838 0.0
C156 C 0.18635 0.20265 0.4756 0.0
C157 C 0.17428 0.20714 0.52503 0.0
C158 C 0.21296 0.15999 0.47965 0.0
C159 C 0.22267 0.14299 0.50608 0.0
H160 H 0.66889 0.87229 0.81571 0.0
H161 H 0.73826 0.73161 0.82568 0.0
H162 H 0.73751 0.71876 0.77601 0.0
H163 H 0.71695 0.74766 0.72958 0.0
H164 H 0.6415 0.88386 0.72026 0.0
H165 H 0.64576 0.89907 0.7698 0.0
C166 C 0.68372 0.83868 0.80705 0.0
C167 C 0.70368 0.80304 0.82441 0.0
C168 C 0.68271 0.83123 0.77855 0.0
C169 C 0.72233 0.75943 0.81282 0.0
C170 C 0.72228 0.7523 0.7844 0.0
C171 C 0.7022 0.78111 0.73846 0.0
C172 C 0.67966 0.81516 0.7214 0.0
C173 C 0.70284 0.78815 0.76705 0.0
C174 C 0.65931 0.85742 0.73307 0.0
C175 C 0.66154 0.86595 0.76136 0.0
H176 H 0.25524 0.38578 0.31272 0.0
H177 H 0.10692 0.23141 0.33232 0.0
H178 H 0.08421 0.21362 0.28352 0.0
H179 H 0.10638 0.24252 0.2354 0.0
H180 H 0.25982 0.39172 0.2156 0.0
H181 H 0.28101 0.41117 0.26445 0.0
C182 C 0.21789 0.34834 0.30624 0.0
C183 C 0.18236 0.31023 0.32597 0.0
C184 C 0.20619 0.33758 0.27821 0.0
C185 C 0.13478 0.26127 0.31743 0.0
C186 C 0.12176 0.25121 0.28959 0.0
C187 C 0.14436 0.27938 0.24184 0.0
C188 C 0.18118 0.31611 0.22206 0.0
C189 C 0.15707 0.28918 0.26983 0.0
C190 C 0.23089 0.363 0.23053 0.0
C191 C 0.24289 0.37414 0.25841 0.0
H192 H 0.83704 0.75361 0.58022 0.0
H193 H 0.7361 0.86405 0.55926 0.0
H194 H 0.76113 0.86067 0.51108 0.0
H195 H 0.79587 0.81155 0.4745 0.0
H196 H 0.89085 0.6956 0.49541 0.0
H197 H 0.88495 0.71685 0.5439 0.0
C198 C 0.82178 0.77825 0.56524 0.0
C199 C 0.78387 0.80818 0.57331 0.0
C200 C 0.83465 0.77445 0.53742 0.0
C201 C 0.76483 0.84013 0.55361 0.0
C202 C 0.77888 0.83796 0.52599 0.0
C203 C 0.81672 0.79215 0.48959 0.0
C204 C 0.84288 0.75126 0.48134 0.0
C205 C 0.81136 0.80298 0.51754 0.0
C206 C 0.86986 0.72674 0.50119 0.0
C207 C 0.86625 0.73864 0.52897 0.0
H208 H 0.29694 0.23397 0.72993 0.0
H209 H 0.37529 0.10012 0.7205 0.0
H210 H 0.37168 0.08434 0.77003 0.0
H211 H 0.3479 0.10975 0.81595 0.0
H212 H 0.27559 0.24817 0.82594 0.0
H213 H 0.27606 0.26173 0.77632 0.0
C214 C 0.31253 0.20093 0.73878 0.0
C215 C 0.33565 0.1677 0.7217 0.0
C216 C 0.31219 0.19354 0.76735 0.0
C217 C 0.35704 0.12596 0.73334 0.0
C218 C 0.35517 0.11707 0.76161 0.0
C219 C 0.33239 0.14302 0.8073 0.0
C220 C 0.31165 0.1778 0.82464 0.0
C221 C 0.33327 0.15092 0.77882 0.0
C222 C 0.29213 0.22102 0.81308 0.0
C223 C 0.29202 0.22856 0.78469 0.0
H224 H 0.68543 0.69774 0.07525 0.0
H225 H 0.80921 0.61044 0.05663 0.0
H226 H 0.78914 0.61504 1.00783 0.0
H227 H 0.75066 0.65979 0.97068 0.0
H228 H 0.6327 0.75373 0.98932 0.0
H229 H 0.63532 0.72953 0.03775 0.0
C230 C 0.70684 0.67826 0.06058 0.0
C231 C 0.74949 0.65462 0.06958 0.0
C232 C 0.6967 0.68299 0.03246 0.0
C233 C 0.77666 0.62945 0.05027 0.0
C234 C 0.76541 0.63233 1.02231 0.0
C235 C 0.72427 0.67373 0.9852 0.0
C236 C 0.69234 0.70941 0.97641 0.0
C237 C 0.72769 0.66148 1.01316 0.0
C238 C 0.65814 0.72671 0.99553 0.0
C239 C 0.65988 0.71316 1.02329 0.0
H240 H 0.9794 0.09338 0.12392 0.0
H241 H 0.15663 0.08873 0.12413 0.0
H242 H 0.11787 0.98193 0.12234 0.0
H243 H 0.03394 0.88989 0.12448 0.0
H244 H 0.85674 0.89457 0.12575 0.0
H245 H 0.89537 0.00128 0.12297 0.0
C246 C 0.00961 0.0691 0.12325 0.0
C247 C 0.07082 0.09911 0.12441 0.0
C248 C 0.98707 0.00761 0.12266 0.0
C249 C 0.10928 0.06682 0.12347 0.0
C250 C 0.08718 0.00568 0.12248 0.0
C251 C 1.00368 0.91415 0.12385 0.0
C252 C 0.94255 0.88419 0.12559 0.0
C253 C 0.02617 0.9756 0.12266 0.0
C254 C 0.90404 0.91644 0.12466 0.0
C255 C 0.92607 0.97754 0.12309 0.0
H256 H 0.13074 0.52888 0.42758 0.0
H257 H 0.03214 0.34348 0.42574 0.0
H258 H 0.93963 0.36344 0.42732 0.0
H259 H 0.88684 0.43408 0.42434 0.0
H260 H 0.9856 0.61933 0.42838 0.0
H261 H 0.07774 0.59898 0.43113 0.0
C262 C 0.08899 0.49287 0.42798 0.0
C263 C 0.08826 0.43485 0.42624 0.0
C264 C 0.03594 0.50466 0.42907 0.0
C265 C 0.03391 0.38856 0.42709 0.0
C266 C 0.98094 0.39995 0.42781 0.0
C267 C 0.9285 0.4699 0.42623 0.0
C268 C 0.92943 0.52811 0.42582 0.0
C269 C 0.98141 0.45787 0.42806 0.0
C270 C 0.98365 0.5741 0.42863 0.0
C271 C 0.03644 0.56253 0.43006 0.0
H272 H 0.39331 0.41168 0.62153 0.0
H273 H 0.54984 0.36379 0.62293 0.0
H274 H 0.61153 0.46711 0.62085 0.0
H275 H 0.62088 0.57082 0.62253 0.0
H276 H 0.46414 0.61846 0.62162 0.0
H277 H 0.40269 0.5152 0.61937 0.0
C278 C 0.44092 0.42374 0.62115 0.0
C279 C 0.4669 0.38007 0.62273 0.0
C280 C 0.47609 0.48314 0.62018 0.0
C281 C 0.52865 0.39649 0.62186 0.0
C282 C 0.56399 0.45559 0.62076 0.0
C283 C 0.57329 0.55872 0.6216 0.0
C284 C 0.54718 0.60235 0.62259 0.0
C285 C 0.53816 0.49926 0.62053 0.0
C286 C 0.48545 0.58583 0.62103 0.0
C287 C 0.45022 0.52676 0.61983 0.0
H288 H 0.63003 0.02921 0.92367 0.0
H289 H 0.52015 0.84687 0.9248 0.0
H290 H 0.43186 0.8745 0.92712 0.0
H291 H 0.38607 0.95065 0.92378 0.0
H292 H 0.49595 0.13298 0.92499 0.0
H293 H 0.58429 0.10534 0.92717 0.0
C294 C 0.58674 -0.0044 0.92485 0.0
C295 C 0.58136 0.93615 0.92371 0.0
C296 C 0.53634 0.01183 0.92644 0.0
C297 C 0.52526 0.89293 0.92565 0.0
C298 C 0.47481 0.9087 0.92681 0.0
C299 C 0.42938 0.98425 0.92496 0.0
C300 C 0.43473 0.04371 0.92387 0.0
C301 C 0.47981 0.96801 0.92645 0.0
C302 C 0.49086 0.08692 0.9258 0.0
C303 C 0.54134 0.07114 0.92687 0.0
H304 H 0.90715 0.52347 0.12427 0.0
H305 H 0.08499 0.64669 0.12756 0.0
H306 H 0.12388 0.56643 0.12351 0.0
H307 H 0.10723 0.46075 0.12402 0.0
H308 H 0.92936 0.3374 0.12557 0.0
H309 H 0.89051 0.41789 0.12244 0.0
C310 C 0.9544 0.53276 0.12357 0.0
C311 C 0.99318 0.59083 0.12619 0.0
C312 C 0.97639 0.48623 0.12233 0.0
C313 C 0.05429 0.60226 0.12565 0.0
C314 C 0.07654 0.5564 0.12339 0.0
C315 C 0.05999 0.45152 0.12312 0.0
C316 C 0.02117 0.39332 0.12499 0.0
C317 C 0.03801 0.49812 0.12244 0.0
C318 C 0.96007 0.38193 0.12423 0.0
C319 C 0.93785 0.42792 0.1225 0.0
H320 H 0.40589 0.50799 0.42639 0.0
H321 H 0.4144 0.33343 0.42307 0.0
H322 H 0.52168 0.3736 0.42551 0.0
H323 H 0.61338 0.45838 0.42492 0.0
H324 H 0.60502 0.63308 0.42691 0.0
H325 H 0.49769 0.59266 0.4289 0.0
C326 C 0.43114 0.47867 0.42653 0.0
C327 C 0.40201 0.41782 0.4243 0.0
C328 C 0.49304 0.50207 0.42753 0.0
C329 C 0.43557 0.38051 0.42454 0.0
C330 C 0.49703 0.40342 0.42591 0.0
C331 C 0.58817 0.48765 0.42612 0.0
C332 C 0.61735 0.54868 0.42552 0.0
C333 C 0.52629 0.46417 0.42685 0.0
C334 C 0.58382 0.5859 0.42713 0.0
C335 C 0.52233 0.56284 0.42824 0.0
H336 H 0.54591 0.11134 0.61049 0.0
H337 H 0.36131 0.00598 0.61198 0.0
H338 H 0.38632 0.91671 0.60913 0.0
H339 H 0.46126 0.86907 0.61299 0.0
H340 H 0.64575 0.97457 0.60989 0.0
H341 H 0.62029 0.06343 0.60616 0.0
C342 C 0.51119 0.06883 0.60957 0.0
C343 C 0.45195 0.06503 0.61183 0.0
C344 C 0.52592 0.01782 0.60791 0.0
C345 C 0.40724 0.00991 0.61027 0.0
C346 C 0.42155 0.95887 0.60886 0.0
C347 C 0.49578 0.91148 0.61092 0.0
C348 C 0.55525 0.91549 0.61214 0.0
C349 C 0.48079 0.96231 0.60871 0.0
C350 C 0.59964 0.97045 0.60905 0.0
C351 C 0.58512 0.02129 0.60711 0.0
H352 H 0.93004 0.87581 0.92842 0.0
H353 H 0.87813 0.02923 0.92793 0.0
H354 H 0.98134 0.09219 0.93076 0.0
H355 H 0.08606 0.10377 0.92858 0.0
H356 H 0.13796 0.95036 0.92777 0.0
H357 H 0.03478 0.88736 0.93055 0.0
C358 C 0.94116 0.923 0.92924 0.0
C359 C 0.8964 0.94773 0.92756 0.0
C360 C 1.00059 0.95899 0.93046 0.0
C361 C 0.91167 0.00897 0.92898 0.0
C362 C 0.97072 0.04507 0.93052 0.0
C363 C 0.07495 0.05657 0.92932 0.0
C364 C 0.11969 0.03186 0.92756 0.0
C365 C 0.01554 0.02056 0.93051 0.0
C366 C 0.10443 0.97061 0.92887 0.0
C367 C 0.0454 0.93449 0.93039 0.0
loop_
_geom_bond_atom_site_label_1
_geom_bond_atom_site_label_2
_geom_bond_distance
_geom_bond_site_symmetry_2
_ccdc_geom_bond_type
O0 Cd1 2.223 . S
O0 C8 1.315 . S
Cd1 O0 2.223 . S
Cd1 O4 2.297 . S
Cd1 O5 2.439 . S
Cd1 O11 2.240 . S
Cd2 O3 2.240 . S
Cd2 O10 2.223 . S
Cd2 O12 2.297 . S
Cd2 O13 2.439 . S
O3 Cd2 2.240 . S
O3 C8 1.279 . S
O4 Cd1 2.297 . S
O4 C6 1.247 . S
O5 Cd1 2.439 . S
O5 C6 1.208 . S
C6 O4 1.247 . S
C6 O5 1.208 . S
C7 O12 1.247 . S
C7 O13 1.208 . S
C8 O0 1.315 . S
C8 O3 1.279 . S
C9 O10 1.315 . S
C9 O11 1.279 . S
O10 Cd2 2.223 . S
O10 C9 1.315 . S
O11 Cd1 2.240 . S
O11 C9 1.279 . S
O12 Cd2 2.297 . S
O12 C7 1.247 . S
O13 Cd2 2.439 . S
O13 C7 1.208 . S
O14 Cd15 2.223 . S
O14 C22 1.315 . S
Cd15 O14 2.223 . S
Cd15 O18 2.297 . S
Cd15 O19 2.439 . S
Cd15 O25 2.240 . S
Cd16 O17 2.240 . S
Cd16 O24 2.223 . S
Cd16 O26 2.297 . S
Cd16 O27 2.439 . S
O17 Cd16 2.240 . S
O17 C22 1.279 . S
O18 Cd15 2.297 . S
O18 C20 1.247 . S
O19 Cd15 2.439 . S
O19 C20 1.208 . S
C20 O18 1.247 . S
C20 O19 1.208 . S
C21 O26 1.247 . S
C21 O27 1.208 . S
C22 O14 1.315 . S
C22 O17 1.279 . S
C23 O24 1.315 . S
C23 O25 1.279 . S
O24 Cd16 2.223 . S
O24 C23 1.315 . S
O25 Cd15 2.240 . S
O25 C23 1.279 . S
O26 Cd16 2.297 . S
O26 C21 1.247 . S
O27 Cd16 2.439 . S
O27 C21 1.208 . S
O28 Cd29 2.223 . S
O28 C36 1.315 . S
Cd29 O28 2.223 . S
Cd29 O32 2.297 . S
Cd29 O33 2.439 . S
Cd29 O39 2.240 . S
Cd30 O31 2.240 . S
Cd30 O38 2.223 . S
Cd30 O40 2.297 . S
Cd30 O41 2.439 . S
O31 Cd30 2.240 . S
O31 C36 1.279 . S
O32 Cd29 2.297 . S
O32 C34 1.247 . S
O33 Cd29 2.439 . S
O33 C34 1.208 . S
C34 O32 1.247 . S
C34 O33 1.208 . S
C35 O40 1.247 . S
C35 O41 1.208 . S
C36 O28 1.315 . S
C36 O31 1.279 . S
C37 O38 1.315 . S
C37 O39 1.279 . S
O38 Cd30 2.223 . S
O38 C37 1.315 . S
O39 Cd29 2.240 . S
O39 C37 1.279 . S
O40 Cd30 2.297 . S
O40 C35 1.247 . S
O41 Cd30 2.439 . S
O41 C35 1.208 . S
O42 Cd43 2.223 . S
O42 C50 1.315 . S
Cd43 O42 2.223 . S
Cd43 O46 2.297 . S
Cd43 O47 2.439 . S
Cd43 O53 2.240 . S
Cd44 O45 2.240 . S
Cd44 O52 2.223 . S
Cd44 O54 2.297 . S
Cd44 O55 2.439 . S
O45 Cd44 2.240 . S
O45 C50 1.279 . S
O46 Cd43 2.297 . S
O46 C48 1.247 . S
O47 Cd43 2.439 . S
O47 C48 1.208 . S
C48 O46 1.247 . S
C48 O47 1.208 . S
C49 O54 1.247 . S
C49 O55 1.208 . S
C50 O42 1.315 . S
C50 O45 1.279 . S
C51 O52 1.315 . S
C51 O53 1.279 . S
O52 Cd44 2.223 . S
O52 C51 1.315 . S
O53 Cd43 2.240 . S
O53 C51 1.279 . S
O54 Cd44 2.297 . S
O54 C49 1.247 . S
O55 Cd44 2.439 . S
O55 C49 1.208 . S
O56 Cd57 2.223 . S
O56 C64 1.315 . S
Cd57 O56 2.223 . S
Cd57 O60 2.297 . S
Cd57 O61 2.439 . S
Cd57 O67 2.240 . S
Cd58 O59 2.240 . S
Cd58 O66 2.223 . S
Cd58 O68 2.297 . S
Cd58 O69 2.439 . S
O59 Cd58 2.240 . S
O59 C64 1.279 . S
O60 Cd57 2.297 . S
O60 C62 1.247 . S
O61 Cd57 2.439 . S
O61 C62 1.208 . S
C62 O60 1.247 . S
C62 O61 1.208 . S
C63 O68 1.247 . S
C63 O69 1.208 . S
C64 O56 1.315 . S
C64 O59 1.279 . S
C65 O66 1.315 . S
C65 O67 1.279 . S
O66 Cd58 2.223 . S
O66 C65 1.315 . S
O67 Cd57 2.240 . S
O67 C65 1.279 . S
O68 Cd58 2.297 . S
O68 C63 1.247 . S
O69 Cd58 2.439 . S
O69 C63 1.208 . S
O70 Cd71 2.223 . S
O70 C78 1.315 . S
Cd71 O70 2.223 . S
Cd71 O74 2.297 . S
Cd71 O75 2.439 . S
Cd71 O81 2.240 . S
Cd72 O73 2.240 . S
Cd72 O80 2.223 . S
Cd72 O82 2.297 . S
Cd72 O83 2.439 . S
O73 Cd72 2.240 . S
O73 C78 1.279 . S
O74 Cd71 2.297 . S
O74 C76 1.247 . S
O75 Cd71 2.439 . S
O75 C76 1.208 . S
C76 O74 1.247 . S
C76 O75 1.208 . S
C77 O82 1.247 . S
C77 O83 1.208 . S
C78 O70 1.315 . S
C78 O73 1.279 . S
C79 O80 1.315 . S
C79 O81 1.279 . S
O80 Cd72 2.223 . S
O80 C79 1.315 . S
O81 Cd71 2.240 . S
O81 C79 1.279 . S
O82 Cd72 2.297 . S
O82 C77 1.247 . S
O83 Cd72 2.439 . S
O83 C77 1.208 . S
O84 Cd85 2.223 . S
O84 C92 1.315 . S
Cd85 O84 2.223 . S
Cd85 O88 2.297 . S
Cd85 O89 2.439 . S
Cd85 O95 2.240 . S
Cd86 O87 2.240 . S
Cd86 O94 2.223 . S
Cd86 O96 2.297 . S
Cd86 O97 2.439 . S
O87 Cd86 2.240 . S
O87 C92 1.279 . S
O88 Cd85 2.297 . S
O88 C90 1.247 . S
O89 Cd85 2.439 . S
O89 C90 1.208 . S
C90 O88 1.247 . S
C90 O89 1.208 . S
C91 O96 1.247 . S
C91 O97 1.208 . S
C92 O84 1.315 . S
C92 O87 1.279 . S
C93 O94 1.315 . S
C93 O95 1.279 . S
O94 Cd86 2.223 . S
O94 C93 1.315 . S
O95 Cd85 2.240 . S
O95 C93 1.279 . S
O96 Cd86 2.297 . S
O96 C91 1.247 . S
O97 Cd86 2.439 . S
O97 C91 1.208 . S
O98 Cd99 2.223 . S
O98 C106 1.315 . S
Cd99 O98 2.223 . S
Cd99 O102 2.297 . S
Cd99 O103 2.439 . S
Cd99 O109 2.240 . S
Cd100 O101 2.240 . S
Cd100 O108 2.223 . S
Cd100 O110 2.297 . S
Cd100 O111 2.439 . S
O101 Cd100 2.240 . S
O101 C106 1.279 . S
O102 Cd99 2.297 . S
O102 C104 1.247 . S
O103 Cd99 2.439 . S
O103 C104 1.208 . S
C104 O102 1.247 . S
C104 O103 1.208 . S
C105 O110 1.247 . S
C105 O111 1.208 . S
C106 O98 1.315 . S
C106 O101 1.279 . S
C107 O108 1.315 . S
C107 O109 1.279 . S
O108 Cd100 2.223 . S
O108 C107 1.315 . S
O109 Cd99 2.240 . S
O109 C107 1.279 . S
O110 Cd100 2.297 . S
O110 C105 1.247 . S
O111 Cd100 2.439 . S
O111 C105 1.208 . S
H112 C118 0.930 . S
H113 C121 0.930 . S
H114 C122 0.930 1_556 S
H115 C123 0.930 . S
H116 C126 0.930 . S
H117 C127 0.930 1_554 S
C118 H112 0.930 . S
C118 C119 1.355 . S
C118 C120 1.415 . S
C119 C118 1.355 . S
C119 C121 1.419 . S
C120 C118 1.415 . S
C120 C125 1.425 1_554 S
C120 C127 1.409 1_554 S
C121 H113 0.930 . S
C121 C119 1.419 . S
C121 C122 1.362 . S
C122 H114 0.930 1_554 S
C122 C121 1.362 . S
C122 C125 1.409 1_554 S
C123 H115 0.930 . S
C123 C124 1.355 . S
C123 C125 1.415 . S
C124 C123 1.355 . S
C124 C126 1.419 . S
C125 C120 1.425 1_556 S
C125 C122 1.409 1_556 S
C125 C123 1.415 . S
C126 H116 0.930 . S
C126 C124 1.419 . S
C126 C127 1.362 . S
C127 H117 0.930 1_556 S
C127 C120 1.409 1_556 S
C127 C126 1.362 . S
H128 C134 0.930 . S
H129 C137 0.930 . S
H130 C138 0.930 . S
H131 C139 0.930 . S
H132 C142 0.930 . S
H133 C143 0.930 . S
C134 H128 0.930 . S
C134 C135 1.355 . S
C134 C136 1.415 . S
C135 C134 1.355 . S
C135 C137 1.419 . S
C136 C134 1.415 . S
C136 C141 1.425 . S
C136 C143 1.409 . S
C137 H129 0.930 . S
C137 C135 1.419 . S
C137 C138 1.362 . S
C138 H130 0.930 . S
C138 C137 1.362 . S
C138 C141 1.409 . S
C139 H131 0.930 . S
C139 C140 1.355 . S
C139 C141 1.415 . S
C140 C139 1.355 . S
C140 C142 1.419 . S
C141 C136 1.425 . S
C141 C138 1.409 . S
C141 C139 1.415 . S
C142 H132 0.930 . S
C142 C140 1.419 . S
C142 C143 1.362 . S
C143 H133 0.930 . S
C143 C136 1.409 . S
C143 C142 1.362 . S
H144 C150 0.930 . S
H145 C153 0.930 . S
H146 C154 0.930 . S
H147 C155 0.930 . S
H148 C158 0.930 . S
H149 C159 0.930 . S
C150 H144 0.930 . S
C150 C151 1.355 . S
C150 C152 1.415 . S
C151 C150 1.355 . S
C151 C153 1.419 . S
C152 C150 1.415 . S
C152 C157 1.425 . S
C152 C159 1.409 . S
C153 H145 0.930 . S
C153 C151 1.419 . S
C153 C154 1.362 . S
C154 H146 0.930 . S
C154 C153 1.362 . S
C154 C157 1.409 . S
C155 H147 0.930 . S
C155 C156 1.355 . S
C155 C157 1.415 . S
C156 C155 1.355 . S
C156 C158 1.419 . S
C157 C152 1.425 . S
C157 C154 1.409 . S
C157 C155 1.415 . S
C158 H148 0.930 . S
C158 C156 1.419 . S
C158 C159 1.362 . S
C159 H149 0.930 . S
C159 C152 1.409 . S
C159 C158 1.362 . S
H160 C166 0.930 . S
H161 C169 0.930 . S
H162 C170 0.930 . S
H163 C171 0.930 . S
H164 C174 0.930 . S
H165 C175 0.930 . S
C166 H160 0.930 . S
C166 C167 1.355 . S
C166 C168 1.415 . S
C167 C166 1.355 . S
C167 C169 1.419 . S
C168 C166 1.415 . S
C168 C173 1.425 . S
C168 C175 1.409 . S
C169 H161 0.930 . S
C169 C167 1.419 . S
C169 C170 1.362 . S
C170 H162 0.930 . S
C170 C169 1.362 . S
C170 C173 1.409 . S
C171 H163 0.930 . S
C171 C172 1.355 . S
C171 C173 1.415 . S
C172 C171 1.355 . S
C172 C174 1.419 . S
C173 C168 1.425 . S
C173 C170 1.409 . S
C173 C171 1.415 . S
C174 H164 0.930 . S
C174 C172 1.419 . S
C174 C175 1.362 . S
C175 H165 0.930 . S
C175 C168 1.409 . S
C175 C174 1.362 . S
H176 C182 0.930 . S
H177 C185 0.930 . S
H178 C186 0.930 . S
H179 C187 0.930 . S
H180 C190 0.930 . S
H181 C191 0.930 . S
C182 H176 0.930 . S
C182 C183 1.355 . S
C182 C184 1.415 . S
C183 C182 1.355 . S
C183 C185 1.419 . S
C184 C182 1.415 . S
C184 C189 1.425 . S
C184 C191 1.409 . S
C185 H177 0.930 . S
C185 C183 1.419 . S
C185 C186 1.362 . S
C186 H178 0.930 . S
C186 C185 1.362 . S
C186 C189 1.409 . S
C187 H179 0.930 . S
C187 C188 1.355 . S
C187 C189 1.415 . S
C188 C187 1.355 . S
C188 C190 1.419 . S
C189 C184 1.425 . S
C189 C186 1.409 . S
C189 C187 1.415 . S
C190 H180 0.930 . S
C190 C188 1.419 . S
C190 C191 1.362 . S
C191 H181 0.930 . S
C191 C184 1.409 . S
C191 C190 1.362 . S
H192 C198 0.930 . S
H193 C201 0.930 . S
H194 C202 0.930 . S
H195 C203 0.930 . S
H196 C206 0.930 . S
H197 C207 0.930 . S
C198 H192 0.930 . S
C198 C199 1.355 . S
C198 C200 1.415 . S
C199 C198 1.355 . S
C199 C201 1.419 . S
C200 C198 1.415 . S
C200 C205 1.425 . S
C200 C207 1.409 . S
C201 H193 0.930 . S
C201 C199 1.419 . S
C201 C202 1.362 . S
C202 H194 0.930 . S
C202 C201 1.362 . S
C202 C205 1.409 . S
C203 H195 0.930 . S
C203 C204 1.355 . S
C203 C205 1.415 . S
C204 C203 1.355 . S
C204 C206 1.419 . S
C205 C200 1.425 . S
C205 C202 1.409 . S
C205 C203 1.415 . S
C206 H196 0.930 . S
C206 C204 1.419 . S
C206 C207 1.362 . S
C207 H197 0.930 . S
C207 C200 1.409 . S
C207 C206 1.362 . S
H208 C214 0.930 . S
H209 C217 0.930 . S
H210 C218 0.930 . S
H211 C219 0.930 . S
H212 C222 0.930 . S
H213 C223 0.930 . S
C214 H208 0.930 . S
C214 C215 1.355 . S
C214 C216 1.415 . S
C215 C214 1.355 . S
C215 C217 1.419 . S
C216 C214 1.415 . S
C216 C221 1.425 . S
C216 C223 1.409 . S
C217 H209 0.930 . S
C217 C215 1.419 . S
C217 C218 1.362 . S
C218 H210 0.930 . S
C218 C217 1.362 . S
C218 C221 1.409 . S
C219 H211 0.930 . S
C219 C220 1.355 . S
C219 C221 1.415 . S
C220 C219 1.355 . S
C220 C222 1.419 . S
C221 C216 1.425 . S
C221 C218 1.409 . S
C221 C219 1.415 . S
C222 H212 0.930 . S
C222 C220 1.419 . S
C222 C223 1.362 . S
C223 H213 0.930 . S
C223 C216 1.409 . S
C223 C222 1.362 . S
H224 C230 0.930 . S
H225 C233 0.930 . S
H226 C234 0.930 1_556 S
H227 C235 0.930 . S
H228 C238 0.930 . S
H229 C239 0.930 1_554 S
C230 H224 0.930 . S
C230 C231 1.355 . S
C230 C232 1.415 . S
C231 C230 1.355 . S
C231 C233 1.419 . S
C232 C230 1.415 . S
C232 C237 1.425 1_554 S
C232 C239 1.409 1_554 S
C233 H225 0.930 . S
C233 C231 1.419 . S
C233 C234 1.362 . S
C234 H226 0.930 1_554 S
C234 C233 1.362 . S
C234 C237 1.409 1_554 S
C235 H227 0.930 . S
C235 C236 1.355 . S
C235 C237 1.415 . S
C236 C235 1.355 . S
C236 C238 1.419 . S
C237 C232 1.425 1_556 S
C237 C234 1.409 1_556 S
C237 C235 1.415 . S
C238 H228 0.930 . S
C238 C236 1.419 . S
C238 C239 1.362 . S
C239 H229 0.930 1_556 S
C239 C232 1.409 1_556 S
C239 C238 1.362 . S
H240 C246 0.930 . S
H241 C249 0.930 . S
H242 C250 0.930 . S
H243 C251 0.930 . S
H244 C254 0.930 . S
H245 C255 0.930 . S
C246 H240 0.930 . S
C246 C247 1.355 . S
C246 C248 1.415 1_455 S
C247 C246 1.355 . S
C247 C249 1.419 . S
C248 C246 1.415 1_655 S
C248 C253 1.425 1_645 S
C248 C255 1.409 1_545 S
C249 H241 0.930 . S
C249 C247 1.419 . S
C249 C250 1.362 . S
C250 H242 0.930 . S
C250 C249 1.362 . S
C250 C253 1.409 1_545 S
C251 H243 0.930 . S
C251 C252 1.355 . S
C251 C253 1.415 1_655 S
C252 C251 1.355 . S
C252 C254 1.419 . S
C253 C248 1.425 1_465 S
C253 C250 1.409 1_565 S
C253 C251 1.415 1_455 S
C254 H244 0.930 . S
C254 C252 1.419 . S
C254 C255 1.362 . S
C255 H245 0.930 . S
C255 C248 1.409 1_565 S
C255 C254 1.362 . S
H256 C262 0.930 . S
H257 C265 0.930 . S
H258 C266 0.930 . S
H259 C267 0.930 . S
H260 C270 0.930 . S
H261 C271 0.930 . S
C262 H256 0.930 . S
C262 C263 1.355 . S
C262 C264 1.415 . S
C263 C262 1.355 . S
C263 C265 1.419 1_455 S
C264 C262 1.415 . S
C264 C269 1.425 1_455 S
C264 C271 1.409 . S
C265 H257 0.930 . S
C265 C263 1.419 1_655 S
C265 C266 1.362 . S
C266 H258 0.930 . S
C266 C265 1.362 . S
C266 C269 1.409 . S
C267 H259 0.930 . S
C267 C268 1.355 . S
C267 C269 1.415 . S
C268 C267 1.355 . S
C268 C270 1.419 1_655 S
C269 C264 1.425 1_655 S
C269 C266 1.409 . S
C269 C267 1.415 . S
C270 H260 0.930 . S
C270 C268 1.419 1_455 S
C270 C271 1.362 . S
C271 H261 0.930 . S
C271 C264 1.409 . S
C271 C270 1.362 . S
H272 C278 0.930 . S
H273 C281 0.930 . S
H274 C282 0.930 . S
H275 C283 0.930 . S
H276 C286 0.930 . S
H277 C287 0.930 . S
C278 H272 0.930 . S
C278 C279 1.355 . S
C278 C280 1.415 . S
C279 C278 1.355 . S
C279 C281 1.419 . S
C280 C278 1.415 . S
C280 C285 1.425 . S
C280 C287 1.409 . S
C281 H273 0.930 . S
C281 C279 1.419 . S
C281 C282 1.362 . S
C282 H274 0.930 . S
C282 C281 1.362 . S
C282 C285 1.409 . S
C283 H275 0.930 . S
C283 C284 1.355 . S
C283 C285 1.415 . S
C284 C283 1.355 . S
C284 C286 1.419 . S
C285 C280 1.425 . S
C285 C282 1.409 . S
C285 C283 1.415 . S
C286 H276 0.930 . S
C286 C284 1.419 . S
C286 C287 1.362 . S
C287 H277 0.930 . S
C287 C280 1.409 . S
C287 C286 1.362 . S
H288 C294 0.930 1_545 S
H289 C297 0.930 . S
H290 C298 0.930 . S
H291 C299 0.930 1_565 S
H292 C302 0.930 . S
H293 C303 0.930 . S
C294 H288 0.930 1_565 S
C294 C295 1.355 . S
C294 C296 1.415 1_565 S
C295 C294 1.355 . S
C295 C297 1.419 . S
C296 C294 1.415 1_545 S
C296 C301 1.425 1_545 S
C296 C303 1.409 . S
C297 H289 0.930 . S
C297 C295 1.419 . S
C297 C298 1.362 . S
C298 H290 0.930 . S
C298 C297 1.362 . S
C298 C301 1.409 . S
C299 H291 0.930 1_545 S
C299 C300 1.355 . S
C299 C301 1.415 1_545 S
C300 C299 1.355 . S
C300 C302 1.419 . S
C301 C296 1.425 1_565 S
C301 C298 1.409 . S
C301 C299 1.415 1_565 S
C302 H292 0.930 . S
C302 C300 1.419 . S
C302 C303 1.362 . S
C303 H293 0.930 . S
C303 C296 1.409 . S
C303 C302 1.362 . S
H304 C310 0.930 . S
H305 C313 0.930 . S
H306 C314 0.930 . S
H307 C315 0.930 . S
H308 C318 0.930 . S
H309 C319 0.930 . S
C310 H304 0.930 . S
C310 C311 1.355 . S
C310 C312 1.415 . S
C311 C310 1.355 . S
C311 C313 1.419 . S
C312 C310 1.415 . S
C312 C317 1.425 1_655 S
C312 C319 1.409 . S
C313 H305 0.930 . S
C313 C311 1.419 . S
C313 C314 1.362 1_655 S
C314 H306 0.930 . S
C314 C313 1.362 1_455 S
C314 C317 1.409 . S
C315 H307 0.930 . S
C315 C316 1.355 . S
C315 C317 1.415 . S
C316 C315 1.355 . S
C316 C318 1.419 . S
C317 C312 1.425 1_455 S
C317 C314 1.409 . S
C317 C315 1.415 . S
C318 H308 0.930 . S
C318 C316 1.419 . S
C318 C319 1.362 1_455 S
C319 H309 0.930 . S
C319 C312 1.409 . S
C319 C318 1.362 1_655 S
H320 C326 0.930 . S
H321 C329 0.930 . S
H322 C330 0.930 . S
H323 C331 0.930 . S
H324 C334 0.930 . S
H325 C335 0.930 . S
C326 H320 0.930 . S
C326 C327 1.355 . S
C326 C328 1.415 . S
C327 C326 1.355 . S
C327 C329 1.419 . S
C328 C326 1.415 . S
C328 C333 1.425 . S
C328 C335 1.409 . S
C329 H321 0.930 . S
C329 C327 1.419 . S
C329 C330 1.362 . S
C330 H322 0.930 . S
C330 C329 1.362 . S
C330 C333 1.409 . S
C331 H323 0.930 . S
C331 C332 1.355 . S
C331 C333 1.415 . S
C332 C331 1.355 . S
C332 C334 1.419 . S
C333 C328 1.425 . S
C333 C330 1.409 . S
C333 C331 1.415 . S
C334 H324 0.930 . S
C334 C332 1.419 . S
C334 C335 1.362 . S
C335 H325 0.930 . S
C335 C328 1.409 . S
C335 C334 1.362 . S
H336 C342 0.930 . S
H337 C345 0.930 . S
H338 C346 0.930 . S
H339 C347 0.930 . S
H340 C350 0.930 . S
H341 C351 0.930 . S
C342 H336 0.930 . S
C342 C343 1.355 . S
C342 C344 1.415 . S
C343 C342 1.355 . S
C343 C345 1.419 1_545 S
C344 C342 1.415 . S
C344 C349 1.425 1_545 S
C344 C351 1.409 . S
C345 H337 0.930 . S
C345 C343 1.419 1_565 S
C345 C346 1.362 . S
C346 H338 0.930 . S
C346 C345 1.362 . S
C346 C349 1.409 . S
C347 H339 0.930 . S
C347 C348 1.355 . S
C347 C349 1.415 . S
C348 C347 1.355 . S
C348 C350 1.419 1_565 S
C349 C344 1.425 1_565 S
C349 C346 1.409 . S
C349 C347 1.415 . S
C350 H340 0.930 . S
C350 C348 1.419 1_545 S
C350 C351 1.362 . S
C351 H341 0.930 . S
C351 C344 1.409 . S
C351 C350 1.362 . S
H352 C358 0.930 . S
H353 C361 0.930 . S
H354 C362 0.930 . S
H355 C363 0.930 . S
H356 C366 0.930 . S
H357 C367 0.930 . S
C358 H352 0.930 . S
C358 C359 1.355 . S
C358 C360 1.415 . S
C359 C358 1.355 . S
C359 C361 1.419 . S
C360 C358 1.415 . S
C360 C365 1.425 1_665 S
C360 C367 1.409 1_655 S
C361 H353 0.930 . S
C361 C359 1.419 . S
C361 C362 1.362 1_565 S
C362 H354 0.930 . S
C362 C361 1.362 1_545 S
C362 C365 1.409 1_655 S
C363 H355 0.930 . S
C363 C364 1.355 . S
C363 C365 1.415 . S
C364 C363 1.355 . S
C364 C366 1.419 . S
C365 C360 1.425 1_445 S
C365 C362 1.409 1_455 S
C365 C363 1.415 . S
C366 H356 0.930 . S
C366 C364 1.419 . S
C366 C367 1.362 1_545 S
C367 H357 0.930 . S
C367 C360 1.409 1_455 S
C367 C366 1.362 1_565 S
C119 C6 1.417 . S
C124 C76 1.405 . S
C135 C23 1.300 . S
C140 C93 1.250 . S
C151 C34 1.396 . S
C156 C104 1.409 . S
C167 C51 1.281 . S
C172 C65 1.212 . S
C183 C107 1.297 . S
C188 C9 1.229 . S
C199 C62 1.421 . S
C204 C20 1.422 . S
C215 C37 1.224 . S
C220 C79 1.230 . S
C231 C90 1.418 . S
C236 C48 1.407 . S
C247 C8 1.558 . S
C252 C92 1.583 . S
C263 C105 1.626 . S
C268 C21 1.614 . S
C279 C36 1.579 . S
C284 C64 1.586 . S
C295 C49 1.621 . S
C300 C77 1.626 . S
C311 C91 1.569 . S
C316 C7 1.593 . S
C327 C106 1.573 . S
C332 C22 1.563 . S
C343 C35 1.625 . S
C348 C63 1.611 . S
C359 C50 1.586 . S
C364 C78 1.580 . S
