# Generated by pormake.
# Topology unn, (4)-cn, num edge types: 1
# Building blocks:
#     Node 0, Type 0, BuildingBlock: QUQFOY_clean_sbu_3, # of connection points: 4
#     Node 1, Type 0, BuildingBlock: QUQFOY_clean_sbu_3, # of connection points: 4
#     Node 2, Type 0, BuildingBlock: QUQFOY_clean_sbu_3, # of connection points: 4
#     Node 3, Type 0, BuildingBlock: QUQFOY_clean_sbu_3, # of connection points: 4
#     Node 4, Type 0, BuildingBlock: QUQFOY_clean_sbu_3, # of connection points: 4
#     Node 5, Type 0, BuildingBlock: QUQFOY_clean_sbu_3, # of connection points: 4
#     Node 6, Type 0, BuildingBlock: QUQFOY_clean_sbu_3, # of connection points: 4
#     Node 7, Type 0, BuildingBlock: QUQFOY_clean_sbu_3, # of connection points: 4
#     Node 8, Type 0, BuildingBlock: QUQFOY_clean_sbu_3, # of connection points: 4
#     Node 9, Type 0, BuildingBlock: QUQFOY_clean_sbu_3, # of connection points: 4
#     Node 10, Type 0, BuildingBlock: QUQFOY_clean_sbu_3, # of connection points: 4
#     Node 11, Type 0, BuildingBlock: QUQFOY_clean_sbu_3, # of connection points: 4
#     Node 12, Type 0, BuildingBlock: QUQFOY_clean_sbu_3, # of connection points: 4
#     Node 13, Type 0, BuildingBlock: QUQFOY_clean_sbu_3, # of connection points: 4
#     Node 14, Type 0, BuildingBlock: QUQFOY_clean_sbu_3, # of connection points: 4
#     Node 15, Type 0, BuildingBlock: QUQFOY_clean_sbu_3, # of connection points: 4
#     Node 16, Type 0, BuildingBlock: QUQFOY_clean_sbu_3, # of connection points: 4
#     Node 17, Type 0, BuildingBlock: QUQFOY_clean_sbu_3, # of connection points: 4
#     Edge 18, Type (0, 0), BuildingBlock: AJUNOK_clean_linker_0, # of connection points: 2
#     Edge 19, Type (0, 0), BuildingBlock: AJUNOK_clean_linker_0, # of connection points: 2
#     Edge 20, Type (0, 0), BuildingBlock: AJUNOK_clean_linker_0, # of connection points: 2
#     Edge 21, Type (0, 0), BuildingBlock: AJUNOK_clean_linker_0, # of connection points: 2
#     Edge 22, Type (0, 0), BuildingBlock: AJUNOK_clean_linker_0, # of connection points: 2
#     Edge 23, Type (0, 0), BuildingBlock: AJUNOK_clean_linker_0, # of connection points: 2
#     Edge 24, Type (0, 0), BuildingBlock: AJUNOK_clean_linker_0, # of connection points: 2
#     Edge 25, Type (0, 0), BuildingBlock: AJUNOK_clean_linker_0, # of connection points: 2
#     Edge 26, Type (0, 0), BuildingBlock: AJUNOK_clean_linker_0, # of connection points: 2
#     Edge 27, Type (0, 0), BuildingBlock: AJUNOK_clean_linker_0, # of connection points: 2
#     Edge 28, Type (0, 0), BuildingBlock: AJUNOK_clean_linker_0, # of connection points: 2
#     Edge 29, Type (0, 0), BuildingBlock: AJUNOK_clean_linker_0, # of connection points: 2
#     Edge 30, Type (0, 0), BuildingBlock: AJUNOK_clean_linker_0, # of connection points: 2
#     Edge 31, Type (0, 0), BuildingBlock: AJUNOK_clean_linker_0, # of connection points: 2
#     Edge 32, Type (0, 0), BuildingBlock: AJUNOK_clean_linker_0, # of connection points: 2
#     Edge 33, Type (0, 0), BuildingBlock: AJUNOK_clean_linker_0, # of connection points: 2
#     Edge 34, Type (0, 0), BuildingBlock: AJUNOK_clean_linker_0, # of connection points: 2
#     Edge 35, Type (0, 0), BuildingBlock: AJUNOK_clean_linker_0, # of connection points: 2
#     Edge 36, Type (0, 0), BuildingBlock: AJUNOK_clean_linker_0, # of connection points: 2
#     Edge 37, Type (0, 0), BuildingBlock: AJUNOK_clean_linker_0, # of connection points: 2
#     Edge 38, Type (0, 0), BuildingBlock: AJUNOK_clean_linker_0, # of connection points: 2
#     Edge 39, Type (0, 0), BuildingBlock: AJUNOK_clean_linker_0, # of connection points: 2
#     Edge 40, Type (0, 0), BuildingBlock: AJUNOK_clean_linker_0, # of connection points: 2
#     Edge 41, Type (0, 0), BuildingBlock: AJUNOK_clean_linker_0, # of connection points: 2
#     Edge 42, Type (0, 0), BuildingBlock: AJUNOK_clean_linker_0, # of connection points: 2
#     Edge 43, Type (0, 0), BuildingBlock: AJUNOK_clean_linker_0, # of connection points: 2
#     Edge 44, Type (0, 0), BuildingBlock: AJUNOK_clean_linker_0, # of connection points: 2
#     Edge 45, Type (0, 0), BuildingBlock: AJUNOK_clean_linker_0, # of connection points: 2
#     Edge 46, Type (0, 0), BuildingBlock: AJUNOK_clean_linker_0, # of connection points: 2
#     Edge 47, Type (0, 0), BuildingBlock: AJUNOK_clean_linker_0, # of connection points: 2
#     Edge 48, Type (0, 0), BuildingBlock: AJUNOK_clean_linker_0, # of connection points: 2
#     Edge 49, Type (0, 0), BuildingBlock: AJUNOK_clean_linker_0, # of connection points: 2
#     Edge 50, Type (0, 0), BuildingBlock: AJUNOK_clean_linker_0, # of connection points: 2
#     Edge 51, Type (0, 0), BuildingBlock: AJUNOK_clean_linker_0, # of connection points: 2
#     Edge 52, Type (0, 0), BuildingBlock: AJUNOK_clean_linker_0, # of connection points: 2
#     Edge 53, Type (0, 0), BuildingBlock: AJUNOK_clean_linker_0, # of connection points: 2
# Relax obj value: 0.157
# Max RMSD: 0.261
# Mean RMSD: 0.240
data_MOF--net-unn--node1-QUQFOY_clean_sbu_3--edge1-AJUNOK_clean_linker_0
_symmetry_space_group_name_H-M    P1
_symmetry_Int_Tables_number       1
_symmetry_cell_setting            triclinic
loop_
_symmetry_equiv_pos_as_xyz
'x, y, z'
_cell_length_a     34.879578
_cell_length_b     35.294214
_cell_length_c     29.046753
_cell_angle_alpha  91.080406
_cell_angle_beta   89.630775
_cell_angle_gamma 120.31345
loop_
_atom_site_label
_atom_site_type_symbol
_atom_site_fract_x
_atom_site_fract_y
_atom_site_fract_z
_atom_type_partial_charge
C0 C 0.00091 0.71146 0.30588 0.0
O1 O 0.02265 0.69594 0.28527 0.0
Cd2 Cd 0.07129 0.72802 0.22056 0.0
O3 O -0.00224 0.74315 0.28979 0.0
Cd4 Cd 0.01182 0.79374 0.22525 0.0
C5 C 0.10019 0.82915 0.26914 0.0
O6 O 0.02846 0.74805 0.17704 0.0
O7 O 0.0453 0.81033 0.14727 0.0
O8 O 0.93701 0.73751 0.23911 0.0
C9 C 0.045 0.77426 0.14412 0.0
O10 O 0.08104 0.79499 0.24484 0.0
C11 C 0.91953 0.74734 0.20685 0.0
O12 O 0.0801 0.85084 0.27335 0.0
O13 O 0.94342 0.78506 0.18902 0.0
C14 C 0.29701 0.30608 0.16505 0.0
O15 O 0.33198 0.33001 0.18877 0.0
Cd16 Cd 0.34917 0.30461 0.25695 0.0
O17 O 0.26431 0.271 0.18086 0.0
Cd18 Cd 0.22935 0.2257 0.25129 0.0
C19 C 0.28893 0.19649 0.20726 0.0
O20 O 0.2864 0.27565 0.30261 0.0
O21 O 0.25001 0.21003 0.32832 0.0
O22 O 0.20975 0.27881 0.23553 0.0
C23 C 0.28226 0.24904 0.33344 0.0
O24 O 0.30401 0.23325 0.22701 0.0
C25 C 0.17881 0.26655 0.26472 0.0
O26 O 0.24665 0.17229 0.20615 0.0
O27 O 0.16439 0.2287 0.28226 0.0
C28 C 0.71887 0.98764 0.15688 0.0
O29 O 0.69311 0.99461 0.1825 0.0
Cd30 Cd 0.71111 0.03525 0.25372 0.0
O31 O 0.75581 0.99272 0.17112 0.0
Cd32 Cd 0.79705 0.00466 0.24491 0.0
C33 C 0.81922 0.0958 0.20307 0.0
O34 O 0.74879 0.00986 0.29515 0.0
O35 O 0.81492 0.04273 0.32317 0.0
O36 O 0.73074 0.93731 0.24392 0.0
C37 C 0.7744 0.03213 0.3276 0.0
O38 O 0.78138 0.07456 0.22082 0.0
C39 C 0.74491 0.91505 0.2639 0.0
O40 O 0.84339 0.07805 0.20303 0.0
O41 O 0.78725 0.9327 0.2686 0.0
C42 C 0.08508 0.25323 0.78516 0.0
O43 O 0.07695 0.21702 0.76661 0.0
Cd44 Cd 0.99282 0.17266 0.76207 0.0
O45 O 0.05468 0.2623 0.7845 0.0
Cd46 Cd -0.00315 0.22735 0.7294 0.0
C47 C 0.97048 0.23232 0.83205 0.0
O48 O 0.93496 0.15826 0.70251 0.0
O49 O 0.92379 0.2095 0.73234 0.0
O50 O 0.03864 0.24723 0.6584 0.0
C51 C 0.90978 0.17494 0.70783 0.0
O52 O 0.96637 0.1944 0.83093 0.0
C53 C 0.03015 0.27765 0.65094 0.0
O54 O 0.985 0.25677 0.79738 0.0
O55 O 0.00781 0.28512 0.68062 0.0
C56 C 0.83252 0.74756 0.68919 0.0
O57 O 0.84786 0.76719 0.72738 0.0
Cd58 Cd 0.8159 0.81689 0.71592 0.0
O59 O 0.80366 0.75332 0.67045 0.0
Cd60 Cd 0.7675 0.76974 0.73551 0.0
C61 C 0.72847 0.76127 0.64237 0.0
O62 O 0.78257 0.83709 0.77812 0.0
O63 O 0.72386 0.8036 0.73466 0.0
O64 O 0.78756 0.73961 0.80039 0.0
C65 C 0.74435 0.8306 0.76715 0.0
O66 O 0.76655 0.7962 0.6447 0.0
C67 C 0.74744 0.71158 0.80945 0.0
O68 O 0.71395 0.73696 0.67721 0.0
O69 O 0.71766 0.7099 0.78319 0.0
C70 C 0.28901 0.00408 0.80811 0.0
O71 O 0.29097 0.97209 0.78955 0.0
Cd72 Cd 0.25909 0.93174 0.71792 0.0
O73 O 0.26789 0.02033 0.78944 0.0
Cd74 Cd 0.22819 0.01062 0.7185 0.0
C75 C 0.17002 0.91071 0.75515 0.0
O76 O 0.27036 0.98927 0.67194 0.0
O77 O 0.21067 0.98001 0.63874 0.0
O78 O 0.2957 0.07534 0.71905 0.0
C79 C 0.24635 0.97849 0.63623 0.0
O80 O 0.18202 0.90864 0.71462 0.0
C81 C 0.28214 0.0998 0.70344 0.0
O82 O 0.1802 0.94843 0.77153 0.0
O83 O 0.24006 0.08395 0.69978 0.0
C84 C 0.66032 0.02974 0.62733 0.0
O85 O 0.67556 0.01045 0.60201 0.0
Cd86 Cd 0.72307 0.04631 0.53833 0.0
O87 O 0.66141 0.06469 0.61457 0.0
Cd88 Cd 0.67301 0.11525 0.55036 0.0
C89 C 0.76005 0.14795 0.60111 0.0
O90 O 0.68385 0.07072 0.49693 0.0
O91 O 0.71263 0.13756 0.4745 0.0
O92 O 0.60203 0.05584 0.56437 0.0
C93 C 0.70477 0.09877 0.46661 0.0
O94 O 0.74515 0.11282 0.57802 0.0
C95 C 0.58084 0.06613 0.53705 0.0
O96 O 0.73822 0.16807 0.60072 0.0
O97 O 0.60149 0.10528 0.52156 0.0
C98 C 0.98811 0.62338 0.63919 0.0
O99 O 0.01512 0.65412 0.61339 0.0
Cd100 Cd 0.98687 0.67613 0.55045 0.0
O101 O 0.94931 0.59514 0.62521 0.0
Cd102 Cd 0.91194 0.56906 0.54992 0.0
C103 C 0.88161 0.63276 0.60248 0.0
O104 O 0.95492 0.62149 0.49485 0.0
O105 O 0.88479 0.58383 0.47778 0.0
O106 O 0.97033 0.55522 0.55378 0.0
C107 C 0.92335 0.61543 0.46863 0.0
O108 O 0.91933 0.66196 0.58759 0.0
C109 C 0.95067 0.5184 0.53278 0.0
O110 O 0.8671 0.59168 0.5965 0.0
O111 O 0.90913 0.50137 0.52378 0.0
C112 C 0.39257 0.34884 0.63687 0.0
O113 O 0.35905 0.32198 0.61283 0.0
Cd114 Cd 0.35251 0.28102 0.54278 0.0
O115 O 0.43175 0.36021 0.62367 0.0
Cd116 Cd 0.46287 0.34774 0.5528 0.0
C117 C 0.40634 0.24609 0.59758 0.0
O118 O 0.40875 0.32952 0.49657 0.0
O119 O 0.4527 0.30472 0.4794 0.0
O120 O 0.45615 0.40881 0.54346 0.0
C121 C 0.42066 0.31022 0.46794 0.0
O122 O 0.38583 0.23776 0.55956 0.0
C123 C 0.49574 0.43508 0.53107 0.0
O124 O 0.43576 0.28552 0.60839 0.0
O125 O 0.52432 0.42237 0.5339 0.0
C126 C 0.769 0.59702 0.1195 0.0
O127 O 0.75 0.55751 0.13261 0.0
Cd128 Cd 0.66969 0.50843 0.11045 0.0
O129 O 0.74855 0.60832 0.09277 0.0
Cd130 Cd 0.67694 0.56879 0.0608 0.0
C131 C 0.64873 0.57609 0.16662 0.0
O132 O 0.61832 0.49608 0.04365 0.0
O133 O 0.60185 0.54332 0.07434 0.0
O134 O 0.70798 0.5814 -0.01545 0.0
C135 C 0.58995 0.50888 0.05015 0.0
O136 O 0.63971 0.53642 0.16818 0.0
C137 C 0.698 0.61056 0.9759 0.0
O138 O 0.6685 0.59915 0.1318 0.0
O139 O 0.67752 0.61943 0.00684 0.0
C140 C 0.41533 0.163 0.109 0.0
O141 O 0.45088 0.19012 0.08878 0.0
Cd142 Cd 0.48981 0.14648 0.08362 0.0
O143 O 0.40564 0.12356 0.10951 0.0
Cd144 Cd 0.43935 0.09785 0.05331 0.0
C145 C 0.42848 0.06007 0.14892 0.0
O146 O 0.51009 0.10877 0.02219 0.0
O147 O 0.46495 0.04811 0.05664 0.0
O148 O 0.42171 0.12054 0.98167 0.0
C149 C 0.49739 0.06836 0.02961 0.0
O150 O 0.46323 0.09794 0.15086 0.0
C151 C 0.38958 0.08209 0.97307 0.0
O152 O 0.40672 0.04617 0.11167 0.0
O153 O 0.38056 0.05247 0.00226 0.0
C154 C 0.97603 0.34213 0.13744 0.0
O155 O 0.99021 0.31997 0.11551 0.0
Cd156 Cd 0.95767 0.27814 0.04714 0.0
O157 O 0.9456 0.34828 0.12147 0.0
Cd158 Cd 0.89504 0.3388 0.05644 0.0
C159 C 0.85583 0.25035 0.09784 0.0
O160 O 0.94406 0.32764 0.0088 0.0
O161 O 0.87985 0.30529 0.9781 0.0
O162 O 0.94837 0.41526 0.06764 0.0
C163 C 0.91881 0.31122 0.97439 0.0
O164 O 0.89065 0.26789 0.07441 0.0
C165 C 0.93324 0.42846 0.03614 0.0
O166 O 0.83507 0.27152 0.10025 0.0
O167 O 0.89458 0.40127 0.02057 0.0
C168 C 0.32382 0.35384 0.97379 0.0
O169 O 0.33493 0.33313 0.94541 0.0
Cd170 Cd 0.37969 0.36421 0.87808 0.0
O171 O 0.32735 0.39046 0.96347 0.0
Cd172 Cd 0.33857 0.43391 0.89343 0.0
C173 C 0.43908 0.46457 0.93762 0.0
O174 O 0.34586 0.39257 0.83494 0.0
O175 O 0.37631 0.46091 0.81717 0.0
O176 O 0.27243 0.36938 0.89477 0.0
C177 C 0.36725 0.42219 0.80617 0.0
O178 O 0.43359 0.43013 0.9168 0.0
C179 C 0.24876 0.38291 0.87647 0.0
O180 O 0.40857 0.47466 0.93921 0.0
O181 O 0.26534 0.42465 0.87339 0.0
C182 C 0.63851 0.97835 0.81592 0.0
O183 O 0.67577 0.00015 0.83668 0.0
Cd184 Cd 0.69335 0.97169 0.90287 0.0
O185 O 0.60526 0.94556 0.83426 0.0
Cd186 Cd 0.57225 0.9022 0.90539 0.0
C187 C 0.61972 0.8638 0.86038 0.0
O188 O 0.63464 0.95145 0.95419 0.0
O189 O 0.59319 0.88621 0.98024 0.0
O190 O 0.54937 0.95395 0.89351 0.0
C191 C 0.62736 0.924 -0.01459 0.0
O192 O 0.63881 0.90127 0.8789 0.0
C193 C 0.52 0.94006 0.92454 0.0
O194 O 0.57744 0.84157 0.86234 0.0
O195 O 0.50801 0.90223 0.94075 0.0
C196 C 0.03098 0.65053 0.83285 0.0
O197 O 0.0119 0.66524 0.85913 0.0
Cd198 Cd 0.04172 0.7097 0.92773 0.0
O199 O 0.06668 0.6517 0.84498 0.0
Cd200 Cd 0.11261 0.66695 0.91533 0.0
C201 C 0.14057 0.76815 0.86927 0.0
O202 O 0.07282 0.67809 0.96994 0.0
O203 O 0.14064 0.70695 -0.00775 0.0
O204 O 0.04747 0.60003 0.92204 0.0
C205 C 0.10176 0.70026 8e-05 0.0
O206 O 0.10748 0.76526 0.89114 0.0
C207 C 0.0648 0.57828 0.93628 0.0
O208 O 0.14903 0.73662 0.86805 0.0
O209 O 0.10737 0.59655 0.93553 0.0
C210 C 0.42605 0.92378 0.44467 0.0
O211 O 0.41023 0.88267 0.44726 0.0
Cd212 Cd 0.3287 0.8443 0.42798 0.0
O213 O 0.4029 0.93711 0.42559 0.0
Cd214 Cd 0.33398 0.9016 0.38574 0.0
C215 C 0.30671 0.91331 0.48603 0.0
O216 O 0.27642 0.82971 0.36107 0.0
O217 O 0.2576 0.8726 0.39726 0.0
O218 O 0.36617 0.91713 0.31031 0.0
C219 C 0.2471 0.8408 0.36946 0.0
O220 O 0.3032 0.87569 0.48844 0.0
C221 C 0.3591 0.94879 0.30546 0.0
O222 O 0.32204 0.93572 0.45001 0.0
O223 O 0.33912 0.95675 0.33754 0.0
C224 C 0.16754 0.4078 0.35513 0.0
O225 O 0.1945 0.43983 0.3805 0.0
Cd226 Cd 0.15346 0.48156 0.38065 0.0
O227 O 0.12872 0.40096 0.35108 0.0
Cd228 Cd 0.09842 0.43104 0.40658 0.0
C229 C 0.06615 0.4236 0.30788 0.0
O230 O 0.11619 0.50101 0.44239 0.0
O231 O 0.05906 0.46833 0.39685 0.0
O232 O 0.11841 0.41143 0.47843 0.0
C233 C 0.07831 0.49496 0.43003 0.0
O234 O 0.10544 0.45667 0.31038 0.0
C235 C 0.07893 0.38158 0.48734 0.0
O236 O 0.04826 0.40144 0.34369 0.0
O237 O 0.04901 0.37419 0.45779 0.0
C238 C 0.64265 0.67816 0.47093 0.0
O239 O 0.65973 0.65928 0.44769 0.0
Cd240 Cd 0.62582 0.61557 0.37951 0.0
O241 O 0.61122 0.68277 0.45513 0.0
Cd242 Cd 0.56377 0.67532 0.38809 0.0
C243 C 0.52431 0.5884 0.43433 0.0
O244 O 0.60771 0.66004 0.33729 0.0
O245 O 0.54197 0.63918 0.31078 0.0
O246 O 0.62794 0.74484 0.39353 0.0
C247 C 0.58006 0.64344 0.30477 0.0
O248 O 0.55953 0.6033 0.41169 0.0
C249 C 0.61456 0.76473 0.36829 0.0
O250 O 0.50502 0.61095 0.43502 0.0
O251 O 0.57275 0.74558 0.35995 0.0
C252 C 0.03548 0.73889 0.0688 0.0
C253 C 0.06375 0.76285 0.10519 0.0
C254 C 0.04852 0.71875 0.03568 0.0
C255 C 0.09076 0.7225 0.0371 0.0
H256 H 0.0022 0.73395 0.06708 0.0
H257 H 0.02451 0.6993 0.00924 0.0
S258 S 0.17583 0.7806 0.12839 0.0
N259 N 0.13449 0.78842 0.14322 0.0
N260 N 0.16027 0.75133 0.07984 0.0
C261 C 0.11958 0.74681 0.07367 0.0
C262 C 0.10575 0.76691 0.10796 0.0
C263 C 0.32918 0.31357 0.04047 0.0
C264 C 0.31104 0.33735 0.02113 0.0
C265 C 0.32322 0.30271 0.08702 0.0
C266 C 0.29832 0.31455 0.11569 0.0
H267 H 0.34993 0.30502 0.02008 0.0
H268 H 0.33912 0.28581 0.10103 0.0
S269 S 0.23807 0.37086 0.08097 0.0
N270 N 0.26327 0.36852 0.03348 0.0
N271 N 0.25148 0.34705 0.12123 0.0
C272 C 0.27756 0.33578 0.09654 0.0
C273 C 0.2841 0.34748 0.0491 0.0
C274 C 0.71511 0.99594 0.07266 0.0
C275 C 0.7029 0.9688 0.11102 0.0
C276 C 0.6923 0.97996 0.03084 0.0
C277 C 0.65635 0.93659 0.02648 0.0
H278 H 0.74059 0.03025 0.07575 0.0
H279 H 0.70131 0.00256 0.00264 0.0
S280 S 0.6183 0.85101 0.1158 0.0
N281 N 0.65798 0.89585 0.14123 0.0
N282 N 0.61462 0.86513 0.06276 0.0
C283 C 0.64683 0.90818 0.06374 0.0
C284 C 0.67022 0.92461 0.10614 0.0
C285 C 0.76854 0.10724 0.41926 0.0
C286 C 0.72261 0.08614 0.42748 0.0
C287 C 0.78596 0.08906 0.38785 0.0
C288 C 0.75771 0.04956 0.36397 0.0
H289 H 0.79107 0.13689 0.43836 0.0
H290 H 0.82146 0.10609 0.38197 0.0
S291 S 0.63502 0.98172 0.37514 0.0
N292 N 0.6495 0.02431 0.40998 0.0
N293 N 0.68176 0.98945 0.35218 0.0
C294 C 0.71174 0.02834 0.37245 0.0
C295 C 0.69429 0.04694 0.4038 0.0
C296 C 0.9265 0.61915 0.38381 0.0
C297 C 0.93303 0.64067 0.42654 0.0
C298 C 0.94752 0.64292 0.34442 0.0
C299 C 0.9745 0.68883 0.34651 0.0
H300 H 0.90809 0.58362 0.38148 0.0
H301 H 0.94398 0.62513 0.31242 0.0
S302 S 0.99325 0.76064 0.44908 0.0
N303 N 0.96293 0.71016 0.46821 0.0
N304 N -6e-05 0.75546 0.39333 0.0
C305 C 0.97694 0.71105 0.38813 0.0
C306 C 0.95679 0.68668 0.42855 0.0
C307 C 0.39269 0.31704 0.39379 0.0
C308 C 0.39223 0.2893 0.42781 0.0
C309 C 0.35681 0.30336 0.36389 0.0
C310 C 0.31898 0.26114 0.36649 0.0
H311 H 0.41978 0.35073 0.39228 0.0
H312 H 0.35842 0.32692 0.33949 0.0
S313 S 0.3015 0.1763 0.45118 0.0
N314 N 0.35142 0.21807 0.46342 0.0
N315 N 0.28337 0.19158 0.40677 0.0
C316 C 0.31849 0.2325 0.39996 0.0
C317 C 0.35538 0.24672 0.43057 0.0
C318 C 0.91297 0.2317 0.88231 0.0
C319 C 0.95806 0.24872 0.87219 0.0
C320 C 0.89986 0.25298 0.91444 0.0
C321 C 0.93174 0.29138 0.93742 0.0
H322 H 0.88776 0.20279 0.86409 0.0
H323 H 0.86483 0.23905 0.92171 0.0
S324 S 0.05398 0.34881 0.92196 0.0
N325 N 0.03439 0.30588 0.88652 0.0
N326 N 0.01011 0.34572 0.94753 0.0
C327 C 0.97696 0.30842 0.92753 0.0
C328 C 0.9901 0.28702 0.89474 0.0
C329 C 0.68465 0.65101 0.9151 0.0
C330 C 0.71049 0.63416 0.9322 0.0
C331 C 0.69651 0.67512 0.87465 0.0
C332 C 0.73526 0.68427 0.85061 0.0
H333 H 0.65492 0.6454 0.933 0.0
H334 H 0.67564 0.68752 0.86267 0.0
S335 S 0.81418 0.64738 0.88084 0.0
N336 N 0.77596 0.62716 0.92147 0.0
N337 N 0.79933 0.67445 0.84631 0.0
C338 C 0.76152 0.66774 0.86729 0.0
C339 C 0.74876 0.64204 0.90785 0.0
C340 C 0.325 0.06407 0.92324 0.0
C341 C 0.36756 0.06978 0.92837 0.0
C342 C 0.29964 0.04319 0.88371 0.0
C343 C 0.31581 0.02633 0.84924 0.0
H344 H 0.31079 0.07448 0.95049 0.0
H345 H 0.26671 0.03886 0.88083 0.0
S346 S 0.427 0.0371 0.84527 0.0
N347 N 0.42628 0.06053 0.89481 0.0
N348 N 0.37823 0.02027 0.82102 0.0
C349 C 0.35899 0.03347 0.85348 0.0
C350 C 0.38503 0.05551 0.89304 0.0
C351 C 0.27378 0.93116 0.60461 0.0
C352 C 0.25726 0.95946 0.59658 0.0
C353 C 0.28944 0.91604 0.56857 0.0
C354 C 0.29002 0.92956 0.52339 0.0
H355 H 0.27504 0.92082 0.63911 0.0
H356 H 0.30202 0.89437 0.57632 0.0
S357 S 0.25062 0.00361 0.48403 0.0
N358 N 0.24181 0.0001 0.54019 0.0
N359 N 0.2724 0.97252 0.47207 0.0
C360 C 0.27344 0.95778 0.5147 0.0
C361 C 0.25658 0.97243 0.55141 0.0
C362 C 0.01817 0.28795 0.56958 0.0
C363 C 0.04481 0.30321 0.60918 0.0
C364 C 0.02958 0.31382 0.53038 0.0
C365 C 0.06814 0.35557 0.52958 0.0
H366 H 0.98797 0.25616 0.56921 0.0
H367 H 0.00808 0.30091 0.50046 0.0
S368 S 0.14711 0.41045 0.6269 0.0
N369 N 0.10974 0.3622 0.64697 0.0
N370 N 0.13206 0.4114 0.57324 0.0
C371 C 0.09494 0.37112 0.56951 0.0
C372 C 0.08296 0.34472 0.60943 0.0
C373 C 0.70894 0.72975 0.51656 0.0
C374 C 0.66303 0.7002 0.5148 0.0
C375 C 0.72954 0.7522 0.55747 0.0
C376 C 0.70494 0.74495 0.59817 0.0
H377 H 0.72908 0.73553 0.48605 0.0
H378 H 0.76526 0.77366 0.5577 0.0
S379 S 0.58324 0.67255 0.61101 0.0
N380 N 0.59294 0.66661 0.55632 0.0
N381 N 0.63199 0.70791 0.63382 0.0
C382 C 0.65872 0.71643 0.59653 0.0
C383 C 0.63762 0.6942 0.55463 0.0
C384 C 0.41705 0.41599 0.74849 0.0
C385 C 0.37515 0.40949 0.76042 0.0
C386 C 0.42248 0.39599 0.70862 0.0
C387 C 0.38605 0.36862 0.6797 0.0
H388 H 0.44536 0.43533 0.77087 0.0
H389 H 0.45533 0.40159 0.70082 0.0
S390 S 0.269 0.34016 0.69863 0.0
N391 N 0.29678 0.37358 0.74198 0.0
N392 N 0.30626 0.33555 0.66753 0.0
C393 C 0.34391 0.36184 0.69202 0.0
C394 C 0.33867 0.38244 0.73224 0.0
C395 C 0.65188 0.04428 0.71015 0.0
C396 C 0.64522 0.01398 0.67438 0.0
C397 C 0.64773 0.03212 0.75638 0.0
C398 C 0.6349 0.98893 0.76803 0.0
H399 H 0.66372 0.07838 0.70263 0.0
H400 H 0.65615 0.05694 0.78312 0.0
S401 S 0.60409 0.89534 0.68708 0.0
N402 N 0.61939 0.93787 0.65357 0.0
N403 N 0.60885 0.91436 0.74041 0.0
C404 C 0.62332 0.95733 0.73259 0.0
C405 C 0.62908 0.97002 0.68565 0.0
C406 C 0.00352 0.6657 0.76118 0.0
C407 C 0.0156 0.63887 0.78476 0.0
C408 C 0.99522 0.66036 0.71383 0.0
C409 C -0.00258 0.62725 0.68868 0.0
H410 H 0.00247 0.6924 0.77901 0.0
H411 H 0.98717 0.6825 0.69667 0.0
S412 S 0.02014 0.54357 0.73528 0.0
N413 N 0.02516 0.57521 0.78028 0.0
N414 N 0.00745 0.56402 0.691 0.0
C415 C 0.00663 0.5983 0.71204 0.0
C416 C 0.01627 0.60443 0.76027 0.0
C417 C 0.57705 0.58102 0.26217 0.0
C418 C 0.5915 0.62591 0.26483 0.0
C419 C 0.59664 0.56514 0.23105 0.0
C420 C 0.63119 0.59384 0.2018 0.0
H421 H 0.55186 0.55844 0.28556 0.0
H422 H 0.58458 0.53021 0.22992 0.0
S423 S 0.68118 0.71488 0.19762 0.0
N424 N 0.64198 0.69898 0.23706 0.0
N425 N 0.67945 0.66964 0.17869 0.0
C426 C 0.64569 0.63897 0.20443 0.0
C427 C 0.62557 0.65488 0.23591 0.0
C428 C 0.39789 0.98784 0.18523 0.0
C429 C 0.41245 0.0328 0.18952 0.0
C430 C 0.38058 0.96049 0.2231 0.0
C431 C 0.37626 0.9773 0.26577 0.0
H432 H 0.40022 0.97387 0.1525 0.0
H433 H 0.37005 0.92602 0.21884 0.0
S434 S 0.40826 0.09245 0.29405 0.0
N435 N 0.42124 0.09296 0.23917 0.0
N436 N 0.38741 0.04119 0.31028 0.0
C437 C 0.39019 0.02208 0.27027 0.0
C438 C 0.40877 0.05006 0.23207 0.0
C439 C -0.00313 0.38403 0.26081 0.0
C440 C 0.04359 0.40779 0.26304 0.0
C441 C 0.97473 0.36364 0.21957 0.0
C442 C -0.00118 0.36544 0.1799 0.0
H443 H 0.97735 0.38056 0.29129 0.0
H444 H 0.93875 0.34514 0.21912 0.0
S445 S 0.12091 0.42582 0.1664 0.0
N446 N 0.11287 0.43428 0.22084 0.0
N447 N 0.07096 0.39481 0.14398 0.0
C448 C 0.04523 0.39013 0.18123 0.0
C449 C 0.06776 0.41172 0.22268 0.0
C450 C 0.21554 0.85296 0.29895 0.0
C451 C 0.20856 0.82932 0.33975 0.0
C452 C 0.18077 0.85562 0.27779 0.0
C453 C 0.13814 0.83576 0.29737 0.0
H454 H 0.24856 0.87109 0.28439 0.0
H455 H 0.18716 0.87296 0.24569 0.0
S456 S 0.10232 0.76832 0.40237 0.0
N457 N 0.15568 0.78477 0.3979 0.0
N458 N 0.09042 0.78943 0.35815 0.0
C459 C 0.13069 0.8114 0.33752 0.0
C460 C 0.16588 0.80842 0.35876 0.0
C461 C 0.16045 0.29899 0.33291 0.0
C462 C 0.17086 0.30064 0.28579 0.0
C463 C 0.16325 0.3356 0.35627 0.0
C464 C 0.17702 0.3753 0.3336 0.0
H465 H 0.15132 0.26971 0.35227 0.0
H466 H 0.15354 0.3325 0.39214 0.0
S467 S 0.20568 0.39621 0.20995 0.0
N468 N 0.19379 0.34509 0.21695 0.0
N469 N 0.19905 0.41352 0.26103 0.0
C470 C 0.18681 0.37723 0.28646 0.0
C471 C 0.18369 0.34001 0.26255 0.0
C472 C 0.67118 0.87131 0.30198 0.0
C473 C 0.71198 0.87493 0.28839 0.0
C474 C 0.63977 0.83605 0.32808 0.0
C475 C 0.64802 0.80309 0.34208 0.0
H476 H 0.66362 0.89653 0.29318 0.0
H477 H 0.60916 0.8349 0.33778 0.0
S478 S 0.74674 0.79372 0.31105 0.0
N479 N 0.75704 0.84045 0.28821 0.0
N480 N 0.6982 0.77392 0.33684 0.0
C481 C 0.68813 0.80558 0.32775 0.0
C482 C 0.72009 0.84154 0.30113 0.0
C483 C 0.86823 0.15918 0.15152 0.0
C484 C 0.82985 0.13668 0.17834 0.0
C485 C 0.87593 0.19571 0.12577 0.0
C486 C 0.84563 0.21134 0.12567 0.0
H487 H 0.89217 0.14824 0.14985 0.0
H488 H 0.90609 0.21175 0.10561 0.0
S489 S 0.74003 0.16425 0.19041 0.0
N490 N 0.76126 0.13342 0.20373 0.0
N491 N 0.77589 0.20125 0.15485 0.0
C492 C 0.80738 0.1894 0.15257 0.0
C493 C 0.79954 0.1524 0.17898 0.0
C494 C 0.81691 0.63511 0.18825 0.0
C495 C 0.81052 0.63271 0.14035 0.0
C496 C 0.85048 0.6736 0.20976 0.0
C497 C 0.87887 0.71132 0.18432 0.0
H498 H 0.79485 0.60767 0.20947 0.0
H499 H 0.85456 0.67365 0.24672 0.0
S500 S 0.87736 0.72028 0.05705 0.0
N501 N 0.83629 0.67028 0.06769 0.0
N502 N 0.89924 0.74243 0.10776 0.0
C503 C 0.87298 0.709 0.13617 0.0
C504 C 0.83902 0.66973 0.11435 0.0
C505 C 0.30706 0.15429 0.14808 0.0
C506 C 0.32081 0.18674 0.18291 0.0
C507 C 0.33833 0.14816 0.12311 0.0
C508 C 0.38441 0.17476 0.13135 0.0
H509 H 0.27213 0.13375 0.13984 0.0
H510 H 0.32635 0.12219 0.09716 0.0
S511 S 0.43741 0.26113 0.22193 0.0
N512 N 0.38386 0.24335 0.22684 0.0
N513 N 0.44187 0.23253 0.1787 0.0
C514 C 0.39853 0.20688 0.16627 0.0
C515 C 0.36689 0.21259 0.19235 0.0
C516 C 0.83928 0.19321 0.62431 0.0
C517 C 0.79662 0.15808 0.63295 0.0
C518 C 0.87628 0.19636 0.64675 0.0
C519 C 0.87185 0.16422 0.67796 0.0
H520 H 0.84421 0.21752 0.59912 0.0
H521 H 0.90874 0.22456 0.64017 0.0
S522 S 0.76703 0.06631 0.71267 0.0
N523 N 0.75189 0.09075 0.67491 0.0
N524 N 0.8216 0.09709 0.71723 0.0
C525 C 0.82947 0.12912 0.68697 0.0
C526 C 0.79183 0.12601 0.66437 0.0
C527 C 0.8464 0.67709 0.59942 0.0
C528 C 0.85584 0.64971 0.62553 0.0
C529 C 0.83952 0.70895 0.6206 0.0
C530 C 0.8422 0.71487 0.66873 0.0
H531 H 0.84755 0.67597 0.56212 0.0
H532 H 0.83344 0.73007 0.59895 0.0
S533 S 0.85895 0.64692 0.75294 0.0
N534 N 0.86281 0.62715 0.70212 0.0
N535 N 0.84926 0.68719 0.74228 0.0
C536 C 0.84876 0.6859 0.6955 0.0
C537 C 0.8555 0.65307 0.67379 0.0
C538 C 0.34178 0.1342 0.64636 0.0
C539 C 0.31492 0.13928 0.67942 0.0
C540 C 0.375 0.17016 0.62307 0.0
C541 C 0.38343 0.21274 0.6328 0.0
H542 H 0.33618 0.10181 0.63745 0.0
H543 H 0.39281 0.16439 0.59568 0.0
S544 S 0.3231 0.24368 0.71737 0.0
N545 N 0.29883 0.18974 0.72116 0.0
N546 N 0.36275 0.25814 0.67853 0.0
C547 C 0.35779 0.21847 0.66701 0.0
C548 C 0.32297 0.18148 0.68993 0.0
C549 C 0.18847 0.8825 0.82604 0.0
C550 C 0.16372 0.87465 0.78522 0.0
C551 C 0.18585 0.84741 0.85107 0.0
C552 C 0.15928 0.8036 0.83552 0.0
H553 H 0.20963 0.91575 0.83885 0.0
H554 H 0.20272 0.85435 0.884 0.0
S555 S 0.0902 0.76646 0.72954 0.0
N556 N 0.11325 0.82034 0.72988 0.0
N557 N 0.10931 0.75488 0.77588 0.0
C558 C 0.13645 0.79587 0.79357 0.0
C559 C 0.13831 0.83123 0.76884 0.0
C560 C 0.13435 0.32724 0.82107 0.0
C561 C 0.12801 0.2858 0.80685 0.0
C562 C 0.17326 0.35882 0.84351 0.0
C563 C 0.20719 0.35 0.85317 0.0
H564 H 0.10891 0.33558 0.81497 0.0
H565 H 0.17648 0.38997 0.85379 0.0
S566 S 0.20976 0.24895 0.81914 0.0
N567 N 0.16072 0.23935 0.8014 0.0
N568 N 0.23389 0.29833 0.8433 0.0
C569 C 0.20199 0.30928 0.83792 0.0
C570 C 0.16246 0.27729 0.81483 0.0
C571 C 0.70856 0.8747 0.77954 0.0
C572 C 0.71861 0.84372 0.79611 0.0
C573 C 0.67415 0.87896 0.79904 0.0
C574 C 0.64743 0.85105 0.83422 0.0
H575 H 0.72682 0.89511 0.75079 0.0
H576 H 0.66884 0.90479 0.78701 0.0
S577 S 0.66083 0.76507 0.88993 0.0
N578 N 0.70012 0.78527 0.85032 0.0
N579 N 0.63432 0.79267 0.88606 0.0
C580 C 0.65715 0.81999 0.85112 0.0
C581 C 0.69304 0.81645 0.83219 0.0
C582 C 0.53948 0.51658 0.51812 0.0
C583 C 0.50395 0.47477 0.50675 0.0
C584 C 0.5438 0.55394 0.49666 0.0
C585 C 0.51257 0.55061 0.46367 0.0
H586 H 0.56371 0.52045 0.54372 0.0
H587 H 0.57244 0.58566 0.505 0.0
S588 S 0.4175 0.44775 0.41763 0.0
N589 N 0.43947 0.43167 0.4575 0.0
N590 N 0.44781 0.5019 0.41771 0.0
C591 C 0.47762 0.50892 0.45147 0.0
C592 C 0.47332 0.471 0.47292 0.0
C593 C 0.5242 0.03606 0.47366 0.0
C594 C 0.53894 0.03025 0.51638 0.0
C595 C 0.48956 0.00055 0.44961 0.0
C596 C 0.4681 0.95755 0.467 0.0
H597 H 0.54013 0.06808 0.45806 0.0
H598 H 0.47901 0.00703 0.41714 0.0
S599 S 0.49439 0.9244 0.57744 0.0
N600 N 0.5294 0.97776 0.57523 0.0
N601 N 0.4646 0.91125 0.52963 0.0
C602 C 0.48287 0.95103 0.50937 0.0
C603 C 0.51795 0.98731 0.5342 0.0
C604 C 0.0164 0.50958 0.43585 0.0
C605 C 0.05047 0.50671 0.45841 0.0
C606 C 0.98124 0.50854 0.46028 0.0
C607 C 0.97901 0.50519 0.50836 0.0
H608 H 0.01631 0.51151 0.39865 0.0
H609 H 0.95669 0.51242 0.44153 0.0
S610 S 0.05869 0.49616 0.58447 0.0
N611 N 0.07883 0.49919 0.53209 0.0
N612 N 0.01334 0.49932 0.57812 0.0
C613 C 0.01286 0.50281 0.53164 0.0
C614 C 0.04858 0.5033 0.50671 0.0
C615 C 0.47565 0.48393 0.01404 0.0
C616 C 0.4794 0.48713 0.96591 0.0
C617 C 0.51106 0.48849 0.04105 0.0
C618 C 0.5508 0.49525 0.0207 0.0
H619 H 0.44441 0.47528 0.0306 0.0
H620 H 0.50728 0.4864 0.07814 0.0
S621 S 0.57923 0.5139 0.89673 0.0
N622 N 0.52743 0.50328 0.8996 0.0
N623 N 0.59369 0.51107 0.95009 0.0
C624 C 0.55562 0.50096 0.97285 0.0
C625 C 0.52004 0.49729 0.94562 0.0
C626 C 0.50419 0.96838 -0.00305 0.0
C627 C 0.51169 0.9723 0.94928 0.0
C628 C 0.50445 0.00218 0.02317 0.0
C629 C 0.51154 0.04124 0.00297 0.0
H630 H 0.49912 0.93939 0.01451 0.0
H631 H 0.49737 0.99694 0.05964 0.0
S632 S 0.53685 0.06944 0.87979 0.0
N633 N 0.52961 0.01959 0.88311 0.0
N634 N 0.52916 0.08291 0.93246 0.0
C635 C 0.52075 0.0464 0.95554 0.0
C636 C 0.52069 0.01187 0.92871 0.0
C637 C 0.0166 0.54505 0.00352 0.0
C638 C 0.03603 0.53914 0.96329 0.0
C639 C 0.98228 0.50927 0.0265 0.0
C640 C 0.96529 0.46644 0.00915 0.0
H641 H 0.02758 0.57786 0.01686 0.0
H642 H 0.96884 0.51516 0.05777 0.0
S643 S 0.00584 0.43318 0.90609 0.0
N644 N 0.03694 0.48729 0.90803 0.0
N645 N 0.97191 0.41969 0.95063 0.0
C646 C 0.98491 0.46 0.9693 0.0
C647 C 0.0204 0.49647 0.94639 0.0
loop_
_geom_bond_atom_site_label_1
_geom_bond_atom_site_label_2
_geom_bond_distance
_geom_bond_site_symmetry_2
_ccdc_geom_bond_type
C0 O1 1.306 1_655 S
C0 O3 1.160 . S
O1 C0 1.306 1_455 S
O1 Cd2 2.228 . S
Cd2 O1 2.228 . S
Cd2 O6 2.273 . S
Cd2 O10 2.277 . S
O3 C0 1.160 . S
O3 Cd4 2.203 1_655 S
Cd4 O3 2.203 1_455 S
Cd4 O6 2.411 . S
Cd4 O7 2.333 . S
Cd4 O8 2.352 1_455 S
Cd4 O12 2.277 . S
Cd4 O13 2.356 1_455 S
C5 O10 1.209 . S
C5 O12 1.226 . S
O6 Cd2 2.273 . S
O6 Cd4 2.411 . S
O6 C9 1.320 . S
O7 Cd4 2.333 . S
O7 C9 1.214 . S
O8 Cd4 2.352 1_655 S
O8 C11 1.258 . S
C9 O6 1.320 . S
C9 O7 1.214 . S
O10 Cd2 2.277 . S
O10 C5 1.209 . S
C11 O8 1.258 . S
C11 O13 1.282 . S
O12 Cd4 2.277 . S
O12 C5 1.226 . S
O13 Cd4 2.356 1_655 S
O13 C11 1.282 . S
C14 O15 1.306 . S
C14 O17 1.160 . S
O15 C14 1.306 . S
O15 Cd16 2.228 . S
Cd16 O15 2.228 . S
Cd16 O20 2.273 . S
Cd16 O24 2.277 . S
O17 C14 1.160 . S
O17 Cd18 2.203 . S
Cd18 O17 2.203 . S
Cd18 O20 2.411 . S
Cd18 O21 2.333 . S
Cd18 O22 2.352 . S
Cd18 O26 2.277 . S
Cd18 O27 2.356 . S
C19 O24 1.209 . S
C19 O26 1.226 . S
O20 Cd16 2.273 . S
O20 Cd18 2.411 . S
O20 C23 1.320 . S
O21 Cd18 2.333 . S
O21 C23 1.214 . S
O22 Cd18 2.352 . S
O22 C25 1.258 . S
C23 O20 1.320 . S
C23 O21 1.214 . S
O24 Cd16 2.277 . S
O24 C19 1.209 . S
C25 O22 1.258 . S
C25 O27 1.282 . S
O26 Cd18 2.277 . S
O26 C19 1.226 . S
O27 Cd18 2.356 . S
O27 C25 1.282 . S
C28 O29 1.306 1_565 S
C28 O31 1.160 . S
O29 C28 1.306 1_545 S
O29 Cd30 2.228 . S
Cd30 O29 2.228 . S
Cd30 O34 2.273 . S
Cd30 O38 2.277 . S
O31 C28 1.160 . S
O31 Cd32 2.203 1_565 S
Cd32 O31 2.203 1_545 S
Cd32 O34 2.411 . S
Cd32 O35 2.333 . S
Cd32 O36 2.352 1_545 S
Cd32 O40 2.277 . S
Cd32 O41 2.356 1_545 S
C33 O38 1.209 . S
C33 O40 1.226 . S
O34 Cd30 2.273 . S
O34 Cd32 2.411 . S
O34 C37 1.320 . S
O35 Cd32 2.333 . S
O35 C37 1.214 . S
O36 Cd32 2.352 1_565 S
O36 C39 1.258 . S
C37 O34 1.320 . S
C37 O35 1.214 . S
O38 Cd30 2.277 . S
O38 C33 1.209 . S
C39 O36 1.258 . S
C39 O41 1.282 . S
O40 Cd32 2.277 . S
O40 C33 1.226 . S
O41 Cd32 2.356 1_565 S
O41 C39 1.282 . S
C42 O43 1.306 . S
C42 O45 1.160 . S
O43 C42 1.306 . S
O43 Cd44 2.228 1_455 S
Cd44 O43 2.228 1_655 S
Cd44 O48 2.273 . S
Cd44 O52 2.277 . S
O45 C42 1.160 . S
O45 Cd46 2.203 . S
Cd46 O45 2.203 . S
Cd46 O48 2.411 1_455 S
Cd46 O49 2.333 1_455 S
Cd46 O50 2.352 . S
Cd46 O54 2.277 1_455 S
Cd46 O55 2.356 . S
C47 O52 1.209 . S
C47 O54 1.226 . S
O48 Cd44 2.273 . S
O48 Cd46 2.411 1_655 S
O48 C51 1.320 . S
O49 Cd46 2.333 1_655 S
O49 C51 1.214 . S
O50 Cd46 2.352 . S
O50 C53 1.258 . S
C51 O48 1.320 . S
C51 O49 1.214 . S
O52 Cd44 2.277 . S
O52 C47 1.209 . S
C53 O50 1.258 . S
C53 O55 1.282 . S
O54 Cd46 2.277 1_655 S
O54 C47 1.226 . S
O55 Cd46 2.356 . S
O55 C53 1.282 . S
C56 O57 1.306 . S
C56 O59 1.160 . S
O57 C56 1.306 . S
O57 Cd58 2.228 . S
Cd58 O57 2.228 . S
Cd58 O62 2.273 . S
Cd58 O66 2.277 . S
O59 C56 1.160 . S
O59 Cd60 2.203 . S
Cd60 O59 2.203 . S
Cd60 O62 2.411 . S
Cd60 O63 2.333 . S
Cd60 O64 2.352 . S
Cd60 O68 2.277 . S
Cd60 O69 2.356 . S
C61 O66 1.209 . S
C61 O68 1.226 . S
O62 Cd58 2.273 . S
O62 Cd60 2.411 . S
O62 C65 1.320 . S
O63 Cd60 2.333 . S
O63 C65 1.214 . S
O64 Cd60 2.352 . S
O64 C67 1.258 . S
C65 O62 1.320 . S
C65 O63 1.214 . S
O66 Cd58 2.277 . S
O66 C61 1.209 . S
C67 O64 1.258 . S
C67 O69 1.282 . S
O68 Cd60 2.277 . S
O68 C61 1.226 . S
O69 Cd60 2.356 . S
O69 C67 1.282 . S
C70 O71 1.306 1_545 S
C70 O73 1.160 . S
O71 C70 1.306 1_565 S
O71 Cd72 2.228 . S
Cd72 O71 2.228 . S
Cd72 O76 2.273 . S
Cd72 O80 2.277 . S
O73 C70 1.160 . S
O73 Cd74 2.203 . S
Cd74 O73 2.203 . S
Cd74 O76 2.411 1_545 S
Cd74 O77 2.333 1_545 S
Cd74 O78 2.352 . S
Cd74 O82 2.277 1_545 S
Cd74 O83 2.356 . S
C75 O80 1.209 . S
C75 O82 1.226 . S
O76 Cd72 2.273 . S
O76 Cd74 2.411 1_565 S
O76 C79 1.320 . S
O77 Cd74 2.333 1_565 S
O77 C79 1.214 . S
O78 Cd74 2.352 . S
O78 C81 1.258 . S
C79 O76 1.320 . S
C79 O77 1.214 . S
O80 Cd72 2.277 . S
O80 C75 1.209 . S
C81 O78 1.258 . S
C81 O83 1.282 . S
O82 Cd74 2.277 1_565 S
O82 C75 1.226 . S
O83 Cd74 2.356 . S
O83 C81 1.282 . S
C84 O85 1.306 . S
C84 O87 1.160 . S
O85 C84 1.306 . S
O85 Cd86 2.228 . S
Cd86 O85 2.228 . S
Cd86 O90 2.273 . S
Cd86 O94 2.277 . S
O87 C84 1.160 . S
O87 Cd88 2.203 . S
Cd88 O87 2.203 . S
Cd88 O90 2.411 . S
Cd88 O91 2.333 . S
Cd88 O92 2.352 . S
Cd88 O96 2.277 . S
Cd88 O97 2.356 . S
C89 O94 1.209 . S
C89 O96 1.226 . S
O90 Cd86 2.273 . S
O90 Cd88 2.411 . S
O90 C93 1.320 . S
O91 Cd88 2.333 . S
O91 C93 1.214 . S
O92 Cd88 2.352 . S
O92 C95 1.258 . S
C93 O90 1.320 . S
C93 O91 1.214 . S
O94 Cd86 2.277 . S
O94 C89 1.209 . S
C95 O92 1.258 . S
C95 O97 1.282 . S
O96 Cd88 2.277 . S
O96 C89 1.226 . S
O97 Cd88 2.356 . S
O97 C95 1.282 . S
C98 O99 1.306 . S
C98 O101 1.160 . S
O99 C98 1.306 . S
O99 Cd100 2.228 . S
Cd100 O99 2.228 . S
Cd100 O104 2.273 . S
Cd100 O108 2.277 . S
O101 C98 1.160 . S
O101 Cd102 2.203 . S
Cd102 O101 2.203 . S
Cd102 O104 2.411 . S
Cd102 O105 2.333 . S
Cd102 O106 2.352 . S
Cd102 O110 2.277 . S
Cd102 O111 2.356 . S
C103 O108 1.209 . S
C103 O110 1.226 . S
O104 Cd100 2.273 . S
O104 Cd102 2.411 . S
O104 C107 1.320 . S
O105 Cd102 2.333 . S
O105 C107 1.214 . S
O106 Cd102 2.352 . S
O106 C109 1.258 . S
C107 O104 1.320 . S
C107 O105 1.214 . S
O108 Cd100 2.277 . S
O108 C103 1.209 . S
C109 O106 1.258 . S
C109 O111 1.282 . S
O110 Cd102 2.277 . S
O110 C103 1.226 . S
O111 Cd102 2.356 . S
O111 C109 1.282 . S
C112 O113 1.306 . S
C112 O115 1.160 . S
O113 C112 1.306 . S
O113 Cd114 2.228 . S
Cd114 O113 2.228 . S
Cd114 O118 2.273 . S
Cd114 O122 2.277 . S
O115 C112 1.160 . S
O115 Cd116 2.203 . S
Cd116 O115 2.203 . S
Cd116 O118 2.411 . S
Cd116 O119 2.333 . S
Cd116 O120 2.352 . S
Cd116 O124 2.277 . S
Cd116 O125 2.356 . S
C117 O122 1.209 . S
C117 O124 1.226 . S
O118 Cd114 2.273 . S
O118 Cd116 2.411 . S
O118 C121 1.320 . S
O119 Cd116 2.333 . S
O119 C121 1.214 . S
O120 Cd116 2.352 . S
O120 C123 1.258 . S
C121 O118 1.320 . S
C121 O119 1.214 . S
O122 Cd114 2.277 . S
O122 C117 1.209 . S
C123 O120 1.258 . S
C123 O125 1.282 . S
O124 Cd116 2.277 . S
O124 C117 1.226 . S
O125 Cd116 2.356 . S
O125 C123 1.282 . S
C126 O127 1.306 . S
C126 O129 1.160 . S
O127 C126 1.306 . S
O127 Cd128 2.228 . S
Cd128 O127 2.228 . S
Cd128 O132 2.273 . S
Cd128 O136 2.277 . S
O129 C126 1.160 . S
O129 Cd130 2.203 . S
Cd130 O129 2.203 . S
Cd130 O132 2.411 . S
Cd130 O133 2.333 . S
Cd130 O134 2.352 . S
Cd130 O138 2.277 . S
Cd130 O139 2.356 . S
C131 O136 1.209 . S
C131 O138 1.226 . S
O132 Cd128 2.273 . S
O132 Cd130 2.411 . S
O132 C135 1.320 . S
O133 Cd130 2.333 . S
O133 C135 1.214 . S
O134 Cd130 2.352 . S
O134 C137 1.258 1_554 S
C135 O132 1.320 . S
C135 O133 1.214 . S
O136 Cd128 2.277 . S
O136 C131 1.209 . S
C137 O134 1.258 1_556 S
C137 O139 1.282 1_556 S
O138 Cd130 2.277 . S
O138 C131 1.226 . S
O139 Cd130 2.356 . S
O139 C137 1.282 1_554 S
C140 O141 1.306 . S
C140 O143 1.160 . S
O141 C140 1.306 . S
O141 Cd142 2.228 . S
Cd142 O141 2.228 . S
Cd142 O146 2.273 . S
Cd142 O150 2.277 . S
O143 C140 1.160 . S
O143 Cd144 2.203 . S
Cd144 O143 2.203 . S
Cd144 O146 2.411 . S
Cd144 O147 2.333 . S
Cd144 O148 2.352 1_554 S
Cd144 O152 2.277 . S
Cd144 O153 2.356 . S
C145 O150 1.209 . S
C145 O152 1.226 . S
O146 Cd142 2.273 . S
O146 Cd144 2.411 . S
O146 C149 1.320 . S
O147 Cd144 2.333 . S
O147 C149 1.214 . S
O148 Cd144 2.352 1_556 S
O148 C151 1.258 . S
C149 O146 1.320 . S
C149 O147 1.214 . S
O150 Cd142 2.277 . S
O150 C145 1.209 . S
C151 O148 1.258 . S
C151 O153 1.282 1_556 S
O152 Cd144 2.277 . S
O152 C145 1.226 . S
O153 Cd144 2.356 . S
O153 C151 1.282 1_554 S
C154 O155 1.306 . S
C154 O157 1.160 . S
O155 C154 1.306 . S
O155 Cd156 2.228 . S
Cd156 O155 2.228 . S
Cd156 O160 2.273 . S
Cd156 O164 2.277 . S
O157 C154 1.160 . S
O157 Cd158 2.203 . S
Cd158 O157 2.203 . S
Cd158 O160 2.411 . S
Cd158 O161 2.333 . S
Cd158 O162 2.352 . S
Cd158 O166 2.277 . S
Cd158 O167 2.356 . S
C159 O164 1.209 . S
C159 O166 1.226 . S
O160 Cd156 2.273 . S
O160 Cd158 2.411 . S
O160 C163 1.320 . S
O161 Cd158 2.333 . S
O161 C163 1.214 . S
O162 Cd158 2.352 . S
O162 C165 1.258 . S
C163 O160 1.320 . S
C163 O161 1.214 . S
O164 Cd156 2.277 . S
O164 C159 1.209 . S
C165 O162 1.258 . S
C165 O167 1.282 . S
O166 Cd158 2.277 . S
O166 C159 1.226 . S
O167 Cd158 2.356 . S
O167 C165 1.282 . S
C168 O169 1.306 1_554 S
C168 O171 1.160 1_554 S
O169 C168 1.306 1_556 S
O169 Cd170 2.228 . S
Cd170 O169 2.228 . S
Cd170 O174 2.273 . S
Cd170 O178 2.277 . S
O171 C168 1.160 1_556 S
O171 Cd172 2.203 . S
Cd172 O171 2.203 . S
Cd172 O174 2.411 . S
Cd172 O175 2.333 . S
Cd172 O176 2.352 . S
Cd172 O180 2.277 . S
Cd172 O181 2.356 . S
C173 O178 1.209 . S
C173 O180 1.226 . S
O174 Cd170 2.273 . S
O174 Cd172 2.411 . S
O174 C177 1.320 . S
O175 Cd172 2.333 . S
O175 C177 1.214 . S
O176 Cd172 2.352 . S
O176 C179 1.258 . S
C177 O174 1.320 . S
C177 O175 1.214 . S
O178 Cd170 2.277 . S
O178 C173 1.209 . S
C179 O176 1.258 . S
C179 O181 1.282 . S
O180 Cd172 2.277 . S
O180 C173 1.226 . S
O181 Cd172 2.356 . S
O181 C179 1.282 . S
C182 O183 1.306 . S
C182 O185 1.160 . S
O183 C182 1.306 . S
O183 Cd184 2.228 . S
Cd184 O183 2.228 . S
Cd184 O188 2.273 . S
Cd184 O192 2.277 . S
O185 C182 1.160 . S
O185 Cd186 2.203 . S
Cd186 O185 2.203 . S
Cd186 O188 2.411 . S
Cd186 O189 2.333 . S
Cd186 O190 2.352 . S
Cd186 O194 2.277 . S
Cd186 O195 2.356 . S
C187 O192 1.209 . S
C187 O194 1.226 . S
O188 Cd184 2.273 . S
O188 Cd186 2.411 . S
O188 C191 1.320 . S
O189 Cd186 2.333 . S
O189 C191 1.214 . S
O190 Cd186 2.352 . S
O190 C193 1.258 . S
C191 O188 1.320 . S
C191 O189 1.214 . S
O192 Cd184 2.277 . S
O192 C187 1.209 . S
C193 O190 1.258 . S
C193 O195 1.282 . S
O194 Cd186 2.277 . S
O194 C187 1.226 . S
O195 Cd186 2.356 . S
O195 C193 1.282 . S
C196 O197 1.306 . S
C196 O199 1.160 . S
O197 C196 1.306 . S
O197 Cd198 2.228 . S
Cd198 O197 2.228 . S
Cd198 O202 2.273 . S
Cd198 O206 2.277 . S
O199 C196 1.160 . S
O199 Cd200 2.203 . S
Cd200 O199 2.203 . S
Cd200 O202 2.411 . S
Cd200 O203 2.332 . S
Cd200 O204 2.352 . S
Cd200 O208 2.277 . S
Cd200 O209 2.356 . S
C201 O206 1.209 . S
C201 O208 1.226 . S
O202 Cd198 2.273 . S
O202 Cd200 2.411 . S
O202 C205 1.320 . S
O203 Cd200 2.332 . S
O203 C205 1.214 . S
O204 Cd200 2.352 . S
O204 C207 1.258 . S
C205 O202 1.320 . S
C205 O203 1.214 . S
O206 Cd198 2.277 . S
O206 C201 1.209 . S
C207 O204 1.258 . S
C207 O209 1.282 . S
O208 Cd200 2.277 . S
O208 C201 1.226 . S
O209 Cd200 2.356 . S
O209 C207 1.282 . S
C210 O211 1.306 . S
C210 O213 1.160 . S
O211 C210 1.306 . S
O211 Cd212 2.228 . S
Cd212 O211 2.228 . S
Cd212 O216 2.273 . S
Cd212 O220 2.277 . S
O213 C210 1.160 . S
O213 Cd214 2.203 . S
Cd214 O213 2.203 . S
Cd214 O216 2.411 . S
Cd214 O217 2.333 . S
Cd214 O218 2.352 . S
Cd214 O222 2.277 . S
Cd214 O223 2.356 . S
C215 O220 1.209 . S
C215 O222 1.226 . S
O216 Cd212 2.273 . S
O216 Cd214 2.411 . S
O216 C219 1.320 . S
O217 Cd214 2.333 . S
O217 C219 1.214 . S
O218 Cd214 2.352 . S
O218 C221 1.258 . S
C219 O216 1.320 . S
C219 O217 1.214 . S
O220 Cd212 2.277 . S
O220 C215 1.209 . S
C221 O218 1.258 . S
C221 O223 1.282 . S
O222 Cd214 2.277 . S
O222 C215 1.226 . S
O223 Cd214 2.356 . S
O223 C221 1.282 . S
C224 O225 1.306 . S
C224 O227 1.160 . S
O225 C224 1.306 . S
O225 Cd226 2.228 . S
Cd226 O225 2.228 . S
Cd226 O230 2.273 . S
Cd226 O234 2.277 . S
O227 C224 1.160 . S
O227 Cd228 2.203 . S
Cd228 O227 2.203 . S
Cd228 O230 2.411 . S
Cd228 O231 2.333 . S
Cd228 O232 2.352 . S
Cd228 O236 2.277 . S
Cd228 O237 2.356 . S
C229 O234 1.209 . S
C229 O236 1.226 . S
O230 Cd226 2.273 . S
O230 Cd228 2.411 . S
O230 C233 1.320 . S
O231 Cd228 2.333 . S
O231 C233 1.214 . S
O232 Cd228 2.352 . S
O232 C235 1.258 . S
C233 O230 1.320 . S
C233 O231 1.214 . S
O234 Cd226 2.277 . S
O234 C229 1.209 . S
C235 O232 1.258 . S
C235 O237 1.282 . S
O236 Cd228 2.277 . S
O236 C229 1.226 . S
O237 Cd228 2.356 . S
O237 C235 1.282 . S
C238 O239 1.306 . S
C238 O241 1.160 . S
O239 C238 1.306 . S
O239 Cd240 2.228 . S
Cd240 O239 2.228 . S
Cd240 O244 2.273 . S
Cd240 O248 2.277 . S
O241 C238 1.160 . S
O241 Cd242 2.203 . S
Cd242 O241 2.203 . S
Cd242 O244 2.411 . S
Cd242 O245 2.333 . S
Cd242 O246 2.352 . S
Cd242 O250 2.277 . S
Cd242 O251 2.356 . S
C243 O248 1.209 . S
C243 O250 1.226 . S
O244 Cd240 2.273 . S
O244 Cd242 2.411 . S
O244 C247 1.320 . S
O245 Cd242 2.333 . S
O245 C247 1.214 . S
O246 Cd242 2.352 . S
O246 C249 1.258 . S
C247 O244 1.320 . S
C247 O245 1.214 . S
O248 Cd240 2.277 . S
O248 C243 1.209 . S
C249 O246 1.258 . S
C249 O251 1.282 . S
O250 Cd242 2.277 . S
O250 C243 1.226 . S
O251 Cd242 2.356 . S
O251 C249 1.282 . S
C252 C253 1.369 . S
C252 C254 1.419 . S
C252 H256 0.930 1_455 S
C253 C252 1.369 . S
C253 C262 1.429 . S
C254 C252 1.419 . S
C254 C255 1.363 . S
C254 H257 0.929 . S
C255 C254 1.363 . S
C255 C261 1.428 . S
H256 C252 0.930 1_655 S
H257 C254 0.929 . S
S258 N259 1.613 . S
S258 N260 1.610 . S
N259 S258 1.613 . S
N259 C262 1.350 . S
N260 S258 1.610 . S
N260 C261 1.351 . S
C261 C255 1.428 . S
C261 N260 1.351 . S
C261 C262 1.434 . S
C262 C253 1.429 . S
C262 N259 1.350 . S
C262 C261 1.434 . S
C263 C264 1.369 . S
C263 C265 1.419 . S
C263 H267 0.930 . S
C264 C263 1.369 . S
C264 C273 1.429 . S
C265 C263 1.419 . S
C265 C266 1.363 . S
C265 H268 0.929 . S
C266 C265 1.363 . S
C266 C272 1.428 . S
H267 C263 0.930 . S
H268 C265 0.929 . S
S269 N270 1.613 . S
S269 N271 1.610 . S
N270 S269 1.613 . S
N270 C273 1.350 . S
N271 S269 1.610 . S
N271 C272 1.351 . S
C272 C266 1.428 . S
C272 N271 1.351 . S
C272 C273 1.434 . S
C273 C264 1.429 . S
C273 N270 1.350 . S
C273 C272 1.434 . S
C274 C275 1.369 1_545 S
C274 C276 1.419 1_545 S
C274 H278 0.930 . S
C275 C274 1.369 1_565 S
C275 C284 1.429 . S
C276 C274 1.419 1_565 S
C276 C277 1.363 . S
C276 H279 0.929 1_565 S
C277 C276 1.363 . S
C277 C283 1.428 . S
H278 C274 0.930 . S
H279 C276 0.929 1_545 S
S280 N281 1.613 . S
S280 N282 1.610 . S
N281 S280 1.613 . S
N281 C284 1.350 . S
N282 S280 1.610 . S
N282 C283 1.351 . S
C283 C277 1.428 . S
C283 N282 1.351 . S
C283 C284 1.434 . S
C284 C275 1.429 . S
C284 N281 1.350 . S
C284 C283 1.434 . S
C285 C286 1.369 . S
C285 C287 1.419 . S
C285 H289 0.930 . S
C286 C285 1.369 . S
C286 C295 1.429 . S
C287 C285 1.419 . S
C287 C288 1.363 . S
C287 H290 0.929 . S
C288 C287 1.363 . S
C288 C294 1.428 . S
H289 C285 0.930 . S
H290 C287 0.929 . S
S291 N292 1.613 1_565 S
S291 N293 1.610 . S
N292 S291 1.613 1_545 S
N292 C295 1.350 . S
N293 S291 1.610 . S
N293 C294 1.351 1_565 S
C294 C288 1.428 . S
C294 N293 1.351 1_545 S
C294 C295 1.434 . S
C295 C286 1.429 . S
C295 N292 1.350 . S
C295 C294 1.434 . S
C296 C297 1.369 . S
C296 C298 1.419 . S
C296 H300 0.930 . S
C297 C296 1.369 . S
C297 C306 1.429 . S
C298 C296 1.419 . S
C298 C299 1.363 . S
C298 H301 0.929 . S
C299 C298 1.363 . S
C299 C305 1.428 . S
H300 C296 0.930 . S
H301 C298 0.929 . S
S302 N303 1.613 . S
S302 N304 1.610 . S
N303 S302 1.613 . S
N303 C306 1.350 1_455 S
N304 S302 1.610 . S
N304 C305 1.351 1_455 S
C305 C299 1.428 . S
C305 N304 1.351 1_655 S
C305 C306 1.434 . S
C306 C297 1.429 . S
C306 N303 1.350 1_655 S
C306 C305 1.434 . S
C307 C308 1.369 . S
C307 C309 1.419 . S
C307 H311 0.930 . S
C308 C307 1.369 . S
C308 C317 1.429 . S
C309 C307 1.419 . S
C309 C310 1.363 . S
C309 H312 0.929 . S
C310 C309 1.363 . S
C310 C316 1.428 . S
H311 C307 0.930 . S
H312 C309 0.929 . S
S313 N314 1.613 . S
S313 N315 1.610 . S
N314 S313 1.613 . S
N314 C317 1.350 . S
N315 S313 1.610 . S
N315 C316 1.351 . S
C316 C310 1.428 . S
C316 N315 1.351 . S
C316 C317 1.434 . S
C317 C308 1.429 . S
C317 N314 1.350 . S
C317 C316 1.434 . S
C318 C319 1.369 . S
C318 C320 1.419 . S
C318 H322 0.930 . S
C319 C318 1.369 . S
C319 C328 1.429 1_655 S
C320 C318 1.419 . S
C320 C321 1.363 . S
C320 H323 0.929 . S
C321 C320 1.363 . S
C321 C327 1.428 . S
H322 C318 0.930 . S
H323 C320 0.929 . S
S324 N325 1.613 . S
S324 N326 1.610 . S
N325 S324 1.613 . S
N325 C328 1.349 . S
N326 S324 1.610 . S
N326 C327 1.351 1_455 S
C327 C321 1.428 . S
C327 N326 1.351 1_655 S
C327 C328 1.434 1_655 S
C328 C319 1.429 1_455 S
C328 N325 1.349 . S
C328 C327 1.434 1_455 S
C329 C330 1.369 . S
C329 C331 1.419 . S
C329 H333 0.930 . S
C330 C329 1.369 . S
C330 C339 1.429 . S
C331 C329 1.419 . S
C331 C332 1.363 . S
C331 H334 0.929 . S
C332 C331 1.363 . S
C332 C338 1.428 . S
H333 C329 0.930 . S
H334 C331 0.929 . S
S335 N336 1.613 . S
S335 N337 1.610 . S
N336 S335 1.613 . S
N336 C339 1.350 . S
N337 S335 1.610 . S
N337 C338 1.351 . S
C338 C332 1.428 . S
C338 N337 1.351 . S
C338 C339 1.434 . S
C339 C330 1.429 . S
C339 N336 1.350 . S
C339 C338 1.434 . S
C340 C341 1.369 . S
C340 C342 1.419 . S
C340 H344 0.930 . S
C341 C340 1.369 . S
C341 C350 1.429 . S
C342 C340 1.419 . S
C342 C343 1.363 . S
C342 H345 0.929 . S
C343 C342 1.363 . S
C343 C349 1.428 . S
H344 C340 0.930 . S
H345 C342 0.929 . S
S346 N347 1.613 . S
S346 N348 1.610 . S
N347 S346 1.613 . S
N347 C350 1.350 . S
N348 S346 1.610 . S
N348 C349 1.351 . S
C349 C343 1.428 . S
C349 N348 1.351 . S
C349 C350 1.434 . S
C350 C341 1.429 . S
C350 N347 1.350 . S
C350 C349 1.434 . S
C351 C352 1.369 . S
C351 C353 1.419 . S
C351 H355 0.930 . S
C352 C351 1.369 . S
C352 C361 1.429 . S
C353 C351 1.419 . S
C353 C354 1.363 . S
C353 H356 0.929 . S
C354 C353 1.363 . S
C354 C360 1.428 . S
H355 C351 0.930 . S
H356 C353 0.929 . S
S357 N358 1.613 . S
S357 N359 1.610 1_545 S
N358 S357 1.613 . S
N358 C361 1.350 1_545 S
N359 S357 1.610 1_565 S
N359 C360 1.351 . S
C360 C354 1.428 . S
C360 N359 1.351 . S
C360 C361 1.434 . S
C361 C352 1.429 . S
C361 N358 1.350 1_565 S
C361 C360 1.434 . S
C362 C363 1.369 . S
C362 C364 1.419 . S
C362 H366 0.930 1_455 S
C363 C362 1.369 . S
C363 C372 1.429 . S
C364 C362 1.419 . S
C364 C365 1.363 . S
C364 H367 0.929 . S
C365 C364 1.363 . S
C365 C371 1.428 . S
H366 C362 0.930 1_655 S
H367 C364 0.929 . S
S368 N369 1.613 . S
S368 N370 1.610 . S
N369 S368 1.613 . S
N369 C372 1.350 . S
N370 S368 1.610 . S
N370 C371 1.351 . S
C371 C365 1.428 . S
C371 N370 1.351 . S
C371 C372 1.434 . S
C372 C363 1.429 . S
C372 N369 1.350 . S
C372 C371 1.434 . S
C373 C374 1.369 . S
C373 C375 1.419 . S
C373 H377 0.930 . S
C374 C373 1.369 . S
C374 C383 1.429 . S
C375 C373 1.419 . S
C375 C376 1.363 . S
C375 H378 0.929 . S
C376 C375 1.363 . S
C376 C382 1.428 . S
H377 C373 0.930 . S
H378 C375 0.929 . S
S379 N380 1.613 . S
S379 N381 1.610 . S
N380 S379 1.613 . S
N380 C383 1.350 . S
N381 S379 1.610 . S
N381 C382 1.351 . S
C382 C376 1.428 . S
C382 N381 1.351 . S
C382 C383 1.434 . S
C383 C374 1.429 . S
C383 N380 1.350 . S
C383 C382 1.434 . S
C384 C385 1.369 . S
C384 C386 1.419 . S
C384 H388 0.930 . S
C385 C384 1.369 . S
C385 C394 1.429 . S
C386 C384 1.419 . S
C386 C387 1.363 . S
C386 H389 0.929 . S
C387 C386 1.363 . S
C387 C393 1.428 . S
H388 C384 0.930 . S
H389 C386 0.929 . S
S390 N391 1.613 . S
S390 N392 1.610 . S
N391 S390 1.613 . S
N391 C394 1.350 . S
N392 S390 1.610 . S
N392 C393 1.351 . S
C393 C387 1.428 . S
C393 N392 1.351 . S
C393 C394 1.434 . S
C394 C385 1.429 . S
C394 N391 1.350 . S
C394 C393 1.434 . S
C395 C396 1.369 . S
C395 C397 1.419 . S
C395 H399 0.930 . S
C396 C395 1.369 . S
C396 C405 1.429 1_545 S
C397 C395 1.419 . S
C397 C398 1.363 1_545 S
C397 H400 0.929 . S
C398 C397 1.363 1_565 S
C398 C404 1.428 . S
H399 C395 0.930 . S
H400 C397 0.929 . S
S401 N402 1.613 . S
S401 N403 1.610 . S
N402 S401 1.613 . S
N402 C405 1.350 . S
N403 S401 1.610 . S
N403 C404 1.351 . S
C404 C398 1.428 . S
C404 N403 1.351 . S
C404 C405 1.434 . S
C405 C396 1.429 1_565 S
C405 N402 1.350 . S
C405 C404 1.434 . S
C406 C407 1.369 . S
C406 C408 1.419 . S
C406 H410 0.930 . S
C407 C406 1.369 . S
C407 C416 1.429 . S
C408 C406 1.419 . S
C408 C409 1.363 . S
C408 H411 0.929 . S
C409 C408 1.363 . S
C409 C415 1.428 . S
H410 C406 0.930 . S
H411 C408 0.929 . S
S412 N413 1.613 . S
S412 N414 1.610 1_455 S
N413 S412 1.613 . S
N413 C416 1.350 . S
N414 S412 1.610 1_655 S
N414 C415 1.351 1_655 S
C415 C409 1.428 . S
C415 N414 1.351 1_455 S
C415 C416 1.434 . S
C416 C407 1.429 . S
C416 N413 1.350 . S
C416 C415 1.434 . S
C417 C418 1.369 . S
C417 C419 1.419 . S
C417 H421 0.930 . S
C418 C417 1.369 . S
C418 C427 1.429 . S
C419 C417 1.419 . S
C419 C420 1.363 . S
C419 H422 0.929 . S
C420 C419 1.363 . S
C420 C426 1.428 . S
H421 C417 0.930 . S
H422 C419 0.929 . S
S423 N424 1.613 . S
S423 N425 1.610 . S
N424 S423 1.613 . S
N424 C427 1.350 . S
N425 S423 1.610 . S
N425 C426 1.351 . S
C426 C420 1.428 . S
C426 N425 1.351 . S
C426 C427 1.434 . S
C427 C418 1.429 . S
C427 N424 1.350 . S
C427 C426 1.434 . S
C428 C429 1.369 1_565 S
C428 C430 1.419 . S
C428 H432 0.930 . S
C429 C428 1.369 1_545 S
C429 C438 1.429 . S
C430 C428 1.419 . S
C430 C431 1.363 . S
C430 H433 0.929 . S
C431 C430 1.363 . S
C431 C437 1.428 1_565 S
H432 C428 0.930 . S
H433 C430 0.929 . S
S434 N435 1.613 . S
S434 N436 1.610 . S
N435 S434 1.613 . S
N435 C438 1.350 . S
N436 S434 1.610 . S
N436 C437 1.351 . S
C437 C431 1.428 1_545 S
C437 N436 1.351 . S
C437 C438 1.434 . S
C438 C429 1.429 . S
C438 N435 1.350 . S
C438 C437 1.434 . S
C439 C440 1.369 1_655 S
C439 C441 1.419 . S
C439 H443 0.930 . S
C440 C439 1.369 1_455 S
C440 C449 1.429 . S
C441 C439 1.419 . S
C441 C442 1.363 . S
C441 H444 0.929 . S
C442 C441 1.363 . S
C442 C448 1.428 1_655 S
H443 C439 0.930 . S
H444 C441 0.929 . S
S445 N446 1.613 . S
S445 N447 1.610 . S
N446 S445 1.613 . S
N446 C449 1.350 . S
N447 S445 1.610 . S
N447 C448 1.351 . S
C448 C442 1.428 1_455 S
C448 N447 1.351 . S
C448 C449 1.434 . S
C449 C440 1.429 . S
C449 N446 1.350 . S
C449 C448 1.434 . S
C450 C451 1.369 . S
C450 C452 1.419 . S
C450 H454 0.930 . S
C451 C450 1.369 . S
C451 C460 1.429 . S
C452 C450 1.419 . S
C452 C453 1.363 . S
C452 H455 0.929 . S
C453 C452 1.363 . S
C453 C459 1.428 . S
H454 C450 0.930 . S
H455 C452 0.929 . S
S456 N457 1.613 . S
S456 N458 1.610 . S
N457 S456 1.613 . S
N457 C460 1.350 . S
N458 S456 1.610 . S
N458 C459 1.351 . S
C459 C453 1.428 . S
C459 N458 1.351 . S
C459 C460 1.434 . S
C460 C451 1.429 . S
C460 N457 1.350 . S
C460 C459 1.434 . S
C461 C462 1.369 . S
C461 C463 1.419 . S
C461 H465 0.930 . S
C462 C461 1.369 . S
C462 C471 1.429 . S
C463 C461 1.419 . S
C463 C464 1.363 . S
C463 H466 0.929 . S
C464 C463 1.363 . S
C464 C470 1.428 . S
H465 C461 0.930 . S
H466 C463 0.929 . S
S467 N468 1.613 . S
S467 N469 1.610 . S
N468 S467 1.613 . S
N468 C471 1.350 . S
N469 S467 1.610 . S
N469 C470 1.351 . S
C470 C464 1.428 . S
C470 N469 1.351 . S
C470 C471 1.434 . S
C471 C462 1.429 . S
C471 N468 1.350 . S
C471 C470 1.434 . S
C472 C473 1.369 . S
C472 C474 1.419 . S
C472 H476 0.930 . S
C473 C472 1.369 . S
C473 C482 1.429 . S
C474 C472 1.419 . S
C474 C475 1.363 . S
C474 H477 0.929 . S
C475 C474 1.363 . S
C475 C481 1.428 . S
H476 C472 0.930 . S
H477 C474 0.929 . S
S478 N479 1.613 . S
S478 N480 1.610 . S
N479 S478 1.613 . S
N479 C482 1.350 . S
N480 S478 1.610 . S
N480 C481 1.351 . S
C481 C475 1.428 . S
C481 N480 1.351 . S
C481 C482 1.434 . S
C482 C473 1.429 . S
C482 N479 1.350 . S
C482 C481 1.434 . S
C483 C484 1.369 . S
C483 C485 1.419 . S
C483 H487 0.930 . S
C484 C483 1.369 . S
C484 C493 1.429 . S
C485 C483 1.419 . S
C485 C486 1.363 . S
C485 H488 0.929 . S
C486 C485 1.363 . S
C486 C492 1.428 . S
H487 C483 0.930 . S
H488 C485 0.929 . S
S489 N490 1.613 . S
S489 N491 1.610 . S
N490 S489 1.613 . S
N490 C493 1.350 . S
N491 S489 1.610 . S
N491 C492 1.351 . S
C492 C486 1.428 . S
C492 N491 1.351 . S
C492 C493 1.434 . S
C493 C484 1.429 . S
C493 N490 1.350 . S
C493 C492 1.434 . S
C494 C495 1.369 . S
C494 C496 1.419 . S
C494 H498 0.930 . S
C495 C494 1.369 . S
C495 C504 1.429 . S
C496 C494 1.419 . S
C496 C497 1.363 . S
C496 H499 0.929 . S
C497 C496 1.363 . S
C497 C503 1.428 . S
H498 C494 0.930 . S
H499 C496 0.929 . S
S500 N501 1.613 . S
S500 N502 1.610 . S
N501 S500 1.613 . S
N501 C504 1.350 . S
N502 S500 1.610 . S
N502 C503 1.351 . S
C503 C497 1.428 . S
C503 N502 1.351 . S
C503 C504 1.434 . S
C504 C495 1.429 . S
C504 N501 1.350 . S
C504 C503 1.434 . S
C505 C506 1.369 . S
C505 C507 1.419 . S
C505 H509 0.930 . S
C506 C505 1.369 . S
C506 C515 1.429 . S
C507 C505 1.419 . S
C507 C508 1.363 . S
C507 H510 0.929 . S
C508 C507 1.363 . S
C508 C514 1.428 . S
H509 C505 0.930 . S
H510 C507 0.929 . S
S511 N512 1.613 . S
S511 N513 1.610 . S
N512 S511 1.613 . S
N512 C515 1.350 . S
N513 S511 1.610 . S
N513 C514 1.351 . S
C514 C508 1.428 . S
C514 N513 1.351 . S
C514 C515 1.434 . S
C515 C506 1.429 . S
C515 N512 1.350 . S
C515 C514 1.434 . S
C516 C517 1.369 . S
C516 C518 1.419 . S
C516 H520 0.930 . S
C517 C516 1.369 . S
C517 C526 1.429 . S
C518 C516 1.419 . S
C518 C519 1.363 . S
C518 H521 0.929 . S
C519 C518 1.363 . S
C519 C525 1.428 . S
H520 C516 0.930 . S
H521 C518 0.929 . S
S522 N523 1.613 . S
S522 N524 1.610 . S
N523 S522 1.613 . S
N523 C526 1.350 . S
N524 S522 1.610 . S
N524 C525 1.351 . S
C525 C519 1.428 . S
C525 N524 1.351 . S
C525 C526 1.434 . S
C526 C517 1.429 . S
C526 N523 1.350 . S
C526 C525 1.434 . S
C527 C528 1.369 . S
C527 C529 1.419 . S
C527 H531 0.930 . S
C528 C527 1.369 . S
C528 C537 1.429 . S
C529 C527 1.419 . S
C529 C530 1.363 . S
C529 H532 0.929 . S
C530 C529 1.363 . S
C530 C536 1.428 . S
H531 C527 0.930 . S
H532 C529 0.929 . S
S533 N534 1.613 . S
S533 N535 1.610 . S
N534 S533 1.613 . S
N534 C537 1.350 . S
N535 S533 1.610 . S
N535 C536 1.351 . S
C536 C530 1.428 . S
C536 N535 1.351 . S
C536 C537 1.434 . S
C537 C528 1.429 . S
C537 N534 1.350 . S
C537 C536 1.434 . S
C538 C539 1.369 . S
C538 C540 1.419 . S
C538 H542 0.930 . S
C539 C538 1.369 . S
C539 C548 1.429 . S
C540 C538 1.419 . S
C540 C541 1.363 . S
C540 H543 0.929 . S
C541 C540 1.363 . S
C541 C547 1.428 . S
H542 C538 0.930 . S
H543 C540 0.929 . S
S544 N545 1.613 . S
S544 N546 1.610 . S
N545 S544 1.613 . S
N545 C548 1.350 . S
N546 S544 1.610 . S
N546 C547 1.351 . S
C547 C541 1.428 . S
C547 N546 1.351 . S
C547 C548 1.434 . S
C548 C539 1.429 . S
C548 N545 1.350 . S
C548 C547 1.434 . S
C549 C550 1.369 . S
C549 C551 1.419 . S
C549 H553 0.930 . S
C550 C549 1.369 . S
C550 C559 1.429 . S
C551 C549 1.419 . S
C551 C552 1.363 . S
C551 H554 0.929 . S
C552 C551 1.363 . S
C552 C558 1.428 . S
H553 C549 0.930 . S
H554 C551 0.929 . S
S555 N556 1.613 . S
S555 N557 1.610 . S
N556 S555 1.613 . S
N556 C559 1.350 . S
N557 S555 1.610 . S
N557 C558 1.351 . S
C558 C552 1.428 . S
C558 N557 1.351 . S
C558 C559 1.434 . S
C559 C550 1.429 . S
C559 N556 1.350 . S
C559 C558 1.434 . S
C560 C561 1.369 . S
C560 C562 1.419 . S
C560 H564 0.930 . S
C561 C560 1.369 . S
C561 C570 1.429 . S
C562 C560 1.419 . S
C562 C563 1.363 . S
C562 H565 0.929 . S
C563 C562 1.363 . S
C563 C569 1.428 . S
H564 C560 0.930 . S
H565 C562 0.929 . S
S566 N567 1.613 . S
S566 N568 1.610 . S
N567 S566 1.613 . S
N567 C570 1.350 . S
N568 S566 1.610 . S
N568 C569 1.351 . S
C569 C563 1.428 . S
C569 N568 1.351 . S
C569 C570 1.434 . S
C570 C561 1.429 . S
C570 N567 1.350 . S
C570 C569 1.434 . S
C571 C572 1.369 . S
C571 C573 1.419 . S
C571 H575 0.930 . S
C572 C571 1.369 . S
C572 C581 1.429 . S
C573 C571 1.419 . S
C573 C574 1.363 . S
C573 H576 0.929 . S
C574 C573 1.363 . S
C574 C580 1.428 . S
H575 C571 0.930 . S
H576 C573 0.929 . S
S577 N578 1.613 . S
S577 N579 1.610 . S
N578 S577 1.613 . S
N578 C581 1.350 . S
N579 S577 1.610 . S
N579 C580 1.351 . S
C580 C574 1.428 . S
C580 N579 1.351 . S
C580 C581 1.434 . S
C581 C572 1.429 . S
C581 N578 1.350 . S
C581 C580 1.434 . S
C582 C583 1.369 . S
C582 C584 1.419 . S
C582 H586 0.930 . S
C583 C582 1.369 . S
C583 C592 1.429 . S
C584 C582 1.419 . S
C584 C585 1.363 . S
C584 H587 0.929 . S
C585 C584 1.363 . S
C585 C591 1.428 . S
H586 C582 0.930 . S
H587 C584 0.929 . S
S588 N589 1.613 . S
S588 N590 1.610 . S
N589 S588 1.613 . S
N589 C592 1.350 . S
N590 S588 1.610 . S
N590 C591 1.351 . S
C591 C585 1.428 . S
C591 N590 1.351 . S
C591 C592 1.434 . S
C592 C583 1.429 . S
C592 N589 1.350 . S
C592 C591 1.434 . S
C593 C594 1.369 . S
C593 C595 1.419 1_545 S
C593 H597 0.930 . S
C594 C593 1.369 . S
C594 C603 1.429 1_545 S
C595 C593 1.419 1_565 S
C595 C596 1.363 . S
C595 H598 0.929 . S
C596 C595 1.363 . S
C596 C602 1.428 . S
H597 C593 0.930 . S
H598 C595 0.929 . S
S599 N600 1.613 . S
S599 N601 1.610 . S
N600 S599 1.613 . S
N600 C603 1.350 . S
N601 S599 1.610 . S
N601 C602 1.351 . S
C602 C596 1.428 . S
C602 N601 1.351 . S
C602 C603 1.434 . S
C603 C594 1.429 1_565 S
C603 N600 1.350 . S
C603 C602 1.434 . S
C604 C605 1.369 . S
C604 C606 1.419 1_455 S
C604 H608 0.930 . S
C605 C604 1.369 . S
C605 C614 1.429 . S
C606 C604 1.419 1_655 S
C606 C607 1.363 . S
C606 H609 0.929 . S
C607 C606 1.363 . S
C607 C613 1.428 1_655 S
H608 C604 0.930 . S
H609 C606 0.929 . S
S610 N611 1.613 . S
S610 N612 1.610 . S
N611 S610 1.613 . S
N611 C614 1.350 . S
N612 S610 1.610 . S
N612 C613 1.351 . S
C613 C607 1.428 1_455 S
C613 N612 1.351 . S
C613 C614 1.434 . S
C614 C605 1.429 . S
C614 N611 1.350 . S
C614 C613 1.434 . S
C615 C616 1.369 1_554 S
C615 C617 1.419 . S
C615 H619 0.930 . S
C616 C615 1.369 1_556 S
C616 C625 1.429 . S
C617 C615 1.419 . S
C617 C618 1.363 . S
C617 H620 0.929 . S
C618 C617 1.363 . S
C618 C624 1.428 1_554 S
H619 C615 0.930 . S
H620 C617 0.929 . S
S621 N622 1.613 . S
S621 N623 1.610 . S
N622 S621 1.613 . S
N622 C625 1.350 . S
N623 S621 1.610 . S
N623 C624 1.351 . S
C624 C618 1.428 1_556 S
C624 N623 1.351 . S
C624 C625 1.434 . S
C625 C616 1.429 . S
C625 N622 1.350 . S
C625 C624 1.434 . S
C626 C627 1.369 1_554 S
C626 C628 1.419 1_565 S
C626 H630 0.930 . S
C627 C626 1.369 1_556 S
C627 C636 1.429 1_565 S
C628 C626 1.419 1_545 S
C628 C629 1.363 . S
C628 H631 0.929 . S
C629 C628 1.363 . S
C629 C635 1.428 1_554 S
H630 C626 0.930 . S
H631 C628 0.929 . S
S632 N633 1.613 . S
S632 N634 1.610 . S
N633 S632 1.613 . S
N633 C636 1.350 . S
N634 S632 1.610 . S
N634 C635 1.351 . S
C635 C629 1.428 1_556 S
C635 N634 1.351 . S
C635 C636 1.434 . S
C636 C627 1.429 1_545 S
C636 N633 1.350 . S
C636 C635 1.434 . S
C637 C638 1.369 1_554 S
C637 C639 1.419 1_455 S
C637 H641 0.930 . S
C638 C637 1.369 1_556 S
C638 C647 1.429 . S
C639 C637 1.419 1_655 S
C639 C640 1.363 . S
C639 H642 0.929 . S
C640 C639 1.363 . S
C640 C646 1.428 1_554 S
H641 C637 0.930 . S
H642 C639 0.929 . S
S643 N644 1.613 . S
S643 N645 1.610 1_455 S
N644 S643 1.613 . S
N644 C647 1.350 . S
N645 S643 1.610 1_655 S
N645 C646 1.351 . S
C646 C640 1.428 1_556 S
C646 N645 1.351 . S
C646 C647 1.434 1_655 S
C647 C638 1.429 . S
C647 N644 1.350 . S
C647 C646 1.434 1_455 S
C253 C9 1.311 . S
C255 C205 1.306 1_554 S
C264 C168 1.195 . S
C266 C14 1.198 . S
C275 C28 1.274 . S
C277 C191 1.264 1_554 S
C286 C93 1.317 . S
C288 C37 1.314 . S
C297 C107 1.228 . S
C299 C0 1.228 . S
C308 C121 1.276 . S
C310 C23 1.273 . S
C319 C47 1.223 . S
C321 C163 1.220 1_556 S
C330 C137 1.153 . S
C332 C67 1.152 . S
C341 C151 1.137 . S
C343 C70 1.135 . S
C352 C79 1.238 . S
C354 C215 1.247 . S
C363 C53 1.119 . S
C365 C235 1.122 . S
C374 C238 1.182 . S
C376 C61 1.187 . S
C385 C177 1.291 . S
C387 C112 1.296 . S
C396 C84 1.207 . S
C398 C182 1.209 . S
C407 C196 1.227 . S
C409 C98 1.229 1_455 S
C418 C247 1.201 . S
C420 C131 1.209 . S
C429 C145 1.186 . S
C431 C221 1.183 . S
C440 C229 1.190 . S
C442 C154 1.185 . S
C451 C219 1.881 . S
C453 C5 1.938 . S
C462 C25 1.854 . S
C464 C224 1.851 . S
C473 C39 2.006 . S
C475 C249 2.001 . S
C484 C33 1.918 . S
C486 C159 1.930 . S
C495 C126 1.994 . S
C497 C11 1.999 . S
C506 C19 1.809 . S
C508 C140 1.856 . S
C517 C89 1.878 . S
C519 C51 1.821 . S
C528 C103 1.809 . S
C530 C56 1.837 . S
C539 C81 2.011 . S
C541 C117 1.932 . S
C550 C75 1.922 . S
C552 C201 1.918 . S
C561 C42 1.916 . S
C563 C179 1.931 . S
C572 C65 1.771 . S
C574 C187 1.847 . S
C583 C123 1.989 . S
C585 C243 1.937 . S
C594 C95 2.009 . S
C596 C210 1.990 . S
C605 C233 1.736 . S
C607 C109 1.863 . S
C616 C173 1.876 . S
C618 C135 1.797 . S
C627 C193 1.864 . S
C629 C149 1.751 . S
C638 C207 2.006 . S
C640 C165 1.999 . S
