# Generated by pormake.
# Topology lon, (4)-cn, num edge types: 1
# Building blocks:
#     Node 0, Type 0, BuildingBlock: QUQFOY_clean_sbu_1, # of connection points: 4
#     Node 1, Type 0, BuildingBlock: QUQFOY_clean_sbu_1, # of connection points: 4
#     Node 2, Type 0, BuildingBlock: QUQFOY_clean_sbu_1, # of connection points: 4
#     Node 3, Type 0, BuildingBlock: QUQFOY_clean_sbu_1, # of connection points: 4
#     Edge 4, Type (0, 0), BuildingBlock: MIFKUJ_clean_linker_0, # of connection points: 2
#     Edge 5, Type (0, 0), BuildingBlock: MIFKUJ_clean_linker_0, # of connection points: 2
#     Edge 6, Type (0, 0), BuildingBlock: MIFKUJ_clean_linker_0, # of connection points: 2
#     Edge 7, Type (0, 0), BuildingBlock: MIFKUJ_clean_linker_0, # of connection points: 2
#     Edge 8, Type (0, 0), BuildingBlock: MIFKUJ_clean_linker_0, # of connection points: 2
#     Edge 9, Type (0, 0), BuildingBlock: MIFKUJ_clean_linker_0, # of connection points: 2
#     Edge 10, Type (0, 0), BuildingBlock: MIFKUJ_clean_linker_0, # of connection points: 2
#     Edge 11, Type (0, 0), BuildingBlock: MIFKUJ_clean_linker_0, # of connection points: 2
# Relax obj value: 0.208
# Max RMSD: 0.253
# Mean RMSD: 0.241
data_MOF--net-lon--node1-QUQFOY_clean_sbu_1--edge1-MIFKUJ_clean_linker_0
_symmetry_space_group_name_H-M    P1
_symmetry_Int_Tables_number       1
_symmetry_cell_setting            triclinic
loop_
_symmetry_equiv_pos_as_xyz
'x, y, z'
_cell_length_a     28.261205
_cell_length_b     33.237344
_cell_length_c     58.115952
_cell_angle_alpha  96.935476
_cell_angle_beta   89.978824
_cell_angle_gamma 115.04195
loop_
_atom_site_label
_atom_site_type_symbol
_atom_site_fract_x
_atom_site_fract_y
_atom_site_fract_z
_atom_type_partial_charge
O0 O 0.2949 0.62576 0.07734 0.0
Cd1 Cd 0.36942 0.66486 0.09154 0.0
Cd2 Cd 0.37172 0.711 0.05329 0.0
O3 O 0.2927 0.66998 0.05231 0.0
O4 O 0.37101 0.64005 0.12091 0.0
O5 O 0.37865 0.70891 0.12033 0.0
C6 C 0.37623 0.67764 0.13212 0.0
C7 C 0.39656 0.78316 0.04348 0.0
C8 C 0.2701 0.63513 0.06221 0.0
C9 C 0.44056 0.6621 0.05368 0.0
O10 O 0.42022 0.68141 0.04207 0.0
O11 O 0.42874 0.65604 0.07447 0.0
O12 O 0.37463 0.74811 0.02838 0.0
O13 O 0.40399 0.77752 0.06455 0.0
O14 O 0.63533 0.24063 0.56738 0.0
Cd15 Cd 0.67537 0.30375 0.58517 0.0
Cd16 Cd 0.61198 0.32463 0.55499 0.0
O17 O 0.5804 0.25586 0.547 0.0
O18 O 0.70667 0.29726 0.61434 0.0
O19 O 0.6438 0.32045 0.61365 0.0
C20 C 0.67497 0.31021 0.62544 0.0
C21 C 0.55669 0.35888 0.54851 0.0
C22 C 0.59645 0.22799 0.55292 0.0
C23 C 0.73097 0.36861 0.55244 0.0
O24 O 0.68589 0.36231 0.54495 0.0
O25 O 0.73621 0.34914 0.56911 0.0
O26 O 0.57232 0.33933 0.53181 0.0
O27 O 0.57045 0.35737 0.56944 0.0
O28 O 0.38714 0.75432 0.43321 0.0
Cd29 Cd 0.35924 0.6882 0.41877 0.0
Cd30 Cd 0.28241 0.67746 0.44861 0.0
O31 O 0.31555 0.74616 0.45109 0.0
O32 O 0.39506 0.6879 0.38935 0.0
O33 O 0.30992 0.66869 0.3905 0.0
C34 C 0.35037 0.67536 0.37842 0.0
C35 C 0.19191 0.63976 0.44873 0.0
C36 C 0.36059 0.77121 0.44502 0.0
C37 C 0.35381 0.63454 0.45717 0.0
O38 O 0.32048 0.6477 0.46553 0.0
O39 O 0.37167 0.64426 0.4375 0.0
O40 O 0.21943 0.66602 0.46661 0.0
O41 O 0.21547 0.63565 0.43017 0.0
O42 O 0.66126 0.36685 0.92628 0.0
Cd43 Cd 0.70015 0.32987 0.91273 0.0
Cd44 Cd 0.65915 0.28379 0.95095 0.0
O45 O 0.622 0.3255 0.95357 0.0
O46 O 0.72434 0.35354 0.8829 0.0
O47 O 0.66766 0.28358 0.88455 0.0
C48 C 0.69423 0.31466 0.8722 0.0
C49 C 0.61182 0.21056 0.95908 0.0
C50 C 0.6304 0.3587 0.94276 0.0
C51 C 0.77597 0.33446 0.95057 0.0
O52 O 0.73687 0.31307 0.96197 0.0
O53 O 0.76947 0.34181 0.93011 0.0
O54 O 0.62447 0.24445 0.97493 0.0
O55 O 0.62552 0.21793 0.93825 0.0
H56 H 0.42179 0.64504 0.16128 0.0
H57 H 0.41503 0.64639 0.20321 0.0
H58 H 0.32117 0.72043 0.20223 0.0
H59 H 0.33131 0.72183 0.16036 0.0
H60 H 0.37651 0.74856 0.23976 0.0
H61 H 0.26762 0.60123 0.20375 0.0
H62 H 0.24392 0.53016 0.17796 0.0
H63 H 0.35628 0.50383 0.21554 0.0
H64 H 0.38116 0.57505 0.24137 0.0
H65 H 0.2767 0.68223 0.35066 0.0
H66 H 0.27681 0.68303 0.30842 0.0
H67 H 0.41571 0.65966 0.30635 0.0
H68 H 0.4167 0.66 0.34849 0.0
H69 H 0.32799 0.60423 0.27069 0.0
H70 H 0.43689 0.75816 0.30542 0.0
H71 H 0.45181 0.8273 0.33141 0.0
H72 H 0.32473 0.83705 0.29579 0.0
H73 H 0.30859 0.76754 0.2698 0.0
C74 C 0.4004 0.66217 0.17012 0.0
C75 C 0.37685 0.68314 0.15767 0.0
C76 C 0.396 0.66251 0.19405 0.0
C77 C 0.36595 0.68209 0.20588 0.0
C78 C 0.34418 0.70473 0.19355 0.0
C79 C 0.35001 0.7056 0.16965 0.0
C80 C 0.35669 0.67813 0.23093 0.0
C81 C 0.36506 0.71677 0.24637 0.0
C82 C 0.34159 0.6367 0.23979 0.0
C83 C 0.32653 0.59367 0.22438 0.0
C84 C 0.28749 0.58041 0.20643 0.0
C85 C 0.27382 0.54008 0.19181 0.0
C86 C 0.29865 0.51254 0.19508 0.0
C87 C 0.3371 0.52521 0.21302 0.0
C88 C 0.35096 0.56553 0.22767 0.0
C89 C 0.30687 0.67675 0.34113 0.0
C90 C 0.34675 0.67112 0.35282 0.0
C91 C 0.30699 0.67741 0.31709 0.0
C92 C 0.34642 0.6716 0.3044 0.0
C93 C 0.38502 0.66422 0.3159 0.0
C94 C 0.38555 0.6645 0.33994 0.0
C95 C 0.34875 0.67459 0.2792 0.0
C96 C 0.33893 0.63574 0.26384 0.0
C97 C 0.36109 0.71545 0.27038 0.0
C98 C 0.37116 0.7574 0.28586 0.0
C99 C 0.41183 0.77482 0.30328 0.0
C100 C 0.42057 0.81412 0.31798 0.0
C101 C 0.38913 0.83648 0.31531 0.0
C102 C 0.34899 0.81965 0.29787 0.0
C103 C 0.34006 0.78033 0.28315 0.0
H104 H 0.39596 0.8669 0.3267 0.0
H105 H 0.28803 0.48134 0.18374 0.0
H106 H 0.58973 0.28866 0.65163 0.0
H107 H 0.58699 0.2834 0.6933 0.0
H108 H 0.75514 0.33176 0.69816 0.0
H109 H 0.75713 0.33355 0.65628 0.0
H110 H 0.7203 0.26986 0.72197 0.0
H111 H 0.6814 0.39657 0.71848 0.0
H112 H 0.6338 0.4379 0.70547 0.0
H113 H 0.49218 0.34512 0.73127 0.0
H114 H 0.53883 0.30292 0.74419 0.0
H115 H 0.76627 0.35986 0.84271 0.0
H116 H 0.75668 0.35205 0.80036 0.0
H117 H 0.60136 0.2466 0.80138 0.0
H118 H 0.61125 0.2533 0.84393 0.0
H119 H 0.62162 0.32997 0.77532 0.0
H120 H 0.6706 0.20834 0.78163 0.0
H121 H 0.72621 0.17547 0.79641 0.0
H122 H 0.85959 0.2709 0.76673 0.0
H123 H 0.8049 0.30478 0.75208 0.0
C124 C 0.62603 0.29852 0.66173 0.0
C125 C 0.67365 0.31165 0.65086 0.0
C126 C 0.62454 0.29573 0.68558 0.0
C127 C 0.67096 0.30776 0.69915 0.0
C128 C 0.71868 0.32197 0.68821 0.0
C129 C 0.71991 0.32331 0.66429 0.0
C130 C 0.67012 0.30421 0.72451 0.0
C131 C 0.69901 0.2835 0.73354 0.0
C132 C 0.64156 0.32099 0.73982 0.0
C133 C 0.61347 0.34632 0.73207 0.0
C134 C 0.64002 0.38481 0.72123 0.0
C135 C 0.61323 0.40841 0.71389 0.0
C136 C 0.55997 0.39406 0.71747 0.0
C137 C 0.53342 0.35615 0.72846 0.0
C138 C 0.56001 0.3324 0.73582 0.0
C139 C 0.73027 0.33465 0.83392 0.0
C140 C 0.6895 0.30713 0.84657 0.0
C141 C 0.72489 0.33027 0.80976 0.0
C142 C 0.67832 0.29887 0.79787 0.0
C143 C 0.63758 0.27102 0.81036 0.0
C144 C 0.64339 0.2747 0.83457 0.0
C145 C 0.67229 0.29649 0.77241 0.0
C146 C 0.64228 0.3161 0.76348 0.0
C147 C 0.7009 0.27988 0.75729 0.0
C148 C 0.73374 0.25934 0.76595 0.0
C149 C 0.71188 0.22258 0.77845 0.0
C150 C 0.74321 0.2037 0.78676 0.0
C151 C 0.79642 0.22115 0.78256 0.0
C152 C 0.81838 0.25744 0.76999 0.0
C153 C 0.78722 0.27645 0.76166 0.0
H154 H 0.82061 0.20649 0.78901 0.0
H155 H 0.5393 0.41239 0.71178 0.0
H156 H 0.47557 0.60588 0.07058 0.0
H157 H 0.51658 0.56269 0.04934 0.0
H158 H 0.52111 0.62855 0.98921 0.0
H159 H 0.4783 0.67109 0.01022 0.0
H160 H 0.48171 0.54267 0.97683 0.0
H161 H 0.63492 0.64644 0.02109 0.0
H162 H 0.68985 0.69243 0.05586 0.0
H163 H 0.66493 0.57341 0.08564 0.0
H164 H 0.60921 0.52667 0.0512 0.0
H165 H 0.62975 0.42798 0.92166 0.0
H166 H 0.60301 0.48612 0.93816 0.0
H167 H 0.55704 0.42105 0.99959 0.0
H168 H 0.58286 0.36269 0.98325 0.0
H169 H 0.62689 0.51461 0.00783 0.0
H170 H 0.46558 0.41274 0.96424 0.0
H171 H 0.4125 0.36834 0.92873 0.0
H172 H 0.45774 0.488 0.89655 0.0
H173 H 0.51172 0.53306 0.93179 0.0
C174 C 0.48616 0.61192 0.053 0.0
C175 C 0.47339 0.64181 0.04207 0.0
C176 C 0.5099 0.58727 0.04087 0.0
C177 C 0.52235 0.59257 0.0177 0.0
C178 C 0.5118 0.62386 0.00706 0.0
C179 C 0.48751 0.64827 0.01913 0.0
C180 C 0.54199 0.56254 0.00416 0.0
C181 C 0.51428 0.53735 0.98337 0.0
C182 C 0.58402 0.55507 0.0128 0.0
C183 C 0.61757 0.58304 0.03359 0.0
C184 C 0.64082 0.63005 0.03512 0.0
C185 C 0.67216 0.65626 0.05477 0.0
C186 C 0.6808 0.63585 0.07297 0.0
C187 C 0.65819 0.58917 0.07154 0.0
C188 C 0.62679 0.5628 0.05193 0.0
C189 C 0.61325 0.42572 0.93853 0.0
C190 C 0.60853 0.39076 0.95116 0.0
C191 C 0.59808 0.45894 0.94792 0.0
C192 C 0.57844 0.45787 0.97011 0.0
C193 C 0.57241 0.42247 0.98247 0.0
C194 C 0.58688 0.38901 0.97301 0.0
C195 C 0.56583 0.4944 0.98099 0.0
C196 C 0.59496 0.5207 0.00121 0.0
C197 C 0.52559 0.50326 0.9717 0.0
C198 C 0.49321 0.47618 0.95053 0.0
C199 C 0.46465 0.42953 0.9495 0.0
C200 C 0.4343 0.40425 0.92945 0.0
C201 C 0.4319 0.42531 0.91036 0.0
C202 C 0.45973 0.47172 0.91133 0.0
C203 C 0.49018 0.49714 0.93134 0.0
H204 H 0.40836 0.40569 0.89485 0.0
H205 H 0.70508 0.65621 0.08816 0.0
H206 H 0.14046 0.5496 0.43874 0.0
H207 H 0.05562 0.50246 0.45253 0.0
H208 H 0.03291 0.62065 0.47726 0.0
H209 H 0.11973 0.66767 0.46511 0.0
H210 H 0.01599 0.57623 0.50975 0.0
H211 H 0.95452 0.53372 0.43019 0.0
H212 H 0.95402 0.50698 0.38868 0.0
H213 H 0.94406 0.38168 0.40587 0.0
H214 H 0.94517 0.40786 0.44752 0.0
H215 H 0.73768 0.43276 0.52588 0.0
H216 H 0.8126 0.47828 0.5049 0.0
H217 H 0.90258 0.4144 0.53074 0.0
H218 H 0.82819 0.36934 0.55233 0.0
H219 H 0.88024 0.43095 0.47207 0.0
H220 H 0.96201 0.4895 0.55382 0.0
H221 H 0.95495 0.51913 0.59408 0.0
H222 H 0.91611 0.61847 0.56907 0.0
H223 H 0.92224 0.58888 0.52865 0.0
C224 C 0.11645 0.56524 0.44646 0.0
C225 C 0.1361 0.61202 0.45083 0.0
C226 C 0.06783 0.53831 0.45432 0.0
C227 C 0.03741 0.55782 0.46594 0.0
C228 C 0.05566 0.60468 0.46857 0.0
C229 C 0.10496 0.63156 0.46144 0.0
C230 C 0.99019 0.53022 0.47783 0.0
C231 C 0.98623 0.54478 0.50121 0.0
C232 C 0.95108 0.48881 0.46705 0.0
C233 C 0.95037 0.47293 0.442 0.0
C234 C 0.95261 0.50059 0.42514 0.0
C235 C 0.95214 0.4855 0.40158 0.0
C236 C 0.94913 0.4427 0.39465 0.0
C237 C 0.94643 0.41484 0.41127 0.0
C238 C 0.9469 0.42976 0.43485 0.0
C239 C 0.7735 0.42855 0.52723 0.0
C240 C 0.77718 0.3976 0.54083 0.0
C241 C 0.81609 0.45446 0.51519 0.0
C242 C 0.86275 0.44949 0.51634 0.0
C243 C 0.86673 0.41866 0.5298 0.0
C244 C 0.82438 0.39319 0.54218 0.0
C245 C 0.90751 0.47706 0.50359 0.0
C246 C 0.91051 0.46252 0.48021 0.0
C247 C 0.94524 0.51885 0.51409 0.0
C248 C 0.94192 0.53668 0.53831 0.0
C249 C 0.95146 0.51735 0.55694 0.0
C250 C 0.94775 0.5342 0.57977 0.0
C251 C 0.93491 0.57056 0.58413 0.0
C252 C 0.92592 0.59024 0.56567 0.0
C253 C 0.9295 0.57345 0.54281 0.0
H254 H 0.93208 0.58358 0.60182 0.0
H255 H 0.94878 0.43109 0.3764 0.0
H256 H 0.63013 0.13751 0.94491 0.0
H257 H 0.59095 0.06468 0.95923 0.0
H258 H 0.48961 0.10797 1.00052 0.0
H259 H 0.53198 0.18178 0.98765 0.0
H260 H 0.52029 0.0686 0.02544 0.0
H261 H 0.44884 0.02741 0.94704 0.0
H262 H 0.44991 0.02192 0.90435 0.0
H263 H 0.54341 0.9483 0.90414 0.0
H264 H 0.54342 0.95381 0.94686 0.0
H265 H 0.35401 0.80637 0.00844 0.0
H266 H 0.38551 0.87917 0.9945 0.0
H267 H 0.51256 0.93308 0.04702 0.0
H268 H 0.47891 0.86078 0.06191 0.0
H269 H 0.46557 0.92335 0.97497 0.0
H270 H 0.55848 0.04418 0.06015 0.0
H271 H 0.54333 0.04891 0.102 0.0
H272 H 0.38043 0.96185 0.08711 0.0
H273 H 0.39447 0.95705 0.04517 0.0
C274 C 0.59904 0.13106 0.95683 0.0
C275 C 0.58377 0.16492 0.96514 0.0
C276 C 0.57642 0.08937 0.96496 0.0
C277 C 0.5366 0.08026 0.9808 0.0
C278 C 0.52039 0.11397 0.98847 0.0
C279 C 0.54428 0.15604 0.98099 0.0
C280 C 0.51328 0.03655 0.99022 0.0
C281 C 0.50808 0.03687 0.01431 0.0
C282 C 0.49652 0.99484 0.97586 0.0
C283 C 0.49652 0.99138 0.95016 0.0
C284 C 0.4699 0.0103 0.9379 0.0
C285 C 0.47028 0.00715 0.9137 0.0
C286 C 0.49682 0.98487 0.90155 0.0
C287 C 0.52292 0.96559 0.91358 0.0
C288 C 0.5227 0.96867 0.93778 0.0
C289 C 0.3882 0.83401 0.01722 0.0
C290 C 0.41388 0.82812 0.03633 0.0
C291 C 0.40641 0.87558 0.00916 0.0
C292 C 0.45135 0.91197 0.01971 0.0
C293 C 0.47709 0.90602 0.03886 0.0
C294 C 0.45799 0.86465 0.04734 0.0
C295 C 0.47197 0.95545 0.0101 0.0
C296 C 0.47726 0.95509 0.98603 0.0
C297 C 0.48656 0.997 0.02435 0.0
C298 C 0.47768 -0.0001 0.04954 0.0
C299 C 0.51941 0.02616 0.06581 0.0
C300 C 0.51102 0.02884 0.08955 0.0
C301 C 0.46099 0.00557 0.09722 0.0
C302 C 0.4192 0.97971 0.08116 0.0
C303 C 0.42736 0.97696 0.05741 0.0
H304 H 0.45459 0.00767 0.1156 0.0
H305 H 0.49707 0.98248 0.88282 0.0
H306 H 0.50762 0.39756 0.57862 0.0
H307 H 0.46664 0.44641 0.56927 0.0
H308 H 0.50218 0.42944 0.49762 0.0
H309 H 0.54153 0.38027 0.50648 0.0
H310 H 0.53889 0.52519 0.52534 0.0
H311 H 0.39101 0.37824 0.50215 0.0
H312 H 0.32509 0.30506 0.51062 0.0
H313 H 0.26726 0.37111 0.56381 0.0
H314 H 0.33345 0.44472 0.55585 0.0
H315 H 0.42563 0.60193 0.44502 0.0
H316 H 0.45565 0.55825 0.46696 0.0
H317 H 0.35381 0.56331 0.52143 0.0
H318 H 0.32288 0.60666 0.49942 0.0
H319 H 0.34887 0.48034 0.51171 0.0
H320 H 0.48294 0.62679 0.53026 0.0
H321 H 0.54854 0.7013 0.52346 0.0
H322 H 0.63373 0.64043 0.48282 0.0
H323 H 0.5682 0.56545 0.48906 0.0
C324 C 0.50597 0.40382 0.56085 0.0
C325 C 0.5278 0.38509 0.5433 0.0
C326 C 0.48268 0.43166 0.55557 0.0
C327 C 0.48174 0.44143 0.5328 0.0
C328 C 0.50269 0.42221 0.51529 0.0
C329 C 0.52499 0.39398 0.52041 0.0
C330 C 0.46133 0.47326 0.52691 0.0
C331 C 0.49738 0.5156 0.52238 0.0
C332 C 0.40722 0.46103 0.52388 0.0
C333 C 0.36764 0.41687 0.52866 0.0
C334 C 0.36467 0.37712 0.51584 0.0
C335 C 0.32715 0.33558 0.5205 0.0
C336 C 0.29215 0.33342 0.53782 0.0
C337 C 0.29449 0.37282 0.55046 0.0
C338 C 0.33199 0.41445 0.54588 0.0
C339 C 0.40959 0.59387 0.46167 0.0
C340 C 0.372 0.60797 0.47048 0.0
C341 C 0.427 0.56906 0.47426 0.0
C342 C 0.40753 0.55812 0.496 0.0
C343 C 0.3695 0.57159 0.50475 0.0
C344 C 0.35201 0.59644 0.49215 0.0
C345 C 0.42658 0.5319 0.5092 0.0
C346 C 0.39038 0.49064 0.51515 0.0
C347 C 0.4807 0.5454 0.51384 0.0
C348 C 0.52041 0.59043 0.51002 0.0
C349 C 0.51544 0.62925 0.51973 0.0
C350 C 0.55266 0.67158 0.51599 0.0
C351 C 0.59523 0.67559 0.50269 0.0
C352 C 0.60072 0.63726 0.49312 0.0
C353 C 0.56358 0.59483 0.49678 0.0
H354 H 0.62401 0.7084 0.49982 0.0
H355 H 0.2631 0.30123 0.54138 0.0
H356 H 0.21947 0.54753 0.06933 0.0
H357 H 0.13437 0.49216 0.0521 0.0
H358 H 0.11346 0.59446 0.02012 0.0
H359 H 0.19882 0.65005 0.03703 0.0
H360 H 0.02208 0.53439 0.03999 0.0
H361 H 0.15514 0.53359 0.98813 0.0
H362 H 0.2372 0.52824 0.97799 0.0
H363 H 0.17652 0.39561 0.99736 0.0
H364 H 0.09433 0.40047 0.00797 0.0
H365 H 0.869 0.3815 0.93167 0.0
H366 H 0.9535 0.42739 0.95253 0.0
H367 H 0.88751 0.3822 0.01665 0.0
H368 H 0.80282 0.33623 0.99602 0.0
H369 H 0.02243 0.41288 0.98125 0.0
H370 H 0.93134 0.47658 0.0575 0.0
H371 H 0.85014 0.48494 0.066 0.0
H372 H 0.82842 0.49713 0.99447 0.0
H373 H 0.90983 0.48951 0.98564 0.0
C374 C 0.19644 0.55844 0.05894 0.0
C375 C 0.21598 0.60312 0.05441 0.0
C376 C 0.14797 0.52673 0.04905 0.0
C377 C 0.11807 0.53928 0.03472 0.0
C378 C 0.13615 0.58424 0.03113 0.0
C379 C 0.18492 0.61587 0.04075 0.0
C380 C 0.06933 0.50515 0.02237 0.0
C381 C 0.02204 0.50763 0.02727 0.0
C382 C 0.06963 0.47069 0.00558 0.0
C383 C 0.11885 0.4676 0.99909 0.0
C384 C 0.15948 0.50345 0.99043 0.0
C385 C 0.20598 0.50048 0.98456 0.0
C386 C 0.21214 0.46166 0.98709 0.0
C387 C 0.17173 0.42569 0.99545 0.0
C388 C 0.12518 0.42852 0.00138 0.0
C389 C 0.87264 0.3806 0.95013 0.0
C390 C 0.82896 0.35563 0.96222 0.0
C391 C 0.92101 0.40676 0.962 0.0
C392 C 0.92638 0.40863 0.98614 0.0
C393 C 0.88386 0.38154 0.99803 0.0
C394 C 0.83554 0.35521 0.98618 0.0
C395 C 0.97501 0.44177 0.99907 0.0
C396 C 0.02234 0.43922 0.99422 0.0
C397 C 0.97485 0.47652 0.01572 0.0
C398 C 0.92632 0.48195 0.02089 0.0
C399 C 0.9093 0.4812 0.04362 0.0
C400 C 0.86324 0.4858 0.04849 0.0
C401 C 0.83404 0.4914 0.03077 0.0
C402 C 0.85096 0.49262 0.00816 0.0
C403 C 0.89702 0.48811 0.00321 0.0
H404 H 0.79836 0.4949 0.03457 0.0
H405 H 0.24816 0.45942 0.98253 0.0
H406 H 0.62216 0.15955 0.55992 0.0
H407 H 0.58273 0.0826 0.54028 0.0
H408 H 0.47326 0.1123 0.50203 0.0
H409 H 0.51278 0.18943 0.5213 0.0
H410 H 0.48578 0.01689 0.53912 0.0
H411 H 0.45066 0.05406 0.44753 0.0
H412 H 0.48839 0.1148 0.42314 0.0
H413 H 0.63774 0.16167 0.45989 0.0
H414 H 0.60109 0.10088 0.48427 0.0
H415 H 0.31512 0.81748 0.47132 0.0
H416 H 0.35563 0.8961 0.48817 0.0
H417 H 0.49791 0.9137 0.45457 0.0
H418 H 0.45757 0.83497 0.4374 0.0
H419 H 0.47392 0.98532 0.45309 0.0
H420 H 0.48987 0.89728 0.50974 0.0
H421 H 0.45769 0.83624 0.53411 0.0
H422 H 0.35836 0.89109 0.56748 0.0
H423 H 0.38942 0.95213 0.54305 0.0
C424 C 0.58959 0.14972 0.54739 0.0
C425 C 0.57082 0.18073 0.54209 0.0
C426 C 0.56708 0.10572 0.53622 0.0
C427 C 0.52558 0.09199 0.5195 0.0
C428 C 0.50586 0.12248 0.51459 0.0
C429 C 0.52837 0.1665 0.52572 0.0
C430 C 0.503 0.04574 0.50716 0.0
C431 C 0.48315 0.01 0.52032 0.0
C432 C 0.5003 0.03683 0.48263 0.0
C433 C 0.52296 0.07317 0.46786 0.0
C434 C 0.4916 0.07723 0.45033 0.0
C435 C 0.51279 0.11168 0.43653 0.0
C436 C 0.56539 0.14216 0.44001 0.0
C437 C 0.59696 0.13815 0.45726 0.0
C438 C 0.57598 0.10373 0.4711 0.0
C439 C 0.35485 0.83809 0.46728 0.0
C440 C 0.38333 0.81982 0.4532 0.0
C441 C 0.37795 0.88299 0.47698 0.0
C442 C 0.42995 0.91039 0.47288 0.0
C443 C 0.45774 0.89294 0.45798 0.0
C444 C 0.43467 0.84795 0.44825 0.0
C445 C 0.45603 0.95663 0.48506 0.0
C446 C 0.47648 0.9923 0.47188 0.0
C447 C 0.46009 0.96551 0.50959 0.0
C448 C 0.44162 0.92903 0.52442 0.0
C449 C 0.46088 0.89613 0.52215 0.0
C450 C 0.44289 0.86157 0.536 0.0
C451 C 0.40591 0.85973 0.5523 0.0
C452 C 0.38695 0.89252 0.55483 0.0
C453 C 0.40477 0.92713 0.541 0.0
H454 H 0.39203 0.83294 0.563 0.0
H455 H 0.5817 0.16883 0.42932 0.0
loop_
_geom_bond_atom_site_label_1
_geom_bond_atom_site_label_2
_geom_bond_distance
_geom_bond_site_symmetry_2
_ccdc_geom_bond_type
O0 Cd1 2.223 . S
O0 C8 1.315 . S
Cd1 O0 2.223 . S
Cd1 O4 2.297 . S
Cd1 O5 2.439 . S
Cd1 O11 2.240 . S
Cd2 O3 2.240 . S
Cd2 O10 2.223 . S
Cd2 O12 2.297 . S
Cd2 O13 2.439 . S
O3 Cd2 2.240 . S
O3 C8 1.279 . S
O4 Cd1 2.297 . S
O4 C6 1.247 . S
O5 Cd1 2.439 . S
O5 C6 1.208 . S
C6 O4 1.247 . S
C6 O5 1.208 . S
C7 O12 1.247 . S
C7 O13 1.208 . S
C8 O0 1.315 . S
C8 O3 1.279 . S
C9 O10 1.315 . S
C9 O11 1.279 . S
O10 Cd2 2.223 . S
O10 C9 1.315 . S
O11 Cd1 2.240 . S
O11 C9 1.279 . S
O12 Cd2 2.297 . S
O12 C7 1.247 . S
O13 Cd2 2.439 . S
O13 C7 1.208 . S
O14 Cd15 2.223 . S
O14 C22 1.315 . S
Cd15 O14 2.223 . S
Cd15 O18 2.297 . S
Cd15 O19 2.439 . S
Cd15 O25 2.240 . S
Cd16 O17 2.240 . S
Cd16 O24 2.223 . S
Cd16 O26 2.297 . S
Cd16 O27 2.439 . S
O17 Cd16 2.240 . S
O17 C22 1.279 . S
O18 Cd15 2.297 . S
O18 C20 1.247 . S
O19 Cd15 2.439 . S
O19 C20 1.208 . S
C20 O18 1.247 . S
C20 O19 1.208 . S
C21 O26 1.247 . S
C21 O27 1.208 . S
C22 O14 1.315 . S
C22 O17 1.279 . S
C23 O24 1.315 . S
C23 O25 1.279 . S
O24 Cd16 2.223 . S
O24 C23 1.315 . S
O25 Cd15 2.240 . S
O25 C23 1.279 . S
O26 Cd16 2.297 . S
O26 C21 1.247 . S
O27 Cd16 2.439 . S
O27 C21 1.208 . S
O28 Cd29 2.223 . S
O28 C36 1.315 . S
Cd29 O28 2.223 . S
Cd29 O32 2.297 . S
Cd29 O33 2.439 . S
Cd29 O39 2.240 . S
Cd30 O31 2.240 . S
Cd30 O38 2.223 . S
Cd30 O40 2.297 . S
Cd30 O41 2.439 . S
O31 Cd30 2.240 . S
O31 C36 1.279 . S
O32 Cd29 2.297 . S
O32 C34 1.247 . S
O33 Cd29 2.439 . S
O33 C34 1.208 . S
C34 O32 1.247 . S
C34 O33 1.208 . S
C35 O40 1.247 . S
C35 O41 1.208 . S
C36 O28 1.315 . S
C36 O31 1.279 . S
C37 O38 1.315 . S
C37 O39 1.279 . S
O38 Cd30 2.223 . S
O38 C37 1.315 . S
O39 Cd29 2.240 . S
O39 C37 1.279 . S
O40 Cd30 2.297 . S
O40 C35 1.247 . S
O41 Cd30 2.439 . S
O41 C35 1.208 . S
O42 Cd43 2.223 . S
O42 C50 1.315 . S
Cd43 O42 2.223 . S
Cd43 O46 2.297 . S
Cd43 O47 2.439 . S
Cd43 O53 2.240 . S
Cd44 O45 2.240 . S
Cd44 O52 2.223 . S
Cd44 O54 2.297 . S
Cd44 O55 2.439 . S
O45 Cd44 2.240 . S
O45 C50 1.279 . S
O46 Cd43 2.297 . S
O46 C48 1.247 . S
O47 Cd43 2.439 . S
O47 C48 1.208 . S
C48 O46 1.247 . S
C48 O47 1.208 . S
C49 O54 1.247 . S
C49 O55 1.208 . S
C50 O42 1.315 . S
C50 O45 1.279 . S
C51 O52 1.315 . S
C51 O53 1.279 . S
O52 Cd44 2.223 . S
O52 C51 1.315 . S
O53 Cd43 2.240 . S
O53 C51 1.279 . S
O54 Cd44 2.297 . S
O54 C49 1.247 . S
O55 Cd44 2.439 . S
O55 C49 1.208 . S
H56 C74 0.951 . S
H57 C76 0.951 . S
H58 C78 0.950 . S
H59 C79 0.950 . S
H60 C81 0.950 . S
H61 C84 0.950 . S
H62 C85 0.950 . S
H63 C87 0.950 . S
H64 C88 0.950 . S
H65 C89 0.951 . S
H66 C91 0.951 . S
H67 C93 0.950 . S
H68 C94 0.950 . S
H69 C96 0.950 . S
H70 C99 0.950 . S
H71 C100 0.950 . S
H72 C102 0.950 . S
H73 C103 0.950 . S
C74 H56 0.951 . S
C74 C75 1.366 . S
C74 C76 1.388 . S
C75 C74 1.366 . S
C75 C79 1.385 . S
C76 H57 0.951 . S
C76 C74 1.388 . S
C76 C77 1.366 . S
C77 C76 1.366 . S
C77 C78 1.414 . S
C77 C80 1.499 . S
C78 H58 0.950 . S
C78 C77 1.414 . S
C78 C79 1.374 . S
C79 H59 0.950 . S
C79 C75 1.385 . S
C79 C78 1.374 . S
C80 C77 1.499 . S
C80 C81 1.373 . S
C80 C82 1.389 . S
C81 H60 0.950 . S
C81 C80 1.373 . S
C81 C97 1.377 . S
C82 C80 1.389 . S
C82 C83 1.524 . S
C82 C96 1.377 . S
C83 C82 1.524 . S
C83 C84 1.397 . S
C83 C88 1.363 . S
C84 H61 0.950 . S
C84 C83 1.397 . S
C84 C85 1.334 . S
C85 H62 0.950 . S
C85 C84 1.334 . S
C85 C86 1.287 . S
C86 C85 1.287 . S
C86 C87 1.524 . S
C86 H105 0.913 . S
C87 H63 0.950 . S
C87 C86 1.524 . S
C87 C88 1.415 . S
C88 H64 0.950 . S
C88 C83 1.363 . S
C88 C87 1.415 . S
C89 H65 0.951 . S
C89 C90 1.366 . S
C89 C91 1.388 . S
C90 C89 1.366 . S
C90 C94 1.385 . S
C91 H66 0.951 . S
C91 C89 1.388 . S
C91 C92 1.366 . S
C92 C91 1.366 . S
C92 C93 1.414 . S
C92 C95 1.499 . S
C93 H67 0.950 . S
C93 C92 1.414 . S
C93 C94 1.374 . S
C94 H68 0.950 . S
C94 C90 1.385 . S
C94 C93 1.374 . S
C95 C92 1.499 . S
C95 C96 1.373 . S
C95 C97 1.389 . S
C96 H69 0.950 . S
C96 C82 1.377 . S
C96 C95 1.373 . S
C97 C81 1.377 . S
C97 C95 1.389 . S
C97 C98 1.524 . S
C98 C97 1.524 . S
C98 C99 1.397 . S
C98 C103 1.363 . S
C99 H70 0.950 . S
C99 C98 1.397 . S
C99 C100 1.334 . S
C100 H71 0.950 . S
C100 C99 1.334 . S
C100 C101 1.287 . S
C101 C100 1.287 . S
C101 C102 1.524 . S
C101 H104 0.999 . S
C102 H72 0.950 . S
C102 C101 1.524 . S
C102 C103 1.415 . S
C103 H73 0.950 . S
C103 C98 1.363 . S
C103 C102 1.415 . S
H104 C101 0.999 . S
H105 C86 0.913 . S
H106 C124 0.951 . S
H107 C126 0.951 . S
H108 C128 0.950 . S
H109 C129 0.950 . S
H110 C131 0.950 . S
H111 C134 0.950 . S
H112 C135 0.950 . S
H113 C137 0.950 . S
H114 C138 0.950 . S
H115 C139 0.951 . S
H116 C141 0.951 . S
H117 C143 0.950 . S
H118 C144 0.950 . S
H119 C146 0.950 . S
H120 C149 0.950 . S
H121 C150 0.950 . S
H122 C152 0.950 . S
H123 C153 0.950 . S
C124 H106 0.951 . S
C124 C125 1.366 . S
C124 C126 1.388 . S
C125 C124 1.366 . S
C125 C129 1.385 . S
C126 H107 0.951 . S
C126 C124 1.388 . S
C126 C127 1.366 . S
C127 C126 1.366 . S
C127 C128 1.414 . S
C127 C130 1.499 . S
C128 H108 0.950 . S
C128 C127 1.414 . S
C128 C129 1.374 . S
C129 H109 0.950 . S
C129 C125 1.385 . S
C129 C128 1.374 . S
C130 C127 1.499 . S
C130 C131 1.373 . S
C130 C132 1.389 . S
C131 H110 0.950 . S
C131 C130 1.373 . S
C131 C147 1.377 . S
C132 C130 1.389 . S
C132 C133 1.524 . S
C132 C146 1.377 . S
C133 C132 1.524 . S
C133 C134 1.397 . S
C133 C138 1.363 . S
C134 H111 0.950 . S
C134 C133 1.397 . S
C134 C135 1.334 . S
C135 H112 0.950 . S
C135 C134 1.334 . S
C135 C136 1.287 . S
C136 C135 1.287 . S
C136 C137 1.524 . S
C136 H155 0.913 . S
C137 H113 0.950 . S
C137 C136 1.524 . S
C137 C138 1.415 . S
C138 H114 0.950 . S
C138 C133 1.363 . S
C138 C137 1.415 . S
C139 H115 0.951 . S
C139 C140 1.366 . S
C139 C141 1.388 . S
C140 C139 1.366 . S
C140 C144 1.385 . S
C141 H116 0.951 . S
C141 C139 1.388 . S
C141 C142 1.366 . S
C142 C141 1.366 . S
C142 C143 1.414 . S
C142 C145 1.499 . S
C143 H117 0.950 . S
C143 C142 1.414 . S
C143 C144 1.374 . S
C144 H118 0.950 . S
C144 C140 1.385 . S
C144 C143 1.374 . S
C145 C142 1.499 . S
C145 C146 1.373 . S
C145 C147 1.389 . S
C146 H119 0.950 . S
C146 C132 1.377 . S
C146 C145 1.373 . S
C147 C131 1.377 . S
C147 C145 1.389 . S
C147 C148 1.524 . S
C148 C147 1.524 . S
C148 C149 1.397 . S
C148 C153 1.363 . S
C149 H120 0.950 . S
C149 C148 1.397 . S
C149 C150 1.334 . S
C150 H121 0.950 . S
C150 C149 1.334 . S
C150 C151 1.287 . S
C151 C150 1.287 . S
C151 C152 1.524 . S
C151 H154 0.999 . S
C152 H122 0.950 . S
C152 C151 1.524 . S
C152 C153 1.415 . S
C153 H123 0.950 . S
C153 C148 1.363 . S
C153 C152 1.415 . S
H154 C151 0.999 . S
H155 C136 0.913 . S
H156 C174 0.951 . S
H157 C176 0.951 . S
H158 C178 0.950 . S
H159 C179 0.945 1_556 S
H160 C181 0.950 . S
H161 C184 0.950 . S
H162 C185 0.950 . S
H163 C187 0.950 . S
H164 C188 0.950 . S
H165 C189 0.951 . S
H166 C191 0.951 . S
H167 C193 0.950 1_554 S
H168 C194 0.950 . S
H169 C196 0.950 . S
H170 C199 0.950 . S
H171 C200 0.950 . S
H172 C202 0.950 . S
H173 C203 0.950 . S
C174 H156 0.951 . S
C174 C175 1.366 . S
C174 C176 1.388 . S
C175 C174 1.366 . S
C175 C179 1.385 . S
C176 H157 0.951 . S
C176 C174 1.388 . S
C176 C177 1.366 . S
C177 C176 1.366 . S
C177 C178 1.414 1_554 S
C177 C180 1.499 . S
C178 H158 0.950 . S
C178 C177 1.414 1_556 S
C178 C179 1.374 1_556 S
C179 H159 0.945 1_554 S
C179 C175 1.385 . S
C179 C178 1.374 1_554 S
C180 C177 1.499 . S
C180 C181 1.373 1_554 S
C180 C182 1.389 . S
C181 H160 0.950 . S
C181 C180 1.373 1_556 S
C181 C197 1.377 . S
C182 C180 1.389 . S
C182 C183 1.524 . S
C182 C196 1.377 . S
C183 C182 1.524 . S
C183 C184 1.397 . S
C183 C188 1.363 . S
C184 H161 0.950 . S
C184 C183 1.397 . S
C184 C185 1.334 . S
C185 H162 0.950 . S
C185 C184 1.334 . S
C185 C186 1.287 . S
C186 C185 1.287 . S
C186 C187 1.524 . S
C186 H205 0.913 . S
C187 H163 0.950 . S
C187 C186 1.524 . S
C187 C188 1.415 . S
C188 H164 0.950 . S
C188 C183 1.363 . S
C188 C187 1.415 . S
C189 H165 0.951 . S
C189 C190 1.366 . S
C189 C191 1.388 . S
C190 C189 1.366 . S
C190 C194 1.385 . S
C191 H166 0.951 . S
C191 C189 1.388 . S
C191 C192 1.366 . S
C192 C191 1.366 . S
C192 C193 1.414 . S
C192 C195 1.499 . S
C193 H167 0.950 1_556 S
C193 C192 1.414 . S
C193 C194 1.374 . S
C194 H168 0.950 . S
C194 C190 1.385 . S
C194 C193 1.374 . S
C195 C192 1.499 . S
C195 C196 1.373 1_556 S
C195 C197 1.389 . S
C196 H169 0.950 . S
C196 C182 1.377 . S
C196 C195 1.373 1_554 S
C197 C181 1.377 . S
C197 C195 1.389 . S
C197 C198 1.524 . S
C198 C197 1.524 . S
C198 C199 1.397 . S
C198 C203 1.363 . S
C199 H170 0.950 . S
C199 C198 1.397 . S
C199 C200 1.334 . S
C200 H171 0.950 . S
C200 C199 1.334 . S
C200 C201 1.287 . S
C201 C200 1.287 . S
C201 C202 1.524 . S
C201 H204 0.999 . S
C202 H172 0.950 . S
C202 C201 1.524 . S
C202 C203 1.415 . S
C203 H173 0.950 . S
C203 C198 1.363 . S
C203 C202 1.415 . S
H204 C201 0.999 . S
H205 C186 0.913 . S
H206 C224 0.951 . S
H207 C226 0.951 . S
H208 C228 0.950 . S
H209 C229 0.950 . S
H210 C231 0.950 . S
H211 C234 0.950 . S
H212 C235 0.950 . S
H213 C237 0.950 . S
H214 C238 0.950 . S
H215 C239 0.951 . S
H216 C241 0.951 . S
H217 C243 0.950 . S
H218 C244 0.950 . S
H219 C246 0.950 . S
H220 C249 0.950 . S
H221 C250 0.950 . S
H222 C252 0.950 . S
H223 C253 0.950 . S
C224 H206 0.951 . S
C224 C225 1.366 . S
C224 C226 1.388 . S
C225 C224 1.366 . S
C225 C229 1.385 . S
C226 H207 0.951 . S
C226 C224 1.388 . S
C226 C227 1.366 . S
C227 C226 1.366 . S
C227 C228 1.414 . S
C227 C230 1.499 1_455 S
C228 H208 0.950 . S
C228 C227 1.414 . S
C228 C229 1.374 . S
C229 H209 0.950 . S
C229 C225 1.385 . S
C229 C228 1.374 . S
C230 C227 1.499 1_655 S
C230 C231 1.373 . S
C230 C232 1.389 . S
C231 H210 0.950 . S
C231 C230 1.373 . S
C231 C247 1.377 . S
C232 C230 1.389 . S
C232 C233 1.524 . S
C232 C246 1.377 . S
C233 C232 1.524 . S
C233 C234 1.397 . S
C233 C238 1.363 . S
C234 H211 0.950 . S
C234 C233 1.397 . S
C234 C235 1.334 . S
C235 H212 0.950 . S
C235 C234 1.334 . S
C235 C236 1.287 . S
C236 C235 1.287 . S
C236 C237 1.524 . S
C236 H255 0.913 . S
C237 H213 0.950 . S
C237 C236 1.524 . S
C237 C238 1.415 . S
C238 H214 0.950 . S
C238 C233 1.363 . S
C238 C237 1.415 . S
C239 H215 0.951 . S
C239 C240 1.366 . S
C239 C241 1.388 . S
C240 C239 1.366 . S
C240 C244 1.385 . S
C241 H216 0.951 . S
C241 C239 1.388 . S
C241 C242 1.366 . S
C242 C241 1.366 . S
C242 C243 1.414 . S
C242 C245 1.499 . S
C243 H217 0.950 . S
C243 C242 1.414 . S
C243 C244 1.374 . S
C244 H218 0.950 . S
C244 C240 1.385 . S
C244 C243 1.374 . S
C245 C242 1.499 . S
C245 C246 1.373 . S
C245 C247 1.389 . S
C246 H219 0.950 . S
C246 C232 1.377 . S
C246 C245 1.373 . S
C247 C231 1.377 . S
C247 C245 1.389 . S
C247 C248 1.524 . S
C248 C247 1.524 . S
C248 C249 1.397 . S
C248 C253 1.363 . S
C249 H220 0.950 . S
C249 C248 1.397 . S
C249 C250 1.334 . S
C250 H221 0.950 . S
C250 C249 1.334 . S
C250 C251 1.287 . S
C251 C250 1.287 . S
C251 C252 1.524 . S
C251 H254 0.999 . S
C252 H222 0.950 . S
C252 C251 1.524 . S
C252 C253 1.415 . S
C253 H223 0.950 . S
C253 C248 1.363 . S
C253 C252 1.415 . S
H254 C251 0.999 . S
H255 C236 0.913 . S
H256 C274 0.951 . S
H257 C276 0.951 . S
H258 C278 0.950 . S
H259 C279 0.950 . S
H260 C281 0.950 . S
H261 C284 0.937 1_545 S
H262 C285 0.945 1_545 S
H263 C287 0.950 . S
H264 C288 0.950 . S
H265 C289 0.951 . S
H266 C291 0.951 . S
H267 C293 0.950 . S
H268 C294 0.950 . S
H269 C296 0.950 . S
H270 C299 0.937 1_565 S
H271 C300 0.945 1_565 S
H272 C302 0.950 . S
H273 C303 0.950 . S
C274 H256 0.951 . S
C274 C275 1.366 . S
C274 C276 1.388 . S
C275 C274 1.366 . S
C275 C279 1.385 . S
C276 H257 0.951 . S
C276 C274 1.388 . S
C276 C277 1.366 . S
C277 C276 1.366 . S
C277 C278 1.414 . S
C277 C280 1.499 . S
C278 H258 0.950 . S
C278 C277 1.414 . S
C278 C279 1.374 . S
C279 H259 0.950 . S
C279 C275 1.385 . S
C279 C278 1.374 . S
C280 C277 1.499 . S
C280 C281 1.373 1_556 S
C280 C282 1.389 1_545 S
C281 H260 0.950 . S
C281 C280 1.373 1_554 S
C281 C297 1.377 . S
C282 C280 1.389 1_565 S
C282 C283 1.524 . S
C282 C296 1.377 . S
C283 C282 1.524 . S
C283 C284 1.407 . S
C283 C288 1.363 . S
C284 H261 0.937 1_565 S
C284 C283 1.407 . S
C284 C285 1.337 . S
C285 H262 0.945 1_565 S
C285 C284 1.337 . S
C285 C286 1.287 . S
C286 C285 1.287 . S
C286 C287 1.524 . S
C286 H305 0.913 . S
C287 H263 0.950 . S
C287 C286 1.524 . S
C287 C288 1.415 . S
C288 H264 0.950 . S
C288 C283 1.363 . S
C288 C287 1.415 . S
C289 H265 0.951 . S
C289 C290 1.366 . S
C289 C291 1.388 . S
C290 C289 1.366 . S
C290 C294 1.385 . S
C291 H266 0.951 . S
C291 C289 1.388 . S
C291 C292 1.366 . S
C292 C291 1.366 . S
C292 C293 1.414 . S
C292 C295 1.499 . S
C293 H267 0.950 . S
C293 C292 1.414 . S
C293 C294 1.374 . S
C294 H268 0.950 . S
C294 C290 1.385 . S
C294 C293 1.374 . S
C295 C292 1.499 . S
C295 C296 1.373 1_554 S
C295 C297 1.389 1_565 S
C296 H269 0.950 . S
C296 C282 1.377 . S
C296 C295 1.373 1_556 S
C297 C281 1.377 . S
C297 C295 1.389 1_545 S
C297 C298 1.524 . S
C298 C297 1.524 . S
C298 C299 1.406 . S
C298 C303 1.363 . S
C299 H270 0.937 1_545 S
C299 C298 1.406 . S
C299 C300 1.337 . S
C300 H271 0.945 1_545 S
C300 C299 1.337 . S
C300 C301 1.287 . S
C301 C300 1.287 . S
C301 C302 1.524 . S
C301 H304 0.999 . S
C302 H272 0.950 . S
C302 C301 1.524 . S
C302 C303 1.415 . S
C303 H273 0.950 . S
C303 C298 1.363 . S
C303 C302 1.415 . S
H304 C301 0.999 . S
H305 C286 0.913 . S
H306 C324 0.951 . S
H307 C326 0.951 . S
H308 C328 0.950 . S
H309 C329 0.950 . S
H310 C331 0.950 . S
H311 C334 0.950 . S
H312 C335 0.950 . S
H313 C337 0.950 . S
H314 C338 0.950 . S
H315 C339 0.951 . S
H316 C341 0.951 . S
H317 C343 0.950 . S
H318 C344 0.950 . S
H319 C346 0.950 . S
H320 C349 0.950 . S
H321 C350 0.950 . S
H322 C352 0.950 . S
H323 C353 0.950 . S
C324 H306 0.951 . S
C324 C325 1.366 . S
C324 C326 1.388 . S
C325 C324 1.366 . S
C325 C329 1.385 . S
C326 H307 0.951 . S
C326 C324 1.388 . S
C326 C327 1.366 . S
C327 C326 1.366 . S
C327 C328 1.414 . S
C327 C330 1.499 . S
C328 H308 0.950 . S
C328 C327 1.414 . S
C328 C329 1.374 . S
C329 H309 0.950 . S
C329 C325 1.385 . S
C329 C328 1.374 . S
C330 C327 1.499 . S
C330 C331 1.373 . S
C330 C332 1.389 . S
C331 H310 0.950 . S
C331 C330 1.373 . S
C331 C347 1.377 . S
C332 C330 1.389 . S
C332 C333 1.524 . S
C332 C346 1.377 . S
C333 C332 1.524 . S
C333 C334 1.397 . S
C333 C338 1.363 . S
C334 H311 0.950 . S
C334 C333 1.397 . S
C334 C335 1.334 . S
C335 H312 0.950 . S
C335 C334 1.334 . S
C335 C336 1.287 . S
C336 C335 1.287 . S
C336 C337 1.524 . S
C336 H355 0.913 . S
C337 H313 0.950 . S
C337 C336 1.524 . S
C337 C338 1.415 . S
C338 H314 0.950 . S
C338 C333 1.363 . S
C338 C337 1.415 . S
C339 H315 0.951 . S
C339 C340 1.366 . S
C339 C341 1.388 . S
C340 C339 1.366 . S
C340 C344 1.385 . S
C341 H316 0.951 . S
C341 C339 1.388 . S
C341 C342 1.366 . S
C342 C341 1.366 . S
C342 C343 1.414 . S
C342 C345 1.499 . S
C343 H317 0.950 . S
C343 C342 1.414 . S
C343 C344 1.374 . S
C344 H318 0.950 . S
C344 C340 1.385 . S
C344 C343 1.374 . S
C345 C342 1.499 . S
C345 C346 1.373 . S
C345 C347 1.389 . S
C346 H319 0.950 . S
C346 C332 1.377 . S
C346 C345 1.373 . S
C347 C331 1.377 . S
C347 C345 1.389 . S
C347 C348 1.524 . S
C348 C347 1.524 . S
C348 C349 1.397 . S
C348 C353 1.363 . S
C349 H320 0.950 . S
C349 C348 1.397 . S
C349 C350 1.334 . S
C350 H321 0.950 . S
C350 C349 1.334 . S
C350 C351 1.287 . S
C351 C350 1.287 . S
C351 C352 1.524 . S
C351 H354 0.999 . S
C352 H322 0.950 . S
C352 C351 1.524 . S
C352 C353 1.415 . S
C353 H323 0.950 . S
C353 C348 1.363 . S
C353 C352 1.415 . S
H354 C351 0.999 . S
H355 C336 0.913 . S
H356 C374 0.951 . S
H357 C376 0.951 . S
H358 C378 0.950 . S
H359 C379 0.950 . S
H360 C381 0.950 . S
H361 C384 0.950 . S
H362 C385 0.950 . S
H363 C387 0.950 . S
H364 C388 0.950 . S
H365 C389 0.951 . S
H366 C391 0.951 . S
H367 C393 0.950 . S
H368 C394 0.950 . S
H369 C396 0.950 . S
H370 C399 0.950 . S
H371 C400 0.950 . S
H372 C402 0.950 . S
H373 C403 0.950 . S
C374 H356 0.951 . S
C374 C375 1.366 . S
C374 C376 1.388 . S
C375 C374 1.366 . S
C375 C379 1.385 . S
C376 H357 0.951 . S
C376 C374 1.388 . S
C376 C377 1.366 . S
C377 C376 1.366 . S
C377 C378 1.414 . S
C377 C380 1.499 . S
C378 H358 0.950 . S
C378 C377 1.414 . S
C378 C379 1.374 . S
C379 H359 0.950 . S
C379 C375 1.385 . S
C379 C378 1.374 . S
C380 C377 1.499 . S
C380 C381 1.373 . S
C380 C382 1.389 1_554 S
C381 H360 0.950 . S
C381 C380 1.373 . S
C381 C397 1.377 1_455 S
C382 C380 1.389 1_556 S
C382 C383 1.524 . S
C382 C396 1.377 . S
C383 C382 1.524 . S
C383 C384 1.397 . S
C383 C388 1.363 . S
C384 H361 0.950 . S
C384 C383 1.397 . S
C384 C385 1.334 . S
C385 H362 0.950 . S
C385 C384 1.334 . S
C385 C386 1.287 . S
C386 C385 1.287 . S
C386 C387 1.524 . S
C386 H405 0.913 . S
C387 H363 0.950 . S
C387 C386 1.524 . S
C387 C388 1.415 . S
C388 H364 0.950 . S
C388 C383 1.363 . S
C388 C387 1.415 . S
C389 H365 0.951 . S
C389 C390 1.366 . S
C389 C391 1.388 . S
C390 C389 1.366 . S
C390 C394 1.385 . S
C391 H366 0.951 . S
C391 C389 1.388 . S
C391 C392 1.366 . S
C392 C391 1.366 . S
C392 C393 1.414 . S
C392 C395 1.483 1_556 S
C393 H367 0.950 . S
C393 C392 1.414 . S
C393 C394 1.374 . S
C394 H368 0.950 . S
C394 C390 1.385 . S
C394 C393 1.374 . S
C395 C392 1.483 1_554 S
C395 C396 1.344 1_654 S
C395 C397 1.433 . S
C396 H369 0.950 . S
C396 C382 1.377 . S
C396 C395 1.344 1_456 S
C397 C381 1.377 1_655 S
C397 C395 1.433 . S
C397 C398 1.524 . S
C398 C397 1.524 . S
C398 C399 1.397 . S
C398 C403 1.363 . S
C399 H370 0.950 . S
C399 C398 1.397 . S
C399 C400 1.334 . S
C400 H371 0.950 . S
C400 C399 1.334 . S
C400 C401 1.287 . S
C401 C400 1.287 . S
C401 C402 1.524 . S
C401 H404 0.999 . S
C402 H372 0.950 . S
C402 C401 1.524 . S
C402 C403 1.415 . S
C403 H373 0.950 . S
C403 C398 1.363 . S
C403 C402 1.415 . S
H404 C401 0.999 . S
H405 C386 0.913 . S
H406 C424 0.951 . S
H407 C426 0.951 . S
H408 C428 0.950 . S
H409 C429 0.950 . S
H410 C431 0.950 . S
H411 C434 0.950 . S
H412 C435 0.950 . S
H413 C437 0.950 . S
H414 C438 0.950 . S
H415 C439 0.951 . S
H416 C441 0.951 . S
H417 C443 0.950 . S
H418 C444 0.950 . S
H419 C446 0.950 . S
H420 C449 0.950 . S
H421 C450 0.950 . S
H422 C452 0.950 . S
H423 C453 0.950 . S
C424 H406 0.951 . S
C424 C425 1.366 . S
C424 C426 1.388 . S
C425 C424 1.366 . S
C425 C429 1.385 . S
C426 H407 0.951 . S
C426 C424 1.388 . S
C426 C427 1.366 . S
C427 C426 1.366 . S
C427 C428 1.414 . S
C427 C430 1.499 . S
C428 H408 0.950 . S
C428 C427 1.414 . S
C428 C429 1.374 . S
C429 H409 0.950 . S
C429 C425 1.385 . S
C429 C428 1.374 . S
C430 C427 1.499 . S
C430 C431 1.373 . S
C430 C432 1.389 . S
C431 H410 0.950 . S
C431 C430 1.373 . S
C431 C447 1.377 1_545 S
C432 C430 1.389 . S
C432 C433 1.524 . S
C432 C446 1.377 1_545 S
C433 C432 1.524 . S
C433 C434 1.397 . S
C433 C438 1.363 . S
C434 H411 0.950 . S
C434 C433 1.397 . S
C434 C435 1.334 . S
C435 H412 0.950 . S
C435 C434 1.334 . S
C435 C436 1.287 . S
C436 C435 1.287 . S
C436 C437 1.524 . S
C436 H455 0.913 . S
C437 H413 0.950 . S
C437 C436 1.524 . S
C437 C438 1.415 . S
C438 H414 0.950 . S
C438 C433 1.363 . S
C438 C437 1.415 . S
C439 H415 0.951 . S
C439 C440 1.366 . S
C439 C441 1.388 . S
C440 C439 1.366 . S
C440 C444 1.385 . S
C441 H416 0.951 . S
C441 C439 1.388 . S
C441 C442 1.366 . S
C442 C441 1.366 . S
C442 C443 1.414 . S
C442 C445 1.499 . S
C443 H417 0.950 . S
C443 C442 1.414 . S
C443 C444 1.374 . S
C444 H418 0.950 . S
C444 C440 1.385 . S
C444 C443 1.374 . S
C445 C442 1.499 . S
C445 C446 1.373 . S
C445 C447 1.389 . S
C446 H419 0.950 . S
C446 C432 1.377 1_565 S
C446 C445 1.373 . S
C447 C431 1.377 1_565 S
C447 C445 1.389 . S
C447 C448 1.524 . S
C448 C447 1.524 . S
C448 C449 1.397 . S
C448 C453 1.363 . S
C449 H420 0.950 . S
C449 C448 1.397 . S
C449 C450 1.334 . S
C450 H421 0.950 . S
C450 C449 1.334 . S
C450 C451 1.287 . S
C451 C450 1.287 . S
C451 C452 1.524 . S
C451 H454 0.999 . S
C452 H422 0.950 . S
C452 C451 1.524 . S
C452 C453 1.415 . S
C453 H423 0.950 . S
C453 C448 1.363 . S
C453 C452 1.415 . S
H454 C451 0.999 . S
H455 C436 0.913 . S
C75 C6 1.527 . S
C90 C34 1.526 . S
C125 C20 1.526 . S
C140 C48 1.526 . S
C175 C9 1.710 . S
C190 C50 1.707 . S
C225 C35 1.433 . S
C240 C23 1.466 . S
C275 C49 1.339 . S
C290 C7 1.339 . S
C325 C21 1.434 . S
C340 C37 1.466 . S
C375 C8 1.707 . S
C390 C51 1.711 . S
C425 C22 1.891 . S
C440 C36 1.891 . S
