# Generated by pormake.
# Topology xfw, (5)-cn, num edge types: 1
# Building blocks:
#     Node 0, Type 0, BuildingBlock: BEQFEK_clean_sbu_0, # of connection points: 5
#     Node 1, Type 0, BuildingBlock: BEQFEK_clean_sbu_0, # of connection points: 5
#     Node 2, Type 0, BuildingBlock: BEQFEK_clean_sbu_0, # of connection points: 5
#     Node 3, Type 0, BuildingBlock: BEQFEK_clean_sbu_0, # of connection points: 5
#     Node 4, Type 0, BuildingBlock: BEQFEK_clean_sbu_0, # of connection points: 5
#     Node 5, Type 0, BuildingBlock: BEQFEK_clean_sbu_0, # of connection points: 5
#     Node 6, Type 0, BuildingBlock: BEQFEK_clean_sbu_0, # of connection points: 5
#     Node 7, Type 0, BuildingBlock: BEQFEK_clean_sbu_0, # of connection points: 5
#     Edge 8, Type (0, 0), BuildingBlock: EYOCIG_clean_linker_4, # of connection points: 2
#     Edge 9, Type (0, 0), BuildingBlock: EYOCIG_clean_linker_4, # of connection points: 2
#     Edge 10, Type (0, 0), BuildingBlock: EYOCIG_clean_linker_4, # of connection points: 2
#     Edge 11, Type (0, 0), BuildingBlock: EYOCIG_clean_linker_4, # of connection points: 2
#     Edge 12, Type (0, 0), BuildingBlock: EYOCIG_clean_linker_4, # of connection points: 2
#     Edge 13, Type (0, 0), BuildingBlock: EYOCIG_clean_linker_4, # of connection points: 2
#     Edge 14, Type (0, 0), BuildingBlock: EYOCIG_clean_linker_4, # of connection points: 2
#     Edge 15, Type (0, 0), BuildingBlock: EYOCIG_clean_linker_4, # of connection points: 2
#     Edge 16, Type (0, 0), BuildingBlock: EYOCIG_clean_linker_4, # of connection points: 2
#     Edge 17, Type (0, 0), BuildingBlock: EYOCIG_clean_linker_4, # of connection points: 2
#     Edge 18, Type (0, 0), BuildingBlock: EYOCIG_clean_linker_4, # of connection points: 2
#     Edge 19, Type (0, 0), BuildingBlock: EYOCIG_clean_linker_4, # of connection points: 2
#     Edge 20, Type (0, 0), BuildingBlock: EYOCIG_clean_linker_4, # of connection points: 2
#     Edge 21, Type (0, 0), BuildingBlock: EYOCIG_clean_linker_4, # of connection points: 2
#     Edge 22, Type (0, 0), BuildingBlock: EYOCIG_clean_linker_4, # of connection points: 2
#     Edge 23, Type (0, 0), BuildingBlock: EYOCIG_clean_linker_4, # of connection points: 2
#     Edge 24, Type (0, 0), BuildingBlock: EYOCIG_clean_linker_4, # of connection points: 2
#     Edge 25, Type (0, 0), BuildingBlock: EYOCIG_clean_linker_4, # of connection points: 2
#     Edge 26, Type (0, 0), BuildingBlock: EYOCIG_clean_linker_4, # of connection points: 2
#     Edge 27, Type (0, 0), BuildingBlock: EYOCIG_clean_linker_4, # of connection points: 2
# Relax obj value: 0.336
# Max RMSD: 0.193
# Mean RMSD: 0.193
data_MOF--net-xfw--node1-BEQFEK_clean_sbu_0--edge1-EYOCIG_clean_linker_4
_symmetry_space_group_name_H-M    P1
_symmetry_Int_Tables_number       1
_symmetry_cell_setting            triclinic
loop_
_symmetry_equiv_pos_as_xyz
'x, y, z'
_cell_length_a     23.48265
_cell_length_b     23.494603
_cell_length_c     52.087267
_cell_angle_alpha  90.039485
_cell_angle_beta   90.007347
_cell_angle_gamma 89.992916
loop_
_atom_site_label
_atom_site_type_symbol
_atom_site_fract_x
_atom_site_fract_y
_atom_site_fract_z
_atom_type_partial_charge
Co0 Co 0.22026 0.05735 0.56903 0.0
Co1 Co 0.21457 0.13626 0.61849 0.0
C2 C 0.12773 0.04526 0.60795 0.0
O3 O 0.15269 0.02816 0.58766 0.0
O4 O 0.1471 0.08584 0.62156 0.0
C5 C 0.23676 0.95362 0.54075 0.0
O6 O 0.22848 0.92936 0.56312 0.0
C7 C 0.2082 0.16348 0.6739 0.0
C8 C 0.24779 0.24874 0.67537 0.0
C9 C 0.22366 0.20687 0.69047 0.0
N10 N 0.22282 0.17874 0.64986 0.0
N11 N 0.24619 0.22993 0.65092 0.0
C12 C 0.18109 0.10796 0.68086 0.0
H13 H 0.14049 0.10316 0.67022 0.0
H14 H 0.20951 0.0725 0.67503 0.0
H15 H 0.17236 0.10519 0.70177 0.0
C16 C 0.33665 0.03841 0.58875 0.0
N17 N 0.28496 0.06301 0.59039 0.0
N18 N 0.28228 0.09343 0.61163 0.0
C19 C 0.33185 0.08735 0.62454 0.0
C20 C 0.36738 0.05208 0.61046 0.0
C21 C 0.35716 0.00368 0.5665 0.0
H22 H 0.34112 0.02192 0.54826 0.0
H23 H 0.3412 0.95951 0.56848 0.0
H24 H 0.4044 0.00224 0.56588 0.0
O25 O 0.19769 0.13207 0.55611 0.0
O26 O 0.19585 0.1905 0.58985 0.0
H27 H 0.34287 0.16109 0.64801 0.0
H28 H 0.3875 0.10165 0.65703 0.0
C29 C 0.34473 0.11413 0.64992 0.0
H30 H 0.31209 0.10099 0.66409 0.0
H31 H 0.26167 0.2518 0.63494 0.0
O32 O 0.23514 0.00746 0.53881 0.0
C33 C 0.18911 0.18079 0.56594 0.0
Co34 Co 0.05817 0.77213 0.44005 0.0
Co35 Co 0.13691 0.77703 0.39064 0.0
C36 C 0.04648 0.86445 0.40093 0.0
O37 O 0.02932 0.83964 0.42123 0.0
O38 O 0.08701 0.84489 0.38733 0.0
C39 C 0.9543 0.75577 0.46828 0.0
O40 O 0.93004 0.76346 0.44586 0.0
C41 C 0.1623 0.78097 0.33527 0.0
C42 C 0.24973 0.74651 0.3336 0.0
C43 C 0.20608 0.76764 0.31858 0.0
N44 N 0.17911 0.76836 0.35931 0.0
N45 N 0.23151 0.74782 0.35815 0.0
C46 C 0.10516 0.80462 0.32843 0.0
H47 H 0.07309 0.79239 0.34306 0.0
H48 H 0.09158 0.78929 0.30921 0.0
H49 H 0.10798 0.85175 0.32777 0.0
C50 C 0.03879 0.65557 0.42057 0.0
N51 N 0.06351 0.70716 0.41884 0.0
N52 N 0.09373 0.70964 0.39755 0.0
C53 C 0.08735 0.66006 0.38468 0.0
C54 C 0.05212 0.62472 0.39884 0.0
C55 C 0.00433 0.63521 0.44291 0.0
H56 H 0.02257 0.65166 0.46109 0.0
H57 H 0.96 0.65078 0.44091 0.0
H58 H 0.00325 0.588 0.44367 0.0
O59 O 0.13302 0.7945 0.45297 0.0
O60 O 0.19137 0.79575 0.41921 0.0
H61 H 0.16058 0.65061 0.36071 0.0
H62 H 0.10222 0.60375 0.35247 0.0
C63 C 0.11362 0.64712 0.3592 0.0
H64 H 0.09876 0.67876 0.34491 0.0
H65 H 0.25474 0.7344 0.37411 0.0
O66 O 0.00815 0.75776 0.47026 0.0
C67 C 0.18177 0.80279 0.4431 0.0
Co68 Co 0.77262 0.93348 0.5692 0.0
Co69 Co 0.77725 0.85443 0.61849 0.0
C70 C 0.86492 0.94463 0.60842 0.0
O71 O 0.84019 0.96189 0.58811 0.0
O72 O 0.84521 0.90417 0.62199 0.0
C73 C 0.75689 0.03758 0.54111 0.0
O74 O 0.76486 0.06169 0.56355 0.0
C75 C 0.78113 0.82885 0.67377 0.0
C76 C 0.74557 0.7419 0.67547 0.0
C77 C 0.76721 0.78533 0.69048 0.0
N78 N 0.76833 0.81212 0.64974 0.0
N79 N 0.74716 0.76 0.6509 0.0
C80 C 0.80559 0.88568 0.68053 0.0
H81 H 0.791 0.91836 0.66664 0.0
H82 H 0.79333 0.89826 0.70033 0.0
H83 H 0.85273 0.88311 0.67956 0.0
C84 C 0.65611 0.9532 0.58866 0.0
N85 N 0.70759 0.92819 0.59035 0.0
N86 N 0.70993 0.89781 0.61158 0.0
C87 C 0.66037 0.90434 0.62445 0.0
C88 C 0.62518 0.93986 0.61035 0.0
C89 C 0.63596 0.98806 0.5664 0.0
H90 H 0.65224 0.96989 0.54818 0.0
H91 H 0.65191 0.03221 0.56851 0.0
H92 H 0.58874 0.98954 0.56565 0.0
O93 O 0.79488 0.85873 0.55617 0.0
O94 O 0.7961 0.8002 0.58984 0.0
H95 H 0.65055 0.83104 0.6483 0.0
H96 H 0.60395 0.88954 0.65661 0.0
C97 C 0.64729 0.87799 0.64989 0.0
H98 H 0.67901 0.89259 0.66421 0.0
H99 H 0.73343 0.73691 0.63494 0.0
O100 O 0.75847 0.98375 0.53907 0.0
C101 C 0.80319 0.80995 0.56596 0.0
Co102 Co 0.93461 0.21935 0.44001 0.0
Co103 Co 0.85517 0.21454 0.39083 0.0
C104 C 0.94571 0.12708 0.40079 0.0
O105 O 0.96313 0.15185 0.42108 0.0
O106 O 0.90505 0.1467 0.3873 0.0
C107 C 0.03885 0.23557 0.46804 0.0
O108 O 0.06295 0.22801 0.44558 0.0
C109 C 0.82954 0.2099 0.3356 0.0
C110 C 0.74266 0.2457 0.33372 0.0
C111 C 0.78606 0.22367 0.31881 0.0
N112 N 0.81279 0.22317 0.35957 0.0
N113 N 0.76071 0.24446 0.3583 0.0
C114 C 0.88634 0.18509 0.329 0.0
H115 H 0.91937 0.20159 0.3423 0.0
H116 H 0.89816 0.19498 0.30885 0.0
H117 H 0.88426 0.13816 0.33121 0.0
C118 C 0.95383 0.3359 0.42057 0.0
N119 N 0.92901 0.28435 0.41888 0.0
N120 N 0.89847 0.28192 0.39768 0.0
C121 C 0.90472 0.3315 0.38483 0.0
C122 C 0.94022 0.36679 0.39892 0.0
C123 C 0.98869 0.35618 0.44283 0.0
H124 H 0.97074 0.33971 0.46105 0.0
H125 H 0.03297 0.34057 0.44066 0.0
H126 H 0.98983 0.40339 0.44363 0.0
O127 O 0.85994 0.19698 0.45311 0.0
O128 O 0.80108 0.19571 0.41952 0.0
H129 H 0.83111 0.3413 0.36112 0.0
H130 H 0.88956 0.38782 0.35268 0.0
C131 C 0.87807 0.34452 0.35944 0.0
H132 H 0.89248 0.31276 0.34509 0.0
H133 H 0.73762 0.25853 0.37421 0.0
O134 O 0.98501 0.23358 0.4701 0.0
C135 C 0.81106 0.18865 0.44338 0.0
Co136 Co 0.77241 0.05818 0.06925 0.0
Co137 Co 0.77724 0.13742 0.1185 0.0
C138 C 0.86463 0.0468 0.10845 0.0
O139 O 0.83987 0.02947 0.08815 0.0
O140 O 0.84505 0.08745 0.12196 0.0
C141 C 0.75646 0.95424 0.04101 0.0
O142 O 0.76438 0.92998 0.0634 0.0
C143 C 0.78191 0.16278 0.17376 0.0
C144 C 0.74623 0.24966 0.17574 0.0
C145 C 0.76822 0.20619 0.1906 0.0
N146 N 0.76865 0.17964 0.14981 0.0
N147 N 0.74741 0.23172 0.15114 0.0
C148 C 0.80666 0.10595 0.18029 0.0
H149 H 0.79015 0.07302 0.16694 0.0
H150 H 0.79673 0.09405 0.20042 0.0
H151 H 0.85362 0.108 0.17808 0.0
C152 C 0.65582 0.03886 0.08871 0.0
N153 N 0.70737 0.06372 0.0904 0.0
N154 N 0.70977 0.09424 0.11161 0.0
C155 C 0.66017 0.08795 0.12447 0.0
C156 C 0.62489 0.05244 0.11038 0.0
C157 C 0.63563 0.00391 0.06647 0.0
H158 H 0.65186 0.022 0.04824 0.0
H159 H 0.65161 0.95977 0.06858 0.0
H160 H 0.5884 0.00242 0.06574 0.0
O161 O 0.79483 0.13285 0.05625 0.0
O162 O 0.7961 0.19162 0.08987 0.0
H163 H 0.65045 0.16146 0.14824 0.0
H164 H 0.6038 0.10308 0.15663 0.0
C165 C 0.64714 0.11453 0.14988 0.0
H166 H 0.67888 0.10002 0.16422 0.0
H167 H 0.73337 0.25489 0.13527 0.0
O168 O 0.75812 0.00808 0.03906 0.0
C169 C 0.80316 0.18169 0.066 0.0
Co170 Co 0.05771 0.21902 0.9399 0.0
Co171 Co 0.13713 0.21462 0.89071 0.0
C172 C 0.04684 0.12688 0.90059 0.0
O173 O 0.02936 0.15149 0.9209 0.0
O174 O 0.08744 0.14668 0.88712 0.0
C175 C 0.95356 0.2351 0.96804 0.0
O176 O 0.92931 0.22744 0.94561 0.0
C177 C 0.16279 0.21066 0.83546 0.0
C178 C 0.24963 0.24658 0.83372 0.0
C179 C 0.20625 0.22476 0.81873 0.0
N180 N 0.17951 0.22357 0.85948 0.0
N181 N 0.23158 0.24492 0.85829 0.0
C182 C 0.10602 0.18592 0.82877 0.0
H183 H 0.073 0.20194 0.8422 0.0
H184 H 0.09408 0.19635 0.80869 0.0
H185 H 0.10823 0.13893 0.8307 0.0
C186 C 0.03817 0.33562 0.92056 0.0
N187 N 0.0631 0.28413 0.91881 0.0
N188 N 0.09366 0.28187 0.89762 0.0
C189 C 0.0873 0.3315 0.88482 0.0
C190 C 0.05173 0.36664 0.89893 0.0
C191 C 0.00331 0.35576 0.94283 0.0
H192 H 0.02138 0.33932 0.96104 0.0
H193 H 0.95908 0.34001 0.94069 0.0
H194 H 0.00201 0.40296 0.94366 0.0
O195 O 0.13246 0.19683 0.95296 0.0
O196 O 0.19131 0.19585 0.91938 0.0
H197 H 0.16091 0.34146 0.86113 0.0
H198 H 0.10247 0.38808 0.85277 0.0
C199 C 0.11396 0.34472 0.85945 0.0
H200 H 0.09952 0.3131 0.84505 0.0
H201 H 0.25464 0.25877 0.87424 0.0
O202 O 0.00741 0.23315 0.97004 0.0
C203 C 0.18137 0.18869 0.94324 0.0
Co204 Co 0.21955 0.93438 0.06925 0.0
Co205 Co 0.21471 0.85516 0.11846 0.0
C206 C 0.12718 0.94561 0.10841 0.0
O207 O 0.15197 0.96295 0.08813 0.0
O208 O 0.14679 0.90499 0.12192 0.0
C209 C 0.23567 0.03838 0.0411 0.0
O210 O 0.22778 0.06263 0.06351 0.0
C211 C 0.21043 0.82936 0.17372 0.0
C212 C 0.24551 0.7422 0.17535 0.0
C213 C 0.22394 0.78563 0.19039 0.0
N214 N 0.22337 0.81274 0.14969 0.0
N215 N 0.24426 0.7605 0.15082 0.0
C216 C 0.1862 0.88627 0.18053 0.0
H217 H 0.20051 0.91887 0.16654 0.0
H218 H 0.19895 0.8989 0.20025 0.0
H219 H 0.13903 0.88376 0.1798 0.0
C220 C 0.3361 0.95378 0.08878 0.0
N221 N 0.28455 0.92893 0.09044 0.0
N222 N 0.28212 0.89846 0.11164 0.0
C223 C 0.3317 0.90477 0.12452 0.0
C224 C 0.367 0.94024 0.11045 0.0
C225 C 0.35637 0.98862 0.06654 0.0
H226 H 0.34009 0.97051 0.0483 0.0
H227 H 0.3405 0.0328 0.06865 0.0
H228 H 0.4036 0.99 0.06581 0.0
O229 O 0.19732 0.85967 0.05616 0.0
O230 O 0.19606 0.80098 0.08977 0.0
H231 H 0.34134 0.83128 0.14827 0.0
H232 H 0.38806 0.88962 0.15668 0.0
C233 C 0.3447 0.87821 0.14993 0.0
H234 H 0.31299 0.89277 0.16426 0.0
H235 H 0.25798 0.73743 0.13485 0.0
O236 O 0.2339 0.98455 0.03911 0.0
C237 C 0.18907 0.81083 0.0659 0.0
Co238 Co 0.93469 0.77234 0.93987 0.0
Co239 Co 0.8555 0.77722 0.89057 0.0
C240 C 0.94651 0.86418 0.90054 0.0
O241 O 0.96359 0.83959 0.92091 0.0
O242 O 0.9059 0.84459 0.88699 0.0
C243 C 0.03877 0.75598 0.96798 0.0
O244 O 0.06294 0.76354 0.94554 0.0
C245 C 0.82821 0.78356 0.83543 0.0
C246 C 0.74375 0.74233 0.83359 0.0
C247 C 0.78536 0.76755 0.81869 0.0
N248 N 0.81287 0.76832 0.85936 0.0
N249 N 0.76217 0.74392 0.85811 0.0
C250 C 0.88323 0.8121 0.82886 0.0
H251 H 0.88247 0.85633 0.83633 0.0
H252 H 0.91896 0.78949 0.83837 0.0
H253 H 0.89028 0.81334 0.80779 0.0
C254 C 0.95345 0.6556 0.92052 0.0
N255 N 0.92884 0.70724 0.91877 0.0
N256 N 0.89843 0.70968 0.89754 0.0
C257 C 0.90462 0.66003 0.8847 0.0
C258 C 0.93986 0.62465 0.89886 0.0
C259 C 0.9882 0.63534 0.94281 0.0
H260 H 0.97017 0.65188 0.96101 0.0
H261 H 0.03249 0.65093 0.94069 0.0
H262 H 0.98932 0.58814 0.94361 0.0
O263 O 0.86009 0.79509 0.95291 0.0
O264 O 0.80149 0.79662 0.91923 0.0
H265 H 0.83121 0.6479 0.86114 0.0
H266 H 0.89159 0.60467 0.852 0.0
C267 C 0.87822 0.64705 0.85925 0.0
H268 H 0.89078 0.68018 0.8452 0.0
H269 H 0.74041 0.72773 0.87398 0.0
O270 O 0.98493 0.75802 0.97001 0.0
C271 C 0.81132 0.80367 0.94311 0.0
C272 C 0.2492 0.8897 0.49937 0.0
C273 C 0.24355 0.91913 0.51818 0.0
C274 C 0.24296 0.85592 0.47712 0.0
C275 C 0.22264 0.83107 0.45907 0.0
C276 C 0.85656 0.74918 0.53188 0.0
C277 C 0.8316 0.76926 0.54996 0.0
C278 C 0.89038 0.74318 0.50963 0.0
C279 C 0.91978 0.74891 0.49082 0.0
C280 C 0.74449 0.10166 0.49981 0.0
C281 C 0.75014 0.07221 0.5186 0.0
C282 C 0.75049 0.13543 0.47756 0.0
C283 C 0.77048 0.16031 0.45946 0.0
C284 C 0.13633 0.24169 0.53175 0.0
C285 C 0.16096 0.22152 0.54988 0.0
C286 C 0.10282 0.24783 0.50941 0.0
C287 C 0.0735 0.24224 0.49056 0.0
C288 C 0.75053 0.85692 0.97724 0.0
C289 C 0.77069 0.83208 0.95915 0.0
C290 C 0.74433 0.89051 0.99955 0.0
C291 C 0.74985 0.91979 0.01842 0.0
C292 C 0.85619 0.24218 0.03176 0.0
C293 C 0.8314 0.2223 0.04992 0.0
C294 C 0.88978 0.24794 0.00943 0.0
C295 C 0.91904 0.24209 0.99059 0.0
C296 C 0.24217 0.1358 0.97743 0.0
C297 C 0.22209 0.16055 0.95931 0.0
C298 C 0.24819 0.10218 0.99973 0.0
C299 C 0.24249 0.07287 0.01856 0.0
C300 C 0.10271 0.74372 0.00936 0.0
C301 C 0.07337 0.74931 0.99052 0.0
C302 C 0.1363 0.7499 0.03167 0.0
C303 C 0.16098 0.77009 0.0498 0.0
C304 C 0.52335 0.98296 0.61947 0.0
C305 C 0.56958 0.96145 0.61681 0.0
C306 C 0.4695 0.00966 0.61953 0.0
C307 C 0.42314 0.03094 0.61696 0.0
C308 C 0.00947 0.52267 0.38984 0.0
C309 C 0.03079 0.569 0.39242 0.0
C310 C 0.98286 0.46879 0.38986 0.0
C311 C 0.96153 0.42249 0.39247 0.0
C312 C 0.52291 0.00964 0.11947 0.0
C313 C 0.5692 0.03105 0.11684 0.0
C314 C 0.46904 0.98296 0.1195 0.0
C315 C 0.42273 0.96157 0.11691 0.0
C316 C 0.00894 0.46863 0.88994 0.0
C317 C 0.03032 0.42234 0.89254 0.0
C318 C 0.98234 0.52251 0.8899 0.0
C319 C 0.96107 0.56888 0.89246 0.0
C320 C 0.02472 0.00494 0.61676 0.0
C321 C 0.07164 0.02425 0.61332 0.0
C322 C 0.96824 0.98442 0.61696 0.0
C323 C 0.9212 0.96517 0.61377 0.0
C324 C 0.00622 0.96746 0.39215 0.0
C325 C 0.02557 0.92055 0.39553 0.0
C326 C 0.98564 0.02391 0.39207 0.0
C327 C 0.96635 0.07088 0.39537 0.0
C328 C 0.02411 0.98582 0.11723 0.0
C329 C 0.07104 0.96644 0.11387 0.0
C330 C 0.96769 0.00654 0.11726 0.0
C331 C 0.92076 0.02596 0.11391 0.0
C332 C 0.98676 0.96716 0.8917 0.0
C333 C 0.96738 0.92026 0.89508 0.0
C334 C 0.00723 0.02364 0.89171 0.0
C335 C 0.02635 0.07066 0.89509 0.0
C336 C 0.2132 0.21108 0.74106 0.0
C337 C 0.21771 0.20861 0.71799 0.0
C338 C 0.20921 0.21492 0.7681 0.0
C339 C 0.20705 0.21907 0.79119 0.0
C340 C 0.21327 0.78228 0.24097 0.0
C341 C 0.21781 0.78459 0.2179 0.0
C342 C 0.20921 0.77817 0.268 0.0
C343 C 0.207 0.77369 0.29106 0.0
C344 C 0.78137 0.77849 0.76813 0.0
C345 C 0.78389 0.77385 0.79118 0.0
C346 C 0.77734 0.78243 0.74109 0.0
C347 C 0.77303 0.7845 0.71801 0.0
C348 C 0.78309 0.21294 0.26822 0.0
C349 C 0.78527 0.21748 0.29129 0.0
C350 C 0.77905 0.20897 0.24118 0.0
C351 C 0.77445 0.20687 0.21812 0.0
loop_
_geom_bond_atom_site_label_1
_geom_bond_atom_site_label_2
_geom_bond_distance
_geom_bond_site_symmetry_2
_ccdc_geom_bond_type
Co0 O3 1.970 . S
Co0 N17 1.989 . S
Co0 O25 1.967 . S
Co0 O32 1.920 . S
Co1 O4 1.966 . S
Co1 N10 2.022 . S
Co1 N18 1.993 . S
Co1 O26 1.941 . S
C2 O3 1.258 . S
C2 O4 1.263 . S
O3 Co0 1.970 . S
O3 C2 1.258 . S
O4 Co1 1.966 . S
O4 C2 1.263 . S
C5 O6 1.235 . S
C5 O32 1.289 1_565 S
O6 C5 1.235 . S
C7 C9 1.400 . S
C7 N10 1.351 . S
C7 C12 1.501 . S
C8 C9 1.387 . S
C8 N11 1.341 . S
C9 C7 1.400 . S
C9 C8 1.387 . S
N10 Co1 2.022 . S
N10 C7 1.351 . S
N10 N11 1.365 . S
N11 C8 1.341 . S
N11 N10 1.365 . S
N11 H31 0.862 . S
C12 C7 1.501 . S
C12 H13 0.961 . S
C12 H14 0.961 . S
C12 H15 0.960 . S
H13 C12 0.961 . S
H14 C12 0.961 . S
H15 C12 0.960 . S
C16 N17 1.342 . S
C16 C20 1.401 . S
C16 C21 1.499 . S
N17 Co0 1.989 . S
N17 C16 1.342 . S
N17 N18 1.388 . S
N18 Co1 1.993 . S
N18 N17 1.388 . S
N18 C19 1.346 . S
C19 N18 1.346 . S
C19 C20 1.396 . S
C19 C29 1.510 . S
C20 C16 1.401 . S
C20 C19 1.396 . S
C21 C16 1.499 . S
C21 H22 0.959 . S
C21 H23 0.960 1_545 S
C21 H24 0.961 . S
H22 C21 0.959 . S
H23 C21 0.960 1_565 S
H24 C21 0.961 . S
O25 Co0 1.967 . S
O25 C33 1.258 . S
O26 Co1 1.941 . S
O26 C33 1.266 . S
H27 C29 0.959 . S
H28 C29 0.961 . S
C29 C19 1.510 . S
C29 H27 0.959 . S
C29 H28 0.961 . S
C29 H30 0.960 . S
H30 C29 0.960 . S
H31 N11 0.862 . S
O32 Co0 1.920 . S
O32 C5 1.289 1_545 S
C33 O25 1.258 . S
C33 O26 1.266 . S
Co34 O37 1.970 . S
Co34 N51 1.989 . S
Co34 O59 1.967 . S
Co34 O66 1.920 . S
Co35 O38 1.966 . S
Co35 N44 2.022 . S
Co35 N52 1.993 . S
Co35 O60 1.941 . S
C36 O37 1.258 . S
C36 O38 1.263 . S
O37 Co34 1.970 . S
O37 C36 1.258 . S
O38 Co35 1.966 . S
O38 C36 1.263 . S
C39 O40 1.235 . S
C39 O66 1.289 1_655 S
O40 C39 1.235 . S
C41 C43 1.400 . S
C41 N44 1.351 . S
C41 C46 1.501 . S
C42 C43 1.387 . S
C42 N45 1.341 . S
C43 C41 1.400 . S
C43 C42 1.387 . S
N44 Co35 2.022 . S
N44 C41 1.351 . S
N44 N45 1.365 . S
N45 C42 1.341 . S
N45 N44 1.365 . S
N45 H65 0.862 . S
C46 C41 1.501 . S
C46 H47 0.961 . S
C46 H48 0.961 . S
C46 H49 0.960 . S
H47 C46 0.961 . S
H48 C46 0.961 . S
H49 C46 0.960 . S
C50 N51 1.342 . S
C50 C54 1.401 . S
C50 C55 1.499 . S
N51 Co34 1.989 . S
N51 C50 1.342 . S
N51 N52 1.388 . S
N52 Co35 1.993 . S
N52 N51 1.388 . S
N52 C53 1.346 . S
C53 N52 1.346 . S
C53 C54 1.396 . S
C53 C63 1.510 . S
C54 C50 1.401 . S
C54 C53 1.396 . S
C55 C50 1.499 . S
C55 H56 0.959 . S
C55 H57 0.960 1_455 S
C55 H58 0.961 . S
H56 C55 0.959 . S
H57 C55 0.960 1_655 S
H58 C55 0.961 . S
O59 Co34 1.967 . S
O59 C67 1.258 . S
O60 Co35 1.941 . S
O60 C67 1.266 . S
H61 C63 0.959 . S
H62 C63 0.961 . S
C63 C53 1.510 . S
C63 H61 0.959 . S
C63 H62 0.961 . S
C63 H64 0.960 . S
H64 C63 0.960 . S
H65 N45 0.862 . S
O66 Co34 1.920 . S
O66 C39 1.289 1_455 S
C67 O59 1.258 . S
C67 O60 1.266 . S
Co68 O71 1.970 . S
Co68 N85 1.989 . S
Co68 O93 1.967 . S
Co68 O100 1.920 . S
Co69 O72 1.966 . S
Co69 N78 2.022 . S
Co69 N86 1.993 . S
Co69 O94 1.941 . S
C70 O71 1.258 . S
C70 O72 1.263 . S
O71 Co68 1.970 . S
O71 C70 1.258 . S
O72 Co69 1.966 . S
O72 C70 1.263 . S
C73 O74 1.235 . S
C73 O100 1.289 1_545 S
O74 C73 1.235 . S
C75 C77 1.400 . S
C75 N78 1.351 . S
C75 C80 1.501 . S
C76 C77 1.387 . S
C76 N79 1.341 . S
C77 C75 1.400 . S
C77 C76 1.387 . S
N78 Co69 2.022 . S
N78 C75 1.351 . S
N78 N79 1.365 . S
N79 C76 1.341 . S
N79 N78 1.365 . S
N79 H99 0.862 . S
C80 C75 1.501 . S
C80 H81 0.961 . S
C80 H82 0.961 . S
C80 H83 0.960 . S
H81 C80 0.961 . S
H82 C80 0.961 . S
H83 C80 0.960 . S
C84 N85 1.342 . S
C84 C88 1.401 . S
C84 C89 1.499 . S
N85 Co68 1.989 . S
N85 C84 1.342 . S
N85 N86 1.388 . S
N86 Co69 1.993 . S
N86 N85 1.388 . S
N86 C87 1.346 . S
C87 N86 1.346 . S
C87 C88 1.396 . S
C87 C97 1.510 . S
C88 C84 1.401 . S
C88 C87 1.396 . S
C89 C84 1.499 . S
C89 H90 0.959 . S
C89 H91 0.960 1_565 S
C89 H92 0.961 . S
H90 C89 0.959 . S
H91 C89 0.960 1_545 S
H92 C89 0.961 . S
O93 Co68 1.967 . S
O93 C101 1.258 . S
O94 Co69 1.941 . S
O94 C101 1.266 . S
H95 C97 0.959 . S
H96 C97 0.961 . S
C97 C87 1.510 . S
C97 H95 0.959 . S
C97 H96 0.961 . S
C97 H98 0.960 . S
H98 C97 0.960 . S
H99 N79 0.862 . S
O100 Co68 1.920 . S
O100 C73 1.289 1_565 S
C101 O93 1.258 . S
C101 O94 1.266 . S
Co102 O105 1.970 . S
Co102 N119 1.989 . S
Co102 O127 1.967 . S
Co102 O134 1.920 . S
Co103 O106 1.966 . S
Co103 N112 2.022 . S
Co103 N120 1.993 . S
Co103 O128 1.941 . S
C104 O105 1.258 . S
C104 O106 1.263 . S
O105 Co102 1.970 . S
O105 C104 1.258 . S
O106 Co103 1.966 . S
O106 C104 1.263 . S
C107 O108 1.235 . S
C107 O134 1.289 1_455 S
O108 C107 1.235 . S
C109 C111 1.400 . S
C109 N112 1.351 . S
C109 C114 1.501 . S
C110 C111 1.387 . S
C110 N113 1.341 . S
C111 C109 1.400 . S
C111 C110 1.387 . S
N112 Co103 2.022 . S
N112 C109 1.351 . S
N112 N113 1.365 . S
N113 C110 1.341 . S
N113 N112 1.365 . S
N113 H133 0.862 . S
C114 C109 1.501 . S
C114 H115 0.961 . S
C114 H116 0.961 . S
C114 H117 0.960 . S
H115 C114 0.961 . S
H116 C114 0.961 . S
H117 C114 0.960 . S
C118 N119 1.342 . S
C118 C122 1.401 . S
C118 C123 1.499 . S
N119 Co102 1.989 . S
N119 C118 1.342 . S
N119 N120 1.388 . S
N120 Co103 1.993 . S
N120 N119 1.388 . S
N120 C121 1.346 . S
C121 N120 1.346 . S
C121 C122 1.396 . S
C121 C131 1.510 . S
C122 C118 1.401 . S
C122 C121 1.396 . S
C123 C118 1.499 . S
C123 H124 0.959 . S
C123 H125 0.960 1_655 S
C123 H126 0.961 . S
H124 C123 0.959 . S
H125 C123 0.960 1_455 S
H126 C123 0.961 . S
O127 Co102 1.967 . S
O127 C135 1.258 . S
O128 Co103 1.941 . S
O128 C135 1.266 . S
H129 C131 0.959 . S
H130 C131 0.961 . S
C131 C121 1.510 . S
C131 H129 0.959 . S
C131 H130 0.961 . S
C131 H132 0.960 . S
H132 C131 0.960 . S
H133 N113 0.862 . S
O134 Co102 1.920 . S
O134 C107 1.289 1_655 S
C135 O127 1.258 . S
C135 O128 1.266 . S
Co136 O139 1.970 . S
Co136 N153 1.989 . S
Co136 O161 1.967 . S
Co136 O168 1.920 . S
Co137 O140 1.966 . S
Co137 N146 2.022 . S
Co137 N154 1.993 . S
Co137 O162 1.941 . S
C138 O139 1.258 . S
C138 O140 1.263 . S
O139 Co136 1.970 . S
O139 C138 1.258 . S
O140 Co137 1.966 . S
O140 C138 1.263 . S
C141 O142 1.235 . S
C141 O168 1.289 1_565 S
O142 C141 1.235 . S
C143 C145 1.400 . S
C143 N146 1.351 . S
C143 C148 1.501 . S
C144 C145 1.387 . S
C144 N147 1.341 . S
C145 C143 1.400 . S
C145 C144 1.387 . S
N146 Co137 2.022 . S
N146 C143 1.351 . S
N146 N147 1.365 . S
N147 C144 1.341 . S
N147 N146 1.365 . S
N147 H167 0.862 . S
C148 C143 1.501 . S
C148 H149 0.961 . S
C148 H150 0.961 . S
C148 H151 0.960 . S
H149 C148 0.961 . S
H150 C148 0.961 . S
H151 C148 0.960 . S
C152 N153 1.342 . S
C152 C156 1.401 . S
C152 C157 1.499 . S
N153 Co136 1.989 . S
N153 C152 1.342 . S
N153 N154 1.388 . S
N154 Co137 1.993 . S
N154 N153 1.388 . S
N154 C155 1.346 . S
C155 N154 1.346 . S
C155 C156 1.396 . S
C155 C165 1.510 . S
C156 C152 1.401 . S
C156 C155 1.396 . S
C157 C152 1.499 . S
C157 H158 0.959 . S
C157 H159 0.960 1_545 S
C157 H160 0.961 . S
H158 C157 0.959 . S
H159 C157 0.960 1_565 S
H160 C157 0.961 . S
O161 Co136 1.967 . S
O161 C169 1.258 . S
O162 Co137 1.941 . S
O162 C169 1.266 . S
H163 C165 0.959 . S
H164 C165 0.961 . S
C165 C155 1.510 . S
C165 H163 0.959 . S
C165 H164 0.961 . S
C165 H166 0.960 . S
H166 C165 0.960 . S
H167 N147 0.862 . S
O168 Co136 1.920 . S
O168 C141 1.289 1_545 S
C169 O161 1.258 . S
C169 O162 1.266 . S
Co170 O173 1.970 . S
Co170 N187 1.989 . S
Co170 O195 1.967 . S
Co170 O202 1.920 . S
Co171 O174 1.966 . S
Co171 N180 2.022 . S
Co171 N188 1.993 . S
Co171 O196 1.941 . S
C172 O173 1.258 . S
C172 O174 1.263 . S
O173 Co170 1.970 . S
O173 C172 1.258 . S
O174 Co171 1.966 . S
O174 C172 1.263 . S
C175 O176 1.235 . S
C175 O202 1.289 1_655 S
O176 C175 1.235 . S
C177 C179 1.400 . S
C177 N180 1.351 . S
C177 C182 1.501 . S
C178 C179 1.387 . S
C178 N181 1.341 . S
C179 C177 1.400 . S
C179 C178 1.387 . S
N180 Co171 2.022 . S
N180 C177 1.351 . S
N180 N181 1.365 . S
N181 C178 1.341 . S
N181 N180 1.365 . S
N181 H201 0.862 . S
C182 C177 1.501 . S
C182 H183 0.961 . S
C182 H184 0.961 . S
C182 H185 0.960 . S
H183 C182 0.961 . S
H184 C182 0.961 . S
H185 C182 0.960 . S
C186 N187 1.342 . S
C186 C190 1.401 . S
C186 C191 1.499 . S
N187 Co170 1.989 . S
N187 C186 1.342 . S
N187 N188 1.388 . S
N188 Co171 1.993 . S
N188 N187 1.388 . S
N188 C189 1.346 . S
C189 N188 1.346 . S
C189 C190 1.396 . S
C189 C199 1.510 . S
C190 C186 1.401 . S
C190 C189 1.396 . S
C191 C186 1.499 . S
C191 H192 0.959 . S
C191 H193 0.960 1_455 S
C191 H194 0.961 . S
H192 C191 0.959 . S
H193 C191 0.960 1_655 S
H194 C191 0.961 . S
O195 Co170 1.967 . S
O195 C203 1.258 . S
O196 Co171 1.941 . S
O196 C203 1.266 . S
H197 C199 0.959 . S
H198 C199 0.961 . S
C199 C189 1.510 . S
C199 H197 0.959 . S
C199 H198 0.961 . S
C199 H200 0.960 . S
H200 C199 0.960 . S
H201 N181 0.862 . S
O202 Co170 1.920 . S
O202 C175 1.289 1_455 S
C203 O195 1.258 . S
C203 O196 1.266 . S
Co204 O207 1.970 . S
Co204 N221 1.989 . S
Co204 O229 1.967 . S
Co204 O236 1.920 . S
Co205 O208 1.966 . S
Co205 N214 2.022 . S
Co205 N222 1.993 . S
Co205 O230 1.941 . S
C206 O207 1.258 . S
C206 O208 1.263 . S
O207 Co204 1.970 . S
O207 C206 1.258 . S
O208 Co205 1.966 . S
O208 C206 1.263 . S
C209 O210 1.235 . S
C209 O236 1.289 1_545 S
O210 C209 1.235 . S
C211 C213 1.400 . S
C211 N214 1.351 . S
C211 C216 1.501 . S
C212 C213 1.387 . S
C212 N215 1.341 . S
C213 C211 1.400 . S
C213 C212 1.387 . S
N214 Co205 2.022 . S
N214 C211 1.351 . S
N214 N215 1.365 . S
N215 C212 1.341 . S
N215 N214 1.365 . S
N215 H235 0.862 . S
C216 C211 1.501 . S
C216 H217 0.961 . S
C216 H218 0.961 . S
C216 H219 0.960 . S
H217 C216 0.961 . S
H218 C216 0.961 . S
H219 C216 0.960 . S
C220 N221 1.342 . S
C220 C224 1.401 . S
C220 C225 1.499 . S
N221 Co204 1.989 . S
N221 C220 1.342 . S
N221 N222 1.388 . S
N222 Co205 1.993 . S
N222 N221 1.388 . S
N222 C223 1.346 . S
C223 N222 1.346 . S
C223 C224 1.396 . S
C223 C233 1.510 . S
C224 C220 1.401 . S
C224 C223 1.396 . S
C225 C220 1.499 . S
C225 H226 0.959 . S
C225 H227 0.960 1_565 S
C225 H228 0.961 . S
H226 C225 0.959 . S
H227 C225 0.960 1_545 S
H228 C225 0.961 . S
O229 Co204 1.967 . S
O229 C237 1.258 . S
O230 Co205 1.941 . S
O230 C237 1.266 . S
H231 C233 0.959 . S
H232 C233 0.961 . S
C233 C223 1.510 . S
C233 H231 0.959 . S
C233 H232 0.961 . S
C233 H234 0.960 . S
H234 C233 0.960 . S
H235 N215 0.862 . S
O236 Co204 1.920 . S
O236 C209 1.289 1_565 S
C237 O229 1.258 . S
C237 O230 1.266 . S
Co238 O241 1.970 . S
Co238 N255 1.989 . S
Co238 O263 1.967 . S
Co238 O270 1.920 . S
Co239 O242 1.966 . S
Co239 N248 2.022 . S
Co239 N256 1.993 . S
Co239 O264 1.941 . S
C240 O241 1.258 . S
C240 O242 1.263 . S
O241 Co238 1.970 . S
O241 C240 1.258 . S
O242 Co239 1.966 . S
O242 C240 1.263 . S
C243 O244 1.235 . S
C243 O270 1.289 1_455 S
O244 C243 1.235 . S
C245 C247 1.400 . S
C245 N248 1.351 . S
C245 C250 1.501 . S
C246 C247 1.387 . S
C246 N249 1.341 . S
C247 C245 1.400 . S
C247 C246 1.387 . S
N248 Co239 2.022 . S
N248 C245 1.351 . S
N248 N249 1.365 . S
N249 C246 1.341 . S
N249 N248 1.365 . S
N249 H269 0.862 . S
C250 C245 1.501 . S
C250 H251 0.961 . S
C250 H252 0.961 . S
C250 H253 0.960 . S
H251 C250 0.961 . S
H252 C250 0.961 . S
H253 C250 0.960 . S
C254 N255 1.342 . S
C254 C258 1.401 . S
C254 C259 1.499 . S
N255 Co238 1.989 . S
N255 C254 1.342 . S
N255 N256 1.388 . S
N256 Co239 1.993 . S
N256 N255 1.388 . S
N256 C257 1.346 . S
C257 N256 1.346 . S
C257 C258 1.396 . S
C257 C267 1.510 . S
C258 C254 1.401 . S
C258 C257 1.396 . S
C259 C254 1.499 . S
C259 H260 0.959 . S
C259 H261 0.960 1_655 S
C259 H262 0.961 . S
H260 C259 0.959 . S
H261 C259 0.960 1_455 S
H262 C259 0.961 . S
O263 Co238 1.967 . S
O263 C271 1.258 . S
O264 Co239 1.941 . S
O264 C271 1.266 . S
H265 C267 0.959 . S
H266 C267 0.961 . S
C267 C257 1.510 . S
C267 H265 0.959 . S
C267 H266 0.961 . S
C267 H268 0.960 . S
H268 C267 0.960 . S
H269 N249 0.862 . S
O270 Co238 1.920 . S
O270 C243 1.289 1_655 S
C271 O263 1.258 . S
C271 O264 1.266 . S
C272 C273 1.170 . S
C272 C274 1.380 . S
C273 C272 1.170 . S
C274 C272 1.380 . S
C274 C275 1.170 . S
C275 C274 1.170 . S
C276 C277 1.170 . S
C276 C278 1.380 . S
C277 C276 1.170 . S
C278 C276 1.380 . S
C278 C279 1.170 . S
C279 C278 1.170 . S
C280 C281 1.170 . S
C280 C282 1.380 . S
C281 C280 1.170 . S
C282 C280 1.380 . S
C282 C283 1.170 . S
C283 C282 1.170 . S
C284 C285 1.170 . S
C284 C286 1.380 . S
C285 C284 1.170 . S
C286 C284 1.380 . S
C286 C287 1.170 . S
C287 C286 1.170 . S
C288 C289 1.170 . S
C288 C290 1.380 . S
C289 C288 1.170 . S
C290 C288 1.380 . S
C290 C291 1.170 1_556 S
C291 C290 1.170 1_554 S
C292 C293 1.170 . S
C292 C294 1.380 . S
C293 C292 1.170 . S
C294 C292 1.380 . S
C294 C295 1.170 1_554 S
C295 C294 1.170 1_556 S
C296 C297 1.170 . S
C296 C298 1.380 . S
C297 C296 1.170 . S
C298 C296 1.380 . S
C298 C299 1.170 1_556 S
C299 C298 1.170 1_554 S
C300 C301 1.170 1_554 S
C300 C302 1.380 . S
C301 C300 1.170 1_556 S
C302 C300 1.380 . S
C302 C303 1.170 . S
C303 C302 1.170 . S
C304 C305 1.170 . S
C304 C306 1.380 1_565 S
C305 C304 1.170 . S
C306 C304 1.380 1_545 S
C306 C307 1.170 . S
C307 C306 1.170 . S
C308 C309 1.170 . S
C308 C310 1.380 1_455 S
C309 C308 1.170 . S
C310 C308 1.380 1_655 S
C310 C311 1.170 . S
C311 C310 1.170 . S
C312 C313 1.170 . S
C312 C314 1.380 1_545 S
C313 C312 1.170 . S
C314 C312 1.380 1_565 S
C314 C315 1.170 . S
C315 C314 1.170 . S
C316 C317 1.170 . S
C316 C318 1.380 1_455 S
C317 C316 1.170 . S
C318 C316 1.380 1_655 S
C318 C319 1.170 . S
C319 C318 1.170 . S
C320 C321 1.170 . S
C320 C322 1.380 1_445 S
C321 C320 1.170 . S
C322 C320 1.380 1_665 S
C322 C323 1.170 . S
C323 C322 1.170 . S
C324 C325 1.170 . S
C324 C326 1.380 1_465 S
C325 C324 1.170 . S
C326 C324 1.380 1_645 S
C326 C327 1.170 . S
C327 C326 1.170 . S
C328 C329 1.170 . S
C328 C330 1.380 1_465 S
C329 C328 1.170 . S
C330 C328 1.380 1_645 S
C330 C331 1.170 . S
C331 C330 1.170 . S
C332 C333 1.170 . S
C332 C334 1.380 1_665 S
C333 C332 1.170 . S
C334 C332 1.380 1_445 S
C334 C335 1.170 . S
C335 C334 1.170 . S
C336 C337 1.170 . S
C336 C338 1.380 . S
C337 C336 1.170 . S
C338 C336 1.380 . S
C338 C339 1.170 . S
C339 C338 1.170 . S
C340 C341 1.170 . S
C340 C342 1.380 . S
C341 C340 1.170 . S
C342 C340 1.380 . S
C342 C343 1.170 . S
C343 C342 1.170 . S
C344 C345 1.170 . S
C344 C346 1.380 . S
C345 C344 1.170 . S
C346 C344 1.380 . S
C346 C347 1.170 . S
C347 C346 1.170 . S
C348 C349 1.170 . S
C348 C350 1.380 . S
C349 C348 1.170 . S
C350 C348 1.380 . S
C350 C351 1.170 . S
C351 C350 1.170 . S
C273 C5 1.085 . S
C275 C67 1.040 . S
C277 C101 1.039 . S
C279 C39 1.092 . S
C281 C73 1.089 . S
C283 C135 0.990 . S
C285 C33 1.061 . S
C287 C107 1.081 . S
C289 C271 1.006 . S
C291 C141 1.080 . S
C293 C169 1.026 . S
C295 C175 1.090 . S
C297 C203 1.000 . S
C299 C209 1.076 . S
C301 C243 1.069 . S
C303 C237 0.999 . S
C305 C88 1.603 . S
C307 C20 1.619 . S
C309 C54 1.612 . S
C311 C122 1.590 . S
C313 C156 1.621 . S
C315 C224 1.588 . S
C317 C190 1.608 . S
C319 C258 1.614 . S
C321 C2 1.321 . S
C323 C70 1.320 . S
C325 C36 1.299 . S
C327 C104 1.307 . S
C329 C206 1.298 . S
C331 C138 1.303 . S
C333 C240 1.319 . S
C335 C172 1.318 . S
C337 C9 1.761 . S
C339 C179 1.769 . S
C341 C213 1.759 . S
C343 C43 1.772 . S
C345 C247 1.761 . S
C347 C77 1.758 . S
C349 C111 1.763 . S
C351 C145 1.762 . S
