# Generated by pormake.
# Topology unu, (4)-cn, num edge types: 1
# Building blocks:
#     Node 0, Type 0, BuildingBlock: AZAVOO_clean_sbu_0, # of connection points: 4
#     Node 1, Type 0, BuildingBlock: AZAVOO_clean_sbu_0, # of connection points: 4
#     Node 2, Type 0, BuildingBlock: AZAVOO_clean_sbu_0, # of connection points: 4
#     Node 3, Type 0, BuildingBlock: AZAVOO_clean_sbu_0, # of connection points: 4
#     Node 4, Type 0, BuildingBlock: AZAVOO_clean_sbu_0, # of connection points: 4
#     Node 5, Type 0, BuildingBlock: AZAVOO_clean_sbu_0, # of connection points: 4
#     Node 6, Type 0, BuildingBlock: AZAVOO_clean_sbu_0, # of connection points: 4
#     Node 7, Type 0, BuildingBlock: AZAVOO_clean_sbu_0, # of connection points: 4
#     Node 8, Type 0, BuildingBlock: AZAVOO_clean_sbu_0, # of connection points: 4
#     Node 9, Type 0, BuildingBlock: AZAVOO_clean_sbu_0, # of connection points: 4
#     Node 10, Type 0, BuildingBlock: AZAVOO_clean_sbu_0, # of connection points: 4
#     Node 11, Type 0, BuildingBlock: AZAVOO_clean_sbu_0, # of connection points: 4
#     Node 12, Type 0, BuildingBlock: AZAVOO_clean_sbu_0, # of connection points: 4
#     Node 13, Type 0, BuildingBlock: AZAVOO_clean_sbu_0, # of connection points: 4
#     Node 14, Type 0, BuildingBlock: AZAVOO_clean_sbu_0, # of connection points: 4
#     Node 15, Type 0, BuildingBlock: AZAVOO_clean_sbu_0, # of connection points: 4
#     Node 16, Type 0, BuildingBlock: AZAVOO_clean_sbu_0, # of connection points: 4
#     Node 17, Type 0, BuildingBlock: AZAVOO_clean_sbu_0, # of connection points: 4
#     Node 18, Type 0, BuildingBlock: AZAVOO_clean_sbu_0, # of connection points: 4
#     Node 19, Type 0, BuildingBlock: AZAVOO_clean_sbu_0, # of connection points: 4
#     Node 20, Type 0, BuildingBlock: AZAVOO_clean_sbu_0, # of connection points: 4
#     Node 21, Type 0, BuildingBlock: AZAVOO_clean_sbu_0, # of connection points: 4
#     Node 22, Type 0, BuildingBlock: AZAVOO_clean_sbu_0, # of connection points: 4
#     Node 23, Type 0, BuildingBlock: AZAVOO_clean_sbu_0, # of connection points: 4
#     Node 24, Type 0, BuildingBlock: AZAVOO_clean_sbu_0, # of connection points: 4
#     Node 25, Type 0, BuildingBlock: AZAVOO_clean_sbu_0, # of connection points: 4
#     Node 26, Type 0, BuildingBlock: AZAVOO_clean_sbu_0, # of connection points: 4
#     Node 27, Type 0, BuildingBlock: AZAVOO_clean_sbu_0, # of connection points: 4
#     Node 28, Type 0, BuildingBlock: AZAVOO_clean_sbu_0, # of connection points: 4
#     Node 29, Type 0, BuildingBlock: AZAVOO_clean_sbu_0, # of connection points: 4
#     Node 30, Type 0, BuildingBlock: AZAVOO_clean_sbu_0, # of connection points: 4
#     Node 31, Type 0, BuildingBlock: AZAVOO_clean_sbu_0, # of connection points: 4
#     Node 32, Type 0, BuildingBlock: AZAVOO_clean_sbu_0, # of connection points: 4
#     Node 33, Type 0, BuildingBlock: AZAVOO_clean_sbu_0, # of connection points: 4
#     Node 34, Type 0, BuildingBlock: AZAVOO_clean_sbu_0, # of connection points: 4
#     Node 35, Type 0, BuildingBlock: AZAVOO_clean_sbu_0, # of connection points: 4
#     Edge 36, Type (0, 0), BuildingBlock: ZUJKAS_clean_linker_0, # of connection points: 2
#     Edge 37, Type (0, 0), BuildingBlock: ZUJKAS_clean_linker_0, # of connection points: 2
#     Edge 38, Type (0, 0), BuildingBlock: ZUJKAS_clean_linker_0, # of connection points: 2
#     Edge 39, Type (0, 0), BuildingBlock: ZUJKAS_clean_linker_0, # of connection points: 2
#     Edge 40, Type (0, 0), BuildingBlock: ZUJKAS_clean_linker_0, # of connection points: 2
#     Edge 41, Type (0, 0), BuildingBlock: ZUJKAS_clean_linker_0, # of connection points: 2
#     Edge 42, Type (0, 0), BuildingBlock: ZUJKAS_clean_linker_0, # of connection points: 2
#     Edge 43, Type (0, 0), BuildingBlock: ZUJKAS_clean_linker_0, # of connection points: 2
#     Edge 44, Type (0, 0), BuildingBlock: ZUJKAS_clean_linker_0, # of connection points: 2
#     Edge 45, Type (0, 0), BuildingBlock: ZUJKAS_clean_linker_0, # of connection points: 2
#     Edge 46, Type (0, 0), BuildingBlock: ZUJKAS_clean_linker_0, # of connection points: 2
#     Edge 47, Type (0, 0), BuildingBlock: ZUJKAS_clean_linker_0, # of connection points: 2
#     Edge 48, Type (0, 0), BuildingBlock: ZUJKAS_clean_linker_0, # of connection points: 2
#     Edge 49, Type (0, 0), BuildingBlock: ZUJKAS_clean_linker_0, # of connection points: 2
#     Edge 50, Type (0, 0), BuildingBlock: ZUJKAS_clean_linker_0, # of connection points: 2
#     Edge 51, Type (0, 0), BuildingBlock: ZUJKAS_clean_linker_0, # of connection points: 2
#     Edge 52, Type (0, 0), BuildingBlock: ZUJKAS_clean_linker_0, # of connection points: 2
#     Edge 53, Type (0, 0), BuildingBlock: ZUJKAS_clean_linker_0, # of connection points: 2
#     Edge 54, Type (0, 0), BuildingBlock: ZUJKAS_clean_linker_0, # of connection points: 2
#     Edge 55, Type (0, 0), BuildingBlock: ZUJKAS_clean_linker_0, # of connection points: 2
#     Edge 56, Type (0, 0), BuildingBlock: ZUJKAS_clean_linker_0, # of connection points: 2
#     Edge 57, Type (0, 0), BuildingBlock: ZUJKAS_clean_linker_0, # of connection points: 2
#     Edge 58, Type (0, 0), BuildingBlock: ZUJKAS_clean_linker_0, # of connection points: 2
#     Edge 59, Type (0, 0), BuildingBlock: ZUJKAS_clean_linker_0, # of connection points: 2
#     Edge 60, Type (0, 0), BuildingBlock: ZUJKAS_clean_linker_0, # of connection points: 2
#     Edge 61, Type (0, 0), BuildingBlock: ZUJKAS_clean_linker_0, # of connection points: 2
#     Edge 62, Type (0, 0), BuildingBlock: ZUJKAS_clean_linker_0, # of connection points: 2
#     Edge 63, Type (0, 0), BuildingBlock: ZUJKAS_clean_linker_0, # of connection points: 2
#     Edge 64, Type (0, 0), BuildingBlock: ZUJKAS_clean_linker_0, # of connection points: 2
#     Edge 65, Type (0, 0), BuildingBlock: ZUJKAS_clean_linker_0, # of connection points: 2
#     Edge 66, Type (0, 0), BuildingBlock: ZUJKAS_clean_linker_0, # of connection points: 2
#     Edge 67, Type (0, 0), BuildingBlock: ZUJKAS_clean_linker_0, # of connection points: 2
#     Edge 68, Type (0, 0), BuildingBlock: ZUJKAS_clean_linker_0, # of connection points: 2
#     Edge 69, Type (0, 0), BuildingBlock: ZUJKAS_clean_linker_0, # of connection points: 2
#     Edge 70, Type (0, 0), BuildingBlock: ZUJKAS_clean_linker_0, # of connection points: 2
#     Edge 71, Type (0, 0), BuildingBlock: ZUJKAS_clean_linker_0, # of connection points: 2
#     Edge 72, Type (0, 0), BuildingBlock: ZUJKAS_clean_linker_0, # of connection points: 2
#     Edge 73, Type (0, 0), BuildingBlock: ZUJKAS_clean_linker_0, # of connection points: 2
#     Edge 74, Type (0, 0), BuildingBlock: ZUJKAS_clean_linker_0, # of connection points: 2
#     Edge 75, Type (0, 0), BuildingBlock: ZUJKAS_clean_linker_0, # of connection points: 2
#     Edge 76, Type (0, 0), BuildingBlock: ZUJKAS_clean_linker_0, # of connection points: 2
#     Edge 77, Type (0, 0), BuildingBlock: ZUJKAS_clean_linker_0, # of connection points: 2
#     Edge 78, Type (0, 0), BuildingBlock: ZUJKAS_clean_linker_0, # of connection points: 2
#     Edge 79, Type (0, 0), BuildingBlock: ZUJKAS_clean_linker_0, # of connection points: 2
#     Edge 80, Type (0, 0), BuildingBlock: ZUJKAS_clean_linker_0, # of connection points: 2
#     Edge 81, Type (0, 0), BuildingBlock: ZUJKAS_clean_linker_0, # of connection points: 2
#     Edge 82, Type (0, 0), BuildingBlock: ZUJKAS_clean_linker_0, # of connection points: 2
#     Edge 83, Type (0, 0), BuildingBlock: ZUJKAS_clean_linker_0, # of connection points: 2
#     Edge 84, Type (0, 0), BuildingBlock: ZUJKAS_clean_linker_0, # of connection points: 2
#     Edge 85, Type (0, 0), BuildingBlock: ZUJKAS_clean_linker_0, # of connection points: 2
#     Edge 86, Type (0, 0), BuildingBlock: ZUJKAS_clean_linker_0, # of connection points: 2
#     Edge 87, Type (0, 0), BuildingBlock: ZUJKAS_clean_linker_0, # of connection points: 2
#     Edge 88, Type (0, 0), BuildingBlock: ZUJKAS_clean_linker_0, # of connection points: 2
#     Edge 89, Type (0, 0), BuildingBlock: ZUJKAS_clean_linker_0, # of connection points: 2
#     Edge 90, Type (0, 0), BuildingBlock: ZUJKAS_clean_linker_0, # of connection points: 2
#     Edge 91, Type (0, 0), BuildingBlock: ZUJKAS_clean_linker_0, # of connection points: 2
#     Edge 92, Type (0, 0), BuildingBlock: ZUJKAS_clean_linker_0, # of connection points: 2
#     Edge 93, Type (0, 0), BuildingBlock: ZUJKAS_clean_linker_0, # of connection points: 2
#     Edge 94, Type (0, 0), BuildingBlock: ZUJKAS_clean_linker_0, # of connection points: 2
#     Edge 95, Type (0, 0), BuildingBlock: ZUJKAS_clean_linker_0, # of connection points: 2
#     Edge 96, Type (0, 0), BuildingBlock: ZUJKAS_clean_linker_0, # of connection points: 2
#     Edge 97, Type (0, 0), BuildingBlock: ZUJKAS_clean_linker_0, # of connection points: 2
#     Edge 98, Type (0, 0), BuildingBlock: ZUJKAS_clean_linker_0, # of connection points: 2
#     Edge 99, Type (0, 0), BuildingBlock: ZUJKAS_clean_linker_0, # of connection points: 2
#     Edge 100, Type (0, 0), BuildingBlock: ZUJKAS_clean_linker_0, # of connection points: 2
#     Edge 101, Type (0, 0), BuildingBlock: ZUJKAS_clean_linker_0, # of connection points: 2
#     Edge 102, Type (0, 0), BuildingBlock: ZUJKAS_clean_linker_0, # of connection points: 2
#     Edge 103, Type (0, 0), BuildingBlock: ZUJKAS_clean_linker_0, # of connection points: 2
#     Edge 104, Type (0, 0), BuildingBlock: ZUJKAS_clean_linker_0, # of connection points: 2
#     Edge 105, Type (0, 0), BuildingBlock: ZUJKAS_clean_linker_0, # of connection points: 2
#     Edge 106, Type (0, 0), BuildingBlock: ZUJKAS_clean_linker_0, # of connection points: 2
#     Edge 107, Type (0, 0), BuildingBlock: ZUJKAS_clean_linker_0, # of connection points: 2
# Relax obj value: 0.306
# Max RMSD: 0.276
# Mean RMSD: 0.276
data_MOF--net-unu--node1-AZAVOO_clean_sbu_0--edge1-ZUJKAS_clean_linker_0
_symmetry_space_group_name_H-M    P1
_symmetry_Int_Tables_number       1
_symmetry_cell_setting            triclinic
loop_
_symmetry_equiv_pos_as_xyz
'x, y, z'
_cell_length_a     48.894453
_cell_length_b     48.896686
_cell_length_c     179.45884
_cell_angle_alpha  90.019971
_cell_angle_beta   89.973295
_cell_angle_gamma 119.99452
loop_
_atom_site_label
_atom_site_type_symbol
_atom_site_fract_x
_atom_site_fract_y
_atom_site_fract_z
_atom_type_partial_charge
Mg0 Mg 0.2341 0.00307 0.12406 0.0
O1 O 0.2087 0.03022 0.12105 0.0
O2 O 0.1742 0.00489 0.11191 0.0
Mg3 Mg 0.17886 0.96213 0.10879 0.0
C4 C 0.1873 0.02761 0.11655 0.0
C5 C 0.26967 0.04207 0.13791 0.0
O6 O 0.25235 0.01392 0.14085 0.0
O7 O 0.26506 0.02242 0.1137 0.0
O8 O 0.22966 0.9952 0.10486 0.0
O9 O 0.19489 0.97417 0.13192 0.0
O10 O 0.19542 0.96129 0.12014 0.0
C11 C 0.25777 0.01528 0.10686 0.0
C12 C 0.18018 0.95607 0.12632 0.0
O13 O 0.26858 0.04537 0.13091 0.0
Mg14 Mg 0.99771 0.22857 0.12332 0.0
O15 O 0.96828 0.17623 0.12022 0.0
O16 O 0.99039 0.16652 0.11044 0.0
Mg17 Mg 0.03295 0.21341 0.10697 0.0
C18 C 0.96902 0.15726 0.11544 0.0
C19 C 0.96264 0.22602 0.13792 0.0
O20 O 0.99112 0.23563 0.14053 0.0
O21 O 0.97639 0.24155 0.11362 0.0
O22 O 7e-05 0.23272 0.10404 0.0
O23 O 0.02747 0.21653 0.13039 0.0
O24 O 0.03757 0.23019 0.11854 0.0
C25 C 0.98131 0.24147 0.10664 0.0
C26 C 0.04368 0.21928 0.12445 0.0
O27 O 0.9579 0.22203 0.13094 0.0
Mg28 Mg 0.77314 0.76755 0.1258 0.0
O29 O 0.82589 0.78846 0.12319 0.0
O30 O 0.83784 0.81805 0.11293 0.0
Mg31 Mg 0.79218 0.81388 0.10861 0.0
C32 C 0.84585 0.80675 0.11837 0.0
C33 C 0.77706 0.74049 0.14118 0.0
O34 O 0.77113 0.76266 0.14335 0.0
O35 O 0.75977 0.73075 0.11666 0.0
O36 O 0.77281 0.76096 0.10645 0.0
O37 O 0.78527 0.81122 0.13207 0.0
O38 O 0.77326 0.80493 0.12008 0.0
C39 C 0.76233 0.73414 0.10961 0.0
C40 C 0.78339 0.82329 0.12581 0.0
O41 O 0.77792 0.73563 0.13425 0.0
Mg42 Mg 0.01237 0.25987 0.37252 0.0
O43 O 0.03175 0.22889 0.37704 0.0
O44 O -0.00121 0.19661 0.38577 0.0
Mg45 Mg 0.96005 0.20894 0.38732 0.0
C46 C 0.02365 0.2067 0.3818 0.0
C47 C 0.05614 0.29271 0.35935 0.0
O48 O 0.02786 0.28103 0.35642 0.0
O49 O 0.03104 0.29132 0.38285 0.0
O50 O 0.99792 0.25781 0.39135 0.0
O51 O 0.9836 0.22159 0.36448 0.0
O52 O 0.96677 0.22498 0.37569 0.0
C53 C 0.02137 0.28459 0.38956 0.0
C54 C 0.96271 0.20876 0.3697 0.0
O55 O 0.0585 0.28936 0.3663 0.0
Mg56 Mg 0.73604 0.8033 0.37954 0.0
O57 O 0.76623 0.85792 0.38065 0.0
O58 O 0.79808 0.87175 0.39062 0.0
Mg59 Mg 0.77346 0.8277 0.39781 0.0
C60 C 0.78913 0.87871 0.38457 0.0
C61 C 0.7183 0.80058 0.36288 0.0
O62 O 0.7335 0.78477 0.36266 0.0
O63 O 0.69455 0.79741 0.38678 0.0
O64 O 0.73131 0.83085 0.39391 0.0
O65 O 0.77917 0.80426 0.37555 0.0
O66 O 0.76635 0.79892 0.38751 0.0
C67 C 0.70392 0.80706 0.39335 0.0
C68 C 0.78656 0.80269 0.3824 0.0
O69 O 0.71416 0.81026 0.36912 0.0
Mg70 Mg 0.18028 0.97115 0.37774 0.0
O71 O 0.13092 0.93975 0.38276 0.0
O72 O 0.12879 0.96093 0.39363 0.0
Mg73 Mg 0.17621 0.00547 0.39554 0.0
C74 C 0.11607 0.93963 0.38863 0.0
C75 C 0.17262 0.94059 0.36247 0.0
O76 O 0.18068 0.96984 0.36082 0.0
O77 O 0.20229 0.9523 0.38593 0.0
O78 O 0.20055 0.97568 0.39647 0.0
O79 O 0.16234 -0.00083 0.37212 0.0
O80 O 0.18356 0.01026 0.38337 0.0
C81 C 0.20812 0.95788 0.39286 0.0
C82 C 0.16897 0.01589 0.37813 0.0
O83 O 0.17096 0.93283 0.36929 0.0
Mg84 Mg 0.7639 0.00099 0.87044 0.0
O85 O 0.78933 0.97451 0.87405 0.0
O86 O 0.82267 0.00081 0.88333 0.0
Mg87 Mg 0.81674 0.04315 0.88602 0.0
C88 C 0.81032 0.97773 0.87876 0.0
C89 C 0.72947 0.96229 0.8565 0.0
O90 O 0.74513 0.99099 0.85375 0.0
O91 O 0.73135 0.98169 0.88057 0.0
O92 O 0.76561 0.00938 0.88957 0.0
O93 O 0.80418 0.02974 0.86283 0.0
O94 O 0.80175 0.04317 0.87447 0.0
C95 C 0.73783 0.989 0.88742 0.0
C96 C 0.81799 0.04809 0.86846 0.0
O97 O 0.73103 0.95838 0.86345 0.0
Mg98 Mg 0.00215 0.77715 0.87225 0.0
O99 O 0.03385 0.82823 0.87616 0.0
O100 O 0.01309 0.83608 0.88647 0.0
Mg101 Mg 0.9692 0.78944 0.88939 0.0
C102 C 0.03426 0.84607 0.88141 0.0
C103 C 0.03645 0.78247 0.85733 0.0
O104 O 0.00848 0.77567 0.85484 0.0
O105 O 0.02174 0.7594 0.88131 0.0
O106 O 0.00024 0.76706 0.8915 0.0
O107 O 0.97405 0.793 0.86581 0.0
O108 O 0.96345 0.77638 0.87748 0.0
C109 C 0.01764 0.7578 0.88834 0.0
C110 C 0.95801 0.78933 0.87184 0.0
O111 O 0.0411 0.78373 0.86431 0.0
Mg112 Mg 0.22475 0.23573 0.87378 0.0
O113 O 0.17136 0.21332 0.87566 0.0
O114 O 0.15748 0.18267 0.88577 0.0
Mg115 Mg 0.20256 0.18754 0.89072 0.0
C116 C 0.15044 0.19422 0.88021 0.0
C117 C 0.21883 0.26139 0.85839 0.0
O118 O 0.22132 0.23704 0.85625 0.0
O119 O 0.23499 0.27125 0.88306 0.0
O120 O 0.22024 0.24001 0.89312 0.0
O121 O 0.21532 0.19296 0.86742 0.0
O122 O 0.2245 0.19839 0.87955 0.0
C123 C 0.23085 0.26708 0.89008 0.0
C124 C 0.21621 0.18059 0.87372 0.0
O125 O 0.22087 0.26805 0.86528 0.0
Mg126 Mg 0.00388 0.77329 0.62465 0.0
O127 O 0.97392 0.795 0.62098 0.0
O128 O 0.99634 0.82557 0.61103 0.0
Mg129 Mg 0.03954 0.82159 0.60803 0.0
C130 C 0.97466 0.81389 0.61597 0.0
C131 C 0.96916 0.74183 0.63932 0.0
O132 O 0.99802 0.76008 0.64179 0.0
O133 O 0.98368 0.73755 0.61517 0.0
O134 O 0.00736 0.76891 0.60541 0.0
O135 O 0.03265 0.8161 0.63149 0.0
O136 O 0.04372 0.81131 0.61978 0.0
C137 C 0.98886 0.74167 0.60818 0.0
C138 C 0.04916 0.82902 0.62555 0.0
O139 O 0.96395 0.74086 0.63236 0.0
Mg140 Mg 0.23373 0.23508 0.62399 0.0
O141 O 0.20887 0.18245 0.62108 0.0
O142 O 0.17421 0.17243 0.61192 0.0
Mg143 Mg 0.17834 0.21949 0.60867 0.0
C144 C 0.18758 0.16328 0.61661 0.0
C145 C 0.26922 0.23302 0.63796 0.0
O146 O 0.25245 0.24491 0.64068 0.0
O147 O 0.2649 0.24665 0.61365 0.0
O148 O 0.22921 0.23739 0.60481 0.0
O149 O 0.19428 0.22465 0.6318 0.0
O150 O 0.19486 0.23761 0.61998 0.0
C151 C 0.25743 0.24589 0.60681 0.0
C152 C 0.17955 0.22771 0.62615 0.0
O153 O 0.2681 0.22767 0.63101 0.0
Mg154 Mg 0.77306 0.00363 0.62361 0.0
O155 O 0.82593 0.03648 0.62133 0.0
O156 O 0.83964 0.01965 0.6112 0.0
Mg157 Mg 0.79498 0.9777 0.60662 0.0
C158 C 0.84664 0.03874 0.61666 0.0
C159 C 0.77611 0.0349 0.63892 0.0
O160 O 0.77265 0.00781 0.64119 0.0
O161 O 0.75997 0.02661 0.61432 0.0
O162 O 0.77476 0.0104 0.60422 0.0
O163 O 0.78556 0.97267 0.63003 0.0
O164 O 0.77481 0.96705 0.61797 0.0
C165 C 0.76334 0.02611 0.60729 0.0
C166 C 0.78474 0.95908 0.62377 0.0
O167 O 0.77585 0.0398 0.63198 0.0
Mg168 Mg 0.90192 0.30612 0.46359 0.0
O169 O 0.87694 0.33425 0.46134 0.0
O170 O 0.84529 0.31442 0.45145 0.0
Mg171 Mg 0.85194 0.27433 0.44703 0.0
C172 C 0.85691 0.33426 0.45679 0.0
C173 C 0.92718 0.34222 0.47858 0.0
O174 O 0.90335 0.31574 0.48107 0.0
O175 O 0.93585 0.33179 0.45401 0.0
O176 O 0.90346 0.3107 0.44429 0.0
O177 O 0.86039 0.27262 0.47036 0.0
O178 O 0.86491 0.2668 0.4583 0.0
C179 C 0.93071 0.32952 0.447 0.0
C180 C 0.8476 0.25805 0.4642 0.0
O181 O 0.9337 0.34493 0.47167 0.0
Mg182 Mg 0.69707 0.56315 0.46235 0.0
O183 O 0.66618 0.51327 0.4576 0.0
O184 O 0.69222 0.50587 0.44831 0.0
Mg185 Mg 0.73885 0.55175 0.4468 0.0
C186 C 0.6681 0.49592 0.45254 0.0
C187 C 0.65654 0.56047 0.47584 0.0
O188 O 0.68382 0.56926 0.47907 0.0
O189 O 0.68516 0.58425 0.45246 0.0
O190 O 0.71175 0.57689 0.4433 0.0
O191 O 0.71883 0.54373 0.46992 0.0
O192 O 0.73741 0.56253 0.45869 0.0
C193 C 0.69369 0.58693 0.44565 0.0
C194 C 0.73805 0.5475 0.46454 0.0
O195 O 0.65443 0.55709 0.46881 0.0
Mg196 Mg 0.44753 0.10394 0.45489 0.0
O197 O 0.49982 0.11959 0.45322 0.0
O198 O 0.51784 0.15003 0.44311 0.0
Mg199 Mg 0.47619 0.15205 0.43801 0.0
C200 C 0.52215 0.13666 0.44873 0.0
C201 C 0.4449 0.0736 0.4703 0.0
O202 O 0.44287 0.0982 0.47247 0.0
O203 O 0.43334 0.06797 0.4456 0.0
O204 O 0.45124 0.09862 0.43548 0.0
O205 O 0.46211 0.14762 0.46135 0.0
O206 O 0.45411 0.14413 0.44917 0.0
C207 C 0.43728 0.07142 0.43856 0.0
C208 C 0.4638 0.16145 0.45508 0.0
O209 O 0.44548 0.06855 0.46338 0.0
Mg210 Mg 0.66576 0.56514 0.70331 0.0
O211 O 0.69195 0.54009 0.70741 0.0
O212 O 0.66435 0.50682 0.7166 0.0
Mg213 Mg 0.6217 0.51288 0.71881 0.0
C214 C 0.68809 0.51918 0.71221 0.0
C215 C 0.70567 0.5992 0.68954 0.0
O216 O 0.67721 0.58302 0.68667 0.0
O217 O 0.68359 0.59802 0.71337 0.0
O218 O 0.65534 0.56411 0.72239 0.0
O219 O 0.6384 0.52447 0.69574 0.0
O220 O 0.62314 0.52747 0.70717 0.0
C221 C 0.67586 0.59181 0.72021 0.0
C222 C 0.61927 0.51095 0.70126 0.0
O223 O 0.70911 0.59799 0.69652 0.0
Mg224 Mg 0.42934 0.10384 0.70474 0.0
O225 O 0.45272 0.15706 0.7071 0.0
O226 O 0.48554 0.16921 0.71677 0.0
Mg227 Mg 0.4789 0.12293 0.72137 0.0
C228 C 0.47327 0.1772 0.71155 0.0
C229 C 0.39923 0.10523 0.68964 0.0
O230 O 0.41835 0.09525 0.68742 0.0
O231 O 0.39468 0.09325 0.71422 0.0
O232 O 0.42692 0.10682 0.72408 0.0
O233 O 0.47136 0.11334 0.69805 0.0
O234 O 0.4666 0.10239 0.71009 0.0
C235 C 0.39964 0.097 0.72122 0.0
C236 C 0.484 0.11125 0.7042 0.0
O237 O 0.39722 0.10956 0.69655 0.0
Mg238 Mg 0.88792 0.3267 0.70539 0.0
O239 O 0.83641 0.29423 0.70883 0.0
O240 O 0.82658 0.3128 0.71925 0.0
Mg241 Mg 0.87274 0.35606 0.72277 0.0
C242 C 0.81758 0.29269 0.71396 0.0
C243 C 0.88099 0.29337 0.69018 0.0
O244 O 0.88489 0.32056 0.68785 0.0
O245 O 0.90472 0.30567 0.71434 0.0
O246 O 0.8953 0.32506 0.72467 0.0
O247 O 0.87256 0.35592 0.69921 0.0
O248 O 0.88786 0.36429 0.71099 0.0
C249 C 0.90531 0.3085 0.72141 0.0
C250 C 0.87545 0.37072 0.7054 0.0
O251 O 0.88228 0.28905 0.69712 0.0
Mg252 Mg 0.43485 0.33781 0.20311 0.0
O253 O 0.45539 0.30631 0.20625 0.0
O254 O 0.48363 0.32432 0.21669 0.0
Mg255 Mg 0.4794 0.36656 0.22049 0.0
C256 C 0.4729 0.30471 0.2113 0.0
C257 C 0.40813 0.30624 0.18774 0.0
O258 O 0.429 0.33481 0.18552 0.0
O259 O 0.39715 0.31477 0.21206 0.0
O260 O 0.42612 0.33384 0.22238 0.0
O261 O 0.47914 0.36892 0.19698 0.0
O262 O 0.47166 0.37555 0.20884 0.0
C263 C 0.39959 0.31688 0.21914 0.0
C264 C 0.49058 0.38337 0.20323 0.0
O265 O 0.40397 0.30048 0.19468 0.0
Mg266 Mg 0.66012 0.10354 0.20183 0.0
O267 O 0.68882 0.15483 0.2058 0.0
O268 O 0.66506 0.1616 0.21568 0.0
Mg269 Mg 0.62207 0.11372 0.21833 0.0
C270 C 0.68724 0.17233 0.21087 0.0
C271 C 0.69724 0.10955 0.18737 0.0
O272 O 0.66892 0.09976 0.18463 0.0
O273 O 0.67993 0.08781 0.21133 0.0
O274 O 0.65475 0.0939 0.221 0.0
O275 O 0.63141 0.11749 0.19493 0.0
O276 O 0.61943 0.10029 0.20653 0.0
C277 C 0.67397 0.08598 0.21829 0.0
C278 C 0.61418 0.11286 0.2008 0.0
O279 O 0.7012 0.11246 0.19438 0.0
Mg280 Mg 0.89398 0.56505 0.20733 0.0
O281 O 0.84213 0.54575 0.21053 0.0
O282 O 0.83051 0.514 0.22039 0.0
Mg283 Mg 0.87575 0.51473 0.22381 0.0
C284 C 0.82251 0.52709 0.21536 0.0
C285 C 0.892 0.59711 0.19265 0.0
O286 O 0.8988 0.576 0.19011 0.0
O287 O 0.91026 0.6 0.21695 0.0
O288 O 0.89887 0.56754 0.22667 0.0
O289 O 0.87887 0.52246 0.20035 0.0
O290 O 0.89259 0.52538 0.21219 0.0
C291 C 0.90979 0.59523 0.22395 0.0
C292 C 0.88086 0.50848 0.20628 0.0
O293 O 0.88987 0.59969 0.19964 0.0
Mg294 Mg 0.67171 0.10226 0.96025 0.0
O295 O 0.64286 0.12539 0.95674 0.0
O296 O 0.66729 0.15805 0.94721 0.0
Mg297 Mg 0.71098 0.15462 0.94441 0.0
C298 C 0.64468 0.14542 0.95191 0.0
C299 C 0.63476 0.06879 0.97447 0.0
O300 O 0.66295 0.08796 0.97719 0.0
O301 O 0.65272 0.06902 0.95026 0.0
O302 O 0.67887 0.10284 0.94106 0.0
O303 O 0.69987 0.14322 0.96772 0.0
O304 O 0.71264 0.14106 0.95601 0.0
C305 C 0.65946 0.075 0.94337 0.0
C306 C 0.71756 0.15733 0.96201 0.0
O307 O 0.63056 0.0681 0.96747 0.0
Mg308 Mg 0.89772 0.56353 0.95767 0.0
O309 O 0.8765 0.51034 0.9557 0.0
O310 O 0.84671 0.49624 0.94544 0.0
Mg311 Mg 0.85148 0.54118 0.94045 0.0
C312 C 0.85804 0.48937 0.95107 0.0
C313 C 0.92316 0.55918 0.97327 0.0
O314 O 0.89939 0.56281 0.97534 0.0
O315 O 0.93441 0.57468 0.94865 0.0
O316 O 0.90436 0.55953 0.9384 0.0
O317 O 0.8541 0.5529 0.96378 0.0
O318 O 0.86057 0.56258 0.95167 0.0
C319 C 0.93111 0.57052 0.94163 0.0
C320 C 0.84215 0.55359 0.95739 0.0
O321 O 0.92948 0.56002 0.96638 0.0
Mg322 Mg 0.44026 0.33235 0.95965 0.0
O323 O 0.49068 0.36413 0.95533 0.0
O324 O 0.49759 0.34287 0.94499 0.0
Mg325 Mg 0.45071 0.29864 0.94241 0.0
C326 C 0.508 0.36438 0.94997 0.0
C327 C 0.44876 0.36814 0.97452 0.0
O328 O 0.44398 0.34091 0.97707 0.0
O329 O 0.42093 0.35104 0.95074 0.0
O330 O 0.42779 0.32931 0.94048 0.0
O331 O 0.45751 0.30496 0.96592 0.0
O332 O 0.43912 0.29351 0.9544 0.0
C333 C 0.41862 0.34663 0.94371 0.0
C334 C 0.45308 0.28861 0.95991 0.0
O335 O 0.44764 0.37176 0.96754 0.0
Mg336 Mg 0.56476 0.66077 0.79242 0.0
O337 O 0.53967 0.6881 0.78924 0.0
O338 O 0.50642 0.66343 0.77983 0.0
Mg339 Mg 0.51186 0.62121 0.77668 0.0
C340 C 0.51887 0.6858 0.78459 0.0
C341 C 0.59923 0.69793 0.80657 0.0
O342 O 0.58311 0.66908 0.80922 0.0
O343 O 0.59716 0.68123 0.78233 0.0
O344 O 0.56306 0.65528 0.77316 0.0
O345 O 0.52468 0.63123 0.79997 0.0
O346 O 0.52661 0.61931 0.78817 0.0
C347 C 0.59082 0.67517 0.77543 0.0
C348 C 0.5106 0.61365 0.79425 0.0
O349 O 0.59795 0.70238 0.79964 0.0
Mg350 Mg 0.33183 0.89067 0.79188 0.0
O351 O 0.29995 0.83988 0.78778 0.0
O352 O 0.32123 0.8323 0.77753 0.0
Mg353 Mg 0.36562 0.87885 0.77482 0.0
C354 C 0.2997 0.82222 0.7825 0.0
C355 C 0.29698 0.88535 0.80669 0.0
O356 O 0.32488 0.89215 0.80923 0.0
O357 O 0.31331 0.90941 0.7828 0.0
O358 O 0.33523 0.90192 0.77265 0.0
O359 O 0.35907 0.87395 0.79837 0.0
O360 O 0.37067 0.89125 0.78677 0.0
C361 C 0.31791 0.91135 0.77577 0.0
C362 C 0.3755 0.87782 0.79241 0.0
O363 O 0.29254 0.88409 0.7997 0.0
Mg364 Mg 0.1044 0.43222 0.79044 0.0
O365 O 0.15754 0.45333 0.7884 0.0
O366 O 0.17147 0.48317 0.77816 0.0
Mg367 Mg 0.1265 0.47868 0.77324 0.0
C368 C 0.17843 0.47177 0.78376 0.0
C369 C 0.10986 0.40727 0.80599 0.0
O370 O 0.10739 0.43175 0.80802 0.0
O371 O 0.09291 0.3956 0.78138 0.0
O372 O 0.10778 0.42577 0.77114 0.0
O373 O 0.1152 0.47585 0.79658 0.0
O374 O 0.1053 0.46948 0.78449 0.0
C375 C 0.09679 0.39896 0.77434 0.0
C376 C 0.11432 0.48785 0.79022 0.0
O377 O 0.10794 0.4003 0.79911 0.0
Mg378 Mg 0.32139 0.89097 0.03615 0.0
O379 O 0.34893 0.86724 0.04021 0.0
O380 O 0.32489 0.83688 0.05008 0.0
Mg381 Mg 0.2828 0.84331 0.05273 0.0
C382 C 0.34701 0.84798 0.04525 0.0
C383 C 0.37072 0.90658 0.024 0.0
O384 O 0.35482 0.87557 0.02406 0.0
O385 O 0.34237 0.92686 0.04561 0.0
O386 O 0.31673 0.89563 0.05525 0.0
O387 O 0.29134 0.84837 0.02933 0.0
O388 O 0.28021 0.85421 0.04094 0.0
C389 C 0.33642 0.92268 0.05258 0.0
C390 C 0.27434 0.83615 0.03523 0.0
O391 O 0.36267 0.92151 0.02847 0.0
Mg392 Mg 0.09614 0.43218 0.03793 0.0
O393 O 0.11873 0.48444 0.04099 0.0
O394 O 0.15048 0.49487 0.0508 0.0
Mg395 Mg 0.14697 0.44825 0.05424 0.0
C396 C 0.13812 0.50369 0.04576 0.0
C397 C 0.06664 0.43917 0.02331 0.0
O398 O 0.08813 0.4332 0.02063 0.0
O399 O 0.06193 0.41921 0.04768 0.0
O400 O 0.09475 0.42845 0.05721 0.0
O401 O 0.13806 0.44405 0.03087 0.0
O402 O 0.13441 0.43067 0.04274 0.0
C403 C 0.06714 0.41944 0.05465 0.0
C404 C 0.15139 0.4411 0.03681 0.0
O405 O 0.06291 0.43891 0.03032 0.0
Mg406 Mg 0.55595 0.66457 0.03926 0.0
O407 O 0.50401 0.63121 0.04222 0.0
O408 O 0.49199 0.64901 0.05245 0.0
Mg409 Mg 0.53706 0.69274 0.05632 0.0
C410 C 0.48419 0.62912 0.04714 0.0
C411 C 0.55249 0.6318 0.02414 0.0
O412 O 0.55629 0.6588 0.02169 0.0
O413 O 0.57185 0.64392 0.04849 0.0
O414 O 0.56027 0.66261 0.05863 0.0
O415 O 0.5408 0.69327 0.03278 0.0
O416 O 0.55413 0.70154 0.04469 0.0
C417 C 0.57128 0.64655 0.05555 0.0
C418 C 0.54235 0.70775 0.03894 0.0
O419 O 0.55257 0.62748 0.03111 0.0
Mg420 Mg 0.09355 0.65807 0.539 0.0
O421 O 0.12027 0.63149 0.5411 0.0
O422 O 0.15574 0.6554 0.55015 0.0
Mg423 Mg 0.14842 0.69509 0.55456 0.0
C424 C 0.14267 0.63391 0.5452 0.0
C425 C 0.06435 0.61892 0.52461 0.0
O426 O 0.08637 0.64561 0.52173 0.0
O427 O 0.06267 0.63503 0.5492 0.0
O428 O 0.09787 0.65941 0.55827 0.0
O429 O 0.13293 0.69047 0.5315 0.0
O430 O 0.1312 0.69921 0.54352 0.0
C431 C 0.06989 0.63971 0.5561 0.0
C432 C 0.14689 0.70687 0.53738 0.0
O433 O 0.06018 0.61698 0.53162 0.0
Mg434 Mg 0.33054 0.43443 0.53298 0.0
O435 O 0.35732 0.48401 0.53803 0.0
O436 O 0.32745 0.48906 0.54675 0.0
Mg437 Mg 0.28367 0.44041 0.54816 0.0
C438 C 0.35261 0.50045 0.54284 0.0
C439 C 0.37401 0.4437 0.51962 0.0
O440 O 0.34681 0.4342 0.51628 0.0
O441 O 0.34463 0.41521 0.54295 0.0
O442 O 0.31508 0.42018 0.55174 0.0
O443 O 0.30645 0.45201 0.52545 0.0
O444 O 0.2877 0.43023 0.53644 0.0
C445 C 0.33525 0.41231 0.54969 0.0
C446 C 0.28616 0.44545 0.53076 0.0
O447 O 0.37519 0.44528 0.52669 0.0
Mg448 Mg 0.55093 0.89106 0.53741 0.0
O449 O 0.49954 0.87191 0.5409 0.0
O450 O 0.48943 0.84251 0.55114 0.0
Mg451 Mg 0.53559 0.84487 0.55451 0.0
C452 C 0.4806 0.85422 0.54595 0.0
C453 C 0.54418 0.91813 0.52237 0.0
O454 O 0.54881 0.89531 0.52003 0.0
O455 O 0.56799 0.92818 0.54655 0.0
O456 O 0.55842 0.89827 0.5567 0.0
O457 O 0.53529 0.8468 0.53105 0.0
O458 O 0.55121 0.85322 0.54279 0.0
C459 C 0.56858 0.9252 0.5536 0.0
C460 C 0.53878 0.83474 0.53715 0.0
O461 O 0.54505 0.92346 0.52932 0.0
Mg462 Mg 0.33485 0.42856 0.29081 0.0
O463 O 0.30291 0.44985 0.28884 0.0
O464 O 0.31989 0.48145 0.27887 0.0
Mg465 Mg 0.35922 0.4757 0.27371 0.0
C466 C 0.30115 0.46926 0.28438 0.0
C467 C 0.30803 0.4003 0.30641 0.0
O468 O 0.33775 0.41941 0.30815 0.0
O469 O 0.30891 0.39215 0.28175 0.0
O470 O 0.32368 0.42306 0.27163 0.0
O471 O 0.36804 0.47199 0.29697 0.0
O472 O 0.37129 0.4658 0.28485 0.0
C473 C 0.30777 0.39609 0.27476 0.0
C474 C 0.38081 0.48407 0.2906 0.0
O475 O 0.29977 0.39735 0.29961 0.0
Mg476 Mg 0.56425 0.88883 0.28746 0.0
O477 O 0.54181 0.83646 0.28445 0.0
O478 O 0.5067 0.82544 0.27534 0.0
Mg479 Mg 0.50839 0.87153 0.27221 0.0
C480 C 0.52089 0.81695 0.27996 0.0
C481 C 0.60698 0.89781 0.30072 0.0
O482 O 0.59415 0.91486 0.30261 0.0
O483 O 0.59534 0.90206 0.27717 0.0
O484 O 0.55977 0.89214 0.26824 0.0
O485 O 0.52489 0.87595 0.29537 0.0
O486 O 0.524 0.88901 0.2836 0.0
C487 C 0.58813 0.90161 0.27033 0.0
C488 C 0.5092 0.878 0.2898 0.0
O489 O 0.60046 0.8844 0.29439 0.0
Mg490 Mg 0.1029 0.65491 0.29712 0.0
O491 O 0.15477 0.6835 0.2934 0.0
O492 O 0.16256 0.65851 0.28391 0.0
Mg493 Mg 0.11434 0.61775 0.28064 0.0
C494 C 0.17282 0.68097 0.28864 0.0
C495 C 0.09298 0.70578 0.30572 0.0
O496 O 0.06655 0.69332 0.30189 0.0
O497 O 0.08865 0.67582 0.28761 0.0
O498 O 0.09844 0.6537 0.2778 0.0
O499 O 0.11563 0.62525 0.30398 0.0
O500 O 0.09896 0.61424 0.2923 0.0
C501 C 0.09 0.67237 0.28061 0.0
C502 C 0.11076 0.60822 0.29807 0.0
O503 O 0.11178 0.6952 0.30485 0.0
H504 H 0.30549 0.10392 0.13368 0.0
H505 H 0.33165 0.15024 0.14178 0.0
H506 H 0.29978 0.08981 0.16112 0.0
H507 H 0.27399 0.04339 0.15308 0.0
H508 H 0.30238 0.16842 0.15232 0.0
H509 H 0.39316 0.14814 0.16557 0.0
H510 H 0.37219 0.12759 0.15725 0.0
H511 H 0.35395 0.11482 0.16625 0.0
C512 C 0.30442 0.10045 0.13965 0.0
C513 C 0.2877 0.06996 0.14274 0.0
C514 C 0.31932 0.12694 0.14427 0.0
C515 C 0.31794 0.12341 0.15204 0.0
C516 C 0.30168 0.09301 0.15513 0.0
H517 H 0.36908 0.24351 0.19062 0.0
H518 H 0.34664 0.20012 0.18164 0.0
C519 C 0.28681 0.06651 0.15053 0.0
C520 C 0.33186 0.15151 0.15694 0.0
H521 H 0.38377 0.18683 0.17125 0.0
C522 C 0.32041 0.17267 0.15642 0.0
C523 C 0.35534 0.1569 0.16226 0.0
C524 C 0.36962 0.13584 0.16283 0.0
C525 C 0.33118 0.19862 0.16124 0.0
C526 C 0.35417 0.2036 0.16666 0.0
C527 C 0.36596 0.18274 0.16711 0.0
C528 C 0.36617 0.23018 0.17198 0.0
C529 C 0.31728 0.22 0.16066 0.0
C530 C 0.38439 0.26142 0.16948 0.0
C531 C 0.3973 0.28631 0.1746 0.0
C532 C 0.39223 0.28031 0.18228 0.0
C533 C 0.37338 0.24897 0.18474 0.0
C534 C 0.3606 0.22413 0.17962 0.0
H535 H 0.29541 0.20934 0.15724 0.0
H536 H 0.31179 0.22553 0.16627 0.0
H537 H 0.33476 0.24257 0.158 0.0
H538 H 0.38926 0.26647 0.1636 0.0
H539 H 0.41178 0.31016 0.17253 0.0
H540 H 0.69712 0.10758 0.17215 0.0
H541 H 0.74283 0.12734 0.16386 0.0
H542 H 0.80483 0.15474 0.18289 0.0
H543 H 0.75932 0.13471 0.19124 0.0
H544 H 0.79342 0.18965 0.16327 0.0
H545 H 0.83458 0.10529 0.17004 0.0
H546 H 0.79567 0.09801 0.17248 0.0
H547 H 0.8293 0.12452 0.17798 0.0
C548 C 0.72045 0.11747 0.17458 0.0
C549 C 0.72459 0.11951 0.18235 0.0
C550 C 0.74651 0.1288 0.16983 0.0
C551 C 0.77712 0.14218 0.17277 0.0
C552 C 0.78134 0.14396 0.18052 0.0
H553 H 0.9642 0.22955 0.15313 0.0
H554 H 0.9193 0.21119 0.16163 0.0
C555 C 0.7553 0.13262 0.18528 0.0
C556 C 0.80471 0.1556 0.16773 0.0
H557 H 0.86842 0.14925 0.16251 0.0
C558 C 0.80977 0.18076 0.16307 0.0
C559 C 0.82601 0.144 0.16753 0.0
C560 C 0.82107 0.11629 0.17222 0.0
C561 C 0.83586 0.19495 0.15827 0.0
C562 C 0.8571 0.18327 0.15805 0.0
C563 C 0.85211 0.15819 0.16272 0.0
C564 C 0.88429 0.19622 0.15288 0.0
C565 C 0.84079 0.22264 0.15357 0.0
C566 C 0.87941 0.19393 0.14516 0.0
C567 C 0.90497 0.20445 0.14028 0.0
C568 C 0.93588 0.21722 0.14306 0.0
C569 C 0.94071 0.21989 0.15081 0.0
C570 C 0.91511 0.20937 0.15568 0.0
H571 H 0.82763 0.23391 0.15581 0.0
H572 H 0.86623 0.24073 0.15322 0.0
H573 H 0.83209 0.2143 0.14784 0.0
H574 H 0.85574 0.1833 0.14289 0.0
H575 H 0.90041 0.2019 0.13434 0.0
H576 H 0.89122 0.59479 0.17744 0.0
H577 H 0.87249 0.62066 0.16887 0.0
H578 H 0.85466 0.66575 0.18741 0.0
H579 H 0.87298 0.63963 0.19605 0.0
H580 H 0.80371 0.63522 0.17764 0.0
H581 H 0.91446 0.7129 0.16226 0.0
H582 H 0.90448 0.67225 0.16256 0.0
H583 H 0.91403 0.69472 0.17105 0.0
C584 C 0.88372 0.61052 0.1797 0.0
C585 C 0.88361 0.61516 0.18743 0.0
C586 C 0.87315 0.62541 0.17479 0.0
C587 C 0.86254 0.64537 0.17751 0.0
C588 C 0.8629 0.65051 0.18521 0.0
H589 H 0.77934 0.74654 0.15634 0.0
H590 H 0.79869 0.7225 0.16531 0.0
C591 C 0.87345 0.63563 0.19013 0.0
C592 C 0.84934 0.65941 0.17235 0.0
H593 H 0.86697 0.70704 0.15711 0.0
C594 C 0.81757 0.65113 0.17318 0.0
C595 C 0.86751 0.68004 0.16653 0.0
C596 C 0.90209 0.69077 0.16557 0.0
C597 C 0.80324 0.66241 0.16824 0.0
C598 C 0.82133 0.68279 0.16239 0.0
C599 C 0.85316 0.69125 0.16159 0.0
C600 C 0.80781 0.69582 0.15704 0.0
C601 C 0.76869 0.65183 0.1692 0.0
C602 C 0.80668 0.68884 0.14943 0.0
C603 C 0.7957 0.70257 0.14429 0.0
C604 C 0.78592 0.72374 0.14667 0.0
C605 C 0.78658 0.73024 0.15433 0.0
C606 C 0.79752 0.71645 0.15946 0.0
H607 H 0.75649 0.63054 0.1728 0.0
H608 H 0.7664 0.67107 0.17187 0.0
H609 H 0.75653 0.64655 0.16373 0.0
H610 H 0.81463 0.67303 0.14746 0.0
H611 H 0.79558 0.69712 0.13843 0.0
H612 H 0.05808 0.29983 0.34427 0.0
H613 H 0.10395 0.31897 0.33611 0.0
H614 H 0.16408 0.33682 0.35521 0.0
H615 H 0.11808 0.31708 0.36345 0.0
H616 H 0.15873 0.37694 0.33555 0.0
H617 H 0.18484 0.28114 0.34212 0.0
H618 H 0.14821 0.27907 0.34474 0.0
H619 H 0.18351 0.30306 0.35001 0.0
C620 C 0.08105 0.30791 0.34675 0.0
C621 C 0.0844 0.30672 0.35451 0.0
C622 C 0.10724 0.31884 0.34208 0.0
C623 C 0.13729 0.32876 0.34505 0.0
C624 C 0.14096 0.32859 0.3528 0.0
H625 H 0.31714 0.40252 0.3215 0.0
H626 H 0.27668 0.38486 0.33124 0.0
C627 C 0.1147 0.31754 0.3575 0.0
C628 C 0.16458 0.33922 0.33996 0.0
H629 H 0.21953 0.32079 0.33378 0.0
C630 C 0.17208 0.36473 0.33518 0.0
C631 C 0.18195 0.32322 0.3395 0.0
C632 C 0.17416 0.29493 0.34431 0.0
C633 C 0.19632 0.37451 0.3299 0.0
C634 C 0.21323 0.35814 0.32935 0.0
C635 C 0.20636 0.33316 0.33424 0.0
C636 C 0.23746 0.36616 0.32354 0.0
C637 C 0.20365 0.40223 0.32493 0.0
C638 C 0.22858 0.36051 0.31602 0.0
C639 C 0.25152 0.37037 0.31045 0.0
C640 C 0.28378 0.38616 0.31231 0.0
C641 C 0.29251 0.39054 0.31988 0.0
C642 C 0.26948 0.3805 0.32545 0.0
H643 H 0.1933 0.41636 0.32711 0.0
H644 H 0.22956 0.4179 0.32432 0.0
H645 H 0.19367 0.39344 0.3193 0.0
H646 H 0.20388 0.34909 0.31446 0.0
H647 H 0.24396 0.36653 0.30469 0.0
H648 H 0.72117 0.78195 0.34866 0.0
H649 H 0.70778 0.79932 0.33711 0.0
H650 H 0.68048 0.8567 0.34981 0.0
H651 H 0.69373 0.83959 0.36136 0.0
H652 H 0.64736 0.79397 0.33323 0.0
H653 H 0.74591 0.91799 0.33422 0.0
H654 H 0.74615 0.88659 0.33947 0.0
H655 H 0.72363 0.90413 0.34271 0.0
C656 C 0.71225 0.7982 0.34899 0.0
C657 C 0.7086 0.80948 0.35592 0.0
C658 C 0.70468 0.80811 0.3424 0.0
C659 C 0.69372 0.82967 0.34263 0.0
C660 C 0.68949 0.84048 0.34953 0.0
H661 H 0.62054 0.91863 0.31507 0.0
H662 H 0.64496 0.90222 0.3246 0.0
C663 C 0.69685 0.83049 0.35612 0.0
C664 C 0.68587 0.84044 0.33569 0.0
H665 H 0.70422 0.9067 0.32567 0.0
C666 C 0.66 0.8185 0.33149 0.0
C667 C 0.70255 0.87245 0.33348 0.0
C668 C 0.7313 0.89667 0.33766 0.0
C669 C 0.64928 0.82806 0.32532 0.0
C670 C 0.66539 0.8603 0.32323 0.0
C671 C 0.69196 0.88203 0.32729 0.0
C672 C 0.65352 0.87228 0.31722 0.0
C673 C 0.61992 0.80388 0.32131 0.0
C674 C 0.65119 0.86164 0.30987 0.0
C675 C 0.63709 0.87086 0.3044 0.0
C676 C 0.62531 0.89105 0.30621 0.0
C677 C 0.6292 0.90293 0.3135 0.0
C678 C 0.64319 0.89362 0.31896 0.0
H679 H 0.60675 0.78167 0.32456 0.0
H680 H 0.60388 0.81333 0.32017 0.0
H681 H 0.6267 0.79802 0.31589 0.0
H682 H 0.65965 0.84567 0.30839 0.0
H683 H 0.63468 0.86151 0.29882 0.0
H684 H 0.16828 0.94886 0.34759 0.0
H685 H 0.15286 0.90959 0.3377 0.0
H686 H 0.14318 0.83989 0.35382 0.0
H687 H 0.15795 0.8789 0.3638 0.0
H688 H 0.18104 0.87682 0.33311 0.0
H689 H 0.05929 0.79447 0.34287 0.0
H690 H 0.08274 0.83389 0.34656 0.0
H691 H 0.08886 0.80254 0.34979 0.0
C692 C 0.16282 0.92516 0.34905 0.0
C693 C 0.16421 0.91694 0.35649 0.0
C694 C 0.15398 0.90276 0.34338 0.0
C695 C 0.14635 0.87172 0.34504 0.0
C696 C 0.14823 0.86353 0.35245 0.0
H697 H 0.14374 0.73335 0.31505 0.0
H698 H 0.15607 0.77453 0.32426 0.0
C699 C 0.15691 0.88591 0.35813 0.0
C700 C 0.13733 0.84823 0.33898 0.0
H701 H 0.07916 0.77578 0.33318 0.0
C702 C 0.15869 0.85481 0.3331 0.0
C703 C 0.10792 0.81981 0.33891 0.0
C704 C 0.08323 0.81233 0.34483 0.0
C705 C 0.15178 0.83333 0.32725 0.0
C706 C 0.12305 0.80422 0.32737 0.0
C707 C 0.10131 0.79801 0.33314 0.0
C708 C 0.11554 0.77952 0.32169 0.0
C709 C 0.17523 0.84213 0.32096 0.0
C710 C 0.08818 0.76808 0.31732 0.0
C711 C 0.08084 0.74422 0.31208 0.0
C712 C 0.10072 0.73137 0.31115 0.0
C713 C 0.12803 0.74287 0.31557 0.0
C714 C 0.13525 0.76657 0.32082 0.0
H715 H 0.19081 0.86814 0.32053 0.0
H716 H 0.19044 0.83167 0.32202 0.0
H717 H 0.16307 0.83305 0.31554 0.0
H718 H 0.07257 0.77767 0.31796 0.0
H719 H 0.05961 0.73583 0.30877 0.0
H720 H 0.63027 0.76077 0.80304 0.0
H721 H 0.65322 0.80554 0.81165 0.0
H722 H 0.62753 0.74152 0.83025 0.0
H723 H 0.60481 0.6966 0.8217 0.0
H724 H 0.61971 0.81604 0.82304 0.0
H725 H 0.72046 0.80683 0.8344 0.0
H726 H 0.70029 0.78726 0.82592 0.0
H727 H 0.683 0.77094 0.83483 0.0
C728 C 0.6299 0.7562 0.80895 0.0
C729 C 0.61573 0.72511 0.81169 0.0
C730 C 0.64295 0.78181 0.81386 0.0
C731 C 0.64229 0.77681 0.82157 0.0
C732 C 0.62874 0.74588 0.82431 0.0
H733 H 0.69916 0.89965 0.86025 0.0
H734 H 0.67603 0.85434 0.85179 0.0
C735 C 0.61566 0.72024 0.81941 0.0
C736 C 0.65413 0.80385 0.82676 0.0
H737 H 0.70857 0.84291 0.8404 0.0
C738 C 0.63924 0.82205 0.82681 0.0
C739 C 0.67946 0.81142 0.8317 0.0
C740 C 0.69696 0.79329 0.83169 0.0
C741 C 0.64878 0.84748 0.83174 0.0
C742 C 0.67419 0.85513 0.83666 0.0
C743 C 0.68902 0.83687 0.83663 0.0
C744 C 0.68629 0.88245 0.84178 0.0
C745 C 0.63122 0.86556 0.83175 0.0
C746 C 0.69957 0.91321 0.83894 0.0
C747 C 0.71274 0.93913 0.84375 0.0
C748 C 0.71305 0.93475 0.85149 0.0
C749 C 0.69922 0.90384 0.85432 0.0
C750 C 0.68608 0.87793 0.8495 0.0
H751 H 0.60755 0.85179 0.82914 0.0
H752 H 0.62826 0.87198 0.83751 0.0
H753 H 0.64492 0.88769 0.82852 0.0
H754 H 0.70046 0.91721 0.83299 0.0
H755 H 0.72332 0.96262 0.84138 0.0
H756 H 0.09776 0.80062 0.86069 0.0
H757 H 0.14205 0.81812 0.85205 0.0
H758 H 0.07958 0.80187 0.83352 0.0
H759 H 0.035 0.78401 0.84211 0.0
H760 H 0.12197 0.77874 0.83143 0.0
H761 H 0.18342 0.90352 0.84101 0.0
H762 H 0.17382 0.87483 0.84827 0.0
H763 H 0.14266 0.87604 0.84324 0.0
C764 C 0.09337 0.80062 0.85478 0.0
C765 C 0.06288 0.79111 0.85209 0.0
C766 C 0.11875 0.81082 0.84986 0.0
C767 C 0.11411 0.81181 0.84217 0.0
C768 C 0.08361 0.80147 0.83945 0.0
H769 H 0.23575 0.8672 0.80322 0.0
H770 H 0.19125 0.84973 0.81181 0.0
C771 C 0.0582 0.79127 0.84436 0.0
C772 C 0.1411 0.82366 0.83697 0.0
H773 H 0.21099 0.88916 0.83244 0.0
C774 C 0.14139 0.8029 0.83162 0.0
C775 C 0.16633 0.8552 0.83725 0.0
C776 C 0.16656 0.87883 0.8427 0.0
C777 C 0.16662 0.8127 0.82661 0.0
C778 C 0.19186 0.84423 0.8269 0.0
C779 C 0.19156 0.86501 0.83225 0.0
C780 C 0.21895 0.85604 0.82173 0.0
C781 C 0.1664 0.78907 0.82117 0.0
C782 C 0.24939 0.86638 0.8245 0.0
C783 C 0.27492 0.87656 0.81962 0.0
C784 C 0.27042 0.87672 0.81188 0.0
C785 C 0.23999 0.86721 0.80915 0.0
C786 C 0.2145 0.85703 0.81404 0.0
H787 H 0.14948 0.76438 0.82285 0.0
H788 H 0.15923 0.79311 0.81559 0.0
H789 H 0.19028 0.79181 0.82065 0.0
H790 H 0.25328 0.86598 0.83043 0.0
H791 H 0.29805 0.88382 0.82191 0.0
H792 H 0.2072 0.3097 0.86114 0.0
H793 H 0.18879 0.33499 0.85228 0.0
H794 H 0.19225 0.27716 0.83457 0.0
H795 H 0.21096 0.25192 0.84336 0.0
H796 H 0.21797 0.34186 0.83083 0.0
H797 H 0.09863 0.29078 0.84354 0.0
H798 H 0.13097 0.31182 0.84988 0.0
H799 H 0.12513 0.27609 0.84558 0.0
C800 C 0.20427 0.3025 0.85535 0.0
C801 C 0.21034 0.27864 0.85296 0.0
C802 C 0.19355 0.31683 0.85031 0.0
C803 C 0.18861 0.30747 0.84281 0.0
C804 C 0.19571 0.2845 0.84035 0.0
H805 H 0.12144 0.35881 0.80346 0.0
H806 H 0.13991 0.33404 0.81244 0.0
C807 C 0.2064 0.27014 0.84538 0.0
C808 C 0.1758 0.32142 0.83753 0.0
H809 H 0.11084 0.32799 0.83384 0.0
C810 C 0.19453 0.33879 0.83147 0.0
C811 C 0.1452 0.31728 0.8384 0.0
C812 C 0.12364 0.29776 0.84466 0.0
C813 C 0.18362 0.3526 0.82628 0.0
C814 C 0.15299 0.34839 0.82714 0.0
C815 C 0.13429 0.33109 0.83322 0.0
C816 C 0.14005 0.36201 0.8218 0.0
C817 C 0.20517 0.37209 0.82002 0.0
C818 C 0.13291 0.38506 0.82416 0.0
C819 C 0.12218 0.39915 0.81906 0.0
C820 C 0.11827 0.39027 0.81151 0.0
C821 C 0.12435 0.3663 0.80922 0.0
C822 C 0.1351 0.35226 0.81433 0.0
H823 H 0.2302 0.37923 0.82117 0.0
H824 H 0.19795 0.35793 0.81482 0.0
H825 H 0.20354 0.39366 0.81906 0.0
H826 H 0.13637 0.39269 0.82993 0.0
H827 H 0.11761 0.41746 0.82101 0.0
H828 H 0.70625 0.60421 0.67438 0.0
H829 H 0.75228 0.62895 0.66618 0.0
H830 H 0.81391 0.65761 0.6853 0.0
H831 H 0.768 0.63254 0.69356 0.0
H832 H 0.80181 0.69167 0.66556 0.0
H833 H 0.84523 0.60915 0.67248 0.0
H834 H 0.80606 0.60116 0.6749 0.0
H835 H 0.83948 0.62845 0.68035 0.0
C836 C 0.72958 0.61586 0.67686 0.0
C837 C 0.73347 0.61621 0.68463 0.0
C838 C 0.75584 0.62997 0.67216 0.0
C839 C 0.78643 0.64457 0.67514 0.0
C840 C 0.79046 0.64585 0.68289 0.0
H841 H 0.97202 0.73994 0.65451 0.0
H842 H 0.92774 0.71618 0.66326 0.0
C843 C 0.7642 0.63171 0.6876 0.0
C844 C 0.81405 0.65843 0.67009 0.0
H845 H 0.8775 0.65209 0.66456 0.0
C846 C 0.81835 0.68302 0.66533 0.0
C847 C 0.83554 0.64703 0.66982 0.0
C848 C 0.83132 0.61981 0.67461 0.0
C849 C 0.84379 0.69675 0.66033 0.0
C850 C 0.86512 0.68519 0.66002 0.0
C851 C 0.86102 0.66081 0.66482 0.0
C852 C 0.89179 0.69809 0.65471 0.0
C853 C 0.8479 0.7238 0.6555 0.0
C854 C 0.88615 0.695 0.64701 0.0
C855 C 0.91134 0.70846 0.64199 0.0
C856 C 0.94264 0.7252 0.6446 0.0
C857 C 0.9482 0.72732 0.65232 0.0
C858 C 0.92297 0.71378 0.65733 0.0
H859 H 0.83429 0.73474 0.65766 0.0
H860 H 0.87318 0.74229 0.6551 0.0
H861 H 0.83928 0.71491 0.64979 0.0
H862 H 0.86222 0.68243 0.64488 0.0
H863 H 0.90624 0.70626 0.63608 0.0
H864 H 0.36279 0.13208 0.69235 0.0
H865 H 0.34031 0.15225 0.68321 0.0
H866 H 0.37651 0.12026 0.66535 0.0
H867 H 0.39956 0.10039 0.67446 0.0
H868 H 0.39117 0.18257 0.66382 0.0
H869 H 0.26357 0.10525 0.66972 0.0
H870 H 0.28653 0.12458 0.67785 0.0
H871 H 0.29315 0.09627 0.67297 0.0
C872 C 0.36562 0.12891 0.68648 0.0
C873 C 0.38296 0.1146 0.68413 0.0
C874 C 0.35262 0.14035 0.68126 0.0
C875 C 0.35643 0.1374 0.67361 0.0
C876 C 0.37322 0.12263 0.67124 0.0
H877 H 0.30253 0.20362 0.63426 0.0
H878 H 0.32539 0.18139 0.64278 0.0
C879 C 0.3863 0.11124 0.67646 0.0
C880 C 0.3445 0.15142 0.6681 0.0
H881 H 0.27777 0.15061 0.66221 0.0
C882 C 0.36635 0.17542 0.66341 0.0
C883 C 0.31212 0.14204 0.6676 0.0
C884 C 0.28743 0.11542 0.67225 0.0
C885 C 0.35675 0.19089 0.65837 0.0
C886 C 0.32445 0.18182 0.65796 0.0
C887 C 0.30256 0.1576 0.66258 0.0
C888 C 0.31272 0.19717 0.65278 0.0
C889 C 0.3813 0.21736 0.65366 0.0
C890 C 0.29803 0.21335 0.65561 0.0
C891 C 0.2849 0.22602 0.65077 0.0
C892 C 0.28602 0.22251 0.64302 0.0
C893 C 0.3014 0.20687 0.6402 0.0
C894 C 0.31456 0.19423 0.64505 0.0
H895 H 0.40556 0.22616 0.65583 0.0
H896 H 0.38028 0.20865 0.6479 0.0
H897 H 0.37668 0.23739 0.65339 0.0
H898 H 0.29635 0.21578 0.66157 0.0
H899 H 0.27321 0.23789 0.65312 0.0
H900 H 0.86693 0.23296 0.6933 0.0
H901 H 0.84893 0.18881 0.6846 0.0
H902 H 0.85738 0.25008 0.66639 0.0
H903 H 0.87502 0.29437 0.67505 0.0
H904 H 0.79937 0.19355 0.66685 0.0
H905 H 0.8999 0.17134 0.66912 0.0
H906 H 0.88265 0.17228 0.67789 0.0
H907 H 0.90226 0.20748 0.67232 0.0
C908 C 0.86531 0.23717 0.68743 0.0
C909 C 0.87246 0.26721 0.68486 0.0
C910 C 0.85514 0.21192 0.68247 0.0
C911 C 0.85218 0.2163 0.67485 0.0
C912 C 0.85963 0.24629 0.67225 0.0
H913 H 0.78892 0.09505 0.63598 0.0
H914 H 0.80562 0.13857 0.64481 0.0
C915 C 0.86978 0.27156 0.67721 0.0
C916 C 0.83992 0.18928 0.66964 0.0
H917 H 0.85472 0.13318 0.66256 0.0
C918 C 0.81152 0.18041 0.66588 0.0
C919 C 0.8558 0.17217 0.66842 0.0
C920 C 0.88699 0.1814 0.67209 0.0
C921 C 0.79828 0.15453 0.661 0.0
C922 C 0.81417 0.13745 0.65977 0.0
C923 C 0.84255 0.14629 0.66354 0.0
C924 C 0.80215 0.11066 0.6545 0.0
C925 C 0.76712 0.14532 0.65731 0.0
C926 C 0.7949 0.08062 0.65702 0.0
C927 C 0.78549 0.05572 0.65198 0.0
C928 C 0.78338 0.0605 0.64432 0.0
C929 C 0.79014 0.09052 0.64184 0.0
C930 C 0.79956 0.11541 0.64688 0.0
H931 H 0.75412 0.15523 0.6603 0.0
H932 H 0.77152 0.15465 0.65153 0.0
H933 H 0.75191 0.11925 0.65703 0.0
H934 H 0.79688 0.07656 0.66288 0.0
H935 H 0.78051 0.03291 0.65408 0.0
H936 H 0.06986 0.6146 0.50957 0.0
H937 H 0.04545 0.56684 0.50193 0.0
H938 H 0.99673 0.51129 0.52124 0.0
H939 H 0.02078 0.55894 0.52894 0.0
H940 H 0.05273 0.5136 0.50429 0.0
H941 H 0.92671 0.4821 0.50539 0.0
H942 H 0.9586 0.52092 0.5078 0.0
H943 H 0.94587 0.48884 0.51428 0.0
C944 C 0.05362 0.5923 0.51219 0.0
C945 C 0.04725 0.59057 0.51987 0.0
C946 C 0.03977 0.56505 0.50781 0.0
C947 C 0.01915 0.53564 0.51101 0.0
C948 C 0.0122 0.53386 0.51864 0.0
H949 H 0.91877 0.34452 0.49358 0.0
H950 H 0.94286 0.39106 0.50164 0.0
C951 C 0.02605 0.56111 0.52303 0.0
C952 C 0.00634 0.50664 0.50645 0.0
H953 H 0.93785 0.44471 0.49988 0.0
C954 C 0.02763 0.49856 0.5033 0.0
C955 C 0.97359 0.48706 0.50522 0.0
C956 C 0.94981 0.4952 0.50829 0.0
C957 C 0.01699 0.47114 0.49899 0.0
C958 C 0.98425 0.45168 0.4977 0.0
C959 C 0.96295 0.45968 0.50089 0.0
C960 C 0.97153 0.42324 0.49293 0.0
C961 C 0.04084 0.46298 0.49597 0.0
C962 C 0.97985 0.42593 0.48537 0.0
C963 C 0.96627 0.39938 0.48075 0.0
C964 C 0.94386 0.3697 0.4836 0.0
C965 C 0.93598 0.36701 0.49121 0.0
C966 C 0.94965 0.39358 0.49582 0.0
H967 H 0.06337 0.47502 0.49914 0.0
H968 H 0.03155 0.43711 0.49615 0.0
H969 H 0.04611 0.47078 0.49008 0.0
H970 H 0.99621 0.44873 0.48299 0.0
H971 H 0.97268 0.40231 0.47491 0.0
H972 H 0.43461 0.46859 0.52473 0.0
H973 H 0.483 0.48983 0.51731 0.0
H974 H 0.42789 0.46484 0.49712 0.0
H975 H 0.37944 0.44389 0.50447 0.0
H976 H 0.50086 0.45968 0.50657 0.0
H977 H 0.49187 0.55912 0.49428 0.0
H978 H 0.46881 0.53705 0.50224 0.0
H979 H 0.4574 0.521 0.49302 0.0
C980 C 0.43276 0.46752 0.51871 0.0
C981 C 0.40318 0.45473 0.51519 0.0
C982 C 0.46042 0.4797 0.51449 0.0
C983 C 0.459 0.47942 0.50668 0.0
C984 C 0.4295 0.4659 0.50314 0.0
H985 H 0.59578 0.53706 0.471 0.0
H986 H 0.54825 0.51819 0.47864 0.0
C987 C 0.40184 0.45375 0.50736 0.0
C988 C 0.48838 0.493 0.50222 0.0
H989 H 0.53175 0.55 0.48939 0.0
C990 C 0.50775 0.47954 0.50284 0.0
C991 C 0.4972 0.51889 0.49737 0.0
C992 C 0.47791 0.5351 0.49672 0.0
C993 C 0.53546 0.49086 0.49861 0.0
C994 C 0.54422 0.51668 0.49374 0.0
C995 C 0.52491 0.53021 0.49313 0.0
C996 C 0.57321 0.52969 0.48915 0.0
C997 C 0.5547 0.47461 0.49925 0.0
C998 C 0.603 0.54317 0.49254 0.0
C999 C 0.6302 0.55396 0.4882 0.0
C1000 C 0.62807 0.55161 0.48039 0.0
C1001 C 0.59824 0.53913 0.477 0.0
C1002 C 0.57106 0.52832 0.48135 0.0
H1003 H 0.54094 0.45082 0.50182 0.0
H1004 H 0.56325 0.47211 0.4937 0.0
H1005 H 0.5756 0.48901 0.50282 0.0
H1006 H 0.60518 0.54503 0.49855 0.0
H1007 H 0.65282 0.56364 0.49098 0.0
H1008 H 0.4483 0.08004 0.48546 0.0
H1009 H 0.46397 0.05258 0.49439 0.0
H1010 H 0.47029 0.99683 0.47657 0.0
H1011 H 0.45492 0.02427 0.46759 0.0
H1012 H 0.43725 0.98658 0.49765 0.0
H1013 H 0.55908 0.04072 0.48625 0.0
H1014 H 0.53282 0.05559 0.48411 0.0
H1015 H 0.5281 0.02083 0.47952 0.0
C1016 C 0.45273 0.06174 0.48345 0.0
C1017 C 0.45067 0.05455 0.4758 0.0
C1018 C 0.46168 0.0461 0.48855 0.0
C1019 C 0.46884 0.02316 0.4861 0.0
C1020 C 0.46544 0.01492 0.47854 0.0
H1021 H 0.5385 0.91115 0.50725 0.0
H1022 H 0.51998 0.93692 0.49858 0.0
C1023 C 0.45647 0.0305 0.47342 0.0
C1024 C 0.48071 0.00848 0.49143 0.0
H1025 H 0.54516 0.00163 0.49555 0.0
C1026 C 0.46086 0.9899 0.49722 0.0
C1027 C 0.51155 0.01302 0.49083 0.0
C1028 C 0.53429 0.03383 0.48489 0.0
C1029 C 0.47084 0.97512 0.50237 0.0
C1030 C 0.50168 0.97961 0.50177 0.0
C1031 C 0.52154 0.99827 0.49598 0.0
C1032 C 0.51368 0.96483 0.50704 0.0
C1033 C 0.4481 0.95428 0.50831 0.0
C1034 C 0.51695 0.97259 0.51463 0.0
C1035 C 0.52755 0.95795 0.51961 0.0
C1036 C 0.53521 0.93539 0.51706 0.0
C1037 C 0.53273 0.92835 0.5094 0.0
C1038 C 0.52213 0.94302 0.50444 0.0
H1039 H 0.4233 0.94722 0.50692 0.0
H1040 H 0.44973 0.93262 0.50912 0.0
H1041 H 0.45414 0.96734 0.51367 0.0
H1042 H 0.51116 0.98989 0.51671 0.0
H1043 H 0.52933 0.964 0.52546 0.0
H1044 H 0.41092 0.97045 0.02281 0.0
H1045 H 0.45598 0.99774 0.01435 0.0
H1046 H 0.43636 0.90827 0.00512 0.0
H1047 H 0.39176 0.88082 0.01361 0.0
H1048 H 0.49925 0.94712 0.00853 0.0
H1049 H 0.45286 0.01091 0.99192 0.0
H1050 H 0.45389 0.01743 0.00179 0.0
H1051 H 0.42825 0.97867 0.99808 0.0
C1052 C 0.41613 0.95661 0.01896 0.0
C1053 C 0.39769 0.92348 0.01886 0.0
C1054 C 0.44177 0.97224 0.01411 0.0
C1055 C 0.44919 0.95501 0.00904 0.0
C1056 C 0.43094 0.92198 0.00897 0.0
H1057 H 0.57332 0.02757 0.9707 0.0
H1058 H 0.52854 0.99875 0.97914 0.0
C1059 C 0.40542 0.90636 0.01382 0.0
C1060 C 0.47639 0.9712 0.00392 0.0
H1061 H 0.50592 0.02425 0.98963 0.0
C1062 C 0.50073 0.96396 0.00439 0.0
C1063 C 0.47796 0.9928 0.99846 0.0
C1064 C 0.45174 0.00026 0.99746 0.0
C1065 C 0.52684 0.97803 -0.00041 0.0
C1066 C 0.52886 0.00032 0.99428 0.0
C1067 C 0.50435 0.00729 0.99375 0.0
C1068 C 0.55624 0.01674 0.98921 0.0
C1069 C 0.55174 0.96849 0.00016 0.0
C1070 C 0.58658 0.03639 0.99209 0.0
C1071 C 0.61222 0.05276 0.98729 0.0
C1072 C 0.6079 0.04999 0.97952 0.0
C1073 C 0.57746 0.03015 0.97666 0.0
C1074 C 0.55184 0.01373 0.98146 0.0
H1075 H 0.54264 0.94543 0.00304 0.0
H1076 H 0.56048 0.96686 0.99456 0.0
H1077 H 0.57203 0.98655 0.00342 0.0
H1078 H 0.59036 0.03951 0.99805 0.0
H1079 H 0.63531 0.068 0.98968 0.0
H1080 H 0.96935 0.54441 0.97065 0.0
H1081 H 0.99318 0.52494 0.97962 0.0
H1082 H 0.93917 0.53496 0.99733 0.0
H1083 H 0.91479 0.55404 0.98838 0.0
H1084 H 0.02819 0.55237 0.9926 0.0
H1085 H 0.91578 0.44199 -0.0012 0.0
H1086 H 0.92018 0.46689 0.99094 0.0
H1087 H 0.91465 0.47782 0.00014 0.0
C1088 C 0.96266 0.5427 0.97646 0.0
C1089 C 0.93996 0.55052 0.9788 0.0
C1090 C 0.9763 0.53155 0.98158 0.0
C1091 C 0.96744 0.52795 0.9891 0.0
C1092 C 0.94576 0.53692 0.99151 0.0
H1093 H 0.02317 0.4565 0.02708 0.0
H1094 H -0.00124 0.47815 0.01885 0.0
C1095 C 0.93204 0.54802 0.9864 0.0
C1096 C 0.98067 0.51439 0.99438 0.0
H1097 H 0.96059 0.45127 0.0058 0.0
C1098 C 0.01345 0.53027 0.99549 0.0
C1099 C 0.96129 0.48555 0.99813 0.0
C1100 C 0.92605 0.46686 0.99691 0.0
C1101 C 0.02741 0.51815 0.00029 0.0
C1102 C 0.00808 0.48918 0.00398 0.0
C1103 C 0.97527 0.47347 0.00295 0.0
C1104 C 0.0216 0.47464 0.00887 0.0
C1105 C 0.0627 0.5366 0.00145 0.0
C1106 C 0.04177 0.46472 0.00592 0.0
C1107 C 0.05569 0.4523 0.01058 0.0
C1108 C 0.04957 0.44949 0.01829 0.0
C1109 C 0.02844 0.45843 0.02118 0.0
C1110 C 0.0145 0.47083 0.0165 0.0
H1111 H 0.07298 0.56162 -0.00031 0.0
H1112 H 0.06874 0.53602 0.00739 0.0
H1113 H 0.0739 0.52582 0.99808 0.0
H1114 H 0.04702 0.46693 1e-05 0.0
H1115 H 0.07171 0.44548 0.00817 0.0
H1116 H 0.45471 0.36871 0.98967 0.0
H1117 H 0.47255 0.41387 0.99805 0.0
H1118 H 0.48099 0.47334 0.97943 0.0
H1119 H 0.46348 0.4284 0.97098 0.0
H1120 H 0.53449 0.49855 0.98877 0.0
H1121 H 0.42402 0.45775 0.00499 0.0
H1122 H 0.43756 0.42975 0.00451 0.0
H1123 H 0.42493 0.44053 0.99616 0.0
C1124 C 0.46007 0.39131 0.98736 0.0
C1125 C 0.45761 0.39494 0.97966 0.0
C1126 C 0.47013 0.41705 0.99216 0.0
C1127 C 0.47772 0.4468 0.98936 0.0
C1128 C 0.4751 0.4505 0.98169 0.0
H1129 H 0.54826 0.63237 0.00895 0.0
H1130 H 0.53175 0.58785 0.00042 0.0
C1131 C 0.46502 0.42477 0.97688 0.0
C1132 C 0.48961 0.47435 0.9944 0.0
H1133 H 0.46986 0.50304 0.00955 0.0
C1134 C 0.52035 0.49967 0.99329 0.0
C1135 C 0.47106 0.47559 0.00029 0.0
C1136 C 0.43745 0.4496 0.00154 0.0
C1137 C 0.53329 0.52603 0.99803 0.0
C1138 C 0.51477 0.52722 0.00393 0.0
C1139 C 0.48401 0.50194 0.00502 0.0
C1140 C 0.52665 0.55461 0.00902 0.0
C1141 C 0.56686 0.55208 0.99677 0.0
C1142 C 0.52904 0.55056 0.01668 0.0
C1143 C 0.53836 0.5759 0.02157 0.0
C1144 C 0.54521 0.6057 0.01889 0.0
C1145 C 0.54328 0.60977 0.01119 0.0
C1146 C 0.53399 0.58441 0.0063 0.0
H1147 H 0.58025 0.54409 0.99326 0.0
H1148 H 0.56668 0.57204 0.99388 0.0
H1149 H 0.57946 0.56097 0.00215 0.0
H1150 H 0.52335 0.52768 0.01888 0.0
H1151 H 0.53954 0.57194 0.02747 0.0
H1152 H 0.25093 0.00025 0.09216 0.0
H1153 H 0.29178 0.01501 0.08292 0.0
H1154 H 0.36216 0.0765 0.09878 0.0
H1155 H 0.3209 0.06036 0.10833 0.0
H1156 H 0.33577 0.0675 0.07619 0.0
H1157 H 0.39628 0.01981 0.09384 0.0
H1158 H 0.35882 0.01491 0.09673 0.0
H1159 H 0.39365 0.05333 0.09697 0.0
C1160 C 0.27498 0.01715 0.09372 0.0
C1161 C 0.28265 0.02854 0.10105 0.0
C1162 C 0.29845 0.02584 0.08838 0.0
C1163 C 0.33027 0.04651 0.09015 0.0
C1164 C 0.33792 0.0599 0.09732 0.0
H1165 H 0.37817 0.9856 0.04947 0.0
H1166 H 0.39576 0.0304 0.05807 0.0
C1167 C 0.31428 0.05077 0.10276 0.0
C1168 C 0.35445 0.0501 0.08461 0.0
H1169 H 0.39741 0.01416 0.08102 0.0
C1170 C 0.35026 0.05685 0.07723 0.0
C1171 C 0.37443 0.03744 0.086 0.0
C1172 C 0.38123 0.0309 0.0938 0.0
C1173 C 0.35958 0.04507 0.0712 0.0
C1174 C 0.3747 0.02737 0.07267 0.0
C1175 C 0.38493 0.02689 0.07996 0.0
C1176 C 0.37041 0.00153 0.06758 0.0
C1177 C 0.34924 0.04791 0.06346 0.0
C1178 C 0.35192 0.9704 0.07015 0.0
C1179 C 0.3424 0.945 0.06533 0.0
C1180 C 0.35076 0.94994 0.05776 0.0
C1181 C 0.37093 0.98102 0.05525 0.0
C1182 C 0.38088 0.00666 0.06015 0.0
H1183 H 0.33685 0.06175 0.06336 0.0
H1184 H 0.37016 0.05983 0.05976 0.0
H1185 H 0.3331 0.0241 0.06114 0.0
H1186 H 0.34338 0.96565 0.07584 0.0
H1187 H 0.32724 0.92149 0.06752 0.0
H1188 H 0.0694 0.40997 0.06949 0.0
H1189 H 0.02577 0.38154 0.07792 0.0
H1190 H 0.9601 0.37242 0.06069 0.0
H1191 H 0.00431 0.39989 0.05195 0.0
H1192 H 0.97825 0.38644 0.08376 0.0
H1193 H 0.92726 0.28152 0.06495 0.0
H1194 H 0.9649 0.31539 0.06274 0.0
H1195 H 0.92939 0.3176 0.06196 0.0
C1196 C 0.0458 0.4023 0.06745 0.0
C1197 C 0.04039 0.4066 0.05998 0.0
C1198 C 0.0207 0.38616 0.07234 0.0
C1199 C 0.98942 0.37421 0.06994 0.0
C1200 C 0.98391 0.38062 0.06263 0.0
H1201 H 0.93667 0.25913 0.10942 0.0
H1202 H 0.91868 0.28577 0.10076 0.0
C1203 C 0.00923 0.39647 0.05766 0.0
C1204 C 0.96379 0.35203 0.07499 0.0
H1205 H 0.92333 0.27244 0.07771 0.0
C1206 C 0.96519 0.36145 0.08244 0.0
C1207 C 0.94553 0.31953 0.07321 0.0
C1208 C 0.94148 0.30769 0.0653 0.0
C1209 C 0.95531 0.33933 0.08826 0.0
C1210 C 0.94232 0.30696 0.08647 0.0
C1211 C 0.93434 0.29738 0.07903 0.0
C1212 C 0.94697 0.28548 0.0915 0.0
C1213 C 0.963 0.35124 0.09617 0.0
C1214 C 0.96727 0.27473 0.08907 0.0
C1215 C 0.97697 0.25907 0.0939 0.0
C1216 C 0.96701 0.25406 0.10137 0.0
C1217 C 0.94518 0.26311 0.10372 0.0
C1218 C 0.93498 0.27847 0.09879 0.0
H1219 H 0.974 0.37733 0.09652 0.0
H1220 H 0.94107 0.34054 0.09955 0.0
H1221 H 0.9795 0.34444 0.09868 0.0
H1222 H 0.97703 0.27987 0.08348 0.0
H1223 H 0.99355 0.25228 0.09185 0.0
H1224 H 0.56657 0.63871 0.07063 0.0
H1225 H 0.60216 0.63105 0.07873 0.0
H1226 H 0.64771 0.61845 0.05952 0.0
H1227 H 0.61217 0.62626 0.05132 0.0
H1228 H 0.62813 0.58627 0.08044 0.0
H1229 H 0.71142 0.70622 0.06916 0.0
H1230 H 0.66939 0.68841 0.06783 0.0
H1231 H 0.69115 0.67377 0.06279 0.0
C1232 C 0.58355 0.63345 0.06811 0.0
C1233 C 0.58711 0.63395 0.06033 0.0
C1234 C 0.60368 0.62875 0.07276 0.0
C1235 C 0.62776 0.6246 0.06971 0.0
C1236 C 0.6293 0.62176 0.06196 0.0
H1237 H 0.78989 0.72342 0.09767 0.0
H1238 H 0.76246 0.68488 0.08776 0.0
C1239 C 0.60902 0.62633 0.05729 0.0
C1240 C 0.65451 0.63028 0.07456 0.0
H1241 H 0.72457 0.6919 0.08028 0.0
C1242 C 0.64973 0.60898 0.08032 0.0
C1243 C 0.68281 0.65971 0.07432 0.0
C1244 C 0.68921 0.68351 0.06822 0.0
C1245 C 0.67165 0.61735 0.08617 0.0
C1246 C 0.69824 0.64823 0.08636 0.0
C1247 C 0.70425 0.66826 0.08021 0.0
C1248 C 0.71687 0.66266 0.09326 0.0
C1249 C 0.66551 0.59331 0.09215 0.0
C1250 C 0.70108 0.66159 0.09991 0.0
C1251 C 0.7171 0.68281 0.10568 0.0
C1252 C 0.74883 0.7061 0.10479 0.0
C1253 C 0.76535 0.70558 0.09845 0.0
C1254 C 0.74963 0.68359 0.0928 0.0
H1255 H 0.65548 0.56937 0.08967 0.0
H1256 H 0.68732 0.59886 0.09525 0.0
H1257 H 0.64772 0.59255 0.09612 0.0
H1258 H 0.67577 0.64653 0.10039 0.0
H1259 H 0.70384 0.6831 0.11049 0.0
H1260 H 0.99375 0.36993 0.45013 0.0
H1261 H 0.03716 0.39539 0.44112 0.0
H1262 H 0.97008 0.35505 0.4231 0.0
H1263 H 0.92726 0.33096 0.43191 0.0
H1264 H 0.05676 0.36831 0.4324 0.0
H1265 H 0.02687 0.43616 0.41358 0.0
H1266 H 0.00919 0.42528 0.42273 0.0
H1267 H 0.9904 0.40008 0.41476 0.0
C1268 C 0.9883 0.36723 0.44424 0.0
C1269 C 0.957 0.34812 0.44175 0.0
C1270 C 0.01313 0.38191 0.43909 0.0
C1271 C 0.00703 0.37788 0.4314 0.0
C1272 C 0.97561 0.35978 0.42897 0.0
H1273 H 0.01847 0.27311 0.40436 0.0
H1274 H 0.03439 0.31068 0.4144 0.0
C1275 C 0.95098 0.34539 0.43406 0.0
C1276 C 0.03274 0.38699 0.42584 0.0
H1277 H 0.0386 0.39605 0.40703 0.0
C1278 C 0.05388 0.37578 0.42691 0.0
C1279 C 0.03114 0.39865 0.41874 0.0
C1280 C 0.01341 0.4161 0.41745 0.0
C1281 C 0.06794 0.36979 0.42078 0.0
C1282 C 0.05932 0.37375 0.4135 0.0
C1283 C 0.04393 0.39127 0.41258 0.0
C1284 C 0.05689 0.35229 0.40735 0.0
C1285 C 0.08919 0.35621 0.42214 0.0
C1286 C 0.06393 0.36274 0.39992 0.0
C1287 C 0.05407 0.34083 0.39406 0.0
C1288 C 0.03669 0.30823 0.39555 0.0
C1289 C 0.0315 0.29803 0.40299 0.0
C1290 C 0.04126 0.3197 0.40879 0.0
H1291 H 0.10607 0.36938 0.4267 0.0
H1292 H 0.07482 0.33131 0.42401 0.0
H1293 H 0.10268 0.35718 0.41708 0.0
H1294 H 0.07562 0.38772 0.39865 0.0
H1295 H 0.05848 0.34938 0.38837 0.0
H1296 H 0.6692 0.62528 0.44886 0.0
H1297 H 0.66104 0.65907 0.44015 0.0
H1298 H 0.68828 0.62059 0.42185 0.0
H1299 H 0.69708 0.58727 0.43048 0.0
H1300 H 0.72332 0.68461 0.42274 0.0
H1301 H 0.59562 0.64588 0.42423 0.0
H1302 H 0.615 0.65371 0.43311 0.0
H1303 H 0.6115 0.6217 0.42749 0.0
C1304 C 0.67282 0.62353 0.44296 0.0
C1305 C 0.68416 0.60387 0.44037 0.0
C1306 C 0.66793 0.64272 0.43799 0.0
C1307 C 0.67387 0.64217 0.43035 0.0
C1308 C 0.68355 0.62133 0.42772 0.0
H1309 H 0.65979 0.74379 0.39258 0.0
H1310 H 0.64896 0.70383 0.4021 0.0
C1311 C 0.68866 0.60238 0.43268 0.0
C1312 C 0.67405 0.66598 0.42524 0.0
H1313 H 0.62869 0.69445 0.41791 0.0
C1314 C 0.70258 0.68665 0.42167 0.0
C1315 C 0.64692 0.66849 0.42383 0.0
C1316 C 0.61542 0.6461 0.42731 0.0
C1317 C 0.70485 0.70989 0.41676 0.0
C1318 C 0.678 0.713 0.4155 0.0
C1319 C 0.64929 0.69217 0.41899 0.0
C1320 C 0.67959 0.73733 0.41036 0.0
C1321 C 0.7359 0.73066 0.41286 0.0
C1322 C 0.6993 0.76941 0.41201 0.0
C1323 C 0.70577 0.79227 0.40658 0.0
C1324 C 0.69256 0.7834 0.39942 0.0
C1325 C 0.6707 0.7514 0.398 0.0
C1326 C 0.66435 0.72852 0.40344 0.0
H1327 H 0.75195 0.72075 0.41319 0.0
H1328 H 0.73205 0.73388 0.4069 0.0
H1329 H 0.7479 0.75427 0.41555 0.0
H1330 H 0.71093 0.77661 0.41737 0.0
H1331 H 0.72224 0.81676 0.40789 0.0
H1332 H 0.38144 0.01799 0.44112 0.0
H1333 H 0.34847 0.97908 0.4319 0.0
H1334 H 0.42437 0.02163 0.41587 0.0
H1335 H 0.45667 0.06224 0.42499 0.0
H1336 H 0.37831 0.02182 0.41043 0.0
H1337 H 0.32861 0.90173 0.4213 0.0
H1338 H 0.32286 0.9242 0.42835 0.0
H1339 H 0.36249 0.93453 0.42562 0.0
C1340 C 0.39149 0.01841 0.43571 0.0
C1341 C 0.42139 0.04336 0.43372 0.0
C1342 C 0.37268 0.99579 0.43044 0.0
C1343 C 0.38382 0.99705 0.42315 0.0
C1344 C 0.41509 0.02012 0.42143 0.0
H1345 H 0.2475 0.93958 0.38653 0.0
H1346 H 0.29092 0.93756 0.39282 0.0
C1347 C 0.43355 0.04335 0.42664 0.0
C1348 C 0.36093 0.97956 0.41707 0.0
H1349 H 0.29106 0.91177 0.41382 0.0
C1350 C 0.36001 0.99731 0.41102 0.0
C1351 C 0.33692 0.94751 0.41774 0.0
C1352 C 0.3381 0.92594 0.42358 0.0
C1353 C 0.33423 0.98517 0.40615 0.0
C1354 C 0.30858 0.95439 0.40736 0.0
C1355 C 0.31065 0.9355 0.41296 0.0
C1356 C 0.27774 0.94465 0.40385 0.0
C1357 C 0.33328 0.00646 0.40018 0.0
C1358 C 0.25498 0.9473 0.40804 0.0
C1359 C 0.23039 0.94874 0.40448 0.0
C1360 C 0.22811 0.94738 0.39667 0.0
C1361 C 0.24876 0.94093 0.39256 0.0
C1362 C 0.27356 0.9397 0.39613 0.0
H1363 H 0.35446 0.03045 0.40028 0.0
H1364 H 0.33191 0.99594 0.39462 0.0
H1365 H 0.31197 0.00879 0.40088 0.0
H1366 H 0.25786 0.95117 0.414 0.0
H1367 H 0.21456 0.95321 0.40781 0.0
H1368 H 0.67422 0.94613 0.88554 0.0
H1369 H 0.63248 0.92954 0.89499 0.0
H1370 H 0.70285 0.98557 0.91144 0.0
H1371 H 0.74406 0.0008 0.90229 0.0
H1372 H 0.65662 0.93211 0.91755 0.0
H1373 H 0.60223 0.98883 0.90085 0.0
H1374 H 0.60337 0.95516 0.89721 0.0
H1375 H 0.63921 0.99261 0.89793 0.0
C1376 C 0.68071 0.9544 0.89122 0.0
C1377 C 0.71247 0.97533 0.89312 0.0
C1378 C 0.65681 0.94501 0.8966 0.0
C1379 C 0.66438 0.95678 0.90391 0.0
C1380 C 0.69625 0.97603 0.90586 0.0
H1381 H 0.6725 0.07949 0.92856 0.0
H1382 H 0.65623 0.0373 0.91962 0.0
C1383 C 0.71993 0.98502 0.90057 0.0
C1384 C 0.64025 0.95311 0.90947 0.0
H1385 H 0.60089 0.99213 0.91374 0.0
C1386 C 0.64333 0.94419 0.91673 0.0
C1387 C 0.62188 0.96775 0.90835 0.0
C1388 C 0.6163 0.97669 0.90068 0.0
C1389 C 0.63459 0.95547 0.92295 0.0
C1390 C 0.62122 0.97498 0.92181 0.0
C1391 C 0.61202 0.97794 0.91458 0.0
C1392 C 0.62632 -0.00012 0.92728 0.0
C1393 C 0.64373 0.95007 0.93061 0.0
C1394 C 0.61449 0.99319 0.9346 0.0
C1395 C 0.62443 0.01763 0.93985 0.0
C1396 C 0.64599 0.04906 0.93782 0.0
C1397 C 0.65613 0.05564 0.93038 0.0
C1398 C 0.64657 0.03141 0.92521 0.0
H1399 H 0.65484 0.93504 0.93046 0.0
H1400 H 0.66061 0.973 0.93322 0.0
H1401 H 0.62244 0.93827 0.9342 0.0
H1402 H 0.59835 0.96914 0.93629 0.0
H1403 H 0.61585 0.01181 0.94552 0.0
H1404 H 0.94136 0.54092 0.93003 0.0
H1405 H 0.98069 0.56648 0.92017 0.0
H1406 H 0.02037 0.65464 0.93225 0.0
H1407 H 0.98309 0.62838 0.94232 0.0
H1408 H 0.97527 0.60364 0.91221 0.0
H1409 H 0.09719 0.67296 0.92179 0.0
H1410 H 0.06745 0.64191 0.9275 0.0
H1411 H 0.07444 0.68185 0.9281 0.0
C1412 C 0.95963 0.56537 0.93071 0.0
C1413 C 0.95927 0.58284 0.93687 0.0
C1414 C 0.98208 0.58002 0.92508 0.0
C1415 C 0.00365 0.61268 0.92538 0.0
C1416 C 0.00485 0.62936 0.93189 0.0
H1417 H 0.02443 0.76032 0.90344 0.0
H1418 H 0.03337 0.7247 0.91121 0.0
C1419 C 0.98318 0.61439 0.93764 0.0
C1420 C 0.01855 0.6305 0.91842 0.0
H1421 H 0.08023 0.7009 0.91257 0.0
C1422 C -0.00117 0.62409 0.91219 0.0
C1423 C 0.04938 0.65716 0.91824 0.0
C1424 C 0.07331 0.66351 0.92426 0.0
C1425 C 0.00739 0.6455 0.90628 0.0
C1426 C 0.03647 0.67415 0.90661 0.0
C1427 C 0.05772 0.67908 0.9124 0.0
C1428 C 0.04136 0.70116 0.90197 0.0
C1429 C 0.9838 0.6388 0.90012 0.0
C1430 C 0.04457 0.70077 0.8942 0.0
C1431 C 0.03929 0.72109 0.88972 0.0
C1432 C 0.03054 0.74183 0.89296 0.0
C1433 C 0.03054 0.74423 0.90076 0.0
C1434 C 0.03599 0.72411 0.90522 0.0
H1435 H 0.96158 0.61595 0.9009 0.0
H1436 H 0.97785 0.65792 0.89984 0.0
H1437 H 0.99425 0.63804 0.89469 0.0
H1438 H 0.04877 0.68321 0.8916 0.0
H1439 H 0.03974 0.71886 0.88372 0.0
H1440 H 0.37891 0.36747 0.94854 0.0
H1441 H 0.34301 0.37669 0.94079 0.0
H1442 H 0.38496 0.36329 0.92101 0.0
H1443 H 0.42076 0.35407 0.92864 0.0
H1444 H 0.36125 0.41096 0.92019 0.0
H1445 H 0.27618 0.29028 0.93079 0.0
H1446 H 0.29826 0.32185 0.93728 0.0
H1447 H 0.31815 0.30635 0.93182 0.0
C1448 C 0.38115 0.36746 0.94254 0.0
C1449 C 0.40214 0.35928 0.9392 0.0
C1450 C 0.36069 0.37285 0.93813 0.0
C1451 C 0.36123 0.37038 0.93035 0.0
C1452 C 0.38428 0.36538 0.92701 0.0
H1453 H 0.2886 0.31926 0.8896 0.0
H1454 H 0.315 0.3547 0.89997 0.0
C1455 C 0.4045 0.35978 0.93139 0.0
C1456 C 0.33441 0.36614 0.92573 0.0
H1457 H 0.26408 0.30594 0.91971 0.0
C1458 C 0.33946 0.38841 0.92018 0.0
C1459 C 0.30581 0.33699 0.92583 0.0
C1460 C 0.29903 0.31234 0.93172 0.0
C1461 C 0.31764 0.38114 0.91436 0.0
C1462 C 0.29097 0.35037 0.91394 0.0
C1463 C 0.28452 0.32949 0.91993 0.0
C1464 C 0.27309 0.33685 0.9069 0.0
C1465 C 0.32409 0.40616 0.90863 0.0
C1466 C 0.24041 0.31536 0.90714 0.0
C1467 C 0.22566 0.29395 0.90131 0.0
C1468 C 0.24307 0.29462 0.89504 0.0
C1469 C 0.27465 0.3186 0.89436 0.0
C1470 C 0.2897 0.3392 0.9003 0.0
H1471 H 0.33361 0.42959 0.91135 0.0
H1472 H 0.34239 0.40792 0.90468 0.0
H1473 H 0.30251 0.40097 0.90546 0.0
H1474 H 0.22693 0.31311 0.91212 0.0
H1475 H 0.20121 0.27559 0.90193 0.0
H1476 H 0.99549 0.74237 0.59313 0.0
H1477 H 0.98054 0.69805 0.58493 0.0
H1478 H 0.93493 0.6335 0.60319 0.0
H1479 H 0.95124 0.67853 0.61163 0.0
H1480 H 0.97028 0.61702 0.59676 0.0
H1481 H 0.90793 0.63385 0.5738 0.0
H1482 H 0.94146 0.67214 0.57524 0.0
H1483 H 0.91259 0.65372 0.5826 0.0
C1484 C 0.98173 0.71883 0.59542 0.0
C1485 C 0.97493 0.71412 0.60308 0.0
C1486 C 0.97263 0.69327 0.59066 0.0
C1487 C 0.95585 0.66216 0.59336 0.0
C1488 C 0.94756 0.65722 0.60095 0.0
H1489 H 0.00575 0.6009 0.55408 0.0
H1490 H 0.96455 0.58641 0.56353 0.0
C1491 C 0.95696 0.683 0.60577 0.0
C1492 C 0.95246 0.63614 0.58846 0.0
H1493 H 0.95273 0.62415 0.56981 0.0
C1494 C 0.9652 0.61755 0.5909 0.0
C1495 C 0.94405 0.63469 0.58086 0.0
C1496 C 0.92534 0.64943 0.57804 0.0
C1497 C 0.97518 0.60271 0.58576 0.0
C1498 C 0.97379 0.60805 0.57805 0.0
C1499 C 0.95548 0.62128 0.5757 0.0
C1500 C 0.99716 0.60819 0.57271 0.0
C1501 C 0.9893 0.58356 0.58866 0.0
C1502 C 0.02924 0.62416 0.57472 0.0
C1503 C 0.05266 0.63205 0.56938 0.0
C1504 C 0.04476 0.62494 0.56183 0.0
C1505 C 0.01267 0.60697 0.55985 0.0
C1506 C 0.98906 0.59864 0.56525 0.0
H1507 H 0.97451 0.56795 0.59325 0.0
H1508 H 0.99135 0.56878 0.58423 0.0
H1509 H 0.01303 0.5996 0.59103 0.0
H1510 H 0.03656 0.63293 0.58032 0.0
H1511 H 0.07706 0.64568 0.57114 0.0
H1512 H 0.32168 0.26944 0.60837 0.0
H1513 H 0.36217 0.29507 0.59868 0.0
H1514 H 0.28911 0.27476 0.5825 0.0
H1515 H 0.24914 0.24819 0.59191 0.0
H1516 H 0.3368 0.27114 0.5762 0.0
H1517 H 0.3862 0.38279 0.59265 0.0
H1518 H 0.38802 0.34963 0.59637 0.0
H1519 H 0.35063 0.34819 0.59569 0.0
C1520 C 0.31434 0.26995 0.60271 0.0
C1521 C 0.28216 0.25737 0.60096 0.0
C1522 C 0.33753 0.28476 0.59718 0.0
C1523 C 0.3288 0.28758 0.58988 0.0
C1524 C 0.29661 0.273 0.58807 0.0
H1525 H 0.31727 0.40013 0.56419 0.0
H1526 H 0.33203 0.3737 0.57335 0.0
C1527 C 0.27363 0.25797 0.59351 0.0
C1528 C 0.35186 0.30867 0.58421 0.0
H1529 H 0.38831 0.38685 0.57977 0.0
C1530 C 0.34916 0.29654 0.57697 0.0
C1531 C 0.36889 0.34181 0.58527 0.0
C1532 C 0.37374 0.35658 0.59289 0.0
C1533 C 0.35736 0.31629 0.57071 0.0
C1534 C 0.36967 0.34904 0.57178 0.0
C1535 C 0.37812 0.36159 0.579 0.0
C1536 C 0.36456 0.36824 0.56615 0.0
C1537 C 0.3489 0.30151 0.56306 0.0
C1538 C 0.3782 0.37442 0.55901 0.0
C1539 C 0.36928 0.38934 0.55363 0.0
C1540 C 0.34685 0.39847 0.55535 0.0
C1541 C 0.33444 0.39335 0.56261 0.0
C1542 C 0.34308 0.37837 0.5679 0.0
H1543 H 0.33856 0.27547 0.56325 0.0
H1544 H 0.33163 0.3068 0.56037 0.0
H1545 H 0.37037 0.31156 0.55953 0.0
H1546 H 0.39518 0.36725 0.55756 0.0
H1547 H 0.37953 0.39323 0.54811 0.0
H1548 H 0.7905 0.06263 0.59507 0.0
H1549 H 0.7631 0.07389 0.58518 0.0
H1550 H 0.67726 0.02875 0.59819 0.0
H1551 H 0.70536 0.02005 0.60825 0.0
H1552 H 0.72354 0.02914 0.5779 0.0
H1553 H 0.65898 0.08718 0.58751 0.0
H1554 H 0.69068 0.0885 0.59295 0.0
H1555 H 0.65063 0.05622 0.59399 0.0
C1556 C 0.76617 0.05659 0.59593 0.0
C1557 C 0.74989 0.0404 0.60237 0.0
C1558 C 0.75048 0.06297 0.59028 0.0
C1559 C 0.71795 0.05217 0.59088 0.0
C1560 C 0.70244 0.03824 0.59761 0.0
H1561 H 0.56437 0.92892 0.56867 0.0
H1562 H 0.60123 0.9718 0.57669 0.0
C1563 C 0.71846 0.03291 0.60336 0.0
C1564 C 0.69902 0.04832 0.58405 0.0
H1565 H 0.62988 0.04308 0.57836 0.0
C1566 C 0.70386 0.03348 0.57789 0.0
C1567 C 0.67325 0.05392 0.58395 0.0
C1568 C 0.66842 0.07268 0.58995 0.0
C1569 C 0.68201 0.02114 0.57206 0.0
C1570 C 0.65448 0.02366 0.57239 0.0
C1571 C 0.6509 0.04093 0.57817 0.0
C1572 C 0.62714 0.00327 0.56761 0.0
C1573 C 0.68709 0.00286 0.56595 0.0
C1574 C 0.62844 0.00755 0.55987 0.0
C1575 C 0.6074 0.98292 0.55524 0.0
C1576 C 0.585 0.95372 0.55833 0.0
C1577 C 0.58171 0.95091 0.56612 0.0
C1578 C 0.60258 0.97552 0.57072 0.0
H1579 H 0.70879 0.00134 0.56682 0.0
H1580 H 0.66658 0.97851 0.56562 0.0
H1581 H 0.6892 0.01453 0.56051 0.0
H1582 H 0.64724 0.0289 0.55738 0.0
H1583 H 0.61039 0.98592 0.54926 0.0
H1584 H 0.71403 0.65596 0.71802 0.0
H1585 H 0.73008 0.6977 0.72742 0.0
H1586 H 0.68317 0.62663 0.74439 0.0
H1587 H 0.66831 0.58552 0.73523 0.0
H1588 H 0.69349 0.71108 0.73459 0.0
H1589 H 0.75545 0.68679 0.75639 0.0
H1590 H 0.75164 0.67062 0.74714 0.0
H1591 H 0.72235 0.64901 0.75424 0.0
C1592 C 0.70796 0.64934 0.7238 0.0
C1593 C 0.68957 0.61737 0.72585 0.0
C1594 C 0.71723 0.67323 0.72917 0.0
C1595 C 0.70847 0.66548 0.73667 0.0
C1596 C 0.69137 0.63351 0.73872 0.0
H1597 H 0.58465 0.66983 0.76037 0.0
H1598 H 0.62584 0.68533 0.75121 0.0
C1599 C 0.68231 0.60982 0.73341 0.0
C1600 C 0.71152 0.68955 0.74218 0.0
H1601 H 0.70988 0.69411 0.76106 0.0
C1602 C 0.69837 0.70848 0.74036 0.0
C1603 C 0.71955 0.6882 0.74969 0.0
C1604 C 0.73843 0.67282 0.75192 0.0
C1605 C 0.68754 0.72072 0.74597 0.0
C1606 C 0.6887 0.71254 0.75348 0.0
C1607 C 0.70742 0.69914 0.75529 0.0
C1608 C 0.66465 0.7096 0.75899 0.0
C1609 C 0.67253 0.73994 0.74374 0.0
C1610 C 0.6723 0.71763 0.76653 0.0
C1611 C 0.64836 0.7079 0.7719 0.0
C1612 C 0.6164 0.68983 0.76981 0.0
C1613 C 0.60894 0.68354 0.76221 0.0
C1614 C 0.63269 0.693 0.7569 0.0
H1615 H 0.68685 0.75712 0.73933 0.0
H1616 H 0.64881 0.72414 0.74134 0.0
H1617 H 0.67021 0.753 0.74853 0.0
H1618 H 0.69674 0.73014 0.7683 0.0
H1619 H 0.65492 0.71327 0.7777 0.0
H1620 H 0.34677 0.03976 0.72098 0.0
H1621 H 0.3118 0.01421 0.73149 0.0
H1622 H 0.35607 0.1026 0.74352 0.0
H1623 H 0.39309 0.12739 0.73319 0.0
H1624 H 0.36215 0.0648 0.75111 0.0
H1625 H 0.23797 0.99803 0.743 0.0
H1626 H 0.25879 0.98822 0.73632 0.0
H1627 H 0.26694 0.02852 0.73704 0.0
C1628 C 0.34815 0.05397 0.72576 0.0
C1629 C 0.37267 0.08534 0.72635 0.0
C1630 C 0.32782 0.03942 0.73177 0.0
C1631 C 0.33099 0.05635 0.73836 0.0
C1632 C 0.35316 0.08888 0.73854 0.0
H1633 H 0.29796 0.95207 0.78034 0.0
H1634 H 0.2898 0.98814 0.77239 0.0
C1635 C 0.37429 0.10309 0.73264 0.0
C1636 C 0.31737 0.0388 0.74543 0.0
H1637 H 0.25558 0.96974 0.75189 0.0
C1638 C 0.33832 0.04487 0.75139 0.0
C1639 C 0.28623 0.01277 0.74594 0.0
C1640 C 0.26123 0.00687 0.74024 0.0
C1641 C 0.33038 0.02376 0.75734 0.0
C1642 C 0.30072 0.99572 0.75733 0.0
C1643 C 0.2785 0.9911 0.75181 0.0
C1644 C 0.29569 0.9689 0.76206 0.0
C1645 C 0.35498 0.03005 0.76321 0.0
C1646 C 0.30011 0.94527 0.75885 0.0
C1647 C 0.30514 0.92496 0.76334 0.0
C1648 C 0.30562 0.92783 0.77114 0.0
C1649 C 0.29795 0.94942 0.77435 0.0
C1650 C 0.29316 0.96997 0.76983 0.0
H1651 H 0.3774 0.0525 0.76223 0.0
H1652 H 0.34581 0.03135 0.76878 0.0
H1653 H 0.36023 0.01042 0.76334 0.0
H1654 H 0.30225 0.94418 0.75286 0.0
H1655 H 0.31048 0.90825 0.7607 0.0
H1656 H 0.90195 0.30008 0.73646 0.0
H1657 H 0.93841 0.29233 0.74421 0.0
H1658 H 0.98193 0.28012 0.72456 0.0
H1659 H 0.94551 0.28804 0.7167 0.0
H1660 H 0.96506 0.24827 0.74559 0.0
H1661 H 0.04646 0.36795 0.73388 0.0
H1662 H 0.0043 0.3499 0.73279 0.0
H1663 H 0.02567 0.33514 0.72764 0.0
C1664 C 0.91866 0.29485 0.73377 0.0
C1665 C 0.92143 0.29556 0.72597 0.0
C1666 C 0.93928 0.2901 0.73822 0.0
C1667 C 0.96308 0.2861 0.73494 0.0
C1668 C 0.96376 0.28332 0.72717 0.0
H1669 H 0.12534 0.38908 0.76247 0.0
H1670 H 0.09898 0.34975 0.75265 0.0
C1671 C 0.94297 0.28796 0.7227 0.0
C1672 C 0.99048 0.29211 0.73958 0.0
H1673 H 0.06038 0.35468 0.74503 0.0
C1674 C 0.98646 0.27114 0.74538 0.0
C1675 C 0.01855 0.32171 0.73921 0.0
C1676 C 0.02423 0.34514 0.73308 0.0
C1677 C 0.00876 0.28012 0.75115 0.0
C1678 C 0.03492 0.31126 0.75125 0.0
C1679 C 0.04036 0.33086 0.74505 0.0
C1680 C 0.05336 0.32641 0.75813 0.0
C1681 C 0.00338 0.25646 0.75717 0.0
C1682 C 0.03729 0.32504 0.76476 0.0
C1683 C 0.05272 0.34674 0.77048 0.0
C1684 C 0.08412 0.37083 0.76956 0.0
C1685 C 0.10102 0.37067 0.76326 0.0
C1686 C 0.08592 0.34822 0.75766 0.0
H1687 H 0.99402 0.23254 0.75472 0.0
H1688 H 0.02539 0.26274 0.76027 0.0
H1689 H 0.98531 0.25515 0.76113 0.0
H1690 H 0.01208 0.3093 0.76525 0.0
H1691 H 0.03916 0.34667 0.77527 0.0
H1692 H 0.33843 0.29615 0.21481 0.0
H1693 H 0.29417 0.28535 0.22306 0.0
H1694 H 0.35154 0.29449 0.24218 0.0
H1695 H 0.39554 0.30499 0.23404 0.0
H1696 H 0.28217 0.24967 0.24386 0.0
H1697 H 0.31507 0.36996 0.23346 0.0
H1698 H 0.30272 0.33805 0.22692 0.0
H1699 H 0.33996 0.35329 0.23161 0.0
C1700 C 0.34125 0.29477 0.22076 0.0
C1701 C 0.37075 0.30232 0.22379 0.0
C1702 C 0.3159 0.28852 0.22546 0.0
C1703 C 0.31983 0.28966 0.23322 0.0
C1704 C 0.34805 0.29355 0.2362 0.0
H1705 H 0.31372 0.34408 0.27453 0.0
H1706 H 0.3005 0.3078 0.26412 0.0
C1707 C 0.37333 0.29989 0.23153 0.0
C1708 C 0.29845 0.29411 0.23826 0.0
H1709 H 0.2909 0.355 0.24496 0.0
C1710 C 0.28305 0.27227 0.24401 0.0
C1711 C 0.29912 0.32335 0.23837 0.0
C1712 C 0.3151 0.34766 0.23229 0.0
C1713 C 0.27082 0.28015 0.25022 0.0
C1714 C 0.27535 0.31104 0.25079 0.0
C1715 C 0.28756 0.33139 0.24463 0.0
C1716 C 0.27401 0.32529 0.25802 0.0
C1717 C 0.25434 0.25567 0.25621 0.0
C1718 C 0.263 0.34693 0.25826 0.0
C1719 C 0.27199 0.36878 0.26408 0.0
C1720 C 0.29099 0.36844 0.26989 0.0
C1721 C 0.29872 0.34447 0.27014 0.0
C1722 C 0.29077 0.32339 0.26419 0.0
H1723 H 0.23931 0.23204 0.25366 0.0
H1724 H 0.27223 0.25408 0.2597 0.0
H1725 H 0.23937 0.26131 0.25981 0.0
H1726 H 0.24991 0.34886 0.25362 0.0
H1727 H 0.26575 0.38713 0.2638 0.0
H1728 H 0.65092 0.91904 0.27191 0.0
H1729 H 0.69315 0.94656 0.2627 0.0
H1730 H 0.62454 0.94218 0.24689 0.0
H1731 H 0.58265 0.91374 0.2558 0.0
H1732 H 0.66943 0.93527 0.23998 0.0
H1733 H 0.72749 0.03858 0.25921 0.0
H1734 H 0.72454 0.00171 0.26181 0.0
H1735 H 0.68969 0.00528 0.2616 0.0
C1736 C 0.64489 0.92354 0.26642 0.0
C1737 C 0.61346 0.91467 0.26464 0.0
C1738 C 0.66908 0.93939 0.26117 0.0
C1739 C 0.6622 0.94708 0.25414 0.0
C1740 C 0.63058 0.93651 0.25226 0.0
H1741 H 0.66259 0.0748 0.23311 0.0
H1742 H 0.67756 0.04491 0.24114 0.0
C1743 C 0.60653 0.92036 0.25741 0.0
C1744 C 0.68702 0.96907 0.24892 0.0
H1745 H 0.7307 0.04873 0.24652 0.0
C1746 C 0.68384 0.96007 0.24139 0.0
C1747 C 0.70686 0.00125 0.2508 0.0
C1748 C 0.71252 0.0125 0.25878 0.0
C1749 C 0.69416 0.98272 0.23569 0.0
C1750 C 0.70919 0.01509 0.23764 0.0
C1751 C 0.71831 0.02385 0.24508 0.0
C1752 C 0.70587 0.03802 0.23286 0.0
C1753 C 0.68497 0.97162 0.22776 0.0
C1754 C 0.71754 0.04514 0.22554 0.0
C1755 C 0.70829 0.0619 0.2208 0.0
C1756 C 0.68765 0.07214 0.22338 0.0
C1757 C 0.67817 0.06703 0.23088 0.0
C1758 C 0.68699 0.05007 0.23553 0.0
H1759 H 0.67245 0.94547 0.22728 0.0
H1760 H 0.66931 0.98006 0.22553 0.0
H1761 H 0.70642 0.9814 0.22423 0.0
H1762 H 0.73276 0.03679 0.2234 0.0
H1763 H 0.71643 0.0659 0.21508 0.0
H1764 H 0.95492 0.65609 0.22058 0.0
H1765 H 0.99114 0.69577 0.22946 0.0
H1766 H 0.93771 0.63525 0.24772 0.0
H1767 H 0.90151 0.59566 0.23894 0.0
H1768 H 0.97044 0.70639 0.25041 0.0
H1769 H 0.04522 0.65937 0.23905 0.0
H1770 H 0.02925 0.67646 0.23277 0.0
H1771 H 0.00336 0.63958 0.23725 0.0
C1772 C 0.9502 0.65175 0.22649 0.0
C1773 C 0.92588 0.62242 0.22907 0.0
C1774 C 0.97089 0.67449 0.23155 0.0
C1775 C 0.96728 0.66816 0.23922 0.0
C1776 C 0.94086 0.64054 0.24181 0.0
H1777 H 0.03311 0.66905 0.28078 0.0
H1778 H 0.00913 0.68189 0.27046 0.0
C1779 C 0.92036 0.61779 0.23678 0.0
C1780 C 0.99382 0.68572 0.24443 0.0
H1781 H 0.05848 0.68362 0.25058 0.0
C1782 C 0.99032 0.70235 0.25038 0.0
C1783 C 0.0199 0.68072 0.24431 0.0
C1784 C 0.02485 0.66302 0.23803 0.0
C1785 C 0.01112 0.71221 0.25648 0.0
C1786 C 0.03511 0.70401 0.25674 0.0
C1787 C 0.04013 0.6899 0.25046 0.0
C1788 C 0.05174 0.70461 0.26374 0.0
C1789 C 0.00653 0.73048 0.26264 0.0
C1790 C 0.08387 0.71335 0.26354 0.0
C1791 C 0.09709 0.70456 0.2693 0.0
C1792 C 0.07876 0.688 0.27548 0.0
C1793 C 0.04772 0.68216 0.27608 0.0
C1794 C 0.03413 0.68991 0.2702 0.0
H1795 H -0.00066 0.74699 0.26031 0.0
H1796 H 0.98717 0.71383 0.26636 0.0
H1797 H 0.02832 0.74421 0.266 0.0
H1798 H 0.09805 0.72475 0.25865 0.0
H1799 H 0.12114 0.70928 0.26875 0.0
H1800 H 0.08353 0.22408 0.11318 0.0
H1801 H 0.11118 0.1943 0.11182 0.0
H1802 H 0.07879 0.15341 0.13359 0.0
H1803 H 0.05031 0.1824 0.13491 0.0
H1804 H 0.15755 0.19096 0.12027 0.0
H1805 H 0.04515 0.07631 0.11977 0.0
H1806 H 0.04652 0.11373 0.11885 0.0
H1807 H 0.05007 0.0999 0.12788 0.0
C1808 C 0.08229 0.20878 0.11768 0.0
C1809 C 0.06416 0.20507 0.12409 0.0
C1810 C 0.09826 0.19192 0.11691 0.0
C1811 C 0.0964 0.17114 0.12253 0.0
C1812 C 0.0799 0.16882 0.12912 0.0
H1813 H 0.20447 0.07535 0.12669 0.0
H1814 H 0.18386 0.11149 0.12782 0.0
C1815 C 0.06384 0.18559 0.12989 0.0
C1816 C 0.11067 0.15098 0.12137 0.0
H1817 H 0.09242 0.07405 0.12014 0.0
C1818 C 0.14337 0.16539 0.12023 0.0
C1819 C 0.09195 0.11767 0.12117 0.0
C1820 C 0.05644 0.10092 0.12191 0.0
C1821 C 0.158 0.1473 0.11904 0.0
C1822 C 0.13942 0.11396 0.11912 0.0
C1823 C 0.10664 0.09961 0.12014 0.0
C1824 C 0.15334 0.09334 0.11819 0.0
C1825 C 0.19307 0.16404 0.11757 0.0
C1826 C 0.14266 0.07079 0.11246 0.0
C1827 C 0.15412 0.04983 0.11184 0.0
C1828 C 0.17647 0.05097 0.11695 0.0
C1829 C 0.18744 0.07391 0.12263 0.0
C1830 C 0.17583 0.09476 0.12326 0.0
H1831 H 0.20201 0.1886 0.11559 0.0
H1832 H 0.2056 0.16524 0.12282 0.0
H1833 H 0.19905 0.1512 0.11336 0.0
H1834 H 0.1252 0.06922 0.1085 0.0
H1835 H 0.14515 0.03251 0.1074 0.0
H1836 H 0.92102 0.12793 0.12559 0.0
H1837 H 0.88559 0.07118 0.1272 0.0
H1838 H 0.92797 0.05262 0.10822 0.0
H1839 H 0.96376 0.10922 0.10659 0.0
H1840 H 0.84157 0.02339 0.11727 0.0
H1841 H 0.94012 0.00413 0.1256 0.0
H1842 H 0.94416 0.04288 0.12526 0.0
H1843 H 0.94553 0.02382 0.11682 0.0
C1844 C 0.9227 0.11184 0.12171 0.0
C1845 C 0.94551 0.12317 0.116 0.0
C1846 C 0.90237 0.07943 0.12264 0.0
C1847 C 0.90456 0.05781 0.1179 0.0
C1848 C 0.92633 0.069 0.11201 0.0
H1849 H 0.78086 0.85574 0.11365 0.0
H1850 H 0.80825 0.91298 0.11194 0.0
C1851 C 0.94667 0.10137 0.11107 0.0
C1852 C 0.88503 0.02353 0.11931 0.0
H1853 H 0.88999 0.95854 0.12398 0.0
C1854 C 0.85206 0.00915 0.11875 0.0
C1855 C 0.89888 0.00523 0.12134 0.0
C1856 C 0.93409 0.01976 0.12237 0.0
C1857 C 0.83253 0.97666 0.12005 0.0
C1858 C 0.84647 0.95822 0.12188 0.0
C1859 C 0.8794 0.97275 0.12254 0.0
C1860 C 0.82753 0.92373 0.1231 0.0
C1861 C 0.79719 0.96244 0.11956 0.0
C1862 C 0.82938 0.91082 0.12994 0.0
C1863 C 0.81406 0.87813 0.1309 0.0
C1864 C 0.79682 0.85775 0.12503 0.0
C1865 C 0.7942 0.87077 0.11826 0.0
C1866 C 0.80957 0.9035 0.1173 0.0
H1867 H 0.79013 0.98072 0.12004 0.0
H1868 H 0.7889 0.95059 0.11409 0.0
H1869 H 0.78507 0.94452 0.124 0.0
H1870 H 0.84322 0.92607 0.13448 0.0
H1871 H 0.81653 0.86887 0.13619 0.0
H1872 H 0.89463 0.84285 0.10891 0.0
H1873 H 0.95078 0.86247 0.11087 0.0
H1874 H 0.93021 0.81349 0.13191 0.0
H1875 H 0.87378 0.79329 0.12997 0.0
H1876 H 0.98553 0.90059 0.12265 0.0
H1877 H 0.99136 0.79 0.12195 0.0
H1878 H 0.95792 0.79221 0.11843 0.0
H1879 H 0.96271 0.78965 0.12828 0.0
C1880 C 0.90191 0.83588 0.11392 0.0
C1881 C 0.87964 0.81653 0.11929 0.0
C1882 C 0.93404 0.84714 0.11503 0.0
C1883 C 0.9446 0.83923 0.1215 0.0
C1884 C 0.92249 0.81941 0.12681 0.0
H1885 H 0.13873 0.95099 0.13721 0.0
H1886 H 0.08102 0.92006 0.13672 0.0
C1887 C 0.89025 0.80804 0.1257 0.0
C1888 C 0.97891 0.85363 0.12289 0.0
H1889 H 0.03824 0.83687 0.12537 0.0
C1890 C 0.99706 0.88667 0.12326 0.0
C1891 C 0.99383 0.83536 0.12363 0.0
C1892 C 0.97557 0.79984 0.12299 0.0
C1893 C 0.02981 0.90201 0.12432 0.0
C1894 C 0.0447 0.88376 0.12517 0.0
C1895 C 0.02661 0.85071 0.1248 0.0
C1896 C 0.07935 0.8989 0.12601 0.0
C1897 C 0.04834 0.93766 0.1243 0.0
C1898 C 0.0974 0.89601 0.12033 0.0
C1899 C 0.13033 0.91348 0.12061 0.0
C1900 C 0.14573 0.93413 0.12658 0.0
C1901 C 0.12757 0.93546 0.1325 0.0
C1902 C 0.09462 0.91795 0.13222 0.0
H1903 H 0.03437 0.94797 0.122 0.0
H1904 H 0.05509 0.94631 0.1301 0.0
H1905 H 0.07033 0.9465 0.12098 0.0
H1906 H 0.086 0.88123 0.11552 0.0
H1907 H 0.14366 0.91149 0.11603 0.0
H1908 H 0.07209 0.21377 0.37281 0.0
H1909 H 0.09991 0.18389 0.37332 0.0
H1910 H 0.04692 0.13496 0.39291 0.0
H1911 H 0.01854 0.1642 0.39239 0.0
H1912 H 0.13654 0.17629 0.38432 0.0
H1913 H 0.02653 0.06362 0.3781 0.0
H1914 H 0.02925 0.10161 0.37709 0.0
H1915 H 0.02429 0.08416 0.38616 0.0
C1916 C 0.06651 0.19684 0.37727 0.0
C1917 C 0.04276 0.19105 0.3825 0.0
C1918 C 0.08248 0.17985 0.37756 0.0
C1919 C 0.07503 0.15687 0.38307 0.0
C1920 C 0.05252 0.15216 0.38852 0.0
H1921 H 0.17657 0.05347 0.39025 0.0
H1922 H 0.15493 0.08871 0.3919 0.0
C1923 C 0.03639 0.16896 0.38821 0.0
C1924 C 0.08963 0.13671 0.38289 0.0
H1925 H 0.07229 0.06047 0.38052 0.0
C1926 C 0.12257 0.15095 0.38352 0.0
C1927 C 0.07125 0.10373 0.38175 0.0
C1928 C 0.03591 0.08733 0.38067 0.0
C1929 C 0.13768 0.13301 0.38301 0.0
C1930 C 0.11924 0.09999 0.38195 0.0
C1931 C 0.0863 0.08578 0.38138 0.0
C1932 C 0.13354 0.07979 0.38096 0.0
C1933 C 0.17325 0.1496 0.38338 0.0
C1934 C 0.12832 0.06284 0.37431 0.0
C1935 C 0.14023 0.04245 0.37339 0.0
C1936 C 0.15757 0.03852 0.37911 0.0
C1937 C 0.16317 0.05584 0.38575 0.0
C1938 C 0.15107 0.07621 0.38668 0.0
H1939 H 0.18412 0.17549 0.38254 0.0
H1940 H 0.18051 0.14559 0.38894 0.0
H1941 H 0.18275 0.14012 0.37911 0.0
H1942 H 0.11481 0.06527 0.36984 0.0
H1943 H 0.13554 0.02955 0.3682 0.0
H1944 H 0.95869 0.16501 0.35963 0.0
H1945 H 0.92497 0.10768 0.36037 0.0
H1946 H 0.88063 0.11802 0.38013 0.0
H1947 H 0.91345 0.17533 0.37927 0.0
H1948 H 0.9266 0.07269 0.37182 0.0
H1949 H 0.80513 0.05205 0.36868 0.0
H1950 H 0.83959 0.08899 0.36618 0.0
H1951 H 0.82693 0.08078 0.37574 0.0
C1952 C 0.94122 0.15514 0.36402 0.0
C1953 C 0.93903 0.17471 0.36945 0.0
C1954 C 0.92205 0.12236 0.36446 0.0
C1955 C 0.90018 0.10856 0.37028 0.0
C1956 C 0.89696 0.12812 0.37551 0.0
H1957 H 0.83592 0.93026 0.39178 0.0
H1958 H 0.86263 0.98515 0.38767 0.0
C1959 C 0.91603 0.16091 0.37506 0.0
C1960 C 0.88314 0.07386 0.37135 0.0
H1961 H 0.81001 0.00992 0.37423 0.0
C1962 C 0.90106 0.05889 0.37225 0.0
C1963 C 0.84984 0.05581 0.37183 0.0
C1964 C 0.82924 0.07018 0.37048 0.0
C1965 C 0.88667 0.02659 0.3739 0.0
C1966 C 0.85353 0.00894 0.37482 0.0
C1967 C 0.83547 0.0236 0.37362 0.0
C1968 C 0.83727 0.97551 0.37724 0.0
C1969 C 0.90716 0.01172 0.37464 0.0
C1970 C 0.81352 0.95194 0.37283 0.0
C1971 C 0.79791 0.92046 0.37518 0.0
C1972 C 0.80574 0.91202 0.38202 0.0
C1973 C 0.82942 0.93581 0.38645 0.0
C1974 C 0.8449 0.96724 0.3841 0.0
H1975 H 0.92986 0.02549 0.37161 0.0
H1976 H 0.91273 0.01115 0.38061 0.0
H1977 H 0.89492 0.98713 0.37249 0.0
H1978 H 0.80715 0.95789 0.36753 0.0
H1979 H 0.77981 0.90283 0.37164 0.0
H1980 H 0.07545 0.90293 0.37766 0.0
H1981 H 0.01793 0.87133 0.37844 0.0
H1982 H 0.02218 0.89086 0.40198 0.0
H1983 H 0.07966 0.92333 0.40121 0.0
H1984 H 0.97433 0.81977 0.38644 0.0
H1985 H 0.96945 0.9274 0.39422 0.0
H1986 H 0.00529 0.92911 0.39108 0.0
H1987 H 0.99177 0.91749 0.40049 0.0
C1988 C 0.06422 0.90012 0.38303 0.0
C1989 C 0.08208 0.9161 0.38935 0.0
C1990 C 0.03133 0.88203 0.38346 0.0
C1991 C 0.01576 0.87943 0.39022 0.0
C1992 C 0.03368 0.8933 0.39666 0.0
H1993 H 0.81313 0.80937 0.39624 0.0
H1994 H 0.86771 0.8236 0.39907 0.0
C1995 C 0.06654 0.91172 0.39622 0.0
C1996 C 0.98087 0.86429 0.39037 0.0
H1997 H 0.92106 0.88018 0.3931 0.0
C1998 C 0.96265 0.83287 0.38796 0.0
C1999 C 0.96568 0.88148 0.39234 0.0
C2000 C 0.98399 0.9158 0.39461 0.0
C2001 C 0.92968 0.8184 0.38733 0.0
C2002 C 0.9147 0.83589 0.38912 0.0
C2003 C 0.93272 0.86684 0.39179 0.0
C2004 C 0.8809 0.82386 0.38755 0.0
C2005 C 0.91113 0.78471 0.38465 0.0
C2006 C 0.87038 0.81935 0.38015 0.0
C2007 C 0.83947 0.81171 0.37851 0.0
C2008 C 0.81846 0.80843 0.38426 0.0
C2009 C 0.82877 0.81198 0.39169 0.0
C2010 C 0.85988 0.81995 0.39332 0.0
H2011 H 0.92448 0.77204 0.38544 0.0
H2012 H 0.8882 0.77167 0.38763 0.0
H2013 H 0.90614 0.78457 0.37861 0.0
H2014 H 0.88643 0.82283 0.37561 0.0
H2015 H 0.83228 0.80904 0.37273 0.0
H2016 H 0.85311 0.97522 0.88817 0.0
H2017 H 0.87454 0.93962 0.88746 0.0
H2018 H 0.81543 0.8931 0.86846 0.0
H2019 H 0.7934 0.9282 0.86917 0.0
H2020 H 0.81794 0.85122 0.87879 0.0
H2021 H 0.93762 0.94858 0.87126 0.0
H2022 H 0.92218 0.95474 0.87979 0.0
H2023 H 0.90321 0.95315 0.87109 0.0
C2024 C 0.84448 0.95731 0.88386 0.0
C2025 C 0.82174 0.9548 0.87868 0.0
C2026 C 0.85686 0.93707 0.88345 0.0
C2027 C 0.84696 0.91415 0.87783 0.0
C2028 C 0.82347 0.91077 0.87282 0.0
H2029 H 0.94893 0.82481 0.86148 0.0
H2030 H 0.91946 0.85262 0.86295 0.0
C2031 C 0.81097 0.93092 0.87323 0.0
C2032 C 0.86185 0.89439 0.87699 0.0
H2033 H 0.93228 0.89841 0.87339 0.0
C2034 C 0.84293 0.86146 0.87761 0.0
C2035 C 0.89436 0.90788 0.87536 0.0
C2036 C 0.91553 0.94299 0.87426 0.0
C2037 C 0.85578 0.84162 0.87668 0.0
C2038 C 0.88844 0.8552 0.8752 0.0
C2039 C 0.90727 0.8881 0.87456 0.0
C2040 C 0.9037 0.83586 0.87416 0.0
C2041 C 0.83421 0.80634 0.87713 0.0
C2042 C 0.90428 0.81688 0.87995 0.0
C2043 C 0.92098 0.80074 0.87911 0.0
C2044 C 0.93772 0.80368 0.87251 0.0
C2045 C 0.93637 0.82208 0.86665 0.0
C2046 C 0.9196 0.83806 0.86748 0.0
H2047 H 0.80905 0.79959 0.87637 0.0
H2048 H 0.84053 0.79402 0.87285 0.0
H2049 H 0.83664 0.79793 0.88269 0.0
H2050 H 0.89257 0.81523 0.88519 0.0
H2051 H 0.92125 0.78652 0.8837 0.0
H2052 H 0.08132 0.87758 0.87113 0.0
H2053 H 0.11776 0.93446 0.87037 0.0
H2054 H 0.07921 0.94819 0.89071 0.0
H2055 H 0.04249 0.89149 0.89151 0.0
H2056 H 0.07932 0.98484 0.87879 0.0
H2057 H 0.19697 0.99525 0.88242 0.0
H2058 H 0.17224 0.96697 0.87554 0.0
H2059 H 0.16067 0.9605 0.88517 0.0
C2060 C 0.08089 0.8926 0.87552 0.0
C2061 C 0.0588 0.87994 0.88136 0.0
C2062 C 0.1019 0.9251 0.87509 0.0
C2063 C 0.10132 0.94544 0.88052 0.0
C2064 C 0.08006 0.93281 0.88648 0.0
H2065 H 0.21927 0.14815 0.8858 0.0
H2066 H 0.19296 0.09077 0.88736 0.0
C2067 C 0.05908 0.90038 0.88692 0.0
C2068 C 0.12068 0.98007 0.87962 0.0
H2069 H 0.19648 0.04137 0.87834 0.0
C2070 C 0.10494 0.99722 0.87873 0.0
C2071 C 0.15406 0.99609 0.87958 0.0
C2072 C 0.17208 0.97886 0.88079 0.0
C2073 C 0.12168 0.02999 0.87768 0.0
C2074 C 0.15502 0.0459 0.87743 0.0
C2075 C 0.17087 0.02892 0.87845 0.0
C2076 C 0.17359 0.08034 0.87621 0.0
C2077 C 0.10362 0.04743 0.87691 0.0
C2078 C 0.17201 0.09327 0.86937 0.0
C2079 C 0.18692 0.12597 0.86846 0.0
C2080 C 0.20355 0.14623 0.87441 0.0
C2081 C 0.20626 0.13315 0.88116 0.0
C2082 C 0.19142 0.10043 0.88204 0.0
H2083 H 0.07865 0.03281 0.87873 0.0
H2084 H 0.11493 0.06954 0.88024 0.0
H2085 H 0.10371 0.05393 0.87099 0.0
H2086 H 0.15857 0.07802 0.86478 0.0
H2087 H 0.18451 0.1353 0.86318 0.0
H2088 H 0.12487 0.2081 0.86819 0.0
H2089 H 0.06894 0.18796 0.86557 0.0
H2090 H 0.04399 0.13732 0.88642 0.0
H2091 H 0.09968 0.15683 0.88905 0.0
H2092 H 0.01088 0.10023 0.87452 0.0
H2093 H 0.00692 0.21179 0.87462 0.0
H2094 H 0.03619 0.21194 0.86854 0.0
H2095 H 0.03963 0.20905 0.87844 0.0
C2096 C 0.10753 0.19296 0.87227 0.0
C2097 C 0.11681 0.18405 0.87883 0.0
C2098 C 0.07557 0.18162 0.87077 0.0
C2099 C 0.05237 0.16143 0.87584 0.0
C2100 C 0.06156 0.15295 0.88244 0.0
H2101 H 0.85301 0.09312 0.87881 0.0
H2102 H 0.91051 0.12235 0.87997 0.0
C2103 C 0.09344 0.16416 0.88393 0.0
C2104 C 0.01838 0.1475 0.87409 0.0
H2105 H 0.96048 0.16554 0.87067 0.0
C2106 C -0.00014 0.1145 0.87367 0.0
C2107 C 0.00408 0.16622 0.87304 0.0
C2108 C 0.02261 0.20171 0.87374 0.0
C2109 C 0.96736 0.09963 0.87225 0.0
C2110 C 0.95314 0.11833 0.87106 0.0
C2111 C 0.97161 0.15135 0.87149 0.0
C2112 C 0.91875 0.10375 0.86981 0.0
C2113 C 0.94835 0.06399 0.87225 0.0
C2114 C 0.90446 0.08457 0.86356 0.0
C2115 C 0.87158 0.06763 0.86291 0.0
C2116 C 0.85252 0.06969 0.8685 0.0
C2117 C 0.86702 0.09055 0.87449 0.0
C2118 C 0.89988 0.10743 0.87514 0.0
H2119 H 0.96144 0.05335 0.87488 0.0
H2120 H 0.92566 0.05546 0.87526 0.0
H2121 H 0.94288 0.05538 0.86642 0.0
H2122 H 0.91872 0.08191 0.85932 0.0
H2123 H 0.86114 0.05193 0.8582 0.0
H2124 H 0.81892 0.9486 0.63426 0.0
H2125 H 0.84734 0.91964 0.63268 0.0
H2126 H 0.81215 0.89537 0.61021 0.0
H2127 H 0.78322 0.92388 0.61176 0.0
H2128 H 0.81132 0.84469 0.61875 0.0
H2129 H 0.9274 0.95574 0.61927 0.0
H2130 H 0.9021 0.95028 0.62707 0.0
H2131 H 0.89062 0.9553 0.61789 0.0
C2132 C 0.81692 0.93682 0.62901 0.0
C2133 C 0.79921 0.93893 0.62309 0.0
C2134 C 0.83329 0.92043 0.62811 0.0
C2135 C 0.83222 0.90589 0.62129 0.0
C2136 C 0.8134 0.90667 0.6155 0.0
H2137 H 0.96879 0.85422 0.60639 0.0
H2138 H 0.93197 0.87408 0.60727 0.0
C2139 C 0.79705 0.9231 0.61638 0.0
C2140 C 0.85183 0.89106 0.62011 0.0
H2141 H 0.92836 0.90782 0.61923 0.0
C2142 C 0.8369 0.85841 0.61883 0.0
C2143 C 0.88516 0.90922 0.62011 0.0
C2144 C 0.90237 0.94462 0.62109 0.0
C2145 C 0.85457 0.84328 0.61772 0.0
C2146 C 0.88792 0.86131 0.61796 0.0
C2147 C 0.90277 0.89404 0.61909 0.0
C2148 C 0.90808 0.84688 0.61708 0.0
C2149 C 0.83746 0.80825 0.61619 0.0
C2150 C 0.9067 0.82483 0.62229 0.0
C2151 C 0.92771 0.81336 0.6218 0.0
C2152 C 0.95066 0.82394 0.61613 0.0
C2153 C 0.95148 0.84555 0.61083 0.0
C2154 C 0.93045 0.85696 0.61132 0.0
H2155 H 0.81286 0.79957 0.61428 0.0
H2156 H 0.85005 0.80228 0.61191 0.0
H2157 H 0.8364 0.79551 0.6214 0.0
H2158 H 0.89001 0.81721 0.62686 0.0
H2159 H 0.92646 0.79683 0.62599 0.0
H2160 H 0.20534 0.13361 0.62686 0.0
H2161 H 0.18576 0.07708 0.62806 0.0
H2162 H 0.12723 0.05921 0.60864 0.0
H2163 H 0.14615 0.11566 0.60747 0.0
H2164 H 0.09466 0.02159 0.62023 0.0
H2165 H 0.20556 0.01876 0.61606 0.0
H2166 H 0.20847 0.04564 0.62324 0.0
H2167 H 0.20199 0.05277 0.61374 0.0
C2168 C 0.18856 0.11774 0.62279 0.0
C2169 C 0.17731 0.12923 0.61707 0.0
C2170 C 0.17755 0.08541 0.62346 0.0
C2171 C 0.1554 0.06399 0.61837 0.0
C2172 C 0.14446 0.07538 0.6126 0.0
H2173 H 0.08884 0.86342 0.61418 0.0
H2174 H 0.11572 0.92071 0.61252 0.0
C2175 C 0.15531 0.10767 0.61195 0.0
C2176 C 0.14203 0.02954 0.61936 0.0
H2177 H 0.16153 0.97171 0.62082 0.0
C2178 C 0.10927 0.01067 0.62032 0.0
C2179 C 0.1611 0.0153 0.61939 0.0
C2180 C 0.19619 0.0341 0.61798 0.0
C2181 C 0.09508 0.97801 0.62144 0.0
C2182 C 0.11428 0.96397 0.62178 0.0
C2183 C 0.14697 0.98268 0.62067 0.0
C2184 C 0.10056 0.92971 0.62311 0.0
C2185 C 0.05958 0.95876 0.62213 0.0
C2186 C 0.08411 0.91597 0.62973 0.0
C2187 C 0.06849 0.88324 0.63067 0.0
C2188 C 0.06919 0.86372 0.625 0.0
C2189 C 0.08728 0.87774 0.61857 0.0
C2190 C 0.10282 0.91048 0.61763 0.0
H2191 H 0.04796 0.97154 0.61986 0.0
H2192 H 0.05012 0.93585 0.61917 0.0
H2193 H 0.05309 0.95379 0.6281 0.0
H2194 H 0.0827 0.93051 0.6341 0.0
H2195 H 0.05501 0.87322 0.63572 0.0
H2196 H 0.13797 0.19116 0.637 0.0
H2197 H 0.08024 0.16371 0.63639 0.0
H2198 H 0.08543 0.20724 0.61514 0.0
H2199 H 0.14307 0.2353 0.61578 0.0
H2200 H 0.03681 0.20291 0.62477 0.0
H2201 H 0.03539 0.08901 0.62166 0.0
H2202 H 0.05527 0.11158 0.62981 0.0
H2203 H 0.07103 0.12675 0.62073 0.0
C2204 C 0.12684 0.19533 0.63226 0.0
C2205 C 0.14505 0.21491 0.62636 0.0
C2206 C 0.09388 0.17951 0.6319 0.0
C2207 C 0.07868 0.18301 0.62565 0.0
C2208 C 0.09677 0.20408 0.61999 0.0
H2209 H 0.89682 0.05264 0.60757 0.0
H2210 H 0.95251 0.0898 0.60991 0.0
C2211 C 0.1297 0.21991 0.62034 0.0
C2212 C 0.04414 0.16301 0.62471 0.0
H2213 H 0.98612 0.08666 0.62198 0.0
C2214 C 0.02561 0.17747 0.6242 0.0
C2215 C 0.02982 0.12992 0.62384 0.0
C2216 C 0.04885 0.11331 0.62397 0.0
C2217 C 0.99297 0.15961 0.62285 0.0
C2218 C 0.97864 0.12647 0.62208 0.0
C2219 C 0.99721 0.11207 0.62261 0.0
C2220 C 0.94459 0.10615 0.62046 0.0
C2221 C 0.97428 0.17636 0.62205 0.0
C2222 C 0.92164 0.10326 0.62559 0.0
C2223 C 0.88966 0.08204 0.62426 0.0
C2224 C 0.88014 0.06316 0.6178 0.0
C2225 C 0.90325 0.0667 0.61261 0.0
C2226 C 0.93512 0.08793 0.61393 0.0
H2227 H 0.98983 0.20209 0.62109 0.0
H2228 H 0.95722 0.16627 0.61737 0.0
H2229 H 0.96069 0.17323 0.62725 0.0
H2230 H 0.92851 0.11671 0.63072 0.0
H2231 H 0.87253 0.07984 0.6284 0.0
H2232 H 0.73526 0.50543 0.47492 0.0
H2233 H 0.75965 0.47244 0.47425 0.0
H2234 H 0.80444 0.51685 0.45351 0.0
H2235 H 0.78105 0.55072 0.45427 0.0
H2236 H 0.74842 0.42975 0.46328 0.0
H2237 H 0.87645 0.51686 0.46474 0.0
H2238 H 0.84655 0.52658 0.46725 0.0
H2239 H 0.85619 0.52561 0.45762 0.0
C2240 C 0.75079 0.50864 0.47028 0.0
C2241 C 0.75591 0.53045 0.46459 0.0
C2242 C 0.76463 0.48968 0.4699 0.0
C2243 C 0.78396 0.49229 0.46385 0.0
C2244 C 0.79 0.51478 0.45829 0.0
H2245 H 0.81819 0.34505 0.44772 0.0
H2246 H 0.801 0.3837 0.44949 0.0
C2247 C 0.77629 0.53388 0.45869 0.0
C2248 C 0.79564 0.46974 0.46307 0.0
H2249 H 0.86232 0.46467 0.46089 0.0
C2250 C 0.77334 0.43737 0.46281 0.0
C2251 C 0.82816 0.47974 0.46251 0.0
C2252 C 0.85325 0.51407 0.46311 0.0
C2253 C 0.78263 0.41471 0.4619 0.0
C2254 C 0.81507 0.42476 0.46106 0.0
C2255 C 0.83744 0.45709 0.46145 0.0
C2256 C 0.82624 0.40201 0.45986 0.0
C2257 C 0.75764 0.3802 0.46195 0.0
C2258 C 0.84689 0.40018 0.46499 0.0
C2259 C 0.857 0.3783 0.46397 0.0
C2260 C 0.84667 0.35788 0.45778 0.0
C2261 C 0.82638 0.36019 0.45259 0.0
C2262 C 0.81641 0.38217 0.4536 0.0
H2263 H 0.73549 0.37628 0.46464 0.0
H2264 H 0.75195 0.37156 0.45612 0.0
H2265 H 0.76605 0.36585 0.46491 0.0
H2266 H 0.85485 0.4154 0.46984 0.0
H2267 H 0.87269 0.37726 0.46807 0.0
H2268 H 0.49387 0.20371 0.46627 0.0
H2269 H 0.52397 0.26121 0.46538 0.0
H2270 H 0.50106 0.25565 0.44202 0.0
H2271 H 0.47035 0.19802 0.44288 0.0
H2272 H 0.57631 0.29444 0.45611 0.0
H2273 H 0.48265 0.32398 0.44999 0.0
H2274 H 0.47409 0.28627 0.45376 0.0
H2275 H 0.48284 0.29452 0.44403 0.0
C2276 C 0.49485 0.21468 0.46096 0.0
C2277 C 0.47991 0.19627 0.45463 0.0
C2278 C 0.51209 0.24754 0.46046 0.0
C2279 C 0.51453 0.26265 0.45365 0.0
C2280 C 0.49906 0.24444 0.44735 0.0
H2281 H 0.66386 0.45161 0.44256 0.0
H2282 H 0.625 0.3953 0.44239 0.0
C2283 C 0.48177 0.2115 0.44784 0.0
C2284 C 0.53521 0.29727 0.45306 0.0
H2285 H 0.53577 0.36592 0.44916 0.0
C2286 C 0.56746 0.31009 0.4546 0.0
C2287 C 0.52348 0.31754 0.45113 0.0
C2288 C 0.48883 0.30502 0.44969 0.0
C2289 C 0.58841 0.34268 0.45423 0.0
C2290 C 0.57683 0.36293 0.45215 0.0
C2291 C 0.54454 0.35021 0.45068 0.0
C2292 C 0.59804 0.39748 0.4517 0.0
C2293 C 0.62268 0.35526 0.45619 0.0
C2294 C 0.59494 0.41747 0.4568 0.0
C2295 C 0.61707 0.44974 0.45691 0.0
C2296 C 0.64264 0.46254 0.4519 0.0
C2297 C 0.64468 0.44257 0.44655 0.0
C2298 C 0.62254 0.41035 0.44645 0.0
H2299 H 0.62628 0.33752 0.45923 0.0
H2300 H 0.63687 0.36158 0.45099 0.0
H2301 H 0.63182 0.37686 0.45967 0.0
H2302 H 0.57607 0.40791 0.46088 0.0
H2303 H 0.61466 0.46442 0.46108 0.0
H2304 H 0.80281 0.24806 0.47463 0.0
H2305 H 0.74552 0.21952 0.47293 0.0
H2306 H 0.75705 0.19241 0.45079 0.0
H2307 H 0.81426 0.22024 0.4525 0.0
H2308 H 0.71707 0.23642 0.46205 0.0
H2309 H 0.68325 0.11058 0.45892 0.0
H2310 H 0.72042 0.13969 0.46294 0.0
H2311 H 0.71538 0.13673 0.45299 0.0
C2312 C 0.79313 0.23538 0.46947 0.0
C2313 C 0.81309 0.23673 0.46366 0.0
C2314 C 0.76039 0.21915 0.4685 0.0
C2315 C 0.74703 0.20372 0.46176 0.0
C2316 C 0.76681 0.20372 0.45609 0.0
H2317 H 0.57634 0.17414 0.44091 0.0
H2318 H 0.63022 0.18824 0.44425 0.0
C2319 C 0.79955 0.21995 0.45705 0.0
C2320 C 0.71296 0.19091 0.46031 0.0
H2321 H 0.64519 0.12474 0.45491 0.0
C2322 C 0.70129 0.21192 0.46056 0.0
C2323 C 0.69241 0.15893 0.45841 0.0
C2324 C 0.70338 0.13508 0.45836 0.0
C2325 C 0.66982 0.20204 0.45876 0.0
C2326 C 0.64962 0.1704 0.45655 0.0
C2327 C 0.66093 0.14908 0.45652 0.0
C2328 C 0.61678 0.15938 0.45419 0.0
C2329 C 0.65843 0.22555 0.45921 0.0
C2330 C 0.59136 0.13764 0.45854 0.0
C2331 C 0.56045 0.12946 0.45666 0.0
C2332 C 0.55447 0.14281 0.45035 0.0
C2333 C 0.58002 0.16355 0.44583 0.0
C2334 C 0.61087 0.17173 0.44773 0.0
H2335 H 0.67445 0.24648 0.46262 0.0
H2336 H 0.65749 0.23388 0.45351 0.0
H2337 H 0.63431 0.21449 0.46163 0.0
H2338 H 0.59553 0.12779 0.46353 0.0
H2339 H 0.54135 0.11329 0.46024 0.0
H2340 H 0.68974 0.47704 0.722 0.0
H2341 H 0.72561 0.45586 0.72186 0.0
H2342 H 0.77369 0.51357 0.70277 0.0
H2343 H 0.73839 0.53536 0.70293 0.0
H2344 H 0.73155 0.42206 0.71064 0.0
H2345 H 0.84714 0.52898 0.71609 0.0
H2346 H 0.81003 0.5276 0.71775 0.0
H2347 H 0.82619 0.53392 0.70848 0.0
C2348 C 0.70819 0.48558 0.71783 0.0
C2349 C 0.71114 0.50791 0.71247 0.0
C2350 C 0.72869 0.47344 0.71776 0.0
C2351 C 0.75257 0.48344 0.71237 0.0
C2352 C 0.7559 0.50606 0.70709 0.0
H2353 H 0.8384 0.3794 0.69542 0.0
H2354 H 0.80978 0.40788 0.69737 0.0
C2355 C 0.73551 0.51833 0.70716 0.0
C2356 C 0.77233 0.46838 0.71189 0.0
H2357 H 0.84863 0.48396 0.71132 0.0
C2358 C 0.75714 0.43556 0.71085 0.0
C2359 C 0.80569 0.486 0.71226 0.0
C2360 C 0.82324 0.52103 0.71378 0.0
C2361 C 0.77442 0.41998 0.70996 0.0
C2362 C 0.80779 0.4378 0.70995 0.0
C2363 C 0.82303 0.47047 0.71122 0.0
C2364 C 0.82713 0.42279 0.70859 0.0
C2365 C 0.75679 0.38453 0.70907 0.0
C2366 C 0.84739 0.42292 0.71413 0.0
C2367 C 0.86399 0.40684 0.71302 0.0
C2368 C 0.8606 0.39044 0.70633 0.0
C2369 C 0.84135 0.39159 0.70066 0.0
C2370 C 0.82482 0.40767 0.70178 0.0
H2371 H 0.73215 0.37376 0.71116 0.0
H2372 H 0.75579 0.37856 0.70307 0.0
H2373 H 0.76891 0.37376 0.71208 0.0
H2374 H 0.84971 0.43475 0.71939 0.0
H2375 H 0.87903 0.40686 0.71744 0.0
H2376 H 0.4417 0.20369 0.70488 0.0
H2377 H 0.46064 0.25995 0.70296 0.0
H2378 H 0.54902 0.2831 0.71347 0.0
H2379 H 0.52966 0.2272 0.71573 0.0
H2380 H 0.5304 0.3212 0.71818 0.0
H2381 H 0.52045 0.31553 0.68737 0.0
H2382 H 0.4835 0.29101 0.69197 0.0
H2383 H 0.51514 0.28246 0.6929 0.0
C2384 C 0.46515 0.22084 0.70678 0.0
C2385 C 0.48423 0.21107 0.71044 0.0
C2386 C 0.47605 0.25296 0.70563 0.0
C2387 C 0.50654 0.27578 0.70792 0.0
C2388 C 0.52544 0.26598 0.71164 0.0
H2389 H 0.62413 0.46666 0.69307 0.0
H2390 H 0.59374 0.4094 0.69465 0.0
C2391 C 0.51434 0.23399 0.71293 0.0
C2392 C 0.51891 0.30996 0.70659 0.0
H2393 H 0.53467 0.36471 0.69298 0.0
C2394 C 0.53132 0.3307 0.71267 0.0
C2395 C 0.52042 0.32241 0.69937 0.0
C2396 C 0.50947 0.30175 0.69252 0.0
C2397 C 0.54577 0.3635 0.71173 0.0
C2398 C 0.5466 0.37591 0.70455 0.0
C2399 C 0.53369 0.35515 0.69849 0.0
C2400 C 0.56275 0.41042 0.70314 0.0
C2401 C 0.56128 0.38445 0.71841 0.0
C2402 C 0.55477 0.43001 0.70719 0.0
C2403 C 0.57254 0.4628 0.7064 0.0
C2404 C 0.59797 0.47646 0.70138 0.0
C2405 C 0.60459 0.45676 0.69697 0.0
C2406 C 0.58724 0.42403 0.69787 0.0
H2407 H 0.56624 0.3718 0.72288 0.0
H2408 H 0.58383 0.40578 0.71684 0.0
H2409 H 0.5452 0.39213 0.72076 0.0
H2410 H 0.53531 0.42001 0.7111 0.0
H2411 H 0.56675 0.47748 0.70981 0.0
H2412 H 0.78873 0.24666 0.70333 0.0
H2413 H 0.73206 0.21089 0.70167 0.0
H2414 H 0.7131 0.24771 0.72162 0.0
H2415 H 0.7696 0.28372 0.72333 0.0
H2416 H 0.6836 0.16403 0.7115 0.0
H2417 H 0.6657 0.26478 0.70453 0.0
H2418 H 0.7042 0.26817 0.70456 0.0
H2419 H 0.6857 0.26843 0.71319 0.0
C2420 C 0.77258 0.24695 0.70742 0.0
C2421 C 0.78374 0.26837 0.71342 0.0
C2422 C 0.74022 0.22644 0.70646 0.0
C2423 C 0.71852 0.22708 0.71146 0.0
C2424 C 0.72956 0.24725 0.71765 0.0
H2425 H 0.51685 0.10635 0.71595 0.0
H2426 H 0.57416 0.13208 0.71733 0.0
C2427 C 0.76188 0.26774 0.71862 0.0
C2428 C 0.68428 0.20803 0.70997 0.0
H2429 H 0.61982 0.21461 0.70574 0.0
C2430 C 0.66959 0.17498 0.71022 0.0
C2431 C 0.66631 0.22251 0.7082 0.0
C2432 C 0.68123 0.25791 0.70753 0.0
C2433 C 0.63704 0.15597 0.7089 0.0
C2434 C 0.61892 0.17052 0.70735 0.0
C2435 C 0.6338 0.20355 0.70696 0.0
C2436 C 0.58434 0.15217 0.70624 0.0
C2437 C 0.62238 0.12054 0.70911 0.0
C2438 C 0.57109 0.15496 0.69955 0.0
C2439 C 0.53836 0.14055 0.69877 0.0
C2440 C 0.51833 0.12335 0.7047 0.0
C2441 C 0.53165 0.1197 0.7113 0.0
C2442 C 0.5644 0.13411 0.71208 0.0
H2443 H 0.6404 0.11321 0.70842 0.0
H2444 H 0.61063 0.11163 0.71457 0.0
H2445 H 0.60429 0.10922 0.70467 0.0
H2446 H 0.58614 0.16894 0.695 0.0
H2447 H 0.52884 0.14381 0.69361 0.0
H2448 H 0.6098 0.15352 0.19109 0.0
H2449 H 0.58097 0.18192 0.19292 0.0
H2450 H 0.5435 0.13265 0.21366 0.0
H2451 H 0.57172 0.10363 0.2118 0.0
H2452 H 0.49905 0.13992 0.20474 0.0
H2453 H 0.61167 0.25252 0.20886 0.0
H2454 H 0.60938 0.23237 0.20031 0.0
H2455 H 0.60934 0.21451 0.20906 0.0
C2456 C 0.59506 0.14835 0.19599 0.0
C2457 C 0.59348 0.12674 0.20137 0.0
C2458 C 0.57878 0.16474 0.19704 0.0
C2459 C 0.5607 0.15982 0.2035 0.0
C2460 C 0.5576 0.13696 0.20867 0.0
H2461 H 0.50857 0.29265 0.22108 0.0
H2462 H 0.52723 0.25503 0.21958 0.0
C2463 C 0.57387 0.12055 0.20762 0.0
C2464 C 0.54637 0.17963 0.20504 0.0
H2465 H 0.565 0.25579 0.20823 0.0
C2466 C 0.51339 0.16524 0.20552 0.0
C2467 C 0.56526 0.21254 0.20619 0.0
C2468 C 0.60088 0.22895 0.20615 0.0
C2469 C 0.49871 0.18312 0.20696 0.0
C2470 C 0.51759 0.21622 0.20783 0.0
C2471 C 0.55059 0.23044 0.2075 0.0
C2472 C 0.50378 0.23679 0.20902 0.0
C2473 C 0.46322 0.16641 0.20763 0.0
C2474 C 0.48427 0.23886 0.20359 0.0
C2475 C 0.47347 0.26029 0.20443 0.0
C2476 C 0.48227 0.28028 0.21069 0.0
C2477 C 0.50136 0.27769 0.21618 0.0
C2478 C 0.51206 0.25619 0.21534 0.0
H2479 H 0.45314 0.14091 0.20889 0.0
H2480 H 0.45581 0.17723 0.21205 0.0
H2481 H 0.45305 0.16838 0.20226 0.0
H2482 H 0.47814 0.22457 0.19859 0.0
H2483 H 0.45891 0.26172 0.20007 0.0
H2484 H 0.69213 0.21731 0.22074 0.0
H2485 H 0.72868 0.27418 0.22021 0.0
H2486 H 0.77219 0.26181 0.20058 0.0
H2487 H 0.73607 0.20482 0.20109 0.0
H2488 H 0.81572 0.30493 0.21104 0.0
H2489 H 0.71954 0.33032 0.2045 0.0
H2490 H 0.71344 0.30766 0.21284 0.0
H2491 H 0.71423 0.2911 0.20395 0.0
C2492 C 0.70959 0.22658 0.21633 0.0
C2493 C 0.71092 0.20647 0.21091 0.0
C2494 C 0.73037 0.25912 0.21603 0.0
C2495 C 0.75271 0.27217 0.21028 0.0
C2496 C 0.75497 0.25214 0.20503 0.0
H2497 H 0.84542 0.46627 0.19548 0.0
H2498 H 0.81674 0.4087 0.19632 0.0
C2499 C 0.73425 0.21958 0.20534 0.0
C2500 C 0.77298 0.3068 0.20958 0.0
H2501 H 0.77027 0.37434 0.20667 0.0
C2502 C 0.80587 0.32017 0.21008 0.0
C2503 C 0.75997 0.32646 0.20822 0.0
C2504 C 0.72489 0.31322 0.20727 0.0
C2505 C 0.82615 0.35287 0.20934 0.0
C2506 C 0.81306 0.37259 0.20817 0.0
C2507 C 0.7802 0.35914 0.2076 0.0
C2508 C 0.83287 0.40729 0.20747 0.0
C2509 C 0.86136 0.36597 0.20969 0.0
C2510 C 0.85172 0.42555 0.21343 0.0
C2511 C 0.86828 0.45849 0.21295 0.0
C2512 C 0.86596 0.47371 0.20653 0.0
C2513 C 0.8477 0.4553 0.2005 0.0
C2514 C 0.83123 0.4224 0.20098 0.0
H2515 H 0.86766 0.34737 0.20868 0.0
H2516 H 0.87382 0.38514 0.20555 0.0
H2517 H 0.87001 0.37595 0.21532 0.0
H2518 H 0.85292 0.41437 0.21853 0.0
H2519 H 0.88237 0.47197 0.21766 0.0
H2520 H 0.77354 0.48777 0.22448 0.0
H2521 H 0.71736 0.46865 0.2226 0.0
H2522 H 0.7388 0.52691 0.20302 0.0
H2523 H 0.79516 0.54651 0.20486 0.0
H2524 H 0.69015 0.52528 0.21257 0.0
H2525 H 0.6703 0.40618 0.20529 0.0
H2526 H 0.68937 0.42139 0.2141 0.0
H2527 H 0.70919 0.4407 0.20563 0.0
C2528 C 0.76643 0.49686 0.21981 0.0
C2529 C 0.78889 0.5184 0.21476 0.0
C2530 C 0.73429 0.48582 0.21875 0.0
C2531 C 0.72402 0.496 0.21261 0.0
C2532 C 0.74635 0.51869 0.20777 0.0
H2533 H 0.53723 0.39499 0.19323 0.0
H2534 H 0.59424 0.42554 0.19526 0.0
C2535 C 0.77853 0.5298 0.20883 0.0
C2536 C 0.68993 0.48153 0.21098 0.0
H2537 H 0.62502 0.41157 0.20628 0.0
C2538 C 0.67584 0.50045 0.21118 0.0
C2539 C 0.67156 0.44924 0.20907 0.0
C2540 C 0.68583 0.42817 0.20843 0.0
C2541 C 0.64354 0.48769 0.20965 0.0
C2542 C 0.62502 0.4552 0.20793 0.0
C2543 C 0.63929 0.43646 0.20763 0.0
C2544 C 0.59071 0.43983 0.20646 0.0
C2545 C 0.62961 0.50911 0.20977 0.0
C2546 C 0.56988 0.43808 0.21206 0.0
C2547 C 0.53726 0.42069 0.21092 0.0
C2548 C 0.52496 0.4045 0.20417 0.0
C2549 C 0.54594 0.40715 0.19849 0.0
C2550 C 0.57852 0.42455 0.19964 0.0
H2551 H 0.64813 0.53436 0.20927 0.0
H2552 H 0.6123 0.50316 0.20518 0.0
H2553 H 0.61707 0.50602 0.21513 0.0
H2554 H 0.57879 0.44929 0.21741 0.0
H2555 H 0.52174 0.41938 0.21538 0.0
H2556 H 0.59707 0.12978 0.96202 0.0
H2557 H 0.56029 0.14981 0.9626 0.0
H2558 H 0.60069 0.20338 0.9425 0.0
H2559 H 0.63797 0.18399 0.94193 0.0
H2560 H 0.59739 0.2391 0.95363 0.0
H2561 H 0.48192 0.12923 0.95053 0.0
H2562 H 0.50591 0.12701 0.9578 0.0
H2563 H 0.51892 0.13131 0.94828 0.0
C2564 C 0.59791 0.1455 0.95766 0.0
C2565 C 0.62059 0.15536 0.95194 0.0
C2566 C 0.57668 0.15675 0.95797 0.0
C2567 C 0.57748 0.17775 0.95254 0.0
C2568 C 0.5996 0.18707 0.94673 0.0
H2569 H 0.4471 0.24983 0.94823 0.0
H2570 H 0.47643 0.22193 0.94627 0.0
C2571 C 0.62091 0.17597 0.94643 0.0
C2572 C 0.55713 0.19208 0.95323 0.0
H2573 H 0.48052 0.17483 0.95485 0.0
C2574 C 0.57182 0.22505 0.95384 0.0
C2575 C 0.52378 0.17373 0.95343 0.0
C2576 C 0.50665 0.13838 0.9524 0.0
C2577 C 0.55413 0.24015 0.95482 0.0
C2578 C 0.52088 0.22172 0.95535 0.0
C2579 C 0.50606 0.18882 0.95454 0.0
C2580 C 0.5013 0.23641 0.95678 0.0
C2581 C 0.57118 0.27575 0.95522 0.0
C2582 C 0.50492 0.25294 0.96343 0.0
C2583 C 0.4884 0.26904 0.96455 0.0
C2584 C 0.46787 0.2688 0.95903 0.0
C2585 C 0.46314 0.25094 0.95252 0.0
C2586 C 0.47973 0.23484 0.95141 0.0
H2587 H 0.59533 0.2865 0.95282 0.0
H2588 H 0.55787 0.28527 0.95222 0.0
H2589 H 0.57342 0.28315 0.96114 0.0
H2590 H 0.52103 0.2539 0.9677 0.0
H2591 H 0.4924 0.28235 0.96965 0.0
H2592 H 0.8189 0.43808 0.94256 0.0
H2593 H 0.79996 0.38255 0.94528 0.0
H2594 H 0.85552 0.40873 0.9654 0.0
H2595 H 0.87497 0.46456 0.96272 0.0
H2596 H 0.85781 0.36048 0.95674 0.0
H2597 H 0.73531 0.33476 0.96203 0.0
H2598 H 0.7512 0.35337 0.95321 0.0
H2599 H 0.76856 0.37446 0.96171 0.0
C2600 C 0.82729 0.43215 0.94755 0.0
C2601 C 0.84826 0.45583 0.95246 0.0
C2602 C 0.81633 0.40037 0.9491 0.0
C2603 C 0.82595 0.39161 0.95559 0.0
C2604 C 0.8477 0.41509 0.96038 0.0
H2605 H 0.72274 0.19958 0.97267 0.0
H2606 H 0.75276 0.25719 0.97187 0.0
C2607 C 0.85873 0.44696 0.95883 0.0
C2608 C 0.81259 0.35785 0.95746 0.0
H2609 H 0.74295 0.29057 0.96103 0.0
C2610 C 0.83275 0.34517 0.95774 0.0
C2611 C 0.77998 0.33815 0.95887 0.0
C2612 C 0.7575 0.35086 0.95901 0.0
C2613 C 0.8209 0.31292 0.95915 0.0
C2614 C 0.78806 0.29296 0.96022 0.0
C2615 C 0.76811 0.3059 0.96017 0.0
C2616 C 0.77346 0.25835 0.96114 0.0
C2617 C 0.84361 0.30055 0.9595 0.0
C2618 C 0.77558 0.23994 0.95542 0.0
C2619 C 0.75855 0.20701 0.95586 0.0
C2620 C 0.7388 0.19194 0.962 0.0
C2621 C 0.7377 0.21046 0.96786 0.0
C2622 C 0.75479 0.24338 0.96741 0.0
H2623 H 0.868 0.31968 0.96078 0.0
H2624 H 0.83621 0.28174 0.96378 0.0
H2625 H 0.8441 0.29035 0.95401 0.0
H2626 H 0.78941 0.25097 0.95046 0.0
H2627 H 0.7602 0.19343 0.9513 0.0
H2628 H 0.79627 0.52049 0.96771 0.0
H2629 H 0.73911 0.49285 0.96581 0.0
H2630 H 0.75278 0.52748 0.94325 0.0
H2631 H 0.81009 0.5555 0.94509 0.0
H2632 H 0.70185 0.52922 0.95198 0.0
H2633 H 0.6966 0.41294 0.95184 0.0
H2634 H 0.71685 0.4381 0.95963 0.0
H2635 H 0.7329 0.44977 0.95042 0.0
C2636 C 0.78716 0.52258 0.96237 0.0
C2637 C 0.8077 0.53982 0.95651 0.0
C2638 C 0.75452 0.50669 0.96129 0.0
C2639 C 0.7419 0.50785 0.95437 0.0
C2640 C 0.7622 0.52622 0.94862 0.0
H2641 H 0.55274 0.37185 0.93974 0.0
H2642 H 0.60936 0.40942 0.94016 0.0
C2643 C 0.79489 0.54206 0.94968 0.0
C2644 C 0.7076 0.48852 0.95302 0.0
H2645 H 0.6478 0.41214 0.95185 0.0
C2646 C 0.68995 0.50362 0.95192 0.0
C2647 C 0.69241 0.45521 0.95284 0.0
C2648 C 0.7106 0.43793 0.95368 0.0
C2649 C 0.65713 0.4861 0.95082 0.0
C2650 C 0.64178 0.45274 0.95091 0.0
C2651 C 0.65964 0.43774 0.95183 0.0
C2652 C 0.60713 0.43268 0.95021 0.0
C2653 C 0.63919 0.50335 0.94954 0.0
C2654 C 0.5871 0.43356 0.95568 0.0
C2655 C 0.55468 0.4121 0.95547 0.0
C2656 C 0.54175 0.38921 0.94979 0.0
C2657 C 0.56184 0.38909 0.94419 0.0
C2658 C 0.59423 0.41054 0.94442 0.0
H2659 H 0.65504 0.52806 0.94769 0.0
H2660 H 0.62038 0.49105 0.9453 0.0
H2661 H 0.6278 0.50408 0.95483 0.0
H2662 H 0.59668 0.45008 0.96028 0.0
H2663 H 0.53994 0.41286 0.95988 0.0
H2664 H 0.38322 0.84127 0.80271 0.0
H2665 H 0.4122 0.81294 0.80127 0.0
H2666 H 0.44123 0.85183 0.77921 0.0
H2667 H 0.41303 0.88103 0.78068 0.0
H2668 H 0.39945 0.76778 0.79065 0.0
H2669 H 0.52358 0.86534 0.78832 0.0
H2670 H 0.49225 0.87128 0.79178 0.0
H2671 H 0.49682 0.86815 0.78193 0.0
C2672 C 0.39616 0.84423 0.79759 0.0
C2673 C 0.39554 0.86317 0.79177 0.0
C2674 C 0.41266 0.82795 0.79677 0.0
C2675 C 0.429 0.83042 0.79015 0.0
C2676 C 0.42917 0.84997 0.78441 0.0
H2677 H 0.47704 0.69053 0.77528 0.0
H2678 H 0.45652 0.72681 0.77633 0.0
C2679 C 0.41274 0.86639 0.78523 0.0
C2680 C 0.44383 0.8107 0.78909 0.0
H2681 H 0.5139 0.8136 0.78561 0.0
C2682 C 0.42449 0.7778 0.78957 0.0
C2683 C 0.47653 0.82388 0.78773 0.0
C2684 C 0.49861 0.85911 0.78748 0.0
C2685 C 0.43691 0.75764 0.78869 0.0
C2686 C 0.46945 0.77075 0.78714 0.0
C2687 C 0.4889 0.80367 0.78672 0.0
C2688 C 0.48376 0.75054 0.78615 0.0
C2689 C 0.41517 0.72251 0.78957 0.0
C2690 C 0.50674 0.7527 0.79116 0.0
C2691 C 0.51871 0.73214 0.79056 0.0
C2692 C 0.50791 0.70907 0.78492 0.0
C2693 C 0.48566 0.70777 0.77974 0.0
C2694 C 0.47381 0.72841 0.78034 0.0
H2695 H 0.39305 0.71702 0.79254 0.0
H2696 H 0.40862 0.71138 0.78398 0.0
H2697 H 0.42698 0.71165 0.79268 0.0
H2698 H 0.51481 0.76975 0.79566 0.0
H2699 H 0.53591 0.73392 0.79462 0.0
H2700 H 0.2917 0.77719 0.7723 0.0
H2701 H 0.25458 0.72053 0.77292 0.0
H2702 H 0.2151 0.73364 0.79318 0.0
H2703 H 0.25192 0.79047 0.7926 0.0
H2704 H 0.25344 0.68307 0.78471 0.0
H2705 H 0.1364 0.67381 0.78092 0.0
H2706 H 0.17297 0.7086 0.77833 0.0
H2707 H 0.1608 0.70162 0.78792 0.0
C2708 C 0.27482 0.76818 0.77683 0.0
C2709 C 0.27494 0.78843 0.78242 0.0
C2710 C 0.25361 0.73576 0.77717 0.0
C2711 C 0.23197 0.72296 0.78306 0.0
C2712 C 0.23125 0.74314 0.78852 0.0
H2713 H 0.14702 0.53368 0.80057 0.0
H2714 H 0.17379 0.59087 0.79876 0.0
C2715 C 0.25247 0.77561 0.78819 0.0
C2716 C 0.21235 0.6883 0.78386 0.0
H2717 H 0.1363 0.62743 0.78509 0.0
C2718 C 0.22783 0.67088 0.78475 0.0
C2719 C 0.17897 0.67252 0.78387 0.0
C2720 C 0.16122 0.69 0.78264 0.0
C2721 C 0.21082 0.63811 0.78578 0.0
C2722 C 0.17749 0.62246 0.78602 0.0
C2723 C 0.16191 0.63969 0.78498 0.0
C2724 C 0.15866 0.58809 0.78733 0.0
C2725 C 0.22861 0.6204 0.78657 0.0
C2726 C 0.14051 0.56777 0.78156 0.0
C2727 C 0.12519 0.53507 0.78257 0.0
C2728 C 0.12771 0.52226 0.78938 0.0
C2729 C 0.14474 0.54279 0.79525 0.0
C2730 C 0.16012 0.57544 0.79422 0.0
H2731 H 0.25356 0.63478 0.78472 0.0
H2732 H 0.22856 0.61405 0.79251 0.0
H2733 H 0.21705 0.59818 0.78328 0.0
H2734 H 0.13904 0.57721 0.77621 0.0
H2735 H 0.1119 0.51987 0.77797 0.0
H2736 H 0.46848 0.60713 0.80508 0.0
H2737 H 0.41087 0.57655 0.80439 0.0
H2738 H 0.41699 0.5413 0.78278 0.0
H2739 H 0.47455 0.57108 0.78352 0.0
H2740 H 0.37716 0.58673 0.79369 0.0
H2741 H 0.3487 0.4619 0.79296 0.0
H2742 H 0.38659 0.49366 0.796 0.0
H2743 H 0.3779 0.48631 0.78622 0.0
C2744 C 0.4576 0.59233 0.80025 0.0
C2745 C 0.47609 0.59184 0.79431 0.0
C2746 C 0.42467 0.57492 0.79986 0.0
C2747 C 0.40966 0.55652 0.79356 0.0
C2748 C 0.42806 0.55492 0.78775 0.0
H2749 H 0.22962 0.51117 0.77525 0.0
H2750 H 0.28519 0.53008 0.7779 0.0
C2751 C 0.46099 0.57228 0.78815 0.0
C2752 C 0.37502 0.54179 0.79269 0.0
H2753 H 0.30764 0.47204 0.7891 0.0
C2754 C 0.36192 0.5616 0.79276 0.0
C2755 C 0.35517 0.50899 0.79153 0.0
C2756 C 0.36772 0.48641 0.79174 0.0
C2757 C 0.32964 0.54965 0.7915 0.0
C2758 C 0.31004 0.5171 0.79 0.0
C2759 C 0.32287 0.49706 0.79016 0.0
C2760 C 0.27626 0.50372 0.78816 0.0
C2761 C 0.31676 0.57199 0.79177 0.0
C2762 C 0.25283 0.48179 0.79293 0.0
C2763 C 0.22094 0.4708 0.79142 0.0
C2764 C 0.21198 0.48148 0.7851 0.0
C2765 C 0.2356 0.50261 0.7802 0.0
C2766 C 0.26741 0.51355 0.78172 0.0
H2767 H 0.33284 0.59408 0.79482 0.0
H2768 H 0.3141 0.5785 0.786 0.0
H2769 H 0.29321 0.5607 0.79449 0.0
H2770 H 0.25926 0.47382 0.79791 0.0
H2771 H 0.20339 0.45443 0.7953 0.0
H2772 H 0.35122 0.80737 0.05508 0.0
H2773 H 0.38817 0.78749 0.05472 0.0
H2774 H 0.4322 0.84344 0.03512 0.0
H2775 H 0.39576 0.86387 0.03548 0.0
H2776 H 0.39409 0.75327 0.04336 0.0
H2777 H 0.50803 0.86317 0.04824 0.0
H2778 H 0.47034 0.86018 0.05013 0.0
H2779 H 0.48537 0.86633 0.04076 0.0
C2780 C 0.36899 0.81578 0.05074 0.0
C2781 C 0.3705 0.83726 0.04531 0.0
C2782 C 0.39008 0.80436 0.05054 0.0
C2783 C 0.41316 0.81431 0.04495 0.0
C2784 C 0.41501 0.83599 0.03958 0.0
H2785 H 0.50527 0.71481 0.02865 0.0
H2786 H 0.47508 0.74191 0.03025 0.0
C2787 C 0.39398 0.84748 0.03977 0.0
C2788 C 0.43386 0.80032 0.04444 0.0
H2789 H 0.51098 0.81856 0.04386 0.0
C2790 C 0.41964 0.76752 0.04352 0.0
C2791 C 0.46717 0.81894 0.04473 0.0
C2792 C 0.48367 0.85407 0.04609 0.0
C2793 C 0.43785 0.75287 0.0427 0.0
C2794 C 0.47115 0.77164 0.04267 0.0
C2795 C 0.48542 0.80434 0.04379 0.0
C2796 C 0.49143 0.75754 0.04149 0.0
C2797 C 0.42129 0.7174 0.04193 0.0
C2798 C 0.51157 0.75851 0.04717 0.0
C2799 C 0.52901 0.7432 0.04626 0.0
C2800 C 0.52663 0.72676 0.03964 0.0
C2801 C 0.50749 0.72708 0.03383 0.0
C2802 C 0.49007 0.74238 0.03475 0.0
H2803 H 0.39646 0.70599 0.04392 0.0
H2804 H 0.42094 0.71117 0.03597 0.0
H2805 H 0.43386 0.7075 0.0451 0.0
H2806 H 0.51312 0.77038 0.05239 0.0
H2807 H 0.54392 0.74381 0.05079 0.0
H2808 H 0.17611 0.55158 0.05529 0.0
H2809 H 0.19391 0.60777 0.05399 0.0
H2810 H 0.14006 0.58877 0.03371 0.0
H2811 H 0.12163 0.53253 0.03502 0.0
H2812 H 0.22882 0.64546 0.0426 0.0
H2813 H 0.11618 0.64632 0.04475 0.0
H2814 H 0.11985 0.61278 0.0475 0.0
H2815 H 0.1152 0.61932 0.03783 0.0
C2816 C 0.16772 0.55926 0.0506 0.0
C2817 C 0.14744 0.53749 0.04526 0.0
C2818 C 0.17791 0.59139 0.04987 0.0
C2819 C 0.16798 0.60238 0.04381 0.0
C2820 C 0.14743 0.58072 0.03853 0.0
H2821 H 0.26902 0.79079 0.0255 0.0
H2822 H 0.24098 0.73372 0.02751 0.0
C2823 C 0.1371 0.54857 0.03926 0.0
C2824 C 0.18105 0.63672 0.04271 0.0
H2825 H 0.16066 0.69343 0.04009 0.0
C2826 C 0.21392 0.65597 0.0421 0.0
C2827 C 0.16158 0.65042 0.04214 0.0
C2828 C 0.12626 0.6312 0.04316 0.0
C2829 C 0.22785 0.68846 0.04077 0.0
C2830 C 0.20831 0.70191 0.03987 0.0
C2831 C 0.17549 0.68288 0.04066 0.0
C2832 C 0.22182 0.73589 0.03822 0.0
C2833 C 0.26341 0.70818 0.04043 0.0
C2834 C 0.2189 0.75575 0.0434 0.0
C2835 C 0.23467 0.78837 0.04224 0.0
C2836 C 0.25362 0.80159 0.03589 0.0
C2837 C 0.25483 0.78139 0.03049 0.0
C2838 C 0.23901 0.74879 0.03164 0.0
H2839 H 0.27493 0.69597 0.04307 0.0
H2840 H 0.271 0.71275 0.03452 0.0
H2841 H 0.27195 0.73129 0.04324 0.0
H2842 H 0.20542 0.74614 0.04847 0.0
H2843 H 0.23273 0.80325 0.04643 0.0
H2844 H 0.45743 0.58431 0.03617 0.0
H2845 H 0.40118 0.54773 0.0341 0.0
H2846 H 0.37866 0.58109 0.05413 0.0
H2847 H 0.43469 0.61793 0.05624 0.0
H2848 H 0.35281 0.49906 0.04328 0.0
H2849 H 0.33104 0.598 0.03724 0.0
H2850 H 0.37019 0.60297 0.03744 0.0
H2851 H 0.3502 0.60109 0.04599 0.0
C2852 C 0.44058 0.58369 0.04019 0.0
C2853 C 0.4506 0.60437 0.04633 0.0
C2854 C 0.40846 0.56273 0.03899 0.0
C2855 C 0.38586 0.56217 0.04389 0.0
C2856 C 0.3958 0.58161 0.05021 0.0
H2857 H 0.18567 0.435 0.04804 0.0
H2858 H 0.2431 0.4621 0.04922 0.0
C2859 C 0.42786 0.60257 0.05142 0.0
C2860 C 0.35183 0.54241 0.04222 0.0
H2861 H 0.286 0.54698 0.03828 0.0
C2862 C 0.33815 0.50944 0.04216 0.0
C2863 C 0.33301 0.55615 0.04062 0.0
C2864 C 0.34683 0.5915 0.04025 0.0
C2865 C 0.30577 0.48975 0.04074 0.0
C2866 C 0.28673 0.5035 0.03943 0.0
C2867 C 0.30065 0.5365 0.03931 0.0
C2868 C 0.25214 0.48434 0.03838 0.0
C2869 C 0.29229 0.45446 0.04061 0.0
C2870 C 0.23816 0.48788 0.03189 0.0
C2871 C 0.20532 0.47271 0.03124 0.0
C2872 C 0.1859 0.45397 0.0371 0.0
C2873 C 0.19997 0.44954 0.04347 0.0
C2874 C 0.23281 0.46474 0.04412 0.0
H2875 H 0.31092 0.44819 0.03961 0.0
H2876 H 0.28124 0.44447 0.04608 0.0
H2877 H 0.27388 0.44322 0.03624 0.0
H2878 H 0.2527 0.50303 0.02741 0.0
H2879 H 0.19522 0.47659 0.02626 0.0
H2880 H 0.20062 0.64261 0.54895 0.0
H2881 H 0.22222 0.60838 0.54596 0.0
H2882 H 0.13391 0.54144 0.5357 0.0
H2883 H 0.11257 0.57615 0.53841 0.0
H2884 H 0.20607 0.5505 0.54997 0.0
H2885 H 0.19419 0.55288 0.51931 0.0
H2886 H 0.18829 0.5787 0.52544 0.0
H2887 H 0.15724 0.53853 0.52406 0.0
C2888 C 0.18576 0.62055 0.54608 0.0
C2889 C 0.15495 0.61216 0.54388 0.0
C2890 C 0.19816 0.60103 0.54436 0.0
C2891 C 0.17993 0.57264 0.54046 0.0
C2892 C 0.14876 0.56367 0.5385 0.0
H2893 H 0.23319 0.42712 0.53906 0.0
H2894 H 0.20522 0.45629 0.54107 0.0
C2895 C 0.1365 0.58342 0.54011 0.0
C2896 C 0.19355 0.55236 0.53856 0.0
H2897 H 0.20824 0.51616 0.52407 0.0
C2898 C 0.2066 0.54305 0.54431 0.0
C2899 C 0.1947 0.54306 0.53114 0.0
C2900 C 0.18316 0.55407 0.52463 0.0
C2901 C 0.22063 0.52462 0.54286 0.0
C2902 C 0.22062 0.51425 0.53549 0.0
C2903 C 0.20777 0.52371 0.52973 0.0
C2904 C 0.23499 0.49463 0.53363 0.0
C2905 C 0.23619 0.51733 0.54922 0.0
C2906 C 0.25969 0.50547 0.52842 0.0
C2907 C 0.27525 0.48847 0.52714 0.0
C2908 C 0.26648 0.46048 0.5311 0.0
C2909 C 0.24067 0.44883 0.53601 0.0
C2910 C 0.22486 0.4656 0.5372 0.0
H2911 H 0.24202 0.53421 0.55391 0.0
H2912 H 0.21977 0.4933 0.55137 0.0
H2913 H 0.25824 0.51808 0.54737 0.0
H2914 H 0.26774 0.5277 0.52555 0.0
H2915 H 0.29513 0.49807 0.52334 0.0
H2916 H 0.41546 0.52935 0.53953 0.0
H2917 H 0.45378 0.58591 0.53985 0.0
H2918 H 0.381 0.60449 0.54756 0.0
H2919 H 0.34307 0.54799 0.5476 0.0
H2920 H 0.45471 0.6299 0.53189 0.0
H2921 H 0.44995 0.66085 0.56122 0.0
H2922 H 0.43232 0.6204 0.55814 0.0
H2923 H 0.4111 0.64163 0.55728 0.0
C2924 C 0.40782 0.5455 0.54142 0.0
C2925 C 0.37633 0.53427 0.54357 0.0
C2926 C 0.42972 0.57781 0.5416 0.0
C2927 C 0.42048 0.59952 0.54385 0.0
C2928 C 0.38905 0.58825 0.54605 0.0
H2929 H 0.49435 0.78864 0.52832 0.0
H2930 H 0.46898 0.73167 0.5301 0.0
C2931 C 0.36729 0.55591 0.54601 0.0
C2932 C 0.44283 0.63398 0.54326 0.0
H2933 H 0.46894 0.70393 0.55238 0.0
C2934 C 0.45821 0.64602 0.53642 0.0
C2935 C 0.44804 0.6551 0.5492 0.0
C2936 C 0.43474 0.64374 0.55689 0.0
C2937 C 0.47742 0.67857 0.53526 0.0
C2938 C 0.48035 0.69978 0.54098 0.0
C2939 C 0.46625 0.68773 0.54794 0.0
C2940 C 0.49669 0.73442 0.53978 0.0
C2941 C 0.49438 0.68978 0.5279 0.0
C2942 C 0.52003 0.75507 0.54477 0.0
C2943 C 0.53407 0.78775 0.54387 0.0
C2944 C 0.52517 0.80031 0.53792 0.0
C2945 C 0.50204 0.77964 0.53289 0.0
C2946 C 0.48766 0.74703 0.53387 0.0
H2947 H 0.49919 0.6718 0.5254 0.0
H2948 H 0.47921 0.69364 0.52394 0.0
H2949 H 0.51713 0.71221 0.52851 0.0
H2950 H 0.52724 0.7459 0.5494 0.0
H2951 H 0.55183 0.80316 0.54783 0.0
H2952 H 0.45169 0.87008 0.53508 0.0
H2953 H 0.39527 0.8505 0.5336 0.0
H2954 H 0.37653 0.79839 0.55414 0.0
H2955 H 0.43287 0.81741 0.55564 0.0
H2956 H 0.34072 0.76198 0.5424 0.0
H2957 H 0.33474 0.87217 0.54429 0.0
H2958 H 0.36297 0.87384 0.53763 0.0
H2959 H 0.36865 0.8698 0.54738 0.0
C2960 C 0.43568 0.85483 0.53935 0.0
C2961 C 0.44686 0.84523 0.54547 0.0
C2962 C 0.40341 0.84381 0.53851 0.0
C2963 C 0.38177 0.82326 0.5438 0.0
C2964 C 0.3929 0.81434 0.55001 0.0
H2965 H 0.18129 0.74947 0.5482 0.0
H2966 H 0.2388 0.77973 0.5493 0.0
C2967 C 0.42513 0.82526 0.55085 0.0
C2968 C 0.34738 0.80897 0.54255 0.0
H2969 H 0.28831 0.82615 0.5401 0.0
C2970 C 0.32924 0.776 0.54192 0.0
C2971 C 0.3325 0.82734 0.54196 0.0
C2972 C 0.35062 0.86273 0.54292 0.0
C2973 C 0.29662 0.76086 0.54067 0.0
C2974 C 0.28186 0.77926 0.53988 0.0
C2975 C 0.29987 0.81221 0.54059 0.0
C2976 C 0.24742 0.76433 0.5387 0.0
C2977 C 0.27808 0.72523 0.54035 0.0
C2978 C 0.23334 0.74665 0.53224 0.0
C2979 C 0.20047 0.72921 0.53161 0.0
C2980 C 0.18124 0.72922 0.53743 0.0
C2981 C 0.19549 0.74858 0.54368 0.0
C2982 C 0.22832 0.76601 0.5443 0.0
H2983 H 0.29167 0.71453 0.54266 0.0
H2984 H 0.25558 0.71587 0.54349 0.0
H2985 H 0.27224 0.71757 0.53446 0.0
H2986 H 0.24778 0.7455 0.52781 0.0
H2987 H 0.19019 0.71464 0.52672 0.0
H2988 H 0.24497 0.43584 0.29176 0.0
H2989 H 0.20518 0.45142 0.29393 0.0
H2990 H 0.2643 0.53983 0.28267 0.0
H2991 H 0.30323 0.52373 0.28017 0.0
H2992 H 0.20647 0.49657 0.30159 0.0
H2993 H 0.18342 0.51456 0.27246 0.0
H2994 H 0.20608 0.49589 0.27481 0.0
H2995 H 0.22471 0.53836 0.27443 0.0
C2996 C 0.24927 0.45846 0.28969 0.0
C2997 C 0.27703 0.47844 0.28572 0.0
C2998 C 0.22654 0.46734 0.29093 0.0
C2999 C 0.23134 0.49649 0.28831 0.0
C3000 C 0.25943 0.51672 0.2845 0.0
H3001 H 0.15947 0.61041 0.30589 0.0
H3002 H 0.18478 0.57894 0.30378 0.0
C3003 C 0.28182 0.5076 0.28313 0.0
C3004 C 0.20786 0.50658 0.28985 0.0
H3005 H 0.16985 0.54144 0.28179 0.0
C3006 C 0.19804 0.50591 0.29724 0.0
C3007 C 0.19608 0.51797 0.28417 0.0
C3008 C 0.20286 0.51637 0.27602 0.0
C3009 C 0.17812 0.5178 0.29915 0.0
C3010 C 0.16883 0.53195 0.29356 0.0
C3011 C 0.17734 0.53113 0.28612 0.0
C3012 C 0.15171 0.54914 0.2953 0.0
C3013 C 0.16723 0.51489 0.30712 0.0
C3014 C 0.1251 0.54353 0.29112 0.0
C3015 C 0.11119 0.5622 0.29216 0.0
C3016 C 0.12333 0.58649 0.29749 0.0
C3017 C 0.14929 0.59147 0.30183 0.0
C3018 C 0.16364 0.5733 0.30067 0.0
H3019 H 0.16575 0.49374 0.30983 0.0
H3020 H 0.18464 0.53589 0.31031 0.0
H3021 H 0.14377 0.51319 0.30752 0.0
H3022 H 0.11552 0.52515 0.28692 0.0
H3023 H 0.09122 0.55794 0.28873 0.0
H3024 H 0.47677 0.76801 0.27154 0.0
H3025 H 0.45773 0.71171 0.27316 0.0
H3026 H 0.5238 0.7326 0.29112 0.0
H3027 H 0.54335 0.78904 0.28952 0.0
H3028 H 0.51858 0.68473 0.28105 0.0
H3029 H 0.40216 0.66332 0.29125 0.0
H3030 H 0.4138 0.68252 0.28234 0.0
H3031 H 0.43616 0.70241 0.29051 0.0
C3032 C 0.4875 0.76074 0.2758 0.0
C3033 C 0.51137 0.78309 0.28045 0.0
C3034 C 0.47649 0.72853 0.27672 0.0
C3035 C 0.48902 0.71807 0.28234 0.0
C3036 C 0.51375 0.74027 0.28678 0.0
H3037 H 0.39501 0.52971 0.30108 0.0
H3038 H 0.42461 0.58691 0.29929 0.0
C3039 C 0.52483 0.77251 0.28586 0.0
C3040 C 0.47532 0.68393 0.2838 0.0
H3041 H 0.4074 0.61831 0.28927 0.0
C3042 C 0.4943 0.67014 0.28286 0.0
C3043 C 0.4438 0.66518 0.28627 0.0
C3044 C 0.42281 0.67908 0.28772 0.0
C3045 C 0.48233 0.63782 0.2842 0.0
C3046 C 0.45052 0.61892 0.28647 0.0
C3047 C 0.43175 0.63287 0.28751 0.0
C3048 C 0.43588 0.58451 0.28773 0.0
C3049 C 0.5039 0.62428 0.28329 0.0
C3050 C 0.4328 0.56425 0.28185 0.0
C3051 C 0.41599 0.53154 0.28287 0.0
C3052 C 0.40167 0.51854 0.28976 0.0
C3053 C 0.40572 0.53895 0.29571 0.0
C3054 C 0.42256 0.57164 0.29469 0.0
H3055 H 0.52918 0.64297 0.2835 0.0
H3056 H 0.49942 0.60651 0.28768 0.0
H3057 H 0.49945 0.61242 0.27779 0.0
H3058 H 0.44246 0.57367 0.27641 0.0
H3059 H 0.41361 0.51648 0.2782 0.0
H3060 H 0.4693 0.83276 0.29948 0.0
H3061 H 0.41169 0.80378 0.29917 0.0
H3062 H 0.41308 0.8615 0.28082 0.0
H3063 H 0.47091 0.88954 0.28087 0.0
H3064 H 0.36747 0.81827 0.30101 0.0
H3065 H 0.36055 0.77598 0.27201 0.0
H3066 H 0.39729 0.79634 0.27704 0.0
H3067 H 0.3809 0.8182 0.27271 0.0
C3068 C 0.45733 0.83942 0.29541 0.0
C3069 C 0.47453 0.86318 0.29015 0.0
C3070 C 0.42439 0.82283 0.29524 0.0
C3071 C 0.40801 0.82994 0.28986 0.0
C3072 C 0.42518 0.85488 0.28486 0.0
H3073 H 0.20157 0.74222 0.29344 0.0
H3074 H 0.2582 0.78063 0.29353 0.0
C3075 C 0.45819 0.87107 0.28493 0.0
C3076 C 0.37307 0.81057 0.28943 0.0
H3077 H 0.3123 0.76358 0.27779 0.0
C3078 C 0.35538 0.80631 0.29593 0.0
C3079 C 0.35735 0.79461 0.28282 0.0
C3080 C 0.375 0.79621 0.27577 0.0
C3081 C 0.32252 0.78614 0.29605 0.0
C3082 C 0.30672 0.77078 0.2894 0.0
C3083 C 0.32437 0.77553 0.28287 0.0
C3084 C 0.27222 0.74815 0.28916 0.0
C3085 C 0.3054 0.7805 0.30339 0.0
C3086 C 0.26111 0.71753 0.28638 0.0
C3087 C 0.22879 0.6959 0.28612 0.0
C3088 C 0.20691 0.70431 0.28873 0.0
C3089 C 0.21796 0.735 0.29148 0.0
C3090 C 0.25032 0.75689 0.29158 0.0
H3091 H 0.32174 0.78649 0.3082 0.0
H3092 H 0.29461 0.79575 0.30372 0.0
H3093 H 0.28638 0.75551 0.30396 0.0
H3094 H 0.2775 0.71022 0.28447 0.0
H3095 H 0.22098 0.67238 0.28401 0.0
loop_
_geom_bond_atom_site_label_1
_geom_bond_atom_site_label_2
_geom_bond_distance
_geom_bond_site_symmetry_2
_ccdc_geom_bond_type
Mg0 O1 2.028 . S
Mg0 O7 1.986 . S
Mg0 O9 2.114 . S
Mg0 O10 2.251 . S
Mg0 O13 2.010 . S
O1 Mg0 2.028 . S
O1 C4 1.250 . S
O2 Mg3 2.028 . S
O2 C4 1.248 . S
Mg3 O2 2.028 . S
Mg3 O8 2.032 . S
Mg3 O10 2.079 . S
C4 O1 1.250 . S
C4 O2 1.248 . S
C5 O6 1.264 . S
C5 O13 1.249 . S
O6 C5 1.264 . S
O7 Mg0 1.986 . S
O7 C11 1.246 . S
O8 Mg3 2.032 . S
O8 C11 1.259 . S
O9 Mg0 2.114 . S
O9 C12 1.252 . S
O10 Mg0 2.251 . S
O10 Mg3 2.079 . S
O10 C12 1.273 . S
C11 O7 1.246 . S
C11 O8 1.259 . S
C12 O9 1.252 . S
C12 O10 1.273 . S
O13 Mg0 2.010 . S
O13 C5 1.249 . S
Mg14 O15 2.028 . S
Mg14 O21 1.986 . S
Mg14 O23 2.114 . S
Mg14 O24 2.251 . S
Mg14 O27 2.010 . S
O15 Mg14 2.028 . S
O15 C18 1.250 . S
O16 Mg17 2.028 . S
O16 C18 1.248 . S
Mg17 O16 2.028 . S
Mg17 O22 2.032 . S
Mg17 O24 2.079 . S
C18 O15 1.250 . S
C18 O16 1.248 . S
C19 O20 1.264 . S
C19 O27 1.249 . S
O20 C19 1.264 . S
O21 Mg14 1.986 . S
O21 C25 1.246 . S
O22 Mg17 2.032 . S
O22 C25 1.259 . S
O23 Mg14 2.114 . S
O23 C26 1.252 . S
O24 Mg14 2.251 . S
O24 Mg17 2.079 . S
O24 C26 1.273 . S
C25 O21 1.246 . S
C25 O22 1.259 . S
C26 O23 1.252 . S
C26 O24 1.273 . S
O27 Mg14 2.010 . S
O27 C19 1.249 . S
Mg28 O29 2.028 . S
Mg28 O35 1.986 . S
Mg28 O37 2.114 . S
Mg28 O38 2.251 . S
Mg28 O41 2.010 . S
O29 Mg28 2.028 . S
O29 C32 1.250 . S
O30 Mg31 2.028 . S
O30 C32 1.248 . S
Mg31 O30 2.028 . S
Mg31 O36 2.032 . S
Mg31 O38 2.079 . S
C32 O29 1.250 . S
C32 O30 1.248 . S
C33 O34 1.264 . S
C33 O41 1.249 . S
O34 C33 1.264 . S
O35 Mg28 1.986 . S
O35 C39 1.246 . S
O36 Mg31 2.032 . S
O36 C39 1.259 . S
O37 Mg28 2.114 . S
O37 C40 1.252 . S
O38 Mg28 2.251 . S
O38 Mg31 2.079 . S
O38 C40 1.273 . S
C39 O35 1.246 . S
C39 O36 1.259 . S
C40 O37 1.252 . S
C40 O38 1.273 . S
O41 Mg28 2.010 . S
O41 C33 1.249 . S
Mg42 O43 2.028 . S
Mg42 O49 1.986 . S
Mg42 O51 2.114 . S
Mg42 O52 2.251 . S
Mg42 O55 2.010 . S
O43 Mg42 2.028 . S
O43 C46 1.250 . S
O44 Mg45 2.028 . S
O44 C46 1.248 . S
Mg45 O44 2.028 . S
Mg45 O50 2.032 . S
Mg45 O52 2.079 . S
C46 O43 1.250 . S
C46 O44 1.248 . S
C47 O48 1.264 . S
C47 O55 1.249 . S
O48 C47 1.264 . S
O49 Mg42 1.986 . S
O49 C53 1.246 . S
O50 Mg45 2.032 . S
O50 C53 1.259 . S
O51 Mg42 2.114 . S
O51 C54 1.252 . S
O52 Mg42 2.251 . S
O52 Mg45 2.079 . S
O52 C54 1.273 . S
C53 O49 1.246 . S
C53 O50 1.259 . S
C54 O51 1.252 . S
C54 O52 1.273 . S
O55 Mg42 2.010 . S
O55 C47 1.249 . S
Mg56 O57 2.028 . S
Mg56 O63 1.986 . S
Mg56 O65 2.114 . S
Mg56 O66 2.251 . S
Mg56 O69 2.010 . S
O57 Mg56 2.028 . S
O57 C60 1.250 . S
O58 Mg59 2.028 . S
O58 C60 1.248 . S
Mg59 O58 2.028 . S
Mg59 O64 2.032 . S
Mg59 O66 2.079 . S
C60 O57 1.250 . S
C60 O58 1.248 . S
C61 O62 1.264 . S
C61 O69 1.249 . S
O62 C61 1.264 . S
O63 Mg56 1.986 . S
O63 C67 1.246 . S
O64 Mg59 2.032 . S
O64 C67 1.259 . S
O65 Mg56 2.114 . S
O65 C68 1.252 . S
O66 Mg56 2.251 . S
O66 Mg59 2.079 . S
O66 C68 1.273 . S
C67 O63 1.246 . S
C67 O64 1.259 . S
C68 O65 1.252 . S
C68 O66 1.273 . S
O69 Mg56 2.010 . S
O69 C61 1.249 . S
Mg70 O71 2.028 . S
Mg70 O77 1.986 . S
Mg70 O79 2.114 . S
Mg70 O80 2.251 . S
Mg70 O83 2.010 . S
O71 Mg70 2.028 . S
O71 C74 1.250 . S
O72 Mg73 2.028 . S
O72 C74 1.248 . S
Mg73 O72 2.028 . S
Mg73 O78 2.032 . S
Mg73 O80 2.079 . S
C74 O71 1.250 . S
C74 O72 1.248 . S
C75 O76 1.264 . S
C75 O83 1.249 . S
O76 C75 1.264 . S
O77 Mg70 1.986 . S
O77 C81 1.246 . S
O78 Mg73 2.032 . S
O78 C81 1.259 . S
O79 Mg70 2.114 . S
O79 C82 1.252 . S
O80 Mg70 2.251 . S
O80 Mg73 2.079 . S
O80 C82 1.273 . S
C81 O77 1.246 . S
C81 O78 1.259 . S
C82 O79 1.252 . S
C82 O80 1.273 . S
O83 Mg70 2.010 . S
O83 C75 1.249 . S
Mg84 O85 2.028 . S
Mg84 O91 1.986 . S
Mg84 O93 2.114 . S
Mg84 O94 2.251 . S
Mg84 O97 2.010 . S
O85 Mg84 2.028 . S
O85 C88 1.250 . S
O86 Mg87 2.028 . S
O86 C88 1.248 . S
Mg87 O86 2.028 . S
Mg87 O92 2.032 . S
Mg87 O94 2.079 . S
C88 O85 1.250 . S
C88 O86 1.248 . S
C89 O90 1.264 . S
C89 O97 1.249 . S
O90 C89 1.264 . S
O91 Mg84 1.986 . S
O91 C95 1.246 . S
O92 Mg87 2.032 . S
O92 C95 1.259 . S
O93 Mg84 2.114 . S
O93 C96 1.252 . S
O94 Mg84 2.251 . S
O94 Mg87 2.079 . S
O94 C96 1.273 . S
C95 O91 1.246 . S
C95 O92 1.259 . S
C96 O93 1.252 . S
C96 O94 1.273 . S
O97 Mg84 2.010 . S
O97 C89 1.249 . S
Mg98 O99 2.028 . S
Mg98 O105 1.986 . S
Mg98 O107 2.114 . S
Mg98 O108 2.251 . S
Mg98 O111 2.010 . S
O99 Mg98 2.028 . S
O99 C102 1.250 . S
O100 Mg101 2.028 . S
O100 C102 1.248 . S
Mg101 O100 2.028 . S
Mg101 O106 2.032 . S
Mg101 O108 2.079 . S
C102 O99 1.250 . S
C102 O100 1.248 . S
C103 O104 1.264 . S
C103 O111 1.249 . S
O104 C103 1.264 . S
O105 Mg98 1.986 . S
O105 C109 1.246 . S
O106 Mg101 2.032 . S
O106 C109 1.259 . S
O107 Mg98 2.114 . S
O107 C110 1.252 . S
O108 Mg98 2.251 . S
O108 Mg101 2.079 . S
O108 C110 1.273 . S
C109 O105 1.246 . S
C109 O106 1.259 . S
C110 O107 1.252 . S
C110 O108 1.273 . S
O111 Mg98 2.010 . S
O111 C103 1.249 . S
Mg112 O113 2.028 . S
Mg112 O119 1.986 . S
Mg112 O121 2.114 . S
Mg112 O122 2.251 . S
Mg112 O125 2.010 . S
O113 Mg112 2.028 . S
O113 C116 1.250 . S
O114 Mg115 2.028 . S
O114 C116 1.248 . S
Mg115 O114 2.028 . S
Mg115 O120 2.032 . S
Mg115 O122 2.079 . S
C116 O113 1.250 . S
C116 O114 1.248 . S
C117 O118 1.264 . S
C117 O125 1.249 . S
O118 C117 1.264 . S
O119 Mg112 1.986 . S
O119 C123 1.246 . S
O120 Mg115 2.032 . S
O120 C123 1.259 . S
O121 Mg112 2.114 . S
O121 C124 1.252 . S
O122 Mg112 2.251 . S
O122 Mg115 2.079 . S
O122 C124 1.273 . S
C123 O119 1.246 . S
C123 O120 1.259 . S
C124 O121 1.252 . S
C124 O122 1.273 . S
O125 Mg112 2.010 . S
O125 C117 1.249 . S
Mg126 O127 2.028 . S
Mg126 O133 1.986 . S
Mg126 O135 2.114 . S
Mg126 O136 2.251 . S
Mg126 O139 2.010 . S
O127 Mg126 2.028 . S
O127 C130 1.250 . S
O128 Mg129 2.028 . S
O128 C130 1.248 . S
Mg129 O128 2.028 . S
Mg129 O134 2.032 . S
Mg129 O136 2.079 . S
C130 O127 1.250 . S
C130 O128 1.248 . S
C131 O132 1.264 . S
C131 O139 1.249 . S
O132 C131 1.264 . S
O133 Mg126 1.986 . S
O133 C137 1.246 . S
O134 Mg129 2.032 . S
O134 C137 1.259 . S
O135 Mg126 2.114 . S
O135 C138 1.252 . S
O136 Mg126 2.251 . S
O136 Mg129 2.079 . S
O136 C138 1.273 . S
C137 O133 1.246 . S
C137 O134 1.259 . S
C138 O135 1.252 . S
C138 O136 1.273 . S
O139 Mg126 2.010 . S
O139 C131 1.249 . S
Mg140 O141 2.028 . S
Mg140 O147 1.986 . S
Mg140 O149 2.114 . S
Mg140 O150 2.251 . S
Mg140 O153 2.010 . S
O141 Mg140 2.028 . S
O141 C144 1.250 . S
O142 Mg143 2.028 . S
O142 C144 1.248 . S
Mg143 O142 2.028 . S
Mg143 O148 2.032 . S
Mg143 O150 2.079 . S
C144 O141 1.250 . S
C144 O142 1.248 . S
C145 O146 1.264 . S
C145 O153 1.249 . S
O146 C145 1.264 . S
O147 Mg140 1.986 . S
O147 C151 1.246 . S
O148 Mg143 2.032 . S
O148 C151 1.259 . S
O149 Mg140 2.114 . S
O149 C152 1.252 . S
O150 Mg140 2.251 . S
O150 Mg143 2.079 . S
O150 C152 1.273 . S
C151 O147 1.246 . S
C151 O148 1.259 . S
C152 O149 1.252 . S
C152 O150 1.273 . S
O153 Mg140 2.010 . S
O153 C145 1.249 . S
Mg154 O155 2.028 . S
Mg154 O161 1.986 . S
Mg154 O163 2.114 . S
Mg154 O164 2.251 . S
Mg154 O167 2.010 . S
O155 Mg154 2.028 . S
O155 C158 1.250 . S
O156 Mg157 2.028 . S
O156 C158 1.248 . S
Mg157 O156 2.028 . S
Mg157 O162 2.032 . S
Mg157 O164 2.079 . S
C158 O155 1.250 . S
C158 O156 1.248 . S
C159 O160 1.264 . S
C159 O167 1.249 . S
O160 C159 1.264 . S
O161 Mg154 1.986 . S
O161 C165 1.246 . S
O162 Mg157 2.032 . S
O162 C165 1.259 . S
O163 Mg154 2.114 . S
O163 C166 1.252 . S
O164 Mg154 2.251 . S
O164 Mg157 2.079 . S
O164 C166 1.273 . S
C165 O161 1.246 . S
C165 O162 1.259 . S
C166 O163 1.252 . S
C166 O164 1.273 . S
O167 Mg154 2.010 . S
O167 C159 1.249 . S
Mg168 O169 2.028 . S
Mg168 O175 1.986 . S
Mg168 O177 2.114 . S
Mg168 O178 2.251 . S
Mg168 O181 2.010 . S
O169 Mg168 2.028 . S
O169 C172 1.250 . S
O170 Mg171 2.028 . S
O170 C172 1.248 . S
Mg171 O170 2.028 . S
Mg171 O176 2.032 . S
Mg171 O178 2.079 . S
C172 O169 1.250 . S
C172 O170 1.248 . S
C173 O174 1.264 . S
C173 O181 1.249 . S
O174 C173 1.264 . S
O175 Mg168 1.986 . S
O175 C179 1.246 . S
O176 Mg171 2.032 . S
O176 C179 1.259 . S
O177 Mg168 2.114 . S
O177 C180 1.252 . S
O178 Mg168 2.251 . S
O178 Mg171 2.079 . S
O178 C180 1.273 . S
C179 O175 1.246 . S
C179 O176 1.259 . S
C180 O177 1.252 . S
C180 O178 1.273 . S
O181 Mg168 2.010 . S
O181 C173 1.249 . S
Mg182 O183 2.028 . S
Mg182 O189 1.986 . S
Mg182 O191 2.114 . S
Mg182 O192 2.251 . S
Mg182 O195 2.010 . S
O183 Mg182 2.028 . S
O183 C186 1.250 . S
O184 Mg185 2.028 . S
O184 C186 1.248 . S
Mg185 O184 2.028 . S
Mg185 O190 2.032 . S
Mg185 O192 2.079 . S
C186 O183 1.250 . S
C186 O184 1.248 . S
C187 O188 1.264 . S
C187 O195 1.249 . S
O188 C187 1.264 . S
O189 Mg182 1.986 . S
O189 C193 1.246 . S
O190 Mg185 2.032 . S
O190 C193 1.259 . S
O191 Mg182 2.114 . S
O191 C194 1.252 . S
O192 Mg182 2.251 . S
O192 Mg185 2.079 . S
O192 C194 1.273 . S
C193 O189 1.246 . S
C193 O190 1.259 . S
C194 O191 1.252 . S
C194 O192 1.273 . S
O195 Mg182 2.010 . S
O195 C187 1.249 . S
Mg196 O197 2.028 . S
Mg196 O203 1.986 . S
Mg196 O205 2.114 . S
Mg196 O206 2.251 . S
Mg196 O209 2.010 . S
O197 Mg196 2.028 . S
O197 C200 1.250 . S
O198 Mg199 2.028 . S
O198 C200 1.248 . S
Mg199 O198 2.028 . S
Mg199 O204 2.032 . S
Mg199 O206 2.079 . S
C200 O197 1.250 . S
C200 O198 1.248 . S
C201 O202 1.264 . S
C201 O209 1.249 . S
O202 C201 1.264 . S
O203 Mg196 1.986 . S
O203 C207 1.246 . S
O204 Mg199 2.032 . S
O204 C207 1.259 . S
O205 Mg196 2.114 . S
O205 C208 1.252 . S
O206 Mg196 2.251 . S
O206 Mg199 2.079 . S
O206 C208 1.273 . S
C207 O203 1.246 . S
C207 O204 1.259 . S
C208 O205 1.252 . S
C208 O206 1.273 . S
O209 Mg196 2.010 . S
O209 C201 1.249 . S
Mg210 O211 2.028 . S
Mg210 O217 1.986 . S
Mg210 O219 2.114 . S
Mg210 O220 2.251 . S
Mg210 O223 2.010 . S
O211 Mg210 2.028 . S
O211 C214 1.250 . S
O212 Mg213 2.028 . S
O212 C214 1.248 . S
Mg213 O212 2.028 . S
Mg213 O218 2.032 . S
Mg213 O220 2.079 . S
C214 O211 1.250 . S
C214 O212 1.248 . S
C215 O216 1.264 . S
C215 O223 1.249 . S
O216 C215 1.264 . S
O217 Mg210 1.986 . S
O217 C221 1.246 . S
O218 Mg213 2.032 . S
O218 C221 1.259 . S
O219 Mg210 2.114 . S
O219 C222 1.252 . S
O220 Mg210 2.251 . S
O220 Mg213 2.079 . S
O220 C222 1.273 . S
C221 O217 1.246 . S
C221 O218 1.259 . S
C222 O219 1.252 . S
C222 O220 1.273 . S
O223 Mg210 2.010 . S
O223 C215 1.249 . S
Mg224 O225 2.028 . S
Mg224 O231 1.986 . S
Mg224 O233 2.114 . S
Mg224 O234 2.251 . S
Mg224 O237 2.010 . S
O225 Mg224 2.028 . S
O225 C228 1.250 . S
O226 Mg227 2.028 . S
O226 C228 1.248 . S
Mg227 O226 2.028 . S
Mg227 O232 2.032 . S
Mg227 O234 2.079 . S
C228 O225 1.250 . S
C228 O226 1.248 . S
C229 O230 1.264 . S
C229 O237 1.249 . S
O230 C229 1.264 . S
O231 Mg224 1.986 . S
O231 C235 1.246 . S
O232 Mg227 2.032 . S
O232 C235 1.259 . S
O233 Mg224 2.114 . S
O233 C236 1.252 . S
O234 Mg224 2.251 . S
O234 Mg227 2.079 . S
O234 C236 1.273 . S
C235 O231 1.246 . S
C235 O232 1.259 . S
C236 O233 1.252 . S
C236 O234 1.273 . S
O237 Mg224 2.010 . S
O237 C229 1.249 . S
Mg238 O239 2.028 . S
Mg238 O245 1.986 . S
Mg238 O247 2.114 . S
Mg238 O248 2.251 . S
Mg238 O251 2.010 . S
O239 Mg238 2.028 . S
O239 C242 1.250 . S
O240 Mg241 2.028 . S
O240 C242 1.248 . S
Mg241 O240 2.028 . S
Mg241 O246 2.032 . S
Mg241 O248 2.079 . S
C242 O239 1.250 . S
C242 O240 1.248 . S
C243 O244 1.264 . S
C243 O251 1.249 . S
O244 C243 1.264 . S
O245 Mg238 1.986 . S
O245 C249 1.246 . S
O246 Mg241 2.032 . S
O246 C249 1.259 . S
O247 Mg238 2.114 . S
O247 C250 1.252 . S
O248 Mg238 2.251 . S
O248 Mg241 2.079 . S
O248 C250 1.273 . S
C249 O245 1.246 . S
C249 O246 1.259 . S
C250 O247 1.252 . S
C250 O248 1.273 . S
O251 Mg238 2.010 . S
O251 C243 1.249 . S
Mg252 O253 2.028 . S
Mg252 O259 1.986 . S
Mg252 O261 2.114 . S
Mg252 O262 2.251 . S
Mg252 O265 2.010 . S
O253 Mg252 2.028 . S
O253 C256 1.250 . S
O254 Mg255 2.028 . S
O254 C256 1.248 . S
Mg255 O254 2.028 . S
Mg255 O260 2.032 . S
Mg255 O262 2.079 . S
C256 O253 1.250 . S
C256 O254 1.248 . S
C257 O258 1.264 . S
C257 O265 1.249 . S
O258 C257 1.264 . S
O259 Mg252 1.986 . S
O259 C263 1.246 . S
O260 Mg255 2.032 . S
O260 C263 1.259 . S
O261 Mg252 2.114 . S
O261 C264 1.252 . S
O262 Mg252 2.251 . S
O262 Mg255 2.079 . S
O262 C264 1.273 . S
C263 O259 1.246 . S
C263 O260 1.259 . S
C264 O261 1.252 . S
C264 O262 1.273 . S
O265 Mg252 2.010 . S
O265 C257 1.249 . S
Mg266 O267 2.028 . S
Mg266 O273 1.986 . S
Mg266 O275 2.114 . S
Mg266 O276 2.251 . S
Mg266 O279 2.010 . S
O267 Mg266 2.028 . S
O267 C270 1.250 . S
O268 Mg269 2.028 . S
O268 C270 1.248 . S
Mg269 O268 2.028 . S
Mg269 O274 2.032 . S
Mg269 O276 2.079 . S
C270 O267 1.250 . S
C270 O268 1.248 . S
C271 O272 1.264 . S
C271 O279 1.249 . S
O272 C271 1.264 . S
O273 Mg266 1.986 . S
O273 C277 1.246 . S
O274 Mg269 2.032 . S
O274 C277 1.259 . S
O275 Mg266 2.114 . S
O275 C278 1.252 . S
O276 Mg266 2.251 . S
O276 Mg269 2.079 . S
O276 C278 1.273 . S
C277 O273 1.246 . S
C277 O274 1.259 . S
C278 O275 1.252 . S
C278 O276 1.273 . S
O279 Mg266 2.010 . S
O279 C271 1.249 . S
Mg280 O281 2.028 . S
Mg280 O287 1.986 . S
Mg280 O289 2.114 . S
Mg280 O290 2.251 . S
Mg280 O293 2.010 . S
O281 Mg280 2.028 . S
O281 C284 1.250 . S
O282 Mg283 2.028 . S
O282 C284 1.248 . S
Mg283 O282 2.028 . S
Mg283 O288 2.032 . S
Mg283 O290 2.079 . S
C284 O281 1.250 . S
C284 O282 1.248 . S
C285 O286 1.264 . S
C285 O293 1.249 . S
O286 C285 1.264 . S
O287 Mg280 1.986 . S
O287 C291 1.246 . S
O288 Mg283 2.032 . S
O288 C291 1.259 . S
O289 Mg280 2.114 . S
O289 C292 1.252 . S
O290 Mg280 2.251 . S
O290 Mg283 2.079 . S
O290 C292 1.273 . S
C291 O287 1.246 . S
C291 O288 1.259 . S
C292 O289 1.252 . S
C292 O290 1.273 . S
O293 Mg280 2.010 . S
O293 C285 1.249 . S
Mg294 O295 2.028 . S
Mg294 O301 1.986 . S
Mg294 O303 2.114 . S
Mg294 O304 2.251 . S
Mg294 O307 2.010 . S
O295 Mg294 2.028 . S
O295 C298 1.250 . S
O296 Mg297 2.028 . S
O296 C298 1.248 . S
Mg297 O296 2.028 . S
Mg297 O302 2.032 . S
Mg297 O304 2.079 . S
C298 O295 1.250 . S
C298 O296 1.248 . S
C299 O300 1.264 . S
C299 O307 1.249 . S
O300 C299 1.264 . S
O301 Mg294 1.986 . S
O301 C305 1.246 . S
O302 Mg297 2.032 . S
O302 C305 1.259 . S
O303 Mg294 2.114 . S
O303 C306 1.252 . S
O304 Mg294 2.251 . S
O304 Mg297 2.079 . S
O304 C306 1.273 . S
C305 O301 1.246 . S
C305 O302 1.259 . S
C306 O303 1.252 . S
C306 O304 1.273 . S
O307 Mg294 2.010 . S
O307 C299 1.249 . S
Mg308 O309 2.028 . S
Mg308 O315 1.986 . S
Mg308 O317 2.114 . S
Mg308 O318 2.251 . S
Mg308 O321 2.010 . S
O309 Mg308 2.028 . S
O309 C312 1.250 . S
O310 Mg311 2.028 . S
O310 C312 1.248 . S
Mg311 O310 2.028 . S
Mg311 O316 2.032 . S
Mg311 O318 2.079 . S
C312 O309 1.250 . S
C312 O310 1.248 . S
C313 O314 1.264 . S
C313 O321 1.249 . S
O314 C313 1.264 . S
O315 Mg308 1.986 . S
O315 C319 1.246 . S
O316 Mg311 2.032 . S
O316 C319 1.259 . S
O317 Mg308 2.114 . S
O317 C320 1.252 . S
O318 Mg308 2.251 . S
O318 Mg311 2.079 . S
O318 C320 1.273 . S
C319 O315 1.246 . S
C319 O316 1.259 . S
C320 O317 1.252 . S
C320 O318 1.273 . S
O321 Mg308 2.010 . S
O321 C313 1.249 . S
Mg322 O323 2.028 . S
Mg322 O329 1.986 . S
Mg322 O331 2.114 . S
Mg322 O332 2.251 . S
Mg322 O335 2.010 . S
O323 Mg322 2.028 . S
O323 C326 1.250 . S
O324 Mg325 2.028 . S
O324 C326 1.248 . S
Mg325 O324 2.028 . S
Mg325 O330 2.032 . S
Mg325 O332 2.079 . S
C326 O323 1.250 . S
C326 O324 1.248 . S
C327 O328 1.264 . S
C327 O335 1.249 . S
O328 C327 1.264 . S
O329 Mg322 1.986 . S
O329 C333 1.246 . S
O330 Mg325 2.032 . S
O330 C333 1.259 . S
O331 Mg322 2.114 . S
O331 C334 1.252 . S
O332 Mg322 2.251 . S
O332 Mg325 2.079 . S
O332 C334 1.273 . S
C333 O329 1.246 . S
C333 O330 1.259 . S
C334 O331 1.252 . S
C334 O332 1.273 . S
O335 Mg322 2.010 . S
O335 C327 1.249 . S
Mg336 O337 2.028 . S
Mg336 O343 1.986 . S
Mg336 O345 2.114 . S
Mg336 O346 2.251 . S
Mg336 O349 2.010 . S
O337 Mg336 2.028 . S
O337 C340 1.250 . S
O338 Mg339 2.028 . S
O338 C340 1.248 . S
Mg339 O338 2.028 . S
Mg339 O344 2.032 . S
Mg339 O346 2.079 . S
C340 O337 1.250 . S
C340 O338 1.248 . S
C341 O342 1.264 . S
C341 O349 1.249 . S
O342 C341 1.264 . S
O343 Mg336 1.986 . S
O343 C347 1.246 . S
O344 Mg339 2.032 . S
O344 C347 1.259 . S
O345 Mg336 2.114 . S
O345 C348 1.252 . S
O346 Mg336 2.251 . S
O346 Mg339 2.079 . S
O346 C348 1.273 . S
C347 O343 1.246 . S
C347 O344 1.259 . S
C348 O345 1.252 . S
C348 O346 1.273 . S
O349 Mg336 2.010 . S
O349 C341 1.249 . S
Mg350 O351 2.028 . S
Mg350 O357 1.986 . S
Mg350 O359 2.114 . S
Mg350 O360 2.251 . S
Mg350 O363 2.010 . S
O351 Mg350 2.028 . S
O351 C354 1.250 . S
O352 Mg353 2.028 . S
O352 C354 1.248 . S
Mg353 O352 2.028 . S
Mg353 O358 2.032 . S
Mg353 O360 2.079 . S
C354 O351 1.250 . S
C354 O352 1.248 . S
C355 O356 1.264 . S
C355 O363 1.249 . S
O356 C355 1.264 . S
O357 Mg350 1.986 . S
O357 C361 1.246 . S
O358 Mg353 2.032 . S
O358 C361 1.259 . S
O359 Mg350 2.114 . S
O359 C362 1.252 . S
O360 Mg350 2.251 . S
O360 Mg353 2.079 . S
O360 C362 1.273 . S
C361 O357 1.246 . S
C361 O358 1.259 . S
C362 O359 1.252 . S
C362 O360 1.273 . S
O363 Mg350 2.010 . S
O363 C355 1.249 . S
Mg364 O365 2.028 . S
Mg364 O371 1.986 . S
Mg364 O373 2.114 . S
Mg364 O374 2.251 . S
Mg364 O377 2.010 . S
O365 Mg364 2.028 . S
O365 C368 1.250 . S
O366 Mg367 2.028 . S
O366 C368 1.248 . S
Mg367 O366 2.028 . S
Mg367 O372 2.032 . S
Mg367 O374 2.079 . S
C368 O365 1.250 . S
C368 O366 1.248 . S
C369 O370 1.264 . S
C369 O377 1.249 . S
O370 C369 1.264 . S
O371 Mg364 1.986 . S
O371 C375 1.246 . S
O372 Mg367 2.032 . S
O372 C375 1.259 . S
O373 Mg364 2.114 . S
O373 C376 1.252 . S
O374 Mg364 2.251 . S
O374 Mg367 2.079 . S
O374 C376 1.273 . S
C375 O371 1.246 . S
C375 O372 1.259 . S
C376 O373 1.252 . S
C376 O374 1.273 . S
O377 Mg364 2.010 . S
O377 C369 1.249 . S
Mg378 O379 2.028 . S
Mg378 O385 1.986 . S
Mg378 O387 2.114 . S
Mg378 O388 2.251 . S
Mg378 O391 2.010 . S
O379 Mg378 2.028 . S
O379 C382 1.250 . S
O380 Mg381 2.028 . S
O380 C382 1.248 . S
Mg381 O380 2.028 . S
Mg381 O386 2.032 . S
Mg381 O388 2.079 . S
C382 O379 1.250 . S
C382 O380 1.248 . S
C383 O384 1.264 . S
C383 O391 1.249 . S
O384 C383 1.264 . S
O385 Mg378 1.986 . S
O385 C389 1.246 . S
O386 Mg381 2.032 . S
O386 C389 1.259 . S
O387 Mg378 2.114 . S
O387 C390 1.252 . S
O388 Mg378 2.251 . S
O388 Mg381 2.079 . S
O388 C390 1.273 . S
C389 O385 1.246 . S
C389 O386 1.259 . S
C390 O387 1.252 . S
C390 O388 1.273 . S
O391 Mg378 2.010 . S
O391 C383 1.249 . S
Mg392 O393 2.028 . S
Mg392 O399 1.986 . S
Mg392 O401 2.114 . S
Mg392 O402 2.251 . S
Mg392 O405 2.010 . S
O393 Mg392 2.028 . S
O393 C396 1.250 . S
O394 Mg395 2.028 . S
O394 C396 1.248 . S
Mg395 O394 2.028 . S
Mg395 O400 2.032 . S
Mg395 O402 2.079 . S
C396 O393 1.250 . S
C396 O394 1.248 . S
C397 O398 1.264 . S
C397 O405 1.249 . S
O398 C397 1.264 . S
O399 Mg392 1.986 . S
O399 C403 1.246 . S
O400 Mg395 2.032 . S
O400 C403 1.259 . S
O401 Mg392 2.114 . S
O401 C404 1.252 . S
O402 Mg392 2.251 . S
O402 Mg395 2.079 . S
O402 C404 1.273 . S
C403 O399 1.246 . S
C403 O400 1.259 . S
C404 O401 1.252 . S
C404 O402 1.273 . S
O405 Mg392 2.010 . S
O405 C397 1.249 . S
Mg406 O407 2.028 . S
Mg406 O413 1.986 . S
Mg406 O415 2.114 . S
Mg406 O416 2.251 . S
Mg406 O419 2.010 . S
O407 Mg406 2.028 . S
O407 C410 1.250 . S
O408 Mg409 2.028 . S
O408 C410 1.248 . S
Mg409 O408 2.028 . S
Mg409 O414 2.032 . S
Mg409 O416 2.079 . S
C410 O407 1.250 . S
C410 O408 1.248 . S
C411 O412 1.264 . S
C411 O419 1.249 . S
O412 C411 1.264 . S
O413 Mg406 1.986 . S
O413 C417 1.246 . S
O414 Mg409 2.032 . S
O414 C417 1.259 . S
O415 Mg406 2.114 . S
O415 C418 1.252 . S
O416 Mg406 2.251 . S
O416 Mg409 2.079 . S
O416 C418 1.273 . S
C417 O413 1.246 . S
C417 O414 1.259 . S
C418 O415 1.252 . S
C418 O416 1.273 . S
O419 Mg406 2.010 . S
O419 C411 1.249 . S
Mg420 O421 2.028 . S
Mg420 O427 1.986 . S
Mg420 O429 2.114 . S
Mg420 O430 2.251 . S
Mg420 O433 2.010 . S
O421 Mg420 2.028 . S
O421 C424 1.250 . S
O422 Mg423 2.028 . S
O422 C424 1.248 . S
Mg423 O422 2.028 . S
Mg423 O428 2.032 . S
Mg423 O430 2.079 . S
C424 O421 1.250 . S
C424 O422 1.248 . S
C425 O426 1.264 . S
C425 O433 1.249 . S
O426 C425 1.264 . S
O427 Mg420 1.986 . S
O427 C431 1.246 . S
O428 Mg423 2.032 . S
O428 C431 1.259 . S
O429 Mg420 2.114 . S
O429 C432 1.252 . S
O430 Mg420 2.251 . S
O430 Mg423 2.079 . S
O430 C432 1.273 . S
C431 O427 1.246 . S
C431 O428 1.259 . S
C432 O429 1.252 . S
C432 O430 1.273 . S
O433 Mg420 2.010 . S
O433 C425 1.249 . S
Mg434 O435 2.028 . S
Mg434 O441 1.986 . S
Mg434 O443 2.114 . S
Mg434 O444 2.251 . S
Mg434 O447 2.010 . S
O435 Mg434 2.028 . S
O435 C438 1.250 . S
O436 Mg437 2.028 . S
O436 C438 1.248 . S
Mg437 O436 2.028 . S
Mg437 O442 2.032 . S
Mg437 O444 2.079 . S
C438 O435 1.250 . S
C438 O436 1.248 . S
C439 O440 1.264 . S
C439 O447 1.249 . S
O440 C439 1.264 . S
O441 Mg434 1.986 . S
O441 C445 1.246 . S
O442 Mg437 2.032 . S
O442 C445 1.259 . S
O443 Mg434 2.114 . S
O443 C446 1.252 . S
O444 Mg434 2.251 . S
O444 Mg437 2.079 . S
O444 C446 1.273 . S
C445 O441 1.246 . S
C445 O442 1.259 . S
C446 O443 1.252 . S
C446 O444 1.273 . S
O447 Mg434 2.010 . S
O447 C439 1.249 . S
Mg448 O449 2.028 . S
Mg448 O455 1.986 . S
Mg448 O457 2.114 . S
Mg448 O458 2.251 . S
Mg448 O461 2.010 . S
O449 Mg448 2.028 . S
O449 C452 1.250 . S
O450 Mg451 2.028 . S
O450 C452 1.248 . S
Mg451 O450 2.028 . S
Mg451 O456 2.032 . S
Mg451 O458 2.079 . S
C452 O449 1.250 . S
C452 O450 1.248 . S
C453 O454 1.264 . S
C453 O461 1.249 . S
O454 C453 1.264 . S
O455 Mg448 1.986 . S
O455 C459 1.246 . S
O456 Mg451 2.032 . S
O456 C459 1.259 . S
O457 Mg448 2.114 . S
O457 C460 1.252 . S
O458 Mg448 2.251 . S
O458 Mg451 2.079 . S
O458 C460 1.273 . S
C459 O455 1.246 . S
C459 O456 1.259 . S
C460 O457 1.252 . S
C460 O458 1.273 . S
O461 Mg448 2.010 . S
O461 C453 1.249 . S
Mg462 O463 2.028 . S
Mg462 O469 1.986 . S
Mg462 O471 2.114 . S
Mg462 O472 2.251 . S
Mg462 O475 2.010 . S
O463 Mg462 2.028 . S
O463 C466 1.250 . S
O464 Mg465 2.028 . S
O464 C466 1.248 . S
Mg465 O464 2.028 . S
Mg465 O470 2.032 . S
Mg465 O472 2.079 . S
C466 O463 1.250 . S
C466 O464 1.248 . S
C467 O468 1.264 . S
C467 O475 1.249 . S
O468 C467 1.264 . S
O469 Mg462 1.986 . S
O469 C473 1.246 . S
O470 Mg465 2.032 . S
O470 C473 1.259 . S
O471 Mg462 2.114 . S
O471 C474 1.252 . S
O472 Mg462 2.251 . S
O472 Mg465 2.079 . S
O472 C474 1.273 . S
C473 O469 1.246 . S
C473 O470 1.259 . S
C474 O471 1.252 . S
C474 O472 1.273 . S
O475 Mg462 2.010 . S
O475 C467 1.249 . S
Mg476 O477 2.028 . S
Mg476 O483 1.986 . S
Mg476 O485 2.114 . S
Mg476 O486 2.251 . S
Mg476 O489 2.010 . S
O477 Mg476 2.028 . S
O477 C480 1.250 . S
O478 Mg479 2.028 . S
O478 C480 1.248 . S
Mg479 O478 2.028 . S
Mg479 O484 2.032 . S
Mg479 O486 2.079 . S
C480 O477 1.250 . S
C480 O478 1.248 . S
C481 O482 1.264 . S
C481 O489 1.249 . S
O482 C481 1.264 . S
O483 Mg476 1.986 . S
O483 C487 1.246 . S
O484 Mg479 2.032 . S
O484 C487 1.259 . S
O485 Mg476 2.114 . S
O485 C488 1.252 . S
O486 Mg476 2.251 . S
O486 Mg479 2.079 . S
O486 C488 1.273 . S
C487 O483 1.246 . S
C487 O484 1.259 . S
C488 O485 1.252 . S
C488 O486 1.273 . S
O489 Mg476 2.010 . S
O489 C481 1.249 . S
Mg490 O491 2.028 . S
Mg490 O497 1.986 . S
Mg490 O499 2.114 . S
Mg490 O500 2.251 . S
Mg490 O503 2.010 . S
O491 Mg490 2.028 . S
O491 C494 1.250 . S
O492 Mg493 2.028 . S
O492 C494 1.248 . S
Mg493 O492 2.028 . S
Mg493 O498 2.032 . S
Mg493 O500 2.079 . S
C494 O491 1.250 . S
C494 O492 1.248 . S
C495 O496 1.264 . S
C495 O503 1.249 . S
O496 C495 1.264 . S
O497 Mg490 1.986 . S
O497 C501 1.246 . S
O498 Mg493 2.032 . S
O498 C501 1.259 . S
O499 Mg490 2.114 . S
O499 C502 1.252 . S
O500 Mg490 2.251 . S
O500 Mg493 2.079 . S
O500 C502 1.273 . S
C501 O497 1.246 . S
C501 O498 1.259 . S
C502 O499 1.252 . S
C502 O500 1.273 . S
O503 Mg490 2.010 . S
O503 C495 1.249 . S
H504 C512 0.929 . S
H505 C514 0.930 . S
H506 C516 0.930 . S
H507 C519 0.929 . S
H508 C522 0.930 . S
H509 C524 0.960 . S
H510 C524 0.960 . S
H511 C524 0.960 . S
C512 H504 0.929 . S
C512 C513 1.377 . S
C512 C514 1.384 . S
C513 C512 1.377 . S
C513 C519 1.390 . S
C514 H505 0.930 . S
C514 C512 1.384 . S
C514 C515 1.372 . S
C515 C514 1.372 . S
C515 C516 1.400 . S
C515 C520 1.490 . S
C516 H506 0.930 . S
C516 C515 1.400 . S
C516 C519 1.386 . S
H517 C533 0.930 . S
H518 C534 0.931 . S
C519 H507 0.929 . S
C519 C513 1.390 . S
C519 C516 1.386 . S
C520 C515 1.490 . S
C520 C522 1.395 . S
C520 C523 1.403 . S
H521 C527 0.930 . S
C522 H508 0.930 . S
C522 C520 1.395 . S
C522 C525 1.403 . S
C523 C520 1.403 . S
C523 C524 1.524 . S
C523 C527 1.400 . S
C524 H509 0.960 . S
C524 H510 0.960 . S
C524 H511 0.960 . S
C524 C523 1.524 . S
C525 C522 1.403 . S
C525 C526 1.392 . S
C525 C529 1.495 . S
C526 C525 1.392 . S
C526 C527 1.385 . S
C526 C528 1.478 . S
C527 H521 0.930 . S
C527 C523 1.400 . S
C527 C526 1.385 . S
C528 C526 1.478 . S
C528 C530 1.381 . S
C528 C534 1.383 . S
C529 C525 1.495 . S
C529 H535 0.959 . S
C529 H536 0.961 . S
C529 H537 0.960 . S
C530 C528 1.381 . S
C530 C531 1.394 . S
C530 H538 0.930 . S
C531 C530 1.394 . S
C531 C532 1.383 . S
C531 H539 0.929 . S
C532 C531 1.383 . S
C532 C533 1.377 . S
C533 H517 0.930 . S
C533 C532 1.377 . S
C533 C534 1.379 . S
C534 H518 0.931 . S
C534 C528 1.383 . S
C534 C533 1.379 . S
H535 C529 0.959 . S
H536 C529 0.961 . S
H537 C529 0.960 . S
H538 C530 0.930 . S
H539 C531 0.929 . S
H540 C548 0.929 . S
H541 C550 0.930 . S
H542 C552 0.930 . S
H543 C555 0.929 . S
H544 C558 0.930 . S
H545 C560 0.960 . S
H546 C560 0.960 . S
H547 C560 0.960 . S
C548 H540 0.929 . S
C548 C549 1.377 . S
C548 C550 1.384 . S
C549 C548 1.377 . S
C549 C555 1.390 . S
C550 H541 0.930 . S
C550 C548 1.384 . S
C550 C551 1.372 . S
C551 C550 1.372 . S
C551 C552 1.400 . S
C551 C556 1.490 . S
C552 H542 0.930 . S
C552 C551 1.400 . S
C552 C555 1.386 . S
H553 C569 0.930 . S
H554 C570 0.931 . S
C555 H543 0.929 . S
C555 C549 1.390 . S
C555 C552 1.386 . S
C556 C551 1.490 . S
C556 C558 1.395 . S
C556 C559 1.403 . S
H557 C563 0.930 . S
C558 H544 0.930 . S
C558 C556 1.395 . S
C558 C561 1.403 . S
C559 C556 1.403 . S
C559 C560 1.524 . S
C559 C563 1.400 . S
C560 H545 0.960 . S
C560 H546 0.960 . S
C560 H547 0.960 . S
C560 C559 1.524 . S
C561 C558 1.403 . S
C561 C562 1.392 . S
C561 C565 1.495 . S
C562 C561 1.392 . S
C562 C563 1.385 . S
C562 C564 1.478 . S
C563 H557 0.930 . S
C563 C559 1.400 . S
C563 C562 1.385 . S
C564 C562 1.478 . S
C564 C566 1.381 . S
C564 C570 1.383 . S
C565 C561 1.495 . S
C565 H571 0.959 . S
C565 H572 0.961 . S
C565 H573 0.960 . S
C566 C564 1.381 . S
C566 C567 1.394 . S
C566 H574 0.930 . S
C567 C566 1.394 . S
C567 C568 1.383 . S
C567 H575 0.929 . S
C568 C567 1.383 . S
C568 C569 1.377 . S
C569 H553 0.930 . S
C569 C568 1.377 . S
C569 C570 1.379 . S
C570 H554 0.931 . S
C570 C564 1.383 . S
C570 C569 1.379 . S
H571 C565 0.959 . S
H572 C565 0.961 . S
H573 C565 0.960 . S
H574 C566 0.930 . S
H575 C567 0.929 . S
H576 C584 0.929 . S
H577 C586 0.930 . S
H578 C588 0.930 . S
H579 C591 0.929 . S
H580 C594 0.930 . S
H581 C596 0.960 . S
H582 C596 0.960 . S
H583 C596 0.960 . S
C584 H576 0.929 . S
C584 C585 1.377 . S
C584 C586 1.384 . S
C585 C584 1.377 . S
C585 C591 1.390 . S
C586 H577 0.930 . S
C586 C584 1.384 . S
C586 C587 1.372 . S
C587 C586 1.372 . S
C587 C588 1.400 . S
C587 C592 1.490 . S
C588 H578 0.930 . S
C588 C587 1.400 . S
C588 C591 1.386 . S
H589 C605 0.930 . S
H590 C606 0.931 . S
C591 H579 0.929 . S
C591 C585 1.390 . S
C591 C588 1.386 . S
C592 C587 1.490 . S
C592 C594 1.395 . S
C592 C595 1.403 . S
H593 C599 0.930 . S
C594 H580 0.930 . S
C594 C592 1.395 . S
C594 C597 1.403 . S
C595 C592 1.403 . S
C595 C596 1.524 . S
C595 C599 1.400 . S
C596 H581 0.960 . S
C596 H582 0.960 . S
C596 H583 0.960 . S
C596 C595 1.524 . S
C597 C594 1.403 . S
C597 C598 1.392 . S
C597 C601 1.495 . S
C598 C597 1.392 . S
C598 C599 1.385 . S
C598 C600 1.478 . S
C599 H593 0.930 . S
C599 C595 1.400 . S
C599 C598 1.385 . S
C600 C598 1.478 . S
C600 C602 1.381 . S
C600 C606 1.383 . S
C601 C597 1.495 . S
C601 H607 0.959 . S
C601 H608 0.961 . S
C601 H609 0.960 . S
C602 C600 1.381 . S
C602 C603 1.394 . S
C602 H610 0.930 . S
C603 C602 1.394 . S
C603 C604 1.383 . S
C603 H611 0.929 . S
C604 C603 1.383 . S
C604 C605 1.377 . S
C605 H589 0.930 . S
C605 C604 1.377 . S
C605 C606 1.379 . S
C606 H590 0.931 . S
C606 C600 1.383 . S
C606 C605 1.379 . S
H607 C601 0.959 . S
H608 C601 0.961 . S
H609 C601 0.960 . S
H610 C602 0.930 . S
H611 C603 0.929 . S
H612 C620 0.929 . S
H613 C622 0.930 . S
H614 C624 0.930 . S
H615 C627 0.929 . S
H616 C630 0.930 . S
H617 C632 0.960 . S
H618 C632 0.960 . S
H619 C632 0.960 . S
C620 H612 0.929 . S
C620 C621 1.377 . S
C620 C622 1.384 . S
C621 C620 1.377 . S
C621 C627 1.390 . S
C622 H613 0.930 . S
C622 C620 1.384 . S
C622 C623 1.372 . S
C623 C622 1.372 . S
C623 C624 1.400 . S
C623 C628 1.490 . S
C624 H614 0.930 . S
C624 C623 1.400 . S
C624 C627 1.386 . S
H625 C641 0.930 . S
H626 C642 0.931 . S
C627 H615 0.929 . S
C627 C621 1.390 . S
C627 C624 1.386 . S
C628 C623 1.490 . S
C628 C630 1.395 . S
C628 C631 1.403 . S
H629 C635 0.930 . S
C630 H616 0.930 . S
C630 C628 1.395 . S
C630 C633 1.403 . S
C631 C628 1.403 . S
C631 C632 1.524 . S
C631 C635 1.400 . S
C632 H617 0.960 . S
C632 H618 0.960 . S
C632 H619 0.960 . S
C632 C631 1.524 . S
C633 C630 1.403 . S
C633 C634 1.392 . S
C633 C637 1.495 . S
C634 C633 1.392 . S
C634 C635 1.385 . S
C634 C636 1.478 . S
C635 H629 0.930 . S
C635 C631 1.400 . S
C635 C634 1.385 . S
C636 C634 1.478 . S
C636 C638 1.381 . S
C636 C642 1.383 . S
C637 C633 1.495 . S
C637 H643 0.959 . S
C637 H644 0.961 . S
C637 H645 0.960 . S
C638 C636 1.381 . S
C638 C639 1.394 . S
C638 H646 0.930 . S
C639 C638 1.394 . S
C639 C640 1.383 . S
C639 H647 0.929 . S
C640 C639 1.383 . S
C640 C641 1.377 . S
C641 H625 0.930 . S
C641 C640 1.377 . S
C641 C642 1.379 . S
C642 H626 0.931 . S
C642 C636 1.383 . S
C642 C641 1.379 . S
H643 C637 0.959 . S
H644 C637 0.961 . S
H645 C637 0.960 . S
H646 C638 0.930 . S
H647 C639 0.929 . S
H648 C656 0.929 . S
H649 C658 0.930 . S
H650 C660 0.930 . S
H651 C663 0.929 . S
H652 C666 0.930 . S
H653 C668 0.960 . S
H654 C668 0.960 . S
H655 C668 0.960 . S
C656 H648 0.929 . S
C656 C657 1.377 . S
C656 C658 1.384 . S
C657 C656 1.377 . S
C657 C663 1.390 . S
C658 H649 0.930 . S
C658 C656 1.384 . S
C658 C659 1.372 . S
C659 C658 1.372 . S
C659 C660 1.400 . S
C659 C664 1.490 . S
C660 H650 0.930 . S
C660 C659 1.400 . S
C660 C663 1.386 . S
H661 C677 0.930 . S
H662 C678 0.931 . S
C663 H651 0.929 . S
C663 C657 1.390 . S
C663 C660 1.386 . S
C664 C659 1.490 . S
C664 C666 1.395 . S
C664 C667 1.403 . S
H665 C671 0.930 . S
C666 H652 0.930 . S
C666 C664 1.395 . S
C666 C669 1.403 . S
C667 C664 1.403 . S
C667 C668 1.524 . S
C667 C671 1.400 . S
C668 H653 0.960 . S
C668 H654 0.960 . S
C668 H655 0.960 . S
C668 C667 1.524 . S
C669 C666 1.403 . S
C669 C670 1.392 . S
C669 C673 1.495 . S
C670 C669 1.392 . S
C670 C671 1.385 . S
C670 C672 1.478 . S
C671 H665 0.930 . S
C671 C667 1.400 . S
C671 C670 1.385 . S
C672 C670 1.478 . S
C672 C674 1.381 . S
C672 C678 1.383 . S
C673 C669 1.495 . S
C673 H679 0.959 . S
C673 H680 0.961 . S
C673 H681 0.960 . S
C674 C672 1.381 . S
C674 C675 1.394 . S
C674 H682 0.930 . S
C675 C674 1.394 . S
C675 C676 1.383 . S
C675 H683 0.929 . S
C676 C675 1.383 . S
C676 C677 1.377 . S
C677 H661 0.930 . S
C677 C676 1.377 . S
C677 C678 1.379 . S
C678 H662 0.931 . S
C678 C672 1.383 . S
C678 C677 1.379 . S
H679 C673 0.959 . S
H680 C673 0.961 . S
H681 C673 0.960 . S
H682 C674 0.930 . S
H683 C675 0.929 . S
H684 C692 0.929 . S
H685 C694 0.930 . S
H686 C696 0.930 . S
H687 C699 0.929 . S
H688 C702 0.930 . S
H689 C704 0.960 . S
H690 C704 0.960 . S
H691 C704 0.960 . S
C692 H684 0.929 . S
C692 C693 1.377 . S
C692 C694 1.384 . S
C693 C692 1.377 . S
C693 C699 1.390 . S
C694 H685 0.930 . S
C694 C692 1.384 . S
C694 C695 1.372 . S
C695 C694 1.372 . S
C695 C696 1.400 . S
C695 C700 1.490 . S
C696 H686 0.930 . S
C696 C695 1.400 . S
C696 C699 1.386 . S
H697 C713 0.930 . S
H698 C714 0.931 . S
C699 H687 0.929 . S
C699 C693 1.390 . S
C699 C696 1.386 . S
C700 C695 1.490 . S
C700 C702 1.395 . S
C700 C703 1.403 . S
H701 C707 0.930 . S
C702 H688 0.930 . S
C702 C700 1.395 . S
C702 C705 1.403 . S
C703 C700 1.403 . S
C703 C704 1.524 . S
C703 C707 1.400 . S
C704 H689 0.960 . S
C704 H690 0.960 . S
C704 H691 0.960 . S
C704 C703 1.524 . S
C705 C702 1.403 . S
C705 C706 1.392 . S
C705 C709 1.495 . S
C706 C705 1.392 . S
C706 C707 1.385 . S
C706 C708 1.478 . S
C707 H701 0.930 . S
C707 C703 1.400 . S
C707 C706 1.385 . S
C708 C706 1.478 . S
C708 C710 1.381 . S
C708 C714 1.383 . S
C709 C705 1.495 . S
C709 H715 0.959 . S
C709 H716 0.961 . S
C709 H717 0.960 . S
C710 C708 1.381 . S
C710 C711 1.394 . S
C710 H718 0.930 . S
C711 C710 1.394 . S
C711 C712 1.383 . S
C711 H719 0.929 . S
C712 C711 1.383 . S
C712 C713 1.377 . S
C713 H697 0.930 . S
C713 C712 1.377 . S
C713 C714 1.379 . S
C714 H698 0.931 . S
C714 C708 1.383 . S
C714 C713 1.379 . S
H715 C709 0.959 . S
H716 C709 0.961 . S
H717 C709 0.960 . S
H718 C710 0.930 . S
H719 C711 0.929 . S
H720 C728 0.929 . S
H721 C730 0.930 . S
H722 C732 0.930 . S
H723 C735 0.929 . S
H724 C738 0.930 . S
H725 C740 0.960 . S
H726 C740 0.960 . S
H727 C740 0.960 . S
C728 H720 0.929 . S
C728 C729 1.377 . S
C728 C730 1.384 . S
C729 C728 1.377 . S
C729 C735 1.390 . S
C730 H721 0.930 . S
C730 C728 1.384 . S
C730 C731 1.372 . S
C731 C730 1.372 . S
C731 C732 1.400 . S
C731 C736 1.490 . S
C732 H722 0.930 . S
C732 C731 1.400 . S
C732 C735 1.386 . S
H733 C749 0.930 . S
H734 C750 0.931 . S
C735 H723 0.929 . S
C735 C729 1.390 . S
C735 C732 1.386 . S
C736 C731 1.490 . S
C736 C738 1.395 . S
C736 C739 1.403 . S
H737 C743 0.930 . S
C738 H724 0.930 . S
C738 C736 1.395 . S
C738 C741 1.403 . S
C739 C736 1.403 . S
C739 C740 1.524 . S
C739 C743 1.400 . S
C740 H725 0.960 . S
C740 H726 0.960 . S
C740 H727 0.960 . S
C740 C739 1.524 . S
C741 C738 1.403 . S
C741 C742 1.392 . S
C741 C745 1.495 . S
C742 C741 1.392 . S
C742 C743 1.385 . S
C742 C744 1.478 . S
C743 H737 0.930 . S
C743 C739 1.400 . S
C743 C742 1.385 . S
C744 C742 1.478 . S
C744 C746 1.381 . S
C744 C750 1.383 . S
C745 C741 1.495 . S
C745 H751 0.959 . S
C745 H752 0.961 . S
C745 H753 0.960 . S
C746 C744 1.381 . S
C746 C747 1.394 . S
C746 H754 0.930 . S
C747 C746 1.394 . S
C747 C748 1.383 . S
C747 H755 0.929 . S
C748 C747 1.383 . S
C748 C749 1.377 . S
C749 H733 0.930 . S
C749 C748 1.377 . S
C749 C750 1.379 . S
C750 H734 0.931 . S
C750 C744 1.383 . S
C750 C749 1.379 . S
H751 C745 0.959 . S
H752 C745 0.961 . S
H753 C745 0.960 . S
H754 C746 0.930 . S
H755 C747 0.929 . S
H756 C764 0.929 . S
H757 C766 0.930 . S
H758 C768 0.930 . S
H759 C771 0.929 . S
H760 C774 0.930 . S
H761 C776 0.960 . S
H762 C776 0.960 . S
H763 C776 0.960 . S
C764 H756 0.929 . S
C764 C765 1.377 . S
C764 C766 1.384 . S
C765 C764 1.377 . S
C765 C771 1.390 . S
C766 H757 0.930 . S
C766 C764 1.384 . S
C766 C767 1.372 . S
C767 C766 1.372 . S
C767 C768 1.400 . S
C767 C772 1.490 . S
C768 H758 0.930 . S
C768 C767 1.400 . S
C768 C771 1.386 . S
H769 C785 0.930 . S
H770 C786 0.931 . S
C771 H759 0.929 . S
C771 C765 1.390 . S
C771 C768 1.386 . S
C772 C767 1.490 . S
C772 C774 1.395 . S
C772 C775 1.403 . S
H773 C779 0.930 . S
C774 H760 0.930 . S
C774 C772 1.395 . S
C774 C777 1.403 . S
C775 C772 1.403 . S
C775 C776 1.524 . S
C775 C779 1.400 . S
C776 H761 0.960 . S
C776 H762 0.960 . S
C776 H763 0.960 . S
C776 C775 1.524 . S
C777 C774 1.403 . S
C777 C778 1.392 . S
C777 C781 1.495 . S
C778 C777 1.392 . S
C778 C779 1.385 . S
C778 C780 1.478 . S
C779 H773 0.930 . S
C779 C775 1.400 . S
C779 C778 1.385 . S
C780 C778 1.478 . S
C780 C782 1.381 . S
C780 C786 1.383 . S
C781 C777 1.495 . S
C781 H787 0.959 . S
C781 H788 0.961 . S
C781 H789 0.960 . S
C782 C780 1.381 . S
C782 C783 1.394 . S
C782 H790 0.930 . S
C783 C782 1.394 . S
C783 C784 1.383 . S
C783 H791 0.929 . S
C784 C783 1.383 . S
C784 C785 1.377 . S
C785 H769 0.930 . S
C785 C784 1.377 . S
C785 C786 1.379 . S
C786 H770 0.931 . S
C786 C780 1.383 . S
C786 C785 1.379 . S
H787 C781 0.959 . S
H788 C781 0.961 . S
H789 C781 0.960 . S
H790 C782 0.930 . S
H791 C783 0.929 . S
H792 C800 0.929 . S
H793 C802 0.930 . S
H794 C804 0.930 . S
H795 C807 0.929 . S
H796 C810 0.930 . S
H797 C812 0.960 . S
H798 C812 0.960 . S
H799 C812 0.960 . S
C800 H792 0.929 . S
C800 C801 1.377 . S
C800 C802 1.384 . S
C801 C800 1.377 . S
C801 C807 1.390 . S
C802 H793 0.930 . S
C802 C800 1.384 . S
C802 C803 1.372 . S
C803 C802 1.372 . S
C803 C804 1.400 . S
C803 C808 1.490 . S
C804 H794 0.930 . S
C804 C803 1.400 . S
C804 C807 1.386 . S
H805 C821 0.930 . S
H806 C822 0.931 . S
C807 H795 0.929 . S
C807 C801 1.390 . S
C807 C804 1.386 . S
C808 C803 1.490 . S
C808 C810 1.395 . S
C808 C811 1.403 . S
H809 C815 0.930 . S
C810 H796 0.930 . S
C810 C808 1.395 . S
C810 C813 1.403 . S
C811 C808 1.403 . S
C811 C812 1.524 . S
C811 C815 1.400 . S
C812 H797 0.960 . S
C812 H798 0.960 . S
C812 H799 0.960 . S
C812 C811 1.524 . S
C813 C810 1.403 . S
C813 C814 1.392 . S
C813 C817 1.495 . S
C814 C813 1.392 . S
C814 C815 1.385 . S
C814 C816 1.478 . S
C815 H809 0.930 . S
C815 C811 1.400 . S
C815 C814 1.385 . S
C816 C814 1.478 . S
C816 C818 1.381 . S
C816 C822 1.383 . S
C817 C813 1.495 . S
C817 H823 0.959 . S
C817 H824 0.961 . S
C817 H825 0.960 . S
C818 C816 1.381 . S
C818 C819 1.394 . S
C818 H826 0.930 . S
C819 C818 1.394 . S
C819 C820 1.383 . S
C819 H827 0.929 . S
C820 C819 1.383 . S
C820 C821 1.377 . S
C821 H805 0.930 . S
C821 C820 1.377 . S
C821 C822 1.379 . S
C822 H806 0.931 . S
C822 C816 1.383 . S
C822 C821 1.379 . S
H823 C817 0.959 . S
H824 C817 0.961 . S
H825 C817 0.960 . S
H826 C818 0.930 . S
H827 C819 0.929 . S
H828 C836 0.929 . S
H829 C838 0.930 . S
H830 C840 0.930 . S
H831 C843 0.929 . S
H832 C846 0.930 . S
H833 C848 0.960 . S
H834 C848 0.960 . S
H835 C848 0.960 . S
C836 H828 0.929 . S
C836 C837 1.377 . S
C836 C838 1.384 . S
C837 C836 1.377 . S
C837 C843 1.390 . S
C838 H829 0.930 . S
C838 C836 1.384 . S
C838 C839 1.372 . S
C839 C838 1.372 . S
C839 C840 1.400 . S
C839 C844 1.490 . S
C840 H830 0.930 . S
C840 C839 1.400 . S
C840 C843 1.386 . S
H841 C857 0.930 . S
H842 C858 0.931 . S
C843 H831 0.929 . S
C843 C837 1.390 . S
C843 C840 1.386 . S
C844 C839 1.490 . S
C844 C846 1.395 . S
C844 C847 1.403 . S
H845 C851 0.930 . S
C846 H832 0.930 . S
C846 C844 1.395 . S
C846 C849 1.403 . S
C847 C844 1.403 . S
C847 C848 1.524 . S
C847 C851 1.400 . S
C848 H833 0.960 . S
C848 H834 0.960 . S
C848 H835 0.960 . S
C848 C847 1.524 . S
C849 C846 1.403 . S
C849 C850 1.392 . S
C849 C853 1.495 . S
C850 C849 1.392 . S
C850 C851 1.385 . S
C850 C852 1.478 . S
C851 H845 0.930 . S
C851 C847 1.400 . S
C851 C850 1.385 . S
C852 C850 1.478 . S
C852 C854 1.381 . S
C852 C858 1.383 . S
C853 C849 1.495 . S
C853 H859 0.959 . S
C853 H860 0.961 . S
C853 H861 0.960 . S
C854 C852 1.381 . S
C854 C855 1.394 . S
C854 H862 0.930 . S
C855 C854 1.394 . S
C855 C856 1.383 . S
C855 H863 0.929 . S
C856 C855 1.383 . S
C856 C857 1.377 . S
C857 H841 0.930 . S
C857 C856 1.377 . S
C857 C858 1.379 . S
C858 H842 0.931 . S
C858 C852 1.383 . S
C858 C857 1.379 . S
H859 C853 0.959 . S
H860 C853 0.961 . S
H861 C853 0.960 . S
H862 C854 0.930 . S
H863 C855 0.929 . S
H864 C872 0.929 . S
H865 C874 0.930 . S
H866 C876 0.930 . S
H867 C879 0.929 . S
H868 C882 0.930 . S
H869 C884 0.960 . S
H870 C884 0.960 . S
H871 C884 0.960 . S
C872 H864 0.929 . S
C872 C873 1.377 . S
C872 C874 1.384 . S
C873 C872 1.377 . S
C873 C879 1.390 . S
C874 H865 0.930 . S
C874 C872 1.384 . S
C874 C875 1.372 . S
C875 C874 1.372 . S
C875 C876 1.400 . S
C875 C880 1.490 . S
C876 H866 0.930 . S
C876 C875 1.400 . S
C876 C879 1.386 . S
H877 C893 0.930 . S
H878 C894 0.931 . S
C879 H867 0.929 . S
C879 C873 1.390 . S
C879 C876 1.386 . S
C880 C875 1.490 . S
C880 C882 1.395 . S
C880 C883 1.403 . S
H881 C887 0.930 . S
C882 H868 0.930 . S
C882 C880 1.395 . S
C882 C885 1.403 . S
C883 C880 1.403 . S
C883 C884 1.524 . S
C883 C887 1.400 . S
C884 H869 0.960 . S
C884 H870 0.960 . S
C884 H871 0.960 . S
C884 C883 1.524 . S
C885 C882 1.403 . S
C885 C886 1.392 . S
C885 C889 1.495 . S
C886 C885 1.392 . S
C886 C887 1.385 . S
C886 C888 1.478 . S
C887 H881 0.930 . S
C887 C883 1.400 . S
C887 C886 1.385 . S
C888 C886 1.478 . S
C888 C890 1.381 . S
C888 C894 1.383 . S
C889 C885 1.495 . S
C889 H895 0.959 . S
C889 H896 0.961 . S
C889 H897 0.960 . S
C890 C888 1.381 . S
C890 C891 1.394 . S
C890 H898 0.930 . S
C891 C890 1.394 . S
C891 C892 1.383 . S
C891 H899 0.929 . S
C892 C891 1.383 . S
C892 C893 1.377 . S
C893 H877 0.930 . S
C893 C892 1.377 . S
C893 C894 1.379 . S
C894 H878 0.931 . S
C894 C888 1.383 . S
C894 C893 1.379 . S
H895 C889 0.959 . S
H896 C889 0.961 . S
H897 C889 0.960 . S
H898 C890 0.930 . S
H899 C891 0.929 . S
H900 C908 0.929 . S
H901 C910 0.930 . S
H902 C912 0.930 . S
H903 C915 0.929 . S
H904 C918 0.930 . S
H905 C920 0.960 . S
H906 C920 0.960 . S
H907 C920 0.960 . S
C908 H900 0.929 . S
C908 C909 1.377 . S
C908 C910 1.384 . S
C909 C908 1.377 . S
C909 C915 1.390 . S
C910 H901 0.930 . S
C910 C908 1.384 . S
C910 C911 1.372 . S
C911 C910 1.372 . S
C911 C912 1.400 . S
C911 C916 1.490 . S
C912 H902 0.930 . S
C912 C911 1.400 . S
C912 C915 1.386 . S
H913 C929 0.930 . S
H914 C930 0.931 . S
C915 H903 0.929 . S
C915 C909 1.390 . S
C915 C912 1.386 . S
C916 C911 1.490 . S
C916 C918 1.395 . S
C916 C919 1.403 . S
H917 C923 0.930 . S
C918 H904 0.930 . S
C918 C916 1.395 . S
C918 C921 1.403 . S
C919 C916 1.403 . S
C919 C920 1.524 . S
C919 C923 1.400 . S
C920 H905 0.960 . S
C920 H906 0.960 . S
C920 H907 0.960 . S
C920 C919 1.524 . S
C921 C918 1.403 . S
C921 C922 1.392 . S
C921 C925 1.495 . S
C922 C921 1.392 . S
C922 C923 1.385 . S
C922 C924 1.478 . S
C923 H917 0.930 . S
C923 C919 1.400 . S
C923 C922 1.385 . S
C924 C922 1.478 . S
C924 C926 1.381 . S
C924 C930 1.383 . S
C925 C921 1.495 . S
C925 H931 0.959 . S
C925 H932 0.961 . S
C925 H933 0.960 . S
C926 C924 1.381 . S
C926 C927 1.394 . S
C926 H934 0.930 . S
C927 C926 1.394 . S
C927 C928 1.383 . S
C927 H935 0.929 . S
C928 C927 1.383 . S
C928 C929 1.377 . S
C929 H913 0.930 . S
C929 C928 1.377 . S
C929 C930 1.379 . S
C930 H914 0.931 . S
C930 C924 1.383 . S
C930 C929 1.379 . S
H931 C925 0.959 . S
H932 C925 0.961 . S
H933 C925 0.960 . S
H934 C926 0.930 . S
H935 C927 0.929 . S
H936 C944 0.929 . S
H937 C946 0.930 . S
H938 C948 0.930 . S
H939 C951 0.929 . S
H940 C954 0.930 . S
H941 C956 0.960 . S
H942 C956 0.960 . S
H943 C956 0.960 . S
C944 H936 0.929 . S
C944 C945 1.377 . S
C944 C946 1.384 . S
C945 C944 1.377 . S
C945 C951 1.390 . S
C946 H937 0.930 . S
C946 C944 1.384 . S
C946 C947 1.372 . S
C947 C946 1.372 . S
C947 C948 1.400 . S
C947 C952 1.490 . S
C948 H938 0.930 . S
C948 C947 1.400 . S
C948 C951 1.386 . S
H949 C965 0.930 . S
H950 C966 0.931 . S
C951 H939 0.929 . S
C951 C945 1.390 . S
C951 C948 1.386 . S
C952 C947 1.490 . S
C952 C954 1.395 . S
C952 C955 1.403 1_455 S
H953 C959 0.930 . S
C954 H940 0.930 . S
C954 C952 1.395 . S
C954 C957 1.403 . S
C955 C952 1.403 1_655 S
C955 C956 1.524 . S
C955 C959 1.400 . S
C956 H941 0.960 . S
C956 H942 0.960 . S
C956 H943 0.960 . S
C956 C955 1.524 . S
C957 C954 1.403 . S
C957 C958 1.392 1_455 S
C957 C961 1.495 . S
C958 C957 1.392 1_655 S
C958 C959 1.385 . S
C958 C960 1.478 . S
C959 H953 0.930 . S
C959 C955 1.400 . S
C959 C958 1.385 . S
C960 C958 1.478 . S
C960 C962 1.381 . S
C960 C966 1.383 . S
C961 C957 1.495 . S
C961 H967 0.959 . S
C961 H968 0.961 . S
C961 H969 0.960 . S
C962 C960 1.381 . S
C962 C963 1.394 . S
C962 H970 0.930 . S
C963 C962 1.394 . S
C963 C964 1.383 . S
C963 H971 0.929 . S
C964 C963 1.383 . S
C964 C965 1.377 . S
C965 H949 0.930 . S
C965 C964 1.377 . S
C965 C966 1.379 . S
C966 H950 0.931 . S
C966 C960 1.383 . S
C966 C965 1.379 . S
H967 C961 0.959 . S
H968 C961 0.961 . S
H969 C961 0.960 . S
H970 C962 0.930 . S
H971 C963 0.929 . S
H972 C980 0.929 . S
H973 C982 0.930 . S
H974 C984 0.930 . S
H975 C987 0.929 . S
H976 C990 0.930 . S
H977 C992 0.960 . S
H978 C992 0.960 . S
H979 C992 0.960 . S
C980 H972 0.929 . S
C980 C981 1.377 . S
C980 C982 1.384 . S
C981 C980 1.377 . S
C981 C987 1.390 . S
C982 H973 0.930 . S
C982 C980 1.384 . S
C982 C983 1.372 . S
C983 C982 1.372 . S
C983 C984 1.400 . S
C983 C988 1.490 . S
C984 H974 0.930 . S
C984 C983 1.400 . S
C984 C987 1.386 . S
H985 C1001 0.930 . S
H986 C1002 0.931 . S
C987 H975 0.929 . S
C987 C981 1.390 . S
C987 C984 1.386 . S
C988 C983 1.490 . S
C988 C990 1.395 . S
C988 C991 1.403 . S
H989 C995 0.930 . S
C990 H976 0.930 . S
C990 C988 1.395 . S
C990 C993 1.403 . S
C991 C988 1.403 . S
C991 C992 1.524 . S
C991 C995 1.400 . S
C992 H977 0.960 . S
C992 H978 0.960 . S
C992 H979 0.960 . S
C992 C991 1.524 . S
C993 C990 1.403 . S
C993 C994 1.392 . S
C993 C997 1.495 . S
C994 C993 1.392 . S
C994 C995 1.385 . S
C994 C996 1.478 . S
C995 H989 0.930 . S
C995 C991 1.400 . S
C995 C994 1.385 . S
C996 C994 1.478 . S
C996 C998 1.381 . S
C996 C1002 1.383 . S
C997 C993 1.495 . S
C997 H1003 0.959 . S
C997 H1004 0.961 . S
C997 H1005 0.960 . S
C998 C996 1.381 . S
C998 C999 1.394 . S
C998 H1006 0.930 . S
C999 C998 1.394 . S
C999 C1000 1.383 . S
C999 H1007 0.929 . S
C1000 C999 1.383 . S
C1000 C1001 1.377 . S
C1001 H985 0.930 . S
C1001 C1000 1.377 . S
C1001 C1002 1.379 . S
C1002 H986 0.931 . S
C1002 C996 1.383 . S
C1002 C1001 1.379 . S
H1003 C997 0.959 . S
H1004 C997 0.961 . S
H1005 C997 0.960 . S
H1006 C998 0.930 . S
H1007 C999 0.929 . S
H1008 C1016 0.929 . S
H1009 C1018 0.930 . S
H1010 C1020 0.930 . S
H1011 C1023 0.929 . S
H1012 C1026 0.932 . S
H1013 C1028 0.960 . S
H1014 C1028 0.960 . S
H1015 C1028 0.960 . S
C1016 H1008 0.929 . S
C1016 C1017 1.377 . S
C1016 C1018 1.384 . S
C1017 C1016 1.377 . S
C1017 C1023 1.390 . S
C1018 H1009 0.930 . S
C1018 C1016 1.384 . S
C1018 C1019 1.372 . S
C1019 C1018 1.372 . S
C1019 C1020 1.400 . S
C1019 C1024 1.490 . S
C1020 H1010 0.930 . S
C1020 C1019 1.400 . S
C1020 C1023 1.386 . S
H1021 C1037 0.930 . S
H1022 C1038 0.931 . S
C1023 H1011 0.929 . S
C1023 C1017 1.390 . S
C1023 C1020 1.386 . S
C1024 C1019 1.490 . S
C1024 C1026 1.394 1_545 S
C1024 C1027 1.403 . S
H1025 C1031 0.931 . S
C1026 H1012 0.932 . S
C1026 C1024 1.394 1_565 S
C1026 C1029 1.415 . S
C1027 C1024 1.403 . S
C1027 C1028 1.524 . S
C1027 C1031 1.401 . S
C1028 H1013 0.960 . S
C1028 H1014 0.960 . S
C1028 H1015 0.960 . S
C1028 C1027 1.524 . S
C1029 C1026 1.415 . S
C1029 C1030 1.392 . S
C1029 C1033 1.495 . S
C1030 C1029 1.392 . S
C1030 C1031 1.385 1_565 S
C1030 C1032 1.478 . S
C1031 H1025 0.931 . S
C1031 C1027 1.401 . S
C1031 C1030 1.385 1_545 S
C1032 C1030 1.478 . S
C1032 C1034 1.381 . S
C1032 C1038 1.383 . S
C1033 C1029 1.495 . S
C1033 H1039 0.959 . S
C1033 H1040 0.961 . S
C1033 H1041 0.960 . S
C1034 C1032 1.381 . S
C1034 C1035 1.394 . S
C1034 H1042 0.930 . S
C1035 C1034 1.394 . S
C1035 C1036 1.383 . S
C1035 H1043 0.929 . S
C1036 C1035 1.383 . S
C1036 C1037 1.377 . S
C1037 H1021 0.930 . S
C1037 C1036 1.377 . S
C1037 C1038 1.379 . S
C1038 H1022 0.931 . S
C1038 C1032 1.383 . S
C1038 C1037 1.379 . S
H1039 C1033 0.959 . S
H1040 C1033 0.961 . S
H1041 C1033 0.960 . S
H1042 C1034 0.930 . S
H1043 C1035 0.929 . S
H1044 C1052 0.929 . S
H1045 C1054 0.930 1_545 S
H1046 C1056 0.930 . S
H1047 C1059 0.929 . S
H1048 C1062 0.930 . S
H1049 C1064 1.052 . S
H1050 C1064 0.912 1_554 S
H1051 C1064 0.933 1_554 S
C1052 H1044 0.929 . S
C1052 C1053 1.377 . S
C1052 C1054 1.384 . S
C1053 C1052 1.377 . S
C1053 C1059 1.390 . S
C1054 H1045 0.930 1_565 S
C1054 C1052 1.384 . S
C1054 C1055 1.372 . S
C1055 C1054 1.372 . S
C1055 C1056 1.400 . S
C1055 C1060 1.490 . S
C1056 H1046 0.930 . S
C1056 C1055 1.400 . S
C1056 C1059 1.386 . S
H1057 C1073 0.930 . S
H1058 C1074 0.931 1_565 S
C1059 H1047 0.929 . S
C1059 C1053 1.390 . S
C1059 C1056 1.386 . S
C1060 C1055 1.490 . S
C1060 C1062 1.395 1_565 S
C1060 C1063 1.401 . S
H1061 C1067 0.930 . S
C1062 H1048 0.930 . S
C1062 C1060 1.395 1_545 S
C1062 C1065 1.499 . S
C1063 C1060 1.401 . S
C1063 C1064 1.519 1_554 S
C1063 C1067 1.401 1_554 S
C1064 H1049 1.052 . S
C1064 H1050 0.912 1_556 S
C1064 H1051 0.933 1_556 S
C1064 C1063 1.519 1_556 S
C1065 C1062 1.499 . S
C1065 C1066 1.293 1_554 S
C1065 C1069 1.508 . S
C1066 C1065 1.293 1_556 S
C1066 C1067 1.385 1_545 S
C1066 C1068 1.478 . S
C1067 H1061 0.930 . S
C1067 C1063 1.401 1_556 S
C1067 C1066 1.385 1_565 S
C1068 C1066 1.478 . S
C1068 C1070 1.381 . S
C1068 C1074 1.383 . S
C1069 C1065 1.508 . S
C1069 H1075 0.959 . S
C1069 H1076 0.961 1_554 S
C1069 H1077 0.943 1_554 S
C1070 C1068 1.381 . S
C1070 C1071 1.394 . S
C1070 H1078 0.930 . S
C1071 C1070 1.394 . S
C1071 C1072 1.383 . S
C1071 H1079 0.929 . S
C1072 C1071 1.383 . S
C1072 C1073 1.377 . S
C1073 H1057 0.930 . S
C1073 C1072 1.377 . S
C1073 C1074 1.379 . S
C1074 H1058 0.931 1_545 S
C1074 C1068 1.383 . S
C1074 C1073 1.379 . S
H1075 C1069 0.959 . S
H1076 C1069 0.961 1_556 S
H1077 C1069 0.943 1_556 S
H1078 C1070 0.930 . S
H1079 C1071 0.929 . S
H1080 C1088 0.929 . S
H1081 C1090 0.930 . S
H1082 C1092 0.930 . S
H1083 C1095 0.929 . S
H1084 C1098 0.930 . S
H1085 C1100 0.960 . S
H1086 C1100 0.960 1_556 S
H1087 C1100 0.960 1_556 S
C1088 H1080 0.929 . S
C1088 C1089 1.377 . S
C1088 C1090 1.384 . S
C1089 C1088 1.377 . S
C1089 C1095 1.390 . S
C1090 H1081 0.930 . S
C1090 C1088 1.384 . S
C1090 C1091 1.372 . S
C1091 C1090 1.372 . S
C1091 C1092 1.400 . S
C1091 C1096 1.490 . S
C1092 H1082 0.930 . S
C1092 C1091 1.400 . S
C1092 C1095 1.386 . S
H1093 C1109 0.930 . S
H1094 C1110 0.931 . S
C1095 H1083 0.929 . S
C1095 C1089 1.390 . S
C1095 C1092 1.386 . S
C1096 C1091 1.490 . S
C1096 C1098 1.395 1_655 S
C1096 C1099 1.403 1_556 S
H1097 C1103 0.930 . S
C1098 H1084 0.930 . S
C1098 C1096 1.395 1_455 S
C1098 C1101 1.522 . S
C1099 C1096 1.403 1_554 S
C1099 C1100 1.524 . S
C1099 C1103 1.400 . S
C1100 H1085 0.960 . S
C1100 H1086 0.960 1_554 S
C1100 H1087 0.960 1_554 S
C1100 C1099 1.524 . S
C1101 C1098 1.522 . S
C1101 C1102 1.267 1_556 S
C1101 C1105 1.516 . S
C1102 C1101 1.267 1_554 S
C1102 C1103 1.385 1_455 S
C1102 C1104 1.478 . S
C1103 H1097 0.930 . S
C1103 C1099 1.400 . S
C1103 C1102 1.385 1_655 S
C1104 C1102 1.478 . S
C1104 C1106 1.381 . S
C1104 C1110 1.383 . S
C1105 C1101 1.516 . S
C1105 H1111 0.959 . S
C1105 H1112 0.911 1_556 S
C1105 H1113 0.932 1_556 S
C1106 C1104 1.381 . S
C1106 C1107 1.394 . S
C1106 H1114 0.930 . S
C1107 C1106 1.394 . S
C1107 C1108 1.383 . S
C1107 H1115 0.929 . S
C1108 C1107 1.383 . S
C1108 C1109 1.377 . S
C1109 H1093 0.930 . S
C1109 C1108 1.377 . S
C1109 C1110 1.379 . S
C1110 H1094 0.931 . S
C1110 C1104 1.383 . S
C1110 C1109 1.379 . S
H1111 C1105 0.959 . S
H1112 C1105 0.911 1_554 S
H1113 C1105 0.932 1_554 S
H1114 C1106 0.930 . S
H1115 C1107 0.929 . S
H1116 C1124 0.929 . S
H1117 C1126 0.930 . S
H1118 C1128 0.930 . S
H1119 C1131 0.929 . S
H1120 C1134 0.930 . S
H1121 C1136 0.960 . S
H1122 C1136 0.960 . S
H1123 C1136 0.960 . S
C1124 H1116 0.929 . S
C1124 C1125 1.377 . S
C1124 C1126 1.384 . S
C1125 C1124 1.377 . S
C1125 C1131 1.390 . S
C1126 H1117 0.930 . S
C1126 C1124 1.384 . S
C1126 C1127 1.372 . S
C1127 C1126 1.372 . S
C1127 C1128 1.400 . S
C1127 C1132 1.490 . S
C1128 H1118 0.930 . S
C1128 C1127 1.400 . S
C1128 C1131 1.386 . S
H1129 C1145 0.930 . S
H1130 C1146 0.931 . S
C1131 H1119 0.929 . S
C1131 C1125 1.390 . S
C1131 C1128 1.386 . S
C1132 C1127 1.490 . S
C1132 C1134 1.395 . S
C1132 C1135 1.403 . S
H1133 C1139 0.930 . S
C1134 H1120 0.930 . S
C1134 C1132 1.395 . S
C1134 C1137 1.403 1_556 S
C1135 C1132 1.403 . S
C1135 C1136 1.524 . S
C1135 C1139 1.400 1_556 S
C1136 H1121 0.960 . S
C1136 H1122 0.960 . S
C1136 H1123 0.960 . S
C1136 C1135 1.524 . S
C1137 C1134 1.403 1_554 S
C1137 C1138 1.392 . S
C1137 C1141 1.495 . S
C1138 C1137 1.392 . S
C1138 C1139 1.385 . S
C1138 C1140 1.478 . S
C1139 H1133 0.930 . S
C1139 C1135 1.400 1_554 S
C1139 C1138 1.385 . S
C1140 C1138 1.478 . S
C1140 C1142 1.381 . S
C1140 C1146 1.383 . S
C1141 C1137 1.495 . S
C1141 H1147 0.959 . S
C1141 H1148 0.961 . S
C1141 H1149 0.960 . S
C1142 C1140 1.381 . S
C1142 C1143 1.394 . S
C1142 H1150 0.930 . S
C1143 C1142 1.394 . S
C1143 C1144 1.383 . S
C1143 H1151 0.929 . S
C1144 C1143 1.383 . S
C1144 C1145 1.377 . S
C1145 H1129 0.930 . S
C1145 C1144 1.377 . S
C1145 C1146 1.379 . S
C1146 H1130 0.931 . S
C1146 C1140 1.383 . S
C1146 C1145 1.379 . S
H1147 C1141 0.959 . S
H1148 C1141 0.961 . S
H1149 C1141 0.960 . S
H1150 C1142 0.930 . S
H1151 C1143 0.929 . S
H1152 C1160 0.929 . S
H1153 C1162 0.930 1_565 S
H1154 C1164 0.930 . S
H1155 C1167 0.929 . S
H1156 C1170 0.935 . S
H1157 C1172 0.960 . S
H1158 C1172 0.960 1_565 S
H1159 C1172 0.960 . S
C1160 H1152 0.929 . S
C1160 C1161 1.377 . S
C1160 C1162 1.384 . S
C1161 C1160 1.377 . S
C1161 C1167 1.390 . S
C1162 H1153 0.930 1_545 S
C1162 C1160 1.384 . S
C1162 C1163 1.372 . S
C1163 C1162 1.372 . S
C1163 C1164 1.400 . S
C1163 C1168 1.490 . S
C1164 H1154 0.930 . S
C1164 C1163 1.400 . S
C1164 C1167 1.386 . S
H1165 C1181 0.930 . S
H1166 C1182 0.931 1_545 S
C1167 H1155 0.929 . S
C1167 C1161 1.390 . S
C1167 C1164 1.386 . S
C1168 C1163 1.490 . S
C1168 C1170 1.395 1_545 S
C1168 C1171 1.416 . S
H1169 C1175 0.930 . S
C1170 H1156 0.935 . S
C1170 C1168 1.395 1_565 S
C1170 C1173 1.403 . S
C1171 C1168 1.416 . S
C1171 C1172 1.524 . S
C1171 C1175 1.385 1_545 S
C1172 H1157 0.960 . S
C1172 H1158 0.960 1_545 S
C1172 H1159 0.960 . S
C1172 C1171 1.524 . S
C1173 C1170 1.403 . S
C1173 C1174 1.392 . S
C1173 C1177 1.495 . S
C1174 C1173 1.392 . S
C1174 C1175 1.385 . S
C1174 C1176 1.478 . S
C1175 H1169 0.930 . S
C1175 C1171 1.385 1_565 S
C1175 C1174 1.385 . S
C1176 C1174 1.478 . S
C1176 C1178 1.381 . S
C1176 C1182 1.383 . S
C1177 C1173 1.495 . S
C1177 H1183 0.959 . S
C1177 H1184 0.961 . S
C1177 H1185 0.960 . S
C1178 C1176 1.381 . S
C1178 C1179 1.394 . S
C1178 H1186 0.930 . S
C1179 C1178 1.394 . S
C1179 C1180 1.383 . S
C1179 H1187 0.929 . S
C1180 C1179 1.383 . S
C1180 C1181 1.377 . S
C1181 H1165 0.930 . S
C1181 C1180 1.377 . S
C1181 C1182 1.379 . S
C1182 H1166 0.931 1_565 S
C1182 C1176 1.383 . S
C1182 C1181 1.379 . S
H1183 C1177 0.959 . S
H1184 C1177 0.961 . S
H1185 C1177 0.960 . S
H1186 C1178 0.930 . S
H1187 C1179 0.929 . S
H1188 C1196 0.929 . S
H1189 C1198 0.930 . S
H1190 C1200 0.930 1_655 S
H1191 C1203 0.929 . S
H1192 C1206 0.930 . S
H1193 C1208 0.960 . S
H1194 C1208 0.960 1_455 S
H1195 C1208 0.960 . S
C1196 H1188 0.929 . S
C1196 C1197 1.377 . S
C1196 C1198 1.384 . S
C1197 C1196 1.377 . S
C1197 C1203 1.390 . S
C1198 H1189 0.930 . S
C1198 C1196 1.384 . S
C1198 C1199 1.372 . S
C1199 C1198 1.372 . S
C1199 C1200 1.400 . S
C1199 C1204 1.490 . S
C1200 H1190 0.930 1_455 S
C1200 C1199 1.400 . S
C1200 C1203 1.386 . S
H1201 C1217 0.930 . S
H1202 C1218 0.931 . S
C1203 H1191 0.929 . S
C1203 C1197 1.390 . S
C1203 C1200 1.386 . S
C1204 C1199 1.490 . S
C1204 C1206 1.395 . S
C1204 C1207 1.403 . S
H1205 C1211 0.930 . S
C1206 H1192 0.930 . S
C1206 C1204 1.395 . S
C1206 C1209 1.403 . S
C1207 C1204 1.403 . S
C1207 C1208 1.524 1_455 S
C1207 C1211 1.400 1_455 S
C1208 H1193 0.960 . S
C1208 H1194 0.960 1_655 S
C1208 H1195 0.960 . S
C1208 C1207 1.524 1_655 S
C1209 C1206 1.403 . S
C1209 C1210 1.392 1_455 S
C1209 C1213 1.495 . S
C1210 C1209 1.392 1_655 S
C1210 C1211 1.385 . S
C1210 C1212 1.478 . S
C1211 H1205 0.930 . S
C1211 C1207 1.400 1_655 S
C1211 C1210 1.385 . S
C1212 C1210 1.478 . S
C1212 C1214 1.381 . S
C1212 C1218 1.383 . S
C1213 C1209 1.495 . S
C1213 H1219 0.959 . S
C1213 H1220 0.958 1_455 S
C1213 H1221 0.960 . S
C1214 C1212 1.381 . S
C1214 C1215 1.394 . S
C1214 H1222 0.930 1_655 S
C1215 C1214 1.394 . S
C1215 C1216 1.383 . S
C1215 H1223 0.929 . S
C1216 C1215 1.383 . S
C1216 C1217 1.377 . S
C1217 H1201 0.930 . S
C1217 C1216 1.377 . S
C1217 C1218 1.379 . S
C1218 H1202 0.931 . S
C1218 C1212 1.383 . S
C1218 C1217 1.379 . S
H1219 C1213 0.959 . S
H1220 C1213 0.958 1_655 S
H1221 C1213 0.960 . S
H1222 C1214 0.930 1_455 S
H1223 C1215 0.929 . S
H1224 C1232 0.929 . S
H1225 C1234 0.930 . S
H1226 C1236 0.930 . S
H1227 C1239 0.929 . S
H1228 C1242 0.930 . S
H1229 C1244 0.960 . S
H1230 C1244 0.960 . S
H1231 C1244 0.960 . S
C1232 H1224 0.929 . S
C1232 C1233 1.377 . S
C1232 C1234 1.384 . S
C1233 C1232 1.377 . S
C1233 C1239 1.390 . S
C1234 H1225 0.930 . S
C1234 C1232 1.384 . S
C1234 C1235 1.372 . S
C1235 C1234 1.372 . S
C1235 C1236 1.400 . S
C1235 C1240 1.490 . S
C1236 H1226 0.930 . S
C1236 C1235 1.400 . S
C1236 C1239 1.386 . S
H1237 C1253 0.930 . S
H1238 C1254 0.931 . S
C1239 H1227 0.929 . S
C1239 C1233 1.390 . S
C1239 C1236 1.386 . S
C1240 C1235 1.490 . S
C1240 C1242 1.395 . S
C1240 C1243 1.403 . S
H1241 C1247 0.930 . S
C1242 H1228 0.930 . S
C1242 C1240 1.395 . S
C1242 C1245 1.403 . S
C1243 C1240 1.403 . S
C1243 C1244 1.524 . S
C1243 C1247 1.400 . S
C1244 H1229 0.960 . S
C1244 H1230 0.960 . S
C1244 H1231 0.960 . S
C1244 C1243 1.524 . S
C1245 C1242 1.403 . S
C1245 C1246 1.392 . S
C1245 C1249 1.495 . S
C1246 C1245 1.392 . S
C1246 C1247 1.385 . S
C1246 C1248 1.478 . S
C1247 H1241 0.930 . S
C1247 C1243 1.400 . S
C1247 C1246 1.385 . S
C1248 C1246 1.478 . S
C1248 C1250 1.381 . S
C1248 C1254 1.383 . S
C1249 C1245 1.495 . S
C1249 H1255 0.959 . S
C1249 H1256 0.961 . S
C1249 H1257 0.960 . S
C1250 C1248 1.381 . S
C1250 C1251 1.394 . S
C1250 H1258 0.930 . S
C1251 C1250 1.394 . S
C1251 C1252 1.383 . S
C1251 H1259 0.929 . S
C1252 C1251 1.383 . S
C1252 C1253 1.377 . S
C1253 H1237 0.930 . S
C1253 C1252 1.377 . S
C1253 C1254 1.379 . S
C1254 H1238 0.931 . S
C1254 C1248 1.383 . S
C1254 C1253 1.379 . S
H1255 C1249 0.959 . S
H1256 C1249 0.961 . S
H1257 C1249 0.960 . S
H1258 C1250 0.930 . S
H1259 C1251 0.929 . S
H1260 C1268 0.929 . S
H1261 C1270 0.930 1_455 S
H1262 C1272 0.930 . S
H1263 C1275 0.929 . S
H1264 C1278 0.934 . S
H1265 C1280 0.960 . S
H1266 C1280 0.960 . S
H1267 C1280 0.960 . S
C1268 H1260 0.929 . S
C1268 C1269 1.377 . S
C1268 C1270 1.384 . S
C1269 C1268 1.377 . S
C1269 C1275 1.390 . S
C1270 H1261 0.930 1_655 S
C1270 C1268 1.384 . S
C1270 C1271 1.372 . S
C1271 C1270 1.372 . S
C1271 C1272 1.400 . S
C1271 C1276 1.490 . S
C1272 H1262 0.930 . S
C1272 C1271 1.400 . S
C1272 C1275 1.386 . S
H1273 C1289 0.930 . S
H1274 C1290 0.931 1_655 S
C1275 H1263 0.929 . S
C1275 C1269 1.390 . S
C1275 C1272 1.386 . S
C1276 C1271 1.490 . S
C1276 C1278 1.360 1_655 S
C1276 C1279 1.403 . S
H1277 C1283 0.930 . S
C1278 H1264 0.934 . S
C1278 C1276 1.360 1_455 S
C1278 C1281 1.435 . S
C1279 C1276 1.403 . S
C1279 C1280 1.524 . S
C1279 C1283 1.400 . S
C1280 H1265 0.960 . S
C1280 H1266 0.960 . S
C1280 H1267 0.960 . S
C1280 C1279 1.524 . S
C1281 C1278 1.435 . S
C1281 C1282 1.392 . S
C1281 C1285 1.495 . S
C1282 C1281 1.392 . S
C1282 C1283 1.385 1_455 S
C1282 C1284 1.478 . S
C1283 H1277 0.930 . S
C1283 C1279 1.400 . S
C1283 C1282 1.385 1_655 S
C1284 C1282 1.478 . S
C1284 C1286 1.381 . S
C1284 C1290 1.383 . S
C1285 C1281 1.495 . S
C1285 H1291 0.959 . S
C1285 H1292 0.961 . S
C1285 H1293 0.960 . S
C1286 C1284 1.381 . S
C1286 C1287 1.394 . S
C1286 H1294 0.930 . S
C1287 C1286 1.394 . S
C1287 C1288 1.383 . S
C1287 H1295 0.929 . S
C1288 C1287 1.383 . S
C1288 C1289 1.377 . S
C1289 H1273 0.930 . S
C1289 C1288 1.377 . S
C1289 C1290 1.379 . S
C1290 H1274 0.931 1_455 S
C1290 C1284 1.383 . S
C1290 C1289 1.379 . S
H1291 C1285 0.959 . S
H1292 C1285 0.961 . S
H1293 C1285 0.960 . S
H1294 C1286 0.930 . S
H1295 C1287 0.929 . S
H1296 C1304 0.929 . S
H1297 C1306 0.930 . S
H1298 C1308 0.930 . S
H1299 C1311 0.929 . S
H1300 C1314 0.930 . S
H1301 C1316 0.960 . S
H1302 C1316 0.960 . S
H1303 C1316 0.960 . S
C1304 H1296 0.929 . S
C1304 C1305 1.377 . S
C1304 C1306 1.384 . S
C1305 C1304 1.377 . S
C1305 C1311 1.390 . S
C1306 H1297 0.930 . S
C1306 C1304 1.384 . S
C1306 C1307 1.372 . S
C1307 C1306 1.372 . S
C1307 C1308 1.400 . S
C1307 C1312 1.490 . S
C1308 H1298 0.930 . S
C1308 C1307 1.400 . S
C1308 C1311 1.386 . S
H1309 C1325 0.930 . S
H1310 C1326 0.931 . S
C1311 H1299 0.929 . S
C1311 C1305 1.390 . S
C1311 C1308 1.386 . S
C1312 C1307 1.490 . S
C1312 C1314 1.395 . S
C1312 C1315 1.403 . S
H1313 C1319 0.930 . S
C1314 H1300 0.930 . S
C1314 C1312 1.395 . S
C1314 C1317 1.403 . S
C1315 C1312 1.403 . S
C1315 C1316 1.524 . S
C1315 C1319 1.400 . S
C1316 H1301 0.960 . S
C1316 H1302 0.960 . S
C1316 H1303 0.960 . S
C1316 C1315 1.524 . S
C1317 C1314 1.403 . S
C1317 C1318 1.392 . S
C1317 C1321 1.495 . S
C1318 C1317 1.392 . S
C1318 C1319 1.385 . S
C1318 C1320 1.478 . S
C1319 H1313 0.930 . S
C1319 C1315 1.400 . S
C1319 C1318 1.385 . S
C1320 C1318 1.478 . S
C1320 C1322 1.381 . S
C1320 C1326 1.383 . S
C1321 C1317 1.495 . S
C1321 H1327 0.959 . S
C1321 H1328 0.961 . S
C1321 H1329 0.960 . S
C1322 C1320 1.381 . S
C1322 C1323 1.394 . S
C1322 H1330 0.930 . S
C1323 C1322 1.394 . S
C1323 C1324 1.383 . S
C1323 H1331 0.929 . S
C1324 C1323 1.383 . S
C1324 C1325 1.377 . S
C1325 H1309 0.930 . S
C1325 C1324 1.377 . S
C1325 C1326 1.379 . S
C1326 H1310 0.931 . S
C1326 C1320 1.383 . S
C1326 C1325 1.379 . S
H1327 C1321 0.959 . S
H1328 C1321 0.961 . S
H1329 C1321 0.960 . S
H1330 C1322 0.930 . S
H1331 C1323 0.929 . S
H1332 C1340 0.929 . S
H1333 C1342 0.930 . S
H1334 C1344 0.930 . S
H1335 C1347 0.929 . S
H1336 C1350 0.930 . S
H1337 C1352 0.960 . S
H1338 C1352 0.960 . S
H1339 C1352 0.960 1_545 S
C1340 H1332 0.929 . S
C1340 C1341 1.377 . S
C1340 C1342 1.384 . S
C1341 C1340 1.377 . S
C1341 C1347 1.390 . S
C1342 H1333 0.930 . S
C1342 C1340 1.384 . S
C1342 C1343 1.372 . S
C1343 C1342 1.372 . S
C1343 C1344 1.400 . S
C1343 C1348 1.490 . S
C1344 H1334 0.930 . S
C1344 C1343 1.400 . S
C1344 C1347 1.386 . S
H1345 C1361 0.930 . S
H1346 C1362 0.931 1_545 S
C1347 H1335 0.929 . S
C1347 C1341 1.390 . S
C1347 C1344 1.386 . S
C1348 C1343 1.490 . S
C1348 C1350 1.395 . S
C1348 C1351 1.403 . S
H1349 C1355 0.930 . S
C1350 H1336 0.930 . S
C1350 C1348 1.395 . S
C1350 C1353 1.403 . S
C1351 C1348 1.403 . S
C1351 C1352 1.524 1_545 S
C1351 C1355 1.400 1_545 S
C1352 H1337 0.960 . S
C1352 H1338 0.960 . S
C1352 H1339 0.960 1_565 S
C1352 C1351 1.524 1_565 S
C1353 C1350 1.403 . S
C1353 C1354 1.392 1_545 S
C1353 C1357 1.495 . S
C1354 C1353 1.392 1_565 S
C1354 C1355 1.385 . S
C1354 C1356 1.478 . S
C1355 H1349 0.930 . S
C1355 C1351 1.400 1_565 S
C1355 C1354 1.385 . S
C1356 C1354 1.478 . S
C1356 C1358 1.381 . S
C1356 C1362 1.383 . S
C1357 C1353 1.495 . S
C1357 H1363 0.959 . S
C1357 H1364 0.961 . S
C1357 H1365 0.960 1_545 S
C1358 C1356 1.381 . S
C1358 C1359 1.394 . S
C1358 H1366 0.930 . S
C1359 C1358 1.394 . S
C1359 C1360 1.383 . S
C1359 H1367 0.929 . S
C1360 C1359 1.383 . S
C1360 C1361 1.377 . S
C1361 H1345 0.930 . S
C1361 C1360 1.377 . S
C1361 C1362 1.379 . S
C1362 H1346 0.931 1_565 S
C1362 C1356 1.383 . S
C1362 C1361 1.379 . S
H1363 C1357 0.959 . S
H1364 C1357 0.961 . S
H1365 C1357 0.960 1_565 S
H1366 C1358 0.930 . S
H1367 C1359 0.929 . S
H1368 C1376 0.929 . S
H1369 C1378 0.930 . S
H1370 C1380 0.930 1_545 S
H1371 C1383 0.929 . S
H1372 C1386 0.930 . S
H1373 C1388 0.960 . S
H1374 C1388 0.960 . S
H1375 C1388 0.960 . S
C1376 H1368 0.929 . S
C1376 C1377 1.377 . S
C1376 C1378 1.384 . S
C1377 C1376 1.377 . S
C1377 C1383 1.390 . S
C1378 H1369 0.930 . S
C1378 C1376 1.384 . S
C1378 C1379 1.372 . S
C1379 C1378 1.372 . S
C1379 C1380 1.400 . S
C1379 C1384 1.490 . S
C1380 H1370 0.930 1_565 S
C1380 C1379 1.400 . S
C1380 C1383 1.386 . S
H1381 C1397 0.930 . S
H1382 C1398 0.931 . S
C1383 H1371 0.929 . S
C1383 C1377 1.390 . S
C1383 C1380 1.386 . S
C1384 C1379 1.490 . S
C1384 C1386 1.395 . S
C1384 C1387 1.403 1_565 S
H1385 C1391 0.930 . S
C1386 H1372 0.930 . S
C1386 C1384 1.395 . S
C1386 C1389 1.403 . S
C1387 C1384 1.403 1_545 S
C1387 C1388 1.524 . S
C1387 C1391 1.400 . S
C1388 H1373 0.960 . S
C1388 H1374 0.960 . S
C1388 H1375 0.960 . S
C1388 C1387 1.524 . S
C1389 C1386 1.403 . S
C1389 C1390 1.392 1_565 S
C1389 C1393 1.495 . S
C1390 C1389 1.392 1_545 S
C1390 C1391 1.385 . S
C1390 C1392 1.478 . S
C1391 H1385 0.930 . S
C1391 C1387 1.400 . S
C1391 C1390 1.385 . S
C1392 C1390 1.478 . S
C1392 C1394 1.381 . S
C1392 C1398 1.383 . S
C1393 C1389 1.495 . S
C1393 H1399 0.959 . S
C1393 H1400 0.961 . S
C1393 H1401 0.960 . S
C1394 C1392 1.381 . S
C1394 C1395 1.394 . S
C1394 H1402 0.930 1_545 S
C1395 C1394 1.394 . S
C1395 C1396 1.383 . S
C1395 H1403 0.929 . S
C1396 C1395 1.383 . S
C1396 C1397 1.377 . S
C1397 H1381 0.930 . S
C1397 C1396 1.377 . S
C1397 C1398 1.379 . S
C1398 H1382 0.931 . S
C1398 C1392 1.383 . S
C1398 C1397 1.379 . S
H1399 C1393 0.959 . S
H1400 C1393 0.961 . S
H1401 C1393 0.960 . S
H1402 C1394 0.930 1_565 S
H1403 C1395 0.929 . S
H1404 C1412 0.929 . S
H1405 C1414 0.930 . S
H1406 C1416 0.930 1_455 S
H1407 C1419 0.929 . S
H1408 C1422 0.930 . S
H1409 C1424 0.960 . S
H1410 C1424 0.960 1_655 S
H1411 C1424 0.960 . S
C1412 H1404 0.929 . S
C1412 C1413 1.377 . S
C1412 C1414 1.384 . S
C1413 C1412 1.377 . S
C1413 C1419 1.390 . S
C1414 H1405 0.930 . S
C1414 C1412 1.384 . S
C1414 C1415 1.372 . S
C1415 C1414 1.372 . S
C1415 C1416 1.400 . S
C1415 C1420 1.490 . S
C1416 H1406 0.930 1_655 S
C1416 C1415 1.400 . S
C1416 C1419 1.386 . S
H1417 C1433 0.930 . S
H1418 C1434 0.931 . S
C1419 H1407 0.929 . S
C1419 C1413 1.390 . S
C1419 C1416 1.386 . S
C1420 C1415 1.490 . S
C1420 C1422 1.395 . S
C1420 C1423 1.406 . S
H1421 C1427 0.930 . S
C1422 H1408 0.930 . S
C1422 C1420 1.395 . S
C1422 C1425 1.403 . S
C1423 C1420 1.406 . S
C1423 C1424 1.520 1_655 S
C1423 C1427 1.400 1_655 S
C1424 H1409 0.960 . S
C1424 H1410 0.960 1_455 S
C1424 H1411 0.960 . S
C1424 C1423 1.520 1_455 S
C1425 C1422 1.403 . S
C1425 C1426 1.392 1_655 S
C1425 C1429 1.495 . S
C1426 C1425 1.392 1_455 S
C1426 C1427 1.385 . S
C1426 C1428 1.478 . S
C1427 H1421 0.930 . S
C1427 C1423 1.400 1_455 S
C1427 C1426 1.385 . S
C1428 C1426 1.478 . S
C1428 C1430 1.412 . S
C1428 C1434 1.383 . S
C1429 C1425 1.495 . S
C1429 H1435 0.959 . S
C1429 H1436 0.961 . S
C1429 H1437 0.960 . S
C1430 C1428 1.412 . S
C1430 C1431 1.397 . S
C1430 H1438 0.898 1_455 S
C1431 C1430 1.397 . S
C1431 C1432 1.383 . S
C1431 H1439 0.929 . S
C1432 C1431 1.383 . S
C1432 C1433 1.377 . S
C1433 H1417 0.930 . S
C1433 C1432 1.377 . S
C1433 C1434 1.379 . S
C1434 H1418 0.931 . S
C1434 C1428 1.383 . S
C1434 C1433 1.379 . S
H1435 C1429 0.959 . S
H1436 C1429 0.961 . S
H1437 C1429 0.960 . S
H1438 C1430 0.898 1_655 S
H1439 C1431 0.929 . S
H1440 C1448 0.929 . S
H1441 C1450 0.930 . S
H1442 C1452 0.930 . S
H1443 C1455 0.929 . S
H1444 C1458 0.930 . S
H1445 C1460 0.960 . S
H1446 C1460 0.960 . S
H1447 C1460 0.960 . S
C1448 H1440 0.929 . S
C1448 C1449 1.377 . S
C1448 C1450 1.384 . S
C1449 C1448 1.377 . S
C1449 C1455 1.390 . S
C1450 H1441 0.930 . S
C1450 C1448 1.384 . S
C1450 C1451 1.372 . S
C1451 C1450 1.372 . S
C1451 C1452 1.400 . S
C1451 C1456 1.490 . S
C1452 H1442 0.930 . S
C1452 C1451 1.400 . S
C1452 C1455 1.386 . S
H1453 C1469 0.930 . S
H1454 C1470 0.931 . S
C1455 H1443 0.929 . S
C1455 C1449 1.390 . S
C1455 C1452 1.386 . S
C1456 C1451 1.490 . S
C1456 C1458 1.395 . S
C1456 C1459 1.403 . S
H1457 C1463 0.930 . S
C1458 H1444 0.930 . S
C1458 C1456 1.395 . S
C1458 C1461 1.403 . S
C1459 C1456 1.403 . S
C1459 C1460 1.524 . S
C1459 C1463 1.400 . S
C1460 H1445 0.960 . S
C1460 H1446 0.960 . S
C1460 H1447 0.960 . S
C1460 C1459 1.524 . S
C1461 C1458 1.403 . S
C1461 C1462 1.392 . S
C1461 C1465 1.495 . S
C1462 C1461 1.392 . S
C1462 C1463 1.385 . S
C1462 C1464 1.478 . S
C1463 H1457 0.930 . S
C1463 C1459 1.400 . S
C1463 C1462 1.385 . S
C1464 C1462 1.478 . S
C1464 C1466 1.381 . S
C1464 C1470 1.383 . S
C1465 C1461 1.495 . S
C1465 H1471 0.959 . S
C1465 H1472 0.961 . S
C1465 H1473 0.960 . S
C1466 C1464 1.381 . S
C1466 C1467 1.394 . S
C1466 H1474 0.930 . S
C1467 C1466 1.394 . S
C1467 C1468 1.383 . S
C1467 H1475 0.929 . S
C1468 C1467 1.383 . S
C1468 C1469 1.377 . S
C1469 H1453 0.930 . S
C1469 C1468 1.377 . S
C1469 C1470 1.379 . S
C1470 H1454 0.931 . S
C1470 C1464 1.383 . S
C1470 C1469 1.379 . S
H1471 C1465 0.959 . S
H1472 C1465 0.961 . S
H1473 C1465 0.960 . S
H1474 C1466 0.930 . S
H1475 C1467 0.929 . S
H1476 C1484 0.929 . S
H1477 C1486 0.930 1_455 S
H1478 C1488 0.930 . S
H1479 C1491 0.929 . S
H1480 C1494 0.930 . S
H1481 C1496 0.960 . S
H1482 C1496 0.960 . S
H1483 C1496 0.960 . S
C1484 H1476 0.929 . S
C1484 C1485 1.377 . S
C1484 C1486 1.384 . S
C1485 C1484 1.377 . S
C1485 C1491 1.390 . S
C1486 H1477 0.930 1_655 S
C1486 C1484 1.384 . S
C1486 C1487 1.372 . S
C1487 C1486 1.372 . S
C1487 C1488 1.400 . S
C1487 C1492 1.490 . S
C1488 H1478 0.930 . S
C1488 C1487 1.400 . S
C1488 C1491 1.386 . S
H1489 C1505 0.930 . S
H1490 C1506 0.899 1_655 S
C1491 H1479 0.929 . S
C1491 C1485 1.390 . S
C1491 C1488 1.386 . S
C1492 C1487 1.490 . S
C1492 C1494 1.395 1_655 S
C1492 C1495 1.403 . S
H1493 C1499 0.928 1_655 S
C1494 H1480 0.930 . S
C1494 C1492 1.395 1_455 S
C1494 C1497 1.403 . S
C1495 C1492 1.403 . S
C1495 C1496 1.524 . S
C1495 C1499 1.387 1_655 S
C1496 H1481 0.960 . S
C1496 H1482 0.960 . S
C1496 H1483 0.960 . S
C1496 C1495 1.524 . S
C1497 C1494 1.403 . S
C1497 C1498 1.392 . S
C1497 C1501 1.495 . S
C1498 C1497 1.392 . S
C1498 C1499 1.400 . S
C1498 C1500 1.478 . S
C1499 H1493 0.928 1_455 S
C1499 C1495 1.387 1_455 S
C1499 C1498 1.400 . S
C1500 C1498 1.478 . S
C1500 C1502 1.381 . S
C1500 C1506 1.383 . S
C1501 C1497 1.495 . S
C1501 H1507 0.959 . S
C1501 H1508 0.961 . S
C1501 H1509 0.960 . S
C1502 C1500 1.381 . S
C1502 C1503 1.394 . S
C1502 H1510 0.930 . S
C1503 C1502 1.394 . S
C1503 C1504 1.383 . S
C1503 H1511 0.929 . S
C1504 C1503 1.383 . S
C1504 C1505 1.377 . S
C1505 H1489 0.930 . S
C1505 C1504 1.377 . S
C1505 C1506 1.379 . S
C1506 H1490 0.899 1_455 S
C1506 C1500 1.383 . S
C1506 C1505 1.379 . S
H1507 C1501 0.959 . S
H1508 C1501 0.961 . S
H1509 C1501 0.960 . S
H1510 C1502 0.930 . S
H1511 C1503 0.929 . S
H1512 C1520 0.929 . S
H1513 C1522 0.930 . S
H1514 C1524 0.930 . S
H1515 C1527 0.929 . S
H1516 C1530 0.930 . S
H1517 C1532 0.960 . S
H1518 C1532 0.960 . S
H1519 C1532 0.960 . S
C1520 H1512 0.929 . S
C1520 C1521 1.377 . S
C1520 C1522 1.384 . S
C1521 C1520 1.377 . S
C1521 C1527 1.390 . S
C1522 H1513 0.930 . S
C1522 C1520 1.384 . S
C1522 C1523 1.372 . S
C1523 C1522 1.372 . S
C1523 C1524 1.400 . S
C1523 C1528 1.490 . S
C1524 H1514 0.930 . S
C1524 C1523 1.400 . S
C1524 C1527 1.386 . S
H1525 C1541 0.930 . S
H1526 C1542 0.931 . S
C1527 H1515 0.929 . S
C1527 C1521 1.390 . S
C1527 C1524 1.386 . S
C1528 C1523 1.490 . S
C1528 C1530 1.395 . S
C1528 C1531 1.403 . S
H1529 C1535 0.930 . S
C1530 H1516 0.930 . S
C1530 C1528 1.395 . S
C1530 C1533 1.403 . S
C1531 C1528 1.403 . S
C1531 C1532 1.524 . S
C1531 C1535 1.400 . S
C1532 H1517 0.960 . S
C1532 H1518 0.960 . S
C1532 H1519 0.960 . S
C1532 C1531 1.524 . S
C1533 C1530 1.403 . S
C1533 C1534 1.392 . S
C1533 C1537 1.495 . S
C1534 C1533 1.392 . S
C1534 C1535 1.385 . S
C1534 C1536 1.478 . S
C1535 H1529 0.930 . S
C1535 C1531 1.400 . S
C1535 C1534 1.385 . S
C1536 C1534 1.478 . S
C1536 C1538 1.381 . S
C1536 C1542 1.383 . S
C1537 C1533 1.495 . S
C1537 H1543 0.959 . S
C1537 H1544 0.961 . S
C1537 H1545 0.960 . S
C1538 C1536 1.381 . S
C1538 C1539 1.394 . S
C1538 H1546 0.930 . S
C1539 C1538 1.394 . S
C1539 C1540 1.383 . S
C1539 H1547 0.929 . S
C1540 C1539 1.383 . S
C1540 C1541 1.377 . S
C1541 H1525 0.930 . S
C1541 C1540 1.377 . S
C1541 C1542 1.379 . S
C1542 H1526 0.931 . S
C1542 C1536 1.383 . S
C1542 C1541 1.379 . S
H1543 C1537 0.959 . S
H1544 C1537 0.961 . S
H1545 C1537 0.960 . S
H1546 C1538 0.930 . S
H1547 C1539 0.929 . S
H1548 C1556 0.929 . S
H1549 C1558 0.930 . S
H1550 C1560 0.930 . S
H1551 C1563 0.929 . S
H1552 C1566 0.930 . S
H1553 C1568 0.960 . S
H1554 C1568 0.960 . S
H1555 C1568 0.960 . S
C1556 H1548 0.929 . S
C1556 C1557 1.377 . S
C1556 C1558 1.384 . S
C1557 C1556 1.377 . S
C1557 C1563 1.390 . S
C1558 H1549 0.930 . S
C1558 C1556 1.384 . S
C1558 C1559 1.372 . S
C1559 C1558 1.372 . S
C1559 C1560 1.400 . S
C1559 C1564 1.490 . S
C1560 H1550 0.930 . S
C1560 C1559 1.400 . S
C1560 C1563 1.386 . S
H1561 C1577 0.930 . S
H1562 C1578 0.931 . S
C1563 H1551 0.929 . S
C1563 C1557 1.390 . S
C1563 C1560 1.386 . S
C1564 C1559 1.490 . S
C1564 C1566 1.395 1_545 S
C1564 C1567 1.403 . S
H1565 C1571 0.930 . S
C1566 H1552 0.930 . S
C1566 C1564 1.395 1_565 S
C1566 C1569 1.403 . S
C1567 C1564 1.403 . S
C1567 C1568 1.524 . S
C1567 C1571 1.400 . S
C1568 H1553 0.960 . S
C1568 H1554 0.960 . S
C1568 H1555 0.960 . S
C1568 C1567 1.524 . S
C1569 C1566 1.403 . S
C1569 C1570 1.392 . S
C1569 C1573 1.495 . S
C1570 C1569 1.392 . S
C1570 C1571 1.385 1_565 S
C1570 C1572 1.478 . S
C1571 H1565 0.930 . S
C1571 C1567 1.400 . S
C1571 C1570 1.385 1_545 S
C1572 C1570 1.478 . S
C1572 C1574 1.381 . S
C1572 C1578 1.383 . S
C1573 C1569 1.495 . S
C1573 H1579 0.959 . S
C1573 H1580 0.961 . S
C1573 H1581 0.960 . S
C1574 C1572 1.381 . S
C1574 C1575 1.394 . S
C1574 H1582 0.930 . S
C1575 C1574 1.394 . S
C1575 C1576 1.383 . S
C1575 H1583 0.929 . S
C1576 C1575 1.383 . S
C1576 C1577 1.377 . S
C1577 H1561 0.930 . S
C1577 C1576 1.377 . S
C1577 C1578 1.379 . S
C1578 H1562 0.931 . S
C1578 C1572 1.383 . S
C1578 C1577 1.379 . S
H1579 C1573 0.959 . S
H1580 C1573 0.961 . S
H1581 C1573 0.960 . S
H1582 C1574 0.930 . S
H1583 C1575 0.929 . S
H1584 C1592 0.929 . S
H1585 C1594 0.930 . S
H1586 C1596 0.930 . S
H1587 C1599 0.929 . S
H1588 C1602 0.930 . S
H1589 C1604 0.960 . S
H1590 C1604 0.960 . S
H1591 C1604 0.960 . S
C1592 H1584 0.929 . S
C1592 C1593 1.377 . S
C1592 C1594 1.384 . S
C1593 C1592 1.377 . S
C1593 C1599 1.390 . S
C1594 H1585 0.930 . S
C1594 C1592 1.384 . S
C1594 C1595 1.372 . S
C1595 C1594 1.372 . S
C1595 C1596 1.400 . S
C1595 C1600 1.490 . S
C1596 H1586 0.930 . S
C1596 C1595 1.400 . S
C1596 C1599 1.386 . S
H1597 C1613 0.930 . S
H1598 C1614 0.931 . S
C1599 H1587 0.929 . S
C1599 C1593 1.390 . S
C1599 C1596 1.386 . S
C1600 C1595 1.490 . S
C1600 C1602 1.395 . S
C1600 C1603 1.403 . S
H1601 C1607 0.930 . S
C1602 H1588 0.930 . S
C1602 C1600 1.395 . S
C1602 C1605 1.403 . S
C1603 C1600 1.403 . S
C1603 C1604 1.524 . S
C1603 C1607 1.400 . S
C1604 H1589 0.960 . S
C1604 H1590 0.960 . S
C1604 H1591 0.960 . S
C1604 C1603 1.524 . S
C1605 C1602 1.403 . S
C1605 C1606 1.392 . S
C1605 C1609 1.495 . S
C1606 C1605 1.392 . S
C1606 C1607 1.385 . S
C1606 C1608 1.478 . S
C1607 H1601 0.930 . S
C1607 C1603 1.400 . S
C1607 C1606 1.385 . S
C1608 C1606 1.478 . S
C1608 C1610 1.381 . S
C1608 C1614 1.383 . S
C1609 C1605 1.495 . S
C1609 H1615 0.959 . S
C1609 H1616 0.961 . S
C1609 H1617 0.960 . S
C1610 C1608 1.381 . S
C1610 C1611 1.394 . S
C1610 H1618 0.930 . S
C1611 C1610 1.394 . S
C1611 C1612 1.383 . S
C1611 H1619 0.929 . S
C1612 C1611 1.383 . S
C1612 C1613 1.377 . S
C1613 H1597 0.930 . S
C1613 C1612 1.377 . S
C1613 C1614 1.379 . S
C1614 H1598 0.931 . S
C1614 C1608 1.383 . S
C1614 C1613 1.379 . S
H1615 C1609 0.959 . S
H1616 C1609 0.961 . S
H1617 C1609 0.960 . S
H1618 C1610 0.930 . S
H1619 C1611 0.929 . S
H1620 C1628 0.929 . S
H1621 C1630 0.930 . S
H1622 C1632 0.930 . S
H1623 C1635 0.929 . S
H1624 C1638 0.930 . S
H1625 C1640 0.960 . S
H1626 C1640 0.960 . S
H1627 C1640 0.960 . S
C1628 H1620 0.929 . S
C1628 C1629 1.377 . S
C1628 C1630 1.384 . S
C1629 C1628 1.377 . S
C1629 C1635 1.390 . S
C1630 H1621 0.930 . S
C1630 C1628 1.384 . S
C1630 C1631 1.372 . S
C1631 C1630 1.372 . S
C1631 C1632 1.400 . S
C1631 C1636 1.490 . S
C1632 H1622 0.930 . S
C1632 C1631 1.400 . S
C1632 C1635 1.386 . S
H1633 C1649 0.930 . S
H1634 C1650 0.931 . S
C1635 H1623 0.929 . S
C1635 C1629 1.390 . S
C1635 C1632 1.386 . S
C1636 C1631 1.490 . S
C1636 C1638 1.395 . S
C1636 C1639 1.403 . S
H1637 C1643 0.930 . S
C1638 H1624 0.930 . S
C1638 C1636 1.395 . S
C1638 C1641 1.403 1_545 S
C1639 C1636 1.403 . S
C1639 C1640 1.524 . S
C1639 C1643 1.400 1_545 S
C1640 H1625 0.960 . S
C1640 H1626 0.960 . S
C1640 H1627 0.960 . S
C1640 C1639 1.524 . S
C1641 C1638 1.403 1_565 S
C1641 C1642 1.392 . S
C1641 C1645 1.495 . S
C1642 C1641 1.392 . S
C1642 C1643 1.385 . S
C1642 C1644 1.478 . S
C1643 H1637 0.930 . S
C1643 C1639 1.400 1_565 S
C1643 C1642 1.385 . S
C1644 C1642 1.478 . S
C1644 C1646 1.381 . S
C1644 C1650 1.383 . S
C1645 C1641 1.495 . S
C1645 H1651 0.959 . S
C1645 H1652 0.961 . S
C1645 H1653 0.960 . S
C1646 C1644 1.381 . S
C1646 C1647 1.394 . S
C1646 H1654 0.930 . S
C1647 C1646 1.394 . S
C1647 C1648 1.383 . S
C1647 H1655 0.929 . S
C1648 C1647 1.383 . S
C1648 C1649 1.377 . S
C1649 H1633 0.930 . S
C1649 C1648 1.377 . S
C1649 C1650 1.379 . S
C1650 H1634 0.931 . S
C1650 C1644 1.383 . S
C1650 C1649 1.379 . S
H1651 C1645 0.959 . S
H1652 C1645 0.961 . S
H1653 C1645 0.960 . S
H1654 C1646 0.930 . S
H1655 C1647 0.929 . S
H1656 C1664 0.929 . S
H1657 C1666 0.930 . S
H1658 C1668 0.930 . S
H1659 C1671 0.929 . S
H1660 C1674 0.930 . S
H1661 C1676 0.960 . S
H1662 C1676 0.960 1_655 S
H1663 C1676 0.960 . S
C1664 H1656 0.929 . S
C1664 C1665 1.377 . S
C1664 C1666 1.384 . S
C1665 C1664 1.377 . S
C1665 C1671 1.390 . S
C1666 H1657 0.930 . S
C1666 C1664 1.384 . S
C1666 C1667 1.372 . S
C1667 C1666 1.372 . S
C1667 C1668 1.400 . S
C1667 C1672 1.490 . S
C1668 H1658 0.930 . S
C1668 C1667 1.400 . S
C1668 C1671 1.386 . S
H1669 C1685 0.930 . S
H1670 C1686 0.931 . S
C1671 H1659 0.929 . S
C1671 C1665 1.390 . S
C1671 C1668 1.386 . S
C1672 C1667 1.490 . S
C1672 C1674 1.395 . S
C1672 C1675 1.393 1_655 S
H1673 C1679 0.930 . S
C1674 H1660 0.930 . S
C1674 C1672 1.395 . S
C1674 C1677 1.403 . S
C1675 C1672 1.393 1_455 S
C1675 C1676 1.521 . S
C1675 C1679 1.413 . S
C1676 H1661 0.960 . S
C1676 H1662 0.960 1_455 S
C1676 H1663 0.960 . S
C1676 C1675 1.521 . S
C1677 C1674 1.403 . S
C1677 C1678 1.392 1_655 S
C1677 C1681 1.495 . S
C1678 C1677 1.392 1_455 S
C1678 C1679 1.385 . S
C1678 C1680 1.478 . S
C1679 H1673 0.930 . S
C1679 C1675 1.413 . S
C1679 C1678 1.385 . S
C1680 C1678 1.478 . S
C1680 C1682 1.381 . S
C1680 C1686 1.383 . S
C1681 C1677 1.495 . S
C1681 H1687 0.959 . S
C1681 H1688 0.961 1_655 S
C1681 H1689 0.960 . S
C1682 C1680 1.381 . S
C1682 C1683 1.394 . S
C1682 H1690 0.930 . S
C1683 C1682 1.394 . S
C1683 C1684 1.383 . S
C1683 H1691 0.929 . S
C1684 C1683 1.383 . S
C1684 C1685 1.377 . S
C1685 H1669 0.930 . S
C1685 C1684 1.377 . S
C1685 C1686 1.379 . S
C1686 H1670 0.931 . S
C1686 C1680 1.383 . S
C1686 C1685 1.379 . S
H1687 C1681 0.959 . S
H1688 C1681 0.961 1_455 S
H1689 C1681 0.960 . S
H1690 C1682 0.930 . S
H1691 C1683 0.929 . S
H1692 C1700 0.929 . S
H1693 C1702 0.930 . S
H1694 C1704 0.930 . S
H1695 C1707 0.929 . S
H1696 C1710 0.930 . S
H1697 C1712 0.960 . S
H1698 C1712 0.960 . S
H1699 C1712 0.960 . S
C1700 H1692 0.929 . S
C1700 C1701 1.377 . S
C1700 C1702 1.384 . S
C1701 C1700 1.377 . S
C1701 C1707 1.390 . S
C1702 H1693 0.930 . S
C1702 C1700 1.384 . S
C1702 C1703 1.372 . S
C1703 C1702 1.372 . S
C1703 C1704 1.400 . S
C1703 C1708 1.490 . S
C1704 H1694 0.930 . S
C1704 C1703 1.400 . S
C1704 C1707 1.386 . S
H1705 C1721 0.930 . S
H1706 C1722 0.931 . S
C1707 H1695 0.929 . S
C1707 C1701 1.390 . S
C1707 C1704 1.386 . S
C1708 C1703 1.490 . S
C1708 C1710 1.395 . S
C1708 C1711 1.403 . S
H1709 C1715 0.930 . S
C1710 H1696 0.930 . S
C1710 C1708 1.395 . S
C1710 C1713 1.403 . S
C1711 C1708 1.403 . S
C1711 C1712 1.524 . S
C1711 C1715 1.400 . S
C1712 H1697 0.960 . S
C1712 H1698 0.960 . S
C1712 H1699 0.960 . S
C1712 C1711 1.524 . S
C1713 C1710 1.403 . S
C1713 C1714 1.392 . S
C1713 C1717 1.495 . S
C1714 C1713 1.392 . S
C1714 C1715 1.385 . S
C1714 C1716 1.478 . S
C1715 H1709 0.930 . S
C1715 C1711 1.400 . S
C1715 C1714 1.385 . S
C1716 C1714 1.478 . S
C1716 C1718 1.381 . S
C1716 C1722 1.383 . S
C1717 C1713 1.495 . S
C1717 H1723 0.959 . S
C1717 H1724 0.961 . S
C1717 H1725 0.960 . S
C1718 C1716 1.381 . S
C1718 C1719 1.394 . S
C1718 H1726 0.930 . S
C1719 C1718 1.394 . S
C1719 C1720 1.383 . S
C1719 H1727 0.929 . S
C1720 C1719 1.383 . S
C1720 C1721 1.377 . S
C1721 H1705 0.930 . S
C1721 C1720 1.377 . S
C1721 C1722 1.379 . S
C1722 H1706 0.931 . S
C1722 C1716 1.383 . S
C1722 C1721 1.379 . S
H1723 C1717 0.959 . S
H1724 C1717 0.961 . S
H1725 C1717 0.960 . S
H1726 C1718 0.930 . S
H1727 C1719 0.929 . S
H1728 C1736 0.929 . S
H1729 C1738 0.930 . S
H1730 C1740 0.930 . S
H1731 C1743 0.929 . S
H1732 C1746 0.930 . S
H1733 C1748 0.960 . S
H1734 C1748 0.960 . S
H1735 C1748 0.960 1_565 S
C1736 H1728 0.929 . S
C1736 C1737 1.377 . S
C1736 C1738 1.384 . S
C1737 C1736 1.377 . S
C1737 C1743 1.390 . S
C1738 H1729 0.930 . S
C1738 C1736 1.384 . S
C1738 C1739 1.372 . S
C1739 C1738 1.372 . S
C1739 C1740 1.400 . S
C1739 C1744 1.490 . S
C1740 H1730 0.930 . S
C1740 C1739 1.400 . S
C1740 C1743 1.386 . S
H1741 C1757 0.930 . S
H1742 C1758 0.931 . S
C1743 H1731 0.929 . S
C1743 C1737 1.390 . S
C1743 C1740 1.386 . S
C1744 C1739 1.490 . S
C1744 C1746 1.395 . S
C1744 C1747 1.370 1_565 S
H1745 C1751 0.930 . S
C1746 H1732 0.930 . S
C1746 C1744 1.395 . S
C1746 C1749 1.403 . S
C1747 C1744 1.370 1_545 S
C1747 C1748 1.536 . S
C1747 C1751 1.422 . S
C1748 H1733 0.960 . S
C1748 H1734 0.960 . S
C1748 H1735 0.960 1_545 S
C1748 C1747 1.536 . S
C1749 C1746 1.403 . S
C1749 C1750 1.392 1_565 S
C1749 C1753 1.495 . S
C1750 C1749 1.392 1_545 S
C1750 C1751 1.385 . S
C1750 C1752 1.478 . S
C1751 H1745 0.930 . S
C1751 C1747 1.422 . S
C1751 C1750 1.385 . S
C1752 C1750 1.478 . S
C1752 C1754 1.381 . S
C1752 C1758 1.383 . S
C1753 C1749 1.495 . S
C1753 H1759 0.959 . S
C1753 H1760 0.961 . S
C1753 H1761 0.960 1_565 S
C1754 C1752 1.381 . S
C1754 C1755 1.394 . S
C1754 H1762 0.930 . S
C1755 C1754 1.394 . S
C1755 C1756 1.383 . S
C1755 H1763 0.929 . S
C1756 C1755 1.383 . S
C1756 C1757 1.377 . S
C1757 H1741 0.930 . S
C1757 C1756 1.377 . S
C1757 C1758 1.379 . S
C1758 H1742 0.931 . S
C1758 C1752 1.383 . S
C1758 C1757 1.379 . S
H1759 C1753 0.959 . S
H1760 C1753 0.961 . S
H1761 C1753 0.960 1_545 S
H1762 C1754 0.930 . S
H1763 C1755 0.929 . S
H1764 C1772 0.929 . S
H1765 C1774 0.930 . S
H1766 C1776 0.930 . S
H1767 C1779 0.929 . S
H1768 C1782 0.930 . S
H1769 C1784 0.960 . S
H1770 C1784 0.960 . S
H1771 C1784 0.960 . S
C1772 H1764 0.929 . S
C1772 C1773 1.377 . S
C1772 C1774 1.384 . S
C1773 C1772 1.377 . S
C1773 C1779 1.390 . S
C1774 H1765 0.930 . S
C1774 C1772 1.384 . S
C1774 C1775 1.372 . S
C1775 C1774 1.372 . S
C1775 C1776 1.400 . S
C1775 C1780 1.490 . S
C1776 H1766 0.930 . S
C1776 C1775 1.400 . S
C1776 C1779 1.386 . S
H1777 C1793 0.930 . S
H1778 C1794 0.931 . S
C1779 H1767 0.929 . S
C1779 C1773 1.390 . S
C1779 C1776 1.386 . S
C1780 C1775 1.490 . S
C1780 C1782 1.395 . S
C1780 C1783 1.403 . S
H1781 C1787 0.930 . S
C1782 H1768 0.930 . S
C1782 C1780 1.395 . S
C1782 C1785 1.403 1_655 S
C1783 C1780 1.403 . S
C1783 C1784 1.524 . S
C1783 C1787 1.400 1_655 S
C1784 H1769 0.960 . S
C1784 H1770 0.960 . S
C1784 H1771 0.960 . S
C1784 C1783 1.524 . S
C1785 C1782 1.403 1_455 S
C1785 C1786 1.392 . S
C1785 C1789 1.495 . S
C1786 C1785 1.392 . S
C1786 C1787 1.385 . S
C1786 C1788 1.478 . S
C1787 H1781 0.930 . S
C1787 C1783 1.400 1_455 S
C1787 C1786 1.385 . S
C1788 C1786 1.478 . S
C1788 C1790 1.381 . S
C1788 C1794 1.383 . S
C1789 C1785 1.495 . S
C1789 H1795 0.959 . S
C1789 H1796 0.961 . S
C1789 H1797 0.960 . S
C1790 C1788 1.381 . S
C1790 C1791 1.394 . S
C1790 H1798 0.930 . S
C1791 C1790 1.394 . S
C1791 C1792 1.383 . S
C1791 H1799 0.929 . S
C1792 C1791 1.383 . S
C1792 C1793 1.377 . S
C1793 H1777 0.930 . S
C1793 C1792 1.377 . S
C1793 C1794 1.379 . S
C1794 H1778 0.931 . S
C1794 C1788 1.383 . S
C1794 C1793 1.379 . S
H1795 C1789 0.959 . S
H1796 C1789 0.961 . S
H1797 C1789 0.960 . S
H1798 C1790 0.930 . S
H1799 C1791 0.929 . S
H1800 C1808 0.929 1_655 S
H1801 C1810 0.930 . S
H1802 C1812 0.930 . S
H1803 C1815 0.929 . S
H1804 C1818 0.930 . S
H1805 C1820 0.960 . S
H1806 C1820 0.960 . S
H1807 C1820 0.960 . S
C1808 H1800 0.929 1_455 S
C1808 C1809 1.377 . S
C1808 C1810 1.384 . S
C1809 C1808 1.377 . S
C1809 C1815 1.390 . S
C1810 H1801 0.930 . S
C1810 C1808 1.384 . S
C1810 C1811 1.372 . S
C1811 C1810 1.372 . S
C1811 C1812 1.400 . S
C1811 C1816 1.490 . S
C1812 H1802 0.930 . S
C1812 C1811 1.400 . S
C1812 C1815 1.386 . S
H1813 C1829 0.930 . S
H1814 C1830 0.931 . S
C1815 H1803 0.929 . S
C1815 C1809 1.390 . S
C1815 C1812 1.386 . S
C1816 C1811 1.490 . S
C1816 C1818 1.395 . S
C1816 C1819 1.403 . S
H1817 C1823 0.930 . S
C1818 H1804 0.930 . S
C1818 C1816 1.395 . S
C1818 C1821 1.403 . S
C1819 C1816 1.403 . S
C1819 C1820 1.524 . S
C1819 C1823 1.400 . S
C1820 H1805 0.960 . S
C1820 H1806 0.960 . S
C1820 H1807 0.960 . S
C1820 C1819 1.524 . S
C1821 C1818 1.403 . S
C1821 C1822 1.392 . S
C1821 C1825 1.495 . S
C1822 C1821 1.392 . S
C1822 C1823 1.385 . S
C1822 C1824 1.478 . S
C1823 H1817 0.930 . S
C1823 C1819 1.400 . S
C1823 C1822 1.385 . S
C1824 C1822 1.478 . S
C1824 C1826 1.381 . S
C1824 C1830 1.383 . S
C1825 C1821 1.495 . S
C1825 H1831 0.959 . S
C1825 H1832 0.961 . S
C1825 H1833 0.960 . S
C1826 C1824 1.381 . S
C1826 C1827 1.394 . S
C1826 H1834 0.930 . S
C1827 C1826 1.394 . S
C1827 C1828 1.383 . S
C1827 H1835 0.929 . S
C1828 C1827 1.383 . S
C1828 C1829 1.377 . S
C1829 H1813 0.930 . S
C1829 C1828 1.377 . S
C1829 C1830 1.379 . S
C1830 H1814 0.931 . S
C1830 C1824 1.383 . S
C1830 C1829 1.379 . S
H1831 C1825 0.959 . S
H1832 C1825 0.961 . S
H1833 C1825 0.960 . S
H1834 C1826 0.930 . S
H1835 C1827 0.929 . S
H1836 C1844 0.929 . S
H1837 C1846 0.930 . S
H1838 C1848 0.930 . S
H1839 C1851 0.929 . S
H1840 C1854 0.930 . S
H1841 C1856 0.960 . S
H1842 C1856 0.960 1_545 S
H1843 C1856 0.960 1_545 S
C1844 H1836 0.929 . S
C1844 C1845 1.377 . S
C1844 C1846 1.384 . S
C1845 C1844 1.377 . S
C1845 C1851 1.390 . S
C1846 H1837 0.930 . S
C1846 C1844 1.384 . S
C1846 C1847 1.372 . S
C1847 C1846 1.372 . S
C1847 C1848 1.400 . S
C1847 C1852 1.490 . S
C1848 H1838 0.930 . S
C1848 C1847 1.400 . S
C1848 C1851 1.386 . S
H1849 C1865 0.930 . S
H1850 C1866 0.931 . S
C1851 H1839 0.929 . S
C1851 C1845 1.390 . S
C1851 C1848 1.386 . S
C1852 C1847 1.490 . S
C1852 C1854 1.395 1_545 S
C1852 C1855 1.403 1_545 S
H1853 C1859 0.930 . S
C1854 H1840 0.930 . S
C1854 C1852 1.395 1_565 S
C1854 C1857 1.403 . S
C1855 C1852 1.403 1_565 S
C1855 C1856 1.524 . S
C1855 C1859 1.400 . S
C1856 H1841 0.960 . S
C1856 H1842 0.960 1_565 S
C1856 H1843 0.960 1_565 S
C1856 C1855 1.524 . S
C1857 C1854 1.403 . S
C1857 C1858 1.392 . S
C1857 C1861 1.495 . S
C1858 C1857 1.392 . S
C1858 C1859 1.385 . S
C1858 C1860 1.478 . S
C1859 H1853 0.930 . S
C1859 C1855 1.400 . S
C1859 C1858 1.385 . S
C1860 C1858 1.478 . S
C1860 C1862 1.381 . S
C1860 C1866 1.383 . S
C1861 C1857 1.495 . S
C1861 H1867 0.959 . S
C1861 H1868 0.961 . S
C1861 H1869 0.960 . S
C1862 C1860 1.381 . S
C1862 C1863 1.394 . S
C1862 H1870 0.930 . S
C1863 C1862 1.394 . S
C1863 C1864 1.383 . S
C1863 H1871 0.929 . S
C1864 C1863 1.383 . S
C1864 C1865 1.377 . S
C1865 H1849 0.930 . S
C1865 C1864 1.377 . S
C1865 C1866 1.379 . S
C1866 H1850 0.931 . S
C1866 C1860 1.383 . S
C1866 C1865 1.379 . S
H1867 C1861 0.959 . S
H1868 C1861 0.961 . S
H1869 C1861 0.960 . S
H1870 C1862 0.930 . S
H1871 C1863 0.929 . S
H1872 C1880 0.929 . S
H1873 C1882 0.930 . S
H1874 C1884 0.930 . S
H1875 C1887 0.929 . S
H1876 C1890 0.930 1_655 S
H1877 C1892 0.960 . S
H1878 C1892 0.960 . S
H1879 C1892 0.960 1_655 S
C1880 H1872 0.929 . S
C1880 C1881 1.377 . S
C1880 C1882 1.384 . S
C1881 C1880 1.377 . S
C1881 C1887 1.390 . S
C1882 H1873 0.930 . S
C1882 C1880 1.384 . S
C1882 C1883 1.372 . S
C1883 C1882 1.372 . S
C1883 C1884 1.400 . S
C1883 C1888 1.500 . S
C1884 H1874 0.930 . S
C1884 C1883 1.400 . S
C1884 C1887 1.386 . S
H1885 C1901 0.930 1_545 S
H1886 C1902 0.931 . S
C1887 H1875 0.929 . S
C1887 C1881 1.390 . S
C1887 C1884 1.386 . S
C1888 C1883 1.500 . S
C1888 C1890 1.395 1_655 S
C1888 C1891 1.392 1_655 S
H1889 C1895 0.930 . S
C1890 H1876 0.930 1_455 S
C1890 C1888 1.395 1_455 S
C1890 C1893 1.403 . S
C1891 C1888 1.392 1_455 S
C1891 C1892 1.524 . S
C1891 C1895 1.400 . S
C1892 H1877 0.960 . S
C1892 H1878 0.960 . S
C1892 H1879 0.960 1_455 S
C1892 C1891 1.524 . S
C1893 C1890 1.403 . S
C1893 C1894 1.392 . S
C1893 C1897 1.495 . S
C1894 C1893 1.392 . S
C1894 C1895 1.385 . S
C1894 C1896 1.478 . S
C1895 H1889 0.930 . S
C1895 C1891 1.400 . S
C1895 C1894 1.385 . S
C1896 C1894 1.478 . S
C1896 C1898 1.381 . S
C1896 C1902 1.383 . S
C1897 C1893 1.495 . S
C1897 H1903 0.959 . S
C1897 H1904 0.961 . S
C1897 H1905 0.960 . S
C1898 C1896 1.381 . S
C1898 C1899 1.394 . S
C1898 H1906 0.930 . S
C1899 C1898 1.394 . S
C1899 C1900 1.383 . S
C1899 H1907 0.929 . S
C1900 C1899 1.383 . S
C1900 C1901 1.377 . S
C1901 H1885 0.930 1_565 S
C1901 C1900 1.377 . S
C1901 C1902 1.379 . S
C1902 H1886 0.931 . S
C1902 C1896 1.383 . S
C1902 C1901 1.379 . S
H1903 C1897 0.959 . S
H1904 C1897 0.961 . S
H1905 C1897 0.960 . S
H1906 C1898 0.930 . S
H1907 C1899 0.929 . S
H1908 C1916 0.929 . S
H1909 C1918 0.930 . S
H1910 C1920 0.930 . S
H1911 C1923 0.929 . S
H1912 C1926 0.930 . S
H1913 C1928 0.960 . S
H1914 C1928 0.960 . S
H1915 C1928 0.960 . S
C1916 H1908 0.929 . S
C1916 C1917 1.377 . S
C1916 C1918 1.384 . S
C1917 C1916 1.377 . S
C1917 C1923 1.390 . S
C1918 H1909 0.930 . S
C1918 C1916 1.384 . S
C1918 C1919 1.372 . S
C1919 C1918 1.372 . S
C1919 C1920 1.400 . S
C1919 C1924 1.490 . S
C1920 H1910 0.930 . S
C1920 C1919 1.400 . S
C1920 C1923 1.386 . S
H1921 C1937 0.904 1_565 S
H1922 C1938 0.931 . S
C1923 H1911 0.929 . S
C1923 C1917 1.390 . S
C1923 C1920 1.386 . S
C1924 C1919 1.490 . S
C1924 C1926 1.395 . S
C1924 C1927 1.403 . S
H1925 C1931 0.930 . S
C1926 H1912 0.930 . S
C1926 C1924 1.395 . S
C1926 C1929 1.403 . S
C1927 C1924 1.403 . S
C1927 C1928 1.524 . S
C1927 C1931 1.400 . S
C1928 H1913 0.960 . S
C1928 H1914 0.960 . S
C1928 H1915 0.960 . S
C1928 C1927 1.524 . S
C1929 C1926 1.403 . S
C1929 C1930 1.392 . S
C1929 C1933 1.495 . S
C1930 C1929 1.392 . S
C1930 C1931 1.385 . S
C1930 C1932 1.478 . S
C1931 H1925 0.930 . S
C1931 C1927 1.400 . S
C1931 C1930 1.385 . S
C1932 C1930 1.478 . S
C1932 C1934 1.381 . S
C1932 C1938 1.383 . S
C1933 C1929 1.495 . S
C1933 H1939 0.959 . S
C1933 H1940 0.961 . S
C1933 H1941 0.960 . S
C1934 C1932 1.381 . S
C1934 C1935 1.394 . S
C1934 H1942 0.930 . S
C1935 C1934 1.394 . S
C1935 C1936 1.383 . S
C1935 H1943 0.929 . S
C1936 C1935 1.383 . S
C1936 C1937 1.377 . S
C1937 H1921 0.904 1_545 S
C1937 C1936 1.377 . S
C1937 C1938 1.379 . S
C1938 H1922 0.931 . S
C1938 C1932 1.383 . S
C1938 C1937 1.379 . S
H1939 C1933 0.959 . S
H1940 C1933 0.961 . S
H1941 C1933 0.960 . S
H1942 C1934 0.930 . S
H1943 C1935 0.929 . S
H1944 C1952 0.929 . S
H1945 C1954 0.930 . S
H1946 C1956 0.930 . S
H1947 C1959 0.929 . S
H1948 C1962 0.930 . S
H1949 C1964 0.960 . S
H1950 C1964 0.960 . S
H1951 C1964 0.960 . S
C1952 H1944 0.929 . S
C1952 C1953 1.377 . S
C1952 C1954 1.384 . S
C1953 C1952 1.377 . S
C1953 C1959 1.390 . S
C1954 H1945 0.930 . S
C1954 C1952 1.384 . S
C1954 C1955 1.372 . S
C1955 C1954 1.372 . S
C1955 C1956 1.400 . S
C1955 C1960 1.490 . S
C1956 H1946 0.930 . S
C1956 C1955 1.400 . S
C1956 C1959 1.386 . S
H1957 C1973 0.930 . S
H1958 C1974 0.931 . S
C1959 H1947 0.929 . S
C1959 C1953 1.390 . S
C1959 C1956 1.386 . S
C1960 C1955 1.490 . S
C1960 C1962 1.395 . S
C1960 C1963 1.403 . S
H1961 C1967 0.930 . S
C1962 H1948 0.930 . S
C1962 C1960 1.395 . S
C1962 C1965 1.403 . S
C1963 C1960 1.403 . S
C1963 C1964 1.524 . S
C1963 C1967 1.400 . S
C1964 H1949 0.960 . S
C1964 H1950 0.960 . S
C1964 H1951 0.960 . S
C1964 C1963 1.524 . S
C1965 C1962 1.403 . S
C1965 C1966 1.392 1_545 S
C1965 C1969 1.495 1_545 S
C1966 C1965 1.392 1_565 S
C1966 C1967 1.385 1_565 S
C1966 C1968 1.478 . S
C1967 H1961 0.930 . S
C1967 C1963 1.400 . S
C1967 C1966 1.385 1_545 S
C1968 C1966 1.478 . S
C1968 C1970 1.381 . S
C1968 C1974 1.383 . S
C1969 C1965 1.495 1_565 S
C1969 H1975 0.959 . S
C1969 H1976 0.961 . S
C1969 H1977 0.960 . S
C1970 C1968 1.381 . S
C1970 C1971 1.394 . S
C1970 H1978 0.930 . S
C1971 C1970 1.394 . S
C1971 C1972 1.383 . S
C1971 H1979 0.929 . S
C1972 C1971 1.383 . S
C1972 C1973 1.377 . S
C1973 H1957 0.930 . S
C1973 C1972 1.377 . S
C1973 C1974 1.379 . S
C1974 H1958 0.931 . S
C1974 C1968 1.383 . S
C1974 C1973 1.379 . S
H1975 C1969 0.959 . S
H1976 C1969 0.961 . S
H1977 C1969 0.960 . S
H1978 C1970 0.930 . S
H1979 C1971 0.929 . S
H1980 C1988 0.929 . S
H1981 C1990 0.930 . S
H1982 C1992 0.930 . S
H1983 C1995 0.929 . S
H1984 C1998 0.930 . S
H1985 C2000 0.960 . S
H1986 C2000 0.960 . S
H1987 C2000 0.960 . S
C1988 H1980 0.929 . S
C1988 C1989 1.377 . S
C1988 C1990 1.384 . S
C1989 C1988 1.377 . S
C1989 C1995 1.390 . S
C1990 H1981 0.930 . S
C1990 C1988 1.384 . S
C1990 C1991 1.372 . S
C1991 C1990 1.372 . S
C1991 C1992 1.400 . S
C1991 C1996 1.516 . S
C1992 H1982 0.930 . S
C1992 C1991 1.400 . S
C1992 C1995 1.386 . S
H1993 C2009 0.930 . S
H1994 C2010 0.931 . S
C1995 H1983 0.929 . S
C1995 C1989 1.390 . S
C1995 C1992 1.386 . S
C1996 C1991 1.516 . S
C1996 C1998 1.389 1_455 S
C1996 C1999 1.383 1_455 S
H1997 C2003 0.930 . S
C1998 H1984 0.930 . S
C1998 C1996 1.389 1_655 S
C1998 C2001 1.403 . S
C1999 C1996 1.383 1_655 S
C1999 C2000 1.524 1_655 S
C1999 C2003 1.400 . S
C2000 H1985 0.960 . S
C2000 H1986 0.960 . S
C2000 H1987 0.960 . S
C2000 C1999 1.524 1_455 S
C2001 C1998 1.403 . S
C2001 C2002 1.392 . S
C2001 C2005 1.495 . S
C2002 C2001 1.392 . S
C2002 C2003 1.385 . S
C2002 C2004 1.478 . S
C2003 H1997 0.930 . S
C2003 C1999 1.400 . S
C2003 C2002 1.385 . S
C2004 C2002 1.478 . S
C2004 C2006 1.381 . S
C2004 C2010 1.383 . S
C2005 C2001 1.495 . S
C2005 H2011 0.959 . S
C2005 H2012 0.961 . S
C2005 H2013 0.960 . S
C2006 C2004 1.381 . S
C2006 C2007 1.394 . S
C2006 H2014 0.930 . S
C2007 C2006 1.394 . S
C2007 C2008 1.383 . S
C2007 H2015 0.929 . S
C2008 C2007 1.383 . S
C2008 C2009 1.377 . S
C2009 H1993 0.930 . S
C2009 C2008 1.377 . S
C2009 C2010 1.379 . S
C2010 H1994 0.931 . S
C2010 C2004 1.383 . S
C2010 C2009 1.379 . S
H2011 C2005 0.959 . S
H2012 C2005 0.961 . S
H2013 C2005 0.960 . S
H2014 C2006 0.930 . S
H2015 C2007 0.929 . S
H2016 C2024 0.929 . S
H2017 C2026 0.930 . S
H2018 C2028 0.930 . S
H2019 C2031 0.929 . S
H2020 C2034 0.930 . S
H2021 C2036 0.960 . S
H2022 C2036 0.960 . S
H2023 C2036 0.960 . S
C2024 H2016 0.929 . S
C2024 C2025 1.377 . S
C2024 C2026 1.384 . S
C2025 C2024 1.377 . S
C2025 C2031 1.390 . S
C2026 H2017 0.930 . S
C2026 C2024 1.384 . S
C2026 C2027 1.372 . S
C2027 C2026 1.372 . S
C2027 C2028 1.400 . S
C2027 C2032 1.490 . S
C2028 H2018 0.930 . S
C2028 C2027 1.400 . S
C2028 C2031 1.386 . S
H2029 C2045 0.930 . S
H2030 C2046 0.931 . S
C2031 H2019 0.929 . S
C2031 C2025 1.390 . S
C2031 C2028 1.386 . S
C2032 C2027 1.490 . S
C2032 C2034 1.395 . S
C2032 C2035 1.403 . S
H2033 C2039 0.930 . S
C2034 H2020 0.930 . S
C2034 C2032 1.395 . S
C2034 C2037 1.403 . S
C2035 C2032 1.403 . S
C2035 C2036 1.524 . S
C2035 C2039 1.400 . S
C2036 H2021 0.960 . S
C2036 H2022 0.960 . S
C2036 H2023 0.960 . S
C2036 C2035 1.524 . S
C2037 C2034 1.403 . S
C2037 C2038 1.392 . S
C2037 C2041 1.495 . S
C2038 C2037 1.392 . S
C2038 C2039 1.385 . S
C2038 C2040 1.478 . S
C2039 H2033 0.930 . S
C2039 C2035 1.400 . S
C2039 C2038 1.385 . S
C2040 C2038 1.478 . S
C2040 C2042 1.381 . S
C2040 C2046 1.383 . S
C2041 C2037 1.495 . S
C2041 H2047 0.959 . S
C2041 H2048 0.961 . S
C2041 H2049 0.960 . S
C2042 C2040 1.381 . S
C2042 C2043 1.394 . S
C2042 H2050 0.930 . S
C2043 C2042 1.394 . S
C2043 C2044 1.383 . S
C2043 H2051 0.929 1_655 S
C2044 C2043 1.383 . S
C2044 C2045 1.377 . S
C2045 H2029 0.930 . S
C2045 C2044 1.377 . S
C2045 C2046 1.379 . S
C2046 H2030 0.931 . S
C2046 C2040 1.383 . S
C2046 C2045 1.379 . S
H2047 C2041 0.959 . S
H2048 C2041 0.961 . S
H2049 C2041 0.960 . S
H2050 C2042 0.930 . S
H2051 C2043 0.929 1_455 S
H2052 C2060 0.929 . S
H2053 C2062 0.930 . S
H2054 C2064 0.930 . S
H2055 C2067 0.929 . S
H2056 C2070 0.930 1_565 S
H2057 C2072 0.960 . S
H2058 C2072 0.960 . S
H2059 C2072 0.960 1_565 S
C2060 H2052 0.929 . S
C2060 C2061 1.377 . S
C2060 C2062 1.384 . S
C2061 C2060 1.377 . S
C2061 C2067 1.390 . S
C2062 H2053 0.930 . S
C2062 C2060 1.384 . S
C2062 C2063 1.372 . S
C2063 C2062 1.372 . S
C2063 C2064 1.400 . S
C2063 C2068 1.510 . S
C2064 H2054 0.930 . S
C2064 C2063 1.400 . S
C2064 C2067 1.386 . S
H2065 C2081 0.930 . S
H2066 C2082 0.931 . S
C2067 H2055 0.929 . S
C2067 C2061 1.390 . S
C2067 C2064 1.386 . S
C2068 C2063 1.510 . S
C2068 C2070 1.388 1_565 S
C2068 C2071 1.390 1_565 S
H2069 C2075 0.930 . S
C2070 H2056 0.930 1_545 S
C2070 C2068 1.388 1_545 S
C2070 C2073 1.403 . S
C2071 C2068 1.390 1_545 S
C2071 C2072 1.524 . S
C2071 C2075 1.400 . S
C2072 H2057 0.960 . S
C2072 H2058 0.960 . S
C2072 H2059 0.960 1_545 S
C2072 C2071 1.524 . S
C2073 C2070 1.403 . S
C2073 C2074 1.392 . S
C2073 C2077 1.495 . S
C2074 C2073 1.392 . S
C2074 C2075 1.385 . S
C2074 C2076 1.478 . S
C2075 H2069 0.930 . S
C2075 C2071 1.400 . S
C2075 C2074 1.385 . S
C2076 C2074 1.478 . S
C2076 C2078 1.381 . S
C2076 C2082 1.383 . S
C2077 C2073 1.495 . S
C2077 H2083 0.959 . S
C2077 H2084 0.961 . S
C2077 H2085 0.960 . S
C2078 C2076 1.381 . S
C2078 C2079 1.394 . S
C2078 H2086 0.930 . S
C2079 C2078 1.394 . S
C2079 C2080 1.383 . S
C2079 H2087 0.929 . S
C2080 C2079 1.383 . S
C2080 C2081 1.377 . S
C2081 H2065 0.930 . S
C2081 C2080 1.377 . S
C2081 C2082 1.379 . S
C2082 H2066 0.931 . S
C2082 C2076 1.383 . S
C2082 C2081 1.379 . S
H2083 C2077 0.959 . S
H2084 C2077 0.961 . S
H2085 C2077 0.960 . S
H2086 C2078 0.930 . S
H2087 C2079 0.929 . S
H2088 C2096 0.929 . S
H2089 C2098 0.930 . S
H2090 C2100 0.930 . S
H2091 C2103 0.929 . S
H2092 C2106 0.930 1_455 S
H2093 C2108 0.960 . S
H2094 C2108 0.960 1_455 S
H2095 C2108 0.960 1_455 S
C2096 H2088 0.929 . S
C2096 C2097 1.377 . S
C2096 C2098 1.384 . S
C2097 C2096 1.377 . S
C2097 C2103 1.390 . S
C2098 H2089 0.930 . S
C2098 C2096 1.384 . S
C2098 C2099 1.372 . S
C2099 C2098 1.372 . S
C2099 C2100 1.400 . S
C2099 C2104 1.490 . S
C2100 H2090 0.930 . S
C2100 C2099 1.400 . S
C2100 C2103 1.386 . S
H2101 C2117 0.930 . S
H2102 C2118 0.931 . S
C2103 H2091 0.929 . S
C2103 C2097 1.390 . S
C2103 C2100 1.386 . S
C2104 C2099 1.490 . S
C2104 C2106 1.395 1_455 S
C2104 C2107 1.403 1_455 S
H2105 C2111 0.930 . S
C2106 H2092 0.930 1_655 S
C2106 C2104 1.395 1_655 S
C2106 C2109 1.403 . S
C2107 C2104 1.403 1_655 S
C2107 C2108 1.524 . S
C2107 C2111 1.400 . S
C2108 H2093 0.960 . S
C2108 H2094 0.960 1_655 S
C2108 H2095 0.960 1_655 S
C2108 C2107 1.524 . S
C2109 C2106 1.403 . S
C2109 C2110 1.392 . S
C2109 C2113 1.495 . S
C2110 C2109 1.392 . S
C2110 C2111 1.385 . S
C2110 C2112 1.478 . S
C2111 H2105 0.930 . S
C2111 C2107 1.400 . S
C2111 C2110 1.385 . S
C2112 C2110 1.478 . S
C2112 C2114 1.381 . S
C2112 C2118 1.383 . S
C2113 C2109 1.495 . S
C2113 H2119 0.959 . S
C2113 H2120 0.961 . S
C2113 H2121 0.960 . S
C2114 C2112 1.381 . S
C2114 C2115 1.394 1_545 S
C2114 H2122 0.930 . S
C2115 C2114 1.394 1_565 S
C2115 C2116 1.383 1_565 S
C2115 H2123 0.929 . S
C2116 C2115 1.383 1_545 S
C2116 C2117 1.377 . S
C2117 H2101 0.930 . S
C2117 C2116 1.377 . S
C2117 C2118 1.379 . S
C2118 H2102 0.931 . S
C2118 C2112 1.383 . S
C2118 C2117 1.379 . S
H2119 C2113 0.959 . S
H2120 C2113 0.961 . S
H2121 C2113 0.960 . S
H2122 C2114 0.930 . S
H2123 C2115 0.929 . S
H2124 C2132 0.929 . S
H2125 C2134 0.930 . S
H2126 C2136 0.930 . S
H2127 C2139 0.929 . S
H2128 C2142 0.930 . S
H2129 C2144 0.960 . S
H2130 C2144 0.960 . S
H2131 C2144 0.960 . S
C2132 H2124 0.929 . S
C2132 C2133 1.377 . S
C2132 C2134 1.384 . S
C2133 C2132 1.377 . S
C2133 C2139 1.390 . S
C2134 H2125 0.930 . S
C2134 C2132 1.384 . S
C2134 C2135 1.372 . S
C2135 C2134 1.372 . S
C2135 C2136 1.400 . S
C2135 C2140 1.490 . S
C2136 H2126 0.930 . S
C2136 C2135 1.400 . S
C2136 C2139 1.386 . S
H2137 C2153 0.930 . S
H2138 C2154 0.931 . S
C2139 H2127 0.929 . S
C2139 C2133 1.390 . S
C2139 C2136 1.386 . S
C2140 C2135 1.490 . S
C2140 C2142 1.395 . S
C2140 C2143 1.403 . S
H2141 C2147 0.930 . S
C2142 H2128 0.930 . S
C2142 C2140 1.395 . S
C2142 C2145 1.403 . S
C2143 C2140 1.403 . S
C2143 C2144 1.524 . S
C2143 C2147 1.400 . S
C2144 H2129 0.960 . S
C2144 H2130 0.960 . S
C2144 H2131 0.960 . S
C2144 C2143 1.524 . S
C2145 C2142 1.403 . S
C2145 C2146 1.392 . S
C2145 C2149 1.495 . S
C2146 C2145 1.392 . S
C2146 C2147 1.385 . S
C2146 C2148 1.478 . S
C2147 H2141 0.930 . S
C2147 C2143 1.400 . S
C2147 C2146 1.385 . S
C2148 C2146 1.478 . S
C2148 C2150 1.381 . S
C2148 C2154 1.383 . S
C2149 C2145 1.495 . S
C2149 H2155 0.959 . S
C2149 H2156 0.961 . S
C2149 H2157 0.960 . S
C2150 C2148 1.381 . S
C2150 C2151 1.394 . S
C2150 H2158 0.930 . S
C2151 C2150 1.394 . S
C2151 C2152 1.383 . S
C2151 H2159 0.929 . S
C2152 C2151 1.383 . S
C2152 C2153 1.377 . S
C2153 H2137 0.930 . S
C2153 C2152 1.377 . S
C2153 C2154 1.379 . S
C2154 H2138 0.931 . S
C2154 C2148 1.383 . S
C2154 C2153 1.379 . S
H2155 C2149 0.959 . S
H2156 C2149 0.961 . S
H2157 C2149 0.960 . S
H2158 C2150 0.930 . S
H2159 C2151 0.929 . S
H2160 C2168 0.929 . S
H2161 C2170 0.930 . S
H2162 C2172 0.930 . S
H2163 C2175 0.929 . S
H2164 C2178 0.930 1_545 S
H2165 C2180 0.960 . S
H2166 C2180 0.960 . S
H2167 C2180 0.960 . S
C2168 H2160 0.929 . S
C2168 C2169 1.377 . S
C2168 C2170 1.384 . S
C2169 C2168 1.377 . S
C2169 C2175 1.390 . S
C2170 H2161 0.930 . S
C2170 C2168 1.384 . S
C2170 C2171 1.372 . S
C2171 C2170 1.372 . S
C2171 C2172 1.400 . S
C2171 C2176 1.490 . S
C2172 H2162 0.930 . S
C2172 C2171 1.400 . S
C2172 C2175 1.386 . S
H2173 C2189 0.930 . S
H2174 C2190 0.931 . S
C2175 H2163 0.929 . S
C2175 C2169 1.390 . S
C2175 C2172 1.386 . S
C2176 C2171 1.490 . S
C2176 C2178 1.395 1_545 S
C2176 C2179 1.403 1_545 S
H2177 C2183 0.930 . S
C2178 H2164 0.930 1_565 S
C2178 C2176 1.395 1_565 S
C2178 C2181 1.403 . S
C2179 C2176 1.403 1_565 S
C2179 C2180 1.524 . S
C2179 C2183 1.400 . S
C2180 H2165 0.960 . S
C2180 H2166 0.960 . S
C2180 H2167 0.960 . S
C2180 C2179 1.524 . S
C2181 C2178 1.403 . S
C2181 C2182 1.392 . S
C2181 C2185 1.495 . S
C2182 C2181 1.392 . S
C2182 C2183 1.385 . S
C2182 C2184 1.478 . S
C2183 H2177 0.930 . S
C2183 C2179 1.400 . S
C2183 C2182 1.385 . S
C2184 C2182 1.478 . S
C2184 C2186 1.381 . S
C2184 C2190 1.383 . S
C2185 C2181 1.495 . S
C2185 H2191 0.959 . S
C2185 H2192 0.961 . S
C2185 H2193 0.960 . S
C2186 C2184 1.381 . S
C2186 C2187 1.394 . S
C2186 H2194 0.930 . S
C2187 C2186 1.394 . S
C2187 C2188 1.383 . S
C2187 H2195 0.929 1_455 S
C2188 C2187 1.383 . S
C2188 C2189 1.377 . S
C2189 H2173 0.930 . S
C2189 C2188 1.377 . S
C2189 C2190 1.379 . S
C2190 H2174 0.931 . S
C2190 C2184 1.383 . S
C2190 C2189 1.379 . S
H2191 C2185 0.959 . S
H2192 C2185 0.961 . S
H2193 C2185 0.960 . S
H2194 C2186 0.930 . S
H2195 C2187 0.929 1_655 S
H2196 C2204 0.929 . S
H2197 C2206 0.930 . S
H2198 C2208 0.930 . S
H2199 C2211 0.929 . S
H2200 C2214 0.930 . S
H2201 C2216 0.960 . S
H2202 C2216 0.960 . S
H2203 C2216 0.960 . S
C2204 H2196 0.929 . S
C2204 C2205 1.377 . S
C2204 C2206 1.384 . S
C2205 C2204 1.377 . S
C2205 C2211 1.390 . S
C2206 H2197 0.930 . S
C2206 C2204 1.384 . S
C2206 C2207 1.372 . S
C2207 C2206 1.372 . S
C2207 C2208 1.400 . S
C2207 C2212 1.490 . S
C2208 H2198 0.930 . S
C2208 C2207 1.400 . S
C2208 C2211 1.386 . S
H2209 C2225 0.930 . S
H2210 C2226 0.931 . S
C2211 H2199 0.929 . S
C2211 C2205 1.390 . S
C2211 C2208 1.386 . S
C2212 C2207 1.490 . S
C2212 C2214 1.395 . S
C2212 C2215 1.403 . S
H2213 C2219 0.930 1_655 S
C2214 H2200 0.930 . S
C2214 C2212 1.395 . S
C2214 C2217 1.403 . S
C2215 C2212 1.403 . S
C2215 C2216 1.524 . S
C2215 C2219 1.400 . S
C2216 H2201 0.960 . S
C2216 H2202 0.960 . S
C2216 H2203 0.960 . S
C2216 C2215 1.524 . S
C2217 C2214 1.403 . S
C2217 C2218 1.403 . S
C2217 C2221 1.495 . S
C2218 C2217 1.403 . S
C2218 C2219 1.398 . S
C2218 C2220 1.455 1_455 S
C2219 H2213 0.930 1_455 S
C2219 C2215 1.400 . S
C2219 C2218 1.398 . S
C2220 C2218 1.455 1_655 S
C2220 C2222 1.381 . S
C2220 C2226 1.383 . S
C2221 C2217 1.495 . S
C2221 H2227 0.959 . S
C2221 H2228 0.961 . S
C2221 H2229 0.960 . S
C2222 C2220 1.381 . S
C2222 C2223 1.394 . S
C2222 H2230 0.930 . S
C2223 C2222 1.394 . S
C2223 C2224 1.383 . S
C2223 H2231 0.929 . S
C2224 C2223 1.383 . S
C2224 C2225 1.377 . S
C2225 H2209 0.930 . S
C2225 C2224 1.377 . S
C2225 C2226 1.379 . S
C2226 H2210 0.931 . S
C2226 C2220 1.383 . S
C2226 C2225 1.379 . S
H2227 C2221 0.959 . S
H2228 C2221 0.961 . S
H2229 C2221 0.960 . S
H2230 C2222 0.930 . S
H2231 C2223 0.929 . S
H2232 C2240 0.929 . S
H2233 C2242 0.930 . S
H2234 C2244 0.930 . S
H2235 C2247 0.929 . S
H2236 C2250 0.930 . S
H2237 C2252 0.960 . S
H2238 C2252 0.960 . S
H2239 C2252 0.960 . S
C2240 H2232 0.929 . S
C2240 C2241 1.377 . S
C2240 C2242 1.384 . S
C2241 C2240 1.377 . S
C2241 C2247 1.390 . S
C2242 H2233 0.930 . S
C2242 C2240 1.384 . S
C2242 C2243 1.372 . S
C2243 C2242 1.372 . S
C2243 C2244 1.400 . S
C2243 C2248 1.490 . S
C2244 H2234 0.930 . S
C2244 C2243 1.400 . S
C2244 C2247 1.386 . S
H2245 C2261 0.930 . S
H2246 C2262 0.931 . S
C2247 H2235 0.929 . S
C2247 C2241 1.390 . S
C2247 C2244 1.386 . S
C2248 C2243 1.490 . S
C2248 C2250 1.395 . S
C2248 C2251 1.403 . S
H2249 C2255 0.930 . S
C2250 H2236 0.930 . S
C2250 C2248 1.395 . S
C2250 C2253 1.403 . S
C2251 C2248 1.403 . S
C2251 C2252 1.524 . S
C2251 C2255 1.400 . S
C2252 H2237 0.960 . S
C2252 H2238 0.960 . S
C2252 H2239 0.960 . S
C2252 C2251 1.524 . S
C2253 C2250 1.403 . S
C2253 C2254 1.392 . S
C2253 C2257 1.495 . S
C2254 C2253 1.392 . S
C2254 C2255 1.385 . S
C2254 C2256 1.478 . S
C2255 H2249 0.930 . S
C2255 C2251 1.400 . S
C2255 C2254 1.385 . S
C2256 C2254 1.478 . S
C2256 C2258 1.381 . S
C2256 C2262 1.383 . S
C2257 C2253 1.495 . S
C2257 H2263 0.959 . S
C2257 H2264 0.961 . S
C2257 H2265 0.960 . S
C2258 C2256 1.381 . S
C2258 C2259 1.394 . S
C2258 H2266 0.930 . S
C2259 C2258 1.394 . S
C2259 C2260 1.383 . S
C2259 H2267 0.929 . S
C2260 C2259 1.383 . S
C2260 C2261 1.377 . S
C2261 H2245 0.930 . S
C2261 C2260 1.377 . S
C2261 C2262 1.379 . S
C2262 H2246 0.931 . S
C2262 C2256 1.383 . S
C2262 C2261 1.379 . S
H2263 C2257 0.959 . S
H2264 C2257 0.961 . S
H2265 C2257 0.960 . S
H2266 C2258 0.930 . S
H2267 C2259 0.929 . S
H2268 C2276 0.929 . S
H2269 C2278 0.930 . S
H2270 C2280 0.930 . S
H2271 C2283 0.929 . S
H2272 C2286 0.930 . S
H2273 C2288 0.960 . S
H2274 C2288 0.960 . S
H2275 C2288 0.960 . S
C2276 H2268 0.929 . S
C2276 C2277 1.377 . S
C2276 C2278 1.384 . S
C2277 C2276 1.377 . S
C2277 C2283 1.390 . S
C2278 H2269 0.930 . S
C2278 C2276 1.384 . S
C2278 C2279 1.372 . S
C2279 C2278 1.372 . S
C2279 C2280 1.400 . S
C2279 C2284 1.490 . S
C2280 H2270 0.930 . S
C2280 C2279 1.400 . S
C2280 C2283 1.386 . S
H2281 C2297 0.930 . S
H2282 C2298 0.931 . S
C2283 H2271 0.929 . S
C2283 C2277 1.390 . S
C2283 C2280 1.386 . S
C2284 C2279 1.490 . S
C2284 C2286 1.395 . S
C2284 C2287 1.403 . S
H2285 C2291 0.930 . S
C2286 H2272 0.930 . S
C2286 C2284 1.395 . S
C2286 C2289 1.403 . S
C2287 C2284 1.403 . S
C2287 C2288 1.524 . S
C2287 C2291 1.400 . S
C2288 H2273 0.960 . S
C2288 H2274 0.960 . S
C2288 H2275 0.960 . S
C2288 C2287 1.524 . S
C2289 C2286 1.403 . S
C2289 C2290 1.392 . S
C2289 C2293 1.495 . S
C2290 C2289 1.392 . S
C2290 C2291 1.385 . S
C2290 C2292 1.478 . S
C2291 H2285 0.930 . S
C2291 C2287 1.400 . S
C2291 C2290 1.385 . S
C2292 C2290 1.478 . S
C2292 C2294 1.381 . S
C2292 C2298 1.383 . S
C2293 C2289 1.495 . S
C2293 H2299 0.959 . S
C2293 H2300 0.961 . S
C2293 H2301 0.960 . S
C2294 C2292 1.381 . S
C2294 C2295 1.394 . S
C2294 H2302 0.930 . S
C2295 C2294 1.394 . S
C2295 C2296 1.383 . S
C2295 H2303 0.929 . S
C2296 C2295 1.383 . S
C2296 C2297 1.377 . S
C2297 H2281 0.930 . S
C2297 C2296 1.377 . S
C2297 C2298 1.379 . S
C2298 H2282 0.931 . S
C2298 C2292 1.383 . S
C2298 C2297 1.379 . S
H2299 C2293 0.959 . S
H2300 C2293 0.961 . S
H2301 C2293 0.960 . S
H2302 C2294 0.930 . S
H2303 C2295 0.929 . S
H2304 C2312 0.929 . S
H2305 C2314 0.930 . S
H2306 C2316 0.930 . S
H2307 C2319 0.929 . S
H2308 C2322 0.930 . S
H2309 C2324 0.960 . S
H2310 C2324 0.960 . S
H2311 C2324 0.960 . S
C2312 H2304 0.929 . S
C2312 C2313 1.377 . S
C2312 C2314 1.384 . S
C2313 C2312 1.377 . S
C2313 C2319 1.390 . S
C2314 H2305 0.930 . S
C2314 C2312 1.384 . S
C2314 C2315 1.372 . S
C2315 C2314 1.372 . S
C2315 C2316 1.400 . S
C2315 C2320 1.490 . S
C2316 H2306 0.930 . S
C2316 C2315 1.400 . S
C2316 C2319 1.386 . S
H2317 C2333 0.930 . S
H2318 C2334 0.931 . S
C2319 H2307 0.929 . S
C2319 C2313 1.390 . S
C2319 C2316 1.386 . S
C2320 C2315 1.490 . S
C2320 C2322 1.395 . S
C2320 C2323 1.403 . S
H2321 C2327 0.930 . S
C2322 H2308 0.930 . S
C2322 C2320 1.395 . S
C2322 C2325 1.403 . S
C2323 C2320 1.403 . S
C2323 C2324 1.524 . S
C2323 C2327 1.400 . S
C2324 H2309 0.960 . S
C2324 H2310 0.960 . S
C2324 H2311 0.960 . S
C2324 C2323 1.524 . S
C2325 C2322 1.403 . S
C2325 C2326 1.392 . S
C2325 C2329 1.495 . S
C2326 C2325 1.392 . S
C2326 C2327 1.385 . S
C2326 C2328 1.478 . S
C2327 H2321 0.930 . S
C2327 C2323 1.400 . S
C2327 C2326 1.385 . S
C2328 C2326 1.478 . S
C2328 C2330 1.381 . S
C2328 C2334 1.383 . S
C2329 C2325 1.495 . S
C2329 H2335 0.959 . S
C2329 H2336 0.961 . S
C2329 H2337 0.960 . S
C2330 C2328 1.381 . S
C2330 C2331 1.394 . S
C2330 H2338 0.930 . S
C2331 C2330 1.394 . S
C2331 C2332 1.383 . S
C2331 H2339 0.929 . S
C2332 C2331 1.383 . S
C2332 C2333 1.377 . S
C2333 H2317 0.930 . S
C2333 C2332 1.377 . S
C2333 C2334 1.379 . S
C2334 H2318 0.931 . S
C2334 C2328 1.383 . S
C2334 C2333 1.379 . S
H2335 C2329 0.959 . S
H2336 C2329 0.961 . S
H2337 C2329 0.960 . S
H2338 C2330 0.930 . S
H2339 C2331 0.929 . S
H2340 C2348 0.929 . S
H2341 C2350 0.930 . S
H2342 C2352 0.930 . S
H2343 C2355 0.929 . S
H2344 C2358 0.930 . S
H2345 C2360 0.960 . S
H2346 C2360 0.960 . S
H2347 C2360 0.960 . S
C2348 H2340 0.929 . S
C2348 C2349 1.377 . S
C2348 C2350 1.384 . S
C2349 C2348 1.377 . S
C2349 C2355 1.390 . S
C2350 H2341 0.930 . S
C2350 C2348 1.384 . S
C2350 C2351 1.372 . S
C2351 C2350 1.372 . S
C2351 C2352 1.400 . S
C2351 C2356 1.490 . S
C2352 H2342 0.930 . S
C2352 C2351 1.400 . S
C2352 C2355 1.386 . S
H2353 C2369 0.930 . S
H2354 C2370 0.931 . S
C2355 H2343 0.929 . S
C2355 C2349 1.390 . S
C2355 C2352 1.386 . S
C2356 C2351 1.490 . S
C2356 C2358 1.395 . S
C2356 C2359 1.403 . S
H2357 C2363 0.930 . S
C2358 H2344 0.930 . S
C2358 C2356 1.395 . S
C2358 C2361 1.403 . S
C2359 C2356 1.403 . S
C2359 C2360 1.524 . S
C2359 C2363 1.400 . S
C2360 H2345 0.960 . S
C2360 H2346 0.960 . S
C2360 H2347 0.960 . S
C2360 C2359 1.524 . S
C2361 C2358 1.403 . S
C2361 C2362 1.392 . S
C2361 C2365 1.495 . S
C2362 C2361 1.392 . S
C2362 C2363 1.385 . S
C2362 C2364 1.478 . S
C2363 H2357 0.930 . S
C2363 C2359 1.400 . S
C2363 C2362 1.385 . S
C2364 C2362 1.478 . S
C2364 C2366 1.381 . S
C2364 C2370 1.383 . S
C2365 C2361 1.495 . S
C2365 H2371 0.959 . S
C2365 H2372 0.961 . S
C2365 H2373 0.960 . S
C2366 C2364 1.381 . S
C2366 C2367 1.394 . S
C2366 H2374 0.930 . S
C2367 C2366 1.394 . S
C2367 C2368 1.383 . S
C2367 H2375 0.929 . S
C2368 C2367 1.383 . S
C2368 C2369 1.377 . S
C2369 H2353 0.930 . S
C2369 C2368 1.377 . S
C2369 C2370 1.379 . S
C2370 H2354 0.931 . S
C2370 C2364 1.383 . S
C2370 C2369 1.379 . S
H2371 C2365 0.959 . S
H2372 C2365 0.961 . S
H2373 C2365 0.960 . S
H2374 C2366 0.930 . S
H2375 C2367 0.929 . S
H2376 C2384 0.929 . S
H2377 C2386 0.930 . S
H2378 C2388 0.930 . S
H2379 C2391 0.929 . S
H2380 C2394 0.930 . S
H2381 C2396 0.960 . S
H2382 C2396 0.960 . S
H2383 C2396 0.960 . S
C2384 H2376 0.929 . S
C2384 C2385 1.377 . S
C2384 C2386 1.384 . S
C2385 C2384 1.377 . S
C2385 C2391 1.390 . S
C2386 H2377 0.930 . S
C2386 C2384 1.384 . S
C2386 C2387 1.372 . S
C2387 C2386 1.372 . S
C2387 C2388 1.400 . S
C2387 C2392 1.490 . S
C2388 H2378 0.930 . S
C2388 C2387 1.400 . S
C2388 C2391 1.386 . S
H2389 C2405 0.930 . S
H2390 C2406 0.931 . S
C2391 H2379 0.929 . S
C2391 C2385 1.390 . S
C2391 C2388 1.386 . S
C2392 C2387 1.490 . S
C2392 C2394 1.395 . S
C2392 C2395 1.403 . S
H2393 C2399 0.930 . S
C2394 H2380 0.930 . S
C2394 C2392 1.395 . S
C2394 C2397 1.403 . S
C2395 C2392 1.403 . S
C2395 C2396 1.524 . S
C2395 C2399 1.400 . S
C2396 H2381 0.960 . S
C2396 H2382 0.960 . S
C2396 H2383 0.960 . S
C2396 C2395 1.524 . S
C2397 C2394 1.403 . S
C2397 C2398 1.392 . S
C2397 C2401 1.495 . S
C2398 C2397 1.392 . S
C2398 C2399 1.385 . S
C2398 C2400 1.478 . S
C2399 H2393 0.930 . S
C2399 C2395 1.400 . S
C2399 C2398 1.385 . S
C2400 C2398 1.478 . S
C2400 C2402 1.381 . S
C2400 C2406 1.383 . S
C2401 C2397 1.495 . S
C2401 H2407 0.959 . S
C2401 H2408 0.961 . S
C2401 H2409 0.960 . S
C2402 C2400 1.381 . S
C2402 C2403 1.394 . S
C2402 H2410 0.930 . S
C2403 C2402 1.394 . S
C2403 C2404 1.383 . S
C2403 H2411 0.929 . S
C2404 C2403 1.383 . S
C2404 C2405 1.377 . S
C2405 H2389 0.930 . S
C2405 C2404 1.377 . S
C2405 C2406 1.379 . S
C2406 H2390 0.931 . S
C2406 C2400 1.383 . S
C2406 C2405 1.379 . S
H2407 C2401 0.959 . S
H2408 C2401 0.961 . S
H2409 C2401 0.960 . S
H2410 C2402 0.930 . S
H2411 C2403 0.929 . S
H2412 C2420 0.929 . S
H2413 C2422 0.930 . S
H2414 C2424 0.930 . S
H2415 C2427 0.929 . S
H2416 C2430 0.930 . S
H2417 C2432 0.960 . S
H2418 C2432 0.960 . S
H2419 C2432 0.960 . S
C2420 H2412 0.929 . S
C2420 C2421 1.377 . S
C2420 C2422 1.384 . S
C2421 C2420 1.377 . S
C2421 C2427 1.390 . S
C2422 H2413 0.930 . S
C2422 C2420 1.384 . S
C2422 C2423 1.372 . S
C2423 C2422 1.372 . S
C2423 C2424 1.400 . S
C2423 C2428 1.490 . S
C2424 H2414 0.930 . S
C2424 C2423 1.400 . S
C2424 C2427 1.386 . S
H2425 C2441 0.930 . S
H2426 C2442 0.931 . S
C2427 H2415 0.929 . S
C2427 C2421 1.390 . S
C2427 C2424 1.386 . S
C2428 C2423 1.490 . S
C2428 C2430 1.395 . S
C2428 C2431 1.403 . S
H2429 C2435 0.930 . S
C2430 H2416 0.930 . S
C2430 C2428 1.395 . S
C2430 C2433 1.403 . S
C2431 C2428 1.403 . S
C2431 C2432 1.524 . S
C2431 C2435 1.400 . S
C2432 H2417 0.960 . S
C2432 H2418 0.960 . S
C2432 H2419 0.960 . S
C2432 C2431 1.524 . S
C2433 C2430 1.403 . S
C2433 C2434 1.392 . S
C2433 C2437 1.495 . S
C2434 C2433 1.392 . S
C2434 C2435 1.385 . S
C2434 C2436 1.478 . S
C2435 H2429 0.930 . S
C2435 C2431 1.400 . S
C2435 C2434 1.385 . S
C2436 C2434 1.478 . S
C2436 C2438 1.381 . S
C2436 C2442 1.383 . S
C2437 C2433 1.495 . S
C2437 H2443 0.959 . S
C2437 H2444 0.961 . S
C2437 H2445 0.960 . S
C2438 C2436 1.381 . S
C2438 C2439 1.394 . S
C2438 H2446 0.930 . S
C2439 C2438 1.394 . S
C2439 C2440 1.383 . S
C2439 H2447 0.929 . S
C2440 C2439 1.383 . S
C2440 C2441 1.377 . S
C2441 H2425 0.930 . S
C2441 C2440 1.377 . S
C2441 C2442 1.379 . S
C2442 H2426 0.931 . S
C2442 C2436 1.383 . S
C2442 C2441 1.379 . S
H2443 C2437 0.959 . S
H2444 C2437 0.961 . S
H2445 C2437 0.960 . S
H2446 C2438 0.930 . S
H2447 C2439 0.929 . S
H2448 C2456 0.929 . S
H2449 C2458 0.930 . S
H2450 C2460 0.930 . S
H2451 C2463 0.929 . S
H2452 C2466 0.930 . S
H2453 C2468 0.960 . S
H2454 C2468 0.960 . S
H2455 C2468 0.960 . S
C2456 H2448 0.929 . S
C2456 C2457 1.377 . S
C2456 C2458 1.384 . S
C2457 C2456 1.377 . S
C2457 C2463 1.390 . S
C2458 H2449 0.930 . S
C2458 C2456 1.384 . S
C2458 C2459 1.372 . S
C2459 C2458 1.372 . S
C2459 C2460 1.400 . S
C2459 C2464 1.490 . S
C2460 H2450 0.930 . S
C2460 C2459 1.400 . S
C2460 C2463 1.386 . S
H2461 C2477 0.930 . S
H2462 C2478 0.931 . S
C2463 H2451 0.929 . S
C2463 C2457 1.390 . S
C2463 C2460 1.386 . S
C2464 C2459 1.490 . S
C2464 C2466 1.395 . S
C2464 C2467 1.403 . S
H2465 C2471 0.930 . S
C2466 H2452 0.930 . S
C2466 C2464 1.395 . S
C2466 C2469 1.403 . S
C2467 C2464 1.403 . S
C2467 C2468 1.524 . S
C2467 C2471 1.400 . S
C2468 H2453 0.960 . S
C2468 H2454 0.960 . S
C2468 H2455 0.960 . S
C2468 C2467 1.524 . S
C2469 C2466 1.403 . S
C2469 C2470 1.392 . S
C2469 C2473 1.495 . S
C2470 C2469 1.392 . S
C2470 C2471 1.385 . S
C2470 C2472 1.478 . S
C2471 H2465 0.930 . S
C2471 C2467 1.400 . S
C2471 C2470 1.385 . S
C2472 C2470 1.478 . S
C2472 C2474 1.381 . S
C2472 C2478 1.383 . S
C2473 C2469 1.495 . S
C2473 H2479 0.959 . S
C2473 H2480 0.961 . S
C2473 H2481 0.960 . S
C2474 C2472 1.381 . S
C2474 C2475 1.394 . S
C2474 H2482 0.930 . S
C2475 C2474 1.394 . S
C2475 C2476 1.383 . S
C2475 H2483 0.929 . S
C2476 C2475 1.383 . S
C2476 C2477 1.377 . S
C2477 H2461 0.930 . S
C2477 C2476 1.377 . S
C2477 C2478 1.379 . S
C2478 H2462 0.931 . S
C2478 C2472 1.383 . S
C2478 C2477 1.379 . S
H2479 C2473 0.959 . S
H2480 C2473 0.961 . S
H2481 C2473 0.960 . S
H2482 C2474 0.930 . S
H2483 C2475 0.929 . S
H2484 C2492 0.929 . S
H2485 C2494 0.930 . S
H2486 C2496 0.930 . S
H2487 C2499 0.929 . S
H2488 C2502 0.930 . S
H2489 C2504 0.960 . S
H2490 C2504 0.960 . S
H2491 C2504 0.960 . S
C2492 H2484 0.929 . S
C2492 C2493 1.377 . S
C2492 C2494 1.384 . S
C2493 C2492 1.377 . S
C2493 C2499 1.390 . S
C2494 H2485 0.930 . S
C2494 C2492 1.384 . S
C2494 C2495 1.372 . S
C2495 C2494 1.372 . S
C2495 C2496 1.400 . S
C2495 C2500 1.490 . S
C2496 H2486 0.930 . S
C2496 C2495 1.400 . S
C2496 C2499 1.386 . S
H2497 C2513 0.930 . S
H2498 C2514 0.931 . S
C2499 H2487 0.929 . S
C2499 C2493 1.390 . S
C2499 C2496 1.386 . S
C2500 C2495 1.490 . S
C2500 C2502 1.395 . S
C2500 C2503 1.403 . S
H2501 C2507 0.930 . S
C2502 H2488 0.930 . S
C2502 C2500 1.395 . S
C2502 C2505 1.403 . S
C2503 C2500 1.403 . S
C2503 C2504 1.524 . S
C2503 C2507 1.400 . S
C2504 H2489 0.960 . S
C2504 H2490 0.960 . S
C2504 H2491 0.960 . S
C2504 C2503 1.524 . S
C2505 C2502 1.403 . S
C2505 C2506 1.392 . S
C2505 C2509 1.495 . S
C2506 C2505 1.392 . S
C2506 C2507 1.385 . S
C2506 C2508 1.478 . S
C2507 H2501 0.930 . S
C2507 C2503 1.400 . S
C2507 C2506 1.385 . S
C2508 C2506 1.478 . S
C2508 C2510 1.381 . S
C2508 C2514 1.383 . S
C2509 C2505 1.495 . S
C2509 H2515 0.959 . S
C2509 H2516 0.961 . S
C2509 H2517 0.960 . S
C2510 C2508 1.381 . S
C2510 C2511 1.394 . S
C2510 H2518 0.930 . S
C2511 C2510 1.394 . S
C2511 C2512 1.383 . S
C2511 H2519 0.929 . S
C2512 C2511 1.383 . S
C2512 C2513 1.377 . S
C2513 H2497 0.930 . S
C2513 C2512 1.377 . S
C2513 C2514 1.379 . S
C2514 H2498 0.931 . S
C2514 C2508 1.383 . S
C2514 C2513 1.379 . S
H2515 C2509 0.959 . S
H2516 C2509 0.961 . S
H2517 C2509 0.960 . S
H2518 C2510 0.930 . S
H2519 C2511 0.929 . S
H2520 C2528 0.929 . S
H2521 C2530 0.930 . S
H2522 C2532 0.930 . S
H2523 C2535 0.929 . S
H2524 C2538 0.930 . S
H2525 C2540 0.960 . S
H2526 C2540 0.960 . S
H2527 C2540 0.960 . S
C2528 H2520 0.929 . S
C2528 C2529 1.377 . S
C2528 C2530 1.384 . S
C2529 C2528 1.377 . S
C2529 C2535 1.390 . S
C2530 H2521 0.930 . S
C2530 C2528 1.384 . S
C2530 C2531 1.372 . S
C2531 C2530 1.372 . S
C2531 C2532 1.400 . S
C2531 C2536 1.490 . S
C2532 H2522 0.930 . S
C2532 C2531 1.400 . S
C2532 C2535 1.386 . S
H2533 C2549 0.930 . S
H2534 C2550 0.931 . S
C2535 H2523 0.929 . S
C2535 C2529 1.390 . S
C2535 C2532 1.386 . S
C2536 C2531 1.490 . S
C2536 C2538 1.395 . S
C2536 C2539 1.403 . S
H2537 C2543 0.930 . S
C2538 H2524 0.930 . S
C2538 C2536 1.395 . S
C2538 C2541 1.403 . S
C2539 C2536 1.403 . S
C2539 C2540 1.524 . S
C2539 C2543 1.400 . S
C2540 H2525 0.960 . S
C2540 H2526 0.960 . S
C2540 H2527 0.960 . S
C2540 C2539 1.524 . S
C2541 C2538 1.403 . S
C2541 C2542 1.392 . S
C2541 C2545 1.495 . S
C2542 C2541 1.392 . S
C2542 C2543 1.385 . S
C2542 C2544 1.478 . S
C2543 H2537 0.930 . S
C2543 C2539 1.400 . S
C2543 C2542 1.385 . S
C2544 C2542 1.478 . S
C2544 C2546 1.381 . S
C2544 C2550 1.383 . S
C2545 C2541 1.495 . S
C2545 H2551 0.959 . S
C2545 H2552 0.961 . S
C2545 H2553 0.960 . S
C2546 C2544 1.381 . S
C2546 C2547 1.394 . S
C2546 H2554 0.930 . S
C2547 C2546 1.394 . S
C2547 C2548 1.383 . S
C2547 H2555 0.929 . S
C2548 C2547 1.383 . S
C2548 C2549 1.377 . S
C2549 H2533 0.930 . S
C2549 C2548 1.377 . S
C2549 C2550 1.379 . S
C2550 H2534 0.931 . S
C2550 C2544 1.383 . S
C2550 C2549 1.379 . S
H2551 C2545 0.959 . S
H2552 C2545 0.961 . S
H2553 C2545 0.960 . S
H2554 C2546 0.930 . S
H2555 C2547 0.929 . S
H2556 C2564 0.929 . S
H2557 C2566 0.930 . S
H2558 C2568 0.930 . S
H2559 C2571 0.929 . S
H2560 C2574 0.930 . S
H2561 C2576 0.960 . S
H2562 C2576 0.960 . S
H2563 C2576 0.960 . S
C2564 H2556 0.929 . S
C2564 C2565 1.377 . S
C2564 C2566 1.384 . S
C2565 C2564 1.377 . S
C2565 C2571 1.390 . S
C2566 H2557 0.930 . S
C2566 C2564 1.384 . S
C2566 C2567 1.372 . S
C2567 C2566 1.372 . S
C2567 C2568 1.400 . S
C2567 C2572 1.490 . S
C2568 H2558 0.930 . S
C2568 C2567 1.400 . S
C2568 C2571 1.386 . S
H2569 C2585 0.930 . S
H2570 C2586 0.931 . S
C2571 H2559 0.929 . S
C2571 C2565 1.390 . S
C2571 C2568 1.386 . S
C2572 C2567 1.490 . S
C2572 C2574 1.395 . S
C2572 C2575 1.403 . S
H2573 C2579 0.930 . S
C2574 H2560 0.930 . S
C2574 C2572 1.395 . S
C2574 C2577 1.403 . S
C2575 C2572 1.403 . S
C2575 C2576 1.524 . S
C2575 C2579 1.400 . S
C2576 H2561 0.960 . S
C2576 H2562 0.960 . S
C2576 H2563 0.960 . S
C2576 C2575 1.524 . S
C2577 C2574 1.403 . S
C2577 C2578 1.392 . S
C2577 C2581 1.495 . S
C2578 C2577 1.392 . S
C2578 C2579 1.385 . S
C2578 C2580 1.478 . S
C2579 H2573 0.930 . S
C2579 C2575 1.400 . S
C2579 C2578 1.385 . S
C2580 C2578 1.478 . S
C2580 C2582 1.381 . S
C2580 C2586 1.383 . S
C2581 C2577 1.495 . S
C2581 H2587 0.959 . S
C2581 H2588 0.961 . S
C2581 H2589 0.960 . S
C2582 C2580 1.381 . S
C2582 C2583 1.394 . S
C2582 H2590 0.930 . S
C2583 C2582 1.394 . S
C2583 C2584 1.383 . S
C2583 H2591 0.929 . S
C2584 C2583 1.383 . S
C2584 C2585 1.377 . S
C2585 H2569 0.930 . S
C2585 C2584 1.377 . S
C2585 C2586 1.379 . S
C2586 H2570 0.931 . S
C2586 C2580 1.383 . S
C2586 C2585 1.379 . S
H2587 C2581 0.959 . S
H2588 C2581 0.961 . S
H2589 C2581 0.960 . S
H2590 C2582 0.930 . S
H2591 C2583 0.929 . S
H2592 C2600 0.929 . S
H2593 C2602 0.930 . S
H2594 C2604 0.930 . S
H2595 C2607 0.929 . S
H2596 C2610 0.930 . S
H2597 C2612 0.960 . S
H2598 C2612 0.960 . S
H2599 C2612 0.960 . S
C2600 H2592 0.929 . S
C2600 C2601 1.377 . S
C2600 C2602 1.384 . S
C2601 C2600 1.377 . S
C2601 C2607 1.390 . S
C2602 H2593 0.930 . S
C2602 C2600 1.384 . S
C2602 C2603 1.372 . S
C2603 C2602 1.372 . S
C2603 C2604 1.400 . S
C2603 C2608 1.490 . S
C2604 H2594 0.930 . S
C2604 C2603 1.400 . S
C2604 C2607 1.386 . S
H2605 C2621 0.930 . S
H2606 C2622 0.931 . S
C2607 H2595 0.929 . S
C2607 C2601 1.390 . S
C2607 C2604 1.386 . S
C2608 C2603 1.490 . S
C2608 C2610 1.395 . S
C2608 C2611 1.403 . S
H2609 C2615 0.930 . S
C2610 H2596 0.930 . S
C2610 C2608 1.395 . S
C2610 C2613 1.403 . S
C2611 C2608 1.403 . S
C2611 C2612 1.524 . S
C2611 C2615 1.400 . S
C2612 H2597 0.960 . S
C2612 H2598 0.960 . S
C2612 H2599 0.960 . S
C2612 C2611 1.524 . S
C2613 C2610 1.403 . S
C2613 C2614 1.392 . S
C2613 C2617 1.495 . S
C2614 C2613 1.392 . S
C2614 C2615 1.385 . S
C2614 C2616 1.478 . S
C2615 H2609 0.930 . S
C2615 C2611 1.400 . S
C2615 C2614 1.385 . S
C2616 C2614 1.478 . S
C2616 C2618 1.381 . S
C2616 C2622 1.383 . S
C2617 C2613 1.495 . S
C2617 H2623 0.959 . S
C2617 H2624 0.961 . S
C2617 H2625 0.960 . S
C2618 C2616 1.381 . S
C2618 C2619 1.394 . S
C2618 H2626 0.930 . S
C2619 C2618 1.394 . S
C2619 C2620 1.383 . S
C2619 H2627 0.929 . S
C2620 C2619 1.383 . S
C2620 C2621 1.377 . S
C2621 H2605 0.930 . S
C2621 C2620 1.377 . S
C2621 C2622 1.379 . S
C2622 H2606 0.931 . S
C2622 C2616 1.383 . S
C2622 C2621 1.379 . S
H2623 C2617 0.959 . S
H2624 C2617 0.961 . S
H2625 C2617 0.960 . S
H2626 C2618 0.930 . S
H2627 C2619 0.929 . S
H2628 C2636 0.929 . S
H2629 C2638 0.930 . S
H2630 C2640 0.930 . S
H2631 C2643 0.929 . S
H2632 C2646 0.930 . S
H2633 C2648 0.960 . S
H2634 C2648 0.960 . S
H2635 C2648 0.960 . S
C2636 H2628 0.929 . S
C2636 C2637 1.377 . S
C2636 C2638 1.384 . S
C2637 C2636 1.377 . S
C2637 C2643 1.390 . S
C2638 H2629 0.930 . S
C2638 C2636 1.384 . S
C2638 C2639 1.372 . S
C2639 C2638 1.372 . S
C2639 C2640 1.400 . S
C2639 C2644 1.490 . S
C2640 H2630 0.930 . S
C2640 C2639 1.400 . S
C2640 C2643 1.386 . S
H2641 C2657 0.930 . S
H2642 C2658 0.931 . S
C2643 H2631 0.929 . S
C2643 C2637 1.390 . S
C2643 C2640 1.386 . S
C2644 C2639 1.490 . S
C2644 C2646 1.395 . S
C2644 C2647 1.403 . S
H2645 C2651 0.930 . S
C2646 H2632 0.930 . S
C2646 C2644 1.395 . S
C2646 C2649 1.403 . S
C2647 C2644 1.403 . S
C2647 C2648 1.524 . S
C2647 C2651 1.400 . S
C2648 H2633 0.960 . S
C2648 H2634 0.960 . S
C2648 H2635 0.960 . S
C2648 C2647 1.524 . S
C2649 C2646 1.403 . S
C2649 C2650 1.392 . S
C2649 C2653 1.495 . S
C2650 C2649 1.392 . S
C2650 C2651 1.385 . S
C2650 C2652 1.478 . S
C2651 H2645 0.930 . S
C2651 C2647 1.400 . S
C2651 C2650 1.385 . S
C2652 C2650 1.478 . S
C2652 C2654 1.381 . S
C2652 C2658 1.383 . S
C2653 C2649 1.495 . S
C2653 H2659 0.959 . S
C2653 H2660 0.961 . S
C2653 H2661 0.960 . S
C2654 C2652 1.381 . S
C2654 C2655 1.394 . S
C2654 H2662 0.930 . S
C2655 C2654 1.394 . S
C2655 C2656 1.383 . S
C2655 H2663 0.929 . S
C2656 C2655 1.383 . S
C2656 C2657 1.377 . S
C2657 H2641 0.930 . S
C2657 C2656 1.377 . S
C2657 C2658 1.379 . S
C2658 H2642 0.931 . S
C2658 C2652 1.383 . S
C2658 C2657 1.379 . S
H2659 C2653 0.959 . S
H2660 C2653 0.961 . S
H2661 C2653 0.960 . S
H2662 C2654 0.930 . S
H2663 C2655 0.929 . S
H2664 C2672 0.929 . S
H2665 C2674 0.930 . S
H2666 C2676 0.930 . S
H2667 C2679 0.929 . S
H2668 C2682 0.930 . S
H2669 C2684 0.960 . S
H2670 C2684 0.960 . S
H2671 C2684 0.960 . S
C2672 H2664 0.929 . S
C2672 C2673 1.377 . S
C2672 C2674 1.384 . S
C2673 C2672 1.377 . S
C2673 C2679 1.390 . S
C2674 H2665 0.930 . S
C2674 C2672 1.384 . S
C2674 C2675 1.372 . S
C2675 C2674 1.372 . S
C2675 C2676 1.400 . S
C2675 C2680 1.490 . S
C2676 H2666 0.930 . S
C2676 C2675 1.400 . S
C2676 C2679 1.386 . S
H2677 C2693 0.930 . S
H2678 C2694 0.931 . S
C2679 H2667 0.929 . S
C2679 C2673 1.390 . S
C2679 C2676 1.386 . S
C2680 C2675 1.490 . S
C2680 C2682 1.395 . S
C2680 C2683 1.403 . S
H2681 C2687 0.930 . S
C2682 H2668 0.930 . S
C2682 C2680 1.395 . S
C2682 C2685 1.403 . S
C2683 C2680 1.403 . S
C2683 C2684 1.524 . S
C2683 C2687 1.400 . S
C2684 H2669 0.960 . S
C2684 H2670 0.960 . S
C2684 H2671 0.960 . S
C2684 C2683 1.524 . S
C2685 C2682 1.403 . S
C2685 C2686 1.392 . S
C2685 C2689 1.495 . S
C2686 C2685 1.392 . S
C2686 C2687 1.385 . S
C2686 C2688 1.478 . S
C2687 H2681 0.930 . S
C2687 C2683 1.400 . S
C2687 C2686 1.385 . S
C2688 C2686 1.478 . S
C2688 C2690 1.381 . S
C2688 C2694 1.383 . S
C2689 C2685 1.495 . S
C2689 H2695 0.959 . S
C2689 H2696 0.961 . S
C2689 H2697 0.960 . S
C2690 C2688 1.381 . S
C2690 C2691 1.394 . S
C2690 H2698 0.930 . S
C2691 C2690 1.394 . S
C2691 C2692 1.383 . S
C2691 H2699 0.929 . S
C2692 C2691 1.383 . S
C2692 C2693 1.377 . S
C2693 H2677 0.930 . S
C2693 C2692 1.377 . S
C2693 C2694 1.379 . S
C2694 H2678 0.931 . S
C2694 C2688 1.383 . S
C2694 C2693 1.379 . S
H2695 C2689 0.959 . S
H2696 C2689 0.961 . S
H2697 C2689 0.960 . S
H2698 C2690 0.930 . S
H2699 C2691 0.929 . S
H2700 C2708 0.929 . S
H2701 C2710 0.930 . S
H2702 C2712 0.930 . S
H2703 C2715 0.929 . S
H2704 C2718 0.930 . S
H2705 C2720 0.960 . S
H2706 C2720 0.960 . S
H2707 C2720 0.960 . S
C2708 H2700 0.929 . S
C2708 C2709 1.377 . S
C2708 C2710 1.384 . S
C2709 C2708 1.377 . S
C2709 C2715 1.390 . S
C2710 H2701 0.930 . S
C2710 C2708 1.384 . S
C2710 C2711 1.372 . S
C2711 C2710 1.372 . S
C2711 C2712 1.400 . S
C2711 C2716 1.490 . S
C2712 H2702 0.930 . S
C2712 C2711 1.400 . S
C2712 C2715 1.386 . S
H2713 C2729 0.930 . S
H2714 C2730 0.931 . S
C2715 H2703 0.929 . S
C2715 C2709 1.390 . S
C2715 C2712 1.386 . S
C2716 C2711 1.490 . S
C2716 C2718 1.395 . S
C2716 C2719 1.403 . S
H2717 C2723 0.930 . S
C2718 H2704 0.930 . S
C2718 C2716 1.395 . S
C2718 C2721 1.403 . S
C2719 C2716 1.403 . S
C2719 C2720 1.524 . S
C2719 C2723 1.400 . S
C2720 H2705 0.960 . S
C2720 H2706 0.960 . S
C2720 H2707 0.960 . S
C2720 C2719 1.524 . S
C2721 C2718 1.403 . S
C2721 C2722 1.392 . S
C2721 C2725 1.495 . S
C2722 C2721 1.392 . S
C2722 C2723 1.385 . S
C2722 C2724 1.478 . S
C2723 H2717 0.930 . S
C2723 C2719 1.400 . S
C2723 C2722 1.385 . S
C2724 C2722 1.478 . S
C2724 C2726 1.381 . S
C2724 C2730 1.383 . S
C2725 C2721 1.495 . S
C2725 H2731 0.959 . S
C2725 H2732 0.961 . S
C2725 H2733 0.960 . S
C2726 C2724 1.381 . S
C2726 C2727 1.394 . S
C2726 H2734 0.930 . S
C2727 C2726 1.394 . S
C2727 C2728 1.383 . S
C2727 H2735 0.929 . S
C2728 C2727 1.383 . S
C2728 C2729 1.377 . S
C2729 H2713 0.930 . S
C2729 C2728 1.377 . S
C2729 C2730 1.379 . S
C2730 H2714 0.931 . S
C2730 C2724 1.383 . S
C2730 C2729 1.379 . S
H2731 C2725 0.959 . S
H2732 C2725 0.961 . S
H2733 C2725 0.960 . S
H2734 C2726 0.930 . S
H2735 C2727 0.929 . S
H2736 C2744 0.929 . S
H2737 C2746 0.930 . S
H2738 C2748 0.930 . S
H2739 C2751 0.929 . S
H2740 C2754 0.930 . S
H2741 C2756 0.960 . S
H2742 C2756 0.960 . S
H2743 C2756 0.960 . S
C2744 H2736 0.929 . S
C2744 C2745 1.377 . S
C2744 C2746 1.384 . S
C2745 C2744 1.377 . S
C2745 C2751 1.390 . S
C2746 H2737 0.930 . S
C2746 C2744 1.384 . S
C2746 C2747 1.372 . S
C2747 C2746 1.372 . S
C2747 C2748 1.400 . S
C2747 C2752 1.490 . S
C2748 H2738 0.930 . S
C2748 C2747 1.400 . S
C2748 C2751 1.386 . S
H2749 C2765 0.930 . S
H2750 C2766 0.931 . S
C2751 H2739 0.929 . S
C2751 C2745 1.390 . S
C2751 C2748 1.386 . S
C2752 C2747 1.490 . S
C2752 C2754 1.395 . S
C2752 C2755 1.403 . S
H2753 C2759 0.930 . S
C2754 H2740 0.930 . S
C2754 C2752 1.395 . S
C2754 C2757 1.403 . S
C2755 C2752 1.403 . S
C2755 C2756 1.524 . S
C2755 C2759 1.400 . S
C2756 H2741 0.960 . S
C2756 H2742 0.960 . S
C2756 H2743 0.960 . S
C2756 C2755 1.524 . S
C2757 C2754 1.403 . S
C2757 C2758 1.392 . S
C2757 C2761 1.495 . S
C2758 C2757 1.392 . S
C2758 C2759 1.385 . S
C2758 C2760 1.478 . S
C2759 H2753 0.930 . S
C2759 C2755 1.400 . S
C2759 C2758 1.385 . S
C2760 C2758 1.478 . S
C2760 C2762 1.381 . S
C2760 C2766 1.383 . S
C2761 C2757 1.495 . S
C2761 H2767 0.959 . S
C2761 H2768 0.961 . S
C2761 H2769 0.960 . S
C2762 C2760 1.381 . S
C2762 C2763 1.394 . S
C2762 H2770 0.930 . S
C2763 C2762 1.394 . S
C2763 C2764 1.383 . S
C2763 H2771 0.929 . S
C2764 C2763 1.383 . S
C2764 C2765 1.377 . S
C2765 H2749 0.930 . S
C2765 C2764 1.377 . S
C2765 C2766 1.379 . S
C2766 H2750 0.931 . S
C2766 C2760 1.383 . S
C2766 C2765 1.379 . S
H2767 C2761 0.959 . S
H2768 C2761 0.961 . S
H2769 C2761 0.960 . S
H2770 C2762 0.930 . S
H2771 C2763 0.929 . S
H2772 C2780 0.929 . S
H2773 C2782 0.930 . S
H2774 C2784 0.930 . S
H2775 C2787 0.929 . S
H2776 C2790 0.930 . S
H2777 C2792 0.960 . S
H2778 C2792 0.960 . S
H2779 C2792 0.960 . S
C2780 H2772 0.929 . S
C2780 C2781 1.377 . S
C2780 C2782 1.384 . S
C2781 C2780 1.377 . S
C2781 C2787 1.390 . S
C2782 H2773 0.930 . S
C2782 C2780 1.384 . S
C2782 C2783 1.372 . S
C2783 C2782 1.372 . S
C2783 C2784 1.400 . S
C2783 C2788 1.490 . S
C2784 H2774 0.930 . S
C2784 C2783 1.400 . S
C2784 C2787 1.386 . S
H2785 C2801 0.930 . S
H2786 C2802 0.931 . S
C2787 H2775 0.929 . S
C2787 C2781 1.390 . S
C2787 C2784 1.386 . S
C2788 C2783 1.490 . S
C2788 C2790 1.395 . S
C2788 C2791 1.403 . S
H2789 C2795 0.930 . S
C2790 H2776 0.930 . S
C2790 C2788 1.395 . S
C2790 C2793 1.403 . S
C2791 C2788 1.403 . S
C2791 C2792 1.524 . S
C2791 C2795 1.400 . S
C2792 H2777 0.960 . S
C2792 H2778 0.960 . S
C2792 H2779 0.960 . S
C2792 C2791 1.524 . S
C2793 C2790 1.403 . S
C2793 C2794 1.392 . S
C2793 C2797 1.495 . S
C2794 C2793 1.392 . S
C2794 C2795 1.385 . S
C2794 C2796 1.478 . S
C2795 H2789 0.930 . S
C2795 C2791 1.400 . S
C2795 C2794 1.385 . S
C2796 C2794 1.478 . S
C2796 C2798 1.381 . S
C2796 C2802 1.383 . S
C2797 C2793 1.495 . S
C2797 H2803 0.959 . S
C2797 H2804 0.961 . S
C2797 H2805 0.960 . S
C2798 C2796 1.381 . S
C2798 C2799 1.394 . S
C2798 H2806 0.930 . S
C2799 C2798 1.394 . S
C2799 C2800 1.383 . S
C2799 H2807 0.929 . S
C2800 C2799 1.383 . S
C2800 C2801 1.377 . S
C2801 H2785 0.930 . S
C2801 C2800 1.377 . S
C2801 C2802 1.379 . S
C2802 H2786 0.931 . S
C2802 C2796 1.383 . S
C2802 C2801 1.379 . S
H2803 C2797 0.959 . S
H2804 C2797 0.961 . S
H2805 C2797 0.960 . S
H2806 C2798 0.930 . S
H2807 C2799 0.929 . S
H2808 C2816 0.929 . S
H2809 C2818 0.930 . S
H2810 C2820 0.930 . S
H2811 C2823 0.929 . S
H2812 C2826 0.930 . S
H2813 C2828 0.960 . S
H2814 C2828 0.960 . S
H2815 C2828 0.960 . S
C2816 H2808 0.929 . S
C2816 C2817 1.377 . S
C2816 C2818 1.384 . S
C2817 C2816 1.377 . S
C2817 C2823 1.390 . S
C2818 H2809 0.930 . S
C2818 C2816 1.384 . S
C2818 C2819 1.372 . S
C2819 C2818 1.372 . S
C2819 C2820 1.400 . S
C2819 C2824 1.490 . S
C2820 H2810 0.930 . S
C2820 C2819 1.400 . S
C2820 C2823 1.386 . S
H2821 C2837 0.930 . S
H2822 C2838 0.931 . S
C2823 H2811 0.929 . S
C2823 C2817 1.390 . S
C2823 C2820 1.386 . S
C2824 C2819 1.490 . S
C2824 C2826 1.395 . S
C2824 C2827 1.403 . S
H2825 C2831 0.930 . S
C2826 H2812 0.930 . S
C2826 C2824 1.395 . S
C2826 C2829 1.403 . S
C2827 C2824 1.403 . S
C2827 C2828 1.524 . S
C2827 C2831 1.400 . S
C2828 H2813 0.960 . S
C2828 H2814 0.960 . S
C2828 H2815 0.960 . S
C2828 C2827 1.524 . S
C2829 C2826 1.403 . S
C2829 C2830 1.392 . S
C2829 C2833 1.495 . S
C2830 C2829 1.392 . S
C2830 C2831 1.385 . S
C2830 C2832 1.478 . S
C2831 H2825 0.930 . S
C2831 C2827 1.400 . S
C2831 C2830 1.385 . S
C2832 C2830 1.478 . S
C2832 C2834 1.381 . S
C2832 C2838 1.383 . S
C2833 C2829 1.495 . S
C2833 H2839 0.959 . S
C2833 H2840 0.961 . S
C2833 H2841 0.960 . S
C2834 C2832 1.381 . S
C2834 C2835 1.394 . S
C2834 H2842 0.930 . S
C2835 C2834 1.394 . S
C2835 C2836 1.383 . S
C2835 H2843 0.929 . S
C2836 C2835 1.383 . S
C2836 C2837 1.377 . S
C2837 H2821 0.930 . S
C2837 C2836 1.377 . S
C2837 C2838 1.379 . S
C2838 H2822 0.931 . S
C2838 C2832 1.383 . S
C2838 C2837 1.379 . S
H2839 C2833 0.959 . S
H2840 C2833 0.961 . S
H2841 C2833 0.960 . S
H2842 C2834 0.930 . S
H2843 C2835 0.929 . S
H2844 C2852 0.929 . S
H2845 C2854 0.930 . S
H2846 C2856 0.930 . S
H2847 C2859 0.929 . S
H2848 C2862 0.930 . S
H2849 C2864 0.960 . S
H2850 C2864 0.960 . S
H2851 C2864 0.960 . S
C2852 H2844 0.929 . S
C2852 C2853 1.377 . S
C2852 C2854 1.384 . S
C2853 C2852 1.377 . S
C2853 C2859 1.390 . S
C2854 H2845 0.930 . S
C2854 C2852 1.384 . S
C2854 C2855 1.372 . S
C2855 C2854 1.372 . S
C2855 C2856 1.400 . S
C2855 C2860 1.490 . S
C2856 H2846 0.930 . S
C2856 C2855 1.400 . S
C2856 C2859 1.386 . S
H2857 C2873 0.930 . S
H2858 C2874 0.931 . S
C2859 H2847 0.929 . S
C2859 C2853 1.390 . S
C2859 C2856 1.386 . S
C2860 C2855 1.490 . S
C2860 C2862 1.395 . S
C2860 C2863 1.403 . S
H2861 C2867 0.930 . S
C2862 H2848 0.930 . S
C2862 C2860 1.395 . S
C2862 C2865 1.403 . S
C2863 C2860 1.403 . S
C2863 C2864 1.524 . S
C2863 C2867 1.400 . S
C2864 H2849 0.960 . S
C2864 H2850 0.960 . S
C2864 H2851 0.960 . S
C2864 C2863 1.524 . S
C2865 C2862 1.403 . S
C2865 C2866 1.392 . S
C2865 C2869 1.495 . S
C2866 C2865 1.392 . S
C2866 C2867 1.385 . S
C2866 C2868 1.478 . S
C2867 H2861 0.930 . S
C2867 C2863 1.400 . S
C2867 C2866 1.385 . S
C2868 C2866 1.478 . S
C2868 C2870 1.381 . S
C2868 C2874 1.383 . S
C2869 C2865 1.495 . S
C2869 H2875 0.959 . S
C2869 H2876 0.961 . S
C2869 H2877 0.960 . S
C2870 C2868 1.381 . S
C2870 C2871 1.394 . S
C2870 H2878 0.930 . S
C2871 C2870 1.394 . S
C2871 C2872 1.383 . S
C2871 H2879 0.929 . S
C2872 C2871 1.383 . S
C2872 C2873 1.377 . S
C2873 H2857 0.930 . S
C2873 C2872 1.377 . S
C2873 C2874 1.379 . S
C2874 H2858 0.931 . S
C2874 C2868 1.383 . S
C2874 C2873 1.379 . S
H2875 C2869 0.959 . S
H2876 C2869 0.961 . S
H2877 C2869 0.960 . S
H2878 C2870 0.930 . S
H2879 C2871 0.929 . S
H2880 C2888 0.929 . S
H2881 C2890 0.930 . S
H2882 C2892 0.930 . S
H2883 C2895 0.929 . S
H2884 C2898 0.930 . S
H2885 C2900 0.960 . S
H2886 C2900 0.960 . S
H2887 C2900 0.960 . S
C2888 H2880 0.929 . S
C2888 C2889 1.377 . S
C2888 C2890 1.384 . S
C2889 C2888 1.377 . S
C2889 C2895 1.390 . S
C2890 H2881 0.930 . S
C2890 C2888 1.384 . S
C2890 C2891 1.372 . S
C2891 C2890 1.372 . S
C2891 C2892 1.400 . S
C2891 C2896 1.490 . S
C2892 H2882 0.930 . S
C2892 C2891 1.400 . S
C2892 C2895 1.386 . S
H2893 C2909 0.930 . S
H2894 C2910 0.931 . S
C2895 H2883 0.929 . S
C2895 C2889 1.390 . S
C2895 C2892 1.386 . S
C2896 C2891 1.490 . S
C2896 C2898 1.395 . S
C2896 C2899 1.403 . S
H2897 C2903 0.930 . S
C2898 H2884 0.930 . S
C2898 C2896 1.395 . S
C2898 C2901 1.403 . S
C2899 C2896 1.403 . S
C2899 C2900 1.524 . S
C2899 C2903 1.400 . S
C2900 H2885 0.960 . S
C2900 H2886 0.960 . S
C2900 H2887 0.960 . S
C2900 C2899 1.524 . S
C2901 C2898 1.403 . S
C2901 C2902 1.392 . S
C2901 C2905 1.495 . S
C2902 C2901 1.392 . S
C2902 C2903 1.385 . S
C2902 C2904 1.478 . S
C2903 H2897 0.930 . S
C2903 C2899 1.400 . S
C2903 C2902 1.385 . S
C2904 C2902 1.478 . S
C2904 C2906 1.381 . S
C2904 C2910 1.383 . S
C2905 C2901 1.495 . S
C2905 H2911 0.959 . S
C2905 H2912 0.961 . S
C2905 H2913 0.960 . S
C2906 C2904 1.381 . S
C2906 C2907 1.394 . S
C2906 H2914 0.930 . S
C2907 C2906 1.394 . S
C2907 C2908 1.383 . S
C2907 H2915 0.929 . S
C2908 C2907 1.383 . S
C2908 C2909 1.377 . S
C2909 H2893 0.930 . S
C2909 C2908 1.377 . S
C2909 C2910 1.379 . S
C2910 H2894 0.931 . S
C2910 C2904 1.383 . S
C2910 C2909 1.379 . S
H2911 C2905 0.959 . S
H2912 C2905 0.961 . S
H2913 C2905 0.960 . S
H2914 C2906 0.930 . S
H2915 C2907 0.929 . S
H2916 C2924 0.929 . S
H2917 C2926 0.930 . S
H2918 C2928 0.930 . S
H2919 C2931 0.929 . S
H2920 C2934 0.930 . S
H2921 C2936 0.960 . S
H2922 C2936 0.960 . S
H2923 C2936 0.960 . S
C2924 H2916 0.929 . S
C2924 C2925 1.377 . S
C2924 C2926 1.384 . S
C2925 C2924 1.377 . S
C2925 C2931 1.390 . S
C2926 H2917 0.930 . S
C2926 C2924 1.384 . S
C2926 C2927 1.372 . S
C2927 C2926 1.372 . S
C2927 C2928 1.400 . S
C2927 C2932 1.490 . S
C2928 H2918 0.930 . S
C2928 C2927 1.400 . S
C2928 C2931 1.386 . S
H2929 C2945 0.930 . S
H2930 C2946 0.931 . S
C2931 H2919 0.929 . S
C2931 C2925 1.390 . S
C2931 C2928 1.386 . S
C2932 C2927 1.490 . S
C2932 C2934 1.395 . S
C2932 C2935 1.403 . S
H2933 C2939 0.930 . S
C2934 H2920 0.930 . S
C2934 C2932 1.395 . S
C2934 C2937 1.403 . S
C2935 C2932 1.403 . S
C2935 C2936 1.524 . S
C2935 C2939 1.400 . S
C2936 H2921 0.960 . S
C2936 H2922 0.960 . S
C2936 H2923 0.960 . S
C2936 C2935 1.524 . S
C2937 C2934 1.403 . S
C2937 C2938 1.392 . S
C2937 C2941 1.495 . S
C2938 C2937 1.392 . S
C2938 C2939 1.385 . S
C2938 C2940 1.478 . S
C2939 H2933 0.930 . S
C2939 C2935 1.400 . S
C2939 C2938 1.385 . S
C2940 C2938 1.478 . S
C2940 C2942 1.381 . S
C2940 C2946 1.383 . S
C2941 C2937 1.495 . S
C2941 H2947 0.959 . S
C2941 H2948 0.961 . S
C2941 H2949 0.960 . S
C2942 C2940 1.381 . S
C2942 C2943 1.394 . S
C2942 H2950 0.930 . S
C2943 C2942 1.394 . S
C2943 C2944 1.383 . S
C2943 H2951 0.929 . S
C2944 C2943 1.383 . S
C2944 C2945 1.377 . S
C2945 H2929 0.930 . S
C2945 C2944 1.377 . S
C2945 C2946 1.379 . S
C2946 H2930 0.931 . S
C2946 C2940 1.383 . S
C2946 C2945 1.379 . S
H2947 C2941 0.959 . S
H2948 C2941 0.961 . S
H2949 C2941 0.960 . S
H2950 C2942 0.930 . S
H2951 C2943 0.929 . S
H2952 C2960 0.929 . S
H2953 C2962 0.930 . S
H2954 C2964 0.930 . S
H2955 C2967 0.929 . S
H2956 C2970 0.930 . S
H2957 C2972 0.960 . S
H2958 C2972 0.960 . S
H2959 C2972 0.960 . S
C2960 H2952 0.929 . S
C2960 C2961 1.377 . S
C2960 C2962 1.384 . S
C2961 C2960 1.377 . S
C2961 C2967 1.390 . S
C2962 H2953 0.930 . S
C2962 C2960 1.384 . S
C2962 C2963 1.372 . S
C2963 C2962 1.372 . S
C2963 C2964 1.400 . S
C2963 C2968 1.490 . S
C2964 H2954 0.930 . S
C2964 C2963 1.400 . S
C2964 C2967 1.386 . S
H2965 C2981 0.930 . S
H2966 C2982 0.931 . S
C2967 H2955 0.929 . S
C2967 C2961 1.390 . S
C2967 C2964 1.386 . S
C2968 C2963 1.490 . S
C2968 C2970 1.395 . S
C2968 C2971 1.403 . S
H2969 C2975 0.930 . S
C2970 H2956 0.930 . S
C2970 C2968 1.395 . S
C2970 C2973 1.403 . S
C2971 C2968 1.403 . S
C2971 C2972 1.524 . S
C2971 C2975 1.400 . S
C2972 H2957 0.960 . S
C2972 H2958 0.960 . S
C2972 H2959 0.960 . S
C2972 C2971 1.524 . S
C2973 C2970 1.403 . S
C2973 C2974 1.392 . S
C2973 C2977 1.495 . S
C2974 C2973 1.392 . S
C2974 C2975 1.385 . S
C2974 C2976 1.478 . S
C2975 H2969 0.930 . S
C2975 C2971 1.400 . S
C2975 C2974 1.385 . S
C2976 C2974 1.478 . S
C2976 C2978 1.381 . S
C2976 C2982 1.383 . S
C2977 C2973 1.495 . S
C2977 H2983 0.959 . S
C2977 H2984 0.961 . S
C2977 H2985 0.960 . S
C2978 C2976 1.381 . S
C2978 C2979 1.394 . S
C2978 H2986 0.930 . S
C2979 C2978 1.394 . S
C2979 C2980 1.383 . S
C2979 H2987 0.929 . S
C2980 C2979 1.383 . S
C2980 C2981 1.377 . S
C2981 H2965 0.930 . S
C2981 C2980 1.377 . S
C2981 C2982 1.379 . S
C2982 H2966 0.931 . S
C2982 C2976 1.383 . S
C2982 C2981 1.379 . S
H2983 C2977 0.959 . S
H2984 C2977 0.961 . S
H2985 C2977 0.960 . S
H2986 C2978 0.930 . S
H2987 C2979 0.929 . S
H2988 C2996 0.929 . S
H2989 C2998 0.930 . S
H2990 C3000 0.930 . S
H2991 C3003 0.929 . S
H2992 C3006 0.930 . S
H2993 C3008 0.960 . S
H2994 C3008 0.960 . S
H2995 C3008 0.960 . S
C2996 H2988 0.929 . S
C2996 C2997 1.377 . S
C2996 C2998 1.384 . S
C2997 C2996 1.377 . S
C2997 C3003 1.390 . S
C2998 H2989 0.930 . S
C2998 C2996 1.384 . S
C2998 C2999 1.372 . S
C2999 C2998 1.372 . S
C2999 C3000 1.400 . S
C2999 C3004 1.490 . S
C3000 H2990 0.930 . S
C3000 C2999 1.400 . S
C3000 C3003 1.386 . S
H3001 C3017 0.930 . S
H3002 C3018 0.931 . S
C3003 H2991 0.929 . S
C3003 C2997 1.390 . S
C3003 C3000 1.386 . S
C3004 C2999 1.490 . S
C3004 C3006 1.395 . S
C3004 C3007 1.403 . S
H3005 C3011 0.930 . S
C3006 H2992 0.930 . S
C3006 C3004 1.395 . S
C3006 C3009 1.403 . S
C3007 C3004 1.403 . S
C3007 C3008 1.524 . S
C3007 C3011 1.400 . S
C3008 H2993 0.960 . S
C3008 H2994 0.960 . S
C3008 H2995 0.960 . S
C3008 C3007 1.524 . S
C3009 C3006 1.403 . S
C3009 C3010 1.392 . S
C3009 C3013 1.495 . S
C3010 C3009 1.392 . S
C3010 C3011 1.385 . S
C3010 C3012 1.478 . S
C3011 H3005 0.930 . S
C3011 C3007 1.400 . S
C3011 C3010 1.385 . S
C3012 C3010 1.478 . S
C3012 C3014 1.381 . S
C3012 C3018 1.383 . S
C3013 C3009 1.495 . S
C3013 H3019 0.959 . S
C3013 H3020 0.961 . S
C3013 H3021 0.960 . S
C3014 C3012 1.381 . S
C3014 C3015 1.394 . S
C3014 H3022 0.930 . S
C3015 C3014 1.394 . S
C3015 C3016 1.383 . S
C3015 H3023 0.929 . S
C3016 C3015 1.383 . S
C3016 C3017 1.377 . S
C3017 H3001 0.930 . S
C3017 C3016 1.377 . S
C3017 C3018 1.379 . S
C3018 H3002 0.931 . S
C3018 C3012 1.383 . S
C3018 C3017 1.379 . S
H3019 C3013 0.959 . S
H3020 C3013 0.961 . S
H3021 C3013 0.960 . S
H3022 C3014 0.930 . S
H3023 C3015 0.929 . S
H3024 C3032 0.929 . S
H3025 C3034 0.930 . S
H3026 C3036 0.930 . S
H3027 C3039 0.929 . S
H3028 C3042 0.930 . S
H3029 C3044 0.960 . S
H3030 C3044 0.960 . S
H3031 C3044 0.960 . S
C3032 H3024 0.929 . S
C3032 C3033 1.377 . S
C3032 C3034 1.384 . S
C3033 C3032 1.377 . S
C3033 C3039 1.390 . S
C3034 H3025 0.930 . S
C3034 C3032 1.384 . S
C3034 C3035 1.372 . S
C3035 C3034 1.372 . S
C3035 C3036 1.400 . S
C3035 C3040 1.490 . S
C3036 H3026 0.930 . S
C3036 C3035 1.400 . S
C3036 C3039 1.386 . S
H3037 C3053 0.930 . S
H3038 C3054 0.931 . S
C3039 H3027 0.929 . S
C3039 C3033 1.390 . S
C3039 C3036 1.386 . S
C3040 C3035 1.490 . S
C3040 C3042 1.395 . S
C3040 C3043 1.403 . S
H3041 C3047 0.930 . S
C3042 H3028 0.930 . S
C3042 C3040 1.395 . S
C3042 C3045 1.403 . S
C3043 C3040 1.403 . S
C3043 C3044 1.524 . S
C3043 C3047 1.400 . S
C3044 H3029 0.960 . S
C3044 H3030 0.960 . S
C3044 H3031 0.960 . S
C3044 C3043 1.524 . S
C3045 C3042 1.403 . S
C3045 C3046 1.392 . S
C3045 C3049 1.495 . S
C3046 C3045 1.392 . S
C3046 C3047 1.385 . S
C3046 C3048 1.478 . S
C3047 H3041 0.930 . S
C3047 C3043 1.400 . S
C3047 C3046 1.385 . S
C3048 C3046 1.478 . S
C3048 C3050 1.381 . S
C3048 C3054 1.383 . S
C3049 C3045 1.495 . S
C3049 H3055 0.959 . S
C3049 H3056 0.961 . S
C3049 H3057 0.960 . S
C3050 C3048 1.381 . S
C3050 C3051 1.394 . S
C3050 H3058 0.930 . S
C3051 C3050 1.394 . S
C3051 C3052 1.383 . S
C3051 H3059 0.929 . S
C3052 C3051 1.383 . S
C3052 C3053 1.377 . S
C3053 H3037 0.930 . S
C3053 C3052 1.377 . S
C3053 C3054 1.379 . S
C3054 H3038 0.931 . S
C3054 C3048 1.383 . S
C3054 C3053 1.379 . S
H3055 C3049 0.959 . S
H3056 C3049 0.961 . S
H3057 C3049 0.960 . S
H3058 C3050 0.930 . S
H3059 C3051 0.929 . S
H3060 C3068 0.929 . S
H3061 C3070 0.930 . S
H3062 C3072 0.930 . S
H3063 C3075 0.929 . S
H3064 C3078 0.930 . S
H3065 C3080 0.960 . S
H3066 C3080 0.960 . S
H3067 C3080 0.960 . S
C3068 H3060 0.929 . S
C3068 C3069 1.377 . S
C3068 C3070 1.384 . S
C3069 C3068 1.377 . S
C3069 C3075 1.390 . S
C3070 H3061 0.930 . S
C3070 C3068 1.384 . S
C3070 C3071 1.372 . S
C3071 C3070 1.372 . S
C3071 C3072 1.400 . S
C3071 C3076 1.490 . S
C3072 H3062 0.930 . S
C3072 C3071 1.400 . S
C3072 C3075 1.386 . S
H3073 C3089 0.930 . S
H3074 C3090 0.931 . S
C3075 H3063 0.929 . S
C3075 C3069 1.390 . S
C3075 C3072 1.386 . S
C3076 C3071 1.490 . S
C3076 C3078 1.395 . S
C3076 C3079 1.403 . S
H3077 C3083 0.930 . S
C3078 H3064 0.930 . S
C3078 C3076 1.395 . S
C3078 C3081 1.403 . S
C3079 C3076 1.403 . S
C3079 C3080 1.524 . S
C3079 C3083 1.400 . S
C3080 H3065 0.960 . S
C3080 H3066 0.960 . S
C3080 H3067 0.960 . S
C3080 C3079 1.524 . S
C3081 C3078 1.403 . S
C3081 C3082 1.392 . S
C3081 C3085 1.495 . S
C3082 C3081 1.392 . S
C3082 C3083 1.385 . S
C3082 C3084 1.478 . S
C3083 H3077 0.930 . S
C3083 C3079 1.400 . S
C3083 C3082 1.385 . S
C3084 C3082 1.478 . S
C3084 C3086 1.381 . S
C3084 C3090 1.383 . S
C3085 C3081 1.495 . S
C3085 H3091 0.959 . S
C3085 H3092 0.961 . S
C3085 H3093 0.960 . S
C3086 C3084 1.381 . S
C3086 C3087 1.394 . S
C3086 H3094 0.930 . S
C3087 C3086 1.394 . S
C3087 C3088 1.383 . S
C3087 H3095 0.929 . S
C3088 C3087 1.383 . S
C3088 C3089 1.377 . S
C3089 H3073 0.930 . S
C3089 C3088 1.377 . S
C3089 C3090 1.379 . S
C3090 H3074 0.931 . S
C3090 C3084 1.383 . S
C3090 C3089 1.379 . S
H3091 C3085 0.959 . S
H3092 C3085 0.961 . S
H3093 C3085 0.960 . S
H3094 C3086 0.930 . S
H3095 C3087 0.929 . S
C513 C5 1.200 . S
C532 C257 1.163 . S
C549 C271 1.183 . S
C568 C19 1.181 . S
C585 C285 1.188 . S
C604 C33 1.138 . S
C621 C47 1.184 . S
C640 C467 1.187 . S
C657 C61 1.190 . S
C676 C481 1.226 . S
C693 C75 1.204 . S
C712 C495 1.235 . S
C729 C341 1.200 . S
C748 C89 1.167 . S
C765 C103 1.203 . S
C784 C355 1.240 . S
C801 C117 1.202 . S
C820 C369 1.244 . S
C837 C215 1.186 . S
C856 C131 1.206 . S
C873 C229 1.205 . S
C892 C145 1.221 . S
C909 C243 1.205 . S
C928 C159 1.200 . S
C945 C425 1.186 . S
C964 C173 1.204 . S
C981 C439 1.194 . S
C1000 C187 1.144 . S
C1017 C201 1.197 . S
C1036 C453 1.244 . S
C1053 C383 1.184 . S
C1072 C299 1.149 . S
C1089 C313 1.202 . S
C1108 C397 1.177 . S
C1125 C327 1.186 . S
C1144 C411 1.141 . S
C1161 C11 1.341 . S
C1180 C389 1.334 . S
C1197 C403 1.339 . S
C1216 C25 1.342 . S
C1233 C417 1.339 . S
C1252 C39 1.360 . S
C1269 C179 1.348 . S
C1288 C53 1.342 . S
C1305 C193 1.343 . S
C1324 C67 1.324 . S
C1341 C207 1.349 . S
C1360 C81 1.323 . S
C1377 C95 1.347 . S
C1396 C305 1.355 . S
C1413 C319 1.342 . S
C1432 C109 1.322 . S
C1449 C333 1.339 . S
C1468 C123 1.356 . S
C1485 C137 1.340 . S
C1504 C431 1.332 . S
C1521 C151 1.349 . S
C1540 C445 1.339 . S
C1557 C165 1.345 . S
C1576 C459 1.315 . S
C1593 C221 1.349 . S
C1612 C347 1.339 . S
C1629 C235 1.347 . S
C1648 C361 1.316 . S
C1665 C249 1.339 . S
C1684 C375 1.357 . S
C1701 C263 1.343 . S
C1720 C473 1.366 . S
C1737 C487 1.347 . S
C1756 C277 1.356 . S
C1773 C291 1.340 . S
C1792 C501 1.363 . S
C1809 C26 0.636 1_455 S
C1828 C4 0.717 . S
C1845 C18 0.655 . S
C1864 C40 0.680 . S
C1881 C32 0.688 . S
C1900 C12 0.603 1_565 S
C1917 C46 0.664 . S
C1936 C82 0.670 1_545 S
C1953 C54 0.650 1_655 S
C1972 C60 0.593 . S
C1989 C74 0.661 . S
C2008 C68 0.675 . S
C2025 C88 0.658 . S
C2044 C110 0.650 1_655 S
C2061 C102 0.687 . S
C2080 C124 0.667 . S
C2097 C116 0.662 . S
C2116 C96 0.605 1_545 S
C2133 C166 0.641 1_565 S
C2152 C130 0.743 . S
C2169 C144 0.673 . S
C2188 C138 0.607 1_455 S
C2205 C152 0.649 . S
C2224 C158 0.734 . S
C2241 C194 0.649 . S
C2260 C172 0.595 . S
C2277 C208 0.647 . S
C2296 C186 0.609 . S
C2313 C180 0.648 . S
C2332 C200 0.617 . S
C2349 C214 0.670 . S
C2368 C250 0.640 . S
C2385 C228 0.680 . S
C2404 C222 0.633 . S
C2421 C242 0.666 . S
C2440 C236 0.665 . S
C2457 C278 0.643 . S
C2476 C256 0.748 . S
C2493 C270 0.661 . S
C2512 C292 0.661 . S
C2529 C284 0.683 . S
C2548 C264 0.678 . S
C2565 C298 0.671 . S
C2584 C334 0.605 . S
C2601 C312 0.655 . S
C2620 C306 0.636 . S
C2637 C320 0.640 . S
C2656 C326 0.738 . S
C2673 C362 0.642 . S
C2692 C340 0.655 . S
C2709 C354 0.666 . S
C2728 C376 0.648 . S
C2745 C348 0.650 . S
C2764 C368 0.592 . S
C2781 C382 0.688 . S
C2800 C418 0.603 . S
C2817 C396 0.685 . S
C2836 C390 0.616 . S
C2853 C410 0.658 . S
C2872 C404 0.680 . S
C2889 C424 0.657 . S
C2908 C446 0.614 . S
C2925 C438 0.682 . S
C2944 C460 0.679 . S
C2961 C452 0.677 . S
C2980 C432 0.611 . S
C2997 C466 0.679 . S
C3016 C502 0.681 . S
C3033 C480 0.679 . S
C3052 C474 0.681 . S
C3069 C488 0.634 . S
C3088 C494 0.643 . S
