# Generated by pormake.
# Topology noy, (5)-cn, num edge types: 1
# Building blocks:
#     Node 0, Type 0, BuildingBlock: XOMCOT_clean_sbu_1, # of connection points: 5
#     Node 1, Type 0, BuildingBlock: XOMCOT_clean_sbu_1, # of connection points: 5
#     Node 2, Type 0, BuildingBlock: XOMCOT_clean_sbu_1, # of connection points: 5
#     Node 3, Type 0, BuildingBlock: XOMCOT_clean_sbu_1, # of connection points: 5
#     Node 4, Type 0, BuildingBlock: XOMCOT_clean_sbu_1, # of connection points: 5
#     Node 5, Type 0, BuildingBlock: XOMCOT_clean_sbu_1, # of connection points: 5
#     Node 6, Type 0, BuildingBlock: XOMCOT_clean_sbu_1, # of connection points: 5
#     Node 7, Type 0, BuildingBlock: XOMCOT_clean_sbu_1, # of connection points: 5
#     Edge 8, Type (0, 0), BuildingBlock: AJUNOK_clean_linker_0, # of connection points: 2
#     Edge 9, Type (0, 0), BuildingBlock: AJUNOK_clean_linker_0, # of connection points: 2
#     Edge 10, Type (0, 0), BuildingBlock: AJUNOK_clean_linker_0, # of connection points: 2
#     Edge 11, Type (0, 0), BuildingBlock: AJUNOK_clean_linker_0, # of connection points: 2
#     Edge 12, Type (0, 0), BuildingBlock: AJUNOK_clean_linker_0, # of connection points: 2
#     Edge 13, Type (0, 0), BuildingBlock: AJUNOK_clean_linker_0, # of connection points: 2
#     Edge 14, Type (0, 0), BuildingBlock: AJUNOK_clean_linker_0, # of connection points: 2
#     Edge 15, Type (0, 0), BuildingBlock: AJUNOK_clean_linker_0, # of connection points: 2
#     Edge 16, Type (0, 0), BuildingBlock: AJUNOK_clean_linker_0, # of connection points: 2
#     Edge 17, Type (0, 0), BuildingBlock: AJUNOK_clean_linker_0, # of connection points: 2
#     Edge 18, Type (0, 0), BuildingBlock: AJUNOK_clean_linker_0, # of connection points: 2
#     Edge 19, Type (0, 0), BuildingBlock: AJUNOK_clean_linker_0, # of connection points: 2
#     Edge 20, Type (0, 0), BuildingBlock: AJUNOK_clean_linker_0, # of connection points: 2
#     Edge 21, Type (0, 0), BuildingBlock: AJUNOK_clean_linker_0, # of connection points: 2
#     Edge 22, Type (0, 0), BuildingBlock: AJUNOK_clean_linker_0, # of connection points: 2
#     Edge 23, Type (0, 0), BuildingBlock: AJUNOK_clean_linker_0, # of connection points: 2
#     Edge 24, Type (0, 0), BuildingBlock: AJUNOK_clean_linker_0, # of connection points: 2
#     Edge 25, Type (0, 0), BuildingBlock: AJUNOK_clean_linker_0, # of connection points: 2
#     Edge 26, Type (0, 0), BuildingBlock: AJUNOK_clean_linker_0, # of connection points: 2
#     Edge 27, Type (0, 0), BuildingBlock: AJUNOK_clean_linker_0, # of connection points: 2
# Relax obj value: 0.158
# Max RMSD: 0.178
# Mean RMSD: 0.178
data_MOF--net-noy--node1-XOMCOT_clean_sbu_1--edge1-AJUNOK_clean_linker_0
_symmetry_space_group_name_H-M    P1
_symmetry_Int_Tables_number       1
_symmetry_cell_setting            triclinic
loop_
_symmetry_equiv_pos_as_xyz
'x, y, z'
_cell_length_a     38.713034
_cell_length_b     35.259088
_cell_length_c     15.656441
_cell_angle_alpha  90.066741
_cell_angle_beta   90.177068
_cell_angle_gamma 90.277741
loop_
_atom_site_label
_atom_site_type_symbol
_atom_site_fract_x
_atom_site_fract_y
_atom_site_fract_z
_atom_type_partial_charge
C0 C 0.33492 0.39111 0.15762 0.0
C1 C 0.33358 0.41502 0.08821 0.0
N2 N 0.31436 0.44559 0.10837 0.0
N3 N 0.31659 0.40606 0.22225 0.0
C4 C 0.30414 0.439 0.1901 0.0
H5 H 0.34918 0.36487 0.16146 0.0
Co6 Co 0.31375 0.38463 0.33305 0.0
C7 C 0.27812 0.44619 0.44342 0.0
O8 O 0.26213 0.42134 0.49185 0.0
N9 N 0.31127 0.36215 0.44569 0.0
C10 C 0.32007 0.35399 0.58557 0.0
C11 C 0.32666 0.37675 0.5161 0.0
C12 C 0.29564 0.32989 0.475 0.0
N13 N 0.30062 0.32428 0.56017 0.0
O14 O 0.2689 0.36252 0.30117 0.0
H15 H 0.34142 0.40287 0.51743 0.0
H16 H 0.28008 0.31132 0.43545 0.0
O17 O 0.296 0.43434 0.37968 0.0
C18 C 0.27804 0.33083 0.26696 0.0
O19 O 0.31097 0.32209 0.27099 0.0
N20 N 0.35933 0.40076 0.3533 0.0
C21 C 0.43012 0.4139 0.33409 0.0
C22 C 0.40668 0.44422 0.33329 0.0
C23 C 0.37122 0.43703 0.34282 0.0
C24 C 0.38187 0.37132 0.35814 0.0
C25 C 0.41732 0.37727 0.34953 0.0
H26 H 0.35334 0.46021 0.33563 0.0
H27 H 0.37208 0.34263 0.36322 0.0
H28 H 0.28877 0.45812 0.22727 0.0
H29 H 0.34632 0.41022 0.0278 0.0
H30 H 0.32882 0.35911 0.65033 0.0
H31 H 0.41552 0.47297 0.32223 0.0
H32 H 0.43436 0.353 0.34967 0.0
C33 C 0.6696 0.64628 0.65362 0.0
C34 C 0.66903 0.62031 0.58835 0.0
N35 N 0.67946 0.58653 0.61894 0.0
N36 N 0.68131 0.62982 0.72559 0.0
C37 C 0.68714 0.59323 0.70244 0.0
H38 H 0.66113 0.6753 0.64912 0.0
Co39 Co 0.68358 0.65721 0.82954 0.0
C40 C 0.69916 0.59804 0.96392 0.0
O41 O 0.67727 0.61633 1.01227 0.0
N42 N 0.68541 0.68754 0.93504 0.0
C43 C 0.67077 0.71791 0.05557 0.0
C44 C 0.6606 0.69179 0.99522 0.0
C45 C 0.71037 0.71245 0.96151 0.0
N46 N 0.70219 0.73132 0.03484 0.0
O47 O 0.72733 0.68017 0.7904 0.0
H48 H 0.63645 0.67641 0.99746 0.0
H49 H 0.73369 0.71758 0.9258 0.0
O50 O 0.70596 0.61158 0.88906 0.0
C51 C 0.7182 0.71087 0.75208 0.0
O52 O 0.68592 0.72162 0.76005 0.0
N53 N 0.63871 0.63944 0.85334 0.0
C54 C 0.56863 0.62179 0.83689 0.0
C55 C 0.59296 0.59292 0.84842 0.0
C56 C 0.62813 0.60235 0.8563 0.0
C57 C 0.61518 0.66752 0.84037 0.0
C58 C 0.58002 0.65944 0.83422 0.0
H59 H 0.64674 0.5797 0.85866 0.0
H60 H 0.62398 0.69642 0.83185 0.0
H61 H 0.69559 0.5716 0.74642 0.0
H62 H 0.66167 0.62629 0.52308 0.0
H63 H 0.65613 0.72591 0.11147 0.0
H64 H 0.58499 0.56344 0.84852 0.0
H65 H 0.56198 0.68235 0.82329 0.0
C66 C 0.30736 0.64603 0.89248 0.0
C67 C 0.30496 0.61822 0.95365 0.0
N68 N 0.30365 0.58437 0.9142 0.0
N69 N 0.30711 0.63017 0.81394 0.0
C70 C 0.30529 0.59225 0.82951 0.0
H71 H 0.31 0.676 0.90512 0.0
Co72 Co 0.31092 0.65901 0.71195 0.0
C73 C 0.29953 0.60302 0.56909 0.0
O74 O 0.32257 0.62263 0.52641 0.0
N75 N 0.31483 0.69025 0.6086 0.0
C76 C 0.33636 0.72514 0.50124 0.0
C77 C 0.34378 0.69925 0.56434 0.0
C78 C 0.29 0.71137 0.56894 0.0
N79 N 0.30253 0.7333 0.50437 0.0
O80 O 0.26623 0.68265 0.73863 0.0
H81 H 0.3691 0.68756 0.57524 0.0
H82 H 0.26319 0.71145 0.58826 0.0
O83 O 0.29087 0.61471 0.64414 0.0
C84 C 0.27524 0.71366 0.77637 0.0
O85 O 0.30806 0.7232 0.77386 0.0
N86 N 0.35645 0.64107 0.70136 0.0
C87 C 0.42471 0.62358 0.7443 0.0
C88 C 0.40277 0.59575 0.70921 0.0
C89 C 0.3683 0.60493 0.68936 0.0
C90 C 0.37792 0.66828 0.73371 0.0
C91 C 0.41209 0.66042 0.7539 0.0
H92 H 0.35097 0.58241 0.67025 0.0
H93 H 0.36804 0.69628 0.74665 0.0
H94 H 0.30546 0.57078 0.78012 0.0
H95 H 0.30537 0.62243 0.02217 0.0
H96 H 0.35452 0.73641 0.45529 0.0
H97 H 0.41157 0.56683 0.7018 0.0
H98 H 0.42827 0.68286 0.77972 0.0
C99 C 0.69107 0.38647 0.39293 0.0
C100 C 0.69134 0.41207 0.45958 0.0
N101 N 0.69098 0.44725 0.42667 0.0
N102 N 0.69111 0.40527 0.31776 0.0
C103 C 0.69096 0.44239 0.34087 0.0
H104 H 0.69017 0.35599 0.39948 0.0
Co105 Co 0.69006 0.38263 0.20756 0.0
C106 C 0.72352 0.44189 0.08858 0.0
O107 O 0.73862 0.4159 0.04178 0.0
N108 N 0.68876 0.35944 0.09519 0.0
C109 C 0.67513 0.3505 0.95762 0.0
C110 C 0.66976 0.37254 0.02893 0.0
C111 C 0.70547 0.32892 0.06131 0.0
N112 N 0.69773 0.32302 0.97757 0.0
O113 O 0.73576 0.36106 0.23175 0.0
H114 H 0.6534 0.39728 0.03128 0.0
H115 H 0.72385 0.31184 0.09606 0.0
O116 O 0.70676 0.43158 0.15553 0.0
C117 C 0.72863 0.32822 0.2636 0.0
O118 O 0.69648 0.31633 0.25734 0.0
N119 N 0.64394 0.3981 0.19619 0.0
C120 C 0.57424 0.411 0.23055 0.0
C121 C 0.59633 0.4413 0.20943 0.0
C122 C 0.63136 0.43425 0.19254 0.0
C123 C 0.62234 0.36834 0.21153 0.0
C124 C 0.58748 0.3741 0.22867 0.0
H125 H 0.64846 0.458 0.1818 0.0
H126 H 0.63273 0.33999 0.2155 0.0
H127 H 0.69049 0.4656 0.29599 0.0
H128 H 0.69054 0.40536 0.52702 0.0
H129 H 0.66332 0.35454 0.89556 0.0
H130 H 0.58711 0.47025 0.21074 0.0
H131 H 0.57125 0.34991 0.24366 0.0
C132 C 0.84373 0.89593 0.1649 0.0
C133 C 0.84478 0.9195 0.09499 0.0
N134 N 0.8238 0.94927 0.10924 0.0
N135 N 0.8219 0.91017 0.22348 0.0
C136 C 0.80971 0.94234 0.18709 0.0
H137 H 0.8583 0.87008 0.1729 0.0
Co138 Co 0.8144 0.88761 0.33168 0.0
C139 C 0.77761 0.94933 0.43927 0.0
O140 O 0.76131 0.92476 0.48775 0.0
N141 N 0.80741 0.86347 0.44118 0.0
C142 C 0.81154 0.84941 0.5801 0.0
C143 C 0.8207 0.87481 0.517 0.0
C144 C 0.79055 0.8306 0.46063 0.0
N145 N 0.79237 0.82144 0.545 0.0
O146 O 0.77055 0.86705 0.28777 0.0
H147 H 0.836 0.90025 0.52625 0.0
H148 H 0.77779 0.81315 0.41338 0.0
O149 O 0.79582 0.93721 0.37639 0.0
C150 C 0.78138 0.83688 0.24996 0.0
O151 O 0.81363 0.82719 0.26407 0.0
N152 N 0.85913 0.90253 0.3632 0.0
C153 C 0.92952 0.91382 0.33712 0.0
C154 C 0.90716 0.94492 0.34243 0.0
C155 C 0.87175 0.93865 0.35526 0.0
C156 C 0.88101 0.87245 0.36609 0.0
C157 C 0.91634 0.87747 0.35327 0.0
H158 H 0.85438 0.96237 0.34944 0.0
H159 H 0.87062 0.84397 0.36958 0.0
H160 H 0.79107 0.96052 0.2174 0.0
H161 H 0.8596 0.91446 0.03774 0.0
H162 H 0.81793 0.85189 0.64724 0.0
H163 H 0.91642 0.97336 0.32932 0.0
H164 H 0.93287 0.8528 0.34985 0.0
C165 C 0.19163 0.15234 0.64953 0.0
C166 C 0.19138 0.1264 0.5842 0.0
N167 N 0.18885 0.09133 0.6178 0.0
N168 N 0.19031 0.13417 0.72506 0.0
C169 C 0.18855 0.09684 0.70375 0.0
H170 H 0.19214 0.18278 0.64203 0.0
Co171 Co 0.18763 0.16094 0.82898 0.0
C172 C 0.20139 0.10344 0.97003 0.0
O173 O 0.18314 0.12487 0.02136 0.0
N174 N 0.18453 0.19059 0.9337 0.0
C175 C 0.16357 0.22916 0.03474 0.0
C176 C 0.15537 0.20436 0.96969 0.0
C177 C 0.21023 0.20761 0.98004 0.0
N178 N 0.19809 0.2314 0.04152 0.0
O179 O 0.2332 0.18342 0.80452 0.0
H180 H 0.12936 0.19789 0.94949 0.0
H181 H 0.2374 0.20399 0.96646 0.0
O182 O 0.20656 0.11494 0.89275 0.0
C183 C 0.22822 0.21709 0.77536 0.0
O184 O 0.19679 0.2309 0.77862 0.0
N185 N 0.14161 0.14381 0.83874 0.0
C186 C 0.07187 0.12758 0.8067 0.0
C187 C 0.09293 0.10129 0.8495 0.0
C188 C 0.12806 0.10968 0.86372 0.0
C189 C 0.12141 0.1693 0.79672 0.0
C190 C 0.08661 0.16198 0.78078 0.0
H191 H 0.14422 0.08795 0.8906 0.0
H192 H 0.13277 0.19545 0.77389 0.0
H193 H 0.18591 0.07426 0.75004 0.0
H194 H 0.19322 0.13312 0.51698 0.0
H195 H 0.14541 0.24466 0.0738 0.0
H196 H 0.08269 0.07397 0.86862 0.0
H197 H 0.07139 0.18308 0.7476 0.0
C198 C 0.79607 0.14564 0.88733 0.0
C199 C 0.79488 0.11717 0.9471 0.0
N200 N 0.80256 0.08429 0.90824 0.0
N201 N 0.80373 0.13097 0.81006 0.0
C202 C 0.80805 0.09334 0.82516 0.0
H203 H 0.79293 0.17545 0.90054 0.0
Co204 Co 0.80988 0.16071 0.71076 0.0
C205 C 0.79477 0.10796 0.55985 0.0
O206 O 0.81074 0.13195 0.50943 0.0
N207 N 0.81629 0.19282 0.61153 0.0
C208 C 0.8405 0.23376 0.5201 0.0
C209 C 0.84648 0.20821 0.58502 0.0
C210 C 0.79225 0.20998 0.56082 0.0
N211 N 0.80631 0.23526 0.50502 0.0
O212 O 0.7645 0.18368 0.73062 0.0
H213 H 0.87152 0.20223 0.61222 0.0
H214 H 0.76476 0.20494 0.56654 0.0
O215 O 0.79144 0.11669 0.63942 0.0
C216 C 0.77003 0.21646 0.76437 0.0
O217 O 0.80209 0.22859 0.77021 0.0
N218 N 0.85567 0.14287 0.70468 0.0
C219 C 0.92506 0.12559 0.73478 0.0
C220 C 0.90596 0.10556 0.67289 0.0
C221 C 0.87092 0.11425 0.65957 0.0
C222 C 0.87422 0.16268 0.76409 0.0
C223 C 0.90875 0.15447 0.78036 0.0
H224 H 0.85651 0.09752 0.61431 0.0
H225 H 0.86178 0.18498 0.79996 0.0
H226 H 0.8157 0.07314 0.77673 0.0
H227 H 0.7903 0.12057 1.01487 0.0
H228 H 0.85999 0.24995 0.48651 0.0
H229 H 0.91785 0.08304 0.63639 0.0
H230 H 0.92274 0.17094 0.82773 0.0
C231 C 0.1742 0.89195 0.39048 0.0
C232 C 0.17455 0.91746 0.4572 0.0
N233 N 0.18517 0.95123 0.4271 0.0
N234 N 0.18501 0.90927 0.3184 0.0
C235 C 0.19152 0.94551 0.34308 0.0
H236 H 0.16568 0.86277 0.39415 0.0
Co237 Co 0.1871 0.8857 0.20974 0.0
C238 C 0.22129 0.94524 0.0909 0.0
O239 O 0.2362 0.91947 0.04318 0.0
N240 N 0.18881 0.86093 0.09932 0.0
C241 C 0.17799 0.84663 0.96243 0.0
C242 C 0.17129 0.87149 0.0284 0.0
C243 C 0.20611 0.82936 0.07365 0.0
N244 N 0.1998 0.81981 0.99086 0.0
O245 O 0.2321 0.86436 0.24273 0.0
H246 H 0.15504 0.89628 0.02406 0.0
H247 H 0.22324 0.81345 0.11452 0.0
O248 O 0.20465 0.93455 0.15776 0.0
C249 C 0.22304 0.83295 0.27877 0.0
O250 O 0.19046 0.82277 0.27127 0.0
N251 N 0.14157 0.90097 0.18995 0.0
C252 C 0.07124 0.91356 0.21557 0.0
C253 C 0.09427 0.94423 0.20648 0.0
C254 C 0.12955 0.93732 0.19389 0.0
C255 C 0.1193 0.87105 0.19396 0.0
C256 C 0.08408 0.87668 0.20612 0.0
H257 H 0.14724 0.96106 0.19355 0.0
H258 H 0.12928 0.84246 0.19358 0.0
H259 H 0.2003 0.96756 0.3004 0.0
H260 H 0.1663 0.91203 0.52208 0.0
H261 H 0.16856 0.84918 0.89757 0.0
H262 H 0.08535 0.97317 0.21233 0.0
H263 H 0.06739 0.85217 0.21352 0.0
C264 C 0.49265 0.40085 0.36263 0.0
C265 C 0.46739 0.41911 0.31293 0.0
C266 C 0.52729 0.39985 0.33702 0.0
C267 C 0.53822 0.41709 0.26059 0.0
H268 H 0.48539 0.38619 0.4207 0.0
H269 H 0.54559 0.38459 0.37644 0.0
S270 S 0.48281 0.46995 0.10887 0.0
N271 N 0.45604 0.45602 0.18472 0.0
N272 N 0.52136 0.45438 0.13719 0.0
C273 C 0.51366 0.437 0.21219 0.0
C274 C 0.47821 0.43794 0.23818 0.0
C275 C 0.52044 0.59997 0.74141 0.0
C276 C 0.53158 0.61364 0.82146 0.0
C277 C 0.48524 0.6006 0.71836 0.0
C278 C 0.46027 0.61503 0.7747 0.0
H279 H 0.53923 0.59102 0.69448 0.0
H280 H 0.47786 0.59205 0.65435 0.0
S281 S 0.47599 0.64872 0.99617 0.0
N282 N 0.51479 0.63822 0.95978 0.0
N283 N 0.44879 0.63875 0.91772 0.0
C284 C 0.471 0.626 0.85717 0.0
C285 C 0.50664 0.62554 0.88019 0.0
C286 C 0.00853 0.89739 0.20001 0.0
C287 C 0.03449 0.91888 0.24082 0.0
C288 C 0.9746 0.89687 0.23064 0.0
C289 C 0.9651 0.91795 0.30312 0.0
H290 H 0.01471 0.87997 0.14514 0.0
H291 H 0.95568 0.87925 0.19808 0.0
S292 S 0.02259 0.98015 0.43151 0.0
N293 N 0.04798 0.96272 0.35661 0.0
N294 N 0.98377 0.96222 0.41289 0.0
C295 C 0.99025 0.94093 0.34243 0.0
C296 C 0.02504 0.94129 0.31158 0.0
C297 C 0.02207 0.12628 0.70362 0.0
C298 C 0.0348 0.11985 0.78687 0.0
C299 C 0.9865 0.12532 0.68567 0.0
C300 C 0.96231 0.11828 0.75049 0.0
H301 H 0.03973 0.13348 0.65253 0.0
H302 H 0.97779 0.13228 0.62178 0.0
S303 S 0.98204 0.09592 0.97675 0.0
N304 N 0.02029 0.10317 0.93301 0.0
N305 N 0.95346 0.10163 0.8993 0.0
C306 C 0.9747 0.1097 0.83277 0.0
C307 C 0.01094 0.11032 0.85092 0.0
C308 C 0.32965 0.52135 0.93987 0.0
C309 C 0.30368 0.54795 0.95657 0.0
C310 C 0.33264 0.48801 0.98883 0.0
C311 C 0.30941 0.4794 0.05594 0.0
H312 H 0.34868 0.5272 0.891 0.0
H313 H 0.35411 0.46953 0.97518 0.0
S314 S 0.23411 0.53865 0.11722 0.0
N315 N 0.25313 0.56299 0.04047 0.0
N316 N 0.25723 0.4998 0.12943 0.0
C317 C 0.2823 0.50534 0.07025 0.0
C318 C 0.27982 0.53962 0.02139 0.0
C319 C 0.70935 0.48967 0.54524 0.0
C320 C 0.68801 0.48231 0.47402 0.0
C321 C 0.70628 0.52349 0.59278 0.0
C322 C 0.68138 0.55104 0.57174 0.0
H323 H 0.7289 0.46932 0.56342 0.0
H324 H 0.7239 0.52834 0.64549 0.0
S325 S 0.61573 0.542 0.39844 0.0
N326 N 0.63945 0.50347 0.38909 0.0
N327 N 0.63241 0.56594 0.47947 0.0
C328 C 0.65896 0.54302 0.50243 0.0
C329 C 0.6626 0.50899 0.45339 0.0
C330 C 0.70197 0.54807 0.07907 0.0
C331 C 0.71051 0.55932 0.99487 0.0
C332 C 0.70733 0.5109 0.10916 0.0
C333 C 0.72173 0.4825 0.05721 0.0
H334 H 0.69002 0.56798 0.12248 0.0
H335 H 0.69936 0.50432 0.17361 0.0
S336 S 0.75141 0.49699 0.83334 0.0
N337 N 0.73635 0.5389 0.86162 0.0
N338 N 0.74635 0.46919 0.91728 0.0
C339 C 0.73186 0.49361 0.97382 0.0
C340 C 0.72634 0.53176 0.94305 0.0
C341 C 0.27196 0.49775 0.55677 0.0
C342 C 0.27981 0.48734 0.47155 0.0
C343 C 0.27664 0.53532 0.58741 0.0
C344 C 0.28923 0.56451 0.53424 0.0
H345 H 0.26326 0.47638 0.60151 0.0
H346 H 0.27154 0.54111 0.6541 0.0
S347 S 0.3095 0.55393 0.30299 0.0
N348 N 0.29812 0.51089 0.33333 0.0
N349 N 0.30626 0.58067 0.38911 0.0
C350 C 0.29544 0.55486 0.44784 0.0
C351 C 0.29097 0.51668 0.41709 0.0
C352 C 0.78181 0.03514 1.00842 0.0
C353 C 0.80708 0.0484 0.95117 0.0
C354 C 0.78718 1.00253 0.0584 0.0
C355 C 0.81835 0.98207 0.05446 0.0
H356 H 0.75777 0.05042 1.01501 0.0
H357 H 0.76674 0.99344 0.10076 0.0
S358 S 0.89414 1.00792 0.92 0.0
N359 N 0.86479 0.03997 0.89565 0.0
N360 N 0.87587 0.97976 0.99117 0.0
C361 C 0.84404 0.99553 0.99766 0.0
C362 C 0.83817 0.02837 0.94575 0.0
C363 C 0.20132 0.02247 0.60344 0.0
C364 C 0.18665 0.05593 0.57054 0.0
C365 C 0.20088 0.98839 0.55627 0.0
C366 C 0.18613 0.98655 0.47399 0.0
H367 H 0.21376 0.02279 0.6654 0.0
H368 H 0.21259 0.96337 0.58374 0.0
S369 S 0.14012 0.06412 0.36304 0.0
N370 N 0.15355 0.08342 0.45344 0.0
N371 N 0.15395 1.01993 0.36478 0.0
C372 C 0.17066 1.01936 0.44121 0.0
C373 C 0.17059 0.05385 0.48944 0.0
C374 C 0.2005 0.05204 0.08329 0.0
C375 C 0.21021 0.06371 1.00014 0.0
C376 C 0.20499 1.01447 0.11246 0.0
C377 C 0.21969 0.98614 0.06062 0.0
H378 H 0.18848 0.07196 0.12653 0.0
H379 H 0.19625 1.0076 0.17616 0.0
S380 S 0.25126 1.00145 0.83859 0.0
N381 N 0.23649 0.04342 0.8673 0.0
N382 N 0.24518 0.97329 0.92147 0.0
C383 C 0.23052 0.99759 0.978 0.0
C384 C 0.22575 0.036 0.94809 0.0
C385 C 0.77514 0.03921 0.58052 0.0
C386 C 0.78703 0.06842 0.52637 0.0
C387 C 0.77109 1.00139 0.55112 0.0
C388 C 0.7791 0.9906 0.46629 0.0
H389 H 0.76962 0.04534 0.64688 0.0
H390 H 0.76259 0.98016 0.59645 0.0
S391 S 0.80891 0.05627 0.29615 0.0
N392 N 0.80474 0.08365 0.38098 0.0
N393 N 0.7979 1.01332 0.32786 0.0
C394 C 0.79016 1.01969 0.41111 0.0
C395 C 0.79387 0.05821 0.44045 0.0
C396 C 0.22477 0.31708 0.17525 0.0
C397 C 0.25468 0.30439 0.21772 0.0
C398 C 0.20631 0.2931 0.11827 0.0
C399 C 0.21722 0.25563 0.10051 0.0
H400 H 0.21623 0.34604 0.1837 0.0
H401 H 0.18379 0.30431 0.08602 0.0
S402 S 0.29101 0.2069 0.20284 0.0
N403 N 0.29205 0.25008 0.24363 0.0
N404 N 0.25793 0.20624 0.13609 0.0
C405 C 0.24623 0.2423 0.1447 0.0
C406 C 0.26469 0.26629 0.20333 0.0
C407 C 0.77346 0.74704 0.71582 0.0
C408 C 0.74053 0.73345 0.69241 0.0
C409 C 0.79073 0.77485 0.66608 0.0
C410 C 0.77594 0.79003 0.59053 0.0
H411 H 0.78516 0.73766 0.77502 0.0
H412 H 0.8156 0.78513 0.68804 0.0
S413 S 0.69086 0.76206 0.4994 0.0
N414 N 0.69469 0.73593 0.58619 0.0
N415 N 0.72653 0.78773 0.49468 0.0
C416 C 0.74365 0.77533 0.56511 0.0
C417 C 0.72617 0.74731 0.61553 0.0
C418 C 0.25075 0.78035 0.9573 0.0
C419 C 0.21627 0.79015 0.94069 0.0
C420 C 0.26848 0.7545 0.90543 0.0
C421 C 0.25271 0.73658 0.8344 0.0
H422 H 0.26475 0.79392 1.00899 0.0
H423 H 0.29534 0.74912 0.92053 0.0
S424 S 0.16166 0.74913 0.76731 0.0
N425 N 0.16595 0.77744 0.85097 0.0
N426 N 0.19963 0.72879 0.75356 0.0
C427 C 0.21774 0.74459 0.819 0.0
C428 C 0.19954 0.77142 0.87177 0.0
C429 C 0.74334 0.26644 0.33406 0.0
C430 C 0.75265 0.3046 0.31721 0.0
C431 C 0.76078 0.24427 0.39507 0.0
C432 C 0.7888 0.25883 0.44204 0.0
H433 H 0.7216 0.25358 0.3011 0.0
H434 H 0.75223 0.21537 0.40552 0.0
S435 S 0.82388 0.35692 0.42445 0.0
N436 N 0.79203 0.35584 0.35396 0.0
N437 N 0.82517 0.31422 0.4677 0.0
C438 C 0.79907 0.29666 0.42486 0.0
C439 C 0.78102 0.31944 0.36277 0.0
C440 C 0.70542 0.78589 0.13788 0.0
C441 C 0.72206 0.75952 0.08326 0.0
C442 C 0.72417 0.81173 0.18988 0.0
C443 C 0.76049 0.81241 0.18981 0.0
H444 H 0.67753 0.78654 0.14109 0.0
H445 H 0.71013 0.83058 0.23179 0.0
S446 S 0.81698 0.75137 0.05524 0.0
N447 N 0.77745 0.73707 0.03207 0.0
N448 N 0.81234 0.78588 0.1253 0.0
C449 C 0.77737 0.78717 0.13319 0.0
C450 C 0.75836 0.7608 0.08115 0.0
C451 C 0.25885 0.27853 0.753 0.0
C452 C 0.25449 0.24031 0.72885 0.0
C453 C 0.27464 0.30521 0.69864 0.0
C454 C 0.28602 0.29534 0.61608 0.0
H455 H 0.24845 0.28834 0.81326 0.0
H456 H 0.27646 0.33435 0.7201 0.0
S457 S 0.28209 0.19864 0.52241 0.0
N458 N 0.2644 0.19357 0.6177 0.0
N459 N 0.29333 0.24379 0.5147 0.0
C460 C 0.28274 0.25696 0.59174 0.0
C461 C 0.26725 0.2295 0.64823 0.0
C462 C 0.73124 0.22981 0.88927 0.0
C463 C 0.74331 0.23993 0.80743 0.0
C464 C 0.7161 0.25685 0.94437 0.0
C465 C 0.71197 0.29498 0.91937 0.0
H466 H 0.73541 0.20138 0.91308 0.0
H467 H 0.70811 0.24806 1.00756 0.0
S468 S 0.73862 0.33573 0.71089 0.0
N469 N 0.74966 0.29064 0.70428 0.0
N470 N 0.72063 0.34092 0.80569 0.0
C471 C 0.72266 0.30497 0.83633 0.0
C472 C 0.73845 0.27764 0.7811 0.0
C473 C 0.23199 0.7734 0.36404 0.0
C474 C 0.2459 0.80793 0.3326 0.0
C475 C 0.2503 0.74977 0.42036 0.0
C476 C 0.28382 0.75895 0.44793 0.0
H477 H 0.20625 0.76433 0.34574 0.0
H478 H 0.2382 0.72371 0.44165 0.0
S479 S 0.3325 0.8462 0.38785 0.0
N480 N 0.29556 0.85015 0.33552 0.0
N481 N 0.33023 0.80574 0.44078 0.0
C482 C 0.29841 0.79323 0.41698 0.0
C483 C 0.27948 0.8176 0.35966 0.0
loop_
_geom_bond_atom_site_label_1
_geom_bond_atom_site_label_2
_geom_bond_distance
_geom_bond_site_symmetry_2
_ccdc_geom_bond_type
C0 C1 1.351 . S
C0 N3 1.368 . S
C0 H5 0.931 . S
C1 C0 1.351 . S
C1 N2 1.373 . S
C1 H29 0.918 1_554 S
N2 C1 1.373 . S
N2 C4 1.340 . S
N3 C0 1.368 . S
N3 C4 1.321 . S
N3 Co6 2.135 . S
C4 N2 1.340 . S
C4 N3 1.321 . S
C4 H28 0.930 . S
H5 C0 0.931 . S
Co6 N3 2.135 . S
Co6 N9 2.121 . S
Co6 O14 2.055 . S
Co6 O17 2.039 . S
Co6 N20 2.140 . S
C7 O8 1.227 . S
C7 O17 1.265 . S
O8 C7 1.227 . S
N9 Co6 2.121 . S
N9 C11 1.375 . S
N9 C12 1.313 . S
C10 C11 1.338 . S
C10 N13 1.377 . S
C10 H30 0.930 . S
C11 N9 1.375 . S
C11 C10 1.338 . S
C11 H15 0.931 . S
C12 N9 1.313 . S
C12 N13 1.344 . S
C12 H16 0.930 . S
N13 C10 1.377 . S
N13 C12 1.344 . S
O14 Co6 2.055 . S
O14 C18 1.253 . S
H15 C11 0.931 . S
H16 C12 0.930 . S
O17 Co6 2.039 . S
O17 C7 1.265 . S
C18 O14 1.253 . S
C18 O19 1.227 . S
O19 C18 1.227 . S
N20 Co6 2.140 . S
N20 C23 1.346 . S
N20 C24 1.345 . S
C21 C22 1.387 . S
C21 C25 1.391 . S
C22 C21 1.387 . S
C22 C23 1.369 . S
C22 H31 0.929 . S
C23 N20 1.346 . S
C23 C22 1.369 . S
C23 H26 0.928 . S
C24 N20 1.345 . S
C24 C25 1.371 . S
C24 H27 0.931 . S
C25 C21 1.391 . S
C25 C24 1.371 . S
C25 H32 0.930 . S
H26 C23 0.928 . S
H27 C24 0.931 . S
H28 C4 0.930 . S
H29 C1 0.918 1_556 S
H30 C10 0.930 . S
H31 C22 0.929 . S
H32 C25 0.930 . S
C33 C34 1.351 . S
C33 N36 1.368 . S
C33 H38 0.931 . S
C34 C33 1.351 . S
C34 N35 1.373 . S
C34 H62 0.930 . S
N35 C34 1.373 . S
N35 C37 1.340 . S
N36 C33 1.368 . S
N36 C37 1.321 . S
N36 Co39 2.135 . S
C37 N35 1.340 . S
C37 N36 1.321 . S
C37 H61 0.930 . S
H38 C33 0.931 . S
Co39 N36 2.135 . S
Co39 N42 2.121 . S
Co39 O47 2.055 . S
Co39 O50 2.039 . S
Co39 N53 2.140 . S
C40 O41 1.227 . S
C40 O50 1.265 . S
O41 C40 1.227 . S
N42 Co39 2.121 . S
N42 C44 1.375 . S
N42 C45 1.313 . S
C43 C44 1.338 1_554 S
C43 N46 1.377 1_554 S
C43 H63 0.930 . S
C44 N42 1.375 . S
C44 C43 1.338 1_556 S
C44 H48 0.931 . S
C45 N42 1.313 . S
C45 N46 1.344 . S
C45 H49 0.930 . S
N46 C43 1.377 1_556 S
N46 C45 1.344 . S
O47 Co39 2.055 . S
O47 C51 1.253 . S
H48 C44 0.931 . S
H49 C45 0.930 . S
O50 Co39 2.039 . S
O50 C40 1.265 . S
C51 O47 1.253 . S
C51 O52 1.227 . S
O52 C51 1.227 . S
N53 Co39 2.140 . S
N53 C56 1.346 . S
N53 C57 1.345 . S
C54 C55 1.387 . S
C54 C58 1.391 . S
C55 C54 1.387 . S
C55 C56 1.369 . S
C55 H64 0.929 . S
C56 N53 1.346 . S
C56 C55 1.369 . S
C56 H59 0.928 . S
C57 N53 1.345 . S
C57 C58 1.371 . S
C57 H60 0.931 . S
C58 C54 1.391 . S
C58 C57 1.371 . S
C58 H65 0.930 . S
H59 C56 0.928 . S
H60 C57 0.931 . S
H61 C37 0.930 . S
H62 C34 0.930 . S
H63 C43 0.930 . S
H64 C55 0.929 . S
H65 C58 0.930 . S
C66 C67 1.351 . S
C66 N69 1.368 . S
C66 H71 0.931 . S
C67 C66 1.351 . S
C67 N68 1.373 . S
C67 H95 0.918 1_556 S
N68 C67 1.373 . S
N68 C70 1.340 . S
N69 C66 1.368 . S
N69 C70 1.321 . S
N69 Co72 2.135 . S
C70 N68 1.340 . S
C70 N69 1.321 . S
C70 H94 0.930 . S
H71 C66 0.931 . S
Co72 N69 2.135 . S
Co72 N75 2.121 . S
Co72 O80 2.055 . S
Co72 O83 2.039 . S
Co72 N86 2.140 . S
C73 O74 1.227 . S
C73 O83 1.265 . S
O74 C73 1.227 . S
N75 Co72 2.121 . S
N75 C77 1.375 . S
N75 C78 1.313 . S
C76 C77 1.338 . S
C76 N79 1.377 . S
C76 H96 0.930 . S
C77 N75 1.375 . S
C77 C76 1.338 . S
C77 H81 0.931 . S
C78 N75 1.313 . S
C78 N79 1.344 . S
C78 H82 0.930 . S
N79 C76 1.377 . S
N79 C78 1.344 . S
O80 Co72 2.055 . S
O80 C84 1.253 . S
H81 C77 0.931 . S
H82 C78 0.930 . S
O83 Co72 2.039 . S
O83 C73 1.265 . S
C84 O80 1.253 . S
C84 O85 1.227 . S
O85 C84 1.227 . S
N86 Co72 2.140 . S
N86 C89 1.346 . S
N86 C90 1.345 . S
C87 C88 1.387 . S
C87 C91 1.391 . S
C88 C87 1.387 . S
C88 C89 1.369 . S
C88 H97 0.929 . S
C89 N86 1.346 . S
C89 C88 1.369 . S
C89 H92 0.928 . S
C90 N86 1.345 . S
C90 C91 1.371 . S
C90 H93 0.931 . S
C91 C87 1.391 . S
C91 C90 1.371 . S
C91 H98 0.930 . S
H92 C89 0.928 . S
H93 C90 0.931 . S
H94 C70 0.930 . S
H95 C67 0.918 1_554 S
H96 C76 0.930 . S
H97 C88 0.929 . S
H98 C91 0.930 . S
C99 C100 1.351 . S
C99 N102 1.368 . S
C99 H104 0.931 . S
C100 C99 1.351 . S
C100 N101 1.373 . S
C100 H128 0.930 . S
N101 C100 1.373 . S
N101 C103 1.340 . S
N102 C99 1.368 . S
N102 C103 1.321 . S
N102 Co105 2.135 . S
C103 N101 1.340 . S
C103 N102 1.321 . S
C103 H127 0.930 . S
H104 C99 0.931 . S
Co105 N102 2.135 . S
Co105 N108 2.121 . S
Co105 O113 2.055 . S
Co105 O116 2.039 . S
Co105 N119 2.140 . S
C106 O107 1.227 . S
C106 O116 1.265 . S
O107 C106 1.227 . S
N108 Co105 2.121 . S
N108 C110 1.375 . S
N108 C111 1.313 . S
C109 C110 1.338 1_556 S
C109 N112 1.377 1_556 S
C109 H129 0.930 . S
C110 N108 1.375 . S
C110 C109 1.338 1_554 S
C110 H114 0.931 . S
C111 N108 1.313 . S
C111 N112 1.344 . S
C111 H115 0.930 . S
N112 C109 1.377 1_554 S
N112 C111 1.344 . S
O113 Co105 2.055 . S
O113 C117 1.253 . S
H114 C110 0.931 . S
H115 C111 0.930 . S
O116 Co105 2.039 . S
O116 C106 1.265 . S
C117 O113 1.253 . S
C117 O118 1.227 . S
O118 C117 1.227 . S
N119 Co105 2.140 . S
N119 C122 1.346 . S
N119 C123 1.345 . S
C120 C121 1.387 . S
C120 C124 1.391 . S
C121 C120 1.387 . S
C121 C122 1.369 . S
C121 H130 0.929 . S
C122 N119 1.346 . S
C122 C121 1.369 . S
C122 H125 0.928 . S
C123 N119 1.345 . S
C123 C124 1.371 . S
C123 H126 0.931 . S
C124 C120 1.391 . S
C124 C123 1.371 . S
C124 H131 0.930 . S
H125 C122 0.928 . S
H126 C123 0.931 . S
H127 C103 0.930 . S
H128 C100 0.930 . S
H129 C109 0.930 . S
H130 C121 0.929 . S
H131 C124 0.930 . S
C132 C133 1.351 . S
C132 N135 1.368 . S
C132 H137 0.931 . S
C133 C132 1.351 . S
C133 N134 1.373 . S
C133 H161 0.918 1_554 S
N134 C133 1.373 . S
N134 C136 1.340 . S
N135 C132 1.368 . S
N135 C136 1.321 . S
N135 Co138 2.135 . S
C136 N134 1.340 . S
C136 N135 1.321 . S
C136 H160 0.930 . S
H137 C132 0.931 . S
Co138 N135 2.135 . S
Co138 N141 2.121 . S
Co138 O146 2.055 . S
Co138 O149 2.039 . S
Co138 N152 2.140 . S
C139 O140 1.227 . S
C139 O149 1.265 . S
O140 C139 1.227 . S
N141 Co138 2.121 . S
N141 C143 1.375 . S
N141 C144 1.313 . S
C142 C143 1.338 . S
C142 N145 1.377 . S
C142 H162 0.930 . S
C143 N141 1.375 . S
C143 C142 1.338 . S
C143 H147 0.931 . S
C144 N141 1.313 . S
C144 N145 1.344 . S
C144 H148 0.930 . S
N145 C142 1.377 . S
N145 C144 1.344 . S
O146 Co138 2.055 . S
O146 C150 1.253 . S
H147 C143 0.931 . S
H148 C144 0.930 . S
O149 Co138 2.039 . S
O149 C139 1.265 . S
C150 O146 1.253 . S
C150 O151 1.227 . S
O151 C150 1.227 . S
N152 Co138 2.140 . S
N152 C155 1.346 . S
N152 C156 1.345 . S
C153 C154 1.387 . S
C153 C157 1.391 . S
C154 C153 1.387 . S
C154 C155 1.369 . S
C154 H163 0.929 . S
C155 N152 1.346 . S
C155 C154 1.369 . S
C155 H158 0.928 . S
C156 N152 1.345 . S
C156 C157 1.371 . S
C156 H159 0.931 . S
C157 C153 1.391 . S
C157 C156 1.371 . S
C157 H164 0.930 . S
H158 C155 0.928 . S
H159 C156 0.931 . S
H160 C136 0.930 . S
H161 C133 0.918 1_556 S
H162 C142 0.930 . S
H163 C154 0.929 . S
H164 C157 0.930 . S
C165 C166 1.351 . S
C165 N168 1.368 . S
C165 H170 0.931 . S
C166 C165 1.351 . S
C166 N167 1.373 . S
C166 H194 0.930 . S
N167 C166 1.373 . S
N167 C169 1.340 . S
N168 C165 1.368 . S
N168 C169 1.321 . S
N168 Co171 2.135 . S
C169 N167 1.340 . S
C169 N168 1.321 . S
C169 H193 0.930 . S
H170 C165 0.931 . S
Co171 N168 2.135 . S
Co171 N174 2.121 . S
Co171 O179 2.055 . S
Co171 O182 2.039 . S
Co171 N185 2.140 . S
C172 O173 1.227 . S
C172 O182 1.265 . S
O173 C172 1.227 . S
N174 Co171 2.121 . S
N174 C176 1.375 . S
N174 C177 1.313 . S
C175 C176 1.338 1_554 S
C175 N178 1.377 1_554 S
C175 H195 0.930 . S
C176 N174 1.375 . S
C176 C175 1.338 1_556 S
C176 H180 0.931 . S
C177 N174 1.313 . S
C177 N178 1.344 . S
C177 H181 0.930 . S
N178 C175 1.377 1_556 S
N178 C177 1.344 . S
O179 Co171 2.055 . S
O179 C183 1.253 . S
H180 C176 0.931 . S
H181 C177 0.930 . S
O182 Co171 2.039 . S
O182 C172 1.265 . S
C183 O179 1.253 . S
C183 O184 1.227 . S
O184 C183 1.227 . S
N185 Co171 2.140 . S
N185 C188 1.346 . S
N185 C189 1.345 . S
C186 C187 1.387 . S
C186 C190 1.391 . S
C187 C186 1.387 . S
C187 C188 1.369 . S
C187 H196 0.929 . S
C188 N185 1.346 . S
C188 C187 1.369 . S
C188 H191 0.928 . S
C189 N185 1.345 . S
C189 C190 1.371 . S
C189 H192 0.931 . S
C190 C186 1.391 . S
C190 C189 1.371 . S
C190 H197 0.930 . S
H191 C188 0.928 . S
H192 C189 0.931 . S
H193 C169 0.930 . S
H194 C166 0.930 . S
H195 C175 0.930 . S
H196 C187 0.929 . S
H197 C190 0.930 . S
C198 C199 1.351 . S
C198 N201 1.368 . S
C198 H203 0.931 . S
C199 C198 1.351 . S
C199 N200 1.373 . S
C199 H227 0.918 1_556 S
N200 C199 1.373 . S
N200 C202 1.340 . S
N201 C198 1.368 . S
N201 C202 1.321 . S
N201 Co204 2.135 . S
C202 N200 1.340 . S
C202 N201 1.321 . S
C202 H226 0.930 . S
H203 C198 0.931 . S
Co204 N201 2.135 . S
Co204 N207 2.121 . S
Co204 O212 2.055 . S
Co204 O215 2.039 . S
Co204 N218 2.140 . S
C205 O206 1.227 . S
C205 O215 1.265 . S
O206 C205 1.227 . S
N207 Co204 2.121 . S
N207 C209 1.375 . S
N207 C210 1.313 . S
C208 C209 1.338 . S
C208 N211 1.377 . S
C208 H228 0.930 . S
C209 N207 1.375 . S
C209 C208 1.338 . S
C209 H213 0.931 . S
C210 N207 1.313 . S
C210 N211 1.344 . S
C210 H214 0.930 . S
N211 C208 1.377 . S
N211 C210 1.344 . S
O212 Co204 2.055 . S
O212 C216 1.253 . S
H213 C209 0.931 . S
H214 C210 0.930 . S
O215 Co204 2.039 . S
O215 C205 1.265 . S
C216 O212 1.253 . S
C216 O217 1.227 . S
O217 C216 1.227 . S
N218 Co204 2.140 . S
N218 C221 1.346 . S
N218 C222 1.345 . S
C219 C220 1.387 . S
C219 C223 1.391 . S
C220 C219 1.387 . S
C220 C221 1.369 . S
C220 H229 0.929 . S
C221 N218 1.346 . S
C221 C220 1.369 . S
C221 H224 0.928 . S
C222 N218 1.345 . S
C222 C223 1.371 . S
C222 H225 0.931 . S
C223 C219 1.391 . S
C223 C222 1.371 . S
C223 H230 0.930 . S
H224 C221 0.928 . S
H225 C222 0.931 . S
H226 C202 0.930 . S
H227 C199 0.918 1_554 S
H228 C208 0.930 . S
H229 C220 0.929 . S
H230 C223 0.930 . S
C231 C232 1.351 . S
C231 N234 1.368 . S
C231 H236 0.931 . S
C232 C231 1.351 . S
C232 N233 1.373 . S
C232 H260 0.930 . S
N233 C232 1.373 . S
N233 C235 1.340 . S
N234 C231 1.368 . S
N234 C235 1.321 . S
N234 Co237 2.135 . S
C235 N233 1.340 . S
C235 N234 1.321 . S
C235 H259 0.930 . S
H236 C231 0.931 . S
Co237 N234 2.135 . S
Co237 N240 2.121 . S
Co237 O245 2.055 . S
Co237 O248 2.039 . S
Co237 N251 2.140 . S
C238 O239 1.227 . S
C238 O248 1.265 . S
O239 C238 1.227 . S
N240 Co237 2.121 . S
N240 C242 1.375 . S
N240 C243 1.313 . S
C241 C242 1.338 1_556 S
C241 N244 1.377 1_556 S
C241 H261 0.930 . S
C242 N240 1.375 . S
C242 C241 1.338 1_554 S
C242 H246 0.931 . S
C243 N240 1.313 . S
C243 N244 1.344 . S
C243 H247 0.930 . S
N244 C241 1.377 1_554 S
N244 C243 1.344 . S
O245 Co237 2.055 . S
O245 C249 1.253 . S
H246 C242 0.931 . S
H247 C243 0.930 . S
O248 Co237 2.039 . S
O248 C238 1.265 . S
C249 O245 1.253 . S
C249 O250 1.227 . S
O250 C249 1.227 . S
N251 Co237 2.140 . S
N251 C254 1.346 . S
N251 C255 1.345 . S
C252 C253 1.387 . S
C252 C256 1.391 . S
C253 C252 1.387 . S
C253 C254 1.369 . S
C253 H262 0.929 . S
C254 N251 1.346 . S
C254 C253 1.369 . S
C254 H257 0.928 . S
C255 N251 1.345 . S
C255 C256 1.371 . S
C255 H258 0.931 . S
C256 C252 1.391 . S
C256 C255 1.371 . S
C256 H263 0.930 . S
H257 C254 0.928 . S
H258 C255 0.931 . S
H259 C235 0.930 . S
H260 C232 0.930 . S
H261 C241 0.930 . S
H262 C253 0.929 . S
H263 C256 0.930 . S
C264 C265 1.369 . S
C264 C266 1.419 . S
C264 H268 0.930 . S
C265 C264 1.369 . S
C265 C274 1.429 . S
C266 C264 1.419 . S
C266 C267 1.363 . S
C266 H269 0.929 . S
C267 C266 1.363 . S
C267 C273 1.428 . S
H268 C264 0.930 . S
H269 C266 0.929 . S
S270 N271 1.613 . S
S270 N272 1.610 . S
N271 S270 1.613 . S
N271 C274 1.350 . S
N272 S270 1.610 . S
N272 C273 1.351 . S
C273 C267 1.428 . S
C273 N272 1.351 . S
C273 C274 1.434 . S
C274 C265 1.429 . S
C274 N271 1.350 . S
C274 C273 1.434 . S
C275 C276 1.369 . S
C275 C277 1.419 . S
C275 H279 0.930 . S
C276 C275 1.369 . S
C276 C285 1.429 . S
C277 C275 1.419 . S
C277 C278 1.363 . S
C277 H280 0.929 . S
C278 C277 1.363 . S
C278 C284 1.428 . S
H279 C275 0.930 . S
H280 C277 0.929 . S
S281 N282 1.613 . S
S281 N283 1.610 . S
N282 S281 1.613 . S
N282 C285 1.350 . S
N283 S281 1.610 . S
N283 C284 1.351 . S
C284 C278 1.428 . S
C284 N283 1.351 . S
C284 C285 1.434 . S
C285 C276 1.429 . S
C285 N282 1.350 . S
C285 C284 1.434 . S
C286 C287 1.369 . S
C286 C288 1.419 1_455 S
C286 H290 0.930 . S
C287 C286 1.369 . S
C287 C296 1.429 . S
C288 C286 1.419 1_655 S
C288 C289 1.363 . S
C288 H291 0.929 . S
C289 C288 1.363 . S
C289 C295 1.428 . S
H290 C286 0.930 . S
H291 C288 0.929 . S
S292 N293 1.613 . S
S292 N294 1.610 1_455 S
N293 S292 1.613 . S
N293 C296 1.350 . S
N294 S292 1.610 1_655 S
N294 C295 1.351 . S
C295 C289 1.428 . S
C295 N294 1.351 . S
C295 C296 1.434 1_655 S
C296 C287 1.429 . S
C296 N293 1.350 . S
C296 C295 1.434 1_455 S
C297 C298 1.369 . S
C297 C299 1.419 1_455 S
C297 H301 0.930 . S
C298 C297 1.369 . S
C298 C307 1.429 . S
C299 C297 1.419 1_655 S
C299 C300 1.363 . S
C299 H302 0.929 . S
C300 C299 1.363 . S
C300 C306 1.428 . S
H301 C297 0.930 . S
H302 C299 0.929 . S
S303 N304 1.613 1_655 S
S303 N305 1.610 . S
N304 S303 1.613 1_455 S
N304 C307 1.350 . S
N305 S303 1.610 . S
N305 C306 1.351 . S
C306 C300 1.428 . S
C306 N305 1.351 . S
C306 C307 1.434 1_655 S
C307 C298 1.429 . S
C307 N304 1.350 . S
C307 C306 1.434 1_455 S
C308 C309 1.369 . S
C308 C310 1.419 . S
C308 H312 0.930 . S
C309 C308 1.369 . S
C309 C318 1.429 1_556 S
C310 C308 1.419 . S
C310 C311 1.363 1_556 S
C310 H313 0.929 . S
C311 C310 1.363 1_554 S
C311 C317 1.428 . S
H312 C308 0.930 . S
H313 C310 0.929 . S
S314 N315 1.613 . S
S314 N316 1.610 . S
N315 S314 1.613 . S
N315 C318 1.350 . S
N316 S314 1.610 . S
N316 C317 1.351 . S
C317 C311 1.428 . S
C317 N316 1.351 . S
C317 C318 1.434 . S
C318 C309 1.429 1_554 S
C318 N315 1.350 . S
C318 C317 1.434 . S
C319 C320 1.369 . S
C319 C321 1.419 . S
C319 H323 0.930 . S
C320 C319 1.369 . S
C320 C329 1.429 . S
C321 C319 1.419 . S
C321 C322 1.363 . S
C321 H324 0.929 . S
C322 C321 1.363 . S
C322 C328 1.428 . S
H323 C319 0.930 . S
H324 C321 0.929 . S
S325 N326 1.613 . S
S325 N327 1.610 . S
N326 S325 1.613 . S
N326 C329 1.350 . S
N327 S325 1.610 . S
N327 C328 1.351 . S
C328 C322 1.428 . S
C328 N327 1.351 . S
C328 C329 1.434 . S
C329 C320 1.429 . S
C329 N326 1.350 . S
C329 C328 1.434 . S
C330 C331 1.369 1_554 S
C330 C332 1.419 . S
C330 H334 0.930 . S
C331 C330 1.369 1_556 S
C331 C340 1.429 . S
C332 C330 1.419 . S
C332 C333 1.363 . S
C332 H335 0.929 . S
C333 C332 1.363 . S
C333 C339 1.428 1_554 S
H334 C330 0.930 . S
H335 C332 0.929 . S
S336 N337 1.613 . S
S336 N338 1.610 . S
N337 S336 1.613 . S
N337 C340 1.350 . S
N338 S336 1.610 . S
N338 C339 1.351 . S
C339 C333 1.428 1_556 S
C339 N338 1.351 . S
C339 C340 1.434 . S
C340 C331 1.429 . S
C340 N337 1.350 . S
C340 C339 1.434 . S
C341 C342 1.369 . S
C341 C343 1.419 . S
C341 H345 0.930 . S
C342 C341 1.369 . S
C342 C351 1.429 . S
C343 C341 1.419 . S
C343 C344 1.363 . S
C343 H346 0.929 . S
C344 C343 1.363 . S
C344 C350 1.428 . S
H345 C341 0.930 . S
H346 C343 0.929 . S
S347 N348 1.613 . S
S347 N349 1.610 . S
N348 S347 1.613 . S
N348 C351 1.350 . S
N349 S347 1.610 . S
N349 C350 1.351 . S
C350 C344 1.428 . S
C350 N349 1.351 . S
C350 C351 1.434 . S
C351 C342 1.429 . S
C351 N348 1.350 . S
C351 C350 1.434 . S
C352 C353 1.369 . S
C352 C354 1.419 1_546 S
C352 H356 0.930 . S
C353 C352 1.369 . S
C353 C362 1.429 . S
C354 C352 1.419 1_564 S
C354 C355 1.363 . S
C354 H357 0.929 . S
C355 C354 1.363 . S
C355 C361 1.428 . S
H356 C352 0.930 . S
H357 C354 0.929 . S
S358 N359 1.613 1_565 S
S358 N360 1.610 1_556 S
N359 S358 1.613 1_545 S
N359 C362 1.350 . S
N360 S358 1.610 1_554 S
N360 C361 1.351 . S
C361 C355 1.428 . S
C361 N360 1.351 . S
C361 C362 1.434 1_564 S
C362 C353 1.429 . S
C362 N359 1.350 . S
C362 C361 1.434 1_546 S
C363 C364 1.369 1_565 S
C363 C365 1.419 . S
C363 H367 0.930 . S
C364 C363 1.369 1_545 S
C364 C373 1.429 . S
C365 C363 1.419 . S
C365 C366 1.363 . S
C365 H368 0.929 . S
C366 C365 1.363 . S
C366 C372 1.428 1_565 S
H367 C363 0.930 . S
H368 C365 0.929 . S
S369 N370 1.613 . S
S369 N371 1.610 . S
N370 S369 1.613 . S
N370 C373 1.350 . S
N371 S369 1.610 . S
N371 C372 1.351 . S
C372 C366 1.428 1_545 S
C372 N371 1.351 . S
C372 C373 1.434 . S
C373 C364 1.429 . S
C373 N370 1.350 . S
C373 C372 1.434 . S
C374 C375 1.369 1_554 S
C374 C376 1.419 1_545 S
C374 H378 0.930 . S
C375 C374 1.369 1_556 S
C375 C384 1.429 . S
C376 C374 1.419 1_565 S
C376 C377 1.363 . S
C376 H379 0.929 . S
C377 C376 1.363 . S
C377 C383 1.428 1_554 S
H378 C374 0.930 . S
H379 C376 0.929 . S
S380 N381 1.613 1_565 S
S380 N382 1.610 . S
N381 S380 1.613 1_545 S
N381 C384 1.350 . S
N382 S380 1.610 . S
N382 C383 1.351 . S
C383 C377 1.428 1_556 S
C383 N382 1.351 . S
C383 C384 1.434 1_565 S
C384 C375 1.429 . S
C384 N381 1.350 . S
C384 C383 1.434 1_545 S
C385 C386 1.369 . S
C385 C387 1.419 1_545 S
C385 H389 0.930 . S
C386 C385 1.369 . S
C386 C395 1.429 . S
C387 C385 1.419 1_565 S
C387 C388 1.363 . S
C387 H390 0.929 . S
C388 C387 1.363 . S
C388 C394 1.452 . S
H389 C385 0.930 . S
H390 C387 0.929 . S
S391 N392 1.613 . S
S391 N393 1.610 . S
N392 S391 1.613 . S
N392 C395 1.350 . S
N393 S391 1.610 . S
N393 C394 1.348 1_545 S
C394 C388 1.452 . S
C394 N393 1.348 1_565 S
C394 C395 1.410 1_565 S
C395 C386 1.429 . S
C395 N392 1.350 . S
C395 C394 1.410 1_545 S
C396 C397 1.369 . S
C396 C398 1.419 . S
C396 H400 0.930 . S
C397 C396 1.369 . S
C397 C406 1.429 . S
C398 C396 1.419 . S
C398 C399 1.363 . S
C398 H401 0.929 1_554 S
C399 C398 1.363 . S
C399 C405 1.428 . S
H400 C396 0.930 . S
H401 C398 0.929 1_556 S
S402 N403 1.613 . S
S402 N404 1.610 . S
N403 S402 1.613 . S
N403 C406 1.350 . S
N404 S402 1.610 . S
N404 C405 1.351 . S
C405 C399 1.428 . S
C405 N404 1.351 . S
C405 C406 1.434 . S
C406 C397 1.429 . S
C406 N403 1.350 . S
C406 C405 1.434 . S
C407 C408 1.369 . S
C407 C409 1.419 . S
C407 H411 0.930 . S
C408 C407 1.369 . S
C408 C417 1.429 . S
C409 C407 1.419 . S
C409 C410 1.363 . S
C409 H412 0.929 . S
C410 C409 1.363 . S
C410 C416 1.428 . S
H411 C407 0.930 . S
H412 C409 0.929 . S
S413 N414 1.613 . S
S413 N415 1.610 . S
N414 S413 1.613 . S
N414 C417 1.350 . S
N415 S413 1.610 . S
N415 C416 1.351 . S
C416 C410 1.428 . S
C416 N415 1.351 . S
C416 C417 1.434 . S
C417 C408 1.429 . S
C417 N414 1.350 . S
C417 C416 1.434 . S
C418 C419 1.369 . S
C418 C420 1.419 . S
C418 H422 0.930 . S
C419 C418 1.369 . S
C419 C428 1.429 . S
C420 C418 1.419 . S
C420 C421 1.363 . S
C420 H423 0.929 . S
C421 C420 1.363 . S
C421 C427 1.428 . S
H422 C418 0.930 . S
H423 C420 0.929 . S
S424 N425 1.613 . S
S424 N426 1.610 . S
N425 S424 1.613 . S
N425 C428 1.350 . S
N426 S424 1.610 . S
N426 C427 1.351 . S
C427 C421 1.428 . S
C427 N426 1.351 . S
C427 C428 1.434 . S
C428 C419 1.429 . S
C428 N425 1.350 . S
C428 C427 1.434 . S
C429 C430 1.369 . S
C429 C431 1.419 . S
C429 H433 0.930 . S
C430 C429 1.369 . S
C430 C439 1.429 . S
C431 C429 1.419 . S
C431 C432 1.363 . S
C431 H434 0.929 . S
C432 C431 1.363 . S
C432 C438 1.428 . S
H433 C429 0.930 . S
H434 C431 0.929 . S
S435 N436 1.613 . S
S435 N437 1.610 . S
N436 S435 1.613 . S
N436 C439 1.350 . S
N437 S435 1.610 . S
N437 C438 1.351 . S
C438 C432 1.428 . S
C438 N437 1.351 . S
C438 C439 1.434 . S
C439 C430 1.429 . S
C439 N436 1.350 . S
C439 C438 1.434 . S
C440 C441 1.369 . S
C440 C442 1.419 . S
C440 H444 0.930 . S
C441 C440 1.369 . S
C441 C450 1.429 . S
C442 C440 1.419 . S
C442 C443 1.363 . S
C442 H445 0.929 . S
C443 C442 1.363 . S
C443 C449 1.428 . S
H444 C440 0.930 . S
H445 C442 0.929 . S
S446 N447 1.613 1_554 S
S446 N448 1.610 . S
N447 S446 1.613 1_556 S
N447 C450 1.350 1_556 S
N448 S446 1.610 . S
N448 C449 1.351 . S
C449 C443 1.428 . S
C449 N448 1.351 . S
C449 C450 1.434 . S
C450 C441 1.429 . S
C450 N447 1.350 1_554 S
C450 C449 1.434 . S
C451 C452 1.369 . S
C451 C453 1.419 . S
C451 H455 0.930 . S
C452 C451 1.369 . S
C452 C461 1.429 . S
C453 C451 1.419 . S
C453 C454 1.363 . S
C453 H456 0.929 . S
C454 C453 1.363 . S
C454 C460 1.428 . S
H455 C451 0.930 . S
H456 C453 0.929 . S
S457 N458 1.613 . S
S457 N459 1.610 . S
N458 S457 1.613 . S
N458 C461 1.350 . S
N459 S457 1.610 . S
N459 C460 1.351 . S
C460 C454 1.428 . S
C460 N459 1.351 . S
C460 C461 1.434 . S
C461 C452 1.429 . S
C461 N458 1.350 . S
C461 C460 1.434 . S
C462 C463 1.369 . S
C462 C464 1.419 . S
C462 H466 0.930 . S
C463 C462 1.369 . S
C463 C472 1.429 . S
C464 C462 1.419 . S
C464 C465 1.363 . S
C464 H467 0.929 1_556 S
C465 C464 1.363 . S
C465 C471 1.428 . S
H466 C462 0.930 . S
H467 C464 0.929 1_554 S
S468 N469 1.613 . S
S468 N470 1.610 . S
N469 S468 1.613 . S
N469 C472 1.350 . S
N470 S468 1.610 . S
N470 C471 1.351 . S
C471 C465 1.428 . S
C471 N470 1.351 . S
C471 C472 1.434 . S
C472 C463 1.429 . S
C472 N469 1.350 . S
C472 C471 1.434 . S
C473 C474 1.369 . S
C473 C475 1.419 . S
C473 H477 0.930 . S
C474 C473 1.369 . S
C474 C483 1.429 . S
C475 C473 1.419 . S
C475 C476 1.363 . S
C475 H478 0.929 . S
C476 C475 1.363 . S
C476 C482 1.428 . S
H477 C473 0.930 . S
H478 C475 0.929 . S
S479 N480 1.613 . S
S479 N481 1.610 . S
N480 S479 1.613 . S
N480 C483 1.350 . S
N481 S479 1.610 . S
N481 C482 1.351 . S
C482 C476 1.428 . S
C482 N481 1.351 . S
C482 C483 1.434 . S
C483 C474 1.429 . S
C483 N480 1.350 . S
C483 C482 1.434 . S
C265 C21 1.537 . S
C267 C120 1.541 . S
C276 C54 1.542 . S
C278 C87 1.538 . S
C287 C252 1.537 . S
C289 C153 1.541 . S
C298 C186 1.539 . S
C300 C219 1.538 . S
C309 N68 1.114 . S
C311 N2 1.123 . S
C320 N101 1.125 . S
C322 N35 1.116 . S
C331 C40 1.667 . S
C333 C106 1.669 . S
C342 C7 1.665 . S
C344 C73 1.668 . S
C353 N200 1.125 . S
C355 N134 1.120 . S
C364 N167 1.119 . S
C366 N233 1.124 . S
C375 C172 1.666 . S
C377 C238 1.669 . S
C386 C205 1.668 . S
C388 C139 1.665 . S
C397 C18 1.443 . S
C399 N178 1.425 1_554 S
C408 C51 1.443 . S
C410 N145 1.429 . S
C419 N244 1.430 1_556 S
C421 C84 1.448 . S
C430 C117 1.448 . S
C432 N211 1.430 . S
C441 N46 1.426 1_554 S
C443 C150 1.444 . S
C452 C183 1.445 . S
C454 N13 1.430 . S
C463 C216 1.444 . S
C465 N112 1.425 1_556 S
C474 C249 1.447 . S
C476 N79 1.425 . S
