# Generated by pormake.
# Topology qtz-e, (6)-cn, num edge types: 1
# Building blocks:
#     Node 0, Type 0, BuildingBlock: GEDQOX_clean_sbu_0, # of connection points: 6
#     Node 1, Type 0, BuildingBlock: GEDQOX_clean_sbu_0, # of connection points: 6
#     Node 2, Type 0, BuildingBlock: GEDQOX_clean_sbu_0, # of connection points: 6
#     Node 3, Type 0, BuildingBlock: GEDQOX_clean_sbu_0, # of connection points: 6
#     Node 4, Type 0, BuildingBlock: GEDQOX_clean_sbu_0, # of connection points: 6
#     Node 5, Type 0, BuildingBlock: GEDQOX_clean_sbu_0, # of connection points: 6
#     Edge 6, Type (0, 0), BuildingBlock: OJICUG_clean_linker_0, # of connection points: 2
#     Edge 7, Type (0, 0), BuildingBlock: OJICUG_clean_linker_0, # of connection points: 2
#     Edge 8, Type (0, 0), BuildingBlock: OJICUG_clean_linker_0, # of connection points: 2
#     Edge 9, Type (0, 0), BuildingBlock: OJICUG_clean_linker_0, # of connection points: 2
#     Edge 10, Type (0, 0), BuildingBlock: OJICUG_clean_linker_0, # of connection points: 2
#     Edge 11, Type (0, 0), BuildingBlock: OJICUG_clean_linker_0, # of connection points: 2
#     Edge 12, Type (0, 0), BuildingBlock: OJICUG_clean_linker_0, # of connection points: 2
#     Edge 13, Type (0, 0), BuildingBlock: OJICUG_clean_linker_0, # of connection points: 2
#     Edge 14, Type (0, 0), BuildingBlock: OJICUG_clean_linker_0, # of connection points: 2
#     Edge 15, Type (0, 0), BuildingBlock: OJICUG_clean_linker_0, # of connection points: 2
#     Edge 16, Type (0, 0), BuildingBlock: OJICUG_clean_linker_0, # of connection points: 2
#     Edge 17, Type (0, 0), BuildingBlock: OJICUG_clean_linker_0, # of connection points: 2
#     Edge 18, Type (0, 0), BuildingBlock: OJICUG_clean_linker_0, # of connection points: 2
#     Edge 19, Type (0, 0), BuildingBlock: OJICUG_clean_linker_0, # of connection points: 2
#     Edge 20, Type (0, 0), BuildingBlock: OJICUG_clean_linker_0, # of connection points: 2
#     Edge 21, Type (0, 0), BuildingBlock: OJICUG_clean_linker_0, # of connection points: 2
#     Edge 22, Type (0, 0), BuildingBlock: OJICUG_clean_linker_0, # of connection points: 2
#     Edge 23, Type (0, 0), BuildingBlock: OJICUG_clean_linker_0, # of connection points: 2
# Relax obj value: 0.079
# Max RMSD: 0.176
# Mean RMSD: 0.175
data_MOF--net-qtz-e--node1-GEDQOX_clean_sbu_0--edge1-OJICUG_clean_linker_0
_symmetry_space_group_name_H-M    P1
_symmetry_Int_Tables_number       1
_symmetry_cell_setting            triclinic
loop_
_symmetry_equiv_pos_as_xyz
'x, y, z'
_cell_length_a     19.583751
_cell_length_b     19.602364
_cell_length_c     41.821966
_cell_angle_alpha  90.227511
_cell_angle_beta   90.021337
_cell_angle_gamma 120.2784
loop_
_atom_site_label
_atom_site_type_symbol
_atom_site_fract_x
_atom_site_fract_y
_atom_site_fract_z
_atom_type_partial_charge
Nd0 Nd 0.16183 0.35289 0.08819 0.0
Nd1 Nd 0.26881 0.51935 0.06125 0.0
C2 C 0.04293 0.22892 0.11634 0.0
C3 C 0.0114 0.21306 0.14968 0.0
C4 C 0.92943 0.17581 0.15468 0.0
C5 C 0.89836 0.16739 0.18563 0.0
C6 C 0.94837 0.19586 0.21262 0.0
C7 C 0.03058 0.23151 0.20764 0.0
C8 C 0.0617 0.24042 0.17657 0.0
C9 C 0.32242 0.40763 0.08879 0.0
C10 C 0.26084 0.49856 0.13661 0.0
C11 C 0.3622 0.64907 1.02929 0.0
C12 C 0.3898 0.66505 0.99629 0.0
C13 C 0.39095 0.60588 0.97781 0.0
C14 C 0.40465 0.61632 0.94505 0.0
C15 C 0.41771 0.68626 0.93031 0.0
C16 C 0.41802 0.74604 0.94907 0.0
C17 C 0.40392 0.73533 0.98188 0.0
C18 C 0.12225 0.48946 0.08012 0.0
C19 C 0.19284 0.36437 1.01093 0.0
O20 O 0.03465 0.28217 0.10082 0.0
O21 O 0.11174 0.23471 0.11109 0.0
O22 O 0.27617 0.3668 0.11216 0.0
O23 O 0.28286 0.41468 0.06689 0.0
O24 O 0.19117 0.43606 0.13077 0.0
O25 O 0.31047 0.53884 0.11346 0.0
O26 O 0.38923 0.6132 0.0473 0.0
O27 O 0.28611 0.62026 0.0322 0.0
O28 O 0.18753 0.55349 0.08716 0.0
O29 O 0.13648 0.44214 0.06492 0.0
O30 O 0.23539 0.44204 1.01539 0.0
O31 O 0.15713 0.31511 0.03514 0.0
H32 H 0.88921 0.15463 0.13447 0.0
H33 H 0.83484 0.13889 0.18839 0.0
H34 H 0.07114 0.25507 0.22768 0.0
H35 H 0.12521 0.27038 0.17355 0.0
H36 H 0.3788 0.55065 0.98852 0.0
H37 H 0.40319 0.56884 0.93116 0.0
H38 H 0.42914 0.80097 0.93841 0.0
H39 H 0.40197 0.78099 0.99585 0.0
Nd40 Nd 0.79637 0.16155 0.4173 0.0
Nd41 Nd 0.74584 0.27088 0.38848 0.0
C42 C 0.80462 0.04656 0.44683 0.0
C43 C 0.78396 0.01701 0.48026 0.0
C44 C 0.72102 0.0179 0.49608 0.0
C45 C 0.70021 0.98924 0.5273 0.0
C46 C 0.7417 0.95879 0.5438 0.0
C47 C 0.80603 0.95965 0.52825 0.0
C48 C 0.82677 0.98828 0.49679 0.0
C49 C 0.90253 0.32186 0.42348 0.0
C50 C 0.72834 0.24436 0.46309 0.0
C51 C 0.72347 0.37224 0.35545 0.0
C52 C 0.72521 0.38846 0.32118 0.0
C53 C 0.76222 0.46659 0.31046 0.0
C54 C 0.76444 0.48219 0.27784 0.0
C55 C 0.72904 0.41973 0.25562 0.0
C56 C 0.69188 0.34156 0.26638 0.0
C57 C 0.69054 0.32599 0.29891 0.0
C58 C 0.62189 0.1239 0.40169 0.0
C59 C 0.8225 0.19165 0.34027 0.0
O60 O 0.7453 0.03456 0.42848 0.0
O61 O 0.86619 0.11723 0.4431 0.0
O62 O 0.88666 0.27268 0.44682 0.0
O63 O 0.86347 0.28545 0.39922 0.0
O64 O 0.72226 0.17641 0.45543 0.0
O65 O 0.75309 0.30205 0.44205 0.0
O66 O 0.79114 0.39167 0.36896 0.0
O67 O 0.66624 0.30341 0.36456 0.0
O68 O 0.62282 0.189 0.4081 0.0
O69 O 0.68653 0.13727 0.38925 0.0
O70 O 0.78395 0.23085 0.34318 0.0
O71 O 0.83764 0.16007 0.36543 0.0
H72 H 0.68723 0.04032 0.48423 0.0
H73 H 0.65143 0.99117 0.53859 0.0
H74 H 0.83921 0.9365 0.5401 0.0
H75 H 0.87583 0.98733 0.48529 0.0
H76 H 0.78956 0.51538 0.32728 0.0
H77 H 0.79343 0.54305 0.26996 0.0
H78 H 0.66534 0.29264 0.2496 0.0
H79 H 0.66259 0.26504 0.30658 0.0
Nd80 Nd 0.64534 0.81571 0.74931 0.0
Nd81 Nd 0.48007 0.75306 0.72214 0.0
C82 C 0.77385 0.83315 0.77781 0.0
C83 C 0.7838 0.81162 0.81094 0.0
C84 C 0.72417 0.74142 0.82477 0.0
C85 C 0.73192 0.72064 0.85595 0.0
C86 C 0.7996 0.76928 0.87445 0.0
C87 C 0.85875 0.84053 0.86091 0.0
C88 C 0.85096 0.86136 0.82945 0.0
C89 C 0.58313 0.91432 0.75499 0.0
C90 C 0.49702 0.7437 0.79698 0.0
C91 C 0.35164 0.71881 0.68927 0.0
C92 C 0.33484 0.71905 0.6549 0.0
C93 C 0.31554 0.77387 0.64285 0.0
C94 C 0.30246 0.77604 0.61015 0.0
C95 C 0.30802 0.72308 0.58898 0.0
C96 C 0.32611 0.6675 0.60109 0.0
C97 C 0.33955 0.66555 0.63369 0.0
C98 C 0.51258 0.63717 0.73734 0.0
C99 C 0.63326 0.83454 0.67238 0.0
O100 O 0.72967 0.77397 0.75864 0.0
O101 O 0.75949 0.89126 0.775 0.0
O102 O 0.62196 0.90454 0.77792 0.0
O103 O 0.58018 0.87429 0.73106 0.0
O104 O 0.56172 0.74296 0.78918 0.0
O105 O 0.45884 0.7619 0.77572 0.0
O106 O 0.39527 0.78741 0.70325 0.0
O107 O 0.36992 0.66627 0.69818 0.0
O108 O 0.44659 0.63429 0.74383 0.0
O109 O 0.56052 0.7012 0.72355 0.0
O110 O 0.55558 0.79296 0.67634 0.0
O111 O 0.68294 0.85376 0.69689 0.0
H112 H 0.67111 0.70215 0.81143 0.0
H113 H 0.68424 0.66626 0.86567 0.0
H114 H 0.91168 0.87939 0.87439 0.0
H115 H 0.8975 0.91617 0.81954 0.0
H116 H 0.31118 0.81539 0.65869 0.0
H117 H 0.28754 0.81889 0.60142 0.0
H118 H 0.3314 0.62652 0.58526 0.0
H119 H 0.35445 0.62247 0.64212 0.0
Nd120 Nd 0.82225 0.66275 0.08199 0.0
Nd121 Nd 0.70026 0.49793 0.04947 0.0
C122 C 0.93422 0.78529 0.1137 0.0
C123 C 0.9647 0.79229 0.14699 0.0
C124 C 0.98646 0.73865 0.15856 0.0
C125 C 0.00929 0.74143 0.19051 0.0
C126 C 0.01036 0.79738 0.21216 0.0
C127 C -0.00992 0.85216 0.20037 0.0
C128 C 0.96745 0.84952 0.16822 0.0
C129 C 0.66206 0.60745 0.088 0.0
C130 C 0.74793 0.50658 0.12362 0.0
C131 C 0.5723 0.37849 1.0244 0.0
C132 C 0.56029 0.33639 0.99405 0.0
C133 C 0.49214 0.31556 0.97613 0.0
C134 C 0.48829 0.29402 0.9441 0.0
C135 C 0.5526 0.29301 0.92964 0.0
C136 C 0.61821 0.30775 0.94822 0.0
C137 C 0.62232 0.32992 0.98026 0.0
C138 C 0.84535 0.50927 0.05203 0.0
C139 C 0.79664 0.65418 1.00314 0.0
O140 O 0.94919 0.74348 0.0933 0.0
O141 O 0.86189 0.772 0.111 0.0
O142 O 0.71113 0.63911 0.11168 0.0
O143 O 0.69847 0.60643 0.06363 0.0
O144 O 0.81495 0.56968 0.11574 0.0
O145 O 0.6864 0.47569 0.10396 0.0
O146 O 0.59023 0.45206 1.02127 0.0
O147 O 0.61554 0.36928 0.04592 0.0
O148 O 0.78408 0.45132 0.03828 0.0
O149 O 0.82918 0.5607 0.06151 0.0
O150 O 0.74778 0.57693 1.00548 0.0
O151 O 0.83172 0.70057 1.0285 0.0
H152 H 0.9848 0.69345 0.14305 0.0
H153 H 0.02607 0.69923 0.1982 0.0
H154 H -0.01049 0.89577 0.21616 0.0
H155 H 0.95049 0.89131 0.16007 0.0
H156 H 0.44416 0.32095 0.9863 0.0
H157 H 0.43683 0.28224 0.93012 0.0
H158 H 0.66846 0.30765 0.93744 0.0
H159 H 0.67597 0.34674 0.99359 0.0
Nd160 Nd 0.15371 0.82135 0.41955 0.0
Nd161 Nd 0.18668 0.6954 0.38372 0.0
C162 C 0.15054 0.9361 0.45213 0.0
C163 C 0.17674 0.96839 0.48504 0.0
C164 C 0.2438 0.97167 0.49884 0.0
C165 C 0.26834 0.00172 0.52984 0.0
C166 C 0.22652 0.02929 0.54811 0.0
C167 C 0.15828 0.02433 0.53451 0.0
C168 C 0.13384 -0.0056 0.50331 0.0
C169 C 0.04597 0.66142 0.42629 0.0
C170 C 0.23706 0.74338 0.45744 0.0
C171 C 0.1741 0.56559 0.35912 0.0
C172 C 0.21126 0.55191 0.33141 0.0
C173 C 0.1691 0.48165 0.314 0.0
C174 C 0.19563 0.47456 0.28392 0.0
C175 C 0.26468 0.53794 0.27078 0.0
C176 C 0.30926 0.60652 0.28919 0.0
C177 C 0.28266 0.61348 0.3193 0.0
C178 C 0.32197 0.84078 0.38261 0.0
C179 C 0.11402 0.78671 0.34171 0.0
O180 O 0.20615 0.94858 0.43154 0.0
O181 O 0.08968 0.86436 0.45006 0.0
O182 O 0.06712 0.71065 0.45014 0.0
O183 O 0.08116 0.69777 0.40165 0.0
O184 O 0.24295 0.81157 0.45061 0.0
O185 O 0.20093 0.68197 0.43784 0.0
O186 O 0.12612 0.59135 0.35191 0.0
O187 O 0.22034 0.60306 0.38342 0.0
O188 O 0.31545 0.77895 0.36837 0.0
O189 O 0.25642 0.8245 0.39454 0.0
O190 O 0.13637 0.73324 0.34274 0.0
O191 O 0.11744 0.83035 0.36699 0.0
H192 H 0.27753 0.95106 0.48563 0.0
H193 H 0.32018 0.00291 0.53959 0.0
H194 H 0.12468 0.04514 0.5477 0.0
H195 H 0.08152 0.99192 0.49339 0.0
H196 H 0.11332 0.43409 0.32283 0.0
H197 H 0.15919 0.42135 0.27014 0.0
H198 H 0.36291 0.6559 0.27978 0.0
H199 H 0.3158 0.66845 0.33235 0.0
Nd200 Nd 0.34903 0.17528 0.75468 0.0
Nd201 Nd 0.51091 0.20547 0.72115 0.0
C202 C 0.23317 0.17866 0.78627 0.0
C203 C 0.22338 0.20237 0.81934 0.0
C204 C 0.20599 0.26317 0.82366 0.0
C205 C 0.19774 0.2872 0.85445 0.0
C206 C 0.2064 0.25103 0.88206 0.0
C207 C 0.22316 0.18957 0.87769 0.0
C208 C 0.2317 0.16574 0.84684 0.0
C209 C 0.39167 0.06091 0.75956 0.0
C210 C 0.50846 0.24566 0.79538 0.0
C211 C 0.62322 0.18864 0.69455 0.0
C212 C 0.66212 0.21596 0.66354 0.0
C213 C 0.67961 0.16651 0.64548 0.0
C214 C 0.69742 0.18153 0.61309 0.0
C215 C 0.69775 0.24612 0.59837 0.0
C216 C 0.68639 0.29908 0.61703 0.0
C217 C 0.66813 0.28379 0.64943 0.0
C218 C 0.50732 0.34361 0.72262 0.0
C219 C 0.35258 0.15048 0.67573 0.0
O220 O 0.28141 0.2353 0.76709 0.0
O221 O 0.23832 0.11481 0.78316 0.0
O222 O 0.36251 0.08025 0.78351 0.0
O223 O 0.39654 0.10118 0.73569 0.0
O224 O 0.44883 0.25586 0.78803 0.0
O225 O 0.53381 0.21049 0.77554 0.0
O226 O 0.54823 0.13504 0.69253 0.0
O227 O 0.63776 0.24329 0.71598 0.0
O228 O 0.5638 0.33756 0.70931 0.0
O229 O 0.4552 0.27709 0.73274 0.0
O230 O 0.42874 0.17322 0.67792 0.0
O231 O 0.3087 0.1459 0.70109 0.0
H232 H 0.19891 0.2925 0.80309 0.0
H233 H 0.18384 0.33394 0.85656 0.0
H234 H 0.23139 0.16079 0.89815 0.0
H235 H 0.24549 0.11893 0.84461 0.0
H236 H 0.67447 0.11357 0.6559 0.0
H237 H 0.70685 0.14031 0.59913 0.0
H238 H 0.686 0.34894 0.60614 0.0
H239 H 0.65381 0.3222 0.66288 0.0
C240 C 0.30256 0.5995 0.21645 0.0
C241 C 0.28388 0.53517 0.23675 0.0
H242 H 0.31098 0.63856 0.16788 0.0
C243 C 0.27245 0.46436 0.22345 0.0
H244 H 0.31113 0.6547 0.22603 0.0
C245 C 0.27161 0.45531 0.19044 0.0
C246 C 0.28323 0.51712 0.17021 0.0
H247 H 0.2595 0.4144 0.23849 0.0
H248 H 0.25744 0.39837 0.18065 0.0
C249 C 0.30248 0.59053 0.18324 0.0
C250 C 0.64844 0.18437 0.54534 0.0
C251 C 0.69973 0.25166 0.56321 0.0
H252 H 0.61571 0.13099 0.49921 0.0
C253 C 0.75227 0.32193 0.54726 0.0
H254 H 0.60579 0.13021 0.55705 0.0
C255 C 0.75767 0.32262 0.5138 0.0
C256 C 0.71014 0.25314 0.49631 0.0
H257 H 0.79171 0.37476 0.56069 0.0
H258 H 0.8023 0.37541 0.50193 0.0
C259 C 0.65351 0.18516 0.51226 0.0
C260 C 0.39983 0.73217 0.8765 0.0
C261 C 0.43322 0.6974 0.8956 0.0
H262 H 0.39313 0.77363 0.82976 0.0
C263 C 0.48322 0.67419 0.88148 0.0
H264 H 0.36023 0.74973 0.88678 0.0
C265 C 0.50093 0.6868 0.84918 0.0
C266 C 0.46959 0.72351 0.83016 0.0
H267 H 0.51057 0.64811 0.89558 0.0
H268 H 0.54063 0.66891 0.83928 0.0
C269 C 0.4178 0.74502 0.8439 0.0
C270 C 0.66518 0.4003 0.20183 0.0
C271 C 0.73331 0.43642 0.22117 0.0
H272 H 0.61595 0.39436 0.15532 0.0
C273 C 0.80621 0.49003 0.20761 0.0
H274 H 0.60828 0.35856 0.21194 0.0
C275 C 0.8108 0.50947 0.1755 0.0
C276 C 0.74234 0.47645 0.15628 0.0
H277 H 0.85971 0.51745 0.22194 0.0
H278 H 0.86814 0.55211 0.16602 0.0
C279 C 0.66958 0.42051 0.16954 0.0
C280 C 0.33033 0.79988 0.53894 0.0
C281 C 0.29576 0.72655 0.5543 0.0
H282 H 0.34065 0.86219 0.49593 0.0
C283 C 0.24822 0.65727 0.53652 0.0
H284 H 0.36869 0.854 0.55188 0.0
C285 C 0.23224 0.66179 0.50424 0.0
C286 C 0.2637 0.73565 0.48941 0.0
H287 H 0.22083 0.59993 0.54787 0.0
H288 H 0.19242 0.608 0.49141 0.0
C289 C 0.31461 0.80438 0.50684 0.0
C290 C 0.56696 0.22994 0.87956 0.0
C291 C 0.55478 0.28717 0.8946 0.0
H292 H 0.56272 0.17201 0.83519 0.0
C293 C 0.54163 0.33868 0.87596 0.0
H294 H 0.57814 0.19031 0.89363 0.0
C295 C 0.5342 0.32923 0.84302 0.0
C296 C 0.53934 0.26779 0.82805 0.0
H297 H 0.53426 0.38465 0.88704 0.0
H298 H 0.51988 0.36735 0.82942 0.0
C299 C 0.55903 0.22009 0.84627 0.0
C300 C 0.44978 0.49284 0.06164 0.0
C301 C 0.40961 0.45657 0.08994 0.0
H302 H 0.56012 0.57067 0.0394 0.0
C303 C 0.45292 0.47255 0.11859 0.0
H304 H 0.41811 0.48206 0.03922 0.0
C305 C 0.53539 0.52406 0.11866 0.0
C306 C 0.57502 0.5596 0.09007 0.0
H307 H 0.4231 0.44603 0.14081 0.0
H308 H 0.56815 0.53471 0.14077 0.0
C309 C 0.53117 0.54387 0.06175 0.0
C310 C -0.00507 0.53227 0.45635 0.0
C311 C 0.00606 0.57428 0.42777 0.0
H312 H 0.95318 0.41781 0.47767 0.0
C313 C 0.98425 0.53268 0.3987 0.0
H314 H 0.01193 0.56313 0.47908 0.0
C315 C 0.9545 0.45176 0.39779 0.0
C316 C 0.94216 0.40892 0.42603 0.0
H317 H -0.00903 0.56306 0.37632 0.0
H318 H 0.94006 0.42243 0.3747 0.0
C319 C 0.96264 0.44965 0.45549 0.0
C320 C 0.44714 0.98901 0.73171 0.0
C321 C 0.43401 0.01646 0.76075 0.0
H322 H 0.50744 0.93968 0.7071 0.0
C323 C 0.46916 0.00882 0.7888 0.0
H324 H 0.42044 -0.00626 0.70974 0.0
C325 C 0.51871 0.97608 0.78736 0.0
C326 C 0.53345 0.95106 0.75787 0.0
H327 H 0.46036 0.03018 0.81146 0.0
H328 H 0.54562 0.97071 0.80912 0.0
C329 C 0.49699 0.95791 0.7302 0.0
C330 C 0.57497 0.56065 0.7181 0.0
C331 C 0.51675 0.56451 0.73612 0.0
H332 H 0.61643 0.48642 0.69931 0.0
C333 C 0.45676 0.4957 0.75065 0.0
H334 H 0.62166 0.61283 0.70662 0.0
C335 C 0.45334 0.42351 0.7463 0.0
C336 C 0.50981 0.41904 0.72735 0.0
H337 H 0.41136 0.4973 0.76488 0.0
H338 H 0.40655 0.37141 0.75764 0.0
C339 C 0.57143 0.48829 0.71372 0.0
C340 C 0.04282 0.55618 0.08689 0.0
C341 C 0.04844 0.49116 0.07591 0.0
H342 H 0.9742 0.61385 0.08756 0.0
C343 C 0.98663 0.43252 0.0576 0.0
H344 H 0.08985 0.60239 0.10105 0.0
C345 C 0.92161 0.43987 0.04954 0.0
C346 C 0.91674 0.50568 0.05979 0.0
H347 H -0.01055 0.382 0.04872 0.0
H348 H 0.87511 0.39383 0.03512 0.0
C349 C 0.97732 0.56336 0.07891 0.0
C350 C 0.40393 0.97511 0.40677 0.0
C351 C 0.39821 0.91363 0.38767 0.0
H352 H 0.48036 0.08976 0.42668 0.0
C353 C 0.46735 0.91962 0.37473 0.0
H354 H 0.35178 0.97124 0.41746 0.0
C355 C 0.54098 0.98667 0.38033 0.0
C356 C 0.54651 0.04901 0.39879 0.0
H357 H 0.46461 0.87242 0.3602 0.0
H358 H 0.59312 0.99049 0.36958 0.0
C359 C 0.47755 0.04239 0.41225 0.0
C360 C 0.22986 0.35955 0.92141 0.0
C361 C 0.1999 0.27873 0.91508 0.0
H362 H 0.25022 0.4491 0.95569 0.0
C363 C 0.16468 0.22544 0.94068 0.0
H364 H 0.2585 0.40293 0.90273 0.0
C365 C 0.16024 0.25231 0.97155 0.0
C366 C 0.19123 0.33335 0.97782 0.0
H367 H 0.14003 0.16267 0.93687 0.0
H368 H 0.13356 0.20959 0.99059 0.0
C369 C 0.22555 0.38627 0.95212 0.0
C370 C 0.82321 0.2069 0.28042 0.0
C371 C 0.85211 0.18734 0.30766 0.0
H372 H 0.83042 0.22515 0.22978 0.0
C373 C 0.91237 0.16893 0.30328 0.0
H374 H 0.77714 0.2218 0.28263 0.0
C375 C 0.94369 0.17155 0.27263 0.0
C376 C 0.9148 0.19147 0.24545 0.0
H377 H 0.93665 0.1542 0.32361 0.0
H378 H -0.00963 0.1576 0.27021 0.0
C379 C 0.85368 0.20852 0.24989 0.0
C380 C 0.7445 0.90899 0.63237 0.0
C381 C 0.66321 0.86323 0.6393 0.0
H382 H 0.8333 0.97501 0.59698 0.0
C383 C 0.60895 0.84739 0.61424 0.0
H384 H 0.7881 0.92265 0.65096 0.0
C385 C 0.63473 0.87754 0.58354 0.0
C386 C 0.71574 0.92445 0.57661 0.0
H387 H 0.54584 0.81234 0.61832 0.0
H388 H 0.59073 0.86381 0.56511 0.0
C389 C 0.77044 0.93888 0.60136 0.0
C390 C 0.83585 0.79624 0.93358 0.0
C391 C 0.80772 0.74359 0.90732 0.0
H392 H 0.85483 0.81002 0.98457 0.0
C393 C 0.78354 0.66389 0.91283 0.0
H394 H 0.85497 0.85808 0.93026 0.0
C395 C 0.7835 0.63664 0.94364 0.0
C396 C 0.8078 0.68801 0.97024 0.0
H397 H 0.76343 0.62183 0.89323 0.0
H398 H 0.76261 0.57428 0.9466 0.0
C399 C 0.83581 0.76872 0.96474 0.0
C400 C 0.09866 0.8645 0.29653 0.0
C401 C 0.07984 0.79211 0.31062 0.0
H402 H 0.09332 0.92364 0.25417 0.0
C403 C 0.0332 0.72221 0.29309 0.0
H404 H 0.13491 0.91937 0.30933 0.0
C405 C 0.00862 0.72428 0.26192 0.0
C406 C 0.03102 0.79655 0.2468 0.0
H407 H 0.0166 0.66526 0.30339 0.0
H408 H 0.97265 0.66869 0.24954 0.0
C409 C 0.0748 0.86674 0.26486 0.0
C410 C 0.36738 0.14415 0.61637 0.0
C411 C 0.3169 0.12569 0.64298 0.0
H412 H 0.37905 0.12983 0.56635 0.0
C413 C 0.23483 0.07883 0.63772 0.0
H414 H 0.43088 0.18084 0.61904 0.0
C415 C 0.20477 0.0489 0.6069 0.0
C416 C 0.2561 0.06487 0.58069 0.0
H417 H 0.19408 0.06305 0.65752 0.0
H418 H 0.14156 0.01104 0.60383 0.0
C419 C 0.33762 0.11433 0.58591 0.0
loop_
_geom_bond_atom_site_label_1
_geom_bond_atom_site_label_2
_geom_bond_distance
_geom_bond_site_symmetry_2
_ccdc_geom_bond_type
Nd0 C2 2.836 . S
Nd0 O20 2.500 . S
Nd0 O21 2.492 . S
Nd0 O22 2.487 . S
Nd0 O23 2.682 . S
Nd0 O24 2.410 . S
Nd0 O29 2.414 . S
Nd0 O31 2.424 . S
Nd1 C11 2.836 1_554 S
Nd1 O23 2.414 . S
Nd1 O25 2.424 . S
Nd1 O26 2.500 1_554 S
Nd1 O27 2.492 1_554 S
Nd1 O28 2.487 . S
Nd1 O29 2.682 . S
Nd1 O30 2.410 1_554 S
C2 Nd0 2.836 . S
C2 C3 1.498 . S
C2 O20 1.258 . S
C2 O21 1.239 . S
C3 C2 1.498 . S
C3 C4 1.364 1_455 S
C3 C8 1.407 . S
C4 C3 1.364 1_655 S
C4 C5 1.393 . S
C4 H32 0.932 . S
C5 C4 1.393 . S
C5 C6 1.398 . S
C5 H33 0.929 . S
C6 C5 1.398 . S
C6 C7 1.352 1_655 S
C7 C6 1.352 1_455 S
C7 C8 1.384 . S
C7 H34 0.930 . S
C8 C3 1.407 . S
C8 C7 1.384 . S
C8 H35 0.929 . S
C9 O22 1.241 . S
C9 O23 1.273 . S
C10 O24 1.251 . S
C10 O25 1.268 . S
C11 Nd1 2.836 1_556 S
C11 C12 1.498 . S
C11 O26 1.258 . S
C11 O27 1.239 . S
C12 C11 1.498 . S
C12 C13 1.366 . S
C12 C17 1.407 . S
C13 C12 1.366 . S
C13 C14 1.392 . S
C13 H36 0.930 . S
C14 C13 1.392 . S
C14 C15 1.398 . S
C14 H37 0.929 . S
C15 C14 1.398 . S
C15 C16 1.352 . S
C16 C15 1.352 . S
C16 C17 1.384 . S
C16 H38 0.930 . S
C17 C12 1.407 . S
C17 C16 1.384 . S
C17 H39 0.929 . S
C18 O28 1.241 . S
C18 O29 1.273 . S
C19 O30 1.251 . S
C19 O31 1.268 1_556 S
O20 Nd0 2.500 . S
O20 C2 1.258 . S
O21 Nd0 2.492 . S
O21 C2 1.239 . S
O22 Nd0 2.487 . S
O22 C9 1.241 . S
O23 Nd0 2.682 . S
O23 Nd1 2.414 . S
O23 C9 1.273 . S
O24 Nd0 2.410 . S
O24 C10 1.251 . S
O25 Nd1 2.424 . S
O25 C10 1.268 . S
O26 Nd1 2.500 1_556 S
O26 C11 1.258 . S
O27 Nd1 2.492 1_556 S
O27 C11 1.239 . S
O28 Nd1 2.487 . S
O28 C18 1.241 . S
O29 Nd0 2.414 . S
O29 Nd1 2.682 . S
O29 C18 1.273 . S
O30 Nd1 2.410 1_556 S
O30 C19 1.251 . S
O31 Nd0 2.424 . S
O31 C19 1.268 1_554 S
H32 C4 0.932 . S
H33 C5 0.929 . S
H34 C7 0.930 . S
H35 C8 0.929 . S
H36 C13 0.930 . S
H37 C14 0.929 . S
H38 C16 0.930 . S
H39 C17 0.929 . S
Nd40 C42 2.836 . S
Nd40 O60 2.500 . S
Nd40 O61 2.492 . S
Nd40 O62 2.487 . S
Nd40 O63 2.682 . S
Nd40 O64 2.410 . S
Nd40 O69 2.414 . S
Nd40 O71 2.424 . S
Nd41 C51 2.836 . S
Nd41 O63 2.414 . S
Nd41 O65 2.424 . S
Nd41 O66 2.500 . S
Nd41 O67 2.492 . S
Nd41 O68 2.487 . S
Nd41 O69 2.682 . S
Nd41 O70 2.410 . S
C42 Nd40 2.836 . S
C42 C43 1.498 . S
C42 O60 1.258 . S
C42 O61 1.239 . S
C43 C42 1.498 . S
C43 C44 1.366 1_545 S
C43 C48 1.407 . S
C44 C43 1.366 1_565 S
C44 C45 1.393 . S
C44 H72 0.929 . S
C45 C44 1.393 . S
C45 C46 1.398 . S
C45 H73 0.929 . S
C46 C45 1.398 . S
C46 C47 1.352 1_565 S
C47 C46 1.352 1_545 S
C47 C48 1.384 . S
C47 H74 0.930 . S
C48 C43 1.407 . S
C48 C47 1.384 . S
C48 H75 0.929 . S
C49 O62 1.241 . S
C49 O63 1.273 . S
C50 O64 1.251 . S
C50 O65 1.268 . S
C51 Nd41 2.836 . S
C51 C52 1.498 . S
C51 O66 1.258 . S
C51 O67 1.239 . S
C52 C51 1.498 . S
C52 C53 1.366 . S
C52 C57 1.407 . S
C53 C52 1.366 . S
C53 C54 1.392 . S
C53 H76 0.930 . S
C54 C53 1.392 . S
C54 C55 1.398 . S
C54 H77 0.929 . S
C55 C54 1.398 . S
C55 C56 1.352 . S
C56 C55 1.352 . S
C56 C57 1.384 . S
C56 H78 0.930 . S
C57 C52 1.407 . S
C57 C56 1.384 . S
C57 H79 0.929 . S
C58 O68 1.241 . S
C58 O69 1.273 . S
C59 O70 1.251 . S
C59 O71 1.268 . S
O60 Nd40 2.500 . S
O60 C42 1.258 . S
O61 Nd40 2.492 . S
O61 C42 1.239 . S
O62 Nd40 2.487 . S
O62 C49 1.241 . S
O63 Nd40 2.682 . S
O63 Nd41 2.414 . S
O63 C49 1.273 . S
O64 Nd40 2.410 . S
O64 C50 1.251 . S
O65 Nd41 2.424 . S
O65 C50 1.268 . S
O66 Nd41 2.500 . S
O66 C51 1.258 . S
O67 Nd41 2.492 . S
O67 C51 1.239 . S
O68 Nd41 2.487 . S
O68 C58 1.241 . S
O69 Nd40 2.414 . S
O69 Nd41 2.682 . S
O69 C58 1.273 . S
O70 Nd41 2.410 . S
O70 C59 1.251 . S
O71 Nd40 2.424 . S
O71 C59 1.268 . S
H72 C44 0.929 . S
H73 C45 0.929 . S
H74 C47 0.930 . S
H75 C48 0.929 . S
H76 C53 0.930 . S
H77 C54 0.929 . S
H78 C56 0.930 . S
H79 C57 0.929 . S
Nd80 C82 2.836 . S
Nd80 O100 2.500 . S
Nd80 O101 2.492 . S
Nd80 O102 2.487 . S
Nd80 O103 2.682 . S
Nd80 O104 2.410 . S
Nd80 O109 2.414 . S
Nd80 O111 2.424 . S
Nd81 C91 2.836 . S
Nd81 O103 2.414 . S
Nd81 O105 2.424 . S
Nd81 O106 2.500 . S
Nd81 O107 2.492 . S
Nd81 O108 2.487 . S
Nd81 O109 2.682 . S
Nd81 O110 2.410 . S
C82 Nd80 2.836 . S
C82 C83 1.498 . S
C82 O100 1.258 . S
C82 O101 1.239 . S
C83 C82 1.498 . S
C83 C84 1.366 . S
C83 C88 1.407 . S
C84 C83 1.366 . S
C84 C85 1.392 . S
C84 H112 0.930 . S
C85 C84 1.392 . S
C85 C86 1.398 . S
C85 H113 0.929 . S
C86 C85 1.398 . S
C86 C87 1.352 . S
C87 C86 1.352 . S
C87 C88 1.384 . S
C87 H114 0.930 . S
C88 C83 1.407 . S
C88 C87 1.384 . S
C88 H115 0.929 . S
C89 O102 1.241 . S
C89 O103 1.273 . S
C90 O104 1.251 . S
C90 O105 1.268 . S
C91 Nd81 2.836 . S
C91 C92 1.498 . S
C91 O106 1.258 . S
C91 O107 1.239 . S
C92 C91 1.498 . S
C92 C93 1.366 . S
C92 C97 1.407 . S
C93 C92 1.366 . S
C93 C94 1.392 . S
C93 H116 0.930 . S
C94 C93 1.392 . S
C94 C95 1.398 . S
C94 H117 0.929 . S
C95 C94 1.398 . S
C95 C96 1.352 . S
C96 C95 1.352 . S
C96 C97 1.384 . S
C96 H118 0.930 . S
C97 C92 1.407 . S
C97 C96 1.384 . S
C97 H119 0.929 . S
C98 O108 1.241 . S
C98 O109 1.273 . S
C99 O110 1.251 . S
C99 O111 1.268 . S
O100 Nd80 2.500 . S
O100 C82 1.258 . S
O101 Nd80 2.492 . S
O101 C82 1.239 . S
O102 Nd80 2.487 . S
O102 C89 1.241 . S
O103 Nd80 2.682 . S
O103 Nd81 2.414 . S
O103 C89 1.273 . S
O104 Nd80 2.410 . S
O104 C90 1.251 . S
O105 Nd81 2.424 . S
O105 C90 1.268 . S
O106 Nd81 2.500 . S
O106 C91 1.258 . S
O107 Nd81 2.492 . S
O107 C91 1.239 . S
O108 Nd81 2.487 . S
O108 C98 1.241 . S
O109 Nd80 2.414 . S
O109 Nd81 2.682 . S
O109 C98 1.273 . S
O110 Nd81 2.410 . S
O110 C99 1.251 . S
O111 Nd80 2.424 . S
O111 C99 1.268 . S
H112 C84 0.930 . S
H113 C85 0.929 . S
H114 C87 0.930 . S
H115 C88 0.929 . S
H116 C93 0.930 . S
H117 C94 0.929 . S
H118 C96 0.930 . S
H119 C97 0.929 . S
Nd120 C122 2.836 . S
Nd120 O140 2.500 . S
Nd120 O141 2.492 . S
Nd120 O142 2.487 . S
Nd120 O143 2.682 . S
Nd120 O144 2.410 . S
Nd120 O149 2.414 . S
Nd120 O151 2.424 . S
Nd121 C131 2.836 1_554 S
Nd121 O143 2.414 . S
Nd121 O145 2.424 . S
Nd121 O146 2.500 1_554 S
Nd121 O147 2.492 1_554 S
Nd121 O148 2.487 . S
Nd121 O149 2.682 . S
Nd121 O150 2.410 1_554 S
C122 Nd120 2.836 . S
C122 C123 1.498 . S
C122 O140 1.258 . S
C122 O141 1.239 . S
C123 C122 1.498 . S
C123 C124 1.364 1_655 S
C123 C128 1.407 . S
C124 C123 1.364 1_455 S
C124 C125 1.393 . S
C124 H152 0.932 . S
C125 C124 1.393 . S
C125 C126 1.398 . S
C125 H153 0.929 . S
C126 C125 1.398 . S
C126 C127 1.352 1_455 S
C127 C126 1.352 1_655 S
C127 C128 1.384 . S
C127 H154 0.930 . S
C128 C123 1.407 . S
C128 C127 1.384 . S
C128 H155 0.929 . S
C129 O142 1.241 . S
C129 O143 1.273 . S
C130 O144 1.251 . S
C130 O145 1.268 . S
C131 Nd121 2.836 1_556 S
C131 C132 1.498 . S
C131 O146 1.258 . S
C131 O147 1.239 . S
C132 C131 1.498 . S
C132 C133 1.366 . S
C132 C137 1.407 . S
C133 C132 1.366 . S
C133 C134 1.392 . S
C133 H156 0.930 . S
C134 C133 1.392 . S
C134 C135 1.398 . S
C134 H157 0.929 . S
C135 C134 1.398 . S
C135 C136 1.352 . S
C136 C135 1.352 . S
C136 C137 1.384 . S
C136 H158 0.930 . S
C137 C132 1.407 . S
C137 C136 1.384 . S
C137 H159 0.929 . S
C138 O148 1.241 . S
C138 O149 1.273 . S
C139 O150 1.251 . S
C139 O151 1.268 1_556 S
O140 Nd120 2.500 . S
O140 C122 1.258 . S
O141 Nd120 2.492 . S
O141 C122 1.239 . S
O142 Nd120 2.487 . S
O142 C129 1.241 . S
O143 Nd120 2.682 . S
O143 Nd121 2.414 . S
O143 C129 1.273 . S
O144 Nd120 2.410 . S
O144 C130 1.251 . S
O145 Nd121 2.424 . S
O145 C130 1.268 . S
O146 Nd121 2.500 1_556 S
O146 C131 1.258 . S
O147 Nd121 2.492 1_556 S
O147 C131 1.239 . S
O148 Nd121 2.487 . S
O148 C138 1.241 . S
O149 Nd120 2.414 . S
O149 Nd121 2.682 . S
O149 C138 1.273 . S
O150 Nd121 2.410 1_556 S
O150 C139 1.251 . S
O151 Nd120 2.424 . S
O151 C139 1.268 1_554 S
H152 C124 0.932 . S
H153 C125 0.929 . S
H154 C127 0.930 . S
H155 C128 0.929 . S
H156 C133 0.930 . S
H157 C134 0.929 . S
H158 C136 0.930 . S
H159 C137 0.929 . S
Nd160 C162 2.836 . S
Nd160 O180 2.500 . S
Nd160 O181 2.492 . S
Nd160 O182 2.487 . S
Nd160 O183 2.682 . S
Nd160 O184 2.410 . S
Nd160 O189 2.414 . S
Nd160 O191 2.424 . S
Nd161 C171 2.836 . S
Nd161 O183 2.414 . S
Nd161 O185 2.424 . S
Nd161 O186 2.500 . S
Nd161 O187 2.492 . S
Nd161 O188 2.487 . S
Nd161 O189 2.682 . S
Nd161 O190 2.410 . S
C162 Nd160 2.836 . S
C162 C163 1.498 . S
C162 O180 1.258 . S
C162 O181 1.239 . S
C163 C162 1.498 . S
C163 C164 1.366 1_565 S
C163 C168 1.407 . S
C164 C163 1.366 1_545 S
C164 C165 1.393 . S
C164 H192 0.929 . S
C165 C164 1.393 . S
C165 C166 1.398 . S
C165 H193 0.929 . S
C166 C165 1.398 . S
C166 C167 1.352 1_545 S
C167 C166 1.352 1_565 S
C167 C168 1.384 . S
C167 H194 0.930 . S
C168 C163 1.407 . S
C168 C167 1.384 . S
C168 H195 0.929 . S
C169 O182 1.241 . S
C169 O183 1.273 . S
C170 O184 1.251 . S
C170 O185 1.268 . S
C171 Nd161 2.836 . S
C171 C172 1.498 . S
C171 O186 1.258 . S
C171 O187 1.239 . S
C172 C171 1.498 . S
C172 C173 1.366 . S
C172 C177 1.407 . S
C173 C172 1.366 . S
C173 C174 1.392 . S
C173 H196 0.930 . S
C174 C173 1.392 . S
C174 C175 1.398 . S
C174 H197 0.929 . S
C175 C174 1.398 . S
C175 C176 1.352 . S
C176 C175 1.352 . S
C176 C177 1.384 . S
C176 H198 0.930 . S
C177 C172 1.407 . S
C177 C176 1.384 . S
C177 H199 0.929 . S
C178 O188 1.241 . S
C178 O189 1.273 . S
C179 O190 1.251 . S
C179 O191 1.268 . S
O180 Nd160 2.500 . S
O180 C162 1.258 . S
O181 Nd160 2.492 . S
O181 C162 1.239 . S
O182 Nd160 2.487 . S
O182 C169 1.241 . S
O183 Nd160 2.682 . S
O183 Nd161 2.414 . S
O183 C169 1.273 . S
O184 Nd160 2.410 . S
O184 C170 1.251 . S
O185 Nd161 2.424 . S
O185 C170 1.268 . S
O186 Nd161 2.500 . S
O186 C171 1.258 . S
O187 Nd161 2.492 . S
O187 C171 1.239 . S
O188 Nd161 2.487 . S
O188 C178 1.241 . S
O189 Nd160 2.414 . S
O189 Nd161 2.682 . S
O189 C178 1.273 . S
O190 Nd161 2.410 . S
O190 C179 1.251 . S
O191 Nd160 2.424 . S
O191 C179 1.268 . S
H192 C164 0.929 . S
H193 C165 0.929 . S
H194 C167 0.930 . S
H195 C168 0.929 . S
H196 C173 0.930 . S
H197 C174 0.929 . S
H198 C176 0.930 . S
H199 C177 0.929 . S
Nd200 C202 2.836 . S
Nd200 O220 2.500 . S
Nd200 O221 2.492 . S
Nd200 O222 2.487 . S
Nd200 O223 2.682 . S
Nd200 O224 2.410 . S
Nd200 O229 2.414 . S
Nd200 O231 2.424 . S
Nd201 C211 2.836 . S
Nd201 O223 2.414 . S
Nd201 O225 2.424 . S
Nd201 O226 2.500 . S
Nd201 O227 2.492 . S
Nd201 O228 2.487 . S
Nd201 O229 2.682 . S
Nd201 O230 2.410 . S
C202 Nd200 2.836 . S
C202 C203 1.498 . S
C202 O220 1.258 . S
C202 O221 1.239 . S
C203 C202 1.498 . S
C203 C204 1.366 . S
C203 C208 1.407 . S
C204 C203 1.366 . S
C204 C205 1.392 . S
C204 H232 0.930 . S
C205 C204 1.392 . S
C205 C206 1.398 . S
C205 H233 0.929 . S
C206 C205 1.398 . S
C206 C207 1.352 . S
C207 C206 1.352 . S
C207 C208 1.384 . S
C207 H234 0.930 . S
C208 C203 1.407 . S
C208 C207 1.384 . S
C208 H235 0.929 . S
C209 O222 1.241 . S
C209 O223 1.273 . S
C210 O224 1.251 . S
C210 O225 1.268 . S
C211 Nd201 2.836 . S
C211 C212 1.498 . S
C211 O226 1.258 . S
C211 O227 1.239 . S
C212 C211 1.498 . S
C212 C213 1.366 . S
C212 C217 1.407 . S
C213 C212 1.366 . S
C213 C214 1.392 . S
C213 H236 0.930 . S
C214 C213 1.392 . S
C214 C215 1.398 . S
C214 H237 0.929 . S
C215 C214 1.398 . S
C215 C216 1.352 . S
C216 C215 1.352 . S
C216 C217 1.384 . S
C216 H238 0.930 . S
C217 C212 1.407 . S
C217 C216 1.384 . S
C217 H239 0.929 . S
C218 O228 1.241 . S
C218 O229 1.273 . S
C219 O230 1.251 . S
C219 O231 1.268 . S
O220 Nd200 2.500 . S
O220 C202 1.258 . S
O221 Nd200 2.492 . S
O221 C202 1.239 . S
O222 Nd200 2.487 . S
O222 C209 1.241 . S
O223 Nd200 2.682 . S
O223 Nd201 2.414 . S
O223 C209 1.273 . S
O224 Nd200 2.410 . S
O224 C210 1.251 . S
O225 Nd201 2.424 . S
O225 C210 1.268 . S
O226 Nd201 2.500 . S
O226 C211 1.258 . S
O227 Nd201 2.492 . S
O227 C211 1.239 . S
O228 Nd201 2.487 . S
O228 C218 1.241 . S
O229 Nd200 2.414 . S
O229 Nd201 2.682 . S
O229 C218 1.273 . S
O230 Nd201 2.410 . S
O230 C219 1.251 . S
O231 Nd200 2.424 . S
O231 C219 1.268 . S
H232 C204 0.930 . S
H233 C205 0.929 . S
H234 C207 0.930 . S
H235 C208 0.929 . S
H236 C213 0.930 . S
H237 C214 0.929 . S
H238 C216 0.930 . S
H239 C217 0.929 . S
C240 C241 1.387 . S
C240 H244 0.950 . S
C240 C249 1.390 . S
C241 C240 1.387 . S
C241 C243 1.387 . S
H242 C249 0.950 . S
C243 C241 1.387 . S
C243 C245 1.390 . S
C243 H247 0.950 . S
H244 C240 0.950 . S
C245 C243 1.390 . S
C245 C246 1.387 . S
C245 H248 0.950 . S
C246 C245 1.387 . S
C246 C249 1.387 . S
H247 C243 0.950 . S
H248 C245 0.950 . S
C249 C240 1.390 . S
C249 H242 0.950 . S
C249 C246 1.387 . S
C250 C251 1.387 . S
C250 H254 0.950 . S
C250 C259 1.390 . S
C251 C250 1.387 . S
C251 C253 1.387 . S
H252 C259 0.950 . S
C253 C251 1.387 . S
C253 C255 1.390 . S
C253 H257 0.950 . S
H254 C250 0.950 . S
C255 C253 1.390 . S
C255 C256 1.387 . S
C255 H258 0.950 . S
C256 C255 1.387 . S
C256 C259 1.387 . S
H257 C253 0.950 . S
H258 C255 0.950 . S
C259 C250 1.390 . S
C259 H252 0.950 . S
C259 C256 1.387 . S
C260 C261 1.387 . S
C260 H264 0.950 . S
C260 C269 1.390 . S
C261 C260 1.387 . S
C261 C263 1.387 . S
H262 C269 0.950 . S
C263 C261 1.387 . S
C263 C265 1.390 . S
C263 H267 0.950 . S
H264 C260 0.950 . S
C265 C263 1.390 . S
C265 C266 1.387 . S
C265 H268 0.950 . S
C266 C265 1.387 . S
C266 C269 1.387 . S
H267 C263 0.950 . S
H268 C265 0.950 . S
C269 C260 1.390 . S
C269 H262 0.950 . S
C269 C266 1.387 . S
C270 C271 1.387 . S
C270 H274 0.950 . S
C270 C279 1.390 . S
C271 C270 1.387 . S
C271 C273 1.387 . S
H272 C279 0.950 . S
C273 C271 1.387 . S
C273 C275 1.390 . S
C273 H277 0.950 . S
H274 C270 0.950 . S
C275 C273 1.390 . S
C275 C276 1.387 . S
C275 H278 0.950 . S
C276 C275 1.387 . S
C276 C279 1.387 . S
H277 C273 0.950 . S
H278 C275 0.950 . S
C279 C270 1.390 . S
C279 H272 0.950 . S
C279 C276 1.387 . S
C280 C281 1.387 . S
C280 H284 0.950 . S
C280 C289 1.390 . S
C281 C280 1.387 . S
C281 C283 1.387 . S
H282 C289 0.950 . S
C283 C281 1.387 . S
C283 C285 1.390 . S
C283 H287 0.950 . S
H284 C280 0.950 . S
C285 C283 1.390 . S
C285 C286 1.387 . S
C285 H288 0.950 . S
C286 C285 1.387 . S
C286 C289 1.387 . S
H287 C283 0.950 . S
H288 C285 0.950 . S
C289 C280 1.390 . S
C289 H282 0.950 . S
C289 C286 1.387 . S
C290 C291 1.387 . S
C290 H294 0.950 . S
C290 C299 1.390 . S
C291 C290 1.387 . S
C291 C293 1.387 . S
H292 C299 0.950 . S
C293 C291 1.387 . S
C293 C295 1.390 . S
C293 H297 0.950 . S
H294 C290 0.950 . S
C295 C293 1.390 . S
C295 C296 1.387 . S
C295 H298 0.950 . S
C296 C295 1.387 . S
C296 C299 1.387 . S
H297 C293 0.950 . S
H298 C295 0.950 . S
C299 C290 1.390 . S
C299 H292 0.950 . S
C299 C296 1.387 . S
C300 C301 1.387 . S
C300 H304 0.950 . S
C300 C309 1.390 . S
C301 C300 1.387 . S
C301 C303 1.387 . S
H302 C309 0.950 . S
C303 C301 1.387 . S
C303 C305 1.390 . S
C303 H307 0.950 . S
H304 C300 0.950 . S
C305 C303 1.390 . S
C305 C306 1.387 . S
C305 H308 0.950 . S
C306 C305 1.387 . S
C306 C309 1.387 . S
H307 C303 0.950 . S
H308 C305 0.950 . S
C309 C300 1.390 . S
C309 H302 0.950 . S
C309 C306 1.387 . S
C310 C311 1.387 . S
C310 H314 0.950 . S
C310 C319 1.390 1_455 S
C311 C310 1.387 . S
C311 C313 1.387 . S
H312 C319 0.950 . S
C313 C311 1.387 . S
C313 C315 1.390 1_455 S
C313 H317 0.950 . S
H314 C310 0.950 . S
C315 C313 1.390 1_655 S
C315 C316 1.387 . S
C315 H318 0.950 . S
C316 C315 1.387 . S
C316 C319 1.387 . S
H317 C313 0.950 . S
H318 C315 0.950 . S
C319 C310 1.390 1_655 S
C319 H312 0.950 . S
C319 C316 1.387 . S
C320 C321 1.387 . S
C320 H324 0.950 . S
C320 C329 1.390 1_545 S
C321 C320 1.387 . S
C321 C323 1.387 . S
H322 C329 0.950 . S
C323 C321 1.387 . S
C323 C325 1.390 1_545 S
C323 H327 0.950 . S
H324 C320 0.950 . S
C325 C323 1.390 1_565 S
C325 C326 1.387 . S
C325 H328 0.950 . S
C326 C325 1.387 . S
C326 C329 1.387 . S
H327 C323 0.950 . S
H328 C325 0.950 . S
C329 C320 1.390 1_565 S
C329 H322 0.950 . S
C329 C326 1.387 . S
C330 C331 1.387 . S
C330 H334 0.950 . S
C330 C339 1.390 . S
C331 C330 1.387 . S
C331 C333 1.387 . S
H332 C339 0.950 . S
C333 C331 1.387 . S
C333 C335 1.390 . S
C333 H337 0.950 . S
H334 C330 0.950 . S
C335 C333 1.390 . S
C335 C336 1.387 . S
C335 H338 0.950 . S
C336 C335 1.387 . S
C336 C339 1.387 . S
H337 C333 0.950 . S
H338 C335 0.950 . S
C339 C330 1.390 . S
C339 H332 0.950 . S
C339 C336 1.387 . S
C340 C341 1.387 . S
C340 H344 0.950 . S
C340 C349 1.390 1_455 S
C341 C340 1.387 . S
C341 C343 1.387 . S
H342 C349 0.950 . S
C343 C341 1.387 . S
C343 C345 1.390 1_455 S
C343 H347 0.950 1_554 S
H344 C340 0.950 . S
C345 C343 1.390 1_655 S
C345 C346 1.387 . S
C345 H348 0.950 1_554 S
C346 C345 1.387 . S
C346 C349 1.387 . S
H347 C343 0.950 1_556 S
H348 C345 0.950 1_556 S
C349 C340 1.390 1_655 S
C349 H342 0.950 . S
C349 C346 1.387 . S
C350 C351 1.387 . S
C350 H354 0.950 . S
C350 C359 1.390 1_565 S
C351 C350 1.387 . S
C351 C353 1.387 . S
H352 C359 0.950 . S
C353 C351 1.387 . S
C353 C355 1.390 1_565 S
C353 H357 0.950 . S
H354 C350 0.950 . S
C355 C353 1.390 1_545 S
C355 C356 1.387 . S
C355 H358 0.950 . S
C356 C355 1.387 . S
C356 C359 1.387 . S
H357 C353 0.950 . S
H358 C355 0.950 . S
C359 C350 1.390 1_545 S
C359 H352 0.950 . S
C359 C356 1.387 . S
C360 C361 1.387 . S
C360 H364 0.950 . S
C360 C369 1.390 . S
C361 C360 1.387 . S
C361 C363 1.387 . S
H362 C369 0.950 . S
C363 C361 1.387 . S
C363 C365 1.390 . S
C363 H367 0.950 . S
H364 C360 0.950 . S
C365 C363 1.390 . S
C365 C366 1.387 . S
C365 H368 0.950 . S
C366 C365 1.387 . S
C366 C369 1.387 . S
H367 C363 0.950 . S
H368 C365 0.950 . S
C369 C360 1.390 . S
C369 H362 0.950 . S
C369 C366 1.387 . S
C370 C371 1.387 . S
C370 H374 0.950 . S
C370 C379 1.390 . S
C371 C370 1.387 . S
C371 C373 1.387 . S
H372 C379 0.950 . S
C373 C371 1.387 . S
C373 C375 1.390 . S
C373 H377 0.950 . S
H374 C370 0.950 . S
C375 C373 1.390 . S
C375 C376 1.387 . S
C375 H378 0.950 . S
C376 C375 1.387 . S
C376 C379 1.387 . S
H377 C373 0.950 . S
H378 C375 0.950 . S
C379 C370 1.390 . S
C379 H372 0.950 . S
C379 C376 1.387 . S
C380 C381 1.387 . S
C380 H384 0.950 . S
C380 C389 1.390 . S
C381 C380 1.387 . S
C381 C383 1.387 . S
H382 C389 0.950 1_545 S
C383 C381 1.387 . S
C383 C385 1.390 . S
C383 H387 0.950 . S
H384 C380 0.950 . S
C385 C383 1.390 . S
C385 C386 1.387 . S
C385 H388 0.950 . S
C386 C385 1.387 . S
C386 C389 1.387 . S
H387 C383 0.950 . S
H388 C385 0.950 . S
C389 C380 1.390 . S
C389 H382 0.950 1_565 S
C389 C386 1.387 . S
C390 C391 1.387 . S
C390 H394 0.950 . S
C390 C399 1.390 . S
C391 C390 1.387 . S
C391 C393 1.387 . S
H392 C399 0.950 . S
C393 C391 1.387 . S
C393 C395 1.390 . S
C393 H397 0.950 . S
H394 C390 0.950 . S
C395 C393 1.390 . S
C395 C396 1.387 . S
C395 H398 0.950 . S
C396 C395 1.387 . S
C396 C399 1.387 . S
H397 C393 0.950 . S
H398 C395 0.950 . S
C399 C390 1.390 . S
C399 H392 0.950 . S
C399 C396 1.387 . S
C400 C401 1.387 . S
C400 H404 0.950 . S
C400 C409 1.390 . S
C401 C400 1.387 . S
C401 C403 1.387 . S
H402 C409 0.950 . S
C403 C401 1.387 . S
C403 C405 1.390 . S
C403 H407 0.950 . S
H404 C400 0.950 . S
C405 C403 1.390 . S
C405 C406 1.387 . S
C405 H408 0.950 1_455 S
C406 C405 1.387 . S
C406 C409 1.387 . S
H407 C403 0.950 . S
H408 C405 0.950 1_655 S
C409 C400 1.390 . S
C409 H402 0.950 . S
C409 C406 1.387 . S
C410 C411 1.387 . S
C410 H414 0.950 . S
C410 C419 1.390 . S
C411 C410 1.387 . S
C411 C413 1.387 . S
H412 C419 0.950 . S
C413 C411 1.387 . S
C413 C415 1.390 1_545 S
C413 H417 0.950 1_545 S
H414 C410 0.950 . S
C415 C413 1.390 1_565 S
C415 C416 1.387 1_565 S
C415 H418 0.950 . S
C416 C415 1.387 1_545 S
C416 C419 1.387 . S
H417 C413 0.950 1_565 S
H418 C415 0.950 . S
C419 C410 1.390 . S
C419 H412 0.950 . S
C419 C416 1.387 . S
C241 C175 1.249 . S
C246 C10 1.235 . S
C251 C215 1.249 . S
C256 C50 1.236 . S
C261 C15 1.248 . S
C266 C90 1.235 . S
C271 C55 1.249 . S
C276 C130 1.235 . S
C281 C95 1.249 . S
C286 C170 1.236 . S
C291 C135 1.249 . S
C296 C210 1.236 . S
C301 C9 1.548 . S
C306 C129 1.548 . S
C311 C169 1.546 . S
C316 C49 1.546 . S
C321 C209 1.548 . S
C326 C89 1.548 . S
C331 C98 1.300 . S
C336 C218 1.300 . S
C341 C18 1.305 . S
C346 C138 1.305 . S
C351 C178 1.305 . S
C356 C58 1.305 . S
C361 C206 1.427 . S
C366 C19 1.472 . S
C371 C59 1.471 . S
C376 C6 1.425 . S
C381 C99 1.473 . S
C386 C46 1.427 . S
C391 C86 1.428 . S
C396 C139 1.473 . S
C401 C179 1.471 . S
C406 C126 1.425 . S
C411 C219 1.471 . S
C416 C166 1.424 . S
