# Generated by pormake.
# Topology afw, (4)-cn, num edge types: 1
# Building blocks:
#     Node 0, Type 0, BuildingBlock: QUQFOY_clean_sbu_1, # of connection points: 4
#     Node 1, Type 0, BuildingBlock: QUQFOY_clean_sbu_1, # of connection points: 4
#     Node 2, Type 0, BuildingBlock: QUQFOY_clean_sbu_1, # of connection points: 4
#     Node 3, Type 0, BuildingBlock: QUQFOY_clean_sbu_1, # of connection points: 4
#     Node 4, Type 0, BuildingBlock: QUQFOY_clean_sbu_1, # of connection points: 4
#     Node 5, Type 0, BuildingBlock: QUQFOY_clean_sbu_1, # of connection points: 4
#     Node 6, Type 0, BuildingBlock: QUQFOY_clean_sbu_1, # of connection points: 4
#     Node 7, Type 0, BuildingBlock: QUQFOY_clean_sbu_1, # of connection points: 4
#     Node 8, Type 0, BuildingBlock: QUQFOY_clean_sbu_1, # of connection points: 4
#     Edge 9, Type (0, 0), BuildingBlock: UVAHIK_clean_linker_0, # of connection points: 2
#     Edge 10, Type (0, 0), BuildingBlock: UVAHIK_clean_linker_0, # of connection points: 2
#     Edge 11, Type (0, 0), BuildingBlock: UVAHIK_clean_linker_0, # of connection points: 2
#     Edge 12, Type (0, 0), BuildingBlock: UVAHIK_clean_linker_0, # of connection points: 2
#     Edge 13, Type (0, 0), BuildingBlock: UVAHIK_clean_linker_0, # of connection points: 2
#     Edge 14, Type (0, 0), BuildingBlock: UVAHIK_clean_linker_0, # of connection points: 2
#     Edge 15, Type (0, 0), BuildingBlock: UVAHIK_clean_linker_0, # of connection points: 2
#     Edge 16, Type (0, 0), BuildingBlock: UVAHIK_clean_linker_0, # of connection points: 2
#     Edge 17, Type (0, 0), BuildingBlock: UVAHIK_clean_linker_0, # of connection points: 2
#     Edge 18, Type (0, 0), BuildingBlock: UVAHIK_clean_linker_0, # of connection points: 2
#     Edge 19, Type (0, 0), BuildingBlock: UVAHIK_clean_linker_0, # of connection points: 2
#     Edge 20, Type (0, 0), BuildingBlock: UVAHIK_clean_linker_0, # of connection points: 2
#     Edge 21, Type (0, 0), BuildingBlock: UVAHIK_clean_linker_0, # of connection points: 2
#     Edge 22, Type (0, 0), BuildingBlock: UVAHIK_clean_linker_0, # of connection points: 2
#     Edge 23, Type (0, 0), BuildingBlock: UVAHIK_clean_linker_0, # of connection points: 2
#     Edge 24, Type (0, 0), BuildingBlock: UVAHIK_clean_linker_0, # of connection points: 2
#     Edge 25, Type (0, 0), BuildingBlock: UVAHIK_clean_linker_0, # of connection points: 2
#     Edge 26, Type (0, 0), BuildingBlock: UVAHIK_clean_linker_0, # of connection points: 2
# Relax obj value: 0.129
# Max RMSD: 0.151
# Mean RMSD: 0.151
data_MOF--net-afw--node1-QUQFOY_clean_sbu_1--edge1-UVAHIK_clean_linker_0
_symmetry_space_group_name_H-M    P1
_symmetry_Int_Tables_number       1
_symmetry_cell_setting            triclinic
loop_
_symmetry_equiv_pos_as_xyz
'x, y, z'
_cell_length_a     55.087279
_cell_length_b     55.093896
_cell_length_c     48.106176
_cell_angle_alpha  89.988396
_cell_angle_beta   90.013977
_cell_angle_gamma 120.05623
loop_
_atom_site_label
_atom_site_type_symbol
_atom_site_fract_x
_atom_site_fract_y
_atom_site_fract_z
_atom_type_partial_charge
O0 O 0.04608 0.20653 0.98679 0.0
Cd1 Cd 0.0106 0.21004 0.98388 0.0
Cd2 Cd 0.01424 0.2117 0.04022 0.0
O3 O 0.0514 0.21233 0.0322 0.0
O4 O 0.00848 0.2204 0.94464 0.0
O5 O 0.01608 0.24886 0.98025 0.0
C6 C 0.01343 0.24445 0.95375 0.0
C7 C 0.01324 0.2422 0.07339 0.0
C8 C 0.05984 0.20872 0.00878 0.0
C9 C 0.96396 0.1621 0.01472 0.0
O10 O 0.97784 0.17346 0.0367 0.0
O11 O 0.97268 0.17407 0.99131 0.0
O12 O 0.0163 0.22131 0.08039 0.0
O13 O 0.01144 0.24633 0.04721 0.0
O14 O 0.85556 0.82148 0.03459 0.0
Cd15 Cd 0.81724 0.81871 0.04141 0.0
Cd16 Cd 0.81661 0.81993 0.98469 0.0
O17 O 0.85322 0.81859 0.98887 0.0
O18 O 0.80883 0.80817 0.08132 0.0
O19 O 0.7828 0.7808 0.047 0.0
C20 C 0.78761 0.78483 0.07338 0.0
C21 C 0.78299 0.79021 0.95256 0.0
C22 C 0.86613 0.82057 0.0114 0.0
C23 C 0.81796 0.86843 0.01501 0.0
O24 O 0.81912 0.85812 0.99174 0.0
O25 O 0.81581 0.85528 0.03743 0.0
O26 O 0.80626 0.8116 0.94473 0.0
O27 O 0.77887 0.78533 0.97892 0.0
O28 O 0.1718 0.97927 0.98976 0.0
Cd29 Cd 0.21025 0.0152 0.9847 0.0
Cd30 Cd 0.20752 0.01529 0.04149 0.0
O31 O 0.17107 0.9775 0.03556 0.0
O32 O 0.21869 0.01475 0.94452 0.0
O33 O 0.2446 0.01174 0.97791 0.0
C34 C 0.23977 0.01212 0.95168 0.0
C35 C 0.24085 0.01875 0.07363 0.0
C36 C 0.15971 0.96715 0.01226 0.0
C37 C 0.20785 0.0633 0.01159 0.0
O38 O 0.20526 0.05109 0.03473 0.0
O39 O 0.2114 0.05304 0.98933 0.0
O40 O 0.21738 0.01638 0.08148 0.0
O41 O 0.24522 0.01854 0.04725 0.0
O42 O 0.64444 0.50608 0.3704 0.0
Cd43 Cd 0.68072 0.5442 0.37505 0.0
Cd44 Cd 0.67927 0.54303 0.31819 0.0
O45 O 0.64166 0.50642 0.32468 0.0
O46 O 0.6808 0.55426 0.41482 0.0
O47 O 0.67804 0.57909 0.38011 0.0
C48 C 0.6784 0.57522 0.40657 0.0
C49 C 0.68173 0.57504 0.28482 0.0
C50 C 0.63179 0.49454 0.34792 0.0
C51 C 0.7279 0.54222 0.3461 0.0
O52 O 0.71536 0.54096 0.3235 0.0
O53 O 0.71809 0.54464 0.3692 0.0
O54 O 0.67896 0.5512 0.2779 0.0
O55 O 0.68249 0.58062 0.311 0.0
O56 O 0.52395 0.15424 0.36763 0.0
Cd57 Cd 0.48565 0.15154 0.3744 0.0
Cd58 Cd 0.48461 0.15205 0.31754 0.0
O59 O 0.52098 0.15029 0.32199 0.0
O60 O 0.47719 0.14123 0.41433 0.0
O61 O 0.45123 0.11367 0.38009 0.0
C62 C 0.456 0.11784 0.40646 0.0
C63 C 0.45169 0.12326 0.28438 0.0
C64 C 0.53418 0.15272 0.34445 0.0
C65 C 0.48633 0.20096 0.34744 0.0
O66 O 0.48754 0.19046 0.32431 0.0
O67 O 0.48408 0.18799 0.37001 0.0
O68 O 0.47543 0.14445 0.27731 0.0
O69 O 0.44664 0.11799 0.31058 0.0
O70 O 0.87148 0.38141 0.36839 0.0
Cd71 Cd 0.87517 0.34618 0.37324 0.0
Cd72 Cd 0.87754 0.3479 0.3169 0.0
O73 O 0.87825 0.38538 0.32304 0.0
O74 O 0.88518 0.34523 0.41287 0.0
O75 O 0.91391 0.35163 0.37783 0.0
C76 C 0.90922 0.34967 0.40428 0.0
C77 C 0.9086 0.34582 0.28519 0.0
C78 C 0.87412 0.3945 0.3458 0.0
C79 C 0.82763 0.29848 0.34315 0.0
O80 O 0.8392 0.31162 0.32088 0.0
O81 O 0.83937 0.30802 0.36649 0.0
O82 O 0.88773 0.34842 0.27707 0.0
O83 O 0.91236 0.34509 0.31163 0.0
O84 O 0.38169 0.87252 0.65804 0.0
Cd85 Cd 0.34617 0.87538 0.65136 0.0
Cd86 Cd 0.34462 0.87409 0.70827 0.0
O87 O 0.38255 0.87549 0.70377 0.0
O88 O 0.34762 0.88429 0.61108 0.0
O89 O 0.34998 0.91324 0.64415 0.0
C90 C 0.35012 0.90802 0.61798 0.0
C91 C 0.34094 0.90388 0.74038 0.0
C92 C 0.39333 0.87348 0.68115 0.0
C93 C 0.29719 0.82571 0.67819 0.0
O94 O 0.30887 0.83587 0.70143 0.0
O95 O 0.30805 0.83897 0.65578 0.0
O96 O 0.34289 0.88255 0.74822 0.0
O97 O 0.34152 0.90866 0.71401 0.0
O98 O 0.18887 0.48773 0.70277 0.0
Cd99 Cd 0.15009 0.48446 0.70728 0.0
Cd100 Cd 0.1493 0.48139 0.65112 0.0
O101 O 0.18525 0.47922 0.65773 0.0
O102 O 0.13905 0.47501 0.74699 0.0
O103 O 0.11657 0.44592 0.71221 0.0
C104 C 0.11931 0.4509 0.73862 0.0
C105 C 0.11516 0.45042 0.62024 0.0
C106 C 0.1988 0.48397 0.68038 0.0
C107 C 0.15112 0.53215 0.67626 0.0
O108 O 0.15301 0.52049 0.65421 0.0
O109 O 0.14808 0.52029 0.6997 0.0
O110 O 0.13932 0.46976 0.61159 0.0
O111 O 0.11045 0.44807 0.64668 0.0
O112 O 0.50373 0.64361 0.65561 0.0
Cd113 Cd 0.54176 0.67996 0.65042 0.0
Cd114 Cd 0.5416 0.67845 0.70756 0.0
O115 O 0.50491 0.64089 0.70129 0.0
O116 O 0.5505 0.68056 0.61017 0.0
O117 O 0.57647 0.67733 0.6434 0.0
C118 C 0.57177 0.67817 0.6172 0.0
C119 C 0.57375 0.68092 0.74077 0.0
C120 C 0.49261 0.631 0.67823 0.0
C121 C 0.5404 0.72713 0.68032 0.0
O122 O 0.53945 0.71452 0.70278 0.0
O123 O 0.54241 0.71734 0.65705 0.0
O124 O 0.54987 0.678 0.74779 0.0
O125 O 0.57928 0.68178 0.71456 0.0
C126 C 0.1975 0.09811 0.0343 0.0
C127 C 0.20377 0.08791 0.01017 0.0
C128 C 0.18937 0.11837 0.03247 0.0
C129 C 0.15392 0.14093 0.98361 0.0
H130 H 0.16999 0.19845 0.03866 0.0
C131 C 0.0949 0.202 0.98164 0.0
C132 C 0.08431 0.20443 0.00743 0.0
C133 C 0.1154 0.19417 0.98032 0.0
C134 C 0.16523 0.18243 0.02316 0.0
H135 H 0.20835 0.09253 0.96535 0.0
H136 H 0.19432 0.12796 0.96223 0.0
H137 H 0.19591 0.17315 0.03951 0.0
H138 H 0.0881 0.20201 0.05211 0.0
H139 H 0.12325 0.18773 0.04979 0.0
H140 H 0.1225 0.14913 0.96793 0.0
C141 C 0.19526 0.11993 0.98252 0.0
C142 C 0.18013 0.16799 0.02362 0.0
C143 C 0.20343 0.09971 0.98434 0.0
C144 C 0.09576 0.20031 0.03189 0.0
C145 C 0.1161 0.19227 0.03055 0.0
C146 C 0.13898 0.15522 0.98322 0.0
C147 C 0.18732 0.12886 0.00647 0.0
C148 C 0.17426 0.14672 0.00415 0.0
C149 C 0.12563 0.18835 0.00473 0.0
C150 C 0.14404 0.17578 1.0033 0.0
H151 H 0.19765 0.08958 0.05454 0.0
H152 H 0.18322 0.12465 0.0513 0.0
H153 H 0.14852 0.12435 0.96859 0.0
H154 H 0.08678 0.20534 0.9624 0.0
H155 H 0.12269 0.19194 0.96009 0.0
C156 C 0.82302 0.90972 0.04192 0.0
C157 C 0.822 0.89712 0.01619 0.0
C158 C 0.831 0.93809 0.04336 0.0
C159 C 0.84452 0.0004 1.00129 0.0
H160 H 0.90249 0.0407 0.0563 0.0
C161 C 0.92787 0.11765 0.99177 0.0
C162 C 0.93923 0.13345 0.01612 0.0
C163 C 0.90768 0.08918 0.9933 0.0
C164 C 0.88591 0.02987 0.04119 0.0
H165 H 0.82681 0.90412 0.97163 0.0
H166 H 0.84098 0.9536 0.97421 0.0
H167 H 0.87721 0.98986 0.05631 0.0
H168 H 0.93659 0.13226 0.06115 0.0
H169 H 0.90097 0.08282 0.06379 0.0
H170 H 0.85391 0.04064 0.98571 0.0
C171 C 0.83545 0.94153 0.99327 0.0
C172 C 0.87138 0.00061 0.04119 0.0
C173 C 0.82748 0.91315 0.99182 0.0
C174 C 0.92855 0.12062 0.04198 0.0
C175 C 0.90823 0.09222 0.0435 0.0
C176 C 0.85904 0.02976 1.00133 0.0
C177 C 0.83812 0.95453 0.01913 0.0
C178 C 0.85089 0.9855 0.02093 0.0
C179 C 0.89824 0.07591 0.01923 0.0
C180 C 0.8803 0.04485 0.02097 0.0
H181 H 0.8187 0.89796 0.0611 0.0
H182 H 0.83237 0.94737 0.06357 0.0
H183 H 0.82861 0.98937 0.98561 0.0
H184 H 0.93561 0.12686 0.9715 0.0
H185 H 0.90065 0.07727 0.97417 0.0
C186 C 0.90747 0.82519 0.9849 0.0
C187 C 0.89484 0.82462 0.01048 0.0
C188 C 0.93584 0.8331 0.98367 0.0
C189 C 0.99811 0.84767 0.02656 0.0
H190 H 0.0385 0.90404 0.97018 0.0
C191 C 0.11498 0.93219 0.03565 0.0
C192 C 0.13101 0.94246 0.01126 0.0
C193 C 0.08655 0.91182 0.03424 0.0
C194 C 0.02763 0.88791 0.98571 0.0
H195 H 0.90175 0.83018 0.05501 0.0
H196 H 0.95121 0.84433 0.05279 0.0
H197 H 0.98765 0.87862 0.96996 0.0
H198 H 0.13024 0.93779 0.96642 0.0
H199 H 0.08084 0.902 0.96404 0.0
H200 H 0.03834 0.8578 0.04282 0.0
C201 C 0.93919 0.83845 0.03369 0.0
C202 C 0.99837 0.87329 0.98558 0.0
C203 C 0.91081 0.83049 0.03494 0.0
C204 C 0.11843 0.93061 0.9856 0.0
C205 C 0.09006 0.91017 0.98421 0.0
C206 C 0.02747 0.86234 0.02669 0.0
C207 C 0.95224 0.84065 0.00796 0.0
C208 C 0.98323 0.85339 0.00631 0.0
C209 C 0.07356 0.90119 0.00842 0.0
C210 C 0.04256 0.88303 0.00657 0.0
H211 H 0.89574 0.82053 0.96567 0.0
H212 H 0.94514 0.83408 0.96356 0.0
H213 H 0.98707 0.8322 0.0426 0.0
H214 H 0.12399 0.94082 0.05578 0.0
H215 H 0.07446 0.90556 0.05329 0.0
C216 C 0.86235 0.42758 0.3701 0.0
C217 C 0.8697 0.41893 0.34557 0.0
C218 C 0.85425 0.44791 0.36924 0.0
C219 C 0.82149 0.47419 0.32098 0.0
H220 H 0.83521 0.52799 0.37948 0.0
C221 C 0.76466 0.53728 0.32021 0.0
C222 C 0.75242 0.53798 0.34561 0.0
C223 C 0.78491 0.52912 0.31927 0.0
C224 C 0.83113 0.51302 0.36301 0.0
H225 H 0.87616 0.42631 0.30116 0.0
H226 H 0.86225 0.46188 0.29974 0.0
H227 H 0.86048 0.50203 0.37961 0.0
H228 H 0.75312 0.53223 0.39017 0.0
H229 H 0.78793 0.51741 0.38847 0.0
H230 H 0.79142 0.48416 0.30492 0.0
C231 C 0.86227 0.45257 0.31957 0.0
C232 C 0.84563 0.49819 0.36308 0.0
C233 C 0.87037 0.43226 0.32042 0.0
C234 C 0.76209 0.5319 0.37023 0.0
C235 C 0.78221 0.52353 0.36927 0.0
C236 C 0.80696 0.4889 0.32096 0.0
C237 C 0.85334 0.46004 0.34383 0.0
C238 C 0.8406 0.47825 0.3423 0.0
C239 C 0.79325 0.52123 0.34368 0.0
C240 C 0.81122 0.50816 0.34223 0.0
H241 H 0.86168 0.41783 0.38986 0.0
H242 H 0.84731 0.45302 0.38828 0.0
H243 H 0.81671 0.45864 0.30494 0.0
H244 H 0.75794 0.54216 0.30087 0.0
H245 H 0.79344 0.52819 0.29927 0.0
C246 C 0.49052 0.24215 0.37384 0.0
C247 C 0.49031 0.22964 0.34831 0.0
C248 C 0.49832 0.27049 0.37509 0.0
C249 C 0.51306 0.33283 0.33235 0.0
H250 H 0.56891 0.37313 0.38919 0.0
C251 C 0.59685 0.45004 0.32419 0.0
C252 C 0.6071 0.46585 0.34872 0.0
C253 C 0.57659 0.42157 0.32538 0.0
C254 C 0.55291 0.36229 0.37353 0.0
H255 H 0.49643 0.23672 0.30383 0.0
H256 H 0.51038 0.28614 0.30609 0.0
H257 H 0.54375 0.32229 0.38911 0.0
H258 H 0.60245 0.46465 0.39357 0.0
H259 H 0.56678 0.41519 0.39558 0.0
H260 H 0.52301 0.37308 0.3163 0.0
C261 C 0.5043 0.27404 0.32514 0.0
C262 C 0.53845 0.33303 0.37349 0.0
C263 C 0.49646 0.24569 0.32387 0.0
C264 C 0.59529 0.45301 0.3743 0.0
C265 C 0.57493 0.4246 0.37547 0.0
C266 C 0.52754 0.36219 0.33241 0.0
C267 C 0.50613 0.28697 0.35085 0.0
C268 C 0.51874 0.31793 0.3526 0.0
C269 C 0.56602 0.40831 0.35111 0.0
C270 C 0.54805 0.37727 0.35271 0.0
H271 H 0.48564 0.23036 0.39305 0.0
H272 H 0.49902 0.27971 0.39518 0.0
H273 H 0.49775 0.32181 0.31617 0.0
H274 H 0.60546 0.45926 0.30413 0.0
H275 H 0.5704 0.40966 0.30622 0.0
C276 C 0.57903 0.16267 0.36765 0.0
C277 C 0.56282 0.15663 0.34333 0.0
C278 C 0.60738 0.1705 0.36614 0.0
C279 C 0.66608 0.20502 0.31759 0.0
H280 H 0.70645 0.18894 0.37388 0.0
C281 C 0.78613 0.26237 0.31638 0.0
C282 C 0.79901 0.27368 0.34207 0.0
C283 C 0.75774 0.24194 0.31511 0.0
C284 C 0.69548 0.19367 0.35802 0.0
H285 H 0.56327 0.15214 0.29854 0.0
H286 H 0.61261 0.16555 0.296 0.0
H287 H 0.65518 0.16368 0.3743 0.0
H288 H 0.79252 0.27108 0.38671 0.0
H289 H 0.74298 0.23596 0.38446 0.0
H290 H 0.70608 0.2357 0.3019 0.0
C291 C 0.60351 0.16474 0.31617 0.0
C292 C 0.66612 0.17918 0.35825 0.0
C293 C 0.57518 0.15693 0.31766 0.0
C294 C 0.78327 0.26286 0.36656 0.0
C295 C 0.75483 0.24256 0.36527 0.0
C296 C 0.69534 0.21952 0.31739 0.0
C297 C 0.62015 0.17244 0.3403 0.0
C298 C 0.6511 0.18508 0.33833 0.0
C299 C 0.7415 0.23248 0.33947 0.0
C300 C 0.71045 0.21443 0.33791 0.0
H301 H 0.57019 0.16257 0.38778 0.0
H302 H 0.61961 0.17649 0.38512 0.0
H303 H 0.65523 0.21047 0.30222 0.0
H304 H 0.79772 0.26999 0.29712 0.0
H305 H 0.74829 0.23418 0.29493 0.0
C306 C 0.42782 0.86336 0.65739 0.0
C307 C 0.41798 0.86943 0.6819 0.0
C308 C 0.44823 0.85539 0.65852 0.0
C309 C 0.47277 0.82077 0.70657 0.0
H310 H 0.5281 0.8361 0.64923 0.0
C311 C 0.53546 0.76355 0.70686 0.0
C312 C 0.53636 0.75176 0.68123 0.0
C313 C 0.5275 0.78395 0.70814 0.0
C314 C 0.51272 0.8316 0.66538 0.0
H315 H 0.42341 0.87385 0.72665 0.0
H316 H 0.45923 0.86028 0.72856 0.0
H317 H 0.50239 0.86163 0.64936 0.0
H318 H 0.53125 0.75345 0.63668 0.0
H319 H 0.51686 0.78858 0.63896 0.0
H320 H 0.48216 0.7901 0.72204 0.0
C321 C 0.45072 0.86112 0.70851 0.0
C322 C 0.49802 0.84623 0.66547 0.0
C323 C 0.43028 0.86904 0.70739 0.0
C324 C 0.53074 0.76205 0.65677 0.0
C325 C 0.52261 0.78234 0.65807 0.0
C326 C 0.48739 0.80616 0.70646 0.0
C327 C 0.45931 0.85337 0.68419 0.0
C328 C 0.47749 0.84059 0.68578 0.0
C329 C 0.52008 0.79291 0.68385 0.0
C330 C 0.50718 0.811 0.68559 0.0
H331 H 0.41888 0.86353 0.63738 0.0
H332 H 0.45418 0.84937 0.63941 0.0
H333 H 0.45676 0.8155 0.72222 0.0
H334 H 0.53998 0.75636 0.72609 0.0
H335 H 0.52635 0.79209 0.72828 0.0
C336 C 0.2622 0.78071 0.70115 0.0
C337 C 0.27249 0.79702 0.67691 0.0
C338 C 0.24186 0.7523 0.69947 0.0
C339 C 0.21898 0.69394 0.65083 0.0
H340 H 0.16167 0.65276 0.70619 0.0
C341 C 0.15741 0.5738 0.64915 0.0
C342 C 0.15524 0.56085 0.67493 0.0
C343 C 0.16527 0.60215 0.64781 0.0
C344 C 0.17762 0.66396 0.6906 0.0
H345 H 0.26791 0.79671 0.63207 0.0
H346 H 0.23231 0.74725 0.62923 0.0
H347 H 0.18717 0.70402 0.70685 0.0
H348 H 0.15806 0.56718 0.7196 0.0
H349 H 0.17234 0.61664 0.71725 0.0
H350 H 0.21047 0.65419 0.63522 0.0
C351 C 0.24036 0.75632 0.64948 0.0
C352 C 0.19218 0.69331 0.69096 0.0
C353 C 0.26068 0.78471 0.65114 0.0
C354 C 0.15956 0.57649 0.69938 0.0
C355 C 0.16761 0.60488 0.69803 0.0
C356 C 0.20454 0.66469 0.65053 0.0
C357 C 0.23135 0.73959 0.67352 0.0
C358 C 0.21339 0.70862 0.67137 0.0
C359 C 0.17134 0.61827 0.6722 0.0
C360 C 0.18405 0.64929 0.67071 0.0
H361 H 0.27074 0.78951 0.72135 0.0
H362 H 0.23553 0.73998 0.71838 0.0
H363 H 0.23551 0.70504 0.63573 0.0
H364 H 0.15391 0.56229 0.62992 0.0
H365 H 0.16735 0.61164 0.62759 0.0
C366 C 0.24387 0.49586 0.70442 0.0
C367 C 0.22753 0.48803 0.68008 0.0
C368 C 0.27228 0.50387 0.70332 0.0
C369 C 0.33069 0.53595 0.65436 0.0
H370 H 0.37168 0.52326 0.71267 0.0
C371 C 0.45079 0.59397 0.65256 0.0
C372 C 0.46391 0.6063 0.67788 0.0
C373 C 0.42239 0.5735 0.65183 0.0
C374 C 0.36054 0.52707 0.69625 0.0
H375 H 0.22784 0.48057 0.6358 0.0
H376 H 0.27733 0.4944 0.63398 0.0
H377 H 0.32041 0.49776 0.7134 0.0
H378 H 0.45781 0.60556 0.7225 0.0
H379 H 0.40825 0.57043 0.72118 0.0
H380 H 0.37049 0.56603 0.63778 0.0
C381 C 0.26825 0.49478 0.65383 0.0
C382 C 0.33118 0.51242 0.69665 0.0
C383 C 0.23984 0.48673 0.65492 0.0
C384 C 0.44838 0.59652 0.70262 0.0
C385 C 0.41991 0.57621 0.70187 0.0
C386 C 0.35995 0.55065 0.65402 0.0
C387 C 0.28498 0.50424 0.67786 0.0
C388 C 0.31594 0.51707 0.67596 0.0
C389 C 0.40636 0.56504 0.67638 0.0
C390 C 0.3753 0.5468 0.67521 0.0
H391 H 0.23506 0.49701 0.72417 0.0
H392 H 0.28461 0.51122 0.72218 0.0
H393 H 0.31964 0.54042 0.63836 0.0
H394 H 0.46222 0.60077 0.63314 0.0
H395 H 0.4128 0.56488 0.6319 0.0
C396 C 0.0399 0.29421 0.93797 0.0
C397 C 0.01784 0.26673 0.93399 0.0
C398 C 0.04684 0.31441 0.91719 0.0
C399 C 0.03495 0.31984 0.84107 0.0
H400 H 0.07803 0.39909 0.85788 0.0
C401 C 0.09437 0.40126 0.75498 0.0
C402 C 0.10159 0.42927 0.75903 0.0
C403 C 0.08082 0.38143 0.77601 0.0
C404 C 0.0655 0.37713 0.85255 0.0
H405 H 0.98454 0.23904 0.9062 0.0
H406 H 0.99487 0.27462 0.87098 0.0
H407 H 0.05898 0.36572 0.89538 0.0
H408 H 0.09895 0.45837 0.78731 0.0
H409 H 0.07329 0.42358 0.82306 0.0
H410 H 0.03969 0.33132 0.79827 0.0
C411 C 0.00808 0.28053 0.88925 0.0
C412 C 0.05502 0.35773 0.87434 0.0
C413 C 0.00181 0.26012 0.90962 0.0
C414 C 0.09378 0.43687 0.78383 0.0
C415 C 0.07936 0.41688 0.80448 0.0
C416 C 0.04463 0.33927 0.8193 0.0
C417 C 0.03129 0.30781 0.89225 0.0
C418 C 0.04015 0.3287 0.86901 0.0
C419 C 0.07334 0.38896 0.8013 0.0
C420 C 0.06068 0.36824 0.82461 0.0
H421 H 0.0528 0.29969 0.95649 0.0
H422 H 0.06518 0.3348 0.9204 0.0
H423 H 0.02403 0.29782 0.83571 0.0
H424 H 0.10051 0.39498 0.73612 0.0
H425 H 0.07726 0.36048 0.77265 0.0
C426 C 0.73392 0.75324 0.93998 0.0
C427 C 0.76143 0.77271 0.93179 0.0
C428 C 0.7131 0.73863 0.92002 0.0
C429 C 0.70138 0.71825 0.84574 0.0
H430 H 0.63249 0.72007 0.85553 0.0
C431 C 0.62312 0.69695 0.75588 0.0
C432 C 0.59451 0.68479 0.76236 0.0
C433 C 0.64298 0.70371 0.77703 0.0
C434 C 0.65131 0.71879 0.85262 0.0
H435 H 0.78893 0.79124 0.89627 0.0
H436 H 0.75272 0.76571 0.86158 0.0
H437 H 0.66783 0.73831 0.89191 0.0
H438 H 0.56408 0.66855 0.79583 0.0
H439 H 0.59844 0.6794 0.83248 0.0
H440 H 0.68492 0.69886 0.80633 0.0
C441 C 0.74721 0.76168 0.88337 0.0
C442 C 0.67162 0.72934 0.87353 0.0
C443 C 0.76792 0.77645 0.90328 0.0
C444 C 0.58603 0.67823 0.7902 0.0
C445 C 0.60578 0.68465 0.81125 0.0
C446 C 0.68094 0.70747 0.82486 0.0
C447 C 0.71946 0.74298 0.89149 0.0
C448 C 0.69703 0.72951 0.8702 0.0
C449 C 0.63459 0.69817 0.80507 0.0
C450 C 0.65575 0.7079 0.82789 0.0
H451 H 0.72827 0.74986 0.96178 0.0
H452 H 0.69194 0.72415 0.92689 0.0
H453 H 0.72067 0.71786 0.8427 0.0
H454 H 0.6303 0.70234 0.73462 0.0
H455 H 0.66497 0.71433 0.77145 0.0
C456 C 0.32879 0.94075 0.75297 0.0
C457 C 0.33693 0.92138 0.76115 0.0
C458 C 0.32253 0.95528 0.77294 0.0
C459 C 0.33093 0.9755 0.84727 0.0
H460 H 0.25992 0.97302 0.83724 0.0
C461 C 0.27328 0.99623 0.93684 0.0
C462 C 0.25674 0.00823 0.93021 0.0
C463 C 0.28654 0.98957 0.91579 0.0
C464 C 0.28009 0.97448 0.84022 0.0
H465 H 0.34607 0.90298 0.79666 0.0
H466 H 0.33527 0.92836 0.83137 0.0
H467 H 0.27734 0.9551 0.80092 0.0
H468 H 0.24255 0.0243 0.8966 0.0
H469 H 0.26632 0.01363 0.86014 0.0
H470 H 0.3336 0.99475 0.88669 0.0
C471 C 0.33375 0.93237 0.80957 0.0
C472 C 0.29005 0.96412 0.81934 0.0
C473 C 0.33976 0.91768 0.78966 0.0
C474 C 0.25487 0.01472 0.90234 0.0
C475 C 0.26836 0.00841 0.8814 0.0
C476 C 0.32107 0.9861 0.86811 0.0
C477 C 0.32456 0.95094 0.80146 0.0
C478 C 0.3154 0.9642 0.82275 0.0
C479 C 0.28375 0.99505 0.88772 0.0
C480 C 0.29535 0.98544 0.86499 0.0
H481 H 0.32647 0.9441 0.73117 0.0
H482 H 0.31574 0.96967 0.76607 0.0
H483 H 0.35068 0.97607 0.85036 0.0
H484 H 0.27503 0.99091 0.95814 0.0
H485 H 0.29799 0.97908 0.92147 0.0
C486 C 0.43884 0.10896 0.23489 0.0
C487 C 0.43069 0.10654 0.26288 0.0
C488 C 0.4189 0.09538 0.21404 0.0
C489 C 0.34417 0.04122 0.20118 0.0
H490 H 0.35532 0.08475 0.13416 0.0
C491 C 0.25594 0.01998 0.12291 0.0
C492 C 0.26248 0.02305 0.09441 0.0
C493 C 0.27679 0.02652 0.14282 0.0
C494 C 0.35209 0.07211 0.15254 0.0
H495 H 0.39532 0.08727 0.2911 0.0
H496 H 0.36029 0.06415 0.25461 0.0
H497 H 0.39088 0.10302 0.17033 0.0
H498 H 0.29587 0.03448 0.06443 0.0
H499 H 0.33241 0.04611 0.09931 0.0
H500 H 0.30473 0.0108 0.18354 0.0
C501 C 0.38218 0.07611 0.24875 0.0
C502 C 0.37253 0.08256 0.17333 0.0
C503 C 0.40224 0.08946 0.2697 0.0
C504 C 0.29017 0.03193 0.08622 0.0
C505 C 0.31111 0.03873 0.10618 0.0
C506 C 0.32358 0.03087 0.18043 0.0
C507 C 0.39022 0.07933 0.22059 0.0
C508 C 0.36881 0.06735 0.19802 0.0
C509 C 0.30471 0.0365 0.1347 0.0
C510 C 0.32726 0.04631 0.15596 0.0
H511 H 0.46066 0.12171 0.22899 0.0
H512 H 0.42601 0.09779 0.1927 0.0
H513 H 0.34075 0.02873 0.21969 0.0
H514 H 0.23479 0.01311 0.12991 0.0
H515 H 0.27124 0.02481 0.16462 0.0
C516 C 0.99865 0.27659 0.08867 0.0
C517 C 0.01022 0.2596 0.09502 0.0
C518 C 0.99272 0.29026 0.10987 0.0
C519 C 0.97842 0.28426 0.18551 0.0
H520 H 0.98171 0.35568 0.17563 0.0
C521 C 0.94533 0.33337 0.27287 0.0
C522 C 0.9265 0.34219 0.26459 0.0
C523 C 0.95988 0.32704 0.25297 0.0
C524 C 0.98067 0.3357 0.17866 0.0
H525 H 0.02627 0.24502 0.12832 0.0
H526 H 0.01676 0.26945 0.16506 0.0
H527 H 0.99962 0.33797 0.13915 0.0
H528 H 0.90919 0.35255 0.22901 0.0
H529 H 0.93456 0.34161 0.19445 0.0
H530 H 0.95923 0.28184 0.22484 0.0
C531 C 0.01139 0.27157 0.14389 0.0
C532 C 0.99083 0.32549 0.15773 0.0
C533 C 0.01703 0.2577 0.12278 0.0
C534 C 0.92348 0.34572 0.23609 0.0
C535 C 0.93816 0.33962 0.21625 0.0
C536 C 0.96845 0.29454 0.20646 0.0
C537 C 0.99848 0.28743 0.13784 0.0
C538 C 0.98952 0.29945 0.16074 0.0
C539 C 0.95608 0.32966 0.22442 0.0
C540 C 0.96912 0.32019 0.20315 0.0
H541 H 0.99309 0.27839 0.06748 0.0
H542 H 0.98254 0.30208 0.10441 0.0
H543 H 0.97649 0.26388 0.18841 0.0
H544 H 0.94816 0.33048 0.29466 0.0
H545 H 0.97379 0.31969 0.2599 0.0
C546 C 0.67915 0.58718 0.23529 0.0
C547 C 0.68544 0.59569 0.26315 0.0
C548 C 0.68524 0.60686 0.21424 0.0
C549 C 0.70623 0.68158 0.20073 0.0
H550 H 0.73788 0.66968 0.13361 0.0
C551 C 0.77386 0.76944 0.12259 0.0
C552 C 0.7703 0.76305 0.09406 0.0
C553 C 0.7594 0.74855 0.14242 0.0
C554 C 0.72868 0.67312 0.15201 0.0
H555 H 0.70221 0.63144 0.29092 0.0
H556 H 0.71362 0.66599 0.25409 0.0
H557 H 0.72039 0.63427 0.16993 0.0
H558 H 0.74807 0.72986 0.06394 0.0
H559 H 0.7229 0.69321 0.09869 0.0
H560 H 0.71564 0.72106 0.18298 0.0
C561 C 0.70346 0.64403 0.24849 0.0
C562 C 0.71857 0.65277 0.17289 0.0
C563 C 0.69704 0.62424 0.26964 0.0
C564 C 0.7513 0.73543 0.08576 0.0
C565 C 0.737 0.71444 0.10564 0.0
C566 C 0.71658 0.70208 0.1799 0.0
C567 C 0.69814 0.63563 0.22044 0.0
C568 C 0.7074 0.65679 0.19765 0.0
C569 C 0.7412 0.72072 0.1342 0.0
C570 C 0.72814 0.69816 0.15541 0.0
H571 H 0.66991 0.56528 0.22965 0.0
H572 H 0.68018 0.5995 0.193 0.0
H573 H 0.69739 0.68523 0.21928 0.0
H574 H 0.7883 0.79053 0.12968 0.0
H575 H 0.7633 0.75401 0.16423 0.0
C576 C 0.10024 0.42446 0.57531 0.0
C577 C 0.09317 0.43287 0.60006 0.0
C578 C 0.08006 0.41055 0.55468 0.0
C579 C 0.00273 0.37871 0.53969 0.0
H580 H 0.02943 0.39226 0.46368 0.0
C581 C 0.92386 0.338 0.44901 0.0
C582 C 0.93109 0.35388 0.4245 0.0
C583 C 0.94397 0.34381 0.46958 0.0
C584 C 0.02139 0.38855 0.4847 0.0
H585 H 0.05962 0.43333 0.62292 0.0
H586 H 0.02485 0.41097 0.58644 0.0
H587 H 0.06278 0.41015 0.50128 0.0
H588 H 0.96481 0.38814 0.402 0.0
H589 H 0.99948 0.39979 0.43845 0.0
H590 H 0.96136 0.35956 0.52316 0.0
C591 C 0.04548 0.41366 0.5831 0.0
C592 C 0.04074 0.39834 0.50654 0.0
C593 C 0.06547 0.4267 0.60412 0.0
C594 C 0.95885 0.37538 0.42064 0.0
C595 C 0.97878 0.38188 0.44161 0.0
C596 C 0.98338 0.36973 0.51786 0.0
C597 C 0.05252 0.40568 0.55783 0.0
C598 C 0.03177 0.39375 0.53446 0.0
C599 C 0.97161 0.36641 0.46663 0.0
C600 C 0.99235 0.37464 0.48995 0.0
H601 H 0.1215 0.42885 0.57182 0.0
H602 H 0.08634 0.40402 0.53613 0.0
H603 H 0.99469 0.37399 0.5607 0.0
H604 H 0.90255 0.32113 0.45232 0.0
H605 H 0.93759 0.33067 0.48791 0.0
C606 C 0.67799 0.59015 0.45557 0.0
C607 C 0.67451 0.59305 0.42704 0.0
C608 C 0.67154 0.60467 0.47529 0.0
C609 C 0.6254 0.63372 0.48463 0.0
H610 H 0.66848 0.66587 0.55194 0.0
C611 C 0.58687 0.68131 0.56774 0.0
C612 C 0.58914 0.67504 0.5956 0.0
C613 C 0.60094 0.67581 0.54674 0.0
C614 C 0.65609 0.65679 0.53337 0.0
H615 H 0.66255 0.61433 0.39677 0.0
H616 H 0.65111 0.63964 0.43132 0.0
H617 H 0.68689 0.64842 0.5157 0.0
H618 H 0.60871 0.65896 0.62342 0.0
H619 H 0.63272 0.64858 0.58667 0.0
H620 H 0.59412 0.64097 0.50247 0.0
C621 C 0.65872 0.62598 0.43837 0.0
C622 C 0.6667 0.6469 0.51256 0.0
C623 C 0.66541 0.61161 0.4186 0.0
C624 C 0.60662 0.66408 0.60214 0.0
C625 C 0.62048 0.65826 0.58104 0.0
C626 C 0.6147 0.64339 0.50546 0.0
C627 C 0.66126 0.62228 0.46695 0.0
C628 C 0.65134 0.63502 0.48808 0.0
C629 C 0.61737 0.66355 0.55299 0.0
C630 C 0.62977 0.65484 0.53023 0.0
H631 H 0.68503 0.57607 0.46277 0.0
H632 H 0.67349 0.60117 0.49713 0.0
H633 H 0.61282 0.62423 0.46624 0.0
H634 H 0.57381 0.69008 0.56205 0.0
H635 H 0.59858 0.68082 0.5255 0.0
C636 C 0.34834 0.92043 0.56841 0.0
C637 C 0.35423 0.92882 0.59633 0.0
C638 C 0.35453 0.94017 0.54741 0.0
C639 C 0.37496 0.01474 0.53402 0.0
H640 H 0.40722 0.00329 0.46711 0.0
C641 C 0.44217 0.10268 0.4557 0.0
C642 C 0.43869 0.09615 0.4272 0.0
C643 C 0.42779 0.08185 0.4756 0.0
C644 C 0.39785 0.0066 0.48545 0.0
H645 H 0.37045 0.9644 0.62427 0.0
H646 H 0.38211 0.99911 0.58753 0.0
H647 H 0.38997 0.96792 0.50345 0.0
H648 H 0.41666 0.06279 0.3972 0.0
H649 H 0.39165 0.02625 0.43208 0.0
H650 H 0.38398 0.05407 0.51618 0.0
C651 C 0.37216 0.97717 0.58184 0.0
C652 C 0.38788 0.98627 0.50634 0.0
C653 C 0.3656 0.95731 0.60293 0.0
C654 C 0.41982 0.06847 0.41899 0.0
C655 C 0.40562 0.04754 0.43895 0.0
C656 C 0.38519 0.03522 0.51317 0.0
C657 C 0.36717 0.9689 0.55374 0.0
C658 C 0.37646 0.99012 0.53101 0.0
C659 C 0.40978 0.05395 0.46748 0.0
C660 C 0.39693 0.03144 0.48875 0.0
H661 H 0.33925 0.89856 0.56269 0.0
H662 H 0.34972 0.9329 0.52613 0.0
H663 H 0.36593 0.01825 0.55251 0.0
H664 H 0.45649 0.12383 0.46272 0.0
H665 H 0.43164 0.08741 0.4974 0.0
loop_
_geom_bond_atom_site_label_1
_geom_bond_atom_site_label_2
_geom_bond_distance
_geom_bond_site_symmetry_2
_ccdc_geom_bond_type
O0 Cd1 2.223 . S
O0 C8 1.315 . S
Cd1 O0 2.223 . S
Cd1 O4 2.297 . S
Cd1 O5 2.439 . S
Cd1 O11 2.240 1_456 S
Cd2 O3 2.240 . S
Cd2 O10 2.223 1_455 S
Cd2 O12 2.297 1_455 S
Cd2 O13 2.439 1_455 S
O3 Cd2 2.240 . S
O3 C8 1.279 1_554 S
O4 Cd1 2.297 . S
O4 C6 1.247 . S
O5 Cd1 2.439 . S
O5 C6 1.208 . S
C6 O4 1.247 . S
C6 O5 1.208 . S
C7 O12 1.247 . S
C7 O13 1.208 . S
C8 O0 1.315 . S
C8 O3 1.279 1_556 S
C9 O10 1.315 . S
C9 O11 1.279 . S
O10 Cd2 2.223 1_655 S
O10 C9 1.315 . S
O11 Cd1 2.240 1_654 S
O11 C9 1.279 . S
O12 Cd2 2.297 1_655 S
O12 C7 1.247 . S
O13 Cd2 2.439 1_655 S
O13 C7 1.208 . S
O14 Cd15 2.223 . S
O14 C22 1.315 . S
Cd15 O14 2.223 . S
Cd15 O18 2.297 . S
Cd15 O19 2.439 . S
Cd15 O25 2.240 . S
Cd16 O17 2.240 1_556 S
Cd16 O24 2.223 . S
Cd16 O26 2.297 . S
Cd16 O27 2.439 . S
O17 Cd16 2.240 1_554 S
O17 C22 1.279 . S
O18 Cd15 2.297 . S
O18 C20 1.247 . S
O19 Cd15 2.439 . S
O19 C20 1.208 . S
C20 O18 1.247 . S
C20 O19 1.208 . S
C21 O26 1.247 . S
C21 O27 1.208 . S
C22 O14 1.315 . S
C22 O17 1.279 . S
C23 O24 1.315 . S
C23 O25 1.279 1_556 S
O24 Cd16 2.223 . S
O24 C23 1.315 . S
O25 Cd15 2.240 . S
O25 C23 1.279 1_554 S
O26 Cd16 2.297 . S
O26 C21 1.247 . S
O27 Cd16 2.439 . S
O27 C21 1.208 . S
O28 Cd29 2.223 1_565 S
O28 C36 1.315 . S
Cd29 O28 2.223 1_545 S
Cd29 O32 2.297 1_545 S
Cd29 O33 2.439 1_545 S
Cd29 O39 2.240 1_556 S
Cd30 O31 2.240 1_545 S
Cd30 O38 2.223 . S
Cd30 O40 2.297 . S
Cd30 O41 2.439 . S
O31 Cd30 2.240 1_565 S
O31 C36 1.279 1_554 S
O32 Cd29 2.297 1_565 S
O32 C34 1.247 . S
O33 Cd29 2.439 1_565 S
O33 C34 1.208 . S
C34 O32 1.247 . S
C34 O33 1.208 . S
C35 O40 1.247 . S
C35 O41 1.208 . S
C36 O28 1.315 . S
C36 O31 1.279 1_556 S
C37 O38 1.315 . S
C37 O39 1.279 . S
O38 Cd30 2.223 . S
O38 C37 1.315 . S
O39 Cd29 2.240 1_554 S
O39 C37 1.279 . S
O40 Cd30 2.297 . S
O40 C35 1.247 . S
O41 Cd30 2.439 . S
O41 C35 1.208 . S
O42 Cd43 2.223 . S
O42 C50 1.315 . S
Cd43 O42 2.223 . S
Cd43 O46 2.297 . S
Cd43 O47 2.439 . S
Cd43 O53 2.240 . S
Cd44 O45 2.240 . S
Cd44 O52 2.223 . S
Cd44 O54 2.297 . S
Cd44 O55 2.439 . S
O45 Cd44 2.240 . S
O45 C50 1.279 . S
O46 Cd43 2.297 . S
O46 C48 1.247 . S
O47 Cd43 2.439 . S
O47 C48 1.208 . S
C48 O46 1.247 . S
C48 O47 1.208 . S
C49 O54 1.247 . S
C49 O55 1.208 . S
C50 O42 1.315 . S
C50 O45 1.279 . S
C51 O52 1.315 . S
C51 O53 1.279 . S
O52 Cd44 2.223 . S
O52 C51 1.315 . S
O53 Cd43 2.240 . S
O53 C51 1.279 . S
O54 Cd44 2.297 . S
O54 C49 1.247 . S
O55 Cd44 2.439 . S
O55 C49 1.208 . S
O56 Cd57 2.223 . S
O56 C64 1.315 . S
Cd57 O56 2.223 . S
Cd57 O60 2.297 . S
Cd57 O61 2.439 . S
Cd57 O67 2.240 . S
Cd58 O59 2.240 . S
Cd58 O66 2.223 . S
Cd58 O68 2.297 . S
Cd58 O69 2.439 . S
O59 Cd58 2.240 . S
O59 C64 1.279 . S
O60 Cd57 2.297 . S
O60 C62 1.247 . S
O61 Cd57 2.439 . S
O61 C62 1.208 . S
C62 O60 1.247 . S
C62 O61 1.208 . S
C63 O68 1.247 . S
C63 O69 1.208 . S
C64 O56 1.315 . S
C64 O59 1.279 . S
C65 O66 1.315 . S
C65 O67 1.279 . S
O66 Cd58 2.223 . S
O66 C65 1.315 . S
O67 Cd57 2.240 . S
O67 C65 1.279 . S
O68 Cd58 2.297 . S
O68 C63 1.247 . S
O69 Cd58 2.439 . S
O69 C63 1.208 . S
O70 Cd71 2.223 . S
O70 C78 1.315 . S
Cd71 O70 2.223 . S
Cd71 O74 2.297 . S
Cd71 O75 2.439 . S
Cd71 O81 2.240 . S
Cd72 O73 2.240 . S
Cd72 O80 2.223 . S
Cd72 O82 2.297 . S
Cd72 O83 2.439 . S
O73 Cd72 2.240 . S
O73 C78 1.279 . S
O74 Cd71 2.297 . S
O74 C76 1.247 . S
O75 Cd71 2.439 . S
O75 C76 1.208 . S
C76 O74 1.247 . S
C76 O75 1.208 . S
C77 O82 1.247 . S
C77 O83 1.208 . S
C78 O70 1.315 . S
C78 O73 1.279 . S
C79 O80 1.315 . S
C79 O81 1.279 . S
O80 Cd72 2.223 . S
O80 C79 1.315 . S
O81 Cd71 2.240 . S
O81 C79 1.279 . S
O82 Cd72 2.297 . S
O82 C77 1.247 . S
O83 Cd72 2.439 . S
O83 C77 1.208 . S
O84 Cd85 2.223 . S
O84 C92 1.315 . S
Cd85 O84 2.223 . S
Cd85 O88 2.297 . S
Cd85 O89 2.439 . S
Cd85 O95 2.240 . S
Cd86 O87 2.240 . S
Cd86 O94 2.223 . S
Cd86 O96 2.297 . S
Cd86 O97 2.439 . S
O87 Cd86 2.240 . S
O87 C92 1.279 . S
O88 Cd85 2.297 . S
O88 C90 1.247 . S
O89 Cd85 2.439 . S
O89 C90 1.208 . S
C90 O88 1.247 . S
C90 O89 1.208 . S
C91 O96 1.247 . S
C91 O97 1.208 . S
C92 O84 1.315 . S
C92 O87 1.279 . S
C93 O94 1.315 . S
C93 O95 1.279 . S
O94 Cd86 2.223 . S
O94 C93 1.315 . S
O95 Cd85 2.240 . S
O95 C93 1.279 . S
O96 Cd86 2.297 . S
O96 C91 1.247 . S
O97 Cd86 2.439 . S
O97 C91 1.208 . S
O98 Cd99 2.223 . S
O98 C106 1.315 . S
Cd99 O98 2.223 . S
Cd99 O102 2.297 . S
Cd99 O103 2.439 . S
Cd99 O109 2.240 . S
Cd100 O101 2.240 . S
Cd100 O108 2.223 . S
Cd100 O110 2.297 . S
Cd100 O111 2.439 . S
O101 Cd100 2.240 . S
O101 C106 1.279 . S
O102 Cd99 2.297 . S
O102 C104 1.247 . S
O103 Cd99 2.439 . S
O103 C104 1.208 . S
C104 O102 1.247 . S
C104 O103 1.208 . S
C105 O110 1.247 . S
C105 O111 1.208 . S
C106 O98 1.315 . S
C106 O101 1.279 . S
C107 O108 1.315 . S
C107 O109 1.279 . S
O108 Cd100 2.223 . S
O108 C107 1.315 . S
O109 Cd99 2.240 . S
O109 C107 1.279 . S
O110 Cd100 2.297 . S
O110 C105 1.247 . S
O111 Cd100 2.439 . S
O111 C105 1.208 . S
O112 Cd113 2.223 . S
O112 C120 1.315 . S
Cd113 O112 2.223 . S
Cd113 O116 2.297 . S
Cd113 O117 2.439 . S
Cd113 O123 2.240 . S
Cd114 O115 2.240 . S
Cd114 O122 2.223 . S
Cd114 O124 2.297 . S
Cd114 O125 2.439 . S
O115 Cd114 2.240 . S
O115 C120 1.279 . S
O116 Cd113 2.297 . S
O116 C118 1.247 . S
O117 Cd113 2.439 . S
O117 C118 1.208 . S
C118 O116 1.247 . S
C118 O117 1.208 . S
C119 O124 1.247 . S
C119 O125 1.208 . S
C120 O112 1.315 . S
C120 O115 1.279 . S
C121 O122 1.315 . S
C121 O123 1.279 . S
O122 Cd114 2.223 . S
O122 C121 1.315 . S
O123 Cd113 2.240 . S
O123 C121 1.279 . S
O124 Cd114 2.297 . S
O124 C119 1.247 . S
O125 Cd114 2.439 . S
O125 C119 1.208 . S
C126 C127 1.349 . S
C126 C128 1.327 . S
C126 H151 0.950 . S
C127 C126 1.349 . S
C127 C143 1.349 1_554 S
C128 C126 1.327 . S
C128 C147 1.429 . S
C128 H152 0.950 . S
C129 C146 1.574 . S
C129 C148 1.368 1_556 S
C129 H153 0.949 . S
H130 C134 0.949 . S
C131 C132 1.349 1_556 S
C131 C133 1.327 . S
C131 H154 0.950 . S
C132 C131 1.349 1_554 S
C132 C144 1.349 . S
C133 C131 1.327 . S
C133 C149 1.429 1_556 S
C133 H155 0.950 . S
C134 H130 0.949 . S
C134 C142 1.574 . S
C134 C150 1.368 . S
H135 C143 0.950 . S
H136 C141 0.950 . S
H137 C142 0.949 . S
H138 C144 0.950 . S
H139 C145 0.950 . S
H140 C146 0.949 . S
C141 H136 0.950 . S
C141 C143 1.327 . S
C141 C147 1.429 1_556 S
C142 C134 1.574 . S
C142 H137 0.949 . S
C142 C148 1.368 . S
C143 C127 1.349 1_556 S
C143 H135 0.950 . S
C143 C141 1.327 . S
C144 C132 1.349 . S
C144 H138 0.950 . S
C144 C145 1.327 . S
C145 H139 0.950 . S
C145 C144 1.327 . S
C145 C149 1.429 . S
C146 C129 1.574 . S
C146 H140 0.949 . S
C146 C150 1.368 1_556 S
C147 C128 1.429 . S
C147 C141 1.429 1_554 S
C147 C148 1.523 . S
C148 C129 1.368 1_554 S
C148 C142 1.368 . S
C148 C147 1.523 . S
C149 C133 1.429 1_554 S
C149 C145 1.429 . S
C149 C150 1.523 . S
C150 C134 1.368 . S
C150 C146 1.368 1_554 S
C150 C149 1.523 . S
H151 C126 0.950 . S
H152 C128 0.950 . S
H153 C129 0.949 . S
H154 C131 0.950 . S
H155 C133 0.950 . S
C156 C157 1.349 . S
C156 C158 1.327 . S
C156 H181 0.950 . S
C157 C156 1.349 . S
C157 C173 1.349 1_554 S
C158 C156 1.327 . S
C158 C177 1.429 . S
C158 H182 0.950 . S
C159 C176 1.574 1_565 S
C159 C178 1.368 1_556 S
C159 H183 0.949 . S
H160 C164 0.949 . S
C161 C162 1.349 1_556 S
C161 C163 1.327 . S
C161 H184 0.950 . S
C162 C161 1.349 1_554 S
C162 C174 1.349 . S
C163 C161 1.327 . S
C163 C179 1.429 1_556 S
C163 H185 0.950 . S
C164 H160 0.949 . S
C164 C172 1.574 1_545 S
C164 C180 1.368 . S
H165 C173 0.950 . S
H166 C171 0.950 . S
H167 C172 0.949 . S
H168 C174 0.950 . S
H169 C175 0.950 . S
H170 C176 0.949 . S
C171 H166 0.950 . S
C171 C173 1.327 . S
C171 C177 1.429 1_556 S
C172 C164 1.574 1_565 S
C172 H167 0.949 . S
C172 C178 1.368 . S
C173 C157 1.349 1_556 S
C173 H165 0.950 . S
C173 C171 1.327 . S
C174 C162 1.349 . S
C174 H168 0.950 . S
C174 C175 1.327 . S
C175 H169 0.950 . S
C175 C174 1.327 . S
C175 C179 1.429 . S
C176 C159 1.574 1_545 S
C176 H170 0.949 . S
C176 C180 1.368 1_556 S
C177 C158 1.429 . S
C177 C171 1.429 1_554 S
C177 C178 1.523 . S
C178 C159 1.368 1_554 S
C178 C172 1.368 . S
C178 C177 1.523 . S
C179 C163 1.429 1_554 S
C179 C175 1.429 . S
C179 C180 1.523 . S
C180 C164 1.368 . S
C180 C176 1.368 1_554 S
C180 C179 1.523 . S
H181 C156 0.950 . S
H182 C158 0.950 . S
H183 C159 0.949 . S
H184 C161 0.950 . S
H185 C163 0.950 . S
C186 C187 1.349 1_556 S
C186 C188 1.327 . S
C186 H211 0.950 . S
C187 C186 1.349 1_554 S
C187 C203 1.349 . S
C188 C186 1.327 . S
C188 C207 1.429 1_556 S
C188 H212 0.950 . S
C189 C206 1.574 1_655 S
C189 C208 1.368 . S
C189 H213 0.949 . S
H190 C194 0.949 . S
C191 C192 1.349 . S
C191 C193 1.327 . S
C191 H214 0.950 . S
C192 C191 1.349 . S
C192 C204 1.349 1_554 S
C193 C191 1.327 . S
C193 C209 1.429 . S
C193 H215 0.950 . S
C194 H190 0.949 . S
C194 C202 1.574 1_455 S
C194 C210 1.368 1_556 S
H195 C203 0.950 . S
H196 C201 0.950 . S
H197 C202 0.949 . S
H198 C204 0.950 . S
H199 C205 0.950 . S
H200 C206 0.949 . S
C201 H196 0.950 . S
C201 C203 1.327 . S
C201 C207 1.429 . S
C202 C194 1.574 1_655 S
C202 H197 0.949 . S
C202 C208 1.368 1_556 S
C203 C187 1.349 . S
C203 H195 0.950 . S
C203 C201 1.327 . S
C204 C192 1.349 1_556 S
C204 H198 0.950 . S
C204 C205 1.327 . S
C205 H199 0.950 . S
C205 C204 1.327 . S
C205 C209 1.429 1_556 S
C206 C189 1.574 1_455 S
C206 H200 0.949 . S
C206 C210 1.368 . S
C207 C188 1.429 1_554 S
C207 C201 1.429 . S
C207 C208 1.523 . S
C208 C189 1.368 . S
C208 C202 1.368 1_554 S
C208 C207 1.523 . S
C209 C193 1.429 . S
C209 C205 1.429 1_554 S
C209 C210 1.523 . S
C210 C194 1.368 1_554 S
C210 C206 1.368 . S
C210 C209 1.523 . S
H211 C186 0.950 . S
H212 C188 0.950 . S
H213 C189 0.949 . S
H214 C191 0.950 . S
H215 C193 0.950 . S
C216 C217 1.349 . S
C216 C218 1.327 . S
C216 H241 0.950 . S
C217 C216 1.349 . S
C217 C233 1.349 . S
C218 C216 1.327 . S
C218 C237 1.429 . S
C218 H242 0.950 . S
C219 C236 1.574 . S
C219 C238 1.368 . S
C219 H243 0.949 . S
H220 C224 0.949 . S
C221 C222 1.349 . S
C221 C223 1.327 . S
C221 H244 0.950 . S
C222 C221 1.349 . S
C222 C234 1.349 . S
C223 C221 1.327 . S
C223 C239 1.429 . S
C223 H245 0.950 . S
C224 H220 0.949 . S
C224 C232 1.574 . S
C224 C240 1.368 . S
H225 C233 0.950 . S
H226 C231 0.950 . S
H227 C232 0.949 . S
H228 C234 0.950 . S
H229 C235 0.950 . S
H230 C236 0.949 . S
C231 H226 0.950 . S
C231 C233 1.327 . S
C231 C237 1.429 . S
C232 C224 1.574 . S
C232 H227 0.949 . S
C232 C238 1.368 . S
C233 C217 1.349 . S
C233 H225 0.950 . S
C233 C231 1.327 . S
C234 C222 1.349 . S
C234 H228 0.950 . S
C234 C235 1.327 . S
C235 H229 0.950 . S
C235 C234 1.327 . S
C235 C239 1.429 . S
C236 C219 1.574 . S
C236 H230 0.949 . S
C236 C240 1.368 . S
C237 C218 1.429 . S
C237 C231 1.429 . S
C237 C238 1.523 . S
C238 C219 1.368 . S
C238 C232 1.368 . S
C238 C237 1.523 . S
C239 C223 1.429 . S
C239 C235 1.429 . S
C239 C240 1.523 . S
C240 C224 1.368 . S
C240 C236 1.368 . S
C240 C239 1.523 . S
H241 C216 0.950 . S
H242 C218 0.950 . S
H243 C219 0.949 . S
H244 C221 0.950 . S
H245 C223 0.950 . S
C246 C247 1.349 . S
C246 C248 1.327 . S
C246 H271 0.950 . S
C247 C246 1.349 . S
C247 C263 1.349 . S
C248 C246 1.327 . S
C248 C267 1.429 . S
C248 H272 0.950 . S
C249 C266 1.574 . S
C249 C268 1.368 . S
C249 H273 0.949 . S
H250 C254 0.949 . S
C251 C252 1.349 . S
C251 C253 1.327 . S
C251 H274 0.950 . S
C252 C251 1.349 . S
C252 C264 1.349 . S
C253 C251 1.327 . S
C253 C269 1.429 . S
C253 H275 0.950 . S
C254 H250 0.949 . S
C254 C262 1.574 . S
C254 C270 1.368 . S
H255 C263 0.950 . S
H256 C261 0.950 . S
H257 C262 0.949 . S
H258 C264 0.950 . S
H259 C265 0.950 . S
H260 C266 0.949 . S
C261 H256 0.950 . S
C261 C263 1.327 . S
C261 C267 1.429 . S
C262 C254 1.574 . S
C262 H257 0.949 . S
C262 C268 1.368 . S
C263 C247 1.349 . S
C263 H255 0.950 . S
C263 C261 1.327 . S
C264 C252 1.349 . S
C264 H258 0.950 . S
C264 C265 1.327 . S
C265 H259 0.950 . S
C265 C264 1.327 . S
C265 C269 1.429 . S
C266 C249 1.574 . S
C266 H260 0.949 . S
C266 C270 1.368 . S
C267 C248 1.429 . S
C267 C261 1.429 . S
C267 C268 1.523 . S
C268 C249 1.368 . S
C268 C262 1.368 . S
C268 C267 1.523 . S
C269 C253 1.429 . S
C269 C265 1.429 . S
C269 C270 1.523 . S
C270 C254 1.368 . S
C270 C266 1.368 . S
C270 C269 1.523 . S
H271 C246 0.950 . S
H272 C248 0.950 . S
H273 C249 0.949 . S
H274 C251 0.950 . S
H275 C253 0.950 . S
C276 C277 1.349 . S
C276 C278 1.327 . S
C276 H301 0.950 . S
C277 C276 1.349 . S
C277 C293 1.349 . S
C278 C276 1.327 . S
C278 C297 1.429 . S
C278 H302 0.950 . S
C279 C296 1.574 . S
C279 C298 1.368 . S
C279 H303 0.949 . S
H280 C284 0.949 . S
C281 C282 1.349 . S
C281 C283 1.327 . S
C281 H304 0.950 . S
C282 C281 1.349 . S
C282 C294 1.349 . S
C283 C281 1.327 . S
C283 C299 1.429 . S
C283 H305 0.950 . S
C284 H280 0.949 . S
C284 C292 1.574 . S
C284 C300 1.368 . S
H285 C293 0.950 . S
H286 C291 0.950 . S
H287 C292 0.949 . S
H288 C294 0.950 . S
H289 C295 0.950 . S
H290 C296 0.949 . S
C291 H286 0.950 . S
C291 C293 1.327 . S
C291 C297 1.429 . S
C292 C284 1.574 . S
C292 H287 0.949 . S
C292 C298 1.368 . S
C293 C277 1.349 . S
C293 H285 0.950 . S
C293 C291 1.327 . S
C294 C282 1.349 . S
C294 H288 0.950 . S
C294 C295 1.327 . S
C295 H289 0.950 . S
C295 C294 1.327 . S
C295 C299 1.429 . S
C296 C279 1.574 . S
C296 H290 0.949 . S
C296 C300 1.368 . S
C297 C278 1.429 . S
C297 C291 1.429 . S
C297 C298 1.523 . S
C298 C279 1.368 . S
C298 C292 1.368 . S
C298 C297 1.523 . S
C299 C283 1.429 . S
C299 C295 1.429 . S
C299 C300 1.523 . S
C300 C284 1.368 . S
C300 C296 1.368 . S
C300 C299 1.523 . S
H301 C276 0.950 . S
H302 C278 0.950 . S
H303 C279 0.949 . S
H304 C281 0.950 . S
H305 C283 0.950 . S
C306 C307 1.349 . S
C306 C308 1.327 . S
C306 H331 0.950 . S
C307 C306 1.349 . S
C307 C323 1.349 . S
C308 C306 1.327 . S
C308 C327 1.429 . S
C308 H332 0.950 . S
C309 C326 1.574 . S
C309 C328 1.368 . S
C309 H333 0.949 . S
H310 C314 0.949 . S
C311 C312 1.349 . S
C311 C313 1.327 . S
C311 H334 0.950 . S
C312 C311 1.349 . S
C312 C324 1.349 . S
C313 C311 1.327 . S
C313 C329 1.429 . S
C313 H335 0.950 . S
C314 H310 0.949 . S
C314 C322 1.574 . S
C314 C330 1.368 . S
H315 C323 0.950 . S
H316 C321 0.950 . S
H317 C322 0.949 . S
H318 C324 0.950 . S
H319 C325 0.950 . S
H320 C326 0.949 . S
C321 H316 0.950 . S
C321 C323 1.327 . S
C321 C327 1.429 . S
C322 C314 1.574 . S
C322 H317 0.949 . S
C322 C328 1.368 . S
C323 C307 1.349 . S
C323 H315 0.950 . S
C323 C321 1.327 . S
C324 C312 1.349 . S
C324 H318 0.950 . S
C324 C325 1.327 . S
C325 H319 0.950 . S
C325 C324 1.327 . S
C325 C329 1.429 . S
C326 C309 1.574 . S
C326 H320 0.949 . S
C326 C330 1.368 . S
C327 C308 1.429 . S
C327 C321 1.429 . S
C327 C328 1.523 . S
C328 C309 1.368 . S
C328 C322 1.368 . S
C328 C327 1.523 . S
C329 C313 1.429 . S
C329 C325 1.429 . S
C329 C330 1.523 . S
C330 C314 1.368 . S
C330 C326 1.368 . S
C330 C329 1.523 . S
H331 C306 0.950 . S
H332 C308 0.950 . S
H333 C309 0.949 . S
H334 C311 0.950 . S
H335 C313 0.950 . S
C336 C337 1.349 . S
C336 C338 1.327 . S
C336 H361 0.950 . S
C337 C336 1.349 . S
C337 C353 1.349 . S
C338 C336 1.327 . S
C338 C357 1.429 . S
C338 H362 0.950 . S
C339 C356 1.574 . S
C339 C358 1.368 . S
C339 H363 0.949 . S
H340 C344 0.949 . S
C341 C342 1.349 . S
C341 C343 1.327 . S
C341 H364 0.950 . S
C342 C341 1.349 . S
C342 C354 1.349 . S
C343 C341 1.327 . S
C343 C359 1.429 . S
C343 H365 0.950 . S
C344 H340 0.949 . S
C344 C352 1.574 . S
C344 C360 1.368 . S
H345 C353 0.950 . S
H346 C351 0.950 . S
H347 C352 0.949 . S
H348 C354 0.950 . S
H349 C355 0.950 . S
H350 C356 0.949 . S
C351 H346 0.950 . S
C351 C353 1.327 . S
C351 C357 1.429 . S
C352 C344 1.574 . S
C352 H347 0.949 . S
C352 C358 1.368 . S
C353 C337 1.349 . S
C353 H345 0.950 . S
C353 C351 1.327 . S
C354 C342 1.349 . S
C354 H348 0.950 . S
C354 C355 1.327 . S
C355 H349 0.950 . S
C355 C354 1.327 . S
C355 C359 1.429 . S
C356 C339 1.574 . S
C356 H350 0.949 . S
C356 C360 1.368 . S
C357 C338 1.429 . S
C357 C351 1.429 . S
C357 C358 1.523 . S
C358 C339 1.368 . S
C358 C352 1.368 . S
C358 C357 1.523 . S
C359 C343 1.429 . S
C359 C355 1.429 . S
C359 C360 1.523 . S
C360 C344 1.368 . S
C360 C356 1.368 . S
C360 C359 1.523 . S
H361 C336 0.950 . S
H362 C338 0.950 . S
H363 C339 0.949 . S
H364 C341 0.950 . S
H365 C343 0.950 . S
C366 C367 1.349 . S
C366 C368 1.327 . S
C366 H391 0.950 . S
C367 C366 1.349 . S
C367 C383 1.349 . S
C368 C366 1.327 . S
C368 C387 1.429 . S
C368 H392 0.950 . S
C369 C386 1.574 . S
C369 C388 1.368 . S
C369 H393 0.949 . S
H370 C374 0.949 . S
C371 C372 1.349 . S
C371 C373 1.327 . S
C371 H394 0.950 . S
C372 C371 1.349 . S
C372 C384 1.349 . S
C373 C371 1.327 . S
C373 C389 1.429 . S
C373 H395 0.950 . S
C374 H370 0.949 . S
C374 C382 1.574 . S
C374 C390 1.368 . S
H375 C383 0.950 . S
H376 C381 0.950 . S
H377 C382 0.949 . S
H378 C384 0.950 . S
H379 C385 0.950 . S
H380 C386 0.949 . S
C381 H376 0.950 . S
C381 C383 1.327 . S
C381 C387 1.429 . S
C382 C374 1.574 . S
C382 H377 0.949 . S
C382 C388 1.368 . S
C383 C367 1.349 . S
C383 H375 0.950 . S
C383 C381 1.327 . S
C384 C372 1.349 . S
C384 H378 0.950 . S
C384 C385 1.327 . S
C385 H379 0.950 . S
C385 C384 1.327 . S
C385 C389 1.429 . S
C386 C369 1.574 . S
C386 H380 0.949 . S
C386 C390 1.368 . S
C387 C368 1.429 . S
C387 C381 1.429 . S
C387 C388 1.523 . S
C388 C369 1.368 . S
C388 C382 1.368 . S
C388 C387 1.523 . S
C389 C373 1.429 . S
C389 C385 1.429 . S
C389 C390 1.523 . S
C390 C374 1.368 . S
C390 C386 1.368 . S
C390 C389 1.523 . S
H391 C366 0.950 . S
H392 C368 0.950 . S
H393 C369 0.949 . S
H394 C371 0.950 . S
H395 C373 0.950 . S
C396 C397 1.349 . S
C396 C398 1.327 . S
C396 H421 0.950 . S
C397 C396 1.349 . S
C397 C413 1.349 . S
C398 C396 1.327 . S
C398 C417 1.429 . S
C398 H422 0.950 . S
C399 C416 1.574 . S
C399 C418 1.368 . S
C399 H423 0.949 . S
H400 C404 0.949 . S
C401 C402 1.349 . S
C401 C403 1.327 . S
C401 H424 0.950 . S
C402 C401 1.349 . S
C402 C414 1.349 . S
C403 C401 1.327 . S
C403 C419 1.429 . S
C403 H425 0.950 . S
C404 H400 0.949 . S
C404 C412 1.574 . S
C404 C420 1.368 . S
H405 C413 0.950 . S
H406 C411 0.950 . S
H407 C412 0.949 . S
H408 C414 0.950 . S
H409 C415 0.950 . S
H410 C416 0.949 . S
C411 H406 0.950 . S
C411 C413 1.327 . S
C411 C417 1.429 . S
C412 C404 1.574 . S
C412 H407 0.949 . S
C412 C418 1.368 . S
C413 C397 1.349 . S
C413 H405 0.950 . S
C413 C411 1.327 . S
C414 C402 1.349 . S
C414 H408 0.950 . S
C414 C415 1.327 . S
C415 H409 0.950 . S
C415 C414 1.327 . S
C415 C419 1.429 . S
C416 C399 1.574 . S
C416 H410 0.949 . S
C416 C420 1.368 . S
C417 C398 1.429 . S
C417 C411 1.429 . S
C417 C418 1.523 . S
C418 C399 1.368 . S
C418 C412 1.368 . S
C418 C417 1.523 . S
C419 C403 1.429 . S
C419 C415 1.429 . S
C419 C420 1.523 . S
C420 C404 1.368 . S
C420 C416 1.368 . S
C420 C419 1.523 . S
H421 C396 0.950 . S
H422 C398 0.950 . S
H423 C399 0.949 . S
H424 C401 0.950 . S
H425 C403 0.950 . S
C426 C427 1.349 . S
C426 C428 1.327 . S
C426 H451 0.950 . S
C427 C426 1.349 . S
C427 C443 1.349 . S
C428 C426 1.327 . S
C428 C447 1.429 . S
C428 H452 0.950 . S
C429 C446 1.574 . S
C429 C448 1.368 . S
C429 H453 0.949 . S
H430 C434 0.949 . S
C431 C432 1.349 . S
C431 C433 1.327 . S
C431 H454 0.950 . S
C432 C431 1.349 . S
C432 C444 1.349 . S
C433 C431 1.327 . S
C433 C449 1.429 . S
C433 H455 0.950 . S
C434 H430 0.949 . S
C434 C442 1.574 . S
C434 C450 1.368 . S
H435 C443 0.950 . S
H436 C441 0.950 . S
H437 C442 0.949 . S
H438 C444 0.950 . S
H439 C445 0.950 . S
H440 C446 0.949 . S
C441 H436 0.950 . S
C441 C443 1.327 . S
C441 C447 1.429 . S
C442 C434 1.574 . S
C442 H437 0.949 . S
C442 C448 1.368 . S
C443 C427 1.349 . S
C443 H435 0.950 . S
C443 C441 1.327 . S
C444 C432 1.349 . S
C444 H438 0.950 . S
C444 C445 1.327 . S
C445 H439 0.950 . S
C445 C444 1.327 . S
C445 C449 1.429 . S
C446 C429 1.574 . S
C446 H440 0.949 . S
C446 C450 1.368 . S
C447 C428 1.429 . S
C447 C441 1.429 . S
C447 C448 1.523 . S
C448 C429 1.368 . S
C448 C442 1.368 . S
C448 C447 1.523 . S
C449 C433 1.429 . S
C449 C445 1.429 . S
C449 C450 1.523 . S
C450 C434 1.368 . S
C450 C446 1.368 . S
C450 C449 1.523 . S
H451 C426 0.950 . S
H452 C428 0.950 . S
H453 C429 0.949 . S
H454 C431 0.950 . S
H455 C433 0.950 . S
C456 C457 1.349 . S
C456 C458 1.327 . S
C456 H481 0.950 . S
C457 C456 1.349 . S
C457 C473 1.349 . S
C458 C456 1.327 . S
C458 C477 1.429 . S
C458 H482 0.950 . S
C459 C476 1.574 . S
C459 C478 1.368 . S
C459 H483 0.949 . S
H460 C464 0.949 . S
C461 C462 1.349 . S
C461 C463 1.327 . S
C461 H484 0.950 . S
C462 C461 1.349 . S
C462 C474 1.349 . S
C463 C461 1.327 . S
C463 C479 1.429 . S
C463 H485 0.950 . S
C464 H460 0.949 . S
C464 C472 1.574 . S
C464 C480 1.368 . S
H465 C473 0.950 . S
H466 C471 0.950 . S
H467 C472 0.949 . S
H468 C474 0.950 1_545 S
H469 C475 0.950 . S
H470 C476 0.949 . S
C471 H466 0.950 . S
C471 C473 1.327 . S
C471 C477 1.429 . S
C472 C464 1.574 . S
C472 H467 0.949 . S
C472 C478 1.368 . S
C473 C457 1.349 . S
C473 H465 0.950 . S
C473 C471 1.327 . S
C474 C462 1.349 . S
C474 H468 0.950 1_565 S
C474 C475 1.327 . S
C475 H469 0.950 . S
C475 C474 1.327 . S
C475 C479 1.429 . S
C476 C459 1.574 . S
C476 H470 0.949 . S
C476 C480 1.368 . S
C477 C458 1.429 . S
C477 C471 1.429 . S
C477 C478 1.523 . S
C478 C459 1.368 . S
C478 C472 1.368 . S
C478 C477 1.523 . S
C479 C463 1.429 . S
C479 C475 1.429 . S
C479 C480 1.523 . S
C480 C464 1.368 . S
C480 C476 1.368 . S
C480 C479 1.523 . S
H481 C456 0.950 . S
H482 C458 0.950 . S
H483 C459 0.949 . S
H484 C461 0.950 . S
H485 C463 0.950 . S
C486 C487 1.349 . S
C486 C488 1.327 . S
C486 H511 0.950 . S
C487 C486 1.349 . S
C487 C503 1.349 . S
C488 C486 1.327 . S
C488 C507 1.429 . S
C488 H512 0.950 . S
C489 C506 1.574 . S
C489 C508 1.368 . S
C489 H513 0.949 . S
H490 C494 0.949 . S
C491 C492 1.349 . S
C491 C493 1.327 . S
C491 H514 0.950 . S
C492 C491 1.349 . S
C492 C504 1.349 . S
C493 C491 1.327 . S
C493 C509 1.429 . S
C493 H515 0.950 . S
C494 H490 0.949 . S
C494 C502 1.574 . S
C494 C510 1.368 . S
H495 C503 0.950 . S
H496 C501 0.950 . S
H497 C502 0.949 . S
H498 C504 0.950 . S
H499 C505 0.950 . S
H500 C506 0.949 . S
C501 H496 0.950 . S
C501 C503 1.327 . S
C501 C507 1.429 . S
C502 C494 1.574 . S
C502 H497 0.949 . S
C502 C508 1.368 . S
C503 C487 1.349 . S
C503 H495 0.950 . S
C503 C501 1.327 . S
C504 C492 1.349 . S
C504 H498 0.950 . S
C504 C505 1.327 . S
C505 H499 0.950 . S
C505 C504 1.327 . S
C505 C509 1.429 . S
C506 C489 1.574 . S
C506 H500 0.949 . S
C506 C510 1.368 . S
C507 C488 1.429 . S
C507 C501 1.429 . S
C507 C508 1.523 . S
C508 C489 1.368 . S
C508 C502 1.368 . S
C508 C507 1.523 . S
C509 C493 1.429 . S
C509 C505 1.429 . S
C509 C510 1.523 . S
C510 C494 1.368 . S
C510 C506 1.368 . S
C510 C509 1.523 . S
H511 C486 0.950 . S
H512 C488 0.950 . S
H513 C489 0.949 . S
H514 C491 0.950 . S
H515 C493 0.950 . S
C516 C517 1.349 . S
C516 C518 1.327 . S
C516 H541 0.950 . S
C517 C516 1.349 . S
C517 C533 1.349 . S
C518 C516 1.327 . S
C518 C537 1.429 . S
C518 H542 0.950 . S
C519 C536 1.574 . S
C519 C538 1.368 . S
C519 H543 0.949 . S
H520 C524 0.949 . S
C521 C522 1.349 . S
C521 C523 1.327 . S
C521 H544 0.950 . S
C522 C521 1.349 . S
C522 C534 1.349 . S
C523 C521 1.327 . S
C523 C539 1.429 . S
C523 H545 0.950 . S
C524 H520 0.949 . S
C524 C532 1.574 . S
C524 C540 1.368 . S
H525 C533 0.950 . S
H526 C531 0.950 . S
H527 C532 0.949 . S
H528 C534 0.950 . S
H529 C535 0.950 . S
H530 C536 0.949 . S
C531 H526 0.950 . S
C531 C533 1.327 . S
C531 C537 1.429 . S
C532 C524 1.574 . S
C532 H527 0.949 . S
C532 C538 1.368 . S
C533 C517 1.349 . S
C533 H525 0.950 . S
C533 C531 1.327 . S
C534 C522 1.349 . S
C534 H528 0.950 . S
C534 C535 1.327 . S
C535 H529 0.950 . S
C535 C534 1.327 . S
C535 C539 1.429 . S
C536 C519 1.574 . S
C536 H530 0.949 . S
C536 C540 1.368 . S
C537 C518 1.429 . S
C537 C531 1.429 . S
C537 C538 1.523 . S
C538 C519 1.368 . S
C538 C532 1.368 . S
C538 C537 1.523 . S
C539 C523 1.429 . S
C539 C535 1.429 . S
C539 C540 1.523 . S
C540 C524 1.368 . S
C540 C536 1.368 . S
C540 C539 1.523 . S
H541 C516 0.950 . S
H542 C518 0.950 . S
H543 C519 0.949 . S
H544 C521 0.950 . S
H545 C523 0.950 . S
C546 C547 1.349 . S
C546 C548 1.327 . S
C546 H571 0.950 . S
C547 C546 1.349 . S
C547 C563 1.349 . S
C548 C546 1.327 . S
C548 C567 1.429 . S
C548 H572 0.950 . S
C549 C566 1.574 . S
C549 C568 1.368 . S
C549 H573 0.949 . S
H550 C554 0.949 . S
C551 C552 1.349 . S
C551 C553 1.327 . S
C551 H574 0.950 . S
C552 C551 1.349 . S
C552 C564 1.349 . S
C553 C551 1.327 . S
C553 C569 1.429 . S
C553 H575 0.950 . S
C554 H550 0.949 . S
C554 C562 1.574 . S
C554 C570 1.368 . S
H555 C563 0.950 . S
H556 C561 0.950 . S
H557 C562 0.949 . S
H558 C564 0.950 . S
H559 C565 0.950 . S
H560 C566 0.949 . S
C561 H556 0.950 . S
C561 C563 1.327 . S
C561 C567 1.429 . S
C562 C554 1.574 . S
C562 H557 0.949 . S
C562 C568 1.368 . S
C563 C547 1.349 . S
C563 H555 0.950 . S
C563 C561 1.327 . S
C564 C552 1.349 . S
C564 H558 0.950 . S
C564 C565 1.327 . S
C565 H559 0.950 . S
C565 C564 1.327 . S
C565 C569 1.429 . S
C566 C549 1.574 . S
C566 H560 0.949 . S
C566 C570 1.368 . S
C567 C548 1.429 . S
C567 C561 1.429 . S
C567 C568 1.523 . S
C568 C549 1.368 . S
C568 C562 1.368 . S
C568 C567 1.523 . S
C569 C553 1.429 . S
C569 C565 1.429 . S
C569 C570 1.523 . S
C570 C554 1.368 . S
C570 C566 1.368 . S
C570 C569 1.523 . S
H571 C546 0.950 . S
H572 C548 0.950 . S
H573 C549 0.949 . S
H574 C551 0.950 . S
H575 C553 0.950 . S
C576 C577 1.349 . S
C576 C578 1.327 . S
C576 H601 0.950 . S
C577 C576 1.349 . S
C577 C593 1.349 . S
C578 C576 1.327 . S
C578 C597 1.429 . S
C578 H602 0.950 . S
C579 C596 1.574 1_455 S
C579 C598 1.368 . S
C579 H603 0.949 . S
H580 C584 0.949 . S
C581 C582 1.349 . S
C581 C583 1.327 . S
C581 H604 0.950 . S
C582 C581 1.349 . S
C582 C594 1.349 . S
C583 C581 1.327 . S
C583 C599 1.429 . S
C583 H605 0.950 . S
C584 H580 0.949 . S
C584 C592 1.574 . S
C584 C600 1.368 1_455 S
H585 C593 0.950 . S
H586 C591 0.950 . S
H587 C592 0.949 . S
H588 C594 0.950 . S
H589 C595 0.950 . S
H590 C596 0.949 . S
C591 H586 0.950 . S
C591 C593 1.327 . S
C591 C597 1.429 . S
C592 C584 1.574 . S
C592 H587 0.949 . S
C592 C598 1.368 . S
C593 C577 1.349 . S
C593 H585 0.950 . S
C593 C591 1.327 . S
C594 C582 1.349 . S
C594 H588 0.950 . S
C594 C595 1.327 . S
C595 H589 0.950 . S
C595 C594 1.327 . S
C595 C599 1.429 . S
C596 C579 1.574 1_655 S
C596 H590 0.949 . S
C596 C600 1.368 . S
C597 C578 1.429 . S
C597 C591 1.429 . S
C597 C598 1.523 . S
C598 C579 1.368 . S
C598 C592 1.368 . S
C598 C597 1.523 . S
C599 C583 1.429 . S
C599 C595 1.429 . S
C599 C600 1.523 . S
C600 C584 1.368 1_655 S
C600 C596 1.368 . S
C600 C599 1.523 . S
H601 C576 0.950 . S
H602 C578 0.950 . S
H603 C579 0.949 . S
H604 C581 0.950 . S
H605 C583 0.950 . S
C606 C607 1.349 . S
C606 C608 1.327 . S
C606 H631 0.950 . S
C607 C606 1.349 . S
C607 C623 1.349 . S
C608 C606 1.327 . S
C608 C627 1.429 . S
C608 H632 0.950 . S
C609 C626 1.574 . S
C609 C628 1.368 . S
C609 H633 0.949 . S
H610 C614 0.949 . S
C611 C612 1.349 . S
C611 C613 1.327 . S
C611 H634 0.950 . S
C612 C611 1.349 . S
C612 C624 1.349 . S
C613 C611 1.327 . S
C613 C629 1.429 . S
C613 H635 0.950 . S
C614 H610 0.949 . S
C614 C622 1.574 . S
C614 C630 1.368 . S
H615 C623 0.950 . S
H616 C621 0.950 . S
H617 C622 0.949 . S
H618 C624 0.950 . S
H619 C625 0.950 . S
H620 C626 0.949 . S
C621 H616 0.950 . S
C621 C623 1.327 . S
C621 C627 1.429 . S
C622 C614 1.574 . S
C622 H617 0.949 . S
C622 C628 1.368 . S
C623 C607 1.349 . S
C623 H615 0.950 . S
C623 C621 1.327 . S
C624 C612 1.349 . S
C624 H618 0.950 . S
C624 C625 1.327 . S
C625 H619 0.950 . S
C625 C624 1.327 . S
C625 C629 1.429 . S
C626 C609 1.574 . S
C626 H620 0.949 . S
C626 C630 1.368 . S
C627 C608 1.429 . S
C627 C621 1.429 . S
C627 C628 1.523 . S
C628 C609 1.368 . S
C628 C622 1.368 . S
C628 C627 1.523 . S
C629 C613 1.429 . S
C629 C625 1.429 . S
C629 C630 1.523 . S
C630 C614 1.368 . S
C630 C626 1.368 . S
C630 C629 1.523 . S
H631 C606 0.950 . S
H632 C608 0.950 . S
H633 C609 0.949 . S
H634 C611 0.950 . S
H635 C613 0.950 . S
C636 C637 1.349 . S
C636 C638 1.327 . S
C636 H661 0.950 . S
C637 C636 1.349 . S
C637 C653 1.349 . S
C638 C636 1.327 . S
C638 C657 1.429 . S
C638 H662 0.950 . S
C639 C656 1.574 . S
C639 C658 1.368 1_545 S
C639 H663 0.949 . S
H640 C644 0.949 . S
C641 C642 1.349 . S
C641 C643 1.327 . S
C641 H664 0.950 . S
C642 C641 1.349 . S
C642 C654 1.349 . S
C643 C641 1.327 . S
C643 C659 1.429 . S
C643 H665 0.950 . S
C644 H640 0.949 . S
C644 C652 1.574 1_545 S
C644 C660 1.368 . S
H645 C653 0.950 . S
H646 C651 0.950 . S
H647 C652 0.949 . S
H648 C654 0.950 . S
H649 C655 0.950 . S
H650 C656 0.949 . S
C651 H646 0.950 . S
C651 C653 1.327 . S
C651 C657 1.429 . S
C652 C644 1.574 1_565 S
C652 H647 0.949 . S
C652 C658 1.368 . S
C653 C637 1.349 . S
C653 H645 0.950 . S
C653 C651 1.327 . S
C654 C642 1.349 . S
C654 H648 0.950 . S
C654 C655 1.327 . S
C655 H649 0.950 . S
C655 C654 1.327 . S
C655 C659 1.429 . S
C656 C639 1.574 . S
C656 H650 0.949 . S
C656 C660 1.368 . S
C657 C638 1.429 . S
C657 C651 1.429 . S
C657 C658 1.523 . S
C658 C639 1.368 1_565 S
C658 C652 1.368 . S
C658 C657 1.523 . S
C659 C643 1.429 . S
C659 C655 1.429 . S
C659 C660 1.523 . S
C660 C644 1.368 . S
C660 C656 1.368 . S
C660 C659 1.523 . S
H661 C636 0.950 . S
H662 C638 0.950 . S
H663 C639 0.949 . S
H664 C641 0.950 . S
H665 C643 0.950 . S
C127 C37 1.117 . S
C132 C8 1.117 1_554 S
C157 C23 1.117 1_554 S
C162 C9 1.117 . S
C187 C22 1.118 . S
C192 C36 1.118 1_554 S
C217 C78 1.117 . S
C222 C51 1.117 . S
C247 C65 1.118 . S
C252 C50 1.118 . S
C277 C64 1.117 . S
C282 C79 1.117 . S
C307 C92 1.118 . S
C312 C121 1.118 . S
C337 C93 1.118 . S
C342 C107 1.118 . S
C367 C106 1.118 . S
C372 C120 1.118 . S
C397 C6 1.482 . S
C402 C104 1.482 . S
C427 C21 1.482 . S
C432 C119 1.482 . S
C457 C91 1.482 . S
C462 C34 1.482 . S
C487 C63 1.482 . S
C492 C35 1.482 . S
C517 C7 1.482 . S
C522 C77 1.482 . S
C547 C49 1.482 . S
C552 C20 1.482 . S
C577 C105 1.482 . S
C582 C76 1.482 . S
C607 C48 1.482 . S
C612 C118 1.482 . S
C637 C90 1.482 . S
C642 C62 1.482 . S
