# Generated by pormake.
# Topology unj, (4)-cn, num edge types: 1
# Building blocks:
#     Node 0, Type 0, BuildingBlock: QUQFOY_clean_sbu_1, # of connection points: 4
#     Node 1, Type 0, BuildingBlock: QUQFOY_clean_sbu_1, # of connection points: 4
#     Node 2, Type 0, BuildingBlock: QUQFOY_clean_sbu_1, # of connection points: 4
#     Node 3, Type 0, BuildingBlock: QUQFOY_clean_sbu_1, # of connection points: 4
#     Node 4, Type 0, BuildingBlock: QUQFOY_clean_sbu_1, # of connection points: 4
#     Node 5, Type 0, BuildingBlock: QUQFOY_clean_sbu_1, # of connection points: 4
#     Edge 6, Type (0, 0), BuildingBlock: MIFKUJ_clean_linker_0, # of connection points: 2
#     Edge 7, Type (0, 0), BuildingBlock: MIFKUJ_clean_linker_0, # of connection points: 2
#     Edge 8, Type (0, 0), BuildingBlock: MIFKUJ_clean_linker_0, # of connection points: 2
#     Edge 9, Type (0, 0), BuildingBlock: MIFKUJ_clean_linker_0, # of connection points: 2
#     Edge 10, Type (0, 0), BuildingBlock: MIFKUJ_clean_linker_0, # of connection points: 2
#     Edge 11, Type (0, 0), BuildingBlock: MIFKUJ_clean_linker_0, # of connection points: 2
#     Edge 12, Type (0, 0), BuildingBlock: MIFKUJ_clean_linker_0, # of connection points: 2
#     Edge 13, Type (0, 0), BuildingBlock: MIFKUJ_clean_linker_0, # of connection points: 2
#     Edge 14, Type (0, 0), BuildingBlock: MIFKUJ_clean_linker_0, # of connection points: 2
#     Edge 15, Type (0, 0), BuildingBlock: MIFKUJ_clean_linker_0, # of connection points: 2
#     Edge 16, Type (0, 0), BuildingBlock: MIFKUJ_clean_linker_0, # of connection points: 2
#     Edge 17, Type (0, 0), BuildingBlock: MIFKUJ_clean_linker_0, # of connection points: 2
# Relax obj value: 0.136
# Max RMSD: 0.187
# Mean RMSD: 0.187
data_MOF--net-unj--node1-QUQFOY_clean_sbu_1--edge1-MIFKUJ_clean_linker_0
_symmetry_space_group_name_H-M    P1
_symmetry_Int_Tables_number       1
_symmetry_cell_setting            triclinic
loop_
_symmetry_equiv_pos_as_xyz
'x, y, z'
_cell_length_a     43.907728
_cell_length_b     43.92993
_cell_length_c     49.106368
_cell_angle_alpha  89.953458
_cell_angle_beta   90.022771
_cell_angle_gamma 119.99959
loop_
_atom_site_label
_atom_site_type_symbol
_atom_site_fract_x
_atom_site_fract_y
_atom_site_fract_z
_atom_type_partial_charge
O0 O 0.49962 0.22359 0.63191 0.0
Cd1 Cd 0.4639 0.2207 0.6031 0.0
Cd2 Cd 0.51761 0.28391 0.58864 0.0
O3 O 0.54497 0.27333 0.61785 0.0
O4 O 0.42678 0.17026 0.60054 0.0
O5 O 0.46236 0.19959 0.56641 0.0
C6 C 0.43688 0.17049 0.57585 0.0
C7 C 0.54202 0.30235 0.54538 0.0
C8 C 0.53181 0.24719 0.634 0.0
C9 C 0.45193 0.28162 0.60947 0.0
O10 O 0.48366 0.30061 0.60181 0.0
O11 O 0.43812 0.2484 0.6105 0.0
O12 O 0.55306 0.32333 0.56598 0.0
O13 O 0.51727 0.27034 0.54942 0.0
O14 O 0.27372 0.4918 0.79894 0.0
Cd15 Cd 0.24181 0.45657 0.76962 0.0
Cd16 Cd 0.23263 0.51045 0.75473 0.0
O17 O 0.26926 0.53711 0.78496 0.0
O18 O 0.25656 0.42056 0.76665 0.0
O19 O 0.26161 0.4561 0.73281 0.0
C20 C 0.26633 0.43119 0.74202 0.0
C21 C 0.23994 0.53816 0.71263 0.0
C22 C 0.28191 0.52382 0.8013 0.0
C23 C 0.16873 0.44403 0.77465 0.0
O24 O 0.18152 0.47561 0.76658 0.0
O25 O 0.18827 0.43042 0.77662 0.0
O26 O 0.22887 0.54719 0.73372 0.0
O27 O 0.24735 0.51333 0.71545 0.0
O28 O 0.70827 0.18006 0.93493 0.0
Cd29 Cd 0.7204 0.22979 0.92233 0.0
Cd30 Cd 0.78554 0.24569 0.93807 0.0
O31 O 0.76114 0.1933 0.94912 0.0
O32 O 0.67994 0.22211 0.89914 0.0
O33 O 0.73426 0.24508 0.88345 0.0
C34 C 0.70151 0.23471 0.87895 0.0
C35 C 0.8353 0.26897 0.91026 0.0
C36 C 0.72878 0.17091 0.94575 0.0
C37 C 0.75358 0.28365 0.96662 0.0
O38 O 0.78017 0.27965 0.96398 0.0
O39 O 0.72649 0.2661 0.95186 0.0
O40 O 0.83696 0.263 0.93579 0.0
O41 O 0.80501 0.26125 0.90034 0.0
O42 O 0.50418 0.77815 0.13111 0.0
Cd43 Cd 0.54057 0.78178 0.10244 0.0
Cd44 Cd 0.48812 0.7162 0.09002 0.0
O45 O 0.46063 0.7259 0.11943 0.0
O46 O 0.57727 0.83244 0.10102 0.0
O47 O 0.54304 0.80415 0.06602 0.0
C48 C 0.56807 0.83299 0.07618 0.0
C49 C 0.46217 0.69527 0.04757 0.0
C50 C 0.47278 0.75311 0.13438 0.0
C51 C 0.55572 0.72267 0.10992 0.0
O52 O 0.52391 0.7021 0.10322 0.0
O53 O 0.56817 0.75575 0.10992 0.0
O54 O 0.453 0.67511 0.06867 0.0
O55 O 0.48605 0.72786 0.05061 0.0
O56 O 0.72655 0.50574 0.29747 0.0
Cd57 Cd 0.76027 0.54258 0.26993 0.0
Cd58 Cd 0.77171 0.49023 0.2546 0.0
O59 O 0.7343 0.46218 0.28418 0.0
O60 O 0.74534 0.57851 0.26766 0.0
O61 O 0.74397 0.54643 0.23245 0.0
C62 C 0.73816 0.57031 0.24233 0.0
C63 C 0.76431 0.46448 0.2117 0.0
C64 C 0.71965 0.47412 0.2998 0.0
C65 C 0.83371 0.55612 0.27688 0.0
O66 O 0.82255 0.52553 0.2671 0.0
O67 O 0.81301 0.56831 0.27954 0.0
O68 O 0.77502 0.45414 0.2323 0.0
O69 O 0.75773 0.48973 0.21543 0.0
O70 O 0.29872 0.82328 0.43455 0.0
Cd71 Cd 0.28326 0.77229 0.42272 0.0
Cd72 Cd 0.21941 0.76088 0.43794 0.0
O73 O 0.24612 0.81412 0.44562 0.0
O74 O 0.32352 0.77595 0.40142 0.0
O75 O 0.27113 0.75823 0.3834 0.0
C76 C 0.30325 0.7653 0.38039 0.0
C77 C 0.16929 0.73659 0.41052 0.0
C78 C 0.27905 0.83472 0.44329 0.0
C79 C 0.2478 0.72196 0.46921 0.0
O80 O 0.22327 0.7292 0.46706 0.0
O81 O 0.27372 0.73543 0.45284 0.0
O82 O 0.16873 0.74654 0.43513 0.0
O83 O 0.19869 0.74076 0.40126 0.0
H84 H 0.45876 0.15833 0.52681 0.0
H85 H 0.43247 0.10319 0.50114 0.0
H86 H 0.35049 0.05446 0.56153 0.0
H87 H 0.37718 0.10898 0.5876 0.0
H88 H 0.37389 0.01251 0.55036 0.0
H89 H 0.33657 0.07903 0.49677 0.0
H90 H 0.34348 0.12953 0.46987 0.0
H91 H 0.40833 0.11435 0.41236 0.0
H92 H 0.40219 0.06401 0.43913 0.0
H93 H 0.24989 0.86243 0.47711 0.0
H94 H 0.27797 0.92174 0.49619 0.0
H95 H 0.37172 0.95002 0.44975 0.0
H96 H 0.34411 0.89032 0.43092 0.0
H97 H 0.34456 0.00236 0.45196 0.0
H98 H 0.37992 0.93426 0.50758 0.0
H99 H 0.36877 0.88234 0.53458 0.0
H100 H 0.30243 0.89999 0.58878 0.0
H101 H 0.31275 0.95173 0.56181 0.0
C102 C 0.43501 0.13591 0.5345 0.0
C103 C 0.4201 0.138 0.55927 0.0
C104 C 0.4199 0.10443 0.51974 0.0
C105 C 0.38929 0.07465 0.52926 0.0
C106 C 0.37415 0.07697 0.55379 0.0
C107 C 0.38941 0.10823 0.56865 0.0
C108 C 0.37365 0.04062 0.51439 0.0
C109 C 0.36718 0.01039 0.52891 0.0
C110 C 0.36544 0.03772 0.48624 0.0
C111 C 0.36925 0.06801 0.47012 0.0
C112 C 0.35256 0.08665 0.47851 0.0
C113 C 0.35629 0.11521 0.46327 0.0
C114 C 0.37643 0.12521 0.43947 0.0
C115 C 0.3928 0.10661 0.43083 0.0
C116 C 0.38919 0.07805 0.44602 0.0
C117 C 0.27633 0.88134 0.47065 0.0
C118 C 0.29485 0.87162 0.45259 0.0
C119 C 0.29231 0.91518 0.4816 0.0
C120 C 0.32688 0.9401 0.47439 0.0
C121 C 0.34497 0.93108 0.45548 0.0
C122 C 0.32922 0.89698 0.44486 0.0
C123 C 0.34471 0.97472 0.48809 0.0
C124 C 0.35153 0.00484 0.47337 0.0
C125 C 0.35284 0.97755 0.51614 0.0
C126 C 0.34681 0.94662 0.5325 0.0
C127 C 0.36268 0.92687 0.52509 0.0
C128 C 0.35657 0.89751 0.54043 0.0
C129 C 0.33482 0.8878 0.56334 0.0
C130 C 0.31922 0.9075 0.57101 0.0
C131 C 0.32522 0.93686 0.55571 0.0
H132 H 0.33013 0.86507 0.57519 0.0
H133 H 0.37927 0.14732 0.42768 0.0
H134 H 0.38256 0.24961 0.62456 0.0
H135 H 0.35061 0.27753 0.64264 0.0
H136 H 0.44327 0.37947 0.63329 0.0
H137 H 0.47547 0.35187 0.61528 0.0
H138 H 0.4149 0.37109 0.68346 0.0
H139 H 0.37478 0.35525 0.59126 0.0
H140 H 0.34891 0.32224 0.54889 0.0
H141 H 0.25244 0.25477 0.59096 0.0
H142 H 0.27791 0.28708 0.6337 0.0
H143 H 0.28758 0.44534 0.68869 0.0
H144 H 0.31869 0.42187 0.66229 0.0
H145 H 0.31478 0.35915 0.73123 0.0
H146 H 0.28386 0.38235 0.75766 0.0
H147 H 0.30142 0.3535 0.64781 0.0
H148 H 0.39372 0.3622 0.7352 0.0
H149 H 0.42117 0.39764 0.77635 0.0
H150 H 0.41687 0.48477 0.74084 0.0
H151 H 0.38987 0.45003 0.69934 0.0
C152 C 0.39608 0.278 0.6261 0.0
C153 C 0.43164 0.29848 0.61853 0.0
C154 C 0.37772 0.29392 0.63635 0.0
C155 C 0.39453 0.33059 0.63921 0.0
C156 C 0.42981 0.35113 0.63126 0.0
C157 C 0.44813 0.33527 0.62089 0.0
C158 C 0.37592 0.3474 0.65186 0.0
C159 C 0.39014 0.3673 0.6756 0.0
C160 C 0.34383 0.34282 0.64143 0.0
C161 C 0.32837 0.32342 0.61574 0.0
C162 C 0.34814 0.3332 0.59153 0.0
C163 C 0.33353 0.31465 0.56743 0.0
C164 C 0.29908 0.28638 0.56724 0.0
C165 C 0.27913 0.27666 0.59114 0.0
C166 C 0.29363 0.29511 0.6153 0.0
C167 C 0.29319 0.4264 0.69816 0.0
C168 C 0.28342 0.41587 0.72533 0.0
C169 C 0.31084 0.41295 0.68302 0.0
C170 C 0.31934 0.38906 0.69491 0.0
C171 C 0.30884 0.37787 0.72177 0.0
C172 C 0.29108 0.39113 0.73683 0.0
C173 C 0.3401 0.3765 0.67966 0.0
C174 C 0.32626 0.35736 0.65554 0.0
C175 C 0.37277 0.38205 0.68955 0.0
C176 C 0.38947 0.40337 0.71427 0.0
C177 C 0.39877 0.38897 0.73613 0.0
C178 C 0.41423 0.40893 0.75952 0.0
C179 C 0.42066 0.4434 0.76124 0.0
C180 C 0.41176 0.45802 0.73952 0.0
C181 C 0.39633 0.43819 0.71608 0.0
H182 H 0.43259 0.4588 0.77937 0.0
H183 H 0.28781 0.27205 0.54857 0.0
H184 H 0.90284 0.29341 0.92693 0.0
H185 H 0.95631 0.32202 0.89949 0.0
H186 H 0.89454 0.30963 0.82772 0.0
H187 H 0.84061 0.28084 0.85513 0.0
H188 H 0.9479 0.29353 0.81864 0.0
H189 H 0.93515 0.38707 0.85628 0.0
H190 H 0.92606 0.42026 0.89276 0.0
H191 H 0.02017 0.43682 0.93268 0.0
H192 H 0.02955 0.40327 0.89663 0.0
H193 H 0.12014 0.46568 0.77445 0.0
H194 H 0.06025 0.43448 0.79234 0.0
H195 H 0.07295 0.34604 0.8131 0.0
H196 H 0.13282 0.3769 0.79497 0.0
H197 H 0.04055 0.41439 0.84343 0.0
H198 H 0.99268 0.27069 0.81052 0.0
H199 H 1.00058 0.23882 0.77235 0.0
H200 H 0.02543 0.32563 0.71894 0.0
H201 H 0.01721 0.35782 0.75669 0.0
C202 C 0.90051 0.29658 0.90529 0.0
C203 C 0.86745 0.28499 0.89323 0.0
C204 C 0.93114 0.31303 0.88965 0.0
C205 C 0.9294 0.31823 0.86163 0.0
C206 C 0.89642 0.30589 0.84933 0.0
C207 C 0.86568 0.28958 0.86503 0.0
C208 C 0.96222 0.33736 0.8455 0.0
C209 C 0.96816 0.31998 0.82397 0.0
C210 C 0.98836 0.37208 0.8522 0.0
C211 C 0.98289 0.3924 0.87387 0.0
C212 C 0.95376 0.39755 0.87295 0.0
C213 C 0.94858 0.41647 0.89353 0.0
C214 C 0.97248 0.43057 0.91505 0.0
C215 C 1.00166 0.42585 0.91601 0.0
C216 C 0.00694 0.40691 0.89549 0.0
C217 C 0.11011 0.43942 0.78251 0.0
C218 C 0.13139 0.42386 0.78333 0.0
C219 C 0.07586 0.42166 0.79279 0.0
C220 C 0.06204 0.38788 0.80397 0.0
C221 C 0.08287 0.3719 0.80424 0.0
C222 C 0.11718 0.38966 0.79396 0.0
C223 C 0.02669 0.37035 0.81686 0.0
C224 C 0.02029 0.38801 0.83791 0.0
C225 C 1.00004 0.33609 0.80946 0.0
C226 C 0.00462 0.31678 0.78652 0.0
C227 C 0.99968 0.28291 0.79061 0.0
C228 C 0.00424 0.26481 0.76905 0.0
C229 C 0.0136 0.28023 0.74326 0.0
C230 C 0.01831 0.31376 0.73895 0.0
C231 C 0.01375 0.33197 0.76043 0.0
H232 H 0.01714 0.26618 0.7266 0.0
H233 H 0.96843 0.44522 0.93096 0.0
H234 H 0.62942 0.89256 0.0882 0.0
H235 H 0.65735 0.94808 0.06342 0.0
H236 H 0.574 0.9044 0.00381 0.0
H237 H 0.54645 0.84807 0.02814 0.0
H238 H 0.63425 0.94377 0.9791 0.0
H239 H 0.57668 0.96014 0.05528 0.0
H240 H 0.56061 0.95924 0.1035 0.0
H241 H 0.66844 0.03186 0.1233 0.0
H242 H 0.68525 0.03283 0.07523 0.0
H243 H 0.66609 0.11299 0.93232 0.0
H244 H 0.64032 0.05383 0.95171 0.0
H245 H 0.73229 0.08738 1.00185 0.0
H246 H 0.75853 0.14648 0.9823 0.0
H247 H 0.66646 0.05313 0.0303 0.0
H248 H 0.72223 0.03615 0.95189 0.0
H249 H 0.73514 0.03749 0.9029 0.0
H250 H 0.62584 0.9665 0.88654 0.0
H251 H 0.61219 0.96513 0.93542 0.0
C252 C 0.61704 0.89467 0.06976 0.0
C253 C 0.58554 0.86602 0.06025 0.0
C254 C 0.63299 0.92653 0.05566 0.0
C255 C 0.6174 0.93076 0.03206 0.0
C256 C 0.58644 0.90185 0.02205 0.0
C257 C 0.57068 0.86971 0.03599 0.0
C258 C 0.63326 0.96552 0.01821 0.0
C259 C 0.64083 0.96759 0.99025 0.0
C260 C 0.64226 0.99678 0.03275 0.0
C261 C 0.63227 0.99628 0.06169 0.0
C262 C 0.59701 0.97571 0.06995 0.0
C263 C 0.58776 0.97522 0.09725 0.0
C264 C 0.6135 0.99541 0.11646 0.0
C265 C 0.64854 0.0162 0.1084 0.0
C266 C 0.65794 0.01675 0.08113 0.0
C267 C 0.681 0.10769 0.94726 0.0
C268 C 0.71434 0.13445 0.95581 0.0
C269 C 0.66628 0.07386 0.95825 0.0
C270 C 0.68444 0.06629 0.97817 0.0
C271 C 0.7179 0.09276 0.98646 0.0
C272 C 0.73289 0.12645 0.9752 0.0
C273 C 0.66774 0.0313 0.99141 0.0
C274 C 0.65987 0.02924 0.01924 0.0
C275 C 0.65797 1.00011 0.97666 0.0
C276 C 0.66614 1.00084 0.94728 0.0
C277 C 0.70089 0.02108 0.93782 0.0
C278 C 0.70836 0.02179 0.91008 0.0
C279 C 0.68131 0.00217 0.89161 0.0
C280 C 0.64675 0.98172 0.90086 0.0
C281 C 0.63915 0.98095 0.92859 0.0
H282 H 0.68714 0.00275 0.87014 0.0
H283 H 0.60629 0.995 0.13759 0.0
H284 H 0.73387 0.57126 0.18666 0.0
H285 H 0.70919 0.60037 0.15919 0.0
H286 H 0.68209 0.63536 0.23266 0.0
H287 H 0.70803 0.60783 0.25996 0.0
H288 H 0.64786 0.59154 0.15301 0.0
H289 H 0.68291 0.71038 0.22511 0.0
H290 H 0.73086 0.74947 0.2561 0.0
H291 H 0.80278 0.7278 0.2127 0.0
H292 H 0.75541 0.68898 0.18122 0.0
H293 H 0.53368 0.65696 0.12974 0.0
H294 H 0.56965 0.63344 0.1473 0.0
H295 H 0.66372 0.73074 0.12723 0.0
H296 H 0.6276 0.75509 0.11095 0.0
H297 H 0.67301 0.71253 0.17331 0.0
H298 H 0.63452 0.65053 0.09015 0.0
H299 H 0.59276 0.61473 0.05414 0.0
H300 H 0.53944 0.52893 0.11022 0.0
H301 H 0.58058 0.56437 0.14669 0.0
C302 C 0.72286 0.58541 0.19688 0.0
C303 C 0.72316 0.58752 0.22545 0.0
C304 C 0.7087 0.60198 0.18118 0.0
C305 C 0.6943 0.62068 0.19378 0.0
C306 C 0.69395 0.62207 0.22235 0.0
C307 C 0.70861 0.60609 0.23799 0.0
C308 C 0.67862 0.63787 0.17729 0.0
C309 C 0.65354 0.61808 0.15733 0.0
C310 C 0.68675 0.67292 0.18221 0.0
C311 C 0.7155 0.69654 0.20093 0.0
C312 C 0.70899 0.71409 0.22209 0.0
C313 C 0.73607 0.73617 0.23976 0.0
C314 C 0.76982 0.74104 0.23641 0.0
C315 C 0.7766 0.72392 0.21533 0.0
C316 C 0.74963 0.70183 0.19759 0.0
C317 C 0.56204 0.67326 0.12885 0.0
C318 C 0.57782 0.70786 0.1189 0.0
C319 C 0.58265 0.65968 0.13874 0.0
C320 C 0.61955 0.67999 0.13817 0.0
C321 C 0.63535 0.71446 0.1279 0.0
C322 C 0.6147 0.72835 0.11854 0.0
C323 C 0.6414 0.66581 0.14963 0.0
C324 C 0.66763 0.68616 0.16869 0.0
C325 C 0.63528 0.63177 0.1431 0.0
C326 C 0.61053 0.61022 0.12121 0.0
C327 C 0.61376 0.6241 0.09485 0.0
C328 C 0.59021 0.60386 0.07435 0.0
C329 C 0.56343 0.5696 0.0799 0.0
C330 C 0.56019 0.55547 0.10596 0.0
C331 C 0.58366 0.57561 0.12654 0.0
H332 H 0.54522 0.55397 0.06401 0.0
H333 H 0.79073 0.75813 0.25013 0.0
H334 H 0.15701 0.7 0.36273 0.0
H335 H 0.10184 0.67004 0.33707 0.0
H336 H 0.05352 0.70705 0.39476 0.0
H337 H 0.10802 0.73587 0.42088 0.0
H338 H 0.01106 0.6416 0.38552 0.0
H339 H 0.07907 0.74186 0.32839 0.0
H340 H 0.13002 0.78294 0.30063 0.0
H341 H 0.11322 0.69863 0.24716 0.0
H342 H 0.06241 0.65693 0.27482 0.0
H343 H 0.86116 0.61274 0.31097 0.0
H344 H 0.92028 0.64383 0.33045 0.0
H345 H 0.94872 0.57801 0.28474 0.0
H346 H 0.88926 0.54619 0.26541 0.0
H347 H 1.00132 0.65528 0.28611 0.0
H348 H 0.93139 0.55577 0.3444 0.0
H349 H 0.87923 0.51712 0.37203 0.0
H350 H 0.89927 0.60414 0.42355 0.0
H351 H 0.95128 0.64345 0.39594 0.0
C352 C 0.13467 0.70191 0.3698 0.0
C353 C 0.13684 0.72024 0.39386 0.0
C354 C 0.10317 0.6849 0.35506 0.0
C355 C 0.07349 0.68647 0.36382 0.0
C356 C 0.07593 0.70528 0.38761 0.0
C357 C 0.10718 0.72186 0.4025 0.0
C358 C 0.03943 0.66754 0.34896 0.0
C359 C 0.00903 0.64501 0.36384 0.0
C360 C 0.03665 0.67121 0.32051 0.0
C361 C 0.06718 0.69621 0.30385 0.0
C362 C 0.08642 0.73202 0.31084 0.0
C363 C 0.11524 0.75543 0.2951 0.0
C364 C 0.12492 0.74339 0.27219 0.0
C365 C 0.10573 0.70792 0.26494 0.0
C366 C 0.07691 0.68439 0.28062 0.0
C367 C 0.88004 0.60507 0.30479 0.0
C368 C 0.87044 0.57686 0.28673 0.0
C369 C 0.91379 0.62284 0.31598 0.0
C370 C 0.93872 0.61307 0.30909 0.0
C371 C 0.92979 0.58591 0.29025 0.0
C372 C 0.8958 0.5677 0.27934 0.0
C373 C 0.97336 0.63004 0.32284 0.0
C374 C 0.00368 0.65198 0.30777 0.0
C375 C 0.9761 0.62625 0.35117 0.0
C376 C 0.94501 0.60261 0.36793 0.0
C377 C 0.92449 0.56673 0.36147 0.0
C378 C 0.89499 0.54469 0.37716 0.0
C379 C 0.88588 0.55818 0.39949 0.0
C380 C 0.90633 0.59373 0.40622 0.0
C381 C 0.93584 0.6159 0.39057 0.0
H382 H 0.86303 0.54107 0.41161 0.0
H383 H 0.14724 0.76155 0.26003 0.0
H384 H 0.58373 0.37026 0.52948 0.0
H385 H 0.60734 0.39223 0.48417 0.0
H386 H 0.55811 0.28604 0.45376 0.0
H387 H 0.53379 0.26364 0.49925 0.0
H388 H 0.63179 0.33184 0.43833 0.0
H389 H 0.52116 0.32883 0.43632 0.0
H390 H 0.47523 0.34013 0.45412 0.0
H391 H 0.54791 0.45124 0.45263 0.0
H392 H 0.59444 0.44058 0.43521 0.0
H393 H 0.68652 0.40233 0.30484 0.0
H394 H 0.64979 0.36643 0.3427 0.0
H395 H 0.66414 0.46002 0.38298 0.0
H396 H 0.69934 0.49564 0.34481 0.0
H397 H 0.60046 0.41159 0.38993 0.0
H398 H 0.71249 0.4164 0.39919 0.0
H399 H 0.76135 0.4079 0.38423 0.0
H400 H 0.68989 0.29723 0.37484 0.0
H401 H 0.64051 0.30517 0.38946 0.0
C402 C 0.57791 0.35149 0.51322 0.0
C403 C 0.55684 0.31519 0.51794 0.0
C404 C 0.59134 0.36412 0.48732 0.0
C405 C 0.58423 0.34076 0.46563 0.0
C406 C 0.56377 0.30445 0.47028 0.0
C407 C 0.54987 0.29175 0.49621 0.0
C408 C 0.59848 0.35478 0.43824 0.0
C409 C 0.62448 0.3487 0.42738 0.0
C410 C 0.5894 0.37734 0.42439 0.0
C411 C 0.56136 0.38387 0.43462 0.0
C412 C 0.52743 0.35566 0.43997 0.0
C413 C 0.50127 0.36195 0.44996 0.0
C414 C 0.50866 0.39637 0.45455 0.0
C415 C 0.54222 0.42458 0.44908 0.0
C416 C 0.56848 0.41843 0.43911 0.0
C417 C 0.68159 0.41517 0.3217 0.0
C418 C 0.69596 0.45185 0.32187 0.0
C419 C 0.66075 0.39464 0.34341 0.0
C420 C 0.65464 0.41051 0.36601 0.0
C421 C 0.66837 0.44706 0.36584 0.0
C422 C 0.68861 0.46745 0.34398 0.0
C423 C 0.6347 0.38959 0.3902 0.0
C424 C 0.60751 0.39432 0.40053 0.0
C425 C 0.64313 0.36624 0.40379 0.0
C426 C 0.67278 0.36144 0.3951 0.0
C427 C 0.70718 0.3903 0.39375 0.0
C428 C 0.73496 0.38558 0.38537 0.0
C429 C 0.72871 0.35207 0.3785 0.0
C430 C 0.69467 0.32319 0.3801 0.0
C431 C 0.66679 0.32777 0.38845 0.0
H432 H 0.75025 0.34846 0.37201 0.0
H433 H 0.48838 0.40119 0.46229 0.0
H434 H 0.2852 0.6875 0.47408 0.0
H435 H 0.28645 0.65339 0.51329 0.0
H436 H 0.2114 0.67265 0.55507 0.0
H437 H 0.20933 0.70597 0.51594 0.0
H438 H 0.27736 0.69023 0.58441 0.0
H439 H 0.18122 0.59692 0.53323 0.0
H440 H 0.15481 0.56019 0.49251 0.0
H441 H 0.23137 0.52668 0.49541 0.0
H442 H 0.25857 0.56365 0.53596 0.0
H443 H 0.21862 0.58491 0.70007 0.0
H444 H 0.22386 0.61403 0.65675 0.0
H445 H 0.27485 0.56105 0.62166 0.0
H446 H 0.2688 0.53085 0.66512 0.0
H447 H 0.22894 0.56115 0.58659 0.0
H448 H 0.32255 0.64844 0.63877 0.0
H449 H 0.35228 0.68577 0.67858 0.0
H450 H 0.28681 0.73241 0.67259 0.0
H451 H 0.25631 0.69498 0.63296 0.0
C452 C 0.26872 0.68417 0.49153 0.0
C453 C 0.24717 0.69945 0.49192 0.0
C454 C 0.26944 0.66466 0.51384 0.0
C455 C 0.24905 0.66063 0.537 0.0
C456 C 0.22731 0.67553 0.53734 0.0
C457 C 0.22608 0.69443 0.51491 0.0
C458 C 0.25129 0.64216 0.56147 0.0
C459 C 0.26656 0.66198 0.58502 0.0
C460 C 0.23853 0.60557 0.56176 0.0
C461 C 0.22221 0.58341 0.5374 0.0
C462 C 0.19267 0.58203 0.52501 0.0
C463 C 0.17749 0.56109 0.502 0.0
C464 C 0.19148 0.54121 0.49132 0.0
C465 C 0.22061 0.54215 0.50367 0.0
C466 C 0.23591 0.56308 0.52667 0.0
C467 C 0.23106 0.57944 0.68321 0.0
C468 C 0.24353 0.55573 0.68611 0.0
C469 C 0.23418 0.59627 0.65843 0.0
C470 C 0.25038 0.5903 0.63605 0.0
C471 C 0.26244 0.56622 0.63869 0.0
C472 C 0.25905 0.54907 0.66354 0.0
C473 C 0.25413 0.60909 0.60997 0.0
C474 C 0.24016 0.58945 0.58603 0.0
C475 C 0.26869 0.64605 0.60916 0.0
C476 C 0.28696 0.66869 0.63299 0.0
C477 C 0.31431 0.66647 0.64606 0.0
C478 C 0.33133 0.68768 0.66857 0.0
C479 C 0.3214 0.7114 0.67814 0.0
C480 C 0.29446 0.714 0.66516 0.0
C481 C 0.27732 0.69283 0.64265 0.0
H482 H 0.33461 0.7278 0.69557 0.0
H483 H 0.17968 0.525 0.47351 0.0
H484 H 0.63371 0.20142 0.86131 0.0
H485 H 0.61181 0.20405 0.81619 0.0
H486 H 0.71773 0.27502 0.7893 0.0
H487 H 0.7401 0.27212 0.83456 0.0
H488 H 0.66646 0.29613 0.77637 0.0
H489 H 0.68354 0.19749 0.76626 0.0
H490 H 0.67867 0.14104 0.77934 0.0
H491 H 0.56606 0.0907 0.77561 0.0
H492 H 0.57023 0.147 0.7629 0.0
H493 H 0.60296 0.28849 0.64171 0.0
H494 H 0.63794 0.28663 0.67978 0.0
H495 H 0.54484 0.19985 0.71483 0.0
H496 H 0.50998 0.20086 0.67655 0.0
H497 H 0.5978 0.18885 0.72052 0.0
H498 H 0.57932 0.28673 0.73689 0.0
H499 H 0.58194 0.34281 0.726 0.0
H500 H 0.69446 0.39405 0.72007 0.0
H501 H 0.69245 0.33812 0.73059 0.0
C502 C 0.65243 0.21758 0.84583 0.0
C503 C 0.68865 0.23658 0.85149 0.0
C504 C 0.63986 0.21893 0.82003 0.0
C505 C 0.66318 0.23953 0.79941 0.0
C506 C 0.69936 0.25888 0.80498 0.0
C507 C 0.71206 0.25713 0.83077 0.0
C508 C 0.64925 0.2411 0.77228 0.0
C509 C 0.65208 0.27289 0.7638 0.0
C510 C 0.62985 0.21055 0.75632 0.0
C511 C 0.62721 0.17656 0.76382 0.0
C512 C 0.65772 0.17446 0.76844 0.0
C513 C 0.65509 0.14247 0.77575 0.0
C514 C 0.62208 0.11232 0.77836 0.0
C515 C 0.59162 0.11408 0.7736 0.0
C516 C 0.5941 0.14602 0.76631 0.0
C517 C 0.58998 0.26885 0.65743 0.0
C518 C 0.5536 0.24497 0.65615 0.0
C519 C 0.61 0.26792 0.67925 0.0
C520 C 0.59396 0.24346 0.70043 0.0
C521 C 0.55785 0.21898 0.69877 0.0
C522 C 0.5379 0.21967 0.67687 0.0
C523 C 0.6143 0.24378 0.72476 0.0
C524 C 0.61264 0.21229 0.73278 0.0
C525 C 0.63445 0.27455 0.74048 0.0
C526 C 0.6357 0.30817 0.73419 0.0
C527 C 0.60459 0.3099 0.73305 0.0
C528 C 0.60597 0.34166 0.72698 0.0
C529 C 0.63834 0.37195 0.72226 0.0
C530 C 0.66941 0.37055 0.72367 0.0
C531 C 0.66817 0.33884 0.7297 0.0
H532 H 0.63935 0.39652 0.71757 0.0
H533 H 0.62009 0.08757 0.78402 0.0
H534 H 0.30288 0.50072 0.84522 0.0
H535 H 0.33601 0.53462 0.88487 0.0
H536 H 0.34578 0.62878 0.84916 0.0
H537 H 0.31224 0.59496 0.80933 0.0
H538 H 0.40954 0.63672 0.8751 0.0
H539 H 0.287 0.59332 0.89377 0.0
H540 H 0.22439 0.54774 0.89655 0.0
H541 H 0.24941 0.49013 0.95436 0.0
H542 H 0.31228 0.53512 0.95161 0.0
H543 H 0.46435 0.73152 1.00133 0.0
H544 H 0.4358 0.70681 0.95755 0.0
H545 H 0.39586 0.60205 0.98949 0.0
H546 H 0.42305 0.62648 0.03331 0.0
H547 H 0.34634 0.60408 0.9635 0.0
H548 H 0.46801 0.6435 0.94369 0.0
H549 H 0.53138 0.68661 0.94047 0.0
H550 H 0.50962 0.74906 0.8851 0.0
H551 H 0.44605 0.70652 0.88827 0.0
C552 C 0.31233 0.52869 0.84559 0.0
C553 C 0.30467 0.54507 0.82416 0.0
C554 C 0.33123 0.54801 0.8683 0.0
C555 C 0.34306 0.5841 0.86999 0.0
C556 C 0.33682 0.60092 0.8482 0.0
C557 C 0.31754 0.58152 0.82554 0.0
C558 C 0.36024 0.60361 0.89523 0.0
C559 C 0.3957 0.63006 0.89442 0.0
C560 C 0.34222 0.59437 0.9204 0.0
C561 C 0.30438 0.56744 0.9223 0.0
C562 C 0.27919 0.57079 0.90691 0.0
C563 C 0.24365 0.54508 0.90851 0.0
C564 C 0.23294 0.51601 0.92557 0.0
C565 C 0.25775 0.51264 0.94113 0.0
C566 C 0.29333 0.53826 0.93958 0.0
C567 C 0.4495 0.70324 0.99893 0.0
C568 C 0.44587 0.68095 0.02078 0.0
C569 C 0.43335 0.68913 0.97386 0.0
C570 C 0.4139 0.6525 0.97006 0.0
C571 C 0.41055 0.63036 0.99188 0.0
C572 C 0.4262 0.64439 0.01695 0.0
C573 C 0.39618 0.63683 0.94374 0.0
C574 C 0.36037 0.61107 0.94427 0.0
C575 C 0.41408 0.64649 0.91841 0.0
C576 C 0.45226 0.67205 0.91647 0.0
C577 C 0.47672 0.66657 0.931 0.0
C578 C 0.51268 0.69087 0.92915 0.0
C579 C 0.52451 0.72061 0.91266 0.0
C580 C 0.50041 0.72605 0.89791 0.0
C581 C 0.46442 0.70185 0.89971 0.0
H582 H 0.55235 0.73939 0.91125 0.0
H583 H 0.20541 0.49614 0.92678 0.0
H584 H 0.80757 0.32613 1.00065 0.0
H585 H 0.80605 0.3607 0.03892 0.0
H586 H 0.69866 0.33015 0.01965 0.0
H587 H 0.69975 0.29501 0.98139 0.0
H588 H 0.79468 0.41536 0.04542 0.0
H589 H 0.65452 0.31642 0.08028 0.0
H590 H 0.61099 0.25321 0.07627 0.0
H591 H 0.69439 0.22969 0.06764 0.0
H592 H 0.73836 0.29267 0.07193 0.0
H593 H 0.75186 0.4857 0.16235 0.0
H594 H 0.74664 0.45828 0.11774 0.0
H595 H 0.76177 0.37824 0.15569 0.0
H596 H 0.76705 0.40532 0.20007 0.0
H597 H 0.70814 0.35048 0.11856 0.0
H598 H 0.82871 0.4453 0.12422 0.0
H599 H 0.8754 0.50707 0.1299 0.0
H600 H 0.83666 0.5366 0.06034 0.0
H601 H 0.78942 0.47501 0.05447 0.0
C602 C 0.78367 0.32696 0.00433 0.0
C603 C 0.75364 0.30744 0.98808 0.0
C604 C 0.78293 0.34692 0.02617 0.0
C605 C 0.75215 0.34772 0.03233 0.0
C606 C 0.72258 0.32957 0.01545 0.0
C607 C 0.72328 0.30955 0.99356 0.0
C608 C 0.75055 0.36564 0.05747 0.0
C609 C 0.77551 0.40128 0.06128 0.0
C610 C 0.72578 0.34722 0.07832 0.0
C611 C 0.69965 0.30925 0.0761 0.0
C612 C 0.66353 0.29772 0.0776 0.0
C613 C 0.63879 0.26195 0.07527 0.0
C614 C 0.64992 0.23747 0.0716 0.0
C615 C 0.6858 0.24869 0.07037 0.0
C616 C 0.71064 0.28442 0.07272 0.0
C617 C 0.75392 0.46218 0.16117 0.0
C618 C 0.76001 0.44776 0.18473 0.0
C619 C 0.751 0.4466 0.13569 0.0
C620 C 0.75394 0.4163 0.13342 0.0
C621 C 0.75931 0.40155 0.15699 0.0
C622 C 0.7625 0.41719 0.18234 0.0
C623 C 0.75236 0.40013 0.10655 0.0
C624 C 0.72681 0.36478 0.10245 0.0
C625 C 0.77691 0.41869 0.08563 0.0
C626 C 0.8053 0.45566 0.08911 0.0
C627 C 0.82997 0.46502 0.11028 0.0
C628 C 0.85657 0.49998 0.11351 0.0
C629 C 0.85893 0.52576 0.09555 0.0
C630 C 0.83475 0.51661 0.07427 0.0
C631 C 0.80808 0.48169 0.07098 0.0
H632 H 0.87954 0.55282 0.09807 0.0
H633 H 0.63073 0.2098 0.06977 0.0
H634 H 0.36703 0.77164 0.36989 0.0
H635 H 0.39096 0.76813 0.32597 0.0
H636 H 0.29489 0.74785 0.2864 0.0
H637 H 0.2706 0.75142 0.33052 0.0
H638 H 0.36878 0.71487 0.28945 0.0
H639 H 0.31945 0.78896 0.22271 0.0
H640 H 0.30126 0.83356 0.22731 0.0
H641 H 0.36815 0.87692 0.2972 0.0
H642 H 0.38706 0.83289 0.29279 0.0
H643 H 0.40821 0.70108 0.15161 0.0
H644 H 0.37461 0.7022 0.19088 0.0
H645 H 0.45383 0.80965 0.207 0.0
H646 H 0.4877 0.80885 0.16774 0.0
H647 H 0.38538 0.79748 0.21435 0.0
H648 H 0.45676 0.74715 0.24132 0.0
H649 H 0.47841 0.70519 0.23783 0.0
H650 H 0.3736 0.61906 0.25004 0.0
H651 H 0.35126 0.66054 0.25322 0.0
C652 C 0.35087 0.76634 0.35189 0.0
C653 C 0.31693 0.76191 0.35369 0.0
C654 C 0.36458 0.76422 0.3268 0.0
C655 C 0.34481 0.75792 0.30291 0.0
C656 C 0.3107 0.75304 0.30458 0.0
C657 C 0.29684 0.75497 0.3298 0.0
C658 C 0.36042 0.75694 0.27636 0.0
C659 C 0.37212 0.73274 0.27296 0.0
C660 C 0.3651 0.78047 0.25492 0.0
C661 C 0.35431 0.80737 0.25759 0.0
C662 C 0.33033 0.80808 0.23901 0.0
C663 C 0.3199 0.83325 0.24158 0.0
C664 C 0.33344 0.85797 0.26259 0.0
C665 C 0.35757 0.85767 0.281 0.0
C666 C 0.36811 0.83258 0.2785 0.0
C667 C 0.41836 0.72512 0.16329 0.0
C668 C 0.45085 0.7548 0.15665 0.0
C669 C 0.3991 0.72567 0.18575 0.0
C670 C 0.41189 0.7559 0.20196 0.0
C671 C 0.44349 0.78606 0.19472 0.0
C672 C 0.4629 0.78548 0.17235 0.0
C673 C 0.39363 0.75537 0.22751 0.0
C674 C 0.3815 0.77926 0.23071 0.0
C675 C 0.38888 0.73182 0.24893 0.0
C676 C 0.4023 0.7069 0.24721 0.0
C677 C 0.4383 0.71924 0.24305 0.0
C678 C 0.4507 0.69556 0.24116 0.0
C679 C 0.42738 0.65948 0.24363 0.0
C680 C 0.39162 0.64701 0.24808 0.0
C681 C 0.37908 0.67059 0.24994 0.0
H682 H 0.43703 0.64118 0.24217 0.0
H683 H 0.32532 0.87742 0.26457 0.0
loop_
_geom_bond_atom_site_label_1
_geom_bond_atom_site_label_2
_geom_bond_distance
_geom_bond_site_symmetry_2
_ccdc_geom_bond_type
O0 Cd1 2.223 . S
O0 C8 1.315 . S
Cd1 O0 2.223 . S
Cd1 O4 2.297 . S
Cd1 O5 2.439 . S
Cd1 O11 2.240 . S
Cd2 O3 2.240 . S
Cd2 O10 2.223 . S
Cd2 O12 2.297 . S
Cd2 O13 2.439 . S
O3 Cd2 2.240 . S
O3 C8 1.279 . S
O4 Cd1 2.297 . S
O4 C6 1.247 . S
O5 Cd1 2.439 . S
O5 C6 1.208 . S
C6 O4 1.247 . S
C6 O5 1.208 . S
C7 O12 1.247 . S
C7 O13 1.208 . S
C8 O0 1.315 . S
C8 O3 1.279 . S
C9 O10 1.315 . S
C9 O11 1.279 . S
O10 Cd2 2.223 . S
O10 C9 1.315 . S
O11 Cd1 2.240 . S
O11 C9 1.279 . S
O12 Cd2 2.297 . S
O12 C7 1.247 . S
O13 Cd2 2.439 . S
O13 C7 1.208 . S
O14 Cd15 2.223 . S
O14 C22 1.315 . S
Cd15 O14 2.223 . S
Cd15 O18 2.297 . S
Cd15 O19 2.439 . S
Cd15 O25 2.240 . S
Cd16 O17 2.240 . S
Cd16 O24 2.223 . S
Cd16 O26 2.297 . S
Cd16 O27 2.439 . S
O17 Cd16 2.240 . S
O17 C22 1.279 . S
O18 Cd15 2.297 . S
O18 C20 1.247 . S
O19 Cd15 2.439 . S
O19 C20 1.208 . S
C20 O18 1.247 . S
C20 O19 1.208 . S
C21 O26 1.247 . S
C21 O27 1.208 . S
C22 O14 1.315 . S
C22 O17 1.279 . S
C23 O24 1.315 . S
C23 O25 1.279 . S
O24 Cd16 2.223 . S
O24 C23 1.315 . S
O25 Cd15 2.240 . S
O25 C23 1.279 . S
O26 Cd16 2.297 . S
O26 C21 1.247 . S
O27 Cd16 2.439 . S
O27 C21 1.208 . S
O28 Cd29 2.223 . S
O28 C36 1.315 . S
Cd29 O28 2.223 . S
Cd29 O32 2.297 . S
Cd29 O33 2.439 . S
Cd29 O39 2.240 . S
Cd30 O31 2.240 . S
Cd30 O38 2.223 . S
Cd30 O40 2.297 . S
Cd30 O41 2.439 . S
O31 Cd30 2.240 . S
O31 C36 1.279 . S
O32 Cd29 2.297 . S
O32 C34 1.247 . S
O33 Cd29 2.439 . S
O33 C34 1.208 . S
C34 O32 1.247 . S
C34 O33 1.208 . S
C35 O40 1.247 . S
C35 O41 1.208 . S
C36 O28 1.315 . S
C36 O31 1.279 . S
C37 O38 1.315 . S
C37 O39 1.279 . S
O38 Cd30 2.223 . S
O38 C37 1.315 . S
O39 Cd29 2.240 . S
O39 C37 1.279 . S
O40 Cd30 2.297 . S
O40 C35 1.247 . S
O41 Cd30 2.439 . S
O41 C35 1.208 . S
O42 Cd43 2.223 . S
O42 C50 1.315 . S
Cd43 O42 2.223 . S
Cd43 O46 2.297 . S
Cd43 O47 2.439 . S
Cd43 O53 2.240 . S
Cd44 O45 2.240 . S
Cd44 O52 2.223 . S
Cd44 O54 2.297 . S
Cd44 O55 2.439 . S
O45 Cd44 2.240 . S
O45 C50 1.279 . S
O46 Cd43 2.297 . S
O46 C48 1.247 . S
O47 Cd43 2.439 . S
O47 C48 1.208 . S
C48 O46 1.247 . S
C48 O47 1.208 . S
C49 O54 1.247 . S
C49 O55 1.208 . S
C50 O42 1.315 . S
C50 O45 1.279 . S
C51 O52 1.315 . S
C51 O53 1.279 . S
O52 Cd44 2.223 . S
O52 C51 1.315 . S
O53 Cd43 2.240 . S
O53 C51 1.279 . S
O54 Cd44 2.297 . S
O54 C49 1.247 . S
O55 Cd44 2.439 . S
O55 C49 1.208 . S
O56 Cd57 2.223 . S
O56 C64 1.315 . S
Cd57 O56 2.223 . S
Cd57 O60 2.297 . S
Cd57 O61 2.439 . S
Cd57 O67 2.240 . S
Cd58 O59 2.240 . S
Cd58 O66 2.223 . S
Cd58 O68 2.297 . S
Cd58 O69 2.439 . S
O59 Cd58 2.240 . S
O59 C64 1.279 . S
O60 Cd57 2.297 . S
O60 C62 1.247 . S
O61 Cd57 2.439 . S
O61 C62 1.208 . S
C62 O60 1.247 . S
C62 O61 1.208 . S
C63 O68 1.247 . S
C63 O69 1.208 . S
C64 O56 1.315 . S
C64 O59 1.279 . S
C65 O66 1.315 . S
C65 O67 1.279 . S
O66 Cd58 2.223 . S
O66 C65 1.315 . S
O67 Cd57 2.240 . S
O67 C65 1.279 . S
O68 Cd58 2.297 . S
O68 C63 1.247 . S
O69 Cd58 2.439 . S
O69 C63 1.208 . S
O70 Cd71 2.223 . S
O70 C78 1.315 . S
Cd71 O70 2.223 . S
Cd71 O74 2.297 . S
Cd71 O75 2.439 . S
Cd71 O81 2.240 . S
Cd72 O73 2.240 . S
Cd72 O80 2.223 . S
Cd72 O82 2.297 . S
Cd72 O83 2.439 . S
O73 Cd72 2.240 . S
O73 C78 1.279 . S
O74 Cd71 2.297 . S
O74 C76 1.247 . S
O75 Cd71 2.439 . S
O75 C76 1.208 . S
C76 O74 1.247 . S
C76 O75 1.208 . S
C77 O82 1.247 . S
C77 O83 1.208 . S
C78 O70 1.315 . S
C78 O73 1.279 . S
C79 O80 1.315 . S
C79 O81 1.279 . S
O80 Cd72 2.223 . S
O80 C79 1.315 . S
O81 Cd71 2.240 . S
O81 C79 1.279 . S
O82 Cd72 2.297 . S
O82 C77 1.247 . S
O83 Cd72 2.439 . S
O83 C77 1.208 . S
H84 C102 0.951 . S
H85 C104 0.951 . S
H86 C106 0.950 . S
H87 C107 0.950 . S
H88 C109 0.950 . S
H89 C112 0.950 . S
H90 C113 0.950 . S
H91 C115 0.950 . S
H92 C116 0.950 . S
H93 C117 0.951 . S
H94 C119 0.951 . S
H95 C121 0.950 . S
H96 C122 0.950 . S
H97 C124 0.950 . S
H98 C127 0.950 . S
H99 C128 0.950 . S
H100 C130 0.950 . S
H101 C131 0.950 . S
C102 H84 0.951 . S
C102 C103 1.366 . S
C102 C104 1.388 . S
C103 C102 1.366 . S
C103 C107 1.385 . S
C104 H85 0.951 . S
C104 C102 1.388 . S
C104 C105 1.366 . S
C105 C104 1.366 . S
C105 C106 1.414 . S
C105 C108 1.499 1_545 S
C106 H86 0.950 . S
C106 C105 1.414 . S
C106 C107 1.374 . S
C107 H87 0.950 . S
C107 C103 1.385 . S
C107 C106 1.374 . S
C108 C105 1.499 1_565 S
C108 C109 1.373 . S
C108 C110 1.389 . S
C109 H88 0.950 . S
C109 C108 1.373 . S
C109 C125 1.377 . S
C110 C108 1.389 . S
C110 C111 1.524 1_565 S
C110 C124 1.377 . S
C111 C110 1.524 1_545 S
C111 C112 1.397 . S
C111 C116 1.363 . S
C112 H89 0.950 . S
C112 C111 1.397 . S
C112 C113 1.334 . S
C113 H90 0.950 . S
C113 C112 1.334 . S
C113 C114 1.287 . S
C114 C113 1.287 . S
C114 C115 1.524 . S
C114 H133 0.913 . S
C115 H91 0.950 . S
C115 C114 1.524 . S
C115 C116 1.415 . S
C116 H92 0.950 . S
C116 C111 1.363 . S
C116 C115 1.415 . S
C117 H93 0.951 . S
C117 C118 1.366 . S
C117 C119 1.388 . S
C118 C117 1.366 . S
C118 C122 1.385 . S
C119 H94 0.951 . S
C119 C117 1.388 . S
C119 C120 1.366 . S
C120 C119 1.366 . S
C120 C121 1.414 . S
C120 C123 1.499 . S
C121 H95 0.950 . S
C121 C120 1.414 . S
C121 C122 1.374 . S
C122 H96 0.950 . S
C122 C118 1.385 . S
C122 C121 1.374 . S
C123 C120 1.499 . S
C123 C124 1.373 . S
C123 C125 1.389 . S
C124 H97 0.950 . S
C124 C110 1.377 . S
C124 C123 1.373 . S
C125 C109 1.377 . S
C125 C123 1.389 . S
C125 C126 1.524 . S
C126 C125 1.524 . S
C126 C127 1.397 . S
C126 C131 1.363 . S
C127 H98 0.950 . S
C127 C126 1.397 . S
C127 C128 1.334 . S
C128 H99 0.950 . S
C128 C127 1.334 . S
C128 C129 1.287 . S
C129 C128 1.287 . S
C129 C130 1.524 . S
C129 H132 0.999 . S
C130 H100 0.950 . S
C130 C129 1.524 . S
C130 C131 1.415 . S
C131 H101 0.950 . S
C131 C126 1.363 . S
C131 C130 1.415 . S
H132 C129 0.999 . S
H133 C114 0.913 . S
H134 C152 0.951 . S
H135 C154 0.951 . S
H136 C156 0.950 . S
H137 C157 0.950 . S
H138 C159 0.950 . S
H139 C162 0.950 . S
H140 C163 0.950 . S
H141 C165 0.950 . S
H142 C166 0.950 . S
H143 C167 0.951 . S
H144 C169 0.951 . S
H145 C171 0.950 . S
H146 C172 0.950 . S
H147 C174 0.950 . S
H148 C177 0.950 . S
H149 C178 0.950 . S
H150 C180 0.950 . S
H151 C181 0.950 . S
C152 H134 0.951 . S
C152 C153 1.366 . S
C152 C154 1.388 . S
C153 C152 1.366 . S
C153 C157 1.385 . S
C154 H135 0.951 . S
C154 C152 1.388 . S
C154 C155 1.366 . S
C155 C154 1.366 . S
C155 C156 1.414 . S
C155 C158 1.499 . S
C156 H136 0.950 . S
C156 C155 1.414 . S
C156 C157 1.374 . S
C157 H137 0.950 . S
C157 C153 1.385 . S
C157 C156 1.374 . S
C158 C155 1.499 . S
C158 C159 1.373 . S
C158 C160 1.389 . S
C159 H138 0.950 . S
C159 C158 1.373 . S
C159 C175 1.377 . S
C160 C158 1.389 . S
C160 C161 1.524 . S
C160 C174 1.377 . S
C161 C160 1.524 . S
C161 C162 1.397 . S
C161 C166 1.363 . S
C162 H139 0.950 . S
C162 C161 1.397 . S
C162 C163 1.334 . S
C163 H140 0.950 . S
C163 C162 1.334 . S
C163 C164 1.287 . S
C164 C163 1.287 . S
C164 C165 1.524 . S
C164 H183 0.913 . S
C165 H141 0.950 . S
C165 C164 1.524 . S
C165 C166 1.415 . S
C166 H142 0.950 . S
C166 C161 1.363 . S
C166 C165 1.415 . S
C167 H143 0.951 . S
C167 C168 1.366 . S
C167 C169 1.388 . S
C168 C167 1.366 . S
C168 C172 1.385 . S
C169 H144 0.951 . S
C169 C167 1.388 . S
C169 C170 1.366 . S
C170 C169 1.366 . S
C170 C171 1.414 . S
C170 C173 1.499 . S
C171 H145 0.950 . S
C171 C170 1.414 . S
C171 C172 1.374 . S
C172 H146 0.950 . S
C172 C168 1.385 . S
C172 C171 1.374 . S
C173 C170 1.499 . S
C173 C174 1.373 . S
C173 C175 1.389 . S
C174 H147 0.950 . S
C174 C160 1.377 . S
C174 C173 1.373 . S
C175 C159 1.377 . S
C175 C173 1.389 . S
C175 C176 1.524 . S
C176 C175 1.524 . S
C176 C177 1.397 . S
C176 C181 1.363 . S
C177 H148 0.950 . S
C177 C176 1.397 . S
C177 C178 1.334 . S
C178 H149 0.950 . S
C178 C177 1.334 . S
C178 C179 1.287 . S
C179 C178 1.287 . S
C179 C180 1.524 . S
C179 H182 0.999 . S
C180 H150 0.950 . S
C180 C179 1.524 . S
C180 C181 1.415 . S
C181 H151 0.950 . S
C181 C176 1.363 . S
C181 C180 1.415 . S
H182 C179 0.999 . S
H183 C164 0.913 . S
H184 C202 0.951 . S
H185 C204 0.951 . S
H186 C206 0.950 . S
H187 C207 0.950 . S
H188 C209 0.950 1_655 S
H189 C212 0.950 . S
H190 C213 0.950 . S
H191 C215 0.950 . S
H192 C216 0.950 . S
H193 C217 0.951 . S
H194 C219 0.951 . S
H195 C221 0.950 . S
H196 C222 0.950 . S
H197 C224 0.950 . S
H198 C227 0.950 . S
H199 C228 0.950 . S
H200 C230 0.950 . S
H201 C231 0.950 . S
C202 H184 0.951 . S
C202 C203 1.366 . S
C202 C204 1.388 . S
C203 C202 1.366 . S
C203 C207 1.385 . S
C204 H185 0.951 . S
C204 C202 1.388 . S
C204 C205 1.366 . S
C205 C204 1.366 . S
C205 C206 1.414 . S
C205 C208 1.472 1_655 S
C206 H186 0.950 . S
C206 C205 1.414 . S
C206 C207 1.374 . S
C207 H187 0.950 . S
C207 C203 1.385 . S
C207 C206 1.374 . S
C208 C205 1.472 1_455 S
C208 C209 1.392 . S
C208 C210 1.401 . S
C209 H188 0.950 1_455 S
C209 C208 1.392 . S
C209 C225 1.377 . S
C210 C208 1.401 . S
C210 C211 1.524 . S
C210 C224 1.377 . S
C211 C210 1.524 . S
C211 C212 1.397 1_455 S
C211 C216 1.363 . S
C212 H189 0.950 . S
C212 C211 1.397 1_655 S
C212 C213 1.334 . S
C213 H190 0.950 . S
C213 C212 1.334 . S
C213 C214 1.287 1_655 S
C214 C213 1.287 1_455 S
C214 C215 1.524 . S
C214 H233 0.913 . S
C215 H191 0.950 . S
C215 C214 1.524 . S
C215 C216 1.415 . S
C216 H192 0.950 . S
C216 C211 1.363 . S
C216 C215 1.415 . S
C217 H193 0.951 . S
C217 C218 1.366 . S
C217 C219 1.388 . S
C218 C217 1.366 . S
C218 C222 1.385 . S
C219 H194 0.951 . S
C219 C217 1.388 . S
C219 C220 1.366 . S
C220 C219 1.366 . S
C220 C221 1.414 . S
C220 C223 1.499 . S
C221 H195 0.950 . S
C221 C220 1.414 . S
C221 C222 1.374 . S
C222 H196 0.950 . S
C222 C218 1.385 . S
C222 C221 1.374 . S
C223 C220 1.499 . S
C223 C224 1.373 . S
C223 C225 1.389 . S
C224 H197 0.950 . S
C224 C210 1.377 . S
C224 C223 1.373 . S
C225 C209 1.377 . S
C225 C223 1.389 . S
C225 C226 1.524 . S
C226 C225 1.524 . S
C226 C227 1.397 . S
C226 C231 1.363 . S
C227 H198 0.950 . S
C227 C226 1.397 . S
C227 C228 1.334 . S
C228 H199 0.950 . S
C228 C227 1.334 . S
C228 C229 1.287 . S
C229 C228 1.287 . S
C229 C230 1.524 . S
C229 H232 0.999 . S
C230 H200 0.950 . S
C230 C229 1.524 . S
C230 C231 1.415 . S
C231 H201 0.950 . S
C231 C226 1.363 . S
C231 C230 1.415 . S
H232 C229 0.999 . S
H233 C214 0.913 . S
H234 C252 0.951 . S
H235 C254 0.951 . S
H236 C256 0.953 1_556 S
H237 C257 0.950 . S
H238 C259 0.950 1_565 S
H239 C262 0.950 1_565 S
H240 C263 0.950 1_565 S
H241 C265 0.950 . S
H242 C266 0.950 . S
H243 C267 0.951 . S
H244 C269 0.951 . S
H245 C271 0.950 1_554 S
H246 C272 0.950 . S
H247 C274 0.950 . S
H248 C277 0.950 . S
H249 C278 0.950 . S
H250 C280 0.951 1_565 S
H251 C281 0.952 . S
C252 H234 0.951 . S
C252 C253 1.366 . S
C252 C254 1.388 . S
C253 C252 1.366 . S
C253 C257 1.385 . S
C254 H235 0.951 . S
C254 C252 1.388 . S
C254 C255 1.366 . S
C255 C254 1.366 . S
C255 C256 1.414 . S
C255 C258 1.499 1_565 S
C256 H236 0.953 1_554 S
C256 C255 1.414 . S
C256 C257 1.374 . S
C257 H237 0.950 . S
C257 C253 1.385 . S
C257 C256 1.374 . S
C258 C255 1.499 1_545 S
C258 C259 1.373 1_554 S
C258 C260 1.389 . S
C259 H238 0.950 1_545 S
C259 C258 1.373 1_556 S
C259 C275 1.377 . S
C260 C258 1.389 . S
C260 C261 1.524 . S
C260 C274 1.377 . S
C261 C260 1.524 . S
C261 C262 1.397 . S
C261 C266 1.363 . S
C262 H239 0.950 1_545 S
C262 C261 1.397 . S
C262 C263 1.334 . S
C263 H240 0.950 1_545 S
C263 C262 1.334 . S
C263 C264 1.287 . S
C264 C263 1.287 . S
C264 C265 1.524 . S
C264 H283 0.913 . S
C265 H241 0.950 . S
C265 C264 1.524 . S
C265 C266 1.415 . S
C266 H242 0.950 . S
C266 C261 1.363 . S
C266 C265 1.415 . S
C267 H243 0.951 . S
C267 C268 1.366 . S
C267 C269 1.388 . S
C268 C267 1.366 . S
C268 C272 1.385 . S
C269 H244 0.951 . S
C269 C267 1.388 . S
C269 C270 1.366 . S
C270 C269 1.366 . S
C270 C271 1.414 . S
C270 C273 1.499 . S
C271 H245 0.950 1_556 S
C271 C270 1.414 . S
C271 C272 1.374 . S
C272 H246 0.950 . S
C272 C268 1.385 . S
C272 C271 1.374 . S
C273 C270 1.499 . S
C273 C274 1.373 1_556 S
C273 C275 1.389 . S
C274 H247 0.950 . S
C274 C260 1.377 . S
C274 C273 1.373 1_554 S
C275 C259 1.377 . S
C275 C273 1.389 . S
C275 C276 1.524 . S
C276 C275 1.524 . S
C276 C277 1.397 . S
C276 C281 1.363 . S
C277 H248 0.950 . S
C277 C276 1.397 . S
C277 C278 1.334 . S
C278 H249 0.950 . S
C278 C277 1.334 . S
C278 C279 1.287 . S
C279 C278 1.287 . S
C279 C280 1.524 . S
C279 H282 0.999 . S
C280 H250 0.951 1_545 S
C280 C279 1.524 . S
C280 C281 1.415 . S
C281 H251 0.952 . S
C281 C276 1.363 . S
C281 C280 1.415 . S
H282 C279 0.999 . S
H283 C264 0.913 . S
H284 C302 0.951 . S
H285 C304 0.951 . S
H286 C306 0.950 . S
H287 C307 0.950 . S
H288 C309 0.950 . S
H289 C312 0.950 . S
H290 C313 0.950 . S
H291 C315 0.950 . S
H292 C316 0.950 . S
H293 C317 0.951 . S
H294 C319 0.951 . S
H295 C321 0.950 . S
H296 C322 0.950 . S
H297 C324 0.950 . S
H298 C327 0.950 . S
H299 C328 0.950 . S
H300 C330 0.950 . S
H301 C331 0.950 . S
C302 H284 0.951 . S
C302 C303 1.366 . S
C302 C304 1.388 . S
C303 C302 1.366 . S
C303 C307 1.385 . S
C304 H285 0.951 . S
C304 C302 1.388 . S
C304 C305 1.366 . S
C305 C304 1.366 . S
C305 C306 1.414 . S
C305 C308 1.499 . S
C306 H286 0.950 . S
C306 C305 1.414 . S
C306 C307 1.374 . S
C307 H287 0.950 . S
C307 C303 1.385 . S
C307 C306 1.374 . S
C308 C305 1.499 . S
C308 C309 1.373 . S
C308 C310 1.389 . S
C309 H288 0.950 . S
C309 C308 1.373 . S
C309 C325 1.377 . S
C310 C308 1.389 . S
C310 C311 1.524 . S
C310 C324 1.377 . S
C311 C310 1.524 . S
C311 C312 1.397 . S
C311 C316 1.363 . S
C312 H289 0.950 . S
C312 C311 1.397 . S
C312 C313 1.334 . S
C313 H290 0.950 . S
C313 C312 1.334 . S
C313 C314 1.287 . S
C314 C313 1.287 . S
C314 C315 1.524 . S
C314 H333 0.913 . S
C315 H291 0.950 . S
C315 C314 1.524 . S
C315 C316 1.415 . S
C316 H292 0.950 . S
C316 C311 1.363 . S
C316 C315 1.415 . S
C317 H293 0.951 . S
C317 C318 1.366 . S
C317 C319 1.388 . S
C318 C317 1.366 . S
C318 C322 1.385 . S
C319 H294 0.951 . S
C319 C317 1.388 . S
C319 C320 1.366 . S
C320 C319 1.366 . S
C320 C321 1.414 . S
C320 C323 1.499 . S
C321 H295 0.950 . S
C321 C320 1.414 . S
C321 C322 1.374 . S
C322 H296 0.950 . S
C322 C318 1.385 . S
C322 C321 1.374 . S
C323 C320 1.499 . S
C323 C324 1.373 . S
C323 C325 1.389 . S
C324 H297 0.950 . S
C324 C310 1.377 . S
C324 C323 1.373 . S
C325 C309 1.377 . S
C325 C323 1.389 . S
C325 C326 1.524 . S
C326 C325 1.524 . S
C326 C327 1.397 . S
C326 C331 1.363 . S
C327 H298 0.950 . S
C327 C326 1.397 . S
C327 C328 1.334 . S
C328 H299 0.950 . S
C328 C327 1.334 . S
C328 C329 1.287 . S
C329 C328 1.287 . S
C329 C330 1.524 . S
C329 H332 0.999 . S
C330 H300 0.950 . S
C330 C329 1.524 . S
C330 C331 1.415 . S
C331 H301 0.950 . S
C331 C326 1.363 . S
C331 C330 1.415 . S
H332 C329 0.999 . S
H333 C314 0.913 . S
H334 C352 0.951 . S
H335 C354 0.951 . S
H336 C356 0.950 . S
H337 C357 0.950 . S
H338 C359 0.950 . S
H339 C362 0.950 . S
H340 C363 0.950 . S
H341 C365 0.950 . S
H342 C366 0.950 . S
H343 C367 0.951 . S
H344 C369 0.951 . S
H345 C371 0.950 . S
H346 C372 0.950 . S
H347 C374 0.950 . S
H348 C377 0.950 . S
H349 C378 0.950 . S
H350 C380 0.950 . S
H351 C381 0.950 . S
C352 H334 0.951 . S
C352 C353 1.366 . S
C352 C354 1.388 . S
C353 C352 1.366 . S
C353 C357 1.385 . S
C354 H335 0.951 . S
C354 C352 1.388 . S
C354 C355 1.366 . S
C355 C354 1.366 . S
C355 C356 1.414 . S
C355 C358 1.499 1_455 S
C356 H336 0.950 . S
C356 C355 1.414 . S
C356 C357 1.374 . S
C357 H337 0.950 . S
C357 C353 1.385 . S
C357 C356 1.374 . S
C358 C355 1.499 1_655 S
C358 C359 1.373 . S
C358 C360 1.389 . S
C359 H338 0.950 . S
C359 C358 1.373 . S
C359 C375 1.377 . S
C360 C358 1.389 . S
C360 C361 1.524 1_655 S
C360 C374 1.377 . S
C361 C360 1.524 1_455 S
C361 C362 1.397 . S
C361 C366 1.363 . S
C362 H339 0.950 . S
C362 C361 1.397 . S
C362 C363 1.334 . S
C363 H340 0.950 . S
C363 C362 1.334 . S
C363 C364 1.287 . S
C364 C363 1.287 . S
C364 C365 1.524 . S
C364 H383 0.913 . S
C365 H341 0.950 . S
C365 C364 1.524 . S
C365 C366 1.415 . S
C366 H342 0.950 . S
C366 C361 1.363 . S
C366 C365 1.415 . S
C367 H343 0.951 . S
C367 C368 1.366 . S
C367 C369 1.388 . S
C368 C367 1.366 . S
C368 C372 1.385 . S
C369 H344 0.951 . S
C369 C367 1.388 . S
C369 C370 1.366 . S
C370 C369 1.366 . S
C370 C371 1.414 . S
C370 C373 1.499 . S
C371 H345 0.950 . S
C371 C370 1.414 . S
C371 C372 1.374 . S
C372 H346 0.950 . S
C372 C368 1.385 . S
C372 C371 1.374 . S
C373 C370 1.499 . S
C373 C374 1.373 . S
C373 C375 1.389 . S
C374 H347 0.950 . S
C374 C360 1.377 . S
C374 C373 1.373 . S
C375 C359 1.377 . S
C375 C373 1.389 . S
C375 C376 1.524 . S
C376 C375 1.524 . S
C376 C377 1.397 . S
C376 C381 1.363 . S
C377 H348 0.950 . S
C377 C376 1.397 . S
C377 C378 1.334 . S
C378 H349 0.950 . S
C378 C377 1.334 . S
C378 C379 1.287 . S
C379 C378 1.287 . S
C379 C380 1.524 . S
C379 H382 0.999 . S
C380 H350 0.950 . S
C380 C379 1.524 . S
C380 C381 1.415 . S
C381 H351 0.950 . S
C381 C376 1.363 . S
C381 C380 1.415 . S
H382 C379 0.999 . S
H383 C364 0.913 . S
H384 C402 0.951 . S
H385 C404 0.951 . S
H386 C406 0.950 . S
H387 C407 0.950 . S
H388 C409 0.950 . S
H389 C412 0.950 . S
H390 C413 0.950 . S
H391 C415 0.950 . S
H392 C416 0.950 . S
H393 C417 0.951 . S
H394 C419 0.951 . S
H395 C421 0.950 . S
H396 C422 0.950 . S
H397 C424 0.950 . S
H398 C427 0.950 . S
H399 C428 0.950 . S
H400 C430 0.950 . S
H401 C431 0.950 . S
C402 H384 0.951 . S
C402 C403 1.366 . S
C402 C404 1.388 . S
C403 C402 1.366 . S
C403 C407 1.385 . S
C404 H385 0.951 . S
C404 C402 1.388 . S
C404 C405 1.366 . S
C405 C404 1.366 . S
C405 C406 1.414 . S
C405 C408 1.499 . S
C406 H386 0.950 . S
C406 C405 1.414 . S
C406 C407 1.374 . S
C407 H387 0.950 . S
C407 C403 1.385 . S
C407 C406 1.374 . S
C408 C405 1.499 . S
C408 C409 1.373 . S
C408 C410 1.389 . S
C409 H388 0.950 . S
C409 C408 1.373 . S
C409 C425 1.377 . S
C410 C408 1.389 . S
C410 C411 1.524 . S
C410 C424 1.377 . S
C411 C410 1.524 . S
C411 C412 1.397 . S
C411 C416 1.363 . S
C412 H389 0.950 . S
C412 C411 1.397 . S
C412 C413 1.334 . S
C413 H390 0.950 . S
C413 C412 1.334 . S
C413 C414 1.287 . S
C414 C413 1.287 . S
C414 C415 1.524 . S
C414 H433 0.913 . S
C415 H391 0.950 . S
C415 C414 1.524 . S
C415 C416 1.415 . S
C416 H392 0.950 . S
C416 C411 1.363 . S
C416 C415 1.415 . S
C417 H393 0.951 . S
C417 C418 1.366 . S
C417 C419 1.388 . S
C418 C417 1.366 . S
C418 C422 1.385 . S
C419 H394 0.951 . S
C419 C417 1.388 . S
C419 C420 1.366 . S
C420 C419 1.366 . S
C420 C421 1.414 . S
C420 C423 1.499 . S
C421 H395 0.950 . S
C421 C420 1.414 . S
C421 C422 1.374 . S
C422 H396 0.950 . S
C422 C418 1.385 . S
C422 C421 1.374 . S
C423 C420 1.499 . S
C423 C424 1.373 . S
C423 C425 1.389 . S
C424 H397 0.950 . S
C424 C410 1.377 . S
C424 C423 1.373 . S
C425 C409 1.377 . S
C425 C423 1.389 . S
C425 C426 1.524 . S
C426 C425 1.524 . S
C426 C427 1.397 . S
C426 C431 1.363 . S
C427 H398 0.950 . S
C427 C426 1.397 . S
C427 C428 1.334 . S
C428 H399 0.950 . S
C428 C427 1.334 . S
C428 C429 1.287 . S
C429 C428 1.287 . S
C429 C430 1.524 . S
C429 H432 0.999 . S
C430 H400 0.950 . S
C430 C429 1.524 . S
C430 C431 1.415 . S
C431 H401 0.950 . S
C431 C426 1.363 . S
C431 C430 1.415 . S
H432 C429 0.999 . S
H433 C414 0.913 . S
H434 C452 0.951 . S
H435 C454 0.951 . S
H436 C456 0.950 . S
H437 C457 0.950 . S
H438 C459 0.950 . S
H439 C462 0.950 . S
H440 C463 0.950 . S
H441 C465 0.950 . S
H442 C466 0.950 . S
H443 C467 0.951 . S
H444 C469 0.951 . S
H445 C471 0.950 . S
H446 C472 0.950 . S
H447 C474 0.950 . S
H448 C477 0.950 . S
H449 C478 0.950 . S
H450 C480 0.950 . S
H451 C481 0.950 . S
C452 H434 0.951 . S
C452 C453 1.366 . S
C452 C454 1.388 . S
C453 C452 1.366 . S
C453 C457 1.385 . S
C454 H435 0.951 . S
C454 C452 1.388 . S
C454 C455 1.366 . S
C455 C454 1.366 . S
C455 C456 1.414 . S
C455 C458 1.499 . S
C456 H436 0.950 . S
C456 C455 1.414 . S
C456 C457 1.374 . S
C457 H437 0.950 . S
C457 C453 1.385 . S
C457 C456 1.374 . S
C458 C455 1.499 . S
C458 C459 1.373 . S
C458 C460 1.389 . S
C459 H438 0.950 . S
C459 C458 1.373 . S
C459 C475 1.377 . S
C460 C458 1.389 . S
C460 C461 1.524 . S
C460 C474 1.377 . S
C461 C460 1.524 . S
C461 C462 1.397 . S
C461 C466 1.363 . S
C462 H439 0.950 . S
C462 C461 1.397 . S
C462 C463 1.334 . S
C463 H440 0.950 . S
C463 C462 1.334 . S
C463 C464 1.287 . S
C464 C463 1.287 . S
C464 C465 1.524 . S
C464 H483 0.913 . S
C465 H441 0.950 . S
C465 C464 1.524 . S
C465 C466 1.415 . S
C466 H442 0.950 . S
C466 C461 1.363 . S
C466 C465 1.415 . S
C467 H443 0.951 . S
C467 C468 1.366 . S
C467 C469 1.388 . S
C468 C467 1.366 . S
C468 C472 1.385 . S
C469 H444 0.951 . S
C469 C467 1.388 . S
C469 C470 1.366 . S
C470 C469 1.366 . S
C470 C471 1.414 . S
C470 C473 1.499 . S
C471 H445 0.950 . S
C471 C470 1.414 . S
C471 C472 1.374 . S
C472 H446 0.950 . S
C472 C468 1.385 . S
C472 C471 1.374 . S
C473 C470 1.499 . S
C473 C474 1.373 . S
C473 C475 1.389 . S
C474 H447 0.950 . S
C474 C460 1.377 . S
C474 C473 1.373 . S
C475 C459 1.377 . S
C475 C473 1.389 . S
C475 C476 1.524 . S
C476 C475 1.524 . S
C476 C477 1.397 . S
C476 C481 1.363 . S
C477 H448 0.950 . S
C477 C476 1.397 . S
C477 C478 1.334 . S
C478 H449 0.950 . S
C478 C477 1.334 . S
C478 C479 1.287 . S
C479 C478 1.287 . S
C479 C480 1.524 . S
C479 H482 0.999 . S
C480 H450 0.950 . S
C480 C479 1.524 . S
C480 C481 1.415 . S
C481 H451 0.950 . S
C481 C476 1.363 . S
C481 C480 1.415 . S
H482 C479 0.999 . S
H483 C464 0.913 . S
H484 C502 0.951 . S
H485 C504 0.951 . S
H486 C506 0.950 . S
H487 C507 0.950 . S
H488 C509 0.950 . S
H489 C512 0.950 . S
H490 C513 0.950 . S
H491 C515 0.950 . S
H492 C516 0.950 . S
H493 C517 0.951 . S
H494 C519 0.951 . S
H495 C521 0.950 . S
H496 C522 0.950 . S
H497 C524 0.950 . S
H498 C527 0.950 . S
H499 C528 0.950 . S
H500 C530 0.950 . S
H501 C531 0.950 . S
C502 H484 0.951 . S
C502 C503 1.366 . S
C502 C504 1.388 . S
C503 C502 1.366 . S
C503 C507 1.385 . S
C504 H485 0.951 . S
C504 C502 1.388 . S
C504 C505 1.366 . S
C505 C504 1.366 . S
C505 C506 1.414 . S
C505 C508 1.499 . S
C506 H486 0.950 . S
C506 C505 1.414 . S
C506 C507 1.374 . S
C507 H487 0.950 . S
C507 C503 1.385 . S
C507 C506 1.374 . S
C508 C505 1.499 . S
C508 C509 1.373 . S
C508 C510 1.389 . S
C509 H488 0.950 . S
C509 C508 1.373 . S
C509 C525 1.377 . S
C510 C508 1.389 . S
C510 C511 1.524 . S
C510 C524 1.377 . S
C511 C510 1.524 . S
C511 C512 1.397 . S
C511 C516 1.363 . S
C512 H489 0.950 . S
C512 C511 1.397 . S
C512 C513 1.334 . S
C513 H490 0.950 . S
C513 C512 1.334 . S
C513 C514 1.287 . S
C514 C513 1.287 . S
C514 C515 1.524 . S
C514 H533 0.913 . S
C515 H491 0.950 . S
C515 C514 1.524 . S
C515 C516 1.415 . S
C516 H492 0.950 . S
C516 C511 1.363 . S
C516 C515 1.415 . S
C517 H493 0.951 . S
C517 C518 1.366 . S
C517 C519 1.388 . S
C518 C517 1.366 . S
C518 C522 1.385 . S
C519 H494 0.951 . S
C519 C517 1.388 . S
C519 C520 1.366 . S
C520 C519 1.366 . S
C520 C521 1.414 . S
C520 C523 1.499 . S
C521 H495 0.950 . S
C521 C520 1.414 . S
C521 C522 1.374 . S
C522 H496 0.950 . S
C522 C518 1.385 . S
C522 C521 1.374 . S
C523 C520 1.499 . S
C523 C524 1.373 . S
C523 C525 1.389 . S
C524 H497 0.950 . S
C524 C510 1.377 . S
C524 C523 1.373 . S
C525 C509 1.377 . S
C525 C523 1.389 . S
C525 C526 1.524 . S
C526 C525 1.524 . S
C526 C527 1.397 . S
C526 C531 1.363 . S
C527 H498 0.950 . S
C527 C526 1.397 . S
C527 C528 1.334 . S
C528 H499 0.950 . S
C528 C527 1.334 . S
C528 C529 1.287 . S
C529 C528 1.287 . S
C529 C530 1.524 . S
C529 H532 0.999 . S
C530 H500 0.950 . S
C530 C529 1.524 . S
C530 C531 1.415 . S
C531 H501 0.950 . S
C531 C526 1.363 . S
C531 C530 1.415 . S
H532 C529 0.999 . S
H533 C514 0.913 . S
H534 C552 0.951 . S
H535 C554 0.951 . S
H536 C556 0.950 . S
H537 C557 0.950 . S
H538 C559 0.950 . S
H539 C562 0.950 . S
H540 C563 0.950 . S
H541 C565 0.950 . S
H542 C566 0.950 . S
H543 C567 0.951 . S
H544 C569 0.951 . S
H545 C571 0.950 . S
H546 C572 0.950 . S
H547 C574 0.950 . S
H548 C577 0.950 . S
H549 C578 0.950 . S
H550 C580 0.950 . S
H551 C581 0.950 . S
C552 H534 0.951 . S
C552 C553 1.366 . S
C552 C554 1.388 . S
C553 C552 1.366 . S
C553 C557 1.385 . S
C554 H535 0.951 . S
C554 C552 1.388 . S
C554 C555 1.366 . S
C555 C554 1.366 . S
C555 C556 1.414 . S
C555 C558 1.499 . S
C556 H536 0.950 . S
C556 C555 1.414 . S
C556 C557 1.374 . S
C557 H537 0.950 . S
C557 C553 1.385 . S
C557 C556 1.374 . S
C558 C555 1.499 . S
C558 C559 1.373 . S
C558 C560 1.389 . S
C559 H538 0.950 . S
C559 C558 1.373 . S
C559 C575 1.377 . S
C560 C558 1.389 . S
C560 C561 1.524 . S
C560 C574 1.377 . S
C561 C560 1.524 . S
C561 C562 1.397 . S
C561 C566 1.363 . S
C562 H539 0.950 . S
C562 C561 1.397 . S
C562 C563 1.334 . S
C563 H540 0.950 . S
C563 C562 1.334 . S
C563 C564 1.287 . S
C564 C563 1.287 . S
C564 C565 1.524 . S
C564 H583 0.913 . S
C565 H541 0.950 . S
C565 C564 1.524 . S
C565 C566 1.415 . S
C566 H542 0.950 . S
C566 C561 1.363 . S
C566 C565 1.415 . S
C567 H543 0.951 . S
C567 C568 1.366 1_556 S
C567 C569 1.388 . S
C568 C567 1.366 1_554 S
C568 C572 1.385 . S
C569 H544 0.951 . S
C569 C567 1.388 . S
C569 C570 1.366 . S
C570 C569 1.366 . S
C570 C571 1.414 . S
C570 C573 1.499 . S
C571 H545 0.950 . S
C571 C570 1.414 . S
C571 C572 1.374 1_556 S
C572 H546 0.950 . S
C572 C568 1.385 . S
C572 C571 1.374 1_554 S
C573 C570 1.499 . S
C573 C574 1.373 . S
C573 C575 1.389 . S
C574 H547 0.950 . S
C574 C560 1.377 . S
C574 C573 1.373 . S
C575 C559 1.377 . S
C575 C573 1.389 . S
C575 C576 1.524 . S
C576 C575 1.524 . S
C576 C577 1.397 . S
C576 C581 1.363 . S
C577 H548 0.950 . S
C577 C576 1.397 . S
C577 C578 1.334 . S
C578 H549 0.950 . S
C578 C577 1.334 . S
C578 C579 1.287 . S
C579 C578 1.287 . S
C579 C580 1.524 . S
C579 H582 0.999 . S
C580 H550 0.950 . S
C580 C579 1.524 . S
C580 C581 1.415 . S
C581 H551 0.950 . S
C581 C576 1.363 . S
C581 C580 1.415 . S
H582 C579 0.999 . S
H583 C564 0.913 . S
H584 C602 0.951 . S
H585 C604 0.951 . S
H586 C606 0.950 . S
H587 C607 0.950 . S
H588 C609 0.950 . S
H589 C612 0.950 . S
H590 C613 0.950 . S
H591 C615 0.950 . S
H592 C616 0.950 . S
H593 C617 0.951 . S
H594 C619 0.951 . S
H595 C621 0.950 . S
H596 C622 0.950 . S
H597 C624 0.950 . S
H598 C627 0.950 . S
H599 C628 0.950 . S
H600 C630 0.950 . S
H601 C631 0.950 . S
C602 H584 0.951 . S
C602 C603 1.366 1_554 S
C602 C604 1.388 . S
C603 C602 1.366 1_556 S
C603 C607 1.385 . S
C604 H585 0.951 . S
C604 C602 1.388 . S
C604 C605 1.366 . S
C605 C604 1.366 . S
C605 C606 1.414 . S
C605 C608 1.499 . S
C606 H586 0.950 . S
C606 C605 1.414 . S
C606 C607 1.374 1_554 S
C607 H587 0.950 . S
C607 C603 1.385 . S
C607 C606 1.374 1_556 S
C608 C605 1.499 . S
C608 C609 1.373 . S
C608 C610 1.389 . S
C609 H588 0.950 . S
C609 C608 1.373 . S
C609 C625 1.377 . S
C610 C608 1.389 . S
C610 C611 1.524 . S
C610 C624 1.377 . S
C611 C610 1.524 . S
C611 C612 1.397 . S
C611 C616 1.363 . S
C612 H589 0.950 . S
C612 C611 1.397 . S
C612 C613 1.334 . S
C613 H590 0.950 . S
C613 C612 1.334 . S
C613 C614 1.287 . S
C614 C613 1.287 . S
C614 C615 1.524 . S
C614 H633 0.913 . S
C615 H591 0.950 . S
C615 C614 1.524 . S
C615 C616 1.415 . S
C616 H592 0.950 . S
C616 C611 1.363 . S
C616 C615 1.415 . S
C617 H593 0.951 . S
C617 C618 1.366 . S
C617 C619 1.388 . S
C618 C617 1.366 . S
C618 C622 1.385 . S
C619 H594 0.951 . S
C619 C617 1.388 . S
C619 C620 1.366 . S
C620 C619 1.366 . S
C620 C621 1.414 . S
C620 C623 1.499 . S
C621 H595 0.950 . S
C621 C620 1.414 . S
C621 C622 1.374 . S
C622 H596 0.950 . S
C622 C618 1.385 . S
C622 C621 1.374 . S
C623 C620 1.499 . S
C623 C624 1.373 . S
C623 C625 1.389 . S
C624 H597 0.950 . S
C624 C610 1.377 . S
C624 C623 1.373 . S
C625 C609 1.377 . S
C625 C623 1.389 . S
C625 C626 1.524 . S
C626 C625 1.524 . S
C626 C627 1.397 . S
C626 C631 1.363 . S
C627 H598 0.950 . S
C627 C626 1.397 . S
C627 C628 1.334 . S
C628 H599 0.950 . S
C628 C627 1.334 . S
C628 C629 1.287 . S
C629 C628 1.287 . S
C629 C630 1.524 . S
C629 H632 0.999 . S
C630 H600 0.950 . S
C630 C629 1.524 . S
C630 C631 1.415 . S
C631 H601 0.950 . S
C631 C626 1.363 . S
C631 C630 1.415 . S
H632 C629 0.999 . S
H633 C614 0.913 . S
H634 C652 0.951 . S
H635 C654 0.951 . S
H636 C656 0.950 . S
H637 C657 0.950 . S
H638 C659 0.950 . S
H639 C662 0.950 . S
H640 C663 0.950 . S
H641 C665 0.950 . S
H642 C666 0.950 . S
H643 C667 0.951 . S
H644 C669 0.951 . S
H645 C671 0.950 . S
H646 C672 0.950 . S
H647 C674 0.950 . S
H648 C677 0.950 . S
H649 C678 0.950 . S
H650 C680 0.950 . S
H651 C681 0.950 . S
C652 H634 0.951 . S
C652 C653 1.366 . S
C652 C654 1.388 . S
C653 C652 1.366 . S
C653 C657 1.385 . S
C654 H635 0.951 . S
C654 C652 1.388 . S
C654 C655 1.366 . S
C655 C654 1.366 . S
C655 C656 1.414 . S
C655 C658 1.499 . S
C656 H636 0.950 . S
C656 C655 1.414 . S
C656 C657 1.374 . S
C657 H637 0.950 . S
C657 C653 1.385 . S
C657 C656 1.374 . S
C658 C655 1.499 . S
C658 C659 1.373 . S
C658 C660 1.389 . S
C659 H638 0.950 . S
C659 C658 1.373 . S
C659 C675 1.377 . S
C660 C658 1.389 . S
C660 C661 1.524 . S
C660 C674 1.377 . S
C661 C660 1.524 . S
C661 C662 1.397 . S
C661 C666 1.363 . S
C662 H639 0.950 . S
C662 C661 1.397 . S
C662 C663 1.334 . S
C663 H640 0.950 . S
C663 C662 1.334 . S
C663 C664 1.287 . S
C664 C663 1.287 . S
C664 C665 1.524 . S
C664 H683 0.913 . S
C665 H641 0.950 . S
C665 C664 1.524 . S
C665 C666 1.415 . S
C666 H642 0.950 . S
C666 C661 1.363 . S
C666 C665 1.415 . S
C667 H643 0.951 . S
C667 C668 1.366 . S
C667 C669 1.388 . S
C668 C667 1.366 . S
C668 C672 1.385 . S
C669 H644 0.951 . S
C669 C667 1.388 . S
C669 C670 1.366 . S
C670 C669 1.366 . S
C670 C671 1.414 . S
C670 C673 1.499 . S
C671 H645 0.950 . S
C671 C670 1.414 . S
C671 C672 1.374 . S
C672 H646 0.950 . S
C672 C668 1.385 . S
C672 C671 1.374 . S
C673 C670 1.499 . S
C673 C674 1.373 . S
C673 C675 1.389 . S
C674 H647 0.950 . S
C674 C660 1.377 . S
C674 C673 1.373 . S
C675 C659 1.377 . S
C675 C673 1.389 . S
C675 C676 1.524 . S
C676 C675 1.524 . S
C676 C677 1.397 . S
C676 C681 1.363 . S
C677 H648 0.950 . S
C677 C676 1.397 . S
C677 C678 1.334 . S
C678 H649 0.950 . S
C678 C677 1.334 . S
C678 C679 1.287 . S
C679 C678 1.287 . S
C679 C680 1.524 . S
C679 H682 0.999 . S
C680 H650 0.950 . S
C680 C679 1.524 . S
C680 C681 1.415 . S
C681 H651 0.950 . S
C681 C676 1.363 . S
C681 C680 1.415 . S
H682 C679 0.999 . S
H683 C664 0.913 . S
C103 C6 1.753 . S
C118 C78 1.775 . S
C153 C9 1.775 . S
C168 C20 1.753 . S
C203 C35 1.752 . S
C218 C23 1.774 . S
C253 C48 1.753 . S
C268 C36 1.775 . S
C303 C62 1.753 . S
C318 C51 1.775 . S
C353 C77 1.753 . S
C368 C65 1.775 . S
C403 C7 1.391 . S
C418 C64 1.424 . S
C453 C79 1.424 . S
C468 C21 1.392 . S
C503 C34 1.391 . S
C518 C8 1.423 . S
C553 C22 1.424 . S
C568 C49 1.391 . S
C603 C37 1.423 . S
C618 C63 1.391 . S
C653 C76 1.390 . S
C668 C50 1.423 . S
