# Generated by pormake.
# Topology sxb, (6)-cn, num edge types: 1
# Building blocks:
#     Node 0, Type 0, BuildingBlock: NUHQIS_clean_sbu_0, # of connection points: 6
#     Node 1, Type 0, BuildingBlock: NUHQIS_clean_sbu_0, # of connection points: 6
#     Node 2, Type 0, BuildingBlock: NUHQIS_clean_sbu_0, # of connection points: 6
#     Node 3, Type 0, BuildingBlock: NUHQIS_clean_sbu_0, # of connection points: 6
#     Edge 4, Type (0, 0), BuildingBlock: XIVTED_clean_linker_0, # of connection points: 2
#     Edge 5, Type (0, 0), BuildingBlock: XIVTED_clean_linker_0, # of connection points: 2
#     Edge 6, Type (0, 0), BuildingBlock: XIVTED_clean_linker_0, # of connection points: 2
#     Edge 7, Type (0, 0), BuildingBlock: XIVTED_clean_linker_0, # of connection points: 2
#     Edge 8, Type (0, 0), BuildingBlock: XIVTED_clean_linker_0, # of connection points: 2
#     Edge 9, Type (0, 0), BuildingBlock: XIVTED_clean_linker_0, # of connection points: 2
#     Edge 10, Type (0, 0), BuildingBlock: XIVTED_clean_linker_0, # of connection points: 2
#     Edge 11, Type (0, 0), BuildingBlock: XIVTED_clean_linker_0, # of connection points: 2
#     Edge 12, Type (0, 0), BuildingBlock: XIVTED_clean_linker_0, # of connection points: 2
#     Edge 13, Type (0, 0), BuildingBlock: XIVTED_clean_linker_0, # of connection points: 2
#     Edge 14, Type (0, 0), BuildingBlock: XIVTED_clean_linker_0, # of connection points: 2
#     Edge 15, Type (0, 0), BuildingBlock: XIVTED_clean_linker_0, # of connection points: 2
# Relax obj value: 0.072
# Max RMSD: 0.164
# Mean RMSD: 0.164
data_MOF--net-sxb--node1-NUHQIS_clean_sbu_0--edge1-XIVTED_clean_linker_0
_symmetry_space_group_name_H-M    P1
_symmetry_Int_Tables_number       1
_symmetry_cell_setting            triclinic
loop_
_symmetry_equiv_pos_as_xyz
'x, y, z'
_cell_length_a     24.2727
_cell_length_b     17.670514
_cell_length_c     30.629065
_cell_angle_alpha  89.594195
_cell_angle_beta   96.009821
_cell_angle_gamma 90.00696
loop_
_atom_site_label
_atom_site_type_symbol
_atom_site_fract_x
_atom_site_fract_y
_atom_site_fract_z
_atom_type_partial_charge
Tb0 Tb 0.97749 0.87478 0.00611 0.0
Eu1 Eu 0.07479 0.00662 0.01747 0.0
C2 C 0.03389 0.9371 0.92628 0.0
C3 C 0.10137 0.82931 0.02174 0.0
C4 C 0.83435 0.8099 -0.00354 0.0
C5 C 0.73925 0.8142 0.96217 0.0
C6 C 0.7946 0.79231 0.96142 0.0
C7 C 0.81793 0.85102 0.032 0.0
C8 C 0.76276 0.87348 0.03262 0.0
C9 C 0.72244 0.8552 -0.0022 0.0
C10 C 0.89328 0.79108 -0.00626 0.0
O11 O 1.00431 0.88177 0.07651 0.0
O12 O 0.03587 0.00477 0.08055 0.0
O13 O 0.99444 0.06754 -0.00388 0.0
O14 O 0.93793 -0.02193 0.02277 0.0
C15 C 1.01893 0.94306 0.09923 0.0
O16 O 0.14345 0.06044 0.0574 0.0
O17 O 0.12501 0.09335 -0.01069 0.0
O18 O 0.07863 0.95119 0.95244 0.0
O19 O 0.98647 0.92571 0.94216 0.0
O20 O 0.05364 0.81304 -0.00055 0.0
O21 O 0.11026 0.89488 0.04087 0.0
C22 C 0.94592 0.04595 0.00734 0.0
O23 O 0.9156 0.82523 0.96228 0.0
O24 O 0.92626 0.79133 0.0302 0.0
C25 C 0.219 0.07775 0.01664 0.0
C26 C 0.32994 0.03521 0.00951 0.0
C27 C 0.31778 0.10227 0.0312 0.0
C28 C 0.26272 0.12342 0.03464 0.0
C29 C 0.23099 0.01126 -0.00543 0.0
C30 C 0.28586 -0.00957 -0.00919 0.0
C31 C 0.16128 0.09522 0.02394 0.0
H32 H 0.7096 0.79793 0.93499 0.0
H33 H 0.8064 0.76138 0.93343 0.0
H34 H 0.84792 0.86733 0.05898 0.0
H35 H 0.75217 0.90683 0.06004 0.0
H36 H 0.35087 0.13817 0.04566 0.0
H37 H 0.25433 0.17457 0.05209 0.0
H38 H 0.19786 -0.02555 0.98108 0.0
H39 H 0.29382 0.93796 0.97449 0.0
Tb40 Tb 0.09316 0.88652 0.51655 0.0
Eu41 Eu 0.99591 0.01811 0.51109 0.0
C42 C 0.05229 0.95272 0.60122 0.0
C43 C 0.9685 0.84269 0.51667 0.0
C44 C 0.23301 0.81835 0.50874 0.0
C45 C 0.33246 0.79704 0.5211 0.0
C46 C 0.27812 0.77414 0.52613 0.0
C47 C 0.24287 0.88477 0.48536 0.0
C48 C 0.29697 0.90779 0.48044 0.0
C49 C 0.34258 0.86498 0.49888 0.0
C50 C 0.17625 0.80016 0.51855 0.0
O51 O 0.08532 0.93665 0.45117 0.0
O52 O 0.99252 0.95657 0.44667 0.0
O53 O 0.07235 0.07842 0.49425 0.0
O54 O 0.13308 -0.00551 0.53095 0.0
C55 C 0.03743 0.94433 0.42755 0.0
O56 O 0.93323 0.08587 0.47176 0.0
O57 O 0.93965 0.09157 0.54251 0.0
O58 O 0.04034 0.01611 0.57956 0.0
O59 O 0.06154 0.88977 0.5805 0.0
O60 O 1.01555 0.82458 0.50156 0.0
O61 O 0.96008 0.90975 0.53253 0.0
C62 C 0.12271 0.05913 0.51038 0.0
O63 O 0.16092 0.83377 0.553 0.0
O64 O 0.13775 0.80423 0.48555 0.0
C65 C 0.84978 0.08663 0.50461 0.0
C66 C 0.73723 0.04217 0.49801 0.0
C67 C 0.75321 0.109 0.47739 0.0
C68 C 0.80914 0.13056 0.48032 0.0
C69 C 0.83377 0.0204 0.52554 0.0
C70 C 0.77824 -0.00162 0.52223 0.0
C71 C 0.90909 0.10643 0.50583 0.0
H72 H 0.36653 0.76288 0.53594 0.0
H73 H 0.2714 0.72294 0.5445 0.0
H74 H 0.20866 0.92008 0.47188 0.0
H75 H 0.30305 0.95973 0.46258 0.0
H76 H 0.7227 0.14359 0.45814 0.0
H77 H 0.82077 0.18086 0.46309 0.0
H78 H 0.86432 -0.01494 0.54416 0.0
H79 H 0.7674 0.94706 0.5389 0.0
Tb80 Tb 0.48808 0.42693 0.96125 0.0
Eu81 Eu 0.58588 0.55718 0.9761 0.0
C82 C 0.54174 0.49197 0.88136 0.0
C83 C 0.61394 0.38131 0.96565 0.0
C84 C 0.34529 0.36789 0.96292 0.0
C85 C 0.24557 0.36253 0.94387 0.0
C86 C 0.29887 0.33556 0.93903 0.0
C87 C 0.33754 0.42662 -0.00758 0.0
C88 C 0.28431 0.4532 -0.00248 0.0
C89 C 0.23773 0.42228 0.9728 0.0
C90 C 0.40169 0.34698 0.9534 0.0
O91 O 0.48964 0.47071 0.02743 0.0
O92 O 0.58237 0.48935 0.03805 0.0
O93 O 0.50653 0.61344 -0.00974 0.0
O94 O 0.45587 0.53764 0.94185 0.0
C95 C 0.53535 0.47602 0.05391 0.0
O96 O 0.64926 0.61154 0.0213 0.0
O97 O 0.63963 0.6447 0.95285 0.0
O98 O 0.55492 0.55386 0.90384 0.0
O99 O 0.5264 0.42975 0.90053 0.0
O100 O 0.56426 0.36091 0.97534 0.0
O101 O 0.62636 0.45148 0.95659 0.0
C102 C 0.45936 0.59644 0.9676 0.0
O103 O 0.4197 0.38458 0.92106 0.0
O104 O 0.43935 0.3424 0.98703 0.0
C105 C 0.73139 0.63114 0.98809 0.0
C106 C 0.84539 0.59735 0.98667 0.0
C107 C 0.8258 0.62938 0.02411 0.0
C108 C 0.76945 0.64618 0.02475 0.0
C109 C 0.75065 0.59801 0.95096 0.0
C110 C 0.80687 0.58148 0.95025 0.0
C111 C 0.67162 0.64612 -0.01012 0.0
H112 H 0.21046 0.33699 0.92471 0.0
H113 H 0.30395 0.29083 0.91577 0.0
H114 H 0.3728 0.45362 0.01057 0.0
H115 H 0.2798 0.49985 0.01963 0.0
H116 H 0.85412 0.64318 0.05262 0.0
H117 H 0.7556 0.67136 0.05385 0.0
H118 H 0.72224 0.58407 0.9225 0.0
H119 H 0.81993 0.55495 0.92128 0.0
Tb120 Tb 0.5768 0.41666 0.47259 0.0
Eu121 Eu 0.4791 0.55123 0.4615 0.0
C122 C 0.53297 0.49035 0.55358 0.0
C123 C 0.45108 0.3746 0.46665 0.0
C124 C 0.71798 0.34586 0.47591 0.0
C125 C 0.81633 0.33291 0.49988 0.0
C126 C 0.76126 0.31104 0.50263 0.0
C127 C 0.73057 0.40251 0.44613 0.0
C128 C 0.78544 0.42467 0.4435 0.0
C129 C 0.82904 0.39067 0.47063 0.0
C130 C 0.65981 0.33009 0.48284 0.0
O131 O 0.57393 0.46057 0.40612 0.0
O132 O 0.48242 0.49359 0.39654 0.0
O133 O 0.55621 0.61229 0.44717 0.0
O134 O 0.61721 0.5253 0.48232 0.0
C135 C 0.5284 0.47461 0.38041 0.0
O136 O 0.41291 0.61272 0.42193 0.0
O137 O 0.42566 0.62996 0.49196 0.0
O138 O 0.52154 0.55214 0.53044 0.0
O139 O 0.54092 0.42576 0.53432 0.0
O140 O 0.50029 0.35358 0.45682 0.0
O141 O 0.44058 0.44296 0.4797 0.0
C142 C 0.60624 0.5908 0.46283 0.0
O143 O 0.64164 0.36854 0.51451 0.0
O144 O 0.62395 0.32978 0.44793 0.0
C145 C 0.3333 0.6197 0.45979 0.0
C146 C 0.22156 0.57489 0.46216 0.0
C147 C 0.235 0.63891 0.43762 0.0
C148 C 0.29039 0.6609 0.43635 0.0
C149 C 0.31995 0.55686 0.48498 0.0
C150 C 0.26487 0.53483 0.48621 0.0
C151 C 0.39194 0.63898 0.45627 0.0
H152 H 0.84878 0.30606 0.52157 0.0
H153 H 0.75238 0.26821 0.5264 0.0
H154 H 0.69777 0.43093 0.42558 0.0
H155 H 0.79368 0.46879 0.42033 0.0
H156 H 0.20288 0.67099 0.41849 0.0
H157 H 0.29975 0.70948 0.41666 0.0
H158 H 0.35224 0.52402 0.50341 0.0
H159 H 0.25631 0.48625 0.50617 0.0
H160 H 0.44227 0.69994 0.03115 0.0
H161 H 0.11363 0.70712 0.96835 0.0
H162 H 0.35754 0.57619 0.92296 0.0
H163 H 0.19976 0.83877 0.07253 0.0
H164 H 0.20153 0.64615 0.95682 0.0
H165 H 0.35267 0.74612 0.0496 0.0
C166 C 0.40498 0.6834 0.01094 0.0
C167 C 0.40739 0.63442 0.97545 0.0
C168 C 0.20095 0.68805 0.98241 0.0
C169 C 0.3049 0.68519 -0.00311 0.0
C170 C 0.15072 0.72219 -0.01072 0.0
C171 C 0.14965 0.77918 0.02078 0.0
C172 C 0.25004 0.71161 0.00711 0.0
C173 C 0.19884 0.79617 0.04723 0.0
C174 C 0.3538 0.70896 0.02175 0.0
C175 C 0.35768 0.61403 0.95061 0.0
N176 N 0.24715 0.76335 0.03937 0.0
N177 N 0.30848 0.63931 0.96189 0.0
H178 H 0.70949 0.39672 0.92763 0.0
H179 H 0.84632 0.02367 0.03868 0.0
H180 H 0.62237 0.24103 0.00531 0.0
H181 H 0.93449 0.18277 0.96382 0.0
H182 H 0.76342 0.10026 0.02485 0.0
H183 H 0.79027 0.31504 0.937 0.0
C184 C 0.70715 0.34484 0.94641 0.0
C185 C 0.65925 0.32591 0.96617 0.0
C186 C 0.80083 0.11868 0.01152 0.0
C187 C 0.75214 0.23235 0.97723 0.0
C188 C 0.84844 0.07507 0.01946 0.0
C189 C 0.89759 0.09684 0.00226 0.0
C190 C 0.80214 0.18482 0.98623 0.0
C191 C 0.89764 0.16411 0.97785 0.0
C192 C 0.75348 0.29833 0.9518 0.0
C193 C 0.65846 0.25768 -0.01041 0.0
N194 N 0.85046 0.20575 0.97045 0.0
N195 N 0.70456 0.21351 -0.00518 0.0
H196 H 0.12238 0.19511 0.46647 0.0
H197 H 0.45357 0.22349 0.48812 0.0
H198 H 0.23178 0.03192 0.53648 0.0
H199 H 0.34389 0.40565 0.44164 0.0
H200 H 0.3723 0.14388 0.49626 0.0
H201 H 0.20342 0.26741 0.44949 0.0
C202 C 0.1633 0.17476 0.4785 0.0
C203 C 0.17026 0.10755 0.50299 0.0
C204 C 0.36619 0.20098 0.4838 0.0
C205 C 0.26291 0.18882 0.48302 0.0
C206 C 0.41244 0.24595 0.47884 0.0
C207 C 0.40498 0.32102 0.46476 0.0
C208 C 0.3127 0.23153 0.4741 0.0
C209 C 0.35106 0.34814 0.45332 0.0
C210 C 0.20953 0.21571 0.46858 0.0
C211 C 0.22433 0.08349 0.51751 0.0
N212 N 0.3069 0.30354 0.45849 0.0
N213 N 0.26858 0.12399 0.50718 0.0
H214 H 0.94342 0.73411 0.45398 0.0
H215 H 0.62862 0.71851 0.50967 0.0
H216 H 0.88225 0.84116 0.56565 0.0
H217 H 0.6922 0.57086 0.41551 0.0
H218 H 0.72036 0.77654 0.52358 0.0
H219 H 0.85147 0.67783 0.43535 0.0
C220 C 0.91111 0.74413 0.47513 0.0
C221 C 0.92006 0.79268 0.51113 0.0
C222 C 0.71406 0.73245 0.49919 0.0
C223 C 0.81526 0.73122 0.48943 0.0
C224 C 0.66157 0.70056 0.49078 0.0
C225 C 0.65339 0.6411 0.46109 0.0
C226 C 0.75819 0.70419 0.4777 0.0
C227 C 0.69742 0.61742 0.43836 0.0
C228 C 0.85856 0.71304 0.46418 0.0
C229 C 0.87678 0.80469 0.53726 0.0
N230 N 0.74829 0.64877 0.44731 0.0
N231 N 0.82611 0.77492 0.52561 0.0
H232 H 0.41445 0.03258 0.0762 0.0
H233 H 0.64702 0.89793 0.92808 0.0
H234 H 0.37801 -0.01966 0.93887 0.0
H235 H 0.66248 0.86933 0.06907 0.0
H236 H 0.55161 0.9402 0.93046 0.0
H237 H 0.50945 -0.01239 0.07322 0.0
C238 C 0.42658 0.01221 0.04533 0.0
C239 C 0.38826 0.01037 0.0077 0.0
C240 C 0.57598 0.92451 0.96082 0.0
C241 C 0.49691 0.95862 0.00408 0.0
C242 C 0.63052 0.89978 0.95954 0.0
C243 C 0.66353 0.8799 -0.00153 0.0
C244 C 0.5542 0.93059 0.00133 0.0
C245 C 0.63951 0.8854 0.03822 0.0
C246 C 0.48065 -0.01402 0.04374 0.0
C247 C 0.4061 -0.01765 0.96872 0.0
N248 N 0.5866 0.91058 0.03863 0.0
N249 N 0.45918 0.95797 0.96785 0.0
H250 H 0.38138 0.01035 0.50795 0.0
H251 H 0.69661 0.89936 0.48271 0.0
H252 H 0.43564 0.78336 0.48469 0.0
H253 H 0.64353 0.12777 0.50411 0.0
H254 H 0.60066 0.85682 0.48112 0.0
H255 H 0.47603 0.05553 0.50418 0.0
C256 C 0.41307 -0.02994 0.50155 0.0
C257 C 0.40023 0.89286 0.49633 0.0
C258 C 0.60986 0.91625 0.48616 0.0
C259 C 0.50931 0.94402 0.49283 0.0
C260 C 0.66473 0.94051 0.48731 0.0
C261 C 0.67832 0.01707 0.49418 0.0
C262 C 0.56788 -0.03119 0.49197 0.0
C263 C 0.63501 0.06825 0.49867 0.0
C264 C 0.46726 -0.00417 0.49974 0.0
C265 C 0.44346 0.84307 0.4893 0.0
N266 N 0.58183 0.04314 0.49777 0.0
N267 N 0.49591 0.86943 0.48777 0.0
H268 H 0.90765 0.61048 0.9169 0.0
H269 H 0.19042 0.46149 0.04718 0.0
H270 H 0.92099 0.54496 0.0537 0.0
H271 H 0.15707 0.4561 0.90611 0.0
H272 H 0.09697 0.51174 0.05165 0.0
H273 H 1.00409 0.57332 0.9141 0.0
C274 C 0.93063 0.58801 0.94635 0.0
C275 C 0.90546 0.57981 0.98544 0.0
C276 C 0.11018 0.49951 0.01975 0.0
C277 C 1.01678 0.53856 0.98255 0.0
C278 C 0.16354 0.47114 0.01715 0.0
C279 C 0.18141 0.45372 0.97621 0.0
C280 C 0.07459 0.51154 0.98112 0.0
C281 C 0.14472 0.46734 0.93839 0.0
C282 C 0.98589 0.56721 0.94473 0.0
C283 C 0.93835 0.5527 0.02285 0.0
N284 N 0.09319 0.49547 0.94175 0.0
N285 N 0.99215 0.53283 0.02043 0.0
H286 H 0.12696 0.66111 0.46225 0.0
H287 H 0.92385 0.30477 0.47358 0.0
H288 H 0.18193 0.42888 0.46215 0.0
H289 H 0.86708 0.53631 0.46457 0.0
H290 H 1.01896 0.34941 0.47128 0.0
H291 H 1.03179 0.61695 0.46395 0.0
C292 C 0.11914 0.60091 0.46241 0.0
C293 C 0.16295 0.54894 0.46239 0.0
C294 C 0.9857 0.3905 0.46972 0.0
C295 C 0.05363 0.49758 0.46459 0.0
C296 C 0.93137 0.36502 0.47128 0.0
C297 C 0.88724 0.41679 0.46911 0.0
C298 C 0.99625 0.46845 0.46621 0.0
C299 C 0.89959 0.49423 0.46565 0.0
C300 C 0.06469 0.57563 0.46356 0.0
C301 C 0.14993 0.47134 0.463 0.0
N302 N 0.95282 0.51764 0.46439 0.0
N303 N 0.09664 0.44816 0.46412 0.0
H304 H 0.12069 -0.02686 0.37656 0.0
H305 H 0.95595 0.85593 0.14952 0.0
H306 H 0.94804 0.91079 0.36866 0.0
H307 H 0.08368 0.02671 0.15868 0.0
H308 H 0.95935 0.85491 0.23012 0.0
H309 H 0.11525 -0.02819 0.2963 0.0
C310 C 0.08171 0.95882 0.35792 0.0
C311 C 0.03466 0.94236 0.37919 0.0
C312 C 0.98642 0.89261 0.21428 0.0
C313 C 1.02845 0.93982 0.2876 0.0
C314 C 0.98468 0.89302 0.16847 0.0
C315 C 1.01944 0.94168 0.14749 0.0
C316 C 1.02415 0.93974 0.23907 0.0
C317 C 0.05584 -0.01123 0.17352 0.0
C318 C 0.07861 0.95842 0.3122 0.0
C319 C 0.98514 0.92438 0.35344 0.0
N320 N 0.0576 -0.01386 0.21795 0.0
N321 N 0.98337 0.92304 0.30889 0.0
H322 H 0.96765 0.86124 0.86347 0.0
H323 H 0.07632 0.0678 0.6593 0.0
H324 H 0.10572 0.01586 0.88023 0.0
H325 H 1.02521 0.83398 0.6522 0.0
H326 H 0.07255 0.06368 0.73915 0.0
H327 H 0.97305 0.86414 0.7838 0.0
C328 C 0.99891 0.89594 0.85034 0.0
C329 C 0.03641 0.93821 0.87834 0.0
C330 C 0.06235 0.01337 0.71999 0.0
C331 C 0.04206 0.94275 0.78773 0.0
C332 C 0.0643 0.01571 0.67458 0.0
C333 C 0.05137 0.951 0.64931 0.0
C334 C 0.04584 0.94652 0.73993 0.0
C335 C 0.03602 0.88487 0.67063 0.0
C336 C 1.00211 0.89726 0.80507 0.0
C337 C 0.07628 -0.01794 0.85974 0.0
N338 N 1.0331 0.88451 0.71472 0.0
N339 N 0.07773 -0.01616 0.81549 0.0
H340 H 0.61844 0.45393 0.33508 0.0
H341 H 0.4437 0.46742 0.09873 0.0
H342 H 0.44122 0.48714 0.31618 0.0
H343 H 0.62243 0.47417 0.11833 0.0
H344 H 0.44143 0.46372 0.1783 0.0
H345 H 0.61999 0.45042 0.25563 0.0
C346 C 0.57979 0.46031 0.31425 0.0
C347 C 0.5296 0.4711 0.33235 0.0
C348 C 0.48113 0.46593 0.16516 0.0
C349 C 0.53118 0.46703 0.24127 0.0
C350 C 0.48249 0.46785 0.11974 0.0
C351 C 0.53336 0.47136 0.10187 0.0
C352 C 0.53099 0.46709 0.19289 0.0
C353 C 0.58228 0.4718 0.13067 0.0
C354 C 0.58076 0.45845 0.26885 0.0
C355 C 0.48088 0.47904 0.30368 0.0
N356 N 0.57986 0.4697 0.17476 0.0
N357 N 0.48288 0.47682 0.25954 0.0
H358 H 0.52929 0.61494 0.60617 0.0
H359 H 0.53348 0.37033 0.8267 0.0
H360 H 0.54337 0.37131 0.61123 0.0
H361 H 0.55329 0.61323 0.82643 0.0
H362 H 0.53289 0.37074 0.74719 0.0
H363 H 0.53372 0.61662 0.68636 0.0
C364 C 0.53329 0.56183 0.6241 0.0
C365 C 0.53586 0.49284 0.60194 0.0
C366 C 0.53757 0.42398 0.76447 0.0
C367 C 0.54086 0.49445 0.69353 0.0
C368 C 0.53778 0.42385 0.80994 0.0
C369 C 0.54329 0.49193 0.83329 0.0
C370 C 0.54247 0.49273 0.74199 0.0
C371 C 0.549 0.55943 0.80974 0.0
C372 C 0.536 0.56289 0.66986 0.0
C373 C 0.54125 0.42583 0.62687 0.0
N374 N 0.54815 0.55819 0.76528 0.0
N375 N 0.54336 0.42833 0.67128 0.0
loop_
_geom_bond_atom_site_label_1
_geom_bond_atom_site_label_2
_geom_bond_distance
_geom_bond_site_symmetry_2
_ccdc_geom_bond_type
Tb0 C10 2.825 . S
Tb0 O11 2.347 1_556 S
Tb0 O14 2.366 1_565 S
Tb0 O19 2.418 . S
Tb0 O20 2.384 1_655 S
Tb0 O23 2.479 . S
Tb0 O24 2.471 1_556 S
Eu1 O12 2.418 . S
Eu1 O13 2.384 1_455 S
Eu1 O16 2.479 . S
Eu1 O17 2.471 1_554 S
Eu1 O18 2.347 1_554 S
Eu1 O21 2.366 1_545 S
Eu1 C31 2.825 . S
C2 O18 1.259 1_665 S
C2 O19 1.265 . S
C3 O20 1.255 1_554 S
C3 O21 1.265 . S
C4 C6 1.367 1_554 S
C4 C7 1.391 . S
C4 C10 1.503 1_554 S
C5 C6 1.384 . S
C5 C9 1.387 1_556 S
C5 H32 0.930 . S
C6 C4 1.367 1_556 S
C6 C5 1.384 . S
C6 H33 0.931 . S
C7 C4 1.391 . S
C7 C8 1.390 . S
C7 H34 0.930 . S
C8 C7 1.390 . S
C8 C9 1.391 . S
C8 H35 0.930 . S
C9 C5 1.387 1_554 S
C9 C8 1.391 . S
C10 Tb0 2.825 . S
C10 C4 1.503 1_556 S
C10 O23 1.238 . S
C10 O24 1.247 1_556 S
O11 Tb0 2.347 1_554 S
O11 C15 1.259 1_665 S
O12 Eu1 2.418 . S
O12 C15 1.265 . S
O13 Eu1 2.384 1_655 S
O13 C22 1.255 1_554 S
O14 Tb0 2.366 1_545 S
O14 C22 1.265 . S
C15 O11 1.259 1_445 S
C15 O12 1.265 . S
O16 Eu1 2.479 . S
O16 C31 1.238 . S
O17 Eu1 2.471 1_556 S
O17 C31 1.247 1_556 S
O18 Eu1 2.347 1_556 S
O18 C2 1.259 1_445 S
O19 Tb0 2.418 . S
O19 C2 1.265 . S
O20 Tb0 2.384 1_455 S
O20 C3 1.255 1_556 S
O21 Eu1 2.366 1_565 S
O21 C3 1.265 . S
C22 O13 1.255 1_556 S
C22 O14 1.265 . S
O23 Tb0 2.479 . S
O23 C10 1.238 . S
O24 Tb0 2.471 1_554 S
O24 C10 1.247 1_554 S
C25 C28 1.371 1_556 S
C25 C29 1.386 . S
C25 C31 1.504 1_556 S
C26 C27 1.387 1_556 S
C26 C30 1.391 . S
C27 C26 1.387 1_554 S
C27 C28 1.384 . S
C27 H36 0.930 . S
C28 C25 1.371 1_554 S
C28 C27 1.384 . S
C28 H37 0.931 . S
C29 C25 1.386 . S
C29 C30 1.390 . S
C29 H38 0.930 . S
C30 C26 1.391 . S
C30 C29 1.390 . S
C30 H39 0.930 . S
C31 Eu1 2.825 . S
C31 O16 1.238 . S
C31 O17 1.247 1_554 S
C31 C25 1.504 1_554 S
H32 C5 0.930 . S
H33 C6 0.931 . S
H34 C7 0.930 . S
H35 C8 0.930 . S
H36 C27 0.930 . S
H37 C28 0.931 . S
H38 C29 0.930 . S
H39 C30 0.930 . S
Tb40 C50 2.825 . S
Tb40 O51 2.347 . S
Tb40 O54 2.366 1_565 S
Tb40 O59 2.418 . S
Tb40 O60 2.384 1_455 S
Tb40 O63 2.479 . S
Tb40 O64 2.471 . S
Eu41 O52 2.418 . S
Eu41 O53 2.384 1_655 S
Eu41 O56 2.479 . S
Eu41 O57 2.471 . S
Eu41 O58 2.347 . S
Eu41 O61 2.366 1_545 S
Eu41 C71 2.825 . S
C42 O58 1.259 1_465 S
C42 O59 1.265 . S
C43 O60 1.255 . S
C43 O61 1.265 . S
C44 C46 1.380 . S
C44 C47 1.374 . S
C44 C50 1.507 . S
C45 C46 1.384 . S
C45 C49 1.387 . S
C45 H72 0.930 . S
C46 C44 1.380 . S
C46 C45 1.384 . S
C46 H73 0.931 . S
C47 C44 1.374 . S
C47 C48 1.390 . S
C47 H74 0.930 . S
C48 C47 1.390 . S
C48 C49 1.391 . S
C48 H75 0.930 . S
C49 C45 1.387 . S
C49 C48 1.391 . S
C50 Tb40 2.825 . S
C50 C44 1.507 . S
C50 O63 1.238 . S
C50 O64 1.247 . S
O51 Tb40 2.347 . S
O51 C55 1.259 1_465 S
O52 Eu41 2.418 . S
O52 C55 1.265 . S
O53 Eu41 2.384 1_455 S
O53 C62 1.255 . S
O54 Tb40 2.366 1_545 S
O54 C62 1.265 . S
C55 O51 1.259 1_645 S
C55 O52 1.265 . S
O56 Eu41 2.479 . S
O56 C71 1.238 . S
O57 Eu41 2.471 . S
O57 C71 1.247 . S
O58 Eu41 2.347 . S
O58 C42 1.259 1_645 S
O59 Tb40 2.418 . S
O59 C42 1.265 . S
O60 Tb40 2.384 1_655 S
O60 C43 1.255 . S
O61 Eu41 2.366 1_565 S
O61 C43 1.265 . S
C62 O53 1.255 . S
C62 O54 1.265 . S
O63 Tb40 2.479 . S
O63 C50 1.238 . S
O64 Tb40 2.471 . S
O64 C50 1.247 . S
C65 C68 1.380 . S
C65 C69 1.374 . S
C65 C71 1.507 . S
C66 C67 1.387 . S
C66 C70 1.391 . S
C67 C66 1.387 . S
C67 C68 1.384 . S
C67 H76 0.930 . S
C68 C65 1.380 . S
C68 C67 1.384 . S
C68 H77 0.931 . S
C69 C65 1.374 . S
C69 C70 1.390 . S
C69 H78 0.930 . S
C70 C66 1.391 . S
C70 C69 1.390 . S
C70 H79 0.930 . S
C71 Eu41 2.825 . S
C71 O56 1.238 . S
C71 O57 1.247 . S
C71 C65 1.507 . S
H72 C45 0.930 . S
H73 C46 0.931 . S
H74 C47 0.930 . S
H75 C48 0.930 . S
H76 C67 0.930 . S
H77 C68 0.931 . S
H78 C69 0.930 . S
H79 C70 0.930 . S
Tb80 C90 2.825 . S
Tb80 O91 2.347 1_556 S
Tb80 O94 2.366 . S
Tb80 O99 2.418 . S
Tb80 O100 2.384 . S
Tb80 O103 2.479 . S
Tb80 O104 2.471 1_556 S
Eu81 O92 2.418 . S
Eu81 O93 2.384 . S
Eu81 O96 2.479 . S
Eu81 O97 2.471 1_554 S
Eu81 O98 2.347 1_554 S
Eu81 O101 2.366 . S
Eu81 C111 2.825 . S
C82 O98 1.259 . S
C82 O99 1.265 . S
C83 O100 1.255 1_554 S
C83 O101 1.265 . S
C84 C86 1.367 1_554 S
C84 C87 1.391 . S
C84 C90 1.503 1_554 S
C85 C86 1.384 . S
C85 C89 1.387 1_556 S
C85 H112 0.930 . S
C86 C84 1.367 1_556 S
C86 C85 1.384 . S
C86 H113 0.931 . S
C87 C84 1.391 . S
C87 C88 1.390 . S
C87 H114 0.930 . S
C88 C87 1.390 . S
C88 C89 1.391 . S
C88 H115 0.930 . S
C89 C85 1.387 1_554 S
C89 C88 1.391 . S
C90 Tb80 2.825 . S
C90 C84 1.503 1_556 S
C90 O103 1.238 . S
C90 O104 1.247 1_556 S
O91 Tb80 2.347 1_554 S
O91 C95 1.259 . S
O92 Eu81 2.418 . S
O92 C95 1.265 . S
O93 Eu81 2.384 . S
O93 C102 1.255 1_554 S
O94 Tb80 2.366 . S
O94 C102 1.265 . S
C95 O91 1.259 . S
C95 O92 1.265 . S
O96 Eu81 2.479 . S
O96 C111 1.238 . S
O97 Eu81 2.471 1_556 S
O97 C111 1.247 1_556 S
O98 Eu81 2.347 1_556 S
O98 C82 1.259 . S
O99 Tb80 2.418 . S
O99 C82 1.265 . S
O100 Tb80 2.384 . S
O100 C83 1.255 1_556 S
O101 Eu81 2.366 . S
O101 C83 1.265 . S
C102 O93 1.255 1_556 S
C102 O94 1.265 . S
O103 Tb80 2.479 . S
O103 C90 1.238 . S
O104 Tb80 2.471 1_554 S
O104 C90 1.247 1_554 S
C105 C108 1.371 1_556 S
C105 C109 1.386 . S
C105 C111 1.504 1_556 S
C106 C107 1.387 1_556 S
C106 C110 1.391 . S
C107 C106 1.387 1_554 S
C107 C108 1.384 . S
C107 H116 0.930 . S
C108 C105 1.371 1_554 S
C108 C107 1.384 . S
C108 H117 0.931 . S
C109 C105 1.386 . S
C109 C110 1.390 . S
C109 H118 0.930 . S
C110 C106 1.391 . S
C110 C109 1.390 . S
C110 H119 0.930 . S
C111 Eu81 2.825 . S
C111 O96 1.238 . S
C111 O97 1.247 1_554 S
C111 C105 1.504 1_554 S
H112 C85 0.930 . S
H113 C86 0.931 . S
H114 C87 0.930 . S
H115 C88 0.930 . S
H116 C107 0.930 . S
H117 C108 0.931 . S
H118 C109 0.930 . S
H119 C110 0.930 . S
Tb120 C130 2.825 . S
Tb120 O131 2.347 . S
Tb120 O134 2.366 . S
Tb120 O139 2.418 . S
Tb120 O140 2.384 . S
Tb120 O143 2.479 . S
Tb120 O144 2.471 . S
Eu121 O132 2.418 . S
Eu121 O133 2.384 . S
Eu121 O136 2.479 . S
Eu121 O137 2.471 . S
Eu121 O138 2.347 . S
Eu121 O141 2.366 . S
Eu121 C151 2.825 . S
C122 O138 1.259 . S
C122 O139 1.265 . S
C123 O140 1.255 . S
C123 O141 1.265 . S
C124 C126 1.380 . S
C124 C127 1.374 . S
C124 C130 1.507 . S
C125 C126 1.384 . S
C125 C129 1.387 . S
C125 H152 0.930 . S
C126 C124 1.380 . S
C126 C125 1.384 . S
C126 H153 0.931 . S
C127 C124 1.374 . S
C127 C128 1.390 . S
C127 H154 0.930 . S
C128 C127 1.390 . S
C128 C129 1.391 . S
C128 H155 0.930 . S
C129 C125 1.387 . S
C129 C128 1.391 . S
C130 Tb120 2.825 . S
C130 C124 1.507 . S
C130 O143 1.238 . S
C130 O144 1.247 . S
O131 Tb120 2.347 . S
O131 C135 1.259 . S
O132 Eu121 2.418 . S
O132 C135 1.265 . S
O133 Eu121 2.384 . S
O133 C142 1.255 . S
O134 Tb120 2.366 . S
O134 C142 1.265 . S
C135 O131 1.259 . S
C135 O132 1.265 . S
O136 Eu121 2.479 . S
O136 C151 1.238 . S
O137 Eu121 2.471 . S
O137 C151 1.247 . S
O138 Eu121 2.347 . S
O138 C122 1.259 . S
O139 Tb120 2.418 . S
O139 C122 1.265 . S
O140 Tb120 2.384 . S
O140 C123 1.255 . S
O141 Eu121 2.366 . S
O141 C123 1.265 . S
C142 O133 1.255 . S
C142 O134 1.265 . S
O143 Tb120 2.479 . S
O143 C130 1.238 . S
O144 Tb120 2.471 . S
O144 C130 1.247 . S
C145 C148 1.380 . S
C145 C149 1.374 . S
C145 C151 1.507 . S
C146 C147 1.387 . S
C146 C150 1.391 . S
C147 C146 1.387 . S
C147 C148 1.384 . S
C147 H156 0.930 . S
C148 C145 1.380 . S
C148 C147 1.384 . S
C148 H157 0.931 . S
C149 C145 1.374 . S
C149 C150 1.390 . S
C149 H158 0.930 . S
C150 C146 1.391 . S
C150 C149 1.390 . S
C150 H159 0.930 . S
C151 Eu121 2.825 . S
C151 O136 1.238 . S
C151 O137 1.247 . S
C151 C145 1.507 . S
H152 C125 0.930 . S
H153 C126 0.931 . S
H154 C127 0.930 . S
H155 C128 0.930 . S
H156 C147 0.930 . S
H157 C148 0.931 . S
H158 C149 0.930 . S
H159 C150 0.930 . S
H160 C166 0.930 . S
H161 C170 0.930 . S
H162 C175 0.929 . S
H163 C173 0.929 . S
H164 C168 0.929 . S
H165 C174 0.929 . S
C166 H160 0.930 . S
C166 C167 1.367 . S
C166 C174 1.378 . S
C167 C166 1.367 . S
C167 C175 1.433 1_556 S
C168 H164 0.929 . S
C168 C170 1.378 . S
C168 C172 1.350 . S
C169 C172 1.463 1_556 S
C169 C174 1.350 . S
C169 N177 1.427 1_556 S
C170 H161 0.930 . S
C170 C168 1.378 . S
C170 C171 1.367 . S
C171 C170 1.367 . S
C171 C173 1.433 1_554 S
C172 C168 1.350 . S
C172 C169 1.463 1_554 S
C172 N176 1.427 1_554 S
C173 H163 0.929 . S
C173 C171 1.433 1_556 S
C173 N176 1.384 . S
C174 H165 0.929 . S
C174 C166 1.378 . S
C174 C169 1.350 . S
C175 H162 0.929 . S
C175 C167 1.433 1_554 S
C175 N177 1.384 . S
N176 C172 1.427 1_556 S
N176 C173 1.384 . S
N177 C169 1.427 1_554 S
N177 C175 1.384 . S
H178 C184 0.930 . S
H179 C188 0.930 . S
H180 C193 0.929 . S
H181 C191 0.929 . S
H182 C186 0.929 . S
H183 C192 0.929 . S
C184 H178 0.930 . S
C184 C185 1.367 1_556 S
C184 C192 1.378 . S
C185 C184 1.367 1_554 S
C185 C193 1.433 . S
C186 H182 0.929 . S
C186 C188 1.378 . S
C186 C190 1.351 1_554 S
C187 C190 1.462 1_554 S
C187 C192 1.347 1_554 S
C187 N195 1.431 . S
C188 H179 0.930 . S
C188 C186 1.378 . S
C188 C189 1.367 1_554 S
C189 C188 1.367 1_556 S
C189 C191 1.433 . S
C190 C186 1.351 1_556 S
C190 C187 1.462 1_556 S
C190 N194 1.426 . S
C191 H181 0.929 . S
C191 C189 1.433 . S
C191 N194 1.384 . S
C192 H183 0.929 . S
C192 C184 1.378 . S
C192 C187 1.347 1_556 S
C193 H180 0.929 . S
C193 C185 1.433 . S
C193 N195 1.384 . S
N194 C190 1.426 . S
N194 C191 1.384 . S
N195 C187 1.431 . S
N195 C193 1.384 . S
H196 C202 0.930 . S
H197 C206 0.930 . S
H198 C211 0.929 . S
H199 C209 0.929 . S
H200 C204 0.929 . S
H201 C210 0.929 . S
C202 H196 0.930 . S
C202 C203 1.367 . S
C202 C210 1.378 . S
C203 C202 1.367 . S
C203 C211 1.433 . S
C204 H200 0.929 . S
C204 C206 1.378 . S
C204 C208 1.350 . S
C205 C208 1.463 . S
C205 C210 1.350 . S
C205 N213 1.427 . S
C206 H197 0.930 . S
C206 C204 1.378 . S
C206 C207 1.367 . S
C207 C206 1.367 . S
C207 C209 1.433 . S
C208 C204 1.350 . S
C208 C205 1.463 . S
C208 N212 1.427 . S
C209 H199 0.929 . S
C209 C207 1.433 . S
C209 N212 1.384 . S
C210 H201 0.929 . S
C210 C202 1.378 . S
C210 C205 1.350 . S
C211 H198 0.929 . S
C211 C203 1.433 . S
C211 N213 1.384 . S
N212 C208 1.427 . S
N212 C209 1.384 . S
N213 C205 1.427 . S
N213 C211 1.384 . S
H214 C220 0.930 . S
H215 C224 0.930 . S
H216 C229 0.929 . S
H217 C227 0.929 . S
H218 C222 0.929 . S
H219 C228 0.929 . S
C220 H214 0.930 . S
C220 C221 1.367 . S
C220 C228 1.378 . S
C221 C220 1.367 . S
C221 C229 1.433 . S
C222 H218 0.929 . S
C222 C224 1.378 . S
C222 C226 1.350 . S
C223 C226 1.463 . S
C223 C228 1.350 . S
C223 N231 1.427 . S
C224 H215 0.930 . S
C224 C222 1.378 . S
C224 C225 1.367 . S
C225 C224 1.367 . S
C225 C227 1.433 . S
C226 C222 1.350 . S
C226 C223 1.463 . S
C226 N230 1.427 . S
C227 H217 0.929 . S
C227 C225 1.433 . S
C227 N230 1.384 . S
C228 H219 0.929 . S
C228 C220 1.378 . S
C228 C223 1.350 . S
C229 H216 0.929 . S
C229 C221 1.433 . S
C229 N231 1.384 . S
N230 C226 1.427 . S
N230 C227 1.384 . S
N231 C223 1.427 . S
N231 C229 1.384 . S
H232 C238 0.930 . S
H233 C242 0.930 . S
H234 C247 0.929 . S
H235 C245 0.929 . S
H236 C240 0.934 . S
H237 C246 0.932 . S
C238 H232 0.930 . S
C238 C239 1.367 1_554 S
C238 C246 1.375 1_545 S
C239 C238 1.367 1_556 S
C239 C247 1.433 . S
C240 H236 0.934 . S
C240 C242 1.374 1_545 S
C240 C244 1.348 1_546 S
C241 C244 1.464 1_546 S
C241 C246 1.331 1_546 S
C241 N249 1.445 . S
C242 H233 0.930 . S
C242 C240 1.374 1_565 S
C242 C243 1.367 1_556 S
C243 C242 1.367 1_554 S
C243 C245 1.433 . S
C244 C240 1.348 1_564 S
C244 C241 1.464 1_564 S
C244 N248 1.427 . S
C245 H235 0.929 . S
C245 C243 1.433 . S
C245 N248 1.384 . S
C246 H237 0.932 . S
C246 C238 1.375 1_565 S
C246 C241 1.331 1_564 S
C247 H234 0.929 . S
C247 C239 1.433 . S
C247 N249 1.384 . S
N248 C244 1.427 . S
N248 C245 1.384 . S
N249 C241 1.445 . S
N249 C247 1.384 . S
H250 C256 0.930 1_545 S
H251 C260 0.930 1_565 S
H252 C265 0.929 . S
H253 C263 0.929 . S
H254 C258 0.929 . S
H255 C264 0.929 . S
C256 H250 0.930 1_565 S
C256 C257 1.367 . S
C256 C264 1.378 1_565 S
C257 C256 1.367 . S
C257 C265 1.433 . S
C258 H254 0.929 . S
C258 C260 1.378 1_565 S
C258 C262 1.350 1_565 S
C259 C262 1.463 1_565 S
C259 C264 1.350 1_565 S
C259 N267 1.427 . S
C260 H251 0.930 1_545 S
C260 C258 1.378 1_545 S
C260 C261 1.367 . S
C261 C260 1.367 . S
C261 C263 1.433 . S
C262 C258 1.350 1_545 S
C262 C259 1.463 1_545 S
C262 N266 1.427 . S
C263 H253 0.929 . S
C263 C261 1.433 . S
C263 N266 1.384 . S
C264 H255 0.929 . S
C264 C256 1.378 1_545 S
C264 C259 1.350 1_545 S
C265 H252 0.929 . S
C265 C257 1.433 . S
C265 N267 1.384 . S
N266 C262 1.427 . S
N266 C263 1.384 . S
N267 C259 1.427 . S
N267 C265 1.384 . S
H268 C274 0.930 . S
H269 C278 0.930 . S
H270 C283 0.929 . S
H271 C281 0.929 . S
H272 C276 0.929 . S
H273 C282 0.929 . S
C274 H268 0.930 . S
C274 C275 1.367 . S
C274 C282 1.378 . S
C275 C274 1.367 . S
C275 C283 1.433 1_556 S
C276 H272 0.929 . S
C276 C278 1.378 . S
C276 C280 1.350 . S
C277 C280 1.463 1_656 S
C277 C282 1.350 . S
C277 N285 1.427 1_556 S
C278 H269 0.930 . S
C278 C276 1.378 . S
C278 C279 1.367 . S
C279 C278 1.367 . S
C279 C281 1.433 1_554 S
C280 C276 1.350 . S
C280 C277 1.463 1_454 S
C280 N284 1.427 1_554 S
C281 H271 0.929 . S
C281 C279 1.433 1_556 S
C281 N284 1.384 . S
C282 H273 0.929 . S
C282 C274 1.378 . S
C282 C277 1.350 . S
C283 H270 0.929 . S
C283 C275 1.433 1_554 S
C283 N285 1.384 . S
N284 C280 1.427 1_556 S
N284 C281 1.384 . S
N285 C277 1.427 1_554 S
N285 C283 1.384 . S
H286 C292 0.930 . S
H287 C296 0.930 . S
H288 C301 0.929 . S
H289 C299 0.929 . S
H290 C294 0.929 . S
H291 C300 0.929 . S
C292 H286 0.930 . S
C292 C293 1.367 . S
C292 C300 1.378 . S
C293 C292 1.367 . S
C293 C301 1.433 . S
C294 H290 0.929 . S
C294 C296 1.378 . S
C294 C298 1.350 . S
C295 C298 1.463 1_455 S
C295 C300 1.350 . S
C295 N303 1.427 . S
C296 H287 0.930 . S
C296 C294 1.378 . S
C296 C297 1.367 . S
C297 C296 1.367 . S
C297 C299 1.433 . S
C298 C294 1.350 . S
C298 C295 1.463 1_655 S
C298 N302 1.427 . S
C299 H289 0.929 . S
C299 C297 1.433 . S
C299 N302 1.384 . S
C300 H291 0.929 . S
C300 C292 1.378 . S
C300 C295 1.350 . S
C301 H288 0.929 . S
C301 C293 1.433 . S
C301 N303 1.384 . S
N302 C298 1.427 . S
N302 C299 1.384 . S
N303 C295 1.427 . S
N303 C301 1.384 . S
H304 C310 0.930 . S
H305 C314 0.930 . S
H306 C319 0.929 . S
H307 C317 0.929 . S
H308 C312 0.929 . S
H309 C318 0.929 . S
C310 H304 0.930 . S
C310 C311 1.358 1_445 S
C310 C318 1.378 . S
C311 C310 1.358 1_665 S
C311 C319 1.441 . S
C312 H308 0.929 . S
C312 C314 1.378 . S
C312 C316 1.366 . S
C313 C316 1.464 1_455 S
C313 C318 1.350 1_565 S
C313 N321 1.427 1_455 S
C314 H305 0.930 . S
C314 C312 1.378 . S
C314 C315 1.350 1_655 S
C315 C314 1.350 1_455 S
C315 C317 1.448 1_565 S
C316 C312 1.366 . S
C316 C313 1.464 1_655 S
C316 N320 1.409 1_665 S
C317 H307 0.929 . S
C317 C315 1.448 1_545 S
C317 N320 1.384 . S
C318 H309 0.929 . S
C318 C310 1.378 . S
C318 C313 1.350 1_545 S
C319 H306 0.929 . S
C319 C311 1.441 . S
C319 N321 1.384 . S
N320 C316 1.409 1_445 S
N320 C317 1.384 . S
N321 C313 1.427 1_655 S
N321 C319 1.384 . S
H322 C328 0.930 . S
H323 C332 0.930 . S
H324 C337 0.929 . S
H325 C335 0.929 . S
H326 C330 0.929 . S
H327 C336 0.929 . S
C328 H322 0.930 . S
C328 C329 1.367 1_565 S
C328 C336 1.378 . S
C329 C328 1.367 1_545 S
C329 C337 1.433 1_655 S
C330 H326 0.929 . S
C330 C332 1.378 . S
C330 C334 1.350 . S
C331 C334 1.463 1_655 S
C331 C336 1.350 1_545 S
C331 N339 1.427 1_655 S
C332 H323 0.930 . S
C332 C330 1.378 . S
C332 C333 1.367 . S
C333 C332 1.367 . S
C333 C335 1.433 1_445 S
C334 C330 1.350 . S
C334 C331 1.463 1_455 S
C334 N338 1.427 1_445 S
C335 H325 0.929 . S
C335 C333 1.433 1_665 S
C335 N338 1.384 . S
C336 H327 0.929 . S
C336 C328 1.378 . S
C336 C331 1.350 1_565 S
C337 H324 0.929 . S
C337 C329 1.433 1_455 S
C337 N339 1.384 . S
N338 C334 1.427 1_665 S
N338 C335 1.384 . S
N339 C331 1.427 1_455 S
N339 C337 1.384 . S
H340 C346 0.930 . S
H341 C350 0.930 . S
H342 C355 0.929 . S
H343 C353 0.929 . S
H344 C348 0.929 . S
H345 C354 0.929 . S
C346 H340 0.930 . S
C346 C347 1.367 . S
C346 C354 1.378 . S
C347 C346 1.367 . S
C347 C355 1.433 . S
C348 H344 0.929 . S
C348 C350 1.378 . S
C348 C352 1.350 . S
C349 C352 1.463 . S
C349 C354 1.350 . S
C349 N357 1.427 . S
C350 H341 0.930 . S
C350 C348 1.378 . S
C350 C351 1.367 . S
C351 C350 1.367 . S
C351 C353 1.433 . S
C352 C348 1.350 . S
C352 C349 1.463 . S
C352 N356 1.427 . S
C353 H343 0.929 . S
C353 C351 1.433 . S
C353 N356 1.384 . S
C354 H345 0.929 . S
C354 C346 1.378 . S
C354 C349 1.350 . S
C355 H342 0.929 . S
C355 C347 1.433 . S
C355 N357 1.384 . S
N356 C352 1.427 . S
N356 C353 1.384 . S
N357 C349 1.427 . S
N357 C355 1.384 . S
H358 C364 0.930 . S
H359 C368 0.930 . S
H360 C373 0.929 . S
H361 C371 0.929 . S
H362 C366 0.929 . S
H363 C372 0.929 . S
C364 H358 0.930 . S
C364 C365 1.367 . S
C364 C372 1.378 . S
C365 C364 1.367 . S
C365 C373 1.433 . S
C366 H362 0.929 . S
C366 C368 1.378 . S
C366 C370 1.350 . S
C367 C370 1.463 . S
C367 C372 1.350 . S
C367 N375 1.427 . S
C368 H359 0.930 . S
C368 C366 1.378 . S
C368 C369 1.367 . S
C369 C368 1.367 . S
C369 C371 1.433 . S
C370 C366 1.350 . S
C370 C367 1.463 . S
C370 N374 1.427 . S
C371 H361 0.929 . S
C371 C369 1.433 . S
C371 N374 1.384 . S
C372 H363 0.929 . S
C372 C364 1.378 . S
C372 C367 1.350 . S
C373 H360 0.929 . S
C373 C365 1.433 . S
C373 N375 1.384 . S
N374 C370 1.427 . S
N374 C371 1.384 . S
N375 C367 1.427 . S
N375 C373 1.384 . S
C167 C102 1.613 . S
C171 C3 1.614 . S
C185 C83 1.606 . S
C189 C22 1.605 . S
C203 C62 1.609 . S
C207 C123 1.608 . S
C221 C43 1.613 . S
C225 C142 1.614 . S
C239 C26 1.435 . S
C243 C9 1.435 . S
C257 C49 1.434 . S
C261 C66 1.434 . S
C275 C106 1.447 . S
C279 C89 1.447 . S
C293 C146 1.445 . S
C297 C129 1.445 . S
C311 C55 1.476 1_565 S
C315 C15 1.480 1_565 S
C329 C2 1.466 1_545 S
C333 C42 1.474 1_545 S
C347 C135 1.472 . S
C351 C95 1.475 . S
C365 C122 1.477 . S
C369 C82 1.472 . S
