# Generated by pormake.
# Topology unp, (4)-cn, num edge types: 1
# Building blocks:
#     Node 0, Type 0, BuildingBlock: ICAMEG_clean_sbu_1, # of connection points: 4
#     Node 1, Type 0, BuildingBlock: ICAMEG_clean_sbu_1, # of connection points: 4
#     Node 2, Type 0, BuildingBlock: ICAMEG_clean_sbu_1, # of connection points: 4
#     Node 3, Type 0, BuildingBlock: ICAMEG_clean_sbu_1, # of connection points: 4
#     Node 4, Type 0, BuildingBlock: ICAMEG_clean_sbu_1, # of connection points: 4
#     Node 5, Type 0, BuildingBlock: ICAMEG_clean_sbu_1, # of connection points: 4
#     Node 6, Type 0, BuildingBlock: ICAMEG_clean_sbu_1, # of connection points: 4
#     Node 7, Type 0, BuildingBlock: ICAMEG_clean_sbu_1, # of connection points: 4
#     Node 8, Type 0, BuildingBlock: ICAMEG_clean_sbu_1, # of connection points: 4
#     Node 9, Type 0, BuildingBlock: ICAMEG_clean_sbu_1, # of connection points: 4
#     Node 10, Type 0, BuildingBlock: ICAMEG_clean_sbu_1, # of connection points: 4
#     Node 11, Type 0, BuildingBlock: ICAMEG_clean_sbu_1, # of connection points: 4
#     Node 12, Type 0, BuildingBlock: ICAMEG_clean_sbu_1, # of connection points: 4
#     Node 13, Type 0, BuildingBlock: ICAMEG_clean_sbu_1, # of connection points: 4
#     Node 14, Type 0, BuildingBlock: ICAMEG_clean_sbu_1, # of connection points: 4
#     Node 15, Type 0, BuildingBlock: ICAMEG_clean_sbu_1, # of connection points: 4
#     Node 16, Type 0, BuildingBlock: ICAMEG_clean_sbu_1, # of connection points: 4
#     Node 17, Type 0, BuildingBlock: ICAMEG_clean_sbu_1, # of connection points: 4
#     Edge 18, Type (0, 0), BuildingBlock: TEMPAE_clean_linker_10, # of connection points: 2
#     Edge 19, Type (0, 0), BuildingBlock: TEMPAE_clean_linker_10, # of connection points: 2
#     Edge 20, Type (0, 0), BuildingBlock: TEMPAE_clean_linker_10, # of connection points: 2
#     Edge 21, Type (0, 0), BuildingBlock: TEMPAE_clean_linker_10, # of connection points: 2
#     Edge 22, Type (0, 0), BuildingBlock: TEMPAE_clean_linker_10, # of connection points: 2
#     Edge 23, Type (0, 0), BuildingBlock: TEMPAE_clean_linker_10, # of connection points: 2
#     Edge 24, Type (0, 0), BuildingBlock: TEMPAE_clean_linker_10, # of connection points: 2
#     Edge 25, Type (0, 0), BuildingBlock: TEMPAE_clean_linker_10, # of connection points: 2
#     Edge 26, Type (0, 0), BuildingBlock: TEMPAE_clean_linker_10, # of connection points: 2
#     Edge 27, Type (0, 0), BuildingBlock: TEMPAE_clean_linker_10, # of connection points: 2
#     Edge 28, Type (0, 0), BuildingBlock: TEMPAE_clean_linker_10, # of connection points: 2
#     Edge 29, Type (0, 0), BuildingBlock: TEMPAE_clean_linker_10, # of connection points: 2
#     Edge 30, Type (0, 0), BuildingBlock: TEMPAE_clean_linker_10, # of connection points: 2
#     Edge 31, Type (0, 0), BuildingBlock: TEMPAE_clean_linker_10, # of connection points: 2
#     Edge 32, Type (0, 0), BuildingBlock: TEMPAE_clean_linker_10, # of connection points: 2
#     Edge 33, Type (0, 0), BuildingBlock: TEMPAE_clean_linker_10, # of connection points: 2
#     Edge 34, Type (0, 0), BuildingBlock: TEMPAE_clean_linker_10, # of connection points: 2
#     Edge 35, Type (0, 0), BuildingBlock: TEMPAE_clean_linker_10, # of connection points: 2
#     Edge 36, Type (0, 0), BuildingBlock: TEMPAE_clean_linker_10, # of connection points: 2
#     Edge 37, Type (0, 0), BuildingBlock: TEMPAE_clean_linker_10, # of connection points: 2
#     Edge 38, Type (0, 0), BuildingBlock: TEMPAE_clean_linker_10, # of connection points: 2
#     Edge 39, Type (0, 0), BuildingBlock: TEMPAE_clean_linker_10, # of connection points: 2
#     Edge 40, Type (0, 0), BuildingBlock: TEMPAE_clean_linker_10, # of connection points: 2
#     Edge 41, Type (0, 0), BuildingBlock: TEMPAE_clean_linker_10, # of connection points: 2
#     Edge 42, Type (0, 0), BuildingBlock: TEMPAE_clean_linker_10, # of connection points: 2
#     Edge 43, Type (0, 0), BuildingBlock: TEMPAE_clean_linker_10, # of connection points: 2
#     Edge 44, Type (0, 0), BuildingBlock: TEMPAE_clean_linker_10, # of connection points: 2
#     Edge 45, Type (0, 0), BuildingBlock: TEMPAE_clean_linker_10, # of connection points: 2
#     Edge 46, Type (0, 0), BuildingBlock: TEMPAE_clean_linker_10, # of connection points: 2
#     Edge 47, Type (0, 0), BuildingBlock: TEMPAE_clean_linker_10, # of connection points: 2
#     Edge 48, Type (0, 0), BuildingBlock: TEMPAE_clean_linker_10, # of connection points: 2
#     Edge 49, Type (0, 0), BuildingBlock: TEMPAE_clean_linker_10, # of connection points: 2
#     Edge 50, Type (0, 0), BuildingBlock: TEMPAE_clean_linker_10, # of connection points: 2
#     Edge 51, Type (0, 0), BuildingBlock: TEMPAE_clean_linker_10, # of connection points: 2
#     Edge 52, Type (0, 0), BuildingBlock: TEMPAE_clean_linker_10, # of connection points: 2
#     Edge 53, Type (0, 0), BuildingBlock: TEMPAE_clean_linker_10, # of connection points: 2
# Relax obj value: 0.384
# Max RMSD: 0.173
# Mean RMSD: 0.173
data_MOF--net-unp--node1-ICAMEG_clean_sbu_1--edge1-TEMPAE_clean_linker_10
_symmetry_space_group_name_H-M    P1
_symmetry_Int_Tables_number       1
_symmetry_cell_setting            triclinic
loop_
_symmetry_equiv_pos_as_xyz
'x, y, z'
_cell_length_a     51.89683
_cell_length_b     51.922895
_cell_length_c     64.44545
_cell_angle_alpha  89.992366
_cell_angle_beta   89.996704
_cell_angle_gamma 119.97108
loop_
_atom_site_label
_atom_site_type_symbol
_atom_site_fract_x
_atom_site_fract_y
_atom_site_fract_z
_atom_type_partial_charge
Co0 Co 0.14447 0.14429 0.10215 0.0
Co1 Co 0.16989 0.17346 0.15012 0.0
O2 O 0.17657 0.1723 0.12028 0.0
C3 C 0.18224 0.19908 0.07591 0.0
O4 O 0.2002 0.21331 0.09137 0.0
C5 C 0.22503 0.17058 0.14897 0.0
O6 O 0.21143 0.14803 0.13618 0.0
O7 O 0.15787 0.13083 0.1523 0.0
O8 O 0.12759 0.11379 0.12477 0.0
H9 H 0.11334 0.13498 0.21687 0.0
H10 H 0.20844 0.16919 0.0901 0.0
O11 O 0.15977 0.17322 0.07841 0.0
H12 H 0.16377 0.06043 0.08639 0.0
H13 H 0.09911 0.0928 0.03451 0.0
H14 H 0.07966 0.10307 0.10806 0.0
H15 H 0.13345 0.08264 0.09664 0.0
H16 H 0.13999 0.12669 0.05755 0.0
O17 O 0.21188 0.1841 0.15559 0.0
H18 H 0.12175 0.1346 0.17923 0.0
H19 H 0.20542 0.21373 0.18471 0.0
H20 H 0.03823 0.06883 0.08557 0.0
H21 H 0.23933 0.14792 0.0795 0.0
H22 H 0.0478 0.06349 0.04851 0.0
H23 H 0.21711 0.0931 0.07765 0.0
O24 O 0.11951 0.16113 0.11134 0.0
H25 H 0.23709 0.27918 0.12778 0.0
H26 H 0.14394 0.21054 0.16406 0.0
H27 H 0.15864 0.26345 0.16076 0.0
H28 H 0.20556 0.29819 0.14255 0.0
H29 H 0.22139 0.22601 0.13128 0.0
H30 H 0.19809 0.2148 0.22245 0.0
H31 H 0.1517 0.17531 0.23875 0.0
O32 O 0.12736 0.16233 0.14551 0.0
C33 C 0.13809 0.1097 0.14151 0.0
C34 C 0.1336 0.15239 0.20994 0.0
C35 C 0.18117 0.19717 0.21307 0.0
N36 N 0.16388 0.17431 0.17975 0.0
C37 C 0.13843 0.15234 0.18862 0.0
C38 C 0.18522 0.19642 0.1917 0.0
C39 C 0.15514 0.175 0.22221 0.0
C40 C 0.19827 0.14542 0.08889 0.0
N41 N 0.16885 0.12736 0.09348 0.0
C42 C 0.21604 0.13344 0.08307 0.0
C43 C 0.20359 0.10269 0.0821 0.0
C44 C 0.17368 0.08435 0.08701 0.0
C45 C 0.15661 0.09712 0.09277 0.0
C46 C 0.09465 0.09495 0.05063 0.0
C47 C 0.08409 0.1009 0.09197 0.0
C48 C 0.1177 0.11421 0.06375 0.0
N49 N 0.11227 0.11697 0.08417 0.0
C50 C 0.06049 0.08146 0.0793 0.0
C51 C 0.06587 0.0785 0.0585 0.0
C52 C 0.11152 0.16126 0.13002 0.0
C53 C 0.21658 0.26426 0.13574 0.0
C54 C 0.16425 0.22545 0.15594 0.0
C55 C 0.17253 0.25542 0.15421 0.0
C56 C 0.19887 0.2749 0.14401 0.0
N57 N 0.18173 0.21517 0.14775 0.0
C58 C 0.20761 0.23415 0.13779 0.0
Co59 Co 0.858 0.99619 0.10236 0.0
Co60 Co 0.83198 0.00032 0.14991 0.0
O61 O 0.83129 0.00346 0.11966 0.0
C62 C 0.80181 0.97626 0.07729 0.0
O63 O 0.78814 0.98027 0.093 0.0
C64 C 0.83366 0.05709 0.14308 0.0
O65 O 0.85531 0.06385 0.12981 0.0
O66 O 0.87468 0.03107 0.14986 0.0
O67 O 0.88972 0.01255 0.12427 0.0
H68 H 0.87468 0.99261 0.21804 0.0
H69 H 0.83339 0.03385 0.08658 0.0
O70 O 0.82786 0.97994 0.07936 0.0
H71 H 0.94216 0.09586 0.07992 0.0
H72 H 0.90558 0.99142 0.03536 0.0
H73 H 0.89841 0.97224 0.11066 0.0
H74 H 0.91976 0.04508 0.09395 0.0
H75 H 0.87344 0.00261 0.05724 0.0
O76 O 0.82156 0.03225 0.15254 0.0
H77 H 0.87257 0.99536 0.17992 0.0
H78 H 0.79416 0.0015 0.18433 0.0
H79 H 0.93087 0.96085 0.08935 0.0
H80 H 0.85481 0.08411 0.07199 0.0
H81 H 0.93465 0.97045 0.05142 0.0
H82 H 0.90963 0.11567 0.06866 0.0
O83 O 0.84085 0.95594 0.11459 0.0
H84 H 0.72472 0.95866 0.13018 0.0
H85 H 0.79588 0.93998 0.16869 0.0
H86 H 0.74279 0.90159 0.16818 0.0
H87 H 0.70679 0.91084 0.14885 0.0
H88 H 0.77807 0.99633 0.13092 0.0
H89 H 0.79559 -0.00086 0.22251 0.0
H90 H 0.83598 0.9945 0.23961 0.0
O91 O 0.84267 0.96821 0.14802 0.0
C92 C 0.89508 0.03046 0.13932 0.0
C93 C 0.8569 0.99452 0.21078 0.0
C94 C 0.81253 0.99821 0.21329 0.0
N95 N 0.8331 0.99826 0.17991 0.0
C96 C 0.85554 0.99598 0.1892 0.0
C97 C 0.81187 -0.0004 0.19166 0.0
C98 C 0.8352 0.99561 0.22287 0.0
C99 C 0.85714 0.04694 0.08473 0.0
N100 N 0.87512 0.03603 0.09071 0.0
C101 C 0.86922 0.07564 0.07664 0.0
C102 C 0.89997 0.09336 0.07484 0.0
C103 C 0.91823 0.08227 0.08115 0.0
C104 C 0.90536 0.05344 0.0891 0.0
C105 C 0.90411 0.98711 0.05188 0.0
C106 C 0.8999 0.97651 0.09418 0.0
C107 C 0.88584 0.99329 0.06435 0.0
N108 N 0.88395 0.98803 0.08525 0.0
C109 C 0.91834 0.97 0.08219 0.0
C110 C 0.92042 0.97537 0.0609 0.0
C111 C 0.84183 0.95067 0.13381 0.0
C112 C 0.7402 0.95435 0.13863 0.0
C113 C 0.78042 0.94407 0.16006 0.0
C114 C 0.75035 0.9223 0.15992 0.0
C115 C 0.73015 0.92751 0.1491 0.0
N116 N 0.79012 0.9703 0.14969 0.0
C117 C 0.77043 0.97561 0.13912 0.0
Co118 Co -5e-05 0.863 0.10389 0.0
Co119 Co 0.00367 0.83467 0.15067 0.0
O120 O 0.99628 0.82989 0.12069 0.0
C121 C 0.01813 0.82798 0.07559 0.0
O122 O 0.01557 0.80947 0.09037 0.0
C123 C 0.94656 0.77887 0.1478 0.0
O124 O 0.93744 0.79276 0.1354 0.0
O125 O 0.97234 0.84568 0.15373 0.0
O126 O 0.98587 0.87798 0.12742 0.0
H127 H 0.01975 0.88644 0.2193 0.0
H128 H 0.962 0.8 0.08975 0.0
O129 O 0.01396 0.84974 0.07928 0.0
H130 H 0.89648 0.84324 0.08851 0.0
H131 H 0.99312 0.91253 0.03849 0.0
H132 H 0.02304 0.92724 0.11209 0.0
H133 H 0.94864 0.87338 0.09965 0.0
H134 H 0.98669 0.87033 0.05984 0.0
O135 O 0.97296 0.79221 0.15491 0.0
H136 H 0.0116 0.88047 0.18149 0.0
H137 H 0.00885 0.79739 0.18379 0.0
H138 H 0.02959 0.96994 0.09132 0.0
H139 H 0.91017 0.76929 0.07838 0.0
H140 H 0.01458 0.96275 0.05425 0.0
H141 H 0.87688 0.79082 0.07775 0.0
O142 O 0.0416 0.88762 0.1134 0.0
H143 H 0.04455 0.77087 0.12502 0.0
H144 H 0.06657 0.8606 0.16494 0.0
H145 H 0.10559 0.84717 0.16054 0.0
H146 H 0.09467 0.80197 0.14049 0.0
H147 H 0.00625 0.78528 0.12966 0.0
H148 H 0.01665 0.80228 0.22167 0.0
H149 H 0.02231 0.84714 0.23966 0.0
O150 O 0.03457 0.87763 0.14734 0.0
C151 C 0.97087 0.86608 0.1438 0.0
C152 C 0.01744 0.86684 0.21164 0.0
C153 C 0.01566 0.8196 0.21297 0.0
N154 N 0.01009 0.83879 0.18042 0.0
C155 C 0.01292 0.8634 0.19022 0.0
C156 C 0.0112 0.81693 0.19152 0.0
C157 C 0.01884 0.84477 0.22305 0.0
C158 C 0.94805 0.80987 0.08915 0.0
N159 N 0.95881 0.83879 0.0949 0.0
C160 C 0.91851 0.7922 0.08287 0.0
C161 C 0.89982 0.80425 0.08259 0.0
C162 C 0.91079 0.83365 0.08866 0.0
C163 C 0.94042 0.85062 0.09491 0.0
C164 C -0.00025 0.91594 0.05464 0.0
C165 C 0.01638 0.92384 0.09599 0.0
C166 C 0.99628 0.89215 0.0668 0.0
N167 N 0.00448 0.89624 0.08724 0.0
C168 C 0.02018 0.94815 0.0843 0.0
C169 C 0.01178 0.94411 0.06349 0.0
C170 C 0.04952 0.89439 0.13225 0.0
C171 C 0.04959 0.79062 0.13378 0.0
C172 C 0.06171 0.84104 0.15604 0.0
C173 C 0.08386 0.83347 0.15368 0.0
C174 C 0.07771 0.80809 0.14245 0.0
N175 N 0.03419 0.8238 0.14747 0.0
C176 C 0.02798 0.79887 0.13648 0.0
Co177 Co 0.14376 0.14196 0.90063 0.0
Co178 Co 0.17102 0.16914 0.85262 0.0
O179 O 0.1706 0.17501 0.88262 0.0
C180 C 0.19875 0.18058 0.92642 0.0
O181 O 0.21227 0.19875 0.91091 0.0
C182 C 0.16687 0.22363 0.85486 0.0
O183 O 0.14461 0.20973 0.86786 0.0
O184 O 0.12807 0.1562 0.85143 0.0
O185 O 0.11276 0.12477 0.87832 0.0
H186 H 0.13124 0.11361 0.78568 0.0
H187 H 0.16686 0.2053 0.91347 0.0
O188 O 0.17321 0.15758 0.92406 0.0
H189 H 0.05787 0.15691 0.91916 0.0
H190 H 0.09463 0.09355 0.96827 0.0
H191 H 0.10436 0.07706 0.89404 0.0
H192 H 0.08147 0.12843 0.90756 0.0
H193 H 0.12701 0.13561 0.94551 0.0
O194 O 0.18054 0.21085 0.84784 0.0
H195 H 0.13196 0.12118 0.82351 0.0
H196 H 0.20969 0.20593 0.81773 0.0
H197 H 0.07166 0.03446 0.91621 0.0
H198 H 0.1442 0.23438 0.92538 0.0
H199 H 0.06659 0.04254 0.95363 0.0
H200 H 0.08925 0.21027 0.92824 0.0
O201 O 0.16175 0.11847 0.89039 0.0
H202 H 0.27704 0.23778 0.87371 0.0
H203 H 0.20894 0.14505 0.83685 0.0
H204 H 0.26228 0.16098 0.83904 0.0
H205 H 0.29675 0.20769 0.85754 0.0
H206 H 0.22346 0.22088 0.8713 0.0
H207 H 0.20963 0.19943 0.77981 0.0
H208 H 0.17028 0.15293 0.76356 0.0
O209 O 0.16123 0.12696 0.85646 0.0
C210 C 0.10758 0.1358 0.86228 0.0
C211 C 0.14856 0.13393 0.79258 0.0
C212 C 0.19254 0.18211 0.78929 0.0
N213 N 0.17101 0.16382 0.82283 0.0
C214 C 0.14914 0.1383 0.814 0.0
C215 C 0.19242 0.18569 0.81076 0.0
C216 C 0.17046 0.15601 0.78018 0.0
C217 C 0.14307 0.19433 0.91508 0.0
N218 N 0.12572 0.16488 0.91031 0.0
C219 C 0.13028 0.21106 0.92166 0.0
C220 C 0.09946 0.19756 0.9232 0.0
C221 C 0.08184 0.16763 0.91809 0.0
C222 C 0.0954 0.15161 0.91157 0.0
C223 C 0.09667 0.08974 0.95199 0.0
C224 C 0.1023 0.08084 0.91028 0.0
C225 C 0.11507 0.11346 0.93903 0.0
N226 N 0.11766 0.10885 0.91843 0.0
C227 C 0.08373 0.05658 0.92278 0.0
C228 C 0.08092 0.06113 0.94377 0.0
C229 C 0.16171 0.11122 0.87149 0.0
C230 C 0.26224 0.21737 0.86563 0.0
C231 C 0.22373 0.16526 0.8451 0.0
C232 C 0.25395 0.17424 0.8462 0.0
C233 C 0.27328 0.20047 0.85656 0.0
N234 N 0.21307 0.18194 0.85407 0.0
C235 C 0.2319 0.20771 0.86419 0.0
Co236 Co 0.8613 0.00142 0.90557 0.0
Co237 Co 0.83324 0.99828 0.85738 0.0
O238 O 0.82809 0.99455 0.88754 0.0
C239 C 0.82411 0.02096 0.92994 0.0
O240 O 0.80658 0.01662 0.91407 0.0
C241 C 0.77745 0.94157 0.86279 0.0
O242 O 0.79119 0.93418 0.87662 0.0
O243 O 0.84506 0.96738 0.85771 0.0
O244 O 0.8774 0.98524 0.88408 0.0
H245 H 0.88653 0.00696 0.79039 0.0
H246 H 0.79828 0.96363 0.92004 0.0
O247 O 0.84667 0.01753 0.92819 0.0
H248 H 0.84448 0.90126 0.92797 0.0
H249 H 0.91078 0.00502 0.97367 0.0
H250 H 0.9259 0.02518 0.89858 0.0
H251 H 0.87353 0.95223 0.91439 0.0
H252 H 0.8684 0.99426 0.95089 0.0
O253 O 0.79102 0.96667 0.85374 0.0
H254 H 0.87996 0.00345 0.82838 0.0
H255 H 0.79603 0.99828 0.8221 0.0
H256 H 0.96882 0.03616 0.92077 0.0
H257 H 0.76875 0.9132 0.9342 0.0
H258 H 0.96142 0.02606 0.95862 0.0
H259 H 0.79173 0.88146 0.93818 0.0
O260 O 0.88515 0.04187 0.89374 0.0
H261 H 0.76733 0.04011 0.87578 0.0
H262 H 0.85852 0.05902 0.83906 0.0
H263 H 0.84407 0.0976 0.83925 0.0
H264 H 0.79814 0.08824 0.85767 0.0
H265 H 0.78276 0.00224 0.87536 0.0
H266 H 0.80153 0.0014 0.78402 0.0
H267 H 0.84712 0.00593 0.76793 0.0
O268 O 0.87593 0.03012 0.86016 0.0
C269 C 0.86577 0.96793 0.86861 0.0
C270 C 0.86661 0.00509 0.79721 0.0
C271 C 0.81889 0.00194 0.79364 0.0
N272 N 0.83779 0.00097 0.82746 0.0
C273 C 0.86281 0.00319 0.81872 0.0
C274 C 0.81588 0.00012 0.81521 0.0
C275 C 0.84448 0.00449 0.78462 0.0
C276 C 0.80882 0.95048 0.92219 0.0
N277 N 0.83794 0.96141 0.91684 0.0
C278 C 0.79181 0.92168 0.93003 0.0
C279 C 0.80468 0.90386 0.9322 0.0
C280 C 0.83426 0.91495 0.92648 0.0
C281 C 0.85061 0.94388 0.91878 0.0
C282 C 0.91429 0.00954 0.9572 0.0
C283 C 0.92243 0.02068 0.91501 0.0
C284 C 0.89039 0.00359 0.94422 0.0
N285 N 0.89462 0.00914 0.92339 0.0
C286 C 0.94686 0.02696 0.92751 0.0
C287 C 0.94269 0.02132 0.94875 0.0
C288 C 0.89215 0.04739 0.87464 0.0
C289 C 0.78742 0.04447 0.86772 0.0
C290 C 0.83866 0.05487 0.84729 0.0
C291 C 0.83052 0.07676 0.84725 0.0
C292 C 0.80472 0.07148 0.85757 0.0
N293 N 0.82161 0.02846 0.85733 0.0
C294 C 0.79625 0.0231 0.86741 0.0
Co295 Co 0.0113 0.85559 0.89449 0.0
Co296 Co 0.00588 0.83319 0.8443 0.0
O297 O 0.01319 0.82943 0.87357 0.0
C298 C 0.97572 0.81335 0.92753 0.0
O299 O 0.956 0.82184 0.92471 0.0
C300 C 0.06284 0.83398 0.84353 0.0
O301 O 0.07218 0.85504 0.8576 0.0
O302 O 0.03733 0.87576 0.84472 0.0
O303 O 0.02552 0.88948 0.87455 0.0
H304 H 0.98927 0.88224 0.78258 0.0
H305 H 0.04524 0.82483 0.90359 0.0
O306 O 0.9977 0.82244 0.91514 0.0
H307 H 0.11811 0.93184 0.90941 0.0
H308 H 0.02566 0.90035 0.966 0.0
H309 H 0.98834 0.8977 0.89523 0.0
H310 H 0.06567 0.91488 0.90123 0.0
H311 H 0.02935 0.86853 0.93915 0.0
O312 O 0.03639 0.82224 0.83656 0.0
H313 H 0.99769 0.87675 0.81958 0.0
H314 H 0.00073 0.7982 0.8063 0.0
H315 H 0.98414 0.92972 0.92162 0.0
H316 H 0.0974 0.84085 0.91225 0.0
H317 H 0.00287 0.93119 0.95733 0.0
H318 H 0.13428 0.89471 0.91508 0.0
O319 O 0.96972 0.84232 0.88603 0.0
H320 H 0.96389 0.72458 0.85951 0.0
H321 H 0.94321 0.79957 0.82913 0.0
H322 H 0.90388 0.74681 0.82922 0.0
H323 H 0.91416 0.70889 0.84442 0.0
H324 H 0.0025 0.77764 0.85926 0.0
H325 H 0.99267 0.80301 0.7691 0.0
H326 H 0.98671 0.84518 0.75705 0.0
O327 O 0.97523 0.84447 0.85149 0.0
C328 C 0.03944 0.89551 0.85737 0.0
C329 C 0.99172 0.8637 0.78765 0.0
C330 C 0.99366 0.81925 0.78008 0.0
N331 N -0.00063 0.83701 0.81511 0.0
C332 C 0.99639 0.86043 0.80859 0.0
C333 C -0.00172 0.81668 0.80115 0.0
C334 C 0.99031 0.84292 0.77333 0.0
C335 C 0.06105 0.84829 0.90511 0.0
N336 N 0.05232 0.86884 0.90201 0.0
C337 C 0.0906 0.85724 0.9099 0.0
C338 C 0.11129 0.88746 0.91144 0.0
C339 C 0.10224 0.9083 0.90826 0.0
C340 C 0.0725 0.89854 0.90355 0.0
C341 C 0.01736 0.89984 0.95052 0.0
C342 C 0.99647 0.89811 0.91073 0.0
C343 C 0.01937 0.88186 0.93524 0.0
N344 N 0.00889 0.88107 0.91563 0.0
C345 C 0.99407 0.91635 0.92561 0.0
C346 C 0.00458 0.91716 0.94564 0.0
C347 C 0.9612 0.84429 0.86782 0.0
C348 C 0.95917 0.74089 0.8528 0.0
C349 C 0.9478 0.78322 0.83587 0.0
C350 C 0.92547 0.75337 0.83582 0.0
C351 C 0.93126 0.7321 0.84435 0.0
N352 N 0.97516 0.79163 0.8441 0.0
C353 C 0.98096 0.77094 0.85257 0.0
Co354 Co 0.81136 0.47518 0.44102 0.0
Co355 Co 0.83141 0.5019 0.49016 0.0
O356 O 0.84075 0.50275 0.46072 0.0
C357 C 0.81718 0.51497 0.40638 0.0
O358 O 0.78921 0.50718 0.40955 0.0
C359 C 0.88635 0.49891 0.49062 0.0
O360 O 0.87324 0.47683 0.47741 0.0
O361 O 0.81903 0.45904 0.49161 0.0
O362 O 0.79228 0.44317 0.46234 0.0
H363 H 0.76874 0.45999 0.55415 0.0
H364 H 0.8755 0.50411 0.43042 0.0
O365 O 0.83029 0.50644 0.41901 0.0
H366 H 0.83947 0.39644 0.42897 0.0
H367 H 0.77684 0.42496 0.37143 0.0
H368 H 0.74618 0.43362 0.4423 0.0
H369 H 0.80505 0.41492 0.43665 0.0
H370 H 0.81389 0.4585 0.39688 0.0
O371 O 0.8729 0.51217 0.4972 0.0
H372 H 0.78051 0.46173 0.51692 0.0
H373 H 0.86401 0.53979 0.52647 0.0
H374 H 0.70844 0.39975 0.41739 0.0
H375 H 0.91054 0.48651 0.42226 0.0
H376 H 0.72367 0.39524 0.38163 0.0
H377 H 0.89261 0.43232 0.42164 0.0
O378 O 0.78396 0.48981 0.44911 0.0
H379 H 0.89966 0.60846 0.47021 0.0
H380 H 0.80479 0.53838 0.50399 0.0
H381 H 0.81973 0.59146 0.50165 0.0
H382 H 0.86753 0.62692 0.48472 0.0
H383 H 0.88372 0.55513 0.47273 0.0
H384 H 0.8533 0.53872 0.56386 0.0
H385 H 0.80529 0.49869 0.5779 0.0
O386 O 0.7895 0.49122 0.48366 0.0
C387 C 0.8005 0.43844 0.47985 0.0
C388 C 0.78969 0.47761 0.54821 0.0
C389 C 0.83716 0.52178 0.55366 0.0
N390 N 0.82276 0.50102 0.5195 0.0
C391 C 0.79643 0.47877 0.52713 0.0
C392 C 0.84313 0.52224 0.53249 0.0
C393 C 0.81022 0.49932 0.56153 0.0
C394 C 0.86741 0.48048 0.42985 0.0
N395 N 0.8382 0.46061 0.4339 0.0
C396 C 0.88741 0.47065 0.42535 0.0
C397 C 0.87734 0.44024 0.42504 0.0
C398 C 0.84753 0.4201 0.42917 0.0
C399 C 0.82817 0.43073 0.43358 0.0
C400 C 0.76991 0.42674 0.38695 0.0
C401 C 0.75302 0.43187 0.42678 0.0
C402 C 0.79079 0.44575 0.40143 0.0
N403 N 0.78221 0.44825 0.42105 0.0
C404 C 0.73153 0.4126 0.41274 0.0
C405 C 0.74009 0.41008 0.39269 0.0
C406 C 0.77469 0.48987 0.46745 0.0
C407 C 0.87882 0.59324 0.47766 0.0
C408 C 0.82555 0.55365 0.49651 0.0
C409 C 0.83393 0.58369 0.49528 0.0
C410 C 0.86076 0.60358 0.48579 0.0
N411 N 0.84345 0.54372 0.48858 0.0
C412 C 0.86972 0.56305 0.47918 0.0
Co413 Co 0.52076 0.32844 0.43712 0.0
Co414 Co 0.4941 0.33104 0.48467 0.0
O415 O 0.4938 0.33542 0.45447 0.0
C416 C 0.46586 0.31092 0.41093 0.0
O417 O 0.45235 0.31639 0.42605 0.0
C418 C 0.49504 0.38816 0.48023 0.0
O419 O 0.51684 0.3966 0.46681 0.0
O420 O 0.53675 0.36217 0.48494 0.0
O421 O 0.55182 0.34355 0.45948 0.0
H422 H 0.53678 0.32145 0.55227 0.0
H423 H 0.49764 0.36802 0.42256 0.0
O424 O 0.4913 0.31334 0.41368 0.0
H425 H 0.60662 0.42808 0.41648 0.0
H426 H 0.56957 0.32503 0.37033 0.0
H427 H 0.56042 0.30357 0.44534 0.0
H428 H 0.58301 0.37667 0.42941 0.0
H429 H 0.53737 0.33618 0.39217 0.0
O430 O 0.48309 0.36239 0.48832 0.0
H431 H 0.53485 0.3256 0.51425 0.0
H432 H 0.45553 0.32996 0.51941 0.0
H433 H 0.59293 0.29221 0.42408 0.0
H434 H 0.52027 0.41901 0.40917 0.0
H435 H 0.5977 0.30295 0.38628 0.0
H436 H 0.57522 0.44959 0.40611 0.0
O437 O 0.50278 0.28764 0.44854 0.0
H438 H 0.38721 0.28896 0.46389 0.0
H439 H 0.45806 0.27008 0.50264 0.0
H440 H 0.40512 0.23135 0.5014 0.0
H441 H 0.36927 0.24069 0.48195 0.0
H442 H 0.44042 0.32701 0.46541 0.0
H443 H 0.45677 0.3262 0.55751 0.0
H444 H 0.49754 0.32176 0.57418 0.0
O445 O 0.50507 0.29923 0.48209 0.0
C446 C 0.55719 0.3616 0.47442 0.0
C447 C 0.51885 0.32329 0.54519 0.0
C448 C 0.47397 0.32599 0.54813 0.0
N449 N 0.49497 0.32776 0.51461 0.0
C450 C 0.5176 0.32556 0.52367 0.0
C451 C 0.47342 0.32818 0.52656 0.0
C452 C 0.49684 0.32349 0.55747 0.0
C453 C 0.52142 0.38068 0.42084 0.0
N454 N 0.53877 0.36882 0.42629 0.0
C455 C 0.53419 0.40979 0.41343 0.0
C456 C 0.56502 0.42697 0.41177 0.0
C457 C 0.58264 0.41492 0.41758 0.0
C458 C 0.56908 0.38572 0.42488 0.0
C459 C 0.56766 0.32022 0.38678 0.0
C460 C 0.56234 0.30836 0.42892 0.0
C461 C 0.54935 0.32638 0.39923 0.0
N462 N 0.54689 0.32047 0.42005 0.0
C463 C 0.58081 0.30186 0.41695 0.0
C464 C 0.58345 0.30786 0.39574 0.0
C465 C 0.50363 0.28176 0.46764 0.0
C466 C 0.40262 0.28461 0.4724 0.0
C467 C 0.44266 0.27424 0.49399 0.0
C468 C 0.41268 0.25226 0.49342 0.0
C469 C 0.39257 0.25753 0.48252 0.0
N470 N 0.45235 0.30074 0.48399 0.0
C471 C 0.43276 0.30608 0.47332 0.0
Co472 Co 0.65697 0.19389 0.43348 0.0
Co473 Co 0.66255 0.16297 0.47864 0.0
O474 O 0.65455 0.1601 0.44872 0.0
C475 C 0.67807 0.1634 0.40334 0.0
O476 O 0.6791 0.14614 0.41779 0.0
C477 C 0.60586 0.10694 0.47487 0.0
O478 O 0.59633 0.12117 0.46318 0.0
O479 O 0.63091 0.1732 0.48349 0.0
O480 O 0.6429 0.20671 0.45815 0.0
H481 H 0.68007 0.21022 0.54911 0.0
H482 H 0.62115 0.13234 0.41688 0.0
O483 O 0.67088 0.1829 0.40776 0.0
H484 H 0.55168 0.17081 0.42097 0.0
H485 H 0.64578 0.24656 0.37136 0.0
H486 H 0.67917 0.25724 0.44407 0.0
H487 H 0.60386 0.20194 0.43195 0.0
H488 H 0.64155 0.20352 0.39053 0.0
O489 O 0.63231 0.12021 0.48189 0.0
H490 H 0.67088 0.20659 0.51139 0.0
H491 H 0.66902 0.12391 0.50963 0.0
H492 H 0.68359 0.30074 0.42552 0.0
H493 H 0.56925 0.10061 0.40579 0.0
H494 H 0.66676 0.29557 0.3889 0.0
H495 H 0.53403 0.11977 0.40785 0.0
O496 O 0.69871 0.21884 0.44273 0.0
H497 H 0.70369 0.10162 0.44863 0.0
H498 H 0.72594 0.18879 0.49173 0.0
H499 H 0.76521 0.17624 0.4853 0.0
H500 H 0.75418 0.13233 0.46365 0.0
H501 H 0.66515 0.11518 0.45528 0.0
H502 H 0.67784 0.12646 0.54738 0.0
H503 H 0.68359 0.16994 0.56736 0.0
O504 O 0.69299 0.20619 0.4763 0.0
C505 C 0.62888 0.19401 0.47468 0.0
C506 C 0.67771 0.19121 0.54057 0.0
C507 C 0.67643 0.14419 0.5396 0.0
N508 N 0.66973 0.16523 0.50829 0.0
C509 C 0.6726 0.18908 0.51919 0.0
C510 C 0.67138 0.14284 0.51824 0.0
C511 C 0.67965 0.16859 0.5508 0.0
C512 C 0.60622 0.1411 0.41755 0.0
N513 N 0.61584 0.16923 0.42473 0.0
C514 C 0.57671 0.12289 0.41139 0.0
C515 C 0.55695 0.13362 0.4126 0.0
C516 C 0.56683 0.16224 0.42003 0.0
C517 C 0.59645 0.17977 0.42618 0.0
C518 C 0.65317 0.24909 0.38732 0.0
C519 C 0.67176 0.25473 0.42815 0.0
C520 C 0.65094 0.22481 0.39824 0.0
N521 N 0.66007 0.22778 0.41844 0.0
C522 C 0.67435 0.27949 0.41772 0.0
C523 C 0.66493 0.27658 0.39717 0.0
C524 C 0.70725 0.22417 0.46157 0.0
C525 C 0.70878 0.12082 0.45809 0.0
C526 C 0.72102 0.16982 0.48213 0.0
C527 C 0.74332 0.16273 0.47863 0.0
C528 C 0.73711 0.13807 0.4665 0.0
N529 N 0.69331 0.15281 0.47378 0.0
C530 C 0.68703 0.12856 0.46194 0.0
Co531 Co 0.79134 0.47566 0.22629 0.0
Co532 Co 0.82812 0.50484 0.18081 0.0
O533 O 0.82378 0.50815 0.21079 0.0
C534 C 0.84315 0.50431 0.25646 0.0
O535 O 0.86132 0.52271 0.24242 0.0
C536 C 0.83131 0.56282 0.18442 0.0
O537 O 0.8072 0.54978 0.19588 0.0
O538 O 0.78692 0.49696 0.17609 0.0
O539 O 0.76425 0.46459 0.20195 0.0
H540 H 0.79572 0.45779 0.11045 0.0
H541 H 0.82125 0.53799 0.24246 0.0
O542 O 0.81655 0.48489 0.2518 0.0
H543 H 0.71485 0.50673 0.23894 0.0
H544 H 0.72663 0.42674 0.28879 0.0
H545 H 0.74633 0.41332 0.2159 0.0
H546 H 0.73227 0.47232 0.2284 0.0
H547 H 0.76754 0.46786 0.26952 0.0
O548 O 0.84312 0.54814 0.17758 0.0
H549 H 0.79094 0.462 0.1482 0.0
H550 H 0.8743 0.54208 0.1496 0.0
H551 H 0.70505 0.37178 0.23453 0.0
H552 H 0.80468 0.57265 0.25343 0.0
H553 H 0.69485 0.37836 0.27123 0.0
H554 H 0.75108 0.55716 0.25163 0.0
O555 O 0.80495 0.44814 0.21667 0.0
H556 H 0.93128 0.56102 0.21054 0.0
H557 H 0.86252 0.47573 0.16733 0.0
H558 H 0.91338 0.48512 0.17351 0.0
H559 H 0.94819 0.52807 0.19522 0.0
H560 H 0.8801 0.55063 0.20412 0.0
H561 H 0.87983 0.53892 0.11182 0.0
H562 H 0.84042 0.49645 0.092 0.0
O563 O 0.81296 0.46116 0.18315 0.0
C564 C 0.7637 0.47706 0.18513 0.0
C565 C 0.81308 0.47635 0.11892 0.0
C566 C 0.86027 0.52191 0.11968 0.0
N567 N 0.83243 0.50212 0.15112 0.0
C568 C 0.81054 0.47881 0.14031 0.0
C569 C 0.85699 0.52362 0.14106 0.0
C570 C 0.83816 0.49807 0.10858 0.0
C571 C 0.79785 0.53064 0.24208 0.0
N572 N 0.77778 0.50274 0.23527 0.0
C573 C 0.7886 0.55057 0.24812 0.0
C574 C 0.75855 0.54191 0.24705 0.0
C575 C 0.7382 0.51358 0.2399 0.0
C576 C 0.74825 0.49422 0.23399 0.0
C577 C 0.73081 0.42361 0.27279 0.0
C578 C 0.7421 0.41643 0.23186 0.0
C579 C 0.75405 0.44678 0.26182 0.0
N580 N 0.75932 0.44309 0.24155 0.0
C581 C 0.71867 0.39278 0.24234 0.0
C582 C 0.71299 0.39647 0.26293 0.0
C583 C 0.80788 0.44266 0.19779 0.0
C584 C 0.91632 0.54223 0.20106 0.0
C585 C 0.87743 0.49431 0.17695 0.0
C586 C 0.90626 0.49959 0.18031 0.0
C587 C 0.92578 0.52372 0.19248 0.0
N588 N 0.86831 0.51255 0.18545 0.0
C589 C 0.88734 0.53627 0.19734 0.0
Co590 Co 0.52362 0.32752 0.23413 0.0
Co591 Co 0.49456 0.32686 0.18674 0.0
O592 O 0.48978 0.32117 0.21685 0.0
C593 C 0.48601 0.3442 0.2608 0.0
O594 O 0.46767 0.33996 0.24548 0.0
C595 C 0.43867 0.26913 0.19012 0.0
O596 O 0.45172 0.2602 0.20342 0.0
O597 O 0.50678 0.29624 0.18548 0.0
O598 O 0.53999 0.31365 0.21129 0.0
H599 H 0.54803 0.34099 0.11905 0.0
H600 H 0.4609 0.28751 0.24832 0.0
O601 O 0.50885 0.34144 0.25806 0.0
H602 H 0.50925 0.22666 0.25171 0.0
H603 H 0.5749 0.32761 0.30061 0.0
H604 H 0.5882 0.35247 0.22611 0.0
H605 H 0.53741 0.27878 0.24022 0.0
H606 H 0.53189 0.31774 0.27881 0.0
O607 O 0.45253 0.29523 0.18257 0.0
H608 H 0.54152 0.33485 0.15698 0.0
H609 H 0.45699 0.3287 0.15233 0.0
H610 H 0.63173 0.36256 0.24732 0.0
H611 H 0.4322 0.2358 0.2603 0.0
H612 H 0.62526 0.35011 0.28487 0.0
H613 H 0.45628 0.20483 0.26197 0.0
O614 O 0.54668 0.36889 0.22361 0.0
H615 H 0.42786 0.36596 0.20923 0.0
H616 H 0.51838 0.38844 0.17011 0.0
H617 H 0.50312 0.42631 0.17254 0.0
H618 H 0.45751 0.41516 0.19218 0.0
H619 H 0.44412 0.32883 0.20656 0.0
H620 H 0.46241 0.33441 0.11432 0.0
H621 H 0.50827 0.34077 0.09745 0.0
O622 O 0.53697 0.35911 0.18983 0.0
C623 C 0.52785 0.29662 0.1958 0.0
C624 C 0.52797 0.3383 0.12622 0.0
C625 C 0.47991 0.33458 0.12357 0.0
N626 N 0.49899 0.33161 0.15687 0.0
C627 C 0.52419 0.33489 0.1477 0.0
C628 C 0.47692 0.33126 0.14509 0.0
C629 C 0.50565 0.33815 0.11411 0.0
C630 C 0.47189 0.27465 0.24946 0.0
N631 N 0.50112 0.28666 0.24402 0.0
C632 C 0.45536 0.24514 0.25607 0.0
C633 C 0.46885 0.22775 0.25695 0.0
C634 C 0.49856 0.23999 0.2512 0.0
C635 C 0.5144 0.26959 0.24472 0.0
C636 C 0.57801 0.33317 0.28427 0.0
C637 C 0.58511 0.34694 0.24242 0.0
C638 C 0.55374 0.32776 0.27186 0.0
N639 N 0.55747 0.33464 0.25118 0.0
C640 C 0.60989 0.35272 0.25436 0.0
C641 C 0.60625 0.34577 0.27543 0.0
C642 C 0.55287 0.37596 0.20457 0.0
C643 C 0.44781 0.37112 0.20066 0.0
C644 C 0.49869 0.38352 0.17887 0.0
C645 C 0.49007 0.405 0.1801 0.0
C646 C 0.46446 0.39872 0.1911 0.0
N647 N 0.48229 0.35652 0.18834 0.0
C648 C 0.45711 0.35017 0.19908 0.0
Co649 Co 0.68407 0.19875 0.22154 0.0
Co650 Co 0.66836 0.16371 0.1748 0.0
O651 O 0.68336 0.16868 0.20314 0.0
C652 C 0.65605 0.14845 0.25223 0.0
O653 O 0.63057 0.13624 0.24228 0.0
C654 C 0.72678 0.16868 0.17004 0.0
O655 O 0.73734 0.19311 0.18109 0.0
O656 O 0.69657 0.20638 0.16881 0.0
O657 O 0.69088 0.22641 0.19805 0.0
H658 H 0.63083 0.1911 0.11147 0.0
H659 H 0.7239 0.17423 0.22995 0.0
O660 O 0.67829 0.17229 0.24567 0.0
H661 H 0.79047 0.28228 0.22183 0.0
H662 H 0.70914 0.25789 0.28783 0.0
H663 H 0.65916 0.23931 0.21993 0.0
H664 H 0.73608 0.2604 0.21941 0.0
H665 H 0.70922 0.22108 0.2637 0.0
O666 O 0.69913 0.15372 0.16586 0.0
H667 H 0.64932 0.19704 0.1474 0.0
H668 H 0.65739 0.11994 0.14125 0.0
H669 H 0.65884 0.2765 0.24347 0.0
H670 H 0.77815 0.19528 0.2328 0.0
H671 H 0.68399 0.28604 0.27771 0.0
H672 H 0.81184 0.24966 0.22858 0.0
O673 O 0.64055 0.18158 0.21773 0.0
H674 H 0.63963 0.06281 0.20331 0.0
H675 H 0.60338 0.12301 0.16811 0.0
H676 H 0.56805 0.07053 0.17648 0.0
H677 H 0.58615 0.04005 0.19416 0.0
H678 H 0.67415 0.11545 0.19479 0.0
H679 H 0.63931 0.11333 0.10515 0.0
H680 H 0.62572 0.14899 0.09008 0.0
O681 O 0.63746 0.17395 0.18335 0.0
C682 C 0.69978 0.22845 0.17942 0.0
C683 C 0.63657 0.17535 0.11788 0.0
C684 C 0.64137 0.13173 0.11433 0.0
N685 N 0.65411 0.15867 0.14647 0.0
C686 C 0.64696 0.17855 0.13824 0.0
C687 C 0.65165 0.13561 0.13475 0.0
C688 C 0.63374 0.15174 0.10588 0.0
C689 C 0.73838 0.19797 0.2284 0.0
N690 N 0.72679 0.21604 0.22458 0.0
C691 C 0.7691 0.20974 0.22992 0.0
C692 C 0.78799 0.24024 0.22752 0.0
C693 C 0.77601 0.25856 0.22371 0.0
C694 C 0.74519 0.24602 0.22232 0.0
C695 C 0.69815 0.25396 0.27294 0.0
C696 C 0.67024 0.24335 0.23475 0.0
C697 C 0.69801 0.23305 0.25924 0.0
N698 N 0.68425 0.22803 0.24038 0.0
C699 C 0.66995 0.26444 0.24804 0.0
C700 C 0.68403 0.26975 0.26726 0.0
C701 C 0.62721 0.17778 0.20038 0.0
C702 C 0.63149 0.07584 0.19555 0.0
C703 C 0.61141 0.1099 0.17585 0.0
C704 C 0.59131 0.08019 0.18052 0.0
C705 C 0.60148 0.06309 0.19043 0.0
N706 N 0.64082 0.12221 0.18085 0.0
C707 C 0.65095 0.10562 0.19063 0.0
Co708 Co 0.48623 0.78736 0.77645 0.0
Co709 Co 0.50523 0.82765 0.82125 0.0
O710 O 0.51471 0.82083 0.79315 0.0
C711 C 0.507 0.83722 0.74607 0.0
O712 O 0.49978 0.8521 0.75903 0.0
C713 C 0.5614 0.82799 0.82616 0.0
O714 O 0.54873 0.8028 0.81589 0.0
O715 O 0.49445 0.78658 0.82964 0.0
O716 O 0.46915 0.76175 0.80136 0.0
H717 H 0.44348 0.80258 0.88607 0.0
H718 H 0.5503 0.81702 0.76568 0.0
O719 O 0.50271 0.81162 0.75085 0.0
H720 H 0.52121 0.71274 0.78029 0.0
H721 H 0.45351 0.71907 0.71449 0.0
H722 H 0.42212 0.74252 0.78067 0.0
H723 H 0.48414 0.72921 0.78204 0.0
H724 H 0.48924 0.76148 0.73574 0.0
O725 O 0.54719 0.84166 0.82964 0.0
H726 H 0.45522 0.79421 0.85048 0.0
H727 H 0.53701 0.87589 0.8523 0.0
H728 H 0.38583 0.69974 0.76004 0.0
H729 H 0.58792 0.80136 0.76343 0.0
H730 H 0.40147 0.68768 0.72672 0.0
H731 H 0.57347 0.74891 0.7709 0.0
O732 O 0.45674 0.80083 0.77958 0.0
H733 H 0.56988 0.92692 0.78764 0.0
H734 H 0.47639 0.86471 0.82568 0.0
H735 H 0.48903 0.91515 0.81459 0.0
H736 H 0.53611 0.94665 0.79546 0.0
H737 H 0.55626 0.87625 0.79889 0.0
H738 H 0.52634 0.88501 0.88802 0.0
H739 H 0.4792 0.84826 0.90508 0.0
O740 O 0.46282 0.81323 0.81333 0.0
C741 C 0.47686 0.76267 0.82017 0.0
C742 C 0.46403 0.81882 0.87877 0.0
C743 C 0.51056 0.86506 0.87987 0.0
N744 N 0.49659 0.83471 0.84925 0.0
C745 C 0.47074 0.81425 0.8586 0.0
C746 C 0.51651 0.85976 0.85967 0.0
C747 C 0.4841 0.84444 0.88944 0.0
C748 C 0.54373 0.79405 0.76865 0.0
N749 N 0.51502 0.77405 0.77392 0.0
C750 C 0.56517 0.78536 0.76747 0.0
C751 C 0.55706 0.75594 0.7717 0.0
C752 C 0.52773 0.73563 0.77698 0.0
C753 C 0.50687 0.74512 0.778 0.0
C754 C 0.44645 0.72406 0.729 0.0
C755 C 0.42916 0.73744 0.76621 0.0
C756 C 0.46655 0.74812 0.74107 0.0
N757 N 0.45786 0.7544 0.75951 0.0
C758 C 0.40847 0.71319 0.75457 0.0
C759 C 0.41725 0.70645 0.73587 0.0
C760 C 0.44753 0.80598 0.7966 0.0
C761 C 0.54935 0.91344 0.79601 0.0
C762 C 0.49688 0.87825 0.81731 0.0
C763 C 0.50394 0.90682 0.81111 0.0
C764 C 0.53037 0.92448 0.80038 0.0
N765 N 0.51566 0.86763 0.81302 0.0
C766 C 0.54157 0.88478 0.80248 0.0
Co767 Co 0.18962 0.66161 0.76289 0.0
Co768 Co 0.16473 0.66547 0.81088 0.0
O769 O 0.16395 0.66977 0.78074 0.0
C770 C 0.13408 0.64529 0.73785 0.0
O771 O 0.12118 0.65034 0.75358 0.0
C772 C 0.16798 0.7236 0.80629 0.0
O773 O 0.18958 0.73118 0.79283 0.0
O774 O 0.20787 0.69521 0.81082 0.0
O775 O 0.22127 0.67588 0.78477 0.0
H776 H 0.20713 0.65359 0.87791 0.0
H777 H 0.16766 0.70227 0.74866 0.0
O778 O 0.15946 0.6473 0.73989 0.0
H779 H 0.27673 0.76036 0.74217 0.0
H780 H 0.23556 0.65665 0.69517 0.0
H781 H 0.22818 0.63522 0.77014 0.0
H782 H 0.25221 0.70878 0.75485 0.0
H783 H 0.20484 0.66892 0.71772 0.0
O784 O 0.15553 0.69803 0.81471 0.0
H785 H 0.20474 0.6579 0.83994 0.0
H786 H 0.12788 0.66647 0.84608 0.0
H787 H 0.25918 0.62269 0.74817 0.0
H788 H 0.1912 0.7534 0.73542 0.0
H789 H 0.26306 0.63342 0.71038 0.0
H790 H 0.24619 0.783 0.73217 0.0
O791 O 0.17102 0.62074 0.77437 0.0
H792 H 0.05789 0.6276 0.79171 0.0
H793 H 0.12716 0.6048 0.82888 0.0
H794 H 0.07366 0.56772 0.82829 0.0
H795 H 0.0386 0.57904 0.80964 0.0
H796 H 0.11163 0.66394 0.79253 0.0
H797 H 0.12963 0.6626 0.88414 0.0
H798 H 0.16939 0.65596 0.90029 0.0
O799 O 0.17391 0.63249 0.80795 0.0
C800 C 0.22752 0.69342 0.80015 0.0
C801 C 0.18965 0.6564 0.87106 0.0
C802 C 0.14617 0.66148 0.87456 0.0
N803 N 0.16605 0.66217 0.84079 0.0
C804 C 0.18813 0.65877 0.84956 0.0
C805 C 0.14533 0.66374 0.853 0.0
C806 C 0.16848 0.65775 0.88361 0.0
C807 C 0.19145 0.71449 0.74682 0.0
N808 N 0.20832 0.70202 0.75207 0.0
C809 C 0.20474 0.74369 0.7395 0.0
C810 C 0.23559 0.76031 0.73774 0.0
C811 C 0.25273 0.74763 0.74333 0.0
C812 C 0.23866 0.71834 0.75051 0.0
C813 C 0.23402 0.65183 0.71161 0.0
C814 C 0.22968 0.63996 0.75373 0.0
C815 C 0.21654 0.65861 0.72446 0.0
N816 N 0.21454 0.65267 0.74526 0.0
C817 C 0.24732 0.63282 0.74136 0.0
C818 C 0.24946 0.63882 0.72015 0.0
C819 C 0.17199 0.61485 0.79347 0.0
C820 C 0.07295 0.62238 0.79986 0.0
C821 C 0.11211 0.6098 0.82055 0.0
C822 C 0.08181 0.58876 0.82036 0.0
C823 C 0.06214 0.59514 0.80991 0.0
N824 N 0.12255 0.63645 0.81061 0.0
C825 C 0.1034 0.64289 0.8004 0.0
Co826 Co 0.33197 0.52312 0.77382 0.0
Co827 Co 0.32776 0.49312 0.82144 0.0
O828 O 0.32432 0.48897 0.79118 0.0
C829 C 0.35064 0.48616 0.7482 0.0
O830 O 0.34473 0.46709 0.76333 0.0
C831 C 0.27006 0.43777 0.8165 0.0
O832 O 0.26214 0.45148 0.80301 0.0
O833 O 0.29711 0.50531 0.82136 0.0
O834 O 0.31604 0.53877 0.79577 0.0
H835 H 0.33659 0.54481 0.88917 0.0
H836 H 0.29306 0.46054 0.75892 0.0
O837 O 0.34798 0.50906 0.75075 0.0
H838 H 0.23306 0.50928 0.75092 0.0
H839 H 0.3377 0.57603 0.70686 0.0
H840 H 0.35622 0.58745 0.78223 0.0
H841 H 0.28387 0.53703 0.76498 0.0
H842 H 0.3259 0.53248 0.72865 0.0
O843 O 0.2958 0.45103 0.82466 0.0
H844 H 0.33333 0.53926 0.85109 0.0
H845 H 0.32712 0.45478 0.85618 0.0
H846 H 0.36824 0.63151 0.76102 0.0
H847 H 0.2426 0.43221 0.74459 0.0
H848 H 0.35898 0.62598 0.72303 0.0
H849 H 0.21206 0.45649 0.74055 0.0
O850 O 0.37241 0.54601 0.7859 0.0
H851 H 0.36864 0.42706 0.80128 0.0
H852 H 0.38815 0.51679 0.8402 0.0
H853 H 0.42625 0.50169 0.83946 0.0
H854 H 0.41659 0.45648 0.81992 0.0
H855 H 0.33125 0.44314 0.80229 0.0
H856 H 0.32995 0.45924 0.89432 0.0
H857 H 0.33488 0.50459 0.91105 0.0
O858 O 0.36009 0.53559 0.81931 0.0
C859 C 0.2979 0.52631 0.81071 0.0
C860 C 0.33452 0.52497 0.88206 0.0
C861 C 0.33076 0.47694 0.88495 0.0
N862 N 0.33024 0.49682 0.85142 0.0
C863 C 0.33274 0.52174 0.86051 0.0
C864 C 0.32908 0.47449 0.86335 0.0
C865 C 0.33353 0.50239 0.89433 0.0
C866 C 0.28041 0.47162 0.75683 0.0
N867 N 0.29198 0.50076 0.76231 0.0
C868 C 0.25159 0.45529 0.74887 0.0
C869 C 0.23444 0.46889 0.74666 0.0
C870 C 0.24619 0.49849 0.7525 0.0
C871 C 0.27507 0.51411 0.7604 0.0
C872 C 0.34186 0.57872 0.72339 0.0
C873 C 0.35207 0.58478 0.76573 0.0
C874 C 0.33534 0.55415 0.73581 0.0
N875 N 0.34044 0.55736 0.75673 0.0
C876 C 0.35894 0.60985 0.75379 0.0
C877 C 0.35377 0.60674 0.73247 0.0
C878 C 0.37792 0.55194 0.80513 0.0
C879 C 0.37314 0.44682 0.80982 0.0
C880 C 0.38387 0.49726 0.83149 0.0
C881 C 0.40548 0.48873 0.83122 0.0
C882 C 0.40003 0.46335 0.82028 0.0
N883 N 0.35756 0.48096 0.82116 0.0
C884 C 0.35204 0.45601 0.81046 0.0
Co885 Co 0.44961 0.81244 0.56147 0.0
Co886 Co 0.49246 0.83589 0.51747 0.0
O887 O 0.48429 0.84247 0.54617 0.0
C888 C 0.49919 0.83841 0.59327 0.0
O889 O 0.51996 0.85021 0.57903 0.0
C890 C 0.493 0.89244 0.51509 0.0
O891 O 0.46793 0.87948 0.52552 0.0
O892 O 0.45184 0.82597 0.50847 0.0
O893 O 0.42529 0.79944 0.53582 0.0
H894 H 0.47073 0.78027 0.45002 0.0
H895 H 0.4803 0.87514 0.57588 0.0
O896 O 0.47184 0.82365 0.5883 0.0
H897 H 0.37741 0.85064 0.56083 0.0
H898 H 0.37732 0.7729 0.6212 0.0
H899 H 0.40425 0.74952 0.55323 0.0
H900 H 0.39262 0.81289 0.55644 0.0
H901 H 0.42116 0.81082 0.60216 0.0
O902 O 0.50659 0.87836 0.5109 0.0
H903 H 0.46064 0.7886 0.48607 0.0
H904 H 0.54204 0.87071 0.48784 0.0
H905 H 0.36006 0.71112 0.57163 0.0
H906 H 0.4659 0.91331 0.58082 0.0
H907 H 0.34638 0.72269 0.60589 0.0
H908 H 0.41414 0.90119 0.57315 0.0
O909 O 0.46232 0.78278 0.55638 0.0
H910 H 0.59146 0.89906 0.55192 0.0
H911 H 0.52952 0.80713 0.51227 0.0
H912 H 0.57987 0.81931 0.52327 0.0
H913 H 0.61125 0.86562 0.54319 0.0
H914 H 0.5408 0.88581 0.54087 0.0
H915 H 0.55285 0.86345 0.45172 0.0
H916 H 0.51712 0.81788 0.43261 0.0
O917 O 0.47789 0.79293 0.52333 0.0
C918 C 0.42735 0.80826 0.51722 0.0
C919 C 0.48652 0.80017 0.45821 0.0
C920 C 0.53259 0.84687 0.45915 0.0
N921 N 0.50086 0.82996 0.4891 0.0
C922 C 0.48097 0.80496 0.47864 0.0
C923 C 0.52632 0.85089 0.47958 0.0
C924 C 0.51254 0.82129 0.44844 0.0
C925 C 0.45761 0.86948 0.57289 0.0
N926 N 0.43727 0.84167 0.56611 0.0
C927 C 0.44963 0.89127 0.57557 0.0
C928 C 0.4206 0.88448 0.57122 0.0
C929 C 0.39998 0.8561 0.56429 0.0
C930 C 0.40875 0.83485 0.56181 0.0
C931 C 0.38307 0.7676 0.60628 0.0
C932 C 0.39841 0.75481 0.56809 0.0
C933 C 0.40793 0.78895 0.59546 0.0
N934 N 0.41524 0.78247 0.57655 0.0
C935 C 0.37336 0.73293 0.57845 0.0
C936 C 0.36569 0.73944 0.59767 0.0
C937 C 0.4692 0.77575 0.53911 0.0
C938 C 0.57801 0.87883 0.54323 0.0
C939 C 0.54291 0.82717 0.52111 0.0
C940 C 0.57147 0.83403 0.52721 0.0
C941 C 0.58908 0.86004 0.53835 0.0
N942 N 0.53219 0.84571 0.52599 0.0
C943 C 0.54935 0.87127 0.53686 0.0
Co944 Co 0.18903 0.66573 0.5646 0.0
Co945 Co 0.15876 0.6598 0.51687 0.0
O946 O 0.15485 0.65756 0.54714 0.0
C947 C 0.15206 0.6852 0.58939 0.0
O948 O 0.13364 0.6798 0.57391 0.0
C949 C 0.10307 0.60293 0.52346 0.0
O950 O 0.11704 0.59561 0.53715 0.0
O951 O 0.17094 0.62913 0.51777 0.0
O952 O 0.20473 0.64924 0.54309 0.0
H953 H 0.21004 0.66621 0.44936 0.0
H954 H 0.12664 0.62756 0.58012 0.0
O955 O 0.17491 0.68232 0.58723 0.0
H956 H 0.17501 0.56732 0.58884 0.0
H957 H 0.24162 0.67299 0.63196 0.0
H958 H 0.25343 0.68964 0.5564 0.0
H959 H 0.20279 0.61772 0.57413 0.0
H960 H 0.19822 0.66088 0.60992 0.0
O961 O 0.11655 0.62785 0.51419 0.0
H962 H 0.20477 0.6644 0.48745 0.0
H963 H 0.12 0.65752 0.48188 0.0
H964 H 0.29737 0.70193 0.57786 0.0
H965 H 0.09836 0.57765 0.5953 0.0
H966 H 0.2916 0.69357 0.61596 0.0
H967 H 0.12245 0.54698 0.59969 0.0
O968 O 0.21187 0.70573 0.55187 0.0
H969 H 0.09291 0.70162 0.53545 0.0
H970 H 0.18233 0.71934 0.49683 0.0
H971 H 0.16731 0.75748 0.49649 0.0
H972 H 0.12226 0.74872 0.51587 0.0
H973 H 0.10892 0.66417 0.53552 0.0
H974 H 0.1242 0.65891 0.44372 0.0
H975 H 0.16955 0.66344 0.42722 0.0
O976 O 0.20131 0.69222 0.51862 0.0
C977 C 0.19228 0.63063 0.52842 0.0
C978 C 0.1902 0.6643 0.45637 0.0
C979 C 0.14201 0.66017 0.4532 0.0
N980 N 0.16221 0.66106 0.48688 0.0
C981 C 0.18713 0.66334 0.47793 0.0
C982 C 0.13972 0.6593 0.47481 0.0
C983 C 0.16746 0.66273 0.44395 0.0
C984 C 0.13766 0.61489 0.58241 0.0
N985 N 0.16669 0.62613 0.57669 0.0
C986 C 0.12135 0.58637 0.59083 0.0
C987 C 0.13484 0.56915 0.59324 0.0
C988 C 0.16432 0.58054 0.58715 0.0
C989 C 0.17994 0.60916 0.57883 0.0
C990 C 0.24441 0.67676 0.61539 0.0
C991 C 0.25069 0.68593 0.57294 0.0
C992 C 0.21993 0.67008 0.60282 0.0
N993 N 0.22324 0.67467 0.58186 0.0
C994 C 0.27569 0.69295 0.58503 0.0
C995 C 0.27246 0.68829 0.60639 0.0
C996 C 0.21766 0.71059 0.53256 0.0
C997 C 0.11261 0.70572 0.52697 0.0
C998 C 0.16288 0.71546 0.50548 0.0
C999 C 0.15439 0.7371 0.50514 0.0
C1000 C 0.1291 0.73215 0.516 0.0
N1001 N 0.14665 0.68963 0.51634 0.0
C1002 C 0.12177 0.68459 0.52695 0.0
Co1003 Co 0.33904 0.52671 0.57 0.0
Co1004 Co 0.33185 0.49488 0.52254 0.0
O1005 O 0.34164 0.49753 0.55214 0.0
C1006 C 0.3232 0.47324 0.59744 0.0
O1007 O 0.32623 0.4582 0.58221 0.0
C1008 C 0.38952 0.49672 0.52201 0.0
O1009 O 0.39988 0.51995 0.5343 0.0
O1010 O 0.36248 0.53734 0.51892 0.0
O1011 O 0.35128 0.55587 0.54668 0.0
H1012 H 0.3092 0.52999 0.45598 0.0
H1013 H 0.37849 0.50193 0.58147 0.0
O1014 O 0.32671 0.49907 0.59447 0.0
H1015 H 0.44368 0.61069 0.58089 0.0
H1016 H 0.35084 0.5826 0.63653 0.0
H1017 H 0.31568 0.5681 0.56412 0.0
H1018 H 0.39034 0.58835 0.57312 0.0
H1019 H 0.35542 0.54679 0.61392 0.0
O1020 O 0.36243 0.48348 0.5163 0.0
H1021 H 0.32067 0.53232 0.49329 0.0
H1022 H 0.3244 0.45266 0.48857 0.0
H1023 H 0.31086 0.60422 0.58614 0.0
H1024 H 0.43144 0.52335 0.58979 0.0
H1025 H 0.32855 0.61171 0.62265 0.0
H1026 H 0.4646 0.57815 0.58944 0.0
O1027 O 0.29668 0.5099 0.56212 0.0
H1028 H 0.2942 0.39038 0.54742 0.0
H1029 H 0.26792 0.45743 0.51072 0.0
H1030 H 0.22972 0.40487 0.51579 0.0
H1031 H 0.24279 0.37092 0.53422 0.0
H1032 H 0.33165 0.44319 0.54217 0.0
H1033 H 0.31331 0.44964 0.45114 0.0
H1034 H 0.30546 0.48842 0.43463 0.0
O1035 O 0.30099 0.50648 0.52785 0.0
C1036 C 0.36431 0.55895 0.52938 0.0
C1037 C 0.31248 0.51291 0.463 0.0
C1038 C 0.31481 0.46783 0.46029 0.0
N1039 N 0.32292 0.4925 0.49314 0.0
C1040 C 0.31889 0.51406 0.48414 0.0
C1041 C 0.32115 0.46969 0.48148 0.0
C1042 C 0.31041 0.48959 0.45103 0.0
C1043 C 0.39234 0.52573 0.58181 0.0
N1044 N 0.38087 0.54372 0.57731 0.0
C1045 C 0.42253 0.53779 0.58633 0.0
C1046 C 0.44114 0.56852 0.58607 0.0
C1047 C 0.42942 0.58678 0.58129 0.0
C1048 C 0.39912 0.57394 0.57692 0.0
C1049 C 0.34304 0.57952 0.62066 0.0
C1050 C 0.32345 0.57119 0.57996 0.0
C1051 C 0.34545 0.55917 0.6078 0.0
N1052 N 0.33577 0.55526 0.58769 0.0
C1053 C 0.32065 0.5917 0.59237 0.0
C1054 C 0.33055 0.59587 0.61285 0.0
C1055 C 0.28728 0.50852 0.54364 0.0
C1056 C 0.28823 0.40495 0.53938 0.0
C1057 C 0.27373 0.44288 0.51893 0.0
C1058 C 0.25203 0.4131 0.52166 0.0
C1059 C 0.25938 0.39405 0.53198 0.0
N1060 N 0.30196 0.4534 0.52625 0.0
C1061 C 0.30935 0.43486 0.53634 0.0
C1062 C 0.38835 0.2241 0.1952 0.0
C1063 C 0.40755 0.24944 0.1837 0.0
C1064 C 0.35809 0.20712 0.18993 0.0
C1065 C 0.34709 0.21578 0.17277 0.0
C1066 C 0.36675 0.24047 0.16055 0.0
C1067 C 0.39668 0.25698 0.16618 0.0
C1068 C 0.33769 0.18081 0.20324 0.0
C1069 C 0.35594 0.25038 0.14208 0.0
C1070 C 0.27174 0.16764 0.14786 0.0
C1071 C 0.25559 0.18032 0.15607 0.0
C1072 C 0.30124 0.17784 0.15398 0.0
C1073 C 0.31474 0.20122 0.16861 0.0
C1074 C 0.29813 0.21323 0.17755 0.0
C1075 C 0.26879 0.20266 0.17116 0.0
C1076 C 0.31834 0.16453 0.14416 0.0
C1077 C 0.31176 0.23822 0.1932 0.0
H1078 H 0.39671 0.21813 0.20871 0.0
H1079 H 0.4115 0.27626 0.15699 0.0
H1080 H 0.32262 0.18609 0.21216 0.0
H1081 H 0.32354 0.16119 0.19341 0.0
H1082 H 0.3502 0.17483 0.21437 0.0
H1083 H 0.37451 0.26863 0.13329 0.0
H1084 H 0.34315 0.23147 0.13137 0.0
H1085 H 0.34076 0.25831 0.1474 0.0
H1086 H 0.26159 0.1502 0.1363 0.0
H1087 H 0.25637 0.21236 0.17777 0.0
H1088 H 0.32997 0.15888 0.15621 0.0
H1089 H 0.33558 0.18107 0.13362 0.0
H1090 H 0.30369 0.14421 0.13506 0.0
H1091 H 0.32243 0.23257 0.20594 0.0
H1092 H 0.29509 0.24323 0.20001 0.0
H1093 H 0.32936 0.25865 0.18559 0.0
C1094 C 0.82993 0.10178 0.13343 0.0
C1095 C 0.82233 0.07767 0.14675 0.0
C1096 C 0.81745 0.1201 0.13614 0.0
C1097 C 0.79714 0.11413 0.15258 0.0
C1098 C 0.79028 0.09048 0.16648 0.0
C1099 C 0.8029 0.07249 0.16336 0.0
C1100 C 0.82516 0.14513 0.12102 0.0
C1101 C 0.76883 0.08353 0.1843 0.0
C1102 C 0.77503 0.16908 0.17212 0.0
C1103 C 0.74644 0.15721 0.16365 0.0
C1104 C 0.79262 0.15622 0.16778 0.0
C1105 C 0.78129 0.13108 0.15462 0.0
C1106 C 0.75312 0.12005 0.14516 0.0
C1107 C 0.73598 0.13321 0.14984 0.0
C1108 C 0.82255 0.1685 0.17817 0.0
C1109 C 0.74038 0.09335 0.13094 0.0
H1110 H 0.84495 0.10585 0.12057 0.0
H1111 H 0.79718 0.05407 0.17384 0.0
H1112 H 0.80517 0.14031 0.11182 0.0
H1113 H 0.83222 0.16623 0.12948 0.0
H1114 H 0.84316 0.14837 0.11016 0.0
H1115 H 0.7673 0.06548 0.19441 0.0
H1116 H 0.77579 0.10365 0.19393 0.0
H1117 H 0.74632 0.07663 0.17816 0.0
H1118 H 0.78325 0.18769 0.18277 0.0
H1119 H 0.71402 0.12417 0.14305 0.0
H1120 H 0.83978 0.17152 0.16669 0.0
H1121 H 0.8215 0.15246 0.18999 0.0
H1122 H 0.8296 0.19012 0.18594 0.0
H1123 H 0.75679 0.09623 0.11882 0.0
H1124 H 0.71958 0.08945 0.12324 0.0
H1125 H 0.73541 0.07322 0.14001 0.0
C1126 C 0.83609 0.61296 0.18878 0.0
C1127 C 0.8448 0.5945 0.17885 0.0
C1128 C 0.84982 0.64333 0.1839 0.0
C1129 C 0.87252 0.65526 0.16868 0.0
C1130 C 0.8807 0.6365 0.15818 0.0
C1131 C 0.86682 0.6064 0.16345 0.0
C1132 C 0.84071 0.66282 0.19544 0.0
C1133 C 0.90475 0.64839 0.14179 0.0
C1134 C 0.89937 0.73036 0.14343 0.0
C1135 C 0.9263 0.74776 0.1539 0.0
C1136 C 0.88086 0.70032 0.14861 0.0
C1137 C 0.88953 0.68766 0.1647 0.0
C1138 C 0.91612 0.70546 0.17583 0.0
C1139 C 0.93424 0.73526 0.17024 0.0
C1140 C 0.8527 0.68187 0.13636 0.0
C1141 C 0.92603 0.69277 0.19315 0.0
H1142 H 0.81903 0.60383 0.20066 0.0
H1143 H 0.87344 0.59221 0.15552 0.0
H1144 H 0.85952 0.67906 0.20512 0.0
H1145 H 0.83527 0.67573 0.18433 0.0
H1146 H 0.82118 0.64975 0.20567 0.0
H1147 H 0.90706 0.63046 0.13415 0.0
H1148 H 0.89989 0.6606 0.12972 0.0
H1149 H 0.92641 0.66435 0.14892 0.0
H1150 H 0.89312 0.73997 0.13083 0.0
H1151 H 0.95485 0.74869 0.17859 0.0
H1152 H 0.83353 0.66959 0.14698 0.0
H1153 H 0.8549 0.6651 0.12705 0.0
H1154 H 0.84774 0.69564 0.12568 0.0
H1155 H 0.90786 0.68112 0.20461 0.0
H1156 H 0.94599 0.71017 0.20137 0.0
H1157 H 0.93138 0.67615 0.18675 0.0
C1158 C 0.25645 0.39472 0.83972 0.0
C1159 C 0.24944 0.4067 0.82257 0.0
C1160 C 0.2388 0.36481 0.84507 0.0
C1161 C 0.21347 0.34633 0.83296 0.0
C1162 C 0.20532 0.35853 0.81626 0.0
C1163 C 0.22348 0.38872 0.81123 0.0
C1164 C 0.24825 0.35268 0.86304 0.0
C1165 C 0.17832 0.33941 0.80312 0.0
C1166 C 0.19818 0.26741 0.83258 0.0
C1167 C 0.17643 0.25425 0.84807 0.0
C1168 C 0.20909 0.29694 0.82664 0.0
C1169 C 0.19802 0.31381 0.83645 0.0
C1170 C 0.17503 0.30032 0.85138 0.0
C1171 C 0.16448 0.27059 0.85706 0.0
C1172 C 0.23366 0.31053 0.81066 0.0
C1173 C 0.16264 0.31768 0.86206 0.0
H1174 H 0.2762 0.40858 0.8488 0.0
H1175 H 0.21786 0.39795 0.79806 0.0
H1176 H 0.22935 0.34009 0.8738 0.0
H1177 H 0.25526 0.33704 0.85713 0.0
H1178 H 0.26704 0.37052 0.87193 0.0
H1179 H 0.17267 0.35293 0.7927 0.0
H1180 H 0.18261 0.32429 0.79343 0.0
H1181 H 0.15881 0.32533 0.81307 0.0
H1182 H 0.20727 0.25483 0.82533 0.0
H1183 H 0.14747 0.26045 0.86891 0.0
H1184 H 0.25457 0.32742 0.81819 0.0
H1185 H 0.22811 0.32203 0.79845 0.0
H1186 H 0.2378 0.29368 0.80314 0.0
H1187 H 0.17949 0.33391 0.87294 0.0
H1188 H 0.14211 0.30301 0.87097 0.0
H1189 H 0.15762 0.33048 0.85057 0.0
C1190 C 0.73356 0.92669 0.8401 0.0
C1191 C 0.74593 0.92125 0.85774 0.0
C1192 C 0.70336 0.9089 0.83547 0.0
C1193 C 0.68502 0.88518 0.8489 0.0
C1194 C 0.69745 0.87901 0.86644 0.0
C1195 C 0.72791 0.89712 0.87064 0.0
C1196 C 0.69095 0.91604 0.81651 0.0
C1197 C 0.67842 0.85393 0.8811 0.0
C1198 C 0.60444 0.86529 0.84688 0.0
C1199 C 0.59241 0.84096 0.83329 0.0
C1200 C 0.6343 0.87898 0.85291 0.0
C1201 C 0.65257 0.86818 0.84503 0.0
C1202 C 0.64033 0.84299 0.83189 0.0
C1203 C 0.61029 0.82958 0.82621 0.0
C1204 C 0.64658 0.90573 0.86706 0.0
C1205 C 0.65926 0.83103 0.82311 0.0
H1206 H 0.74745 0.94512 0.82994 0.0
H1207 H 0.73741 0.89286 0.8843 0.0
H1208 H 0.67889 0.89601 0.8066 0.0
H1209 H 0.67472 0.92289 0.82131 0.0
H1210 H 0.70856 0.93418 0.80704 0.0
H1211 H 0.69183 0.85078 0.89321 0.0
H1212 H 0.6621 0.85861 0.88887 0.0
H1213 H 0.66556 0.83283 0.87239 0.0
H1214 H 0.59063 0.87398 0.85258 0.0
H1215 H 0.60107 0.81073 0.81573 0.0
H1216 H 0.66278 0.92585 0.8584 0.0
H1217 H 0.65863 0.90289 0.88027 0.0
H1218 H 0.62887 0.90965 0.87328 0.0
H1219 H 0.67577 0.84745 0.81214 0.0
H1220 H 0.64578 0.80967 0.81475 0.0
H1221 H 0.67186 0.82761 0.83567 0.0
C1222 C 0.16608 0.77037 0.80033 0.0
C1223 C 0.15714 0.74419 0.81165 0.0
C1224 C 0.15413 0.78879 0.80474 0.0
C1225 C 0.13287 0.78072 0.82083 0.0
C1226 C 0.1246 0.75488 0.83274 0.0
C1227 C 0.13682 0.73695 0.828 0.0
C1228 C 0.16345 0.81628 0.7918 0.0
C1229 C 0.10204 0.74553 0.85007 0.0
C1230 C 0.11031 0.83268 0.84548 0.0
C1231 C 0.08247 0.82287 0.83625 0.0
C1232 C 0.12796 0.82037 0.83974 0.0
C1233 C 0.11741 0.79779 0.82446 0.0
C1234 C 0.09001 0.7889 0.81438 0.0
C1235 C 0.07286 0.80154 0.82041 0.0
C1236 C 0.15712 0.83042 0.85077 0.0
C1237 C 0.078 0.76486 0.79801 0.0
H1238 H 0.18184 0.77609 0.78771 0.0
H1239 H 0.13001 0.71692 0.83699 0.0
H1240 H 0.14433 0.81344 0.78235 0.0
H1241 H 0.17019 0.8359 0.80194 0.0
H1242 H 0.18216 0.82092 0.78119 0.0
H1243 H 0.09931 0.7257 0.85856 0.0
H1244 H 0.10876 0.76398 0.86131 0.0
H1245 H 0.08011 0.74027 0.84363 0.0
H1246 H 0.11796 0.8493 0.85765 0.0
H1247 H 0.05151 0.79408 0.81303 0.0
H1248 H 0.17499 0.83498 0.83944 0.0
H1249 H 0.15499 0.81244 0.86119 0.0
H1250 H 0.16394 0.8507 0.86024 0.0
H1251 H 0.09517 0.76954 0.78605 0.0
H1252 H 0.05788 0.76265 0.79024 0.0
H1253 H 0.07211 0.74321 0.80526 0.0
C1254 C 0.93037 0.53164 0.51244 0.0
C1255 C 0.9171 0.50915 0.49747 0.0
C1256 C 0.9602 0.54326 0.51803 0.0
C1257 C 0.97715 0.53215 0.50839 0.0
C1258 C 0.96353 0.50843 0.49404 0.0
C1259 C 0.93359 0.49718 0.48872 0.0
C1260 C 0.97397 0.56859 0.53341 0.0
C1261 C 0.98097 0.49601 0.4835 0.0
C1262 C 0.0582 0.58962 0.50225 0.0
C1263 C 0.07127 0.58294 0.5189 0.0
C1264 C 0.02774 0.57253 0.49828 0.0
C1265 C 0.00983 0.54809 0.51129 0.0
C1266 C 0.02294 0.54047 0.52768 0.0
C1267 C 0.05365 0.55805 0.53132 0.0
C1268 C 0.01461 0.58135 0.48059 0.0
C1269 C 0.00441 0.51445 0.54178 0.0
H1270 H 0.91767 0.54076 0.51945 0.0
H1271 H 0.9234 0.47964 0.47724 0.0
H1272 H 0.98635 0.56405 0.54553 0.0
H1273 H 0.99015 0.58929 0.52529 0.0
H1274 H 0.95707 0.57254 0.54107 0.0
H1275 H 0.96631 0.47516 0.47491 0.0
H1276 H 0.9969 0.51261 0.47234 0.0
H1277 H 0.99412 0.49154 0.49503 0.0
H1278 H 0.07169 0.60862 0.49242 0.0
H1279 H 0.06367 0.55277 0.54418 0.0
H1280 H -0.00097 0.58825 0.4868 0.0
H1281 H 0.00168 0.56213 0.47015 0.0
H1282 H 0.0319 0.59998 0.47127 0.0
H1283 H 0.98932 0.51916 0.55116 0.0
H1284 H 0.01833 0.50975 0.5525 0.0
H1285 H 0.99026 0.49421 0.53249 0.0
C1286 C 0.43728 0.49572 0.52324 0.0
C1287 C 0.40902 0.48552 0.51459 0.0
C1288 C 0.45494 0.48361 0.51703 0.0
C1289 C 0.44402 0.46091 0.5018 0.0
C1290 C 0.41611 0.45155 0.49237 0.0
C1291 C 0.39894 0.4639 0.49892 0.0
C1292 C 0.48461 0.49408 0.52741 0.0
C1293 C 0.40371 0.42744 0.47604 0.0
C1294 C 0.49219 0.43462 0.47539 0.0
C1295 C 0.48399 0.40831 0.48636 0.0
C1296 C 0.48025 0.45278 0.48071 0.0
C1297 C 0.45983 0.44437 0.49739 0.0
C1298 C 0.45239 0.41843 0.50895 0.0
C1299 C 0.4645 0.40072 0.50327 0.0
C1300 C 0.48861 0.48032 0.46806 0.0
C1301 C 0.43074 0.40872 0.52688 0.0
H1302 H 0.44524 0.51254 0.53529 0.0
H1303 H 0.3773 0.45618 0.49194 0.0
H1304 H 0.4833 0.47613 0.53749 0.0
H1305 H 0.50211 0.49913 0.51565 0.0
H1306 H 0.49143 0.51417 0.53709 0.0
H1307 H 0.38301 0.42471 0.46889 0.0
H1308 H 0.42034 0.43248 0.4636 0.0
H1309 H 0.39869 0.40595 0.48313 0.0
H1310 H 0.50733 0.44063 0.46236 0.0
H1311 H 0.45831 0.38062 0.51201 0.0
H1312 H 0.49552 0.49978 0.47838 0.0
H1313 H 0.46897 0.47724 0.45915 0.0
H1314 H 0.50692 0.48534 0.45696 0.0
H1315 H 0.43768 0.42714 0.53817 0.0
H1316 H 0.42894 0.3891 0.53515 0.0
H1317 H 0.40835 0.40294 0.52109 0.0
C1318 C 0.55955 0.05793 0.46959 0.0
C1319 C 0.5859 0.07565 0.4806 0.0
C1320 C 0.54127 0.02779 0.47462 0.0
C1321 C 0.54953 0.01543 0.49115 0.0
C1322 C 0.57559 0.03352 0.50273 0.0
C1323 C 0.59354 0.06336 0.49723 0.0
C1324 C 0.51372 0.00898 0.46188 0.0
C1325 C 0.585 0.02119 0.52059 0.0
C1326 C 0.49608 0.94198 0.51652 0.0
C1327 C 0.50561 0.92336 0.50794 0.0
C1328 C 0.50934 0.97191 0.51057 0.0
C1329 C 0.53236 0.98317 0.49558 0.0
C1330 C 0.5411 0.96409 0.48623 0.0
C1331 C 0.52774 0.93444 0.49262 0.0
C1332 C 0.49968 0.99176 0.52097 0.0
C1333 C 0.56542 0.97526 0.47005 0.0
H1334 H 0.5536 0.0674 0.45673 0.0
H1335 H 0.61369 0.07706 0.50599 0.0
H1336 H 0.51634 0.99194 0.45325 0.0
H1337 H 0.49406 0.997 0.47214 0.0
H1338 H 0.50926 0.02242 0.45055 0.0
H1339 H 0.6048 0.03872 0.52885 0.0
H1340 H 0.56653 0.00994 0.53188 0.0
H1341 H 0.59036 0.00431 0.51474 0.0
H1342 H 0.47892 0.93343 0.52835 0.0
H1343 H 0.53488 0.92 0.48572 0.0
H1344 H 0.4949 0.00441 0.5092 0.0
H1345 H 0.51798 0.00822 0.5309 0.0
H1346 H 0.47961 0.979 0.53078 0.0
H1347 H 0.56098 0.98725 0.45757 0.0
H1348 H 0.56762 0.95696 0.46295 0.0
H1349 H 0.58701 0.99126 0.47726 0.0
C1350 C 0.06863 0.14509 0.15425 0.0
C1351 C 0.08013 0.15275 0.13404 0.0
C1352 C 0.03789 0.12872 0.15775 0.0
C1353 C 0.01827 0.12039 0.14066 0.0
C1354 C 0.02961 0.13104 0.12056 0.0
C1355 C 0.06048 0.14712 0.11747 0.0
C1356 C 0.02669 0.11786 0.17943 0.0
C1357 C 0.00928 0.12315 0.102 0.0
C1358 C 0.94843 0.04505 0.13973 0.0
C1359 C 0.92638 0.05252 0.14337 0.0
C1360 C 0.97855 0.06687 0.13983 0.0
C1361 C 0.98668 0.09697 0.14317 0.0
C1362 C 0.96454 0.10448 0.14767 0.0
C1363 C 0.93453 0.08201 0.14791 0.0
C1364 C 0.00156 0.05784 0.13545 0.0
C1365 C 0.97233 0.13634 0.15096 0.0
H1366 H 0.08355 0.14981 0.16727 0.0
H1367 H 0.06909 0.15336 0.10184 0.0
H1368 H 0.00698 0.12007 0.18302 0.0
H1369 H 0.01972 0.09393 0.18057 0.0
H1370 H 0.04407 0.13016 0.19133 0.0
H1371 H 0.02102 0.13687 0.08822 0.0
H1372 H 0.00045 0.09942 0.09796 0.0
H1373 H 0.99 0.12609 0.10561 0.0
H1374 H 0.94203 0.02218 0.13623 0.0
H1375 H 0.91738 0.08781 0.15038 0.0
H1376 H 0.01893 0.06661 0.14768 0.0
H1377 H 0.01274 0.06753 0.12046 0.0
H1378 H 0.99167 0.03332 0.13463 0.0
H1379 H 0.99126 0.14774 0.16188 0.0
H1380 H 0.95319 0.13802 0.15703 0.0
H1381 H 0.97935 0.14843 0.13597 0.0
C1382 C 0.85741 0.92589 0.1602 0.0
C1383 C 0.84935 0.92761 0.13965 0.0
C1384 C 0.8731 0.91116 0.16495 0.0
C1385 C 0.88056 0.89766 0.1488 0.0
C1386 C 0.86919 0.89608 0.12858 0.0
C1387 C 0.85359 0.91103 0.12424 0.0
C1388 C 0.88435 0.91284 0.18679 0.0
C1389 C 0.87612 0.88127 0.11102 0.0
C1390 C 0.95631 0.90459 0.14633 0.0
C1391 C 0.94949 0.87531 0.1501 0.0
C1392 C 0.93426 0.91251 0.14727 0.0
C1393 C 0.90459 0.89046 0.15186 0.0
C1394 C 0.898 0.86132 0.15714 0.0
C1395 C 0.92069 0.85408 0.15629 0.0
C1396 C 0.94239 0.94403 0.14189 0.0
C1397 C 0.86669 0.83722 0.1621 0.0
H1398 H 0.85361 0.93801 0.17238 0.0
H1399 H 0.84688 0.91164 0.1084 0.0
H1400 H 0.88277 0.89151 0.19139 0.0
H1401 H 0.90814 0.93034 0.18755 0.0
H1402 H 0.87183 0.91846 0.19816 0.0
H1403 H 0.86243 0.87843 0.09703 0.0
H1404 H 0.89993 0.895 0.10669 0.0
H1405 H 0.87229 0.85916 0.11594 0.0
H1406 H 0.97867 0.921 0.14162 0.0
H1407 H 0.91538 0.83132 0.15897 0.0
H1408 H 0.93406 0.95325 0.15399 0.0
H1409 H 0.93169 0.94419 0.12702 0.0
H1410 H 0.9668 0.95894 0.14029 0.0
H1411 H 0.85501 0.84591 0.17173 0.0
H1412 H 0.86639 0.81827 0.17034 0.0
H1413 H 0.85402 0.82873 0.14743 0.0
C1414 C 0.09849 0.05708 0.14385 0.0
C1415 C 0.12816 0.07881 0.14723 0.0
C1416 C 0.0897 0.02687 0.14454 0.0
C1417 C 0.11133 0.01835 0.14821 0.0
C1418 C 0.14102 0.04021 0.15283 0.0
C1419 C 0.14907 0.07034 0.15246 0.0
C1420 C 0.05761 0.00419 0.14003 0.0
C1421 C 0.16474 0.03202 0.15658 0.0
C1422 C 0.07589 0.9359 0.15756 0.0
C1423 C 0.07254 0.92537 0.13708 0.0
C1424 C 0.09076 0.96645 0.16177 0.0
C1425 C 0.10297 0.98682 0.14517 0.0
C1426 C 0.10275 0.97634 0.12484 0.0
C1427 C 0.08747 0.94567 0.12102 0.0
C1428 C 0.09071 0.97676 0.18367 0.0
C1429 C 0.11626 0.99749 0.1068 0.0
H1430 H 0.08241 0.06379 0.1398 0.0
H1431 H 0.17214 0.08728 0.15473 0.0
H1432 H 0.05615 0.9931 0.12502 0.0
H1433 H 0.04872 0.98673 0.15219 0.0
H1434 H 0.04322 0.01438 0.13917 0.0
H1435 H 0.18491 0.05057 0.16383 0.0
H1436 H 0.15633 0.0121 0.16665 0.0
H1437 H 0.17126 0.02656 0.14153 0.0
H1438 H 0.06496 0.92044 0.17019 0.0
H1439 H 0.08549 0.93777 0.10521 0.0
H1440 H 0.07375 0.98374 0.18497 0.0
H1441 H 0.11257 0.99625 0.18765 0.0
H1442 H 0.08533 0.95886 0.1952 0.0
H1443 H 0.10231 0.00754 0.10307 0.0
H1444 H 0.11795 0.98614 0.09269 0.0
H1445 H 0.13877 0.01584 0.11089 0.0
C1446 C 0.05182 0.94797 0.85752 0.0
C1447 C 0.06041 0.92693 0.85326 0.0
C1448 C 0.07285 0.9783 0.8581 0.0
C1449 C 0.10328 0.98759 0.85491 0.0
C1450 C 0.11191 0.96646 0.84976 0.0
C1451 C 0.09018 0.93622 0.84879 0.0
C1452 C 0.06263 0.00021 0.86318 0.0
C1453 C 0.14416 0.97545 0.84673 0.0
C1454 C 0.1487 0.07022 0.84615 0.0
C1455 C 0.15502 0.08059 0.86671 0.0
C1456 C 0.13387 0.03974 0.84178 0.0
C1457 C 0.12581 0.01925 0.8583 0.0
C1458 C 0.1354 0.02966 0.87874 0.0
C1459 C 0.14988 0.06029 0.88273 0.0
C1460 C 0.1241 0.02954 0.81977 0.0
C1461 C 0.12784 0.00841 0.89672 0.0
H1462 H 0.02872 0.94055 0.86112 0.0
H1463 H 0.09677 0.91972 0.84597 0.0
H1464 H 0.07132 0.01032 0.87861 0.0
H1465 H 0.07151 0.0185 0.85162 0.0
H1466 H 0.03799 0.98958 0.86347 0.0
H1467 H 0.1467 0.95731 0.83968 0.0
H1468 H 0.15564 0.9955 0.83679 0.0
H1469 H 0.15553 0.9811 0.86201 0.0
H1470 H 0.15317 0.08571 0.83355 0.0
H1471 H 0.15515 0.06807 0.89861 0.0
H1472 H 0.09996 0.02159 0.81832 0.0
H1473 H 0.12753 0.01072 0.8157 0.0
H1474 H 0.13622 0.04777 0.80838 0.0
H1475 H 0.104 -0.00112 0.90077 0.0
H1476 H 0.14133 0.01967 0.91069 0.0
H1477 H 0.13138 0.9897 0.89249 0.0
C1478 C 0.05462 0.09638 0.86216 0.0
C1479 C 0.07628 0.12568 0.85753 0.0
C1480 C 0.02441 0.08769 0.86208 0.0
C1481 C 0.01577 0.10903 0.85761 0.0
C1482 C 0.03746 0.13828 0.85183 0.0
C1483 C 0.0676 0.14623 0.85171 0.0
C1484 C 0.00189 0.05606 0.86791 0.0
C1485 C 0.02915 0.16169 0.84721 0.0
C1486 C 0.93314 0.07244 0.84878 0.0
C1487 C 0.92293 0.07041 0.86925 0.0
C1488 C 0.96362 0.0873 0.84432 0.0
C1489 C 0.98426 0.10082 0.86064 0.0
C1490 C 0.97405 0.10197 0.88081 0.0
C1491 C 0.94343 0.08672 0.8849 0.0
C1492 C 0.97362 0.08579 0.82257 0.0
C1493 C 0.99548 0.11688 0.89852 0.0
H1494 H 0.06142 0.08052 0.86664 0.0
H1495 H 0.08445 0.16903 0.84844 0.0
H1496 H 0.99151 0.05586 0.88301 0.0
H1497 H 0.98386 0.04621 0.85618 0.0
H1498 H 0.01207 0.04172 0.86928 0.0
H1499 H 0.04752 0.1814 0.8394 0.0
H1500 H 0.00902 0.15261 0.83729 0.0
H1501 H 0.02392 0.16912 0.86196 0.0
H1502 H 0.91749 0.0605 0.83644 0.0
H1503 H 0.93577 0.0858 0.90067 0.0
H1504 H 0.98087 0.06899 0.82206 0.0
H1505 H 0.99286 0.10744 0.81791 0.0
H1506 H 0.95545 0.07936 0.81108 0.0
H1507 H 0.00573 0.10334 0.90297 0.0
H1508 H 0.9843 0.11949 0.9124 0.0
H1509 H 0.01368 0.1391 0.89373 0.0
C1510 C 0.92405 0.85626 0.88319 0.0
C1511 C 0.93799 0.85279 0.86561 0.0
C1512 C 0.90792 0.87127 0.88188 0.0
C1513 C 0.90592 0.88324 0.8626 0.0
C1514 C 0.91756 0.87742 0.8445 0.0
C1515 C 0.93319 0.86198 0.84619 0.0
C1516 C 0.89519 0.87646 0.90147 0.0
C1517 C 0.91603 0.8899 0.82367 0.0
C1518 C 0.85634 0.91757 0.85879 0.0
C1519 C 0.87648 0.94716 0.864 0.0
C1520 C 0.8656 0.89638 0.85793 0.0
C1521 C 0.89574 0.90532 0.86195 0.0
C1522 C 0.9164 0.93556 0.8662 0.0
C1523 C 0.90641 0.95604 0.86742 0.0
C1524 C 0.84288 0.86427 0.85379 0.0
C1525 C 0.94891 0.94615 0.87013 0.0
H1526 H 0.92724 0.84889 0.89822 0.0
H1527 H 0.94341 0.85904 0.83242 0.0
H1528 H 0.90939 0.89985 0.90656 0.0
H1529 H 0.87253 0.87286 0.89864 0.0
H1530 H 0.89412 0.86166 0.91429 0.0
H1531 H 0.92217 0.87984 0.81075 0.0
H1532 H 0.89339 0.88628 0.82075 0.0
H1533 H 0.93161 0.91426 0.82357 0.0
H1534 H 0.83308 0.91069 0.85651 0.0
H1535 H 0.92194 0.97898 0.87145 0.0
H1536 H 0.83954 0.85104 0.86809 0.0
H1537 H 0.85088 0.85493 0.84156 0.0
H1538 H 0.82107 0.86146 0.84896 0.0
H1539 H 0.9513 0.9359 0.88458 0.0
H1540 H 0.96235 0.97071 0.87173 0.0
H1541 H 0.95824 0.93915 0.85725 0.0
C1542 C 0.72429 0.47527 0.45317 0.0
C1543 C 0.74313 0.48157 0.47035 0.0
C1544 C 0.69328 0.45971 0.45561 0.0
C1545 C 0.68094 0.45017 0.47565 0.0
C1546 C 0.69978 0.45907 0.4932 0.0
C1547 C 0.73066 0.47498 0.49035 0.0
C1548 C 0.67379 0.45132 0.43656 0.0
C1549 C 0.68753 0.44931 0.51482 0.0
C1550 C 0.59707 0.4134 0.48182 0.0
C1551 C 0.58852 0.38353 0.47846 0.0
C1552 C 0.62722 0.43551 0.48136 0.0
C1553 C 0.64909 0.42729 0.47787 0.0
C1554 C 0.64051 0.39689 0.47561 0.0
C1555 C 0.61027 0.37542 0.47568 0.0
C1556 C 0.63548 0.4677 0.48338 0.0
C1557 C 0.66318 0.38711 0.4723 0.0
H1558 H 0.73364 0.48069 0.43768 0.0
H1559 H 0.74494 0.48024 0.50381 0.0
H1560 H 0.66428 0.42725 0.43335 0.0
H1561 H 0.65494 0.45532 0.43915 0.0
H1562 H 0.68637 0.46397 0.42264 0.0
H1563 H 0.70455 0.46162 0.52693 0.0
H1564 H 0.66819 0.45247 0.51753 0.0
H1565 H 0.67968 0.42524 0.51659 0.0
H1566 H 0.58014 0.41966 0.48353 0.0
H1567 H 0.60353 0.35227 0.47299 0.0
H1568 H 0.64297 0.47878 0.46807 0.0
H1569 H 0.65421 0.47956 0.49439 0.0
H1570 H 0.61642 0.47012 0.48868 0.0
H1571 H 0.67453 0.3956 0.45717 0.0
H1572 H 0.65294 0.36251 0.47239 0.0
H1573 H 0.68048 0.39649 0.48456 0.0
C1574 C 0.51495 0.24203 0.45742 0.0
C1575 C 0.51031 0.258 0.47309 0.0
C1576 C 0.52975 0.22628 0.4617 0.0
C1577 C 0.53984 0.22634 0.48213 0.0
C1578 C 0.53179 0.23911 0.49843 0.0
C1579 C 0.517 0.25476 0.49373 0.0
C1580 C 0.53728 0.21223 0.44396 0.0
C1581 C 0.5415 0.23901 0.52049 0.0
C1582 C 0.5789 0.1815 0.48792 0.0
C1583 C 0.60794 0.20299 0.48242 0.0
C1584 C 0.55645 0.18903 0.48939 0.0
C1585 C 0.56352 0.21867 0.48534 0.0
C1586 C 0.59345 0.24087 0.4817 0.0
C1587 C 0.61527 0.2327 0.48022 0.0
C1588 C 0.52491 0.16479 0.4935 0.0
C1589 C 0.60211 0.27287 0.47758 0.0
H1590 H 0.50925 0.24378 0.4415 0.0
H1591 H 0.5128 0.26635 0.50609 0.0
H1592 H 0.56144 0.22554 0.44053 0.0
H1593 H 0.53228 0.18952 0.44828 0.0
H1594 H 0.52479 0.21087 0.42962 0.0
H1595 H 0.52831 0.24392 0.53175 0.0
H1596 H 0.53943 0.21727 0.52447 0.0
H1597 H 0.56526 0.25629 0.5222 0.0
H1598 H 0.57323 0.15845 0.48941 0.0
H1599 H 0.63783 0.24929 0.47604 0.0
H1600 H 0.51307 0.15672 0.47849 0.0
H1601 H 0.51266 0.1731 0.50288 0.0
H1602 H 0.52426 0.14561 0.50163 0.0
H1603 H 0.59244 0.27441 0.46259 0.0
H1604 H 0.62662 0.28773 0.47683 0.0
H1605 H 0.59313 0.28116 0.48987 0.0
C1606 C 0.8104 0.39777 0.48844 0.0
C1607 C 0.78986 0.40733 0.4851 0.0
C1608 C 0.80149 0.36746 0.48726 0.0
C1609 C 0.77133 0.34658 0.48302 0.0
C1610 C 0.75015 0.35611 0.48141 0.0
C1611 C 0.7598 0.38651 0.48219 0.0
C1612 C 0.82477 0.35823 0.48869 0.0
C1613 C 0.71764 0.33447 0.4773 0.0
C1614 C 0.74455 0.27642 0.45183 0.0
C1615 C 0.7305 0.2547 0.46723 0.0
C1616 C 0.76038 0.30666 0.45701 0.0
C1617 C 0.76201 0.31526 0.47804 0.0
C1618 C 0.75052 0.29342 0.49378 0.0
C1619 C 0.73512 0.26333 0.48819 0.0
C1620 C 0.77303 0.32941 0.4398 0.0
C1621 C 0.75192 0.30173 0.51636 0.0
H1622 H 0.83378 0.4141 0.49021 0.0
H1623 H 0.74409 0.39416 0.47943 0.0
H1624 H 0.81645 0.33731 0.49764 0.0
H1625 H 0.83024 0.35412 0.47284 0.0
H1626 H 0.84556 0.37574 0.49604 0.0
H1627 H 0.71493 0.32535 0.46138 0.0
H1628 H 0.70914 0.31549 0.48827 0.0
H1629 H 0.70371 0.34511 0.47874 0.0
H1630 H 0.74155 0.26999 0.43562 0.0
H1631 H 0.72484 0.24674 0.50028 0.0
H1632 H 0.7957 0.34749 0.44385 0.0
H1633 H 0.75883 0.33961 0.43764 0.0
H1634 H 0.77407 0.31937 0.42483 0.0
H1635 H 0.77426 0.3204 0.52041 0.0
H1636 H 0.74657 0.28266 0.52679 0.0
H1637 H 0.73561 0.30922 0.5193 0.0
C1638 C 0.74833 0.27102 0.17003 0.0
C1639 C 0.71749 0.25868 0.17149 0.0
C1640 C 0.76722 0.30191 0.17119 0.0
C1641 C 0.75466 0.32049 0.17348 0.0
C1642 C 0.72339 0.30811 0.17265 0.0
C1643 C 0.70513 0.2772 0.17192 0.0
C1644 C 0.80038 0.31423 0.17225 0.0
C1645 C 0.70911 0.3272 0.17468 0.0
C1646 C 0.79004 0.38951 0.2069 0.0
C1647 C 0.8 0.41202 0.1919 0.0
C1648 C 0.77685 0.35956 0.20106 0.0
C1649 C 0.77351 0.35202 0.1797 0.0
C1650 C 0.78543 0.37468 0.16454 0.0
C1651 C 0.79873 0.40444 0.17082 0.0
C1652 C 0.7648 0.33593 0.21772 0.0
C1653 C 0.78217 0.3675 0.14166 0.0
H1654 H 0.75774 0.25649 0.17025 0.0
H1655 H 0.68121 0.2674 0.17342 0.0
H1656 H 0.81241 0.33483 0.16289 0.0
H1657 H 0.80788 0.32005 0.18857 0.0
H1658 H 0.80672 0.29787 0.16674 0.0
H1659 H 0.68504 0.31472 0.17077 0.0
H1660 H 0.71146 0.33531 0.19089 0.0
H1661 H 0.72033 0.34696 0.16443 0.0
H1662 H 0.79113 0.3951 0.22321 0.0
H1663 H 0.80666 0.42163 0.15906 0.0
H1664 H 0.77233 0.31964 0.21501 0.0
H1665 H 0.74012 0.32359 0.21718 0.0
H1666 H 0.77187 0.34546 0.23351 0.0
H1667 H 0.78803 0.35013 0.13819 0.0
H1668 H 0.7963 0.38741 0.13203 0.0
H1669 H 0.75862 0.35858 0.13703 0.0
C1670 C 0.72419 0.4891 0.17791 0.0
C1671 C 0.73407 0.4685 0.1773 0.0
C1672 C 0.69365 0.47937 0.17905 0.0
C1673 C 0.67299 0.44846 0.17959 0.0
C1674 C 0.68297 0.42781 0.17667 0.0
C1675 C 0.71349 0.43816 0.1756 0.0
C1676 C 0.68388 0.50205 0.18192 0.0
C1677 C 0.66173 0.39464 0.17703 0.0
C1678 C 0.60509 0.4137 0.21386 0.0
C1679 C 0.5824 0.40123 0.19901 0.0
C1680 C 0.63485 0.43126 0.2078 0.0
C1681 C 0.64189 0.4372 0.18645 0.0
C1682 C 0.61881 0.42774 0.17168 0.0
C1683 C 0.58928 0.40966 0.17811 0.0
C1684 C 0.65885 0.44085 0.22408 0.0
C1685 C 0.62536 0.43428 0.14886 0.0
H1686 H 0.74027 0.51256 0.17965 0.0
H1687 H 0.72139 0.42235 0.17538 0.0
H1688 H 0.66247 0.49511 0.17391 0.0
H1689 H 0.68057 0.50421 0.19871 0.0
H1690 H 0.70088 0.52424 0.17603 0.0
H1691 H 0.67269 0.38187 0.17224 0.0
H1692 H 0.65289 0.38767 0.19299 0.0
H1693 H 0.64254 0.38863 0.16662 0.0
H1694 H 0.59997 0.40781 0.23007 0.0
H1695 H 0.57182 0.40064 0.16652 0.0
H1696 H 0.67608 0.4644 0.22173 0.0
H1697 H 0.66985 0.42727 0.22263 0.0
H1698 H 0.64986 0.43815 0.24007 0.0
H1699 H 0.64373 0.4574 0.14642 0.0
H1700 H 0.60546 0.431 0.14016 0.0
H1701 H 0.63251 0.4191 0.14228 0.0
C1702 C 0.56827 0.2852 0.19073 0.0
C1703 C 0.53781 0.27539 0.19105 0.0
C1704 C 0.57851 0.26486 0.19081 0.0
C1705 C 0.55768 0.23401 0.19193 0.0
C1706 C 0.5268 0.22398 0.19155 0.0
C1707 C 0.5172 0.2449 0.19087 0.0
C1708 C 0.61165 0.27647 0.19071 0.0
C1709 C 0.50397 0.19139 0.19331 0.0
C1710 C 0.59184 0.18653 0.17944 0.0
C1711 C 0.60262 0.18445 0.19901 0.0
C1712 C 0.57524 0.20087 0.177 0.0
C1713 C 0.56867 0.21276 0.19461 0.0
C1714 C 0.57654 0.20776 0.21465 0.0
C1715 C 0.59353 0.19371 0.21662 0.0
C1716 C 0.5673 0.20575 0.15539 0.0
C1717 C 0.56917 0.21943 0.23387 0.0
H1718 H 0.58409 0.30887 0.19113 0.0
H1719 H 0.49363 0.23747 0.1917 0.0
H1720 H 0.61744 0.26512 0.17852 0.0
H1721 H 0.62468 0.30084 0.18794 0.0
H1722 H 0.61857 0.27168 0.20584 0.0
H1723 H 0.48119 0.18697 0.18967 0.0
H1724 H 0.50944 0.17788 0.18281 0.0
H1725 H 0.50402 0.18381 0.2094 0.0
H1726 H 0.59819 0.17894 0.16573 0.0
H1727 H 0.60131 0.19181 0.23185 0.0
H1728 H 0.58185 0.22941 0.15099 0.0
H1729 H 0.54398 0.20103 0.15477 0.0
H1730 H 0.57019 0.19165 0.14372 0.0
H1731 H 0.58352 0.24396 0.23454 0.0
H1732 H 0.57271 0.20985 0.24828 0.0
H1733 H 0.54573 0.21435 0.2334 0.0
C1734 C 0.27092 0.74378 0.8055 0.0
C1735 C 0.25913 0.71298 0.80472 0.0
C1736 C 0.30182 0.76313 0.80514 0.0
C1737 C 0.32106 0.75115 0.80446 0.0
C1738 C 0.30909 0.71993 0.80491 0.0
C1739 C 0.2782 0.70121 0.8047 0.0
C1740 C 0.31374 0.79622 0.80412 0.0
C1741 C 0.32885 0.70625 0.80471 0.0
C1742 C 0.39779 0.78953 0.7804 0.0
C1743 C 0.41594 0.79812 0.7981 0.0
C1744 C 0.36678 0.77616 0.78219 0.0
C1745 C 0.35367 0.77085 0.80216 0.0
C1746 C 0.37194 0.78137 0.81996 0.0
C1747 C 0.40287 0.79521 0.8177 0.0
C1748 C 0.34797 0.76592 0.76279 0.0
C1749 C 0.35881 0.77587 0.84152 0.0
H1750 H 0.256 0.75273 0.805 0.0
H1751 H 0.26886 0.6773 0.8039 0.0
H1752 H 0.33205 0.80809 0.81544 0.0
H1753 H 0.32306 0.80446 0.78844 0.0
H1754 H 0.29619 0.80203 0.8072 0.0
H1755 H 0.31605 0.68177 0.80701 0.0
H1756 H 0.3407 0.71091 0.78964 0.0
H1757 H 0.34596 0.71622 0.81706 0.0
H1758 H 0.40764 0.79196 0.76518 0.0
H1759 H 0.41662 0.80199 0.8315 0.0
H1760 H 0.33035 0.77207 0.76337 0.0
H1761 H 0.33678 0.74134 0.76167 0.0
H1762 H 0.36146 0.77557 0.74854 0.0
H1763 H 0.34121 0.78199 0.84245 0.0
H1764 H 0.37591 0.78852 0.85352 0.0
H1765 H 0.34829 0.75182 0.84518 0.0
C1766 C 0.28342 0.56507 0.81007 0.0
C1767 C 0.27584 0.53569 0.81436 0.0
C1768 C 0.2616 0.57332 0.80911 0.0
C1769 C 0.23139 0.55148 0.81221 0.0
C1770 C 0.22376 0.52207 0.8176 0.0
C1771 C 0.24621 0.51453 0.81875 0.0
C1772 C 0.27078 0.60511 0.8037 0.0
C1773 C 0.19181 0.49815 0.8208 0.0
C1774 C 0.18472 0.5876 0.81966 0.0
C1775 C 0.17843 0.59093 0.79894 0.0
C1776 C 0.19971 0.57226 0.82458 0.0
C1777 C 0.20812 0.55956 0.80843 0.0
C1778 C 0.19843 0.55952 0.78788 0.0
C1779 C 0.18358 0.57518 0.78336 0.0
C1780 C 0.20934 0.57252 0.84672 0.0
C1781 C 0.20634 0.5455 0.77032 0.0
H1782 H 0.30638 0.5814 0.80668 0.0
H1783 H 0.24032 0.49168 0.82174 0.0
H1784 H 0.26168 0.60587 0.78827 0.0
H1785 H 0.26156 0.61429 0.81517 0.0
H1786 H 0.29534 0.61972 0.80323 0.0
H1787 H 0.19008 0.47823 0.82855 0.0
H1788 H 0.17961 0.50652 0.83019 0.0
H1789 H 0.18057 0.49126 0.80551 0.0
H1790 H 0.18013 0.599 0.83194 0.0
H1791 H 0.17823 0.57703 0.76737 0.0
H1792 H 0.23328 0.58931 0.84828 0.0
H1793 H 0.2066 0.55063 0.85109 0.0
H1794 H 0.1966 0.57827 0.85782 0.0
H1795 H 0.23043 0.55928 0.76679 0.0
H1796 H 0.19363 0.54357 0.75597 0.0
H1797 H 0.20201 0.52306 0.77482 0.0
C1798 C 0.43617 0.71343 0.82964 0.0
C1799 C 0.46667 0.73378 0.82986 0.0
C1800 C 0.4257 0.68286 0.82969 0.0
C1801 C 0.44643 0.67265 0.82978 0.0
C1802 C 0.47713 0.69316 0.83233 0.0
C1803 C 0.48696 0.72372 0.83239 0.0
C1804 C 0.39271 0.66175 0.82715 0.0
C1805 C 0.49987 0.68316 0.83259 0.0
C1806 C 0.40769 0.58903 0.8325 0.0
C1807 C 0.40225 0.58166 0.81134 0.0
C1808 C 0.42453 0.61871 0.83888 0.0
C1809 C 0.43605 0.64142 0.82376 0.0
C1810 C 0.4333 0.63394 0.8024 0.0
C1811 C 0.41668 0.60405 0.79645 0.0
C1812 C 0.42749 0.62578 0.86177 0.0
C1813 C 0.4455 0.65758 0.78576 0.0
H1814 H 0.42066 0.72146 0.82735 0.0
H1815 H 0.51062 0.73962 0.83208 0.0
H1816 H 0.38814 0.6528 0.8111 0.0
H1817 H 0.385 0.64264 0.83792 0.0
H1818 H 0.37948 0.67287 0.83001 0.0
H1819 H 0.52123 0.70035 0.83949 0.0
H1820 H 0.49163 0.66212 0.8414 0.0
H1821 H 0.50429 0.67903 0.81644 0.0
H1822 H 0.39718 0.57181 0.84417 0.0
H1823 H 0.41312 0.59855 0.78009 0.0
H1824 H 0.41136 0.63294 0.86618 0.0
H1825 H 0.45009 0.64428 0.8655 0.0
H1826 H 0.42288 0.60613 0.87135 0.0
H1827 H 0.43275 0.66953 0.7856 0.0
H1828 H 0.44413 0.64812 0.77006 0.0
H1829 H 0.46903 0.67413 0.78907 0.0
C1830 C 0.46467 0.73479 0.51625 0.0
C1831 C 0.46254 0.74474 0.53612 0.0
C1832 C 0.45257 0.70442 0.51207 0.0
C1833 C 0.43842 0.6836 0.5282 0.0
C1834 C 0.43847 0.69361 0.54866 0.0
C1835 C 0.45044 0.72408 0.55237 0.0
C1836 C 0.45297 0.69457 0.49009 0.0
C1837 C 0.42404 0.672 0.56638 0.0
C1838 C 0.37144 0.60783 0.51965 0.0
C1839 C 0.38369 0.58948 0.52252 0.0
C1840 C 0.38956 0.63878 0.51977 0.0
C1841 C 0.42047 0.65143 0.52346 0.0
C1842 C 0.43315 0.63287 0.52499 0.0
C1843 C 0.41449 0.60191 0.52434 0.0
C1844 C 0.37521 0.65781 0.51772 0.0
C1845 C 0.46584 0.64544 0.52933 0.0
H1846 H 0.47429 0.75053 0.5036 0.0
H1847 H 0.44895 0.73151 0.56781 0.0
H1848 H 0.4598 0.67746 0.48977 0.0
H1849 H 0.43021 0.68434 0.48349 0.0
H1850 H 0.46822 0.71342 0.47998 0.0
H1851 H 0.42914 0.6834 0.58167 0.0
H1852 H 0.39954 0.65971 0.56427 0.0
H1853 H 0.43153 0.65538 0.56659 0.0
H1854 H 0.34747 0.59794 0.51864 0.0
H1855 H 0.42367 0.58749 0.52715 0.0
H1856 H 0.38785 0.67629 0.50665 0.0
H1857 H 0.37548 0.66783 0.53299 0.0
H1858 H 0.35177 0.64478 0.51237 0.0
H1859 H 0.47302 0.6289 0.52627 0.0
H1860 H 0.47032 0.65211 0.54589 0.0
H1861 H 0.47957 0.66555 0.51982 0.0
C1862 C 0.26996 0.74926 0.54075 0.0
C1863 C 0.24726 0.73489 0.52607 0.0
C1864 C 0.29974 0.76579 0.53451 0.0
C1865 C 0.3068 0.76877 0.51307 0.0
C1866 C 0.28374 0.75743 0.49819 0.0
C1867 C 0.25418 0.74043 0.50486 0.0
C1868 C 0.32371 0.77764 0.55093 0.0
C1869 C 0.29034 0.76088 0.47523 0.0
C1870 C 0.38921 0.81949 0.50488 0.0
C1871 C 0.39901 0.79894 0.50691 0.0
C1872 C 0.35866 0.80987 0.50472 0.0
C1873 C 0.33793 0.77913 0.50669 0.0
C1874 C 0.34793 0.75825 0.50616 0.0
C1875 C 0.37847 0.7685 0.50628 0.0
C1876 C 0.3489 0.83279 0.50492 0.0
C1877 C 0.32662 0.72523 0.50817 0.0
H1878 H 0.26481 0.74565 0.55715 0.0
H1879 H 0.2367 0.72996 0.49336 0.0
H1880 H 0.33592 0.76516 0.55045 0.0
H1881 H 0.33996 0.80132 0.54784 0.0
H1882 H 0.31456 0.77569 0.5668 0.0
H1883 H 0.27052 0.75662 0.46599 0.0
H1884 H 0.30887 0.78352 0.47161 0.0
H1885 H 0.29725 0.74476 0.47031 0.0
H1886 H 0.40521 0.84308 0.5058 0.0
H1887 H 0.38629 0.75276 0.50818 0.0
H1888 H 0.3456 0.83743 0.52121 0.0
H1889 H 0.32753 0.8247 0.49657 0.0
H1890 H 0.36597 0.854 0.49778 0.0
H1891 H 0.31766 0.72014 0.52422 0.0
H1892 H 0.33759 0.71197 0.50488 0.0
H1893 H 0.30752 0.71802 0.49745 0.0
C1894 C 0.25163 0.5243 0.55635 0.0
C1895 C 0.26361 0.51602 0.53986 0.0
C1896 C 0.23549 0.5389 0.5526 0.0
C1897 C 0.23129 0.5453 0.53192 0.0
C1898 C 0.24074 0.53438 0.51523 0.0
C1899 C 0.25656 0.51962 0.5194 0.0
C1900 C 0.22512 0.54965 0.57082 0.0
C1901 C 0.23668 0.54071 0.49297 0.0
C1902 C 0.1816 0.57875 0.52349 0.0
C1903 C 0.20237 0.60913 0.52502 0.0
C1904 C 0.19066 0.55747 0.52513 0.0
C1905 C 0.2212 0.56703 0.52794 0.0
C1906 C 0.2424 0.5978 0.52816 0.0
C1907 C 0.23265 0.61848 0.52695 0.0
C1908 C 0.16741 0.5249 0.52521 0.0
C1909 C 0.27528 0.60895 0.5307 0.0
H1910 H 0.25652 0.52123 0.57221 0.0
H1911 H 0.26517 0.5128 0.50651 0.0
H1912 H 0.2392 0.57415 0.5722 0.0
H1913 H 0.20186 0.54452 0.56842 0.0
H1914 H 0.22641 0.53946 0.58566 0.0
H1915 H 0.24116 0.52701 0.48189 0.0
H1916 H 0.2138 0.53655 0.49033 0.0
H1917 H 0.25227 0.56451 0.48951 0.0
H1918 H 0.15811 0.5716 0.52244 0.0
H1919 H 0.24863 0.64203 0.52824 0.0
H1920 H 0.16491 0.51607 0.54122 0.0
H1921 H 0.17426 0.51201 0.51518 0.0
H1922 H 0.1454 0.52108 0.51989 0.0
H1923 H 0.27958 0.60302 0.54635 0.0
H1924 H 0.28894 0.63345 0.5288 0.0
H1925 H 0.28278 0.59821 0.51917 0.0
C1926 C 0.1699 0.20205 0.03916 0.0
C1927 C 0.19159 0.20859 0.05435 0.0
C1928 C 0.17681 0.20346 0.01803 0.0
C1929 C 0.20596 0.21082 0.01199 0.0
C1930 C 0.22846 0.21951 0.02723 0.0
C1931 C 0.22104 0.21855 0.04831 0.0
C1932 C 0.15226 0.19469 0.00227 0.0
C1933 C 0.25967 0.22716 0.02149 0.0
C1934 C 0.20192 0.16864 0.96326 0.0
C1935 C 0.20845 0.19015 0.94793 0.0
C1936 C 0.2036 0.17583 0.98436 0.0
C1937 C 0.21129 0.20511 0.99022 0.0
C1938 C 0.21999 0.22743 0.97484 0.0
C1939 C 0.21871 0.21971 0.9538 0.0
C1940 C 0.19478 0.15146 1.00026 0.0
C1941 C 0.22799 0.25878 0.98042 0.0
H1942 H 0.14711 0.19428 0.04387 0.0
H1943 H 0.23774 0.22318 0.06008 0.0
H1944 H 0.16001 0.21062 0.98912 0.0
H1945 H 0.1458 0.17242 0.99589 0.0
H1946 H 0.13219 0.19375 0.00917 0.0
H1947 H 0.27559 0.23855 0.03438 0.0
H1948 H 0.25988 0.2064 0.01774 0.0
H1949 H 0.26746 0.24155 0.00752 0.0
H1950 H 0.19395 0.14577 0.9587 0.0
H1951 H 0.22336 0.2363 0.94196 0.0
H1952 H 0.17264 0.14533 0.00677 0.0
H1953 H 0.21088 0.15923 0.0133 0.0
H1954 H 0.19351 0.13119 0.99346 0.0
H1955 H 0.20739 0.25926 0.98425 0.0
H1956 H 0.23933 0.27449 0.96741 0.0
H1957 H 0.24258 0.26664 0.99428 0.0
C1958 C 0.78369 0.00022 0.95629 0.0
C1959 C 0.81341 0.02029 0.95121 0.0
C1960 C 0.77512 0.99217 0.97704 0.0
C1961 C 0.79673 0.00496 0.99294 0.0
C1962 C 0.82605 0.02751 0.98795 0.0
C1963 C 0.83411 0.03463 0.9671 0.0
C1964 C 0.74376 0.96791 0.98166 0.0
C1965 C 0.84964 0.04225 0.00447 0.0
C1966 C 0.78138 0.99608 0.05078 0.0
C1967 C 0.79207 0.97686 0.05591 0.0
C1968 C 0.78071 0.00404 0.03002 0.0
C1969 C 0.79045 0.99202 0.01417 0.0
C1970 C 0.79839 0.97032 0.01919 0.0
C1971 C 0.79945 0.96328 0.04005 0.0
C1972 C 0.77235 0.02741 0.02536 0.0
C1973 C 0.80829 0.95642 0.00271 0.0
H1974 H 0.76773 0.98877 0.94399 0.0
H1975 H 0.85711 0.05009 0.96314 0.0
H1976 H 0.74364 0.94673 0.98434 0.0
H1977 H 0.73515 0.97296 0.99592 0.0
H1978 H 0.72843 0.96456 0.96859 0.0
H1979 H 0.86985 0.06214 0.99846 0.0
H1980 H 0.84092 0.04903 0.01785 0.0
H1981 H 0.85621 0.02623 0.0103 0.0
H1982 H 0.77606 0.00696 0.06304 0.0
H1983 H 0.80777 0.94846 0.04404 0.0
H1984 H 0.75866 0.02184 0.01108 0.0
H1985 H 0.7929 0.04904 0.02268 0.0
H1986 H 0.75992 0.03015 0.0384 0.0
H1987 H 0.7928 0.94903 0.98931 0.0
H1988 H 0.80959 0.93706 0.00875 0.0
H1989 H 0.83063 0.97315 0.99692 0.0
C1990 C 0.0032 0.79937 0.95289 0.0
C1991 C 0.97827 0.80218 0.94818 0.0
C1992 C 0.01078 0.79756 0.97353 0.0
C1993 C 0.99292 0.79841 0.98978 0.0
C1994 C 0.96595 0.79778 0.98502 0.0
C1995 C 0.95892 0.79963 0.96425 0.0
C1996 C 0.03945 0.79778 0.9779 0.0
C1997 C 0.94599 0.79819 0.00191 0.0
C1998 C 0.00436 0.79042 0.0472 0.0
C1999 C 0.01825 0.82023 0.05355 0.0
C2000 C 0.99747 0.78278 0.02617 0.0
C2001 C 0.00475 0.80553 0.01132 0.0
C2002 C 0.02099 0.83571 0.01751 0.0
C2003 C 0.02751 0.84265 0.03853 0.0
C2004 C 0.98044 0.75039 0.02015 0.0
C2005 C 0.02949 0.86073 0.00219 0.0
H2006 H 0.01812 0.80086 0.94058 0.0
H2007 H 0.93939 0.80134 0.9608 0.0
H2008 H 0.05686 0.8206 0.98229 0.0
H2009 H 0.03676 0.78284 0.99105 0.0
H2010 H 0.04739 0.79091 0.9641 0.0
H2011 H 0.924 0.79335 0.9958 0.0
H2012 H 0.94243 0.78172 0.01415 0.0
H2013 H 0.95679 0.82048 0.00931 0.0
H2014 H 0.99696 0.77298 0.05876 0.0
H2015 H 0.03843 0.86573 0.04339 0.0
H2016 H 0.9887 0.74655 0.00525 0.0
H2017 H 0.95664 0.7435 0.01801 0.0
H2018 H 0.98198 0.736 0.03228 0.0
H2019 H 0.04078 0.85787 0.98851 0.0
H2020 H 0.04441 0.88288 0.00916 0.0
H2021 H 0.00911 0.86039 0.99656 0.0
C2022 C 0.86779 0.53911 0.2862 0.0
C2023 C 0.85013 0.51002 0.27879 0.0
C2024 C 0.86842 0.54545 0.30749 0.0
C2025 C 0.85117 0.5221 0.32153 0.0
C2026 C 0.83518 0.49242 0.31424 0.0
C2027 C 0.83478 0.48679 0.29297 0.0
C2028 C 0.88579 0.57733 0.31466 0.0
C2029 C 0.81683 0.46675 0.32871 0.0
C2030 C 0.85671 0.52532 0.38009 0.0
C2031 C 0.83032 0.52505 0.38544 0.0
C2032 C 0.86528 0.5268 0.35927 0.0
C2033 C 0.84721 0.52838 0.34347 0.0
C2034 C 0.82231 0.53126 0.34891 0.0
C2035 C 0.81412 0.5295 0.36984 0.0
C2036 C 0.8921 0.52389 0.35418 0.0
C2037 C 0.80273 0.53351 0.33252 0.0
H2038 H 0.87946 0.55718 0.27527 0.0
H2039 H 0.82119 0.46426 0.28728 0.0
H2040 H 0.87017 0.58558 0.31789 0.0
H2041 H 0.89791 0.57917 0.32926 0.0
H2042 H 0.902 0.59198 0.30276 0.0
H2043 H 0.80792 0.44486 0.32089 0.0
H2044 H 0.83034 0.46733 0.34223 0.0
H2045 H 0.7978 0.46862 0.33476 0.0
H2046 H 0.86964 0.52221 0.39201 0.0
H2047 H 0.79393 0.5297 0.37381 0.0
H2048 H 0.90531 0.53927 0.34148 0.0
H2049 H 0.88458 0.50091 0.34877 0.0
H2050 H 0.90672 0.52841 0.36789 0.0
H2051 H 0.81643 0.55015 0.32057 0.0
H2052 H 0.7869 0.53978 0.33922 0.0
H2053 H 0.78974 0.51173 0.3246 0.0
C2054 C 0.44706 0.32565 0.28833 0.0
C2055 C 0.47677 0.34421 0.28243 0.0
C2056 C 0.43926 0.31938 0.30938 0.0
C2057 C 0.46166 0.33247 0.32475 0.0
C2058 C 0.49123 0.35321 0.31885 0.0
C2059 C 0.49849 0.35853 0.29775 0.0
C2060 C 0.40761 0.29685 0.31498 0.0
C2061 C 0.5157 0.36821 0.33476 0.0
C2062 C 0.44777 0.3306 0.38269 0.0
C2063 C 0.45664 0.31046 0.38925 0.0
C2064 C 0.44736 0.33676 0.36149 0.0
C2065 C 0.45546 0.32196 0.34664 0.0
C2066 C 0.46168 0.29958 0.35318 0.0
C2067 C 0.46259 0.29439 0.37444 0.0
C2068 C 0.44098 0.36102 0.3552 0.0
C2069 C 0.46975 0.28275 0.33784 0.0
H2070 H 0.43029 0.3142 0.2765 0.0
H2071 H 0.52147 0.37285 0.29317 0.0
H2072 H 0.40641 0.27557 0.31923 0.0
H2073 H 0.40002 0.30433 0.32861 0.0
H2074 H 0.39208 0.29259 0.30186 0.0
H2075 H 0.53642 0.38653 0.3279 0.0
H2076 H 0.50847 0.37734 0.34762 0.0
H2077 H 0.52088 0.35167 0.34154 0.0
H2078 H 0.44363 0.3434 0.39414 0.0
H2079 H 0.46954 0.27889 0.37954 0.0
H2080 H 0.42662 0.35451 0.34122 0.0
H2081 H 0.46222 0.38136 0.35126 0.0
H2082 H 0.43005 0.36656 0.36787 0.0
H2083 H 0.454 0.27486 0.32459 0.0
H2084 H 0.46969 0.26331 0.34509 0.0
H2085 H 0.49231 0.29775 0.33154 0.0
C2086 C 0.67528 0.12962 0.3744 0.0
C2087 C 0.67965 0.15723 0.3811 0.0
C2088 C 0.67191 0.12225 0.35317 0.0
C2089 C 0.67277 0.14294 0.33846 0.0
C2090 C 0.67857 0.17133 0.34513 0.0
C2091 C 0.68209 0.17813 0.36629 0.0
C2092 C 0.66622 0.09196 0.3466 0.0
C2093 C 0.67999 0.19426 0.32997 0.0
C2094 C 0.68661 0.14606 0.28101 0.0
C2095 C 0.65842 0.13841 0.27321 0.0
C2096 C 0.69112 0.14447 0.30228 0.0
C2097 C 0.6669 0.13532 0.31608 0.0
C2098 C 0.63784 0.12451 0.30805 0.0
C2099 C 0.6339 0.12605 0.2866 0.0
C2100 C 0.72235 0.15558 0.31011 0.0
C2101 C 0.61139 0.11436 0.32225 0.0
H2102 H 0.67328 0.11331 0.38576 0.0
H2103 H 0.68581 0.19966 0.37131 0.0
H2104 H 0.64267 0.07813 0.34176 0.0
H2105 H 0.68026 0.09379 0.33307 0.0
H2106 H 0.67063 0.08029 0.35936 0.0
H2107 H 0.6851 0.21541 0.33771 0.0
H2108 H 0.69728 0.1992 0.31805 0.0
H2109 H 0.65839 0.18542 0.32179 0.0
H2110 H 0.70559 0.1552 0.27061 0.0
H2111 H 0.61207 0.12002 0.28063 0.0
H2112 H 0.72248 0.14151 0.32302 0.0
H2113 H 0.73151 0.17852 0.31616 0.0
H2114 H 0.73729 0.15602 0.2976 0.0
H2115 H 0.61178 0.09985 0.33473 0.0
H2116 H 0.59002 0.10212 0.31369 0.0
H2117 H 0.61232 0.13404 0.32977 0.0
C2118 C 0.534 0.86611 0.62275 0.0
C2119 C 0.50656 0.84306 0.61563 0.0
C2120 C 0.53977 0.87118 0.64417 0.0
C2121 C 0.51769 0.85256 0.65862 0.0
C2122 C 0.49013 0.82912 0.65143 0.0
C2123 C 0.48494 0.82473 0.63011 0.0
C2124 C 0.56931 0.89646 0.65134 0.0
C2125 C 0.46605 0.80841 0.66626 0.0
C2126 C 0.53014 0.83477 0.71294 0.0
C2127 C 0.51675 0.84772 0.72464 0.0
C2128 C 0.53348 0.83872 0.69143 0.0
C2129 C 0.5232 0.85609 0.68136 0.0
C2130 C 0.51261 0.87179 0.69335 0.0
C2131 C 0.50949 0.86741 0.71495 0.0
C2132 C 0.54502 0.82166 0.67934 0.0
C2133 C 0.50184 0.89087 0.68319 0.0
H2134 H 0.55069 0.88048 0.61163 0.0
H2135 H 0.46375 0.80671 0.62477 0.0
H2136 H 0.5657 0.91208 0.66099 0.0
H2137 H 0.58082 0.88784 0.66122 0.0
H2138 H 0.58408 0.90896 0.63815 0.0
H2139 H 0.44574 0.79153 0.65807 0.0
H2140 H 0.47444 0.79663 0.6761 0.0
H2141 H 0.45975 0.82131 0.67673 0.0
H2142 H 0.5364 0.81999 0.72043 0.0
H2143 H 0.49939 0.8777 0.72394 0.0
H2144 H 0.56029 0.83555 0.66681 0.0
H2145 H 0.52605 0.80205 0.67195 0.0
H2146 H 0.5569 0.81365 0.68947 0.0
H2147 H 0.51696 0.90429 0.67044 0.0
H2148 H 0.50005 0.90604 0.69451 0.0
H2149 H 0.47953 0.87637 0.67635 0.0
C2150 C 0.11284 0.666 0.61667 0.0
C2151 C 0.14241 0.68543 0.61087 0.0
C2152 C 0.10513 0.65895 0.63765 0.0
C2153 C 0.12748 0.67206 0.65305 0.0
C2154 C 0.15672 0.69395 0.64732 0.0
C2155 C 0.1639 0.70011 0.62626 0.0
C2156 C 0.07378 0.63539 0.64308 0.0
C2157 C 0.18112 0.70897 0.66327 0.0
C2158 C 0.1143 0.66568 0.71121 0.0
C2159 C 0.12434 0.64597 0.71647 0.0
C2160 C 0.11322 0.6731 0.69037 0.0
C2161 C 0.12191 0.66005 0.67456 0.0
C2162 C 0.12932 0.63802 0.67977 0.0
C2163 C 0.13077 0.63151 0.70069 0.0
C2164 C 0.10546 0.69683 0.6855 0.0
C2165 C 0.13811 0.62307 0.66337 0.0
H2166 H 0.09624 0.65429 0.60478 0.0
H2167 H 0.18678 0.7151 0.62176 0.0
H2168 H 0.0733 0.61413 0.64619 0.0
H2169 H 0.06601 0.64144 0.65732 0.0
H2170 H 0.058 0.63168 0.63025 0.0
H2171 H 0.20129 0.72832 0.65668 0.0
H2172 H 0.17329 0.71665 0.67666 0.0
H2173 H 0.18746 0.69284 0.66922 0.0
H2174 H 0.10971 0.67722 0.7234 0.0
H2175 H 0.13856 0.61629 0.70477 0.0
H2176 H 0.09111 0.69092 0.67154 0.0
H2177 H 0.12618 0.71802 0.68215 0.0
H2178 H 0.09395 0.70061 0.69869 0.0
H2179 H 0.12207 0.61537 0.65029 0.0
H2180 H 0.13926 0.60374 0.66965 0.0
H2181 H 0.1603 0.63925 0.65703 0.0
C2182 C 0.34154 0.45347 0.62555 0.0
C2183 C 0.32275 0.46412 0.61915 0.0
C2184 C 0.34712 0.45199 0.64675 0.0
C2185 C 0.33307 0.46079 0.66174 0.0
C2186 C 0.31214 0.46912 0.65529 0.0
C2187 C 0.30758 0.47109 0.63406 0.0
C2188 C 0.36986 0.44342 0.65295 0.0
C2189 C 0.29611 0.47802 0.67076 0.0
C2190 C 0.33274 0.44858 0.71982 0.0
C2191 C 0.35213 0.47766 0.7266 0.0
C2192 C 0.32761 0.44207 0.69854 0.0
C2193 C 0.3427 0.46512 0.68384 0.0
C2194 C 0.36437 0.49385 0.69067 0.0
C2195 C 0.36852 0.49986 0.71198 0.0
C2196 C 0.30407 0.41129 0.69195 0.0
C2197 C 0.38148 0.51892 0.67551 0.0
H2198 H 0.35365 0.44852 0.61401 0.0
H2199 H 0.29309 0.47937 0.62907 0.0
H2200 H 0.39075 0.4637 0.65756 0.0
H2201 H 0.36208 0.42824 0.66652 0.0
H2202 H 0.37498 0.43252 0.64003 0.0
H2203 H 0.27782 0.48003 0.66344 0.0
H2204 H 0.28672 0.46153 0.68353 0.0
H2205 H 0.31207 0.49979 0.67775 0.0
H2206 H 0.31969 0.43147 0.73112 0.0
H2207 H 0.38347 0.52236 0.71724 0.0
H2208 H 0.31142 0.40379 0.67821 0.0
H2209 H 0.28362 0.41172 0.68749 0.0
H2210 H 0.29833 0.39481 0.70463 0.0
H2211 H 0.39019 0.51142 0.66254 0.0
H2212 H 0.40039 0.53846 0.68306 0.0
H2213 H 0.36641 0.52611 0.66876 0.0
loop_
_geom_bond_atom_site_label_1
_geom_bond_atom_site_label_2
_geom_bond_distance
_geom_bond_site_symmetry_2
_ccdc_geom_bond_type
Co0 O2 2.143 . S
Co0 O8 2.074 . S
Co0 O11 2.093 . S
Co0 O24 2.097 . S
Co0 N41 2.151 . S
Co0 N49 2.214 . S
Co1 O2 2.160 . S
Co1 O7 2.058 . S
Co1 O17 2.057 . S
Co1 O32 2.037 . S
Co1 N36 2.145 . S
Co1 N57 2.257 . S
O2 Co0 2.143 . S
O2 Co1 2.160 . S
C3 O4 1.278 . S
C3 O11 1.224 . S
O4 C3 1.278 . S
C5 O6 1.245 . S
C5 O17 1.232 . S
O6 C5 1.245 . S
O7 Co1 2.058 . S
O7 C33 1.269 . S
O8 Co0 2.074 . S
O8 C33 1.257 . S
H9 C34 0.930 . S
H10 C40 0.930 . S
O11 Co0 2.093 . S
O11 C3 1.224 . S
H12 C44 0.929 . S
H13 C46 0.930 . S
H14 C47 0.930 . S
H15 C45 0.929 . S
H16 C48 0.928 . S
O17 Co1 2.057 . S
O17 C5 1.232 . S
H18 C37 0.929 . S
H19 C38 0.929 . S
H20 C50 0.931 . S
H21 C42 0.929 . S
H22 C51 0.930 . S
H23 C43 0.931 . S
O24 Co0 2.097 . S
O24 C52 1.214 . S
H25 C53 0.929 . S
H26 C54 0.929 . S
H27 C55 0.930 . S
H28 C56 0.929 . S
H29 C58 0.930 . S
H30 C35 0.930 . S
H31 C39 0.930 . S
O32 Co1 2.037 . S
O32 C52 1.234 . S
C33 O7 1.269 . S
C33 O8 1.257 . S
C34 H9 0.930 . S
C34 C37 1.388 . S
C34 C39 1.418 . S
C35 H30 0.930 . S
C35 C38 1.404 . S
C35 C39 1.353 . S
N36 Co1 2.145 . S
N36 C37 1.397 . S
N36 C38 1.334 . S
C37 H18 0.929 . S
C37 C34 1.388 . S
C37 N36 1.397 . S
C38 H19 0.929 . S
C38 C35 1.404 . S
C38 N36 1.334 . S
C39 H31 0.930 . S
C39 C34 1.418 . S
C39 C35 1.353 . S
C40 H10 0.930 . S
C40 N41 1.330 . S
C40 C42 1.446 . S
N41 Co0 2.151 . S
N41 C40 1.330 . S
N41 C45 1.418 . S
C42 H21 0.929 . S
C42 C40 1.446 . S
C42 C43 1.332 . S
C43 H23 0.931 . S
C43 C42 1.332 . S
C43 C44 1.267 . S
C44 H12 0.929 . S
C44 C43 1.267 . S
C44 C45 1.251 . S
C45 H15 0.929 . S
C45 N41 1.418 . S
C45 C44 1.251 . S
C46 H13 0.930 . S
C46 C48 1.406 . S
C46 C51 1.261 . S
C47 H14 0.930 . S
C47 N49 1.325 . S
C47 C50 1.357 . S
C48 H16 0.928 . S
C48 C46 1.406 . S
C48 N49 1.261 . S
N49 Co0 2.214 . S
N49 C47 1.325 . S
N49 C48 1.261 . S
C50 H20 0.931 . S
C50 C47 1.357 . S
C50 C51 1.312 . S
C51 H22 0.930 . S
C51 C46 1.261 . S
C51 C50 1.312 . S
C52 O24 1.214 . S
C52 O32 1.234 . S
C53 H25 0.929 . S
C53 C56 1.391 . S
C53 C58 1.391 . S
C54 H26 0.929 . S
C54 C55 1.390 . S
C54 N57 1.391 . S
C55 H27 0.930 . S
C55 C54 1.390 . S
C55 C56 1.392 . S
C56 H28 0.929 . S
C56 C53 1.391 . S
C56 C55 1.392 . S
N57 Co1 2.257 . S
N57 C54 1.391 . S
N57 C58 1.388 . S
C58 H29 0.930 . S
C58 C53 1.391 . S
C58 N57 1.388 . S
Co59 O61 2.143 . S
Co59 O67 2.074 . S
Co59 O70 2.093 1_545 S
Co59 O83 2.097 1_545 S
Co59 N100 2.151 . S
Co59 N108 2.214 . S
Co60 O61 2.160 1_565 S
Co60 O66 2.058 1_565 S
Co60 O76 2.057 1_565 S
Co60 O91 2.037 . S
Co60 N95 2.145 . S
Co60 N116 2.257 . S
O61 Co59 2.143 . S
O61 Co60 2.160 1_545 S
C62 O63 1.278 . S
C62 O70 1.224 . S
O63 C62 1.278 . S
C64 O65 1.245 . S
C64 O76 1.232 . S
O65 C64 1.245 . S
O66 Co60 2.058 1_545 S
O66 C92 1.269 . S
O67 Co59 2.074 . S
O67 C92 1.257 . S
H68 C93 0.930 . S
H69 C99 0.930 . S
O70 Co59 2.093 1_565 S
O70 C62 1.224 . S
H71 C103 0.929 . S
H72 C105 0.930 . S
H73 C106 0.930 1_565 S
H74 C104 0.929 . S
H75 C107 0.928 . S
O76 Co60 2.057 1_545 S
O76 C64 1.232 . S
H77 C96 0.929 . S
H78 C97 0.929 . S
H79 C109 0.931 1_565 S
H80 C101 0.929 . S
H81 C110 0.930 . S
H82 C102 0.931 . S
O83 Co59 2.097 1_565 S
O83 C111 1.214 . S
H84 C112 0.929 . S
H85 C113 0.929 . S
H86 C114 0.930 . S
H87 C115 0.929 . S
H88 C117 0.930 . S
H89 C94 0.930 . S
H90 C98 0.930 . S
O91 Co60 2.037 . S
O91 C111 1.234 . S
C92 O66 1.269 . S
C92 O67 1.257 . S
C93 H68 0.930 . S
C93 C96 1.388 . S
C93 C98 1.418 . S
C94 H89 0.930 . S
C94 C97 1.404 . S
C94 C98 1.353 . S
N95 Co60 2.145 . S
N95 C96 1.397 . S
N95 C97 1.334 . S
C96 H77 0.929 . S
C96 C93 1.388 . S
C96 N95 1.397 . S
C97 H78 0.929 . S
C97 C94 1.404 . S
C97 N95 1.334 . S
C98 H90 0.930 . S
C98 C93 1.418 . S
C98 C94 1.353 . S
C99 H69 0.930 . S
C99 N100 1.330 . S
C99 C101 1.446 . S
N100 Co59 2.151 . S
N100 C99 1.330 . S
N100 C104 1.418 . S
C101 H80 0.929 . S
C101 C99 1.446 . S
C101 C102 1.332 . S
C102 H82 0.931 . S
C102 C101 1.332 . S
C102 C103 1.267 . S
C103 H71 0.929 . S
C103 C102 1.267 . S
C103 C104 1.251 . S
C104 H74 0.929 . S
C104 N100 1.418 . S
C104 C103 1.251 . S
C105 H72 0.930 . S
C105 C107 1.406 . S
C105 C110 1.261 . S
C106 H73 0.930 1_545 S
C106 N108 1.325 . S
C106 C109 1.357 . S
C107 H75 0.928 . S
C107 C105 1.406 . S
C107 N108 1.261 . S
N108 Co59 2.214 . S
N108 C106 1.325 . S
N108 C107 1.261 . S
C109 H79 0.931 1_545 S
C109 C106 1.357 . S
C109 C110 1.312 . S
C110 H81 0.930 . S
C110 C105 1.261 . S
C110 C109 1.312 . S
C111 O83 1.214 . S
C111 O91 1.234 . S
C112 H84 0.929 . S
C112 C115 1.391 . S
C112 C117 1.391 . S
C113 H85 0.929 . S
C113 C114 1.390 . S
C113 N116 1.391 . S
C114 H86 0.930 . S
C114 C113 1.390 . S
C114 C115 1.392 . S
C115 H87 0.929 . S
C115 C112 1.391 . S
C115 C114 1.392 . S
N116 Co60 2.257 . S
N116 C113 1.391 . S
N116 C117 1.388 . S
C117 H88 0.930 . S
C117 C112 1.391 . S
C117 N116 1.388 . S
Co118 O120 2.143 . S
Co118 O126 2.074 . S
Co118 O129 2.093 1_655 S
Co118 O142 2.097 1_655 S
Co118 N159 2.151 . S
Co118 N167 2.214 . S
Co119 O120 2.160 1_455 S
Co119 O125 2.058 1_455 S
Co119 O135 2.057 1_455 S
Co119 O150 2.037 . S
Co119 N154 2.145 . S
Co119 N175 2.257 . S
O120 Co118 2.143 . S
O120 Co119 2.160 1_655 S
C121 O122 1.278 . S
C121 O129 1.224 . S
O122 C121 1.278 . S
C123 O124 1.245 . S
C123 O135 1.232 . S
O124 C123 1.245 . S
O125 Co119 2.058 1_655 S
O125 C151 1.269 . S
O126 Co118 2.074 . S
O126 C151 1.257 . S
H127 C152 0.930 . S
H128 C158 0.930 . S
O129 Co118 2.093 1_455 S
O129 C121 1.224 . S
H130 C162 0.929 . S
H131 C164 0.930 . S
H132 C165 0.930 1_455 S
H133 C163 0.929 . S
H134 C166 0.928 . S
O135 Co119 2.057 1_655 S
O135 C123 1.232 . S
H136 C155 0.929 . S
H137 C156 0.929 . S
H138 C168 0.931 1_455 S
H139 C160 0.929 . S
H140 C169 0.930 . S
H141 C161 0.931 . S
O142 Co118 2.097 1_455 S
O142 C170 1.214 . S
H143 C171 0.929 . S
H144 C172 0.929 . S
H145 C173 0.930 . S
H146 C174 0.929 . S
H147 C176 0.930 . S
H148 C153 0.930 . S
H149 C157 0.930 . S
O150 Co119 2.037 . S
O150 C170 1.234 . S
C151 O125 1.269 . S
C151 O126 1.257 . S
C152 H127 0.930 . S
C152 C155 1.388 . S
C152 C157 1.418 . S
C153 H148 0.930 . S
C153 C156 1.404 . S
C153 C157 1.353 . S
N154 Co119 2.145 . S
N154 C155 1.397 . S
N154 C156 1.334 . S
C155 H136 0.929 . S
C155 C152 1.388 . S
C155 N154 1.397 . S
C156 H137 0.929 . S
C156 C153 1.404 . S
C156 N154 1.334 . S
C157 H149 0.930 . S
C157 C152 1.418 . S
C157 C153 1.353 . S
C158 H128 0.930 . S
C158 N159 1.330 . S
C158 C160 1.446 . S
N159 Co118 2.151 . S
N159 C158 1.330 . S
N159 C163 1.418 . S
C160 H139 0.929 . S
C160 C158 1.446 . S
C160 C161 1.332 . S
C161 H141 0.931 . S
C161 C160 1.332 . S
C161 C162 1.267 . S
C162 H130 0.929 . S
C162 C161 1.267 . S
C162 C163 1.251 . S
C163 H133 0.929 . S
C163 N159 1.418 . S
C163 C162 1.251 . S
C164 H131 0.930 . S
C164 C166 1.406 . S
C164 C169 1.261 . S
C165 H132 0.930 1_655 S
C165 N167 1.325 . S
C165 C168 1.357 . S
C166 H134 0.928 . S
C166 C164 1.406 . S
C166 N167 1.261 . S
N167 Co118 2.214 . S
N167 C165 1.325 . S
N167 C166 1.261 . S
C168 H138 0.931 1_655 S
C168 C165 1.357 . S
C168 C169 1.312 . S
C169 H140 0.930 . S
C169 C164 1.261 . S
C169 C168 1.312 . S
C170 O142 1.214 . S
C170 O150 1.234 . S
C171 H143 0.929 . S
C171 C174 1.391 . S
C171 C176 1.391 . S
C172 H144 0.929 . S
C172 C173 1.390 . S
C172 N175 1.391 . S
C173 H145 0.930 . S
C173 C172 1.390 . S
C173 C174 1.392 . S
C174 H146 0.929 . S
C174 C171 1.391 . S
C174 C173 1.392 . S
N175 Co119 2.257 . S
N175 C172 1.391 . S
N175 C176 1.388 . S
C176 H147 0.930 . S
C176 C171 1.391 . S
C176 N175 1.388 . S
Co177 O179 2.143 . S
Co177 O185 2.074 . S
Co177 O188 2.093 . S
Co177 O201 2.097 . S
Co177 N218 2.151 . S
Co177 N226 2.214 . S
Co178 O179 2.160 . S
Co178 O184 2.058 . S
Co178 O194 2.057 . S
Co178 O209 2.037 . S
Co178 N213 2.145 . S
Co178 N234 2.257 . S
O179 Co177 2.143 . S
O179 Co178 2.160 . S
C180 O181 1.278 . S
C180 O188 1.224 . S
O181 C180 1.278 . S
C182 O183 1.245 . S
C182 O194 1.232 . S
O183 C182 1.245 . S
O184 Co178 2.058 . S
O184 C210 1.269 . S
O185 Co177 2.074 . S
O185 C210 1.257 . S
H186 C211 0.930 . S
H187 C217 0.930 . S
O188 Co177 2.093 . S
O188 C180 1.224 . S
H189 C221 0.929 . S
H190 C223 0.930 . S
H191 C224 0.930 . S
H192 C222 0.929 . S
H193 C225 0.928 . S
O194 Co178 2.057 . S
O194 C182 1.232 . S
H195 C214 0.929 . S
H196 C215 0.929 . S
H197 C227 0.931 . S
H198 C219 0.929 . S
H199 C228 0.930 . S
H200 C220 0.931 . S
O201 Co177 2.097 . S
O201 C229 1.214 . S
H202 C230 0.929 . S
H203 C231 0.929 . S
H204 C232 0.930 . S
H205 C233 0.929 . S
H206 C235 0.930 . S
H207 C212 0.930 . S
H208 C216 0.930 . S
O209 Co178 2.037 . S
O209 C229 1.234 . S
C210 O184 1.269 . S
C210 O185 1.257 . S
C211 H186 0.930 . S
C211 C214 1.388 . S
C211 C216 1.418 . S
C212 H207 0.930 . S
C212 C215 1.404 . S
C212 C216 1.353 . S
N213 Co178 2.145 . S
N213 C214 1.397 . S
N213 C215 1.334 . S
C214 H195 0.929 . S
C214 C211 1.388 . S
C214 N213 1.397 . S
C215 H196 0.929 . S
C215 C212 1.404 . S
C215 N213 1.334 . S
C216 H208 0.930 . S
C216 C211 1.418 . S
C216 C212 1.353 . S
C217 H187 0.930 . S
C217 N218 1.330 . S
C217 C219 1.446 . S
N218 Co177 2.151 . S
N218 C217 1.330 . S
N218 C222 1.418 . S
C219 H198 0.929 . S
C219 C217 1.446 . S
C219 C220 1.332 . S
C220 H200 0.931 . S
C220 C219 1.332 . S
C220 C221 1.267 . S
C221 H189 0.929 . S
C221 C220 1.267 . S
C221 C222 1.251 . S
C222 H192 0.929 . S
C222 N218 1.418 . S
C222 C221 1.251 . S
C223 H190 0.930 . S
C223 C225 1.406 . S
C223 C228 1.261 . S
C224 H191 0.930 . S
C224 N226 1.325 . S
C224 C227 1.357 . S
C225 H193 0.928 . S
C225 C223 1.406 . S
C225 N226 1.261 . S
N226 Co177 2.214 . S
N226 C224 1.325 . S
N226 C225 1.261 . S
C227 H197 0.931 . S
C227 C224 1.357 . S
C227 C228 1.312 . S
C228 H199 0.930 . S
C228 C223 1.261 . S
C228 C227 1.312 . S
C229 O201 1.214 . S
C229 O209 1.234 . S
C230 H202 0.929 . S
C230 C233 1.391 . S
C230 C235 1.391 . S
C231 H203 0.929 . S
C231 C232 1.390 . S
C231 N234 1.391 . S
C232 H204 0.930 . S
C232 C231 1.390 . S
C232 C233 1.392 . S
C233 H205 0.929 . S
C233 C230 1.391 . S
C233 C232 1.392 . S
N234 Co178 2.257 . S
N234 C231 1.391 . S
N234 C235 1.388 . S
C235 H206 0.930 . S
C235 C230 1.391 . S
C235 N234 1.388 . S
Co236 O238 2.143 . S
Co236 O244 2.074 . S
Co236 O247 2.093 1_565 S
Co236 O260 2.097 1_565 S
Co236 N277 2.151 . S
Co236 N285 2.214 . S
Co237 O238 2.160 1_545 S
Co237 O243 2.058 1_545 S
Co237 O253 2.057 1_545 S
Co237 O268 2.037 . S
Co237 N272 2.145 . S
Co237 N293 2.257 . S
O238 Co236 2.143 . S
O238 Co237 2.160 1_565 S
C239 O240 1.278 . S
C239 O247 1.224 . S
O240 C239 1.278 . S
C241 O242 1.245 . S
C241 O253 1.232 . S
O242 C241 1.245 . S
O243 Co237 2.058 1_565 S
O243 C269 1.269 . S
O244 Co236 2.074 . S
O244 C269 1.257 . S
H245 C270 0.930 . S
H246 C276 0.930 . S
O247 Co236 2.093 1_545 S
O247 C239 1.224 . S
H248 C280 0.929 . S
H249 C282 0.930 . S
H250 C283 0.930 1_545 S
H251 C281 0.929 . S
H252 C284 0.928 . S
O253 Co237 2.057 1_565 S
O253 C241 1.232 . S
H254 C273 0.929 . S
H255 C274 0.929 . S
H256 C286 0.931 1_545 S
H257 C278 0.929 . S
H258 C287 0.930 . S
H259 C279 0.931 . S
O260 Co236 2.097 1_545 S
O260 C288 1.214 . S
H261 C289 0.929 . S
H262 C290 0.929 . S
H263 C291 0.930 . S
H264 C292 0.929 . S
H265 C294 0.930 . S
H266 C271 0.930 . S
H267 C275 0.930 . S
O268 Co237 2.037 . S
O268 C288 1.234 . S
C269 O243 1.269 . S
C269 O244 1.257 . S
C270 H245 0.930 . S
C270 C273 1.388 . S
C270 C275 1.418 . S
C271 H266 0.930 . S
C271 C274 1.404 . S
C271 C275 1.353 . S
N272 Co237 2.145 . S
N272 C273 1.397 . S
N272 C274 1.334 . S
C273 H254 0.929 . S
C273 C270 1.388 . S
C273 N272 1.397 . S
C274 H255 0.929 . S
C274 C271 1.404 . S
C274 N272 1.334 . S
C275 H267 0.930 . S
C275 C270 1.418 . S
C275 C271 1.353 . S
C276 H246 0.930 . S
C276 N277 1.330 . S
C276 C278 1.446 . S
N277 Co236 2.151 . S
N277 C276 1.330 . S
N277 C281 1.418 . S
C278 H257 0.929 . S
C278 C276 1.446 . S
C278 C279 1.332 . S
C279 H259 0.931 . S
C279 C278 1.332 . S
C279 C280 1.267 . S
C280 H248 0.929 . S
C280 C279 1.267 . S
C280 C281 1.251 . S
C281 H251 0.929 . S
C281 N277 1.418 . S
C281 C280 1.251 . S
C282 H249 0.930 . S
C282 C284 1.406 . S
C282 C287 1.261 . S
C283 H250 0.930 1_565 S
C283 N285 1.325 . S
C283 C286 1.357 . S
C284 H252 0.928 . S
C284 C282 1.406 . S
C284 N285 1.261 . S
N285 Co236 2.214 . S
N285 C283 1.325 . S
N285 C284 1.261 . S
C286 H256 0.931 1_565 S
C286 C283 1.357 . S
C286 C287 1.312 . S
C287 H258 0.930 . S
C287 C282 1.261 . S
C287 C286 1.312 . S
C288 O260 1.214 . S
C288 O268 1.234 . S
C289 H261 0.929 . S
C289 C292 1.391 . S
C289 C294 1.391 . S
C290 H262 0.929 . S
C290 C291 1.390 . S
C290 N293 1.391 . S
C291 H263 0.930 . S
C291 C290 1.390 . S
C291 C292 1.392 . S
C292 H264 0.929 . S
C292 C289 1.391 . S
C292 C291 1.392 . S
N293 Co237 2.257 . S
N293 C290 1.391 . S
N293 C294 1.388 . S
C294 H265 0.930 . S
C294 C289 1.391 . S
C294 N293 1.388 . S
Co295 O297 2.143 . S
Co295 O303 2.074 . S
Co295 O306 2.093 1_455 S
Co295 O319 2.097 1_455 S
Co295 N336 2.151 . S
Co295 N344 2.214 . S
Co296 O297 2.160 1_655 S
Co296 O302 2.058 1_655 S
Co296 O312 2.057 1_655 S
Co296 O327 2.037 . S
Co296 N331 2.145 . S
Co296 N352 2.257 . S
O297 Co295 2.143 . S
O297 Co296 2.160 1_455 S
C298 O299 1.278 . S
C298 O306 1.224 . S
O299 C298 1.278 . S
C300 O301 1.245 . S
C300 O312 1.232 . S
O301 C300 1.245 . S
O302 Co296 2.058 1_455 S
O302 C328 1.269 . S
O303 Co295 2.074 . S
O303 C328 1.257 . S
H304 C329 0.930 . S
H305 C335 0.930 . S
O306 Co295 2.093 1_655 S
O306 C298 1.224 . S
H307 C339 0.929 . S
H308 C341 0.930 . S
H309 C342 0.930 1_655 S
H310 C340 0.929 . S
H311 C343 0.928 . S
O312 Co296 2.057 1_455 S
O312 C300 1.232 . S
H313 C332 0.929 . S
H314 C333 0.929 . S
H315 C345 0.931 1_655 S
H316 C337 0.929 . S
H317 C346 0.930 . S
H318 C338 0.931 . S
O319 Co295 2.097 1_655 S
O319 C347 1.214 . S
H320 C348 0.929 . S
H321 C349 0.929 . S
H322 C350 0.930 . S
H323 C351 0.929 . S
H324 C353 0.930 . S
H325 C330 0.930 . S
H326 C334 0.930 . S
O327 Co296 2.037 . S
O327 C347 1.234 . S
C328 O302 1.269 . S
C328 O303 1.257 . S
C329 H304 0.930 . S
C329 C332 1.388 . S
C329 C334 1.418 . S
C330 H325 0.930 . S
C330 C333 1.404 . S
C330 C334 1.353 . S
N331 Co296 2.145 . S
N331 C332 1.397 . S
N331 C333 1.334 . S
C332 H313 0.929 . S
C332 C329 1.388 . S
C332 N331 1.397 . S
C333 H314 0.929 . S
C333 C330 1.404 . S
C333 N331 1.334 . S
C334 H326 0.930 . S
C334 C329 1.418 . S
C334 C330 1.353 . S
C335 H305 0.930 . S
C335 N336 1.330 . S
C335 C337 1.446 . S
N336 Co295 2.151 . S
N336 C335 1.330 . S
N336 C340 1.418 . S
C337 H316 0.929 . S
C337 C335 1.446 . S
C337 C338 1.332 . S
C338 H318 0.931 . S
C338 C337 1.332 . S
C338 C339 1.267 . S
C339 H307 0.929 . S
C339 C338 1.267 . S
C339 C340 1.251 . S
C340 H310 0.929 . S
C340 N336 1.418 . S
C340 C339 1.251 . S
C341 H308 0.930 . S
C341 C343 1.406 . S
C341 C346 1.261 . S
C342 H309 0.930 1_455 S
C342 N344 1.325 . S
C342 C345 1.357 . S
C343 H311 0.928 . S
C343 C341 1.406 . S
C343 N344 1.261 . S
N344 Co295 2.214 . S
N344 C342 1.325 . S
N344 C343 1.261 . S
C345 H315 0.931 1_455 S
C345 C342 1.357 . S
C345 C346 1.312 . S
C346 H317 0.930 . S
C346 C341 1.261 . S
C346 C345 1.312 . S
C347 O319 1.214 . S
C347 O327 1.234 . S
C348 H320 0.929 . S
C348 C351 1.391 . S
C348 C353 1.391 . S
C349 H321 0.929 . S
C349 C350 1.390 . S
C349 N352 1.391 . S
C350 H322 0.930 . S
C350 C349 1.390 . S
C350 C351 1.392 . S
C351 H323 0.929 . S
C351 C348 1.391 . S
C351 C350 1.392 . S
N352 Co296 2.257 . S
N352 C349 1.391 . S
N352 C353 1.388 . S
C353 H324 0.930 . S
C353 C348 1.391 . S
C353 N352 1.388 . S
Co354 O356 2.143 . S
Co354 O362 2.074 . S
Co354 O365 2.093 . S
Co354 O378 2.097 . S
Co354 N395 2.151 . S
Co354 N403 2.214 . S
Co355 O356 2.160 . S
Co355 O361 2.058 . S
Co355 O371 2.057 . S
Co355 O386 2.037 . S
Co355 N390 2.145 . S
Co355 N411 2.257 . S
O356 Co354 2.143 . S
O356 Co355 2.160 . S
C357 O358 1.278 . S
C357 O365 1.224 . S
O358 C357 1.278 . S
C359 O360 1.245 . S
C359 O371 1.232 . S
O360 C359 1.245 . S
O361 Co355 2.058 . S
O361 C387 1.269 . S
O362 Co354 2.074 . S
O362 C387 1.257 . S
H363 C388 0.930 . S
H364 C394 0.930 . S
O365 Co354 2.093 . S
O365 C357 1.224 . S
H366 C398 0.929 . S
H367 C400 0.930 . S
H368 C401 0.930 . S
H369 C399 0.929 . S
H370 C402 0.928 . S
O371 Co355 2.057 . S
O371 C359 1.232 . S
H372 C391 0.929 . S
H373 C392 0.929 . S
H374 C404 0.931 . S
H375 C396 0.929 . S
H376 C405 0.930 . S
H377 C397 0.931 . S
O378 Co354 2.097 . S
O378 C406 1.214 . S
H379 C407 0.929 . S
H380 C408 0.929 . S
H381 C409 0.930 . S
H382 C410 0.929 . S
H383 C412 0.930 . S
H384 C389 0.930 . S
H385 C393 0.930 . S
O386 Co355 2.037 . S
O386 C406 1.234 . S
C387 O361 1.269 . S
C387 O362 1.257 . S
C388 H363 0.930 . S
C388 C391 1.388 . S
C388 C393 1.418 . S
C389 H384 0.930 . S
C389 C392 1.404 . S
C389 C393 1.353 . S
N390 Co355 2.145 . S
N390 C391 1.397 . S
N390 C392 1.334 . S
C391 H372 0.929 . S
C391 C388 1.388 . S
C391 N390 1.397 . S
C392 H373 0.929 . S
C392 C389 1.404 . S
C392 N390 1.334 . S
C393 H385 0.930 . S
C393 C388 1.418 . S
C393 C389 1.353 . S
C394 H364 0.930 . S
C394 N395 1.330 . S
C394 C396 1.446 . S
N395 Co354 2.151 . S
N395 C394 1.330 . S
N395 C399 1.418 . S
C396 H375 0.929 . S
C396 C394 1.446 . S
C396 C397 1.332 . S
C397 H377 0.931 . S
C397 C396 1.332 . S
C397 C398 1.267 . S
C398 H366 0.929 . S
C398 C397 1.267 . S
C398 C399 1.251 . S
C399 H369 0.929 . S
C399 N395 1.418 . S
C399 C398 1.251 . S
C400 H367 0.930 . S
C400 C402 1.406 . S
C400 C405 1.261 . S
C401 H368 0.930 . S
C401 N403 1.325 . S
C401 C404 1.357 . S
C402 H370 0.928 . S
C402 C400 1.406 . S
C402 N403 1.261 . S
N403 Co354 2.214 . S
N403 C401 1.325 . S
N403 C402 1.261 . S
C404 H374 0.931 . S
C404 C401 1.357 . S
C404 C405 1.312 . S
C405 H376 0.930 . S
C405 C400 1.261 . S
C405 C404 1.312 . S
C406 O378 1.214 . S
C406 O386 1.234 . S
C407 H379 0.929 . S
C407 C410 1.391 . S
C407 C412 1.391 . S
C408 H380 0.929 . S
C408 C409 1.390 . S
C408 N411 1.391 . S
C409 H381 0.930 . S
C409 C408 1.390 . S
C409 C410 1.392 . S
C410 H382 0.929 . S
C410 C407 1.391 . S
C410 C409 1.392 . S
N411 Co355 2.257 . S
N411 C408 1.391 . S
N411 C412 1.388 . S
C412 H383 0.930 . S
C412 C407 1.391 . S
C412 N411 1.388 . S
Co413 O415 2.143 . S
Co413 O421 2.074 . S
Co413 O424 2.093 . S
Co413 O437 2.097 . S
Co413 N454 2.151 . S
Co413 N462 2.214 . S
Co414 O415 2.160 . S
Co414 O420 2.058 . S
Co414 O430 2.057 . S
Co414 O445 2.037 . S
Co414 N449 2.145 . S
Co414 N470 2.257 . S
O415 Co413 2.143 . S
O415 Co414 2.160 . S
C416 O417 1.278 . S
C416 O424 1.224 . S
O417 C416 1.278 . S
C418 O419 1.245 . S
C418 O430 1.232 . S
O419 C418 1.245 . S
O420 Co414 2.058 . S
O420 C446 1.269 . S
O421 Co413 2.074 . S
O421 C446 1.257 . S
H422 C447 0.930 . S
H423 C453 0.930 . S
O424 Co413 2.093 . S
O424 C416 1.224 . S
H425 C457 0.929 . S
H426 C459 0.930 . S
H427 C460 0.930 . S
H428 C458 0.929 . S
H429 C461 0.928 . S
O430 Co414 2.057 . S
O430 C418 1.232 . S
H431 C450 0.929 . S
H432 C451 0.929 . S
H433 C463 0.931 . S
H434 C455 0.929 . S
H435 C464 0.930 . S
H436 C456 0.931 . S
O437 Co413 2.097 . S
O437 C465 1.214 . S
H438 C466 0.929 . S
H439 C467 0.929 . S
H440 C468 0.930 . S
H441 C469 0.929 . S
H442 C471 0.930 . S
H443 C448 0.930 . S
H444 C452 0.930 . S
O445 Co414 2.037 . S
O445 C465 1.234 . S
C446 O420 1.269 . S
C446 O421 1.257 . S
C447 H422 0.930 . S
C447 C450 1.388 . S
C447 C452 1.418 . S
C448 H443 0.930 . S
C448 C451 1.404 . S
C448 C452 1.353 . S
N449 Co414 2.145 . S
N449 C450 1.397 . S
N449 C451 1.334 . S
C450 H431 0.929 . S
C450 C447 1.388 . S
C450 N449 1.397 . S
C451 H432 0.929 . S
C451 C448 1.404 . S
C451 N449 1.334 . S
C452 H444 0.930 . S
C452 C447 1.418 . S
C452 C448 1.353 . S
C453 H423 0.930 . S
C453 N454 1.330 . S
C453 C455 1.446 . S
N454 Co413 2.151 . S
N454 C453 1.330 . S
N454 C458 1.418 . S
C455 H434 0.929 . S
C455 C453 1.446 . S
C455 C456 1.332 . S
C456 H436 0.931 . S
C456 C455 1.332 . S
C456 C457 1.267 . S
C457 H425 0.929 . S
C457 C456 1.267 . S
C457 C458 1.251 . S
C458 H428 0.929 . S
C458 N454 1.418 . S
C458 C457 1.251 . S
C459 H426 0.930 . S
C459 C461 1.406 . S
C459 C464 1.261 . S
C460 H427 0.930 . S
C460 N462 1.325 . S
C460 C463 1.357 . S
C461 H429 0.928 . S
C461 C459 1.406 . S
C461 N462 1.261 . S
N462 Co413 2.214 . S
N462 C460 1.325 . S
N462 C461 1.261 . S
C463 H433 0.931 . S
C463 C460 1.357 . S
C463 C464 1.312 . S
C464 H435 0.930 . S
C464 C459 1.261 . S
C464 C463 1.312 . S
C465 O437 1.214 . S
C465 O445 1.234 . S
C466 H438 0.929 . S
C466 C469 1.391 . S
C466 C471 1.391 . S
C467 H439 0.929 . S
C467 C468 1.390 . S
C467 N470 1.391 . S
C468 H440 0.930 . S
C468 C467 1.390 . S
C468 C469 1.392 . S
C469 H441 0.929 . S
C469 C466 1.391 . S
C469 C468 1.392 . S
N470 Co414 2.257 . S
N470 C467 1.391 . S
N470 C471 1.388 . S
C471 H442 0.930 . S
C471 C466 1.391 . S
C471 N470 1.388 . S
Co472 O474 2.143 . S
Co472 O480 2.074 . S
Co472 O483 2.093 . S
Co472 O496 2.097 . S
Co472 N513 2.151 . S
Co472 N521 2.214 . S
Co473 O474 2.160 . S
Co473 O479 2.058 . S
Co473 O489 2.057 . S
Co473 O504 2.037 . S
Co473 N508 2.145 . S
Co473 N529 2.257 . S
O474 Co472 2.143 . S
O474 Co473 2.160 . S
C475 O476 1.278 . S
C475 O483 1.224 . S
O476 C475 1.278 . S
C477 O478 1.245 . S
C477 O489 1.232 . S
O478 C477 1.245 . S
O479 Co473 2.058 . S
O479 C505 1.269 . S
O480 Co472 2.074 . S
O480 C505 1.257 . S
H481 C506 0.930 . S
H482 C512 0.930 . S
O483 Co472 2.093 . S
O483 C475 1.224 . S
H484 C516 0.929 . S
H485 C518 0.930 . S
H486 C519 0.930 . S
H487 C517 0.929 . S
H488 C520 0.928 . S
O489 Co473 2.057 . S
O489 C477 1.232 . S
H490 C509 0.929 . S
H491 C510 0.929 . S
H492 C522 0.931 . S
H493 C514 0.929 . S
H494 C523 0.930 . S
H495 C515 0.931 . S
O496 Co472 2.097 . S
O496 C524 1.214 . S
H497 C525 0.929 . S
H498 C526 0.929 . S
H499 C527 0.930 . S
H500 C528 0.929 . S
H501 C530 0.930 . S
H502 C507 0.930 . S
H503 C511 0.930 . S
O504 Co473 2.037 . S
O504 C524 1.234 . S
C505 O479 1.269 . S
C505 O480 1.257 . S
C506 H481 0.930 . S
C506 C509 1.388 . S
C506 C511 1.418 . S
C507 H502 0.930 . S
C507 C510 1.404 . S
C507 C511 1.353 . S
N508 Co473 2.145 . S
N508 C509 1.397 . S
N508 C510 1.334 . S
C509 H490 0.929 . S
C509 C506 1.388 . S
C509 N508 1.397 . S
C510 H491 0.929 . S
C510 C507 1.404 . S
C510 N508 1.334 . S
C511 H503 0.930 . S
C511 C506 1.418 . S
C511 C507 1.353 . S
C512 H482 0.930 . S
C512 N513 1.330 . S
C512 C514 1.446 . S
N513 Co472 2.151 . S
N513 C512 1.330 . S
N513 C517 1.418 . S
C514 H493 0.929 . S
C514 C512 1.446 . S
C514 C515 1.332 . S
C515 H495 0.931 . S
C515 C514 1.332 . S
C515 C516 1.267 . S
C516 H484 0.929 . S
C516 C515 1.267 . S
C516 C517 1.251 . S
C517 H487 0.929 . S
C517 N513 1.418 . S
C517 C516 1.251 . S
C518 H485 0.930 . S
C518 C520 1.406 . S
C518 C523 1.261 . S
C519 H486 0.930 . S
C519 N521 1.325 . S
C519 C522 1.357 . S
C520 H488 0.928 . S
C520 C518 1.406 . S
C520 N521 1.261 . S
N521 Co472 2.214 . S
N521 C519 1.325 . S
N521 C520 1.261 . S
C522 H492 0.931 . S
C522 C519 1.357 . S
C522 C523 1.312 . S
C523 H494 0.930 . S
C523 C518 1.261 . S
C523 C522 1.312 . S
C524 O496 1.214 . S
C524 O504 1.234 . S
C525 H497 0.929 . S
C525 C528 1.391 . S
C525 C530 1.391 . S
C526 H498 0.929 . S
C526 C527 1.390 . S
C526 N529 1.391 . S
C527 H499 0.930 . S
C527 C526 1.390 . S
C527 C528 1.392 . S
C528 H500 0.929 . S
C528 C525 1.391 . S
C528 C527 1.392 . S
N529 Co473 2.257 . S
N529 C526 1.391 . S
N529 C530 1.388 . S
C530 H501 0.930 . S
C530 C525 1.391 . S
C530 N529 1.388 . S
Co531 O533 2.143 . S
Co531 O539 2.074 . S
Co531 O542 2.093 . S
Co531 O555 2.097 . S
Co531 N572 2.151 . S
Co531 N580 2.214 . S
Co532 O533 2.160 . S
Co532 O538 2.058 . S
Co532 O548 2.057 . S
Co532 O563 2.037 . S
Co532 N567 2.145 . S
Co532 N588 2.257 . S
O533 Co531 2.143 . S
O533 Co532 2.160 . S
C534 O535 1.278 . S
C534 O542 1.224 . S
O535 C534 1.278 . S
C536 O537 1.245 . S
C536 O548 1.232 . S
O537 C536 1.245 . S
O538 Co532 2.058 . S
O538 C564 1.269 . S
O539 Co531 2.074 . S
O539 C564 1.257 . S
H540 C565 0.930 . S
H541 C571 0.930 . S
O542 Co531 2.093 . S
O542 C534 1.224 . S
H543 C575 0.929 . S
H544 C577 0.930 . S
H545 C578 0.930 . S
H546 C576 0.929 . S
H547 C579 0.928 . S
O548 Co532 2.057 . S
O548 C536 1.232 . S
H549 C568 0.929 . S
H550 C569 0.929 . S
H551 C581 0.931 . S
H552 C573 0.929 . S
H553 C582 0.930 . S
H554 C574 0.931 . S
O555 Co531 2.097 . S
O555 C583 1.214 . S
H556 C584 0.929 . S
H557 C585 0.929 . S
H558 C586 0.930 . S
H559 C587 0.929 . S
H560 C589 0.930 . S
H561 C566 0.930 . S
H562 C570 0.930 . S
O563 Co532 2.037 . S
O563 C583 1.234 . S
C564 O538 1.269 . S
C564 O539 1.257 . S
C565 H540 0.930 . S
C565 C568 1.388 . S
C565 C570 1.418 . S
C566 H561 0.930 . S
C566 C569 1.404 . S
C566 C570 1.353 . S
N567 Co532 2.145 . S
N567 C568 1.397 . S
N567 C569 1.334 . S
C568 H549 0.929 . S
C568 C565 1.388 . S
C568 N567 1.397 . S
C569 H550 0.929 . S
C569 C566 1.404 . S
C569 N567 1.334 . S
C570 H562 0.930 . S
C570 C565 1.418 . S
C570 C566 1.353 . S
C571 H541 0.930 . S
C571 N572 1.330 . S
C571 C573 1.446 . S
N572 Co531 2.151 . S
N572 C571 1.330 . S
N572 C576 1.418 . S
C573 H552 0.929 . S
C573 C571 1.446 . S
C573 C574 1.332 . S
C574 H554 0.931 . S
C574 C573 1.332 . S
C574 C575 1.267 . S
C575 H543 0.929 . S
C575 C574 1.267 . S
C575 C576 1.251 . S
C576 H546 0.929 . S
C576 N572 1.418 . S
C576 C575 1.251 . S
C577 H544 0.930 . S
C577 C579 1.406 . S
C577 C582 1.261 . S
C578 H545 0.930 . S
C578 N580 1.325 . S
C578 C581 1.357 . S
C579 H547 0.928 . S
C579 C577 1.406 . S
C579 N580 1.261 . S
N580 Co531 2.214 . S
N580 C578 1.325 . S
N580 C579 1.261 . S
C581 H551 0.931 . S
C581 C578 1.357 . S
C581 C582 1.312 . S
C582 H553 0.930 . S
C582 C577 1.261 . S
C582 C581 1.312 . S
C583 O555 1.214 . S
C583 O563 1.234 . S
C584 H556 0.929 . S
C584 C587 1.391 . S
C584 C589 1.391 . S
C585 H557 0.929 . S
C585 C586 1.390 . S
C585 N588 1.391 . S
C586 H558 0.930 . S
C586 C585 1.390 . S
C586 C587 1.392 . S
C587 H559 0.929 . S
C587 C584 1.391 . S
C587 C586 1.392 . S
N588 Co532 2.257 . S
N588 C585 1.391 . S
N588 C589 1.388 . S
C589 H560 0.930 . S
C589 C584 1.391 . S
C589 N588 1.388 . S
Co590 O592 2.143 . S
Co590 O598 2.074 . S
Co590 O601 2.093 . S
Co590 O614 2.097 . S
Co590 N631 2.151 . S
Co590 N639 2.214 . S
Co591 O592 2.160 . S
Co591 O597 2.058 . S
Co591 O607 2.057 . S
Co591 O622 2.037 . S
Co591 N626 2.145 . S
Co591 N647 2.257 . S
O592 Co590 2.143 . S
O592 Co591 2.160 . S
C593 O594 1.278 . S
C593 O601 1.224 . S
O594 C593 1.278 . S
C595 O596 1.245 . S
C595 O607 1.232 . S
O596 C595 1.245 . S
O597 Co591 2.058 . S
O597 C623 1.269 . S
O598 Co590 2.074 . S
O598 C623 1.257 . S
H599 C624 0.930 . S
H600 C630 0.930 . S
O601 Co590 2.093 . S
O601 C593 1.224 . S
H602 C634 0.929 . S
H603 C636 0.930 . S
H604 C637 0.930 . S
H605 C635 0.929 . S
H606 C638 0.928 . S
O607 Co591 2.057 . S
O607 C595 1.232 . S
H608 C627 0.929 . S
H609 C628 0.929 . S
H610 C640 0.931 . S
H611 C632 0.929 . S
H612 C641 0.930 . S
H613 C633 0.931 . S
O614 Co590 2.097 . S
O614 C642 1.214 . S
H615 C643 0.929 . S
H616 C644 0.929 . S
H617 C645 0.930 . S
H618 C646 0.929 . S
H619 C648 0.930 . S
H620 C625 0.930 . S
H621 C629 0.930 . S
O622 Co591 2.037 . S
O622 C642 1.234 . S
C623 O597 1.269 . S
C623 O598 1.257 . S
C624 H599 0.930 . S
C624 C627 1.388 . S
C624 C629 1.418 . S
C625 H620 0.930 . S
C625 C628 1.404 . S
C625 C629 1.353 . S
N626 Co591 2.145 . S
N626 C627 1.397 . S
N626 C628 1.334 . S
C627 H608 0.929 . S
C627 C624 1.388 . S
C627 N626 1.397 . S
C628 H609 0.929 . S
C628 C625 1.404 . S
C628 N626 1.334 . S
C629 H621 0.930 . S
C629 C624 1.418 . S
C629 C625 1.353 . S
C630 H600 0.930 . S
C630 N631 1.330 . S
C630 C632 1.446 . S
N631 Co590 2.151 . S
N631 C630 1.330 . S
N631 C635 1.418 . S
C632 H611 0.929 . S
C632 C630 1.446 . S
C632 C633 1.332 . S
C633 H613 0.931 . S
C633 C632 1.332 . S
C633 C634 1.267 . S
C634 H602 0.929 . S
C634 C633 1.267 . S
C634 C635 1.251 . S
C635 H605 0.929 . S
C635 N631 1.418 . S
C635 C634 1.251 . S
C636 H603 0.930 . S
C636 C638 1.406 . S
C636 C641 1.261 . S
C637 H604 0.930 . S
C637 N639 1.325 . S
C637 C640 1.357 . S
C638 H606 0.928 . S
C638 C636 1.406 . S
C638 N639 1.261 . S
N639 Co590 2.214 . S
N639 C637 1.325 . S
N639 C638 1.261 . S
C640 H610 0.931 . S
C640 C637 1.357 . S
C640 C641 1.312 . S
C641 H612 0.930 . S
C641 C636 1.261 . S
C641 C640 1.312 . S
C642 O614 1.214 . S
C642 O622 1.234 . S
C643 H615 0.929 . S
C643 C646 1.391 . S
C643 C648 1.391 . S
C644 H616 0.929 . S
C644 C645 1.390 . S
C644 N647 1.391 . S
C645 H617 0.930 . S
C645 C644 1.390 . S
C645 C646 1.392 . S
C646 H618 0.929 . S
C646 C643 1.391 . S
C646 C645 1.392 . S
N647 Co591 2.257 . S
N647 C644 1.391 . S
N647 C648 1.388 . S
C648 H619 0.930 . S
C648 C643 1.391 . S
C648 N647 1.388 . S
Co649 O651 2.143 . S
Co649 O657 2.074 . S
Co649 O660 2.093 . S
Co649 O673 2.097 . S
Co649 N690 2.151 . S
Co649 N698 2.214 . S
Co650 O651 2.160 . S
Co650 O656 2.058 . S
Co650 O666 2.057 . S
Co650 O681 2.037 . S
Co650 N685 2.145 . S
Co650 N706 2.257 . S
O651 Co649 2.143 . S
O651 Co650 2.160 . S
C652 O653 1.278 . S
C652 O660 1.224 . S
O653 C652 1.278 . S
C654 O655 1.245 . S
C654 O666 1.232 . S
O655 C654 1.245 . S
O656 Co650 2.058 . S
O656 C682 1.269 . S
O657 Co649 2.074 . S
O657 C682 1.257 . S
H658 C683 0.930 . S
H659 C689 0.930 . S
O660 Co649 2.093 . S
O660 C652 1.224 . S
H661 C693 0.929 . S
H662 C695 0.930 . S
H663 C696 0.930 . S
H664 C694 0.929 . S
H665 C697 0.928 . S
O666 Co650 2.057 . S
O666 C654 1.232 . S
H667 C686 0.929 . S
H668 C687 0.929 . S
H669 C699 0.931 . S
H670 C691 0.929 . S
H671 C700 0.930 . S
H672 C692 0.931 . S
O673 Co649 2.097 . S
O673 C701 1.214 . S
H674 C702 0.929 . S
H675 C703 0.929 . S
H676 C704 0.930 . S
H677 C705 0.929 . S
H678 C707 0.930 . S
H679 C684 0.930 . S
H680 C688 0.930 . S
O681 Co650 2.037 . S
O681 C701 1.234 . S
C682 O656 1.269 . S
C682 O657 1.257 . S
C683 H658 0.930 . S
C683 C686 1.388 . S
C683 C688 1.418 . S
C684 H679 0.930 . S
C684 C687 1.404 . S
C684 C688 1.353 . S
N685 Co650 2.145 . S
N685 C686 1.397 . S
N685 C687 1.334 . S
C686 H667 0.929 . S
C686 C683 1.388 . S
C686 N685 1.397 . S
C687 H668 0.929 . S
C687 C684 1.404 . S
C687 N685 1.334 . S
C688 H680 0.930 . S
C688 C683 1.418 . S
C688 C684 1.353 . S
C689 H659 0.930 . S
C689 N690 1.330 . S
C689 C691 1.446 . S
N690 Co649 2.151 . S
N690 C689 1.330 . S
N690 C694 1.418 . S
C691 H670 0.929 . S
C691 C689 1.446 . S
C691 C692 1.332 . S
C692 H672 0.931 . S
C692 C691 1.332 . S
C692 C693 1.267 . S
C693 H661 0.929 . S
C693 C692 1.267 . S
C693 C694 1.251 . S
C694 H664 0.929 . S
C694 N690 1.418 . S
C694 C693 1.251 . S
C695 H662 0.930 . S
C695 C697 1.406 . S
C695 C700 1.261 . S
C696 H663 0.930 . S
C696 N698 1.325 . S
C696 C699 1.357 . S
C697 H665 0.928 . S
C697 C695 1.406 . S
C697 N698 1.261 . S
N698 Co649 2.214 . S
N698 C696 1.325 . S
N698 C697 1.261 . S
C699 H669 0.931 . S
C699 C696 1.357 . S
C699 C700 1.312 . S
C700 H671 0.930 . S
C700 C695 1.261 . S
C700 C699 1.312 . S
C701 O673 1.214 . S
C701 O681 1.234 . S
C702 H674 0.929 . S
C702 C705 1.391 . S
C702 C707 1.391 . S
C703 H675 0.929 . S
C703 C704 1.390 . S
C703 N706 1.391 . S
C704 H676 0.930 . S
C704 C703 1.390 . S
C704 C705 1.392 . S
C705 H677 0.929 . S
C705 C702 1.391 . S
C705 C704 1.392 . S
N706 Co650 2.257 . S
N706 C703 1.391 . S
N706 C707 1.388 . S
C707 H678 0.930 . S
C707 C702 1.391 . S
C707 N706 1.388 . S
Co708 O710 2.143 . S
Co708 O716 2.074 . S
Co708 O719 2.093 . S
Co708 O732 2.097 . S
Co708 N749 2.151 . S
Co708 N757 2.214 . S
Co709 O710 2.160 . S
Co709 O715 2.058 . S
Co709 O725 2.057 . S
Co709 O740 2.037 . S
Co709 N744 2.145 . S
Co709 N765 2.257 . S
O710 Co708 2.143 . S
O710 Co709 2.160 . S
C711 O712 1.278 . S
C711 O719 1.224 . S
O712 C711 1.278 . S
C713 O714 1.245 . S
C713 O725 1.232 . S
O714 C713 1.245 . S
O715 Co709 2.058 . S
O715 C741 1.269 . S
O716 Co708 2.074 . S
O716 C741 1.257 . S
H717 C742 0.930 . S
H718 C748 0.930 . S
O719 Co708 2.093 . S
O719 C711 1.224 . S
H720 C752 0.929 . S
H721 C754 0.930 . S
H722 C755 0.930 . S
H723 C753 0.929 . S
H724 C756 0.928 . S
O725 Co709 2.057 . S
O725 C713 1.232 . S
H726 C745 0.929 . S
H727 C746 0.929 . S
H728 C758 0.931 . S
H729 C750 0.929 . S
H730 C759 0.930 . S
H731 C751 0.931 . S
O732 Co708 2.097 . S
O732 C760 1.214 . S
H733 C761 0.929 . S
H734 C762 0.929 . S
H735 C763 0.930 . S
H736 C764 0.929 . S
H737 C766 0.930 . S
H738 C743 0.930 . S
H739 C747 0.930 . S
O740 Co709 2.037 . S
O740 C760 1.234 . S
C741 O715 1.269 . S
C741 O716 1.257 . S
C742 H717 0.930 . S
C742 C745 1.388 . S
C742 C747 1.418 . S
C743 H738 0.930 . S
C743 C746 1.404 . S
C743 C747 1.353 . S
N744 Co709 2.145 . S
N744 C745 1.397 . S
N744 C746 1.334 . S
C745 H726 0.929 . S
C745 C742 1.388 . S
C745 N744 1.397 . S
C746 H727 0.929 . S
C746 C743 1.404 . S
C746 N744 1.334 . S
C747 H739 0.930 . S
C747 C742 1.418 . S
C747 C743 1.353 . S
C748 H718 0.930 . S
C748 N749 1.330 . S
C748 C750 1.446 . S
N749 Co708 2.151 . S
N749 C748 1.330 . S
N749 C753 1.418 . S
C750 H729 0.929 . S
C750 C748 1.446 . S
C750 C751 1.332 . S
C751 H731 0.931 . S
C751 C750 1.332 . S
C751 C752 1.267 . S
C752 H720 0.929 . S
C752 C751 1.267 . S
C752 C753 1.251 . S
C753 H723 0.929 . S
C753 N749 1.418 . S
C753 C752 1.251 . S
C754 H721 0.930 . S
C754 C756 1.406 . S
C754 C759 1.261 . S
C755 H722 0.930 . S
C755 N757 1.325 . S
C755 C758 1.357 . S
C756 H724 0.928 . S
C756 C754 1.406 . S
C756 N757 1.261 . S
N757 Co708 2.214 . S
N757 C755 1.325 . S
N757 C756 1.261 . S
C758 H728 0.931 . S
C758 C755 1.357 . S
C758 C759 1.312 . S
C759 H730 0.930 . S
C759 C754 1.261 . S
C759 C758 1.312 . S
C760 O732 1.214 . S
C760 O740 1.234 . S
C761 H733 0.929 . S
C761 C764 1.391 . S
C761 C766 1.391 . S
C762 H734 0.929 . S
C762 C763 1.390 . S
C762 N765 1.391 . S
C763 H735 0.930 . S
C763 C762 1.390 . S
C763 C764 1.392 . S
C764 H736 0.929 . S
C764 C761 1.391 . S
C764 C763 1.392 . S
N765 Co709 2.257 . S
N765 C762 1.391 . S
N765 C766 1.388 . S
C766 H737 0.930 . S
C766 C761 1.391 . S
C766 N765 1.388 . S
Co767 O769 2.143 . S
Co767 O775 2.074 . S
Co767 O778 2.093 . S
Co767 O791 2.097 . S
Co767 N808 2.151 . S
Co767 N816 2.214 . S
Co768 O769 2.160 . S
Co768 O774 2.058 . S
Co768 O784 2.057 . S
Co768 O799 2.037 . S
Co768 N803 2.145 . S
Co768 N824 2.257 . S
O769 Co767 2.143 . S
O769 Co768 2.160 . S
C770 O771 1.278 . S
C770 O778 1.224 . S
O771 C770 1.278 . S
C772 O773 1.245 . S
C772 O784 1.232 . S
O773 C772 1.245 . S
O774 Co768 2.058 . S
O774 C800 1.269 . S
O775 Co767 2.074 . S
O775 C800 1.257 . S
H776 C801 0.930 . S
H777 C807 0.930 . S
O778 Co767 2.093 . S
O778 C770 1.224 . S
H779 C811 0.929 . S
H780 C813 0.930 . S
H781 C814 0.930 . S
H782 C812 0.929 . S
H783 C815 0.928 . S
O784 Co768 2.057 . S
O784 C772 1.232 . S
H785 C804 0.929 . S
H786 C805 0.929 . S
H787 C817 0.931 . S
H788 C809 0.929 . S
H789 C818 0.930 . S
H790 C810 0.931 . S
O791 Co767 2.097 . S
O791 C819 1.214 . S
H792 C820 0.929 . S
H793 C821 0.929 . S
H794 C822 0.930 . S
H795 C823 0.929 . S
H796 C825 0.930 . S
H797 C802 0.930 . S
H798 C806 0.930 . S
O799 Co768 2.037 . S
O799 C819 1.234 . S
C800 O774 1.269 . S
C800 O775 1.257 . S
C801 H776 0.930 . S
C801 C804 1.388 . S
C801 C806 1.418 . S
C802 H797 0.930 . S
C802 C805 1.404 . S
C802 C806 1.353 . S
N803 Co768 2.145 . S
N803 C804 1.397 . S
N803 C805 1.334 . S
C804 H785 0.929 . S
C804 C801 1.388 . S
C804 N803 1.397 . S
C805 H786 0.929 . S
C805 C802 1.404 . S
C805 N803 1.334 . S
C806 H798 0.930 . S
C806 C801 1.418 . S
C806 C802 1.353 . S
C807 H777 0.930 . S
C807 N808 1.330 . S
C807 C809 1.446 . S
N808 Co767 2.151 . S
N808 C807 1.330 . S
N808 C812 1.418 . S
C809 H788 0.929 . S
C809 C807 1.446 . S
C809 C810 1.332 . S
C810 H790 0.931 . S
C810 C809 1.332 . S
C810 C811 1.267 . S
C811 H779 0.929 . S
C811 C810 1.267 . S
C811 C812 1.251 . S
C812 H782 0.929 . S
C812 N808 1.418 . S
C812 C811 1.251 . S
C813 H780 0.930 . S
C813 C815 1.406 . S
C813 C818 1.261 . S
C814 H781 0.930 . S
C814 N816 1.325 . S
C814 C817 1.357 . S
C815 H783 0.928 . S
C815 C813 1.406 . S
C815 N816 1.261 . S
N816 Co767 2.214 . S
N816 C814 1.325 . S
N816 C815 1.261 . S
C817 H787 0.931 . S
C817 C814 1.357 . S
C817 C818 1.312 . S
C818 H789 0.930 . S
C818 C813 1.261 . S
C818 C817 1.312 . S
C819 O791 1.214 . S
C819 O799 1.234 . S
C820 H792 0.929 . S
C820 C823 1.391 . S
C820 C825 1.391 . S
C821 H793 0.929 . S
C821 C822 1.390 . S
C821 N824 1.391 . S
C822 H794 0.930 . S
C822 C821 1.390 . S
C822 C823 1.392 . S
C823 H795 0.929 . S
C823 C820 1.391 . S
C823 C822 1.392 . S
N824 Co768 2.257 . S
N824 C821 1.391 . S
N824 C825 1.388 . S
C825 H796 0.930 . S
C825 C820 1.391 . S
C825 N824 1.388 . S
Co826 O828 2.143 . S
Co826 O834 2.074 . S
Co826 O837 2.093 . S
Co826 O850 2.097 . S
Co826 N867 2.151 . S
Co826 N875 2.214 . S
Co827 O828 2.160 . S
Co827 O833 2.058 . S
Co827 O843 2.057 . S
Co827 O858 2.037 . S
Co827 N862 2.145 . S
Co827 N883 2.257 . S
O828 Co826 2.143 . S
O828 Co827 2.160 . S
C829 O830 1.278 . S
C829 O837 1.224 . S
O830 C829 1.278 . S
C831 O832 1.245 . S
C831 O843 1.232 . S
O832 C831 1.245 . S
O833 Co827 2.058 . S
O833 C859 1.269 . S
O834 Co826 2.074 . S
O834 C859 1.257 . S
H835 C860 0.930 . S
H836 C866 0.930 . S
O837 Co826 2.093 . S
O837 C829 1.224 . S
H838 C870 0.929 . S
H839 C872 0.930 . S
H840 C873 0.930 . S
H841 C871 0.929 . S
H842 C874 0.928 . S
O843 Co827 2.057 . S
O843 C831 1.232 . S
H844 C863 0.929 . S
H845 C864 0.929 . S
H846 C876 0.931 . S
H847 C868 0.929 . S
H848 C877 0.930 . S
H849 C869 0.931 . S
O850 Co826 2.097 . S
O850 C878 1.214 . S
H851 C879 0.929 . S
H852 C880 0.929 . S
H853 C881 0.930 . S
H854 C882 0.929 . S
H855 C884 0.930 . S
H856 C861 0.930 . S
H857 C865 0.930 . S
O858 Co827 2.037 . S
O858 C878 1.234 . S
C859 O833 1.269 . S
C859 O834 1.257 . S
C860 H835 0.930 . S
C860 C863 1.388 . S
C860 C865 1.418 . S
C861 H856 0.930 . S
C861 C864 1.404 . S
C861 C865 1.353 . S
N862 Co827 2.145 . S
N862 C863 1.397 . S
N862 C864 1.334 . S
C863 H844 0.929 . S
C863 C860 1.388 . S
C863 N862 1.397 . S
C864 H845 0.929 . S
C864 C861 1.404 . S
C864 N862 1.334 . S
C865 H857 0.930 . S
C865 C860 1.418 . S
C865 C861 1.353 . S
C866 H836 0.930 . S
C866 N867 1.330 . S
C866 C868 1.446 . S
N867 Co826 2.151 . S
N867 C866 1.330 . S
N867 C871 1.418 . S
C868 H847 0.929 . S
C868 C866 1.446 . S
C868 C869 1.332 . S
C869 H849 0.931 . S
C869 C868 1.332 . S
C869 C870 1.267 . S
C870 H838 0.929 . S
C870 C869 1.267 . S
C870 C871 1.251 . S
C871 H841 0.929 . S
C871 N867 1.418 . S
C871 C870 1.251 . S
C872 H839 0.930 . S
C872 C874 1.406 . S
C872 C877 1.261 . S
C873 H840 0.930 . S
C873 N875 1.325 . S
C873 C876 1.357 . S
C874 H842 0.928 . S
C874 C872 1.406 . S
C874 N875 1.261 . S
N875 Co826 2.214 . S
N875 C873 1.325 . S
N875 C874 1.261 . S
C876 H846 0.931 . S
C876 C873 1.357 . S
C876 C877 1.312 . S
C877 H848 0.930 . S
C877 C872 1.261 . S
C877 C876 1.312 . S
C878 O850 1.214 . S
C878 O858 1.234 . S
C879 H851 0.929 . S
C879 C882 1.391 . S
C879 C884 1.391 . S
C880 H852 0.929 . S
C880 C881 1.390 . S
C880 N883 1.391 . S
C881 H853 0.930 . S
C881 C880 1.390 . S
C881 C882 1.392 . S
C882 H854 0.929 . S
C882 C879 1.391 . S
C882 C881 1.392 . S
N883 Co827 2.257 . S
N883 C880 1.391 . S
N883 C884 1.388 . S
C884 H855 0.930 . S
C884 C879 1.391 . S
C884 N883 1.388 . S
Co885 O887 2.143 . S
Co885 O893 2.074 . S
Co885 O896 2.093 . S
Co885 O909 2.097 . S
Co885 N926 2.151 . S
Co885 N934 2.214 . S
Co886 O887 2.160 . S
Co886 O892 2.058 . S
Co886 O902 2.057 . S
Co886 O917 2.037 . S
Co886 N921 2.145 . S
Co886 N942 2.257 . S
O887 Co885 2.143 . S
O887 Co886 2.160 . S
C888 O889 1.278 . S
C888 O896 1.224 . S
O889 C888 1.278 . S
C890 O891 1.245 . S
C890 O902 1.232 . S
O891 C890 1.245 . S
O892 Co886 2.058 . S
O892 C918 1.269 . S
O893 Co885 2.074 . S
O893 C918 1.257 . S
H894 C919 0.930 . S
H895 C925 0.930 . S
O896 Co885 2.093 . S
O896 C888 1.224 . S
H897 C929 0.929 . S
H898 C931 0.930 . S
H899 C932 0.930 . S
H900 C930 0.929 . S
H901 C933 0.928 . S
O902 Co886 2.057 . S
O902 C890 1.232 . S
H903 C922 0.929 . S
H904 C923 0.929 . S
H905 C935 0.931 . S
H906 C927 0.929 . S
H907 C936 0.930 . S
H908 C928 0.931 . S
O909 Co885 2.097 . S
O909 C937 1.214 . S
H910 C938 0.929 . S
H911 C939 0.929 . S
H912 C940 0.930 . S
H913 C941 0.929 . S
H914 C943 0.930 . S
H915 C920 0.930 . S
H916 C924 0.930 . S
O917 Co886 2.037 . S
O917 C937 1.234 . S
C918 O892 1.269 . S
C918 O893 1.257 . S
C919 H894 0.930 . S
C919 C922 1.388 . S
C919 C924 1.418 . S
C920 H915 0.930 . S
C920 C923 1.404 . S
C920 C924 1.353 . S
N921 Co886 2.145 . S
N921 C922 1.397 . S
N921 C923 1.334 . S
C922 H903 0.929 . S
C922 C919 1.388 . S
C922 N921 1.397 . S
C923 H904 0.929 . S
C923 C920 1.404 . S
C923 N921 1.334 . S
C924 H916 0.930 . S
C924 C919 1.418 . S
C924 C920 1.353 . S
C925 H895 0.930 . S
C925 N926 1.330 . S
C925 C927 1.446 . S
N926 Co885 2.151 . S
N926 C925 1.330 . S
N926 C930 1.418 . S
C927 H906 0.929 . S
C927 C925 1.446 . S
C927 C928 1.332 . S
C928 H908 0.931 . S
C928 C927 1.332 . S
C928 C929 1.267 . S
C929 H897 0.929 . S
C929 C928 1.267 . S
C929 C930 1.251 . S
C930 H900 0.929 . S
C930 N926 1.418 . S
C930 C929 1.251 . S
C931 H898 0.930 . S
C931 C933 1.406 . S
C931 C936 1.261 . S
C932 H899 0.930 . S
C932 N934 1.325 . S
C932 C935 1.357 . S
C933 H901 0.928 . S
C933 C931 1.406 . S
C933 N934 1.261 . S
N934 Co885 2.214 . S
N934 C932 1.325 . S
N934 C933 1.261 . S
C935 H905 0.931 . S
C935 C932 1.357 . S
C935 C936 1.312 . S
C936 H907 0.930 . S
C936 C931 1.261 . S
C936 C935 1.312 . S
C937 O909 1.214 . S
C937 O917 1.234 . S
C938 H910 0.929 . S
C938 C941 1.391 . S
C938 C943 1.391 . S
C939 H911 0.929 . S
C939 C940 1.390 . S
C939 N942 1.391 . S
C940 H912 0.930 . S
C940 C939 1.390 . S
C940 C941 1.392 . S
C941 H913 0.929 . S
C941 C938 1.391 . S
C941 C940 1.392 . S
N942 Co886 2.257 . S
N942 C939 1.391 . S
N942 C943 1.388 . S
C943 H914 0.930 . S
C943 C938 1.391 . S
C943 N942 1.388 . S
Co944 O946 2.143 . S
Co944 O952 2.074 . S
Co944 O955 2.093 . S
Co944 O968 2.097 . S
Co944 N985 2.151 . S
Co944 N993 2.214 . S
Co945 O946 2.160 . S
Co945 O951 2.058 . S
Co945 O961 2.057 . S
Co945 O976 2.037 . S
Co945 N980 2.145 . S
Co945 N1001 2.257 . S
O946 Co944 2.143 . S
O946 Co945 2.160 . S
C947 O948 1.278 . S
C947 O955 1.224 . S
O948 C947 1.278 . S
C949 O950 1.245 . S
C949 O961 1.232 . S
O950 C949 1.245 . S
O951 Co945 2.058 . S
O951 C977 1.269 . S
O952 Co944 2.074 . S
O952 C977 1.257 . S
H953 C978 0.930 . S
H954 C984 0.930 . S
O955 Co944 2.093 . S
O955 C947 1.224 . S
H956 C988 0.929 . S
H957 C990 0.930 . S
H958 C991 0.930 . S
H959 C989 0.929 . S
H960 C992 0.928 . S
O961 Co945 2.057 . S
O961 C949 1.232 . S
H962 C981 0.929 . S
H963 C982 0.929 . S
H964 C994 0.931 . S
H965 C986 0.929 . S
H966 C995 0.930 . S
H967 C987 0.931 . S
O968 Co944 2.097 . S
O968 C996 1.214 . S
H969 C997 0.929 . S
H970 C998 0.929 . S
H971 C999 0.930 . S
H972 C1000 0.929 . S
H973 C1002 0.930 . S
H974 C979 0.930 . S
H975 C983 0.930 . S
O976 Co945 2.037 . S
O976 C996 1.234 . S
C977 O951 1.269 . S
C977 O952 1.257 . S
C978 H953 0.930 . S
C978 C981 1.388 . S
C978 C983 1.418 . S
C979 H974 0.930 . S
C979 C982 1.404 . S
C979 C983 1.353 . S
N980 Co945 2.145 . S
N980 C981 1.397 . S
N980 C982 1.334 . S
C981 H962 0.929 . S
C981 C978 1.388 . S
C981 N980 1.397 . S
C982 H963 0.929 . S
C982 C979 1.404 . S
C982 N980 1.334 . S
C983 H975 0.930 . S
C983 C978 1.418 . S
C983 C979 1.353 . S
C984 H954 0.930 . S
C984 N985 1.330 . S
C984 C986 1.446 . S
N985 Co944 2.151 . S
N985 C984 1.330 . S
N985 C989 1.418 . S
C986 H965 0.929 . S
C986 C984 1.446 . S
C986 C987 1.332 . S
C987 H967 0.931 . S
C987 C986 1.332 . S
C987 C988 1.267 . S
C988 H956 0.929 . S
C988 C987 1.267 . S
C988 C989 1.251 . S
C989 H959 0.929 . S
C989 N985 1.418 . S
C989 C988 1.251 . S
C990 H957 0.930 . S
C990 C992 1.406 . S
C990 C995 1.261 . S
C991 H958 0.930 . S
C991 N993 1.325 . S
C991 C994 1.357 . S
C992 H960 0.928 . S
C992 C990 1.406 . S
C992 N993 1.261 . S
N993 Co944 2.214 . S
N993 C991 1.325 . S
N993 C992 1.261 . S
C994 H964 0.931 . S
C994 C991 1.357 . S
C994 C995 1.312 . S
C995 H966 0.930 . S
C995 C990 1.261 . S
C995 C994 1.312 . S
C996 O968 1.214 . S
C996 O976 1.234 . S
C997 H969 0.929 . S
C997 C1000 1.391 . S
C997 C1002 1.391 . S
C998 H970 0.929 . S
C998 C999 1.390 . S
C998 N1001 1.391 . S
C999 H971 0.930 . S
C999 C998 1.390 . S
C999 C1000 1.392 . S
C1000 H972 0.929 . S
C1000 C997 1.391 . S
C1000 C999 1.392 . S
N1001 Co945 2.257 . S
N1001 C998 1.391 . S
N1001 C1002 1.388 . S
C1002 H973 0.930 . S
C1002 C997 1.391 . S
C1002 N1001 1.388 . S
Co1003 O1005 2.143 . S
Co1003 O1011 2.074 . S
Co1003 O1014 2.093 . S
Co1003 O1027 2.097 . S
Co1003 N1044 2.151 . S
Co1003 N1052 2.214 . S
Co1004 O1005 2.160 . S
Co1004 O1010 2.058 . S
Co1004 O1020 2.057 . S
Co1004 O1035 2.037 . S
Co1004 N1039 2.145 . S
Co1004 N1060 2.257 . S
O1005 Co1003 2.143 . S
O1005 Co1004 2.160 . S
C1006 O1007 1.278 . S
C1006 O1014 1.224 . S
O1007 C1006 1.278 . S
C1008 O1009 1.245 . S
C1008 O1020 1.232 . S
O1009 C1008 1.245 . S
O1010 Co1004 2.058 . S
O1010 C1036 1.269 . S
O1011 Co1003 2.074 . S
O1011 C1036 1.257 . S
H1012 C1037 0.930 . S
H1013 C1043 0.930 . S
O1014 Co1003 2.093 . S
O1014 C1006 1.224 . S
H1015 C1047 0.929 . S
H1016 C1049 0.930 . S
H1017 C1050 0.930 . S
H1018 C1048 0.929 . S
H1019 C1051 0.928 . S
O1020 Co1004 2.057 . S
O1020 C1008 1.232 . S
H1021 C1040 0.929 . S
H1022 C1041 0.929 . S
H1023 C1053 0.931 . S
H1024 C1045 0.929 . S
H1025 C1054 0.930 . S
H1026 C1046 0.931 . S
O1027 Co1003 2.097 . S
O1027 C1055 1.214 . S
H1028 C1056 0.929 . S
H1029 C1057 0.929 . S
H1030 C1058 0.930 . S
H1031 C1059 0.929 . S
H1032 C1061 0.930 . S
H1033 C1038 0.930 . S
H1034 C1042 0.930 . S
O1035 Co1004 2.037 . S
O1035 C1055 1.234 . S
C1036 O1010 1.269 . S
C1036 O1011 1.257 . S
C1037 H1012 0.930 . S
C1037 C1040 1.388 . S
C1037 C1042 1.418 . S
C1038 H1033 0.930 . S
C1038 C1041 1.404 . S
C1038 C1042 1.353 . S
N1039 Co1004 2.145 . S
N1039 C1040 1.397 . S
N1039 C1041 1.334 . S
C1040 H1021 0.929 . S
C1040 C1037 1.388 . S
C1040 N1039 1.397 . S
C1041 H1022 0.929 . S
C1041 C1038 1.404 . S
C1041 N1039 1.334 . S
C1042 H1034 0.930 . S
C1042 C1037 1.418 . S
C1042 C1038 1.353 . S
C1043 H1013 0.930 . S
C1043 N1044 1.330 . S
C1043 C1045 1.446 . S
N1044 Co1003 2.151 . S
N1044 C1043 1.330 . S
N1044 C1048 1.418 . S
C1045 H1024 0.929 . S
C1045 C1043 1.446 . S
C1045 C1046 1.332 . S
C1046 H1026 0.931 . S
C1046 C1045 1.332 . S
C1046 C1047 1.267 . S
C1047 H1015 0.929 . S
C1047 C1046 1.267 . S
C1047 C1048 1.251 . S
C1048 H1018 0.929 . S
C1048 N1044 1.418 . S
C1048 C1047 1.251 . S
C1049 H1016 0.930 . S
C1049 C1051 1.406 . S
C1049 C1054 1.261 . S
C1050 H1017 0.930 . S
C1050 N1052 1.325 . S
C1050 C1053 1.357 . S
C1051 H1019 0.928 . S
C1051 C1049 1.406 . S
C1051 N1052 1.261 . S
N1052 Co1003 2.214 . S
N1052 C1050 1.325 . S
N1052 C1051 1.261 . S
C1053 H1023 0.931 . S
C1053 C1050 1.357 . S
C1053 C1054 1.312 . S
C1054 H1025 0.930 . S
C1054 C1049 1.261 . S
C1054 C1053 1.312 . S
C1055 O1027 1.214 . S
C1055 O1035 1.234 . S
C1056 H1028 0.929 . S
C1056 C1059 1.391 . S
C1056 C1061 1.391 . S
C1057 H1029 0.929 . S
C1057 C1058 1.390 . S
C1057 N1060 1.391 . S
C1058 H1030 0.930 . S
C1058 C1057 1.390 . S
C1058 C1059 1.392 . S
C1059 H1031 0.929 . S
C1059 C1056 1.391 . S
C1059 C1058 1.392 . S
N1060 Co1004 2.257 . S
N1060 C1057 1.391 . S
N1060 C1061 1.388 . S
C1061 H1032 0.930 . S
C1061 C1056 1.391 . S
C1061 N1060 1.388 . S
C1062 C1063 1.391 . S
C1062 C1064 1.394 . S
C1062 H1078 0.931 . S
C1063 C1062 1.391 . S
C1063 C1067 1.376 . S
C1064 C1062 1.394 . S
C1064 C1065 1.369 . S
C1064 C1068 1.531 . S
C1065 C1064 1.369 . S
C1065 C1066 1.410 . S
C1065 C1073 1.503 . S
C1066 C1065 1.410 . S
C1066 C1067 1.392 . S
C1066 C1069 1.511 . S
C1067 C1063 1.376 . S
C1067 C1066 1.392 . S
C1067 H1079 0.929 . S
C1068 C1064 1.531 . S
C1068 H1080 0.960 . S
C1068 H1081 0.962 . S
C1068 H1082 0.960 . S
C1069 C1066 1.511 . S
C1069 H1083 0.961 . S
C1069 H1084 0.961 . S
C1069 H1085 0.961 . S
C1070 C1071 1.370 . S
C1070 C1072 1.363 . S
C1070 H1086 0.931 . S
C1071 C1070 1.370 . S
C1071 C1075 1.408 . S
C1072 C1070 1.363 . S
C1072 C1073 1.370 . S
C1072 C1076 1.524 . S
C1073 C1065 1.503 . S
C1073 C1072 1.370 . S
C1073 C1074 1.403 . S
C1074 C1073 1.403 . S
C1074 C1075 1.404 . S
C1074 C1077 1.539 . S
C1075 C1071 1.408 . S
C1075 C1074 1.404 . S
C1075 H1087 0.930 . S
C1076 C1072 1.524 . S
C1076 H1088 0.956 . S
C1076 H1089 0.961 . S
C1076 H1090 0.961 . S
C1077 C1074 1.539 . S
C1077 H1091 0.958 . S
C1077 H1092 0.961 . S
C1077 H1093 0.960 . S
H1078 C1062 0.931 . S
H1079 C1067 0.929 . S
H1080 C1068 0.960 . S
H1081 C1068 0.962 . S
H1082 C1068 0.960 . S
H1083 C1069 0.961 . S
H1084 C1069 0.961 . S
H1085 C1069 0.961 . S
H1086 C1070 0.931 . S
H1087 C1075 0.930 . S
H1088 C1076 0.956 . S
H1089 C1076 0.961 . S
H1090 C1076 0.961 . S
H1091 C1077 0.958 . S
H1092 C1077 0.961 . S
H1093 C1077 0.960 . S
C1094 C1095 1.391 . S
C1094 C1096 1.394 . S
C1094 H1110 0.931 . S
C1095 C1094 1.391 . S
C1095 C1099 1.376 . S
C1096 C1094 1.394 . S
C1096 C1097 1.369 . S
C1096 C1100 1.531 . S
C1097 C1096 1.369 . S
C1097 C1098 1.410 . S
C1097 C1105 1.503 . S
C1098 C1097 1.410 . S
C1098 C1099 1.392 . S
C1098 C1101 1.511 . S
C1099 C1095 1.376 . S
C1099 C1098 1.392 . S
C1099 H1111 0.929 . S
C1100 C1096 1.531 . S
C1100 H1112 0.960 . S
C1100 H1113 0.962 . S
C1100 H1114 0.960 . S
C1101 C1098 1.511 . S
C1101 H1115 0.961 . S
C1101 H1116 0.961 . S
C1101 H1117 0.961 . S
C1102 C1103 1.370 . S
C1102 C1104 1.363 . S
C1102 H1118 0.931 . S
C1103 C1102 1.370 . S
C1103 C1107 1.408 . S
C1104 C1102 1.363 . S
C1104 C1105 1.370 . S
C1104 C1108 1.524 . S
C1105 C1097 1.503 . S
C1105 C1104 1.370 . S
C1105 C1106 1.403 . S
C1106 C1105 1.403 . S
C1106 C1107 1.404 . S
C1106 C1109 1.539 . S
C1107 C1103 1.408 . S
C1107 C1106 1.404 . S
C1107 H1119 0.930 . S
C1108 C1104 1.524 . S
C1108 H1120 0.956 . S
C1108 H1121 0.961 . S
C1108 H1122 0.961 . S
C1109 C1106 1.539 . S
C1109 H1123 0.958 . S
C1109 H1124 0.961 . S
C1109 H1125 0.960 . S
H1110 C1094 0.931 . S
H1111 C1099 0.929 . S
H1112 C1100 0.960 . S
H1113 C1100 0.962 . S
H1114 C1100 0.960 . S
H1115 C1101 0.961 . S
H1116 C1101 0.961 . S
H1117 C1101 0.961 . S
H1118 C1102 0.931 . S
H1119 C1107 0.930 . S
H1120 C1108 0.956 . S
H1121 C1108 0.961 . S
H1122 C1108 0.961 . S
H1123 C1109 0.958 . S
H1124 C1109 0.961 . S
H1125 C1109 0.960 . S
C1126 C1127 1.391 . S
C1126 C1128 1.394 . S
C1126 H1142 0.931 . S
C1127 C1126 1.391 . S
C1127 C1131 1.376 . S
C1128 C1126 1.394 . S
C1128 C1129 1.369 . S
C1128 C1132 1.531 . S
C1129 C1128 1.369 . S
C1129 C1130 1.410 . S
C1129 C1137 1.503 . S
C1130 C1129 1.410 . S
C1130 C1131 1.392 . S
C1130 C1133 1.511 . S
C1131 C1127 1.376 . S
C1131 C1130 1.392 . S
C1131 H1143 0.929 . S
C1132 C1128 1.531 . S
C1132 H1144 0.960 . S
C1132 H1145 0.962 . S
C1132 H1146 0.960 . S
C1133 C1130 1.511 . S
C1133 H1147 0.961 . S
C1133 H1148 0.961 . S
C1133 H1149 0.961 . S
C1134 C1135 1.370 . S
C1134 C1136 1.363 . S
C1134 H1150 0.931 . S
C1135 C1134 1.370 . S
C1135 C1139 1.408 . S
C1136 C1134 1.363 . S
C1136 C1137 1.370 . S
C1136 C1140 1.524 . S
C1137 C1129 1.503 . S
C1137 C1136 1.370 . S
C1137 C1138 1.403 . S
C1138 C1137 1.403 . S
C1138 C1139 1.404 . S
C1138 C1141 1.539 . S
C1139 C1135 1.408 . S
C1139 C1138 1.404 . S
C1139 H1151 0.930 . S
C1140 C1136 1.524 . S
C1140 H1152 0.956 . S
C1140 H1153 0.961 . S
C1140 H1154 0.961 . S
C1141 C1138 1.539 . S
C1141 H1155 0.958 . S
C1141 H1156 0.961 . S
C1141 H1157 0.960 . S
H1142 C1126 0.931 . S
H1143 C1131 0.929 . S
H1144 C1132 0.960 . S
H1145 C1132 0.962 . S
H1146 C1132 0.960 . S
H1147 C1133 0.961 . S
H1148 C1133 0.961 . S
H1149 C1133 0.961 . S
H1150 C1134 0.931 . S
H1151 C1139 0.930 . S
H1152 C1140 0.956 . S
H1153 C1140 0.961 . S
H1154 C1140 0.961 . S
H1155 C1141 0.958 . S
H1156 C1141 0.961 . S
H1157 C1141 0.960 . S
C1158 C1159 1.391 . S
C1158 C1160 1.394 . S
C1158 H1174 0.931 . S
C1159 C1158 1.391 . S
C1159 C1163 1.376 . S
C1160 C1158 1.394 . S
C1160 C1161 1.369 . S
C1160 C1164 1.531 . S
C1161 C1160 1.369 . S
C1161 C1162 1.410 . S
C1161 C1169 1.503 . S
C1162 C1161 1.410 . S
C1162 C1163 1.392 . S
C1162 C1165 1.511 . S
C1163 C1159 1.376 . S
C1163 C1162 1.392 . S
C1163 H1175 0.929 . S
C1164 C1160 1.531 . S
C1164 H1176 0.960 . S
C1164 H1177 0.962 . S
C1164 H1178 0.960 . S
C1165 C1162 1.511 . S
C1165 H1179 0.961 . S
C1165 H1180 0.961 . S
C1165 H1181 0.961 . S
C1166 C1167 1.370 . S
C1166 C1168 1.363 . S
C1166 H1182 0.931 . S
C1167 C1166 1.370 . S
C1167 C1171 1.408 . S
C1168 C1166 1.363 . S
C1168 C1169 1.370 . S
C1168 C1172 1.524 . S
C1169 C1161 1.503 . S
C1169 C1168 1.370 . S
C1169 C1170 1.403 . S
C1170 C1169 1.403 . S
C1170 C1171 1.404 . S
C1170 C1173 1.539 . S
C1171 C1167 1.408 . S
C1171 C1170 1.404 . S
C1171 H1183 0.930 . S
C1172 C1168 1.524 . S
C1172 H1184 0.956 . S
C1172 H1185 0.961 . S
C1172 H1186 0.961 . S
C1173 C1170 1.539 . S
C1173 H1187 0.958 . S
C1173 H1188 0.961 . S
C1173 H1189 0.960 . S
H1174 C1158 0.931 . S
H1175 C1163 0.929 . S
H1176 C1164 0.960 . S
H1177 C1164 0.962 . S
H1178 C1164 0.960 . S
H1179 C1165 0.961 . S
H1180 C1165 0.961 . S
H1181 C1165 0.961 . S
H1182 C1166 0.931 . S
H1183 C1171 0.930 . S
H1184 C1172 0.956 . S
H1185 C1172 0.961 . S
H1186 C1172 0.961 . S
H1187 C1173 0.958 . S
H1188 C1173 0.961 . S
H1189 C1173 0.960 . S
C1190 C1191 1.391 . S
C1190 C1192 1.394 . S
C1190 H1206 0.931 . S
C1191 C1190 1.391 . S
C1191 C1195 1.376 . S
C1192 C1190 1.394 . S
C1192 C1193 1.369 . S
C1192 C1196 1.531 . S
C1193 C1192 1.369 . S
C1193 C1194 1.410 . S
C1193 C1201 1.503 . S
C1194 C1193 1.410 . S
C1194 C1195 1.392 . S
C1194 C1197 1.511 . S
C1195 C1191 1.376 . S
C1195 C1194 1.392 . S
C1195 H1207 0.929 . S
C1196 C1192 1.531 . S
C1196 H1208 0.960 . S
C1196 H1209 0.962 . S
C1196 H1210 0.960 . S
C1197 C1194 1.511 . S
C1197 H1211 0.961 . S
C1197 H1212 0.961 . S
C1197 H1213 0.961 . S
C1198 C1199 1.370 . S
C1198 C1200 1.363 . S
C1198 H1214 0.931 . S
C1199 C1198 1.370 . S
C1199 C1203 1.408 . S
C1200 C1198 1.363 . S
C1200 C1201 1.370 . S
C1200 C1204 1.524 . S
C1201 C1193 1.503 . S
C1201 C1200 1.370 . S
C1201 C1202 1.403 . S
C1202 C1201 1.403 . S
C1202 C1203 1.404 . S
C1202 C1205 1.539 . S
C1203 C1199 1.408 . S
C1203 C1202 1.404 . S
C1203 H1215 0.930 . S
C1204 C1200 1.524 . S
C1204 H1216 0.956 . S
C1204 H1217 0.961 . S
C1204 H1218 0.961 . S
C1205 C1202 1.539 . S
C1205 H1219 0.958 . S
C1205 H1220 0.961 . S
C1205 H1221 0.960 . S
H1206 C1190 0.931 . S
H1207 C1195 0.929 . S
H1208 C1196 0.960 . S
H1209 C1196 0.962 . S
H1210 C1196 0.960 . S
H1211 C1197 0.961 . S
H1212 C1197 0.961 . S
H1213 C1197 0.961 . S
H1214 C1198 0.931 . S
H1215 C1203 0.930 . S
H1216 C1204 0.956 . S
H1217 C1204 0.961 . S
H1218 C1204 0.961 . S
H1219 C1205 0.958 . S
H1220 C1205 0.961 . S
H1221 C1205 0.960 . S
C1222 C1223 1.391 . S
C1222 C1224 1.394 . S
C1222 H1238 0.931 . S
C1223 C1222 1.391 . S
C1223 C1227 1.376 . S
C1224 C1222 1.394 . S
C1224 C1225 1.369 . S
C1224 C1228 1.531 . S
C1225 C1224 1.369 . S
C1225 C1226 1.410 . S
C1225 C1233 1.503 . S
C1226 C1225 1.410 . S
C1226 C1227 1.392 . S
C1226 C1229 1.511 . S
C1227 C1223 1.376 . S
C1227 C1226 1.392 . S
C1227 H1239 0.929 . S
C1228 C1224 1.531 . S
C1228 H1240 0.960 . S
C1228 H1241 0.962 . S
C1228 H1242 0.960 . S
C1229 C1226 1.511 . S
C1229 H1243 0.961 . S
C1229 H1244 0.961 . S
C1229 H1245 0.961 . S
C1230 C1231 1.370 . S
C1230 C1232 1.363 . S
C1230 H1246 0.931 . S
C1231 C1230 1.370 . S
C1231 C1235 1.408 . S
C1232 C1230 1.363 . S
C1232 C1233 1.370 . S
C1232 C1236 1.524 . S
C1233 C1225 1.503 . S
C1233 C1232 1.370 . S
C1233 C1234 1.403 . S
C1234 C1233 1.403 . S
C1234 C1235 1.404 . S
C1234 C1237 1.539 . S
C1235 C1231 1.408 . S
C1235 C1234 1.404 . S
C1235 H1247 0.930 . S
C1236 C1232 1.524 . S
C1236 H1248 0.956 . S
C1236 H1249 0.961 . S
C1236 H1250 0.961 . S
C1237 C1234 1.539 . S
C1237 H1251 0.958 . S
C1237 H1252 0.961 . S
C1237 H1253 0.960 . S
H1238 C1222 0.931 . S
H1239 C1227 0.929 . S
H1240 C1228 0.960 . S
H1241 C1228 0.962 . S
H1242 C1228 0.960 . S
H1243 C1229 0.961 . S
H1244 C1229 0.961 . S
H1245 C1229 0.961 . S
H1246 C1230 0.931 . S
H1247 C1235 0.930 . S
H1248 C1236 0.956 . S
H1249 C1236 0.961 . S
H1250 C1236 0.961 . S
H1251 C1237 0.958 . S
H1252 C1237 0.961 . S
H1253 C1237 0.960 . S
C1254 C1255 1.391 . S
C1254 C1256 1.394 . S
C1254 H1270 0.931 . S
C1255 C1254 1.391 . S
C1255 C1259 1.376 . S
C1256 C1254 1.394 . S
C1256 C1257 1.369 . S
C1256 C1260 1.531 . S
C1257 C1256 1.369 . S
C1257 C1258 1.410 . S
C1257 C1265 1.503 1_655 S
C1258 C1257 1.410 . S
C1258 C1259 1.392 . S
C1258 C1261 1.511 . S
C1259 C1255 1.376 . S
C1259 C1258 1.392 . S
C1259 H1271 0.929 . S
C1260 C1256 1.531 . S
C1260 H1272 0.960 . S
C1260 H1273 0.962 . S
C1260 H1274 0.960 . S
C1261 C1258 1.511 . S
C1261 H1275 0.961 . S
C1261 H1276 0.961 1_655 S
C1261 H1277 0.961 . S
C1262 C1263 1.370 . S
C1262 C1264 1.363 . S
C1262 H1278 0.931 . S
C1263 C1262 1.370 . S
C1263 C1267 1.408 . S
C1264 C1262 1.363 . S
C1264 C1265 1.370 . S
C1264 C1268 1.524 . S
C1265 C1257 1.503 1_455 S
C1265 C1264 1.370 . S
C1265 C1266 1.403 . S
C1266 C1265 1.403 . S
C1266 C1267 1.404 . S
C1266 C1269 1.539 . S
C1267 C1263 1.408 . S
C1267 C1266 1.404 . S
C1267 H1279 0.930 . S
C1268 C1264 1.524 . S
C1268 H1280 0.956 . S
C1268 H1281 0.961 . S
C1268 H1282 0.961 . S
C1269 C1266 1.539 . S
C1269 H1283 0.958 . S
C1269 H1284 0.961 . S
C1269 H1285 0.960 1_455 S
H1270 C1254 0.931 . S
H1271 C1259 0.929 . S
H1272 C1260 0.960 . S
H1273 C1260 0.962 . S
H1274 C1260 0.960 . S
H1275 C1261 0.961 . S
H1276 C1261 0.961 1_455 S
H1277 C1261 0.961 . S
H1278 C1262 0.931 . S
H1279 C1267 0.930 . S
H1280 C1268 0.956 . S
H1281 C1268 0.961 . S
H1282 C1268 0.961 . S
H1283 C1269 0.958 . S
H1284 C1269 0.961 . S
H1285 C1269 0.960 1_655 S
C1286 C1287 1.391 . S
C1286 C1288 1.394 . S
C1286 H1302 0.931 . S
C1287 C1286 1.391 . S
C1287 C1291 1.376 . S
C1288 C1286 1.394 . S
C1288 C1289 1.369 . S
C1288 C1292 1.531 . S
C1289 C1288 1.369 . S
C1289 C1290 1.410 . S
C1289 C1297 1.503 . S
C1290 C1289 1.410 . S
C1290 C1291 1.392 . S
C1290 C1293 1.511 . S
C1291 C1287 1.376 . S
C1291 C1290 1.392 . S
C1291 H1303 0.929 . S
C1292 C1288 1.531 . S
C1292 H1304 0.960 . S
C1292 H1305 0.962 . S
C1292 H1306 0.960 . S
C1293 C1290 1.511 . S
C1293 H1307 0.961 . S
C1293 H1308 0.961 . S
C1293 H1309 0.961 . S
C1294 C1295 1.370 . S
C1294 C1296 1.363 . S
C1294 H1310 0.931 . S
C1295 C1294 1.370 . S
C1295 C1299 1.408 . S
C1296 C1294 1.363 . S
C1296 C1297 1.370 . S
C1296 C1300 1.524 . S
C1297 C1289 1.503 . S
C1297 C1296 1.370 . S
C1297 C1298 1.403 . S
C1298 C1297 1.403 . S
C1298 C1299 1.404 . S
C1298 C1301 1.539 . S
C1299 C1295 1.408 . S
C1299 C1298 1.404 . S
C1299 H1311 0.930 . S
C1300 C1296 1.524 . S
C1300 H1312 0.956 . S
C1300 H1313 0.961 . S
C1300 H1314 0.961 . S
C1301 C1298 1.539 . S
C1301 H1315 0.958 . S
C1301 H1316 0.961 . S
C1301 H1317 0.960 . S
H1302 C1286 0.931 . S
H1303 C1291 0.929 . S
H1304 C1292 0.960 . S
H1305 C1292 0.962 . S
H1306 C1292 0.960 . S
H1307 C1293 0.961 . S
H1308 C1293 0.961 . S
H1309 C1293 0.961 . S
H1310 C1294 0.931 . S
H1311 C1299 0.930 . S
H1312 C1300 0.956 . S
H1313 C1300 0.961 . S
H1314 C1300 0.961 . S
H1315 C1301 0.958 . S
H1316 C1301 0.961 . S
H1317 C1301 0.960 . S
C1318 C1319 1.391 . S
C1318 C1320 1.394 . S
C1318 H1334 0.931 . S
C1319 C1318 1.391 . S
C1319 C1323 1.376 . S
C1320 C1318 1.394 . S
C1320 C1321 1.369 . S
C1320 C1324 1.531 . S
C1321 C1320 1.369 . S
C1321 C1322 1.410 . S
C1321 C1329 1.503 1_545 S
C1322 C1321 1.410 . S
C1322 C1323 1.392 . S
C1322 C1325 1.511 . S
C1323 C1319 1.376 . S
C1323 C1322 1.392 . S
C1323 H1335 0.929 . S
C1324 C1320 1.531 . S
C1324 H1336 0.960 1_545 S
C1324 H1337 0.962 . S
C1324 H1338 0.960 . S
C1325 C1322 1.511 . S
C1325 H1339 0.961 . S
C1325 H1340 0.961 . S
C1325 H1341 0.961 . S
C1326 C1327 1.370 . S
C1326 C1328 1.363 . S
C1326 H1342 0.931 . S
C1327 C1326 1.370 . S
C1327 C1331 1.408 . S
C1328 C1326 1.363 . S
C1328 C1329 1.370 . S
C1328 C1332 1.524 . S
C1329 C1321 1.503 1_565 S
C1329 C1328 1.370 . S
C1329 C1330 1.403 . S
C1330 C1329 1.403 . S
C1330 C1331 1.404 . S
C1330 C1333 1.539 . S
C1331 C1327 1.408 . S
C1331 C1330 1.404 . S
C1331 H1343 0.930 . S
C1332 C1328 1.524 . S
C1332 H1344 0.956 1_565 S
C1332 H1345 0.961 1_565 S
C1332 H1346 0.961 . S
C1333 C1330 1.539 . S
C1333 H1347 0.958 . S
C1333 H1348 0.961 . S
C1333 H1349 0.960 . S
H1334 C1318 0.931 . S
H1335 C1323 0.929 . S
H1336 C1324 0.960 1_565 S
H1337 C1324 0.962 . S
H1338 C1324 0.960 . S
H1339 C1325 0.961 . S
H1340 C1325 0.961 . S
H1341 C1325 0.961 . S
H1342 C1326 0.931 . S
H1343 C1331 0.930 . S
H1344 C1332 0.956 1_545 S
H1345 C1332 0.961 1_545 S
H1346 C1332 0.961 . S
H1347 C1333 0.958 . S
H1348 C1333 0.961 . S
H1349 C1333 0.960 . S
C1350 C1351 1.391 . S
C1350 C1352 1.394 . S
C1350 H1366 0.931 . S
C1351 C1350 1.391 . S
C1351 C1355 1.376 . S
C1352 C1350 1.394 . S
C1352 C1353 1.369 . S
C1352 C1356 1.531 . S
C1353 C1352 1.369 . S
C1353 C1354 1.410 . S
C1353 C1361 1.503 1_455 S
C1354 C1353 1.410 . S
C1354 C1355 1.392 . S
C1354 C1357 1.511 . S
C1355 C1351 1.376 . S
C1355 C1354 1.392 . S
C1355 H1367 0.929 . S
C1356 C1352 1.531 . S
C1356 H1368 0.960 . S
C1356 H1369 0.962 . S
C1356 H1370 0.960 . S
C1357 C1354 1.511 . S
C1357 H1371 0.961 . S
C1357 H1372 0.961 1_455 S
C1357 H1373 0.961 . S
C1358 C1359 1.370 . S
C1358 C1360 1.363 . S
C1358 H1374 0.931 . S
C1359 C1358 1.370 . S
C1359 C1363 1.408 . S
C1360 C1358 1.363 . S
C1360 C1361 1.370 . S
C1360 C1364 1.524 . S
C1361 C1353 1.503 1_655 S
C1361 C1360 1.370 . S
C1361 C1362 1.403 . S
C1362 C1361 1.403 . S
C1362 C1363 1.404 . S
C1362 C1365 1.539 . S
C1363 C1359 1.408 . S
C1363 C1362 1.404 . S
C1363 H1375 0.930 . S
C1364 C1360 1.524 . S
C1364 H1376 0.956 . S
C1364 H1377 0.961 . S
C1364 H1378 0.961 . S
C1365 C1362 1.539 . S
C1365 H1379 0.958 . S
C1365 H1380 0.961 . S
C1365 H1381 0.960 1_655 S
H1366 C1350 0.931 . S
H1367 C1355 0.929 . S
H1368 C1356 0.960 . S
H1369 C1356 0.962 . S
H1370 C1356 0.960 . S
H1371 C1357 0.961 . S
H1372 C1357 0.961 1_655 S
H1373 C1357 0.961 . S
H1374 C1358 0.931 . S
H1375 C1363 0.930 . S
H1376 C1364 0.956 . S
H1377 C1364 0.961 . S
H1378 C1364 0.961 . S
H1379 C1365 0.958 . S
H1380 C1365 0.961 . S
H1381 C1365 0.960 1_455 S
C1382 C1383 1.391 . S
C1382 C1384 1.394 . S
C1382 H1398 0.931 . S
C1383 C1382 1.391 . S
C1383 C1387 1.376 . S
C1384 C1382 1.394 . S
C1384 C1385 1.369 . S
C1384 C1388 1.531 . S
C1385 C1384 1.369 . S
C1385 C1386 1.410 . S
C1385 C1393 1.503 . S
C1386 C1385 1.410 . S
C1386 C1387 1.392 . S
C1386 C1389 1.511 . S
C1387 C1383 1.376 . S
C1387 C1386 1.392 . S
C1387 H1399 0.929 . S
C1388 C1384 1.531 . S
C1388 H1400 0.960 . S
C1388 H1401 0.962 . S
C1388 H1402 0.960 . S
C1389 C1386 1.511 . S
C1389 H1403 0.961 . S
C1389 H1404 0.961 . S
C1389 H1405 0.961 . S
C1390 C1391 1.370 . S
C1390 C1392 1.363 . S
C1390 H1406 0.931 . S
C1391 C1390 1.370 . S
C1391 C1395 1.408 . S
C1392 C1390 1.363 . S
C1392 C1393 1.370 . S
C1392 C1396 1.524 . S
C1393 C1385 1.503 . S
C1393 C1392 1.370 . S
C1393 C1394 1.403 . S
C1394 C1393 1.403 . S
C1394 C1395 1.404 . S
C1394 C1397 1.539 . S
C1395 C1391 1.408 . S
C1395 C1394 1.404 . S
C1395 H1407 0.930 . S
C1396 C1392 1.524 . S
C1396 H1408 0.956 . S
C1396 H1409 0.961 . S
C1396 H1410 0.961 . S
C1397 C1394 1.539 . S
C1397 H1411 0.958 . S
C1397 H1412 0.961 . S
C1397 H1413 0.960 . S
H1398 C1382 0.931 . S
H1399 C1387 0.929 . S
H1400 C1388 0.960 . S
H1401 C1388 0.962 . S
H1402 C1388 0.960 . S
H1403 C1389 0.961 . S
H1404 C1389 0.961 . S
H1405 C1389 0.961 . S
H1406 C1390 0.931 . S
H1407 C1395 0.930 . S
H1408 C1396 0.956 . S
H1409 C1396 0.961 . S
H1410 C1396 0.961 . S
H1411 C1397 0.958 . S
H1412 C1397 0.961 . S
H1413 C1397 0.960 . S
C1414 C1415 1.391 . S
C1414 C1416 1.394 . S
C1414 H1430 0.931 . S
C1415 C1414 1.391 . S
C1415 C1419 1.376 . S
C1416 C1414 1.394 . S
C1416 C1417 1.369 . S
C1416 C1420 1.531 . S
C1417 C1416 1.369 . S
C1417 C1418 1.410 . S
C1417 C1425 1.503 1_545 S
C1418 C1417 1.410 . S
C1418 C1419 1.392 . S
C1418 C1421 1.511 . S
C1419 C1415 1.376 . S
C1419 C1418 1.392 . S
C1419 H1431 0.929 . S
C1420 C1416 1.531 . S
C1420 H1432 0.960 . S
C1420 H1433 0.962 . S
C1420 H1434 0.960 . S
C1421 C1418 1.511 . S
C1421 H1435 0.961 . S
C1421 H1436 0.961 1_545 S
C1421 H1437 0.961 . S
C1422 C1423 1.370 . S
C1422 C1424 1.363 . S
C1422 H1438 0.931 . S
C1423 C1422 1.370 . S
C1423 C1427 1.408 . S
C1424 C1422 1.363 . S
C1424 C1425 1.370 . S
C1424 C1428 1.524 . S
C1425 C1417 1.503 1_565 S
C1425 C1424 1.370 . S
C1425 C1426 1.403 . S
C1426 C1425 1.403 . S
C1426 C1427 1.404 . S
C1426 C1429 1.539 . S
C1427 C1423 1.408 . S
C1427 C1426 1.404 . S
C1427 H1439 0.930 . S
C1428 C1424 1.524 . S
C1428 H1440 0.956 . S
C1428 H1441 0.961 . S
C1428 H1442 0.961 . S
C1429 C1426 1.539 . S
C1429 H1443 0.958 . S
C1429 H1444 0.961 . S
C1429 H1445 0.960 1_565 S
H1430 C1414 0.931 . S
H1431 C1419 0.929 . S
H1432 C1420 0.960 . S
H1433 C1420 0.962 . S
H1434 C1420 0.960 . S
H1435 C1421 0.961 . S
H1436 C1421 0.961 1_565 S
H1437 C1421 0.961 . S
H1438 C1422 0.931 . S
H1439 C1427 0.930 . S
H1440 C1428 0.956 . S
H1441 C1428 0.961 . S
H1442 C1428 0.961 . S
H1443 C1429 0.958 . S
H1444 C1429 0.961 . S
H1445 C1429 0.960 1_545 S
C1446 C1447 1.391 . S
C1446 C1448 1.394 . S
C1446 H1462 0.931 . S
C1447 C1446 1.391 . S
C1447 C1451 1.376 . S
C1448 C1446 1.394 . S
C1448 C1449 1.369 . S
C1448 C1452 1.531 . S
C1449 C1448 1.369 . S
C1449 C1450 1.410 . S
C1449 C1457 1.503 1_565 S
C1450 C1449 1.410 . S
C1450 C1451 1.392 . S
C1450 C1453 1.511 . S
C1451 C1447 1.376 . S
C1451 C1450 1.392 . S
C1451 H1463 0.929 . S
C1452 C1448 1.531 . S
C1452 H1464 0.961 . S
C1452 H1465 0.962 . S
C1452 H1466 0.960 . S
C1453 C1450 1.511 . S
C1453 H1467 0.961 . S
C1453 H1468 0.961 1_565 S
C1453 H1469 0.961 . S
C1454 C1455 1.370 . S
C1454 C1456 1.363 . S
C1454 H1470 0.931 . S
C1455 C1454 1.370 . S
C1455 C1459 1.408 . S
C1456 C1454 1.363 . S
C1456 C1457 1.370 . S
C1456 C1460 1.524 . S
C1457 C1449 1.503 1_545 S
C1457 C1456 1.370 . S
C1457 C1458 1.403 . S
C1458 C1457 1.403 . S
C1458 C1459 1.404 . S
C1458 C1461 1.539 . S
C1459 C1455 1.408 . S
C1459 C1458 1.404 . S
C1459 H1471 0.930 . S
C1460 C1456 1.524 . S
C1460 H1472 0.956 . S
C1460 H1473 0.961 . S
C1460 H1474 0.961 . S
C1461 C1458 1.539 . S
C1461 H1475 0.958 . S
C1461 H1476 0.961 . S
C1461 H1477 0.960 1_545 S
H1462 C1446 0.931 . S
H1463 C1451 0.929 . S
H1464 C1452 0.961 . S
H1465 C1452 0.962 . S
H1466 C1452 0.960 . S
H1467 C1453 0.961 . S
H1468 C1453 0.961 1_545 S
H1469 C1453 0.961 . S
H1470 C1454 0.931 . S
H1471 C1459 0.930 . S
H1472 C1460 0.956 . S
H1473 C1460 0.961 . S
H1474 C1460 0.961 . S
H1475 C1461 0.958 . S
H1476 C1461 0.961 . S
H1477 C1461 0.960 1_565 S
C1478 C1479 1.391 . S
C1478 C1480 1.394 . S
C1478 H1494 0.931 . S
C1479 C1478 1.391 . S
C1479 C1483 1.376 . S
C1480 C1478 1.394 . S
C1480 C1481 1.369 . S
C1480 C1484 1.531 . S
C1481 C1480 1.369 . S
C1481 C1482 1.410 . S
C1481 C1489 1.503 1_455 S
C1482 C1481 1.410 . S
C1482 C1483 1.392 . S
C1482 C1485 1.511 . S
C1483 C1479 1.376 . S
C1483 C1482 1.392 . S
C1483 H1495 0.929 . S
C1484 C1480 1.531 . S
C1484 H1496 0.960 . S
C1484 H1497 0.962 . S
C1484 H1498 0.960 . S
C1485 C1482 1.511 . S
C1485 H1499 0.961 . S
C1485 H1500 0.961 1_455 S
C1485 H1501 0.961 . S
C1486 C1487 1.370 . S
C1486 C1488 1.363 . S
C1486 H1502 0.931 . S
C1487 C1486 1.370 . S
C1487 C1491 1.408 . S
C1488 C1486 1.363 . S
C1488 C1489 1.370 . S
C1488 C1492 1.524 . S
C1489 C1481 1.503 1_655 S
C1489 C1488 1.370 . S
C1489 C1490 1.403 . S
C1490 C1489 1.403 . S
C1490 C1491 1.404 . S
C1490 C1493 1.539 . S
C1491 C1487 1.408 . S
C1491 C1490 1.404 . S
C1491 H1503 0.930 . S
C1492 C1488 1.524 . S
C1492 H1504 0.956 . S
C1492 H1505 0.961 . S
C1492 H1506 0.961 . S
C1493 C1490 1.539 . S
C1493 H1507 0.958 . S
C1493 H1508 0.961 . S
C1493 H1509 0.960 1_655 S
H1494 C1478 0.931 . S
H1495 C1483 0.929 . S
H1496 C1484 0.960 . S
H1497 C1484 0.962 . S
H1498 C1484 0.960 . S
H1499 C1485 0.961 . S
H1500 C1485 0.961 1_655 S
H1501 C1485 0.961 . S
H1502 C1486 0.931 . S
H1503 C1491 0.930 . S
H1504 C1492 0.956 . S
H1505 C1492 0.961 . S
H1506 C1492 0.961 . S
H1507 C1493 0.958 . S
H1508 C1493 0.961 . S
H1509 C1493 0.960 1_455 S
C1510 C1511 1.391 . S
C1510 C1512 1.394 . S
C1510 H1526 0.931 . S
C1511 C1510 1.391 . S
C1511 C1515 1.376 . S
C1512 C1510 1.394 . S
C1512 C1513 1.369 . S
C1512 C1516 1.531 . S
C1513 C1512 1.369 . S
C1513 C1514 1.410 . S
C1513 C1521 1.503 . S
C1514 C1513 1.410 . S
C1514 C1515 1.392 . S
C1514 C1517 1.511 . S
C1515 C1511 1.376 . S
C1515 C1514 1.392 . S
C1515 H1527 0.929 . S
C1516 C1512 1.531 . S
C1516 H1528 0.960 . S
C1516 H1529 0.962 . S
C1516 H1530 0.960 . S
C1517 C1514 1.511 . S
C1517 H1531 0.961 . S
C1517 H1532 0.961 . S
C1517 H1533 0.961 . S
C1518 C1519 1.370 . S
C1518 C1520 1.363 . S
C1518 H1534 0.931 . S
C1519 C1518 1.370 . S
C1519 C1523 1.408 . S
C1520 C1518 1.363 . S
C1520 C1521 1.370 . S
C1520 C1524 1.524 . S
C1521 C1513 1.503 . S
C1521 C1520 1.370 . S
C1521 C1522 1.403 . S
C1522 C1521 1.403 . S
C1522 C1523 1.404 . S
C1522 C1525 1.539 . S
C1523 C1519 1.408 . S
C1523 C1522 1.404 . S
C1523 H1535 0.930 . S
C1524 C1520 1.524 . S
C1524 H1536 0.956 . S
C1524 H1537 0.961 . S
C1524 H1538 0.961 . S
C1525 C1522 1.539 . S
C1525 H1539 0.958 . S
C1525 H1540 0.961 . S
C1525 H1541 0.960 . S
H1526 C1510 0.931 . S
H1527 C1515 0.929 . S
H1528 C1516 0.960 . S
H1529 C1516 0.962 . S
H1530 C1516 0.960 . S
H1531 C1517 0.961 . S
H1532 C1517 0.961 . S
H1533 C1517 0.961 . S
H1534 C1518 0.931 . S
H1535 C1523 0.930 . S
H1536 C1524 0.956 . S
H1537 C1524 0.961 . S
H1538 C1524 0.961 . S
H1539 C1525 0.958 . S
H1540 C1525 0.961 . S
H1541 C1525 0.960 . S
C1542 C1543 1.391 . S
C1542 C1544 1.394 . S
C1542 H1558 0.931 . S
C1543 C1542 1.391 . S
C1543 C1547 1.376 . S
C1544 C1542 1.394 . S
C1544 C1545 1.369 . S
C1544 C1548 1.531 . S
C1545 C1544 1.369 . S
C1545 C1546 1.410 . S
C1545 C1553 1.503 . S
C1546 C1545 1.410 . S
C1546 C1547 1.392 . S
C1546 C1549 1.511 . S
C1547 C1543 1.376 . S
C1547 C1546 1.392 . S
C1547 H1559 0.929 . S
C1548 C1544 1.531 . S
C1548 H1560 0.960 . S
C1548 H1561 0.962 . S
C1548 H1562 0.960 . S
C1549 C1546 1.511 . S
C1549 H1563 0.961 . S
C1549 H1564 0.961 . S
C1549 H1565 0.961 . S
C1550 C1551 1.370 . S
C1550 C1552 1.363 . S
C1550 H1566 0.931 . S
C1551 C1550 1.370 . S
C1551 C1555 1.408 . S
C1552 C1550 1.363 . S
C1552 C1553 1.370 . S
C1552 C1556 1.524 . S
C1553 C1545 1.503 . S
C1553 C1552 1.370 . S
C1553 C1554 1.403 . S
C1554 C1553 1.403 . S
C1554 C1555 1.404 . S
C1554 C1557 1.539 . S
C1555 C1551 1.408 . S
C1555 C1554 1.404 . S
C1555 H1567 0.930 . S
C1556 C1552 1.524 . S
C1556 H1568 0.956 . S
C1556 H1569 0.961 . S
C1556 H1570 0.961 . S
C1557 C1554 1.539 . S
C1557 H1571 0.958 . S
C1557 H1572 0.961 . S
C1557 H1573 0.960 . S
H1558 C1542 0.931 . S
H1559 C1547 0.929 . S
H1560 C1548 0.960 . S
H1561 C1548 0.962 . S
H1562 C1548 0.960 . S
H1563 C1549 0.961 . S
H1564 C1549 0.961 . S
H1565 C1549 0.961 . S
H1566 C1550 0.931 . S
H1567 C1555 0.930 . S
H1568 C1556 0.956 . S
H1569 C1556 0.961 . S
H1570 C1556 0.961 . S
H1571 C1557 0.958 . S
H1572 C1557 0.961 . S
H1573 C1557 0.960 . S
C1574 C1575 1.391 . S
C1574 C1576 1.394 . S
C1574 H1590 0.931 . S
C1575 C1574 1.391 . S
C1575 C1579 1.376 . S
C1576 C1574 1.394 . S
C1576 C1577 1.369 . S
C1576 C1580 1.531 . S
C1577 C1576 1.369 . S
C1577 C1578 1.410 . S
C1577 C1585 1.503 . S
C1578 C1577 1.410 . S
C1578 C1579 1.392 . S
C1578 C1581 1.511 . S
C1579 C1575 1.376 . S
C1579 C1578 1.392 . S
C1579 H1591 0.929 . S
C1580 C1576 1.531 . S
C1580 H1592 0.960 . S
C1580 H1593 0.962 . S
C1580 H1594 0.960 . S
C1581 C1578 1.511 . S
C1581 H1595 0.961 . S
C1581 H1596 0.961 . S
C1581 H1597 0.961 . S
C1582 C1583 1.370 . S
C1582 C1584 1.363 . S
C1582 H1598 0.931 . S
C1583 C1582 1.370 . S
C1583 C1587 1.408 . S
C1584 C1582 1.363 . S
C1584 C1585 1.370 . S
C1584 C1588 1.524 . S
C1585 C1577 1.503 . S
C1585 C1584 1.370 . S
C1585 C1586 1.403 . S
C1586 C1585 1.403 . S
C1586 C1587 1.404 . S
C1586 C1589 1.539 . S
C1587 C1583 1.408 . S
C1587 C1586 1.404 . S
C1587 H1599 0.930 . S
C1588 C1584 1.524 . S
C1588 H1600 0.956 . S
C1588 H1601 0.961 . S
C1588 H1602 0.961 . S
C1589 C1586 1.539 . S
C1589 H1603 0.958 . S
C1589 H1604 0.961 . S
C1589 H1605 0.960 . S
H1590 C1574 0.931 . S
H1591 C1579 0.929 . S
H1592 C1580 0.960 . S
H1593 C1580 0.962 . S
H1594 C1580 0.960 . S
H1595 C1581 0.961 . S
H1596 C1581 0.961 . S
H1597 C1581 0.961 . S
H1598 C1582 0.931 . S
H1599 C1587 0.930 . S
H1600 C1588 0.956 . S
H1601 C1588 0.961 . S
H1602 C1588 0.961 . S
H1603 C1589 0.958 . S
H1604 C1589 0.961 . S
H1605 C1589 0.960 . S
C1606 C1607 1.391 . S
C1606 C1608 1.394 . S
C1606 H1622 0.931 . S
C1607 C1606 1.391 . S
C1607 C1611 1.376 . S
C1608 C1606 1.394 . S
C1608 C1609 1.369 . S
C1608 C1612 1.531 . S
C1609 C1608 1.369 . S
C1609 C1610 1.410 . S
C1609 C1617 1.503 . S
C1610 C1609 1.410 . S
C1610 C1611 1.392 . S
C1610 C1613 1.511 . S
C1611 C1607 1.376 . S
C1611 C1610 1.392 . S
C1611 H1623 0.929 . S
C1612 C1608 1.531 . S
C1612 H1624 0.960 . S
C1612 H1625 0.962 . S
C1612 H1626 0.960 . S
C1613 C1610 1.511 . S
C1613 H1627 0.961 . S
C1613 H1628 0.961 . S
C1613 H1629 0.961 . S
C1614 C1615 1.370 . S
C1614 C1616 1.363 . S
C1614 H1630 0.931 . S
C1615 C1614 1.370 . S
C1615 C1619 1.408 . S
C1616 C1614 1.363 . S
C1616 C1617 1.370 . S
C1616 C1620 1.524 . S
C1617 C1609 1.503 . S
C1617 C1616 1.370 . S
C1617 C1618 1.403 . S
C1618 C1617 1.403 . S
C1618 C1619 1.404 . S
C1618 C1621 1.539 . S
C1619 C1615 1.408 . S
C1619 C1618 1.404 . S
C1619 H1631 0.930 . S
C1620 C1616 1.524 . S
C1620 H1632 0.956 . S
C1620 H1633 0.961 . S
C1620 H1634 0.961 . S
C1621 C1618 1.539 . S
C1621 H1635 0.958 . S
C1621 H1636 0.961 . S
C1621 H1637 0.960 . S
H1622 C1606 0.931 . S
H1623 C1611 0.929 . S
H1624 C1612 0.960 . S
H1625 C1612 0.962 . S
H1626 C1612 0.960 . S
H1627 C1613 0.961 . S
H1628 C1613 0.961 . S
H1629 C1613 0.961 . S
H1630 C1614 0.931 . S
H1631 C1619 0.930 . S
H1632 C1620 0.956 . S
H1633 C1620 0.961 . S
H1634 C1620 0.961 . S
H1635 C1621 0.958 . S
H1636 C1621 0.961 . S
H1637 C1621 0.960 . S
C1638 C1639 1.391 . S
C1638 C1640 1.394 . S
C1638 H1654 0.931 . S
C1639 C1638 1.391 . S
C1639 C1643 1.376 . S
C1640 C1638 1.394 . S
C1640 C1641 1.369 . S
C1640 C1644 1.531 . S
C1641 C1640 1.369 . S
C1641 C1642 1.410 . S
C1641 C1649 1.503 . S
C1642 C1641 1.410 . S
C1642 C1643 1.392 . S
C1642 C1645 1.511 . S
C1643 C1639 1.376 . S
C1643 C1642 1.392 . S
C1643 H1655 0.929 . S
C1644 C1640 1.531 . S
C1644 H1656 0.960 . S
C1644 H1657 0.962 . S
C1644 H1658 0.960 . S
C1645 C1642 1.511 . S
C1645 H1659 0.961 . S
C1645 H1660 0.961 . S
C1645 H1661 0.961 . S
C1646 C1647 1.370 . S
C1646 C1648 1.363 . S
C1646 H1662 0.931 . S
C1647 C1646 1.370 . S
C1647 C1651 1.408 . S
C1648 C1646 1.363 . S
C1648 C1649 1.370 . S
C1648 C1652 1.524 . S
C1649 C1641 1.503 . S
C1649 C1648 1.370 . S
C1649 C1650 1.403 . S
C1650 C1649 1.403 . S
C1650 C1651 1.404 . S
C1650 C1653 1.539 . S
C1651 C1647 1.408 . S
C1651 C1650 1.404 . S
C1651 H1663 0.930 . S
C1652 C1648 1.524 . S
C1652 H1664 0.956 . S
C1652 H1665 0.961 . S
C1652 H1666 0.961 . S
C1653 C1650 1.539 . S
C1653 H1667 0.958 . S
C1653 H1668 0.961 . S
C1653 H1669 0.960 . S
H1654 C1638 0.931 . S
H1655 C1643 0.929 . S
H1656 C1644 0.960 . S
H1657 C1644 0.962 . S
H1658 C1644 0.960 . S
H1659 C1645 0.961 . S
H1660 C1645 0.961 . S
H1661 C1645 0.961 . S
H1662 C1646 0.931 . S
H1663 C1651 0.930 . S
H1664 C1652 0.956 . S
H1665 C1652 0.961 . S
H1666 C1652 0.961 . S
H1667 C1653 0.958 . S
H1668 C1653 0.961 . S
H1669 C1653 0.960 . S
C1670 C1671 1.391 . S
C1670 C1672 1.394 . S
C1670 H1686 0.931 . S
C1671 C1670 1.391 . S
C1671 C1675 1.376 . S
C1672 C1670 1.394 . S
C1672 C1673 1.369 . S
C1672 C1676 1.531 . S
C1673 C1672 1.369 . S
C1673 C1674 1.410 . S
C1673 C1681 1.503 . S
C1674 C1673 1.410 . S
C1674 C1675 1.392 . S
C1674 C1677 1.511 . S
C1675 C1671 1.376 . S
C1675 C1674 1.392 . S
C1675 H1687 0.929 . S
C1676 C1672 1.531 . S
C1676 H1688 0.960 . S
C1676 H1689 0.962 . S
C1676 H1690 0.960 . S
C1677 C1674 1.511 . S
C1677 H1691 0.961 . S
C1677 H1692 0.961 . S
C1677 H1693 0.961 . S
C1678 C1679 1.370 . S
C1678 C1680 1.363 . S
C1678 H1694 0.931 . S
C1679 C1678 1.370 . S
C1679 C1683 1.408 . S
C1680 C1678 1.363 . S
C1680 C1681 1.370 . S
C1680 C1684 1.524 . S
C1681 C1673 1.503 . S
C1681 C1680 1.370 . S
C1681 C1682 1.403 . S
C1682 C1681 1.403 . S
C1682 C1683 1.404 . S
C1682 C1685 1.539 . S
C1683 C1679 1.408 . S
C1683 C1682 1.404 . S
C1683 H1695 0.930 . S
C1684 C1680 1.524 . S
C1684 H1696 0.956 . S
C1684 H1697 0.961 . S
C1684 H1698 0.961 . S
C1685 C1682 1.539 . S
C1685 H1699 0.958 . S
C1685 H1700 0.961 . S
C1685 H1701 0.960 . S
H1686 C1670 0.931 . S
H1687 C1675 0.929 . S
H1688 C1676 0.960 . S
H1689 C1676 0.962 . S
H1690 C1676 0.960 . S
H1691 C1677 0.961 . S
H1692 C1677 0.961 . S
H1693 C1677 0.961 . S
H1694 C1678 0.931 . S
H1695 C1683 0.930 . S
H1696 C1684 0.956 . S
H1697 C1684 0.961 . S
H1698 C1684 0.961 . S
H1699 C1685 0.958 . S
H1700 C1685 0.961 . S
H1701 C1685 0.960 . S
C1702 C1703 1.391 . S
C1702 C1704 1.394 . S
C1702 H1718 0.931 . S
C1703 C1702 1.391 . S
C1703 C1707 1.376 . S
C1704 C1702 1.394 . S
C1704 C1705 1.369 . S
C1704 C1708 1.531 . S
C1705 C1704 1.369 . S
C1705 C1706 1.410 . S
C1705 C1713 1.503 . S
C1706 C1705 1.410 . S
C1706 C1707 1.392 . S
C1706 C1709 1.511 . S
C1707 C1703 1.376 . S
C1707 C1706 1.392 . S
C1707 H1719 0.929 . S
C1708 C1704 1.531 . S
C1708 H1720 0.960 . S
C1708 H1721 0.962 . S
C1708 H1722 0.960 . S
C1709 C1706 1.511 . S
C1709 H1723 0.961 . S
C1709 H1724 0.961 . S
C1709 H1725 0.961 . S
C1710 C1711 1.370 . S
C1710 C1712 1.363 . S
C1710 H1726 0.931 . S
C1711 C1710 1.370 . S
C1711 C1715 1.408 . S
C1712 C1710 1.363 . S
C1712 C1713 1.370 . S
C1712 C1716 1.524 . S
C1713 C1705 1.503 . S
C1713 C1712 1.370 . S
C1713 C1714 1.403 . S
C1714 C1713 1.403 . S
C1714 C1715 1.404 . S
C1714 C1717 1.539 . S
C1715 C1711 1.408 . S
C1715 C1714 1.404 . S
C1715 H1727 0.930 . S
C1716 C1712 1.524 . S
C1716 H1728 0.956 . S
C1716 H1729 0.961 . S
C1716 H1730 0.961 . S
C1717 C1714 1.539 . S
C1717 H1731 0.958 . S
C1717 H1732 0.961 . S
C1717 H1733 0.960 . S
H1718 C1702 0.931 . S
H1719 C1707 0.929 . S
H1720 C1708 0.960 . S
H1721 C1708 0.962 . S
H1722 C1708 0.960 . S
H1723 C1709 0.961 . S
H1724 C1709 0.961 . S
H1725 C1709 0.961 . S
H1726 C1710 0.931 . S
H1727 C1715 0.930 . S
H1728 C1716 0.956 . S
H1729 C1716 0.961 . S
H1730 C1716 0.961 . S
H1731 C1717 0.958 . S
H1732 C1717 0.961 . S
H1733 C1717 0.960 . S
C1734 C1735 1.391 . S
C1734 C1736 1.394 . S
C1734 H1750 0.931 . S
C1735 C1734 1.391 . S
C1735 C1739 1.376 . S
C1736 C1734 1.394 . S
C1736 C1737 1.369 . S
C1736 C1740 1.531 . S
C1737 C1736 1.369 . S
C1737 C1738 1.410 . S
C1737 C1745 1.503 . S
C1738 C1737 1.410 . S
C1738 C1739 1.392 . S
C1738 C1741 1.511 . S
C1739 C1735 1.376 . S
C1739 C1738 1.392 . S
C1739 H1751 0.929 . S
C1740 C1736 1.531 . S
C1740 H1752 0.960 . S
C1740 H1753 0.962 . S
C1740 H1754 0.960 . S
C1741 C1738 1.511 . S
C1741 H1755 0.961 . S
C1741 H1756 0.961 . S
C1741 H1757 0.961 . S
C1742 C1743 1.370 . S
C1742 C1744 1.363 . S
C1742 H1758 0.931 . S
C1743 C1742 1.370 . S
C1743 C1747 1.408 . S
C1744 C1742 1.363 . S
C1744 C1745 1.370 . S
C1744 C1748 1.524 . S
C1745 C1737 1.503 . S
C1745 C1744 1.370 . S
C1745 C1746 1.403 . S
C1746 C1745 1.403 . S
C1746 C1747 1.404 . S
C1746 C1749 1.539 . S
C1747 C1743 1.408 . S
C1747 C1746 1.404 . S
C1747 H1759 0.930 . S
C1748 C1744 1.524 . S
C1748 H1760 0.956 . S
C1748 H1761 0.961 . S
C1748 H1762 0.961 . S
C1749 C1746 1.539 . S
C1749 H1763 0.958 . S
C1749 H1764 0.961 . S
C1749 H1765 0.960 . S
H1750 C1734 0.931 . S
H1751 C1739 0.929 . S
H1752 C1740 0.960 . S
H1753 C1740 0.962 . S
H1754 C1740 0.960 . S
H1755 C1741 0.961 . S
H1756 C1741 0.961 . S
H1757 C1741 0.961 . S
H1758 C1742 0.931 . S
H1759 C1747 0.930 . S
H1760 C1748 0.956 . S
H1761 C1748 0.961 . S
H1762 C1748 0.961 . S
H1763 C1749 0.958 . S
H1764 C1749 0.961 . S
H1765 C1749 0.960 . S
C1766 C1767 1.391 . S
C1766 C1768 1.394 . S
C1766 H1782 0.931 . S
C1767 C1766 1.391 . S
C1767 C1771 1.376 . S
C1768 C1766 1.394 . S
C1768 C1769 1.369 . S
C1768 C1772 1.531 . S
C1769 C1768 1.369 . S
C1769 C1770 1.410 . S
C1769 C1777 1.503 . S
C1770 C1769 1.410 . S
C1770 C1771 1.392 . S
C1770 C1773 1.511 . S
C1771 C1767 1.376 . S
C1771 C1770 1.392 . S
C1771 H1783 0.929 . S
C1772 C1768 1.531 . S
C1772 H1784 0.960 . S
C1772 H1785 0.962 . S
C1772 H1786 0.960 . S
C1773 C1770 1.511 . S
C1773 H1787 0.961 . S
C1773 H1788 0.961 . S
C1773 H1789 0.961 . S
C1774 C1775 1.370 . S
C1774 C1776 1.363 . S
C1774 H1790 0.931 . S
C1775 C1774 1.370 . S
C1775 C1779 1.408 . S
C1776 C1774 1.363 . S
C1776 C1777 1.370 . S
C1776 C1780 1.524 . S
C1777 C1769 1.503 . S
C1777 C1776 1.370 . S
C1777 C1778 1.403 . S
C1778 C1777 1.403 . S
C1778 C1779 1.404 . S
C1778 C1781 1.539 . S
C1779 C1775 1.408 . S
C1779 C1778 1.404 . S
C1779 H1791 0.930 . S
C1780 C1776 1.524 . S
C1780 H1792 0.956 . S
C1780 H1793 0.961 . S
C1780 H1794 0.961 . S
C1781 C1778 1.539 . S
C1781 H1795 0.958 . S
C1781 H1796 0.961 . S
C1781 H1797 0.960 . S
H1782 C1766 0.931 . S
H1783 C1771 0.929 . S
H1784 C1772 0.960 . S
H1785 C1772 0.962 . S
H1786 C1772 0.960 . S
H1787 C1773 0.961 . S
H1788 C1773 0.961 . S
H1789 C1773 0.961 . S
H1790 C1774 0.931 . S
H1791 C1779 0.930 . S
H1792 C1780 0.956 . S
H1793 C1780 0.961 . S
H1794 C1780 0.961 . S
H1795 C1781 0.958 . S
H1796 C1781 0.961 . S
H1797 C1781 0.960 . S
C1798 C1799 1.391 . S
C1798 C1800 1.394 . S
C1798 H1814 0.931 . S
C1799 C1798 1.391 . S
C1799 C1803 1.376 . S
C1800 C1798 1.394 . S
C1800 C1801 1.369 . S
C1800 C1804 1.531 . S
C1801 C1800 1.369 . S
C1801 C1802 1.410 . S
C1801 C1809 1.503 . S
C1802 C1801 1.410 . S
C1802 C1803 1.392 . S
C1802 C1805 1.511 . S
C1803 C1799 1.376 . S
C1803 C1802 1.392 . S
C1803 H1815 0.929 . S
C1804 C1800 1.531 . S
C1804 H1816 0.960 . S
C1804 H1817 0.962 . S
C1804 H1818 0.960 . S
C1805 C1802 1.511 . S
C1805 H1819 0.961 . S
C1805 H1820 0.961 . S
C1805 H1821 0.961 . S
C1806 C1807 1.370 . S
C1806 C1808 1.363 . S
C1806 H1822 0.931 . S
C1807 C1806 1.370 . S
C1807 C1811 1.408 . S
C1808 C1806 1.363 . S
C1808 C1809 1.370 . S
C1808 C1812 1.524 . S
C1809 C1801 1.503 . S
C1809 C1808 1.370 . S
C1809 C1810 1.403 . S
C1810 C1809 1.403 . S
C1810 C1811 1.404 . S
C1810 C1813 1.539 . S
C1811 C1807 1.408 . S
C1811 C1810 1.404 . S
C1811 H1823 0.930 . S
C1812 C1808 1.524 . S
C1812 H1824 0.956 . S
C1812 H1825 0.961 . S
C1812 H1826 0.961 . S
C1813 C1810 1.539 . S
C1813 H1827 0.958 . S
C1813 H1828 0.961 . S
C1813 H1829 0.960 . S
H1814 C1798 0.931 . S
H1815 C1803 0.929 . S
H1816 C1804 0.960 . S
H1817 C1804 0.962 . S
H1818 C1804 0.960 . S
H1819 C1805 0.961 . S
H1820 C1805 0.961 . S
H1821 C1805 0.961 . S
H1822 C1806 0.931 . S
H1823 C1811 0.930 . S
H1824 C1812 0.956 . S
H1825 C1812 0.961 . S
H1826 C1812 0.961 . S
H1827 C1813 0.958 . S
H1828 C1813 0.961 . S
H1829 C1813 0.960 . S
C1830 C1831 1.391 . S
C1830 C1832 1.394 . S
C1830 H1846 0.931 . S
C1831 C1830 1.391 . S
C1831 C1835 1.376 . S
C1832 C1830 1.394 . S
C1832 C1833 1.369 . S
C1832 C1836 1.531 . S
C1833 C1832 1.369 . S
C1833 C1834 1.410 . S
C1833 C1841 1.503 . S
C1834 C1833 1.410 . S
C1834 C1835 1.392 . S
C1834 C1837 1.511 . S
C1835 C1831 1.376 . S
C1835 C1834 1.392 . S
C1835 H1847 0.929 . S
C1836 C1832 1.531 . S
C1836 H1848 0.960 . S
C1836 H1849 0.962 . S
C1836 H1850 0.960 . S
C1837 C1834 1.511 . S
C1837 H1851 0.961 . S
C1837 H1852 0.961 . S
C1837 H1853 0.961 . S
C1838 C1839 1.370 . S
C1838 C1840 1.363 . S
C1838 H1854 0.931 . S
C1839 C1838 1.370 . S
C1839 C1843 1.408 . S
C1840 C1838 1.363 . S
C1840 C1841 1.370 . S
C1840 C1844 1.524 . S
C1841 C1833 1.503 . S
C1841 C1840 1.370 . S
C1841 C1842 1.403 . S
C1842 C1841 1.403 . S
C1842 C1843 1.404 . S
C1842 C1845 1.539 . S
C1843 C1839 1.408 . S
C1843 C1842 1.404 . S
C1843 H1855 0.930 . S
C1844 C1840 1.524 . S
C1844 H1856 0.956 . S
C1844 H1857 0.961 . S
C1844 H1858 0.961 . S
C1845 C1842 1.539 . S
C1845 H1859 0.958 . S
C1845 H1860 0.961 . S
C1845 H1861 0.960 . S
H1846 C1830 0.931 . S
H1847 C1835 0.929 . S
H1848 C1836 0.960 . S
H1849 C1836 0.962 . S
H1850 C1836 0.960 . S
H1851 C1837 0.961 . S
H1852 C1837 0.961 . S
H1853 C1837 0.961 . S
H1854 C1838 0.931 . S
H1855 C1843 0.930 . S
H1856 C1844 0.956 . S
H1857 C1844 0.961 . S
H1858 C1844 0.961 . S
H1859 C1845 0.958 . S
H1860 C1845 0.961 . S
H1861 C1845 0.960 . S
C1862 C1863 1.391 . S
C1862 C1864 1.394 . S
C1862 H1878 0.931 . S
C1863 C1862 1.391 . S
C1863 C1867 1.376 . S
C1864 C1862 1.394 . S
C1864 C1865 1.369 . S
C1864 C1868 1.531 . S
C1865 C1864 1.369 . S
C1865 C1866 1.410 . S
C1865 C1873 1.503 . S
C1866 C1865 1.410 . S
C1866 C1867 1.392 . S
C1866 C1869 1.511 . S
C1867 C1863 1.376 . S
C1867 C1866 1.392 . S
C1867 H1879 0.929 . S
C1868 C1864 1.531 . S
C1868 H1880 0.960 . S
C1868 H1881 0.962 . S
C1868 H1882 0.960 . S
C1869 C1866 1.511 . S
C1869 H1883 0.961 . S
C1869 H1884 0.961 . S
C1869 H1885 0.961 . S
C1870 C1871 1.370 . S
C1870 C1872 1.363 . S
C1870 H1886 0.931 . S
C1871 C1870 1.370 . S
C1871 C1875 1.408 . S
C1872 C1870 1.363 . S
C1872 C1873 1.370 . S
C1872 C1876 1.524 . S
C1873 C1865 1.503 . S
C1873 C1872 1.370 . S
C1873 C1874 1.403 . S
C1874 C1873 1.403 . S
C1874 C1875 1.404 . S
C1874 C1877 1.539 . S
C1875 C1871 1.408 . S
C1875 C1874 1.404 . S
C1875 H1887 0.930 . S
C1876 C1872 1.524 . S
C1876 H1888 0.956 . S
C1876 H1889 0.961 . S
C1876 H1890 0.961 . S
C1877 C1874 1.539 . S
C1877 H1891 0.958 . S
C1877 H1892 0.961 . S
C1877 H1893 0.960 . S
H1878 C1862 0.931 . S
H1879 C1867 0.929 . S
H1880 C1868 0.960 . S
H1881 C1868 0.962 . S
H1882 C1868 0.960 . S
H1883 C1869 0.961 . S
H1884 C1869 0.961 . S
H1885 C1869 0.961 . S
H1886 C1870 0.931 . S
H1887 C1875 0.930 . S
H1888 C1876 0.956 . S
H1889 C1876 0.961 . S
H1890 C1876 0.961 . S
H1891 C1877 0.958 . S
H1892 C1877 0.961 . S
H1893 C1877 0.960 . S
C1894 C1895 1.391 . S
C1894 C1896 1.394 . S
C1894 H1910 0.931 . S
C1895 C1894 1.391 . S
C1895 C1899 1.376 . S
C1896 C1894 1.394 . S
C1896 C1897 1.369 . S
C1896 C1900 1.531 . S
C1897 C1896 1.369 . S
C1897 C1898 1.410 . S
C1897 C1905 1.503 . S
C1898 C1897 1.410 . S
C1898 C1899 1.392 . S
C1898 C1901 1.511 . S
C1899 C1895 1.376 . S
C1899 C1898 1.392 . S
C1899 H1911 0.929 . S
C1900 C1896 1.531 . S
C1900 H1912 0.960 . S
C1900 H1913 0.962 . S
C1900 H1914 0.960 . S
C1901 C1898 1.511 . S
C1901 H1915 0.961 . S
C1901 H1916 0.961 . S
C1901 H1917 0.961 . S
C1902 C1903 1.370 . S
C1902 C1904 1.363 . S
C1902 H1918 0.931 . S
C1903 C1902 1.370 . S
C1903 C1907 1.408 . S
C1904 C1902 1.363 . S
C1904 C1905 1.370 . S
C1904 C1908 1.524 . S
C1905 C1897 1.503 . S
C1905 C1904 1.370 . S
C1905 C1906 1.403 . S
C1906 C1905 1.403 . S
C1906 C1907 1.404 . S
C1906 C1909 1.539 . S
C1907 C1903 1.408 . S
C1907 C1906 1.404 . S
C1907 H1919 0.930 . S
C1908 C1904 1.524 . S
C1908 H1920 0.956 . S
C1908 H1921 0.961 . S
C1908 H1922 0.961 . S
C1909 C1906 1.539 . S
C1909 H1923 0.958 . S
C1909 H1924 0.961 . S
C1909 H1925 0.960 . S
H1910 C1894 0.931 . S
H1911 C1899 0.929 . S
H1912 C1900 0.960 . S
H1913 C1900 0.962 . S
H1914 C1900 0.960 . S
H1915 C1901 0.961 . S
H1916 C1901 0.961 . S
H1917 C1901 0.961 . S
H1918 C1902 0.931 . S
H1919 C1907 0.930 . S
H1920 C1908 0.956 . S
H1921 C1908 0.961 . S
H1922 C1908 0.961 . S
H1923 C1909 0.958 . S
H1924 C1909 0.961 . S
H1925 C1909 0.960 . S
C1926 C1927 1.391 . S
C1926 C1928 1.394 . S
C1926 H1942 0.931 . S
C1927 C1926 1.391 . S
C1927 C1931 1.376 . S
C1928 C1926 1.394 . S
C1928 C1929 1.369 . S
C1928 C1932 1.531 . S
C1929 C1928 1.369 . S
C1929 C1930 1.410 . S
C1929 C1937 1.503 1_554 S
C1930 C1929 1.410 . S
C1930 C1931 1.392 . S
C1930 C1933 1.511 . S
C1931 C1927 1.376 . S
C1931 C1930 1.392 . S
C1931 H1943 0.929 . S
C1932 C1928 1.531 . S
C1932 H1944 0.960 1_554 S
C1932 H1945 0.956 1_554 S
C1932 H1946 0.960 . S
C1933 C1930 1.511 . S
C1933 H1947 0.961 . S
C1933 H1948 0.961 . S
C1933 H1949 0.961 . S
C1934 C1935 1.370 . S
C1934 C1936 1.363 . S
C1934 H1950 0.931 . S
C1935 C1934 1.370 . S
C1935 C1939 1.408 . S
C1936 C1934 1.363 . S
C1936 C1937 1.370 . S
C1936 C1940 1.524 . S
C1937 C1929 1.503 1_556 S
C1937 C1936 1.370 . S
C1937 C1938 1.403 . S
C1938 C1937 1.403 . S
C1938 C1939 1.404 . S
C1938 C1941 1.539 . S
C1939 C1935 1.408 . S
C1939 C1938 1.404 . S
C1939 H1951 0.930 . S
C1940 C1936 1.524 . S
C1940 H1952 0.956 . S
C1940 H1953 0.961 1_556 S
C1940 H1954 0.961 . S
C1941 C1938 1.539 . S
C1941 H1955 0.958 . S
C1941 H1956 0.961 . S
C1941 H1957 0.960 1_556 S
H1942 C1926 0.931 . S
H1943 C1931 0.929 . S
H1944 C1932 0.960 1_556 S
H1945 C1932 0.956 1_556 S
H1946 C1932 0.960 . S
H1947 C1933 0.961 . S
H1948 C1933 0.961 . S
H1949 C1933 0.961 . S
H1950 C1934 0.931 . S
H1951 C1939 0.930 . S
H1952 C1940 0.956 . S
H1953 C1940 0.961 1_554 S
H1954 C1940 0.961 . S
H1955 C1941 0.958 . S
H1956 C1941 0.961 . S
H1957 C1941 0.960 1_554 S
C1958 C1959 1.391 1_565 S
C1958 C1960 1.394 . S
C1958 H1974 0.931 . S
C1959 C1958 1.391 1_545 S
C1959 C1963 1.376 . S
C1960 C1958 1.394 . S
C1960 C1961 1.369 . S
C1960 C1964 1.531 . S
C1961 C1960 1.369 . S
C1961 C1962 1.410 1_565 S
C1961 C1969 1.503 1_556 S
C1962 C1961 1.410 1_545 S
C1962 C1963 1.392 . S
C1962 C1965 1.511 . S
C1963 C1959 1.376 . S
C1963 C1962 1.392 . S
C1963 H1975 0.929 . S
C1964 C1960 1.531 . S
C1964 H1976 0.960 . S
C1964 H1977 0.962 . S
C1964 H1978 0.960 . S
C1965 C1962 1.511 . S
C1965 H1979 0.961 . S
C1965 H1980 0.961 1_556 S
C1965 H1981 0.961 . S
C1966 C1967 1.370 1_545 S
C1966 C1968 1.363 . S
C1966 H1982 0.931 . S
C1967 C1966 1.370 1_565 S
C1967 C1971 1.408 . S
C1968 C1966 1.363 . S
C1968 C1969 1.370 1_545 S
C1968 C1972 1.524 . S
C1969 C1961 1.503 1_554 S
C1969 C1968 1.370 1_565 S
C1969 C1970 1.403 . S
C1970 C1969 1.403 . S
C1970 C1971 1.404 . S
C1970 C1973 1.539 . S
C1971 C1967 1.408 . S
C1971 C1970 1.404 . S
C1971 H1983 0.930 . S
C1972 C1968 1.524 . S
C1972 H1984 0.956 . S
C1972 H1985 0.961 . S
C1972 H1986 0.961 . S
C1973 C1970 1.539 . S
C1973 H1987 0.958 . S
C1973 H1988 0.961 . S
C1973 H1989 0.960 1_554 S
H1974 C1958 0.931 . S
H1975 C1963 0.929 . S
H1976 C1964 0.960 . S
H1977 C1964 0.962 . S
H1978 C1964 0.960 . S
H1979 C1965 0.961 . S
H1980 C1965 0.961 1_554 S
H1981 C1965 0.961 . S
H1982 C1966 0.931 . S
H1983 C1971 0.930 . S
H1984 C1972 0.956 . S
H1985 C1972 0.961 . S
H1986 C1972 0.961 . S
H1987 C1973 0.958 . S
H1988 C1973 0.961 . S
H1989 C1973 0.960 1_556 S
C1990 C1991 1.391 1_455 S
C1990 C1992 1.394 . S
C1990 H2006 0.931 . S
C1991 C1990 1.391 1_655 S
C1991 C1995 1.376 . S
C1992 C1990 1.394 . S
C1992 C1993 1.369 1_455 S
C1992 C1996 1.531 . S
C1993 C1992 1.369 1_655 S
C1993 C1994 1.410 . S
C1993 C2001 1.503 1_656 S
C1994 C1993 1.410 . S
C1994 C1995 1.392 . S
C1994 C1997 1.511 . S
C1995 C1991 1.376 . S
C1995 C1994 1.392 . S
C1995 H2007 0.929 . S
C1996 C1992 1.531 . S
C1996 H2008 0.960 . S
C1996 H2009 0.962 . S
C1996 H2010 0.960 . S
C1997 C1994 1.511 . S
C1997 H2011 0.961 . S
C1997 H2012 0.961 1_556 S
C1997 H2013 0.961 . S
C1998 C1999 1.370 . S
C1998 C2000 1.363 . S
C1998 H2014 0.931 . S
C1999 C1998 1.370 . S
C1999 C2003 1.408 . S
C2000 C1998 1.363 . S
C2000 C2001 1.370 . S
C2000 C2004 1.524 . S
C2001 C1993 1.503 1_454 S
C2001 C2000 1.370 . S
C2001 C2002 1.403 . S
C2002 C2001 1.403 . S
C2002 C2003 1.404 . S
C2002 C2005 1.539 1_455 S
C2003 C1999 1.408 . S
C2003 C2002 1.404 . S
C2003 H2015 0.930 . S
C2004 C2000 1.524 . S
C2004 H2016 0.956 1_554 S
C2004 H2017 0.963 1_455 S
C2004 H2018 0.961 . S
C2005 C2002 1.539 1_655 S
C2005 H2019 0.958 1_655 S
C2005 H2020 0.961 . S
C2005 H2021 0.960 . S
H2006 C1990 0.931 . S
H2007 C1995 0.929 . S
H2008 C1996 0.960 . S
H2009 C1996 0.962 . S
H2010 C1996 0.960 . S
H2011 C1997 0.961 . S
H2012 C1997 0.961 1_554 S
H2013 C1997 0.961 . S
H2014 C1998 0.931 . S
H2015 C2003 0.930 . S
H2016 C2004 0.956 1_556 S
H2017 C2004 0.963 1_655 S
H2018 C2004 0.961 . S
H2019 C2005 0.958 1_455 S
H2020 C2005 0.961 . S
H2021 C2005 0.960 . S
C2022 C2023 1.391 . S
C2022 C2024 1.394 . S
C2022 H2038 0.931 . S
C2023 C2022 1.391 . S
C2023 C2027 1.376 . S
C2024 C2022 1.394 . S
C2024 C2025 1.369 . S
C2024 C2028 1.531 . S
C2025 C2024 1.369 . S
C2025 C2026 1.410 . S
C2025 C2033 1.503 . S
C2026 C2025 1.410 . S
C2026 C2027 1.392 . S
C2026 C2029 1.511 . S
C2027 C2023 1.376 . S
C2027 C2026 1.392 . S
C2027 H2039 0.929 . S
C2028 C2024 1.531 . S
C2028 H2040 0.960 . S
C2028 H2041 0.962 . S
C2028 H2042 0.960 . S
C2029 C2026 1.511 . S
C2029 H2043 0.961 . S
C2029 H2044 0.961 . S
C2029 H2045 0.961 . S
C2030 C2031 1.370 . S
C2030 C2032 1.363 . S
C2030 H2046 0.931 . S
C2031 C2030 1.370 . S
C2031 C2035 1.408 . S
C2032 C2030 1.363 . S
C2032 C2033 1.370 . S
C2032 C2036 1.524 . S
C2033 C2025 1.503 . S
C2033 C2032 1.370 . S
C2033 C2034 1.403 . S
C2034 C2033 1.403 . S
C2034 C2035 1.404 . S
C2034 C2037 1.539 . S
C2035 C2031 1.408 . S
C2035 C2034 1.404 . S
C2035 H2047 0.930 . S
C2036 C2032 1.524 . S
C2036 H2048 0.956 . S
C2036 H2049 0.961 . S
C2036 H2050 0.961 . S
C2037 C2034 1.539 . S
C2037 H2051 0.958 . S
C2037 H2052 0.961 . S
C2037 H2053 0.960 . S
H2038 C2022 0.931 . S
H2039 C2027 0.929 . S
H2040 C2028 0.960 . S
H2041 C2028 0.962 . S
H2042 C2028 0.960 . S
H2043 C2029 0.961 . S
H2044 C2029 0.961 . S
H2045 C2029 0.961 . S
H2046 C2030 0.931 . S
H2047 C2035 0.930 . S
H2048 C2036 0.956 . S
H2049 C2036 0.961 . S
H2050 C2036 0.961 . S
H2051 C2037 0.958 . S
H2052 C2037 0.961 . S
H2053 C2037 0.960 . S
C2054 C2055 1.391 . S
C2054 C2056 1.394 . S
C2054 H2070 0.931 . S
C2055 C2054 1.391 . S
C2055 C2059 1.376 . S
C2056 C2054 1.394 . S
C2056 C2057 1.369 . S
C2056 C2060 1.531 . S
C2057 C2056 1.369 . S
C2057 C2058 1.410 . S
C2057 C2065 1.503 . S
C2058 C2057 1.410 . S
C2058 C2059 1.392 . S
C2058 C2061 1.511 . S
C2059 C2055 1.376 . S
C2059 C2058 1.392 . S
C2059 H2071 0.929 . S
C2060 C2056 1.531 . S
C2060 H2072 0.960 . S
C2060 H2073 0.962 . S
C2060 H2074 0.960 . S
C2061 C2058 1.511 . S
C2061 H2075 0.961 . S
C2061 H2076 0.961 . S
C2061 H2077 0.961 . S
C2062 C2063 1.370 . S
C2062 C2064 1.363 . S
C2062 H2078 0.931 . S
C2063 C2062 1.370 . S
C2063 C2067 1.408 . S
C2064 C2062 1.363 . S
C2064 C2065 1.370 . S
C2064 C2068 1.524 . S
C2065 C2057 1.503 . S
C2065 C2064 1.370 . S
C2065 C2066 1.403 . S
C2066 C2065 1.403 . S
C2066 C2067 1.404 . S
C2066 C2069 1.539 . S
C2067 C2063 1.408 . S
C2067 C2066 1.404 . S
C2067 H2079 0.930 . S
C2068 C2064 1.524 . S
C2068 H2080 0.956 . S
C2068 H2081 0.961 . S
C2068 H2082 0.961 . S
C2069 C2066 1.539 . S
C2069 H2083 0.958 . S
C2069 H2084 0.961 . S
C2069 H2085 0.960 . S
H2070 C2054 0.931 . S
H2071 C2059 0.929 . S
H2072 C2060 0.960 . S
H2073 C2060 0.962 . S
H2074 C2060 0.960 . S
H2075 C2061 0.961 . S
H2076 C2061 0.961 . S
H2077 C2061 0.961 . S
H2078 C2062 0.931 . S
H2079 C2067 0.930 . S
H2080 C2068 0.956 . S
H2081 C2068 0.961 . S
H2082 C2068 0.961 . S
H2083 C2069 0.958 . S
H2084 C2069 0.961 . S
H2085 C2069 0.960 . S
C2086 C2087 1.391 . S
C2086 C2088 1.394 . S
C2086 H2102 0.931 . S
C2087 C2086 1.391 . S
C2087 C2091 1.376 . S
C2088 C2086 1.394 . S
C2088 C2089 1.369 . S
C2088 C2092 1.531 . S
C2089 C2088 1.369 . S
C2089 C2090 1.410 . S
C2089 C2097 1.503 . S
C2090 C2089 1.410 . S
C2090 C2091 1.392 . S
C2090 C2093 1.511 . S
C2091 C2087 1.376 . S
C2091 C2090 1.392 . S
C2091 H2103 0.929 . S
C2092 C2088 1.531 . S
C2092 H2104 0.960 . S
C2092 H2105 0.962 . S
C2092 H2106 0.960 . S
C2093 C2090 1.511 . S
C2093 H2107 0.961 . S
C2093 H2108 0.961 . S
C2093 H2109 0.961 . S
C2094 C2095 1.370 . S
C2094 C2096 1.363 . S
C2094 H2110 0.931 . S
C2095 C2094 1.370 . S
C2095 C2099 1.408 . S
C2096 C2094 1.363 . S
C2096 C2097 1.370 . S
C2096 C2100 1.524 . S
C2097 C2089 1.503 . S
C2097 C2096 1.370 . S
C2097 C2098 1.403 . S
C2098 C2097 1.403 . S
C2098 C2099 1.404 . S
C2098 C2101 1.539 . S
C2099 C2095 1.408 . S
C2099 C2098 1.404 . S
C2099 H2111 0.930 . S
C2100 C2096 1.524 . S
C2100 H2112 0.956 . S
C2100 H2113 0.961 . S
C2100 H2114 0.961 . S
C2101 C2098 1.539 . S
C2101 H2115 0.958 . S
C2101 H2116 0.961 . S
C2101 H2117 0.960 . S
H2102 C2086 0.931 . S
H2103 C2091 0.929 . S
H2104 C2092 0.960 . S
H2105 C2092 0.962 . S
H2106 C2092 0.960 . S
H2107 C2093 0.961 . S
H2108 C2093 0.961 . S
H2109 C2093 0.961 . S
H2110 C2094 0.931 . S
H2111 C2099 0.930 . S
H2112 C2100 0.956 . S
H2113 C2100 0.961 . S
H2114 C2100 0.961 . S
H2115 C2101 0.958 . S
H2116 C2101 0.961 . S
H2117 C2101 0.960 . S
C2118 C2119 1.391 . S
C2118 C2120 1.394 . S
C2118 H2134 0.931 . S
C2119 C2118 1.391 . S
C2119 C2123 1.376 . S
C2120 C2118 1.394 . S
C2120 C2121 1.369 . S
C2120 C2124 1.531 . S
C2121 C2120 1.369 . S
C2121 C2122 1.410 . S
C2121 C2129 1.503 . S
C2122 C2121 1.410 . S
C2122 C2123 1.392 . S
C2122 C2125 1.511 . S
C2123 C2119 1.376 . S
C2123 C2122 1.392 . S
C2123 H2135 0.929 . S
C2124 C2120 1.531 . S
C2124 H2136 0.960 . S
C2124 H2137 0.962 . S
C2124 H2138 0.960 . S
C2125 C2122 1.511 . S
C2125 H2139 0.961 . S
C2125 H2140 0.961 . S
C2125 H2141 0.961 . S
C2126 C2127 1.370 . S
C2126 C2128 1.363 . S
C2126 H2142 0.931 . S
C2127 C2126 1.370 . S
C2127 C2131 1.408 . S
C2128 C2126 1.363 . S
C2128 C2129 1.370 . S
C2128 C2132 1.524 . S
C2129 C2121 1.503 . S
C2129 C2128 1.370 . S
C2129 C2130 1.403 . S
C2130 C2129 1.403 . S
C2130 C2131 1.404 . S
C2130 C2133 1.539 . S
C2131 C2127 1.408 . S
C2131 C2130 1.404 . S
C2131 H2143 0.930 . S
C2132 C2128 1.524 . S
C2132 H2144 0.956 . S
C2132 H2145 0.961 . S
C2132 H2146 0.961 . S
C2133 C2130 1.539 . S
C2133 H2147 0.958 . S
C2133 H2148 0.961 . S
C2133 H2149 0.960 . S
H2134 C2118 0.931 . S
H2135 C2123 0.929 . S
H2136 C2124 0.960 . S
H2137 C2124 0.962 . S
H2138 C2124 0.960 . S
H2139 C2125 0.961 . S
H2140 C2125 0.961 . S
H2141 C2125 0.961 . S
H2142 C2126 0.931 . S
H2143 C2131 0.930 . S
H2144 C2132 0.956 . S
H2145 C2132 0.961 . S
H2146 C2132 0.961 . S
H2147 C2133 0.958 . S
H2148 C2133 0.961 . S
H2149 C2133 0.960 . S
C2150 C2151 1.391 . S
C2150 C2152 1.394 . S
C2150 H2166 0.931 . S
C2151 C2150 1.391 . S
C2151 C2155 1.376 . S
C2152 C2150 1.394 . S
C2152 C2153 1.369 . S
C2152 C2156 1.531 . S
C2153 C2152 1.369 . S
C2153 C2154 1.410 . S
C2153 C2161 1.503 . S
C2154 C2153 1.410 . S
C2154 C2155 1.392 . S
C2154 C2157 1.511 . S
C2155 C2151 1.376 . S
C2155 C2154 1.392 . S
C2155 H2167 0.929 . S
C2156 C2152 1.531 . S
C2156 H2168 0.960 . S
C2156 H2169 0.962 . S
C2156 H2170 0.960 . S
C2157 C2154 1.511 . S
C2157 H2171 0.961 . S
C2157 H2172 0.961 . S
C2157 H2173 0.961 . S
C2158 C2159 1.370 . S
C2158 C2160 1.363 . S
C2158 H2174 0.931 . S
C2159 C2158 1.370 . S
C2159 C2163 1.408 . S
C2160 C2158 1.363 . S
C2160 C2161 1.370 . S
C2160 C2164 1.524 . S
C2161 C2153 1.503 . S
C2161 C2160 1.370 . S
C2161 C2162 1.403 . S
C2162 C2161 1.403 . S
C2162 C2163 1.404 . S
C2162 C2165 1.539 . S
C2163 C2159 1.408 . S
C2163 C2162 1.404 . S
C2163 H2175 0.930 . S
C2164 C2160 1.524 . S
C2164 H2176 0.956 . S
C2164 H2177 0.961 . S
C2164 H2178 0.961 . S
C2165 C2162 1.539 . S
C2165 H2179 0.958 . S
C2165 H2180 0.961 . S
C2165 H2181 0.960 . S
H2166 C2150 0.931 . S
H2167 C2155 0.929 . S
H2168 C2156 0.960 . S
H2169 C2156 0.962 . S
H2170 C2156 0.960 . S
H2171 C2157 0.961 . S
H2172 C2157 0.961 . S
H2173 C2157 0.961 . S
H2174 C2158 0.931 . S
H2175 C2163 0.930 . S
H2176 C2164 0.956 . S
H2177 C2164 0.961 . S
H2178 C2164 0.961 . S
H2179 C2165 0.958 . S
H2180 C2165 0.961 . S
H2181 C2165 0.960 . S
C2182 C2183 1.391 . S
C2182 C2184 1.394 . S
C2182 H2198 0.931 . S
C2183 C2182 1.391 . S
C2183 C2187 1.376 . S
C2184 C2182 1.394 . S
C2184 C2185 1.369 . S
C2184 C2188 1.531 . S
C2185 C2184 1.369 . S
C2185 C2186 1.410 . S
C2185 C2193 1.503 . S
C2186 C2185 1.410 . S
C2186 C2187 1.392 . S
C2186 C2189 1.511 . S
C2187 C2183 1.376 . S
C2187 C2186 1.392 . S
C2187 H2199 0.929 . S
C2188 C2184 1.531 . S
C2188 H2200 0.960 . S
C2188 H2201 0.962 . S
C2188 H2202 0.960 . S
C2189 C2186 1.511 . S
C2189 H2203 0.961 . S
C2189 H2204 0.961 . S
C2189 H2205 0.961 . S
C2190 C2191 1.370 . S
C2190 C2192 1.363 . S
C2190 H2206 0.931 . S
C2191 C2190 1.370 . S
C2191 C2195 1.408 . S
C2192 C2190 1.363 . S
C2192 C2193 1.370 . S
C2192 C2196 1.524 . S
C2193 C2185 1.503 . S
C2193 C2192 1.370 . S
C2193 C2194 1.403 . S
C2194 C2193 1.403 . S
C2194 C2195 1.404 . S
C2194 C2197 1.539 . S
C2195 C2191 1.408 . S
C2195 C2194 1.404 . S
C2195 H2207 0.930 . S
C2196 C2192 1.524 . S
C2196 H2208 0.956 . S
C2196 H2209 0.961 . S
C2196 H2210 0.961 . S
C2197 C2194 1.539 . S
C2197 H2211 0.958 . S
C2197 H2212 0.961 . S
C2197 H2213 0.960 . S
H2198 C2182 0.931 . S
H2199 C2187 0.929 . S
H2200 C2188 0.960 . S
H2201 C2188 0.962 . S
H2202 C2188 0.960 . S
H2203 C2189 0.961 . S
H2204 C2189 0.961 . S
H2205 C2189 0.961 . S
H2206 C2190 0.931 . S
H2207 C2195 0.930 . S
H2208 C2196 0.956 . S
H2209 C2196 0.961 . S
H2210 C2196 0.961 . S
H2211 C2197 0.958 . S
H2212 C2197 0.961 . S
H2213 C2197 0.960 . S
C1063 C595 1.158 . S
C1071 C5 1.173 . S
C1095 C64 1.144 . S
C1103 C654 1.173 . S
C1127 C536 1.150 . S
C1135 C123 1.174 . S
C1159 C831 1.150 . S
C1167 C182 1.162 . S
C1191 C241 1.145 . S
C1199 C713 1.165 . S
C1223 C772 1.173 . S
C1231 C300 1.168 . S
C1255 C359 1.174 . S
C1263 C949 1.156 . S
C1287 C1008 1.161 . S
C1295 C418 1.172 . S
C1319 C477 1.152 . S
C1327 C890 1.173 . S
C1351 C52 1.257 . S
C1359 C92 1.235 . S
C1383 C111 1.253 . S
C1391 C151 1.235 . S
C1415 C33 1.197 . S
C1423 C170 1.259 . S
C1447 C328 1.184 . S
C1455 C229 1.256 . S
C1479 C210 1.203 . S
C1487 C288 1.260 . S
C1511 C347 1.229 . S
C1519 C269 1.206 . S
C1543 C406 1.237 . S
C1551 C446 1.203 . S
C1575 C465 1.241 . S
C1583 C505 1.202 . S
C1607 C387 1.233 . S
C1615 C524 1.245 . S
C1639 C682 1.238 . S
C1647 C583 1.246 . S
C1671 C564 1.254 . S
C1679 C642 1.252 . S
C1703 C623 1.194 . S
C1711 C701 1.259 . S
C1735 C800 1.242 . S
C1743 C760 1.247 . S
C1767 C859 1.221 . S
C1775 C819 1.262 . S
C1799 C741 1.175 . S
C1807 C878 1.249 . S
C1831 C937 1.254 . S
C1839 C1036 1.204 . S
C1863 C996 1.241 . S
C1871 C918 1.232 . S
C1895 C1055 1.252 . S
C1903 C977 1.235 . S
C1927 C3 1.829 . S
C1935 C180 1.822 . S
C1959 C239 1.785 . S
C1967 C62 1.809 . S
C1991 C298 1.785 . S
C1999 C121 1.801 . S
C2023 C534 1.806 . S
C2031 C357 1.819 . S
C2055 C593 1.795 . S
C2063 C416 1.814 . S
C2087 C475 1.807 . S
C2095 C652 1.819 . S
C2119 C888 1.807 . S
C2127 C711 1.819 . S
C2151 C947 1.785 . S
C2159 C770 1.808 . S
C2183 C1006 1.783 . S
C2191 C829 1.802 . S
