# Generated by pormake.
# Topology whk, (6)-cn, num edge types: 1
# Building blocks:
#     Node 0, Type 0, BuildingBlock: OJICUG_clean_sbu_0, # of connection points: 6
#     Node 1, Type 0, BuildingBlock: OJICUG_clean_sbu_0, # of connection points: 6
#     Node 2, Type 0, BuildingBlock: OJICUG_clean_sbu_0, # of connection points: 6
#     Node 3, Type 0, BuildingBlock: OJICUG_clean_sbu_0, # of connection points: 6
#     Node 4, Type 0, BuildingBlock: OJICUG_clean_sbu_0, # of connection points: 6
#     Node 5, Type 0, BuildingBlock: OJICUG_clean_sbu_0, # of connection points: 6
#     Node 6, Type 0, BuildingBlock: OJICUG_clean_sbu_0, # of connection points: 6
#     Node 7, Type 0, BuildingBlock: OJICUG_clean_sbu_0, # of connection points: 6
#     Node 8, Type 0, BuildingBlock: OJICUG_clean_sbu_0, # of connection points: 6
#     Node 9, Type 0, BuildingBlock: OJICUG_clean_sbu_0, # of connection points: 6
#     Node 10, Type 0, BuildingBlock: OJICUG_clean_sbu_0, # of connection points: 6
#     Node 11, Type 0, BuildingBlock: OJICUG_clean_sbu_0, # of connection points: 6
#     Node 12, Type 0, BuildingBlock: OJICUG_clean_sbu_0, # of connection points: 6
#     Node 13, Type 0, BuildingBlock: OJICUG_clean_sbu_0, # of connection points: 6
#     Node 14, Type 0, BuildingBlock: OJICUG_clean_sbu_0, # of connection points: 6
#     Node 15, Type 0, BuildingBlock: OJICUG_clean_sbu_0, # of connection points: 6
#     Edge 16, Type (0, 0), BuildingBlock: MIFKUJ_clean_linker_0, # of connection points: 2
#     Edge 17, Type (0, 0), BuildingBlock: MIFKUJ_clean_linker_0, # of connection points: 2
#     Edge 18, Type (0, 0), BuildingBlock: MIFKUJ_clean_linker_0, # of connection points: 2
#     Edge 19, Type (0, 0), BuildingBlock: MIFKUJ_clean_linker_0, # of connection points: 2
#     Edge 20, Type (0, 0), BuildingBlock: MIFKUJ_clean_linker_0, # of connection points: 2
#     Edge 21, Type (0, 0), BuildingBlock: MIFKUJ_clean_linker_0, # of connection points: 2
#     Edge 22, Type (0, 0), BuildingBlock: MIFKUJ_clean_linker_0, # of connection points: 2
#     Edge 23, Type (0, 0), BuildingBlock: MIFKUJ_clean_linker_0, # of connection points: 2
#     Edge 24, Type (0, 0), BuildingBlock: MIFKUJ_clean_linker_0, # of connection points: 2
#     Edge 25, Type (0, 0), BuildingBlock: MIFKUJ_clean_linker_0, # of connection points: 2
#     Edge 26, Type (0, 0), BuildingBlock: MIFKUJ_clean_linker_0, # of connection points: 2
#     Edge 27, Type (0, 0), BuildingBlock: MIFKUJ_clean_linker_0, # of connection points: 2
#     Edge 28, Type (0, 0), BuildingBlock: MIFKUJ_clean_linker_0, # of connection points: 2
#     Edge 29, Type (0, 0), BuildingBlock: MIFKUJ_clean_linker_0, # of connection points: 2
#     Edge 30, Type (0, 0), BuildingBlock: MIFKUJ_clean_linker_0, # of connection points: 2
#     Edge 31, Type (0, 0), BuildingBlock: MIFKUJ_clean_linker_0, # of connection points: 2
#     Edge 32, Type (0, 0), BuildingBlock: MIFKUJ_clean_linker_0, # of connection points: 2
#     Edge 33, Type (0, 0), BuildingBlock: MIFKUJ_clean_linker_0, # of connection points: 2
#     Edge 34, Type (0, 0), BuildingBlock: MIFKUJ_clean_linker_0, # of connection points: 2
#     Edge 35, Type (0, 0), BuildingBlock: MIFKUJ_clean_linker_0, # of connection points: 2
#     Edge 36, Type (0, 0), BuildingBlock: MIFKUJ_clean_linker_0, # of connection points: 2
#     Edge 37, Type (0, 0), BuildingBlock: MIFKUJ_clean_linker_0, # of connection points: 2
#     Edge 38, Type (0, 0), BuildingBlock: MIFKUJ_clean_linker_0, # of connection points: 2
#     Edge 39, Type (0, 0), BuildingBlock: MIFKUJ_clean_linker_0, # of connection points: 2
#     Edge 40, Type (0, 0), BuildingBlock: MIFKUJ_clean_linker_0, # of connection points: 2
#     Edge 41, Type (0, 0), BuildingBlock: MIFKUJ_clean_linker_0, # of connection points: 2
#     Edge 42, Type (0, 0), BuildingBlock: MIFKUJ_clean_linker_0, # of connection points: 2
#     Edge 43, Type (0, 0), BuildingBlock: MIFKUJ_clean_linker_0, # of connection points: 2
#     Edge 44, Type (0, 0), BuildingBlock: MIFKUJ_clean_linker_0, # of connection points: 2
#     Edge 45, Type (0, 0), BuildingBlock: MIFKUJ_clean_linker_0, # of connection points: 2
#     Edge 46, Type (0, 0), BuildingBlock: MIFKUJ_clean_linker_0, # of connection points: 2
#     Edge 47, Type (0, 0), BuildingBlock: MIFKUJ_clean_linker_0, # of connection points: 2
#     Edge 48, Type (0, 0), BuildingBlock: MIFKUJ_clean_linker_0, # of connection points: 2
#     Edge 49, Type (0, 0), BuildingBlock: MIFKUJ_clean_linker_0, # of connection points: 2
#     Edge 50, Type (0, 0), BuildingBlock: MIFKUJ_clean_linker_0, # of connection points: 2
#     Edge 51, Type (0, 0), BuildingBlock: MIFKUJ_clean_linker_0, # of connection points: 2
#     Edge 52, Type (0, 0), BuildingBlock: MIFKUJ_clean_linker_0, # of connection points: 2
#     Edge 53, Type (0, 0), BuildingBlock: MIFKUJ_clean_linker_0, # of connection points: 2
#     Edge 54, Type (0, 0), BuildingBlock: MIFKUJ_clean_linker_0, # of connection points: 2
#     Edge 55, Type (0, 0), BuildingBlock: MIFKUJ_clean_linker_0, # of connection points: 2
#     Edge 56, Type (0, 0), BuildingBlock: MIFKUJ_clean_linker_0, # of connection points: 2
#     Edge 57, Type (0, 0), BuildingBlock: MIFKUJ_clean_linker_0, # of connection points: 2
#     Edge 58, Type (0, 0), BuildingBlock: MIFKUJ_clean_linker_0, # of connection points: 2
#     Edge 59, Type (0, 0), BuildingBlock: MIFKUJ_clean_linker_0, # of connection points: 2
#     Edge 60, Type (0, 0), BuildingBlock: MIFKUJ_clean_linker_0, # of connection points: 2
#     Edge 61, Type (0, 0), BuildingBlock: MIFKUJ_clean_linker_0, # of connection points: 2
#     Edge 62, Type (0, 0), BuildingBlock: MIFKUJ_clean_linker_0, # of connection points: 2
#     Edge 63, Type (0, 0), BuildingBlock: MIFKUJ_clean_linker_0, # of connection points: 2
# Relax obj value: 0.277
# Max RMSD: 0.215
# Mean RMSD: 0.215
data_MOF--net-whk--node1-OJICUG_clean_sbu_0--edge1-MIFKUJ_clean_linker_0
_symmetry_space_group_name_H-M    P1
_symmetry_Int_Tables_number       1
_symmetry_cell_setting            triclinic
loop_
_symmetry_equiv_pos_as_xyz
'x, y, z'
_cell_length_a     46.33333
_cell_length_b     46.408551
_cell_length_c     69.627622
_cell_angle_alpha  90.029999
_cell_angle_beta   90.01825
_cell_angle_gamma 89.955442
loop_
_atom_site_label
_atom_site_type_symbol
_atom_site_fract_x
_atom_site_fract_y
_atom_site_fract_z
_atom_type_partial_charge
Sc0 Sc 0.57455 0.14053 0.39423 0.0
Sc1 Sc 0.58573 0.21443 0.38438 0.0
Sc2 Sc 0.53336 0.19328 0.41806 0.0
O3 O 0.56428 0.18279 0.39864 0.0
C4 C 0.506 0.13895 0.39608 0.0
C5 C 0.58463 0.16496 0.35194 0.0
C6 C 0.52159 0.23822 0.38366 0.0
C7 C 0.63521 0.1716 0.39873 0.0
C8 C 0.56555 0.14206 0.43956 0.0
C9 C 0.5783 0.2435 0.42604 0.0
O10 O 0.52977 0.12895 0.3897 0.0
O11 O 0.58672 0.19126 0.35704 0.0
O12 O 0.51414 0.22424 0.39865 0.0
O13 O 0.61988 0.14886 0.39902 0.0
O14 O 0.55078 0.16511 0.43992 0.0
O15 O 0.58932 0.24249 0.40932 0.0
O16 O 0.57308 0.12991 0.42406 0.0
O17 O 0.62595 0.19606 0.39325 0.0
O18 O 0.55854 0.22641 0.43136 0.0
O19 O 0.57945 0.14494 0.36382 0.0
O20 O 0.50462 0.16103 0.40689 0.0
O21 O 0.54641 0.23578 0.3759 0.0
Sc22 Sc 0.35398 0.56597 0.39148 0.0
Sc23 Sc 0.28139 0.57052 0.37684 0.0
Sc24 Sc 0.30211 0.52046 0.41209 0.0
O25 O 0.31251 0.55192 0.39319 0.0
C26 C 0.36195 0.49825 0.39382 0.0
C27 C 0.33309 0.57026 0.34723 0.0
C28 C 0.26055 0.50466 0.37736 0.0
C29 C 0.3189 0.624 0.39086 0.0
C30 C 0.34673 0.55724 0.43667 0.0
C31 C 0.24933 0.56404 0.41713 0.0
O32 O 0.36992 0.52257 0.38714 0.0
O33 O 0.30634 0.5667 0.35073 0.0
O34 O 0.27665 0.49709 0.39132 0.0
O35 O 0.34047 0.60967 0.39676 0.0
O36 O 0.32425 0.54178 0.43534 0.0
O37 O 0.25347 0.57735 0.40139 0.0
O38 O 0.36157 0.56427 0.42207 0.0
O39 O 0.29799 0.613 0.38163 0.0
O40 O 0.26433 0.54242 0.42217 0.0
O41 O 0.35201 0.57153 0.36051 0.0
O42 O 0.33919 0.49511 0.40388 0.0
O43 O 0.26018 0.53022 0.37076 0.0
Sc44 Sc 0.92397 0.35619 0.3931 0.0
Sc45 Sc 0.91932 0.28636 0.37538 0.0
Sc46 Sc 0.96868 0.3032 0.4115 0.0
O47 O 0.93832 0.31528 0.39288 0.0
C48 C 0.99086 0.36401 0.39442 0.0
C49 C 0.9202 0.33853 0.34817 0.0
C50 C 0.98449 0.2631 0.3769 0.0
C51 C 0.86817 0.32033 0.39223 0.0
C52 C 0.93469 0.34707 0.4375 0.0
C53 C 0.92235 0.25217 0.4147 0.0
O54 O 0.96695 0.37171 0.38677 0.0
O55 O 0.92887 0.31264 0.35047 0.0
O56 O 0.99276 0.28089 0.38967 0.0
O57 O 0.88246 0.33925 0.4013 0.0
O58 O 0.94637 0.3226 0.43532 0.0
O59 O 0.90802 0.25896 0.39967 0.0
O60 O 0.93055 0.36403 0.42346 0.0
O61 O 0.87828 0.30826 0.37735 0.0
O62 O 0.94607 0.26431 0.41923 0.0
O63 O 0.91423 0.35488 0.3624 0.0
O64 O 0.99334 0.34173 0.40512 0.0
O65 O 0.95838 0.26156 0.37127 0.0
Sc66 Sc 0.19679 0.97501 0.41271 0.0
Sc67 Sc 0.21807 0.92665 0.3764 0.0
Sc68 Sc 0.14455 0.9328 0.38931 0.0
O69 O 0.1865 0.94501 0.39263 0.0
C70 C 0.14922 0.93853 0.43496 0.0
C71 C 0.24855 0.9302 0.4176 0.0
C72 C 0.17766 0.87335 0.38734 0.0
C73 C 0.23997 0.99177 0.37873 0.0
C74 C 0.13933 0.00082 0.39366 0.0
C75 C 0.16723 0.93062 0.34565 0.0
O76 O 0.17155 0.95435 0.43477 0.0
O77 O 0.24587 0.91897 0.401 0.0
O78 O 0.15548 0.88787 0.39197 0.0
O79 O 0.22476 0.99809 0.39337 0.0
O80 O 0.13026 0.97704 0.38679 0.0
O81 O 0.19399 0.93101 0.34987 0.0
O82 O 0.16203 0.0027 0.40388 0.0
O83 O 0.23948 0.96701 0.37086 0.0
O84 O 0.14752 0.93091 0.35838 0.0
O85 O 0.23258 0.95063 0.42344 0.0
O86 O 0.13614 0.9312 0.4197 0.0
O87 O 0.20062 0.88449 0.38069 0.0
Sc88 Sc 0.07976 0.85228 0.11202 0.0
Sc89 Sc 0.0903 0.78098 0.12808 0.0
Sc90 Sc 0.03989 0.79642 0.09176 0.0
O91 O 0.06962 0.80978 0.11092 0.0
C92 C 0.01194 0.85421 0.10952 0.0
C93 C 0.08608 0.83389 0.15648 0.0
C94 C 0.0257 0.75615 0.12738 0.0
C95 C 0.14036 0.82178 0.11244 0.0
C96 C 0.07271 0.84323 0.06706 0.0
C97 C 0.08691 0.74593 0.08875 0.0
O98 O 0.03522 0.86384 0.11689 0.0
O99 O 0.08428 0.80685 0.15364 0.0
O100 O 0.01774 0.77083 0.11286 0.0
O101 O 0.12403 0.84175 0.10629 0.0
O102 O 0.06088 0.81872 0.06855 0.0
O103 O 0.0995 0.7515 0.10458 0.0
O104 O 0.07622 0.8597 0.08144 0.0
O105 O 0.13154 0.80092 0.12276 0.0
O106 O 0.06488 0.75975 0.08298 0.0
O107 O 0.08634 0.85198 0.14276 0.0
O108 O 0.01128 0.83195 0.09875 0.0
O109 O 0.05111 0.75748 0.13437 0.0
Sc110 Sc 0.70164 0.0148 0.09897 0.0
Sc111 Sc 0.72429 0.06284 0.13485 0.0
Sc112 Sc 0.65249 0.06269 0.11968 0.0
O113 O 0.69286 0.04624 0.11808 0.0
C114 C 0.65709 0.05184 0.07477 0.0
C115 C 0.75594 0.05679 0.09444 0.0
C116 C 0.69044 0.1178 0.11967 0.0
C117 C 0.74327 0.99632 0.13292 0.0
C118 C 0.6416 0.99595 0.11889 0.0
C119 C 0.67348 0.06751 0.16376 0.0
O120 O 0.68032 0.03747 0.07587 0.0
O121 O 0.75185 0.07004 0.11023 0.0
O122 O 0.66887 0.10448 0.11278 0.0
O123 O 0.72619 0.98969 0.11929 0.0
O124 O 0.63553 0.02064 0.12588 0.0
O125 O 0.69902 0.05825 0.16094 0.0
O126 O 0.66307 0.99154 0.1077 0.0
O127 O 0.74477 0.02169 0.13982 0.0
O128 O 0.65586 0.07193 0.15006 0.0
O129 O 0.74065 0.03544 0.08912 0.0
O130 O 0.64242 0.0582 0.08955 0.0
O131 O 0.70856 0.10609 0.13099 0.0
Sc132 Sc 0.46723 0.70357 0.09435 0.0
Sc133 Sc 0.41084 0.71653 0.12698 0.0
Sc134 Sc 0.42992 0.6454 0.11431 0.0
O135 O 0.43616 0.68858 0.1121 0.0
C136 C 0.4427 0.65241 0.06939 0.0
C137 C 0.41664 0.7493 0.08693 0.0
C138 C 0.36626 0.66938 0.11141 0.0
C139 C 0.47329 0.74614 0.12974 0.0
C140 C 0.49789 0.64923 0.11447 0.0
C141 C 0.41703 0.6664 0.15768 0.0
O142 O 0.45219 0.67798 0.07065 0.0
O143 O 0.40202 0.7428 0.10179 0.0
O144 O 0.38496 0.65049 0.10687 0.0
O145 O 0.48425 0.73137 0.11617 0.0
O146 O 0.47493 0.63792 0.12117 0.0
O147 O 0.41574 0.69317 0.15374 0.0
O148 O 0.49755 0.67116 0.10351 0.0
O149 O 0.44695 0.74388 0.13483 0.0
O150 O 0.4207 0.64724 0.1448 0.0
O151 O 0.4409 0.73783 0.0832 0.0
O152 O 0.43716 0.63718 0.08411 0.0
O153 O 0.37236 0.6926 0.12026 0.0
Sc154 Sc 0.79946 0.48637 0.09395 0.0
Sc155 Sc 0.77736 0.44364 0.13303 0.0
Sc156 Sc 0.84714 0.43509 0.11371 0.0
O157 O 0.80805 0.45533 0.11374 0.0
C158 C 0.83608 0.4424 0.0685 0.0
C159 C 0.7398 0.4529 0.09473 0.0
C160 C 0.80214 0.38436 0.11686 0.0
C161 C 0.76659 0.51101 0.13125 0.0
C162 C 0.86331 0.5014 0.10888 0.0
C163 C 0.83351 0.43538 0.15904 0.0
O164 O 0.81728 0.46217 0.07006 0.0
O165 O 0.74356 0.44284 0.11154 0.0
O166 O 0.82662 0.39369 0.1115 0.0
O167 O 0.77833 0.51378 0.11479 0.0
O168 O 0.86937 0.47624 0.11515 0.0
O169 O 0.80695 0.44182 0.1572 0.0
O170 O 0.83976 0.5073 0.10027 0.0
O171 O 0.76643 0.4873 0.14042 0.0
O172 O 0.85007 0.43194 0.14466 0.0
O173 O 0.75839 0.46846 0.08626 0.0
O174 O 0.8497 0.43245 0.08285 0.0
O175 O 0.78393 0.39925 0.12622 0.0
Sc176 Sc 0.46971 0.79748 0.59299 0.0
Sc177 Sc 0.41641 0.78521 0.62736 0.0
Sc178 Sc 0.42827 0.85418 0.60961 0.0
O179 O 0.43912 0.81221 0.61053 0.0
C180 C 0.49544 0.85646 0.61115 0.0
C181 C 0.47996 0.75744 0.62864 0.0
C182 C 0.41846 0.83777 0.65422 0.0
C183 C 0.41986 0.74993 0.58853 0.0
C184 C 0.44179 0.84376 0.56593 0.0
C185 C 0.36994 0.82236 0.60746 0.0
O186 O 0.49694 0.8341 0.60037 0.0
O187 O 0.45345 0.75803 0.63355 0.0
O188 O 0.41503 0.85426 0.63971 0.0
O189 O 0.44463 0.76028 0.5845 0.0
O190 O 0.43899 0.86135 0.57975 0.0
O191 O 0.37714 0.80959 0.62286 0.0
O192 O 0.45055 0.81822 0.56852 0.0
O193 O 0.40532 0.75806 0.60312 0.0
O194 O 0.38658 0.8404 0.59941 0.0
O195 O 0.49023 0.7737 0.61563 0.0
O196 O 0.4716 0.8661 0.61788 0.0
O197 O 0.42536 0.81131 0.65238 0.0
Sc198 Sc 0.64706 0.43156 0.62531 0.0
Sc199 Sc 0.72175 0.4238 0.63432 0.0
Sc200 Sc 0.69729 0.47324 0.59947 0.0
O201 O 0.68875 0.44303 0.61988 0.0
C202 C 0.64754 0.43643 0.57945 0.0
C203 C 0.67878 0.37112 0.62683 0.0
C204 C 0.74797 0.42788 0.59179 0.0
C205 C 0.6744 0.42973 0.66764 0.0
C206 C 0.6417 0.49967 0.62043 0.0
C207 C 0.74463 0.48877 0.63111 0.0
O208 O 0.63646 0.4283 0.59524 0.0
O209 O 0.70326 0.38175 0.63099 0.0
O210 O 0.73173 0.44867 0.58689 0.0
O211 O 0.65318 0.43173 0.65609 0.0
O212 O 0.66401 0.50178 0.60988 0.0
O213 O 0.74448 0.46396 0.63895 0.0
O214 O 0.63303 0.47577 0.62723 0.0
O215 O 0.70053 0.42792 0.662 0.0
O216 O 0.72779 0.49556 0.61739 0.0
O217 O 0.65642 0.38624 0.62379 0.0
O218 O 0.66923 0.45312 0.57871 0.0
O219 O 0.74655 0.41607 0.60829 0.0
Sc220 Sc 0.07795 0.64401 0.61703 0.0
Sc221 Sc 0.08749 0.71685 0.62999 0.0
Sc222 Sc 0.03521 0.6974 0.59558 0.0
O223 O 0.06658 0.68616 0.61443 0.0
C224 C 0.06658 0.64786 0.57199 0.0
C225 C 0.13838 0.67479 0.61609 0.0
C226 C 0.08255 0.74647 0.58858 0.0
C227 C 0.08573 0.66649 0.66052 0.0
C228 C 0.00955 0.64094 0.61631 0.0
C229 C 0.0231 0.7423 0.62933 0.0
O230 O 0.07432 0.63436 0.58695 0.0
O231 O 0.1291 0.69718 0.62471 0.0
O232 O 0.06051 0.7319 0.58365 0.0
O233 O 0.08553 0.64723 0.64752 0.0
O234 O 0.00715 0.66349 0.60595 0.0
O235 O 0.04853 0.74101 0.63627 0.0
O236 O 0.03376 0.63143 0.62234 0.0
O237 O 0.08298 0.69325 0.65685 0.0
O238 O 0.01483 0.7265 0.61545 0.0
O239 O 0.12223 0.65401 0.61107 0.0
O240 O 0.05277 0.67141 0.57279 0.0
O241 O 0.09497 0.74343 0.60479 0.0
Sc242 Sc 0.85783 0.07155 0.61591 0.0
Sc243 Sc 0.78798 0.07393 0.63358 0.0
Sc244 Sc 0.80497 0.02875 0.59479 0.0
O245 O 0.81696 0.05701 0.61504 0.0
C246 C 0.8503 0.06528 0.57073 0.0
C247 C 0.82268 0.12719 0.62084 0.0
C248 C 0.75638 0.07807 0.59343 0.0
C249 C 0.83937 0.06897 0.6609 0.0
C250 C 0.86484 0.00396 0.61207 0.0
C251 C 0.76154 0.01069 0.62752 0.0
O252 O 0.8657 0.0708 0.58533 0.0
O253 O 0.81017 0.11473 0.6347 0.0
O254 O 0.76835 0.05523 0.58699 0.0
O255 O 0.8561 0.07635 0.64715 0.0
O256 O 0.84189 0.00165 0.60189 0.0
O257 O 0.76166 0.03559 0.63514 0.0
O258 O 0.87342 0.02786 0.61928 0.0
O259 O 0.81355 0.06053 0.65791 0.0
O260 O 0.77916 0.00354 0.61434 0.0
O261 O 0.84127 0.11422 0.61068 0.0
O262 O 0.82708 0.05103 0.572 0.0
O263 O 0.76191 0.089 0.60984 0.0
Sc264 Sc 0.92491 0.14602 0.89632 0.0
Sc265 Sc 0.91407 0.21612 0.87998 0.0
Sc266 Sc 0.96573 0.20148 0.91529 0.0
O267 O 0.93553 0.18807 0.8968 0.0
C268 C 0.93593 0.15451 0.94055 0.0
C269 C 0.86579 0.1775 0.89865 0.0
C270 C 0.91858 0.25188 0.91881 0.0
C271 C 0.9151 0.16388 0.85214 0.0
C272 C 0.9919 0.14349 0.89639 0.0
C273 C 0.97882 0.24088 0.87951 0.0
O274 O 0.9346 0.13771 0.92619 0.0
O275 O 0.87333 0.19442 0.88514 0.0
O276 O 0.94198 0.23952 0.92375 0.0
O277 O 0.91236 0.14661 0.86623 0.0
O278 O 0.9927 0.16454 0.90827 0.0
O279 O 0.95267 0.24072 0.87376 0.0
O280 O 0.96856 0.13494 0.88843 0.0
O281 O 0.92143 0.19032 0.85453 0.0
O282 O 0.9878 0.22529 0.89332 0.0
O283 O 0.88254 0.15845 0.9056 0.0
O284 O 0.94465 0.18026 0.93892 0.0
O285 O 0.90442 0.24447 0.90391 0.0
Sc286 Sc 0.35132 0.93435 0.88825 0.0
Sc287 Sc 0.28205 0.93629 0.87008 0.0
Sc288 Sc 0.30087 0.98117 0.90821 0.0
O289 O 0.31165 0.95178 0.88844 0.0
C290 C 0.34172 0.94095 0.93298 0.0
C291 C 0.31278 0.88087 0.88302 0.0
C292 C 0.24844 0.9369 0.90951 0.0
C293 C 0.33399 0.93704 0.84309 0.0
C294 C 0.36355 0.00066 0.89259 0.0
C295 C 0.26114 0.00197 0.87486 0.0
O296 O 0.35843 0.93624 0.91888 0.0
O297 O 0.30134 0.89421 0.86913 0.0
O298 O 0.2604 0.96038 0.91465 0.0
O299 O 0.34984 0.92887 0.85711 0.0
O300 O 0.34088 0.00408 0.90284 0.0
O301 O 0.25876 0.97648 0.86831 0.0
O302 O 0.37018 0.97669 0.88463 0.0
O303 O 0.30869 0.94733 0.84565 0.0
O304 O 0.27976 0.00866 0.88754 0.0
O305 O 0.33177 0.89272 0.89352 0.0
O306 O 0.31867 0.95548 0.93122 0.0
O307 O 0.25552 0.92319 0.89429 0.0
Sc308 Sc 0.57645 0.35717 0.89942 0.0
Sc309 Sc 0.59036 0.28465 0.88702 0.0
Sc310 Sc 0.53502 0.30183 0.91974 0.0
O311 O 0.56704 0.31447 0.90182 0.0
C312 C 0.56361 0.35177 0.94431 0.0
C313 C 0.63817 0.32821 0.90283 0.0
C314 C 0.58172 0.25213 0.92708 0.0
C315 C 0.58797 0.33526 0.8562 0.0
C316 C 0.50822 0.3583 0.89944 0.0
C317 C 0.52627 0.25884 0.88455 0.0
O318 O 0.57075 0.36612 0.92954 0.0
O319 O 0.63045 0.30499 0.8946 0.0
O320 O 0.55913 0.26622 0.93145 0.0
O321 O 0.58448 0.35472 0.86886 0.0
O322 O 0.50663 0.33588 0.90996 0.0
O323 O 0.55234 0.26051 0.87878 0.0
O324 O 0.5321 0.36815 0.8932 0.0
O325 O 0.58865 0.30853 0.86031 0.0
O326 O 0.51642 0.27385 0.8984 0.0
O327 O 0.62106 0.34894 0.90643 0.0
O328 O 0.55164 0.32722 0.94322 0.0
O329 O 0.59602 0.25702 0.91183 0.0
Sc330 Sc 0.19662 0.5224 0.91668 0.0
Sc331 Sc 0.2168 0.57385 0.88189 0.0
Sc332 Sc 0.14351 0.56478 0.89408 0.0
O333 O 0.1857 0.55355 0.89745 0.0
C334 C 0.14077 0.49623 0.89582 0.0
C335 C 0.24255 0.50995 0.88346 0.0
C336 C 0.16699 0.57043 0.85064 0.0
C337 C 0.24587 0.56964 0.92372 0.0
C338 C 0.14578 0.55377 0.93937 0.0
C339 C 0.17353 0.62536 0.8928 0.0
O340 O 0.1636 0.4938 0.90592 0.0
O341 O 0.24091 0.53498 0.87609 0.0
O342 O 0.14729 0.56958 0.86336 0.0
O343 O 0.23067 0.5482 0.92897 0.0
O344 O 0.13387 0.56336 0.92426 0.0
O345 O 0.19694 0.6153 0.88602 0.0
O346 O 0.16878 0.53892 0.93894 0.0
O347 O 0.24308 0.58154 0.9073 0.0
O348 O 0.15243 0.60981 0.89801 0.0
O349 O 0.22694 0.50209 0.89752 0.0
O350 O 0.13105 0.52042 0.89006 0.0
O351 O 0.19376 0.56911 0.85484 0.0
H352 H 0.59731 0.11106 0.33884 0.0
H353 H 0.61232 0.09654 0.30677 0.0
H354 H 0.60246 0.18387 0.28687 0.0
H355 H 0.58792 0.19905 0.31937 0.0
H356 H 0.57664 0.13314 0.26286 0.0
H357 H 0.66472 0.16861 0.29216 0.0
H358 H 0.7006 0.17112 0.31827 0.0
H359 H 0.71673 0.08036 0.31276 0.0
H360 H 0.68059 0.07724 0.28681 0.0
H361 H 0.6405 0.11373 0.17249 0.0
H362 H 0.62594 0.13126 0.20392 0.0
H363 H 0.67052 0.06016 0.23076 0.0
H364 H 0.68695 0.04361 0.199 0.0
H365 H 0.67824 0.1035 0.25186 0.0
H366 H 0.59219 0.06497 0.22455 0.0
H367 H 0.55425 0.05773 0.20017 0.0
H368 H 0.53132 0.14724 0.20367 0.0
H369 H 0.56938 0.15511 0.22789 0.0
C370 C 0.59801 0.12732 0.3277 0.0
C371 C 0.59129 0.15634 0.33178 0.0
C372 C 0.60675 0.1189 0.30935 0.0
C373 C 0.60866 0.13911 0.29449 0.0
C374 C 0.60116 0.16794 0.2982 0.0
C375 C 0.59286 0.17658 0.31676 0.0
C376 C 0.61897 0.1298 0.27524 0.0
C377 C 0.59894 0.12716 0.26028 0.0
C378 C 0.64777 0.12072 0.27222 0.0
C379 C 0.66975 0.12265 0.28766 0.0
C380 C 0.67573 0.14914 0.29663 0.0
C381 C 0.69615 0.15069 0.31138 0.0
C382 C 0.71088 0.1259 0.31721 0.0
C383 C 0.70528 0.09954 0.30825 0.0
C384 C 0.68485 0.09788 0.2935 0.0
C385 C 0.6471 0.10167 0.18507 0.0
C386 C 0.66452 0.07699 0.18324 0.0
C387 C 0.63857 0.11166 0.20312 0.0
C388 C 0.64622 0.09664 0.21988 0.0
C389 C 0.66404 0.07212 0.21811 0.0
C390 C 0.67336 0.06255 0.19997 0.0
C391 C 0.63594 0.10694 0.2391 0.0
C392 C 0.65592 0.10959 0.25421 0.0
C393 C 0.60684 0.11535 0.24241 0.0
C394 C 0.58381 0.11067 0.22791 0.0
C395 C 0.57917 0.08315 0.22003 0.0
C396 C 0.55763 0.07892 0.20625 0.0
C397 C 0.54043 0.10202 0.20034 0.0
C398 C 0.54468 0.12937 0.20824 0.0
C399 C 0.56621 0.13372 0.22201 0.0
H400 H 0.52377 0.09871 0.18967 0.0
H401 H 0.72667 0.12714 0.32864 0.0
H402 H 0.4235 0.61206 0.17261 0.0
H403 H 0.41069 0.59519 0.20468 0.0
H404 H 0.38528 0.68139 0.22053 0.0
H405 H 0.39864 0.69862 0.18855 0.0
H406 H 0.41139 0.65719 0.24974 0.0
H407 H 0.33502 0.62963 0.20767 0.0
H408 H 0.31281 0.60729 0.17914 0.0
H409 H 0.3438 0.52427 0.19695 0.0
H410 H 0.36655 0.5462 0.22547 0.0
H411 H 0.29899 0.58045 0.31565 0.0
H412 H 0.3143 0.59597 0.28373 0.0
H413 H 0.40342 0.58834 0.30089 0.0
H414 H 0.38831 0.57351 0.333 0.0
H415 H 0.34359 0.57488 0.25515 0.0
H416 H 0.44369 0.64027 0.27972 0.0
H417 H 0.46056 0.66694 0.30826 0.0
H418 H 0.37281 0.6818 0.32548 0.0
H419 H 0.35544 0.65559 0.29692 0.0
C420 C 0.41544 0.62756 0.18293 0.0
C421 C 0.41196 0.65674 0.17784 0.0
C422 C 0.40795 0.6178 0.20129 0.0
C423 C 0.39643 0.63685 0.215 0.0
C424 C 0.39399 0.66619 0.21024 0.0
C425 C 0.40166 0.67603 0.19189 0.0
C426 C 0.38628 0.62604 0.23406 0.0
C427 C 0.39666 0.63912 0.25089 0.0
C428 C 0.36645 0.6029 0.2357 0.0
C429 C 0.35273 0.5896 0.2186 0.0
C430 C 0.33728 0.60664 0.20543 0.0
C431 C 0.32457 0.59405 0.18927 0.0
C432 C 0.32695 0.56439 0.1862 0.0
C433 C 0.342 0.54725 0.19932 0.0
C434 C 0.3548 0.55974 0.2155 0.0
C435 C 0.32188 0.58173 0.31262 0.0
C436 C 0.34237 0.57589 0.32706 0.0
C437 C 0.33062 0.59065 0.29429 0.0
C438 C 0.36004 0.59392 0.28991 0.0
C439 C 0.38057 0.58669 0.30398 0.0
C440 C 0.37186 0.57799 0.32236 0.0
C441 C 0.36917 0.60564 0.27085 0.0
C442 C 0.35852 0.59279 0.25401 0.0
C443 C 0.38807 0.62955 0.2692 0.0
C444 C 0.3983 0.6457 0.28629 0.0
C445 C 0.42801 0.64933 0.28956 0.0
C446 C 0.43766 0.66435 0.30575 0.0
C447 C 0.41778 0.67597 0.31871 0.0
C448 C 0.3882 0.6727 0.31547 0.0
C449 C 0.37844 0.65774 0.29929 0.0
H450 H 0.42529 0.68756 0.33124 0.0
H451 H 0.31709 0.55467 0.17369 0.0
H452 H 0.93885 0.31695 0.31329 0.0
H453 H 0.92666 0.3348 0.28103 0.0
H454 H 0.87512 0.40233 0.30615 0.0
H455 H 0.88747 0.38515 0.33821 0.0
H456 H 0.84675 0.37038 0.27646 0.0
H457 H 0.9367 0.42006 0.28845 0.0
H458 H 0.98847 0.42242 0.29653 0.0
H459 H 0.00872 0.37063 0.24722 0.0
H460 H 0.957 0.36757 0.23901 0.0
H461 H 0.81177 0.4519 0.19418 0.0
H462 H 0.82885 0.4376 0.22604 0.0
H463 H 0.89747 0.38829 0.2 0.0
H464 H 0.88143 0.40375 0.16827 0.0
H465 H 0.91803 0.40979 0.23032 0.0
H466 H 0.83101 0.35764 0.21799 0.0
H467 H 0.77976 0.35086 0.20956 0.0
H468 H 0.75439 0.40114 0.25852 0.0
H469 H 0.80553 0.40854 0.26711 0.0
C470 C 0.92509 0.33572 0.31194 0.0
C471 C 0.91425 0.34961 0.32843 0.0
C472 C 0.91817 0.34592 0.29349 0.0
C473 C 0.89995 0.36994 0.29117 0.0
C474 C 0.88917 0.38378 0.30757 0.0
C475 C 0.89642 0.37395 0.32594 0.0
C476 C 0.89147 0.38045 0.27172 0.0
C477 C 0.86227 0.3793 0.26643 0.0
C478 C 0.91182 0.39126 0.2584 0.0
C479 C 0.94294 0.39333 0.26323 0.0
C480 C 0.95216 0.40896 0.27942 0.0
C481 C 0.98151 0.41046 0.28401 0.0
C482 C 0.00187 0.39662 0.27243 0.0
C483 C 0.99292 0.38131 0.2562 0.0
C484 C 0.9636 0.3797 0.25156 0.0
C485 C 0.83069 0.43827 0.19525 0.0
C486 C 0.84511 0.42894 0.17858 0.0
C487 C 0.84034 0.42985 0.21352 0.0
C488 C 0.86412 0.41114 0.21559 0.0
C489 C 0.87906 0.40261 0.19896 0.0
C490 C 0.8698 0.4115 0.18074 0.0
C491 C 0.87305 0.39993 0.23493 0.0
C492 C 0.90238 0.40087 0.24025 0.0
C493 C 0.85287 0.38832 0.24817 0.0
C494 C 0.8221 0.38389 0.24307 0.0
C495 C 0.8145 0.36742 0.22688 0.0
C496 C 0.78548 0.36344 0.22209 0.0
C497 C 0.76384 0.37563 0.23347 0.0
C498 C 0.77118 0.39176 0.2497 0.0
C499 C 0.80018 0.39583 0.25455 0.0
H500 H 0.74138 0.37252 0.22973 0.0
H501 H 0.02457 0.39783 0.27599 0.0
H502 H 0.20128 0.91577 0.31488 0.0
H503 H 0.18549 0.90227 0.28263 0.0
H504 H 0.09749 0.92229 0.29783 0.0
H505 H 0.11298 0.93522 0.33022 0.0
H506 H 0.09872 0.87251 0.28072 0.0
H507 H 0.13799 0.96541 0.26675 0.0
H508 H 0.17479 0.00377 0.26661 0.0
H509 H 0.2322 0.94923 0.23459 0.0
H510 H 0.19587 0.91039 0.23477 0.0
H511 H 0.08389 0.88991 0.16881 0.0
H512 H 0.09498 0.90867 0.2007 0.0
H513 H 0.10994 0.8222 0.22111 0.0
H514 H 0.09826 0.80316 0.18929 0.0
H515 H 0.14283 0.90776 0.22026 0.0
H516 H 0.0959 0.81798 0.26888 0.0
H517 H 0.05569 0.78314 0.26888 0.0
H518 H 0.00716 0.83818 0.23126 0.0
H519 H 0.0469 0.87351 0.23124 0.0
C520 C 0.17862 0.91781 0.3113 0.0
C521 C 0.15844 0.92659 0.32524 0.0
C522 C 0.16959 0.91005 0.29279 0.0
C523 C 0.14025 0.91128 0.2877 0.0
C524 C 0.12021 0.92096 0.30139 0.0
C525 C 0.12917 0.92852 0.31992 0.0
C526 C 0.13022 0.90125 0.26844 0.0
C527 C 0.10837 0.88029 0.26751 0.0
C528 C 0.14243 0.91157 0.25111 0.0
C529 C 0.1643 0.9349 0.25093 0.0
C530 C 0.15854 0.96152 0.2598 0.0
C531 C 0.1793 0.98337 0.25969 0.0
C532 C 0.20584 0.97892 0.25064 0.0
C533 C 0.21164 0.95263 0.24162 0.0
C534 C 0.19096 0.93071 0.24171 0.0
C535 C 0.0892 0.87477 0.18011 0.0
C536 C 0.09012 0.84494 0.1764 0.0
C537 C 0.09569 0.8856 0.19836 0.0
C538 C 0.10327 0.86694 0.2134 0.0
C539 C 0.10376 0.83709 0.20986 0.0
C540 C 0.09708 0.8262 0.19161 0.0
C541 C 0.11153 0.87884 0.23256 0.0
C542 C 0.13314 0.90004 0.23347 0.0
C543 C 0.09866 0.8692 0.24985 0.0
C544 C 0.07451 0.84823 0.24991 0.0
C545 C 0.0766 0.82268 0.26067 0.0
C546 C 0.0539 0.80285 0.26066 0.0
C547 C 0.02893 0.8084 0.25003 0.0
C548 C 0.02656 0.83385 0.23943 0.0
C549 C 0.04918 0.85377 0.2394 0.0
H550 H 0.01139 0.79301 0.25003 0.0
H551 H 0.22189 0.99585 0.25057 0.0
H552 H 0.31538 0.95989 0.80856 0.0
H553 H 0.33115 0.94616 0.77618 0.0
H554 H 0.39002 0.88403 0.80059 0.0
H555 H 0.37567 0.89873 0.83266 0.0
H556 H 0.41549 0.90511 0.77269 0.0
H557 H 0.32018 0.86696 0.77968 0.0
H558 H 0.26783 0.86798 0.78604 0.0
H559 H 0.25546 0.92605 0.73875 0.0
H560 H 0.30782 0.92566 0.73226 0.0
H561 H 0.42988 0.8136 0.68961 0.0
H562 H 0.41688 0.83269 0.72133 0.0
H563 H 0.37862 0.90728 0.69463 0.0
H564 H 0.39166 0.88865 0.66301 0.0
H565 H 0.34306 0.88129 0.72272 0.0
H566 H 0.4422 0.91372 0.71577 0.0
H567 H 0.49423 0.90605 0.71019 0.0
H568 H 0.49833 0.84991 0.75911 0.0
H569 H 0.44626 0.85691 0.76482 0.0
C570 C 0.3319 0.94353 0.80698 0.0
C571 C 0.34424 0.93051 0.82326 0.0
C572 C 0.34075 0.93546 0.78843 0.0
C573 C 0.36149 0.91356 0.78575 0.0
C574 C 0.3741 0.901 0.80207 0.0
C575 C 0.36578 0.90948 0.82051 0.0
C576 C 0.37 0.90326 0.76613 0.0
C577 C 0.3995 0.89966 0.7619 0.0
C578 C 0.34942 0.89622 0.75178 0.0
C579 C 0.31795 0.89654 0.75563 0.0
C580 C 0.30632 0.88012 0.77073 0.0
C581 C 0.27664 0.88055 0.77434 0.0
C582 C 0.25834 0.89714 0.76284 0.0
C583 C 0.26967 0.91327 0.74767 0.0
C584 C 0.29934 0.91293 0.74401 0.0
C585 C 0.41886 0.83415 0.69048 0.0
C586 C 0.41194 0.84957 0.67368 0.0
C587 C 0.41146 0.84505 0.70863 0.0
C588 C 0.39681 0.87148 0.71037 0.0
C589 C 0.38988 0.88686 0.69366 0.0
C590 C 0.39753 0.87618 0.67557 0.0
C591 C 0.38832 0.88303 0.72953 0.0
C592 C 0.35888 0.88688 0.73359 0.0
C593 C 0.40888 0.88944 0.74393 0.0
C594 C 0.44028 0.88565 0.74062 0.0
C595 C 0.45416 0.89959 0.72526 0.0
C596 C 0.48367 0.89539 0.72208 0.0
C597 C 0.49955 0.87744 0.73426 0.0
C598 C 0.486 0.86377 0.74968 0.0
C599 C 0.4565 0.86787 0.7529 0.0
H600 H 0.52235 0.87411 0.73179 0.0
H601 H 0.23537 0.89745 0.76565 0.0
H602 H 0.57074 0.38498 0.83836 0.0
H603 H 0.5847 0.40231 0.80639 0.0
H604 H 0.63395 0.32476 0.7971 0.0
H605 H 0.61945 0.30687 0.82881 0.0
H606 H 0.66345 0.38337 0.79096 0.0
H607 H 0.57974 0.32618 0.77332 0.0
H608 H 0.52853 0.31222 0.77575 0.0
H609 H 0.50284 0.39835 0.76104 0.0
H610 H 0.55395 0.41292 0.7588 0.0
H611 H 0.70438 0.3973 0.69348 0.0
H612 H 0.68932 0.38308 0.72563 0.0
H613 H 0.61453 0.43823 0.72103 0.0
H614 H 0.62868 0.45096 0.68825 0.0
H615 H 0.5972 0.39251 0.73534 0.0
H616 H 0.67728 0.45161 0.75204 0.0
H617 H 0.72724 0.46985 0.75123 0.0
H618 H 0.75872 0.38738 0.76976 0.0
H619 H 0.70896 0.36852 0.77044 0.0
C620 C 0.58422 0.37143 0.82941 0.0
C621 C 0.59389 0.34448 0.83612 0.0
C622 C 0.5922 0.38139 0.81117 0.0
C623 C 0.61046 0.36487 0.79943 0.0
C624 C 0.61988 0.33784 0.80596 0.0
C625 C 0.61139 0.32757 0.82403 0.0
C626 C 0.62037 0.37619 0.78058 0.0
C627 C 0.64914 0.38509 0.77868 0.0
C628 C 0.60135 0.37951 0.76487 0.0
C629 C 0.57066 0.37071 0.76611 0.0
C630 C 0.56318 0.34221 0.77079 0.0
C631 C 0.53417 0.33417 0.77209 0.0
C632 C 0.51244 0.35441 0.76861 0.0
C633 C 0.51969 0.38271 0.76376 0.0
C634 C 0.54867 0.39086 0.76246 0.0
C635 C 0.68505 0.40689 0.69947 0.0
C636 C 0.66787 0.42547 0.68834 0.0
C637 C 0.67643 0.39878 0.71797 0.0
C638 C 0.65089 0.4098 0.72612 0.0
C639 C 0.63426 0.42923 0.71521 0.0
C640 C 0.64248 0.43674 0.69649 0.0
C641 C 0.64068 0.39976 0.74543 0.0
C642 C 0.61173 0.39106 0.74752 0.0
C643 C 0.65942 0.39733 0.76149 0.0
C644 C 0.68939 0.40859 0.76113 0.0
C645 C 0.69487 0.4373 0.75581 0.0
C646 C 0.72315 0.44776 0.7554 0.0
C647 C 0.74614 0.42976 0.7604 0.0
C648 C 0.74089 0.40129 0.76587 0.0
C649 C 0.71265 0.39071 0.7663 0.0
H650 H 0.76802 0.4379 0.76006 0.0
H651 H 0.49 0.34814 0.76963 0.0
H652 H 0.0619 0.68402 0.69492 0.0
H653 H 0.07432 0.66654 0.72719 0.0
H654 H 0.14036 0.61203 0.70267 0.0
H655 H 0.12636 0.62769 0.67064 0.0
H656 H 0.11875 0.58316 0.72803 0.0
H657 H 0.15214 0.68092 0.72875 0.0
H658 H 0.14879 0.73375 0.72555 0.0
H659 H 0.08461 0.73632 0.76999 0.0
H660 H 0.08733 0.68345 0.7733 0.0
H661 H 0.19919 0.56611 0.81732 0.0
H662 H 0.18486 0.58126 0.78483 0.0
H663 H 0.10095 0.60547 0.80607 0.0
H664 H 0.1146 0.58991 0.83824 0.0
H665 H 0.13183 0.64937 0.78324 0.0
H666 H 0.10237 0.54893 0.78178 0.0
H667 H 0.11103 0.49669 0.78488 0.0
H668 H 0.17594 0.50099 0.74097 0.0
H669 H 0.16793 0.55335 0.7378 0.0
C670 C 0.07898 0.66825 0.69653 0.0
C671 C 0.09304 0.6571 0.68029 0.0
C672 C 0.08632 0.6584 0.715 0.0
C673 C 0.10874 0.63816 0.71763 0.0
C674 C 0.12288 0.6274 0.70127 0.0
C675 C 0.11491 0.63646 0.68289 0.0
C676 C 0.11739 0.62763 0.73719 0.0
C677 C 0.12199 0.59789 0.73994 0.0
C678 C 0.12141 0.64643 0.75307 0.0
C679 C 0.11972 0.67821 0.75112 0.0
C680 C 0.13717 0.69274 0.73775 0.0
C681 C 0.13541 0.72269 0.73593 0.0
C682 C 0.11644 0.73837 0.74752 0.0
C683 C 0.09925 0.72414 0.761 0.0
C684 C 0.10091 0.69419 0.76286 0.0
C685 C 0.17756 0.57428 0.81502 0.0
C686 C 0.15807 0.57661 0.83046 0.0
C687 C 0.16943 0.583 0.79646 0.0
C688 C 0.14187 0.59465 0.79308 0.0
C689 C 0.12234 0.59667 0.80837 0.0
C690 C 0.13019 0.58751 0.82676 0.0
C691 C 0.13336 0.6053 0.77373 0.0
C692 C 0.12871 0.63494 0.77115 0.0
C693 C 0.13012 0.58658 0.75788 0.0
C694 C 0.13476 0.55509 0.7597 0.0
C695 C 0.11867 0.53878 0.77291 0.0
C696 C 0.12342 0.50914 0.77465 0.0
C697 C 0.14408 0.49554 0.76317 0.0
C698 C 0.15997 0.51155 0.74987 0.0
C699 C 0.15532 0.5412 0.74809 0.0
H700 H 0.14772 0.4726 0.76454 0.0
H701 H 0.1151 0.76155 0.74609 0.0
H702 H 0.81406 0.0516 0.69484 0.0
H703 H 0.82819 0.06499 0.72754 0.0
H704 H 0.90017 0.11328 0.70504 0.0
H705 H 0.887 0.09899 0.67259 0.0
H706 H 0.91712 0.0899 0.73587 0.0
H707 H 0.83352 0.14512 0.71967 0.0
H708 H 0.78352 0.15349 0.70886 0.0
H709 H 0.75151 0.10481 0.75675 0.0
H710 H 0.80138 0.0958 0.7677 0.0
H711 H 0.933 0.18586 0.81738 0.0
H712 H 0.92146 0.16755 0.78513 0.0
H713 H 0.87071 0.0995 0.8102 0.0
H714 H 0.88264 0.11708 0.84234 0.0
H715 H 0.84314 0.13277 0.77874 0.0
H716 H 0.9303 0.08006 0.79453 0.0
H717 H 0.98118 0.07621 0.80461 0.0
H718 H 0.00721 0.12686 0.75603 0.0
H719 H 0.95639 0.13138 0.74582 0.0
C720 C 0.83312 0.06475 0.69688 0.0
C721 C 0.84926 0.07426 0.68098 0.0
C722 C 0.84107 0.07264 0.71561 0.0
C723 C 0.86494 0.09078 0.71887 0.0
C724 C 0.88164 0.09937 0.70305 0.0
C725 C 0.87401 0.09113 0.6844 0.0
C726 C 0.87221 0.10151 0.73858 0.0
C727 C 0.9009 0.09953 0.74509 0.0
C728 C 0.85121 0.11404 0.75086 0.0
C729 C 0.82119 0.11952 0.74439 0.0
C730 C 0.81583 0.13603 0.72782 0.0
C731 C 0.78751 0.14091 0.72168 0.0
C732 C 0.76436 0.12962 0.73208 0.0
C733 C 0.76947 0.1135 0.74869 0.0
C734 C 0.79776 0.10851 0.75488 0.0
C735 C 0.91949 0.16693 0.81602 0.0
C736 C 0.90888 0.15288 0.83248 0.0
C737 C 0.91293 0.15649 0.7976 0.0
C738 C 0.89521 0.13216 0.79528 0.0
C739 C 0.88439 0.1183 0.81165 0.0
C740 C 0.89139 0.12833 0.83003 0.0
C741 C 0.88785 0.12107 0.77583 0.0
C742 C 0.8592 0.12307 0.76942 0.0
C743 C 0.90897 0.10921 0.76348 0.0
C744 C 0.93952 0.10632 0.76953 0.0
C745 C 0.94684 0.0906 0.7861 0.0
C746 C 0.97568 0.08825 0.79181 0.0
C747 C 0.99741 0.10135 0.781 0.0
C748 C 0.99035 0.11676 0.76441 0.0
C749 C 0.96154 0.11921 0.75864 0.0
H750 H 0.01972 0.09951 0.78545 0.0
H751 H 0.74245 0.13341 0.7273 0.0
H752 H 0.45157 0.15517 0.40644 0.0
H753 H 0.40621 0.13165 0.39877 0.0
H754 H 0.45165 0.067 0.36612 0.0
H755 H 0.49768 0.09067 0.37362 0.0
H756 H 0.40044 0.08626 0.34812 0.0
H757 H 0.43015 0.04934 0.40908 0.0
H758 H 0.44784 0.0519 0.44244 0.0
H759 H 0.37317 0.10107 0.45864 0.0
H760 H 0.35522 0.09915 0.4253 0.0
H761 H 0.28513 0.98228 0.35406 0.0
H762 H 0.32927 0.01063 0.3519 0.0
H763 H 0.2915 0.07585 0.3882 0.0
H764 H 0.24737 0.04751 0.39069 0.0
H765 H 0.34038 0.05455 0.40316 0.0
H766 H 0.31011 0.09002 0.34156 0.0
H767 H 0.29281 0.08604 0.30818 0.0
H768 H 0.36845 0.03761 0.29303 0.0
H769 H 0.38604 0.04095 0.3264 0.0
C770 C 0.45214 0.13599 0.39759 0.0
C771 C 0.47845 0.12467 0.39082 0.0
C772 C 0.42608 0.12258 0.39321 0.0
C773 C 0.42561 0.09743 0.38207 0.0
C774 C 0.45161 0.08641 0.37477 0.0
C775 C 0.47787 0.09987 0.37917 0.0
C776 C 0.39788 0.08229 0.37888 0.0
C777 C 0.38741 0.07893 0.36009 0.0
C778 C 0.38079 0.07315 0.39456 0.0
C779 C 0.39148 0.07432 0.41465 0.0
C780 C 0.41762 0.0609 0.41972 0.0
C781 C 0.42767 0.0622 0.43863 0.0
C782 C 0.41167 0.0767 0.45264 0.0
C783 C 0.38555 0.08987 0.44777 0.0
C784 C 0.37541 0.08866 0.42887 0.0
C785 C 0.28578 0.00308 0.3611 0.0
C786 C 0.26282 0.01233 0.37286 0.0
C787 C 0.31111 0.01931 0.35981 0.0
C788 C 0.31379 0.04521 0.37005 0.0
C789 C 0.28996 0.05577 0.38032 0.0
C790 C 0.26468 0.03955 0.38168 0.0
C791 C 0.34241 0.05908 0.37238 0.0
C792 C 0.35324 0.06196 0.39111 0.0
C793 C 0.35977 0.06749 0.35662 0.0
C794 C 0.34926 0.0655 0.33654 0.0
C795 C 0.32294 0.0783 0.33116 0.0
C796 C 0.31311 0.07621 0.31223 0.0
C797 C 0.32948 0.06152 0.2985 0.0
C798 C 0.35577 0.04895 0.30368 0.0
C799 C 0.3657 0.05097 0.3226 0.0
H800 H 0.32183 0.05992 0.28385 0.0
H801 H 0.41949 0.07768 0.46727 0.0
H802 H 0.4135 0.49426 0.3742 0.0
H803 H 0.44088 0.45037 0.36676 0.0
H804 H 0.37704 0.39935 0.39624 0.0
H805 H 0.34961 0.44261 0.40361 0.0
H806 H 0.46516 0.40974 0.39088 0.0
H807 H 0.36734 0.33639 0.3731 0.0
H808 H 0.31873 0.34071 0.35895 0.0
H809 H 0.34566 0.41526 0.32718 0.0
H810 H 0.39455 0.41115 0.34091 0.0
H811 H 0.46482 0.24711 0.39299 0.0
H812 H 0.43742 0.29162 0.38869 0.0
H813 H 0.50731 0.32761 0.35566 0.0
H814 H 0.53493 0.28322 0.35982 0.0
H815 H 0.41851 0.32674 0.35829 0.0
H816 H 0.51849 0.39638 0.37443 0.0
H817 H 0.56629 0.39159 0.3898 0.0
H818 H 0.53376 0.32434 0.42615 0.0
H819 H 0.48568 0.32911 0.41126 0.0
C820 C 0.40528 0.4737 0.37908 0.0
C821 C 0.37926 0.47207 0.38947 0.0
C822 C 0.42098 0.44865 0.37483 0.0
C823 C 0.41077 0.42157 0.3807 0.0
C824 C 0.38507 0.41995 0.39126 0.0
C825 C 0.36947 0.44484 0.39555 0.0
C826 C 0.42703 0.39481 0.37624 0.0
C827 C 0.45521 0.39184 0.38335 0.0
C828 C 0.41379 0.37122 0.36679 0.0
C829 C 0.38457 0.37356 0.35816 0.0
C830 C 0.36295 0.3536 0.36301 0.0
C831 C 0.33533 0.35604 0.35508 0.0
C832 C 0.32909 0.37829 0.34221 0.0
C833 C 0.35049 0.39809 0.3372 0.0
C834 C 0.37815 0.39574 0.34507 0.0
C835 C 0.47411 0.26417 0.38437 0.0
C836 C 0.50228 0.26169 0.377 0.0
C837 C 0.45836 0.2896 0.3819 0.0
C838 C 0.47059 0.31306 0.37218 0.0
C839 C 0.49766 0.30983 0.36341 0.0
C840 C 0.51335 0.28433 0.36574 0.0
C841 C 0.45643 0.34167 0.37309 0.0
C842 C 0.42863 0.3449 0.36543 0.0
C843 C 0.46993 0.36545 0.38215 0.0
C844 C 0.4986 0.36285 0.39152 0.0
C845 C 0.52153 0.38065 0.38575 0.0
C846 C 0.54866 0.37795 0.39438 0.0
C847 C 0.55309 0.35759 0.40888 0.0
C848 C 0.53034 0.34002 0.41487 0.0
C849 C 0.50315 0.34271 0.40632 0.0
H850 H 0.57412 0.35548 0.41552 0.0
H851 H 0.30768 0.38015 0.33611 0.0
H852 H 0.99949 0.40691 0.36758 0.0
H853 H 0.0449 0.43194 0.36037 0.0
H854 H 0.08775 0.38345 0.40487 0.0
H855 H 0.04291 0.35883 0.4123 0.0
H856 H 0.10203 0.43955 0.40638 0.0
H857 H 0.09434 0.36511 0.35723 0.0
H858 H 0.06968 0.34079 0.33033 0.0
H859 H 0.07151 0.41922 0.29766 0.0
H860 H 0.09595 0.44408 0.32447 0.0
H861 H 0.24785 0.45119 0.39178 0.0
H862 H 0.20139 0.42686 0.38952 0.0
H863 H 0.17271 0.48893 0.34763 0.0
H864 H 0.21918 0.51356 0.34971 0.0
H865 H 0.14887 0.43148 0.34246 0.0
H866 H 0.15801 0.50561 0.38994 0.0
H867 H 0.18155 0.53156 0.41657 0.0
H868 H 0.17497 0.45629 0.45214 0.0
H869 H 0.15176 0.42973 0.42558 0.0
C870 C 0.01854 0.40178 0.37592 0.0
C871 C 0.0175 0.38076 0.39048 0.0
C872 C 0.0445 0.41596 0.3717 0.0
C873 C 0.06978 0.40934 0.38197 0.0
C874 C 0.06855 0.3889 0.39675 0.0
C875 C 0.04281 0.37475 0.40093 0.0
C876 C 0.0978 0.42331 0.37752 0.0
C877 C 0.1123 0.4376 0.39243 0.0
C878 C 0.11084 0.4216 0.35915 0.0
C879 C 0.09671 0.40651 0.34291 0.0
C880 C 0.08935 0.3772 0.34435 0.0
C881 C 0.07544 0.36331 0.32911 0.0
C882 C 0.06896 0.37847 0.31232 0.0
C883 C 0.07651 0.40752 0.31069 0.0
C884 C 0.09043 0.4215 0.32588 0.0
C885 C 0.23215 0.45919 0.38156 0.0
C886 C 0.2371 0.48482 0.37129 0.0
C887 C 0.20552 0.44524 0.38033 0.0
C888 C 0.18344 0.45655 0.36876 0.0
C889 C 0.18942 0.48001 0.35675 0.0
C890 C 0.21606 0.49408 0.35801 0.0
C891 C 0.15332 0.44669 0.37154 0.0
C892 C 0.13844 0.4335 0.35635 0.0
C893 C 0.13968 0.44963 0.38961 0.0
C894 C 0.1534 0.46559 0.4057 0.0
C895 C 0.1618 0.49451 0.40338 0.0
C896 C 0.17506 0.50935 0.41847 0.0
C897 C 0.17983 0.49556 0.43602 0.0
C898 C 0.17129 0.46693 0.43852 0.0
C899 C 0.15806 0.45198 0.42346 0.0
H900 H 0.19006 0.50707 0.4477 0.0
H901 H 0.05815 0.3677 0.30056 0.0
H902 H 0.15441 0.05556 0.40387 0.0
H903 H 0.12927 0.10021 0.39666 0.0
H904 H 0.06348 0.05288 0.36625 0.0
H905 H 0.08888 0.00765 0.37317 0.0
H906 H 0.07934 0.10254 0.34711 0.0
H907 H 0.04949 0.07647 0.41037 0.0
H908 H 0.05571 0.06116 0.44403 0.0
H909 H 0.10451 0.13774 0.45589 0.0
H910 H 0.09893 0.15333 0.42222 0.0
H911 H 0.97314 0.21561 0.35469 0.0
H912 H 0.00232 0.17198 0.35264 0.0
H913 H 0.07077 0.214 0.38389 0.0
H914 H 0.0417 0.25768 0.38622 0.0
H915 H 0.05214 0.16581 0.40163 0.0
H916 H 0.08026 0.19223 0.33765 0.0
H917 H 0.07231 0.20698 0.30405 0.0
H918 H 0.02423 0.12949 0.29358 0.0
H919 H 0.03153 0.11445 0.32721 0.0
C920 C 0.13457 0.05444 0.39567 0.0
C921 C 0.12354 0.02786 0.38927 0.0
C922 C 0.12022 0.08008 0.39156 0.0
C923 C 0.09434 0.07983 0.38113 0.0
C924 C 0.08344 0.0535 0.37436 0.0
C925 C 0.09789 0.02769 0.37843 0.0
C926 C 0.07852 0.10717 0.37789 0.0
C927 C 0.073 0.11625 0.359 0.0
C928 C 0.07067 0.12518 0.39343 0.0
C929 C 0.07401 0.11593 0.41372 0.0
C930 C 0.06174 0.08994 0.42012 0.0
C931 C 0.06512 0.08123 0.4392 0.0
C932 C 0.08055 0.09843 0.45208 0.0
C933 C 0.09259 0.12442 0.4459 0.0
C934 C 0.0893 0.13322 0.42682 0.0
C935 C 0.99475 0.21596 0.36064 0.0
C936 C 0.00482 0.24005 0.37096 0.0
C937 C 0.01144 0.19093 0.3594 0.0
C938 C 0.03859 0.18966 0.36828 0.0
C939 C 0.04975 0.21448 0.37707 0.0
C940 C 0.03309 0.23949 0.37834 0.0
C941 C 0.05346 0.16162 0.37082 0.0
C942 C 0.05857 0.15224 0.38968 0.0
C943 C 0.0606 0.14335 0.35525 0.0
C944 C 0.05621 0.15234 0.33502 0.0
C945 C 0.06777 0.17845 0.32824 0.0
C946 C 0.06343 0.18684 0.30917 0.0
C947 C 0.04771 0.16922 0.2967 0.0
C948 C 0.03637 0.14313 0.30326 0.0
C949 C 0.04063 0.13465 0.32232 0.0
H950 H 0.04438 0.17576 0.28195 0.0
H951 H 0.08314 0.09166 0.46685 0.0
H952 H 0.95835 0.84211 0.095 0.0
H953 H 0.91235 0.8641 0.10362 0.0
H954 H 0.95581 0.91996 0.14381 0.0
H955 H 0.00215 0.8984 0.13504 0.0
H956 H 0.88333 0.86616 0.13662 0.0
H957 H 0.91972 0.98418 0.14617 0.0
H958 H 0.95701 0.01749 0.13407 0.0
H959 H 0.96287 0.96885 0.08173 0.0
H960 H 0.92538 0.9355 0.09343 0.0
H961 H 0.78671 0.00324 0.15933 0.0
H962 H 0.83145 0.97562 0.16106 0.0
H963 H 0.79803 0.91539 0.11947 0.0
H964 H 0.75311 0.94255 0.1178 0.0
H965 H 0.86662 0.97138 0.13112 0.0
H966 H 0.83333 0.85139 0.12233 0.0
H967 H 0.79516 0.81839 0.13349 0.0
H968 H 0.78148 0.87127 0.18328 0.0
H969 H 0.81984 0.90436 0.17259 0.0
C970 C 0.95827 0.85919 0.10561 0.0
C971 C 0.98411 0.86856 0.11423 0.0
C972 C 0.93184 0.87164 0.1106 0.0
C973 C 0.93056 0.89378 0.1243 0.0
C974 C 0.95626 0.90316 0.13301 0.0
C975 C 0.98278 0.89079 0.12797 0.0
C976 C 0.9023 0.90707 0.12928 0.0
C977 C 0.87958 0.88915 0.13528 0.0
C978 C 0.89758 0.93714 0.12804 0.0
C979 C 0.92002 0.95715 0.12079 0.0
C980 C 0.92894 0.98064 0.13207 0.0
C981 C 0.95011 -0.00047 0.12528 0.0
C982 C 0.96238 0.99522 0.10717 0.0
C983 C 0.95344 0.97208 0.09579 0.0
C984 C 0.93227 0.95316 0.1025 0.0
C985 C 0.78842 0.9836 0.15099 0.0
C986 C 0.76632 0.97542 0.13821 0.0
C987 C 0.81416 0.96791 0.15193 0.0
C988 C 0.81828 0.94356 0.14028 0.0
C989 C 0.79536 0.93395 0.12873 0.0
C990 C 0.76958 0.9496 0.12779 0.0
C991 C 0.84746 0.93047 0.13831 0.0
C992 C 0.87039 0.94844 0.13277 0.0
C993 C 0.85226 0.90044 0.13988 0.0
C994 C 0.82932 0.8805 0.14655 0.0
C995 C 0.82228 0.85591 0.13571 0.0
C996 C 0.80059 0.8372 0.14194 0.0
C997 C 0.78585 0.84277 0.15905 0.0
C998 C 0.79284 0.86703 0.16999 0.0
C999 C 0.81452 0.8858 0.16383 0.0
H1000 H 0.76906 0.82827 0.16385 0.0
H1001 H 0.97877 0.00985 0.10195 0.0
H1002 H 0.5315 0.75332 0.12623 0.0
H1003 H 0.5589 0.79676 0.13291 0.0
H1004 H 0.48359 0.83583 0.15845 0.0
H1005 H 0.45561 0.79239 0.15137 0.0
H1006 H 0.50458 0.86913 0.13138 0.0
H1007 H 0.54518 0.82238 0.18538 0.0
H1008 H 0.56782 0.78319 0.20393 0.0
H1009 H 0.64241 0.78643 0.16743 0.0
H1010 H 0.62007 0.82536 0.14846 0.0
H1011 H 0.59128 0.99626 0.1397 0.0
H1012 H 0.5618 0.95485 0.14897 0.0
H1013 H 0.62117 0.89788 0.12005 0.0
H1014 H 0.65085 0.93896 0.1108 0.0
H1015 H 0.60489 0.87729 0.15567 0.0
H1016 H 0.55951 0.91717 0.09869 0.0
H1017 H 0.53653 0.95569 0.07965 0.0
H1018 H 0.47041 0.9647 0.12245 0.0
H1019 H 0.49324 0.92646 0.14186 0.0
C1020 C 0.52084 0.77083 0.13369 0.0
C1021 C 0.49122 0.76948 0.13802 0.0
C1022 C 0.53667 0.79567 0.13765 0.0
C1023 C 0.52335 0.81961 0.14622 0.0
C1024 C 0.49429 0.81761 0.15181 0.0
C1025 C 0.47837 0.79269 0.14784 0.0
C1026 C 0.53876 0.84762 0.14678 0.0
C1027 C 0.52621 0.87113 0.1372 0.0
C1028 C 0.56721 0.85013 0.15402 0.0
C1029 C 0.58085 0.82675 0.16543 0.0
C1030 C 0.56633 0.81462 0.18122 0.0
C1031 C 0.57913 0.79246 0.19182 0.0
C1032 C 0.60652 0.7823 0.18685 0.0
C1033 C 0.6212 0.79433 0.17127 0.0
C1034 C 0.60849 0.81649 0.16061 0.0
C1035 C 0.59811 0.97493 0.13531 0.0
C1036 C 0.62339 0.97101 0.12438 0.0
C1037 C 0.58123 0.9513 0.14064 0.0
C1038 C 0.58929 0.92334 0.13515 0.0
C1039 C 0.61465 0.9193 0.12449 0.0
C1040 C 0.63147 0.94287 0.11909 0.0
C1041 C 0.57091 0.89821 0.13985 0.0
C1042 C 0.58297 0.87537 0.15035 0.0
C1043 C 0.54199 0.89627 0.13349 0.0
C1044 C 0.52828 0.91924 0.12183 0.0
C1045 C 0.54022 0.92755 0.10411 0.0
C1046 C 0.52719 0.94929 0.09324 0.0
C1047 C 0.50209 0.9627 0.09987 0.0
C1048 C 0.4899 0.95434 0.11736 0.0
C1049 C 0.50287 0.93263 0.1283 0.0
H1050 H 0.49203 0.97952 0.09143 0.0
H1051 H 0.61638 0.76514 0.19508 0.0
H1052 H 0.55058 0.66645 0.10133 0.0
H1053 H 0.59771 0.64663 0.10901 0.0
H1054 H 0.55825 0.58457 0.14681 0.0
H1055 H 0.51042 0.60449 0.13928 0.0
H1056 H 0.6095 0.60995 0.16201 0.0
H1057 H 0.57807 0.56194 0.10487 0.0
H1058 H 0.55831 0.55832 0.07208 0.0
H1059 H 0.62915 0.60824 0.0504 0.0
H1060 H 0.64913 0.61251 0.08313 0.0
H1061 H 0.72639 0.50843 0.16009 0.0
H1062 H 0.68304 0.5378 0.16223 0.0
H1063 H 0.71676 0.59502 0.11893 0.0
H1064 H 0.76004 0.56534 0.11632 0.0
H1065 H 0.66755 0.57209 0.10772 0.0
H1066 H 0.70034 0.61805 0.16533 0.0
H1067 H 0.71989 0.62044 0.19823 0.0
H1068 H 0.64696 0.57301 0.2193 0.0
H1069 H 0.62715 0.56997 0.18648 0.0
C1070 C 0.55169 0.64862 0.11133 0.0
C1071 C 0.52652 0.63693 0.11955 0.0
C1072 C 0.57877 0.63733 0.11571 0.0
C1073 C 0.58146 0.614 0.12835 0.0
C1074 C 0.55659 0.60261 0.13701 0.0
C1075 C 0.52929 0.61389 0.13258 0.0
C1076 C 0.61028 0.60102 0.13168 0.0
C1077 C 0.62215 0.6013 0.15023 0.0
C1078 C 0.6269 0.5903 0.11621 0.0
C1079 C 0.61495 0.58778 0.09649 0.0
C1080 C 0.5893 0.57236 0.09314 0.0
C1081 C 0.57809 0.57015 0.07456 0.0
C1082 C 0.59243 0.58311 0.05917 0.0
C1083 C 0.61805 0.59825 0.06234 0.0
C1084 C 0.62934 0.60055 0.0809 0.0
C1085 C 0.72522 0.52786 0.15151 0.0
C1086 C 0.74651 0.53407 0.13767 0.0
C1087 C 0.70027 0.54472 0.15279 0.0
C1088 C 0.69639 0.5684 0.14053 0.0
C1089 C 0.71913 0.57661 0.12837 0.0
C1090 C 0.74398 0.55966 0.12697 0.0
C1091 C 0.6673 0.58144 0.13806 0.0
C1092 C 0.65518 0.58092 0.11957 0.0
C1093 C 0.65054 0.59173 0.15363 0.0
C1094 C 0.66239 0.59356 0.1734 0.0
C1095 C 0.68858 0.60791 0.17695 0.0
C1096 C 0.69969 0.60943 0.19559 0.0
C1097 C 0.68471 0.59683 0.21084 0.0
C1098 C 0.65855 0.58274 0.20748 0.0
C1099 C 0.64736 0.58114 0.18886 0.0
H1100 H 0.69334 0.59802 0.22526 0.0
H1101 H 0.58372 0.58136 0.04479 0.0
H1102 H 0.9695 0.7468 0.11702 0.0
H1103 H 0.94241 0.70236 0.12097 0.0
H1104 H 0.01036 0.66768 0.15649 0.0
H1105 H 0.03802 0.71202 0.15232 0.0
H1106 H 0.99868 0.6324 0.12746 0.0
H1107 H 0.94247 0.67994 0.17498 0.0
H1108 H 0.91367 0.71917 0.18924 0.0
H1109 H 0.85054 0.71031 0.14447 0.0
H1110 H 0.87915 0.67129 0.12977 0.0
H1111 H 0.91225 0.50195 0.1315 0.0
H1112 H 0.94116 0.54413 0.14058 0.0
H1113 H 0.88779 0.59804 0.10474 0.0
H1114 H 0.85903 0.55651 0.09561 0.0
H1115 H 0.89424 0.62045 0.14073 0.0
H1116 H 0.95472 0.5801 0.09056 0.0
H1117 H 0.98407 0.54227 0.07511 0.0
H1118 H 0.03911 0.53859 0.12468 0.0
H1119 H 0.00987 0.57622 0.1405 0.0
C1120 C 0.97843 0.7301 0.12613 0.0
C1121 C 0.00617 0.73293 0.13414 0.0
C1122 C 0.96279 0.70465 0.12844 0.0
C1123 C 0.97437 0.6816 0.139 0.0
C1124 C 0.00106 0.68515 0.14822 0.0
C1125 C 0.01677 0.71064 0.14592 0.0
C1126 C 0.9602 0.65294 0.13829 0.0
C1127 C 0.97601 0.62959 0.13088 0.0
C1128 C 0.9305 0.64938 0.14235 0.0
C1129 C 0.91307 0.67274 0.15122 0.0
C1130 C 0.92254 0.68646 0.1681 0.0
C1131 C 0.90623 0.70866 0.17627 0.0
C1132 C 0.88031 0.71725 0.16775 0.0
C1133 C 0.87061 0.70362 0.15106 0.0
C1134 C 0.88685 0.68142 0.14282 0.0
C1135 C 0.90693 0.52272 0.12535 0.0
C1136 C 0.88318 0.52577 0.11288 0.0
C1137 C 0.92342 0.5468 0.1306 0.0
C1138 C 0.91645 0.57424 0.12344 0.0
C1139 C 0.89335 0.57713 0.1106 0.0
C1140 C 0.87699 0.55323 0.10533 0.0
C1141 C 0.93256 0.60034 0.12944 0.0
C1142 C 0.91708 0.62314 0.13781 0.0
C1143 C 0.96251 0.60344 0.12623 0.0
C1144 C 0.97989 0.58064 0.11681 0.0
C1145 C 0.97291 0.57101 0.09823 0.0
C1146 C 0.98957 0.54966 0.08939 0.0
C1147 C 0.01337 0.53795 0.09893 0.0
C1148 C 0.02062 0.54763 0.11732 0.0
C1149 C 0.00403 0.56896 0.12623 0.0
H1150 H 0.02625 0.52144 0.09206 0.0
H1151 H 0.86772 0.73445 0.1741 0.0
H1152 H 0.75411 0.95463 0.61587 0.0
H1153 H 0.70966 0.92647 0.61723 0.0
H1154 H 0.66839 0.99434 0.64945 0.0
H1155 H 0.71291 0.02236 0.64859 0.0
H1156 H 0.64833 0.94373 0.66114 0.0
H1157 H 0.65982 0.99055 0.6006 0.0
H1158 H 0.68328 0.00469 0.57036 0.0
H1159 H 0.68862 0.91587 0.55328 0.0
H1160 H 0.66519 0.90121 0.58357 0.0
H1161 H 0.50328 0.90695 0.63148 0.0
H1162 H 0.54899 0.93152 0.6383 0.0
H1163 H 0.59536 0.86406 0.60887 0.0
H1164 H 0.55017 0.83971 0.60179 0.0
H1165 H 0.61192 0.91578 0.59677 0.0
H1166 H 0.5955 0.87073 0.65853 0.0
H1167 H 0.5678 0.86069 0.68802 0.0
H1168 H 0.56809 0.95073 0.70222 0.0
H1169 H 0.59545 0.96137 0.67267 0.0
C1170 C 0.73583 0.96333 0.62364 0.0
C1171 C 0.73709 0.99099 0.6319 0.0
C1172 C 0.71032 0.94726 0.6243 0.0
C1173 C 0.6854 0.95861 0.63299 0.0
C1174 C 0.68723 0.98519 0.64253 0.0
C1175 C 0.71281 0.0012 0.64203 0.0
C1176 C 0.657 0.94395 0.63074 0.0
C1177 C 0.64027 0.93778 0.64706 0.0
C1178 C 0.64631 0.9362 0.61239 0.0
C1179 C 0.66107 0.94479 0.59441 0.0
C1180 C 0.66626 0.97403 0.59048 0.0
C1181 C 0.6795 0.98213 0.57329 0.0
C1182 C 0.68757 0.96118 0.55989 0.0
C1183 C 0.68241 0.93207 0.56368 0.0
C1184 C 0.66911 0.92386 0.58084 0.0
C1185 C 0.52321 0.89729 0.62653 0.0
C1186 C 0.5229 0.87141 0.61595 0.0
C1187 C 0.54936 0.91128 0.63055 0.0
C1188 C 0.57566 0.89953 0.6242 0.0
C1189 C 0.57537 0.87357 0.6139 0.0
C1190 C 0.54939 0.85967 0.60984 0.0
C1191 C 0.60351 0.91485 0.62717 0.0
C1192 C 0.62006 0.92142 0.6109 0.0
C1193 C 0.61364 0.92332 0.64551 0.0
C1194 C 0.5973 0.91687 0.6633 0.0
C1195 C 0.58946 0.88841 0.66786 0.0
C1196 C 0.57385 0.88261 0.6846 0.0
C1197 C 0.56615 0.90507 0.69696 0.0
C1198 C 0.57406 0.93337 0.69262 0.0
C1199 C 0.58963 0.93929 0.67589 0.0
H1200 H 0.55415 0.90056 0.70992 0.0
H1201 H 0.69769 0.96744 0.54653 0.0
H1202 H 0.59154 0.50454 0.64117 0.0
H1203 H 0.56467 0.54847 0.64866 0.0
H1204 H 0.62774 0.59894 0.61802 0.0
H1205 H 0.65493 0.55528 0.6106 0.0
H1206 H 0.61228 0.62448 0.65185 0.0
H1207 H 0.56467 0.58173 0.59713 0.0
H1208 H 0.53995 0.54299 0.57932 0.0
H1209 H 0.47338 0.54043 0.62218 0.0
H1210 H 0.49795 0.57892 0.64039 0.0
H1211 H 0.53785 0.74989 0.62259 0.0
H1212 H 0.56571 0.70626 0.62823 0.0
H1213 H 0.49283 0.66786 0.65699 0.0
H1214 H 0.46445 0.71137 0.65109 0.0
H1215 H 0.5114 0.63428 0.62889 0.0
H1216 H 0.55614 0.68251 0.68129 0.0
H1217 H 0.58076 0.72219 0.69819 0.0
H1218 H 0.65255 0.71551 0.65946 0.0
H1219 H 0.6282 0.67606 0.64214 0.0
C1220 C 0.59978 0.52496 0.63604 0.0
C1221 C 0.62534 0.52628 0.62514 0.0
C1222 C 0.58435 0.55006 0.64033 0.0
C1223 C 0.59411 0.57694 0.63379 0.0
C1224 C 0.61986 0.57842 0.62325 0.0
C1225 C 0.63528 0.55337 0.61891 0.0
C1226 C 0.57706 0.6035 0.63731 0.0
C1227 C 0.59026 0.62675 0.64676 0.0
C1228 C 0.54809 0.6061 0.63114 0.0
C1229 C 0.53333 0.58293 0.62024 0.0
C1230 C 0.5449 0.57272 0.60284 0.0
C1231 C 0.53089 0.55085 0.59266 0.0
C1232 C 0.50516 0.53919 0.59965 0.0
C1233 C 0.49335 0.54944 0.61681 0.0
C1234 C 0.5073 0.57128 0.62706 0.0
C1235 C 0.52787 0.73249 0.63054 0.0
C1236 C 0.49872 0.73407 0.63615 0.0
C1237 C 0.54395 0.70753 0.63385 0.0
C1238 C 0.53138 0.68372 0.64302 0.0
C1239 C 0.50294 0.68595 0.64984 0.0
C1240 C 0.48679 0.71094 0.64652 0.0
C1241 C 0.54668 0.65558 0.64324 0.0
C1242 C 0.5332 0.63197 0.63438 0.0
C1243 C 0.57541 0.65274 0.64991 0.0
C1244 C 0.59023 0.67641 0.66033 0.0
C1245 C 0.57709 0.68963 0.67628 0.0
C1246 C 0.59102 0.71206 0.68595 0.0
C1247 C 0.61818 0.7214 0.67988 0.0
C1248 C 0.63151 0.70826 0.66415 0.0
C1249 C 0.61766 0.68583 0.65441 0.0
H1250 H 0.62893 0.73877 0.68739 0.0
H1251 H 0.49433 0.52227 0.59174 0.0
H1252 H 0.95433 0.66161 0.61684 0.0
H1253 H 0.91006 0.6353 0.62438 0.0
H1254 H 0.95966 0.55819 0.63459 0.0
H1255 H 0.00426 0.58447 0.62733 0.0
H1256 H 0.91095 0.55109 0.60942 0.0
H1257 H 0.93389 0.58895 0.67174 0.0
H1258 H 0.94689 0.62705 0.69486 0.0
H1259 H 0.86828 0.67212 0.68196 0.0
H1260 H 0.85499 0.63448 0.65855 0.0
H1261 H 0.78418 0.48505 0.66054 0.0
H1262 H 0.82972 0.51169 0.66309 0.0
H1263 H 0.80587 0.56319 0.61414 0.0
H1264 H 0.76024 0.53744 0.61165 0.0
H1265 H 0.84428 0.57849 0.66222 0.0
H1266 H 0.86645 0.5486 0.58386 0.0
H1267 H 0.85267 0.51137 0.56025 0.0
H1268 H 0.84162 0.4499 0.60571 0.0
H1269 H 0.85597 0.48657 0.62952 0.0
C1270 C 0.95589 0.63907 0.62075 0.0
C1271 C 0.98284 0.62511 0.62144 0.0
C1272 C 0.93057 0.62412 0.62514 0.0
C1273 C 0.93163 0.59486 0.63011 0.0
C1274 C 0.95844 0.5808 0.63082 0.0
C1275 C 0.98387 0.59587 0.62673 0.0
C1276 C 0.90456 0.57883 0.63388 0.0
C1277 C 0.89653 0.5569 0.62107 0.0
C1278 C 0.88576 0.58644 0.64909 0.0
C1279 C 0.89355 0.60899 0.66328 0.0
C1280 C 0.91948 0.60709 0.67372 0.0
C1281 C 0.92688 0.62859 0.6869 0.0
C1282 C 0.90845 0.65202 0.68985 0.0
C1283 C 0.88254 0.65396 0.67966 0.0
C1284 C 0.87504 0.63253 0.66645 0.0
C1285 C 0.78821 0.50262 0.65067 0.0
C1286 C 0.76859 0.50884 0.63576 0.0
C1287 C 0.81423 0.5178 0.65217 0.0
C1288 C 0.82118 0.53907 0.63864 0.0
C1289 C 0.80087 0.54672 0.62464 0.0
C1290 C 0.77473 0.53195 0.6233 0.0
C1291 C 0.85066 0.55114 0.63763 0.0
C1292 C 0.85897 0.57244 0.65078 0.0
C1293 C 0.86979 0.54296 0.62275 0.0
C1294 C 0.86195 0.52046 0.60849 0.0
C1295 C 0.86122 0.5271 0.5888 0.0
C1296 C 0.85332 0.50609 0.57538 0.0
C1297 C 0.84617 0.47832 0.58148 0.0
C1298 C 0.84706 0.47145 0.60101 0.0
C1299 C 0.85505 0.49236 0.61447 0.0
H1300 H 0.84003 0.4621 0.57108 0.0
H1301 H 0.91422 0.66865 0.70006 0.0
H1302 H 0.91477 0.99848 0.63319 0.0
H1303 H 0.94103 0.95423 0.64087 0.0
H1304 H 0.8793 0.90476 0.6083 0.0
H1305 H 0.85276 0.94869 0.6007 0.0
H1306 H 0.89096 0.87901 0.64209 0.0
H1307 H 0.94584 0.92034 0.59017 0.0
H1308 H 0.97374 0.95806 0.57353 0.0
H1309 H 0.03536 0.95904 0.6196 0.0
H1310 H 0.00761 0.92156 0.63664 0.0
H1311 H 0.96644 0.75065 0.61958 0.0
H1312 H 0.93901 0.7952 0.62226 0.0
H1313 H 0.00836 0.83378 0.6546 0.0
H1314 H 0.03634 0.7893 0.65168 0.0
H1315 H 0.99413 0.86674 0.62498 0.0
H1316 H 0.94161 0.82077 0.67512 0.0
H1317 H 0.91409 0.78188 0.69078 0.0
H1318 H 0.84814 0.78866 0.64768 0.0
H1319 H 0.87545 0.82731 0.63159 0.0
C1320 C 0.90679 0.97823 0.62757 0.0
C1321 C 0.88163 0.9773 0.61623 0.0
C1322 C 0.92188 0.95292 0.63198 0.0
C1323 C 0.91223 0.92614 0.62509 0.0
C1324 C 0.88713 0.92513 0.61383 0.0
C1325 C 0.87205 0.95038 0.6094 0.0
C1326 C 0.92827 0.89912 0.62945 0.0
C1327 C 0.91347 0.87623 0.63823 0.0
C1328 C 0.95787 0.89575 0.62494 0.0
C1329 C 0.97446 0.91841 0.61478 0.0
C1330 C 0.96519 0.9288 0.59684 0.0
C1331 C 0.98101 0.95009 0.58732 0.0
C1332 C 0.00625 0.96101 0.59553 0.0
C1333 C 0.01577 0.95061 0.61327 0.0
C1334 C 1.00001 0.92934 0.62286 0.0
C1335 C 0.97566 0.7683 0.6277 0.0
C1336 C 0.0038 0.76636 0.63525 0.0
C1337 C 0.95983 0.79383 0.62928 0.0
C1338 C 0.97159 0.81796 0.6386 0.0
C1339 C 0.99886 0.8155 0.64727 0.0
C1340 C 0.01476 0.78992 0.64571 0.0
C1341 C 0.95675 0.84639 0.63742 0.0
C1342 C 0.97175 0.86959 0.62916 0.0
C1343 C 0.92733 0.84997 0.64236 0.0
C1344 C 0.91071 0.82684 0.65207 0.0
C1345 C 0.92134 0.81384 0.6689 0.0
C1346 C 0.90575 0.79185 0.67787 0.0
C1347 C 0.87941 0.78277 0.67021 0.0
C1348 C 0.86855 0.79571 0.65359 0.0
C1349 C 0.88406 0.81769 0.64456 0.0
H1350 H 0.86738 0.76573 0.67717 0.0
H1351 H 0.01849 0.97746 0.58813 0.0
H1352 H 0.00198 0.10104 0.86953 0.0
H1353 H 0.04847 0.07949 0.86084 0.0
H1354 H 0.09104 0.13221 0.90328 0.0
H1355 H 0.04507 0.15403 0.91186 0.0
H1356 H 0.12107 0.13204 0.87058 0.0
H1357 H 0.07648 0.061 0.9115 0.0
H1358 H 0.03825 0.02732 0.92161 0.0
H1359 H 0.04668 0.9811 0.86846 0.0
H1360 H 0.08473 0.01477 0.85793 0.0
H1361 H 0.24982 0.05419 0.89184 0.0
H1362 H 0.20488 0.08146 0.88975 0.0
H1363 H 0.17425 0.02404 0.8455 0.0
H1364 H 0.21898 0.99651 0.84756 0.0
H1365 H 0.13717 0.0266 0.87481 0.0
H1366 H 0.18669 0.09496 0.83584 0.0
H1367 H 0.22581 0.12826 0.82679 0.0
H1368 H 0.20915 0.17933 0.87702 0.0
H1369 H 0.17019 0.1461 0.88654 0.0
C1370 C 0.02121 0.10795 0.87708 0.0
C1371 C 0.01966 0.12923 0.89146 0.0
C1372 C 0.04778 0.09562 0.87208 0.0
C1373 C 0.07325 0.10417 0.88146 0.0
C1374 C 0.07173 0.12537 0.89577 0.0
C1375 C 0.0453 0.13772 0.90073 0.0
C1376 C 0.10157 0.09092 0.87669 0.0
C1377 C 0.12467 0.10899 0.87161 0.0
C1378 C 0.1061 0.0608 0.87755 0.0
C1379 C 0.08317 0.04061 0.88383 0.0
C1380 C 0.06999 0.04381 0.9019 0.0
C1381 C 0.0484 0.02469 0.90772 0.0
C1382 C 0.03997 0.00214 0.89566 0.0
C1383 C 0.05318 0.99862 0.87777 0.0
C1384 C 0.07477 0.0177 0.87187 0.0
C1385 C 0.23396 0.04785 0.88122 0.0
C1386 C 0.23795 0.02287 0.87005 0.0
C1387 C 0.2082 0.06351 0.88004 0.0
C1388 C 0.18607 0.05467 0.86756 0.0
C1389 C 0.19092 0.03113 0.85534 0.0
C1390 C 0.21662 0.01547 0.8565 0.0
C1391 C 0.15685 0.06773 0.86892 0.0
C1392 C 0.13355 0.04961 0.87344 0.0
C1393 C 0.15223 0.0978 0.86765 0.0
C1394 C 0.17564 0.11788 0.86198 0.0
C1395 C 0.19152 0.11316 0.84504 0.0
C1396 C 0.21364 0.13205 0.83981 0.0
C1397 C 0.22 0.15587 0.85134 0.0
C1398 C 0.20421 0.16087 0.86811 0.0
C1399 C 0.18208 0.14202 0.87342 0.0
H1400 H 0.23714 0.17047 0.84727 0.0
H1401 H 0.02326 0.98735 0.9002 0.0
H1402 H 0.41731 0.00338 0.87564 0.0
H1403 H 0.44626 0.04666 0.86945 0.0
H1404 H 0.38025 0.09924 0.89553 0.0
H1405 H 0.35139 0.05654 0.90179 0.0
H1406 H 0.39818 0.12178 0.86163 0.0
H1407 H 0.43991 0.08402 0.9193 0.0
H1408 H 0.46405 0.04907 0.94056 0.0
H1409 H 0.53735 0.04708 0.90287 0.0
H1410 H 0.51338 0.08162 0.88116 0.0
H1411 H 0.46835 0.25078 0.89018 0.0
H1412 H 0.44151 0.20619 0.88548 0.0
H1413 H 0.51576 0.16762 0.85835 0.0
H1414 H 0.54296 0.21213 0.86312 0.0
H1415 H 0.49627 0.13594 0.88851 0.0
H1416 H 0.45457 0.17949 0.83271 0.0
H1417 H 0.43049 0.21825 0.81454 0.0
H1418 H 0.35668 0.21242 0.85159 0.0
H1419 H 0.38047 0.17389 0.87016 0.0
C1420 C 0.40902 0.02414 0.88012 0.0
C1421 C 0.38201 0.02637 0.88927 0.0
C1422 C 0.4256 0.04885 0.87659 0.0
C1423 C 0.41538 0.07618 0.88202 0.0
C1424 C 0.3885 0.07841 0.89113 0.0
C1425 C 0.37209 0.05384 0.8948 0.0
C1426 C 0.43241 0.10269 0.87829 0.0
C1427 C 0.41962 0.12491 0.86753 0.0
C1428 C 0.46058 0.10657 0.88571 0.0
C1429 C 0.47459 0.08499 0.8984 0.0
C1430 C 0.46095 0.07575 0.91536 0.0
C1431 C 0.47466 0.05609 0.92753 0.0
C1432 C 0.50215 0.04573 0.92302 0.0
C1433 C 0.51599 0.05502 0.90631 0.0
C1434 C 0.50234 0.0746 0.89405 0.0
C1435 C 0.47879 0.23313 0.88273 0.0
C1436 C 0.50795 0.23502 0.87722 0.0
C1437 C 0.46335 0.20761 0.88001 0.0
C1438 C 0.47667 0.18351 0.87163 0.0
C1439 C 0.50511 0.18594 0.8649 0.0
C1440 C 0.52055 0.21153 0.86753 0.0
C1441 C 0.462 0.15509 0.87194 0.0
C1442 C 0.47514 0.13255 0.88218 0.0
C1443 C 0.43402 0.15108 0.86427 0.0
C1444 C 0.4194 0.17389 0.8529 0.0
C1445 C 0.43327 0.18657 0.83705 0.0
C1446 C 0.41966 0.2085 0.82667 0.0
C1447 C 0.39209 0.21783 0.83193 0.0
C1448 C 0.37803 0.20517 0.84753 0.0
C1449 C 0.39155 0.18324 0.85797 0.0
H1450 H 0.38162 0.23486 0.8239 0.0
H1451 H 0.51278 0.03062 0.93251 0.0
H1452 H 0.45293 0.34154 0.90762 0.0
H1453 H 0.40812 0.36649 0.89993 0.0
H1454 H 0.4562 0.43412 0.87209 0.0
H1455 H 0.50144 0.40938 0.87987 0.0
H1456 H 0.41468 0.45547 0.896 0.0
H1457 H 0.41934 0.38553 0.84549 0.0
H1458 H 0.42507 0.33691 0.8317 0.0
H1459 H 0.35045 0.30789 0.86267 0.0
H1460 H 0.34449 0.35624 0.87687 0.0
H1461 H 0.28968 0.5237 0.86152 0.0
H1462 H 0.33461 0.49643 0.85902 0.0
H1463 H 0.29618 0.4262 0.89038 0.0
H1464 H 0.25108 0.45324 0.89298 0.0
H1465 H 0.33406 0.40744 0.86164 0.0
H1466 H 0.33187 0.47432 0.9144 0.0
H1467 H 0.32551 0.52203 0.92946 0.0
H1468 H 0.39526 0.55571 0.89568 0.0
H1469 H 0.40166 0.50831 0.88013 0.0
C1470 C 0.45412 0.36168 0.89981 0.0
C1471 C 0.48093 0.3734 0.89437 0.0
C1472 C 0.42838 0.37585 0.89533 0.0
C1473 C 0.42875 0.40201 0.88523 0.0
C1474 C 0.45541 0.41389 0.87983 0.0
C1475 C 0.48124 0.39967 0.88426 0.0
C1476 C 0.40128 0.41723 0.88088 0.0
C1477 C 0.39729 0.44519 0.88812 0.0
C1478 C 0.37828 0.40353 0.87104 0.0
C1479 C 0.3816 0.37449 0.86236 0.0
C1480 C 0.40426 0.36874 0.84946 0.0
C1481 C 0.40753 0.34123 0.84155 0.0
C1482 C 0.38817 0.3193 0.84633 0.0
C1483 C 0.36544 0.32488 0.85899 0.0
C1484 C 0.36208 0.35235 0.86695 0.0
C1485 C 0.29041 0.50213 0.86742 0.0
C1486 C 0.26681 0.49086 0.8777 0.0
C1487 C 0.31622 0.48663 0.86606 0.0
C1488 C 0.31888 0.45955 0.87485 0.0
C1489 C 0.29462 0.44714 0.88359 0.0
C1490 C 0.26885 0.46269 0.88508 0.0
C1491 C 0.34756 0.44557 0.87676 0.0
C1492 C 0.35167 0.41784 0.8692 0.0
C1493 C 0.37062 0.45937 0.88645 0.0
C1494 C 0.367 0.48785 0.89591 0.0
C1495 C 0.34568 0.49196 0.91005 0.0
C1496 C 0.34208 0.51894 0.91869 0.0
C1497 C 0.35991 0.54191 0.91349 0.0
C1498 C 0.38142 0.53792 0.89966 0.0
C1499 C 0.38503 0.511 0.89092 0.0
H1500 H 0.35711 0.56276 0.92022 0.0
H1501 H 0.39075 0.29801 0.84021 0.0
H1502 H 0.08818 0.49196 0.87796 0.0
H1503 H 0.06174 0.44809 0.86983 0.0
H1504 H 0.13054 0.39656 0.89357 0.0
H1505 H 0.15726 0.44022 0.90166 0.0
H1506 H 0.11167 0.37469 0.85969 0.0
H1507 H 0.07073 0.40772 0.91872 0.0
H1508 H 0.0471 0.44095 0.94143 0.0
H1509 H 0.97323 0.44645 0.90437 0.0
H1510 H 0.99667 0.41366 0.88123 0.0
H1511 H 0.03716 0.24547 0.88502 0.0
H1512 H 0.06625 0.28875 0.88069 0.0
H1513 H 0.99413 0.33132 0.85368 0.0
H1514 H 0.96477 0.28817 0.85796 0.0
H1515 H 0.0135 0.35899 0.88603 0.0
H1516 H 0.05457 0.32038 0.8285 0.0
H1517 H 0.07842 0.2837 0.80838 0.0
H1518 H 0.15254 0.28529 0.8454 0.0
H1519 H 0.12897 0.3217 0.86591 0.0
C1520 C 0.09778 0.47132 0.88142 0.0
C1521 C 0.12482 0.46968 0.89058 0.0
C1522 C 0.08258 0.44627 0.8768 0.0
C1523 C 0.0941 0.4191 0.88123 0.0
C1524 C 0.12129 0.41733 0.89001 0.0
C1525 C 0.13645 0.44235 0.89472 0.0
C1526 C 0.07757 0.3925 0.87709 0.0
C1527 C 0.09026 0.37115 0.86552 0.0
C1528 C 0.04946 0.38814 0.88446 0.0
C1529 C 0.03569 0.40861 0.89807 0.0
C1530 C 0.04964 0.41636 0.91525 0.0
C1531 C 0.03625 0.43506 0.92824 0.0
C1532 C 0.00875 0.44593 0.9243 0.0
C1533 C 0.99459 0.43812 0.90736 0.0
C1534 C 0.00793 0.4195 0.89429 0.0
C1535 C 0.0277 0.2637 0.87762 0.0
C1536 C 0.99846 0.26349 0.87214 0.0
C1537 C 0.04443 0.28842 0.87509 0.0
C1538 C 0.03225 0.31329 0.86699 0.0
C1539 C 0.00386 0.31233 0.86001 0.0
C1540 C 0.98715 0.28757 0.86242 0.0
C1541 C 0.0475 0.3412 0.86858 0.0
C1542 C 0.03466 0.36276 0.87984 0.0
C1543 C 0.07558 0.34548 0.86118 0.0
C1544 C 0.08988 0.32364 0.84883 0.0
C1545 C 0.07586 0.31275 0.83245 0.0
C1546 C 0.08935 0.29204 0.82095 0.0
C1547 C 0.11696 0.28213 0.82563 0.0
C1548 C 0.13115 0.29298 0.8418 0.0
C1549 C 0.11775 0.31369 0.85335 0.0
H1550 H 0.12736 0.26609 0.81671 0.0
H1551 H 0.99835 0.46029 0.93442 0.0
H1552 H 0.67922 0.13276 0.39286 0.0
H1553 H 0.72971 0.13911 0.40306 0.0
H1554 H 0.70516 0.21562 0.43452 0.0
H1555 H 0.65559 0.20922 0.42447 0.0
H1556 H 0.75709 0.1808 0.38955 0.0
H1557 H 0.75322 0.23852 0.46711 0.0
H1558 H 0.73895 0.22496 0.49981 0.0
H1559 H 0.73494 0.136 0.48317 0.0
H1560 H 0.75071 0.14866 0.45051 0.0
H1561 H 0.81365 0.31248 0.37931 0.0
H1562 H 0.78147 0.27368 0.38945 0.0
H1563 H 0.84073 0.25138 0.435 0.0
H1564 H 0.87142 0.29207 0.42597 0.0
H1565 H 0.7914 0.23637 0.44587 0.0
H1566 H 0.84305 0.21756 0.39022 0.0
H1567 H 0.86439 0.22539 0.35824 0.0
H1568 H 0.77977 0.22622 0.33308 0.0
H1569 H 0.75797 0.21894 0.36498 0.0
C1570 C 0.68473 0.15032 0.40243 0.0
C1571 C 0.66404 0.17107 0.40741 0.0
C1572 C 0.71341 0.15385 0.40837 0.0
C1573 C 0.72138 0.17792 0.41952 0.0
C1574 C 0.69979 0.19667 0.42616 0.0
C1575 C 0.67146 0.19335 0.42009 0.0
C1576 C 0.75158 0.18842 0.41988 0.0
C1577 C 0.76493 0.19243 0.40201 0.0
C1578 C 0.76315 0.20222 0.43633 0.0
C1579 C 0.75321 0.19465 0.4561 0.0
C1580 C 0.74976 0.21598 0.47034 0.0
C1581 C 0.74137 0.20842 0.48896 0.0
C1582 C 0.73589 0.17966 0.49355 0.0
C1583 C 0.73907 0.15832 0.47957 0.0
C1584 C 0.74783 0.16568 0.46099 0.0
C1585 C 0.81893 0.30018 0.39206 0.0
C1586 C 0.84475 0.30512 0.40192 0.0
C1587 C 0.80097 0.27763 0.39762 0.0
C1588 C 0.80946 0.25873 0.41238 0.0
C1589 C 0.83394 0.26536 0.42339 0.0
C1590 C 0.85132 0.28873 0.41831 0.0
C1591 C 0.7936 0.23133 0.41526 0.0
C1592 C 0.78385 0.22402 0.4337 0.0
C1593 C 0.78603 0.2136 0.39948 0.0
C1594 C 0.79893 0.21759 0.38007 0.0
C1595 C 0.82903 0.21943 0.37788 0.0
C1596 C 0.8412 0.22384 0.35976 0.0
C1597 C 0.82345 0.22626 0.34362 0.0
C1598 C 0.79351 0.22428 0.34559 0.0
C1599 C 0.78124 0.21996 0.36371 0.0
H1600 H 0.83289 0.22969 0.32959 0.0
H1601 H 0.72921 0.1739 0.50794 0.0
H1602 H 0.30579 0.6378 0.42729 0.0
H1603 H 0.27424 0.67817 0.43592 0.0
H1604 H 0.28694 0.71475 0.3796 0.0
H1605 H 0.31715 0.6737 0.37067 0.0
H1606 H 0.26865 0.74002 0.43496 0.0
H1607 H 0.22406 0.71955 0.35848 0.0
H1608 H 0.22292 0.68039 0.33457 0.0
H1609 H 0.22903 0.61761 0.37956 0.0
H1610 H 0.22989 0.65641 0.40388 0.0
H1611 H 0.20095 0.83256 0.3648 0.0
H1612 H 0.21511 0.78442 0.37452 0.0
H1613 H 0.1719 0.796 0.42896 0.0
H1614 H 0.15788 0.84503 0.41917 0.0
H1615 H 0.19077 0.73536 0.38605 0.0
H1616 H 0.21302 0.75954 0.46109 0.0
H1617 H 0.21487 0.79952 0.4845 0.0
H1618 H 0.25311 0.85439 0.44189 0.0
H1619 H 0.25133 0.81471 0.41822 0.0
C1620 C 0.30311 0.65536 0.41718 0.0
C1621 C 0.31375 0.65291 0.39834 0.0
C1622 C 0.28494 0.67826 0.42209 0.0
C1623 C 0.2777 0.69885 0.40819 0.0
C1624 C 0.29196 0.69866 0.39038 0.0
C1625 C 0.30948 0.67547 0.38533 0.0
C1626 C 0.25175 0.71699 0.41053 0.0
C1627 C 0.25131 0.73872 0.42452 0.0
C1628 C 0.22851 0.71452 0.39741 0.0
C1629 C 0.22702 0.69091 0.38301 0.0
C1630 C 0.22487 0.69739 0.36332 0.0
C1631 C 0.22438 0.67525 0.3497 0.0
C1632 C 0.22595 0.64653 0.35558 0.0
C1633 C 0.2279 0.63988 0.3751 0.0
C1634 C 0.22839 0.66192 0.3888 0.0
C1635 C 0.19371 0.82453 0.3786 0.0
C1636 C 0.17856 0.84237 0.39129 0.0
C1637 C 0.20175 0.797 0.38417 0.0
C1638 C 0.19492 0.78678 0.40259 0.0
C1639 C 0.17762 0.80364 0.41477 0.0
C1640 C 0.16939 0.83142 0.4091 0.0
C1641 C 0.20932 0.76009 0.40908 0.0
C1642 C 0.20745 0.73605 0.39699 0.0
C1643 C 0.23025 0.76046 0.4239 0.0
C1644 C 0.23198 0.78429 0.43796 0.0
C1645 C 0.2219 0.78013 0.45678 0.0
C1646 C 0.22291 0.80272 0.47006 0.0
C1647 C 0.23419 0.82946 0.4647 0.0
C1648 C 0.24445 0.83366 0.44602 0.0
C1649 C 0.24342 0.81116 0.43266 0.0
H1650 H 0.23496 0.84692 0.475 0.0
H1651 H 0.22564 0.62942 0.34502 0.0
H1652 H 0.315 0.67323 0.12993 0.0
H1653 H 0.27095 0.69238 0.11552 0.0
H1654 H 0.30953 0.68604 0.05933 0.0
H1655 H 0.35328 0.66565 0.07369 0.0
H1656 H 0.30199 0.74334 0.07547 0.0
H1657 H 0.24671 0.65997 0.06132 0.0
H1658 H 0.22133 0.61345 0.06518 0.0
H1659 H 0.17061 0.64901 0.11089 0.0
H1660 H 0.1954 0.69557 0.10736 0.0
H1661 H 0.15016 0.81871 0.07448 0.0
H1662 H 0.18925 0.79077 0.05987 0.0
H1663 H 0.23188 0.78561 0.11481 0.0
H1664 H 0.19202 0.81212 0.12969 0.0
H1665 H 0.1961 0.73248 0.08225 0.0
H1666 H 0.30731 0.7861 0.09731 0.0
H1667 H 0.32811 0.83493 0.09607 0.0
H1668 H 0.26542 0.85962 0.05371 0.0
H1669 H 0.24513 0.81071 0.05402 0.0
C1670 C 0.31331 0.67413 0.11442 0.0
C1671 C 0.33735 0.66805 0.10289 0.0
C1672 C 0.28816 0.68509 0.10616 0.0
C1673 C 0.28712 0.6908 0.08638 0.0
C1674 C 0.30988 0.68155 0.07459 0.0
C1675 C 0.33479 0.66982 0.08282 0.0
C1676 C 0.267 0.7133 0.07963 0.0
C1677 C 0.27876 0.74086 0.07648 0.0
C1678 C 0.23675 0.70995 0.08096 0.0
C1679 C 0.22298 0.68137 0.08398 0.0
C1680 C 0.23032 0.65779 0.07228 0.0
C1681 C 0.21598 0.63144 0.07437 0.0
C1682 C 0.19447 0.62831 0.08825 0.0
C1683 C 0.18728 0.65146 0.10013 0.0
C1684 C 0.20138 0.67788 0.09802 0.0
C1685 C 0.16864 0.8129 0.08322 0.0
C1686 C 0.16834 0.81752 0.10317 0.0
C1687 C 0.19078 0.79679 0.07487 0.0
C1688 C 0.21325 0.78622 0.08631 0.0
C1689 C 0.21475 0.79393 0.10578 0.0
C1690 C 0.19216 0.80918 0.11425 0.0
C1691 C 0.23136 0.76224 0.07956 0.0
C1692 C 0.21926 0.7346 0.08041 0.0
C1693 C 0.26127 0.76555 0.0768 0.0
C1694 C 0.27458 0.79464 0.07575 0.0
C1695 C 0.2982 0.8018 0.08752 0.0
C1696 C 0.30994 0.82955 0.08698 0.0
C1697 C 0.2982 0.85037 0.07477 0.0
C1698 C 0.27473 0.84346 0.06304 0.0
C1699 C 0.26313 0.8157 0.06338 0.0
H1700 H 0.30725 0.87186 0.07441 0.0
H1701 H 0.18336 0.60793 0.08978 0.0
H1702 H 0.82633 0.33023 0.11536 0.0
H1703 H 0.80323 0.2868 0.10232 0.0
H1704 H 0.73037 0.33806 0.08392 0.0
H1705 H 0.75304 0.38073 0.0972 0.0
H1706 H 0.71114 0.29877 0.10295 0.0
H1707 H 0.77456 0.2972 0.05026 0.0
H1708 H 0.82039 0.30136 0.03251 0.0
H1709 H 0.85414 0.22834 0.06303 0.0
H1710 H 0.80882 0.22442 0.08139 0.0
H1711 H 0.65625 0.15363 0.09788 0.0
H1712 H 0.67003 0.20048 0.08432 0.0
H1713 H 0.75343 0.1936 0.11154 0.0
H1714 H 0.74012 0.14752 0.12508 0.0
H1715 H 0.7571 0.21285 0.07372 0.0
H1716 H 0.69867 0.23043 0.133 0.0
H1717 H 0.65274 0.22772 0.15087 0.0
H1718 H 0.60915 0.27127 0.1048 0.0
H1719 H 0.65484 0.27397 0.08661 0.0
C1720 C 0.80562 0.332 0.10824 0.0
C1721 C 0.79087 0.3583 0.10778 0.0
C1722 C 0.79259 0.3074 0.1005 0.0
C1723 C 0.76514 0.30919 0.09182 0.0
C1724 C 0.75156 0.33605 0.09033 0.0
C1725 C 0.76429 0.36033 0.09823 0.0
C1726 C 0.74847 0.28277 0.08758 0.0
C1727 C 0.72093 0.28034 0.0959 0.0
C1728 C 0.76086 0.25865 0.07827 0.0
C1729 C 0.78831 0.26078 0.06733 0.0
C1730 C 0.79189 0.28234 0.05337 0.0
C1731 C 0.81776 0.28458 0.04316 0.0
C1732 C 0.84018 0.26513 0.04665 0.0
C1733 C 0.83676 0.24341 0.06035 0.0
C1734 C 0.81096 0.24119 0.07067 0.0
C1735 C 0.67742 0.16228 0.10106 0.0
C1736 C 0.69696 0.14703 0.11274 0.0
C1737 C 0.6853 0.18882 0.09318 0.0
C1738 C 0.71286 0.20011 0.09674 0.0
C1739 C 0.73226 0.18491 0.10835 0.0
C1740 C 0.72438 0.15875 0.11634 0.0
C1741 C 0.72131 0.229 0.09025 0.0
C1742 C 0.74706 0.23189 0.07982 0.0
C1743 C 0.70729 0.25369 0.09744 0.0
C1744 C 0.67997 0.25206 0.10838 0.0
C1745 C 0.67923 0.23925 0.12666 0.0
C1746 C 0.65327 0.23775 0.13684 0.0
C1747 C 0.62802 0.24923 0.12895 0.0
C1748 C 0.6287 0.26231 0.11087 0.0
C1749 C 0.6546 0.26383 0.10063 0.0
H1750 H 0.60795 0.24805 0.13685 0.0
H1751 H 0.86019 0.26686 0.03871 0.0
H1752 H 0.15927 0.65548 0.58188 0.0
H1753 H 0.20657 0.66692 0.56795 0.0
H1754 H 0.23214 0.70663 0.62136 0.0
H1755 H 0.1849 0.69597 0.63507 0.0
H1756 H 0.22212 0.72452 0.56437 0.0
H1757 H 0.30225 0.69982 0.62788 0.0
H1758 H 0.31376 0.65902 0.64916 0.0
H1759 H 0.27705 0.60009 0.60838 0.0
H1760 H 0.26568 0.64047 0.58668 0.0
H1761 H 0.31383 0.81753 0.61785 0.0
H1762 H 0.27913 0.78333 0.60433 0.0
H1763 H 0.34037 0.75988 0.56043 0.0
H1764 H 0.37445 0.79563 0.57313 0.0
H1765 H 0.31735 0.71824 0.5965 0.0
H1766 H 0.27277 0.74409 0.52907 0.0
H1767 H 0.25959 0.78245 0.5061 0.0
H1768 H 0.22586 0.83374 0.55232 0.0
H1769 H 0.23897 0.79558 0.57553 0.0
C1770 C 0.17542 0.66574 0.59082 0.0
C1771 C 0.16855 0.67501 0.60951 0.0
C1772 C 0.20233 0.67228 0.58283 0.0
C1773 C 0.22287 0.68741 0.59366 0.0
C1774 C 0.21676 0.69452 0.61285 0.0
C1775 C 0.18974 0.6886 0.62066 0.0
C1776 C 0.24832 0.70071 0.58447 0.0
C1777 C 0.24329 0.72246 0.57087 0.0
C1778 C 0.2761 0.69763 0.59257 0.0
C1779 C 0.2831 0.67326 0.60561 0.0
C1780 C 0.29684 0.67816 0.62334 0.0
C1781 C 0.30328 0.65509 0.63552 0.0
C1782 C 0.29614 0.62699 0.63013 0.0
C1783 C 0.28253 0.62188 0.61255 0.0
C1784 C 0.27603 0.64487 0.60032 0.0
C1785 C 0.31917 0.80627 0.60469 0.0
C1786 C 0.34645 0.80939 0.59634 0.0
C1787 C 0.29944 0.78677 0.59697 0.0
C1788 C 0.30714 0.76943 0.58124 0.0
C1789 C 0.33381 0.7736 0.57222 0.0
C1790 C 0.35319 0.79396 0.57952 0.0
C1791 C 0.2901 0.74317 0.57781 0.0
C1792 C 0.29676 0.71908 0.58912 0.0
C1793 C 0.26399 0.74382 0.56748 0.0
C1794 C 0.25713 0.76729 0.55396 0.0
C1795 C 0.2627 0.76366 0.53429 0.0
C1796 C 0.25517 0.7853 0.52124 0.0
C1797 C 0.24191 0.81055 0.52774 0.0
C1798 C 0.23622 0.81422 0.54732 0.0
C1799 C 0.24373 0.79263 0.56043 0.0
H1800 H 0.23602 0.82724 0.51762 0.0
H1801 H 0.30114 0.60916 0.63959 0.0
H1802 H 0.81246 0.17527 0.64147 0.0
H1803 H 0.77555 0.21116 0.63407 0.0
H1804 H 0.76278 0.1727 0.57828 0.0
H1805 H 0.80073 0.13728 0.58542 0.0
H1806 H 0.75464 0.23518 0.57964 0.0
H1807 H 0.71783 0.15063 0.60918 0.0
H1808 H 0.71792 0.1098 0.63191 0.0
H1809 H 0.71515 0.16862 0.67943 0.0
H1810 H 0.71511 0.2098 0.65707 0.0
H1811 H 0.64915 0.3407 0.59958 0.0
H1812 H 0.65668 0.28964 0.59153 0.0
H1813 H 0.7125 0.28068 0.64081 0.0
H1814 H 0.70527 0.33122 0.64872 0.0
H1815 H 0.68123 0.22938 0.63151 0.0
H1816 H 0.74218 0.30754 0.59917 0.0
H1817 H 0.73755 0.35118 0.57913 0.0
H1818 H 0.69011 0.30327 0.53699 0.0
H1819 H 0.69395 0.25943 0.55695 0.0
C1820 C 0.80281 0.17543 0.62729 0.0
C1821 C 0.80945 0.15386 0.61396 0.0
C1822 C 0.78152 0.19562 0.62314 0.0
C1823 C 0.76601 0.19396 0.60584 0.0
C1824 C 0.77448 0.17417 0.59172 0.0
C1825 C 0.7963 0.1542 0.59575 0.0
C1826 C 0.73919 0.21088 0.60394 0.0
C1827 C 0.73797 0.23332 0.59051 0.0
C1828 C 0.71706 0.20802 0.61784 0.0
C1829 C 0.71638 0.18331 0.63141 0.0
C1830 C 0.71726 0.15485 0.62448 0.0
C1831 C 0.71733 0.13165 0.63729 0.0
C1832 C 0.7166 0.13662 0.65707 0.0
C1833 C 0.71565 0.1648 0.6641 0.0
C1834 C 0.71547 0.18808 0.65136 0.0
C1835 C 0.66213 0.32742 0.60904 0.0
C1836 C 0.6771 0.33975 0.62456 0.0
C1837 C 0.66634 0.29835 0.60445 0.0
C1838 C 0.68533 0.28156 0.61549 0.0
C1839 C 0.69768 0.29325 0.63215 0.0
C1840 C 0.69381 0.32218 0.63656 0.0
C1841 C 0.69788 0.25453 0.6081 0.0
C1842 C 0.69669 0.2301 0.61982 0.0
C1843 C 0.7174 0.25525 0.59248 0.0
C1844 C 0.71848 0.28031 0.57943 0.0
C1845 C 0.73121 0.30626 0.58546 0.0
C1846 C 0.72858 0.33103 0.57419 0.0
C1847 C 0.71364 0.32998 0.55678 0.0
C1848 C 0.70163 0.30403 0.55047 0.0
C1849 C 0.70406 0.27921 0.56172 0.0
H1850 H 0.71129 0.3493 0.54822 0.0
H1851 H 0.71674 0.11862 0.66695 0.0
H1852 H 0.86178 0.1855 0.93697 0.0
H1853 H 0.82483 0.21437 0.95333 0.0
H1854 H 0.77517 0.21758 0.901 0.0
H1855 H 0.81271 0.19005 0.88433 0.0
H1856 H 0.81093 0.27323 0.93172 0.0
H1857 H 0.70372 0.20851 0.92295 0.0
H1858 H 0.68709 0.15855 0.92754 0.0
H1859 H 0.7545 0.14406 0.96873 0.0
H1860 H 0.77132 0.19404 0.96463 0.0
H1861 H 0.68959 0.32173 0.88489 0.0
H1862 H 0.73361 0.30357 0.89998 0.0
H1863 H 0.69402 0.31163 0.95579 0.0
H1864 H 0.65026 0.33111 0.94069 0.0
H1865 H 0.70701 0.25371 0.94266 0.0
H1866 H 0.75577 0.34034 0.95534 0.0
H1867 H 0.77363 0.38974 0.95 0.0
H1868 H 0.82288 0.36062 0.90152 0.0
H1869 H 0.80508 0.31114 0.90642 0.0
C1870 C 0.84235 0.19133 0.92921 0.0
C1871 C 0.83981 0.18546 0.90944 0.0
C1872 C 0.82145 0.20795 0.93854 0.0
C1873 C 0.79739 0.2179 0.92834 0.0
C1874 C 0.79356 0.20976 0.90909 0.0
C1875 C 0.81484 0.19397 0.89961 0.0
C1876 C 0.77862 0.24062 0.93623 0.0
C1877 C 0.78829 0.26915 0.93462 0.0
C1878 C 0.74944 0.235 0.94057 0.0
C1879 C 0.73891 0.20506 0.94338 0.0
C1880 C 0.7149 0.19477 0.93309 0.0
C1881 C 0.70547 0.1664 0.93558 0.0
C1882 C 0.71975 0.14814 0.94839 0.0
C1883 C 0.74354 0.15819 0.95874 0.0
C1884 C 0.75305 0.18653 0.95632 0.0
C1885 C 0.69097 0.32122 0.90042 0.0
C1886 C 0.66686 0.32797 0.91168 0.0
C1887 C 0.71604 0.31082 0.90906 0.0
C1888 C 0.71697 0.30626 0.929 0.0
C1889 C 0.69376 0.3153 0.94043 0.0
C1890 C 0.66891 0.32653 0.9318 0.0
C1891 C 0.73894 0.28622 0.93659 0.0
C1892 C 0.72985 0.25806 0.94085 0.0
C1893 C 0.76865 0.29217 0.93465 0.0
C1894 C 0.77919 0.32196 0.93135 0.0
C1895 C 0.77035 0.34449 0.94352 0.0
C1896 C 0.7805 0.37249 0.94059 0.0
C1897 C 0.79949 0.37828 0.9255 0.0
C1898 C 0.80822 0.3561 0.91324 0.0
C1899 C 0.79815 0.32804 0.91611 0.0
H1900 H 0.80738 0.39997 0.92328 0.0
H1901 H 0.71235 0.12622 0.95034 0.0
H1902 H 0.29059 0.84069 0.8592 0.0
H1903 H 0.25622 0.80314 0.86774 0.0
H1904 H 0.26764 0.82302 0.92781 0.0
H1905 H 0.30263 0.8607 0.91927 0.0
H1906 H 0.26377 0.76547 0.92135 0.0
H1907 H 0.20326 0.84544 0.9071 0.0
H1908 H 0.18796 0.88891 0.88925 0.0
H1909 H 0.17504 0.83755 0.83865 0.0
H1910 H 0.19096 0.79414 0.85622 0.0
H1911 H 0.16005 0.65586 0.92501 0.0
H1912 H 0.17056 0.70724 0.93018 0.0
H1913 H 0.1934 0.71582 0.87036 0.0
H1914 H 0.18362 0.66475 0.86535 0.0
H1915 H 0.17002 0.76713 0.8867 0.0
H1916 H 0.23961 0.68951 0.89991 0.0
H1917 H 0.25264 0.64582 0.91787 0.0
H1918 H 0.24955 0.69353 0.97072 0.0
H1919 H 0.2344 0.73693 0.95316 0.0
C1920 C 0.28634 0.83656 0.87426 0.0
C1921 C 0.29923 0.8535 0.88858 0.0
C1922 C 0.26634 0.81548 0.8791 0.0
C1923 C 0.25857 0.81115 0.89835 0.0
C1924 C 0.27304 0.82645 0.91285 0.0
C1925 C 0.29331 0.84759 0.90798 0.0
C1926 C 0.2357 0.79006 0.90293 0.0
C1927 C 0.2429 0.76625 0.91428 0.0
C1928 C 0.20845 0.79107 0.8937 0.0
C1929 C 0.19876 0.81685 0.88292 0.0
C1930 C 0.19769 0.84374 0.89209 0.0
C1931 C 0.18879 0.86825 0.88205 0.0
C1932 C 0.18068 0.86602 0.86278 0.0
C1933 C 0.18138 0.83926 0.85357 0.0
C1934 C 0.19032 0.8147 0.86358 0.0
C1935 C 0.1662 0.66913 0.91289 0.0
C1936 C 0.17155 0.65664 0.89487 0.0
C1937 C 0.17208 0.69836 0.91582 0.0
C1938 C 0.18303 0.7151 0.90068 0.0
C1939 C 0.18491 0.70325 0.8822 0.0
C1940 C 0.17959 0.67408 0.87937 0.0
C1941 C 0.19872 0.74215 0.90439 0.0
C1942 C 0.19031 0.767 0.89449 0.0
C1943 C 0.22492 0.74207 0.91489 0.0
C1944 C 0.23521 0.71624 0.9253 0.0
C1945 C 0.2413 0.69053 0.91541 0.0
C1946 C 0.24898 0.66573 0.92554 0.0
C1947 C 0.2517 0.66666 0.94551 0.0
C1948 C 0.24697 0.69253 0.95533 0.0
C1949 C 0.23861 0.71721 0.9453 0.0
H1950 H 0.25748 0.64739 0.95335 0.0
H1951 H 0.17373 0.88499 0.85502 0.0
H1952 H 0.54674 0.1454 0.47718 0.0
H1953 H 0.57543 0.13502 0.5061 0.0
H1954 H 0.64749 0.11057 0.47022 0.0
H1955 H 0.61851 0.11837 0.44188 0.0
H1956 H 0.65006 0.07889 0.49761 0.0
H1957 H 0.63556 0.17981 0.49198 0.0
H1958 H 0.60692 0.22423 0.48923 0.0
H1959 H 0.57276 0.21092 0.54585 0.0
H1960 H 0.60049 0.16568 0.54868 0.0
H1961 H 0.76754 0.09812 0.5579 0.0
H1962 H 0.73245 0.11497 0.53409 0.0
H1963 H 0.6643 0.1068 0.57594 0.0
H1964 H 0.69971 0.09082 0.60003 0.0
H1965 H 0.65723 0.1542 0.54799 0.0
H1966 H 0.68439 0.05112 0.54994 0.0
H1967 H 0.72304 0.01452 0.54837 0.0
H1968 H 0.74491 0.04209 0.49144 0.0
H1969 H 0.70772 0.08002 0.49306 0.0
C1970 C 0.56844 0.13704 0.47562 0.0
C1971 C 0.58022 0.13242 0.45729 0.0
C1972 C 0.58497 0.13144 0.49211 0.0
C1973 C 0.61396 0.12249 0.49046 0.0
C1974 C 0.62523 0.11717 0.47209 0.0
C1975 C 0.60851 0.12167 0.45578 0.0
C1976 C 0.63336 0.11971 0.50747 0.0
C1977 C 0.65157 0.09554 0.5085 0.0
C1978 C 0.63576 0.14143 0.52177 0.0
C1979 C 0.61971 0.16905 0.52041 0.0
C1980 C 0.62164 0.18611 0.50376 0.0
C1981 C 0.60541 0.21137 0.50213 0.0
C1982 C 0.58778 0.2203 0.51728 0.0
C1983 C 0.58633 0.20391 0.53408 0.0
C1984 C 0.60221 0.17838 0.53568 0.0
C1985 C 0.74517 0.1007 0.56211 0.0
C1986 C 0.73608 0.09293 0.58061 0.0
C1987 C 0.72521 0.11041 0.54857 0.0
C1988 C 0.69572 0.11156 0.55317 0.0
C1989 C 0.68695 0.106 0.57212 0.0
C1990 C 0.70709 0.09678 0.58582 0.0
C1991 C 0.67397 0.11384 0.53762 0.0
C1992 C 0.65532 0.13766 0.53705 0.0
C1993 C 0.67234 0.09272 0.52297 0.0
C1994 C 0.69327 0.0685 0.52166 0.0
C1995 C 0.69745 0.0494 0.5371 0.0
C1996 C 0.71915 0.02848 0.53622 0.0
C1997 C 0.73616 0.02578 0.51977 0.0
C1998 C 0.73165 0.04414 0.50416 0.0
C1999 C 0.71038 0.06546 0.50509 0.0
H2000 H 0.75291 0.00954 0.51914 0.0
H2001 H 0.57545 0.24003 0.51605 0.0
H2002 H 0.43916 0.73613 0.55272 0.0
H2003 H 0.41874 0.70205 0.52999 0.0
H2004 H 0.3513 0.681 0.57025 0.0
H2005 H 0.37181 0.71545 0.59341 0.0
H2006 H 0.37733 0.63189 0.55267 0.0
H2007 H 0.33122 0.71801 0.53325 0.0
H2008 H 0.32659 0.76946 0.52501 0.0
H2009 H 0.38538 0.75832 0.47797 0.0
H2010 H 0.39068 0.70684 0.48601 0.0
H2011 H 0.31715 0.55306 0.47091 0.0
H2012 H 0.32314 0.58337 0.49944 0.0
H2013 H 0.39627 0.62492 0.4731 0.0
H2014 H 0.39069 0.59479 0.44468 0.0
H2015 H 0.35524 0.66377 0.48626 0.0
H2016 H 0.4054 0.57829 0.50982 0.0
H2017 H 0.40856 0.52685 0.51848 0.0
H2018 H 0.33854 0.53726 0.55829 0.0
H2019 H 0.33475 0.58872 0.54967 0.0
C2020 C 0.42005 0.72426 0.55691 0.0
C2021 C 0.40725 0.72851 0.57501 0.0
C2022 C 0.40826 0.70487 0.54378 0.0
C2023 C 0.38337 0.68913 0.54833 0.0
C2024 C 0.37052 0.69297 0.56643 0.0
C2025 C 0.38224 0.71267 0.57962 0.0
C2026 C 0.37165 0.66844 0.534 0.0
C2027 C 0.37181 0.63887 0.53826 0.0
C2028 C 0.36447 0.67752 0.51519 0.0
C2029 C 0.36146 0.70854 0.5103 0.0
C2030 C 0.34334 0.72655 0.52122 0.0
C2031 C 0.34055 0.75573 0.51657 0.0
C2032 C 0.35569 0.76715 0.50099 0.0
C2033 C 0.37365 0.74943 0.49003 0.0
C2034 C 0.37651 0.72023 0.4946 0.0
C2035 C 0.33494 0.56818 0.47133 0.0
C2036 C 0.35342 0.5714 0.45538 0.0
C2037 C 0.33822 0.58561 0.48766 0.0
C2038 C 0.35999 0.60662 0.48834 0.0
C2039 C 0.37916 0.60902 0.47283 0.0
C2040 C 0.37604 0.59155 0.4566 0.0
C2041 C 0.36232 0.62719 0.50469 0.0
C2042 C 0.36021 0.65679 0.50076 0.0
C2043 C 0.3673 0.61811 0.52381 0.0
C2044 C 0.36958 0.58723 0.52895 0.0
C2045 C 0.39052 0.56954 0.52029 0.0
C2046 C 0.39246 0.5404 0.52522 0.0
C2047 C 0.37371 0.52877 0.53888 0.0
C2048 C 0.35302 0.54628 0.54768 0.0
C2049 C 0.35098 0.57543 0.54279 0.0
H2050 H 0.37525 0.50621 0.54268 0.0
H2051 H 0.35347 0.78971 0.49737 0.0
H2052 H 0.91808 0.4004 0.4504 0.0
H2053 H 0.89139 0.41158 0.47978 0.0
H2054 H 0.89566 0.32231 0.49672 0.0
H2055 H 0.92251 0.31095 0.46745 0.0
H2056 H 0.84045 0.34387 0.49708 0.0
H2057 H 0.93267 0.37152 0.52157 0.0
H2058 H 0.97938 0.3969 0.5218 0.0
H2059 H 0.93548 0.47841 0.52162 0.0
H2060 H 0.88848 0.45354 0.52108 0.0
H2061 H 0.77961 0.37751 0.59221 0.0
H2062 H 0.81397 0.36059 0.56779 0.0
H2063 H 0.80074 0.43859 0.53544 0.0
H2064 H 0.76572 0.45516 0.55915 0.0
H2065 H 0.86275 0.41929 0.5453 0.0
H2066 H 0.77345 0.39272 0.51364 0.0
H2067 H 0.72685 0.36866 0.50756 0.0
H2068 H 0.7654 0.28646 0.51959 0.0
H2069 H 0.81215 0.31014 0.52602 0.0
C2070 C 0.91387 0.38324 0.46055 0.0
C2071 C 0.92251 0.3548 0.45656 0.0
C2072 C 0.89867 0.38969 0.47739 0.0
C2073 C 0.89163 0.36781 0.4905 0.0
C2074 C 0.90097 0.33955 0.48685 0.0
C2075 C 0.91647 0.33314 0.47014 0.0
C2076 C 0.87238 0.37401 0.50708 0.0
C2077 C 0.84573 0.35971 0.50798 0.0
C2078 C 0.87878 0.39556 0.52083 0.0
C2079 C 0.90702 0.41063 0.5211 0.0
C2080 C 0.93296 0.39486 0.52139 0.0
C2081 C 0.9595 0.40916 0.52161 0.0
C2082 C 0.9604 0.43925 0.52167 0.0
C2083 C 0.93475 0.4551 0.52155 0.0
C2084 C 0.90815 0.44091 0.5213 0.0
C2085 C 0.78382 0.39095 0.57982 0.0
C2086 C 0.76955 0.41753 0.57755 0.0
C2087 C 0.80342 0.38123 0.56589 0.0
C2088 C 0.80964 0.39829 0.54978 0.0
C2089 C 0.79601 0.42504 0.54771 0.0
C2090 C 0.77597 0.43444 0.56131 0.0
C2091 C 0.83108 0.38888 0.53531 0.0
C2092 C 0.85797 0.40275 0.53475 0.0
C2093 C 0.82492 0.36703 0.52179 0.0
C2094 C 0.79619 0.3532 0.52046 0.0
C2095 C 0.77183 0.36959 0.51538 0.0
C2096 C 0.74547 0.356 0.5117 0.0
C2097 C 0.74327 0.32604 0.51299 0.0
C2098 C 0.76721 0.30965 0.51846 0.0
C2099 C 0.79362 0.32314 0.52215 0.0
H2100 H 0.72298 0.31553 0.5098 0.0
H2101 H 0.98097 0.45028 0.52186 0.0
H2102 H 0.0749 0.74653 0.54978 0.0
H2103 H 0.09217 0.78174 0.5265 0.0
H2104 H 0.13361 0.82955 0.57189 0.0
H2105 H 0.11655 0.794 0.59545 0.0
H2106 H 0.10011 0.86405 0.54783 0.0
H2107 H 0.17364 0.79455 0.54214 0.0
H2108 H 0.19738 0.74754 0.53791 0.0
H2109 H 0.16157 0.7402 0.48129 0.0
H2110 H 0.13685 0.78682 0.48531 0.0
H2111 H 0.16734 0.95102 0.47175 0.0
H2112 H 0.15953 0.92181 0.50068 0.0
H2113 H 0.10573 0.86377 0.46825 0.0
H2114 H 0.11282 0.89281 0.43951 0.0
H2115 H 0.15394 0.8377 0.48881 0.0
H2116 H 0.07399 0.90398 0.49791 0.0
H2117 H 0.05197 0.95192 0.50225 0.0
H2118 H 0.10338 0.96569 0.55274 0.0
H2119 H 0.12605 0.91796 0.54852 0.0
C2120 C 0.08777 0.76445 0.55487 0.0
C2121 C 0.0942 0.76753 0.57452 0.0
C2122 C 0.09781 0.78447 0.54149 0.0
C2123 C 0.11432 0.80819 0.54742 0.0
C2124 C 0.12096 0.81134 0.567 0.0
C2125 C 0.11126 0.791 0.58043 0.0
C2126 C 0.12313 0.83024 0.53311 0.0
C2127 C 0.1124 0.85842 0.53511 0.0
C2128 C 0.139 0.82284 0.51643 0.0
C2129 C 0.15307 0.7942 0.51414 0.0
C2130 C 0.1704 0.78277 0.52888 0.0
C2131 C 0.18412 0.75617 0.5265 0.0
C2132 C 0.18098 0.74086 0.50936 0.0
C2133 C 0.16397 0.75206 0.49458 0.0
C2134 C 0.15005 0.77858 0.49692 0.0
C2135 C 0.15332 0.9324 0.47087 0.0
C2136 C 0.14071 0.92434 0.45325 0.0
C2137 C 0.14897 0.91571 0.4874 0.0
C2138 C 0.13225 0.89054 0.48652 0.0
C2139 C 0.11881 0.88306 0.46919 0.0
C2140 C 0.12275 0.89988 0.45279 0.0
C2141 C 0.12986 0.87089 0.50323 0.0
C2142 C 0.14196 0.84326 0.50167 0.0
C2143 C 0.11543 0.8788 0.52032 0.0
C2144 C 0.10203 0.90759 0.52273 0.0
C2145 C 0.08087 0.91737 0.50979 0.0
C2146 C 0.0682 0.94447 0.51227 0.0
C2147 C 0.07636 0.96189 0.52771 0.0
C2148 C 0.09715 0.95221 0.54075 0.0
C2149 C 0.10991 0.92514 0.53832 0.0
H2150 H 0.06649 0.98285 0.52962 0.0
H2151 H 0.19177 0.72035 0.50753 0.0
H2152 H 0.23847 0.88011 0.91696 0.0
H2153 H 0.20739 0.85981 0.9422 0.0
H2154 H 0.18103 0.94558 0.95835 0.0
H2155 H 0.21172 0.96577 0.93316 0.0
H2156 H 0.20199 0.90988 0.98913 0.0
H2157 H 0.13394 0.90371 0.93444 0.0
H2158 H 0.12227 0.88612 0.90188 0.0
H2159 H 0.13717 0.79897 0.92007 0.0
H2160 H 0.14893 0.81608 0.95273 0.0
H2161 H 0.09116 0.89661 0.05559 0.0
H2162 H 0.1202 0.90832 0.02743 0.0
H2163 H 0.11655 0.81957 0.0091 0.0
H2164 H 0.08661 0.80791 0.0369 0.0
H2165 H 0.11461 0.85006 0.97897 0.0
H2166 H 0.17893 0.84812 0.03092 0.0
H2167 H 0.20133 0.85721 0.06249 0.0
H2168 H 0.20525 0.94768 0.05014 0.0
H2169 H 0.18293 0.93922 0.01846 0.0
C2170 C 0.22534 0.89446 0.92554 0.0
C2171 C 0.22706 0.92439 0.92288 0.0
C2172 C 0.20781 0.88292 0.94003 0.0
C2173 C 0.19178 0.90121 0.95204 0.0
C2174 C 0.19318 0.93109 0.9492 0.0
C2175 C 0.21063 0.94258 0.93477 0.0
C2176 C 0.17452 0.88964 0.96823 0.0
C2177 C 0.18262 0.89715 0.98697 0.0
C2178 C 0.15049 0.87141 0.96539 0.0
C2179 C 0.14229 0.86116 0.94599 0.0
C2180 C 0.13464 0.8808 0.93149 0.0
C2181 C 0.12797 0.87091 0.91304 0.0
C2182 C 0.12883 0.84144 0.90894 0.0
C2183 C 0.13632 0.82178 0.9233 0.0
C2184 C 0.1429 0.83154 0.94179 0.0
C2185 C 0.09613 0.87965 0.04542 0.0
C2186 C 0.0865 0.85133 0.04856 0.0
C2187 C 0.11306 0.8863 0.0294 0.0
C2188 C 0.1213 0.8647 0.01632 0.0
C2189 C 0.11067 0.83664 0.01897 0.0
C2190 C 0.0934 0.83003 0.03488 0.0
C2191 C 0.14119 0.87153 1.00008 0.0
C2192 C 0.13386 0.86287 0.98131 0.0
C2193 C 0.16686 0.88759 1.00295 0.0
C2194 C 0.17891 0.89307 0.02239 0.0
C2195 C 0.1842 0.87001 0.03503 0.0
C2196 C 0.19697 0.87502 0.05292 0.0
C2197 C 0.20451 0.90299 0.05836 0.0
C2198 C 0.19932 0.92603 0.04592 0.0
C2199 C 0.18667 0.92114 0.02798 0.0
H2200 H 0.21448 0.90679 0.07219 0.0
H2201 H 0.12389 0.83386 0.89461 0.0
H2202 H 0.68873 0.05519 0.04138 0.0
H2203 H 0.67751 0.08398 0.0128 0.0
H2204 H 0.59568 0.10785 0.03747 0.0
H2205 H 0.60633 0.07899 0.06589 0.0
H2206 H 0.59213 0.09684 0.9984 0.0
H2207 H 0.65512 0.14695 0.04272 0.0
H2208 H 0.69982 0.15621 0.06081 0.0
H2209 H 0.74715 0.1641 0.00816 0.0
H2210 H 0.70313 0.15295 0.98973 0.0
H2211 H 0.5518 0.22894 0.95718 0.0
H2212 H 0.56642 0.18991 0.97844 0.0
H2213 H 0.64726 0.18243 0.94823 0.0
H2214 H 0.63285 0.22174 0.92674 0.0
H2215 H 0.65523 0.18125 0.98647 0.0
H2216 H 0.59628 0.13161 0.94195 0.0
H2217 H 0.55346 0.12209 0.92187 0.0
H2218 H 0.5011 0.11424 0.97244 0.0
H2219 H 0.54351 0.12409 0.99284 0.0
C2220 C 0.66806 0.06604 0.04058 0.0
C2221 C 0.64851 0.06487 0.05607 0.0
C2222 C 0.66184 0.08269 0.02429 0.0
C2223 C 0.63607 0.09854 0.02318 0.0
C2224 C 0.61579 0.09596 0.03805 0.0
C2225 C 0.62196 0.07943 0.05433 0.0
C2226 C 0.63068 0.11912 0.00719 0.0
C2227 C 0.60587 0.11537 0.99586 0.0
C2228 C 0.6492 0.14282 1.00342 0.0
C2229 C 0.67582 0.14854 0.01477 0.0
C2230 C 0.67512 0.15001 0.03496 0.0
C2231 C 0.70035 0.15572 0.04531 0.0
C2232 C 0.72625 0.16094 0.03568 0.0
C2233 C 0.72707 0.16013 0.01563 0.0
C2234 C 0.70205 0.15381 0.00523 0.0
C2235 C 0.57273 0.21907 0.95497 0.0
C2236 C 0.5911 0.22854 0.94015 0.0
C2237 C 0.58097 0.19655 0.96709 0.0
C2238 C 0.60776 0.18287 0.96475 0.0
C2239 C 0.62639 0.19249 0.95019 0.0
C2240 C 0.61809 0.21496 0.93791 0.0
C2241 C 0.61646 0.15922 0.97799 0.0
C2242 C 0.64179 0.16245 0.98882 0.0
C2243 C 0.59874 0.13483 0.98113 0.0
C2244 C 0.57308 0.12886 0.96894 0.0
C2245 C 0.57559 0.12809 0.9488 0.0
C2246 C 0.5514 0.12259 0.93736 0.0
C2247 C 0.52457 0.11768 0.94588 0.0
C2248 C 0.5219 0.1181 0.96586 0.0
C2249 C 0.54602 0.12361 0.97738 0.0
H2250 H 0.50586 0.11353 0.93699 0.0
H2251 H 0.74569 0.16553 0.04374 0.0
H2252 H 0.25298 0.55558 0.9616 0.0
H2253 H 0.29049 0.57172 0.98358 0.0
H2254 H 0.3265 0.6254 0.93908 0.0
H2255 H 0.28993 0.60796 0.9166 0.0
H2256 H 0.36803 0.60142 0.95565 0.0
H2257 H 0.28757 0.65353 0.98192 0.0
H2258 H 0.24113 0.66619 0.99751 0.0
H2259 H 0.26009 0.60842 0.04381 0.0
H2260 H 0.30553 0.59451 0.0283 0.0
H2261 H 0.44175 0.6812 0.03485 0.0
H2262 H 0.41534 0.66682 0.00594 0.0
H2263 H 0.39562 0.58493 0.03189 0.0
H2264 H 0.42204 0.59876 0.06071 0.0
H2265 H 0.34819 0.62848 0.02321 0.0
H2266 H 0.43008 0.57797 0.99608 0.0
H2267 H 0.47987 0.57483 0.98377 0.0
H2268 H 0.46032 0.63821 0.94078 0.0
H2269 H 0.41049 0.64204 0.95302 0.0
C2270 C 0.26877 0.57093 0.95645 0.0
C2271 C 0.26811 0.5807 0.93731 0.0
C2272 C 0.29006 0.58049 0.96918 0.0
C2273 C 0.31103 0.60044 0.96326 0.0
C2274 C 0.31049 0.61021 0.94414 0.0
C2275 C 0.28938 0.60035 0.9313 0.0
C2276 C 0.33459 0.60936 0.97665 0.0
C2277 C 0.36348 0.60776 0.97034 0.0
C2278 C 0.32911 0.61742 0.99598 0.0
C2279 C 0.29978 0.6227 1.00376 0.0
C2280 C 0.28136 0.64296 0.99513 0.0
C2281 C 0.25538 0.6506 1.00405 0.0
C2282 C 0.24782 0.63841 0.02167 0.0
C2283 C 0.26593 0.61809 0.03025 0.0
C2284 C 0.29164 0.61009 0.02131 0.0
C2285 C 0.43271 0.6597 0.03418 0.0
C2286 C 0.43363 0.64133 0.0503 0.0
C2287 C 0.41773 0.65151 0.01758 0.0
C2288 C 0.40361 0.62484 0.01683 0.0
C2289 C 0.40658 0.60554 0.03219 0.0
C2290 C 0.4216 0.61359 0.04871 0.0
C2291 C 0.38092 0.6195 1.00232 0.0
C2292 C 0.35235 0.62209 0.00846 0.0
C2293 C 0.38672 0.61284 0.98294 0.0
C2294 C 0.41666 0.61055 0.97562 0.0
C2295 C 0.43648 0.59149 0.98415 0.0
C2296 C 0.46469 0.58951 0.97714 0.0
C2297 C 0.47328 0.60638 0.96154 0.0
C2298 C 0.45365 0.6252 0.95288 0.0
C2299 C 0.42542 0.62725 0.95984 0.0
H2300 H 0.49513 0.60481 0.95614 0.0
H2301 H 0.22774 0.64443 0.02852 0.0
H2302 H 0.83972 0.46604 0.03222 0.0
H2303 H 0.8476 0.4401 1.0017 0.0
H2304 H 0.84657 0.35922 0.0321 0.0
H2305 H 0.84005 0.3849 0.06248 0.0
H2306 H 0.89736 0.40115 0.99564 0.0
H2307 H 0.80519 0.31331 0.9977 0.0
H2308 H 0.75235 0.30993 1.001 0.0
H2309 H 0.74464 0.40108 0.99191 0.0
H2310 H 0.79741 0.40506 0.98854 0.0
H2311 H 0.94205 0.27261 0.95217 0.0
H2312 H 0.92412 0.31118 0.97262 0.0
H2313 H 0.85281 0.32479 0.93395 0.0
H2314 H 0.87012 0.2855 0.91349 0.0
H2315 H 0.83333 0.32626 0.96796 0.0
H2316 H 0.90924 0.37425 0.93732 0.0
H2317 H 0.95807 0.38278 0.92443 0.0
H2318 H 0.99304 0.38051 0.98151 0.0
H2319 H 0.94449 0.37162 0.99475 0.0
C2320 C 0.84117 0.44274 0.03231 0.0
C2321 C 0.83986 0.42754 0.04975 0.0
C2322 C 0.8455 0.42795 0.01491 0.0
C2323 C 0.84741 0.39769 0.0146 0.0
C2324 C 0.84492 0.38251 0.03194 0.0
C2325 C 0.84152 0.39726 0.04932 0.0
C2326 C 0.85521 0.38177 0.99677 0.0
C2327 C 0.88333 0.38483 0.98953 0.0
C2328 C 0.83657 0.36119 0.98831 0.0
C2329 C 0.8054 0.35954 0.9931 0.0
C2330 C 0.79228 0.33272 0.99667 0.0
C2331 C 0.76231 0.33065 0.99841 0.0
C2332 C 0.74514 0.35523 0.99647 0.0
C2333 C 0.75798 0.38204 0.99332 0.0
C2334 C 0.78797 0.38426 0.99171 0.0
C2335 C 0.92258 0.28381 0.94787 0.0
C2336 C 0.90764 0.27586 0.93106 0.0
C2337 C 0.91246 0.30613 0.95956 0.0
C2338 C 0.88732 0.32138 0.95468 0.0
C2339 C 0.87229 0.31349 0.93796 0.0
C2340 C 0.88229 0.291 0.92626 0.0
C2341 C 0.87604 0.34437 0.96769 0.0
C2342 C 0.84736 0.3426 0.97404 0.0
C2343 C 0.89384 0.36676 0.97486 0.0
C2344 C 0.92319 0.37206 0.96702 0.0
C2345 C 0.92737 0.37536 0.94712 0.0
C2346 C 0.955 0.3803 0.93975 0.0
C2347 C 0.97864 0.38211 0.95214 0.0
C2348 C 0.9747 0.37908 0.97193 0.0
C2349 C 0.94711 0.37414 0.97938 0.0
H2350 H 1.00002 0.38587 0.9464 0.0
H2351 H 0.7219 0.35354 0.99758 0.0
H2352 H 0.43445 0.89814 0.55137 0.0
H2353 H 0.40715 0.9115 0.52252 0.0
H2354 H 0.39451 0.82173 0.50918 0.0
H2355 H 0.42223 0.8081 0.53764 0.0
H2356 H 0.40959 0.88817 0.47835 0.0
H2357 H 0.31933 0.82377 0.51264 0.0
H2358 H 0.30152 0.81043 0.54483 0.0
H2359 H 0.33225 0.89052 0.5677 0.0
H2360 H 0.3511 0.90399 0.53579 0.0
H2361 H 0.29182 0.89063 0.41056 0.0
H2362 H 0.32902 0.87393 0.43308 0.0
H2363 H 0.29349 0.92886 0.47714 0.0
H2364 H 0.25635 0.9452 0.4551 0.0
H2365 H 0.30477 0.87805 0.49153 0.0
H2366 H 0.35449 0.94767 0.45289 0.0
H2367 H 0.37255 0.96938 0.4229 0.0
H2368 H 0.4216 0.89287 0.41101 0.0
H2369 H 0.40353 0.87057 0.44085 0.0
C2370 C 0.42659 0.88126 0.54198 0.0
C2371 C 0.4305 0.85208 0.5468 0.0
C2372 C 0.41111 0.88893 0.52549 0.0
C2373 C 0.39888 0.86757 0.5138 0.0
C2374 C 0.40398 0.83848 0.518 0.0
C2375 C 0.41989 0.83077 0.53426 0.0
C2376 C 0.37746 0.87545 0.49896 0.0
C2377 C 0.38667 0.88577 0.48107 0.0
C2378 C 0.34766 0.87295 0.50276 0.0
C2379 C 0.33687 0.86466 0.52195 0.0
C2380 C 0.32247 0.83839 0.52458 0.0
C2381 C 0.3121 0.83087 0.54274 0.0
C2382 C 0.31537 0.84974 0.55821 0.0
C2383 C 0.32964 0.87594 0.55568 0.0
C2384 C 0.34038 0.88343 0.53761 0.0
C2385 C 0.29194 0.8991 0.42505 0.0
C2386 C 0.27111 0.91937 0.43094 0.0
C2387 C 0.31327 0.88962 0.43788 0.0
C2388 C 0.31416 0.9003 0.45677 0.0
C2389 C 0.29323 0.92025 0.46267 0.0
C2390 C 0.27203 0.92969 0.44995 0.0
C2391 C 0.33664 0.89092 0.47064 0.0
C2392 C 0.32764 0.8801 0.48848 0.0
C2393 C 0.36657 0.89404 0.46694 0.0
C2394 C 0.37739 0.90732 0.44897 0.0
C2395 C 0.36892 0.93538 0.44379 0.0
C2396 C 0.3792 0.94781 0.42684 0.0
C2397 C 0.39813 0.93247 0.41502 0.0
C2398 C 0.40688 0.9047 0.42016 0.0
C2399 C 0.39665 0.89216 0.4371 0.0
H2400 H 0.40608 0.94214 0.4019 0.0
H2401 H 0.30678 0.84409 0.57214 0.0
H2402 H 0.66329 0.44876 0.54221 0.0
H2403 H 0.65359 0.41958 0.51357 0.0
H2404 H 0.60098 0.36223 0.54734 0.0
H2405 H 0.61016 0.39118 0.57588 0.0
H2406 H 0.64633 0.33511 0.5265 0.0
H2407 H 0.5693 0.40443 0.51665 0.0
H2408 H 0.54959 0.45329 0.51197 0.0
H2409 H 0.60178 0.46386 0.46152 0.0
H2410 H 0.62212 0.41518 0.46606 0.0
H2411 H 0.56908 0.24414 0.46471 0.0
H2412 H 0.58518 0.27968 0.48809 0.0
H2413 H 0.62682 0.32804 0.44311 0.0
H2414 H 0.61088 0.2922 0.4194 0.0
H2415 H 0.59452 0.36255 0.4669 0.0
H2416 H 0.66653 0.29177 0.47348 0.0
H2417 H 0.69018 0.2448 0.47815 0.0
H2418 H 0.65325 0.23828 0.53452 0.0
H2419 H 0.6282 0.28458 0.52987 0.0
C2420 C 0.64911 0.43032 0.54347 0.0
C2421 C 0.63756 0.42237 0.56143 0.0
C2422 C 0.64365 0.41365 0.52708 0.0
C2423 C 0.62671 0.38867 0.52838 0.0
C2424 C 0.61419 0.38139 0.54605 0.0
C2425 C 0.61934 0.39814 0.56236 0.0
C2426 C 0.62351 0.36885 0.51179 0.0
C2427 C 0.6347 0.34089 0.51353 0.0
C2428 C 0.6097 0.37706 0.49453 0.0
C2429 C 0.59751 0.40632 0.49184 0.0
C2430 C 0.5768 0.41729 0.50468 0.0
C2431 C 0.56546 0.44493 0.50202 0.0
C2432 C 0.5745 0.46171 0.4865 0.0
C2433 C 0.59484 0.45086 0.47356 0.0
C2434 C 0.60628 0.42325 0.47617 0.0
C2435 C 0.58178 0.26222 0.4597 0.0
C2436 C 0.58876 0.2652 0.44013 0.0
C2437 C 0.59112 0.28247 0.47316 0.0
C2438 C 0.60753 0.30633 0.46742 0.0
C2439 C 0.61436 0.30965 0.44788 0.0
C2440 C 0.60529 0.28912 0.43436 0.0
C2441 C 0.61626 0.3282 0.48191 0.0
C2442 C 0.60632 0.35664 0.47977 0.0
C2443 C 0.63154 0.32048 0.49878 0.0
C2444 C 0.64521 0.29168 0.50122 0.0
C2445 C 0.66297 0.28013 0.48674 0.0
C2446 C 0.67674 0.25362 0.48943 0.0
C2447 C 0.67337 0.23865 0.50668 0.0
C2448 C 0.656 0.25001 0.52121 0.0
C2449 C 0.64178 0.27627 0.51848 0.0
H2450 H 0.68401 0.21812 0.50876 0.0
H2451 H 0.56568 0.4831 0.48446 0.0
H2452 H 0.20911 0.60717 0.4119 0.0
H2453 H 0.17489 0.62603 0.43569 0.0
H2454 H 0.20489 0.56329 0.47678 0.0
H2455 H 0.23918 0.54477 0.45348 0.0
H2456 H 0.13011 0.60068 0.4557 0.0
H2457 H 0.2106 0.59422 0.52045 0.0
H2458 H 0.26265 0.60088 0.52647 0.0
H2459 H 0.26933 0.65443 0.47642 0.0
H2460 H 0.21728 0.64854 0.47026 0.0
H2461 H 0.09978 0.60031 0.56491 0.0
H2462 H 0.12695 0.58956 0.53585 0.0
H2463 H 0.08804 0.66237 0.50742 0.0
H2464 H 0.06072 0.67361 0.53659 0.0
H2465 H 0.16691 0.62889 0.51995 0.0
H2466 H 0.08767 0.64301 0.4577 0.0
H2467 H 0.0355 0.63931 0.45098 0.0
H2468 H 0.02684 0.57517 0.49502 0.0
H2469 H 0.07899 0.57822 0.50183 0.0
C2470 C 0.20846 0.59748 0.42601 0.0
C2471 C 0.2272 0.57469 0.4308 0.0
C2472 C 0.1888 0.60818 0.43954 0.0
C2473 C 0.18773 0.59638 0.45809 0.0
C2474 C 0.20576 0.57311 0.46267 0.0
C2475 C 0.2253 0.56245 0.44924 0.0
C2476 C 0.16803 0.60807 0.47293 0.0
C2477 C 0.13814 0.60741 0.46964 0.0
C2478 C 0.17858 0.61687 0.4911 0.0
C2479 C 0.20998 0.62071 0.49481 0.0
C2480 C 0.22312 0.60753 0.51078 0.0
C2481 C 0.25265 0.61117 0.51421 0.0
C2482 C 0.26929 0.62803 0.50182 0.0
C2483 C 0.25643 0.64131 0.48598 0.0
C2484 C 0.22692 0.63779 0.4825 0.0
C2485 C 0.09644 0.61379 0.55241 0.0
C2486 C 0.07812 0.63798 0.5532 0.0
C2487 C 0.11217 0.60767 0.53583 0.0
C2488 C 0.10969 0.62531 0.51957 0.0
C2489 C 0.0902 0.64846 0.51983 0.0
C2490 C 0.07454 0.65477 0.53651 0.0
C2491 C 0.12903 0.62033 0.50295 0.0
C2492 C 0.15891 0.62249 0.50593 0.0
C2493 C 0.11847 0.61343 0.48446 0.0
C2494 C 0.08715 0.61113 0.48042 0.0
C2495 C 0.07462 0.62808 0.46592 0.0
C2496 C 0.04507 0.62609 0.46209 0.0
C2497 C 0.02785 0.6071 0.47262 0.0
C2498 C 0.04018 0.58997 0.48694 0.0
C2499 C 0.06973 0.59186 0.49081 0.0
H2500 H 0.00497 0.60561 0.46964 0.0
H2501 H 0.29212 0.63088 0.50454 0.0
H2502 H 0.82499 0.057 0.53533 0.0
H2503 H 0.83245 0.0855 0.5061 0.0
H2504 H 0.89832 0.13483 0.53487 0.0
H2505 H 0.89141 0.10639 0.56397 0.0
H2506 H 0.85409 0.16863 0.51696 0.0
H2507 H 0.91822 0.08833 0.50253 0.0
H2508 H 0.92932 0.03696 0.49725 0.0
H2509 H 0.86723 0.03368 0.4515 0.0
H2510 H 0.85549 0.08499 0.45669 0.0
H2511 H 0.93518 0.24751 0.45261 0.0
H2512 H 0.91695 0.21304 0.47581 0.0
H2513 H 0.86427 0.17368 0.432 0.0
H2514 H 0.88348 0.20805 0.40823 0.0
H2515 H 0.89194 0.13304 0.45463 0.0
H2516 H 0.83078 0.21285 0.46573 0.0
H2517 H 0.81848 0.26429 0.46985 0.0
H2518 H 0.87069 0.26809 0.52068 0.0
H2519 H 0.88353 0.21678 0.51682 0.0
C2520 C 0.84148 0.07353 0.53535 0.0
C2521 C 0.85764 0.07927 0.55208 0.0
C2522 C 0.84563 0.08986 0.51862 0.0
C2523 C 0.86582 0.11241 0.51834 0.0
C2524 C 0.88252 0.11763 0.53479 0.0
C2525 C 0.87867 0.10114 0.5514 0.0
C2526 C 0.86897 0.13148 0.50129 0.0
C2527 C 0.86247 0.16087 0.50336 0.0
C2528 C 0.87863 0.12116 0.48326 0.0
C2529 C 0.88572 0.09038 0.48015 0.0
C2530 C 0.90673 0.07658 0.49147 0.0
C2531 C 0.91319 0.0475 0.48847 0.0
C2532 C 0.89892 0.03204 0.4741 0.0
C2533 C 0.87822 0.04567 0.46266 0.0
C2534 C 0.87167 0.07475 0.46561 0.0
C2535 C 0.91981 0.2315 0.44776 0.0
C2536 C 0.91064 0.23069 0.4285 0.0
C2537 C 0.90918 0.2119 0.46116 0.0
C2538 C 0.88888 0.19098 0.45578 0.0
C2539 C 0.87978 0.18976 0.43652 0.0
C2540 C 0.89051 0.20954 0.423 0.0
C2541 C 0.87806 0.17038 0.47054 0.0
C2542 C 0.883 0.14074 0.46808 0.0
C2543 C 0.86645 0.18034 0.48815 0.0
C2544 C 0.85824 0.21101 0.4909 0.0
C2545 C 0.8397 0.22469 0.47775 0.0
C2546 C 0.83263 0.25378 0.48004 0.0
C2547 C 0.84388 0.26939 0.49546 0.0
C2548 C 0.86203 0.25592 0.50873 0.0
C2549 C 0.86914 0.22681 0.50654 0.0
H2550 H 0.83855 0.29192 0.49709 0.0
H2551 H 0.90395 0.00952 0.47179 0.0
H2552 H 0.92461 0.18654 0.97286 0.0
H2553 H 0.89752 0.17141 1.00126 0.0
H2554 H 0.89228 0.08504 0.97866 0.0
H2555 H 0.91902 0.09994 0.95019 0.0
H2556 H 0.83997 0.1054 0.98885 0.0
H2557 H 0.93517 0.10154 0.01754 0.0
H2558 H 0.98241 0.12164 0.02686 0.0
H2559 H 0.94014 0.18706 0.06024 0.0
H2560 H 0.89263 0.16755 0.05092 0.0
H2561 H 0.78104 0.02746 0.06485 0.0
H2562 H 0.81516 0.04577 0.04117 0.0
H2563 H 0.81579 0.12834 0.06965 0.0
H2564 H 0.782 0.10992 0.09378 0.0
H2565 H 0.86921 0.1143 0.05715 0.0
H2566 H 0.77464 0.11642 0.03134 0.0
H2567 H 0.72691 0.09705 0.02279 0.0
H2568 H 0.76628 0.03819 0.98308 0.0
H2569 H 0.81446 0.05629 0.99203 0.0
C2570 C 0.91825 0.16417 0.9741 0.0
C2571 C 0.92397 0.14449 0.95917 0.0
C2572 C 0.90272 0.15557 0.99037 0.0
C2573 C 0.89282 0.12709 0.99209 0.0
C2574 C 0.89957 0.10716 0.9776 0.0
C2575 C 0.915 0.11572 0.96135 0.0
C2576 C 0.87378 0.11833 0.00823 0.0
C2577 C 0.84653 0.10694 1.00377 0.0
C2578 C 0.88182 0.12159 0.02773 0.0
C2579 C 0.91036 0.13325 0.03338 0.0
C2580 C 0.93595 0.12034 0.02675 0.0
C2581 C 0.96277 0.1316 0.03206 0.0
C2582 C 0.96427 0.15565 0.0441 0.0
C2583 C 0.93895 0.16845 0.0509 0.0
C2584 C 0.91207 0.15728 0.04562 0.0
C2585 C 0.78858 0.04945 0.06621 0.0
C2586 C 0.77859 0.06729 0.08113 0.0
C2587 C 0.80808 0.05991 0.05263 0.0
C2588 C 0.81763 0.08859 0.05342 0.0
C2589 C 0.80866 0.10616 0.06873 0.0
C2590 C 0.78932 0.09559 0.08249 0.0
C2591 C 0.83582 0.1004 0.03771 0.0
C2592 C 0.86267 0.11268 0.04222 0.0
C2593 C 0.82731 0.09824 0.01821 0.0
C2594 C 0.79826 0.08759 0.01251 0.0
C2595 C 0.77319 0.09917 0.02091 0.0
C2596 C 0.74602 0.0884 0.01599 0.0
C2597 C 0.74352 0.06649 1.00234 0.0
C2598 C 0.76824 0.05519 0.99365 0.0
C2599 C 0.79551 0.06563 0.9987 0.0
H2600 H 0.72245 0.05824 0.99851 0.0
H2601 H 0.98506 0.16434 0.04819 0.0
H2602 H 0.3036 0.92783 0.96174 0.0
H2603 H 0.31175 0.89615 0.98923 0.0
H2604 H 0.40137 0.88781 0.97333 0.0
H2605 H 0.39312 0.91866 0.94545 0.0
H2606 H 0.37965 0.83677 0.98007 0.0
H2607 H 0.37717 0.92841 0.01538 0.0
H2608 H 0.35425 0.97436 0.0248 0.0
H2609 H 0.27927 0.92856 0.04437 0.0
H2610 H 0.30175 0.88249 0.03476 0.0
H2611 H 0.44723 0.77914 0.06021 0.0
H2612 H 0.42932 0.81219 0.03588 0.0
H2613 H 0.34258 0.80111 0.05688 0.0
H2614 H 0.36051 0.76817 0.08192 0.0
H2615 H 0.35538 0.85885 0.04792 0.0
H2616 H 0.35988 0.76751 0.01774 0.0
H2617 H 0.38134 0.72071 0.0089 0.0
H2618 H 0.44942 0.76409 0.97872 0.0
H2619 H 0.42867 0.81118 0.98767 0.0
C2620 C 0.32521 0.91978 0.96433 0.0
C2621 C 0.34775 0.92591 0.9514 0.0
C2622 C 0.32985 0.90161 0.9801 0.0
C2623 C 0.35725 0.88962 0.98351 0.0
C2624 C 0.37999 0.89663 0.97101 0.0
C2625 C 0.37529 0.91445 0.95511 0.0
C2626 C 0.36211 0.86857 0.9994 0.0
C2627 C 0.37467 0.84182 0.99492 0.0
C2628 C 0.35433 0.87437 0.0187 0.0
C2629 C 0.34108 0.90208 0.02446 0.0
C2630 C 0.35578 0.92821 0.02167 0.0
C2631 C 0.34288 0.95426 0.02701 0.0
C2632 C 0.31534 0.95439 0.03521 0.0
C2633 C 0.30064 0.92846 0.03808 0.0
C2634 C 0.31347 0.90239 0.03275 0.0
C2635 C 0.42432 0.78376 0.05983 0.0
C2636 C 0.40531 0.77082 0.07301 0.0
C2637 C 0.41411 0.8027 0.04585 0.0
C2638 C 0.38457 0.80897 0.04447 0.0
C2639 C 0.36548 0.79674 0.05785 0.0
C2640 C 0.37576 0.77786 0.07207 0.0
C2641 C 0.37409 0.82775 0.02862 0.0
C2642 C 0.36027 0.85384 0.03305 0.0
C2643 C 0.38044 0.82124 0.0092 0.0
C2644 C 0.3928 0.79293 1.00349 0.0
C2645 C 0.37954 0.7671 0.00932 0.0
C2646 C 0.39156 0.7405 1.00428 0.0
C2647 C 0.41675 0.73943 0.99328 0.0
C2648 C 0.42991 0.76495 0.98725 0.0
C2649 C 0.41801 0.79161 0.99228 0.0
H2650 H 0.42604 0.71883 0.9894 0.0
H2651 H 0.30538 0.97458 0.03931 0.0
H2652 H 0.70592 0.40512 0.09944 0.0
H2653 H 0.66742 0.3885 0.07802 0.0
H2654 H 0.67483 0.46663 0.04491 0.0
H2655 H 0.71395 0.48298 0.06583 0.0
H2656 H 0.61579 0.44442 0.04959 0.0
H2657 H 0.71167 0.41789 0.03132 0.0
H2658 H 0.75954 0.3979 0.03892 0.0
H2659 H 0.72199 0.31428 0.04721 0.0
H2660 H 0.67349 0.33425 0.04094 0.0
H2661 H 0.57803 0.40708 0.95376 0.0
H2662 H 0.60037 0.4239 0.98349 0.0
H2663 H 0.59362 0.3385 0.00743 0.0
H2664 H 0.5711 0.32142 0.97769 0.0
H2665 H 0.64919 0.36183 0.01001 0.0
H2666 H 0.55217 0.39004 0.02508 0.0
H2667 H 0.50512 0.41334 0.01931 0.0
H2668 H 0.5467 0.49571 0.01476 0.0
H2669 H 0.59407 0.47285 0.02021 0.0
C2670 C 0.69903 0.41898 0.0878 0.0
C2671 C 0.71337 0.44506 0.08404 0.0
C2672 C 0.67692 0.40953 0.07567 0.0
C2673 C 0.66847 0.42631 0.05987 0.0
C2674 C 0.68103 0.45345 0.05707 0.0
C2675 C 0.70356 0.4626 0.06891 0.0
C2676 C 0.64994 0.4139 0.04466 0.0
C2677 C 0.623 0.4264 0.0409 0.0
C2678 C 0.65953 0.39032 0.03344 0.0
C2679 C 0.6888 0.37774 0.03609 0.0
C2680 C 0.71348 0.39537 0.03515 0.0
C2681 C 0.74072 0.3841 0.03935 0.0
C2682 C 0.74377 0.35493 0.0437 0.0
C2683 C 0.71956 0.33694 0.0439 0.0
C2684 C 0.69213 0.34829 0.04021 0.0
C2685 C 0.58079 0.39196 0.96546 0.0
C2686 C 0.57274 0.3629 0.96333 0.0
C2687 C 0.59354 0.40163 0.98246 0.0
C2688 C 0.59862 0.38245 0.99767 0.0
C2689 C 0.58985 0.35364 0.99586 0.0
C2690 C 0.57678 0.34399 0.9789 0.0
C2691 C 0.61473 0.39225 0.0149 0.0
C2692 C 0.64156 0.37944 0.01892 0.0
C2693 C 0.60519 0.41583 0.02616 0.0
C2694 C 0.57672 0.42967 0.02291 0.0
C2695 C 0.55132 0.41309 0.02269 0.0
C2696 C 0.52458 0.42623 0.0195 0.0
C2697 C 0.52293 0.45598 0.01663 0.0
C2698 C 0.54802 0.47266 0.01697 0.0
C2699 C 0.57481 0.45962 0.02013 0.0
H2700 H 0.50221 0.46611 0.01416 0.0
H2701 H 0.76497 0.34633 0.04675 0.0
H2702 H 0.07731 0.73891 0.05062 0.0
H2703 H 0.08829 0.69725 0.0308 0.0
H2704 H 0.13083 0.65636 0.07867 0.0
H2705 H 0.1202 0.69874 0.09883 0.0
H2706 H 0.15891 0.64579 0.04292 0.0
H2707 H 0.06642 0.63332 0.06978 0.0
H2708 H 0.0176 0.64693 0.08059 0.0
H2709 H 0.9933 0.66588 0.02243 0.0
H2710 H 0.04208 0.65267 0.01129 0.0
H2711 H 0.15739 0.53155 0.97518 0.0
H2712 H 0.14454 0.55287 0.00623 0.0
H2713 H 0.09677 0.61967 0.97713 0.0
H2714 H 0.10827 0.59789 0.9463 0.0
H2715 H 0.07165 0.60544 0.0113 0.0
H2716 H 0.17211 0.62707 0.98836 0.0
H2717 H 0.21667 0.60305 0.97722 0.0
H2718 H 0.22305 0.55794 0.0309 0.0
H2719 H 0.17848 0.58161 0.04228 0.0
C2720 C 0.08922 0.72124 0.057 0.0
C2721 C 0.09735 0.72195 0.07645 0.0
C2722 C 0.09551 0.69739 0.04561 0.0
C2723 C 0.10977 0.67341 0.05337 0.0
C2724 C 0.11961 0.67459 0.07245 0.0
C2725 C 0.11348 0.69877 0.08394 0.0
C2726 C 0.11238 0.6469 0.04151 0.0
C2727 C 0.13981 0.63658 0.03633 0.0
C2728 C 0.0875 0.63428 0.03317 0.0
C2729 C 0.05798 0.64209 0.03971 0.0
C2730 C 0.05072 0.64054 0.0593 0.0
C2731 C 0.02304 0.64815 0.06549 0.0
C2732 C 0.00238 0.6573 0.05221 0.0
C2733 C 0.00933 0.65877 0.0327 0.0
C2734 C 0.03697 0.65115 0.02643 0.0
C2735 C 0.14358 0.55039 0.97544 0.0
C2736 C 0.13424 0.56325 0.95822 0.0
C2737 C 0.13631 0.56259 0.9932 0.0
C2738 C 0.12034 0.58834 0.994 0.0
C2739 C 0.10923 0.5999 0.97691 0.0
C2740 C 0.11596 0.58743 0.95923 0.0
C2741 C 0.11805 0.60552 0.01198 0.0
C2742 C 0.09067 0.61418 0.01827 0.0
C2743 C 0.14287 0.61599 0.02164 0.0
C2744 C 0.17206 0.60603 0.01614 0.0
C2745 C 0.18333 0.61238 0.99787 0.0
C2746 C 0.20834 0.59854 0.99142 0.0
C2747 C 0.22242 0.57867 1.00325 0.0
C2748 C 0.21193 0.57311 0.0217 0.0
C2749 C 0.18692 0.58686 0.0282 0.0
H2750 H 0.24167 0.56784 0.99825 0.0
H2751 H 0.98097 0.66321 0.05702 0.0
loop_
_geom_bond_atom_site_label_1
_geom_bond_atom_site_label_2
_geom_bond_distance
_geom_bond_site_symmetry_2
_ccdc_geom_bond_type
Sc0 O3 2.025 . S
Sc0 O10 2.105 . S
Sc0 O13 2.105 . S
Sc0 O16 2.105 . S
Sc0 O19 2.105 . S
Sc1 O3 2.025 . S
Sc1 O11 2.105 . S
Sc1 O15 2.105 . S
Sc1 O17 2.105 . S
Sc1 O21 2.105 . S
Sc2 O3 2.025 . S
Sc2 O12 2.105 . S
Sc2 O14 2.105 . S
Sc2 O18 2.105 . S
Sc2 O20 2.105 . S
O3 Sc0 2.025 . S
O3 Sc1 2.025 . S
O3 Sc2 2.025 . S
C4 O10 1.268 . S
C4 O20 1.268 . S
C5 O11 1.268 . S
C5 O19 1.268 . S
C6 O12 1.268 . S
C6 O21 1.268 . S
C7 O13 1.268 . S
C7 O17 1.268 . S
C8 O14 1.268 . S
C8 O16 1.268 . S
C9 O15 1.268 . S
C9 O18 1.268 . S
O10 Sc0 2.105 . S
O10 C4 1.268 . S
O11 Sc1 2.105 . S
O11 C5 1.268 . S
O12 Sc2 2.105 . S
O12 C6 1.268 . S
O13 Sc0 2.105 . S
O13 C7 1.268 . S
O14 Sc2 2.105 . S
O14 C8 1.268 . S
O15 Sc1 2.105 . S
O15 C9 1.268 . S
O16 Sc0 2.105 . S
O16 C8 1.268 . S
O17 Sc1 2.105 . S
O17 C7 1.268 . S
O18 Sc2 2.105 . S
O18 C9 1.268 . S
O19 Sc0 2.105 . S
O19 C5 1.268 . S
O20 Sc2 2.105 . S
O20 C4 1.268 . S
O21 Sc1 2.105 . S
O21 C6 1.268 . S
Sc22 O25 2.025 . S
Sc22 O32 2.105 . S
Sc22 O35 2.105 . S
Sc22 O38 2.105 . S
Sc22 O41 2.105 . S
Sc23 O25 2.025 . S
Sc23 O33 2.105 . S
Sc23 O37 2.105 . S
Sc23 O39 2.105 . S
Sc23 O43 2.105 . S
Sc24 O25 2.025 . S
Sc24 O34 2.105 . S
Sc24 O36 2.105 . S
Sc24 O40 2.105 . S
Sc24 O42 2.105 . S
O25 Sc22 2.025 . S
O25 Sc23 2.025 . S
O25 Sc24 2.025 . S
C26 O32 1.268 . S
C26 O42 1.268 . S
C27 O33 1.268 . S
C27 O41 1.268 . S
C28 O34 1.268 . S
C28 O43 1.268 . S
C29 O35 1.268 . S
C29 O39 1.268 . S
C30 O36 1.268 . S
C30 O38 1.268 . S
C31 O37 1.268 . S
C31 O40 1.268 . S
O32 Sc22 2.105 . S
O32 C26 1.268 . S
O33 Sc23 2.105 . S
O33 C27 1.268 . S
O34 Sc24 2.105 . S
O34 C28 1.268 . S
O35 Sc22 2.105 . S
O35 C29 1.268 . S
O36 Sc24 2.105 . S
O36 C30 1.268 . S
O37 Sc23 2.105 . S
O37 C31 1.268 . S
O38 Sc22 2.105 . S
O38 C30 1.268 . S
O39 Sc23 2.105 . S
O39 C29 1.268 . S
O40 Sc24 2.105 . S
O40 C31 1.268 . S
O41 Sc22 2.105 . S
O41 C27 1.268 . S
O42 Sc24 2.105 . S
O42 C26 1.268 . S
O43 Sc23 2.105 . S
O43 C28 1.268 . S
Sc44 O47 2.025 . S
Sc44 O54 2.105 . S
Sc44 O57 2.105 . S
Sc44 O60 2.105 . S
Sc44 O63 2.105 . S
Sc45 O47 2.025 . S
Sc45 O55 2.105 . S
Sc45 O59 2.105 . S
Sc45 O61 2.105 . S
Sc45 O65 2.105 . S
Sc46 O47 2.025 . S
Sc46 O56 2.105 . S
Sc46 O58 2.105 . S
Sc46 O62 2.105 . S
Sc46 O64 2.105 . S
O47 Sc44 2.025 . S
O47 Sc45 2.025 . S
O47 Sc46 2.025 . S
C48 O54 1.268 . S
C48 O64 1.268 . S
C49 O55 1.268 . S
C49 O63 1.268 . S
C50 O56 1.268 . S
C50 O65 1.268 . S
C51 O57 1.268 . S
C51 O61 1.268 . S
C52 O58 1.268 . S
C52 O60 1.268 . S
C53 O59 1.268 . S
C53 O62 1.268 . S
O54 Sc44 2.105 . S
O54 C48 1.268 . S
O55 Sc45 2.105 . S
O55 C49 1.268 . S
O56 Sc46 2.105 . S
O56 C50 1.268 . S
O57 Sc44 2.105 . S
O57 C51 1.268 . S
O58 Sc46 2.105 . S
O58 C52 1.268 . S
O59 Sc45 2.105 . S
O59 C53 1.268 . S
O60 Sc44 2.105 . S
O60 C52 1.268 . S
O61 Sc45 2.105 . S
O61 C51 1.268 . S
O62 Sc46 2.105 . S
O62 C53 1.268 . S
O63 Sc44 2.105 . S
O63 C49 1.268 . S
O64 Sc46 2.105 . S
O64 C48 1.268 . S
O65 Sc45 2.105 . S
O65 C50 1.268 . S
Sc66 O69 2.025 . S
Sc66 O76 2.105 . S
Sc66 O79 2.105 . S
Sc66 O82 2.105 . S
Sc66 O85 2.105 . S
Sc67 O69 2.025 . S
Sc67 O77 2.105 . S
Sc67 O81 2.105 . S
Sc67 O83 2.105 . S
Sc67 O87 2.105 . S
Sc68 O69 2.025 . S
Sc68 O78 2.105 . S
Sc68 O80 2.105 . S
Sc68 O84 2.105 . S
Sc68 O86 2.105 . S
O69 Sc66 2.025 . S
O69 Sc67 2.025 . S
O69 Sc68 2.025 . S
C70 O76 1.268 . S
C70 O86 1.268 . S
C71 O77 1.268 . S
C71 O85 1.268 . S
C72 O78 1.268 . S
C72 O87 1.268 . S
C73 O79 1.268 . S
C73 O83 1.268 . S
C74 O80 1.268 . S
C74 O82 1.268 . S
C75 O81 1.268 . S
C75 O84 1.268 . S
O76 Sc66 2.105 . S
O76 C70 1.268 . S
O77 Sc67 2.105 . S
O77 C71 1.268 . S
O78 Sc68 2.105 . S
O78 C72 1.268 . S
O79 Sc66 2.105 . S
O79 C73 1.268 . S
O80 Sc68 2.105 . S
O80 C74 1.268 . S
O81 Sc67 2.105 . S
O81 C75 1.268 . S
O82 Sc66 2.105 . S
O82 C74 1.268 . S
O83 Sc67 2.105 . S
O83 C73 1.268 . S
O84 Sc68 2.105 . S
O84 C75 1.268 . S
O85 Sc66 2.105 . S
O85 C71 1.268 . S
O86 Sc68 2.105 . S
O86 C70 1.268 . S
O87 Sc67 2.105 . S
O87 C72 1.268 . S
Sc88 O91 2.025 . S
Sc88 O98 2.105 . S
Sc88 O101 2.105 . S
Sc88 O104 2.105 . S
Sc88 O107 2.105 . S
Sc89 O91 2.025 . S
Sc89 O99 2.105 . S
Sc89 O103 2.105 . S
Sc89 O105 2.105 . S
Sc89 O109 2.105 . S
Sc90 O91 2.025 . S
Sc90 O100 2.105 . S
Sc90 O102 2.105 . S
Sc90 O106 2.105 . S
Sc90 O108 2.105 . S
O91 Sc88 2.025 . S
O91 Sc89 2.025 . S
O91 Sc90 2.025 . S
C92 O98 1.268 . S
C92 O108 1.268 . S
C93 O99 1.268 . S
C93 O107 1.268 . S
C94 O100 1.268 . S
C94 O109 1.268 . S
C95 O101 1.268 . S
C95 O105 1.268 . S
C96 O102 1.268 . S
C96 O104 1.268 . S
C97 O103 1.268 . S
C97 O106 1.268 . S
O98 Sc88 2.105 . S
O98 C92 1.268 . S
O99 Sc89 2.105 . S
O99 C93 1.268 . S
O100 Sc90 2.105 . S
O100 C94 1.268 . S
O101 Sc88 2.105 . S
O101 C95 1.268 . S
O102 Sc90 2.105 . S
O102 C96 1.268 . S
O103 Sc89 2.105 . S
O103 C97 1.268 . S
O104 Sc88 2.105 . S
O104 C96 1.268 . S
O105 Sc89 2.105 . S
O105 C95 1.268 . S
O106 Sc90 2.105 . S
O106 C97 1.268 . S
O107 Sc88 2.105 . S
O107 C93 1.268 . S
O108 Sc90 2.105 . S
O108 C92 1.268 . S
O109 Sc89 2.105 . S
O109 C94 1.268 . S
Sc110 O113 2.025 . S
Sc110 O120 2.105 . S
Sc110 O123 2.105 . S
Sc110 O126 2.105 . S
Sc110 O129 2.105 . S
Sc111 O113 2.025 . S
Sc111 O121 2.105 . S
Sc111 O125 2.105 . S
Sc111 O127 2.105 . S
Sc111 O131 2.105 . S
Sc112 O113 2.025 . S
Sc112 O122 2.105 . S
Sc112 O124 2.105 . S
Sc112 O128 2.105 . S
Sc112 O130 2.105 . S
O113 Sc110 2.025 . S
O113 Sc111 2.025 . S
O113 Sc112 2.025 . S
C114 O120 1.268 . S
C114 O130 1.268 . S
C115 O121 1.268 . S
C115 O129 1.268 . S
C116 O122 1.268 . S
C116 O131 1.268 . S
C117 O123 1.268 . S
C117 O127 1.268 . S
C118 O124 1.268 . S
C118 O126 1.268 . S
C119 O125 1.268 . S
C119 O128 1.268 . S
O120 Sc110 2.105 . S
O120 C114 1.268 . S
O121 Sc111 2.105 . S
O121 C115 1.268 . S
O122 Sc112 2.105 . S
O122 C116 1.268 . S
O123 Sc110 2.105 . S
O123 C117 1.268 . S
O124 Sc112 2.105 . S
O124 C118 1.268 . S
O125 Sc111 2.105 . S
O125 C119 1.268 . S
O126 Sc110 2.105 . S
O126 C118 1.268 . S
O127 Sc111 2.105 . S
O127 C117 1.268 . S
O128 Sc112 2.105 . S
O128 C119 1.268 . S
O129 Sc110 2.105 . S
O129 C115 1.268 . S
O130 Sc112 2.105 . S
O130 C114 1.268 . S
O131 Sc111 2.105 . S
O131 C116 1.268 . S
Sc132 O135 2.025 . S
Sc132 O142 2.105 . S
Sc132 O145 2.105 . S
Sc132 O148 2.105 . S
Sc132 O151 2.105 . S
Sc133 O135 2.025 . S
Sc133 O143 2.105 . S
Sc133 O147 2.105 . S
Sc133 O149 2.105 . S
Sc133 O153 2.105 . S
Sc134 O135 2.025 . S
Sc134 O144 2.105 . S
Sc134 O146 2.105 . S
Sc134 O150 2.105 . S
Sc134 O152 2.105 . S
O135 Sc132 2.025 . S
O135 Sc133 2.025 . S
O135 Sc134 2.025 . S
C136 O142 1.268 . S
C136 O152 1.268 . S
C137 O143 1.268 . S
C137 O151 1.268 . S
C138 O144 1.268 . S
C138 O153 1.268 . S
C139 O145 1.268 . S
C139 O149 1.268 . S
C140 O146 1.268 . S
C140 O148 1.268 . S
C141 O147 1.268 . S
C141 O150 1.268 . S
O142 Sc132 2.105 . S
O142 C136 1.268 . S
O143 Sc133 2.105 . S
O143 C137 1.268 . S
O144 Sc134 2.105 . S
O144 C138 1.268 . S
O145 Sc132 2.105 . S
O145 C139 1.268 . S
O146 Sc134 2.105 . S
O146 C140 1.268 . S
O147 Sc133 2.105 . S
O147 C141 1.268 . S
O148 Sc132 2.105 . S
O148 C140 1.268 . S
O149 Sc133 2.105 . S
O149 C139 1.268 . S
O150 Sc134 2.105 . S
O150 C141 1.268 . S
O151 Sc132 2.105 . S
O151 C137 1.268 . S
O152 Sc134 2.105 . S
O152 C136 1.268 . S
O153 Sc133 2.105 . S
O153 C138 1.268 . S
Sc154 O157 2.025 . S
Sc154 O164 2.105 . S
Sc154 O167 2.105 . S
Sc154 O170 2.105 . S
Sc154 O173 2.105 . S
Sc155 O157 2.025 . S
Sc155 O165 2.105 . S
Sc155 O169 2.105 . S
Sc155 O171 2.105 . S
Sc155 O175 2.105 . S
Sc156 O157 2.025 . S
Sc156 O166 2.105 . S
Sc156 O168 2.105 . S
Sc156 O172 2.105 . S
Sc156 O174 2.105 . S
O157 Sc154 2.025 . S
O157 Sc155 2.025 . S
O157 Sc156 2.025 . S
C158 O164 1.268 . S
C158 O174 1.268 . S
C159 O165 1.268 . S
C159 O173 1.268 . S
C160 O166 1.268 . S
C160 O175 1.268 . S
C161 O167 1.268 . S
C161 O171 1.268 . S
C162 O168 1.268 . S
C162 O170 1.268 . S
C163 O169 1.268 . S
C163 O172 1.268 . S
O164 Sc154 2.105 . S
O164 C158 1.268 . S
O165 Sc155 2.105 . S
O165 C159 1.268 . S
O166 Sc156 2.105 . S
O166 C160 1.268 . S
O167 Sc154 2.105 . S
O167 C161 1.268 . S
O168 Sc156 2.105 . S
O168 C162 1.268 . S
O169 Sc155 2.105 . S
O169 C163 1.268 . S
O170 Sc154 2.105 . S
O170 C162 1.268 . S
O171 Sc155 2.105 . S
O171 C161 1.268 . S
O172 Sc156 2.105 . S
O172 C163 1.268 . S
O173 Sc154 2.105 . S
O173 C159 1.268 . S
O174 Sc156 2.105 . S
O174 C158 1.268 . S
O175 Sc155 2.105 . S
O175 C160 1.268 . S
Sc176 O179 2.025 . S
Sc176 O186 2.105 . S
Sc176 O189 2.105 . S
Sc176 O192 2.105 . S
Sc176 O195 2.105 . S
Sc177 O179 2.025 . S
Sc177 O187 2.105 . S
Sc177 O191 2.105 . S
Sc177 O193 2.105 . S
Sc177 O197 2.105 . S
Sc178 O179 2.025 . S
Sc178 O188 2.105 . S
Sc178 O190 2.105 . S
Sc178 O194 2.105 . S
Sc178 O196 2.105 . S
O179 Sc176 2.025 . S
O179 Sc177 2.025 . S
O179 Sc178 2.025 . S
C180 O186 1.268 . S
C180 O196 1.268 . S
C181 O187 1.268 . S
C181 O195 1.268 . S
C182 O188 1.268 . S
C182 O197 1.268 . S
C183 O189 1.268 . S
C183 O193 1.268 . S
C184 O190 1.268 . S
C184 O192 1.268 . S
C185 O191 1.268 . S
C185 O194 1.268 . S
O186 Sc176 2.105 . S
O186 C180 1.268 . S
O187 Sc177 2.105 . S
O187 C181 1.268 . S
O188 Sc178 2.105 . S
O188 C182 1.268 . S
O189 Sc176 2.105 . S
O189 C183 1.268 . S
O190 Sc178 2.105 . S
O190 C184 1.268 . S
O191 Sc177 2.105 . S
O191 C185 1.268 . S
O192 Sc176 2.105 . S
O192 C184 1.268 . S
O193 Sc177 2.105 . S
O193 C183 1.268 . S
O194 Sc178 2.105 . S
O194 C185 1.268 . S
O195 Sc176 2.105 . S
O195 C181 1.268 . S
O196 Sc178 2.105 . S
O196 C180 1.268 . S
O197 Sc177 2.105 . S
O197 C182 1.268 . S
Sc198 O201 2.025 . S
Sc198 O208 2.105 . S
Sc198 O211 2.105 . S
Sc198 O214 2.105 . S
Sc198 O217 2.105 . S
Sc199 O201 2.025 . S
Sc199 O209 2.105 . S
Sc199 O213 2.105 . S
Sc199 O215 2.105 . S
Sc199 O219 2.105 . S
Sc200 O201 2.025 . S
Sc200 O210 2.105 . S
Sc200 O212 2.105 . S
Sc200 O216 2.105 . S
Sc200 O218 2.105 . S
O201 Sc198 2.025 . S
O201 Sc199 2.025 . S
O201 Sc200 2.025 . S
C202 O208 1.268 . S
C202 O218 1.268 . S
C203 O209 1.268 . S
C203 O217 1.268 . S
C204 O210 1.268 . S
C204 O219 1.268 . S
C205 O211 1.268 . S
C205 O215 1.268 . S
C206 O212 1.268 . S
C206 O214 1.268 . S
C207 O213 1.268 . S
C207 O216 1.268 . S
O208 Sc198 2.105 . S
O208 C202 1.268 . S
O209 Sc199 2.105 . S
O209 C203 1.268 . S
O210 Sc200 2.105 . S
O210 C204 1.268 . S
O211 Sc198 2.105 . S
O211 C205 1.268 . S
O212 Sc200 2.105 . S
O212 C206 1.268 . S
O213 Sc199 2.105 . S
O213 C207 1.268 . S
O214 Sc198 2.105 . S
O214 C206 1.268 . S
O215 Sc199 2.105 . S
O215 C205 1.268 . S
O216 Sc200 2.105 . S
O216 C207 1.268 . S
O217 Sc198 2.105 . S
O217 C203 1.268 . S
O218 Sc200 2.105 . S
O218 C202 1.268 . S
O219 Sc199 2.105 . S
O219 C204 1.268 . S
Sc220 O223 2.025 . S
Sc220 O230 2.105 . S
Sc220 O233 2.105 . S
Sc220 O236 2.105 . S
Sc220 O239 2.105 . S
Sc221 O223 2.025 . S
Sc221 O231 2.105 . S
Sc221 O235 2.105 . S
Sc221 O237 2.105 . S
Sc221 O241 2.105 . S
Sc222 O223 2.025 . S
Sc222 O232 2.105 . S
Sc222 O234 2.105 . S
Sc222 O238 2.105 . S
Sc222 O240 2.105 . S
O223 Sc220 2.025 . S
O223 Sc221 2.025 . S
O223 Sc222 2.025 . S
C224 O230 1.268 . S
C224 O240 1.268 . S
C225 O231 1.268 . S
C225 O239 1.268 . S
C226 O232 1.268 . S
C226 O241 1.268 . S
C227 O233 1.268 . S
C227 O237 1.268 . S
C228 O234 1.268 . S
C228 O236 1.268 . S
C229 O235 1.268 . S
C229 O238 1.268 . S
O230 Sc220 2.105 . S
O230 C224 1.268 . S
O231 Sc221 2.105 . S
O231 C225 1.268 . S
O232 Sc222 2.105 . S
O232 C226 1.268 . S
O233 Sc220 2.105 . S
O233 C227 1.268 . S
O234 Sc222 2.105 . S
O234 C228 1.268 . S
O235 Sc221 2.105 . S
O235 C229 1.268 . S
O236 Sc220 2.105 . S
O236 C228 1.268 . S
O237 Sc221 2.105 . S
O237 C227 1.268 . S
O238 Sc222 2.105 . S
O238 C229 1.268 . S
O239 Sc220 2.105 . S
O239 C225 1.268 . S
O240 Sc222 2.105 . S
O240 C224 1.268 . S
O241 Sc221 2.105 . S
O241 C226 1.268 . S
Sc242 O245 2.025 . S
Sc242 O252 2.105 . S
Sc242 O255 2.105 . S
Sc242 O258 2.105 . S
Sc242 O261 2.105 . S
Sc243 O245 2.025 . S
Sc243 O253 2.105 . S
Sc243 O257 2.105 . S
Sc243 O259 2.105 . S
Sc243 O263 2.105 . S
Sc244 O245 2.025 . S
Sc244 O254 2.105 . S
Sc244 O256 2.105 . S
Sc244 O260 2.105 . S
Sc244 O262 2.105 . S
O245 Sc242 2.025 . S
O245 Sc243 2.025 . S
O245 Sc244 2.025 . S
C246 O252 1.268 . S
C246 O262 1.268 . S
C247 O253 1.268 . S
C247 O261 1.268 . S
C248 O254 1.268 . S
C248 O263 1.268 . S
C249 O255 1.268 . S
C249 O259 1.268 . S
C250 O256 1.268 . S
C250 O258 1.268 . S
C251 O257 1.268 . S
C251 O260 1.268 . S
O252 Sc242 2.105 . S
O252 C246 1.268 . S
O253 Sc243 2.105 . S
O253 C247 1.268 . S
O254 Sc244 2.105 . S
O254 C248 1.268 . S
O255 Sc242 2.105 . S
O255 C249 1.268 . S
O256 Sc244 2.105 . S
O256 C250 1.268 . S
O257 Sc243 2.105 . S
O257 C251 1.268 . S
O258 Sc242 2.105 . S
O258 C250 1.268 . S
O259 Sc243 2.105 . S
O259 C249 1.268 . S
O260 Sc244 2.105 . S
O260 C251 1.268 . S
O261 Sc242 2.105 . S
O261 C247 1.268 . S
O262 Sc244 2.105 . S
O262 C246 1.268 . S
O263 Sc243 2.105 . S
O263 C248 1.268 . S
Sc264 O267 2.025 . S
Sc264 O274 2.105 . S
Sc264 O277 2.105 . S
Sc264 O280 2.105 . S
Sc264 O283 2.105 . S
Sc265 O267 2.025 . S
Sc265 O275 2.105 . S
Sc265 O279 2.105 . S
Sc265 O281 2.105 . S
Sc265 O285 2.105 . S
Sc266 O267 2.025 . S
Sc266 O276 2.105 . S
Sc266 O278 2.105 . S
Sc266 O282 2.105 . S
Sc266 O284 2.105 . S
O267 Sc264 2.025 . S
O267 Sc265 2.025 . S
O267 Sc266 2.025 . S
C268 O274 1.268 . S
C268 O284 1.268 . S
C269 O275 1.268 . S
C269 O283 1.268 . S
C270 O276 1.268 . S
C270 O285 1.268 . S
C271 O277 1.268 . S
C271 O281 1.268 . S
C272 O278 1.268 . S
C272 O280 1.268 . S
C273 O279 1.268 . S
C273 O282 1.268 . S
O274 Sc264 2.105 . S
O274 C268 1.268 . S
O275 Sc265 2.105 . S
O275 C269 1.268 . S
O276 Sc266 2.105 . S
O276 C270 1.268 . S
O277 Sc264 2.105 . S
O277 C271 1.268 . S
O278 Sc266 2.105 . S
O278 C272 1.268 . S
O279 Sc265 2.105 . S
O279 C273 1.268 . S
O280 Sc264 2.105 . S
O280 C272 1.268 . S
O281 Sc265 2.105 . S
O281 C271 1.268 . S
O282 Sc266 2.105 . S
O282 C273 1.268 . S
O283 Sc264 2.105 . S
O283 C269 1.268 . S
O284 Sc266 2.105 . S
O284 C268 1.268 . S
O285 Sc265 2.105 . S
O285 C270 1.268 . S
Sc286 O289 2.025 . S
Sc286 O296 2.105 . S
Sc286 O299 2.105 . S
Sc286 O302 2.105 . S
Sc286 O305 2.105 . S
Sc287 O289 2.025 . S
Sc287 O297 2.105 . S
Sc287 O301 2.105 . S
Sc287 O303 2.105 . S
Sc287 O307 2.105 . S
Sc288 O289 2.025 . S
Sc288 O298 2.105 . S
Sc288 O300 2.105 . S
Sc288 O304 2.105 . S
Sc288 O306 2.105 . S
O289 Sc286 2.025 . S
O289 Sc287 2.025 . S
O289 Sc288 2.025 . S
C290 O296 1.268 . S
C290 O306 1.268 . S
C291 O297 1.268 . S
C291 O305 1.268 . S
C292 O298 1.268 . S
C292 O307 1.268 . S
C293 O299 1.268 . S
C293 O303 1.268 . S
C294 O300 1.268 . S
C294 O302 1.268 . S
C295 O301 1.268 . S
C295 O304 1.268 . S
O296 Sc286 2.105 . S
O296 C290 1.268 . S
O297 Sc287 2.105 . S
O297 C291 1.268 . S
O298 Sc288 2.105 . S
O298 C292 1.268 . S
O299 Sc286 2.105 . S
O299 C293 1.268 . S
O300 Sc288 2.105 . S
O300 C294 1.268 . S
O301 Sc287 2.105 . S
O301 C295 1.268 . S
O302 Sc286 2.105 . S
O302 C294 1.268 . S
O303 Sc287 2.105 . S
O303 C293 1.268 . S
O304 Sc288 2.105 . S
O304 C295 1.268 . S
O305 Sc286 2.105 . S
O305 C291 1.268 . S
O306 Sc288 2.105 . S
O306 C290 1.268 . S
O307 Sc287 2.105 . S
O307 C292 1.268 . S
Sc308 O311 2.025 . S
Sc308 O318 2.105 . S
Sc308 O321 2.105 . S
Sc308 O324 2.105 . S
Sc308 O327 2.105 . S
Sc309 O311 2.025 . S
Sc309 O319 2.105 . S
Sc309 O323 2.105 . S
Sc309 O325 2.105 . S
Sc309 O329 2.105 . S
Sc310 O311 2.025 . S
Sc310 O320 2.105 . S
Sc310 O322 2.105 . S
Sc310 O326 2.105 . S
Sc310 O328 2.105 . S
O311 Sc308 2.025 . S
O311 Sc309 2.025 . S
O311 Sc310 2.025 . S
C312 O318 1.268 . S
C312 O328 1.268 . S
C313 O319 1.268 . S
C313 O327 1.268 . S
C314 O320 1.268 . S
C314 O329 1.268 . S
C315 O321 1.268 . S
C315 O325 1.268 . S
C316 O322 1.268 . S
C316 O324 1.268 . S
C317 O323 1.268 . S
C317 O326 1.268 . S
O318 Sc308 2.105 . S
O318 C312 1.268 . S
O319 Sc309 2.105 . S
O319 C313 1.268 . S
O320 Sc310 2.105 . S
O320 C314 1.268 . S
O321 Sc308 2.105 . S
O321 C315 1.268 . S
O322 Sc310 2.105 . S
O322 C316 1.268 . S
O323 Sc309 2.105 . S
O323 C317 1.268 . S
O324 Sc308 2.105 . S
O324 C316 1.268 . S
O325 Sc309 2.105 . S
O325 C315 1.268 . S
O326 Sc310 2.105 . S
O326 C317 1.268 . S
O327 Sc308 2.105 . S
O327 C313 1.268 . S
O328 Sc310 2.105 . S
O328 C312 1.268 . S
O329 Sc309 2.105 . S
O329 C314 1.268 . S
Sc330 O333 2.025 . S
Sc330 O340 2.105 . S
Sc330 O343 2.105 . S
Sc330 O346 2.105 . S
Sc330 O349 2.105 . S
Sc331 O333 2.025 . S
Sc331 O341 2.105 . S
Sc331 O345 2.105 . S
Sc331 O347 2.105 . S
Sc331 O351 2.105 . S
Sc332 O333 2.025 . S
Sc332 O342 2.105 . S
Sc332 O344 2.105 . S
Sc332 O348 2.105 . S
Sc332 O350 2.105 . S
O333 Sc330 2.025 . S
O333 Sc331 2.025 . S
O333 Sc332 2.025 . S
C334 O340 1.268 . S
C334 O350 1.268 . S
C335 O341 1.268 . S
C335 O349 1.268 . S
C336 O342 1.268 . S
C336 O351 1.268 . S
C337 O343 1.268 . S
C337 O347 1.268 . S
C338 O344 1.268 . S
C338 O346 1.268 . S
C339 O345 1.268 . S
C339 O348 1.268 . S
O340 Sc330 2.105 . S
O340 C334 1.268 . S
O341 Sc331 2.105 . S
O341 C335 1.268 . S
O342 Sc332 2.105 . S
O342 C336 1.268 . S
O343 Sc330 2.105 . S
O343 C337 1.268 . S
O344 Sc332 2.105 . S
O344 C338 1.268 . S
O345 Sc331 2.105 . S
O345 C339 1.268 . S
O346 Sc330 2.105 . S
O346 C338 1.268 . S
O347 Sc331 2.105 . S
O347 C337 1.268 . S
O348 Sc332 2.105 . S
O348 C339 1.268 . S
O349 Sc330 2.105 . S
O349 C335 1.268 . S
O350 Sc332 2.105 . S
O350 C334 1.268 . S
O351 Sc331 2.105 . S
O351 C336 1.268 . S
H352 C370 0.951 . S
H353 C372 0.951 . S
H354 C374 0.950 . S
H355 C375 0.950 . S
H356 C377 0.950 . S
H357 C380 0.950 . S
H358 C381 0.950 . S
H359 C383 0.950 . S
H360 C384 0.950 . S
H361 C385 0.951 . S
H362 C387 0.951 . S
H363 C389 0.950 . S
H364 C390 0.950 . S
H365 C392 0.950 . S
H366 C395 0.950 . S
H367 C396 0.950 . S
H368 C398 0.950 . S
H369 C399 0.950 . S
C370 H352 0.951 . S
C370 C371 1.366 . S
C370 C372 1.388 . S
C371 C370 1.366 . S
C371 C375 1.385 . S
C372 H353 0.951 . S
C372 C370 1.388 . S
C372 C373 1.366 . S
C373 C372 1.366 . S
C373 C374 1.414 . S
C373 C376 1.499 . S
C374 H354 0.950 . S
C374 C373 1.414 . S
C374 C375 1.374 . S
C375 H355 0.950 . S
C375 C371 1.385 . S
C375 C374 1.374 . S
C376 C373 1.499 . S
C376 C377 1.373 . S
C376 C378 1.389 . S
C377 H356 0.950 . S
C377 C376 1.373 . S
C377 C393 1.377 . S
C378 C376 1.389 . S
C378 C379 1.524 . S
C378 C392 1.377 . S
C379 C378 1.524 . S
C379 C380 1.397 . S
C379 C384 1.363 . S
C380 H357 0.950 . S
C380 C379 1.397 . S
C380 C381 1.334 . S
C381 H358 0.950 . S
C381 C380 1.334 . S
C381 C382 1.287 . S
C382 C381 1.287 . S
C382 C383 1.524 . S
C382 H401 0.913 . S
C383 H359 0.950 . S
C383 C382 1.524 . S
C383 C384 1.415 . S
C384 H360 0.950 . S
C384 C379 1.363 . S
C384 C383 1.415 . S
C385 H361 0.951 . S
C385 C386 1.366 . S
C385 C387 1.388 . S
C386 C385 1.366 . S
C386 C390 1.385 . S
C387 H362 0.951 . S
C387 C385 1.388 . S
C387 C388 1.366 . S
C388 C387 1.366 . S
C388 C389 1.414 . S
C388 C391 1.499 . S
C389 H363 0.950 . S
C389 C388 1.414 . S
C389 C390 1.374 . S
C390 H364 0.950 . S
C390 C386 1.385 . S
C390 C389 1.374 . S
C391 C388 1.499 . S
C391 C392 1.373 . S
C391 C393 1.389 . S
C392 H365 0.950 . S
C392 C378 1.377 . S
C392 C391 1.373 . S
C393 C377 1.377 . S
C393 C391 1.389 . S
C393 C394 1.524 . S
C394 C393 1.524 . S
C394 C395 1.397 . S
C394 C399 1.363 . S
C395 H366 0.950 . S
C395 C394 1.397 . S
C395 C396 1.334 . S
C396 H367 0.950 . S
C396 C395 1.334 . S
C396 C397 1.287 . S
C397 C396 1.287 . S
C397 C398 1.524 . S
C397 H400 0.999 . S
C398 H368 0.950 . S
C398 C397 1.524 . S
C398 C399 1.415 . S
C399 H369 0.950 . S
C399 C394 1.363 . S
C399 C398 1.415 . S
H400 C397 0.999 . S
H401 C382 0.913 . S
H402 C420 0.951 . S
H403 C422 0.951 . S
H404 C424 0.950 . S
H405 C425 0.950 . S
H406 C427 0.950 . S
H407 C430 0.950 . S
H408 C431 0.950 . S
H409 C433 0.950 . S
H410 C434 0.950 . S
H411 C435 0.951 . S
H412 C437 0.951 . S
H413 C439 0.950 . S
H414 C440 0.950 . S
H415 C442 0.950 . S
H416 C445 0.950 . S
H417 C446 0.950 . S
H418 C448 0.950 . S
H419 C449 0.950 . S
C420 H402 0.951 . S
C420 C421 1.366 . S
C420 C422 1.388 . S
C421 C420 1.366 . S
C421 C425 1.385 . S
C422 H403 0.951 . S
C422 C420 1.388 . S
C422 C423 1.366 . S
C423 C422 1.366 . S
C423 C424 1.414 . S
C423 C426 1.499 . S
C424 H404 0.950 . S
C424 C423 1.414 . S
C424 C425 1.374 . S
C425 H405 0.950 . S
C425 C421 1.385 . S
C425 C424 1.374 . S
C426 C423 1.499 . S
C426 C427 1.373 . S
C426 C428 1.389 . S
C427 H406 0.950 . S
C427 C426 1.373 . S
C427 C443 1.377 . S
C428 C426 1.389 . S
C428 C429 1.524 . S
C428 C442 1.377 . S
C429 C428 1.524 . S
C429 C430 1.397 . S
C429 C434 1.363 . S
C430 H407 0.950 . S
C430 C429 1.397 . S
C430 C431 1.334 . S
C431 H408 0.950 . S
C431 C430 1.334 . S
C431 C432 1.287 . S
C432 C431 1.287 . S
C432 C433 1.524 . S
C432 H451 0.913 . S
C433 H409 0.950 . S
C433 C432 1.524 . S
C433 C434 1.415 . S
C434 H410 0.950 . S
C434 C429 1.363 . S
C434 C433 1.415 . S
C435 H411 0.951 . S
C435 C436 1.366 . S
C435 C437 1.388 . S
C436 C435 1.366 . S
C436 C440 1.385 . S
C437 H412 0.951 . S
C437 C435 1.388 . S
C437 C438 1.366 . S
C438 C437 1.366 . S
C438 C439 1.414 . S
C438 C441 1.499 . S
C439 H413 0.950 . S
C439 C438 1.414 . S
C439 C440 1.374 . S
C440 H414 0.950 . S
C440 C436 1.385 . S
C440 C439 1.374 . S
C441 C438 1.499 . S
C441 C442 1.373 . S
C441 C443 1.389 . S
C442 H415 0.950 . S
C442 C428 1.377 . S
C442 C441 1.373 . S
C443 C427 1.377 . S
C443 C441 1.389 . S
C443 C444 1.524 . S
C444 C443 1.524 . S
C444 C445 1.397 . S
C444 C449 1.363 . S
C445 H416 0.950 . S
C445 C444 1.397 . S
C445 C446 1.334 . S
C446 H417 0.950 . S
C446 C445 1.334 . S
C446 C447 1.287 . S
C447 C446 1.287 . S
C447 C448 1.524 . S
C447 H450 0.999 . S
C448 H418 0.950 . S
C448 C447 1.524 . S
C448 C449 1.415 . S
C449 H419 0.950 . S
C449 C444 1.363 . S
C449 C448 1.415 . S
H450 C447 0.999 . S
H451 C432 0.913 . S
H452 C470 0.951 . S
H453 C472 0.951 . S
H454 C474 0.950 . S
H455 C475 0.950 . S
H456 C477 0.950 . S
H457 C480 0.950 . S
H458 C481 0.950 . S
H459 C483 0.950 . S
H460 C484 0.950 . S
H461 C485 0.951 . S
H462 C487 0.951 . S
H463 C489 0.950 . S
H464 C490 0.950 . S
H465 C492 0.950 . S
H466 C495 0.950 . S
H467 C496 0.950 . S
H468 C498 0.950 . S
H469 C499 0.950 . S
C470 H452 0.951 . S
C470 C471 1.366 . S
C470 C472 1.388 . S
C471 C470 1.366 . S
C471 C475 1.385 . S
C472 H453 0.951 . S
C472 C470 1.388 . S
C472 C473 1.366 . S
C473 C472 1.366 . S
C473 C474 1.414 . S
C473 C476 1.499 . S
C474 H454 0.950 . S
C474 C473 1.414 . S
C474 C475 1.374 . S
C475 H455 0.950 . S
C475 C471 1.385 . S
C475 C474 1.374 . S
C476 C473 1.499 . S
C476 C477 1.373 . S
C476 C478 1.389 . S
C477 H456 0.950 . S
C477 C476 1.373 . S
C477 C493 1.377 . S
C478 C476 1.389 . S
C478 C479 1.524 . S
C478 C492 1.377 . S
C479 C478 1.524 . S
C479 C480 1.397 . S
C479 C484 1.363 . S
C480 H457 0.950 . S
C480 C479 1.397 . S
C480 C481 1.334 . S
C481 H458 0.950 . S
C481 C480 1.334 . S
C481 C482 1.287 . S
C482 C481 1.287 . S
C482 C483 1.524 . S
C482 H501 0.913 . S
C483 H459 0.950 . S
C483 C482 1.524 . S
C483 C484 1.415 . S
C484 H460 0.950 . S
C484 C479 1.363 . S
C484 C483 1.415 . S
C485 H461 0.951 . S
C485 C486 1.366 . S
C485 C487 1.388 . S
C486 C485 1.366 . S
C486 C490 1.385 . S
C487 H462 0.951 . S
C487 C485 1.388 . S
C487 C488 1.366 . S
C488 C487 1.366 . S
C488 C489 1.414 . S
C488 C491 1.499 . S
C489 H463 0.950 . S
C489 C488 1.414 . S
C489 C490 1.374 . S
C490 H464 0.950 . S
C490 C486 1.385 . S
C490 C489 1.374 . S
C491 C488 1.499 . S
C491 C492 1.373 . S
C491 C493 1.389 . S
C492 H465 0.950 . S
C492 C478 1.377 . S
C492 C491 1.373 . S
C493 C477 1.377 . S
C493 C491 1.389 . S
C493 C494 1.524 . S
C494 C493 1.524 . S
C494 C495 1.397 . S
C494 C499 1.363 . S
C495 H466 0.950 . S
C495 C494 1.397 . S
C495 C496 1.334 . S
C496 H467 0.950 . S
C496 C495 1.334 . S
C496 C497 1.287 . S
C497 C496 1.287 . S
C497 C498 1.524 . S
C497 H500 0.999 . S
C498 H468 0.950 . S
C498 C497 1.524 . S
C498 C499 1.415 . S
C499 H469 0.950 . S
C499 C494 1.363 . S
C499 C498 1.415 . S
H500 C497 0.999 . S
H501 C482 0.913 . S
H502 C520 0.951 . S
H503 C522 0.951 . S
H504 C524 0.950 . S
H505 C525 0.950 . S
H506 C527 0.950 . S
H507 C530 0.950 . S
H508 C531 0.950 . S
H509 C533 0.950 . S
H510 C534 0.950 . S
H511 C535 0.951 . S
H512 C537 0.951 . S
H513 C539 0.950 . S
H514 C540 0.950 . S
H515 C542 0.950 . S
H516 C545 0.950 . S
H517 C546 0.950 . S
H518 C548 0.950 . S
H519 C549 0.950 . S
C520 H502 0.951 . S
C520 C521 1.366 . S
C520 C522 1.388 . S
C521 C520 1.366 . S
C521 C525 1.385 . S
C522 H503 0.951 . S
C522 C520 1.388 . S
C522 C523 1.366 . S
C523 C522 1.366 . S
C523 C524 1.414 . S
C523 C526 1.499 . S
C524 H504 0.950 . S
C524 C523 1.414 . S
C524 C525 1.374 . S
C525 H505 0.950 . S
C525 C521 1.385 . S
C525 C524 1.374 . S
C526 C523 1.499 . S
C526 C527 1.373 . S
C526 C528 1.389 . S
C527 H506 0.950 . S
C527 C526 1.373 . S
C527 C543 1.377 . S
C528 C526 1.389 . S
C528 C529 1.524 . S
C528 C542 1.377 . S
C529 C528 1.524 . S
C529 C530 1.397 . S
C529 C534 1.363 . S
C530 H507 0.950 . S
C530 C529 1.397 . S
C530 C531 1.334 . S
C531 H508 0.950 . S
C531 C530 1.334 . S
C531 C532 1.287 . S
C532 C531 1.287 . S
C532 C533 1.524 . S
C532 H551 0.913 . S
C533 H509 0.950 . S
C533 C532 1.524 . S
C533 C534 1.415 . S
C534 H510 0.950 . S
C534 C529 1.363 . S
C534 C533 1.415 . S
C535 H511 0.951 . S
C535 C536 1.366 . S
C535 C537 1.388 . S
C536 C535 1.366 . S
C536 C540 1.385 . S
C537 H512 0.951 . S
C537 C535 1.388 . S
C537 C538 1.366 . S
C538 C537 1.366 . S
C538 C539 1.414 . S
C538 C541 1.499 . S
C539 H513 0.950 . S
C539 C538 1.414 . S
C539 C540 1.374 . S
C540 H514 0.950 . S
C540 C536 1.385 . S
C540 C539 1.374 . S
C541 C538 1.499 . S
C541 C542 1.373 . S
C541 C543 1.389 . S
C542 H515 0.950 . S
C542 C528 1.377 . S
C542 C541 1.373 . S
C543 C527 1.377 . S
C543 C541 1.389 . S
C543 C544 1.524 . S
C544 C543 1.524 . S
C544 C545 1.397 . S
C544 C549 1.363 . S
C545 H516 0.950 . S
C545 C544 1.397 . S
C545 C546 1.334 . S
C546 H517 0.950 . S
C546 C545 1.334 . S
C546 C547 1.287 . S
C547 C546 1.287 . S
C547 C548 1.524 . S
C547 H550 0.999 . S
C548 H518 0.950 . S
C548 C547 1.524 . S
C548 C549 1.415 . S
C549 H519 0.950 . S
C549 C544 1.363 . S
C549 C548 1.415 . S
H550 C547 0.999 . S
H551 C532 0.913 . S
H552 C570 0.951 . S
H553 C572 0.951 . S
H554 C574 0.950 . S
H555 C575 0.950 . S
H556 C577 0.950 . S
H557 C580 0.950 . S
H558 C581 0.950 . S
H559 C583 0.950 . S
H560 C584 0.950 . S
H561 C585 0.951 . S
H562 C587 0.951 . S
H563 C589 0.950 . S
H564 C590 0.950 . S
H565 C592 0.950 . S
H566 C595 0.950 . S
H567 C596 0.950 . S
H568 C598 0.950 . S
H569 C599 0.950 . S
C570 H552 0.951 . S
C570 C571 1.366 . S
C570 C572 1.388 . S
C571 C570 1.366 . S
C571 C575 1.385 . S
C572 H553 0.951 . S
C572 C570 1.388 . S
C572 C573 1.366 . S
C573 C572 1.366 . S
C573 C574 1.414 . S
C573 C576 1.499 . S
C574 H554 0.950 . S
C574 C573 1.414 . S
C574 C575 1.374 . S
C575 H555 0.950 . S
C575 C571 1.385 . S
C575 C574 1.374 . S
C576 C573 1.499 . S
C576 C577 1.373 . S
C576 C578 1.389 . S
C577 H556 0.950 . S
C577 C576 1.373 . S
C577 C593 1.377 . S
C578 C576 1.389 . S
C578 C579 1.524 . S
C578 C592 1.377 . S
C579 C578 1.524 . S
C579 C580 1.397 . S
C579 C584 1.363 . S
C580 H557 0.950 . S
C580 C579 1.397 . S
C580 C581 1.334 . S
C581 H558 0.950 . S
C581 C580 1.334 . S
C581 C582 1.287 . S
C582 C581 1.287 . S
C582 C583 1.524 . S
C582 H601 0.913 . S
C583 H559 0.950 . S
C583 C582 1.524 . S
C583 C584 1.415 . S
C584 H560 0.950 . S
C584 C579 1.363 . S
C584 C583 1.415 . S
C585 H561 0.951 . S
C585 C586 1.366 . S
C585 C587 1.388 . S
C586 C585 1.366 . S
C586 C590 1.385 . S
C587 H562 0.951 . S
C587 C585 1.388 . S
C587 C588 1.366 . S
C588 C587 1.366 . S
C588 C589 1.414 . S
C588 C591 1.499 . S
C589 H563 0.950 . S
C589 C588 1.414 . S
C589 C590 1.374 . S
C590 H564 0.950 . S
C590 C586 1.385 . S
C590 C589 1.374 . S
C591 C588 1.499 . S
C591 C592 1.373 . S
C591 C593 1.389 . S
C592 H565 0.950 . S
C592 C578 1.377 . S
C592 C591 1.373 . S
C593 C577 1.377 . S
C593 C591 1.389 . S
C593 C594 1.524 . S
C594 C593 1.524 . S
C594 C595 1.397 . S
C594 C599 1.363 . S
C595 H566 0.950 . S
C595 C594 1.397 . S
C595 C596 1.334 . S
C596 H567 0.950 . S
C596 C595 1.334 . S
C596 C597 1.287 . S
C597 C596 1.287 . S
C597 C598 1.524 . S
C597 H600 0.999 . S
C598 H568 0.950 . S
C598 C597 1.524 . S
C598 C599 1.415 . S
C599 H569 0.950 . S
C599 C594 1.363 . S
C599 C598 1.415 . S
H600 C597 0.999 . S
H601 C582 0.913 . S
H602 C620 0.951 . S
H603 C622 0.951 . S
H604 C624 0.950 . S
H605 C625 0.950 . S
H606 C627 0.950 . S
H607 C630 0.950 . S
H608 C631 0.950 . S
H609 C633 0.950 . S
H610 C634 0.950 . S
H611 C635 0.951 . S
H612 C637 0.951 . S
H613 C639 0.950 . S
H614 C640 0.950 . S
H615 C642 0.950 . S
H616 C645 0.950 . S
H617 C646 0.950 . S
H618 C648 0.950 . S
H619 C649 0.950 . S
C620 H602 0.951 . S
C620 C621 1.366 . S
C620 C622 1.388 . S
C621 C620 1.366 . S
C621 C625 1.385 . S
C622 H603 0.951 . S
C622 C620 1.388 . S
C622 C623 1.366 . S
C623 C622 1.366 . S
C623 C624 1.414 . S
C623 C626 1.499 . S
C624 H604 0.950 . S
C624 C623 1.414 . S
C624 C625 1.374 . S
C625 H605 0.950 . S
C625 C621 1.385 . S
C625 C624 1.374 . S
C626 C623 1.499 . S
C626 C627 1.373 . S
C626 C628 1.389 . S
C627 H606 0.950 . S
C627 C626 1.373 . S
C627 C643 1.377 . S
C628 C626 1.389 . S
C628 C629 1.524 . S
C628 C642 1.377 . S
C629 C628 1.524 . S
C629 C630 1.397 . S
C629 C634 1.363 . S
C630 H607 0.950 . S
C630 C629 1.397 . S
C630 C631 1.334 . S
C631 H608 0.950 . S
C631 C630 1.334 . S
C631 C632 1.287 . S
C632 C631 1.287 . S
C632 C633 1.524 . S
C632 H651 0.913 . S
C633 H609 0.950 . S
C633 C632 1.524 . S
C633 C634 1.415 . S
C634 H610 0.950 . S
C634 C629 1.363 . S
C634 C633 1.415 . S
C635 H611 0.951 . S
C635 C636 1.366 . S
C635 C637 1.388 . S
C636 C635 1.366 . S
C636 C640 1.385 . S
C637 H612 0.951 . S
C637 C635 1.388 . S
C637 C638 1.366 . S
C638 C637 1.366 . S
C638 C639 1.414 . S
C638 C641 1.499 . S
C639 H613 0.950 . S
C639 C638 1.414 . S
C639 C640 1.374 . S
C640 H614 0.950 . S
C640 C636 1.385 . S
C640 C639 1.374 . S
C641 C638 1.499 . S
C641 C642 1.373 . S
C641 C643 1.389 . S
C642 H615 0.950 . S
C642 C628 1.377 . S
C642 C641 1.373 . S
C643 C627 1.377 . S
C643 C641 1.389 . S
C643 C644 1.524 . S
C644 C643 1.524 . S
C644 C645 1.397 . S
C644 C649 1.363 . S
C645 H616 0.950 . S
C645 C644 1.397 . S
C645 C646 1.334 . S
C646 H617 0.950 . S
C646 C645 1.334 . S
C646 C647 1.287 . S
C647 C646 1.287 . S
C647 C648 1.524 . S
C647 H650 0.999 . S
C648 H618 0.950 . S
C648 C647 1.524 . S
C648 C649 1.415 . S
C649 H619 0.950 . S
C649 C644 1.363 . S
C649 C648 1.415 . S
H650 C647 0.999 . S
H651 C632 0.913 . S
H652 C670 0.951 . S
H653 C672 0.951 . S
H654 C674 0.950 . S
H655 C675 0.950 . S
H656 C677 0.950 . S
H657 C680 0.950 . S
H658 C681 0.950 . S
H659 C683 0.950 . S
H660 C684 0.950 . S
H661 C685 0.951 . S
H662 C687 0.951 . S
H663 C689 0.950 . S
H664 C690 0.950 . S
H665 C692 0.950 . S
H666 C695 0.950 . S
H667 C696 0.950 . S
H668 C698 0.950 . S
H669 C699 0.950 . S
C670 H652 0.951 . S
C670 C671 1.366 . S
C670 C672 1.388 . S
C671 C670 1.366 . S
C671 C675 1.385 . S
C672 H653 0.951 . S
C672 C670 1.388 . S
C672 C673 1.366 . S
C673 C672 1.366 . S
C673 C674 1.414 . S
C673 C676 1.499 . S
C674 H654 0.950 . S
C674 C673 1.414 . S
C674 C675 1.374 . S
C675 H655 0.950 . S
C675 C671 1.385 . S
C675 C674 1.374 . S
C676 C673 1.499 . S
C676 C677 1.373 . S
C676 C678 1.389 . S
C677 H656 0.950 . S
C677 C676 1.373 . S
C677 C693 1.377 . S
C678 C676 1.389 . S
C678 C679 1.524 . S
C678 C692 1.377 . S
C679 C678 1.524 . S
C679 C680 1.397 . S
C679 C684 1.363 . S
C680 H657 0.950 . S
C680 C679 1.397 . S
C680 C681 1.334 . S
C681 H658 0.950 . S
C681 C680 1.334 . S
C681 C682 1.287 . S
C682 C681 1.287 . S
C682 C683 1.524 . S
C682 H701 0.913 . S
C683 H659 0.950 . S
C683 C682 1.524 . S
C683 C684 1.415 . S
C684 H660 0.950 . S
C684 C679 1.363 . S
C684 C683 1.415 . S
C685 H661 0.951 . S
C685 C686 1.366 . S
C685 C687 1.388 . S
C686 C685 1.366 . S
C686 C690 1.385 . S
C687 H662 0.951 . S
C687 C685 1.388 . S
C687 C688 1.366 . S
C688 C687 1.366 . S
C688 C689 1.414 . S
C688 C691 1.499 . S
C689 H663 0.950 . S
C689 C688 1.414 . S
C689 C690 1.374 . S
C690 H664 0.950 . S
C690 C686 1.385 . S
C690 C689 1.374 . S
C691 C688 1.499 . S
C691 C692 1.373 . S
C691 C693 1.389 . S
C692 H665 0.950 . S
C692 C678 1.377 . S
C692 C691 1.373 . S
C693 C677 1.377 . S
C693 C691 1.389 . S
C693 C694 1.524 . S
C694 C693 1.524 . S
C694 C695 1.397 . S
C694 C699 1.363 . S
C695 H666 0.950 . S
C695 C694 1.397 . S
C695 C696 1.334 . S
C696 H667 0.950 . S
C696 C695 1.334 . S
C696 C697 1.287 . S
C697 C696 1.287 . S
C697 C698 1.524 . S
C697 H700 0.999 . S
C698 H668 0.950 . S
C698 C697 1.524 . S
C698 C699 1.415 . S
C699 H669 0.950 . S
C699 C694 1.363 . S
C699 C698 1.415 . S
H700 C697 0.999 . S
H701 C682 0.913 . S
H702 C720 0.951 . S
H703 C722 0.951 . S
H704 C724 0.950 . S
H705 C725 0.950 . S
H706 C727 0.950 . S
H707 C730 0.950 . S
H708 C731 0.950 . S
H709 C733 0.950 . S
H710 C734 0.950 . S
H711 C735 0.951 . S
H712 C737 0.951 . S
H713 C739 0.950 . S
H714 C740 0.950 . S
H715 C742 0.950 . S
H716 C745 0.950 . S
H717 C746 0.950 . S
H718 C748 0.950 . S
H719 C749 0.950 . S
C720 H702 0.951 . S
C720 C721 1.366 . S
C720 C722 1.388 . S
C721 C720 1.366 . S
C721 C725 1.385 . S
C722 H703 0.951 . S
C722 C720 1.388 . S
C722 C723 1.366 . S
C723 C722 1.366 . S
C723 C724 1.414 . S
C723 C726 1.499 . S
C724 H704 0.950 . S
C724 C723 1.414 . S
C724 C725 1.374 . S
C725 H705 0.950 . S
C725 C721 1.385 . S
C725 C724 1.374 . S
C726 C723 1.499 . S
C726 C727 1.373 . S
C726 C728 1.389 . S
C727 H706 0.950 . S
C727 C726 1.373 . S
C727 C743 1.377 . S
C728 C726 1.389 . S
C728 C729 1.524 . S
C728 C742 1.377 . S
C729 C728 1.524 . S
C729 C730 1.397 . S
C729 C734 1.363 . S
C730 H707 0.950 . S
C730 C729 1.397 . S
C730 C731 1.334 . S
C731 H708 0.950 . S
C731 C730 1.334 . S
C731 C732 1.287 . S
C732 C731 1.287 . S
C732 C733 1.524 . S
C732 H751 0.913 . S
C733 H709 0.950 . S
C733 C732 1.524 . S
C733 C734 1.415 . S
C734 H710 0.950 . S
C734 C729 1.363 . S
C734 C733 1.415 . S
C735 H711 0.951 . S
C735 C736 1.366 . S
C735 C737 1.388 . S
C736 C735 1.366 . S
C736 C740 1.385 . S
C737 H712 0.951 . S
C737 C735 1.388 . S
C737 C738 1.366 . S
C738 C737 1.366 . S
C738 C739 1.414 . S
C738 C741 1.499 . S
C739 H713 0.950 . S
C739 C738 1.414 . S
C739 C740 1.374 . S
C740 H714 0.950 . S
C740 C736 1.385 . S
C740 C739 1.374 . S
C741 C738 1.499 . S
C741 C742 1.373 . S
C741 C743 1.389 . S
C742 H715 0.950 . S
C742 C728 1.377 . S
C742 C741 1.373 . S
C743 C727 1.377 . S
C743 C741 1.389 . S
C743 C744 1.524 . S
C744 C743 1.524 . S
C744 C745 1.397 . S
C744 C749 1.363 . S
C745 H716 0.950 . S
C745 C744 1.397 . S
C745 C746 1.334 . S
C746 H717 0.950 . S
C746 C745 1.334 . S
C746 C747 1.287 . S
C747 C746 1.287 . S
C747 C748 1.524 . S
C747 H750 0.999 . S
C748 H718 0.950 . S
C748 C747 1.524 . S
C748 C749 1.415 . S
C749 H719 0.950 . S
C749 C744 1.363 . S
C749 C748 1.415 . S
H750 C747 0.999 . S
H751 C732 0.913 . S
H752 C770 0.951 . S
H753 C772 0.951 . S
H754 C774 0.950 . S
H755 C775 0.950 . S
H756 C777 0.950 . S
H757 C780 0.950 . S
H758 C781 0.950 . S
H759 C783 0.950 . S
H760 C784 0.950 . S
H761 C785 0.951 . S
H762 C787 0.951 . S
H763 C789 0.950 . S
H764 C790 0.950 . S
H765 C792 0.950 . S
H766 C795 0.950 . S
H767 C796 0.950 . S
H768 C798 0.950 . S
H769 C799 0.950 . S
C770 H752 0.951 . S
C770 C771 1.366 . S
C770 C772 1.388 . S
C771 C770 1.366 . S
C771 C775 1.385 . S
C772 H753 0.951 . S
C772 C770 1.388 . S
C772 C773 1.366 . S
C773 C772 1.366 . S
C773 C774 1.414 . S
C773 C776 1.499 . S
C774 H754 0.950 . S
C774 C773 1.414 . S
C774 C775 1.374 . S
C775 H755 0.950 . S
C775 C771 1.385 . S
C775 C774 1.374 . S
C776 C773 1.499 . S
C776 C777 1.373 . S
C776 C778 1.389 . S
C777 H756 0.950 . S
C777 C776 1.373 . S
C777 C793 1.377 . S
C778 C776 1.389 . S
C778 C779 1.524 . S
C778 C792 1.377 . S
C779 C778 1.524 . S
C779 C780 1.397 . S
C779 C784 1.363 . S
C780 H757 0.950 . S
C780 C779 1.397 . S
C780 C781 1.334 . S
C781 H758 0.950 . S
C781 C780 1.334 . S
C781 C782 1.287 . S
C782 C781 1.287 . S
C782 C783 1.524 . S
C782 H801 0.913 . S
C783 H759 0.950 . S
C783 C782 1.524 . S
C783 C784 1.415 . S
C784 H760 0.950 . S
C784 C779 1.363 . S
C784 C783 1.415 . S
C785 H761 0.951 . S
C785 C786 1.366 1_565 S
C785 C787 1.388 1_565 S
C786 C785 1.366 1_545 S
C786 C790 1.385 . S
C787 H762 0.951 . S
C787 C785 1.388 1_545 S
C787 C788 1.366 . S
C788 C787 1.366 . S
C788 C789 1.414 . S
C788 C791 1.499 . S
C789 H763 0.950 . S
C789 C788 1.414 . S
C789 C790 1.374 . S
C790 H764 0.950 . S
C790 C786 1.385 . S
C790 C789 1.374 . S
C791 C788 1.499 . S
C791 C792 1.373 . S
C791 C793 1.389 . S
C792 H765 0.950 . S
C792 C778 1.377 . S
C792 C791 1.373 . S
C793 C777 1.377 . S
C793 C791 1.389 . S
C793 C794 1.524 . S
C794 C793 1.524 . S
C794 C795 1.397 . S
C794 C799 1.363 . S
C795 H766 0.950 . S
C795 C794 1.397 . S
C795 C796 1.334 . S
C796 H767 0.950 . S
C796 C795 1.334 . S
C796 C797 1.287 . S
C797 C796 1.287 . S
C797 C798 1.524 1_545 S
C797 H800 0.999 1_545 S
C798 H768 0.950 . S
C798 C797 1.524 1_565 S
C798 C799 1.415 1_565 S
C799 H769 0.950 . S
C799 C794 1.363 . S
C799 C798 1.415 1_545 S
H800 C797 0.999 1_565 S
H801 C782 0.913 . S
H802 C820 0.951 . S
H803 C822 0.951 . S
H804 C824 0.950 . S
H805 C825 0.950 . S
H806 C827 0.950 . S
H807 C830 0.950 . S
H808 C831 0.950 . S
H809 C833 0.950 . S
H810 C834 0.950 . S
H811 C835 0.951 . S
H812 C837 0.951 . S
H813 C839 0.950 . S
H814 C840 0.950 . S
H815 C842 0.950 . S
H816 C845 0.950 . S
H817 C846 0.950 . S
H818 C848 0.950 . S
H819 C849 0.950 . S
C820 H802 0.951 . S
C820 C821 1.366 . S
C820 C822 1.388 . S
C821 C820 1.366 . S
C821 C825 1.385 . S
C822 H803 0.951 . S
C822 C820 1.388 . S
C822 C823 1.366 . S
C823 C822 1.366 . S
C823 C824 1.414 . S
C823 C826 1.499 . S
C824 H804 0.950 . S
C824 C823 1.414 . S
C824 C825 1.374 . S
C825 H805 0.950 . S
C825 C821 1.385 . S
C825 C824 1.374 . S
C826 C823 1.499 . S
C826 C827 1.373 . S
C826 C828 1.389 . S
C827 H806 0.950 . S
C827 C826 1.373 . S
C827 C843 1.377 . S
C828 C826 1.389 . S
C828 C829 1.524 . S
C828 C842 1.377 . S
C829 C828 1.524 . S
C829 C830 1.397 . S
C829 C834 1.363 . S
C830 H807 0.950 . S
C830 C829 1.397 . S
C830 C831 1.334 . S
C831 H808 0.950 . S
C831 C830 1.334 . S
C831 C832 1.287 . S
C832 C831 1.287 . S
C832 C833 1.524 . S
C832 H851 0.913 . S
C833 H809 0.950 . S
C833 C832 1.524 . S
C833 C834 1.415 . S
C834 H810 0.950 . S
C834 C829 1.363 . S
C834 C833 1.415 . S
C835 H811 0.951 . S
C835 C836 1.366 . S
C835 C837 1.388 . S
C836 C835 1.366 . S
C836 C840 1.385 . S
C837 H812 0.951 . S
C837 C835 1.388 . S
C837 C838 1.366 . S
C838 C837 1.366 . S
C838 C839 1.414 . S
C838 C841 1.499 . S
C839 H813 0.950 . S
C839 C838 1.414 . S
C839 C840 1.374 . S
C840 H814 0.950 . S
C840 C836 1.385 . S
C840 C839 1.374 . S
C841 C838 1.499 . S
C841 C842 1.373 . S
C841 C843 1.389 . S
C842 H815 0.950 . S
C842 C828 1.377 . S
C842 C841 1.373 . S
C843 C827 1.377 . S
C843 C841 1.389 . S
C843 C844 1.524 . S
C844 C843 1.524 . S
C844 C845 1.397 . S
C844 C849 1.363 . S
C845 H816 0.950 . S
C845 C844 1.397 . S
C845 C846 1.334 . S
C846 H817 0.950 . S
C846 C845 1.334 . S
C846 C847 1.287 . S
C847 C846 1.287 . S
C847 C848 1.524 . S
C847 H850 0.999 . S
C848 H818 0.950 . S
C848 C847 1.524 . S
C848 C849 1.415 . S
C849 H819 0.950 . S
C849 C844 1.363 . S
C849 C848 1.415 . S
H850 C847 0.999 . S
H851 C832 0.913 . S
H852 C870 0.951 1_655 S
H853 C872 0.951 . S
H854 C874 0.950 . S
H855 C875 0.950 . S
H856 C877 0.950 . S
H857 C880 0.950 . S
H858 C881 0.950 . S
H859 C883 0.950 . S
H860 C884 0.950 . S
H861 C885 0.951 . S
H862 C887 0.951 . S
H863 C889 0.950 . S
H864 C890 0.950 . S
H865 C892 0.950 . S
H866 C895 0.950 . S
H867 C896 0.950 . S
H868 C898 0.950 . S
H869 C899 0.950 . S
C870 H852 0.951 1_455 S
C870 C871 1.366 . S
C870 C872 1.388 . S
C871 C870 1.366 . S
C871 C875 1.385 . S
C872 H853 0.951 . S
C872 C870 1.388 . S
C872 C873 1.366 . S
C873 C872 1.366 . S
C873 C874 1.414 . S
C873 C876 1.499 . S
C874 H854 0.950 . S
C874 C873 1.414 . S
C874 C875 1.374 . S
C875 H855 0.950 . S
C875 C871 1.385 . S
C875 C874 1.374 . S
C876 C873 1.499 . S
C876 C877 1.373 . S
C876 C878 1.389 . S
C877 H856 0.950 . S
C877 C876 1.373 . S
C877 C893 1.377 . S
C878 C876 1.389 . S
C878 C879 1.524 . S
C878 C892 1.377 . S
C879 C878 1.524 . S
C879 C880 1.397 . S
C879 C884 1.363 . S
C880 H857 0.950 . S
C880 C879 1.397 . S
C880 C881 1.334 . S
C881 H858 0.950 . S
C881 C880 1.334 . S
C881 C882 1.287 . S
C882 C881 1.287 . S
C882 C883 1.524 . S
C882 H901 0.913 . S
C883 H859 0.950 . S
C883 C882 1.524 . S
C883 C884 1.415 . S
C884 H860 0.950 . S
C884 C879 1.363 . S
C884 C883 1.415 . S
C885 H861 0.951 . S
C885 C886 1.366 . S
C885 C887 1.388 . S
C886 C885 1.366 . S
C886 C890 1.385 . S
C887 H862 0.951 . S
C887 C885 1.388 . S
C887 C888 1.366 . S
C888 C887 1.366 . S
C888 C889 1.414 . S
C888 C891 1.499 . S
C889 H863 0.950 . S
C889 C888 1.414 . S
C889 C890 1.374 . S
C890 H864 0.950 . S
C890 C886 1.385 . S
C890 C889 1.374 . S
C891 C888 1.499 . S
C891 C892 1.373 . S
C891 C893 1.389 . S
C892 H865 0.950 . S
C892 C878 1.377 . S
C892 C891 1.373 . S
C893 C877 1.377 . S
C893 C891 1.389 . S
C893 C894 1.524 . S
C894 C893 1.524 . S
C894 C895 1.397 . S
C894 C899 1.363 . S
C895 H866 0.950 . S
C895 C894 1.397 . S
C895 C896 1.334 . S
C896 H867 0.950 . S
C896 C895 1.334 . S
C896 C897 1.287 . S
C897 C896 1.287 . S
C897 C898 1.524 . S
C897 H900 0.999 . S
C898 H868 0.950 . S
C898 C897 1.524 . S
C898 C899 1.415 . S
C899 H869 0.950 . S
C899 C894 1.363 . S
C899 C898 1.415 . S
H900 C897 0.999 . S
H901 C882 0.913 . S
H902 C920 0.951 . S
H903 C922 0.951 . S
H904 C924 0.950 . S
H905 C925 0.950 1_565 S
H906 C927 0.950 . S
H907 C930 0.950 . S
H908 C931 0.950 . S
H909 C933 0.950 . S
H910 C934 0.950 . S
H911 C935 0.951 1_655 S
H912 C937 0.951 . S
H913 C939 0.950 . S
H914 C940 0.950 . S
H915 C942 0.950 . S
H916 C945 0.950 . S
H917 C946 0.950 . S
H918 C948 0.950 . S
H919 C949 0.950 . S
C920 H902 0.951 . S
C920 C921 1.366 . S
C920 C922 1.388 . S
C921 C920 1.366 . S
C921 C925 1.385 . S
C922 H903 0.951 . S
C922 C920 1.388 . S
C922 C923 1.366 . S
C923 C922 1.366 . S
C923 C924 1.414 . S
C923 C926 1.499 . S
C924 H904 0.950 . S
C924 C923 1.414 . S
C924 C925 1.374 . S
C925 H905 0.950 1_545 S
C925 C921 1.385 . S
C925 C924 1.374 . S
C926 C923 1.499 . S
C926 C927 1.373 . S
C926 C928 1.389 . S
C927 H906 0.950 . S
C927 C926 1.373 . S
C927 C943 1.377 . S
C928 C926 1.389 . S
C928 C929 1.524 . S
C928 C942 1.377 . S
C929 C928 1.524 . S
C929 C930 1.397 . S
C929 C934 1.363 . S
C930 H907 0.950 . S
C930 C929 1.397 . S
C930 C931 1.334 . S
C931 H908 0.950 . S
C931 C930 1.334 . S
C931 C932 1.287 . S
C932 C931 1.287 . S
C932 C933 1.524 . S
C932 H951 0.913 . S
C933 H909 0.950 . S
C933 C932 1.524 . S
C933 C934 1.415 . S
C934 H910 0.950 . S
C934 C929 1.363 . S
C934 C933 1.415 . S
C935 H911 0.951 1_455 S
C935 C936 1.366 . S
C935 C937 1.388 . S
C936 C935 1.366 . S
C936 C940 1.385 . S
C937 H912 0.951 . S
C937 C935 1.388 . S
C937 C938 1.366 . S
C938 C937 1.366 . S
C938 C939 1.414 . S
C938 C941 1.499 . S
C939 H913 0.950 . S
C939 C938 1.414 . S
C939 C940 1.374 . S
C940 H914 0.950 . S
C940 C936 1.385 . S
C940 C939 1.374 . S
C941 C938 1.499 . S
C941 C942 1.373 . S
C941 C943 1.389 . S
C942 H915 0.950 . S
C942 C928 1.377 . S
C942 C941 1.373 . S
C943 C927 1.377 . S
C943 C941 1.389 . S
C943 C944 1.524 . S
C944 C943 1.524 . S
C944 C945 1.397 . S
C944 C949 1.363 . S
C945 H916 0.950 . S
C945 C944 1.397 . S
C945 C946 1.334 . S
C946 H917 0.950 . S
C946 C945 1.334 . S
C946 C947 1.287 . S
C947 C946 1.287 . S
C947 C948 1.524 . S
C947 H950 0.999 . S
C948 H918 0.950 . S
C948 C947 1.524 . S
C948 C949 1.415 . S
C949 H919 0.950 . S
C949 C944 1.363 . S
C949 C948 1.415 . S
H950 C947 0.999 . S
H951 C932 0.913 . S
H952 C970 0.951 . S
H953 C972 0.951 . S
H954 C974 0.950 . S
H955 C975 0.950 . S
H956 C977 0.950 . S
H957 C980 0.950 . S
H958 C981 0.950 1_455 S
H959 C983 0.950 . S
H960 C984 0.950 . S
H961 C985 0.951 . S
H962 C987 0.951 . S
H963 C989 0.950 . S
H964 C990 0.950 1_545 S
H965 C992 0.950 . S
H966 C995 0.950 . S
H967 C996 0.950 . S
H968 C998 0.950 . S
H969 C999 0.950 . S
C970 H952 0.951 . S
C970 C971 1.366 . S
C970 C972 1.388 . S
C971 C970 1.366 . S
C971 C975 1.385 . S
C972 H953 0.951 . S
C972 C970 1.388 . S
C972 C973 1.366 . S
C973 C972 1.366 . S
C973 C974 1.414 . S
C973 C976 1.499 . S
C974 H954 0.950 . S
C974 C973 1.414 . S
C974 C975 1.374 . S
C975 H955 0.950 . S
C975 C971 1.385 . S
C975 C974 1.374 . S
C976 C973 1.499 . S
C976 C977 1.373 . S
C976 C978 1.389 . S
C977 H956 0.950 . S
C977 C976 1.373 . S
C977 C993 1.377 . S
C978 C976 1.389 . S
C978 C979 1.524 . S
C978 C992 1.377 . S
C979 C978 1.524 . S
C979 C980 1.397 . S
C979 C984 1.363 . S
C980 H957 0.950 . S
C980 C979 1.397 . S
C980 C981 1.334 . S
C981 H958 0.950 1_655 S
C981 C980 1.334 . S
C981 C982 1.287 . S
C982 C981 1.287 . S
C982 C983 1.524 . S
C982 H1001 0.913 1_655 S
C983 H959 0.950 . S
C983 C982 1.524 . S
C983 C984 1.415 . S
C984 H960 0.950 . S
C984 C979 1.363 . S
C984 C983 1.415 . S
C985 H961 0.951 . S
C985 C986 1.366 . S
C985 C987 1.388 . S
C986 C985 1.366 . S
C986 C990 1.385 . S
C987 H962 0.951 . S
C987 C985 1.388 . S
C987 C988 1.366 . S
C988 C987 1.366 . S
C988 C989 1.414 . S
C988 C991 1.499 . S
C989 H963 0.950 . S
C989 C988 1.414 . S
C989 C990 1.374 . S
C990 H964 0.950 1_565 S
C990 C986 1.385 . S
C990 C989 1.374 . S
C991 C988 1.499 . S
C991 C992 1.373 . S
C991 C993 1.389 . S
C992 H965 0.950 . S
C992 C978 1.377 . S
C992 C991 1.373 . S
C993 C977 1.377 . S
C993 C991 1.389 . S
C993 C994 1.524 . S
C994 C993 1.524 . S
C994 C995 1.397 . S
C994 C999 1.363 . S
C995 H966 0.950 . S
C995 C994 1.397 . S
C995 C996 1.334 . S
C996 H967 0.950 . S
C996 C995 1.334 . S
C996 C997 1.287 . S
C997 C996 1.287 . S
C997 C998 1.524 . S
C997 H1000 0.999 . S
C998 H968 0.950 . S
C998 C997 1.524 . S
C998 C999 1.415 . S
C999 H969 0.950 . S
C999 C994 1.363 . S
C999 C998 1.415 . S
H1000 C997 0.999 . S
H1001 C982 0.913 1_455 S
H1002 C1020 0.951 . S
H1003 C1022 0.951 . S
H1004 C1024 0.950 . S
H1005 C1025 0.950 . S
H1006 C1027 0.950 . S
H1007 C1030 0.950 . S
H1008 C1031 0.950 . S
H1009 C1033 0.950 . S
H1010 C1034 0.950 . S
H1011 C1035 0.951 1_545 S
H1012 C1037 0.951 . S
H1013 C1039 0.950 . S
H1014 C1040 0.950 . S
H1015 C1042 0.950 . S
H1016 C1045 0.950 . S
H1017 C1046 0.950 . S
H1018 C1048 0.950 . S
H1019 C1049 0.950 . S
C1020 H1002 0.951 . S
C1020 C1021 1.366 . S
C1020 C1022 1.388 . S
C1021 C1020 1.366 . S
C1021 C1025 1.385 . S
C1022 H1003 0.951 . S
C1022 C1020 1.388 . S
C1022 C1023 1.366 . S
C1023 C1022 1.366 . S
C1023 C1024 1.414 . S
C1023 C1026 1.499 . S
C1024 H1004 0.950 . S
C1024 C1023 1.414 . S
C1024 C1025 1.374 . S
C1025 H1005 0.950 . S
C1025 C1021 1.385 . S
C1025 C1024 1.374 . S
C1026 C1023 1.499 . S
C1026 C1027 1.373 . S
C1026 C1028 1.389 . S
C1027 H1006 0.950 . S
C1027 C1026 1.373 . S
C1027 C1043 1.377 . S
C1028 C1026 1.389 . S
C1028 C1029 1.524 . S
C1028 C1042 1.377 . S
C1029 C1028 1.524 . S
C1029 C1030 1.397 . S
C1029 C1034 1.363 . S
C1030 H1007 0.950 . S
C1030 C1029 1.397 . S
C1030 C1031 1.334 . S
C1031 H1008 0.950 . S
C1031 C1030 1.334 . S
C1031 C1032 1.287 . S
C1032 C1031 1.287 . S
C1032 C1033 1.524 . S
C1032 H1051 0.913 . S
C1033 H1009 0.950 . S
C1033 C1032 1.524 . S
C1033 C1034 1.415 . S
C1034 H1010 0.950 . S
C1034 C1029 1.363 . S
C1034 C1033 1.415 . S
C1035 H1011 0.951 1_565 S
C1035 C1036 1.366 . S
C1035 C1037 1.388 . S
C1036 C1035 1.366 . S
C1036 C1040 1.385 . S
C1037 H1012 0.951 . S
C1037 C1035 1.388 . S
C1037 C1038 1.366 . S
C1038 C1037 1.366 . S
C1038 C1039 1.414 . S
C1038 C1041 1.499 . S
C1039 H1013 0.950 . S
C1039 C1038 1.414 . S
C1039 C1040 1.374 . S
C1040 H1014 0.950 . S
C1040 C1036 1.385 . S
C1040 C1039 1.374 . S
C1041 C1038 1.499 . S
C1041 C1042 1.373 . S
C1041 C1043 1.389 . S
C1042 H1015 0.950 . S
C1042 C1028 1.377 . S
C1042 C1041 1.373 . S
C1043 C1027 1.377 . S
C1043 C1041 1.389 . S
C1043 C1044 1.524 . S
C1044 C1043 1.524 . S
C1044 C1045 1.397 . S
C1044 C1049 1.363 . S
C1045 H1016 0.950 . S
C1045 C1044 1.397 . S
C1045 C1046 1.334 . S
C1046 H1017 0.950 . S
C1046 C1045 1.334 . S
C1046 C1047 1.287 . S
C1047 C1046 1.287 . S
C1047 C1048 1.524 . S
C1047 H1050 0.999 . S
C1048 H1018 0.950 . S
C1048 C1047 1.524 . S
C1048 C1049 1.415 . S
C1049 H1019 0.950 . S
C1049 C1044 1.363 . S
C1049 C1048 1.415 . S
H1050 C1047 0.999 . S
H1051 C1032 0.913 . S
H1052 C1070 0.951 . S
H1053 C1072 0.951 . S
H1054 C1074 0.950 . S
H1055 C1075 0.950 . S
H1056 C1077 0.950 . S
H1057 C1080 0.950 . S
H1058 C1081 0.950 . S
H1059 C1083 0.950 . S
H1060 C1084 0.950 . S
H1061 C1085 0.951 . S
H1062 C1087 0.951 . S
H1063 C1089 0.950 . S
H1064 C1090 0.950 . S
H1065 C1092 0.950 . S
H1066 C1095 0.950 . S
H1067 C1096 0.950 . S
H1068 C1098 0.950 . S
H1069 C1099 0.950 . S
C1070 H1052 0.951 . S
C1070 C1071 1.366 . S
C1070 C1072 1.388 . S
C1071 C1070 1.366 . S
C1071 C1075 1.385 . S
C1072 H1053 0.951 . S
C1072 C1070 1.388 . S
C1072 C1073 1.366 . S
C1073 C1072 1.366 . S
C1073 C1074 1.414 . S
C1073 C1076 1.499 . S
C1074 H1054 0.950 . S
C1074 C1073 1.414 . S
C1074 C1075 1.374 . S
C1075 H1055 0.950 . S
C1075 C1071 1.385 . S
C1075 C1074 1.374 . S
C1076 C1073 1.499 . S
C1076 C1077 1.373 . S
C1076 C1078 1.389 . S
C1077 H1056 0.950 . S
C1077 C1076 1.373 . S
C1077 C1093 1.377 . S
C1078 C1076 1.389 . S
C1078 C1079 1.524 . S
C1078 C1092 1.377 . S
C1079 C1078 1.524 . S
C1079 C1080 1.397 . S
C1079 C1084 1.363 . S
C1080 H1057 0.950 . S
C1080 C1079 1.397 . S
C1080 C1081 1.334 . S
C1081 H1058 0.950 . S
C1081 C1080 1.334 . S
C1081 C1082 1.287 . S
C1082 C1081 1.287 . S
C1082 C1083 1.524 . S
C1082 H1101 0.913 . S
C1083 H1059 0.950 . S
C1083 C1082 1.524 . S
C1083 C1084 1.415 . S
C1084 H1060 0.950 . S
C1084 C1079 1.363 . S
C1084 C1083 1.415 . S
C1085 H1061 0.951 . S
C1085 C1086 1.366 . S
C1085 C1087 1.388 . S
C1086 C1085 1.366 . S
C1086 C1090 1.385 . S
C1087 H1062 0.951 . S
C1087 C1085 1.388 . S
C1087 C1088 1.366 . S
C1088 C1087 1.366 . S
C1088 C1089 1.414 . S
C1088 C1091 1.499 . S
C1089 H1063 0.950 . S
C1089 C1088 1.414 . S
C1089 C1090 1.374 . S
C1090 H1064 0.950 . S
C1090 C1086 1.385 . S
C1090 C1089 1.374 . S
C1091 C1088 1.499 . S
C1091 C1092 1.373 . S
C1091 C1093 1.389 . S
C1092 H1065 0.950 . S
C1092 C1078 1.377 . S
C1092 C1091 1.373 . S
C1093 C1077 1.377 . S
C1093 C1091 1.389 . S
C1093 C1094 1.524 . S
C1094 C1093 1.524 . S
C1094 C1095 1.397 . S
C1094 C1099 1.363 . S
C1095 H1066 0.950 . S
C1095 C1094 1.397 . S
C1095 C1096 1.334 . S
C1096 H1067 0.950 . S
C1096 C1095 1.334 . S
C1096 C1097 1.287 . S
C1097 C1096 1.287 . S
C1097 C1098 1.524 . S
C1097 H1100 0.999 . S
C1098 H1068 0.950 . S
C1098 C1097 1.524 . S
C1098 C1099 1.415 . S
C1099 H1069 0.950 . S
C1099 C1094 1.363 . S
C1099 C1098 1.415 . S
H1100 C1097 0.999 . S
H1101 C1082 0.913 . S
H1102 C1120 0.951 . S
H1103 C1122 0.951 . S
H1104 C1124 0.950 . S
H1105 C1125 0.950 . S
H1106 C1127 0.950 . S
H1107 C1130 0.950 . S
H1108 C1131 0.950 . S
H1109 C1133 0.950 . S
H1110 C1134 0.950 . S
H1111 C1135 0.951 . S
H1112 C1137 0.951 . S
H1113 C1139 0.950 . S
H1114 C1140 0.950 . S
H1115 C1142 0.950 . S
H1116 C1145 0.950 . S
H1117 C1146 0.950 . S
H1118 C1148 0.950 . S
H1119 C1149 0.950 . S
C1120 H1102 0.951 . S
C1120 C1121 1.366 . S
C1120 C1122 1.388 . S
C1121 C1120 1.366 . S
C1121 C1125 1.385 . S
C1122 H1103 0.951 . S
C1122 C1120 1.388 . S
C1122 C1123 1.366 . S
C1123 C1122 1.366 . S
C1123 C1124 1.414 . S
C1123 C1126 1.499 . S
C1124 H1104 0.950 . S
C1124 C1123 1.414 . S
C1124 C1125 1.374 . S
C1125 H1105 0.950 . S
C1125 C1121 1.385 . S
C1125 C1124 1.374 . S
C1126 C1123 1.499 . S
C1126 C1127 1.373 . S
C1126 C1128 1.389 . S
C1127 H1106 0.950 . S
C1127 C1126 1.373 . S
C1127 C1143 1.377 . S
C1128 C1126 1.389 . S
C1128 C1129 1.524 . S
C1128 C1142 1.377 . S
C1129 C1128 1.524 . S
C1129 C1130 1.397 . S
C1129 C1134 1.363 . S
C1130 H1107 0.950 . S
C1130 C1129 1.397 . S
C1130 C1131 1.334 . S
C1131 H1108 0.950 . S
C1131 C1130 1.334 . S
C1131 C1132 1.287 . S
C1132 C1131 1.287 . S
C1132 C1133 1.524 . S
C1132 H1151 0.913 . S
C1133 H1109 0.950 . S
C1133 C1132 1.524 . S
C1133 C1134 1.415 . S
C1134 H1110 0.950 . S
C1134 C1129 1.363 . S
C1134 C1133 1.415 . S
C1135 H1111 0.951 . S
C1135 C1136 1.366 . S
C1135 C1137 1.388 . S
C1136 C1135 1.366 . S
C1136 C1140 1.385 . S
C1137 H1112 0.951 . S
C1137 C1135 1.388 . S
C1137 C1138 1.366 . S
C1138 C1137 1.366 . S
C1138 C1139 1.414 . S
C1138 C1141 1.499 . S
C1139 H1113 0.950 . S
C1139 C1138 1.414 . S
C1139 C1140 1.374 . S
C1140 H1114 0.950 . S
C1140 C1136 1.385 . S
C1140 C1139 1.374 . S
C1141 C1138 1.499 . S
C1141 C1142 1.373 . S
C1141 C1143 1.389 . S
C1142 H1115 0.950 . S
C1142 C1128 1.377 . S
C1142 C1141 1.373 . S
C1143 C1127 1.377 . S
C1143 C1141 1.389 . S
C1143 C1144 1.524 . S
C1144 C1143 1.524 . S
C1144 C1145 1.397 . S
C1144 C1149 1.363 . S
C1145 H1116 0.950 . S
C1145 C1144 1.397 . S
C1145 C1146 1.334 . S
C1146 H1117 0.950 . S
C1146 C1145 1.334 . S
C1146 C1147 1.287 . S
C1147 C1146 1.287 . S
C1147 C1148 1.524 . S
C1147 H1150 0.999 . S
C1148 H1118 0.950 . S
C1148 C1147 1.524 . S
C1148 C1149 1.415 . S
C1149 H1119 0.950 . S
C1149 C1144 1.363 . S
C1149 C1148 1.415 . S
H1150 C1147 0.999 . S
H1151 C1132 0.913 . S
H1152 C1170 0.951 . S
H1153 C1172 0.951 . S
H1154 C1174 0.950 . S
H1155 C1175 0.950 . S
H1156 C1177 0.950 . S
H1157 C1180 0.950 . S
H1158 C1181 0.950 . S
H1159 C1183 0.950 . S
H1160 C1184 0.950 . S
H1161 C1185 0.951 . S
H1162 C1187 0.951 . S
H1163 C1189 0.950 . S
H1164 C1190 0.950 . S
H1165 C1192 0.950 . S
H1166 C1195 0.950 . S
H1167 C1196 0.950 . S
H1168 C1198 0.950 . S
H1169 C1199 0.950 . S
C1170 H1152 0.951 . S
C1170 C1171 1.366 . S
C1170 C1172 1.388 . S
C1171 C1170 1.366 . S
C1171 C1175 1.385 1_565 S
C1172 H1153 0.951 . S
C1172 C1170 1.388 . S
C1172 C1173 1.366 . S
C1173 C1172 1.366 . S
C1173 C1174 1.414 . S
C1173 C1176 1.499 . S
C1174 H1154 0.950 . S
C1174 C1173 1.414 . S
C1174 C1175 1.374 1_565 S
C1175 H1155 0.950 . S
C1175 C1171 1.385 1_545 S
C1175 C1174 1.374 1_545 S
C1176 C1173 1.499 . S
C1176 C1177 1.373 . S
C1176 C1178 1.389 . S
C1177 H1156 0.950 . S
C1177 C1176 1.373 . S
C1177 C1193 1.377 . S
C1178 C1176 1.389 . S
C1178 C1179 1.524 . S
C1178 C1192 1.377 . S
C1179 C1178 1.524 . S
C1179 C1180 1.397 . S
C1179 C1184 1.363 . S
C1180 H1157 0.950 . S
C1180 C1179 1.397 . S
C1180 C1181 1.334 . S
C1181 H1158 0.950 . S
C1181 C1180 1.334 . S
C1181 C1182 1.287 . S
C1182 C1181 1.287 . S
C1182 C1183 1.524 . S
C1182 H1201 0.913 . S
C1183 H1159 0.950 . S
C1183 C1182 1.524 . S
C1183 C1184 1.415 . S
C1184 H1160 0.950 . S
C1184 C1179 1.363 . S
C1184 C1183 1.415 . S
C1185 H1161 0.951 . S
C1185 C1186 1.366 . S
C1185 C1187 1.388 . S
C1186 C1185 1.366 . S
C1186 C1190 1.385 . S
C1187 H1162 0.951 . S
C1187 C1185 1.388 . S
C1187 C1188 1.366 . S
C1188 C1187 1.366 . S
C1188 C1189 1.414 . S
C1188 C1191 1.499 . S
C1189 H1163 0.950 . S
C1189 C1188 1.414 . S
C1189 C1190 1.374 . S
C1190 H1164 0.950 . S
C1190 C1186 1.385 . S
C1190 C1189 1.374 . S
C1191 C1188 1.499 . S
C1191 C1192 1.373 . S
C1191 C1193 1.389 . S
C1192 H1165 0.950 . S
C1192 C1178 1.377 . S
C1192 C1191 1.373 . S
C1193 C1177 1.377 . S
C1193 C1191 1.389 . S
C1193 C1194 1.524 . S
C1194 C1193 1.524 . S
C1194 C1195 1.397 . S
C1194 C1199 1.363 . S
C1195 H1166 0.950 . S
C1195 C1194 1.397 . S
C1195 C1196 1.334 . S
C1196 H1167 0.950 . S
C1196 C1195 1.334 . S
C1196 C1197 1.287 . S
C1197 C1196 1.287 . S
C1197 C1198 1.524 . S
C1197 H1200 0.999 . S
C1198 H1168 0.950 . S
C1198 C1197 1.524 . S
C1198 C1199 1.415 . S
C1199 H1169 0.950 . S
C1199 C1194 1.363 . S
C1199 C1198 1.415 . S
H1200 C1197 0.999 . S
H1201 C1182 0.913 . S
H1202 C1220 0.951 . S
H1203 C1222 0.951 . S
H1204 C1224 0.950 . S
H1205 C1225 0.950 . S
H1206 C1227 0.950 . S
H1207 C1230 0.950 . S
H1208 C1231 0.950 . S
H1209 C1233 0.950 . S
H1210 C1234 0.950 . S
H1211 C1235 0.951 . S
H1212 C1237 0.951 . S
H1213 C1239 0.950 . S
H1214 C1240 0.950 . S
H1215 C1242 0.950 . S
H1216 C1245 0.950 . S
H1217 C1246 0.950 . S
H1218 C1248 0.950 . S
H1219 C1249 0.950 . S
C1220 H1202 0.951 . S
C1220 C1221 1.366 . S
C1220 C1222 1.388 . S
C1221 C1220 1.366 . S
C1221 C1225 1.385 . S
C1222 H1203 0.951 . S
C1222 C1220 1.388 . S
C1222 C1223 1.366 . S
C1223 C1222 1.366 . S
C1223 C1224 1.414 . S
C1223 C1226 1.499 . S
C1224 H1204 0.950 . S
C1224 C1223 1.414 . S
C1224 C1225 1.374 . S
C1225 H1205 0.950 . S
C1225 C1221 1.385 . S
C1225 C1224 1.374 . S
C1226 C1223 1.499 . S
C1226 C1227 1.373 . S
C1226 C1228 1.389 . S
C1227 H1206 0.950 . S
C1227 C1226 1.373 . S
C1227 C1243 1.377 . S
C1228 C1226 1.389 . S
C1228 C1229 1.524 . S
C1228 C1242 1.377 . S
C1229 C1228 1.524 . S
C1229 C1230 1.397 . S
C1229 C1234 1.363 . S
C1230 H1207 0.950 . S
C1230 C1229 1.397 . S
C1230 C1231 1.334 . S
C1231 H1208 0.950 . S
C1231 C1230 1.334 . S
C1231 C1232 1.287 . S
C1232 C1231 1.287 . S
C1232 C1233 1.524 . S
C1232 H1251 0.913 . S
C1233 H1209 0.950 . S
C1233 C1232 1.524 . S
C1233 C1234 1.415 . S
C1234 H1210 0.950 . S
C1234 C1229 1.363 . S
C1234 C1233 1.415 . S
C1235 H1211 0.951 . S
C1235 C1236 1.366 . S
C1235 C1237 1.388 . S
C1236 C1235 1.366 . S
C1236 C1240 1.385 . S
C1237 H1212 0.951 . S
C1237 C1235 1.388 . S
C1237 C1238 1.366 . S
C1238 C1237 1.366 . S
C1238 C1239 1.414 . S
C1238 C1241 1.499 . S
C1239 H1213 0.950 . S
C1239 C1238 1.414 . S
C1239 C1240 1.374 . S
C1240 H1214 0.950 . S
C1240 C1236 1.385 . S
C1240 C1239 1.374 . S
C1241 C1238 1.499 . S
C1241 C1242 1.373 . S
C1241 C1243 1.389 . S
C1242 H1215 0.950 . S
C1242 C1228 1.377 . S
C1242 C1241 1.373 . S
C1243 C1227 1.377 . S
C1243 C1241 1.389 . S
C1243 C1244 1.524 . S
C1244 C1243 1.524 . S
C1244 C1245 1.397 . S
C1244 C1249 1.363 . S
C1245 H1216 0.950 . S
C1245 C1244 1.397 . S
C1245 C1246 1.334 . S
C1246 H1217 0.950 . S
C1246 C1245 1.334 . S
C1246 C1247 1.287 . S
C1247 C1246 1.287 . S
C1247 C1248 1.524 . S
C1247 H1250 0.999 . S
C1248 H1218 0.950 . S
C1248 C1247 1.524 . S
C1248 C1249 1.415 . S
C1249 H1219 0.950 . S
C1249 C1244 1.363 . S
C1249 C1248 1.415 . S
H1250 C1247 0.999 . S
H1251 C1232 0.913 . S
H1252 C1270 0.951 . S
H1253 C1272 0.951 . S
H1254 C1274 0.950 . S
H1255 C1275 0.950 1_455 S
H1256 C1277 0.950 . S
H1257 C1280 0.950 . S
H1258 C1281 0.950 . S
H1259 C1283 0.950 . S
H1260 C1284 0.950 . S
H1261 C1285 0.951 . S
H1262 C1287 0.951 . S
H1263 C1289 0.950 . S
H1264 C1290 0.950 . S
H1265 C1292 0.950 . S
H1266 C1295 0.950 . S
H1267 C1296 0.950 . S
H1268 C1298 0.950 . S
H1269 C1299 0.950 . S
C1270 H1252 0.951 . S
C1270 C1271 1.366 . S
C1270 C1272 1.388 . S
C1271 C1270 1.366 . S
C1271 C1275 1.385 . S
C1272 H1253 0.951 . S
C1272 C1270 1.388 . S
C1272 C1273 1.366 . S
C1273 C1272 1.366 . S
C1273 C1274 1.414 . S
C1273 C1276 1.499 . S
C1274 H1254 0.950 . S
C1274 C1273 1.414 . S
C1274 C1275 1.374 . S
C1275 H1255 0.950 1_655 S
C1275 C1271 1.385 . S
C1275 C1274 1.374 . S
C1276 C1273 1.499 . S
C1276 C1277 1.373 . S
C1276 C1278 1.389 . S
C1277 H1256 0.950 . S
C1277 C1276 1.373 . S
C1277 C1293 1.377 . S
C1278 C1276 1.389 . S
C1278 C1279 1.524 . S
C1278 C1292 1.377 . S
C1279 C1278 1.524 . S
C1279 C1280 1.397 . S
C1279 C1284 1.363 . S
C1280 H1257 0.950 . S
C1280 C1279 1.397 . S
C1280 C1281 1.334 . S
C1281 H1258 0.950 . S
C1281 C1280 1.334 . S
C1281 C1282 1.287 . S
C1282 C1281 1.287 . S
C1282 C1283 1.524 . S
C1282 H1301 0.913 . S
C1283 H1259 0.950 . S
C1283 C1282 1.524 . S
C1283 C1284 1.415 . S
C1284 H1260 0.950 . S
C1284 C1279 1.363 . S
C1284 C1283 1.415 . S
C1285 H1261 0.951 . S
C1285 C1286 1.366 . S
C1285 C1287 1.388 . S
C1286 C1285 1.366 . S
C1286 C1290 1.385 . S
C1287 H1262 0.951 . S
C1287 C1285 1.388 . S
C1287 C1288 1.366 . S
C1288 C1287 1.366 . S
C1288 C1289 1.414 . S
C1288 C1291 1.499 . S
C1289 H1263 0.950 . S
C1289 C1288 1.414 . S
C1289 C1290 1.374 . S
C1290 H1264 0.950 . S
C1290 C1286 1.385 . S
C1290 C1289 1.374 . S
C1291 C1288 1.499 . S
C1291 C1292 1.373 . S
C1291 C1293 1.389 . S
C1292 H1265 0.950 . S
C1292 C1278 1.377 . S
C1292 C1291 1.373 . S
C1293 C1277 1.377 . S
C1293 C1291 1.389 . S
C1293 C1294 1.524 . S
C1294 C1293 1.524 . S
C1294 C1295 1.397 . S
C1294 C1299 1.363 . S
C1295 H1266 0.950 . S
C1295 C1294 1.397 . S
C1295 C1296 1.334 . S
C1296 H1267 0.950 . S
C1296 C1295 1.334 . S
C1296 C1297 1.287 . S
C1297 C1296 1.287 . S
C1297 C1298 1.524 . S
C1297 H1300 0.999 . S
C1298 H1268 0.950 . S
C1298 C1297 1.524 . S
C1298 C1299 1.415 . S
C1299 H1269 0.950 . S
C1299 C1294 1.363 . S
C1299 C1298 1.415 . S
H1300 C1297 0.999 . S
H1301 C1282 0.913 . S
H1302 C1320 0.951 1_545 S
H1303 C1322 0.951 . S
H1304 C1324 0.950 . S
H1305 C1325 0.950 . S
H1306 C1327 0.950 . S
H1307 C1330 0.950 . S
H1308 C1331 0.950 . S
H1309 C1333 0.979 . S
H1310 C1334 0.950 . S
H1311 C1335 0.951 . S
H1312 C1337 0.951 . S
H1313 C1339 0.950 . S
H1314 C1340 0.950 . S
H1315 C1342 0.950 . S
H1316 C1345 0.950 . S
H1317 C1346 0.950 . S
H1318 C1348 0.950 . S
H1319 C1349 0.950 . S
C1320 H1302 0.951 1_565 S
C1320 C1321 1.366 . S
C1320 C1322 1.388 . S
C1321 C1320 1.366 . S
C1321 C1325 1.385 . S
C1322 H1303 0.951 . S
C1322 C1320 1.388 . S
C1322 C1323 1.366 . S
C1323 C1322 1.366 . S
C1323 C1324 1.414 . S
C1323 C1326 1.499 . S
C1324 H1304 0.950 . S
C1324 C1323 1.414 . S
C1324 C1325 1.374 . S
C1325 H1305 0.950 . S
C1325 C1321 1.385 . S
C1325 C1324 1.374 . S
C1326 C1323 1.499 . S
C1326 C1327 1.373 . S
C1326 C1328 1.389 . S
C1327 H1306 0.950 . S
C1327 C1326 1.373 . S
C1327 C1343 1.377 . S
C1328 C1326 1.389 . S
C1328 C1329 1.524 . S
C1328 C1342 1.377 . S
C1329 C1328 1.524 . S
C1329 C1330 1.397 . S
C1329 C1334 1.363 . S
C1330 H1307 0.950 . S
C1330 C1329 1.397 . S
C1330 C1331 1.334 . S
C1331 H1308 0.950 . S
C1331 C1330 1.334 . S
C1331 C1332 1.287 . S
C1332 C1331 1.287 . S
C1332 C1333 1.524 . S
C1332 H1351 0.913 . S
C1333 H1309 0.979 . S
C1333 C1332 1.524 . S
C1333 C1334 1.415 . S
C1334 H1310 0.950 . S
C1334 C1329 1.363 . S
C1334 C1333 1.415 . S
C1335 H1311 0.951 . S
C1335 C1336 1.366 . S
C1335 C1337 1.388 . S
C1336 C1335 1.366 . S
C1336 C1340 1.385 1_655 S
C1337 H1312 0.951 . S
C1337 C1335 1.388 . S
C1337 C1338 1.366 . S
C1338 C1337 1.366 . S
C1338 C1339 1.414 . S
C1338 C1341 1.499 . S
C1339 H1313 0.950 . S
C1339 C1338 1.414 . S
C1339 C1340 1.374 1_655 S
C1340 H1314 0.950 . S
C1340 C1336 1.385 1_455 S
C1340 C1339 1.374 1_455 S
C1341 C1338 1.499 . S
C1341 C1342 1.373 . S
C1341 C1343 1.389 . S
C1342 H1315 0.950 . S
C1342 C1328 1.377 . S
C1342 C1341 1.373 . S
C1343 C1327 1.377 . S
C1343 C1341 1.389 . S
C1343 C1344 1.524 . S
C1344 C1343 1.524 . S
C1344 C1345 1.397 . S
C1344 C1349 1.363 . S
C1345 H1316 0.950 . S
C1345 C1344 1.397 . S
C1345 C1346 1.334 . S
C1346 H1317 0.950 . S
C1346 C1345 1.334 . S
C1346 C1347 1.287 . S
C1347 C1346 1.287 . S
C1347 C1348 1.524 . S
C1347 H1350 0.999 . S
C1348 H1318 0.950 . S
C1348 C1347 1.524 . S
C1348 C1349 1.415 . S
C1349 H1319 0.950 . S
C1349 C1344 1.363 . S
C1349 C1348 1.415 . S
H1350 C1347 0.999 . S
H1351 C1332 0.913 . S
H1352 C1370 0.951 1_655 S
H1353 C1372 0.951 . S
H1354 C1374 0.950 . S
H1355 C1375 0.950 . S
H1356 C1377 0.950 . S
H1357 C1380 0.950 . S
H1358 C1381 0.950 . S
H1359 C1383 0.950 . S
H1360 C1384 0.950 . S
H1361 C1385 0.951 . S
H1362 C1387 0.951 . S
H1363 C1389 0.950 . S
H1364 C1390 0.950 . S
H1365 C1392 0.950 . S
H1366 C1395 0.950 . S
H1367 C1396 0.950 . S
H1368 C1398 0.950 . S
H1369 C1399 0.950 . S
C1370 H1352 0.951 1_455 S
C1370 C1371 1.366 . S
C1370 C1372 1.388 . S
C1371 C1370 1.366 . S
C1371 C1375 1.385 . S
C1372 H1353 0.951 . S
C1372 C1370 1.388 . S
C1372 C1373 1.366 . S
C1373 C1372 1.366 . S
C1373 C1374 1.414 . S
C1373 C1376 1.499 . S
C1374 H1354 0.950 . S
C1374 C1373 1.414 . S
C1374 C1375 1.374 . S
C1375 H1355 0.950 . S
C1375 C1371 1.385 . S
C1375 C1374 1.374 . S
C1376 C1373 1.499 . S
C1376 C1377 1.373 . S
C1376 C1378 1.389 . S
C1377 H1356 0.950 . S
C1377 C1376 1.373 . S
C1377 C1393 1.377 . S
C1378 C1376 1.389 . S
C1378 C1379 1.524 . S
C1378 C1392 1.377 . S
C1379 C1378 1.524 . S
C1379 C1380 1.397 . S
C1379 C1384 1.363 . S
C1380 H1357 0.950 . S
C1380 C1379 1.397 . S
C1380 C1381 1.334 . S
C1381 H1358 0.950 . S
C1381 C1380 1.334 . S
C1381 C1382 1.287 . S
C1382 C1381 1.287 . S
C1382 C1383 1.524 . S
C1382 H1401 0.913 . S
C1383 H1359 0.950 . S
C1383 C1382 1.524 . S
C1383 C1384 1.415 . S
C1384 H1360 0.950 . S
C1384 C1379 1.363 . S
C1384 C1383 1.415 . S
C1385 H1361 0.951 . S
C1385 C1386 1.366 . S
C1385 C1387 1.388 . S
C1386 C1385 1.366 . S
C1386 C1390 1.385 1_545 S
C1387 H1362 0.951 . S
C1387 C1385 1.388 . S
C1387 C1388 1.366 . S
C1388 C1387 1.366 . S
C1388 C1389 1.414 . S
C1388 C1391 1.499 . S
C1389 H1363 0.950 . S
C1389 C1388 1.414 . S
C1389 C1390 1.374 1_545 S
C1390 H1364 0.950 . S
C1390 C1386 1.385 1_565 S
C1390 C1389 1.374 1_565 S
C1391 C1388 1.499 . S
C1391 C1392 1.373 . S
C1391 C1393 1.389 . S
C1392 H1365 0.950 . S
C1392 C1378 1.377 . S
C1392 C1391 1.373 . S
C1393 C1377 1.377 . S
C1393 C1391 1.389 . S
C1393 C1394 1.524 . S
C1394 C1393 1.524 . S
C1394 C1395 1.397 . S
C1394 C1399 1.363 . S
C1395 H1366 0.950 . S
C1395 C1394 1.397 . S
C1395 C1396 1.334 . S
C1396 H1367 0.950 . S
C1396 C1395 1.334 . S
C1396 C1397 1.287 . S
C1397 C1396 1.287 . S
C1397 C1398 1.524 . S
C1397 H1400 0.999 . S
C1398 H1368 0.950 . S
C1398 C1397 1.524 . S
C1398 C1399 1.415 . S
C1399 H1369 0.950 . S
C1399 C1394 1.363 . S
C1399 C1398 1.415 . S
H1400 C1397 0.999 . S
H1401 C1382 0.913 . S
H1402 C1420 0.951 1_565 S
H1403 C1422 0.951 . S
H1404 C1424 0.950 . S
H1405 C1425 0.950 . S
H1406 C1427 0.950 . S
H1407 C1430 0.950 . S
H1408 C1431 0.950 . S
H1409 C1433 0.950 . S
H1410 C1434 0.950 . S
H1411 C1435 0.951 . S
H1412 C1437 0.951 . S
H1413 C1439 0.950 . S
H1414 C1440 0.950 . S
H1415 C1442 0.950 . S
H1416 C1445 0.950 . S
H1417 C1446 0.950 . S
H1418 C1448 0.950 . S
H1419 C1449 0.950 . S
C1420 H1402 0.951 1_545 S
C1420 C1421 1.366 . S
C1420 C1422 1.388 . S
C1421 C1420 1.366 . S
C1421 C1425 1.385 . S
C1422 H1403 0.951 . S
C1422 C1420 1.388 . S
C1422 C1423 1.366 . S
C1423 C1422 1.366 . S
C1423 C1424 1.414 . S
C1423 C1426 1.499 . S
C1424 H1404 0.950 . S
C1424 C1423 1.414 . S
C1424 C1425 1.374 . S
C1425 H1405 0.950 . S
C1425 C1421 1.385 . S
C1425 C1424 1.374 . S
C1426 C1423 1.499 . S
C1426 C1427 1.373 . S
C1426 C1428 1.389 . S
C1427 H1406 0.950 . S
C1427 C1426 1.373 . S
C1427 C1443 1.377 . S
C1428 C1426 1.389 . S
C1428 C1429 1.524 . S
C1428 C1442 1.377 . S
C1429 C1428 1.524 . S
C1429 C1430 1.397 . S
C1429 C1434 1.363 . S
C1430 H1407 0.950 . S
C1430 C1429 1.397 . S
C1430 C1431 1.334 . S
C1431 H1408 0.950 . S
C1431 C1430 1.334 . S
C1431 C1432 1.287 . S
C1432 C1431 1.287 . S
C1432 C1433 1.524 . S
C1432 H1451 0.913 . S
C1433 H1409 0.950 . S
C1433 C1432 1.524 . S
C1433 C1434 1.415 . S
C1434 H1410 0.950 . S
C1434 C1429 1.363 . S
C1434 C1433 1.415 . S
C1435 H1411 0.951 . S
C1435 C1436 1.366 . S
C1435 C1437 1.388 . S
C1436 C1435 1.366 . S
C1436 C1440 1.385 . S
C1437 H1412 0.951 . S
C1437 C1435 1.388 . S
C1437 C1438 1.366 . S
C1438 C1437 1.366 . S
C1438 C1439 1.414 . S
C1438 C1441 1.499 . S
C1439 H1413 0.950 . S
C1439 C1438 1.414 . S
C1439 C1440 1.374 . S
C1440 H1414 0.950 . S
C1440 C1436 1.385 . S
C1440 C1439 1.374 . S
C1441 C1438 1.499 . S
C1441 C1442 1.373 . S
C1441 C1443 1.389 . S
C1442 H1415 0.950 . S
C1442 C1428 1.377 . S
C1442 C1441 1.373 . S
C1443 C1427 1.377 . S
C1443 C1441 1.389 . S
C1443 C1444 1.524 . S
C1444 C1443 1.524 . S
C1444 C1445 1.397 . S
C1444 C1449 1.363 . S
C1445 H1416 0.950 . S
C1445 C1444 1.397 . S
C1445 C1446 1.334 . S
C1446 H1417 0.950 . S
C1446 C1445 1.334 . S
C1446 C1447 1.287 . S
C1447 C1446 1.287 . S
C1447 C1448 1.524 . S
C1447 H1450 0.999 . S
C1448 H1418 0.950 . S
C1448 C1447 1.524 . S
C1448 C1449 1.415 . S
C1449 H1419 0.950 . S
C1449 C1444 1.363 . S
C1449 C1448 1.415 . S
H1450 C1447 0.999 . S
H1451 C1432 0.913 . S
H1452 C1470 0.951 . S
H1453 C1472 0.951 . S
H1454 C1474 0.950 . S
H1455 C1475 0.950 . S
H1456 C1477 0.950 . S
H1457 C1480 0.950 . S
H1458 C1481 0.950 . S
H1459 C1483 0.950 . S
H1460 C1484 0.950 . S
H1461 C1485 0.951 . S
H1462 C1487 0.951 . S
H1463 C1489 0.950 . S
H1464 C1490 0.950 . S
H1465 C1492 0.950 . S
H1466 C1495 0.950 . S
H1467 C1496 0.950 . S
H1468 C1498 0.950 . S
H1469 C1499 0.950 . S
C1470 H1452 0.951 . S
C1470 C1471 1.366 . S
C1470 C1472 1.388 . S
C1471 C1470 1.366 . S
C1471 C1475 1.385 . S
C1472 H1453 0.951 . S
C1472 C1470 1.388 . S
C1472 C1473 1.366 . S
C1473 C1472 1.366 . S
C1473 C1474 1.414 . S
C1473 C1476 1.499 . S
C1474 H1454 0.950 . S
C1474 C1473 1.414 . S
C1474 C1475 1.374 . S
C1475 H1455 0.950 . S
C1475 C1471 1.385 . S
C1475 C1474 1.374 . S
C1476 C1473 1.499 . S
C1476 C1477 1.373 . S
C1476 C1478 1.389 . S
C1477 H1456 0.950 . S
C1477 C1476 1.373 . S
C1477 C1493 1.377 . S
C1478 C1476 1.389 . S
C1478 C1479 1.524 . S
C1478 C1492 1.377 . S
C1479 C1478 1.524 . S
C1479 C1480 1.397 . S
C1479 C1484 1.363 . S
C1480 H1457 0.950 . S
C1480 C1479 1.397 . S
C1480 C1481 1.334 . S
C1481 H1458 0.950 . S
C1481 C1480 1.334 . S
C1481 C1482 1.287 . S
C1482 C1481 1.287 . S
C1482 C1483 1.524 . S
C1482 H1501 0.913 . S
C1483 H1459 0.950 . S
C1483 C1482 1.524 . S
C1483 C1484 1.415 . S
C1484 H1460 0.950 . S
C1484 C1479 1.363 . S
C1484 C1483 1.415 . S
C1485 H1461 0.951 . S
C1485 C1486 1.366 . S
C1485 C1487 1.388 . S
C1486 C1485 1.366 . S
C1486 C1490 1.385 . S
C1487 H1462 0.951 . S
C1487 C1485 1.388 . S
C1487 C1488 1.366 . S
C1488 C1487 1.366 . S
C1488 C1489 1.414 . S
C1488 C1491 1.499 . S
C1489 H1463 0.950 . S
C1489 C1488 1.414 . S
C1489 C1490 1.374 . S
C1490 H1464 0.950 . S
C1490 C1486 1.385 . S
C1490 C1489 1.374 . S
C1491 C1488 1.499 . S
C1491 C1492 1.373 . S
C1491 C1493 1.389 . S
C1492 H1465 0.950 . S
C1492 C1478 1.377 . S
C1492 C1491 1.373 . S
C1493 C1477 1.377 . S
C1493 C1491 1.389 . S
C1493 C1494 1.524 . S
C1494 C1493 1.524 . S
C1494 C1495 1.397 . S
C1494 C1499 1.363 . S
C1495 H1466 0.950 . S
C1495 C1494 1.397 . S
C1495 C1496 1.334 . S
C1496 H1467 0.950 . S
C1496 C1495 1.334 . S
C1496 C1497 1.287 . S
C1497 C1496 1.287 . S
C1497 C1498 1.524 . S
C1497 H1500 0.999 . S
C1498 H1468 0.950 . S
C1498 C1497 1.524 . S
C1498 C1499 1.415 . S
C1499 H1469 0.950 . S
C1499 C1494 1.363 . S
C1499 C1498 1.415 . S
H1500 C1497 0.999 . S
H1501 C1482 0.913 . S
H1502 C1520 0.951 . S
H1503 C1522 0.951 . S
H1504 C1524 0.950 . S
H1505 C1525 0.950 . S
H1506 C1527 0.950 . S
H1507 C1530 0.950 . S
H1508 C1531 0.950 . S
H1509 C1533 0.950 . S
H1510 C1534 0.950 . S
H1511 C1535 0.951 . S
H1512 C1537 0.951 . S
H1513 C1539 0.950 . S
H1514 C1540 0.950 . S
H1515 C1542 0.950 . S
H1516 C1545 0.950 . S
H1517 C1546 0.950 . S
H1518 C1548 0.950 . S
H1519 C1549 0.950 . S
C1520 H1502 0.951 . S
C1520 C1521 1.366 . S
C1520 C1522 1.388 . S
C1521 C1520 1.366 . S
C1521 C1525 1.385 . S
C1522 H1503 0.951 . S
C1522 C1520 1.388 . S
C1522 C1523 1.366 . S
C1523 C1522 1.366 . S
C1523 C1524 1.414 . S
C1523 C1526 1.499 . S
C1524 H1504 0.950 . S
C1524 C1523 1.414 . S
C1524 C1525 1.374 . S
C1525 H1505 0.950 . S
C1525 C1521 1.385 . S
C1525 C1524 1.374 . S
C1526 C1523 1.499 . S
C1526 C1527 1.373 . S
C1526 C1528 1.389 . S
C1527 H1506 0.950 . S
C1527 C1526 1.373 . S
C1527 C1543 1.377 . S
C1528 C1526 1.389 . S
C1528 C1529 1.524 . S
C1528 C1542 1.377 . S
C1529 C1528 1.524 . S
C1529 C1530 1.397 . S
C1529 C1534 1.363 . S
C1530 H1507 0.950 . S
C1530 C1529 1.397 . S
C1530 C1531 1.334 . S
C1531 H1508 0.950 . S
C1531 C1530 1.334 . S
C1531 C1532 1.287 . S
C1532 C1531 1.287 . S
C1532 C1533 1.524 . S
C1532 H1551 0.913 . S
C1533 H1509 0.950 . S
C1533 C1532 1.524 . S
C1533 C1534 1.415 . S
C1534 H1510 0.950 . S
C1534 C1529 1.363 . S
C1534 C1533 1.415 . S
C1535 H1511 0.951 . S
C1535 C1536 1.366 . S
C1535 C1537 1.388 . S
C1536 C1535 1.366 . S
C1536 C1540 1.385 1_455 S
C1537 H1512 0.951 . S
C1537 C1535 1.388 . S
C1537 C1538 1.366 . S
C1538 C1537 1.366 . S
C1538 C1539 1.414 . S
C1538 C1541 1.499 . S
C1539 H1513 0.950 . S
C1539 C1538 1.414 . S
C1539 C1540 1.374 1_455 S
C1540 H1514 0.950 . S
C1540 C1536 1.385 1_655 S
C1540 C1539 1.374 1_655 S
C1541 C1538 1.499 . S
C1541 C1542 1.373 . S
C1541 C1543 1.389 . S
C1542 H1515 0.950 . S
C1542 C1528 1.377 . S
C1542 C1541 1.373 . S
C1543 C1527 1.377 . S
C1543 C1541 1.389 . S
C1543 C1544 1.524 . S
C1544 C1543 1.524 . S
C1544 C1545 1.397 . S
C1544 C1549 1.363 . S
C1545 H1516 0.950 . S
C1545 C1544 1.397 . S
C1545 C1546 1.334 . S
C1546 H1517 0.950 . S
C1546 C1545 1.334 . S
C1546 C1547 1.287 . S
C1547 C1546 1.287 . S
C1547 C1548 1.524 . S
C1547 H1550 0.999 . S
C1548 H1518 0.950 . S
C1548 C1547 1.524 . S
C1548 C1549 1.415 . S
C1549 H1519 0.950 . S
C1549 C1544 1.363 . S
C1549 C1548 1.415 . S
H1550 C1547 0.999 . S
H1551 C1532 0.913 . S
H1552 C1570 0.951 . S
H1553 C1572 0.951 . S
H1554 C1574 0.950 . S
H1555 C1575 0.950 . S
H1556 C1577 0.950 . S
H1557 C1580 0.950 . S
H1558 C1581 0.950 . S
H1559 C1583 0.950 . S
H1560 C1584 0.950 . S
H1561 C1585 0.951 . S
H1562 C1587 0.951 . S
H1563 C1589 0.950 . S
H1564 C1590 0.950 . S
H1565 C1592 0.950 . S
H1566 C1595 0.950 . S
H1567 C1596 0.950 . S
H1568 C1598 0.950 . S
H1569 C1599 0.950 . S
C1570 H1552 0.951 . S
C1570 C1571 1.366 . S
C1570 C1572 1.388 . S
C1571 C1570 1.366 . S
C1571 C1575 1.385 . S
C1572 H1553 0.951 . S
C1572 C1570 1.388 . S
C1572 C1573 1.366 . S
C1573 C1572 1.366 . S
C1573 C1574 1.414 . S
C1573 C1576 1.499 . S
C1574 H1554 0.950 . S
C1574 C1573 1.414 . S
C1574 C1575 1.374 . S
C1575 H1555 0.950 . S
C1575 C1571 1.385 . S
C1575 C1574 1.374 . S
C1576 C1573 1.499 . S
C1576 C1577 1.373 . S
C1576 C1578 1.389 . S
C1577 H1556 0.950 . S
C1577 C1576 1.373 . S
C1577 C1593 1.377 . S
C1578 C1576 1.389 . S
C1578 C1579 1.524 . S
C1578 C1592 1.377 . S
C1579 C1578 1.524 . S
C1579 C1580 1.397 . S
C1579 C1584 1.363 . S
C1580 H1557 0.950 . S
C1580 C1579 1.397 . S
C1580 C1581 1.334 . S
C1581 H1558 0.950 . S
C1581 C1580 1.334 . S
C1581 C1582 1.287 . S
C1582 C1581 1.287 . S
C1582 C1583 1.524 . S
C1582 H1601 0.913 . S
C1583 H1559 0.950 . S
C1583 C1582 1.524 . S
C1583 C1584 1.415 . S
C1584 H1560 0.950 . S
C1584 C1579 1.363 . S
C1584 C1583 1.415 . S
C1585 H1561 0.951 . S
C1585 C1586 1.366 . S
C1585 C1587 1.388 . S
C1586 C1585 1.366 . S
C1586 C1590 1.385 . S
C1587 H1562 0.951 . S
C1587 C1585 1.388 . S
C1587 C1588 1.366 . S
C1588 C1587 1.366 . S
C1588 C1589 1.414 . S
C1588 C1591 1.499 . S
C1589 H1563 0.950 . S
C1589 C1588 1.414 . S
C1589 C1590 1.374 . S
C1590 H1564 0.950 . S
C1590 C1586 1.385 . S
C1590 C1589 1.374 . S
C1591 C1588 1.499 . S
C1591 C1592 1.373 . S
C1591 C1593 1.389 . S
C1592 H1565 0.950 . S
C1592 C1578 1.377 . S
C1592 C1591 1.373 . S
C1593 C1577 1.377 . S
C1593 C1591 1.389 . S
C1593 C1594 1.524 . S
C1594 C1593 1.524 . S
C1594 C1595 1.397 . S
C1594 C1599 1.363 . S
C1595 H1566 0.950 . S
C1595 C1594 1.397 . S
C1595 C1596 1.334 . S
C1596 H1567 0.950 . S
C1596 C1595 1.334 . S
C1596 C1597 1.287 . S
C1597 C1596 1.287 . S
C1597 C1598 1.524 . S
C1597 H1600 0.999 . S
C1598 H1568 0.950 . S
C1598 C1597 1.524 . S
C1598 C1599 1.415 . S
C1599 H1569 0.950 . S
C1599 C1594 1.363 . S
C1599 C1598 1.415 . S
H1600 C1597 0.999 . S
H1601 C1582 0.913 . S
H1602 C1620 0.951 . S
H1603 C1622 0.951 . S
H1604 C1624 0.950 . S
H1605 C1625 0.950 . S
H1606 C1627 0.950 . S
H1607 C1630 0.950 . S
H1608 C1631 0.950 . S
H1609 C1633 0.950 . S
H1610 C1634 0.950 . S
H1611 C1635 0.951 . S
H1612 C1637 0.951 . S
H1613 C1639 0.950 . S
H1614 C1640 0.950 . S
H1615 C1642 0.950 . S
H1616 C1645 0.950 . S
H1617 C1646 0.950 . S
H1618 C1648 0.950 . S
H1619 C1649 0.950 . S
C1620 H1602 0.951 . S
C1620 C1621 1.366 . S
C1620 C1622 1.388 . S
C1621 C1620 1.366 . S
C1621 C1625 1.385 . S
C1622 H1603 0.951 . S
C1622 C1620 1.388 . S
C1622 C1623 1.366 . S
C1623 C1622 1.366 . S
C1623 C1624 1.414 . S
C1623 C1626 1.499 . S
C1624 H1604 0.950 . S
C1624 C1623 1.414 . S
C1624 C1625 1.374 . S
C1625 H1605 0.950 . S
C1625 C1621 1.385 . S
C1625 C1624 1.374 . S
C1626 C1623 1.499 . S
C1626 C1627 1.373 . S
C1626 C1628 1.389 . S
C1627 H1606 0.950 . S
C1627 C1626 1.373 . S
C1627 C1643 1.377 . S
C1628 C1626 1.389 . S
C1628 C1629 1.524 . S
C1628 C1642 1.377 . S
C1629 C1628 1.524 . S
C1629 C1630 1.397 . S
C1629 C1634 1.363 . S
C1630 H1607 0.950 . S
C1630 C1629 1.397 . S
C1630 C1631 1.334 . S
C1631 H1608 0.950 . S
C1631 C1630 1.334 . S
C1631 C1632 1.287 . S
C1632 C1631 1.287 . S
C1632 C1633 1.524 . S
C1632 H1651 0.913 . S
C1633 H1609 0.950 . S
C1633 C1632 1.524 . S
C1633 C1634 1.415 . S
C1634 H1610 0.950 . S
C1634 C1629 1.363 . S
C1634 C1633 1.415 . S
C1635 H1611 0.951 . S
C1635 C1636 1.366 . S
C1635 C1637 1.388 . S
C1636 C1635 1.366 . S
C1636 C1640 1.385 . S
C1637 H1612 0.951 . S
C1637 C1635 1.388 . S
C1637 C1638 1.366 . S
C1638 C1637 1.366 . S
C1638 C1639 1.414 . S
C1638 C1641 1.499 . S
C1639 H1613 0.950 . S
C1639 C1638 1.414 . S
C1639 C1640 1.374 . S
C1640 H1614 0.950 . S
C1640 C1636 1.385 . S
C1640 C1639 1.374 . S
C1641 C1638 1.499 . S
C1641 C1642 1.373 . S
C1641 C1643 1.389 . S
C1642 H1615 0.950 . S
C1642 C1628 1.377 . S
C1642 C1641 1.373 . S
C1643 C1627 1.377 . S
C1643 C1641 1.389 . S
C1643 C1644 1.524 . S
C1644 C1643 1.524 . S
C1644 C1645 1.397 . S
C1644 C1649 1.363 . S
C1645 H1616 0.950 . S
C1645 C1644 1.397 . S
C1645 C1646 1.334 . S
C1646 H1617 0.950 . S
C1646 C1645 1.334 . S
C1646 C1647 1.287 . S
C1647 C1646 1.287 . S
C1647 C1648 1.524 . S
C1647 H1650 0.999 . S
C1648 H1618 0.950 . S
C1648 C1647 1.524 . S
C1648 C1649 1.415 . S
C1649 H1619 0.950 . S
C1649 C1644 1.363 . S
C1649 C1648 1.415 . S
H1650 C1647 0.999 . S
H1651 C1632 0.913 . S
H1652 C1670 0.951 . S
H1653 C1672 0.951 . S
H1654 C1674 0.950 . S
H1655 C1675 0.950 . S
H1656 C1677 0.950 . S
H1657 C1680 0.950 . S
H1658 C1681 0.950 . S
H1659 C1683 0.950 . S
H1660 C1684 0.950 . S
H1661 C1685 0.951 . S
H1662 C1687 0.951 . S
H1663 C1689 0.950 . S
H1664 C1690 0.950 . S
H1665 C1692 0.950 . S
H1666 C1695 0.950 . S
H1667 C1696 0.950 . S
H1668 C1698 0.950 . S
H1669 C1699 0.950 . S
C1670 H1652 0.951 . S
C1670 C1671 1.366 . S
C1670 C1672 1.388 . S
C1671 C1670 1.366 . S
C1671 C1675 1.385 . S
C1672 H1653 0.951 . S
C1672 C1670 1.388 . S
C1672 C1673 1.366 . S
C1673 C1672 1.366 . S
C1673 C1674 1.414 . S
C1673 C1676 1.499 . S
C1674 H1654 0.950 . S
C1674 C1673 1.414 . S
C1674 C1675 1.374 . S
C1675 H1655 0.950 . S
C1675 C1671 1.385 . S
C1675 C1674 1.374 . S
C1676 C1673 1.499 . S
C1676 C1677 1.373 . S
C1676 C1678 1.389 . S
C1677 H1656 0.950 . S
C1677 C1676 1.373 . S
C1677 C1693 1.377 . S
C1678 C1676 1.389 . S
C1678 C1679 1.524 . S
C1678 C1692 1.377 . S
C1679 C1678 1.524 . S
C1679 C1680 1.397 . S
C1679 C1684 1.363 . S
C1680 H1657 0.950 . S
C1680 C1679 1.397 . S
C1680 C1681 1.334 . S
C1681 H1658 0.950 . S
C1681 C1680 1.334 . S
C1681 C1682 1.287 . S
C1682 C1681 1.287 . S
C1682 C1683 1.524 . S
C1682 H1701 0.913 . S
C1683 H1659 0.950 . S
C1683 C1682 1.524 . S
C1683 C1684 1.415 . S
C1684 H1660 0.950 . S
C1684 C1679 1.363 . S
C1684 C1683 1.415 . S
C1685 H1661 0.951 . S
C1685 C1686 1.366 . S
C1685 C1687 1.388 . S
C1686 C1685 1.366 . S
C1686 C1690 1.385 . S
C1687 H1662 0.951 . S
C1687 C1685 1.388 . S
C1687 C1688 1.366 . S
C1688 C1687 1.366 . S
C1688 C1689 1.414 . S
C1688 C1691 1.499 . S
C1689 H1663 0.950 . S
C1689 C1688 1.414 . S
C1689 C1690 1.374 . S
C1690 H1664 0.950 . S
C1690 C1686 1.385 . S
C1690 C1689 1.374 . S
C1691 C1688 1.499 . S
C1691 C1692 1.373 . S
C1691 C1693 1.389 . S
C1692 H1665 0.950 . S
C1692 C1678 1.377 . S
C1692 C1691 1.373 . S
C1693 C1677 1.377 . S
C1693 C1691 1.389 . S
C1693 C1694 1.524 . S
C1694 C1693 1.524 . S
C1694 C1695 1.397 . S
C1694 C1699 1.363 . S
C1695 H1666 0.950 . S
C1695 C1694 1.397 . S
C1695 C1696 1.334 . S
C1696 H1667 0.950 . S
C1696 C1695 1.334 . S
C1696 C1697 1.287 . S
C1697 C1696 1.287 . S
C1697 C1698 1.524 . S
C1697 H1700 0.999 . S
C1698 H1668 0.950 . S
C1698 C1697 1.524 . S
C1698 C1699 1.415 . S
C1699 H1669 0.950 . S
C1699 C1694 1.363 . S
C1699 C1698 1.415 . S
H1700 C1697 0.999 . S
H1701 C1682 0.913 . S
H1702 C1720 0.951 . S
H1703 C1722 0.951 . S
H1704 C1724 0.950 . S
H1705 C1725 0.950 . S
H1706 C1727 0.950 . S
H1707 C1730 0.950 . S
H1708 C1731 0.950 . S
H1709 C1733 0.950 . S
H1710 C1734 0.950 . S
H1711 C1735 0.951 . S
H1712 C1737 0.951 . S
H1713 C1739 0.950 . S
H1714 C1740 0.950 . S
H1715 C1742 0.950 . S
H1716 C1745 0.950 . S
H1717 C1746 0.950 . S
H1718 C1748 0.950 . S
H1719 C1749 0.950 . S
C1720 H1702 0.951 . S
C1720 C1721 1.366 . S
C1720 C1722 1.388 . S
C1721 C1720 1.366 . S
C1721 C1725 1.385 . S
C1722 H1703 0.951 . S
C1722 C1720 1.388 . S
C1722 C1723 1.366 . S
C1723 C1722 1.366 . S
C1723 C1724 1.414 . S
C1723 C1726 1.499 . S
C1724 H1704 0.950 . S
C1724 C1723 1.414 . S
C1724 C1725 1.374 . S
C1725 H1705 0.950 . S
C1725 C1721 1.385 . S
C1725 C1724 1.374 . S
C1726 C1723 1.499 . S
C1726 C1727 1.373 . S
C1726 C1728 1.389 . S
C1727 H1706 0.950 . S
C1727 C1726 1.373 . S
C1727 C1743 1.377 . S
C1728 C1726 1.389 . S
C1728 C1729 1.524 . S
C1728 C1742 1.377 . S
C1729 C1728 1.524 . S
C1729 C1730 1.397 . S
C1729 C1734 1.363 . S
C1730 H1707 0.950 . S
C1730 C1729 1.397 . S
C1730 C1731 1.334 . S
C1731 H1708 0.950 . S
C1731 C1730 1.334 . S
C1731 C1732 1.287 . S
C1732 C1731 1.287 . S
C1732 C1733 1.524 . S
C1732 H1751 0.913 . S
C1733 H1709 0.950 . S
C1733 C1732 1.524 . S
C1733 C1734 1.415 . S
C1734 H1710 0.950 . S
C1734 C1729 1.363 . S
C1734 C1733 1.415 . S
C1735 H1711 0.951 . S
C1735 C1736 1.366 . S
C1735 C1737 1.388 . S
C1736 C1735 1.366 . S
C1736 C1740 1.385 . S
C1737 H1712 0.951 . S
C1737 C1735 1.388 . S
C1737 C1738 1.366 . S
C1738 C1737 1.366 . S
C1738 C1739 1.414 . S
C1738 C1741 1.499 . S
C1739 H1713 0.950 . S
C1739 C1738 1.414 . S
C1739 C1740 1.374 . S
C1740 H1714 0.950 . S
C1740 C1736 1.385 . S
C1740 C1739 1.374 . S
C1741 C1738 1.499 . S
C1741 C1742 1.373 . S
C1741 C1743 1.389 . S
C1742 H1715 0.950 . S
C1742 C1728 1.377 . S
C1742 C1741 1.373 . S
C1743 C1727 1.377 . S
C1743 C1741 1.389 . S
C1743 C1744 1.524 . S
C1744 C1743 1.524 . S
C1744 C1745 1.397 . S
C1744 C1749 1.363 . S
C1745 H1716 0.950 . S
C1745 C1744 1.397 . S
C1745 C1746 1.334 . S
C1746 H1717 0.950 . S
C1746 C1745 1.334 . S
C1746 C1747 1.287 . S
C1747 C1746 1.287 . S
C1747 C1748 1.524 . S
C1747 H1750 0.999 . S
C1748 H1718 0.950 . S
C1748 C1747 1.524 . S
C1748 C1749 1.415 . S
C1749 H1719 0.950 . S
C1749 C1744 1.363 . S
C1749 C1748 1.415 . S
H1750 C1747 0.999 . S
H1751 C1732 0.913 . S
H1752 C1770 0.951 . S
H1753 C1772 0.951 . S
H1754 C1774 0.950 . S
H1755 C1775 0.950 . S
H1756 C1777 0.950 . S
H1757 C1780 0.950 . S
H1758 C1781 0.950 . S
H1759 C1783 0.950 . S
H1760 C1784 0.950 . S
H1761 C1785 0.951 . S
H1762 C1787 0.951 . S
H1763 C1789 0.950 . S
H1764 C1790 0.950 . S
H1765 C1792 0.950 . S
H1766 C1795 0.950 . S
H1767 C1796 0.950 . S
H1768 C1798 0.950 . S
H1769 C1799 0.950 . S
C1770 H1752 0.951 . S
C1770 C1771 1.366 . S
C1770 C1772 1.388 . S
C1771 C1770 1.366 . S
C1771 C1775 1.385 . S
C1772 H1753 0.951 . S
C1772 C1770 1.388 . S
C1772 C1773 1.366 . S
C1773 C1772 1.366 . S
C1773 C1774 1.414 . S
C1773 C1776 1.499 . S
C1774 H1754 0.950 . S
C1774 C1773 1.414 . S
C1774 C1775 1.374 . S
C1775 H1755 0.950 . S
C1775 C1771 1.385 . S
C1775 C1774 1.374 . S
C1776 C1773 1.499 . S
C1776 C1777 1.373 . S
C1776 C1778 1.389 . S
C1777 H1756 0.950 . S
C1777 C1776 1.373 . S
C1777 C1793 1.377 . S
C1778 C1776 1.389 . S
C1778 C1779 1.524 . S
C1778 C1792 1.377 . S
C1779 C1778 1.524 . S
C1779 C1780 1.397 . S
C1779 C1784 1.363 . S
C1780 H1757 0.950 . S
C1780 C1779 1.397 . S
C1780 C1781 1.334 . S
C1781 H1758 0.950 . S
C1781 C1780 1.334 . S
C1781 C1782 1.287 . S
C1782 C1781 1.287 . S
C1782 C1783 1.524 . S
C1782 H1801 0.913 . S
C1783 H1759 0.950 . S
C1783 C1782 1.524 . S
C1783 C1784 1.415 . S
C1784 H1760 0.950 . S
C1784 C1779 1.363 . S
C1784 C1783 1.415 . S
C1785 H1761 0.951 . S
C1785 C1786 1.366 . S
C1785 C1787 1.388 . S
C1786 C1785 1.366 . S
C1786 C1790 1.385 . S
C1787 H1762 0.951 . S
C1787 C1785 1.388 . S
C1787 C1788 1.366 . S
C1788 C1787 1.366 . S
C1788 C1789 1.414 . S
C1788 C1791 1.499 . S
C1789 H1763 0.950 . S
C1789 C1788 1.414 . S
C1789 C1790 1.374 . S
C1790 H1764 0.950 . S
C1790 C1786 1.385 . S
C1790 C1789 1.374 . S
C1791 C1788 1.499 . S
C1791 C1792 1.373 . S
C1791 C1793 1.389 . S
C1792 H1765 0.950 . S
C1792 C1778 1.377 . S
C1792 C1791 1.373 . S
C1793 C1777 1.377 . S
C1793 C1791 1.389 . S
C1793 C1794 1.524 . S
C1794 C1793 1.524 . S
C1794 C1795 1.397 . S
C1794 C1799 1.363 . S
C1795 H1766 0.950 . S
C1795 C1794 1.397 . S
C1795 C1796 1.334 . S
C1796 H1767 0.950 . S
C1796 C1795 1.334 . S
C1796 C1797 1.287 . S
C1797 C1796 1.287 . S
C1797 C1798 1.524 . S
C1797 H1800 0.999 . S
C1798 H1768 0.950 . S
C1798 C1797 1.524 . S
C1798 C1799 1.415 . S
C1799 H1769 0.950 . S
C1799 C1794 1.363 . S
C1799 C1798 1.415 . S
H1800 C1797 0.999 . S
H1801 C1782 0.913 . S
H1802 C1820 0.951 . S
H1803 C1822 0.951 . S
H1804 C1824 0.950 . S
H1805 C1825 0.950 . S
H1806 C1827 0.950 . S
H1807 C1830 0.950 . S
H1808 C1831 0.950 . S
H1809 C1833 0.950 . S
H1810 C1834 0.950 . S
H1811 C1835 0.951 . S
H1812 C1837 0.951 . S
H1813 C1839 0.950 . S
H1814 C1840 0.950 . S
H1815 C1842 0.950 . S
H1816 C1845 0.950 . S
H1817 C1846 0.950 . S
H1818 C1848 0.950 . S
H1819 C1849 0.950 . S
C1820 H1802 0.951 . S
C1820 C1821 1.366 . S
C1820 C1822 1.388 . S
C1821 C1820 1.366 . S
C1821 C1825 1.385 . S
C1822 H1803 0.951 . S
C1822 C1820 1.388 . S
C1822 C1823 1.366 . S
C1823 C1822 1.366 . S
C1823 C1824 1.414 . S
C1823 C1826 1.499 . S
C1824 H1804 0.950 . S
C1824 C1823 1.414 . S
C1824 C1825 1.374 . S
C1825 H1805 0.950 . S
C1825 C1821 1.385 . S
C1825 C1824 1.374 . S
C1826 C1823 1.499 . S
C1826 C1827 1.373 . S
C1826 C1828 1.389 . S
C1827 H1806 0.950 . S
C1827 C1826 1.373 . S
C1827 C1843 1.377 . S
C1828 C1826 1.389 . S
C1828 C1829 1.524 . S
C1828 C1842 1.377 . S
C1829 C1828 1.524 . S
C1829 C1830 1.397 . S
C1829 C1834 1.363 . S
C1830 H1807 0.950 . S
C1830 C1829 1.397 . S
C1830 C1831 1.334 . S
C1831 H1808 0.950 . S
C1831 C1830 1.334 . S
C1831 C1832 1.287 . S
C1832 C1831 1.287 . S
C1832 C1833 1.524 . S
C1832 H1851 0.913 . S
C1833 H1809 0.950 . S
C1833 C1832 1.524 . S
C1833 C1834 1.415 . S
C1834 H1810 0.950 . S
C1834 C1829 1.363 . S
C1834 C1833 1.415 . S
C1835 H1811 0.951 . S
C1835 C1836 1.366 . S
C1835 C1837 1.388 . S
C1836 C1835 1.366 . S
C1836 C1840 1.385 . S
C1837 H1812 0.951 . S
C1837 C1835 1.388 . S
C1837 C1838 1.366 . S
C1838 C1837 1.366 . S
C1838 C1839 1.414 . S
C1838 C1841 1.499 . S
C1839 H1813 0.950 . S
C1839 C1838 1.414 . S
C1839 C1840 1.374 . S
C1840 H1814 0.950 . S
C1840 C1836 1.385 . S
C1840 C1839 1.374 . S
C1841 C1838 1.499 . S
C1841 C1842 1.373 . S
C1841 C1843 1.389 . S
C1842 H1815 0.950 . S
C1842 C1828 1.377 . S
C1842 C1841 1.373 . S
C1843 C1827 1.377 . S
C1843 C1841 1.389 . S
C1843 C1844 1.524 . S
C1844 C1843 1.524 . S
C1844 C1845 1.397 . S
C1844 C1849 1.363 . S
C1845 H1816 0.950 . S
C1845 C1844 1.397 . S
C1845 C1846 1.334 . S
C1846 H1817 0.950 . S
C1846 C1845 1.334 . S
C1846 C1847 1.287 . S
C1847 C1846 1.287 . S
C1847 C1848 1.524 . S
C1847 H1850 0.999 . S
C1848 H1818 0.950 . S
C1848 C1847 1.524 . S
C1848 C1849 1.415 . S
C1849 H1819 0.950 . S
C1849 C1844 1.363 . S
C1849 C1848 1.415 . S
H1850 C1847 0.999 . S
H1851 C1832 0.913 . S
H1852 C1870 0.951 . S
H1853 C1872 0.951 . S
H1854 C1874 0.950 . S
H1855 C1875 0.950 . S
H1856 C1877 0.950 . S
H1857 C1880 0.950 . S
H1858 C1881 0.950 . S
H1859 C1883 0.950 . S
H1860 C1884 0.950 . S
H1861 C1885 0.951 . S
H1862 C1887 0.951 . S
H1863 C1889 0.950 . S
H1864 C1890 0.950 . S
H1865 C1892 0.950 . S
H1866 C1895 0.950 . S
H1867 C1896 0.950 . S
H1868 C1898 0.950 . S
H1869 C1899 0.950 . S
C1870 H1852 0.951 . S
C1870 C1871 1.366 . S
C1870 C1872 1.388 . S
C1871 C1870 1.366 . S
C1871 C1875 1.385 . S
C1872 H1853 0.951 . S
C1872 C1870 1.388 . S
C1872 C1873 1.366 . S
C1873 C1872 1.366 . S
C1873 C1874 1.414 . S
C1873 C1876 1.499 . S
C1874 H1854 0.950 . S
C1874 C1873 1.414 . S
C1874 C1875 1.374 . S
C1875 H1855 0.950 . S
C1875 C1871 1.385 . S
C1875 C1874 1.374 . S
C1876 C1873 1.499 . S
C1876 C1877 1.373 . S
C1876 C1878 1.389 . S
C1877 H1856 0.950 . S
C1877 C1876 1.373 . S
C1877 C1893 1.377 . S
C1878 C1876 1.389 . S
C1878 C1879 1.524 . S
C1878 C1892 1.377 . S
C1879 C1878 1.524 . S
C1879 C1880 1.397 . S
C1879 C1884 1.363 . S
C1880 H1857 0.950 . S
C1880 C1879 1.397 . S
C1880 C1881 1.334 . S
C1881 H1858 0.950 . S
C1881 C1880 1.334 . S
C1881 C1882 1.287 . S
C1882 C1881 1.287 . S
C1882 C1883 1.524 . S
C1882 H1901 0.913 . S
C1883 H1859 0.950 . S
C1883 C1882 1.524 . S
C1883 C1884 1.415 . S
C1884 H1860 0.950 . S
C1884 C1879 1.363 . S
C1884 C1883 1.415 . S
C1885 H1861 0.951 . S
C1885 C1886 1.366 . S
C1885 C1887 1.388 . S
C1886 C1885 1.366 . S
C1886 C1890 1.385 . S
C1887 H1862 0.951 . S
C1887 C1885 1.388 . S
C1887 C1888 1.366 . S
C1888 C1887 1.366 . S
C1888 C1889 1.414 . S
C1888 C1891 1.499 . S
C1889 H1863 0.950 . S
C1889 C1888 1.414 . S
C1889 C1890 1.374 . S
C1890 H1864 0.950 . S
C1890 C1886 1.385 . S
C1890 C1889 1.374 . S
C1891 C1888 1.499 . S
C1891 C1892 1.373 . S
C1891 C1893 1.389 . S
C1892 H1865 0.950 . S
C1892 C1878 1.377 . S
C1892 C1891 1.373 . S
C1893 C1877 1.377 . S
C1893 C1891 1.389 . S
C1893 C1894 1.524 . S
C1894 C1893 1.524 . S
C1894 C1895 1.397 . S
C1894 C1899 1.363 . S
C1895 H1866 0.950 . S
C1895 C1894 1.397 . S
C1895 C1896 1.334 . S
C1896 H1867 0.950 . S
C1896 C1895 1.334 . S
C1896 C1897 1.287 . S
C1897 C1896 1.287 . S
C1897 C1898 1.524 . S
C1897 H1900 0.999 . S
C1898 H1868 0.950 . S
C1898 C1897 1.524 . S
C1898 C1899 1.415 . S
C1899 H1869 0.950 . S
C1899 C1894 1.363 . S
C1899 C1898 1.415 . S
H1900 C1897 0.999 . S
H1901 C1882 0.913 . S
H1902 C1920 0.951 . S
H1903 C1922 0.951 . S
H1904 C1924 0.950 . S
H1905 C1925 0.950 . S
H1906 C1927 0.950 . S
H1907 C1930 0.950 . S
H1908 C1931 0.950 . S
H1909 C1933 0.950 . S
H1910 C1934 0.950 . S
H1911 C1935 0.951 . S
H1912 C1937 0.951 . S
H1913 C1939 0.950 . S
H1914 C1940 0.950 . S
H1915 C1942 0.950 . S
H1916 C1945 0.950 . S
H1917 C1946 0.950 . S
H1918 C1948 0.950 . S
H1919 C1949 0.950 . S
C1920 H1902 0.951 . S
C1920 C1921 1.366 . S
C1920 C1922 1.388 . S
C1921 C1920 1.366 . S
C1921 C1925 1.385 . S
C1922 H1903 0.951 . S
C1922 C1920 1.388 . S
C1922 C1923 1.366 . S
C1923 C1922 1.366 . S
C1923 C1924 1.414 . S
C1923 C1926 1.499 . S
C1924 H1904 0.950 . S
C1924 C1923 1.414 . S
C1924 C1925 1.374 . S
C1925 H1905 0.950 . S
C1925 C1921 1.385 . S
C1925 C1924 1.374 . S
C1926 C1923 1.499 . S
C1926 C1927 1.373 . S
C1926 C1928 1.389 . S
C1927 H1906 0.950 . S
C1927 C1926 1.373 . S
C1927 C1943 1.377 . S
C1928 C1926 1.389 . S
C1928 C1929 1.524 . S
C1928 C1942 1.377 . S
C1929 C1928 1.524 . S
C1929 C1930 1.397 . S
C1929 C1934 1.363 . S
C1930 H1907 0.950 . S
C1930 C1929 1.397 . S
C1930 C1931 1.334 . S
C1931 H1908 0.950 . S
C1931 C1930 1.334 . S
C1931 C1932 1.287 . S
C1932 C1931 1.287 . S
C1932 C1933 1.524 . S
C1932 H1951 0.913 . S
C1933 H1909 0.950 . S
C1933 C1932 1.524 . S
C1933 C1934 1.415 . S
C1934 H1910 0.950 . S
C1934 C1929 1.363 . S
C1934 C1933 1.415 . S
C1935 H1911 0.951 . S
C1935 C1936 1.366 . S
C1935 C1937 1.388 . S
C1936 C1935 1.366 . S
C1936 C1940 1.385 . S
C1937 H1912 0.951 . S
C1937 C1935 1.388 . S
C1937 C1938 1.366 . S
C1938 C1937 1.366 . S
C1938 C1939 1.414 . S
C1938 C1941 1.499 . S
C1939 H1913 0.950 . S
C1939 C1938 1.414 . S
C1939 C1940 1.374 . S
C1940 H1914 0.950 . S
C1940 C1936 1.385 . S
C1940 C1939 1.374 . S
C1941 C1938 1.499 . S
C1941 C1942 1.373 . S
C1941 C1943 1.389 . S
C1942 H1915 0.950 . S
C1942 C1928 1.377 . S
C1942 C1941 1.373 . S
C1943 C1927 1.377 . S
C1943 C1941 1.389 . S
C1943 C1944 1.524 . S
C1944 C1943 1.524 . S
C1944 C1945 1.397 . S
C1944 C1949 1.363 . S
C1945 H1916 0.950 . S
C1945 C1944 1.397 . S
C1945 C1946 1.334 . S
C1946 H1917 0.950 . S
C1946 C1945 1.334 . S
C1946 C1947 1.287 . S
C1947 C1946 1.287 . S
C1947 C1948 1.524 . S
C1947 H1950 0.999 . S
C1948 H1918 0.950 . S
C1948 C1947 1.524 . S
C1948 C1949 1.415 . S
C1949 H1919 0.950 . S
C1949 C1944 1.363 . S
C1949 C1948 1.415 . S
H1950 C1947 0.999 . S
H1951 C1932 0.913 . S
H1952 C1970 0.951 . S
H1953 C1972 0.951 . S
H1954 C1974 0.950 . S
H1955 C1975 0.950 . S
H1956 C1977 0.950 . S
H1957 C1980 0.950 . S
H1958 C1981 0.950 . S
H1959 C1983 0.950 . S
H1960 C1984 0.950 . S
H1961 C1985 0.951 . S
H1962 C1987 0.951 . S
H1963 C1989 0.950 . S
H1964 C1990 0.950 . S
H1965 C1992 0.950 . S
H1966 C1995 0.950 . S
H1967 C1996 0.950 . S
H1968 C1998 0.950 . S
H1969 C1999 0.950 . S
C1970 H1952 0.951 . S
C1970 C1971 1.366 . S
C1970 C1972 1.388 . S
C1971 C1970 1.366 . S
C1971 C1975 1.385 . S
C1972 H1953 0.951 . S
C1972 C1970 1.388 . S
C1972 C1973 1.366 . S
C1973 C1972 1.366 . S
C1973 C1974 1.414 . S
C1973 C1976 1.499 . S
C1974 H1954 0.950 . S
C1974 C1973 1.414 . S
C1974 C1975 1.374 . S
C1975 H1955 0.950 . S
C1975 C1971 1.385 . S
C1975 C1974 1.374 . S
C1976 C1973 1.499 . S
C1976 C1977 1.373 . S
C1976 C1978 1.389 . S
C1977 H1956 0.950 . S
C1977 C1976 1.373 . S
C1977 C1993 1.377 . S
C1978 C1976 1.389 . S
C1978 C1979 1.524 . S
C1978 C1992 1.377 . S
C1979 C1978 1.524 . S
C1979 C1980 1.397 . S
C1979 C1984 1.363 . S
C1980 H1957 0.950 . S
C1980 C1979 1.397 . S
C1980 C1981 1.334 . S
C1981 H1958 0.950 . S
C1981 C1980 1.334 . S
C1981 C1982 1.287 . S
C1982 C1981 1.287 . S
C1982 C1983 1.524 . S
C1982 H2001 0.913 . S
C1983 H1959 0.950 . S
C1983 C1982 1.524 . S
C1983 C1984 1.415 . S
C1984 H1960 0.950 . S
C1984 C1979 1.363 . S
C1984 C1983 1.415 . S
C1985 H1961 0.951 . S
C1985 C1986 1.366 . S
C1985 C1987 1.388 . S
C1986 C1985 1.366 . S
C1986 C1990 1.385 . S
C1987 H1962 0.951 . S
C1987 C1985 1.388 . S
C1987 C1988 1.366 . S
C1988 C1987 1.366 . S
C1988 C1989 1.414 . S
C1988 C1991 1.499 . S
C1989 H1963 0.950 . S
C1989 C1988 1.414 . S
C1989 C1990 1.374 . S
C1990 H1964 0.950 . S
C1990 C1986 1.385 . S
C1990 C1989 1.374 . S
C1991 C1988 1.499 . S
C1991 C1992 1.373 . S
C1991 C1993 1.389 . S
C1992 H1965 0.950 . S
C1992 C1978 1.377 . S
C1992 C1991 1.373 . S
C1993 C1977 1.377 . S
C1993 C1991 1.389 . S
C1993 C1994 1.524 . S
C1994 C1993 1.524 . S
C1994 C1995 1.397 . S
C1994 C1999 1.363 . S
C1995 H1966 0.950 . S
C1995 C1994 1.397 . S
C1995 C1996 1.334 . S
C1996 H1967 0.950 . S
C1996 C1995 1.334 . S
C1996 C1997 1.287 . S
C1997 C1996 1.287 . S
C1997 C1998 1.524 . S
C1997 H2000 0.999 . S
C1998 H1968 0.950 . S
C1998 C1997 1.524 . S
C1998 C1999 1.415 . S
C1999 H1969 0.950 . S
C1999 C1994 1.363 . S
C1999 C1998 1.415 . S
H2000 C1997 0.999 . S
H2001 C1982 0.913 . S
H2002 C2020 0.951 . S
H2003 C2022 0.951 . S
H2004 C2024 0.950 . S
H2005 C2025 0.950 . S
H2006 C2027 0.950 . S
H2007 C2030 0.950 . S
H2008 C2031 0.950 . S
H2009 C2033 0.950 . S
H2010 C2034 0.950 . S
H2011 C2035 0.951 . S
H2012 C2037 0.951 . S
H2013 C2039 0.950 . S
H2014 C2040 0.950 . S
H2015 C2042 0.950 . S
H2016 C2045 0.950 . S
H2017 C2046 0.950 . S
H2018 C2048 0.950 . S
H2019 C2049 0.950 . S
C2020 H2002 0.951 . S
C2020 C2021 1.366 . S
C2020 C2022 1.388 . S
C2021 C2020 1.366 . S
C2021 C2025 1.385 . S
C2022 H2003 0.951 . S
C2022 C2020 1.388 . S
C2022 C2023 1.366 . S
C2023 C2022 1.366 . S
C2023 C2024 1.414 . S
C2023 C2026 1.499 . S
C2024 H2004 0.950 . S
C2024 C2023 1.414 . S
C2024 C2025 1.374 . S
C2025 H2005 0.950 . S
C2025 C2021 1.385 . S
C2025 C2024 1.374 . S
C2026 C2023 1.499 . S
C2026 C2027 1.373 . S
C2026 C2028 1.389 . S
C2027 H2006 0.950 . S
C2027 C2026 1.373 . S
C2027 C2043 1.377 . S
C2028 C2026 1.389 . S
C2028 C2029 1.524 . S
C2028 C2042 1.377 . S
C2029 C2028 1.524 . S
C2029 C2030 1.397 . S
C2029 C2034 1.363 . S
C2030 H2007 0.950 . S
C2030 C2029 1.397 . S
C2030 C2031 1.334 . S
C2031 H2008 0.950 . S
C2031 C2030 1.334 . S
C2031 C2032 1.287 . S
C2032 C2031 1.287 . S
C2032 C2033 1.524 . S
C2032 H2051 0.913 . S
C2033 H2009 0.950 . S
C2033 C2032 1.524 . S
C2033 C2034 1.415 . S
C2034 H2010 0.950 . S
C2034 C2029 1.363 . S
C2034 C2033 1.415 . S
C2035 H2011 0.951 . S
C2035 C2036 1.366 . S
C2035 C2037 1.388 . S
C2036 C2035 1.366 . S
C2036 C2040 1.385 . S
C2037 H2012 0.951 . S
C2037 C2035 1.388 . S
C2037 C2038 1.366 . S
C2038 C2037 1.366 . S
C2038 C2039 1.414 . S
C2038 C2041 1.499 . S
C2039 H2013 0.950 . S
C2039 C2038 1.414 . S
C2039 C2040 1.374 . S
C2040 H2014 0.950 . S
C2040 C2036 1.385 . S
C2040 C2039 1.374 . S
C2041 C2038 1.499 . S
C2041 C2042 1.373 . S
C2041 C2043 1.389 . S
C2042 H2015 0.950 . S
C2042 C2028 1.377 . S
C2042 C2041 1.373 . S
C2043 C2027 1.377 . S
C2043 C2041 1.389 . S
C2043 C2044 1.524 . S
C2044 C2043 1.524 . S
C2044 C2045 1.397 . S
C2044 C2049 1.363 . S
C2045 H2016 0.950 . S
C2045 C2044 1.397 . S
C2045 C2046 1.334 . S
C2046 H2017 0.950 . S
C2046 C2045 1.334 . S
C2046 C2047 1.287 . S
C2047 C2046 1.287 . S
C2047 C2048 1.524 . S
C2047 H2050 0.999 . S
C2048 H2018 0.950 . S
C2048 C2047 1.524 . S
C2048 C2049 1.415 . S
C2049 H2019 0.950 . S
C2049 C2044 1.363 . S
C2049 C2048 1.415 . S
H2050 C2047 0.999 . S
H2051 C2032 0.913 . S
H2052 C2070 0.951 . S
H2053 C2072 0.951 . S
H2054 C2074 0.950 . S
H2055 C2075 0.950 . S
H2056 C2077 0.950 . S
H2057 C2080 0.950 . S
H2058 C2081 0.950 . S
H2059 C2083 0.950 . S
H2060 C2084 0.950 . S
H2061 C2085 0.951 . S
H2062 C2087 0.951 . S
H2063 C2089 0.950 . S
H2064 C2090 0.950 . S
H2065 C2092 0.950 . S
H2066 C2095 0.950 . S
H2067 C2096 0.950 . S
H2068 C2098 0.950 . S
H2069 C2099 0.950 . S
C2070 H2052 0.951 . S
C2070 C2071 1.366 . S
C2070 C2072 1.388 . S
C2071 C2070 1.366 . S
C2071 C2075 1.385 . S
C2072 H2053 0.951 . S
C2072 C2070 1.388 . S
C2072 C2073 1.366 . S
C2073 C2072 1.366 . S
C2073 C2074 1.414 . S
C2073 C2076 1.499 . S
C2074 H2054 0.950 . S
C2074 C2073 1.414 . S
C2074 C2075 1.374 . S
C2075 H2055 0.950 . S
C2075 C2071 1.385 . S
C2075 C2074 1.374 . S
C2076 C2073 1.499 . S
C2076 C2077 1.373 . S
C2076 C2078 1.389 . S
C2077 H2056 0.950 . S
C2077 C2076 1.373 . S
C2077 C2093 1.377 . S
C2078 C2076 1.389 . S
C2078 C2079 1.524 . S
C2078 C2092 1.377 . S
C2079 C2078 1.524 . S
C2079 C2080 1.397 . S
C2079 C2084 1.363 . S
C2080 H2057 0.950 . S
C2080 C2079 1.397 . S
C2080 C2081 1.334 . S
C2081 H2058 0.950 . S
C2081 C2080 1.334 . S
C2081 C2082 1.287 . S
C2082 C2081 1.287 . S
C2082 C2083 1.524 . S
C2082 H2101 0.913 . S
C2083 H2059 0.950 . S
C2083 C2082 1.524 . S
C2083 C2084 1.415 . S
C2084 H2060 0.950 . S
C2084 C2079 1.363 . S
C2084 C2083 1.415 . S
C2085 H2061 0.951 . S
C2085 C2086 1.366 . S
C2085 C2087 1.388 . S
C2086 C2085 1.366 . S
C2086 C2090 1.385 . S
C2087 H2062 0.951 . S
C2087 C2085 1.388 . S
C2087 C2088 1.366 . S
C2088 C2087 1.366 . S
C2088 C2089 1.414 . S
C2088 C2091 1.499 . S
C2089 H2063 0.950 . S
C2089 C2088 1.414 . S
C2089 C2090 1.374 . S
C2090 H2064 0.950 . S
C2090 C2086 1.385 . S
C2090 C2089 1.374 . S
C2091 C2088 1.499 . S
C2091 C2092 1.373 . S
C2091 C2093 1.389 . S
C2092 H2065 0.950 . S
C2092 C2078 1.377 . S
C2092 C2091 1.373 . S
C2093 C2077 1.377 . S
C2093 C2091 1.389 . S
C2093 C2094 1.524 . S
C2094 C2093 1.524 . S
C2094 C2095 1.397 . S
C2094 C2099 1.363 . S
C2095 H2066 0.950 . S
C2095 C2094 1.397 . S
C2095 C2096 1.334 . S
C2096 H2067 0.950 . S
C2096 C2095 1.334 . S
C2096 C2097 1.287 . S
C2097 C2096 1.287 . S
C2097 C2098 1.524 . S
C2097 H2100 0.999 . S
C2098 H2068 0.950 . S
C2098 C2097 1.524 . S
C2098 C2099 1.415 . S
C2099 H2069 0.950 . S
C2099 C2094 1.363 . S
C2099 C2098 1.415 . S
H2100 C2097 0.999 . S
H2101 C2082 0.913 . S
H2102 C2120 0.951 . S
H2103 C2122 0.951 . S
H2104 C2124 0.950 . S
H2105 C2125 0.950 . S
H2106 C2127 0.950 . S
H2107 C2130 0.950 . S
H2108 C2131 0.950 . S
H2109 C2133 0.950 . S
H2110 C2134 0.950 . S
H2111 C2135 0.951 . S
H2112 C2137 0.951 . S
H2113 C2139 0.950 . S
H2114 C2140 0.950 . S
H2115 C2142 0.950 . S
H2116 C2145 0.950 . S
H2117 C2146 0.950 . S
H2118 C2148 0.950 . S
H2119 C2149 0.950 . S
C2120 H2102 0.951 . S
C2120 C2121 1.366 . S
C2120 C2122 1.388 . S
C2121 C2120 1.366 . S
C2121 C2125 1.385 . S
C2122 H2103 0.951 . S
C2122 C2120 1.388 . S
C2122 C2123 1.366 . S
C2123 C2122 1.366 . S
C2123 C2124 1.414 . S
C2123 C2126 1.499 . S
C2124 H2104 0.950 . S
C2124 C2123 1.414 . S
C2124 C2125 1.374 . S
C2125 H2105 0.950 . S
C2125 C2121 1.385 . S
C2125 C2124 1.374 . S
C2126 C2123 1.499 . S
C2126 C2127 1.373 . S
C2126 C2128 1.389 . S
C2127 H2106 0.950 . S
C2127 C2126 1.373 . S
C2127 C2143 1.377 . S
C2128 C2126 1.389 . S
C2128 C2129 1.524 . S
C2128 C2142 1.377 . S
C2129 C2128 1.524 . S
C2129 C2130 1.397 . S
C2129 C2134 1.363 . S
C2130 H2107 0.950 . S
C2130 C2129 1.397 . S
C2130 C2131 1.334 . S
C2131 H2108 0.950 . S
C2131 C2130 1.334 . S
C2131 C2132 1.287 . S
C2132 C2131 1.287 . S
C2132 C2133 1.524 . S
C2132 H2151 0.913 . S
C2133 H2109 0.950 . S
C2133 C2132 1.524 . S
C2133 C2134 1.415 . S
C2134 H2110 0.950 . S
C2134 C2129 1.363 . S
C2134 C2133 1.415 . S
C2135 H2111 0.951 . S
C2135 C2136 1.366 . S
C2135 C2137 1.388 . S
C2136 C2135 1.366 . S
C2136 C2140 1.385 . S
C2137 H2112 0.951 . S
C2137 C2135 1.388 . S
C2137 C2138 1.366 . S
C2138 C2137 1.366 . S
C2138 C2139 1.414 . S
C2138 C2141 1.499 . S
C2139 H2113 0.950 . S
C2139 C2138 1.414 . S
C2139 C2140 1.374 . S
C2140 H2114 0.950 . S
C2140 C2136 1.385 . S
C2140 C2139 1.374 . S
C2141 C2138 1.499 . S
C2141 C2142 1.373 . S
C2141 C2143 1.389 . S
C2142 H2115 0.950 . S
C2142 C2128 1.377 . S
C2142 C2141 1.373 . S
C2143 C2127 1.377 . S
C2143 C2141 1.389 . S
C2143 C2144 1.524 . S
C2144 C2143 1.524 . S
C2144 C2145 1.397 . S
C2144 C2149 1.363 . S
C2145 H2116 0.950 . S
C2145 C2144 1.397 . S
C2145 C2146 1.334 . S
C2146 H2117 0.950 . S
C2146 C2145 1.334 . S
C2146 C2147 1.287 . S
C2147 C2146 1.287 . S
C2147 C2148 1.524 . S
C2147 H2150 0.999 . S
C2148 H2118 0.950 . S
C2148 C2147 1.524 . S
C2148 C2149 1.415 . S
C2149 H2119 0.950 . S
C2149 C2144 1.363 . S
C2149 C2148 1.415 . S
H2150 C2147 0.999 . S
H2151 C2132 0.913 . S
H2152 C2170 0.951 . S
H2153 C2172 0.951 . S
H2154 C2174 0.950 . S
H2155 C2175 0.950 . S
H2156 C2177 0.950 . S
H2157 C2180 0.950 . S
H2158 C2181 0.950 . S
H2159 C2183 0.950 . S
H2160 C2184 0.950 . S
H2161 C2185 0.951 . S
H2162 C2187 0.951 . S
H2163 C2189 0.950 . S
H2164 C2190 0.950 . S
H2165 C2192 0.950 . S
H2166 C2195 0.950 . S
H2167 C2196 0.950 . S
H2168 C2198 0.950 . S
H2169 C2199 0.950 . S
C2170 H2152 0.951 . S
C2170 C2171 1.366 . S
C2170 C2172 1.388 . S
C2171 C2170 1.366 . S
C2171 C2175 1.385 . S
C2172 H2153 0.951 . S
C2172 C2170 1.388 . S
C2172 C2173 1.366 . S
C2173 C2172 1.366 . S
C2173 C2174 1.414 . S
C2173 C2176 1.499 . S
C2174 H2154 0.950 . S
C2174 C2173 1.414 . S
C2174 C2175 1.374 . S
C2175 H2155 0.950 . S
C2175 C2171 1.385 . S
C2175 C2174 1.374 . S
C2176 C2173 1.499 . S
C2176 C2177 1.373 . S
C2176 C2178 1.389 . S
C2177 H2156 0.950 . S
C2177 C2176 1.373 . S
C2177 C2193 1.377 1_556 S
C2178 C2176 1.389 . S
C2178 C2179 1.524 . S
C2178 C2192 1.377 . S
C2179 C2178 1.524 . S
C2179 C2180 1.397 . S
C2179 C2184 1.363 . S
C2180 H2157 0.950 . S
C2180 C2179 1.397 . S
C2180 C2181 1.334 . S
C2181 H2158 0.950 . S
C2181 C2180 1.334 . S
C2181 C2182 1.287 . S
C2182 C2181 1.287 . S
C2182 C2183 1.524 . S
C2182 H2201 0.913 . S
C2183 H2159 0.950 . S
C2183 C2182 1.524 . S
C2183 C2184 1.415 . S
C2184 H2160 0.950 . S
C2184 C2179 1.363 . S
C2184 C2183 1.415 . S
C2185 H2161 0.951 . S
C2185 C2186 1.366 . S
C2185 C2187 1.388 . S
C2186 C2185 1.366 . S
C2186 C2190 1.385 . S
C2187 H2162 0.951 . S
C2187 C2185 1.388 . S
C2187 C2188 1.366 . S
C2188 C2187 1.366 . S
C2188 C2189 1.414 . S
C2188 C2191 1.499 . S
C2189 H2163 0.950 . S
C2189 C2188 1.414 . S
C2189 C2190 1.374 . S
C2190 H2164 0.950 . S
C2190 C2186 1.385 . S
C2190 C2189 1.374 . S
C2191 C2188 1.499 . S
C2191 C2192 1.373 1_554 S
C2191 C2193 1.389 . S
C2192 H2165 0.950 . S
C2192 C2178 1.377 . S
C2192 C2191 1.373 1_556 S
C2193 C2177 1.377 1_554 S
C2193 C2191 1.389 . S
C2193 C2194 1.524 . S
C2194 C2193 1.524 . S
C2194 C2195 1.397 . S
C2194 C2199 1.363 . S
C2195 H2166 0.950 . S
C2195 C2194 1.397 . S
C2195 C2196 1.334 . S
C2196 H2167 0.950 . S
C2196 C2195 1.334 . S
C2196 C2197 1.287 . S
C2197 C2196 1.287 . S
C2197 C2198 1.524 . S
C2197 H2200 0.999 . S
C2198 H2168 0.950 . S
C2198 C2197 1.524 . S
C2198 C2199 1.415 . S
C2199 H2169 0.950 . S
C2199 C2194 1.363 . S
C2199 C2198 1.415 . S
H2200 C2197 0.999 . S
H2201 C2182 0.913 . S
H2202 C2220 0.951 . S
H2203 C2222 0.951 . S
H2204 C2224 0.950 . S
H2205 C2225 0.950 . S
H2206 C2227 0.950 . S
H2207 C2230 0.950 . S
H2208 C2231 0.950 . S
H2209 C2233 0.950 . S
H2210 C2234 0.950 . S
H2211 C2235 0.951 . S
H2212 C2237 0.951 . S
H2213 C2239 0.950 . S
H2214 C2240 0.950 . S
H2215 C2242 0.950 . S
H2216 C2245 0.950 . S
H2217 C2246 0.950 . S
H2218 C2248 0.950 . S
H2219 C2249 0.950 . S
C2220 H2202 0.951 . S
C2220 C2221 1.366 . S
C2220 C2222 1.388 . S
C2221 C2220 1.366 . S
C2221 C2225 1.385 . S
C2222 H2203 0.951 . S
C2222 C2220 1.388 . S
C2222 C2223 1.366 . S
C2223 C2222 1.366 . S
C2223 C2224 1.414 . S
C2223 C2226 1.499 . S
C2224 H2204 0.950 . S
C2224 C2223 1.414 . S
C2224 C2225 1.374 . S
C2225 H2205 0.950 . S
C2225 C2221 1.385 . S
C2225 C2224 1.374 . S
C2226 C2223 1.499 . S
C2226 C2227 1.373 . S
C2226 C2228 1.366 1_554 S
C2227 H2206 0.950 . S
C2227 C2226 1.373 . S
C2227 C2243 1.377 1_554 S
C2228 C2226 1.366 1_556 S
C2228 C2229 1.520 1_556 S
C2228 C2242 1.405 . S
C2229 C2228 1.520 1_554 S
C2229 C2230 1.397 . S
C2229 C2234 1.363 1_554 S
C2230 H2207 0.950 . S
C2230 C2229 1.397 . S
C2230 C2231 1.334 . S
C2231 H2208 0.950 . S
C2231 C2230 1.334 . S
C2231 C2232 1.287 . S
C2232 C2231 1.287 . S
C2232 C2233 1.524 1_554 S
C2232 H2251 0.913 . S
C2233 H2209 0.950 . S
C2233 C2232 1.524 1_556 S
C2233 C2234 1.415 . S
C2234 H2210 0.950 . S
C2234 C2229 1.363 1_556 S
C2234 C2233 1.415 . S
C2235 H2211 0.951 . S
C2235 C2236 1.366 . S
C2235 C2237 1.388 . S
C2236 C2235 1.366 . S
C2236 C2240 1.385 . S
C2237 H2212 0.951 . S
C2237 C2235 1.388 . S
C2237 C2238 1.366 . S
C2238 C2237 1.366 . S
C2238 C2239 1.414 . S
C2238 C2241 1.499 . S
C2239 H2213 0.950 . S
C2239 C2238 1.414 . S
C2239 C2240 1.374 . S
C2240 H2214 0.950 . S
C2240 C2236 1.385 . S
C2240 C2239 1.374 . S
C2241 C2238 1.499 . S
C2241 C2242 1.373 . S
C2241 C2243 1.389 . S
C2242 H2215 0.950 . S
C2242 C2228 1.405 . S
C2242 C2241 1.373 . S
C2243 C2227 1.377 1_556 S
C2243 C2241 1.389 . S
C2243 C2244 1.524 . S
C2244 C2243 1.524 . S
C2244 C2245 1.397 . S
C2244 C2249 1.363 1_556 S
C2245 H2216 0.950 . S
C2245 C2244 1.397 . S
C2245 C2246 1.334 . S
C2246 H2217 0.950 . S
C2246 C2245 1.334 . S
C2246 C2247 1.287 . S
C2247 C2246 1.287 . S
C2247 C2248 1.524 1_556 S
C2247 H2250 0.999 . S
C2248 H2218 0.950 . S
C2248 C2247 1.524 1_554 S
C2248 C2249 1.415 . S
C2249 H2219 0.950 . S
C2249 C2244 1.363 1_554 S
C2249 C2248 1.415 . S
H2250 C2247 0.999 . S
H2251 C2232 0.913 . S
H2252 C2270 0.951 . S
H2253 C2272 0.951 . S
H2254 C2274 0.950 . S
H2255 C2275 0.950 . S
H2256 C2277 0.950 . S
H2257 C2280 0.950 . S
H2258 C2281 0.950 . S
H2259 C2283 0.950 . S
H2260 C2284 0.950 . S
H2261 C2285 0.951 . S
H2262 C2287 0.951 . S
H2263 C2289 0.950 . S
H2264 C2290 0.950 . S
H2265 C2292 0.950 . S
H2266 C2295 0.950 . S
H2267 C2296 0.950 . S
H2268 C2298 0.950 . S
H2269 C2299 0.950 . S
C2270 H2252 0.951 . S
C2270 C2271 1.366 . S
C2270 C2272 1.388 . S
C2271 C2270 1.366 . S
C2271 C2275 1.385 . S
C2272 H2253 0.951 . S
C2272 C2270 1.388 . S
C2272 C2273 1.366 . S
C2273 C2272 1.366 . S
C2273 C2274 1.414 . S
C2273 C2276 1.499 . S
C2274 H2254 0.950 . S
C2274 C2273 1.414 . S
C2274 C2275 1.374 . S
C2275 H2255 0.950 . S
C2275 C2271 1.385 . S
C2275 C2274 1.374 . S
C2276 C2273 1.499 . S
C2276 C2277 1.373 . S
C2276 C2278 1.389 . S
C2277 H2256 0.950 . S
C2277 C2276 1.373 . S
C2277 C2293 1.377 . S
C2278 C2276 1.389 . S
C2278 C2279 1.524 . S
C2278 C2292 1.377 1_556 S
C2279 C2278 1.524 . S
C2279 C2280 1.397 . S
C2279 C2284 1.363 1_556 S
C2280 H2257 0.950 . S
C2280 C2279 1.397 . S
C2280 C2281 1.334 . S
C2281 H2258 0.950 . S
C2281 C2280 1.334 . S
C2281 C2282 1.287 . S
C2282 C2281 1.287 . S
C2282 C2283 1.524 1_556 S
C2282 H2301 0.913 . S
C2283 H2259 0.950 . S
C2283 C2282 1.524 1_554 S
C2283 C2284 1.415 . S
C2284 H2260 0.950 . S
C2284 C2279 1.363 1_554 S
C2284 C2283 1.415 . S
C2285 H2261 0.951 . S
C2285 C2286 1.366 . S
C2285 C2287 1.388 . S
C2286 C2285 1.366 . S
C2286 C2290 1.385 . S
C2287 H2262 0.951 . S
C2287 C2285 1.388 . S
C2287 C2288 1.366 . S
C2288 C2287 1.366 . S
C2288 C2289 1.414 . S
C2288 C2291 1.499 . S
C2289 H2263 0.950 . S
C2289 C2288 1.414 . S
C2289 C2290 1.374 . S
C2290 H2264 0.950 . S
C2290 C2286 1.385 . S
C2290 C2289 1.374 . S
C2291 C2288 1.499 . S
C2291 C2292 1.373 . S
C2291 C2293 1.389 1_554 S
C2292 H2265 0.950 . S
C2292 C2278 1.377 1_554 S
C2292 C2291 1.373 . S
C2293 C2277 1.377 . S
C2293 C2291 1.389 1_556 S
C2293 C2294 1.524 . S
C2294 C2293 1.524 . S
C2294 C2295 1.397 1_556 S
C2294 C2299 1.363 . S
C2295 H2266 0.950 . S
C2295 C2294 1.397 1_554 S
C2295 C2296 1.334 . S
C2296 H2267 0.950 . S
C2296 C2295 1.334 . S
C2296 C2297 1.287 1_554 S
C2297 C2296 1.287 1_556 S
C2297 C2298 1.524 . S
C2297 H2300 0.999 . S
C2298 H2268 0.950 . S
C2298 C2297 1.524 . S
C2298 C2299 1.415 . S
C2299 H2269 0.950 . S
C2299 C2294 1.363 . S
C2299 C2298 1.415 . S
H2300 C2297 0.999 . S
H2301 C2282 0.913 . S
H2302 C2320 0.951 . S
H2303 C2322 0.951 . S
H2304 C2324 0.950 . S
H2305 C2325 0.950 . S
H2306 C2327 0.950 . S
H2307 C2330 0.950 . S
H2308 C2331 0.950 . S
H2309 C2333 0.950 1_556 S
H2310 C2334 0.950 . S
H2311 C2335 0.951 . S
H2312 C2337 0.951 . S
H2313 C2339 0.950 . S
H2314 C2340 0.950 . S
H2315 C2342 0.950 . S
H2316 C2345 0.950 . S
H2317 C2346 0.950 . S
H2318 C2348 0.950 . S
H2319 C2349 0.950 1_554 S
C2320 H2302 0.951 . S
C2320 C2321 1.366 . S
C2320 C2322 1.388 . S
C2321 C2320 1.366 . S
C2321 C2325 1.385 . S
C2322 H2303 0.951 . S
C2322 C2320 1.388 . S
C2322 C2323 1.366 . S
C2323 C2322 1.366 . S
C2323 C2324 1.414 . S
C2323 C2326 1.499 . S
C2324 H2304 0.950 . S
C2324 C2323 1.414 . S
C2324 C2325 1.374 . S
C2325 H2305 0.950 . S
C2325 C2321 1.385 . S
C2325 C2324 1.374 . S
C2326 C2323 1.499 . S
C2326 C2327 1.373 . S
C2326 C2328 1.389 . S
C2327 H2306 0.950 . S
C2327 C2326 1.373 . S
C2327 C2343 1.377 1_554 S
C2328 C2326 1.389 . S
C2328 C2329 1.524 . S
C2328 C2342 1.377 1_554 S
C2329 C2328 1.524 . S
C2329 C2330 1.397 . S
C2329 C2334 1.363 1_554 S
C2330 H2307 0.950 . S
C2330 C2329 1.397 . S
C2330 C2331 1.334 . S
C2331 H2308 0.950 . S
C2331 C2330 1.334 . S
C2331 C2332 1.287 . S
C2332 C2331 1.287 . S
C2332 C2333 1.524 . S
C2332 H2351 0.913 . S
C2333 H2309 0.950 1_554 S
C2333 C2332 1.524 . S
C2333 C2334 1.415 1_554 S
C2334 H2310 0.950 . S
C2334 C2329 1.363 1_556 S
C2334 C2333 1.415 1_556 S
C2335 H2311 0.951 . S
C2335 C2336 1.366 . S
C2335 C2337 1.388 . S
C2336 C2335 1.366 . S
C2336 C2340 1.385 . S
C2337 H2312 0.951 . S
C2337 C2335 1.388 . S
C2337 C2338 1.366 . S
C2338 C2337 1.366 . S
C2338 C2339 1.414 . S
C2338 C2341 1.499 . S
C2339 H2313 0.950 . S
C2339 C2338 1.414 . S
C2339 C2340 1.374 . S
C2340 H2314 0.950 . S
C2340 C2336 1.385 . S
C2340 C2339 1.374 . S
C2341 C2338 1.499 . S
C2341 C2342 1.373 . S
C2341 C2343 1.389 . S
C2342 H2315 0.950 . S
C2342 C2328 1.377 1_556 S
C2342 C2341 1.373 . S
C2343 C2327 1.377 1_556 S
C2343 C2341 1.389 . S
C2343 C2344 1.524 . S
C2344 C2343 1.524 . S
C2344 C2345 1.397 . S
C2344 C2349 1.363 . S
C2345 H2316 0.950 . S
C2345 C2344 1.397 . S
C2345 C2346 1.334 . S
C2346 H2317 0.950 . S
C2346 C2345 1.334 . S
C2346 C2347 1.287 . S
C2347 C2346 1.287 . S
C2347 C2348 1.524 . S
C2347 H2350 0.999 . S
C2348 H2318 0.950 . S
C2348 C2347 1.524 . S
C2348 C2349 1.415 . S
C2349 H2319 0.950 1_556 S
C2349 C2344 1.363 . S
C2349 C2348 1.415 . S
H2350 C2347 0.999 . S
H2351 C2332 0.913 . S
H2352 C2370 0.951 . S
H2353 C2372 0.951 . S
H2354 C2374 0.950 . S
H2355 C2375 0.950 . S
H2356 C2377 0.950 . S
H2357 C2380 0.950 . S
H2358 C2381 0.950 . S
H2359 C2383 0.950 . S
H2360 C2384 0.950 . S
H2361 C2385 0.951 . S
H2362 C2387 0.951 . S
H2363 C2389 0.950 . S
H2364 C2390 0.950 . S
H2365 C2392 0.950 . S
H2366 C2395 0.950 . S
H2367 C2396 0.950 . S
H2368 C2398 0.950 . S
H2369 C2399 0.950 . S
C2370 H2352 0.951 . S
C2370 C2371 1.366 . S
C2370 C2372 1.388 . S
C2371 C2370 1.366 . S
C2371 C2375 1.385 . S
C2372 H2353 0.951 . S
C2372 C2370 1.388 . S
C2372 C2373 1.366 . S
C2373 C2372 1.366 . S
C2373 C2374 1.414 . S
C2373 C2376 1.499 . S
C2374 H2354 0.950 . S
C2374 C2373 1.414 . S
C2374 C2375 1.374 . S
C2375 H2355 0.950 . S
C2375 C2371 1.385 . S
C2375 C2374 1.374 . S
C2376 C2373 1.499 . S
C2376 C2377 1.373 . S
C2376 C2378 1.389 . S
C2377 H2356 0.950 . S
C2377 C2376 1.373 . S
C2377 C2393 1.377 . S
C2378 C2376 1.389 . S
C2378 C2379 1.524 . S
C2378 C2392 1.377 . S
C2379 C2378 1.524 . S
C2379 C2380 1.397 . S
C2379 C2384 1.363 . S
C2380 H2357 0.950 . S
C2380 C2379 1.397 . S
C2380 C2381 1.334 . S
C2381 H2358 0.950 . S
C2381 C2380 1.334 . S
C2381 C2382 1.287 . S
C2382 C2381 1.287 . S
C2382 C2383 1.524 . S
C2382 H2401 0.913 . S
C2383 H2359 0.950 . S
C2383 C2382 1.524 . S
C2383 C2384 1.415 . S
C2384 H2360 0.950 . S
C2384 C2379 1.363 . S
C2384 C2383 1.415 . S
C2385 H2361 0.951 . S
C2385 C2386 1.366 . S
C2385 C2387 1.388 . S
C2386 C2385 1.366 . S
C2386 C2390 1.385 . S
C2387 H2362 0.951 . S
C2387 C2385 1.388 . S
C2387 C2388 1.366 . S
C2388 C2387 1.366 . S
C2388 C2389 1.414 . S
C2388 C2391 1.499 . S
C2389 H2363 0.950 . S
C2389 C2388 1.414 . S
C2389 C2390 1.374 . S
C2390 H2364 0.950 . S
C2390 C2386 1.385 . S
C2390 C2389 1.374 . S
C2391 C2388 1.499 . S
C2391 C2392 1.373 . S
C2391 C2393 1.389 . S
C2392 H2365 0.950 . S
C2392 C2378 1.377 . S
C2392 C2391 1.373 . S
C2393 C2377 1.377 . S
C2393 C2391 1.389 . S
C2393 C2394 1.524 . S
C2394 C2393 1.524 . S
C2394 C2395 1.397 . S
C2394 C2399 1.363 . S
C2395 H2366 0.950 . S
C2395 C2394 1.397 . S
C2395 C2396 1.334 . S
C2396 H2367 0.950 . S
C2396 C2395 1.334 . S
C2396 C2397 1.287 . S
C2397 C2396 1.287 . S
C2397 C2398 1.524 . S
C2397 H2400 0.999 . S
C2398 H2368 0.950 . S
C2398 C2397 1.524 . S
C2398 C2399 1.415 . S
C2399 H2369 0.950 . S
C2399 C2394 1.363 . S
C2399 C2398 1.415 . S
H2400 C2397 0.999 . S
H2401 C2382 0.913 . S
H2402 C2420 0.951 . S
H2403 C2422 0.951 . S
H2404 C2424 0.950 . S
H2405 C2425 0.950 . S
H2406 C2427 0.950 . S
H2407 C2430 0.950 . S
H2408 C2431 0.950 . S
H2409 C2433 0.950 . S
H2410 C2434 0.950 . S
H2411 C2435 0.951 . S
H2412 C2437 0.951 . S
H2413 C2439 0.950 . S
H2414 C2440 0.950 . S
H2415 C2442 0.950 . S
H2416 C2445 0.950 . S
H2417 C2446 0.950 . S
H2418 C2448 0.950 . S
H2419 C2449 0.950 . S
C2420 H2402 0.951 . S
C2420 C2421 1.366 . S
C2420 C2422 1.388 . S
C2421 C2420 1.366 . S
C2421 C2425 1.385 . S
C2422 H2403 0.951 . S
C2422 C2420 1.388 . S
C2422 C2423 1.366 . S
C2423 C2422 1.366 . S
C2423 C2424 1.414 . S
C2423 C2426 1.499 . S
C2424 H2404 0.950 . S
C2424 C2423 1.414 . S
C2424 C2425 1.374 . S
C2425 H2405 0.950 . S
C2425 C2421 1.385 . S
C2425 C2424 1.374 . S
C2426 C2423 1.499 . S
C2426 C2427 1.373 . S
C2426 C2428 1.389 . S
C2427 H2406 0.950 . S
C2427 C2426 1.373 . S
C2427 C2443 1.377 . S
C2428 C2426 1.389 . S
C2428 C2429 1.524 . S
C2428 C2442 1.377 . S
C2429 C2428 1.524 . S
C2429 C2430 1.397 . S
C2429 C2434 1.363 . S
C2430 H2407 0.950 . S
C2430 C2429 1.397 . S
C2430 C2431 1.334 . S
C2431 H2408 0.950 . S
C2431 C2430 1.334 . S
C2431 C2432 1.287 . S
C2432 C2431 1.287 . S
C2432 C2433 1.524 . S
C2432 H2451 0.913 . S
C2433 H2409 0.950 . S
C2433 C2432 1.524 . S
C2433 C2434 1.415 . S
C2434 H2410 0.950 . S
C2434 C2429 1.363 . S
C2434 C2433 1.415 . S
C2435 H2411 0.951 . S
C2435 C2436 1.366 . S
C2435 C2437 1.388 . S
C2436 C2435 1.366 . S
C2436 C2440 1.385 . S
C2437 H2412 0.951 . S
C2437 C2435 1.388 . S
C2437 C2438 1.366 . S
C2438 C2437 1.366 . S
C2438 C2439 1.414 . S
C2438 C2441 1.499 . S
C2439 H2413 0.950 . S
C2439 C2438 1.414 . S
C2439 C2440 1.374 . S
C2440 H2414 0.950 . S
C2440 C2436 1.385 . S
C2440 C2439 1.374 . S
C2441 C2438 1.499 . S
C2441 C2442 1.373 . S
C2441 C2443 1.389 . S
C2442 H2415 0.950 . S
C2442 C2428 1.377 . S
C2442 C2441 1.373 . S
C2443 C2427 1.377 . S
C2443 C2441 1.389 . S
C2443 C2444 1.524 . S
C2444 C2443 1.524 . S
C2444 C2445 1.397 . S
C2444 C2449 1.363 . S
C2445 H2416 0.950 . S
C2445 C2444 1.397 . S
C2445 C2446 1.334 . S
C2446 H2417 0.950 . S
C2446 C2445 1.334 . S
C2446 C2447 1.287 . S
C2447 C2446 1.287 . S
C2447 C2448 1.524 . S
C2447 H2450 0.999 . S
C2448 H2418 0.950 . S
C2448 C2447 1.524 . S
C2448 C2449 1.415 . S
C2449 H2419 0.950 . S
C2449 C2444 1.363 . S
C2449 C2448 1.415 . S
H2450 C2447 0.999 . S
H2451 C2432 0.913 . S
H2452 C2470 0.951 . S
H2453 C2472 0.951 . S
H2454 C2474 0.950 . S
H2455 C2475 0.950 . S
H2456 C2477 0.950 . S
H2457 C2480 0.950 . S
H2458 C2481 0.950 . S
H2459 C2483 0.950 . S
H2460 C2484 0.950 . S
H2461 C2485 0.951 . S
H2462 C2487 0.951 . S
H2463 C2489 0.950 . S
H2464 C2490 0.950 . S
H2465 C2492 0.950 . S
H2466 C2495 0.950 . S
H2467 C2496 0.950 . S
H2468 C2498 0.950 . S
H2469 C2499 0.950 . S
C2470 H2452 0.951 . S
C2470 C2471 1.366 . S
C2470 C2472 1.388 . S
C2471 C2470 1.366 . S
C2471 C2475 1.385 . S
C2472 H2453 0.951 . S
C2472 C2470 1.388 . S
C2472 C2473 1.366 . S
C2473 C2472 1.366 . S
C2473 C2474 1.414 . S
C2473 C2476 1.499 . S
C2474 H2454 0.950 . S
C2474 C2473 1.414 . S
C2474 C2475 1.374 . S
C2475 H2455 0.950 . S
C2475 C2471 1.385 . S
C2475 C2474 1.374 . S
C2476 C2473 1.499 . S
C2476 C2477 1.373 . S
C2476 C2478 1.389 . S
C2477 H2456 0.950 . S
C2477 C2476 1.373 . S
C2477 C2493 1.377 . S
C2478 C2476 1.389 . S
C2478 C2479 1.524 . S
C2478 C2492 1.377 . S
C2479 C2478 1.524 . S
C2479 C2480 1.397 . S
C2479 C2484 1.363 . S
C2480 H2457 0.950 . S
C2480 C2479 1.397 . S
C2480 C2481 1.334 . S
C2481 H2458 0.950 . S
C2481 C2480 1.334 . S
C2481 C2482 1.287 . S
C2482 C2481 1.287 . S
C2482 C2483 1.524 . S
C2482 H2501 0.913 . S
C2483 H2459 0.950 . S
C2483 C2482 1.524 . S
C2483 C2484 1.415 . S
C2484 H2460 0.950 . S
C2484 C2479 1.363 . S
C2484 C2483 1.415 . S
C2485 H2461 0.951 . S
C2485 C2486 1.366 . S
C2485 C2487 1.388 . S
C2486 C2485 1.366 . S
C2486 C2490 1.385 . S
C2487 H2462 0.951 . S
C2487 C2485 1.388 . S
C2487 C2488 1.366 . S
C2488 C2487 1.366 . S
C2488 C2489 1.414 . S
C2488 C2491 1.499 . S
C2489 H2463 0.950 . S
C2489 C2488 1.414 . S
C2489 C2490 1.374 . S
C2490 H2464 0.950 . S
C2490 C2486 1.385 . S
C2490 C2489 1.374 . S
C2491 C2488 1.499 . S
C2491 C2492 1.373 . S
C2491 C2493 1.389 . S
C2492 H2465 0.950 . S
C2492 C2478 1.377 . S
C2492 C2491 1.373 . S
C2493 C2477 1.377 . S
C2493 C2491 1.389 . S
C2493 C2494 1.524 . S
C2494 C2493 1.524 . S
C2494 C2495 1.397 . S
C2494 C2499 1.363 . S
C2495 H2466 0.950 . S
C2495 C2494 1.397 . S
C2495 C2496 1.334 . S
C2496 H2467 0.950 . S
C2496 C2495 1.334 . S
C2496 C2497 1.287 . S
C2497 C2496 1.287 . S
C2497 C2498 1.524 . S
C2497 H2500 0.999 . S
C2498 H2468 0.950 . S
C2498 C2497 1.524 . S
C2498 C2499 1.415 . S
C2499 H2469 0.950 . S
C2499 C2494 1.363 . S
C2499 C2498 1.415 . S
H2500 C2497 0.999 . S
H2501 C2482 0.913 . S
H2502 C2520 0.951 . S
H2503 C2522 0.951 . S
H2504 C2524 0.950 . S
H2505 C2525 0.950 . S
H2506 C2527 0.950 . S
H2507 C2530 0.950 . S
H2508 C2531 0.950 . S
H2509 C2533 0.950 . S
H2510 C2534 0.950 . S
H2511 C2535 0.951 . S
H2512 C2537 0.951 . S
H2513 C2539 0.950 . S
H2514 C2540 0.950 . S
H2515 C2542 0.950 . S
H2516 C2545 0.950 . S
H2517 C2546 0.950 . S
H2518 C2548 0.950 . S
H2519 C2549 0.950 . S
C2520 H2502 0.951 . S
C2520 C2521 1.366 . S
C2520 C2522 1.388 . S
C2521 C2520 1.366 . S
C2521 C2525 1.385 . S
C2522 H2503 0.951 . S
C2522 C2520 1.388 . S
C2522 C2523 1.366 . S
C2523 C2522 1.366 . S
C2523 C2524 1.414 . S
C2523 C2526 1.499 . S
C2524 H2504 0.950 . S
C2524 C2523 1.414 . S
C2524 C2525 1.374 . S
C2525 H2505 0.950 . S
C2525 C2521 1.385 . S
C2525 C2524 1.374 . S
C2526 C2523 1.499 . S
C2526 C2527 1.373 . S
C2526 C2528 1.389 . S
C2527 H2506 0.950 . S
C2527 C2526 1.373 . S
C2527 C2543 1.377 . S
C2528 C2526 1.389 . S
C2528 C2529 1.524 . S
C2528 C2542 1.377 . S
C2529 C2528 1.524 . S
C2529 C2530 1.397 . S
C2529 C2534 1.363 . S
C2530 H2507 0.950 . S
C2530 C2529 1.397 . S
C2530 C2531 1.334 . S
C2531 H2508 0.950 . S
C2531 C2530 1.334 . S
C2531 C2532 1.287 . S
C2532 C2531 1.287 . S
C2532 C2533 1.524 . S
C2532 H2551 0.913 . S
C2533 H2509 0.950 . S
C2533 C2532 1.524 . S
C2533 C2534 1.415 . S
C2534 H2510 0.950 . S
C2534 C2529 1.363 . S
C2534 C2533 1.415 . S
C2535 H2511 0.951 . S
C2535 C2536 1.366 . S
C2535 C2537 1.388 . S
C2536 C2535 1.366 . S
C2536 C2540 1.385 . S
C2537 H2512 0.951 . S
C2537 C2535 1.388 . S
C2537 C2538 1.366 . S
C2538 C2537 1.366 . S
C2538 C2539 1.414 . S
C2538 C2541 1.499 . S
C2539 H2513 0.950 . S
C2539 C2538 1.414 . S
C2539 C2540 1.374 . S
C2540 H2514 0.950 . S
C2540 C2536 1.385 . S
C2540 C2539 1.374 . S
C2541 C2538 1.499 . S
C2541 C2542 1.373 . S
C2541 C2543 1.389 . S
C2542 H2515 0.950 . S
C2542 C2528 1.377 . S
C2542 C2541 1.373 . S
C2543 C2527 1.377 . S
C2543 C2541 1.389 . S
C2543 C2544 1.524 . S
C2544 C2543 1.524 . S
C2544 C2545 1.397 . S
C2544 C2549 1.363 . S
C2545 H2516 0.950 . S
C2545 C2544 1.397 . S
C2545 C2546 1.334 . S
C2546 H2517 0.950 . S
C2546 C2545 1.334 . S
C2546 C2547 1.287 . S
C2547 C2546 1.287 . S
C2547 C2548 1.524 . S
C2547 H2550 0.999 . S
C2548 H2518 0.950 . S
C2548 C2547 1.524 . S
C2548 C2549 1.415 . S
C2549 H2519 0.950 . S
C2549 C2544 1.363 . S
C2549 C2548 1.415 . S
H2550 C2547 0.999 . S
H2551 C2532 0.913 . S
H2552 C2570 0.951 . S
H2553 C2572 0.951 . S
H2554 C2574 0.950 . S
H2555 C2575 0.950 . S
H2556 C2577 0.950 . S
H2557 C2580 0.949 . S
H2558 C2581 0.950 . S
H2559 C2583 0.950 . S
H2560 C2584 0.950 . S
H2561 C2585 0.951 . S
H2562 C2587 0.951 . S
H2563 C2589 0.950 . S
H2564 C2590 0.950 . S
H2565 C2592 0.950 . S
H2566 C2595 0.950 . S
H2567 C2596 0.941 1_554 S
H2568 C2598 0.950 . S
H2569 C2599 0.950 . S
C2570 H2552 0.951 . S
C2570 C2571 1.366 . S
C2570 C2572 1.388 . S
C2571 C2570 1.366 . S
C2571 C2575 1.385 . S
C2572 H2553 0.951 . S
C2572 C2570 1.388 . S
C2572 C2573 1.366 . S
C2573 C2572 1.366 . S
C2573 C2574 1.414 . S
C2573 C2576 1.499 . S
C2574 H2554 0.950 . S
C2574 C2573 1.414 . S
C2574 C2575 1.374 . S
C2575 H2555 0.950 . S
C2575 C2571 1.385 . S
C2575 C2574 1.374 . S
C2576 C2573 1.499 . S
C2576 C2577 1.373 . S
C2576 C2578 1.389 1_556 S
C2577 H2556 0.950 . S
C2577 C2576 1.373 . S
C2577 C2593 1.377 1_556 S
C2578 C2576 1.389 1_554 S
C2578 C2579 1.524 . S
C2578 C2592 1.377 . S
C2579 C2578 1.524 . S
C2579 C2580 1.397 . S
C2579 C2584 1.363 . S
C2580 H2557 0.949 . S
C2580 C2579 1.397 . S
C2580 C2581 1.334 . S
C2581 H2558 0.950 . S
C2581 C2580 1.334 . S
C2581 C2582 1.287 . S
C2582 C2581 1.287 . S
C2582 C2583 1.524 . S
C2582 H2601 0.913 . S
C2583 H2559 0.950 . S
C2583 C2582 1.524 . S
C2583 C2584 1.415 . S
C2584 H2560 0.950 . S
C2584 C2579 1.363 . S
C2584 C2583 1.415 . S
C2585 H2561 0.951 . S
C2585 C2586 1.366 . S
C2585 C2587 1.388 . S
C2586 C2585 1.366 . S
C2586 C2590 1.385 . S
C2587 H2562 0.951 . S
C2587 C2585 1.388 . S
C2587 C2588 1.366 . S
C2588 C2587 1.366 . S
C2588 C2589 1.414 . S
C2588 C2591 1.499 . S
C2589 H2563 0.950 . S
C2589 C2588 1.414 . S
C2589 C2590 1.374 . S
C2590 H2564 0.950 . S
C2590 C2586 1.385 . S
C2590 C2589 1.374 . S
C2591 C2588 1.499 . S
C2591 C2592 1.373 . S
C2591 C2593 1.389 . S
C2592 H2565 0.950 . S
C2592 C2578 1.377 . S
C2592 C2591 1.373 . S
C2593 C2577 1.377 1_554 S
C2593 C2591 1.389 . S
C2593 C2594 1.524 1_554 S
C2594 C2593 1.524 1_556 S
C2594 C2595 1.397 1_556 S
C2594 C2599 1.363 . S
C2595 H2566 0.950 . S
C2595 C2594 1.397 1_554 S
C2595 C2596 1.328 1_554 S
C2596 H2567 0.941 1_556 S
C2596 C2595 1.328 1_556 S
C2596 C2597 1.304 . S
C2597 C2596 1.304 . S
C2597 C2598 1.524 . S
C2597 H2600 0.999 . S
C2598 H2568 0.950 . S
C2598 C2597 1.524 . S
C2598 C2599 1.415 . S
C2599 H2569 0.950 . S
C2599 C2594 1.363 . S
C2599 C2598 1.415 . S
H2600 C2597 0.999 . S
H2601 C2582 0.913 . S
H2602 C2620 0.951 . S
H2603 C2622 0.951 . S
H2604 C2624 0.950 . S
H2605 C2625 0.950 . S
H2606 C2627 0.950 . S
H2607 C2630 0.938 1_556 S
H2608 C2631 0.950 . S
H2609 C2633 0.950 . S
H2610 C2634 0.950 . S
H2611 C2635 0.951 . S
H2612 C2637 0.951 . S
H2613 C2639 0.950 . S
H2614 C2640 0.950 . S
H2615 C2642 0.950 . S
H2616 C2645 0.950 . S
H2617 C2646 0.937 1_554 S
H2618 C2648 0.950 . S
H2619 C2649 0.950 . S
C2620 H2602 0.951 . S
C2620 C2621 1.366 . S
C2620 C2622 1.388 . S
C2621 C2620 1.366 . S
C2621 C2625 1.385 . S
C2622 H2603 0.951 . S
C2622 C2620 1.388 . S
C2622 C2623 1.366 . S
C2623 C2622 1.366 . S
C2623 C2624 1.414 . S
C2623 C2626 1.499 . S
C2624 H2604 0.950 . S
C2624 C2623 1.414 . S
C2624 C2625 1.374 . S
C2625 H2605 0.950 . S
C2625 C2621 1.385 . S
C2625 C2624 1.374 . S
C2626 C2623 1.499 . S
C2626 C2627 1.373 . S
C2626 C2628 1.389 1_556 S
C2627 H2606 0.950 . S
C2627 C2626 1.373 . S
C2627 C2643 1.377 1_556 S
C2628 C2626 1.389 1_554 S
C2628 C2629 1.524 . S
C2628 C2642 1.377 . S
C2629 C2628 1.524 . S
C2629 C2630 1.397 . S
C2629 C2634 1.363 . S
C2630 H2607 0.938 1_554 S
C2630 C2629 1.397 . S
C2630 C2631 1.334 . S
C2631 H2608 0.950 . S
C2631 C2630 1.334 . S
C2631 C2632 1.287 . S
C2632 C2631 1.287 . S
C2632 C2633 1.524 . S
C2632 H2651 0.913 . S
C2633 H2609 0.950 . S
C2633 C2632 1.524 . S
C2633 C2634 1.415 . S
C2634 H2610 0.950 . S
C2634 C2629 1.363 . S
C2634 C2633 1.415 . S
C2635 H2611 0.951 . S
C2635 C2636 1.366 . S
C2635 C2637 1.388 . S
C2636 C2635 1.366 . S
C2636 C2640 1.385 . S
C2637 H2612 0.951 . S
C2637 C2635 1.388 . S
C2637 C2638 1.366 . S
C2638 C2637 1.366 . S
C2638 C2639 1.414 . S
C2638 C2641 1.499 . S
C2639 H2613 0.950 . S
C2639 C2638 1.414 . S
C2639 C2640 1.374 . S
C2640 H2614 0.950 . S
C2640 C2636 1.385 . S
C2640 C2639 1.374 . S
C2641 C2638 1.499 . S
C2641 C2642 1.373 . S
C2641 C2643 1.389 . S
C2642 H2615 0.950 . S
C2642 C2628 1.377 . S
C2642 C2641 1.373 . S
C2643 C2627 1.377 1_554 S
C2643 C2641 1.389 . S
C2643 C2644 1.524 1_554 S
C2644 C2643 1.524 1_556 S
C2644 C2645 1.397 1_556 S
C2644 C2649 1.363 . S
C2645 H2616 0.950 . S
C2645 C2644 1.397 1_554 S
C2645 C2646 1.326 1_554 S
C2646 H2617 0.937 1_556 S
C2646 C2645 1.326 1_556 S
C2646 C2647 1.312 . S
C2647 C2646 1.312 . S
C2647 C2648 1.524 . S
C2647 H2650 0.999 . S
C2648 H2618 0.950 . S
C2648 C2647 1.524 . S
C2648 C2649 1.415 . S
C2649 H2619 0.950 . S
C2649 C2644 1.363 . S
C2649 C2648 1.415 . S
H2650 C2647 0.999 . S
H2651 C2632 0.913 . S
H2652 C2670 0.951 . S
H2653 C2672 0.951 . S
H2654 C2674 0.950 . S
H2655 C2675 0.950 . S
H2656 C2677 0.950 . S
H2657 C2680 0.950 . S
H2658 C2681 0.950 . S
H2659 C2683 0.950 . S
H2660 C2684 0.950 . S
H2661 C2685 0.951 . S
H2662 C2687 0.951 . S
H2663 C2689 0.950 . S
H2664 C2690 0.950 . S
H2665 C2692 0.950 . S
H2666 C2695 0.950 . S
H2667 C2696 0.950 . S
H2668 C2698 0.950 . S
H2669 C2699 0.950 . S
C2670 H2652 0.951 . S
C2670 C2671 1.366 . S
C2670 C2672 1.388 . S
C2671 C2670 1.366 . S
C2671 C2675 1.385 . S
C2672 H2653 0.951 . S
C2672 C2670 1.388 . S
C2672 C2673 1.366 . S
C2673 C2672 1.366 . S
C2673 C2674 1.414 . S
C2673 C2676 1.499 . S
C2674 H2654 0.950 . S
C2674 C2673 1.414 . S
C2674 C2675 1.374 . S
C2675 H2655 0.950 . S
C2675 C2671 1.385 . S
C2675 C2674 1.374 . S
C2676 C2673 1.499 . S
C2676 C2677 1.373 . S
C2676 C2678 1.389 . S
C2677 H2656 0.950 . S
C2677 C2676 1.373 . S
C2677 C2693 1.331 1_554 S
C2678 C2676 1.389 . S
C2678 C2679 1.524 . S
C2678 C2692 1.377 1_554 S
C2679 C2678 1.524 . S
C2679 C2680 1.397 . S
C2679 C2684 1.363 . S
C2680 H2657 0.950 . S
C2680 C2679 1.397 . S
C2680 C2681 1.334 . S
C2681 H2658 0.950 . S
C2681 C2680 1.334 . S
C2681 C2682 1.287 . S
C2682 C2681 1.287 . S
C2682 C2683 1.524 . S
C2682 H2701 0.913 . S
C2683 H2659 0.950 . S
C2683 C2682 1.524 . S
C2683 C2684 1.415 . S
C2684 H2660 0.950 . S
C2684 C2679 1.363 . S
C2684 C2683 1.415 . S
C2685 H2661 0.951 . S
C2685 C2686 1.366 . S
C2685 C2687 1.388 . S
C2686 C2685 1.366 . S
C2686 C2690 1.385 . S
C2687 H2662 0.951 . S
C2687 C2685 1.388 . S
C2687 C2688 1.366 . S
C2688 C2687 1.366 . S
C2688 C2689 1.414 . S
C2688 C2691 1.499 . S
C2689 H2663 0.950 . S
C2689 C2688 1.414 . S
C2689 C2690 1.374 . S
C2690 H2664 0.950 . S
C2690 C2686 1.385 . S
C2690 C2689 1.374 . S
C2691 C2688 1.499 . S
C2691 C2692 1.373 . S
C2691 C2693 1.422 . S
C2692 H2665 0.950 . S
C2692 C2678 1.377 1_556 S
C2692 C2691 1.373 . S
C2693 C2677 1.331 1_556 S
C2693 C2691 1.422 . S
C2693 C2694 1.534 . S
C2694 C2693 1.534 . S
C2694 C2695 1.397 . S
C2694 C2699 1.363 . S
C2695 H2666 0.950 . S
C2695 C2694 1.397 . S
C2695 C2696 1.334 . S
C2696 H2667 0.950 . S
C2696 C2695 1.334 . S
C2696 C2697 1.287 . S
C2697 C2696 1.287 . S
C2697 C2698 1.524 . S
C2697 H2700 0.999 . S
C2698 H2668 0.950 . S
C2698 C2697 1.524 . S
C2698 C2699 1.415 . S
C2699 H2669 0.950 . S
C2699 C2694 1.363 . S
C2699 C2698 1.415 . S
H2700 C2697 0.999 . S
H2701 C2682 0.913 . S
H2702 C2720 0.951 . S
H2703 C2722 0.951 . S
H2704 C2724 0.950 . S
H2705 C2725 0.950 . S
H2706 C2727 0.950 . S
H2707 C2730 0.950 . S
H2708 C2731 0.958 . S
H2709 C2733 0.950 . S
H2710 C2734 0.950 . S
H2711 C2735 0.951 . S
H2712 C2737 0.951 . S
H2713 C2739 0.950 . S
H2714 C2740 0.950 . S
H2715 C2742 0.950 . S
H2716 C2745 0.950 1_556 S
H2717 C2746 0.950 . S
H2718 C2748 0.950 . S
H2719 C2749 0.950 . S
C2720 H2702 0.951 . S
C2720 C2721 1.366 . S
C2720 C2722 1.388 . S
C2721 C2720 1.366 . S
C2721 C2725 1.385 . S
C2722 H2703 0.951 . S
C2722 C2720 1.388 . S
C2722 C2723 1.366 . S
C2723 C2722 1.366 . S
C2723 C2724 1.414 . S
C2723 C2726 1.499 . S
C2724 H2704 0.950 . S
C2724 C2723 1.414 . S
C2724 C2725 1.374 . S
C2725 H2705 0.950 . S
C2725 C2721 1.385 . S
C2725 C2724 1.374 . S
C2726 C2723 1.499 . S
C2726 C2727 1.373 . S
C2726 C2728 1.389 . S
C2727 H2706 0.950 . S
C2727 C2726 1.373 . S
C2727 C2743 1.377 . S
C2728 C2726 1.389 . S
C2728 C2729 1.524 1_554 S
C2728 C2742 1.377 1_554 S
C2729 C2728 1.524 1_556 S
C2729 C2730 1.397 1_556 S
C2729 C2734 1.363 . S
C2730 H2707 0.950 . S
C2730 C2729 1.397 1_554 S
C2730 C2731 1.338 . S
C2731 H2708 0.958 . S
C2731 C2730 1.338 . S
C2731 C2732 1.275 1_554 S
C2732 C2731 1.275 1_556 S
C2732 C2733 1.524 . S
C2732 H2751 0.913 . S
C2733 H2709 0.950 . S
C2733 C2732 1.524 . S
C2733 C2734 1.415 . S
C2734 H2710 0.950 . S
C2734 C2729 1.363 . S
C2734 C2733 1.415 . S
C2735 H2711 0.951 . S
C2735 C2736 1.366 . S
C2735 C2737 1.388 . S
C2736 C2735 1.366 . S
C2736 C2740 1.385 . S
C2737 H2712 0.951 . S
C2737 C2735 1.388 . S
C2737 C2738 1.366 . S
C2738 C2737 1.366 . S
C2738 C2739 1.414 . S
C2738 C2741 1.499 . S
C2739 H2713 0.950 . S
C2739 C2738 1.414 . S
C2739 C2740 1.374 . S
C2740 H2714 0.950 . S
C2740 C2736 1.385 . S
C2740 C2739 1.374 . S
C2741 C2738 1.499 . S
C2741 C2742 1.373 . S
C2741 C2743 1.389 1_556 S
C2742 H2715 0.950 . S
C2742 C2728 1.377 1_556 S
C2742 C2741 1.373 . S
C2743 C2727 1.377 . S
C2743 C2741 1.389 1_554 S
C2743 C2744 1.524 . S
C2744 C2743 1.524 . S
C2744 C2745 1.397 . S
C2744 C2749 1.363 . S
C2745 H2716 0.950 1_554 S
C2745 C2744 1.397 . S
C2745 C2746 1.334 . S
C2746 H2717 0.950 . S
C2746 C2745 1.334 . S
C2746 C2747 1.287 . S
C2747 C2746 1.287 . S
C2747 C2748 1.524 . S
C2747 H2750 0.999 . S
C2748 H2718 0.950 . S
C2748 C2747 1.524 . S
C2748 C2749 1.415 . S
C2749 H2719 0.950 . S
C2749 C2744 1.363 . S
C2749 C2748 1.415 . S
H2750 C2747 0.999 . S
H2751 C2732 0.913 . S
C371 C5 2.359 . S
C386 C119 2.359 . S
C421 C141 2.359 . S
C436 C27 2.359 . S
C471 C49 2.358 . S
C486 C163 2.359 . S
C521 C75 2.358 . S
C536 C93 2.358 . S
C571 C293 2.359 . S
C586 C182 2.358 . S
C621 C315 2.358 . S
C636 C205 2.359 . S
C671 C227 2.359 . S
C686 C336 2.358 . S
C721 C249 2.359 . S
C736 C271 2.359 . S
C771 C4 1.608 . S
C786 C73 1.527 1_545 S
C821 C26 1.608 . S
C836 C6 1.527 . S
C871 C48 1.607 1_455 S
C886 C28 1.528 . S
C921 C74 1.608 1_545 S
C936 C50 1.526 1_455 S
C971 C92 1.608 1_655 S
C986 C117 1.527 1_565 S
C1021 C139 1.526 . S
C1036 C118 1.608 1_565 S
C1071 C140 1.608 . S
C1086 C161 1.526 . S
C1121 C94 1.527 1_655 S
C1136 C162 1.608 . S
C1171 C251 1.527 1_565 S
C1186 C180 1.607 . S
C1221 C206 1.608 . S
C1236 C181 1.527 . S
C1271 C228 1.608 1_655 S
C1286 C207 1.527 . S
C1321 C250 1.608 1_565 S
C1336 C229 1.526 1_655 S
C1371 C272 1.608 1_455 S
C1386 C295 1.526 1_545 S
C1421 C294 1.608 1_545 S
C1436 C317 1.526 . S
C1471 C316 1.607 . S
C1486 C335 1.528 . S
C1521 C334 1.608 . S
C1536 C273 1.527 1_455 S
C1571 C7 0.379 . S
C1586 C51 0.381 . S
C1621 C29 0.382 . S
C1636 C72 0.380 . S
C1671 C138 0.379 . S
C1686 C95 0.380 . S
C1721 C160 0.379 . S
C1736 C116 0.381 . S
C1771 C225 0.381 . S
C1786 C185 0.379 . S
C1821 C247 0.381 . S
C1836 C203 0.380 . S
C1871 C269 0.380 . S
C1886 C313 0.379 . S
C1921 C291 0.382 . S
C1936 C339 0.381 . S
C1971 C8 1.091 . S
C1986 C248 1.087 . S
C2021 C183 1.087 . S
C2036 C30 1.091 . S
C2071 C52 1.091 . S
C2086 C204 1.087 . S
C2121 C226 1.087 . S
C2136 C70 1.091 . S
C2171 C292 1.087 . S
C2186 C96 1.091 . S
C2221 C114 1.091 . S
C2236 C314 1.087 . S
C2271 C337 1.087 . S
C2286 C136 1.091 . S
C2321 C158 1.091 . S
C2336 C270 1.087 . S
C2371 C184 1.091 . S
C2386 C71 1.087 . S
C2421 C202 1.091 . S
C2436 C9 1.087 . S
C2471 C31 1.087 . S
C2486 C224 1.091 . S
C2521 C246 1.091 . S
C2536 C53 1.087 . S
C2571 C268 1.091 . S
C2586 C115 1.087 . S
C2621 C290 1.091 . S
C2636 C137 1.087 . S
C2671 C159 1.087 . S
C2686 C312 1.091 . S
C2721 C97 1.087 . S
C2736 C338 1.091 . S
