# Generated by pormake.
# Topology snz, (6)-cn, num edge types: 1
# Building blocks:
#     Node 0, Type 0, BuildingBlock: PAMTUU_clean_sbu_0, # of connection points: 6
#     Node 1, Type 0, BuildingBlock: PAMTUU_clean_sbu_0, # of connection points: 6
#     Node 2, Type 0, BuildingBlock: PAMTUU_clean_sbu_0, # of connection points: 6
#     Node 3, Type 0, BuildingBlock: PAMTUU_clean_sbu_0, # of connection points: 6
#     Node 4, Type 0, BuildingBlock: PAMTUU_clean_sbu_0, # of connection points: 6
#     Node 5, Type 0, BuildingBlock: PAMTUU_clean_sbu_0, # of connection points: 6
#     Node 6, Type 0, BuildingBlock: PAMTUU_clean_sbu_0, # of connection points: 6
#     Node 7, Type 0, BuildingBlock: PAMTUU_clean_sbu_0, # of connection points: 6
#     Node 8, Type 0, BuildingBlock: PAMTUU_clean_sbu_0, # of connection points: 6
#     Edge 9, Type (0, 0), BuildingBlock: ZUJKAS_clean_linker_0, # of connection points: 2
#     Edge 10, Type (0, 0), BuildingBlock: ZUJKAS_clean_linker_0, # of connection points: 2
#     Edge 11, Type (0, 0), BuildingBlock: ZUJKAS_clean_linker_0, # of connection points: 2
#     Edge 12, Type (0, 0), BuildingBlock: ZUJKAS_clean_linker_0, # of connection points: 2
#     Edge 13, Type (0, 0), BuildingBlock: ZUJKAS_clean_linker_0, # of connection points: 2
#     Edge 14, Type (0, 0), BuildingBlock: ZUJKAS_clean_linker_0, # of connection points: 2
#     Edge 15, Type (0, 0), BuildingBlock: ZUJKAS_clean_linker_0, # of connection points: 2
#     Edge 16, Type (0, 0), BuildingBlock: ZUJKAS_clean_linker_0, # of connection points: 2
#     Edge 17, Type (0, 0), BuildingBlock: ZUJKAS_clean_linker_0, # of connection points: 2
#     Edge 18, Type (0, 0), BuildingBlock: ZUJKAS_clean_linker_0, # of connection points: 2
#     Edge 19, Type (0, 0), BuildingBlock: ZUJKAS_clean_linker_0, # of connection points: 2
#     Edge 20, Type (0, 0), BuildingBlock: ZUJKAS_clean_linker_0, # of connection points: 2
#     Edge 21, Type (0, 0), BuildingBlock: ZUJKAS_clean_linker_0, # of connection points: 2
#     Edge 22, Type (0, 0), BuildingBlock: ZUJKAS_clean_linker_0, # of connection points: 2
#     Edge 23, Type (0, 0), BuildingBlock: ZUJKAS_clean_linker_0, # of connection points: 2
#     Edge 24, Type (0, 0), BuildingBlock: ZUJKAS_clean_linker_0, # of connection points: 2
#     Edge 25, Type (0, 0), BuildingBlock: ZUJKAS_clean_linker_0, # of connection points: 2
#     Edge 26, Type (0, 0), BuildingBlock: ZUJKAS_clean_linker_0, # of connection points: 2
#     Edge 27, Type (0, 0), BuildingBlock: ZUJKAS_clean_linker_0, # of connection points: 2
#     Edge 28, Type (0, 0), BuildingBlock: ZUJKAS_clean_linker_0, # of connection points: 2
#     Edge 29, Type (0, 0), BuildingBlock: ZUJKAS_clean_linker_0, # of connection points: 2
#     Edge 30, Type (0, 0), BuildingBlock: ZUJKAS_clean_linker_0, # of connection points: 2
#     Edge 31, Type (0, 0), BuildingBlock: ZUJKAS_clean_linker_0, # of connection points: 2
#     Edge 32, Type (0, 0), BuildingBlock: ZUJKAS_clean_linker_0, # of connection points: 2
#     Edge 33, Type (0, 0), BuildingBlock: ZUJKAS_clean_linker_0, # of connection points: 2
#     Edge 34, Type (0, 0), BuildingBlock: ZUJKAS_clean_linker_0, # of connection points: 2
#     Edge 35, Type (0, 0), BuildingBlock: ZUJKAS_clean_linker_0, # of connection points: 2
# Relax obj value: 0.084
# Max RMSD: 0.245
# Mean RMSD: 0.144
data_MOF--net-snz--node1-PAMTUU_clean_sbu_0--edge1-ZUJKAS_clean_linker_0
_symmetry_space_group_name_H-M    P1
_symmetry_Int_Tables_number       1
_symmetry_cell_setting            triclinic
loop_
_symmetry_equiv_pos_as_xyz
'x, y, z'
_cell_length_a     96.455814
_cell_length_b     72.615406
_cell_length_c     18.525896
_cell_angle_alpha  99.668551
_cell_angle_beta   100.72467
_cell_angle_gamma 121.27481
loop_
_atom_site_label
_atom_site_type_symbol
_atom_site_fract_x
_atom_site_fract_y
_atom_site_fract_z
_atom_type_partial_charge
Tb0 Tb 0.05083 0.51548 0.97874 0.0
Tb1 Tb 0.08225 0.50893 0.0371 0.0
C2 C 0.05958 0.50783 0.13455 0.0
C3 C 0.02111 0.53487 0.92397 0.0
C4 C 1.00685 0.55923 0.89148 0.0
C5 C 1.00223 0.54649 0.94259 0.0
C6 C 1.00933 0.53457 0.95876 0.0
C7 C 0.02603 0.54773 0.87345 0.0
C8 C 0.01897 0.5599 0.8575 0.0
C9 C 0.02658 0.51989 0.93751 0.0
O10 O 0.07312 0.54907 0.05084 0.0
O11 O 0.09449 0.54424 0.03966 0.0
O12 O 0.07202 0.49589 0.91148 0.0
O13 O 0.06526 0.5212 0.89891 0.0
O14 O 0.09459 0.50075 0.11829 0.0
O15 O 0.10475 0.51201 0.02793 0.0
O16 O 0.05895 0.47481 0.00193 0.0
O17 O 0.03884 0.47907 0.9316 0.0
O18 O 0.0473 0.50106 0.07144 0.0
O19 O 0.07557 0.51858 0.13584 0.0
C20 C 0.0892 0.55743 0.0557 0.0
O21 O 0.0328 0.51378 0.88901 0.0
O22 O 0.03431 0.52344 0.00912 0.0
C23 C 0.06786 0.50608 0.86882 0.0
C24 C 0.11018 0.4868 0.07496 0.0
C25 C 0.12228 0.45856 0.07144 0.0
C26 C 0.12495 0.4719 0.02175 0.0
C27 C 0.11904 0.48591 0.02371 0.0
C28 C 0.10703 0.47293 0.12295 0.0
C29 C 0.11295 0.45894 0.12105 0.0
C30 C 0.10609 0.50398 0.08495 0.0
C31 C 0.0435 0.46631 0.95497 0.0
H32 H 0.99267 0.54505 0.96845 0.0
H33 H 1.00519 0.52449 -0.00293 0.0
H34 H 0.03506 0.54812 0.84558 0.0
H35 H 0.02293 0.56971 0.8184 0.0
H36 H 0.13186 0.47178 0.98197 0.0
H37 H 0.12185 0.49652 0.98652 0.0
H38 H 0.10047 0.47343 0.16402 0.0
H39 H 0.11083 0.44914 0.16084 0.0
Tb40 Tb 0.55622 0.51137 0.08319 0.0
Tb41 Tb 0.58804 0.50799 0.05936 0.0
C42 C 0.56272 0.50627 0.92527 0.0
C43 C 0.51451 0.498 0.11315 0.0
C44 C 0.4802 0.47348 0.11306 0.0
C45 C 0.48385 0.47524 0.04342 0.0
C46 C 0.50085 0.48743 0.04346 0.0
C47 C 0.51082 0.49553 0.18218 0.0
C48 C 0.49389 0.48336 0.18213 0.0
C49 C 0.53261 0.51309 0.11707 0.0
O50 O 0.54628 0.47567 0.06157 0.0
O51 O 0.56517 0.47328 0.00674 0.0
O52 O 0.58126 0.49565 0.15463 0.0
O53 O 0.57542 0.52129 0.19125 0.0
O54 O 0.59848 0.49765 0.98568 0.0
O55 O 0.61234 0.51477 0.10847 0.0
O56 O 0.59936 0.5439 0.11692 0.0
O57 O 0.5757 0.54529 0.08512 0.0
O58 O 0.55081 0.49875 0.95873 0.0
O59 O 0.57896 0.51741 0.96609 0.0
C60 C 0.55062 0.46374 0.02229 0.0
O61 O 0.54363 0.51156 0.16354 0.0
O62 O 0.53612 0.51567 0.05318 0.0
C63 C 0.57862 0.50675 0.20703 0.0
C64 C 0.62906 0.51936 0.02473 0.0
C65 C 0.65998 0.53848 0.98889 0.0
C66 C 0.65957 0.53523 0.0614 0.0
C67 C 0.6443 0.52579 0.07899 0.0
C68 C 0.6295 0.52327 0.9531 0.0
C69 C 0.64482 0.53278 0.93548 0.0
C70 C 0.61278 0.50648 0.04132 0.0
C71 C 0.59244 0.55541 0.10999 0.0
H72 H 0.4736 0.46793 0.98927 0.0
H73 H 0.50327 0.48905 0.98932 0.0
H74 H 0.52107 0.5035 0.23685 0.0
H75 H 0.49154 0.48198 0.23656 0.0
H76 H 0.67088 0.53912 0.10364 0.0
H77 H 0.64427 0.52274 0.13427 0.0
H78 H 0.61797 0.51849 0.90989 0.0
H79 H 0.64472 0.53539 0.87958 0.0
Tb80 Tb 0.60591 0.06897 0.16647 0.0
Tb81 Tb 0.56449 0.0201 0.15592 0.0
C82 C 0.59538 0.06497 0.2963 0.0
C83 C 0.647 0.09994 0.11613 0.0
C84 C 0.67565 0.10718 0.07288 0.0
C85 C 0.67631 0.12533 0.11865 0.0
C86 C 0.66217 0.12172 0.13986 0.0
C87 C 0.64624 0.08154 0.07154 0.0
C88 C 0.66049 0.08515 0.05017 0.0
C89 C 0.63249 0.09741 0.13987 0.0
O90 O 0.60943 0.04309 0.19498 0.0
O91 O 0.58213 1.00982 0.17362 0.0
O92 O 0.56199 0.01765 0.03589 0.0
O93 O 0.59115 0.03715 0.06943 0.0
O94 O 0.55249 0.01759 0.24017 0.0
O95 O 0.54216 0.98833 0.13885 0.0
O96 O 0.55928 0.04337 0.12015 0.0
O97 O 0.58648 0.07669 0.141 0.0
O98 O 0.60902 0.08165 0.29032 0.0
O99 O 0.5866 0.05022 0.22883 0.0
C100 C 0.5991 0.02149 0.19168 0.0
O101 O 0.6172 0.08463 0.08827 0.0
O102 O 0.63226 0.0947 0.20753 0.0
C103 C 0.57616 0.02874 0.01813 0.0
C104 C 0.52219 0.99031 0.19324 0.0
C105 C 0.48872 0.97626 0.19135 0.0
C106 C 0.4917 0.9608 0.15364 0.0
C107 C 0.50824 0.96772 0.15495 0.0
C108 C 0.51921 1.00601 0.22918 0.0
C109 C 0.50263 0.99905 0.22812 0.0
C110 C 0.53976 0.99652 0.20066 0.0
C111 C 0.56942 0.06459 0.12066 0.0
H112 H 0.68783 0.14241 0.13851 0.0
H113 H 0.66307 0.13609 0.17491 0.0
H114 H 0.63466 0.06452 0.05296 0.0
H115 H 0.65953 0.07081 0.01463 0.0
H116 H 0.48124 0.94321 0.1236 0.0
H117 H 0.51017 0.95524 0.12726 0.0
H118 H 0.52971 0.02355 0.25979 0.0
H119 H 0.50082 0.01136 0.25832 0.0
Tb120 Tb 0.71637 0.84748 0.30609 0.0
Tb121 Tb 0.74839 0.84067 0.34875 0.0
C122 C 0.73656 0.85567 0.47308 0.0
C123 C 0.68873 0.87032 0.27551 0.0
C124 C 0.67717 0.89915 0.27718 0.0
C125 C 0.67708 0.88913 0.33609 0.0
C126 C 0.68271 0.87481 0.33506 0.0
C127 C 0.68934 0.8809 0.21801 0.0
C128 C 0.68367 0.89515 0.2189 0.0
C129 C 0.69234 0.85266 0.26759 0.0
O130 O 0.73949 0.88106 0.32811 0.0
O131 O 0.76102 0.87731 0.38578 0.0
O132 O 0.74844 0.85137 0.24769 0.0
O133 O 0.71966 0.83473 0.20091 0.0
O134 O 0.76896 0.84541 0.43194 0.0
O135 O 0.76254 0.82934 0.30969 0.0
O136 O 0.72512 0.80665 0.29213 0.0
O137 O 0.70459 0.81272 0.31004 0.0
O138 O 0.72988 0.86342 0.42949 0.0
O139 O 0.73794 0.83935 0.4423 0.0
C140 C 0.75564 0.88973 0.36623 0.0
O141 O 0.70212 0.85364 0.22624 0.0
O142 O 0.69548 0.8468 0.32838 0.0
C143 C 0.73468 0.84391 0.19112 0.0
C144 C 0.77807 0.82121 0.3979 0.0
C145 C 0.79264 0.79806 0.44066 0.0
C146 C 0.79627 0.80823 0.38245 0.0
C147 C 0.78907 0.81969 0.36145 0.0
C148 C 0.77382 0.81038 0.45419 0.0
C149 C 0.78103 0.79877 0.47525 0.0
C150 C 0.77267 0.83589 0.37966 0.0
C151 C 0.70945 0.79905 0.29296 0.0
H152 H 0.67241 0.89209 0.38257 0.0
H153 H 0.6819 0.86678 0.37982 0.0
H154 H 0.69364 0.87756 0.17053 0.0
H155 H 0.68373 0.90226 0.17195 0.0
H156 H 0.8049 0.8076 0.35375 0.0
H157 H 0.7925 0.82796 0.31794 0.0
H158 H 0.76533 0.81137 0.48312 0.0
H159 H 0.77804 0.79108 0.52038 0.0
Tb160 Tb 0.20818 0.8488 0.28602 0.0
Tb161 Tb 0.24372 0.84377 0.25617 0.0
C162 C 0.2131 0.84457 0.1416 0.0
C163 C 0.17169 0.83935 0.35874 0.0
C164 C 0.13833 0.81872 0.37028 0.0
C165 C 0.14352 0.83279 0.32342 0.0
C166 C 0.16002 0.84306 0.31804 0.0
C167 C 0.16639 0.82485 0.40414 0.0
C168 C 0.14989 0.81461 0.40972 0.0
C169 C 0.1897 0.85219 0.35951 0.0
O170 O 0.19737 0.81238 0.241 0.0
O171 O 0.22048 0.80948 0.23032 0.0
O172 O 0.25046 0.84654 0.37993 0.0
O173 O 0.22942 0.84882 0.34245 0.0
O174 O 0.25421 0.85076 0.1666 0.0
O175 O 0.25875 0.83189 0.23607 0.0
O176 O 0.25473 0.87995 0.30585 0.0
O177 O 0.23167 0.88308 0.31427 0.0
O178 O 0.20185 0.84686 0.16314 0.0
O179 O 0.22227 0.84331 0.19874 0.0
C180 C 0.20417 0.80067 0.22688 0.0
O181 O 0.19865 0.84405 0.37916 0.0
O182 O 0.1928 0.8604 0.30227 0.0
C183 C 0.23914 0.8488 0.40091 0.0
C184 C 0.28137 0.85625 0.19217 0.0
C185 C 0.31619 0.88076 0.20011 0.0
C186 C 0.31096 0.8701 0.25583 0.0
C187 C 0.29377 0.85797 0.25193 0.0
C188 C 0.28662 0.86735 0.13745 0.0
C189 C 0.30387 0.87955 0.14151 0.0
C190 C 0.26293 0.84217 0.18416 0.0
C191 C 0.24809 0.89179 0.32065 0.0
H192 H 0.13489 0.83608 0.2914 0.0
H193 H 0.16373 0.85433 0.2832 0.0
H194 H 0.17514 0.82188 0.43718 0.0
H195 H 0.14644 0.80416 0.44728 0.0
H196 H 0.32018 0.87103 0.30245 0.0
H197 H 0.2902 0.84973 0.29529 0.0
H198 H 0.27733 0.86623 0.09061 0.0
H199 H 0.30745 0.88744 0.09737 0.0
Tb200 Tb 0.23402 0.33607 0.18673 0.0
Tb201 Tb 0.19551 0.29239 0.17711 0.0
C202 C 0.22077 0.32984 0.32645 0.0
C203 C 0.27938 0.37198 0.18449 0.0
C204 C 0.31113 0.38288 0.16752 0.0
C205 C 0.31001 0.38987 0.24057 0.0
C206 C 0.29438 0.38461 0.24877 0.0
C207 C 0.28026 0.36416 0.11171 0.0
C208 C 0.29598 0.36957 0.10335 0.0
C209 C 0.26337 0.36857 0.19426 0.0
O210 O 0.23704 0.30857 0.18345 0.0
O211 O 0.21391 0.28436 0.21887 0.0
O212 O 0.19815 0.2804 0.06857 0.0
O213 O 0.22097 0.3146 0.06675 0.0
O214 O 0.18208 0.27302 0.24273 0.0
O215 O 0.16899 0.2676 0.12506 0.0
O216 O 0.191 0.31456 0.12704 0.0
O217 O 0.21768 0.3485 0.18188 0.0
O218 O 0.23369 0.33379 0.30236 0.0
O219 O 0.20608 0.32175 0.27553 0.0
C220 C 0.22892 0.29143 0.20943 0.0
O221 O 0.24986 0.35785 0.13288 0.0
O222 O 0.25949 0.36248 0.25374 0.0
C223 C 0.2084 0.29299 0.03376 0.0
C224 C 0.15284 0.2608 0.21231 0.0
C225 C 0.12384 0.25212 0.25579 0.0
C226 C 0.12238 0.24539 0.17743 0.0
C227 C 0.13669 0.24966 0.15607 0.0
C228 C 0.15447 0.26815 0.29063 0.0
C229 C 0.14015 0.2639 0.31203 0.0
C230 C 0.16729 0.26263 0.18876 0.0
C231 C 0.20105 0.33682 0.14588 0.0
H232 H 0.32129 0.39968 0.29164 0.0
H233 H 0.29409 0.39083 0.30549 0.0
H234 H 0.26893 0.35435 0.06084 0.0
H235 H 0.29632 0.364 0.0461 0.0
H236 H 0.11005 0.23604 0.1325 0.0
H237 H 0.13499 0.2436 0.09542 0.0
H238 H 0.16672 0.27676 0.33569 0.0
H239 H 0.14185 0.2697 0.37282 0.0
Tb240 Tb 0.4132 0.17057 0.69349 0.0
Tb241 Tb 0.3857 0.1838 0.626 0.0
C242 C 0.42468 0.22136 0.7332 0.0
C243 C 0.44347 0.15463 0.79145 0.0
C244 C 0.46589 0.14487 0.87016 0.0
C245 C 0.47241 0.16606 0.8578 0.0
C246 C 0.46134 0.17085 0.81856 0.0
C247 C 0.43695 0.13399 0.80774 0.0
C248 C 0.44799 0.1292 0.84669 0.0
C249 C 0.43199 0.15689 0.73351 0.0
O250 O 0.39938 0.16916 0.77526 0.0
O251 O 0.39026 0.19191 0.74901 0.0
O252 O 0.37063 0.14806 0.61703 0.0
O253 O 0.39062 0.14088 0.60317 0.0
O254 O 0.38003 0.20027 0.55382 0.0
O255 O 0.36234 0.18081 0.61268 0.0
O256 O 0.39168 0.17069 0.53218 0.0
O257 O 0.41903 0.18331 0.59775 0.0
O258 O 0.4266 0.20642 0.75689 0.0
O259 O 0.41108 0.21563 0.67754 0.0
C260 C 0.39313 0.18107 0.79312 0.0
O261 O 0.41572 0.14576 0.7258 0.0
O262 O 0.43759 0.17616 0.71981 0.0
C263 C 0.37468 0.13374 0.59654 0.0
C264 C 0.35343 0.19845 0.53068 0.0
C265 C 0.33064 0.20926 0.4654 0.0
C266 C 0.32531 0.19213 0.50089 0.0
C267 C 0.33659 0.18684 0.53332 0.0
C268 C 0.3587 0.21526 0.49399 0.0
C269 C 0.34746 0.22065 0.46191 0.0
C270 C 0.36542 0.19304 0.56601 0.0
C271 C 0.40742 0.17834 0.53457 0.0
H272 H 0.48611 0.1785 0.87458 0.0
H273 H 0.46684 0.18677 0.80594 0.0
H274 H 0.42329 0.12096 0.78676 0.0
H275 H 0.44248 0.11287 0.85637 0.0
H276 H 0.31252 0.18314 0.50521 0.0
H277 H 0.33213 0.17369 0.56077 0.0
H278 H 0.37158 0.22442 0.49062 0.0
H279 H 0.35193 0.23369 0.43403 0.0
Tb280 Tb 0.91449 0.17552 0.64494 0.0
Tb281 Tb 0.88394 0.18098 0.68215 0.0
C282 C 0.87681 0.13318 0.61625 0.0
C283 C 0.95136 0.1794 0.58092 0.0
C284 C 0.97893 0.19356 0.52069 0.0
C285 C 0.97461 0.17719 0.55929 0.0
C286 C 0.96107 0.17031 0.5892 0.0
C287 C 0.95544 0.1957 0.54228 0.0
C288 C 0.96916 0.20277 0.51252 0.0
C289 C 0.93646 0.17008 0.60876 0.0
O290 O 0.90818 0.19063 0.56478 0.0
O291 O 0.88027 0.17571 0.55899 0.0
O292 O 0.90486 0.21442 0.68747 0.0
O293 O 0.92732 0.21058 0.71706 0.0
O294 O 0.85831 0.17072 0.6526 0.0
O295 O 0.87752 0.19888 0.75487 0.0
O296 O 0.89948 0.18337 0.78883 0.0
O297 O 0.90991 0.16324 0.7429 0.0
O298 O 0.89009 0.14238 0.59147 0.0
O299 O 0.87396 0.14543 0.66395 0.0
C300 C 0.89266 0.18445 0.52884 0.0
O301 O 0.93856 0.18033 0.6789 0.0
O302 O 0.92171 0.16283 0.56007 0.0
C303 C 0.92138 0.22331 0.71515 0.0
C304 C 0.84878 0.17849 0.75643 0.0
C305 C 0.82225 0.16521 0.82317 0.0
C306 C 0.83322 0.18797 0.82656 0.0
C307 C 0.84628 0.19448 0.7935 0.0
C308 C 0.83842 0.1559 0.75582 0.0
C309 C 0.82527 0.14933 0.78905 0.0
C310 C 0.86131 0.18575 0.71397 0.0
C311 C 0.90611 0.17174 0.7979 0.0
H312 H 0.98146 0.16924 0.5652 0.0
H313 H 0.95796 0.15746 0.61774 0.0
H314 H 0.94798 0.20279 0.53465 0.0
H315 H 0.97216 0.21551 0.48362 0.0
H316 H 0.83155 0.20077 0.85381 0.0
H317 H 0.85415 0.21201 0.795 0.0
H318 H 0.84013 0.14323 0.72779 0.0
H319 H 0.81706 0.13165 0.78525 0.0
Tb320 Tb 0.87781 0.65223 0.65932 0.0
Tb321 Tb 0.91547 0.69697 0.66618 0.0
C322 C 0.91183 0.65394 0.70002 0.0
C323 C 0.83569 0.61467 0.68891 0.0
C324 C 0.80892 0.60555 0.75065 0.0
C325 C 0.80805 0.58791 0.7001 0.0
C326 C 0.82127 0.59245 0.66955 0.0
C327 C 0.83688 0.63242 0.74029 0.0
C328 C 0.82359 0.62789 0.77103 0.0
C329 C 0.84921 0.61873 0.65443 0.0
O330 O 0.89069 0.67339 0.7793 0.0
O331 O 0.91316 0.70795 0.77741 0.0
O332 O 0.8955 0.7019 0.62187 0.0
O333 O 0.87507 0.68011 0.67349 0.0
O334 O 0.94183 0.72292 0.71411 0.0
O335 O 0.92713 0.71762 0.6 0.0
O336 O 0.90638 0.66798 0.56902 0.0
O337 O 0.878 0.6526 0.54173 0.0
O338 O 0.89515 0.64145 0.66489 0.0
O339 O 0.92161 0.67603 0.71489 0.0
C340 C 0.90321 0.695 0.81266 0.0
O341 O 0.85113 0.63006 0.60524 0.0
O342 O 0.86391 0.62534 0.70167 0.0
C343 C 0.88171 0.6961 0.64135 0.0
C344 C 0.95653 0.73344 0.62307 0.0
C345 C 0.98432 0.74365 0.56824 0.0
C346 C 0.98151 0.76041 0.59383 0.0
C347 C 0.96781 0.75535 0.62107 0.0
C348 C 0.95891 0.71635 0.59603 0.0
C349 C 0.97274 0.72143 0.56883 0.0
C350 C 0.94226 0.72911 0.65197 0.0
C351 C 0.89116 0.65737 0.51826 0.0
H352 H 0.79716 0.57048 0.68433 0.0
H353 H 0.8202 0.57854 0.63048 0.0
H354 H 0.84798 0.64973 0.75609 0.0
H355 H 0.82464 0.64189 0.80943 0.0
H356 H 0.98986 0.77753 0.59247 0.0
H357 H 0.966 0.76865 0.64062 0.0
H358 H 0.95017 0.69921 0.59638 0.0
H359 H 0.97456 0.70813 0.54975 0.0
H360 H 0.05126 0.4622 0.77883 0.0
H361 H 0.03912 0.4473 0.63691 0.0
H362 H 0.05998 0.51552 0.62826 0.0
H363 H 0.07139 0.5302 0.76927 0.0
H364 H 0.02624 0.48444 0.53168 0.0
H365 H 0.06659 0.45215 0.49125 0.0
H366 H 0.05254 0.44155 0.54765 0.0
H367 H 0.07119 0.47029 0.58438 0.0
C368 C 0.05344 0.47395 0.74615 0.0
C369 C 0.0625 0.49737 0.78429 0.0
C370 C 0.0464 0.46542 0.66539 0.0
C371 C 0.04871 0.48032 0.62219 0.0
C372 C 0.05791 0.5037 0.66064 0.0
H373 H 0.08069 0.52159 0.28166 0.0
H374 H 0.07254 0.50707 0.38753 0.0
C375 C 0.06461 0.51213 0.74096 0.0
C376 C 0.04257 0.47249 0.53676 0.0
H377 H 0.05616 0.46122 0.38889 0.0
C378 C 0.0323 0.47867 0.49934 0.0
C379 C 0.05016 0.46439 0.49467 0.0
C380 C 0.06076 0.45669 0.5311 0.0
C381 C 0.0316 0.48029 0.42464 0.0
C382 C 0.04111 0.47506 0.38662 0.0
C383 C 0.04924 0.46569 0.41955 0.0
C384 C 0.04557 0.4832 0.32127 0.0
C385 C 0.02227 0.48989 0.39062 0.0
C386 C 0.03305 0.4747 0.24964 0.0
C387 C 0.03763 0.48325 0.1897 0.0
C388 C 0.05484 0.5002 0.2002 0.0
C389 C 0.06735 0.50861 0.27199 0.0
C390 C 0.06272 0.50022 0.33215 0.0
H391 H 0.01667 0.49478 0.43085 0.0
H392 H 0.03116 0.50506 0.37576 0.0
H393 H 0.01172 0.47705 0.33654 0.0
H394 H 0.0198 0.46138 0.2399 0.0
H395 H 0.02769 0.4762 0.13461 0.0
H396 H 0.53141 0.47298 0.81444 0.0
H397 H 0.52589 0.45948 0.67414 0.0
H398 H 0.57844 0.51141 0.70519 0.0
H399 H 0.584 0.52502 0.84325 0.0
H400 H 0.53326 0.48709 0.56169 0.0
H401 H 0.56954 0.44834 0.59326 0.0
H402 H 0.55982 0.45246 0.66346 0.0
H403 H 0.58033 0.47554 0.66525 0.0
C404 C 0.54167 0.48172 0.79091 0.0
C405 C 0.55818 0.49998 0.84001 0.0
C406 C 0.53853 0.47386 0.71108 0.0
C407 C 0.5519 0.48412 0.68005 0.0
C408 C 0.56807 0.50295 0.72848 0.0
H409 H 0.58488 0.53281 0.34778 0.0
H410 H 0.57445 0.51976 0.45189 0.0
C411 C 0.57119 0.5108 0.80742 0.0
C412 C 0.54953 0.47605 0.59711 0.0
H413 H 0.57044 0.46449 0.48707 0.0
C414 C 0.54084 0.48131 0.54419 0.0
C415 C 0.55908 0.468 0.57372 0.0
C416 C 0.56758 0.46051 0.62671 0.0
C417 C 0.54331 0.48152 0.47197 0.0
C418 C 0.55497 0.47681 0.45363 0.0
C419 C 0.56184 0.46865 0.50216 0.0
C420 C 0.56238 0.48417 0.39256 0.0
C421 C 0.53445 0.48845 0.41811 0.0
C422 C 0.5599 0.46857 0.32694 0.0
C423 C 0.56619 0.4761 0.26798 0.0
C424 C 0.57494 0.49927 0.27419 0.0
C425 C 0.5781 0.51488 0.3416 0.0
C426 C 0.57202 0.50741 0.4006 0.0
H427 H 0.52232 0.48457 0.42783 0.0
H428 H 0.54296 0.50703 0.42909 0.0
H429 H 0.53158 0.47972 0.3566 0.0
H430 H 0.55261 0.45059 0.32016 0.0
H431 H 0.56341 0.4637 0.21591 0.0
H432 H 0.55249 0.03026 0.91757 0.0
H433 H 0.55357 0.03823 0.79453 0.0
H434 H 0.59931 0.0391 0.81875 0.0
H435 H 0.59874 0.03233 0.94315 0.0
H436 H 0.6036 0.07387 0.77901 0.0
H437 H 0.54043 0.99795 0.58448 0.0
H438 H 0.53903 0.01468 0.66204 0.0
H439 H 0.54927 1.00049 0.68319 0.0
C440 C 0.56257 0.03171 0.89566 0.0
C441 C 0.57541 0.03038 0.93931 0.0
C442 C 0.56317 0.03625 0.82526 0.0
C443 C 0.57637 0.03893 0.79635 0.0
C444 C 0.58899 0.03712 0.83954 0.0
H445 H 0.58176 0.02683 0.33753 0.0
H446 H 0.57652 0.02247 0.45963 0.0
C447 C 0.5886 0.03309 0.91047 0.0
C448 C 0.57766 0.0445 0.72296 0.0
H449 H 0.5565 0.02569 0.52897 0.0
C450 C 0.59329 0.0633 0.72428 0.0
C451 C 0.56421 0.03079 0.65146 0.0
C452 C 0.54734 1.00974 0.6448 0.0
C453 C 0.59612 0.06824 0.65617 0.0
C454 C 0.58268 0.05451 0.58456 0.0
C455 C 0.56681 0.03625 0.58369 0.0
C456 C 0.58521 0.05738 0.50919 0.0
C457 C 0.6138 0.08741 0.66161 0.0
C458 C 0.59162 0.07837 0.49536 0.0
C459 C 0.59495 0.08095 0.4259 0.0
C460 C 0.5913 0.06238 0.36818 0.0
C461 C 0.58438 0.04128 0.3808 0.0
C462 C 0.58142 0.03882 0.45065 0.0
H463 H 0.62363 0.09211 0.71641 0.0
H464 H 0.61766 0.08282 0.61245 0.0
H465 H 0.6138 0.10263 0.66033 0.0
H466 H 0.59418 0.09279 0.53837 0.0
H467 H 0.60024 0.09736 0.41704 0.0
H468 H 0.7541 0.84678 0.57862 0.0
H469 H 0.76267 0.86118 0.71898 0.0
H470 H 0.74565 0.90504 0.69873 0.0
H471 H 0.73696 0.89074 0.5577 0.0
H472 H 0.77917 0.90687 0.85844 0.0
H473 H 0.7081 0.84353 0.73804 0.0
H474 H 0.72173 0.84596 0.6805 0.0
H475 H 0.71774 0.86744 0.70287 0.0
C476 C 0.75246 0.85981 0.60388 0.0
C477 C 0.744 0.86676 0.55736 0.0
C478 C 0.75777 0.86842 0.68413 0.0
C479 C 0.75456 0.8839 0.71853 0.0
C480 C 0.7482 0.89307 0.67267 0.0
H481 H 0.71845 0.85891 0.11034 0.0
H482 H 0.72535 0.87489 0.00575 0.0
C483 C 0.74287 0.88447 0.59223 0.0
C484 C 0.75219 0.88391 0.7944 0.0
H485 H 0.72104 0.85344 0.86955 0.0
C486 C 0.76647 0.89566 0.86174 0.0
C487 C 0.73558 0.86913 0.79767 0.0
C488 C 0.71986 0.85567 0.72613 0.0
C489 C 0.7645 0.89233 0.93265 0.0
C490 C 0.74795 0.8764 0.93457 0.0
C491 C 0.73369 0.86565 0.86783 0.0
C492 C 0.74501 0.86883 0.00246 0.0
C493 C 0.78012 0.90556 0.00421 0.0
C494 C 0.75351 0.85968 0.03381 0.0
C495 C 0.74969 0.85076 0.09382 0.0
C496 C 0.73695 0.85023 0.12142 0.0
C497 C 0.72808 0.85875 0.08867 0.0
C498 C 0.7322 0.86817 0.02996 0.0
H499 H 0.78998 0.92219 9e-05 0.0
H500 H 0.77679 0.90857 0.05723 0.0
H501 H 0.78591 0.89586 0.01002 0.0
H502 H 0.76292 0.85914 0.01127 0.0
H503 H 0.75669 0.84431 0.11879 0.0
H504 H 0.23767 0.82083 0.48428 0.0
H505 H 0.23328 0.8218 0.61079 0.0
H506 H 0.23266 0.88113 0.61923 0.0
H507 H 0.2359 0.87915 0.49033 0.0
H508 H 0.25255 0.8529 0.74886 0.0
H509 H 0.19041 0.84393 0.67154 0.0
H510 H 0.19952 0.83952 0.59927 0.0
H511 H 0.20738 0.86783 0.65474 0.0
C512 C 0.2365 0.83397 0.51325 0.0
C513 C 0.23698 0.84981 0.47785 0.0
C514 C 0.23399 0.83455 0.58545 0.0
C515 C 0.2323 0.85129 0.62439 0.0
C516 C 0.23331 0.86756 0.58961 0.0
H517 H 0.21345 0.87377 0.06606 0.0
H518 H 0.21921 0.87685 0.94352 0.0
C519 C 0.23531 0.86657 0.51632 0.0
C520 C 0.22989 0.85184 0.70192 0.0
H521 H 0.20321 0.85022 0.80297 0.0
C522 C 0.24173 0.85226 0.76056 0.0
C523 C 0.21591 0.85135 0.71791 0.0
C524 C 0.2025 0.85044 0.65742 0.0
C525 C 0.24002 0.85217 0.83429 0.0
C526 C 0.22574 0.85094 0.84964 0.0
C527 C 0.21409 0.85101 0.79147 0.0
C528 C 0.22254 0.84931 0.92505 0.0
C529 C 0.25382 0.85393 0.8953 0.0
C530 C 0.22231 0.83272 0.95578 0.0
C531 C 0.21958 0.83148 0.02701 0.0
C532 C 0.21634 0.8462 0.0674 0.0
C533 C 0.21595 0.86225 0.03581 0.0
C534 C 0.21921 0.86397 0.96575 0.0
H535 H 0.26625 0.86254 0.88388 0.0
H536 H 0.25577 0.86339 0.95409 0.0
H537 H 0.25008 0.8366 0.89432 0.0
H538 H 0.22411 0.82055 0.92447 0.0
H539 H 0.21961 0.81867 0.04966 0.0
H540 H 0.2452 0.33107 0.43443 0.0
H541 H 0.24221 0.31956 0.55077 0.0
H542 H 0.19355 0.31138 0.50948 0.0
H543 H 0.19637 0.32283 0.3936 0.0
H544 H 0.23596 0.33718 0.6855 0.0
H545 H 0.18277 0.24803 0.51365 0.0
H546 H 0.19715 0.26769 0.47213 0.0
H547 H 0.18018 0.2694 0.49081 0.0
C548 C 0.23404 0.32729 0.45102 0.0
C549 C 0.22094 0.32765 0.40441 0.0
C550 C 0.2323 0.32055 0.51711 0.0
C551 C 0.21744 0.31404 0.53724 0.0
C552 C 0.2049 0.3158 0.49369 0.0
H553 H 0.18128 0.27978 0.91157 0.0
H554 H 0.18211 0.27901 0.77954 0.0
C555 C 0.20662 0.32255 0.42789 0.0
C556 C 0.21488 0.30512 0.60322 0.0
H557 H 0.18864 0.25807 0.65051 0.0
C558 C 0.22576 0.31984 0.67795 0.0
C559 C 0.20147 0.28248 0.59275 0.0
C560 C 0.18977 0.26586 0.51302 0.0
C561 C 0.22327 0.31277 0.74307 0.0
C562 C 0.20981 0.29016 0.73293 0.0
C563 C 0.19903 0.2753 0.65798 0.0
C564 C 0.20636 0.28261 0.80087 0.0
C565 C 0.23467 0.32988 0.82251 0.0
C566 C 0.21905 0.28313 0.85438 0.0
C567 C 0.21871 0.28393 0.9298 0.0
C568 C 0.20541 0.2835 0.95169 0.0
C569 C 0.19155 0.27988 0.89542 0.0
C570 C 0.19204 0.27949 0.82016 0.0
H571 H 0.2419 0.34757 0.82043 0.0
H572 H 0.22701 0.32864 0.86172 0.0
H573 H 0.2441 0.32641 0.8479 0.0
H574 H 0.23007 0.28523 0.84015 0.0
H575 H 0.22955 0.28683 0.97266 0.0
H576 H 0.41701 0.21914 0.52276 0.0
H577 H 0.41525 0.22827 0.40123 0.0
H578 H 0.40633 0.16471 0.28312 0.0
H579 H 0.4077 0.15535 0.40444 0.0
H580 H 0.4298 0.22552 0.26534 0.0
H581 H 0.36039 0.16335 0.21111 0.0
H582 H 0.37612 0.17767 0.30676 0.0
H583 H 0.37367 0.15387 0.24288 0.0
C584 C 0.41547 0.20768 0.47134 0.0
C585 C 0.41254 0.18666 0.47177 0.0
C586 C 0.41442 0.21286 0.40232 0.0
C587 C 0.41043 0.19697 0.3338 0.0
C588 C 0.40934 0.17704 0.33597 0.0
H589 H 0.38858 0.15312 0.88035 0.0
H590 H 0.38852 0.16012 0.0135 0.0
C591 C 0.41022 0.17176 0.40486 0.0
C592 C 0.40445 0.19907 0.25883 0.0
H593 H 0.3688 0.17158 0.10004 0.0
C594 C 0.41643 0.21423 0.22957 0.0
C595 C 0.3869 0.18465 0.21387 0.0
C596 C 0.37346 0.1691 0.24538 0.0
C597 C 0.4115 0.21366 0.15273 0.0
C598 C 0.39423 0.19755 0.10522 0.0
C599 C 0.382 0.18388 0.1369 0.0
C600 C 0.38984 0.19107 0.02066 0.0
C601 C 0.42499 0.22884 0.1207 0.0
C602 C 0.38976 0.20566 0.98007 0.0
C603 C 0.38982 0.20171 0.90371 0.0
C604 C 0.39013 0.18328 0.86804 0.0
C605 C 0.38874 0.16774 0.90704 0.0
C606 C 0.38852 0.17157 0.98272 0.0
H607 H 0.43793 0.24003 0.16503 0.0
H608 H 0.42555 0.21838 0.0717 0.0
H609 H 0.42155 0.23966 0.09815 0.0
H610 H 0.39069 0.22073 0.00878 0.0
H611 H 0.39067 0.21381 0.87448 0.0
H612 H 0.86288 0.1554 0.40725 0.0
H613 H 0.86045 0.15026 0.26993 0.0
H614 H 0.91203 0.20986 0.33453 0.0
H615 H 0.91453 0.21504 0.47093 0.0
H616 H 0.88804 0.20128 0.18886 0.0
H617 H 0.89073 0.12773 0.21586 0.0
H618 H 0.87356 0.12863 0.23673 0.0
H619 H 0.89522 0.14926 0.29927 0.0
C620 C 0.87343 0.16785 0.39186 0.0
C621 C 0.88906 0.18526 0.44922 0.0
C622 C 0.87206 0.16484 0.31361 0.0
C623 C 0.88624 0.17936 0.29268 0.0
C624 C 0.90103 0.19836 0.34977 0.0
H625 H 0.93101 0.19777 0.93665 0.0
H626 H 0.92612 0.19571 0.06113 0.0
C627 C 0.90246 0.20124 0.4276 0.0
C628 C 0.88717 0.17298 0.2147 0.0
H629 H 0.89448 0.13827 0.10423 0.0
C630 C 0.88917 0.1873 0.16963 0.0
C631 C 0.88876 0.15479 0.19039 0.0
C632 C 0.88706 0.13922 0.23798 0.0
C633 C 0.89315 0.18425 0.10153 0.0
C634 C 0.89561 0.1668 0.07937 0.0
C635 C 0.89286 0.15184 0.12244 0.0
C636 C 0.90096 0.1641 0.01095 0.0
C637 C 0.8949 0.19992 0.05422 0.0
C638 C 0.88913 0.1459 0.94333 0.0
C639 C 0.8921 0.14683 0.87268 0.0
C640 C 0.90689 0.16596 0.86954 0.0
C641 C 0.91963 0.18277 0.9383 0.0
C642 C 0.91676 0.1817 0.00903 0.0
H643 H 0.88859 0.20857 0.06827 0.0
H644 H 0.90871 0.21316 0.06678 0.0
H645 H 0.88926 0.19048 0.99127 0.0
H646 H 0.87691 0.13214 0.94397 0.0
H647 H 0.88203 0.13389 0.81981 0.0
H648 H 0.86629 0.65406 0.40598 0.0
H649 H 0.86873 0.66243 0.28437 0.0
H650 H 0.91665 0.66844 0.32798 0.0
H651 H 0.91419 0.6598 0.44836 0.0
H652 H 0.89568 0.70376 0.28285 0.0
H653 H 0.89325 0.63288 0.09901 0.0
H654 H 0.88578 0.63081 0.18162 0.0
H655 H 0.90831 0.64493 0.1947 0.0
C656 C 0.87703 0.65637 0.38828 0.0
C657 C 0.89012 0.65643 0.43698 0.0
C658 C 0.87848 0.66134 0.31912 0.0
C659 C 0.89289 0.66611 0.29722 0.0
C660 C 0.90532 0.66456 0.34312 0.0
H661 H 0.93173 0.71109 0.93219 0.0
H662 H 0.93191 0.71042 0.06439 0.0
C663 C 0.90392 0.65968 0.41215 0.0
C664 C 0.89597 0.67508 0.23143 0.0
H665 H 0.90433 0.66646 0.06261 0.0
C666 C 0.89745 0.69553 0.23433 0.0
C667 C 0.89843 0.66444 0.16865 0.0
C668 C 0.8962 0.64194 0.16024 0.0
C669 C 0.90151 0.70572 0.17639 0.0
C670 C 0.90411 0.69515 0.11413 0.0
C671 C 0.90265 0.67476 0.11134 0.0
C672 C 0.90656 0.70333 0.04654 0.0
C673 C 0.90315 0.72777 0.18243 0.0
C674 C 0.89269 0.70087 -0.00549 0.0
C675 C 0.89254 0.70107 0.91917 0.0
C676 C 0.90635 0.70401 0.89532 0.0
C677 C 0.92108 0.70916 0.94987 0.0
C678 C 0.92113 0.70864 0.02511 0.0
H679 H 0.90484 0.73641 0.24207 0.0
H680 H 0.91418 0.73943 0.16511 0.0
H681 H 0.89134 0.7243 0.14264 0.0
H682 H 0.88125 0.69647 0.00946 0.0
H683 H 0.88098 0.6968 0.87753 0.0
H684 H 0.16737 0.3209 0.11875 0.0
H685 H 0.1541 0.34147 0.1015 0.0
H686 H 0.20289 0.40105 0.12362 0.0
H687 H 0.21642 0.38062 0.1417 0.0
H688 H 0.16523 0.38442 0.21346 0.0
H689 H 0.16749 0.38997 0.91949 0.0
H690 H 0.16885 0.36914 0.95557 0.0
H691 H 0.18704 0.39815 0.98896 0.0
C692 C 0.1753 0.33831 0.11915 0.0
C693 C 0.19297 0.34911 0.13144 0.0
C694 C 0.16767 0.35004 0.10951 0.0
C695 C 0.17748 0.37268 0.11065 0.0
C696 C 0.19508 0.38348 0.12179 0.0
H697 H 0.15391 0.47097 0.06312 0.0
H698 H 0.16691 0.44987 0.07286 0.0
C699 C 0.20279 0.37183 0.13244 0.0
C700 C 0.16935 0.38518 0.1035 0.0
H701 H 0.15751 0.40917 0.98418 0.0
C702 C 0.1635 0.38983 0.16335 0.0
C703 C 0.16717 0.39219 0.03811 0.0
C704 C 0.17283 0.38703 0.9714 0.0
C705 C 0.15576 0.4017 0.16024 0.0
C706 C 0.15341 0.40858 0.09443 0.0
C707 C 0.15928 0.40388 0.03452 0.0
C708 C 0.14518 0.42103 0.08705 0.0
C709 C 0.15058 0.40722 0.22843 0.0
C710 C 0.12847 0.41166 0.09015 0.0
C711 C 0.12095 0.42367 0.08433 0.0
C712 C 0.12991 0.44523 0.07443 0.0
C713 C 0.14651 0.45432 0.06968 0.0
C714 C 0.15403 0.44233 0.07574 0.0
H715 H 0.15762 0.40666 0.28189 0.0
H716 H 0.15297 0.42429 0.23966 0.0
H717 H 0.13669 0.39448 0.21593 0.0
H718 H 0.1212 0.39498 0.09675 0.0
H719 H 0.10805 0.41599 0.08696 0.0
H720 H 0.62754 0.58236 0.15271 0.0
H721 H 0.64637 0.62357 0.18473 0.0
H722 H 0.6024 0.627 0.14409 0.0
H723 H 0.58345 0.58578 0.11336 0.0
H724 H 0.64814 0.65012 0.09592 0.0
H725 H 0.63237 0.67529 0.35162 0.0
H726 H 0.62569 0.64653 0.30923 0.0
H727 H 0.61409 0.65702 0.26576 0.0
C728 C 0.62183 0.59184 0.15122 0.0
C729 C 0.60393 0.58062 0.13071 0.0
C730 C 0.63265 0.61547 0.16946 0.0
C731 C 0.62589 0.62857 0.16821 0.0
C732 C 0.60801 0.61743 0.1474 0.0
H733 H 0.67448 0.77496 0.26269 0.0
H734 H 0.65407 0.73382 0.2293 0.0
C735 C 0.59716 0.59377 0.12915 0.0
C736 C 0.63757 0.65369 0.18566 0.0
H737 H 0.65008 0.70477 0.30506 0.0
C738 C 0.64858 0.66206 0.14184 0.0
C739 C 0.63811 0.66936 0.24514 0.0
C740 C 0.62705 0.66164 0.29614 0.0
C741 C 0.65996 0.68549 0.15516 0.0
C742 C 0.66073 0.70122 0.21553 0.0
C743 C 0.64957 0.69284 0.25885 0.0
C744 C 0.67319 0.72635 0.23563 0.0
C745 C 0.67073 0.69302 0.10288 0.0
C746 C 0.69084 0.73611 0.2519 0.0
C747 C 0.7025 0.75958 0.26999 0.0
C748 C 0.6969 0.77407 0.27407 0.0
C749 C 0.67928 0.76438 0.25988 0.0
C750 C 0.66757 0.7408 0.24078 0.0
H751 H 0.66464 0.6797 0.04579 0.0
H752 H 0.67286 0.70883 0.09309 0.0
H753 H 0.68336 0.69621 0.12997 0.0
H754 H 0.69567 0.72557 0.25119 0.0
H755 H 0.71597 0.76638 0.28156 0.0
H756 H 0.46558 0.93678 0.21357 0.0
H757 H 0.43668 0.92316 0.21603 0.0
H758 H 0.44364 0.98449 0.18356 0.0
H759 H 0.47243 0.99795 0.17795 0.0
H760 H 0.42669 0.94316 0.31721 0.0
H761 H 0.39843 0.93453 0.01283 0.0
H762 H 0.41871 0.93803 0.04697 0.0
H763 H 0.4174 0.96202 0.06972 0.0
C764 C 0.4609 0.94726 0.20566 0.0
C765 C 0.47126 0.96833 0.19446 0.0
C766 C 0.44442 0.93951 0.20777 0.0
C767 C 0.43793 0.95265 0.19874 0.0
C768 C 0.4483 0.9739 0.1891 0.0
H769 H 0.33617 0.92121 0.17356 0.0
H770 H 0.36604 0.93998 0.17658 0.0
C771 C 0.46481 0.98166 0.18676 0.0
C772 C 0.42037 0.94407 0.20072 0.0
H773 H 0.38055 0.92642 0.09072 0.0
C774 C 0.41659 0.93955 0.26781 0.0
C775 C 0.40729 0.93953 0.1363 0.0
C776 C 0.41055 0.94358 0.06206 0.0
C777 C 0.40004 0.93055 0.27233 0.0
C778 C 0.38682 0.92538 0.20714 0.0
C779 C 0.39069 0.93034 0.14055 0.0
C780 C 0.36877 0.91414 0.20585 0.0
C781 C 0.397 0.92693 0.34731 0.0
C782 C 0.36029 0.89318 0.21971 0.0
C783 C 0.34329 0.88248 0.21823 0.0
C784 C 0.33431 0.89236 0.2018 0.0
C785 C 0.34271 0.91313 0.18623 0.0
C786 C 0.35979 0.92391 0.1882 0.0
H787 H 0.40901 0.93837 0.39736 0.0
H788 H 0.38725 0.92987 0.35801 0.0
H789 H 0.39236 0.9092 0.34449 0.0
H790 H 0.36676 0.88493 0.23087 0.0
H791 H 0.33707 0.86623 0.22861 0.0
H792 H 0.58094 0.10951 0.16964 0.0
H793 H 0.56469 0.12576 0.13552 0.0
H794 H 0.52228 0.06005 0.97838 0.0
H795 H 0.53806 0.04371 0.01432 0.0
H796 H 0.55092 0.12952 0.00389 0.0
H797 H 0.49825 0.07454 0.10712 0.0
H798 H 0.51797 0.07621 0.12692 0.0
H799 H 0.50107 0.058 0.03565 0.0
C800 C 0.56816 0.09861 0.12776 0.0
C801 C 0.56064 0.07527 0.0958 0.0
C802 C 0.55887 0.10787 0.10839 0.0
C803 C 0.54201 0.09398 0.05624 0.0
C804 C 0.53496 0.07096 0.02106 0.0
H805 H 0.46182 0.10405 0.82287 0.0
H806 H 0.48104 0.09352 0.87324 0.0
C807 C 0.54406 0.06166 0.04131 0.0
C808 C 0.53169 0.10331 0.03789 0.0
H809 H 0.49242 0.09346 0.02409 0.0
C810 C 0.53822 0.12183 0.00922 0.0
C811 C 0.51514 0.09341 0.04548 0.0
C812 C 0.50779 0.07461 0.08127 0.0
C813 C 0.52836 0.13001 0.98452 0.0
C814 C 0.51156 0.11948 0.98913 0.0
C815 C 0.50523 0.10139 0.01987 0.0
C816 C 0.50002 0.12627 0.95956 0.0
C817 C 0.53578 0.14932 0.95117 0.0
C818 C 0.50417 0.14815 0.99189 0.0
C819 C 0.49312 0.15424 0.96338 0.0
C820 C 0.4776 0.13848 0.90241 0.0
C821 C 0.47348 0.11653 0.87075 0.0
C822 C 0.48452 0.1105 0.89915 0.0
H823 H 0.54718 0.15216 0.93583 0.0
H824 H 0.52607 0.14609 0.89871 0.0
H825 H 0.53981 0.16515 -0.00528 0.0
H826 H 0.5159 0.16048 0.03961 0.0
H827 H 0.49663 0.17119 0.98972 0.0
H828 H 0.95639 0.24852 0.77969 0.0
H829 H 0.9765 0.2898 0.82159 0.0
H830 H 0.9345 0.29623 0.74837 0.0
H831 H 0.91427 0.2551 0.70891 0.0
H832 H 0.98414 0.31867 0.74297 0.0
H833 H 0.95835 0.34127 0.95926 0.0
H834 H 0.95131 0.31241 0.91616 0.0
H835 H 0.94256 0.32503 0.86504 0.0
C836 C 0.95139 0.2587 0.77323 0.0
C837 C 0.93367 0.24842 0.74144 0.0
C838 C 0.96293 0.28235 0.79711 0.0
C839 C 0.95704 0.29626 0.78976 0.0
C840 C 0.93937 0.28601 0.75699 0.0
H841 H 1.00911 0.44213 0.87498 0.0
H842 H 0.98816 0.40095 0.8332 0.0
C843 C 0.92781 0.26239 0.73376 0.0
C844 C 0.96947 0.32137 0.81354 0.0
H845 H 0.97911 0.37173 0.92465 0.0
C846 C 0.98307 0.33023 0.7831 0.0
C847 C 0.96809 0.33656 0.86575 0.0
C848 C 0.95439 0.32833 0.90402 0.0
C849 C 0.99519 0.35372 0.80265 0.0
C850 C 0.99377 0.36884 0.85457 0.0
C851 C 0.98013 0.36008 0.88462 0.0
C852 C 1.00652 0.3938 0.8796 0.0
C853 C 1.00927 0.36217 0.76661 0.0
C854 C 0.02374 0.40348 0.92045 0.0
C855 C 0.03575 0.42698 0.94442 0.0
C856 C 0.03077 0.44134 0.92826 0.0
C857 C 0.01344 0.4316 0.88782 0.0
C858 C 1.00143 0.40806 0.8641 0.0
H859 H 1.00599 0.34905 0.71338 0.0
H860 H 0.01195 0.37764 0.75184 0.0
H861 H 0.02119 0.36653 0.80856 0.0
H862 H 0.02789 0.39284 0.93441 0.0
H863 H 0.04894 0.43386 0.97575 0.0
H864 H 0.77459 0.576 0.67153 0.0
H865 H 0.75068 0.5662 0.72058 0.0
H866 H 0.78609 0.61353 0.94589 0.0
H867 H 0.81023 0.62339 0.89729 0.0
H868 H 0.74357 0.5478 0.83827 0.0
H869 H 0.75246 0.6315 0.90496 0.0
H870 H 0.76353 0.62487 0.84822 0.0
H871 H 0.77082 0.63212 0.95186 0.0
C872 C 0.77736 0.5843 0.73167 0.0
C873 C 0.79439 0.60044 0.78049 0.0
C874 C 0.76364 0.57873 0.75952 0.0
C875 C 0.76656 0.58928 0.83666 0.0
C876 C 0.78351 0.6055 0.88572 0.0
H877 H 0.69329 0.57101 0.0817 0.0
H878 H 0.71948 0.5828 0.04903 0.0
C879 C 0.7973 0.61111 0.85782 0.0
C880 C 0.75178 0.58269 0.86546 0.0
H881 H 0.7305 0.60278 0.93897 0.0
C882 C 0.74072 0.55983 0.86034 0.0
C883 C 0.74814 0.59842 0.89479 0.0
C884 C 0.75926 0.62307 0.89981 0.0
C885 C 0.72609 0.55225 0.8833 0.0
C886 C 0.72221 0.56787 0.91071 0.0
C887 C 0.73347 0.59082 0.9176 0.0
C888 C 0.7063 0.56062 0.93051 0.0
C889 C 0.71503 0.52762 0.87871 0.0
C890 C 0.69017 0.54451 0.87438 0.0
C891 C 0.67517 0.53754 0.89302 0.0
C892 C 0.67596 0.54675 0.96808 0.0
C893 C 0.69217 0.56329 0.0237 0.0
C894 C 0.70717 0.57017 0.00504 0.0
H895 H 0.72229 0.51973 0.87906 0.0
H896 H 0.70982 0.5257 0.92763 0.0
H897 H 0.70409 0.51813 0.82385 0.0
H898 H 0.68917 0.53727 0.816 0.0
H899 H 0.66296 0.5246 0.84888 0.0
H900 H 0.9124 0.63534 0.81492 0.0
H901 H 0.92935 0.62001 0.84864 0.0
H902 H 0.94679 0.63137 0.6518 0.0
H903 H 0.9307 0.6479 0.62136 0.0
H904 H 0.9288 0.58535 0.77912 0.0
H905 H 0.99163 0.66268 0.81479 0.0
H906 H 0.97253 0.66236 0.80258 0.0
H907 H 0.97685 0.65224 0.71967 0.0
C908 C 0.91987 0.63445 0.77916 0.0
C909 C 0.92042 0.6427 0.7159 0.0
C910 C 0.92954 0.62577 0.79831 0.0
C911 C 0.93971 0.62508 0.75391 0.0
C912 C 0.93957 0.63247 0.68856 0.0
H913 H 0.99658 0.56384 0.75079 0.0
H914 H 0.98062 0.58039 0.71803 0.0
C915 C 0.93023 0.6416 0.67054 0.0
C916 C 0.95032 0.61643 0.77542 0.0
H917 H 0.99084 0.62903 0.80941 0.0
C918 C 0.94238 0.595 0.78624 0.0
C919 C 0.96811 0.6291 0.78539 0.0
C920 C 0.9778 0.65296 0.78083 0.0
C921 C 0.95167 0.58573 0.80523 0.0
C922 C 0.96926 0.59813 0.81281 0.0
C923 C 0.97726 0.61954 0.80246 0.0
C924 C 0.97965 0.58929 0.83344 0.0
C925 C 0.94266 0.56271 0.8167 0.0
C926 C 0.98472 0.58949 0.90957 0.0
C927 C 0.99411 0.58052 0.92891 0.0
C928 C 0.99843 0.57089 0.87217 0.0
C929 C 0.99367 0.5713 0.79616 0.0
C930 C 0.98442 0.58055 0.7771 0.0
H931 H 0.92852 0.55399 0.79879 0.0
H932 H 0.94563 0.55177 0.78328 0.0
H933 H 0.94736 0.56471 0.87882 0.0
H934 H 0.9813 0.59647 0.95389 0.0
H935 H 0.99786 0.58097 0.98837 0.0
H936 H 0.55585 0.43209 0.95466 0.0
H937 H 0.53539 0.39066 0.90679 0.0
H938 H 0.49767 0.39708 0.9785 0.0
H939 H 0.51789 0.43831 0.02646 0.0
H940 H 0.51671 0.36038 -0.00483 0.0
H941 H 0.47375 0.35844 0.74364 0.0
H942 H 0.49563 0.3826 0.7928 0.0
H943 H 0.47928 0.37767 0.8357 0.0
C944 C 0.5432 0.42471 0.96024 0.0
C945 C 0.53852 0.4386 -0.00578 0.0
C946 C 0.53154 0.40103 0.93297 0.0
C947 C 0.51496 0.39085 0.93833 0.0
C948 C 0.51033 0.40462 0.97293 0.0
H949 H 0.42099 0.25614 0.76666 0.0
H950 H 0.44348 0.29673 0.82096 0.0
C951 C 0.52197 0.42822 0.00062 0.0
C952 C 0.50242 0.36582 0.90796 0.0
H953 H 0.46424 0.32389 0.7696 0.0
C954 C 0.50523 0.35228 0.94568 0.0
C955 C 0.48743 0.35542 0.84392 0.0
C956 C 0.48381 0.3692 0.80109 0.0
C957 C 0.49315 0.32861 0.92277 0.0
C958 C 0.47812 0.31803 0.8579 0.0
C959 C 0.4756 0.33175 0.81942 0.0
C960 C 0.46458 0.293 0.82958 0.0
C961 C 0.4964 0.31557 0.97086 0.0
C962 C 0.46871 0.27703 0.81636 0.0
C963 C 0.45579 0.25367 0.78815 0.0
C964 C 0.43844 0.24583 0.76932 0.0
C965 C 0.43427 0.26172 0.78099 0.0
C966 C 0.44716 0.28497 0.81172 0.0
H967 H 0.50487 0.32667 0.03102 0.0
H968 H 0.48428 0.30117 0.97345 0.0
H969 H 0.50303 0.30886 0.94515 0.0
H970 H 0.48188 0.28253 0.82617 0.0
H971 H 0.45934 0.24178 0.77817 0.0
H972 H 0.8095 0.13489 0.90439 0.0
H973 H 0.78448 0.12315 0.94814 0.0
H974 H 0.77651 0.16833 0.85218 0.0
H975 H 0.80091 0.17943 0.80595 0.0
H976 H 0.77747 0.1481 0.04767 0.0
H977 H 0.72982 0.10888 0.75416 0.0
H978 H 0.75142 0.11647 0.77017 0.0
H979 H 0.74703 0.13775 0.77139 0.0
C980 C 0.8023 0.14213 0.89191 0.0
C981 C 0.80725 0.1581 0.85151 0.0
C982 C 0.78808 0.13553 0.91744 0.0
C983 C 0.77844 0.14458 0.9024 0.0
C984 C 0.78352 0.16076 0.86323 0.0
H985 H 0.69575 0.14219 0.0221 0.0
H986 H 0.72089 0.1504 0.98479 0.0
C987 C 0.79765 0.16732 0.83765 0.0
C988 C 0.76305 0.13723 0.92737 0.0
H989 H 0.72032 0.1154 0.85984 0.0
C990 C 0.76493 0.14068 0.00653 0.0
C991 C 0.74666 0.12753 0.87367 0.0
C992 C 0.74354 0.12222 0.78756 0.0
C993 C 0.75098 0.13532 0.03343 0.0
C994 C 0.73476 0.12621 0.97981 0.0
C995 C 0.73281 0.12244 0.90075 0.0
C996 C 0.71977 0.12126 0.00479 0.0
C997 C 0.75368 0.14006 0.11908 0.0
C998 C 0.71073 0.102 0.02783 0.0
C999 C 0.69627 0.09718 0.04916 0.0
C1000 C 0.69068 0.11164 0.04819 0.0
C1001 C 0.69981 0.13085 0.02463 0.0
C1002 C 0.71415 0.13555 0.00297 0.0
H1003 H 0.76735 0.14876 0.15382 0.0
H1004 H 0.74918 0.15078 0.13815 0.0
H1005 H 0.74595 0.12384 0.13117 0.0
H1006 H 0.71482 0.09067 0.02898 0.0
H1007 H 0.68963 0.08236 0.0675 0.0
H1008 H 0.63014 0.03233 0.18098 0.0
H1009 H 0.64304 0.0114 0.19883 0.0
H1010 H 0.59986 0.96265 0.25621 0.0
H1011 H 0.58653 0.9831 0.23569 0.0
H1012 H 0.65365 1.00184 0.31995 0.0
H1013 H 0.6014 0.92104 0.09176 0.0
H1014 H 0.60227 0.9468 0.1031 0.0
H1015 H 0.59419 0.9297 0.16448 0.0
C1016 C 0.62335 0.01715 0.1974 0.0
C1017 C 0.60721 1.00926 0.20616 0.0
C1018 C 0.63076 1.00518 0.20755 0.0
C1019 C 0.62228 0.98516 0.22724 0.0
C1020 C 0.60641 0.97764 0.23862 0.0
H1021 H 0.64859 0.89128 0.31273 0.0
H1022 H 0.63593 0.91285 0.30424 0.0
C1023 C 0.59886 0.98943 0.22734 0.0
C1024 C 0.63021 0.97242 0.23645 0.0
H1025 H 0.62329 0.92044 0.17257 0.0
C1026 C 0.64702 0.98406 0.28751 0.0
C1027 C 0.6216 0.94921 0.19388 0.0
C1028 C 0.60394 0.93601 0.13468 0.0
C1029 C 0.65535 0.97311 0.29794 0.0
C1030 C 0.64669 0.9499 0.25582 0.0
C1031 C 0.62988 0.93821 0.20505 0.0
C1032 C 0.65485 0.93741 0.26331 0.0
C1033 C 0.67327 0.98642 0.35478 0.0
C1034 C 0.66968 0.94402 0.24289 0.0
C1035 C 0.67711 0.9319 0.24865 0.0
C1036 C 0.66976 0.91276 0.27426 0.0
C1037 C 0.65483 0.90617 0.29433 0.0
C1038 C 0.64746 0.91835 0.2888 0.0
H1039 H 0.67632 1.00195 0.39651 0.0
H1040 H 0.67502 0.97591 0.38765 0.0
H1041 H 0.68262 0.99177 0.32265 0.0
H1042 H 0.67541 0.95842 0.22165 0.0
H1043 H 0.68863 0.93757 0.23309 0.0
H1044 H 0.17195 0.77525 0.23814 0.0
H1045 H 0.15351 0.73422 0.2103 0.0
H1046 H 0.19134 0.72767 0.14003 0.0
H1047 H 0.21014 0.76881 0.17003 0.0
H1048 H 0.13871 0.70051 0.08023 0.0
H1049 H 0.18268 0.69109 0.28496 0.0
H1050 H 0.18705 0.71849 0.28577 0.0
H1051 H 0.19155 0.70376 0.21571 0.0
C1052 C 0.17642 0.76516 0.21686 0.0
C1053 C 0.19262 0.7755 0.20669 0.0
C1054 C 0.16583 0.74162 0.20106 0.0
C1055 C 0.17112 0.72776 0.17453 0.0
C1056 C 0.18713 0.73795 0.16266 0.0
H1057 H 0.12183 0.58105 0.04711 0.0
H1058 H 0.14136 0.62198 0.07358 0.0
C1059 C 0.19783 0.76155 0.17921 0.0
C1060 C 0.15956 0.70265 0.15711 0.0
H1061 H 0.15711 0.65709 0.19858 0.0
C1062 C 0.14274 0.69105 0.1064 0.0
C1063 C 0.16479 0.69017 0.19071 0.0
C1064 C 0.18245 0.70153 0.24785 0.0
C1065 C 0.13108 0.66744 0.08777 0.0
C1066 C 0.13621 0.65497 0.12211 0.0
C1067 C 0.15311 0.66654 0.17225 0.0
C1068 C 0.1243 0.63 0.10709 0.0
C1069 C 0.11351 0.65615 0.02994 0.0
C1070 C 0.10829 0.62073 0.11872 0.0
C1071 C 0.09698 0.59725 0.10264 0.0
C1072 C 0.10154 0.58247 0.07617 0.0
C1073 C 0.11783 0.59185 0.06722 0.0
C1074 C 0.12905 0.61532 0.08235 0.0
H1075 H 0.11358 0.66631 0.99118 0.0
H1076 H 0.10867 0.6389 -0.00632 0.0
H1077 H 0.10444 0.65469 0.06145 0.0
H1078 H 0.10451 0.63165 0.14036 0.0
H1079 H 0.08464 0.59072 0.11105 0.0
H1080 H 0.45089 0.43417 0.01001 0.0
H1081 H 0.42141 0.41686 0.01262 0.0
H1082 H 0.43963 0.4703 0.2225 0.0
H1083 H 0.46896 0.48793 0.21976 0.0
H1084 H 0.40881 0.40379 0.14685 0.0
H1085 H 0.4013 0.46876 0.06126 0.0
H1086 H 0.41697 0.4639 0.04116 0.0
H1087 H 0.4207 0.47932 0.13717 0.0
C1088 C 0.4486 0.4423 0.05646 0.0
C1089 C 0.4623 0.46243 0.11471 0.0
C1090 C 0.43179 0.43231 0.05809 0.0
C1091 C 0.4284 0.44242 0.11746 0.0
C1092 C 0.44201 0.46235 0.17593 0.0
H1093 H 0.34172 0.42413 0.24101 0.0
H1094 H 0.36963 0.43671 0.22733 0.0
C1095 C 0.45878 0.47228 0.17456 0.0
C1096 C 0.41064 0.43235 0.11861 0.0
H1097 H 0.37954 0.44238 0.10278 0.0
C1098 C 0.40228 0.41204 0.13657 0.0
C1099 C 0.40231 0.44332 0.10559 0.0
C1100 C 0.41067 0.46496 0.08464 0.0
C1101 C 0.38593 0.40273 0.14434 0.0
C1102 C 0.37759 0.41378 0.13176 0.0
C1103 C 0.38591 0.43391 0.1124 0.0
C1104 C 0.36055 0.40538 0.14122 0.0
C1105 C 0.37805 0.38168 0.16885 0.0
C1106 C 0.34607 0.38355 0.09709 0.0
C1107 C 0.33004 0.37608 0.10583 0.0
C1108 C 0.32815 0.39041 0.15831 0.0
C1109 C 0.34269 0.41238 0.20148 0.0
C1110 C 0.35868 0.41972 0.19316 0.0
H1111 H 0.38786 0.37904 0.19647 0.0
H1112 H 0.37125 0.38258 0.21006 0.0
H1113 H 0.36863 0.36665 0.11706 0.0
H1114 H 0.34711 0.37235 0.05532 0.0
H1115 H 0.31917 0.35905 0.07179 0.0
H1116 H 0.8488 0.68074 0.63225 0.0
H1117 H 0.8336 0.69785 0.59623 0.0
H1118 H 0.8793 0.7534 0.57416 0.0
H1119 H 0.89442 0.73587 0.60713 0.0
H1120 H 0.83931 0.73696 0.66597 0.0
H1121 H 0.84499 0.73629 0.37324 0.0
H1122 H 0.85061 0.7214 0.42771 0.0
H1123 H 0.86537 0.7515 0.44767 0.0
C1124 C 0.85562 0.69658 0.61958 0.0
C1125 C 0.87279 0.70695 0.62233 0.0
C1126 C 0.8469 0.70631 0.59883 0.0
C1127 C 0.85521 0.72667 0.58106 0.0
C1128 C 0.87248 0.73733 0.58534 0.0
H1129 H 0.82652 0.81535 0.47015 0.0
H1130 H 0.84126 0.79766 0.50645 0.0
C1131 C 0.88115 0.72741 0.6049 0.0
C1132 C 0.84587 0.73704 0.56096 0.0
H1133 H 0.83432 0.75689 0.4236 0.0
C1134 C 0.83813 0.74119 0.61272 0.0
C1135 C 0.84435 0.74253 0.49142 0.0
C1136 C 0.85163 0.7375 0.43149 0.0
C1137 C 0.82912 0.75102 0.59757 0.0
C1138 C 0.82773 0.75668 0.52847 0.0
C1139 C 0.83545 0.75253 0.47662 0.0
C1140 C 0.81869 0.76744 0.50937 0.0
C1141 C 0.8215 0.75567 0.65643 0.0
C1142 C 0.80109 0.75627 0.499 0.0
C1143 C 0.79261 0.76636 0.47821 0.0
C1144 C 0.80157 0.78763 0.46654 0.0
C1145 C 0.81922 0.7988 0.47767 0.0
C1146 C 0.82768 0.78877 0.49867 0.0
H1147 H 0.82733 0.75565 0.71408 0.0
H1148 H 0.82321 0.77228 0.66282 0.0
H1149 H 0.80754 0.74221 0.6368 0.0
H1150 H 0.79387 0.73958 0.50551 0.0
H1151 H 0.77897 0.75729 0.46923 0.0
H1152 H 0.34016 0.11254 0.57081 0.0
H1153 H 0.3179 0.07173 0.52424 0.0
H1154 H 0.35574 0.05829 0.5011 0.0
H1155 H 0.37813 0.09895 0.54945 0.0
H1156 H 0.30627 0.03895 0.39013 0.0
H1157 H 0.33409 0.01975 0.63164 0.0
H1158 H 0.34176 0.04842 0.63331 0.0
H1159 H 0.34877 0.03337 0.58105 0.0
C1160 C 0.34378 0.10092 0.55605 0.0
C1161 C 0.36099 0.10906 0.56466 0.0
C1162 C 0.33101 0.07757 0.52928 0.0
C1163 C 0.33519 0.06191 0.51086 0.0
C1164 C 0.35227 0.07001 0.51702 0.0
H1165 H 0.28256 0.91698 0.34238 0.0
H1166 H 0.30254 0.95809 0.38677 0.0
C1167 C 0.36505 0.09332 0.54411 0.0
C1168 C 0.32172 0.03711 0.48494 0.0
H1169 H 0.31153 0.98805 0.52374 0.0
C1170 C 0.30734 0.02782 0.41962 0.0
C1171 C 0.32308 0.02261 0.52374 0.0
C1172 C 0.33767 0.03157 0.59676 0.0
C1173 C 0.29458 1.00434 0.39044 0.0
C1174 C 0.29615 0.98981 0.42839 0.0
C1175 C 0.31038 0.99917 0.49445 0.0
C1176 C 0.28357 0.96476 0.39941 0.0
C1177 C 0.27986 0.99527 0.31791 0.0
C1178 C 0.2662 0.95472 0.3923 0.0
C1179 C 0.25461 0.93105 0.36646 0.0
C1180 C 0.26022 0.91694 0.3479 0.0
C1181 C 0.27768 0.92716 0.35581 0.0
C1182 C 0.28918 0.95075 0.38132 0.0
H1183 H 0.28288 1.00757 0.28499 0.0
H1184 H 0.27647 0.97905 0.2794 0.0
H1185 H 0.26846 0.99201 0.33406 0.0
H1186 H 0.26163 0.96518 0.40763 0.0
H1187 H 0.24131 0.92387 0.36155 0.0
H1188 H 1.0095 0.19935 0.58488 0.0
H1189 H 0.03256 0.20844 0.53041 0.0
H1190 H 1.00498 0.21333 0.3313 0.0
H1191 H 0.98151 0.20366 0.38454 0.0
H1192 H 0.0308 0.18472 0.38849 0.0
H1193 H 0.05281 0.27327 0.40429 0.0
H1194 H 0.03859 0.25758 0.45464 0.0
H1195 H 0.03047 0.25197 0.35235 0.0
C1196 C 1.00819 0.20218 0.5292 0.0
C1197 C 0.9935 0.20062 0.4891 0.0
C1198 C 0.02148 0.2075 0.49833 0.0
C1199 C 0.02058 0.21174 0.4271 0.0
C1200 C 1.00608 0.21048 0.387 0.0
H1201 H 0.09606 0.25166 0.18219 0.0
H1202 H 0.07022 0.24035 0.21768 0.0
C1203 C 0.99268 0.20501 0.41772 0.0
C1204 C 0.03478 0.21708 0.39489 0.0
H1205 H 0.06672 0.25901 0.3478 0.0
C1206 C 0.03864 0.20095 0.37943 0.0
C1207 C 0.04492 0.23819 0.38254 0.0
C1208 C 0.04163 0.25637 0.39981 0.0
C1209 C 0.0524 0.20538 0.35236 0.0
C1210 C 0.06286 0.22676 0.34222 0.0
C1211 C 0.05875 0.24268 0.35591 0.0
C1212 C 0.07843 0.2332 0.31987 0.0
C1213 C 0.05546 0.187 0.33403 0.0
C1214 C 0.09177 0.23324 0.36596 0.0
C1215 C 0.10649 0.23946 0.34542 0.0
C1216 C 0.10832 0.24608 0.27871 0.0
C1217 C 0.09502 0.24636 0.2333 0.0
C1218 C 0.08027 0.24003 0.25376 0.0
H1219 H 0.0436 0.16989 0.32154 0.0
H1220 H 0.06014 0.18725 0.28356 0.0
H1221 H 0.06529 0.18976 0.38477 0.0
H1222 H 0.09084 0.22852 0.41818 0.0
H1223 H 0.11631 0.23874 0.38138 0.0
H1224 H 0.33847 0.25191 0.47644 0.0
H1225 H 0.31921 0.26251 0.42715 0.0
H1226 H 0.27693 0.19192 0.33438 0.0
H1227 H 0.29616 0.18111 0.38322 0.0
H1228 H 0.29921 0.25 0.27429 0.0
H1229 H 0.25826 0.22031 0.46077 0.0
H1230 H 0.27853 0.22339 0.47948 0.0
H1231 H 0.25991 0.19941 0.40349 0.0
C1232 C 0.32511 0.23858 0.44505 0.0
C1233 C 0.31889 0.21563 0.43403 0.0
C1234 C 0.31408 0.24469 0.41727 0.0
C1235 C 0.29657 0.22805 0.37812 0.0
C1236 C 0.29032 0.2051 0.36599 0.0
H1237 H 0.21486 0.24705 0.20496 0.0
H1238 H 0.23041 0.23001 0.24098 0.0
C1239 C 0.30134 0.19895 0.3939 0.0
C1240 C 0.28507 0.23489 0.34884 0.0
H1241 H 0.25101 0.23585 0.37069 0.0
C1242 C 0.28864 0.24685 0.2952 0.0
C1243 C 0.27112 0.23048 0.37529 0.0
C1244 C 0.26674 0.21784 0.43336 0.0
C1245 C 0.27879 0.25474 0.26779 0.0
C1246 C 0.2653 0.25125 0.29681 0.0
C1247 C 0.2614 0.23868 0.34879 0.0
C1248 C 0.25566 0.26139 0.27652 0.0
C1249 C 0.28289 0.26646 0.20715 0.0
C1250 C 0.26459 0.28475 0.2866 0.0
C1251 C 0.2558 0.29429 0.26429 0.0
C1252 C 0.23781 0.28086 0.23378 0.0
C1253 C 0.22874 0.25772 0.22757 0.0
C1254 C 0.23762 0.24801 0.24823 0.0
H1255 H 0.2888 0.26054 0.1719 0.0
H1256 H 0.27125 0.26349 0.16762 0.0
H1257 H 0.29229 0.285 0.23613 0.0
H1258 H 0.27842 0.29568 0.31154 0.0
H1259 H 0.26312 0.31232 0.27182 0.0
H1260 H 0.79067 0.91378 0.42481 0.0
H1261 H 0.81143 0.95501 0.46768 0.0
H1262 H 0.77024 0.96356 0.40645 0.0
H1263 H 0.74933 0.92236 0.36323 0.0
H1264 H 0.81529 0.98577 0.37482 0.0
H1265 H 0.79894 1.00484 0.63732 0.0
H1266 H 0.79331 0.97688 0.59012 0.0
H1267 H 0.7813 0.98701 0.5485 0.0
C1268 C 0.78598 0.92439 0.42042 0.0
C1269 C 0.76829 0.91471 0.39054 0.0
C1270 C 0.79789 0.94796 0.44494 0.0
C1271 C 0.79235 0.96232 0.44104 0.0
C1272 C 0.77475 0.95276 0.41084 0.0
H1273 H 0.84265 0.10821 0.5982 0.0
H1274 H 0.82254 0.06691 0.55189 0.0
C1275 C 0.76283 0.92919 0.38571 0.0
C1276 C 0.805 0.9873 0.46732 0.0
H1277 H 0.81888 0.03607 0.60528 0.0
C1278 C 0.81615 0.99686 0.42524 0.0
C1279 C 0.80595 1.00162 0.53272 0.0
C1280 C 0.79434 0.99216 0.58035 0.0
C1281 C 0.82794 0.02049 0.44543 0.0
C1282 C 0.82915 0.03497 0.51188 0.0
C1283 C 0.81805 0.02519 0.55436 0.0
C1284 C 0.84152 0.06024 0.53803 0.0
C1285 C 0.83842 0.0295 0.39314 0.0
C1286 C 0.85901 0.07054 0.5467 0.0
C1287 C 0.87041 0.09422 0.57073 0.0
C1288 C 0.86472 0.10814 0.58978 0.0
C1289 C 0.8474 0.09792 0.5838 0.0
C1290 C 0.8359 0.07426 0.55742 0.0
H1291 H 0.83188 0.01744 0.33326 0.0
H1292 H 0.84092 0.04608 0.39054 0.0
H1293 H 0.85087 0.03168 0.41518 0.0
H1294 H 0.86395 0.06033 0.53569 0.0
H1295 H 0.88376 0.10164 0.57609 0.0
H1296 H 0.0167 0.78237 0.63305 0.0
H1297 H 0.04138 0.79358 0.58904 0.0
H1298 H 0.01167 0.72975 0.40482 0.0
H1299 H 0.9865 0.71876 0.44644 0.0
H1300 H 0.05836 0.77397 0.58115 0.0
H1301 H 0.03245 0.77468 0.28836 0.0
H1302 H 0.02197 0.77307 0.36057 0.0
H1303 H 0.01969 0.74817 0.30584 0.0
C1304 C 0.01526 0.77081 0.58231 0.0
C1305 C 0.99951 0.74976 0.54271 0.0
C1306 C 0.02945 0.77721 0.55754 0.0
C1307 C 0.0283 0.7627 0.49281 0.0
C1308 C 0.01273 0.74145 0.45384 0.0
H1309 H 0.11647 0.77663 0.38216 0.0
H1310 H 0.08941 0.76238 0.40925 0.0
C1311 C 0.99843 0.73505 0.47841 0.0
C1312 C 0.04372 0.76965 0.46895 0.0
H1313 H 0.05973 0.78051 0.31988 0.0
C1314 C 0.05863 0.77534 0.52394 0.0
C1315 C 0.04411 0.77169 0.39452 0.0
C1316 C 0.02876 0.76679 0.33406 0.0
C1317 C 0.07387 0.78293 0.50658 0.0
C1318 C 0.07416 0.78454 0.4319 0.0
C1319 C 0.05934 0.77899 0.37684 0.0
C1320 C 0.08995 0.7926 0.41108 0.0
C1321 C 0.08971 0.78965 0.56865 0.0
C1322 C 0.09899 0.81413 0.40189 0.0
C1323 C 0.11454 0.82245 0.38739 0.0
C1324 C 0.12126 0.80928 0.38106 0.0
C1325 C 0.11184 0.78739 0.38805 0.0
C1326 C 0.09635 0.77916 0.40307 0.0
H1327 H 0.08806 0.79081 0.62666 0.0
H1328 H 0.09262 0.77683 0.55442 0.0
H1329 H 0.10092 0.80628 0.57138 0.0
H1330 H 0.09423 0.82474 0.40809 0.0
H1331 H 0.12153 0.83949 0.3835 0.0
loop_
_geom_bond_atom_site_label_1
_geom_bond_atom_site_label_2
_geom_bond_distance
_geom_bond_site_symmetry_2
_ccdc_geom_bond_type
Tb0 C9 2.764 . S
Tb0 O10 2.325 1_556 S
Tb0 O13 2.303 . S
Tb0 O17 2.322 . S
Tb0 O18 2.349 1_556 S
Tb0 O21 2.415 . S
Tb0 O22 2.399 1_556 S
Tb1 O11 2.322 . S
Tb1 O12 2.349 1_554 S
Tb1 O14 2.415 . S
Tb1 O15 2.399 1_554 S
Tb1 O16 2.325 1_554 S
Tb1 O19 2.303 . S
Tb1 C30 2.764 . S
C2 O18 1.261 . S
C2 O19 1.257 . S
C3 C6 1.368 1_455 S
C3 C7 1.332 . S
C3 C9 1.504 . S
C4 C5 1.373 . S
C4 C8 1.347 . S
C5 C4 1.373 . S
C5 C6 1.433 . S
C5 H32 0.932 1_556 S
C6 C3 1.368 1_655 S
C6 C5 1.433 . S
C6 H33 0.917 1_556 S
C7 C3 1.332 . S
C7 C8 1.362 1_455 S
C7 H34 0.932 . S
C8 C4 1.347 . S
C8 C7 1.362 1_655 S
C8 H35 0.924 1_655 S
C9 Tb0 2.764 . S
C9 C3 1.504 . S
C9 O21 1.239 . S
C9 O22 1.263 1_556 S
O10 Tb0 2.325 1_554 S
O10 C20 1.236 . S
O11 Tb1 2.322 . S
O11 C20 1.257 . S
O12 Tb1 2.349 1_556 S
O12 C23 1.261 . S
O13 Tb0 2.303 . S
O13 C23 1.257 . S
O14 Tb1 2.415 . S
O14 C30 1.239 . S
O15 Tb1 2.399 1_556 S
O15 C30 1.263 1_556 S
O16 Tb1 2.325 1_556 S
O16 C31 1.236 . S
O17 Tb0 2.322 . S
O17 C31 1.257 . S
O18 Tb0 2.349 1_554 S
O18 C2 1.261 . S
O19 Tb1 2.303 . S
O19 C2 1.257 . S
C20 O10 1.236 . S
C20 O11 1.257 . S
O21 Tb0 2.415 . S
O21 C9 1.239 . S
O22 Tb0 2.399 1_554 S
O22 C9 1.263 1_554 S
C23 O12 1.261 . S
C23 O13 1.257 . S
C24 C27 1.358 . S
C24 C28 1.332 . S
C24 C30 1.504 . S
C25 C26 1.373 . S
C25 C29 1.308 . S
C26 C25 1.373 . S
C26 C27 1.429 . S
C26 H36 0.932 1_554 S
C27 C24 1.358 . S
C27 C26 1.429 . S
C27 H37 0.930 1_554 S
C28 C24 1.332 . S
C28 C29 1.394 . S
C28 H38 0.932 . S
C29 C25 1.308 . S
C29 C28 1.394 . S
C29 H39 0.929 . S
C30 Tb1 2.764 . S
C30 O14 1.239 . S
C30 O15 1.263 1_554 S
C30 C24 1.504 . S
C31 O16 1.236 . S
C31 O17 1.257 . S
H32 C5 0.932 1_554 S
H33 C6 0.917 1_554 S
H34 C7 0.932 . S
H35 C8 0.924 1_455 S
H36 C26 0.932 1_556 S
H37 C27 0.930 1_556 S
H38 C28 0.932 . S
H39 C29 0.929 . S
Tb40 C49 2.764 . S
Tb40 O50 2.325 . S
Tb40 O53 2.303 . S
Tb40 O57 2.322 . S
Tb40 O58 2.349 1_554 S
Tb40 O61 2.415 . S
Tb40 O62 2.399 . S
Tb41 O51 2.322 . S
Tb41 O52 2.349 . S
Tb41 O54 2.415 . S
Tb41 O55 2.399 . S
Tb41 O56 2.325 . S
Tb41 O59 2.303 . S
Tb41 C70 2.764 . S
C42 O58 1.261 . S
C42 O59 1.257 1_556 S
C43 C46 1.358 . S
C43 C47 1.332 . S
C43 C49 1.504 . S
C44 C45 1.373 . S
C44 C48 1.308 . S
C45 C44 1.373 . S
C45 C46 1.429 . S
C45 H72 0.932 1_554 S
C46 C43 1.358 . S
C46 C45 1.429 . S
C46 H73 0.930 1_554 S
C47 C43 1.332 . S
C47 C48 1.394 . S
C47 H74 0.932 . S
C48 C44 1.308 . S
C48 C47 1.394 . S
C48 H75 0.929 . S
C49 Tb40 2.764 . S
C49 C43 1.504 . S
C49 O61 1.239 . S
C49 O62 1.263 . S
O50 Tb40 2.325 . S
O50 C60 1.236 . S
O51 Tb41 2.322 . S
O51 C60 1.257 . S
O52 Tb41 2.349 . S
O52 C63 1.261 . S
O53 Tb40 2.303 . S
O53 C63 1.257 . S
O54 Tb41 2.415 . S
O54 C70 1.239 . S
O55 Tb41 2.399 . S
O55 C70 1.263 . S
O56 Tb41 2.325 . S
O56 C71 1.236 . S
O57 Tb40 2.322 . S
O57 C71 1.257 . S
O58 Tb40 2.349 1_556 S
O58 C42 1.261 . S
O59 Tb41 2.303 . S
O59 C42 1.257 1_554 S
C60 O50 1.236 . S
C60 O51 1.257 . S
O61 Tb40 2.415 . S
O61 C49 1.239 . S
O62 Tb40 2.399 . S
O62 C49 1.263 . S
C63 O52 1.261 . S
C63 O53 1.257 . S
C64 C67 1.358 . S
C64 C68 1.332 . S
C64 C70 1.504 . S
C65 C66 1.373 . S
C65 C69 1.308 . S
C66 C65 1.373 . S
C66 C67 1.429 . S
C66 H76 0.932 . S
C67 C64 1.358 . S
C67 C66 1.429 . S
C67 H77 0.930 . S
C68 C64 1.332 . S
C68 C69 1.394 . S
C68 H78 0.932 . S
C69 C65 1.308 . S
C69 C68 1.394 . S
C69 H79 0.929 . S
C70 Tb41 2.764 . S
C70 O54 1.239 . S
C70 O55 1.263 . S
C70 C64 1.504 . S
C71 O56 1.236 . S
C71 O57 1.257 . S
H72 C45 0.932 1_556 S
H73 C46 0.930 1_556 S
H74 C47 0.932 . S
H75 C48 0.929 . S
H76 C66 0.932 . S
H77 C67 0.930 . S
H78 C68 0.932 . S
H79 C69 0.929 . S
Tb80 C89 2.764 . S
Tb80 O90 2.325 . S
Tb80 O93 2.303 . S
Tb80 O97 2.322 . S
Tb80 O98 2.349 . S
Tb80 O101 2.415 . S
Tb80 O102 2.399 . S
Tb81 O91 2.322 . S
Tb81 O92 2.349 . S
Tb81 O94 2.415 . S
Tb81 O95 2.399 1_545 S
Tb81 O96 2.325 . S
Tb81 O99 2.303 . S
Tb81 C110 2.764 . S
C82 O98 1.261 . S
C82 O99 1.257 . S
C83 C86 1.358 . S
C83 C87 1.332 . S
C83 C89 1.504 . S
C84 C85 1.373 . S
C84 C88 1.308 . S
C85 C84 1.373 . S
C85 C86 1.429 . S
C85 H112 0.932 . S
C86 C83 1.358 . S
C86 C85 1.429 . S
C86 H113 0.930 . S
C87 C83 1.332 . S
C87 C88 1.394 . S
C87 H114 0.932 . S
C88 C84 1.308 . S
C88 C87 1.394 . S
C88 H115 0.929 . S
C89 Tb80 2.764 . S
C89 C83 1.504 . S
C89 O101 1.239 . S
C89 O102 1.263 . S
O90 Tb80 2.325 . S
O90 C100 1.236 . S
O91 Tb81 2.322 . S
O91 C100 1.257 . S
O92 Tb81 2.349 . S
O92 C103 1.261 . S
O93 Tb80 2.303 . S
O93 C103 1.257 . S
O94 Tb81 2.415 . S
O94 C110 1.239 . S
O95 Tb81 2.399 1_565 S
O95 C110 1.263 1_565 S
O96 Tb81 2.325 . S
O96 C111 1.236 . S
O97 Tb80 2.322 . S
O97 C111 1.257 . S
O98 Tb80 2.349 . S
O98 C82 1.261 . S
O99 Tb81 2.303 . S
O99 C82 1.257 . S
C100 O90 1.236 . S
C100 O91 1.257 . S
O101 Tb80 2.415 . S
O101 C89 1.239 . S
O102 Tb80 2.399 . S
O102 C89 1.263 . S
C103 O92 1.261 . S
C103 O93 1.257 . S
C104 C107 1.358 . S
C104 C108 1.332 1_565 S
C104 C110 1.504 1_565 S
C105 C106 1.373 . S
C105 C109 1.308 . S
C106 C105 1.373 . S
C106 C107 1.429 . S
C106 H116 0.932 . S
C107 C104 1.358 . S
C107 C106 1.429 . S
C107 H117 0.930 . S
C108 C104 1.332 1_545 S
C108 C109 1.394 1_545 S
C108 H118 0.932 . S
C109 C105 1.308 . S
C109 C108 1.394 1_565 S
C109 H119 0.957 . S
C110 Tb81 2.764 . S
C110 O94 1.239 . S
C110 O95 1.263 1_545 S
C110 C104 1.504 1_545 S
C111 O96 1.236 . S
C111 O97 1.257 . S
H112 C85 0.932 . S
H113 C86 0.930 . S
H114 C87 0.932 . S
H115 C88 0.929 . S
H116 C106 0.932 . S
H117 C107 0.930 . S
H118 C108 0.932 . S
H119 C109 0.957 . S
Tb120 C129 2.764 . S
Tb120 O130 2.325 . S
Tb120 O133 2.303 . S
Tb120 O137 2.322 . S
Tb120 O138 2.349 . S
Tb120 O141 2.415 . S
Tb120 O142 2.399 . S
Tb121 O131 2.322 . S
Tb121 O132 2.349 . S
Tb121 O134 2.415 . S
Tb121 O135 2.399 . S
Tb121 O136 2.325 . S
Tb121 O139 2.303 . S
Tb121 C150 2.764 . S
C122 O138 1.261 . S
C122 O139 1.257 . S
C123 C126 1.358 . S
C123 C127 1.332 . S
C123 C129 1.504 . S
C124 C125 1.373 . S
C124 C128 1.308 . S
C125 C124 1.373 . S
C125 C126 1.429 . S
C125 H152 0.932 . S
C126 C123 1.358 . S
C126 C125 1.429 . S
C126 H153 0.930 . S
C127 C123 1.332 . S
C127 C128 1.394 . S
C127 H154 0.932 . S
C128 C124 1.308 . S
C128 C127 1.394 . S
C128 H155 0.929 . S
C129 Tb120 2.764 . S
C129 C123 1.504 . S
C129 O141 1.239 . S
C129 O142 1.263 . S
O130 Tb120 2.325 . S
O130 C140 1.236 . S
O131 Tb121 2.322 . S
O131 C140 1.257 . S
O132 Tb121 2.349 . S
O132 C143 1.261 . S
O133 Tb120 2.303 . S
O133 C143 1.257 . S
O134 Tb121 2.415 . S
O134 C150 1.239 . S
O135 Tb121 2.399 . S
O135 C150 1.263 . S
O136 Tb121 2.325 . S
O136 C151 1.236 . S
O137 Tb120 2.322 . S
O137 C151 1.257 . S
O138 Tb120 2.349 . S
O138 C122 1.261 . S
O139 Tb121 2.303 . S
O139 C122 1.257 . S
C140 O130 1.236 . S
C140 O131 1.257 . S
O141 Tb120 2.415 . S
O141 C129 1.239 . S
O142 Tb120 2.399 . S
O142 C129 1.263 . S
C143 O132 1.261 . S
C143 O133 1.257 . S
C144 C147 1.358 . S
C144 C148 1.332 . S
C144 C150 1.504 . S
C145 C146 1.373 . S
C145 C149 1.308 . S
C146 C145 1.373 . S
C146 C147 1.429 . S
C146 H156 0.932 . S
C147 C144 1.358 . S
C147 C146 1.429 . S
C147 H157 0.930 . S
C148 C144 1.332 . S
C148 C149 1.394 . S
C148 H158 0.932 . S
C149 C145 1.308 . S
C149 C148 1.394 . S
C149 H159 0.929 . S
C150 Tb121 2.764 . S
C150 O134 1.239 . S
C150 O135 1.263 . S
C150 C144 1.504 . S
C151 O136 1.236 . S
C151 O137 1.257 . S
H152 C125 0.932 . S
H153 C126 0.930 . S
H154 C127 0.932 . S
H155 C128 0.929 . S
H156 C146 0.932 . S
H157 C147 0.930 . S
H158 C148 0.932 . S
H159 C149 0.929 . S
Tb160 C169 2.764 . S
Tb160 O170 2.325 . S
Tb160 O173 2.303 . S
Tb160 O177 2.322 . S
Tb160 O178 2.349 . S
Tb160 O181 2.415 . S
Tb160 O182 2.399 . S
Tb161 O171 2.322 . S
Tb161 O172 2.349 . S
Tb161 O174 2.415 . S
Tb161 O175 2.399 . S
Tb161 O176 2.325 . S
Tb161 O179 2.303 . S
Tb161 C190 2.764 . S
C162 O178 1.261 . S
C162 O179 1.257 . S
C163 C166 1.358 . S
C163 C167 1.332 . S
C163 C169 1.504 . S
C164 C165 1.373 . S
C164 C168 1.308 . S
C165 C164 1.373 . S
C165 C166 1.429 . S
C165 H192 0.932 . S
C166 C163 1.358 . S
C166 C165 1.429 . S
C166 H193 0.930 . S
C167 C163 1.332 . S
C167 C168 1.394 . S
C167 H194 0.932 . S
C168 C164 1.308 . S
C168 C167 1.394 . S
C168 H195 0.929 . S
C169 Tb160 2.764 . S
C169 C163 1.504 . S
C169 O181 1.239 . S
C169 O182 1.263 . S
O170 Tb160 2.325 . S
O170 C180 1.236 . S
O171 Tb161 2.322 . S
O171 C180 1.257 . S
O172 Tb161 2.349 . S
O172 C183 1.261 . S
O173 Tb160 2.303 . S
O173 C183 1.257 . S
O174 Tb161 2.415 . S
O174 C190 1.239 . S
O175 Tb161 2.399 . S
O175 C190 1.263 . S
O176 Tb161 2.325 . S
O176 C191 1.236 . S
O177 Tb160 2.322 . S
O177 C191 1.257 . S
O178 Tb160 2.349 . S
O178 C162 1.261 . S
O179 Tb161 2.303 . S
O179 C162 1.257 . S
C180 O170 1.236 . S
C180 O171 1.257 . S
O181 Tb160 2.415 . S
O181 C169 1.239 . S
O182 Tb160 2.399 . S
O182 C169 1.263 . S
C183 O172 1.261 . S
C183 O173 1.257 . S
C184 C187 1.358 . S
C184 C188 1.332 . S
C184 C190 1.504 . S
C185 C186 1.373 . S
C185 C189 1.308 . S
C186 C185 1.373 . S
C186 C187 1.429 . S
C186 H196 0.932 . S
C187 C184 1.358 . S
C187 C186 1.429 . S
C187 H197 0.930 . S
C188 C184 1.332 . S
C188 C189 1.394 . S
C188 H198 0.932 . S
C189 C185 1.308 . S
C189 C188 1.394 . S
C189 H199 0.929 . S
C190 Tb161 2.764 . S
C190 O174 1.239 . S
C190 O175 1.263 . S
C190 C184 1.504 . S
C191 O176 1.236 . S
C191 O177 1.257 . S
H192 C165 0.932 . S
H193 C166 0.930 . S
H194 C167 0.932 . S
H195 C168 0.929 . S
H196 C186 0.932 . S
H197 C187 0.930 . S
H198 C188 0.932 . S
H199 C189 0.929 . S
Tb200 C209 2.764 . S
Tb200 O210 2.325 . S
Tb200 O213 2.303 . S
Tb200 O217 2.322 . S
Tb200 O218 2.349 . S
Tb200 O221 2.415 . S
Tb200 O222 2.399 . S
Tb201 O211 2.322 . S
Tb201 O212 2.349 1_554 S
Tb201 O214 2.415 . S
Tb201 O215 2.399 . S
Tb201 O216 2.325 . S
Tb201 O219 2.303 . S
Tb201 C230 2.764 . S
C202 O218 1.261 . S
C202 O219 1.257 . S
C203 C206 1.358 . S
C203 C207 1.332 . S
C203 C209 1.504 . S
C204 C205 1.373 . S
C204 C208 1.308 . S
C205 C204 1.373 . S
C205 C206 1.429 . S
C205 H232 0.932 . S
C206 C203 1.358 . S
C206 C205 1.429 . S
C206 H233 0.930 . S
C207 C203 1.332 . S
C207 C208 1.394 . S
C207 H234 0.932 . S
C208 C204 1.308 . S
C208 C207 1.394 . S
C208 H235 0.929 . S
C209 Tb200 2.764 . S
C209 C203 1.504 . S
C209 O221 1.239 . S
C209 O222 1.263 . S
O210 Tb200 2.325 . S
O210 C220 1.236 . S
O211 Tb201 2.322 . S
O211 C220 1.257 . S
O212 Tb201 2.349 1_556 S
O212 C223 1.259 . S
O213 Tb200 2.303 . S
O213 C223 1.252 1_554 S
O214 Tb201 2.415 . S
O214 C230 1.239 . S
O215 Tb201 2.399 . S
O215 C230 1.263 . S
O216 Tb201 2.325 . S
O216 C231 1.236 . S
O217 Tb200 2.322 . S
O217 C231 1.257 . S
O218 Tb200 2.349 . S
O218 C202 1.261 . S
O219 Tb201 2.303 . S
O219 C202 1.257 . S
C220 O210 1.236 . S
C220 O211 1.257 . S
O221 Tb200 2.415 . S
O221 C209 1.239 . S
O222 Tb200 2.399 . S
O222 C209 1.263 . S
C223 O212 1.259 . S
C223 O213 1.252 1_556 S
C224 C227 1.358 . S
C224 C228 1.332 . S
C224 C230 1.504 . S
C225 C226 1.373 . S
C225 C229 1.308 . S
C226 C225 1.373 . S
C226 C227 1.429 . S
C226 H236 0.932 . S
C227 C224 1.358 . S
C227 C226 1.429 . S
C227 H237 0.930 . S
C228 C224 1.332 . S
C228 C229 1.394 . S
C228 H238 0.932 . S
C229 C225 1.308 . S
C229 C228 1.394 . S
C229 H239 0.929 . S
C230 Tb201 2.764 . S
C230 O214 1.239 . S
C230 O215 1.263 . S
C230 C224 1.504 . S
C231 O216 1.236 . S
C231 O217 1.257 . S
H232 C205 0.932 . S
H233 C206 0.930 . S
H234 C207 0.932 . S
H235 C208 0.929 . S
H236 C226 0.932 . S
H237 C227 0.930 . S
H238 C228 0.932 . S
H239 C229 0.929 . S
Tb240 C249 2.764 . S
Tb240 O250 2.325 . S
Tb240 O253 2.303 . S
Tb240 O257 2.322 . S
Tb240 O258 2.349 . S
Tb240 O261 2.415 . S
Tb240 O262 2.399 . S
Tb241 O251 2.322 . S
Tb241 O252 2.349 . S
Tb241 O254 2.415 . S
Tb241 O255 2.399 . S
Tb241 O256 2.325 . S
Tb241 O259 2.303 . S
Tb241 C270 2.764 . S
C242 O258 1.261 . S
C242 O259 1.257 . S
C243 C246 1.358 . S
C243 C247 1.332 . S
C243 C249 1.504 . S
C244 C245 1.373 . S
C244 C248 1.308 . S
C245 C244 1.373 . S
C245 C246 1.429 . S
C245 H272 0.932 . S
C246 C243 1.358 . S
C246 C245 1.429 . S
C246 H273 0.930 . S
C247 C243 1.332 . S
C247 C248 1.394 . S
C247 H274 0.932 . S
C248 C244 1.308 . S
C248 C247 1.394 . S
C248 H275 0.929 . S
C249 Tb240 2.764 . S
C249 C243 1.504 . S
C249 O261 1.239 . S
C249 O262 1.263 . S
O250 Tb240 2.325 . S
O250 C260 1.236 . S
O251 Tb241 2.322 . S
O251 C260 1.257 . S
O252 Tb241 2.349 . S
O252 C263 1.261 . S
O253 Tb240 2.303 . S
O253 C263 1.257 . S
O254 Tb241 2.415 . S
O254 C270 1.239 . S
O255 Tb241 2.399 . S
O255 C270 1.263 . S
O256 Tb241 2.325 . S
O256 C271 1.236 . S
O257 Tb240 2.322 . S
O257 C271 1.257 . S
O258 Tb240 2.349 . S
O258 C242 1.261 . S
O259 Tb241 2.303 . S
O259 C242 1.257 . S
C260 O250 1.236 . S
C260 O251 1.257 . S
O261 Tb240 2.415 . S
O261 C249 1.239 . S
O262 Tb240 2.399 . S
O262 C249 1.263 . S
C263 O252 1.261 . S
C263 O253 1.257 . S
C264 C267 1.358 . S
C264 C268 1.332 . S
C264 C270 1.504 . S
C265 C266 1.373 . S
C265 C269 1.308 . S
C266 C265 1.373 . S
C266 C267 1.429 . S
C266 H276 0.932 . S
C267 C264 1.358 . S
C267 C266 1.429 . S
C267 H277 0.930 . S
C268 C264 1.332 . S
C268 C269 1.394 . S
C268 H278 0.932 . S
C269 C265 1.308 . S
C269 C268 1.394 . S
C269 H279 0.929 . S
C270 Tb241 2.764 . S
C270 O254 1.239 . S
C270 O255 1.263 . S
C270 C264 1.504 . S
C271 O256 1.236 . S
C271 O257 1.257 . S
H272 C245 0.932 . S
H273 C246 0.930 . S
H274 C247 0.932 . S
H275 C248 0.929 . S
H276 C266 0.932 . S
H277 C267 0.930 . S
H278 C268 0.932 . S
H279 C269 0.929 . S
Tb280 C289 2.764 . S
Tb280 O290 2.325 . S
Tb280 O293 2.303 . S
Tb280 O297 2.322 . S
Tb280 O298 2.349 . S
Tb280 O301 2.415 . S
Tb280 O302 2.399 . S
Tb281 O291 2.322 . S
Tb281 O292 2.349 . S
Tb281 O294 2.415 . S
Tb281 O295 2.399 . S
Tb281 O296 2.325 . S
Tb281 O299 2.303 . S
Tb281 C310 2.764 . S
C282 O298 1.261 . S
C282 O299 1.257 . S
C283 C286 1.358 . S
C283 C287 1.332 . S
C283 C289 1.504 . S
C284 C285 1.373 . S
C284 C288 1.308 . S
C285 C284 1.373 . S
C285 C286 1.429 . S
C285 H312 0.932 . S
C286 C283 1.358 . S
C286 C285 1.429 . S
C286 H313 0.930 . S
C287 C283 1.332 . S
C287 C288 1.394 . S
C287 H314 0.932 . S
C288 C284 1.308 . S
C288 C287 1.394 . S
C288 H315 0.929 . S
C289 Tb280 2.764 . S
C289 C283 1.504 . S
C289 O301 1.239 . S
C289 O302 1.263 . S
O290 Tb280 2.325 . S
O290 C300 1.236 . S
O291 Tb281 2.322 . S
O291 C300 1.257 . S
O292 Tb281 2.349 . S
O292 C303 1.261 . S
O293 Tb280 2.303 . S
O293 C303 1.257 . S
O294 Tb281 2.415 . S
O294 C310 1.239 . S
O295 Tb281 2.399 . S
O295 C310 1.263 . S
O296 Tb281 2.325 . S
O296 C311 1.236 . S
O297 Tb280 2.322 . S
O297 C311 1.257 . S
O298 Tb280 2.349 . S
O298 C282 1.261 . S
O299 Tb281 2.303 . S
O299 C282 1.257 . S
C300 O290 1.236 . S
C300 O291 1.257 . S
O301 Tb280 2.415 . S
O301 C289 1.239 . S
O302 Tb280 2.399 . S
O302 C289 1.263 . S
C303 O292 1.261 . S
C303 O293 1.257 . S
C304 C307 1.358 . S
C304 C308 1.332 . S
C304 C310 1.504 . S
C305 C306 1.373 . S
C305 C309 1.308 . S
C306 C305 1.373 . S
C306 C307 1.429 . S
C306 H316 0.932 . S
C307 C304 1.358 . S
C307 C306 1.429 . S
C307 H317 0.930 . S
C308 C304 1.332 . S
C308 C309 1.394 . S
C308 H318 0.932 . S
C309 C305 1.308 . S
C309 C308 1.394 . S
C309 H319 0.929 . S
C310 Tb281 2.764 . S
C310 O294 1.239 . S
C310 O295 1.263 . S
C310 C304 1.504 . S
C311 O296 1.236 . S
C311 O297 1.257 . S
H312 C285 0.932 . S
H313 C286 0.930 . S
H314 C287 0.932 . S
H315 C288 0.929 . S
H316 C306 0.932 . S
H317 C307 0.930 . S
H318 C308 0.932 . S
H319 C309 0.929 . S
Tb320 C329 2.764 . S
Tb320 O330 2.325 . S
Tb320 O333 2.303 . S
Tb320 O337 2.322 . S
Tb320 O338 2.349 . S
Tb320 O341 2.415 . S
Tb320 O342 2.399 . S
Tb321 O331 2.322 . S
Tb321 O332 2.349 . S
Tb321 O334 2.415 . S
Tb321 O335 2.399 . S
Tb321 O336 2.325 . S
Tb321 O339 2.303 . S
Tb321 C350 2.764 . S
C322 O338 1.261 . S
C322 O339 1.257 . S
C323 C326 1.358 . S
C323 C327 1.332 . S
C323 C329 1.504 . S
C324 C325 1.373 . S
C324 C328 1.308 . S
C325 C324 1.373 . S
C325 C326 1.429 . S
C325 H352 0.932 . S
C326 C323 1.358 . S
C326 C325 1.429 . S
C326 H353 0.930 . S
C327 C323 1.332 . S
C327 C328 1.394 . S
C327 H354 0.932 . S
C328 C324 1.308 . S
C328 C327 1.394 . S
C328 H355 0.929 . S
C329 Tb320 2.764 . S
C329 C323 1.504 . S
C329 O341 1.239 . S
C329 O342 1.263 . S
O330 Tb320 2.325 . S
O330 C340 1.236 . S
O331 Tb321 2.322 . S
O331 C340 1.257 . S
O332 Tb321 2.349 . S
O332 C343 1.261 . S
O333 Tb320 2.303 . S
O333 C343 1.257 . S
O334 Tb321 2.415 . S
O334 C350 1.239 . S
O335 Tb321 2.399 . S
O335 C350 1.263 . S
O336 Tb321 2.325 . S
O336 C351 1.236 . S
O337 Tb320 2.322 . S
O337 C351 1.257 . S
O338 Tb320 2.349 . S
O338 C322 1.261 . S
O339 Tb321 2.303 . S
O339 C322 1.257 . S
C340 O330 1.236 . S
C340 O331 1.257 . S
O341 Tb320 2.415 . S
O341 C329 1.239 . S
O342 Tb320 2.399 . S
O342 C329 1.263 . S
C343 O332 1.261 . S
C343 O333 1.257 . S
C344 C347 1.358 . S
C344 C348 1.332 . S
C344 C350 1.504 . S
C345 C346 1.373 . S
C345 C349 1.308 . S
C346 C345 1.373 . S
C346 C347 1.429 . S
C346 H356 0.932 . S
C347 C344 1.358 . S
C347 C346 1.429 . S
C347 H357 0.930 . S
C348 C344 1.332 . S
C348 C349 1.394 . S
C348 H358 0.932 . S
C349 C345 1.308 . S
C349 C348 1.394 . S
C349 H359 0.929 . S
C350 Tb321 2.764 . S
C350 O334 1.239 . S
C350 O335 1.263 . S
C350 C344 1.504 . S
C351 O336 1.236 . S
C351 O337 1.257 . S
H352 C325 0.932 . S
H353 C326 0.930 . S
H354 C327 0.932 . S
H355 C328 0.929 . S
H356 C346 0.932 . S
H357 C347 0.930 . S
H358 C348 0.932 . S
H359 C349 0.929 . S
H360 C368 0.929 . S
H361 C370 0.930 . S
H362 C372 0.930 . S
H363 C375 0.929 . S
H364 C378 0.930 . S
H365 C380 0.960 . S
H366 C380 0.960 . S
H367 C380 0.960 . S
C368 H360 0.929 . S
C368 C369 1.377 . S
C368 C370 1.384 . S
C369 C368 1.377 . S
C369 C375 1.390 . S
C370 H361 0.930 . S
C370 C368 1.384 . S
C370 C371 1.372 . S
C371 C370 1.372 . S
C371 C372 1.400 . S
C371 C376 1.490 . S
C372 H362 0.930 . S
C372 C371 1.400 . S
C372 C375 1.386 . S
H373 C389 0.930 . S
H374 C390 0.931 . S
C375 H363 0.929 . S
C375 C369 1.390 . S
C375 C372 1.386 . S
C376 C371 1.490 . S
C376 C378 1.395 . S
C376 C379 1.403 . S
H377 C383 0.930 . S
C378 H364 0.930 . S
C378 C376 1.395 . S
C378 C381 1.403 . S
C379 C376 1.403 . S
C379 C380 1.524 . S
C379 C383 1.400 . S
C380 H365 0.960 . S
C380 H366 0.960 . S
C380 H367 0.960 . S
C380 C379 1.524 . S
C381 C378 1.403 . S
C381 C382 1.392 . S
C381 C385 1.495 . S
C382 C381 1.392 . S
C382 C383 1.385 . S
C382 C384 1.478 . S
C383 H377 0.930 . S
C383 C379 1.400 . S
C383 C382 1.385 . S
C384 C382 1.478 . S
C384 C386 1.381 . S
C384 C390 1.383 . S
C385 C381 1.495 . S
C385 H391 0.988 . S
C385 H392 0.961 . S
C385 H393 0.962 . S
C386 C384 1.381 . S
C386 C387 1.394 . S
C386 H394 0.930 . S
C387 C386 1.394 . S
C387 C388 1.383 . S
C387 H395 0.929 . S
C388 C387 1.383 . S
C388 C389 1.377 . S
C389 H373 0.930 . S
C389 C388 1.377 . S
C389 C390 1.379 . S
C390 H374 0.931 . S
C390 C384 1.383 . S
C390 C389 1.379 . S
H391 C385 0.988 . S
H392 C385 0.961 . S
H393 C385 0.962 . S
H394 C386 0.930 . S
H395 C387 0.929 . S
H396 C404 0.929 . S
H397 C406 0.930 . S
H398 C408 0.930 . S
H399 C411 0.929 . S
H400 C414 0.930 . S
H401 C416 0.960 . S
H402 C416 0.960 . S
H403 C416 0.960 . S
C404 H396 0.929 . S
C404 C405 1.377 . S
C404 C406 1.384 . S
C405 C404 1.377 . S
C405 C411 1.390 . S
C406 H397 0.930 . S
C406 C404 1.384 . S
C406 C407 1.372 . S
C407 C406 1.372 . S
C407 C408 1.400 . S
C407 C412 1.490 . S
C408 H398 0.930 . S
C408 C407 1.400 . S
C408 C411 1.386 . S
H409 C425 0.930 . S
H410 C426 0.931 . S
C411 H399 0.929 . S
C411 C405 1.390 . S
C411 C408 1.386 . S
C412 C407 1.490 . S
C412 C414 1.395 . S
C412 C415 1.403 . S
H413 C419 0.930 . S
C414 H400 0.930 . S
C414 C412 1.395 . S
C414 C417 1.403 . S
C415 C412 1.403 . S
C415 C416 1.524 . S
C415 C419 1.400 . S
C416 H401 0.960 . S
C416 H402 0.960 . S
C416 H403 0.960 . S
C416 C415 1.524 . S
C417 C414 1.403 . S
C417 C418 1.392 . S
C417 C421 1.495 . S
C418 C417 1.392 . S
C418 C419 1.385 . S
C418 C420 1.478 . S
C419 H413 0.930 . S
C419 C415 1.400 . S
C419 C418 1.385 . S
C420 C418 1.478 . S
C420 C422 1.381 . S
C420 C426 1.383 . S
C421 C417 1.495 . S
C421 H427 0.959 . S
C421 H428 0.961 . S
C421 H429 0.960 . S
C422 C420 1.381 . S
C422 C423 1.394 . S
C422 H430 0.930 . S
C423 C422 1.394 . S
C423 C424 1.383 . S
C423 H431 0.929 . S
C424 C423 1.383 . S
C424 C425 1.377 . S
C425 H409 0.930 . S
C425 C424 1.377 . S
C425 C426 1.379 . S
C426 H410 0.931 . S
C426 C420 1.383 . S
C426 C425 1.379 . S
H427 C421 0.959 . S
H428 C421 0.961 . S
H429 C421 0.960 . S
H430 C422 0.930 . S
H431 C423 0.929 . S
H432 C440 0.929 1_554 S
H433 C442 0.930 . S
H434 C444 0.930 . S
H435 C447 0.929 . S
H436 C450 0.930 . S
H437 C452 0.960 1_565 S
H438 C452 0.960 . S
H439 C452 0.960 1_565 S
C440 H432 0.929 1_556 S
C440 C441 1.377 . S
C440 C442 1.384 . S
C441 C440 1.377 . S
C441 C447 1.390 . S
C442 H433 0.930 . S
C442 C440 1.384 . S
C442 C443 1.372 . S
C443 C442 1.372 . S
C443 C444 1.400 . S
C443 C448 1.490 . S
C444 H434 0.930 . S
C444 C443 1.400 . S
C444 C447 1.386 . S
H445 C461 0.930 . S
H446 C462 0.931 . S
C447 H435 0.929 . S
C447 C441 1.390 . S
C447 C444 1.386 . S
C448 C443 1.490 . S
C448 C450 1.395 . S
C448 C451 1.403 . S
H449 C455 0.930 . S
C450 H436 0.930 . S
C450 C448 1.395 . S
C450 C453 1.403 . S
C451 C448 1.403 . S
C451 C452 1.524 . S
C451 C455 1.400 . S
C452 H437 0.960 1_545 S
C452 H438 0.960 . S
C452 H439 0.960 1_545 S
C452 C451 1.524 . S
C453 C450 1.403 . S
C453 C454 1.392 . S
C453 C457 1.495 . S
C454 C453 1.392 . S
C454 C455 1.385 . S
C454 C456 1.478 . S
C455 H449 0.930 . S
C455 C451 1.400 . S
C455 C454 1.385 . S
C456 C454 1.478 . S
C456 C458 1.381 . S
C456 C462 1.383 . S
C457 C453 1.495 . S
C457 H463 0.959 . S
C457 H464 0.961 . S
C457 H465 0.960 . S
C458 C456 1.381 . S
C458 C459 1.394 . S
C458 H466 0.930 . S
C459 C458 1.394 . S
C459 C460 1.383 . S
C459 H467 0.929 . S
C460 C459 1.383 . S
C460 C461 1.377 . S
C461 H445 0.930 . S
C461 C460 1.377 . S
C461 C462 1.379 . S
C462 H446 0.931 . S
C462 C456 1.383 . S
C462 C461 1.379 . S
H463 C457 0.959 . S
H464 C457 0.961 . S
H465 C457 0.960 . S
H466 C458 0.930 . S
H467 C459 0.929 . S
H468 C476 0.929 . S
H469 C478 0.930 . S
H470 C480 0.930 . S
H471 C483 0.929 . S
H472 C486 0.930 . S
H473 C488 0.960 . S
H474 C488 0.960 . S
H475 C488 0.960 . S
C476 H468 0.929 . S
C476 C477 1.377 . S
C476 C478 1.384 . S
C477 C476 1.377 . S
C477 C483 1.390 . S
C478 H469 0.930 . S
C478 C476 1.384 . S
C478 C479 1.372 . S
C479 C478 1.372 . S
C479 C480 1.400 . S
C479 C484 1.490 . S
C480 H470 0.930 . S
C480 C479 1.400 . S
C480 C483 1.386 . S
H481 C497 0.930 . S
H482 C498 0.931 . S
C483 H471 0.929 . S
C483 C477 1.390 . S
C483 C480 1.386 . S
C484 C479 1.490 . S
C484 C486 1.395 . S
C484 C487 1.403 . S
H485 C491 0.930 . S
C486 H472 0.930 . S
C486 C484 1.395 . S
C486 C489 1.403 . S
C487 C484 1.403 . S
C487 C488 1.524 . S
C487 C491 1.400 . S
C488 H473 0.960 . S
C488 H474 0.960 . S
C488 H475 0.960 . S
C488 C487 1.524 . S
C489 C486 1.403 . S
C489 C490 1.392 . S
C489 C493 1.495 . S
C490 C489 1.392 . S
C490 C491 1.385 . S
C490 C492 1.478 1_556 S
C491 H485 0.930 . S
C491 C487 1.400 . S
C491 C490 1.385 . S
C492 C490 1.478 1_554 S
C492 C494 1.381 . S
C492 C498 1.383 . S
C493 C489 1.495 . S
C493 H499 0.959 . S
C493 H500 0.961 1_556 S
C493 H501 0.960 . S
C494 C492 1.381 . S
C494 C495 1.394 . S
C494 H502 0.930 . S
C495 C494 1.394 . S
C495 C496 1.383 . S
C495 H503 0.929 . S
C496 C495 1.383 . S
C496 C497 1.377 . S
C497 H481 0.930 . S
C497 C496 1.377 . S
C497 C498 1.379 . S
C498 H482 0.931 . S
C498 C492 1.383 . S
C498 C497 1.379 . S
H499 C493 0.959 . S
H500 C493 0.961 1_554 S
H501 C493 0.960 . S
H502 C494 0.930 . S
H503 C495 0.929 . S
H504 C512 0.929 . S
H505 C514 0.930 . S
H506 C516 0.930 . S
H507 C519 0.929 . S
H508 C522 0.930 . S
H509 C524 0.960 . S
H510 C524 0.960 . S
H511 C524 0.960 . S
C512 H504 0.929 . S
C512 C513 1.377 . S
C512 C514 1.384 . S
C513 C512 1.377 . S
C513 C519 1.390 . S
C514 H505 0.930 . S
C514 C512 1.384 . S
C514 C515 1.372 . S
C515 C514 1.372 . S
C515 C516 1.400 . S
C515 C520 1.490 . S
C516 H506 0.930 . S
C516 C515 1.400 . S
C516 C519 1.386 . S
H517 C533 0.930 . S
H518 C534 0.931 . S
C519 H507 0.929 . S
C519 C513 1.390 . S
C519 C516 1.386 . S
C520 C515 1.490 . S
C520 C522 1.395 . S
C520 C523 1.403 . S
H521 C527 0.930 . S
C522 H508 0.930 . S
C522 C520 1.395 . S
C522 C525 1.403 . S
C523 C520 1.403 . S
C523 C524 1.524 . S
C523 C527 1.400 . S
C524 H509 0.960 . S
C524 H510 0.960 . S
C524 H511 0.960 . S
C524 C523 1.524 . S
C525 C522 1.403 . S
C525 C526 1.392 . S
C525 C529 1.495 . S
C526 C525 1.392 . S
C526 C527 1.385 . S
C526 C528 1.478 . S
C527 H521 0.930 . S
C527 C523 1.400 . S
C527 C526 1.385 . S
C528 C526 1.478 . S
C528 C530 1.381 . S
C528 C534 1.383 . S
C529 C525 1.495 . S
C529 H535 0.959 . S
C529 H536 0.961 . S
C529 H537 0.960 . S
C530 C528 1.381 . S
C530 C531 1.394 1_556 S
C530 H538 0.930 . S
C531 C530 1.394 1_554 S
C531 C532 1.383 . S
C531 H539 0.929 . S
C532 C531 1.383 . S
C532 C533 1.377 . S
C533 H517 0.930 . S
C533 C532 1.377 . S
C533 C534 1.379 1_554 S
C534 H518 0.931 . S
C534 C528 1.383 . S
C534 C533 1.379 1_556 S
H535 C529 0.959 . S
H536 C529 0.961 . S
H537 C529 0.960 . S
H538 C530 0.930 . S
H539 C531 0.929 . S
H540 C548 0.929 . S
H541 C550 0.930 . S
H542 C552 0.930 . S
H543 C555 0.929 . S
H544 C558 0.930 . S
H545 C560 0.960 . S
H546 C560 0.960 . S
H547 C560 0.960 . S
C548 H540 0.929 . S
C548 C549 1.377 . S
C548 C550 1.384 . S
C549 C548 1.377 . S
C549 C555 1.390 . S
C550 H541 0.930 . S
C550 C548 1.384 . S
C550 C551 1.372 . S
C551 C550 1.372 . S
C551 C552 1.400 . S
C551 C556 1.490 . S
C552 H542 0.930 . S
C552 C551 1.400 . S
C552 C555 1.386 . S
H553 C569 0.930 . S
H554 C570 0.931 . S
C555 H543 0.929 . S
C555 C549 1.390 . S
C555 C552 1.386 . S
C556 C551 1.490 . S
C556 C558 1.395 . S
C556 C559 1.403 . S
H557 C563 0.930 . S
C558 H544 0.930 . S
C558 C556 1.395 . S
C558 C561 1.403 . S
C559 C556 1.403 . S
C559 C560 1.524 . S
C559 C563 1.400 . S
C560 H545 0.960 . S
C560 H546 0.960 . S
C560 H547 0.960 . S
C560 C559 1.524 . S
C561 C558 1.403 . S
C561 C562 1.392 . S
C561 C565 1.495 . S
C562 C561 1.392 . S
C562 C563 1.385 . S
C562 C564 1.478 . S
C563 H557 0.930 . S
C563 C559 1.400 . S
C563 C562 1.385 . S
C564 C562 1.478 . S
C564 C566 1.381 . S
C564 C570 1.383 . S
C565 C561 1.495 . S
C565 H571 0.959 . S
C565 H572 0.961 . S
C565 H573 0.960 . S
C566 C564 1.381 . S
C566 C567 1.394 . S
C566 H574 0.930 . S
C567 C566 1.394 . S
C567 C568 1.383 . S
C567 H575 0.929 . S
C568 C567 1.383 . S
C568 C569 1.377 . S
C569 H553 0.930 . S
C569 C568 1.377 . S
C569 C570 1.379 . S
C570 H554 0.931 . S
C570 C564 1.383 . S
C570 C569 1.379 . S
H571 C565 0.959 . S
H572 C565 0.961 . S
H573 C565 0.960 . S
H574 C566 0.930 . S
H575 C567 0.929 . S
H576 C584 0.929 . S
H577 C586 0.930 . S
H578 C588 0.930 . S
H579 C591 0.929 . S
H580 C594 0.930 . S
H581 C596 0.960 . S
H582 C596 0.960 . S
H583 C596 0.960 . S
C584 H576 0.929 . S
C584 C585 1.377 . S
C584 C586 1.384 . S
C585 C584 1.377 . S
C585 C591 1.390 . S
C586 H577 0.930 . S
C586 C584 1.384 . S
C586 C587 1.372 . S
C587 C586 1.372 . S
C587 C588 1.400 . S
C587 C592 1.490 . S
C588 H578 0.930 . S
C588 C587 1.400 . S
C588 C591 1.386 . S
H589 C605 0.930 . S
H590 C606 0.931 1_554 S
C591 H579 0.929 . S
C591 C585 1.390 . S
C591 C588 1.386 . S
C592 C587 1.490 . S
C592 C594 1.395 . S
C592 C595 1.403 . S
H593 C599 0.930 . S
C594 H580 0.930 . S
C594 C592 1.395 . S
C594 C597 1.403 . S
C595 C592 1.403 . S
C595 C596 1.524 . S
C595 C599 1.400 . S
C596 H581 0.960 . S
C596 H582 0.960 . S
C596 H583 0.960 . S
C596 C595 1.524 . S
C597 C594 1.403 . S
C597 C598 1.392 . S
C597 C601 1.495 . S
C598 C597 1.392 . S
C598 C599 1.385 . S
C598 C600 1.478 . S
C599 H593 0.930 . S
C599 C595 1.400 . S
C599 C598 1.385 . S
C600 C598 1.478 . S
C600 C602 1.381 1_554 S
C600 C606 1.383 1_554 S
C601 C597 1.495 . S
C601 H607 0.959 . S
C601 H608 0.961 . S
C601 H609 0.960 . S
C602 C600 1.381 1_556 S
C602 C603 1.394 . S
C602 H610 0.930 1_556 S
C603 C602 1.394 . S
C603 C604 1.383 . S
C603 H611 0.929 . S
C604 C603 1.383 . S
C604 C605 1.377 . S
C605 H589 0.930 . S
C605 C604 1.377 . S
C605 C606 1.379 . S
C606 H590 0.931 1_556 S
C606 C600 1.383 1_556 S
C606 C605 1.379 . S
H607 C601 0.959 . S
H608 C601 0.961 . S
H609 C601 0.960 . S
H610 C602 0.930 1_554 S
H611 C603 0.929 . S
H612 C620 0.929 . S
H613 C622 0.930 . S
H614 C624 0.930 . S
H615 C627 0.929 . S
H616 C630 0.930 . S
H617 C632 0.960 . S
H618 C632 0.960 . S
H619 C632 0.960 . S
C620 H612 0.929 . S
C620 C621 1.377 . S
C620 C622 1.384 . S
C621 C620 1.377 . S
C621 C627 1.390 . S
C622 H613 0.930 . S
C622 C620 1.384 . S
C622 C623 1.372 . S
C623 C622 1.372 . S
C623 C624 1.400 . S
C623 C628 1.490 . S
C624 H614 0.930 . S
C624 C623 1.400 . S
C624 C627 1.386 . S
H625 C641 0.930 . S
H626 C642 0.931 1_554 S
C627 H615 0.929 . S
C627 C621 1.390 . S
C627 C624 1.386 . S
C628 C623 1.490 . S
C628 C630 1.395 . S
C628 C631 1.403 . S
H629 C635 0.930 . S
C630 H616 0.930 . S
C630 C628 1.395 . S
C630 C633 1.403 . S
C631 C628 1.403 . S
C631 C632 1.524 . S
C631 C635 1.400 . S
C632 H617 0.960 . S
C632 H618 0.960 . S
C632 H619 0.960 . S
C632 C631 1.524 . S
C633 C630 1.403 . S
C633 C634 1.392 . S
C633 C637 1.495 . S
C634 C633 1.392 . S
C634 C635 1.385 . S
C634 C636 1.478 . S
C635 H629 0.930 . S
C635 C631 1.400 . S
C635 C634 1.385 . S
C636 C634 1.478 . S
C636 C638 1.381 1_554 S
C636 C642 1.383 1_554 S
C637 C633 1.495 . S
C637 H643 0.959 . S
C637 H644 0.961 . S
C637 H645 0.960 . S
C638 C636 1.381 1_556 S
C638 C639 1.394 . S
C638 H646 0.930 . S
C639 C638 1.394 . S
C639 C640 1.383 . S
C639 H647 0.929 . S
C640 C639 1.383 . S
C640 C641 1.377 . S
C641 H625 0.930 . S
C641 C640 1.377 . S
C641 C642 1.379 . S
C642 H626 0.931 1_556 S
C642 C636 1.383 1_556 S
C642 C641 1.379 . S
H643 C637 0.959 . S
H644 C637 0.961 . S
H645 C637 0.960 . S
H646 C638 0.930 . S
H647 C639 0.929 . S
H648 C656 0.929 . S
H649 C658 0.930 . S
H650 C660 0.930 . S
H651 C663 0.929 . S
H652 C666 0.930 . S
H653 C668 0.960 . S
H654 C668 0.960 . S
H655 C668 0.960 . S
C656 H648 0.929 . S
C656 C657 1.377 . S
C656 C658 1.384 . S
C657 C656 1.377 . S
C657 C663 1.390 . S
C658 H649 0.930 . S
C658 C656 1.384 . S
C658 C659 1.372 . S
C659 C658 1.372 . S
C659 C660 1.400 . S
C659 C664 1.490 . S
C660 H650 0.930 . S
C660 C659 1.400 . S
C660 C663 1.386 . S
H661 C677 0.930 . S
H662 C678 0.924 1_554 S
C663 H651 0.929 . S
C663 C657 1.390 . S
C663 C660 1.386 . S
C664 C659 1.490 . S
C664 C666 1.395 . S
C664 C667 1.403 . S
H665 C671 0.930 . S
C666 H652 0.930 . S
C666 C664 1.395 . S
C666 C669 1.403 . S
C667 C664 1.403 . S
C667 C668 1.524 . S
C667 C671 1.400 . S
C668 H653 0.960 . S
C668 H654 0.960 . S
C668 H655 0.960 . S
C668 C667 1.524 . S
C669 C666 1.403 . S
C669 C670 1.392 . S
C669 C673 1.495 . S
C670 C669 1.392 . S
C670 C671 1.385 . S
C670 C672 1.478 . S
C671 H665 0.930 . S
C671 C667 1.400 . S
C671 C670 1.385 . S
C672 C670 1.478 . S
C672 C674 1.381 1_554 S
C672 C678 1.375 1_554 S
C673 C669 1.495 . S
C673 H679 0.959 . S
C673 H680 0.961 . S
C673 H681 0.960 . S
C674 C672 1.381 1_556 S
C674 C675 1.394 . S
C674 H682 0.930 . S
C675 C674 1.394 . S
C675 C676 1.383 . S
C675 H683 0.929 . S
C676 C675 1.383 . S
C676 C677 1.377 . S
C677 H661 0.930 . S
C677 C676 1.377 . S
C677 C678 1.394 . S
C678 H662 0.924 1_556 S
C678 C672 1.375 1_556 S
C678 C677 1.394 . S
H679 C673 0.959 . S
H680 C673 0.961 . S
H681 C673 0.960 . S
H682 C674 0.930 . S
H683 C675 0.929 . S
H684 C692 0.929 . S
H685 C694 0.930 . S
H686 C696 0.930 . S
H687 C699 0.929 . S
H688 C702 0.930 . S
H689 C704 0.960 . S
H690 C704 0.960 . S
H691 C704 0.960 . S
C692 H684 0.929 . S
C692 C693 1.377 . S
C692 C694 1.384 . S
C693 C692 1.377 . S
C693 C699 1.390 . S
C694 H685 0.930 . S
C694 C692 1.384 . S
C694 C695 1.372 . S
C695 C694 1.372 . S
C695 C696 1.400 . S
C695 C700 1.490 . S
C696 H686 0.930 . S
C696 C695 1.400 . S
C696 C699 1.386 . S
H697 C713 0.930 . S
H698 C714 0.931 . S
C699 H687 0.929 . S
C699 C693 1.390 . S
C699 C696 1.386 . S
C700 C695 1.490 . S
C700 C702 1.395 . S
C700 C703 1.403 . S
H701 C707 0.930 . S
C702 H688 0.930 . S
C702 C700 1.395 . S
C702 C705 1.403 . S
C703 C700 1.403 . S
C703 C704 1.524 1_554 S
C703 C707 1.400 . S
C704 H689 0.960 . S
C704 H690 0.960 . S
C704 H691 0.960 . S
C704 C703 1.524 1_556 S
C705 C702 1.403 . S
C705 C706 1.392 . S
C705 C709 1.495 . S
C706 C705 1.392 . S
C706 C707 1.385 . S
C706 C708 1.478 . S
C707 H701 0.930 . S
C707 C703 1.400 . S
C707 C706 1.385 . S
C708 C706 1.478 . S
C708 C710 1.381 . S
C708 C714 1.383 . S
C709 C705 1.495 . S
C709 H715 0.959 . S
C709 H716 0.961 . S
C709 H717 0.960 . S
C710 C708 1.381 . S
C710 C711 1.394 . S
C710 H718 0.930 . S
C711 C710 1.394 . S
C711 C712 1.383 . S
C711 H719 0.929 . S
C712 C711 1.383 . S
C712 C713 1.377 . S
C713 H697 0.930 . S
C713 C712 1.377 . S
C713 C714 1.379 . S
C714 H698 0.931 . S
C714 C708 1.383 . S
C714 C713 1.379 . S
H715 C709 0.959 . S
H716 C709 0.961 . S
H717 C709 0.960 . S
H718 C710 0.930 . S
H719 C711 0.929 . S
H720 C728 0.929 . S
H721 C730 0.930 . S
H722 C732 0.930 . S
H723 C735 0.929 . S
H724 C738 0.930 . S
H725 C740 0.960 . S
H726 C740 0.960 . S
H727 C740 0.960 . S
C728 H720 0.929 . S
C728 C729 1.377 . S
C728 C730 1.384 . S
C729 C728 1.377 . S
C729 C735 1.390 . S
C730 H721 0.930 . S
C730 C728 1.384 . S
C730 C731 1.372 . S
C731 C730 1.372 . S
C731 C732 1.400 . S
C731 C736 1.490 . S
C732 H722 0.930 . S
C732 C731 1.400 . S
C732 C735 1.386 . S
H733 C749 0.930 . S
H734 C750 0.931 . S
C735 H723 0.929 . S
C735 C729 1.390 . S
C735 C732 1.386 . S
C736 C731 1.490 . S
C736 C738 1.395 . S
C736 C739 1.403 . S
H737 C743 0.930 . S
C738 H724 0.930 . S
C738 C736 1.395 . S
C738 C741 1.403 . S
C739 C736 1.403 . S
C739 C740 1.524 . S
C739 C743 1.400 . S
C740 H725 0.960 . S
C740 H726 0.960 . S
C740 H727 0.960 . S
C740 C739 1.524 . S
C741 C738 1.403 . S
C741 C742 1.392 . S
C741 C745 1.495 . S
C742 C741 1.392 . S
C742 C743 1.385 . S
C742 C744 1.478 . S
C743 H737 0.930 . S
C743 C739 1.400 . S
C743 C742 1.385 . S
C744 C742 1.478 . S
C744 C746 1.381 . S
C744 C750 1.383 . S
C745 C741 1.495 . S
C745 H751 0.959 . S
C745 H752 0.961 . S
C745 H753 0.960 . S
C746 C744 1.381 . S
C746 C747 1.394 . S
C746 H754 0.930 . S
C747 C746 1.394 . S
C747 C748 1.383 . S
C747 H755 0.929 . S
C748 C747 1.383 . S
C748 C749 1.377 . S
C749 H733 0.930 . S
C749 C748 1.377 . S
C749 C750 1.379 . S
C750 H734 0.931 . S
C750 C744 1.383 . S
C750 C749 1.379 . S
H751 C745 0.959 . S
H752 C745 0.961 . S
H753 C745 0.960 . S
H754 C746 0.930 . S
H755 C747 0.929 . S
H756 C764 0.929 . S
H757 C766 0.930 . S
H758 C768 0.930 . S
H759 C771 0.929 . S
H760 C774 0.930 . S
H761 C776 0.960 . S
H762 C776 0.960 . S
H763 C776 0.960 . S
C764 H756 0.929 . S
C764 C765 1.377 . S
C764 C766 1.384 . S
C765 C764 1.377 . S
C765 C771 1.390 . S
C766 H757 0.930 . S
C766 C764 1.384 . S
C766 C767 1.372 . S
C767 C766 1.372 . S
C767 C768 1.400 . S
C767 C772 1.490 . S
C768 H758 0.930 . S
C768 C767 1.400 . S
C768 C771 1.386 . S
H769 C785 0.930 . S
H770 C786 0.931 . S
C771 H759 0.929 . S
C771 C765 1.390 . S
C771 C768 1.386 . S
C772 C767 1.490 . S
C772 C774 1.395 . S
C772 C775 1.403 . S
H773 C779 0.930 . S
C774 H760 0.930 . S
C774 C772 1.395 . S
C774 C777 1.403 . S
C775 C772 1.403 . S
C775 C776 1.524 . S
C775 C779 1.400 . S
C776 H761 0.960 . S
C776 H762 0.960 . S
C776 H763 0.960 . S
C776 C775 1.524 . S
C777 C774 1.403 . S
C777 C778 1.392 . S
C777 C781 1.495 . S
C778 C777 1.392 . S
C778 C779 1.385 . S
C778 C780 1.478 . S
C779 H773 0.930 . S
C779 C775 1.400 . S
C779 C778 1.385 . S
C780 C778 1.478 . S
C780 C782 1.381 . S
C780 C786 1.383 . S
C781 C777 1.495 . S
C781 H787 0.959 . S
C781 H788 0.961 . S
C781 H789 0.960 . S
C782 C780 1.381 . S
C782 C783 1.394 . S
C782 H790 0.930 . S
C783 C782 1.394 . S
C783 C784 1.383 . S
C783 H791 0.929 . S
C784 C783 1.383 . S
C784 C785 1.377 . S
C785 H769 0.930 . S
C785 C784 1.377 . S
C785 C786 1.379 . S
C786 H770 0.931 . S
C786 C780 1.383 . S
C786 C785 1.379 . S
H787 C781 0.959 . S
H788 C781 0.961 . S
H789 C781 0.960 . S
H790 C782 0.930 . S
H791 C783 0.929 . S
H792 C800 0.929 . S
H793 C802 0.930 . S
H794 C804 0.930 . S
H795 C807 0.929 . S
H796 C810 0.930 . S
H797 C812 0.960 . S
H798 C812 0.960 . S
H799 C812 0.960 . S
C800 H792 0.929 . S
C800 C801 1.377 . S
C800 C802 1.384 . S
C801 C800 1.377 . S
C801 C807 1.390 . S
C802 H793 0.930 . S
C802 C800 1.384 . S
C802 C803 1.372 . S
C803 C802 1.372 . S
C803 C804 1.400 . S
C803 C808 1.490 . S
C804 H794 0.930 . S
C804 C803 1.400 . S
C804 C807 1.386 . S
H805 C821 0.930 . S
H806 C822 0.931 . S
C807 H795 0.929 . S
C807 C801 1.390 . S
C807 C804 1.386 . S
C808 C803 1.490 . S
C808 C810 1.395 . S
C808 C811 1.403 . S
H809 C815 0.930 . S
C810 H796 0.930 . S
C810 C808 1.395 . S
C810 C813 1.403 . S
C811 C808 1.403 . S
C811 C812 1.524 . S
C811 C815 1.400 . S
C812 H797 0.960 . S
C812 H798 0.960 . S
C812 H799 0.960 . S
C812 C811 1.524 . S
C813 C810 1.403 . S
C813 C814 1.392 . S
C813 C817 1.495 . S
C814 C813 1.392 . S
C814 C815 1.385 . S
C814 C816 1.478 1_554 S
C815 H809 0.930 . S
C815 C811 1.400 . S
C815 C814 1.385 . S
C816 C814 1.478 1_556 S
C816 C818 1.381 1_556 S
C816 C822 1.383 . S
C817 C813 1.495 . S
C817 H823 0.959 . S
C817 H824 0.961 1_554 S
C817 H825 0.960 . S
C818 C816 1.381 1_554 S
C818 C819 1.394 . S
C818 H826 0.930 . S
C819 C818 1.394 . S
C819 C820 1.383 1_554 S
C819 H827 0.929 . S
C820 C819 1.383 1_556 S
C820 C821 1.377 . S
C821 H805 0.930 . S
C821 C820 1.377 . S
C821 C822 1.379 . S
C822 H806 0.931 . S
C822 C816 1.383 . S
C822 C821 1.379 . S
H823 C817 0.959 . S
H824 C817 0.961 1_556 S
H825 C817 0.960 . S
H826 C818 0.930 . S
H827 C819 0.929 . S
H828 C836 0.929 . S
H829 C838 0.930 . S
H830 C840 0.930 . S
H831 C843 0.929 . S
H832 C846 0.930 . S
H833 C848 0.960 . S
H834 C848 0.960 . S
H835 C848 0.960 . S
C836 H828 0.929 . S
C836 C837 1.377 . S
C836 C838 1.384 . S
C837 C836 1.377 . S
C837 C843 1.390 . S
C838 H829 0.930 . S
C838 C836 1.384 . S
C838 C839 1.372 . S
C839 C838 1.372 . S
C839 C840 1.400 . S
C839 C844 1.490 . S
C840 H830 0.930 . S
C840 C839 1.400 . S
C840 C843 1.386 . S
H841 C857 0.930 . S
H842 C858 0.931 . S
C843 H831 0.929 . S
C843 C837 1.390 . S
C843 C840 1.386 . S
C844 C839 1.490 . S
C844 C846 1.395 . S
C844 C847 1.403 . S
H845 C851 0.930 . S
C846 H832 0.930 . S
C846 C844 1.395 . S
C846 C849 1.403 . S
C847 C844 1.403 . S
C847 C848 1.524 . S
C847 C851 1.400 . S
C848 H833 0.960 . S
C848 H834 0.960 . S
C848 H835 0.960 . S
C848 C847 1.524 . S
C849 C846 1.403 . S
C849 C850 1.392 . S
C849 C853 1.495 . S
C850 C849 1.392 . S
C850 C851 1.385 . S
C850 C852 1.478 . S
C851 H845 0.930 . S
C851 C847 1.400 . S
C851 C850 1.385 . S
C852 C850 1.478 . S
C852 C854 1.381 1_655 S
C852 C858 1.383 . S
C853 C849 1.495 . S
C853 H859 0.959 . S
C853 H860 0.961 . S
C853 H861 1.017 . S
C854 C852 1.381 1_455 S
C854 C855 1.394 . S
C854 H862 0.930 . S
C855 C854 1.394 . S
C855 C856 1.383 . S
C855 H863 0.929 . S
C856 C855 1.383 . S
C856 C857 1.377 1_455 S
C857 H841 0.930 . S
C857 C856 1.377 1_655 S
C857 C858 1.379 . S
C858 H842 0.931 . S
C858 C852 1.383 . S
C858 C857 1.379 . S
H859 C853 0.959 . S
H860 C853 0.961 . S
H861 C853 1.017 . S
H862 C854 0.930 . S
H863 C855 0.929 . S
H864 C872 0.929 . S
H865 C874 0.930 . S
H866 C876 0.930 . S
H867 C879 0.929 . S
H868 C882 0.930 . S
H869 C884 0.960 . S
H870 C884 0.960 . S
H871 C884 0.960 . S
C872 H864 0.929 . S
C872 C873 1.377 . S
C872 C874 1.384 . S
C873 C872 1.377 . S
C873 C879 1.390 . S
C874 H865 0.930 . S
C874 C872 1.384 . S
C874 C875 1.372 . S
C875 C874 1.372 . S
C875 C876 1.400 . S
C875 C880 1.490 . S
C876 H866 0.930 . S
C876 C875 1.400 . S
C876 C879 1.386 . S
H877 C893 0.930 . S
H878 C894 0.931 . S
C879 H867 0.929 . S
C879 C873 1.390 . S
C879 C876 1.386 . S
C880 C875 1.490 . S
C880 C882 1.395 . S
C880 C883 1.403 . S
H881 C887 0.930 . S
C882 H868 0.930 . S
C882 C880 1.395 . S
C882 C885 1.403 . S
C883 C880 1.403 . S
C883 C884 1.524 . S
C883 C887 1.400 . S
C884 H869 0.960 . S
C884 H870 0.960 . S
C884 H871 0.960 . S
C884 C883 1.524 . S
C885 C882 1.403 . S
C885 C886 1.392 . S
C885 C889 1.495 . S
C886 C885 1.392 . S
C886 C887 1.385 . S
C886 C888 1.478 1_556 S
C887 H881 0.930 . S
C887 C883 1.400 . S
C887 C886 1.385 . S
C888 C886 1.478 1_554 S
C888 C890 1.381 1_554 S
C888 C894 1.383 . S
C889 C885 1.495 . S
C889 H895 0.959 . S
C889 H896 0.961 . S
C889 H897 0.960 . S
C890 C888 1.381 1_556 S
C890 C891 1.394 1_556 S
C890 H898 0.930 . S
C891 C890 1.394 1_554 S
C891 C892 1.383 . S
C891 H899 0.929 1_554 S
C892 C891 1.383 . S
C892 C893 1.377 . S
C893 H877 0.930 . S
C893 C892 1.377 . S
C893 C894 1.379 . S
C894 H878 0.931 . S
C894 C888 1.383 . S
C894 C893 1.379 . S
H895 C889 0.959 . S
H896 C889 0.961 . S
H897 C889 0.960 . S
H898 C890 0.930 . S
H899 C891 0.929 1_556 S
H900 C908 0.929 . S
H901 C910 0.930 . S
H902 C912 0.930 . S
H903 C915 0.929 . S
H904 C918 0.930 . S
H905 C920 0.960 . S
H906 C920 0.960 . S
H907 C920 0.960 . S
C908 H900 0.929 . S
C908 C909 1.377 . S
C908 C910 1.384 . S
C909 C908 1.377 . S
C909 C915 1.390 . S
C910 H901 0.930 . S
C910 C908 1.384 . S
C910 C911 1.372 . S
C911 C910 1.372 . S
C911 C912 1.400 . S
C911 C916 1.490 . S
C912 H902 0.930 . S
C912 C911 1.400 . S
C912 C915 1.386 . S
H913 C929 0.930 . S
H914 C930 0.931 . S
C915 H903 0.929 . S
C915 C909 1.390 . S
C915 C912 1.386 . S
C916 C911 1.490 . S
C916 C918 1.395 . S
C916 C919 1.403 . S
H917 C923 0.930 . S
C918 H904 0.930 . S
C918 C916 1.395 . S
C918 C921 1.403 . S
C919 C916 1.403 . S
C919 C920 1.524 . S
C919 C923 1.400 . S
C920 H905 0.960 . S
C920 H906 0.960 . S
C920 H907 0.960 . S
C920 C919 1.524 . S
C921 C918 1.403 . S
C921 C922 1.392 . S
C921 C925 1.495 . S
C922 C921 1.392 . S
C922 C923 1.385 . S
C922 C924 1.478 . S
C923 H917 0.930 . S
C923 C919 1.400 . S
C923 C922 1.385 . S
C924 C922 1.478 . S
C924 C926 1.381 . S
C924 C930 1.383 . S
C925 C921 1.495 . S
C925 H931 0.959 . S
C925 H932 0.961 . S
C925 H933 0.960 . S
C926 C924 1.381 . S
C926 C927 1.394 . S
C926 H934 0.930 . S
C927 C926 1.394 . S
C927 C928 1.383 . S
C927 H935 0.929 1_556 S
C928 C927 1.383 . S
C928 C929 1.377 . S
C929 H913 0.930 . S
C929 C928 1.377 . S
C929 C930 1.379 . S
C930 H914 0.931 . S
C930 C924 1.383 . S
C930 C929 1.379 . S
H931 C925 0.959 . S
H932 C925 0.961 . S
H933 C925 0.960 . S
H934 C926 0.930 . S
H935 C927 0.929 1_554 S
H936 C944 0.929 . S
H937 C946 0.930 . S
H938 C948 0.930 . S
H939 C951 0.929 . S
H940 C954 0.930 . S
H941 C956 0.960 . S
H942 C956 0.960 . S
H943 C956 0.960 . S
C944 H936 0.929 . S
C944 C945 1.377 1_556 S
C944 C946 1.384 . S
C945 C944 1.377 1_554 S
C945 C951 1.390 . S
C946 H937 0.930 . S
C946 C944 1.384 . S
C946 C947 1.372 . S
C947 C946 1.372 . S
C947 C948 1.400 1_556 S
C947 C952 1.490 . S
C948 H938 0.930 . S
C948 C947 1.400 1_554 S
C948 C951 1.386 . S
H949 C965 0.930 . S
H950 C966 0.931 . S
C951 H939 0.929 . S
C951 C945 1.390 . S
C951 C948 1.386 . S
C952 C947 1.490 . S
C952 C954 1.395 . S
C952 C955 1.403 . S
H953 C959 0.930 . S
C954 H940 0.930 . S
C954 C952 1.395 . S
C954 C957 1.403 . S
C955 C952 1.403 . S
C955 C956 1.524 . S
C955 C959 1.400 . S
C956 H941 0.960 . S
C956 H942 0.960 . S
C956 H943 0.960 . S
C956 C955 1.524 . S
C957 C954 1.403 . S
C957 C958 1.392 . S
C957 C961 1.495 . S
C958 C957 1.392 . S
C958 C959 1.385 . S
C958 C960 1.478 . S
C959 H953 0.930 . S
C959 C955 1.400 . S
C959 C958 1.385 . S
C960 C958 1.478 . S
C960 C962 1.381 . S
C960 C966 1.383 . S
C961 C957 1.495 . S
C961 H967 0.959 . S
C961 H968 0.961 . S
C961 H969 0.960 . S
C962 C960 1.381 . S
C962 C963 1.394 . S
C962 H970 0.930 . S
C963 C962 1.394 . S
C963 C964 1.383 . S
C963 H971 0.929 . S
C964 C963 1.383 . S
C964 C965 1.377 . S
C965 H949 0.930 . S
C965 C964 1.377 . S
C965 C966 1.379 . S
C966 H950 0.931 . S
C966 C960 1.383 . S
C966 C965 1.379 . S
H967 C961 0.959 . S
H968 C961 0.961 . S
H969 C961 0.960 . S
H970 C962 0.930 . S
H971 C963 0.929 . S
H972 C980 0.929 . S
H973 C982 0.930 . S
H974 C984 0.930 . S
H975 C987 0.929 . S
H976 C990 0.930 . S
H977 C992 0.960 . S
H978 C992 0.960 . S
H979 C992 0.960 . S
C980 H972 0.929 . S
C980 C981 1.377 . S
C980 C982 1.384 . S
C981 C980 1.377 . S
C981 C987 1.390 . S
C982 H973 0.930 . S
C982 C980 1.384 . S
C982 C983 1.372 . S
C983 C982 1.372 . S
C983 C984 1.400 . S
C983 C988 1.490 . S
C984 H974 0.930 . S
C984 C983 1.400 . S
C984 C987 1.386 . S
H985 C1001 0.930 . S
H986 C1002 0.931 . S
C987 H975 0.929 . S
C987 C981 1.390 . S
C987 C984 1.386 . S
C988 C983 1.490 . S
C988 C990 1.395 1_556 S
C988 C991 1.403 . S
H989 C995 0.930 1_556 S
C990 H976 0.930 . S
C990 C988 1.395 1_554 S
C990 C993 1.403 . S
C991 C988 1.403 . S
C991 C992 1.524 . S
C991 C995 1.400 1_556 S
C992 H977 0.960 . S
C992 H978 0.960 . S
C992 H979 0.960 . S
C992 C991 1.524 . S
C993 C990 1.403 . S
C993 C994 1.392 . S
C993 C997 1.495 . S
C994 C993 1.392 . S
C994 C995 1.385 . S
C994 C996 1.478 . S
C995 H989 0.930 1_554 S
C995 C991 1.400 1_554 S
C995 C994 1.385 . S
C996 C994 1.478 . S
C996 C998 1.381 . S
C996 C1002 1.383 . S
C997 C993 1.495 . S
C997 H1003 0.959 . S
C997 H1004 0.961 . S
C997 H1005 0.960 . S
C998 C996 1.381 . S
C998 C999 1.394 . S
C998 H1006 0.930 . S
C999 C998 1.394 . S
C999 C1000 1.383 . S
C999 H1007 0.929 . S
C1000 C999 1.383 . S
C1000 C1001 1.377 . S
C1001 H985 0.930 . S
C1001 C1000 1.377 . S
C1001 C1002 1.379 . S
C1002 H986 0.931 . S
C1002 C996 1.383 . S
C1002 C1001 1.379 . S
H1003 C997 0.959 . S
H1004 C997 0.961 . S
H1005 C997 0.960 . S
H1006 C998 0.930 . S
H1007 C999 0.929 . S
H1008 C1016 0.929 . S
H1009 C1018 0.930 . S
H1010 C1020 0.930 . S
H1011 C1023 0.929 . S
H1012 C1026 0.930 1_545 S
H1013 C1028 0.960 . S
H1014 C1028 0.960 . S
H1015 C1028 0.960 . S
C1016 H1008 0.929 . S
C1016 C1017 1.377 . S
C1016 C1018 1.384 . S
C1017 C1016 1.377 . S
C1017 C1023 1.390 1_545 S
C1018 H1009 0.930 . S
C1018 C1016 1.384 . S
C1018 C1019 1.372 1_545 S
C1019 C1018 1.372 1_565 S
C1019 C1020 1.400 . S
C1019 C1024 1.490 . S
C1020 H1010 0.930 . S
C1020 C1019 1.400 . S
C1020 C1023 1.386 . S
H1021 C1037 0.930 . S
H1022 C1038 0.931 . S
C1023 H1011 0.929 . S
C1023 C1017 1.390 1_565 S
C1023 C1020 1.386 . S
C1024 C1019 1.490 . S
C1024 C1026 1.395 . S
C1024 C1027 1.403 . S
H1025 C1031 0.930 . S
C1026 H1012 0.930 1_565 S
C1026 C1024 1.395 . S
C1026 C1029 1.403 . S
C1027 C1024 1.403 . S
C1027 C1028 1.524 . S
C1027 C1031 1.400 . S
C1028 H1013 0.960 . S
C1028 H1014 0.960 . S
C1028 H1015 0.960 . S
C1028 C1027 1.524 . S
C1029 C1026 1.403 . S
C1029 C1030 1.392 . S
C1029 C1033 1.495 1_565 S
C1030 C1029 1.392 . S
C1030 C1031 1.385 . S
C1030 C1032 1.478 . S
C1031 H1025 0.930 . S
C1031 C1027 1.400 . S
C1031 C1030 1.385 . S
C1032 C1030 1.478 . S
C1032 C1034 1.381 . S
C1032 C1038 1.383 . S
C1033 C1029 1.495 1_545 S
C1033 H1039 0.959 . S
C1033 H1040 0.961 1_545 S
C1033 H1041 0.960 . S
C1034 C1032 1.381 . S
C1034 C1035 1.394 . S
C1034 H1042 0.930 . S
C1035 C1034 1.394 . S
C1035 C1036 1.383 . S
C1035 H1043 0.929 . S
C1036 C1035 1.383 . S
C1036 C1037 1.377 . S
C1037 H1021 0.930 . S
C1037 C1036 1.377 . S
C1037 C1038 1.379 . S
C1038 H1022 0.931 . S
C1038 C1032 1.383 . S
C1038 C1037 1.379 . S
H1039 C1033 0.959 . S
H1040 C1033 0.961 1_565 S
H1041 C1033 0.960 . S
H1042 C1034 0.930 . S
H1043 C1035 0.929 . S
H1044 C1052 0.929 . S
H1045 C1054 0.930 . S
H1046 C1056 0.930 . S
H1047 C1059 0.929 . S
H1048 C1062 0.930 . S
H1049 C1064 0.960 . S
H1050 C1064 0.960 . S
H1051 C1064 0.960 . S
C1052 H1044 0.929 . S
C1052 C1053 1.377 . S
C1052 C1054 1.384 . S
C1053 C1052 1.377 . S
C1053 C1059 1.390 . S
C1054 H1045 0.930 . S
C1054 C1052 1.384 . S
C1054 C1055 1.372 . S
C1055 C1054 1.372 . S
C1055 C1056 1.400 . S
C1055 C1060 1.490 . S
C1056 H1046 0.930 . S
C1056 C1055 1.400 . S
C1056 C1059 1.386 . S
H1057 C1073 0.930 1_556 S
H1058 C1074 0.931 1_556 S
C1059 H1047 0.929 . S
C1059 C1053 1.390 . S
C1059 C1056 1.386 . S
C1060 C1055 1.490 . S
C1060 C1062 1.395 . S
C1060 C1063 1.403 . S
H1061 C1067 0.930 . S
C1062 H1048 0.930 . S
C1062 C1060 1.395 . S
C1062 C1065 1.403 . S
C1063 C1060 1.403 . S
C1063 C1064 1.524 . S
C1063 C1067 1.400 . S
C1064 H1049 0.960 . S
C1064 H1050 0.960 . S
C1064 H1051 0.960 . S
C1064 C1063 1.524 . S
C1065 C1062 1.403 . S
C1065 C1066 1.392 . S
C1065 C1069 1.495 . S
C1066 C1065 1.392 . S
C1066 C1067 1.385 . S
C1066 C1068 1.478 . S
C1067 H1061 0.930 . S
C1067 C1063 1.400 . S
C1067 C1066 1.385 . S
C1068 C1066 1.478 . S
C1068 C1070 1.381 . S
C1068 C1074 1.383 . S
C1069 C1065 1.495 . S
C1069 H1075 0.959 . S
C1069 H1076 0.961 . S
C1069 H1077 0.960 . S
C1070 C1068 1.381 . S
C1070 C1071 1.394 . S
C1070 H1078 0.930 . S
C1071 C1070 1.394 . S
C1071 C1072 1.383 . S
C1071 H1079 0.929 . S
C1072 C1071 1.383 . S
C1072 C1073 1.377 . S
C1073 H1057 0.930 1_554 S
C1073 C1072 1.377 . S
C1073 C1074 1.379 . S
C1074 H1058 0.931 1_554 S
C1074 C1068 1.383 . S
C1074 C1073 1.379 . S
H1075 C1069 0.959 . S
H1076 C1069 0.961 . S
H1077 C1069 0.960 . S
H1078 C1070 0.930 . S
H1079 C1071 0.929 . S
H1080 C1088 0.929 . S
H1081 C1090 0.930 . S
H1082 C1092 0.930 . S
H1083 C1095 0.929 . S
H1084 C1098 0.930 . S
H1085 C1100 0.960 . S
H1086 C1100 0.960 . S
H1087 C1100 0.960 . S
C1088 H1080 0.929 . S
C1088 C1089 1.377 . S
C1088 C1090 1.384 . S
C1089 C1088 1.377 . S
C1089 C1095 1.390 . S
C1090 H1081 0.930 . S
C1090 C1088 1.384 . S
C1090 C1091 1.372 . S
C1091 C1090 1.372 . S
C1091 C1092 1.400 . S
C1091 C1096 1.490 . S
C1092 H1082 0.930 . S
C1092 C1091 1.400 . S
C1092 C1095 1.386 . S
H1093 C1109 0.930 . S
H1094 C1110 0.931 . S
C1095 H1083 0.929 . S
C1095 C1089 1.390 . S
C1095 C1092 1.386 . S
C1096 C1091 1.490 . S
C1096 C1098 1.395 . S
C1096 C1099 1.403 . S
H1097 C1103 0.930 . S
C1098 H1084 0.930 . S
C1098 C1096 1.395 . S
C1098 C1101 1.403 . S
C1099 C1096 1.403 . S
C1099 C1100 1.524 . S
C1099 C1103 1.400 . S
C1100 H1085 0.960 . S
C1100 H1086 0.960 . S
C1100 H1087 0.960 . S
C1100 C1099 1.524 . S
C1101 C1098 1.403 . S
C1101 C1102 1.392 . S
C1101 C1105 1.495 . S
C1102 C1101 1.392 . S
C1102 C1103 1.385 . S
C1102 C1104 1.478 . S
C1103 H1097 0.930 . S
C1103 C1099 1.400 . S
C1103 C1102 1.385 . S
C1104 C1102 1.478 . S
C1104 C1106 1.381 . S
C1104 C1110 1.383 . S
C1105 C1101 1.495 . S
C1105 H1111 0.959 . S
C1105 H1112 0.961 . S
C1105 H1113 0.960 . S
C1106 C1104 1.381 . S
C1106 C1107 1.394 . S
C1106 H1114 0.930 . S
C1107 C1106 1.394 . S
C1107 C1108 1.383 . S
C1107 H1115 0.929 . S
C1108 C1107 1.383 . S
C1108 C1109 1.377 . S
C1109 H1093 0.930 . S
C1109 C1108 1.377 . S
C1109 C1110 1.379 . S
C1110 H1094 0.931 . S
C1110 C1104 1.383 . S
C1110 C1109 1.379 . S
H1111 C1105 0.959 . S
H1112 C1105 0.961 . S
H1113 C1105 0.960 . S
H1114 C1106 0.930 . S
H1115 C1107 0.929 . S
H1116 C1124 0.929 . S
H1117 C1126 0.930 . S
H1118 C1128 0.930 . S
H1119 C1131 0.929 . S
H1120 C1134 0.930 . S
H1121 C1136 0.960 . S
H1122 C1136 0.960 . S
H1123 C1136 0.960 . S
C1124 H1116 0.929 . S
C1124 C1125 1.377 . S
C1124 C1126 1.384 . S
C1125 C1124 1.377 . S
C1125 C1131 1.390 . S
C1126 H1117 0.930 . S
C1126 C1124 1.384 . S
C1126 C1127 1.372 . S
C1127 C1126 1.372 . S
C1127 C1128 1.400 . S
C1127 C1132 1.490 . S
C1128 H1118 0.930 . S
C1128 C1127 1.400 . S
C1128 C1131 1.386 . S
H1129 C1145 0.930 . S
H1130 C1146 0.931 . S
C1131 H1119 0.929 . S
C1131 C1125 1.390 . S
C1131 C1128 1.386 . S
C1132 C1127 1.490 . S
C1132 C1134 1.395 . S
C1132 C1135 1.403 . S
H1133 C1139 0.930 . S
C1134 H1120 0.930 . S
C1134 C1132 1.395 . S
C1134 C1137 1.403 . S
C1135 C1132 1.403 . S
C1135 C1136 1.524 . S
C1135 C1139 1.400 . S
C1136 H1121 0.960 . S
C1136 H1122 0.960 . S
C1136 H1123 0.960 . S
C1136 C1135 1.524 . S
C1137 C1134 1.403 . S
C1137 C1138 1.392 . S
C1137 C1141 1.495 . S
C1138 C1137 1.392 . S
C1138 C1139 1.385 . S
C1138 C1140 1.478 . S
C1139 H1133 0.930 . S
C1139 C1135 1.400 . S
C1139 C1138 1.385 . S
C1140 C1138 1.478 . S
C1140 C1142 1.381 . S
C1140 C1146 1.383 . S
C1141 C1137 1.495 . S
C1141 H1147 0.959 . S
C1141 H1148 0.961 . S
C1141 H1149 0.960 . S
C1142 C1140 1.381 . S
C1142 C1143 1.394 . S
C1142 H1150 0.930 . S
C1143 C1142 1.394 . S
C1143 C1144 1.383 . S
C1143 H1151 0.929 . S
C1144 C1143 1.383 . S
C1144 C1145 1.377 . S
C1145 H1129 0.930 . S
C1145 C1144 1.377 . S
C1145 C1146 1.379 . S
C1146 H1130 0.931 . S
C1146 C1140 1.383 . S
C1146 C1145 1.379 . S
H1147 C1141 0.959 . S
H1148 C1141 0.961 . S
H1149 C1141 0.960 . S
H1150 C1142 0.930 . S
H1151 C1143 0.929 . S
H1152 C1160 0.929 . S
H1153 C1162 0.930 . S
H1154 C1164 0.930 . S
H1155 C1167 0.929 . S
H1156 C1170 0.930 . S
H1157 C1172 0.960 . S
H1158 C1172 0.960 . S
H1159 C1172 0.960 . S
C1160 H1152 0.929 . S
C1160 C1161 1.377 . S
C1160 C1162 1.384 . S
C1161 C1160 1.377 . S
C1161 C1167 1.390 . S
C1162 H1153 0.930 . S
C1162 C1160 1.384 . S
C1162 C1163 1.372 . S
C1163 C1162 1.372 . S
C1163 C1164 1.400 . S
C1163 C1168 1.490 . S
C1164 H1154 0.930 . S
C1164 C1163 1.400 . S
C1164 C1167 1.386 . S
H1165 C1181 0.930 . S
H1166 C1182 0.931 . S
C1167 H1155 0.929 . S
C1167 C1161 1.390 . S
C1167 C1164 1.386 . S
C1168 C1163 1.490 . S
C1168 C1170 1.395 . S
C1168 C1171 1.403 . S
H1169 C1175 0.930 . S
C1170 H1156 0.930 . S
C1170 C1168 1.395 . S
C1170 C1173 1.403 . S
C1171 C1168 1.403 . S
C1171 C1172 1.524 . S
C1171 C1175 1.400 1_545 S
C1172 H1157 0.960 . S
C1172 H1158 0.960 . S
C1172 H1159 0.960 . S
C1172 C1171 1.524 . S
C1173 C1170 1.403 . S
C1173 C1174 1.392 1_545 S
C1173 C1177 1.495 1_545 S
C1174 C1173 1.392 1_565 S
C1174 C1175 1.385 . S
C1174 C1176 1.478 . S
C1175 H1169 0.930 . S
C1175 C1171 1.400 1_565 S
C1175 C1174 1.385 . S
C1176 C1174 1.478 . S
C1176 C1178 1.381 . S
C1176 C1182 1.383 . S
C1177 C1173 1.495 1_565 S
C1177 H1183 0.959 1_565 S
C1177 H1184 0.961 . S
C1177 H1185 0.960 . S
C1178 C1176 1.381 . S
C1178 C1179 1.394 . S
C1178 H1186 0.930 . S
C1179 C1178 1.394 . S
C1179 C1180 1.383 . S
C1179 H1187 0.929 . S
C1180 C1179 1.383 . S
C1180 C1181 1.377 . S
C1181 H1165 0.930 . S
C1181 C1180 1.377 . S
C1181 C1182 1.379 . S
C1182 H1166 0.931 . S
C1182 C1176 1.383 . S
C1182 C1181 1.379 . S
H1183 C1177 0.959 1_545 S
H1184 C1177 0.961 . S
H1185 C1177 0.960 . S
H1186 C1178 0.930 . S
H1187 C1179 0.929 . S
H1188 C1196 0.926 1_455 S
H1189 C1198 0.930 . S
H1190 C1200 0.930 . S
H1191 C1203 0.929 . S
H1192 C1206 0.930 . S
H1193 C1208 0.960 . S
H1194 C1208 0.960 . S
H1195 C1208 0.960 . S
C1196 H1188 0.926 1_655 S
C1196 C1197 1.413 . S
C1196 C1198 1.353 1_655 S
C1197 C1196 1.413 . S
C1197 C1203 1.390 . S
C1198 H1189 0.930 . S
C1198 C1196 1.353 1_455 S
C1198 C1199 1.372 . S
C1199 C1198 1.372 . S
C1199 C1200 1.400 1_455 S
C1199 C1204 1.490 . S
C1200 H1190 0.930 . S
C1200 C1199 1.400 1_655 S
C1200 C1203 1.386 . S
H1201 C1217 0.930 . S
H1202 C1218 0.931 . S
C1203 H1191 0.929 . S
C1203 C1197 1.390 . S
C1203 C1200 1.386 . S
C1204 C1199 1.490 . S
C1204 C1206 1.395 . S
C1204 C1207 1.403 . S
H1205 C1211 0.930 . S
C1206 H1192 0.930 . S
C1206 C1204 1.395 . S
C1206 C1209 1.403 . S
C1207 C1204 1.403 . S
C1207 C1208 1.524 . S
C1207 C1211 1.400 . S
C1208 H1193 0.960 . S
C1208 H1194 0.960 . S
C1208 H1195 0.960 . S
C1208 C1207 1.524 . S
C1209 C1206 1.403 . S
C1209 C1210 1.392 . S
C1209 C1213 1.495 . S
C1210 C1209 1.392 . S
C1210 C1211 1.385 . S
C1210 C1212 1.478 . S
C1211 H1205 0.930 . S
C1211 C1207 1.400 . S
C1211 C1210 1.385 . S
C1212 C1210 1.478 . S
C1212 C1214 1.381 . S
C1212 C1218 1.383 . S
C1213 C1209 1.495 . S
C1213 H1219 0.959 . S
C1213 H1220 0.961 . S
C1213 H1221 0.960 . S
C1214 C1212 1.381 . S
C1214 C1215 1.394 . S
C1214 H1222 0.930 . S
C1215 C1214 1.394 . S
C1215 C1216 1.383 . S
C1215 H1223 0.929 . S
C1216 C1215 1.383 . S
C1216 C1217 1.377 . S
C1217 H1201 0.930 . S
C1217 C1216 1.377 . S
C1217 C1218 1.379 . S
C1218 H1202 0.931 . S
C1218 C1212 1.383 . S
C1218 C1217 1.379 . S
H1219 C1213 0.959 . S
H1220 C1213 0.961 . S
H1221 C1213 0.960 . S
H1222 C1214 0.930 . S
H1223 C1215 0.929 . S
H1224 C1232 0.929 . S
H1225 C1234 0.930 . S
H1226 C1236 0.930 . S
H1227 C1239 0.929 . S
H1228 C1242 0.930 . S
H1229 C1244 0.960 . S
H1230 C1244 0.960 . S
H1231 C1244 0.960 . S
C1232 H1224 0.929 . S
C1232 C1233 1.377 . S
C1232 C1234 1.384 . S
C1233 C1232 1.377 . S
C1233 C1239 1.390 . S
C1234 H1225 0.930 . S
C1234 C1232 1.384 . S
C1234 C1235 1.372 . S
C1235 C1234 1.372 . S
C1235 C1236 1.400 . S
C1235 C1240 1.490 . S
C1236 H1226 0.930 . S
C1236 C1235 1.400 . S
C1236 C1239 1.386 . S
H1237 C1253 0.930 . S
H1238 C1254 0.931 . S
C1239 H1227 0.929 . S
C1239 C1233 1.390 . S
C1239 C1236 1.386 . S
C1240 C1235 1.490 . S
C1240 C1242 1.395 . S
C1240 C1243 1.403 . S
H1241 C1247 0.930 . S
C1242 H1228 0.930 . S
C1242 C1240 1.395 . S
C1242 C1245 1.403 . S
C1243 C1240 1.403 . S
C1243 C1244 1.524 . S
C1243 C1247 1.400 . S
C1244 H1229 0.960 . S
C1244 H1230 0.960 . S
C1244 H1231 0.960 . S
C1244 C1243 1.524 . S
C1245 C1242 1.403 . S
C1245 C1246 1.392 . S
C1245 C1249 1.495 . S
C1246 C1245 1.392 . S
C1246 C1247 1.385 . S
C1246 C1248 1.478 . S
C1247 H1241 0.930 . S
C1247 C1243 1.400 . S
C1247 C1246 1.385 . S
C1248 C1246 1.478 . S
C1248 C1250 1.381 . S
C1248 C1254 1.383 . S
C1249 C1245 1.495 . S
C1249 H1255 0.959 . S
C1249 H1256 0.961 . S
C1249 H1257 0.960 . S
C1250 C1248 1.381 . S
C1250 C1251 1.394 . S
C1250 H1258 0.930 . S
C1251 C1250 1.394 . S
C1251 C1252 1.383 . S
C1251 H1259 0.929 . S
C1252 C1251 1.383 . S
C1252 C1253 1.377 . S
C1253 H1237 0.930 . S
C1253 C1252 1.377 . S
C1253 C1254 1.379 . S
C1254 H1238 0.931 . S
C1254 C1248 1.383 . S
C1254 C1253 1.379 . S
H1255 C1249 0.959 . S
H1256 C1249 0.961 . S
H1257 C1249 0.960 . S
H1258 C1250 0.930 . S
H1259 C1251 0.929 . S
H1260 C1268 0.929 . S
H1261 C1270 0.930 . S
H1262 C1272 0.930 . S
H1263 C1275 0.929 . S
H1264 C1278 0.930 . S
H1265 C1280 0.960 1_545 S
H1266 C1280 0.960 . S
H1267 C1280 0.960 . S
C1268 H1260 0.929 . S
C1268 C1269 1.377 . S
C1268 C1270 1.384 . S
C1269 C1268 1.377 . S
C1269 C1275 1.390 . S
C1270 H1261 0.930 . S
C1270 C1268 1.384 . S
C1270 C1271 1.372 . S
C1271 C1270 1.372 . S
C1271 C1272 1.400 . S
C1271 C1276 1.490 . S
C1272 H1262 0.930 . S
C1272 C1271 1.400 . S
C1272 C1275 1.386 . S
H1273 C1289 0.930 . S
H1274 C1290 0.931 . S
C1275 H1263 0.929 . S
C1275 C1269 1.390 . S
C1275 C1272 1.386 . S
C1276 C1271 1.490 . S
C1276 C1278 1.395 . S
C1276 C1279 1.403 . S
H1277 C1283 0.930 . S
C1278 H1264 0.930 . S
C1278 C1276 1.395 . S
C1278 C1281 1.403 1_565 S
C1279 C1276 1.403 . S
C1279 C1280 1.524 . S
C1279 C1283 1.400 1_565 S
C1280 H1265 0.960 1_565 S
C1280 H1266 0.960 . S
C1280 H1267 0.960 . S
C1280 C1279 1.524 . S
C1281 C1278 1.403 1_545 S
C1281 C1282 1.392 . S
C1281 C1285 1.495 . S
C1282 C1281 1.392 . S
C1282 C1283 1.385 . S
C1282 C1284 1.478 . S
C1283 H1277 0.930 . S
C1283 C1279 1.400 1_545 S
C1283 C1282 1.385 . S
C1284 C1282 1.478 . S
C1284 C1286 1.381 . S
C1284 C1290 1.383 . S
C1285 C1281 1.495 . S
C1285 H1291 0.959 . S
C1285 H1292 0.961 . S
C1285 H1293 0.960 . S
C1286 C1284 1.381 . S
C1286 C1287 1.394 . S
C1286 H1294 0.930 . S
C1287 C1286 1.394 . S
C1287 C1288 1.383 . S
C1287 H1295 0.929 . S
C1288 C1287 1.383 . S
C1288 C1289 1.377 . S
C1289 H1273 0.930 . S
C1289 C1288 1.377 . S
C1289 C1290 1.379 . S
C1290 H1274 0.931 . S
C1290 C1284 1.383 . S
C1290 C1289 1.379 . S
H1291 C1285 0.959 . S
H1292 C1285 0.961 . S
H1293 C1285 0.960 . S
H1294 C1286 0.930 . S
H1295 C1287 0.929 . S
H1296 C1304 0.929 . S
H1297 C1306 0.930 . S
H1298 C1308 0.930 . S
H1299 C1311 0.929 . S
H1300 C1314 0.930 . S
H1301 C1316 0.960 . S
H1302 C1316 0.960 . S
H1303 C1316 0.960 . S
C1304 H1296 0.929 . S
C1304 C1305 1.377 1_455 S
C1304 C1306 1.384 . S
C1305 C1304 1.377 1_655 S
C1305 C1311 1.390 . S
C1306 H1297 0.930 . S
C1306 C1304 1.384 . S
C1306 C1307 1.372 . S
C1307 C1306 1.372 . S
C1307 C1308 1.400 . S
C1307 C1312 1.490 . S
C1308 H1298 0.930 . S
C1308 C1307 1.400 . S
C1308 C1311 1.386 1_455 S
H1309 C1325 0.930 . S
H1310 C1326 0.931 . S
C1311 H1299 0.929 . S
C1311 C1305 1.390 . S
C1311 C1308 1.386 1_655 S
C1312 C1307 1.490 . S
C1312 C1314 1.395 . S
C1312 C1315 1.403 . S
H1313 C1319 0.930 . S
C1314 H1300 0.930 . S
C1314 C1312 1.395 . S
C1314 C1317 1.403 . S
C1315 C1312 1.403 . S
C1315 C1316 1.524 . S
C1315 C1319 1.400 . S
C1316 H1301 0.960 . S
C1316 H1302 0.960 . S
C1316 H1303 0.960 . S
C1316 C1315 1.524 . S
C1317 C1314 1.403 . S
C1317 C1318 1.392 . S
C1317 C1321 1.495 . S
C1318 C1317 1.392 . S
C1318 C1319 1.385 . S
C1318 C1320 1.478 . S
C1319 H1313 0.930 . S
C1319 C1315 1.400 . S
C1319 C1318 1.385 . S
C1320 C1318 1.478 . S
C1320 C1322 1.381 . S
C1320 C1326 1.383 . S
C1321 C1317 1.495 . S
C1321 H1327 0.959 . S
C1321 H1328 0.961 . S
C1321 H1329 0.960 . S
C1322 C1320 1.381 . S
C1322 C1323 1.394 . S
C1322 H1330 0.930 . S
C1323 C1322 1.394 . S
C1323 C1324 1.383 . S
C1323 H1331 0.929 . S
C1324 C1323 1.383 . S
C1324 C1325 1.377 . S
C1325 H1309 0.930 . S
C1325 C1324 1.377 . S
C1325 C1326 1.379 . S
C1326 H1310 0.931 . S
C1326 C1320 1.383 . S
C1326 C1325 1.379 . S
H1327 C1321 0.959 . S
H1328 C1321 0.961 . S
H1329 C1321 0.960 . S
H1330 C1322 0.930 . S
H1331 C1323 0.929 . S
C369 C23 0.931 . S
C388 C2 0.900 . S
C405 C42 0.991 . S
C424 C63 1.004 . S
C441 C103 1.054 1_556 S
C460 C82 1.049 . S
C477 C122 0.939 . S
C496 C143 0.917 . S
C513 C183 0.995 . S
C532 C162 1.004 . S
C549 C202 1.055 . S
C568 C223 1.067 . S
C585 C271 0.832 . S
C604 C260 0.814 . S
C621 C300 0.799 . S
C640 C311 0.780 . S
C657 C351 0.918 . S
C676 C340 0.952 . S
C693 C231 1.943 . S
C712 C25 1.951 . S
C729 C71 2.537 . S
C748 C151 2.531 . S
C765 C105 1.455 . S
C784 C185 1.466 . S
C801 C111 1.543 . S
C820 C244 1.583 . S
C837 C303 1.489 . S
C856 C31 1.491 . S
C873 C324 1.280 . S
C892 C65 1.269 . S
C909 C322 1.203 . S
C928 C4 1.209 . S
C945 C60 1.648 . S
C964 C242 1.596 . S
C981 C305 1.576 . S
C1000 C84 1.535 . S
C1017 C100 1.946 . S
C1036 C124 1.951 . S
C1053 C180 2.537 . S
C1072 C20 2.534 . S
C1089 C44 1.461 . S
C1108 C204 1.448 . S
C1125 C343 1.201 . S
C1144 C145 1.203 . S
C1161 C263 1.622 . S
C1180 C191 1.661 . S
C1197 C284 1.580 . S
C1216 C225 1.520 . S
C1233 C265 1.589 . S
C1252 C220 1.542 . S
C1269 C140 1.497 . S
C1288 C282 1.470 . S
C1305 C345 1.284 . S
C1324 C164 1.243 . S
