# Generated by pormake.
# Topology sod, (4)-cn, num edge types: 1
# Building blocks:
#     Node 0, Type 0, BuildingBlock: ICAMEG_clean_sbu_1, # of connection points: 4
#     Node 1, Type 0, BuildingBlock: ICAMEG_clean_sbu_1, # of connection points: 4
#     Node 2, Type 0, BuildingBlock: ICAMEG_clean_sbu_1, # of connection points: 4
#     Node 3, Type 0, BuildingBlock: ICAMEG_clean_sbu_1, # of connection points: 4
#     Node 4, Type 0, BuildingBlock: ICAMEG_clean_sbu_1, # of connection points: 4
#     Node 5, Type 0, BuildingBlock: ICAMEG_clean_sbu_1, # of connection points: 4
#     Node 6, Type 0, BuildingBlock: ICAMEG_clean_sbu_1, # of connection points: 4
#     Node 7, Type 0, BuildingBlock: ICAMEG_clean_sbu_1, # of connection points: 4
#     Node 8, Type 0, BuildingBlock: ICAMEG_clean_sbu_1, # of connection points: 4
#     Node 9, Type 0, BuildingBlock: ICAMEG_clean_sbu_1, # of connection points: 4
#     Node 10, Type 0, BuildingBlock: ICAMEG_clean_sbu_1, # of connection points: 4
#     Node 11, Type 0, BuildingBlock: ICAMEG_clean_sbu_1, # of connection points: 4
#     Edge 12, Type (0, 0), BuildingBlock: UVAHIK_clean_linker_0, # of connection points: 2
#     Edge 13, Type (0, 0), BuildingBlock: UVAHIK_clean_linker_0, # of connection points: 2
#     Edge 14, Type (0, 0), BuildingBlock: UVAHIK_clean_linker_0, # of connection points: 2
#     Edge 15, Type (0, 0), BuildingBlock: UVAHIK_clean_linker_0, # of connection points: 2
#     Edge 16, Type (0, 0), BuildingBlock: UVAHIK_clean_linker_0, # of connection points: 2
#     Edge 17, Type (0, 0), BuildingBlock: UVAHIK_clean_linker_0, # of connection points: 2
#     Edge 18, Type (0, 0), BuildingBlock: UVAHIK_clean_linker_0, # of connection points: 2
#     Edge 19, Type (0, 0), BuildingBlock: UVAHIK_clean_linker_0, # of connection points: 2
#     Edge 20, Type (0, 0), BuildingBlock: UVAHIK_clean_linker_0, # of connection points: 2
#     Edge 21, Type (0, 0), BuildingBlock: UVAHIK_clean_linker_0, # of connection points: 2
#     Edge 22, Type (0, 0), BuildingBlock: UVAHIK_clean_linker_0, # of connection points: 2
#     Edge 23, Type (0, 0), BuildingBlock: UVAHIK_clean_linker_0, # of connection points: 2
#     Edge 24, Type (0, 0), BuildingBlock: UVAHIK_clean_linker_0, # of connection points: 2
#     Edge 25, Type (0, 0), BuildingBlock: UVAHIK_clean_linker_0, # of connection points: 2
#     Edge 26, Type (0, 0), BuildingBlock: UVAHIK_clean_linker_0, # of connection points: 2
#     Edge 27, Type (0, 0), BuildingBlock: UVAHIK_clean_linker_0, # of connection points: 2
#     Edge 28, Type (0, 0), BuildingBlock: UVAHIK_clean_linker_0, # of connection points: 2
#     Edge 29, Type (0, 0), BuildingBlock: UVAHIK_clean_linker_0, # of connection points: 2
#     Edge 30, Type (0, 0), BuildingBlock: UVAHIK_clean_linker_0, # of connection points: 2
#     Edge 31, Type (0, 0), BuildingBlock: UVAHIK_clean_linker_0, # of connection points: 2
#     Edge 32, Type (0, 0), BuildingBlock: UVAHIK_clean_linker_0, # of connection points: 2
#     Edge 33, Type (0, 0), BuildingBlock: UVAHIK_clean_linker_0, # of connection points: 2
#     Edge 34, Type (0, 0), BuildingBlock: UVAHIK_clean_linker_0, # of connection points: 2
#     Edge 35, Type (0, 0), BuildingBlock: UVAHIK_clean_linker_0, # of connection points: 2
# Relax obj value: 0.209
# Max RMSD: 0.239
# Mean RMSD: 0.237
data_MOF--net-sod--node1-ICAMEG_clean_sbu_1--edge1-UVAHIK_clean_linker_0
_symmetry_space_group_name_H-M    P1
_symmetry_Int_Tables_number       1
_symmetry_cell_setting            triclinic
loop_
_symmetry_equiv_pos_as_xyz
'x, y, z'
_cell_length_a     54.519557
_cell_length_b     59.22715
_cell_length_c     56.894898
_cell_angle_alpha  90.13598
_cell_angle_beta   90.032142
_cell_angle_gamma 90.057423
loop_
_atom_site_label
_atom_site_type_symbol
_atom_site_fract_x
_atom_site_fract_y
_atom_site_fract_z
_atom_type_partial_charge
Co0 Co 0.00244 0.2494 0.53795 0.0
Co1 Co 0.99095 0.23919 0.48036 0.0
O2 O 0.99323 0.26048 0.50681 0.0
C3 C 0.96984 0.28999 0.54696 0.0
O4 O 0.96515 0.29261 0.52451 0.0
C5 C 0.01316 0.28108 0.45964 0.0
O6 O 0.02921 0.28237 0.47679 0.0
O7 O 0.02626 0.23152 0.48457 0.0
O8 O 0.02445 0.22595 0.52349 0.0
H9 H 0.00583 0.16548 0.43875 0.0
H10 H 0.01116 0.29727 0.52287 0.0
O11 O 0.98176 0.27284 0.55417 0.0
H12 H 0.09041 0.27101 0.55393 0.0
H13 H 0.02471 0.25552 0.62379 0.0
H14 H 0.00792 0.20353 0.55789 0.0
H15 H 0.05466 0.24568 0.5534 0.0
H16 H 0.01472 0.27033 0.5845 0.0
O17 O 0.99866 0.26431 0.45816 0.0
H18 H 0.00739 0.19203 0.47213 0.0
H19 H 0.97111 0.242 0.43151 0.0
H20 H 0.01818 0.18801 0.59684 0.0
H21 H 0.04617 0.32327 0.52362 0.0
H22 H 0.02664 0.21409 0.63014 0.0
H23 H 0.08629 0.31024 0.53916 0.0
O24 O 0.97371 0.22835 0.53679 0.0
H25 H 0.91833 0.29127 0.47544 0.0
H26 H 0.94526 0.21183 0.47425 0.0
H27 H 0.90124 0.22061 0.47095 0.0
H28 H 0.88749 0.26059 0.47146 0.0
H29 H 0.96216 0.28172 0.47901 0.0
H30 H 0.96931 0.21601 0.39764 0.0
H31 H 0.98668 0.17741 0.40116 0.0
O32 O 0.98209 0.21351 0.50158 0.0
C33 C 0.03497 0.22329 0.50359 0.0
C34 C 0.99817 0.18225 0.43701 0.0
C35 C 0.97772 0.21062 0.41393 0.0
N36 N 0.98934 0.21856 0.45382 0.0
C37 C 0.99898 0.19736 0.45587 0.0
C38 C 0.97888 0.22529 0.43315 0.0
C39 C 0.98745 0.18896 0.41592 0.0
C40 C 0.02821 0.29146 0.5302 0.0
N41 N 0.03045 0.26995 0.5386 0.0
C42 C 0.04815 0.30628 0.53034 0.0
C43 C 0.07067 0.29895 0.53898 0.0
C44 C 0.07299 0.27695 0.54725 0.0
C45 C 0.05263 0.26262 0.54684 0.0
C46 C 0.02106 0.24399 0.60942 0.0
C47 C 0.01169 0.21499 0.57225 0.0
C48 C 0.01526 0.25227 0.58714 0.0
N49 N 0.01079 0.2378 0.56885 0.0
C50 C 0.01744 0.2061 0.59429 0.0
C51 C 0.02216 0.22074 0.61297 0.0
C52 C 0.97083 0.21309 0.52116 0.0
C53 C 0.92407 0.27378 0.47522 0.0
C54 C 0.93945 0.22927 0.47468 0.0
C55 C 0.91448 0.23414 0.47271 0.0
C56 C 0.90679 0.25657 0.47299 0.0
N57 N 0.95631 0.24625 0.47699 0.0
C58 C 0.94889 0.26827 0.47722 0.0
Co59 Co 0.73697 0.03263 0.50964 0.0
Co60 Co 0.73394 0.97669 0.49806 0.0
O61 O 0.75403 1.00388 0.5037 0.0
C62 C 0.7848 0.04566 0.48583 0.0
O63 O 0.78984 0.02463 0.48038 0.0
C64 C 0.77863 0.95984 0.52423 0.0
O65 O 0.7819 0.97945 0.53453 0.0
O66 O 0.71969 0.98048 0.53008 0.0
O67 O 0.7087 0.0164 0.52475 0.0
H68 H 0.65556 0.93203 0.50048 0.0
H69 H 0.78769 0.02572 0.52801 0.0
O70 O 0.76456 0.05069 0.49571 0.0
H71 H 0.73801 0.04614 0.59715 0.0
H72 H 0.72958 0.11457 0.53279 0.0
H73 H 0.68549 0.04748 0.50335 0.0
H74 H 0.71909 0.04379 0.55793 0.0
H75 H 0.75138 0.07858 0.52679 0.0
O76 O 0.76035 0.9566 0.51071 0.0
H77 H 0.68155 0.9657 0.50611 0.0
H78 H 0.74332 0.93011 0.47973 0.0
H79 H 0.66292 0.08308 0.50936 0.0
H80 H 0.80741 0.02829 0.5668 0.0
H81 H 0.68499 0.11696 0.52417 0.0
H82 H 0.78253 0.03848 0.6018 0.0
O83 O 0.72134 0.02983 0.47803 0.0
H84 H 0.80302 0.97561 0.43959 0.0
H85 H 0.71363 0.96802 0.44996 0.0
H86 H 0.73134 0.96509 0.41025 0.0
H87 H 0.77637 0.96882 0.40485 0.0
H88 H 0.78449 0.97871 0.47897 0.0
H89 H 0.71806 0.896 0.47405 0.0
H90 H 0.6738 0.89685 0.48436 0.0
O91 O 0.70668 0.99513 0.48416 0.0
C92 C 0.70754 0.99793 0.5362 0.0
C93 C 0.67482 0.93145 0.49592 0.0
C94 C 0.7099 0.91122 0.48112 0.0
N95 N 0.71395 0.9499 0.49329 0.0
C96 C 0.68963 0.95048 0.49905 0.0
C97 C 0.72415 0.93057 0.48449 0.0
C98 C 0.68507 0.91171 0.48689 0.0
C99 C 0.77676 0.03053 0.54297 0.0
N100 N 0.75229 0.03487 0.54049 0.0
C101 C 0.78802 0.0318 0.56499 0.0
C102 C 0.77405 0.03747 0.58462 0.0
C103 C 0.74908 0.04176 0.58203 0.0
C104 C 0.73846 0.04035 0.55974 0.0
C105 C 0.71976 0.09993 0.52631 0.0
C106 C 0.69523 0.06212 0.50985 0.0
C107 C 0.73204 0.07952 0.52276 0.0
N108 N 0.71973 0.06091 0.51471 0.0
C109 C 0.68235 0.08225 0.5132 0.0
C110 C 0.69474 0.10125 0.52149 0.0
C111 C 0.70722 0.01348 0.47254 0.0
C112 C 0.78338 0.97393 0.44171 0.0
C113 C 0.73323 0.96979 0.44778 0.0
C114 C 0.74316 0.96804 0.42524 0.0
C115 C 0.76842 0.97014 0.42223 0.0
N116 N 0.74801 0.97361 0.46682 0.0
C117 C 0.77279 0.97563 0.46399 0.0
Co118 Co 0.00423 0.76648 0.47115 0.0
Co119 Co 0.00273 0.76842 0.53066 0.0
O120 O 0.00275 0.75067 0.50142 0.0
C121 C 0.97484 0.72387 0.46262 0.0
O122 O 0.97106 0.72119 0.4852 0.0
C123 C 0.02908 0.72483 0.54157 0.0
O124 O 0.03405 0.72152 0.51929 0.0
O125 O 0.0352 0.7812 0.52158 0.0
O126 O 0.02399 0.79172 0.48543 0.0
H127 H 0.01548 0.83917 0.57807 0.0
H128 H 0.02189 0.71881 0.47378 0.0
O129 O 0.98545 0.74159 0.45501 0.0
H130 H 0.09166 0.76242 0.44274 0.0
H131 H 0.01277 0.77303 0.38322 0.0
H132 H 0.9974 0.81426 0.45714 0.0
H133 H 0.05269 0.78132 0.45224 0.0
H134 H 0.01233 0.75291 0.42108 0.0
O135 O 0.01894 0.74311 0.54831 0.0
H136 H 0.01414 0.81622 0.5419 0.0
H137 H 0.99318 0.75854 0.58135 0.0
H138 H 0.99792 0.83507 0.41968 0.0
H139 H 0.06031 0.69921 0.46409 0.0
H140 H 0.00564 0.81444 0.38235 0.0
H141 H 0.09565 0.72103 0.44852 0.0
O142 O 0.9731 0.78226 0.47949 0.0
H143 H 0.9407 0.70624 0.54148 0.0
H144 H 0.95565 0.78811 0.54801 0.0
H145 H 0.91499 0.77285 0.55814 0.0
H146 H 0.9073 0.73161 0.55501 0.0
H147 H 0.98093 0.72222 0.53115 0.0
H148 H 0.99452 0.78083 0.61797 0.0
H149 H 0.00562 0.82149 0.61647 0.0
O150 O 0.9856 0.79428 0.51479 0.0
C151 C 0.03859 0.7928 0.50297 0.0
C152 C 0.01058 0.82148 0.57895 0.0
C153 C 0.99885 0.78873 0.60134 0.0
N154 N 0.00352 0.78607 0.55946 0.0
C155 C 0.00975 0.8084 0.55851 0.0
C156 C 0.99822 0.77617 0.58055 0.0
C157 C 0.00507 0.81154 0.60049 0.0
C158 C 0.03695 0.72845 0.46674 0.0
N159 N 0.03482 0.75121 0.46348 0.0
C160 C 0.05878 0.71724 0.4614 0.0
C161 C 0.07861 0.72949 0.45271 0.0
C162 C 0.07639 0.75271 0.44949 0.0
C163 C 0.05426 0.76333 0.455 0.0
C164 C 0.00938 0.78221 0.39936 0.0
C165 C 0.00084 0.80515 0.441 0.0
C166 C 0.00901 0.77089 0.42086 0.0
N167 N 0.00488 0.78239 0.44135 0.0
C168 C 0.00108 0.81703 0.41982 0.0
C169 C 0.0054 0.80544 0.39889 0.0
C170 C 0.97099 0.79528 0.49729 0.0
C171 C 0.94383 0.72423 0.54296 0.0
C172 C 0.95246 0.77016 0.5464 0.0
C173 C 0.92939 0.76161 0.55226 0.0
C174 C 0.92509 0.73847 0.55052 0.0
N175 N 0.9708 0.75609 0.53899 0.0
C176 C 0.96666 0.73339 0.53723 0.0
Co177 Co 0.27499 0.97735 0.5098 0.0
Co178 Co 0.26051 0.03103 0.49532 0.0
O179 O 0.25008 1.00051 0.50372 0.0
C180 C 0.23621 0.95352 0.48202 0.0
O181 O 0.23524 0.97059 0.46738 0.0
C182 C 0.22824 0.05984 0.52443 0.0
O183 O 0.24808 0.06761 0.53478 0.0
O184 O 0.27825 0.03275 0.52601 0.0
O185 O 0.29886 1.00034 0.52211 0.0
H186 H 0.32174 0.09422 0.48966 0.0
H187 H 0.22512 0.97316 0.53008 0.0
O188 O 0.25174 0.95348 0.4987 0.0
H189 H 0.28147 0.97012 0.59784 0.0
H190 H 0.30485 0.90085 0.53564 0.0
H191 H 0.32856 0.97407 0.50135 0.0
H192 H 0.29758 0.97381 0.55757 0.0
H193 H 0.27395 0.93059 0.52935 0.0
O194 O 0.22986 0.04334 0.51008 0.0
H195 H 0.30759 0.05569 0.49888 0.0
H196 H 0.23588 0.07194 0.47517 0.0
H197 H 0.36009 0.94486 0.50752 0.0
H198 H 0.20823 0.96914 0.57007 0.0
H199 H 0.3483 0.90793 0.52479 0.0
H200 H 0.23648 0.96767 0.60429 0.0
O201 O 0.28799 0.98182 0.47741 0.0
H202 H 0.18807 0.0116 0.44449 0.0
H203 H 0.27271 0.04096 0.44501 0.0
H204 H 0.25079 0.03699 0.40735 0.0
H205 H 0.2081 0.02231 0.40693 0.0
H206 H 0.21084 0.01548 0.48174 0.0
H207 H 0.24921 0.11066 0.46581 0.0
H208 H 0.29244 0.12203 0.47303 0.0
O209 O 0.2909 0.01946 0.47934 0.0
C210 C 0.29519 0.01922 0.5323 0.0
C211 C 0.30285 0.08948 0.48646 0.0
C212 C 0.26215 0.09871 0.47307 0.0
N213 N 0.27093 0.06155 0.48764 0.0
C214 C 0.29473 0.06768 0.49165 0.0
C215 C 0.2547 0.07676 0.47844 0.0
C216 C 0.28641 0.10507 0.47712 0.0
C217 C 0.23754 0.97236 0.54487 0.0
N218 N 0.26231 0.97364 0.54145 0.0
C219 C 0.22787 0.97014 0.56748 0.0
C220 C 0.24373 0.96933 0.58667 0.0
C221 C 0.26897 0.97069 0.58307 0.0
C222 C 0.27798 0.97283 0.56021 0.0
C223 C 0.31022 0.91687 0.52812 0.0
C224 C 0.32329 0.95808 0.50895 0.0
C225 C 0.29278 0.93376 0.52443 0.0
N226 N 0.29944 0.9541 0.51506 0.0
C227 C 0.34122 0.94159 0.51237 0.0
C228 C 0.33459 0.92086 0.52204 0.0
C229 C 0.29638 1.00058 0.4698 0.0
C230 C 0.20665 0.01806 0.44445 0.0
C231 C 0.25425 0.03435 0.44499 0.0
C232 C 0.24187 0.03225 0.4236 0.0
C233 C 0.21791 0.02404 0.42338 0.0
N234 N 0.24309 0.02846 0.46561 0.0
C235 C 0.2196 0.02039 0.4655 0.0
Co236 Co 0.50115 0.96954 0.25101 0.0
Co237 Co 0.51715 0.02387 0.26166 0.0
O238 O 0.51136 0.99913 0.23916 0.0
C239 C 0.52972 0.95931 0.2063 0.0
O240 O 0.53476 0.98065 0.20247 0.0
C241 C 0.49321 0.04648 0.22015 0.0
O242 O 0.4765 0.03058 0.21854 0.0
O243 O 0.48236 0.02153 0.27226 0.0
O244 O 0.48264 0.98409 0.27749 0.0
H245 H 0.51071 0.0625 0.3402 0.0
H246 H 0.48894 0.98454 0.20208 0.0
O247 O 0.51845 0.95323 0.22485 0.0
H248 H 0.41037 0.96083 0.23678 0.0
H249 H 0.4723 0.88879 0.24524 0.0
H250 H 0.49895 0.94969 0.29873 0.0
H251 H 0.44848 0.95874 0.25982 0.0
H252 H 0.48359 0.92618 0.22966 0.0
O253 O 0.50869 0.0464 0.23687 0.0
H254 H 0.505 0.03134 0.31195 0.0
H255 H 0.53986 0.06974 0.25853 0.0
H256 H 0.48752 0.91263 0.31506 0.0
H257 H 0.45144 0.98645 0.17831 0.0
H258 H 0.47409 0.88185 0.28824 0.0
H259 H 0.41167 0.9746 0.1956 0.0
O260 O 0.53177 0.96851 0.27028 0.0
H261 H 0.58504 0.02583 0.20192 0.0
H262 H 0.5654 0.02709 0.28649 0.0
H263 H 0.6086 0.02835 0.2739 0.0
H264 H 0.61868 0.02778 0.23132 0.0
H265 H 0.54207 0.02435 0.2153 0.0
H266 H 0.54579 0.10137 0.28619 0.0
H267 H 0.53124 0.09784 0.32738 0.0
O268 O 0.52707 1.00237 0.28709 0.0
C269 C 0.47338 1.00358 0.28126 0.0
C270 C 0.51717 0.06423 0.3223 0.0
C271 C 0.53682 0.08605 0.29199 0.0
N272 N 0.52214 0.04864 0.2836 0.0
C273 C 0.51402 0.04662 0.30622 0.0
C274 C 0.53333 0.0681 0.27637 0.0
C275 C 0.52867 0.08406 0.3151 0.0
C276 C 0.47199 0.97883 0.20968 0.0
N277 N 0.47125 0.97096 0.23223 0.0
C278 C 0.45066 0.98018 0.19615 0.0
C279 C 0.42835 0.9736 0.20588 0.0
C280 C 0.42761 0.96588 0.22896 0.0
C281 C 0.44931 0.96476 0.24195 0.0
C282 C 0.47811 0.90207 0.25711 0.0
C283 C 0.49302 0.93643 0.28695 0.0
C284 C 0.48463 0.92326 0.24838 0.0
N285 N 0.49184 0.94017 0.26328 0.0
C286 C 0.48661 0.91546 0.2963 0.0
C287 C 0.4791 0.89819 0.28124 0.0
C288 C 0.53712 0.983 0.28607 0.0
C289 C 0.58089 0.02607 0.22052 0.0
C290 C 0.5696 0.0267 0.26793 0.0
C291 C 0.59412 0.02749 0.2609 0.0
C292 C 0.59976 0.02717 0.23702 0.0
N293 N 0.55118 0.02552 0.25164 0.0
C294 C 0.55658 0.02525 0.2282 0.0
Co295 Co 0.99794 0.53367 0.25293 0.0
Co296 Co 0.00202 0.47657 0.252 0.0
O297 O 0.99953 0.50486 0.27002 0.0
C298 C 0.02223 0.54456 0.29967 0.0
O299 O 0.0239 0.52316 0.3053 0.0
C300 C 0.97528 0.46409 0.29704 0.0
O301 O 0.97308 0.48526 0.30352 0.0
O302 O 0.97019 0.48393 0.2365 0.0
O303 O 0.98062 0.5189 0.22582 0.0
H304 H 0.99593 0.43003 0.17823 0.0
H305 H 0.97639 0.52994 0.3012 0.0
O306 O 0.01445 0.55038 0.27944 0.0
H307 H 0.90949 0.55817 0.25111 0.0
H308 H 0.98644 0.61768 0.24405 0.0
H309 H 0.0075 0.54666 0.20345 0.0
H310 H 0.95021 0.55048 0.23429 0.0
H311 H 0.9869 0.58165 0.26564 0.0
O312 O 0.98445 0.45905 0.27711 0.0
H313 H 0.99432 0.46498 0.20178 0.0
H314 H 0.01323 0.42836 0.26328 0.0
H315 H 0.00701 0.58228 0.18115 0.0
H316 H 0.93614 0.53771 0.31877 0.0
H317 H 0.99643 0.61814 0.20146 0.0
H318 H 0.90223 0.55192 0.29369 0.0
O319 O 0.03043 0.52672 0.23845 0.0
H320 H 0.06063 0.4706 0.32031 0.0
H321 H 0.05072 0.46055 0.23483 0.0
H322 H 0.09068 0.45259 0.25314 0.0
H323 H 0.09584 0.45749 0.29623 0.0
H324 H 0.02116 0.47867 0.30126 0.0
H325 H 0.01479 0.39298 0.24042 0.0
H326 H 0.00622 0.39369 0.19755 0.0
O327 O 0.02036 0.49211 0.22618 0.0
C328 C 0.96683 0.50156 0.22404 0.0
C329 C 0.99972 0.42951 0.19689 0.0
C330 C 0.01027 0.40871 0.2318 0.0
N331 N 0.00368 0.44876 0.23389 0.0
C332 C 0.99886 0.44926 0.21033 0.0
C333 C 0.00924 0.42879 0.24467 0.0
C334 C 0.00548 0.40912 0.20774 0.0
C335 C 0.962 0.53639 0.29016 0.0
N336 N 0.96598 0.54003 0.26676 0.0
C337 C 0.9391 0.54064 0.30021 0.0
C338 C 0.92008 0.54857 0.28614 0.0
C339 C 0.92414 0.55208 0.26226 0.0
C340 C 0.94728 0.54765 0.25283 0.0
C341 C 0.99108 0.60216 0.235 0.0
C342 C 0.0028 0.56216 0.21242 0.0
C343 C 0.99147 0.58171 0.24716 0.0
N344 N 0.99717 0.56201 0.23582 0.0
C345 C 0.00258 0.5823 0.1997 0.0
C346 C 0.99667 0.60241 0.21111 0.0
C347 C 0.03427 0.50942 0.22554 0.0
C348 C 0.05859 0.46829 0.30153 0.0
C349 C 0.05275 0.46284 0.25357 0.0
C350 C 0.07546 0.45824 0.26385 0.0
C351 C 0.07834 0.46097 0.28801 0.0
N352 N 0.03335 0.4699 0.26694 0.0
C353 C 0.03615 0.47274 0.29063 0.0
Co354 Co 0.49416 0.0325 0.75004 0.0
Co355 Co 0.49916 0.97554 0.75114 0.0
O356 O 0.49631 0.00433 0.76817 0.0
C357 C 0.51848 0.04503 0.79627 0.0
O358 O 0.52146 0.02377 0.80195 0.0
C359 C 0.47393 0.96429 0.7972 0.0
O360 O 0.47168 0.98567 0.80285 0.0
O361 O 0.46705 0.98203 0.7357 0.0
O362 O 0.4775 0.0165 0.72325 0.0
H363 H 0.49383 0.92681 0.67886 0.0
H364 H 0.4725 0.03031 0.79827 0.0
O365 O 0.50996 0.05036 0.77616 0.0
H366 H 0.40502 0.05463 0.74663 0.0
H367 H 0.48089 0.11591 0.73808 0.0
H368 H 0.50376 0.04401 0.70016 0.0
H369 H 0.4461 0.0474 0.73036 0.0
H370 H 0.48198 0.08063 0.76095 0.0
O371 O 0.48207 0.95859 0.77704 0.0
H372 H 0.49177 0.96241 0.70129 0.0
H373 H 0.51059 0.92774 0.76404 0.0
H374 H 0.50267 0.07886 0.6766 0.0
H375 H 0.43186 0.03767 0.81528 0.0
H376 H 0.49118 0.11516 0.69556 0.0
H377 H 0.39767 0.04989 0.78941 0.0
O378 O 0.52689 0.02559 0.73614 0.0
H379 H 0.55887 0.97233 0.8189 0.0
H380 H 0.54778 0.95946 0.73395 0.0
H381 H 0.58804 0.95231 0.75199 0.0
H382 H 0.59381 0.95861 0.79481 0.0
H383 H 0.51912 0.9796 0.80014 0.0
H384 H 0.51258 0.89173 0.74232 0.0
H385 H 0.50429 0.89112 0.69939 0.0
O386 O 0.51721 0.9906 0.72469 0.0
C387 C 0.46376 0.99908 0.72242 0.0
C388 C 0.49751 0.92686 0.69756 0.0
C389 C 0.50799 0.90717 0.73318 0.0
N390 N 0.50109 0.94721 0.73395 0.0
C391 C 0.4964 0.94698 0.71036 0.0
C392 C 0.50672 0.92761 0.7454 0.0
C393 C 0.50336 0.90684 0.70909 0.0
C394 C 0.45795 0.03588 0.78688 0.0
N395 N 0.46195 0.03867 0.76336 0.0
C396 C 0.43485 0.03992 0.79662 0.0
C397 C 0.41567 0.04674 0.7821 0.0
C398 C 0.41978 0.0494 0.75811 0.0
C399 C 0.44313 0.04525 0.749 0.0
C400 C 0.48593 0.1002 0.72962 0.0
C401 C 0.49867 0.0597 0.70854 0.0
C402 C 0.48668 0.08017 0.7425 0.0
N403 N 0.4929 0.06023 0.73191 0.0
C404 C 0.49812 0.0794 0.69511 0.0
C405 C 0.49169 0.09976 0.70576 0.0
C406 C 0.531 0.00802 0.72372 0.0
C407 C 0.55656 0.96939 0.80024 0.0
C408 C 0.55004 0.96232 0.75259 0.0
C409 C 0.57294 0.9582 0.76271 0.0
C410 C 0.57616 0.96173 0.78672 0.0
N411 N 0.53077 0.96968 0.76598 0.0
C412 C 0.53394 0.97335 0.7895 0.0
Co413 Co 0.99483 0.4831 0.75482 0.0
Co414 Co 0.99967 0.54006 0.75307 0.0
O415 O 0.99666 0.51111 0.73637 0.0
C416 C 0.01862 0.47025 0.70849 0.0
O417 O 0.02142 0.49146 0.70252 0.0
C418 C 0.97343 0.55066 0.70736 0.0
O419 O 0.9711 0.5292 0.70207 0.0
O420 O 0.96782 0.53358 0.76897 0.0
O421 O 0.97857 0.4993 0.78165 0.0
H422 H 0.99537 0.58943 0.82492 0.0
H423 H 0.97248 0.48464 0.70683 0.0
O424 O 0.01028 0.46507 0.72871 0.0
H425 H 0.90575 0.46083 0.75961 0.0
H426 H 0.98185 0.39978 0.7678 0.0
H427 H 0.00522 0.47209 0.80468 0.0
H428 H 0.94707 0.46828 0.77527 0.0
H429 H 0.98255 0.43484 0.74456 0.0
O430 O 0.98211 0.55667 0.72723 0.0
H431 H 0.99306 0.55361 0.80288 0.0
H432 H 0.01066 0.5878 0.73951 0.0
H433 H 0.00454 0.43746 0.8286 0.0
H434 H 0.93159 0.47704 0.69042 0.0
H435 H 0.9928 0.40095 0.81017 0.0
H436 H 0.89778 0.46508 0.71686 0.0
O437 O 0.02772 0.49024 0.7682 0.0
H438 H 0.05818 0.54299 0.68443 0.0
H439 H 0.04854 0.55646 0.76943 0.0
H440 H 0.08847 0.56361 0.75073 0.0
H441 H 0.09351 0.557 0.70788 0.0
H442 H 0.01877 0.53574 0.70384 0.0
H443 H 0.01289 0.62401 0.76084 0.0
H444 H 0.00534 0.62498 0.80389 0.0
O445 O 0.01822 0.52533 0.77943 0.0
C446 C 0.96472 0.51662 0.7824 0.0
C447 C 0.99873 0.58923 0.80617 0.0
C448 C 0.00852 0.60864 0.77021 0.0
N449 N 0.00177 0.56856 0.76994 0.0
C450 C 0.99748 0.56898 0.79359 0.0
C451 C 0.00713 0.58808 0.75821 0.0
C452 C 0.0043 0.60917 0.79436 0.0
C453 C 0.95809 0.47919 0.71847 0.0
N454 N 0.96243 0.4767 0.74197 0.0
C455 C 0.93485 0.47501 0.70906 0.0
C456 C 0.91588 0.46833 0.7239 0.0
C457 C 0.92035 0.46595 0.74787 0.0
C458 C 0.94383 0.47024 0.75664 0.0
C459 C 0.987 0.41558 0.77603 0.0
C460 C 1.00002 0.4563 0.79653 0.0
C461 C 0.98753 0.43549 0.76294 0.0
N462 N 0.99388 0.45555 0.77325 0.0
C463 C 0.9997 0.43673 0.81016 0.0
C464 C 0.99313 0.41625 0.79981 0.0
C465 C 0.032 0.50793 0.7804 0.0
C466 C 0.05619 0.54606 0.70309 0.0
C467 C 0.05049 0.55347 0.75078 0.0
C468 C 0.0732 0.55759 0.74028 0.0
C469 C 0.07601 0.55389 0.71626 0.0
N470 N 0.03101 0.54593 0.73774 0.0
C471 C 0.03377 0.5421 0.71421 0.0
Co472 Co 0.23156 0.53654 0.00879 0.0
Co473 Co 0.23549 0.4808 0.99689 0.0
O474 O 0.25203 0.50962 0.0036 0.0
C475 C 0.27508 0.55438 0.98196 0.0
O476 O 0.27519 0.53675 0.96793 0.0
C477 C 0.28278 0.46813 0.02181 0.0
O478 O 0.28859 0.48931 0.02572 0.0
O479 O 0.21856 0.48339 0.02784 0.0
O480 O 0.20379 0.51787 0.02137 0.0
H481 H 0.16188 0.42976 0.9938 0.0
H482 H 0.28127 0.53455 0.02971 0.0
O483 O 0.25863 0.55651 0.99761 0.0
H484 H 0.22547 0.54757 0.09653 0.0
H485 H 0.21465 0.61707 0.03264 0.0
H486 H 0.1795 0.54741 0.99893 0.0
H487 H 0.20934 0.54496 0.05616 0.0
H488 H 0.24018 0.58308 0.02763 0.0
O489 O 0.26248 0.46297 0.01209 0.0
H490 H 0.18385 0.46557 1.00071 0.0
H491 H 0.25115 0.43484 0.98093 0.0
H492 H 0.15324 0.58095 0.00386 0.0
H493 H 0.29825 0.53732 0.06979 0.0
H494 H 0.1708 0.61611 0.02081 0.0
H495 H 0.27026 0.54379 0.10357 0.0
O496 O 0.21863 0.53299 0.97621 0.0
H497 H 0.30787 0.48703 0.94217 0.0
H498 H 0.21982 0.46899 0.9481 0.0
H499 H 0.24025 0.46692 0.90959 0.0
H500 H 0.28465 0.47583 0.90643 0.0
H501 H 0.28668 0.48927 0.9802 0.0
H502 H 0.22994 0.39864 0.97408 0.0
H503 H 0.18495 0.39596 0.9804 0.0
O504 O 0.20783 0.49686 0.98062 0.0
C505 C 0.20421 0.49959 0.03315 0.0
C506 C 0.18147 0.43073 0.99094 0.0
C507 C 0.21967 0.41326 0.9799 0.0
N508 N 0.21873 0.45236 0.99112 0.0
C509 C 0.19401 0.45098 0.99477 0.0
C510 C 0.2316 0.43379 0.9839 0.0
C511 C 0.19443 0.41177 0.98344 0.0
C512 C 0.26898 0.5374 0.0443 0.0
N513 N 0.24433 0.53938 0.04057 0.0
C514 C 0.2787 0.53895 0.06696 0.0
C515 C 0.26298 0.54258 0.08591 0.0
C516 C 0.23786 0.54469 0.08198 0.0
C517 C 0.22882 0.54309 0.05907 0.0
C518 C 0.20679 0.60185 0.02521 0.0
C519 C 0.18728 0.56262 0.00638 0.0
C520 C 0.2212 0.58257 0.02223 0.0
N521 N 0.21136 0.56324 0.01301 0.0
C522 C 0.17232 0.58157 0.0091 0.0
C523 C 0.18218 0.6013 0.01859 0.0
C524 C 0.20688 0.5155 0.96943 0.0
C525 C 0.28857 0.48289 0.94335 0.0
C526 C 0.23916 0.47286 0.94697 0.0
C527 C 0.25063 0.47166 0.92506 0.0
C528 C 0.27553 0.47666 0.9233 0.0
N529 N 0.25211 0.47876 0.96666 0.0
C530 C 0.27648 0.48393 0.96497 0.0
Co531 Co 0.49665 0.26438 0.97555 0.0
Co532 Co 0.49379 0.26157 0.03516 0.0
O533 O 0.49609 0.24632 0.00457 0.0
C534 C 0.46992 0.22115 0.96352 0.0
O535 O 0.46423 0.21786 0.98563 0.0
C536 C 0.5232 0.21891 0.04416 0.0
O537 O 0.52531 0.21462 0.02162 0.0
O538 O 0.52465 0.27831 0.02776 0.0
O539 O 0.51342 0.29007 0.99203 0.0
H540 H 0.49742 0.32953 0.08812 0.0
H541 H 0.51811 0.21811 0.97502 0.0
O542 O 0.48069 0.23925 0.95723 0.0
H543 H 0.58509 0.26863 0.95022 0.0
H544 H 0.50691 0.27724 0.88857 0.0
H545 H 0.48579 0.31231 0.96458 0.0
H546 H 0.54427 0.284 0.95955 0.0
H547 H 0.50732 0.25476 0.92497 0.0
O548 O 0.51314 0.23713 0.05119 0.0
H549 H 0.49913 0.30928 0.05026 0.0
H550 H 0.48502 0.24711 0.08481 0.0
H551 H 0.48535 0.33544 0.92863 0.0
H552 H 0.55852 0.20203 0.96554 0.0
H553 H 0.49596 0.31791 0.89026 0.0
H554 H 0.59243 0.22735 0.95309 0.0
O555 O 0.46412 0.27748 0.98403 0.0
H556 H 0.43927 0.19285 0.03954 0.0
H557 H 0.44477 0.27473 0.05405 0.0
H558 H 0.4062 0.25478 0.06257 0.0
H559 H 0.40327 0.21347 0.05548 0.0
H560 H 0.47723 0.21352 0.03078 0.0
H561 H 0.48343 0.26666 0.12307 0.0
H562 H 0.48954 0.3082 0.12489 0.0
O563 O 0.47368 0.28646 0.02114 0.0
C564 C 0.5271 0.29145 0.01016 0.0
C565 C 0.49472 0.31143 0.08756 0.0
C566 C 0.4869 0.27615 0.10717 0.0
N567 N 0.49218 0.27703 0.06528 0.0
C568 C 0.49564 0.29987 0.06615 0.0
C569 C 0.48794 0.26515 0.08546 0.0
C570 C 0.49031 0.29945 0.10818 0.0
C571 C 0.53262 0.22926 0.96943 0.0
N572 N 0.52868 0.25197 0.96778 0.0
C573 C 0.55554 0.22004 0.96416 0.0
C574 C 0.57456 0.23426 0.95721 0.0
C575 C 0.57046 0.25742 0.95561 0.0
C576 C 0.5473 0.26602 0.961 0.0
C577 C 0.50225 0.28507 0.90518 0.0
C578 C 0.4905 0.30455 0.94798 0.0
C579 C 0.50236 0.27241 0.92586 0.0
N580 N 0.49663 0.28221 0.94694 0.0
C581 C 0.49018 0.31774 0.92767 0.0
C582 C 0.49612 0.30789 0.90615 0.0
C583 C 0.46026 0.28867 0.00289 0.0
C584 C 0.44034 0.21083 0.04282 0.0
C585 C 0.44366 0.25682 0.05067 0.0
C586 C 0.42175 0.24558 0.05566 0.0
C587 C 0.42013 0.22241 0.05171 0.0
N588 N 0.46349 0.24537 0.04202 0.0
C589 C 0.46194 0.22266 0.03804 0.0
Co590 Co 0.76649 0.47244 0.00944 0.0
Co591 Co 0.76799 0.52701 0.99211 0.0
O592 O 0.74864 0.50037 1.00155 0.0
C593 C 0.72023 0.45597 0.98543 0.0
O594 O 0.71851 0.4744 0.97278 0.0
C595 C 0.72476 0.54614 0.01909 0.0
O596 O 0.72086 0.52695 0.02993 0.0
O597 O 0.7847 0.52615 0.0233 0.0
O598 O 0.79577 0.49002 0.02062 0.0
H599 H 0.84609 0.57156 0.9849 0.0
H600 H 0.71692 0.47971 0.02937 0.0
O601 O 0.73807 0.45324 0.99955 0.0
H602 H 0.77107 0.4693 0.09792 0.0
H603 H 0.77621 0.3936 0.04131 0.0
H604 H 0.81742 0.45682 1.00119 0.0
H605 H 0.78768 0.46722 0.05772 0.0
H606 H 0.75379 0.42875 0.03279 0.0
O607 O 0.7427 0.54826 0.00496 0.0
H608 H 0.8208 0.5385 0.99521 0.0
H609 H 0.75688 0.57194 0.97063 0.0
H610 H 0.8406 0.42206 0.0096 0.0
H611 H 0.69945 0.48156 0.06929 0.0
H612 H 0.81999 0.39012 0.02979 0.0
H613 H 0.72662 0.47644 0.10392 0.0
O614 O 0.77978 0.47193 0.97685 0.0
H615 H 0.69435 0.52317 0.93902 0.0
H616 H 0.78425 0.53171 0.94212 0.0
H617 H 0.76332 0.53164 0.90374 0.0
H618 H 0.71802 0.52743 0.902 0.0
H619 H 0.71606 0.52301 0.97702 0.0
H620 H 0.78144 0.60543 0.96029 0.0
H621 H 0.82641 0.60535 0.96733 0.0
O622 O 0.79407 0.50733 0.97779 0.0
C623 C 0.79738 0.50939 0.03029 0.0
C624 C 0.82652 0.5718 0.98174 0.0
C625 C 0.79023 0.59082 0.96796 0.0
N626 N 0.78738 0.55326 0.98354 0.0
C627 C 0.8121 0.55311 0.98752 0.0
C628 C 0.7764 0.57183 0.97396 0.0
C629 C 0.81546 0.59076 0.9719 0.0
C630 C 0.72883 0.4773 0.04433 0.0
N631 N 0.7533 0.47345 0.04116 0.0
C632 C 0.71885 0.47843 0.0669 0.0
C633 C 0.7341 0.47558 0.08633 0.0
C634 C 0.75904 0.47159 0.08298 0.0
C635 C 0.76836 0.47054 0.06015 0.0
C636 C 0.78539 0.40739 0.03248 0.0
C637 C 0.80831 0.44303 0.01001 0.0
C638 C 0.77275 0.42731 0.0275 0.0
N639 N 0.78425 0.44485 0.01646 0.0
C640 C 0.82154 0.42337 0.01472 0.0
C641 C 0.80996 0.40545 0.02603 0.0
C642 C 0.79298 0.48775 0.96848 0.0
C643 C 0.71408 0.52508 0.93955 0.0
C644 C 0.76454 0.52977 0.94155 0.0
C645 C 0.75278 0.52981 0.91974 0.0
C646 C 0.72737 0.52745 0.91878 0.0
N647 N 0.75139 0.52744 0.96187 0.0
C648 C 0.72648 0.5251 0.96104 0.0
Co649 Co 0.50594 0.74297 0.02631 0.0
Co650 Co 0.50491 0.74478 0.96677 0.0
O651 O 0.50596 0.76062 0.99712 0.0
C652 C 0.47927 0.78647 0.03715 0.0
O653 O 0.47468 0.78988 0.01482 0.0
C654 C 0.53348 0.78788 0.95863 0.0
O655 O 0.53693 0.79072 0.98125 0.0
O656 O 0.53611 0.72921 0.9753 0.0
O657 O 0.52355 0.7173 0.01056 0.0
H658 H 0.51232 0.67624 0.91502 0.0
H659 H 0.52719 0.78943 0.02706 0.0
O660 O 0.4892 0.76812 0.04388 0.0
H661 H 0.59343 0.73958 0.05472 0.0
H662 H 0.51346 0.73092 0.11369 0.0
H663 H 0.49508 0.69507 0.03737 0.0
H664 H 0.5531 0.72386 0.04406 0.0
H665 H 0.51489 0.75311 0.07712 0.0
O666 O 0.52355 0.76983 0.95089 0.0
H667 H 0.51233 0.69705 0.95259 0.0
H668 H 0.49705 0.75827 0.9167 0.0
H669 H 0.49365 0.67222 0.0735 0.0
H670 H 0.56707 0.80587 0.03791 0.0
H671 H 0.50288 0.69014 0.11202 0.0
H672 H 0.60062 0.7809 0.0518 0.0
O673 O 0.47378 0.72973 0.01692 0.0
H674 H 0.44805 0.8115 0.95957 0.0
H675 H 0.4568 0.72949 0.94732 0.0
H676 H 0.41772 0.74799 0.93751 0.0
H677 H 0.41316 0.78933 0.94348 0.0
H678 H 0.48658 0.7923 0.96957 0.0
H679 H 0.49712 0.73814 0.87874 0.0
H680 H 0.50468 0.6968 0.87774 0.0
O681 O 0.48531 0.71938 0.98076 0.0
C682 C 0.53814 0.7162 0.99307 0.0
C683 C 0.50898 0.69425 0.91523 0.0
C684 C 0.50048 0.72899 0.89486 0.0
N685 N 0.50466 0.72885 0.93689 0.0
C686 C 0.50893 0.70613 0.93646 0.0
C687 C 0.50057 0.74032 0.91642 0.0
C688 C 0.50471 0.70579 0.89432 0.0
C689 C 0.54151 0.77842 0.03329 0.0
N690 N 0.53763 0.75569 0.03497 0.0
C691 C 0.56415 0.78785 0.03933 0.0
C692 C 0.58298 0.77383 0.04708 0.0
C693 C 0.57896 0.75065 0.04871 0.0
C694 C 0.55607 0.74184 0.04255 0.0
C695 C 0.5094 0.72291 0.09701 0.0
C696 C 0.49919 0.70299 0.05404 0.0
C697 C 0.51009 0.73541 0.07624 0.0
N698 N 0.50513 0.72539 0.05508 0.0
C699 C 0.49832 0.68997 0.07445 0.0
C700 C 0.50348 0.70003 0.09606 0.0
C701 C 0.47074 0.718 0.99827 0.0
C702 C 0.44983 0.79349 0.95679 0.0
C703 C 0.45499 0.74746 0.95016 0.0
C704 C 0.43279 0.75786 0.94447 0.0
C705 C 0.43025 0.78104 0.94781 0.0
N706 N 0.4742 0.75977 0.95891 0.0
C707 C 0.47174 0.7825 0.9623 0.0
C708 C 0.98714 0.30137 0.4305 0.0
C709 C 0.00915 0.30027 0.44335 0.0
C710 C 0.98219 0.31959 0.41582 0.0
C711 C 0.00156 0.37839 0.40152 0.0
H712 H 0.96397 0.36605 0.34508 0.0
C713 C 0.97134 0.45032 0.33876 0.0
C714 C 0.97298 0.44567 0.31457 0.0
C715 C 0.97374 0.43291 0.35529 0.0
C716 C 0.97468 0.36988 0.36061 0.0
H717 H 0.04327 0.31763 0.45078 0.0
H718 H 0.03516 0.34919 0.42409 0.0
H719 H 0.97453 0.33538 0.37109 0.0
H720 H 0.97701 0.41881 0.28883 0.0
H721 H 0.98194 0.38895 0.31725 0.0
H722 H 0.00286 0.41281 0.39012 0.0
C723 C 0.0214 0.33612 0.42591 0.0
C724 C 0.98045 0.35223 0.37584 0.0
C725 C 0.02619 0.31794 0.44105 0.0
C726 C 0.97581 0.42311 0.30731 0.0
C727 C 0.97845 0.40584 0.32372 0.0
C728 C 0.9961 0.39607 0.38602 0.0
C729 C 0.99929 0.33715 0.41304 0.0
C730 C 0.99387 0.35618 0.3966 0.0
C731 C 0.97792 0.41049 0.34798 0.0
C732 C 0.98263 0.39204 0.36529 0.0
H733 H 0.97332 0.28831 0.43207 0.0
H734 H 0.96467 0.31996 0.40687 0.0
H735 H 0.01165 0.38222 0.41743 0.0
H736 H 0.96919 0.4675 0.34499 0.0
H737 H 0.97272 0.43711 0.37379 0.0
C738 C 0.66517 0.00982 0.45672 0.0
C739 C 0.68983 0.01539 0.45291 0.0
C740 C 0.64947 0.00588 0.43778 0.0
C741 C 0.64335 0.01017 0.37257 0.0
H742 H 0.59625 0.96198 0.38263 0.0
C743 C 0.5802 0.9761 0.29845 0.0
C744 C 0.5553 0.97795 0.30435 0.0
C745 C 0.59822 0.97807 0.31592 0.0
C746 C 0.60937 0.97541 0.37956 0.0
H747 H 0.7175 0.02172 0.42653 0.0
H748 H 0.69023 0.01431 0.39316 0.0
H749 H 0.62431 0.97255 0.41409 0.0
H750 H 0.52946 0.98229 0.33283 0.0
H751 H 0.56079 0.98454 0.3635 0.0
H752 H 0.62836 0.01263 0.33778 0.0
C753 C 0.68272 0.01357 0.41075 0.0
C754 C 0.6253 0.9817 0.39766 0.0
C755 C 0.69835 0.01797 0.42982 0.0
C756 C 0.54857 0.98033 0.32801 0.0
C757 C 0.56649 0.98175 0.34548 0.0
C758 C 0.62758 1.00363 0.35432 0.0
C759 C 0.65824 0.00677 0.41453 0.0
C760 C 0.64217 0.99951 0.39463 0.0
C761 C 0.5915 0.98143 0.33953 0.0
C762 C 0.61016 0.98645 0.3578 0.0
H763 H 0.65829 0.00758 0.47443 0.0
H764 H 0.6306 1.00142 0.44145 0.0
H765 H 0.65592 0.02402 0.36958 0.0
H766 H 0.58575 0.97485 0.28021 0.0
H767 H 0.61738 0.97773 0.3109 0.0
C768 C 0.02224 0.58511 0.31192 0.0
C769 C 0.02258 0.56218 0.31825 0.0
C770 C 0.01703 0.60177 0.32858 0.0
C771 C 0.01187 0.61408 0.39224 0.0
H772 H 0.9654 0.65915 0.37086 0.0
C773 C 0.97286 0.68205 0.45523 0.0
C774 C 0.97325 0.70423 0.44645 0.0
C775 C 0.97666 0.66361 0.44018 0.0
C776 C 0.9785 0.6468 0.3771 0.0
H777 H 0.01927 0.53895 0.3475 0.0
H778 H 0.01029 0.56815 0.37668 0.0
H779 H 0.97894 0.62966 0.34399 0.0
H780 H 0.97635 0.72428 0.41473 0.0
H781 H 0.98292 0.69233 0.38864 0.0
H782 H 0.0116 0.63145 0.42532 0.0
C783 C 0.01404 0.57319 0.35876 0.0
C784 C 0.98635 0.62992 0.36166 0.0
C785 C 0.01928 0.55645 0.34203 0.0
C786 C 0.97598 0.70743 0.42211 0.0
C787 C 0.97968 0.68906 0.4071 0.0
C788 C 0.00405 0.63104 0.40772 0.0
C789 C 0.01201 0.59597 0.35203 0.0
C790 C 0.00338 0.61352 0.36891 0.0
C791 C 0.98074 0.66695 0.41601 0.0
C792 C 0.98747 0.64778 0.40025 0.0
H793 H 0.02495 0.59015 0.29381 0.0
H794 H 0.01626 0.61921 0.32292 0.0
H795 H 0.02507 0.60176 0.39836 0.0
H796 H 0.97092 0.67896 0.4739 0.0
H797 H 0.97697 0.64678 0.44756 0.0
C798 C 0.3239 0.02158 0.44219 0.0
C799 C 0.31419 1.00088 0.45004 0.0
C800 C 0.34043 0.02234 0.4235 0.0
C801 C 0.38499 0.98766 0.39109 0.0
H802 H 0.37908 0.03416 0.34347 0.0
C803 C 0.44281 0.98474 0.30734 0.0
C804 C 0.45328 0.00487 0.29885 0.0
C805 C 0.42532 0.9851 0.32514 0.0
C806 C 0.38116 0.02126 0.35678 0.0
H807 H 0.31455 0.96467 0.44433 0.0
H808 H 0.34357 0.966 0.41157 0.0
H809 H 0.34942 0.03255 0.37563 0.0
H810 H 0.45299 0.04133 0.30233 0.0
H811 H 0.42237 0.04195 0.33392 0.0
H812 H 0.41675 0.97644 0.37247 0.0
C813 C 0.33834 0.98165 0.42006 0.0
C814 C 0.36414 0.02028 0.37518 0.0
C815 C 0.32163 0.98089 0.43876 0.0
C816 C 0.44525 0.02552 0.30836 0.0
C817 C 0.42769 0.02587 0.32643 0.0
C818 C 0.40201 0.98868 0.37278 0.0
C819 C 0.34787 1.00242 0.41218 0.0
C820 C 0.36579 1.00339 0.39248 0.0
C821 C 0.41784 0.00558 0.33527 0.0
C822 C 0.40021 0.00536 0.35527 0.0
H823 H 0.31881 0.03737 0.4505 0.0
H824 H 0.34771 0.03856 0.41816 0.0
H825 H 0.38709 0.97474 0.40437 0.0
H826 H 0.4484 0.96845 0.30056 0.0
H827 H 0.41775 0.96919 0.33108 0.0
C828 C 0.97397 0.59095 0.69448 0.0
C829 C 0.97319 0.56791 0.68851 0.0
C830 C 0.97964 0.6072 0.67758 0.0
C831 C 0.98608 0.61801 0.6137 0.0
H832 H 0.03341 0.66255 0.63498 0.0
C833 C 0.02908 0.6832 0.55004 0.0
C834 C 0.02917 0.70561 0.55825 0.0
C835 C 0.02413 0.66531 0.56542 0.0
C836 C 0.02008 0.65035 0.62877 0.0
H837 H 0.97613 0.54407 0.65966 0.0
H838 H 0.98594 0.57251 0.63008 0.0
H839 H 0.01847 0.63408 0.66223 0.0
H840 H 0.02558 0.72665 0.58931 0.0
H841 H 0.01707 0.69566 0.61598 0.0
H842 H 0.98761 0.63449 0.58023 0.0
C843 C 0.98216 0.57799 0.64788 0.0
C844 C 0.01142 0.63406 0.64442 0.0
C845 C 0.97643 0.56167 0.66484 0.0
C846 C 0.02564 0.7096 0.58238 0.0
C847 C 0.02082 0.69177 0.59772 0.0
C848 C 0.99474 0.63438 0.598 0.0
C849 C 0.98471 0.60084 0.65426 0.0
C850 C 0.99407 0.61785 0.6372 0.0
C851 C 0.01937 0.66945 0.58936 0.0
C852 C 0.01165 0.65091 0.60542 0.0
H853 H 0.97135 0.59637 0.7125 0.0
H854 H 0.9808 0.62472 0.68297 0.0
H855 H 0.97267 0.60584 0.60759 0.0
H856 H 0.03159 0.67953 0.53153 0.0
H857 H 0.02352 0.64828 0.55847 0.0
C858 C 0.45231 0.00493 0.6808 0.0
C859 C 0.44535 0.99837 0.7035 0.0
C860 C 0.43473 0.0082 0.66335 0.0
C861 C 0.36896 0.99891 0.64786 0.0
H862 H 0.38299 0.04692 0.60353 0.0
C863 C 0.30094 0.02761 0.57485 0.0
C864 C 0.31111 0.0246 0.55239 0.0
C865 C 0.31599 0.02692 0.59482 0.0
C866 C 0.3788 0.03355 0.61588 0.0
H867 H 0.41473 0.98973 0.72587 0.0
H868 H 0.38357 0.99606 0.69546 0.0
H869 H 0.41146 0.03954 0.63559 0.0
H870 H 0.3447 0.01941 0.53292 0.0
H871 H 0.37118 0.01952 0.56766 0.0
H872 H 0.33594 0.99338 0.62804 0.0
C873 C 0.40271 0.99814 0.6909 0.0
C874 C 0.39522 0.02909 0.63412 0.0
C875 C 0.4205 0.99442 0.70833 0.0
C876 C 0.33658 0.02218 0.55006 0.0
C877 C 0.35165 0.02212 0.5699 0.0
C878 C 0.35228 1.00367 0.62979 0.0
C879 C 0.40959 0.0056 0.6683 0.0
C880 C 0.3909 0.01131 0.65003 0.0
C881 C 0.34143 0.02381 0.59249 0.0
C882 C 0.35734 0.02073 0.61337 0.0
H883 H 0.47143 0.00803 0.6767 0.0
H884 H 0.44091 0.01316 0.64604 0.0
H885 H 0.36502 0.98501 0.6596 0.0
H886 H 0.28125 0.02892 0.57704 0.0
H887 H 0.30772 0.02822 0.61208 0.0
C888 C 0.96847 0.33174 0.55457 0.0
C889 C 0.96824 0.30952 0.56324 0.0
C890 C 0.97325 0.34998 0.56966 0.0
C891 C 0.00521 0.36127 0.62566 0.0
H892 H 0.97532 0.42048 0.62157 0.0
C893 C 0.01782 0.42948 0.69701 0.0
C894 C 0.01896 0.45229 0.69028 0.0
C895 C 0.01337 0.41258 0.68038 0.0
C896 C 0.98412 0.40413 0.62269 0.0
H897 H 0.97071 0.28923 0.59482 0.0
H898 H 0.97842 0.32094 0.6211 0.0
H899 H 0.96146 0.39026 0.5954 0.0
H900 H 0.01748 0.47507 0.66053 0.0
H901 H 0.01002 0.44544 0.63138 0.0
H902 H 0.02779 0.37501 0.65295 0.0
C903 C 0.97567 0.32428 0.60258 0.0
C904 C 0.97609 0.38678 0.60775 0.0
C905 C 0.97098 0.30612 0.58754 0.0
C906 C 0.01683 0.45767 0.66631 0.0
C907 C 0.01224 0.44072 0.64964 0.0
C908 C 0.01323 0.37856 0.64055 0.0
C909 C 0.97781 0.34633 0.59371 0.0
C910 C 0.98634 0.36506 0.60926 0.0
C911 C 0.00989 0.41803 0.65657 0.0
C912 C 0.00263 0.40015 0.63944 0.0
H913 H 0.96663 0.33495 0.53592 0.0
H914 H 0.97476 0.36674 0.56224 0.0
H915 H 0.01399 0.34492 0.6269 0.0
H916 H 0.01938 0.42473 0.71532 0.0
H917 H 0.01152 0.39533 0.68641 0.0
C918 C 0.56984 0.02408 0.70623 0.0
C919 C 0.55108 0.00779 0.70614 0.0
C920 C 0.58907 0.02282 0.68988 0.0
C921 C 0.61865 0.98274 0.64763 0.0
H922 H 0.64252 0.03736 0.61815 0.0
C923 C 0.69341 0.98148 0.57469 0.0
C924 C 0.69037 0.99705 0.55634 0.0
C925 C 0.67836 0.98255 0.59466 0.0
C926 C 0.63595 0.0219 0.62609 0.0
H927 H 0.53762 0.97769 0.68837 0.0
H928 H 0.57032 0.97595 0.65985 0.0
H929 H 0.61262 0.04001 0.64974 0.0
H930 H 0.66853 0.02532 0.5441 0.0
H931 H 0.64202 0.02664 0.57818 0.0
H932 H 0.64097 0.96457 0.62314 0.0
C933 C 0.57081 0.9893 0.67287 0.0
C934 C 0.61905 0.02345 0.6445 0.0
C935 C 0.55183 0.99046 0.68919 0.0
C936 C 0.67156 0.01319 0.55803 0.0
C937 C 0.65647 0.01412 0.57776 0.0
C938 C 0.63538 0.98117 0.62908 0.0
C939 C 0.58982 0.00531 0.67305 0.0
C940 C 0.60977 1.00387 0.65519 0.0
C941 C 0.65988 0.99909 0.59655 0.0
C942 C 0.64386 1.00071 0.61772 0.0
H943 H 0.56986 0.03758 0.71911 0.0
H944 H 0.60348 0.03539 0.69063 0.0
H945 H 0.61234 0.96729 0.65579 0.0
H946 H 0.70788 0.96898 0.57396 0.0
H947 H 0.68161 0.97076 0.60884 0.0
C948 C 0.43663 0.31782 0.0251 0.0
C949 C 0.44115 0.30654 0.00372 0.0
C950 C 0.41982 0.33544 0.02639 0.0
C951 C 0.36703 0.36154 0.99641 0.0
H952 H 0.38307 0.4117 0.03766 0.0
C953 C 0.2944 0.42735 0.02255 0.0
C954 C 0.30155 0.45015 0.02363 0.0
C955 C 0.31187 0.41027 0.02023 0.0
C956 C 0.37834 0.39798 0.02588 0.0
H957 H 0.4312 0.3051 0.96685 0.0
H958 H 0.40179 0.33637 0.96905 0.0
H959 H 0.41278 0.3817 0.03156 0.0
H960 H 0.33278 0.47281 0.02387 0.0
H961 H 0.36334 0.44301 0.01962 0.0
H962 H 0.3328 0.37816 0.99029 0.0
C963 C 0.41121 0.33119 0.9849 0.0
C964 C 0.3953 0.38059 0.02258 0.0
C965 C 0.42808 0.3133 0.98362 0.0
C966 C 0.32667 0.45541 0.02334 0.0
C967 C 0.3442 0.43829 0.02083 0.0
C968 C 0.35009 0.37903 0.99961 0.0
C969 C 0.40711 0.34262 0.00631 0.0
C970 C 0.38972 0.36195 0.00812 0.0
C971 C 0.33697 0.41552 0.01875 0.0
C972 C 0.35539 0.39733 0.01467 0.0
H973 H 0.44625 0.31325 0.04103 0.0
H974 H 0.41675 0.3434 0.04329 0.0
H975 H 0.36207 0.34743 0.98523 0.0
H976 H 0.27517 0.4227 0.02287 0.0
H977 H 0.30563 0.39292 0.01934 0.0
C978 C 0.31441 0.57028 0.96517 0.0
C979 C 0.29525 0.57124 0.98168 0.0
C980 C 0.33387 0.58581 0.9663 0.0
C981 C 0.36561 0.6235 0.00824 0.0
H982 H 0.38897 0.65489 0.95294 0.0
C983 C 0.43274 0.69923 0.0144 0.0
C984 C 0.4509 0.70085 0.99697 0.0
C985 C 0.41396 0.68313 0.01245 0.0
C986 C 0.38291 0.64607 0.96854 0.0
H987 H 0.28155 0.58955 0.01215 0.0
H988 H 0.31506 0.61625 0.01394 0.0
H989 H 0.35657 0.62666 0.94905 0.0
H990 H 0.4637 0.68642 0.96401 0.0
H991 H 0.43158 0.65838 0.96097 0.0
H992 H 0.39197 0.64268 0.02776 0.0
C993 C 0.31527 0.60347 1.00028 0.0
C994 C 0.36434 0.62988 0.96626 0.0
C995 C 0.29589 0.58819 0.99908 0.0
C996 C 0.44996 0.68587 0.97774 0.0
C997 C 0.43137 0.6698 0.97586 0.0
C998 C 0.38427 0.63956 0.0105 0.0
C999 C 0.3346 0.60238 0.98409 0.0
C1000 C 0.35534 0.61856 0.98612 0.0
C1001 C 0.41301 0.66826 0.99308 0.0
C1002 C 0.39308 0.65116 0.99071 0.0
H1003 H 0.31452 0.55743 0.9516 0.0
H1004 H 0.34859 0.58456 0.95359 0.0
H1005 H 0.35928 0.61482 0.02384 0.0
H1006 H 0.43288 0.71051 0.02941 0.0
H1007 H 0.39997 0.68258 0.02594 0.0
C1008 C 0.5673 0.30809 0.02366 0.0
C1009 C 0.54565 0.30973 0.0104 0.0
C1010 C 0.58576 0.32447 0.02139 0.0
C1011 C 0.60717 0.36877 0.97975 0.0
H1012 H 0.6476 0.38779 0.0322 0.0
C1013 C 0.67756 0.44279 0.9748 0.0
C1014 C 0.70031 0.43886 0.98568 0.0
C1015 C 0.65829 0.42725 0.97735 0.0
C1016 C 0.63653 0.38253 0.01734 0.0
H1017 H 0.52578 0.33052 0.98544 0.0
H1018 H 0.55732 0.35916 0.98211 0.0
H1019 H 0.61469 0.36057 0.03863 0.0
H1020 H 0.72088 0.41493 0.00684 0.0
H1021 H 0.68753 0.38822 0.01123 0.0
H1022 H 0.62895 0.39095 0.95854 0.0
C1023 C 0.56062 0.34493 0.9936 0.0
C1024 C 0.61772 0.36686 0.02102 0.0
C1025 C 0.5424 0.32854 0.99567 0.0
C1026 C 0.70355 0.41876 0.99847 0.0
C1027 C 0.68437 0.40342 1.00112 0.0
C1028 C 0.62586 0.38457 0.97612 0.0
C1029 C 0.58279 0.3429 0.00599 0.0
C1030 C 0.60282 0.35971 1.00225 0.0
C1031 C 0.6614 0.40761 0.99093 0.0
C1032 C 0.64086 0.39152 0.99484 0.0
H1033 H 0.57037 0.29373 0.03504 0.0
H1034 H 0.60267 0.32227 0.03111 0.0
H1035 H 0.5964 0.36336 0.96475 0.0
H1036 H 0.67443 0.4581 0.96487 0.0
H1037 H 0.64074 0.43093 0.96929 0.0
C1038 C 0.7116 0.58531 0.00879 0.0
C1039 C 0.7065 0.5647 0.02004 0.0
C1040 C 0.69359 0.60188 0.00658 0.0
C1041 C 0.6261 0.60875 0.00681 0.0
H1042 H 0.64232 0.67255 0.00714 0.0
C1043 C 0.55334 0.67927 0.00809 0.0
C1044 C 0.5569 0.69813 0.99348 0.0
C1045 C 0.57146 0.66283 0.01034 0.0
C1046 C 0.6376 0.65479 0.00671 0.0
H1047 H 0.67865 0.54589 0.03887 0.0
H1048 H 0.64726 0.57519 0.03562 0.0
H1049 H 0.67412 0.64477 0.01557 0.0
H1050 H 0.58219 0.71432 0.96948 0.0
H1051 H 0.61428 0.68548 0.97367 0.0
H1052 H 0.58942 0.61893 0.99845 0.0
C1053 C 0.66512 0.57825 0.02794 0.0
C1054 C 0.6558 0.63882 0.01158 0.0
C1055 C 0.68319 0.56153 0.03005 0.0
C1056 C 0.5789 0.69994 0.98078 0.0
C1057 C 0.59729 0.68355 0.98331 0.0
C1058 C 0.60787 0.62473 1.00216 0.0
C1059 C 0.66996 0.59847 0.01574 0.0
C1060 C 0.65032 0.61557 0.01164 0.0
C1061 C 0.59377 0.6649 0.99826 0.0
C1062 C 0.61342 0.64792 1.00204 0.0
H1063 H 0.72938 0.58847 1.001 0.0
H1064 H 0.69803 0.61704 0.99686 0.0
H1065 H 0.62126 0.59103 0.00619 0.0
H1066 H 0.53657 0.67728 0.01807 0.0
H1067 H 0.56827 0.6488 0.02214 0.0
C1068 C 0.53322 0.82974 0.95155 0.0
C1069 C 0.53411 0.8076 0.9426 0.0
C1070 C 0.52819 0.84799 0.93666 0.0
C1071 C 0.52436 0.86473 0.87366 0.0
H1072 H 0.4755 0.90728 0.89591 0.0
C1073 C 0.47555 0.92385 0.80951 0.0
C1074 C 0.47437 0.94679 0.81582 0.0
C1075 C 0.48192 0.90751 0.82607 0.0
C1076 C 0.48931 0.89566 0.88951 0.0
H1077 H 0.53209 0.78751 0.91073 0.0
H1078 H 0.52335 0.8191 0.88494 0.0
H1079 H 0.49129 0.87836 0.9225 0.0
H1080 H 0.47729 0.9703 0.84498 0.0
H1081 H 0.48822 0.94165 0.874 0.0
H1082 H 0.52215 0.88176 0.84062 0.0
C1083 C 0.52653 0.82251 0.9034 0.0
C1084 C 0.49847 0.87914 0.90478 0.0
C1085 C 0.53148 0.80432 0.91824 0.0
C1086 C 0.4779 0.95278 0.83953 0.0
C1087 C 0.48428 0.93636 0.85616 0.0
C1088 C 0.51515 0.88114 0.85842 0.0
C1089 C 0.5241 0.8445 0.91249 0.0
C1090 C 0.51592 0.86329 0.89695 0.0
C1091 C 0.48725 0.91366 0.8494 0.0
C1092 C 0.49727 0.89662 0.86604 0.0
H1093 H 0.53503 0.83288 0.97023 0.0
H1094 H 0.52687 0.86475 0.94419 0.0
H1095 H 0.53809 0.8531 0.86713 0.0
H1096 H 0.47269 0.9186 0.79146 0.0
H1097 H 0.48342 0.89009 0.82041 0.0
C1098 C 0.1935 0.53257 0.93098 0.0
C1099 C 0.19025 0.51656 0.94889 0.0
C1100 C 0.17882 0.53184 0.91073 0.0
C1101 C 0.13692 0.493 0.87778 0.0
H1102 H 0.11353 0.54818 0.84913 0.0
C1103 C 0.07095 0.49191 0.79762 0.0
C1104 C 0.05224 0.50822 0.79783 0.0
C1105 C 0.09021 0.49306 0.81394 0.0
C1106 C 0.11977 0.53257 0.85699 0.0
H1107 H 0.16843 0.48782 0.96001 0.0
H1108 H 0.14252 0.4871 0.9255 0.0
H1109 H 0.14188 0.55026 0.88208 0.0
H1110 H 0.03897 0.53829 0.81571 0.0
H1111 H 0.0717 0.53979 0.84427 0.0
H1112 H 0.11374 0.47534 0.85361 0.0
C1113 C 0.15689 0.49971 0.92646 0.0
C1114 C 0.13635 0.53378 0.87572 0.0
C1115 C 0.17163 0.50028 0.94644 0.0
C1116 C 0.05313 0.5255 0.81482 0.0
C1117 C 0.07214 0.52653 0.83115 0.0
C1118 C 0.12013 0.4918 0.85924 0.0
C1119 C 0.16047 0.51522 0.90813 0.0
C1120 C 0.14473 0.51402 0.88671 0.0
C1121 C 0.09105 0.51044 0.83091 0.0
C1122 C 0.11091 0.51158 0.84892 0.0
H1123 H 0.20783 0.54519 0.9323 0.0
H1124 H 0.18221 0.544 0.89692 0.0
H1125 H 0.14343 0.47738 0.88541 0.0
H1126 H 0.07087 0.47846 0.78469 0.0
H1127 H 0.10456 0.48046 0.8131 0.0
C1128 C 0.51622 0.05696 0.83863 0.0
C1129 C 0.51856 0.06273 0.81477 0.0
C1130 C 0.51108 0.07358 0.8555 0.0
C1131 C 0.48308 0.1304 0.85944 0.0
H1132 H 0.50871 0.13034 0.923 0.0
C1133 C 0.47313 0.20622 0.92249 0.0
C1134 C 0.46941 0.2021 0.94655 0.0
C1135 C 0.47719 0.1884 0.90685 0.0
C1136 C 0.5011 0.13039 0.90541 0.0
H1137 H 0.51921 0.09069 0.79023 0.0
H1138 H 0.51095 0.1196 0.81961 0.0
H1139 H 0.52199 0.10133 0.8952 0.0
H1140 H 0.46602 0.17585 0.97286 0.0
H1141 H 0.47292 0.14463 0.94542 0.0
H1142 H 0.46241 0.15956 0.86953 0.0
C1143 C 0.51228 0.1022 0.82525 0.0
C1144 C 0.50878 0.11379 0.88944 0.0
C1145 C 0.51728 0.08562 0.80842 0.0
C1146 C 0.46868 0.17962 0.95442 0.0
C1147 C 0.47294 0.16174 0.93875 0.0
C1148 C 0.47547 0.14699 0.87535 0.0
C1149 C 0.5083 0.09633 0.84889 0.0
C1150 C 0.50006 0.11373 0.86617 0.0
C1151 C 0.47775 0.16597 0.91486 0.0
C1152 C 0.48453 0.14733 0.89847 0.0
H1153 H 0.51692 0.03948 0.84411 0.0
H1154 H 0.50809 0.06842 0.87352 0.0
H1155 H 0.47546 0.13057 0.84186 0.0
H1156 H 0.47382 0.22333 0.91583 0.0
H1157 H 0.48099 0.19231 0.88862 0.0
C1158 C 0.92129 0.52057 0.79599 0.0
C1159 C 0.94616 0.51713 0.80114 0.0
C1160 C 0.90336 0.5163 0.81312 0.0
C1161 C 0.89578 0.4841 0.86898 0.0
H1162 H 0.83545 0.51819 0.87485 0.0
C1163 C 0.83472 0.48527 0.95166 0.0
C1164 C 0.8093 0.48348 0.94848 0.0
C1165 C 0.85033 0.4865 0.93226 0.0
C1166 C 0.85209 0.50835 0.87317 0.0
H1167 H 0.97209 0.50784 0.82823 0.0
H1168 H 0.94125 0.50171 0.85839 0.0
H1169 H 0.86497 0.52816 0.84423 0.0
H1170 H 0.78003 0.48144 0.92288 0.0
H1171 H 0.80744 0.48407 0.88867 0.0
H1172 H 0.88331 0.46498 0.8986 0.0
C1173 C 0.93521 0.50674 0.84104 0.0
C1174 C 0.86903 0.51404 0.85563 0.0
C1175 C 0.95296 0.51059 0.82389 0.0
C1176 C 0.79968 0.4823 0.92564 0.0
C1177 C 0.81527 0.48407 0.90616 0.0
C1178 C 0.87906 0.47866 0.88667 0.0
C1179 C 0.9101 0.50876 0.83572 0.0
C1180 C 0.8913 0.50221 0.85354 0.0
C1181 C 0.84071 0.48659 0.90934 0.0
C1182 C 0.85719 0.49088 0.88911 0.0
H1183 H 0.91565 0.52522 0.7784 0.0
H1184 H 0.88424 0.51793 0.80829 0.0
H1185 H 0.91232 0.47409 0.86753 0.0
H1186 H 0.84239 0.4867 0.96918 0.0
H1187 H 0.86983 0.48864 0.93521 0.0
C1188 C 0.51876 0.07549 0.2 0.0
C1189 C 0.4965 0.06353 0.20132 0.0
C1190 C 0.52283 0.09128 0.18232 0.0
C1191 C 0.50037 0.11108 0.12416 0.0
H1192 H 0.53857 0.16397 0.14095 0.0
C1193 C 0.52826 0.17787 0.05464 0.0
C1194 C 0.52637 0.20059 0.06167 0.0
C1195 C 0.5265 0.16046 0.07124 0.0
C1196 C 0.5277 0.14944 0.1359 0.0
H1197 H 0.46108 0.05871 0.18479 0.0
H1198 H 0.46781 0.08714 0.15415 0.0
H1199 H 0.5295 0.13592 0.17056 0.0
H1200 H 0.5226 0.22275 0.09187 0.0
H1201 H 0.519 0.19275 0.12043 0.0
H1202 H 0.49762 0.12535 0.08969 0.0
C1203 C 0.48235 0.08388 0.16666 0.0
C1204 C 0.52276 0.13309 0.15289 0.0
C1205 C 0.47838 0.06771 0.18431 0.0
C1206 C 0.52401 0.20548 0.08576 0.0
C1207 C 0.52209 0.18817 0.10225 0.0
C1208 C 0.5051 0.12764 0.10716 0.0
C1209 C 0.50463 0.09597 0.16554 0.0
C1210 C 0.50912 0.11361 0.14729 0.0
C1211 C 0.5228 0.16539 0.09521 0.0
C1212 C 0.5188 0.14709 0.11283 0.0
H1213 H 0.5334 0.07246 0.21247 0.0
H1214 H 0.54048 0.09965 0.18174 0.0
H1215 H 0.49004 0.09623 0.11908 0.0
H1216 H 0.53004 0.17348 0.03623 0.0
H1217 H 0.52762 0.14314 0.0652 0.0
C1218 C 0.94711 0.51991 0.1894 0.0
C1219 C 0.94762 0.50195 0.20554 0.0
C1220 C 0.92911 0.52105 0.17207 0.0
C1221 C 0.88456 0.48623 0.13925 0.0
H1222 H 0.86084 0.54492 0.11937 0.0
C1223 C 0.83502 0.49694 0.05127 0.0
C1224 C 0.815 0.5118 0.04989 0.0
C1225 C 0.84989 0.49648 0.0712 0.0
C1226 C 0.867 0.52836 0.12484 0.0
H1227 H 0.92939 0.47104 0.21602 0.0
H1228 H 0.8975 0.47318 0.18576 0.0
H1229 H 0.88767 0.54211 0.15343 0.0
H1230 H 0.79518 0.53823 0.06807 0.0
H1231 H 0.82108 0.53729 0.10327 0.0
H1232 H 0.86343 0.47241 0.11102 0.0
C1233 C 0.91135 0.48628 0.18645 0.0
C1234 C 0.88267 0.52676 0.14423 0.0
C1235 C 0.92958 0.48505 0.20383 0.0
C1236 C 0.81066 0.5268 0.06857 0.0
C1237 C 0.82547 0.52617 0.08874 0.0
C1238 C 0.86873 0.48781 0.11998 0.0
C1239 C 0.91088 0.50437 0.17038 0.0
C1240 C 0.89211 0.50573 0.15137 0.0
C1241 C 0.84498 0.51066 0.09046 0.0
C1242 C 0.8602 0.50895 0.11217 0.0
H1243 H 0.96077 0.53319 0.18996 0.0
H1244 H 0.9298 0.53491 0.15971 0.0
H1245 H 0.89149 0.46977 0.14413 0.0
H1246 H 0.83896 0.48528 0.03707 0.0
H1247 H 0.86515 0.4848 0.07153 0.0
C1248 C 0.48051 0.8281 0.04573 0.0
C1249 C 0.47948 0.80572 0.05388 0.0
C1250 C 0.4863 0.84583 0.06116 0.0
C1251 C 0.51906 0.85505 0.11721 0.0
H1252 H 0.4899 0.91468 0.11561 0.0
C1253 C 0.52997 0.91938 0.19231 0.0
C1254 C 0.53136 0.94252 0.18703 0.0
C1255 C 0.52627 0.90345 0.17454 0.0
C1256 C 0.49852 0.89822 0.116 0.0
H1257 H 0.48178 0.78466 0.08494 0.0
H1258 H 0.49129 0.81548 0.11179 0.0
H1259 H 0.47575 0.88566 0.08812 0.0
H1260 H 0.53111 0.96697 0.15875 0.0
H1261 H 0.52485 0.93899 0.12753 0.0
H1262 H 0.54163 0.86744 0.1452 0.0
C1263 C 0.48837 0.81932 0.09339 0.0
C1264 C 0.49033 0.88156 0.10031 0.0
C1265 C 0.48267 0.80167 0.07803 0.0
C1266 C 0.53032 0.94926 0.16337 0.0
C1267 C 0.5264 0.93327 0.14554 0.0
C1268 C 0.52723 0.87166 0.13285 0.0
C1269 C 0.49112 0.8415 0.08503 0.0
C1270 C 0.50022 0.85965 0.10101 0.0
C1271 C 0.52375 0.91023 0.15101 0.0
C1272 C 0.51682 0.89335 0.1327 0.0
H1273 H 0.47833 0.8318 0.02721 0.0
H1274 H 0.48826 0.86271 0.05413 0.0
H1275 H 0.52757 0.83855 0.11782 0.0
H1276 H 0.53064 0.91363 0.21037 0.0
H1277 H 0.52412 0.8859 0.17945 0.0
C1278 C 0.16667 0.51195 0.05447 0.0
C1279 C 0.18739 0.49789 0.05345 0.0
C1280 C 0.15241 0.5131 0.07476 0.0
C1281 C 0.13795 0.48342 0.13009 0.0
H1282 H 0.11045 0.5417 0.14683 0.0
C1283 C 0.05593 0.49112 0.19193 0.0
C1284 C 0.05423 0.50933 0.20779 0.0
C1285 C 0.07458 0.49016 0.17528 0.0
C1286 C 0.11827 0.52537 0.14266 0.0
H1287 H 0.20911 0.47358 0.07275 0.0
H1288 H 0.18418 0.47564 0.10849 0.0
H1289 H 0.13865 0.53877 0.11377 0.0
H1290 H 0.07101 0.54095 0.21839 0.0
H1291 H 0.10401 0.53921 0.18911 0.0
H1292 H 0.11783 0.47008 0.15916 0.0
C1293 C 0.17884 0.48565 0.09343 0.0
C1294 C 0.13416 0.52361 0.12346 0.0
C1295 C 0.19308 0.48437 0.07295 0.0
C1296 C 0.07176 0.5267 0.20644 0.0
C1297 C 0.09062 0.52571 0.18965 0.0
C1298 C 0.12218 0.48521 0.14936 0.0
C1299 C 0.15858 0.50036 0.0947 0.0
C1300 C 0.14369 0.50251 0.11655 0.0
C1301 C 0.09227 0.50732 0.17394 0.0
C1302 C 0.11161 0.5061 0.1555 0.0
H1303 H 0.16168 0.52248 0.03968 0.0
H1304 H 0.13656 0.5241 0.0748 0.0
H1305 H 0.1449 0.46692 0.12531 0.0
H1306 H 0.04272 0.47745 0.19217 0.0
H1307 H 0.07481 0.47606 0.16314 0.0
C1308 C 0.79355 0.92114 0.51405 0.0
C1309 C 0.79781 0.94207 0.52509 0.0
C1310 C 0.81227 0.90525 0.51182 0.0
C1311 C 0.88004 0.90069 0.51184 0.0
H1312 H 0.86615 0.83644 0.51243 0.0
C1313 C 0.95512 0.832 0.5125 0.0
C1314 C 0.95192 0.81307 0.49782 0.0
C1315 C 0.9366 0.84805 0.51495 0.0
C1316 C 0.87023 0.85433 0.51194 0.0
H1317 H 0.82498 0.96219 0.54347 0.0
H1318 H 0.85764 0.93405 0.54025 0.0
H1319 H 0.83345 0.86326 0.52101 0.0
H1320 H 0.92686 0.79636 0.47387 0.0
H1321 H 0.8941 0.82448 0.47841 0.0
H1322 H 0.91703 0.89158 0.50332 0.0
C1323 C 0.83986 0.93022 0.53273 0.0
C1324 C 0.8515 0.86976 0.51689 0.0
C1325 C 0.82106 0.94627 0.53483 0.0
C1326 C 0.92989 0.81081 0.48521 0.0
C1327 C 0.91111 0.82679 0.48796 0.0
C1328 C 0.89882 0.88524 0.50716 0.0
C1329 C 0.83581 0.90966 0.52079 0.0
C1330 C 0.8561 0.89317 0.51679 0.0
C1331 C 0.91425 0.84548 0.50301 0.0
C1332 C 0.8941 0.8619 0.50707 0.0
H1333 H 0.77586 0.91718 0.50643 0.0
H1334 H 0.80841 0.88982 0.50227 0.0
H1335 H 0.88423 0.91855 0.51113 0.0
H1336 H 0.97191 0.83431 0.52242 0.0
H1337 H 0.9395 0.86214 0.52681 0.0
C1338 C 0.9601 0.17268 0.51642 0.0
C1339 C 0.9536 0.19421 0.52466 0.0
C1340 C 0.94243 0.15579 0.51393 0.0
C1341 C 0.8776 0.14028 0.52741 0.0
H1342 H 0.88426 0.10466 0.47042 0.0
C1343 C 0.79858 0.08558 0.49174 0.0
C1344 C 0.80436 0.06313 0.48573 0.0
C1345 C 0.81708 0.10137 0.49601 0.0
C1346 C 0.88225 0.11432 0.48649 0.0
H1347 H 0.92379 0.21486 0.53753 0.0
H1348 H 0.89257 0.18545 0.53282 0.0
H1349 H 0.91584 0.13204 0.48075 0.0
H1350 H 0.83426 0.04013 0.47814 0.0
H1351 H 0.86668 0.06796 0.48518 0.0
H1352 H 0.84362 0.12283 0.53272 0.0
C1353 C 0.91145 0.18137 0.52875 0.0
C1354 C 0.90043 0.12998 0.49254 0.0
C1355 C 0.92932 0.19823 0.5316 0.0
C1356 C 0.82914 0.05726 0.48267 0.0
C1357 C 0.84772 0.07318 0.48678 0.0
C1358 C 0.85931 0.12476 0.52123 0.0
C1359 C 0.91767 0.16015 0.51915 0.0
C1360 C 0.8984 0.14315 0.51312 0.0
C1361 C 0.84187 0.09523 0.49416 0.0
C1362 C 0.86142 0.11163 0.50068 0.0
H1363 H 0.97875 0.1692 0.5109 0.0
H1364 H 0.9481 0.13951 0.50715 0.0
H1365 H 0.87552 0.14986 0.54352 0.0
H1366 H 0.77971 0.09083 0.49395 0.0
H1367 H 0.81198 0.11835 0.50114 0.0
C1368 C 0.05964 0.82508 0.48318 0.0
C1369 C 0.05904 0.80932 0.50166 0.0
C1370 C 0.079 0.84033 0.48104 0.0
C1371 C 0.14356 0.84891 0.4966 0.0
H1372 H 0.1301 0.91141 0.48101 0.0
C1373 C 0.21857 0.91767 0.49787 0.0
C1374 C 0.21747 0.93533 0.4814 0.0
C1375 C 0.1998 0.90171 0.49935 0.0
C1376 C 0.13423 0.89395 0.48497 0.0
H1377 H 0.07844 0.79739 0.53249 0.0
H1378 H 0.11257 0.82417 0.52865 0.0
H1379 H 0.09617 0.8852 0.48685 0.0
H1380 H 0.19601 0.94954 0.45298 0.0
H1381 H 0.16333 0.9213 0.4552 0.0
H1382 H 0.18161 0.85754 0.49447 0.0
C1383 C 0.09791 0.82454 0.5158 0.0
C1384 C 0.11476 0.87895 0.48846 0.0
C1385 C 0.07832 0.80932 0.51808 0.0
C1386 C 0.19744 0.93618 0.46587 0.0
C1387 C 0.17861 0.9201 0.46731 0.0
C1388 C 0.16306 0.86388 0.49296 0.0
C1389 C 0.09842 0.84021 0.49722 0.0
C1390 C 0.11919 0.85626 0.49433 0.0
C1391 C 0.17938 0.90285 0.48432 0.0
C1392 C 0.15866 0.88663 0.48715 0.0
H1393 H 0.04516 0.82566 0.47016 0.0
H1394 H 0.07897 0.85197 0.46638 0.0
H1395 H 0.14757 0.83145 0.50072 0.0
H1396 H 0.23366 0.91644 0.51019 0.0
H1397 H 0.20094 0.88892 0.51287 0.0
C1398 C 0.06865 0.20265 0.52407 0.0
C1399 C 0.0566 0.20807 0.50293 0.0
C1400 C 0.08782 0.18716 0.52444 0.0
C1401 C 0.10939 0.13632 0.49845 0.0
H1402 H 0.17207 0.15156 0.52658 0.0
C1403 C 0.18894 0.07178 0.50538 0.0
C1404 C 0.2058 0.07396 0.52398 0.0
C1405 C 0.17037 0.08773 0.50216 0.0
C1406 C 0.15456 0.14684 0.51907 0.0
H1407 H 0.05538 0.20113 0.46549 0.0
H1408 H 0.08866 0.17309 0.46637 0.0
H1409 H 0.14147 0.18093 0.5206 0.0
H1410 H 0.21528 0.09376 0.55472 0.0
H1411 H 0.18207 0.12087 0.54997 0.0
H1412 H 0.12172 0.10206 0.49801 0.0
C1413 C 0.0833 0.18144 0.48253 0.0
C1414 C 0.13719 0.16378 0.51534 0.0
C1415 C 0.06438 0.19752 0.48203 0.0
C1416 C 0.2027 0.09167 0.54014 0.0
C1417 C 0.18382 0.10741 0.53718 0.0
C1418 C 0.1266 0.11924 0.50258 0.0
C1419 C 0.09512 0.17617 0.50379 0.0
C1420 C 0.11442 0.15866 0.50514 0.0
C1421 C 0.16786 0.10609 0.51771 0.0
C1422 C 0.14939 0.12422 0.51314 0.0
H1423 H 0.06299 0.21 0.54061 0.0
H1424 H 0.09645 0.18319 0.54109 0.0
H1425 H 0.09177 0.13193 0.4909 0.0
H1426 H 0.19086 0.05845 0.49245 0.0
H1427 H 0.15872 0.08613 0.48684 0.0
loop_
_geom_bond_atom_site_label_1
_geom_bond_atom_site_label_2
_geom_bond_distance
_geom_bond_site_symmetry_2
_ccdc_geom_bond_type
Co0 O2 2.143 . S
Co0 O8 2.074 . S
Co0 O11 2.093 1_455 S
Co0 O24 2.097 1_455 S
Co0 N41 2.151 . S
Co0 N49 2.214 . S
Co1 O2 2.160 1_655 S
Co1 O7 2.058 1_655 S
Co1 O17 2.057 1_655 S
Co1 O32 2.037 . S
Co1 N36 2.145 . S
Co1 N57 2.257 . S
O2 Co0 2.143 . S
O2 Co1 2.160 1_455 S
C3 O4 1.278 . S
C3 O11 1.224 . S
O4 C3 1.278 . S
C5 O6 1.245 . S
C5 O17 1.232 . S
O6 C5 1.245 . S
O7 Co1 2.058 1_455 S
O7 C33 1.269 . S
O8 Co0 2.074 . S
O8 C33 1.257 . S
H9 C34 0.930 . S
H10 C40 0.930 . S
O11 Co0 2.093 1_655 S
O11 C3 1.224 . S
H12 C44 0.929 . S
H13 C46 0.930 . S
H14 C47 0.930 . S
H15 C45 0.929 . S
H16 C48 0.928 . S
O17 Co1 2.057 1_455 S
O17 C5 1.232 . S
H18 C37 0.929 . S
H19 C38 0.929 . S
H20 C50 0.931 . S
H21 C42 0.929 . S
H22 C51 0.930 . S
H23 C43 0.931 . S
O24 Co0 2.097 1_655 S
O24 C52 1.214 . S
H25 C53 0.929 . S
H26 C54 0.929 . S
H27 C55 0.930 . S
H28 C56 0.929 . S
H29 C58 0.930 . S
H30 C35 0.930 . S
H31 C39 0.930 . S
O32 Co1 2.037 . S
O32 C52 1.234 . S
C33 O7 1.269 . S
C33 O8 1.257 . S
C34 H9 0.930 . S
C34 C37 1.388 . S
C34 C39 1.418 . S
C35 H30 0.930 . S
C35 C38 1.404 . S
C35 C39 1.353 . S
N36 Co1 2.145 . S
N36 C37 1.397 . S
N36 C38 1.334 . S
C37 H18 0.929 . S
C37 C34 1.388 . S
C37 N36 1.397 . S
C38 H19 0.929 . S
C38 C35 1.404 . S
C38 N36 1.334 . S
C39 H31 0.930 . S
C39 C34 1.418 . S
C39 C35 1.353 . S
C40 H10 0.930 . S
C40 N41 1.330 . S
C40 C42 1.446 . S
N41 Co0 2.151 . S
N41 C40 1.330 . S
N41 C45 1.418 . S
C42 H21 0.929 . S
C42 C40 1.446 . S
C42 C43 1.332 . S
C43 H23 0.931 . S
C43 C42 1.332 . S
C43 C44 1.267 . S
C44 H12 0.929 . S
C44 C43 1.267 . S
C44 C45 1.251 . S
C45 H15 0.929 . S
C45 N41 1.418 . S
C45 C44 1.251 . S
C46 H13 0.930 . S
C46 C48 1.406 . S
C46 C51 1.261 . S
C47 H14 0.930 . S
C47 N49 1.325 . S
C47 C50 1.357 . S
C48 H16 0.928 . S
C48 C46 1.406 . S
C48 N49 1.261 . S
N49 Co0 2.214 . S
N49 C47 1.325 . S
N49 C48 1.261 . S
C50 H20 0.931 . S
C50 C47 1.357 . S
C50 C51 1.312 . S
C51 H22 0.930 . S
C51 C46 1.261 . S
C51 C50 1.312 . S
C52 O24 1.214 . S
C52 O32 1.234 . S
C53 H25 0.929 . S
C53 C56 1.391 . S
C53 C58 1.391 . S
C54 H26 0.929 . S
C54 C55 1.390 . S
C54 N57 1.391 . S
C55 H27 0.930 . S
C55 C54 1.390 . S
C55 C56 1.392 . S
C56 H28 0.929 . S
C56 C53 1.391 . S
C56 C55 1.392 . S
N57 Co1 2.257 . S
N57 C54 1.391 . S
N57 C58 1.388 . S
C58 H29 0.930 . S
C58 C53 1.391 . S
C58 N57 1.388 . S
Co59 O61 2.143 . S
Co59 O67 2.074 . S
Co59 O70 2.093 . S
Co59 O83 2.097 . S
Co59 N100 2.151 . S
Co59 N108 2.214 . S
Co60 O61 2.160 1_565 S
Co60 O66 2.058 . S
Co60 O76 2.057 . S
Co60 O91 2.037 . S
Co60 N95 2.145 . S
Co60 N116 2.257 . S
O61 Co59 2.143 . S
O61 Co60 2.160 1_545 S
C62 O63 1.278 . S
C62 O70 1.224 . S
O63 C62 1.278 . S
C64 O65 1.245 . S
C64 O76 1.232 . S
O65 C64 1.245 . S
O66 Co60 2.058 . S
O66 C92 1.269 . S
O67 Co59 2.074 . S
O67 C92 1.257 1_545 S
H68 C93 0.930 . S
H69 C99 0.930 . S
O70 Co59 2.093 . S
O70 C62 1.224 . S
H71 C103 0.929 . S
H72 C105 0.930 . S
H73 C106 0.930 . S
H74 C104 0.929 . S
H75 C107 0.928 . S
O76 Co60 2.057 . S
O76 C64 1.232 . S
H77 C96 0.929 . S
H78 C97 0.929 . S
H79 C109 0.931 . S
H80 C101 0.929 . S
H81 C110 0.930 . S
H82 C102 0.931 . S
O83 Co59 2.097 . S
O83 C111 1.214 . S
H84 C112 0.929 . S
H85 C113 0.929 . S
H86 C114 0.930 . S
H87 C115 0.929 . S
H88 C117 0.930 . S
H89 C94 0.930 . S
H90 C98 0.930 . S
O91 Co60 2.037 . S
O91 C111 1.234 1_565 S
C92 O66 1.269 . S
C92 O67 1.257 1_565 S
C93 H68 0.930 . S
C93 C96 1.388 . S
C93 C98 1.418 . S
C94 H89 0.930 . S
C94 C97 1.404 . S
C94 C98 1.353 . S
N95 Co60 2.145 . S
N95 C96 1.397 . S
N95 C97 1.334 . S
C96 H77 0.929 . S
C96 C93 1.388 . S
C96 N95 1.397 . S
C97 H78 0.929 . S
C97 C94 1.404 . S
C97 N95 1.334 . S
C98 H90 0.930 . S
C98 C93 1.418 . S
C98 C94 1.353 . S
C99 H69 0.930 . S
C99 N100 1.330 . S
C99 C101 1.446 . S
N100 Co59 2.151 . S
N100 C99 1.330 . S
N100 C104 1.418 . S
C101 H80 0.929 . S
C101 C99 1.446 . S
C101 C102 1.332 . S
C102 H82 0.931 . S
C102 C101 1.332 . S
C102 C103 1.267 . S
C103 H71 0.929 . S
C103 C102 1.267 . S
C103 C104 1.251 . S
C104 H74 0.929 . S
C104 N100 1.418 . S
C104 C103 1.251 . S
C105 H72 0.930 . S
C105 C107 1.406 . S
C105 C110 1.261 . S
C106 H73 0.930 . S
C106 N108 1.325 . S
C106 C109 1.357 . S
C107 H75 0.928 . S
C107 C105 1.406 . S
C107 N108 1.261 . S
N108 Co59 2.214 . S
N108 C106 1.325 . S
N108 C107 1.261 . S
C109 H79 0.931 . S
C109 C106 1.357 . S
C109 C110 1.312 . S
C110 H81 0.930 . S
C110 C105 1.261 . S
C110 C109 1.312 . S
C111 O83 1.214 . S
C111 O91 1.234 1_545 S
C112 H84 0.929 . S
C112 C115 1.391 . S
C112 C117 1.391 . S
C113 H85 0.929 . S
C113 C114 1.390 . S
C113 N116 1.391 . S
C114 H86 0.930 . S
C114 C113 1.390 . S
C114 C115 1.392 . S
C115 H87 0.929 . S
C115 C112 1.391 . S
C115 C114 1.392 . S
N116 Co60 2.257 . S
N116 C113 1.391 . S
N116 C117 1.388 . S
C117 H88 0.930 . S
C117 C112 1.391 . S
C117 N116 1.388 . S
Co118 O120 2.143 . S
Co118 O126 2.074 . S
Co118 O129 2.093 1_455 S
Co118 O142 2.097 1_455 S
Co118 N159 2.151 . S
Co118 N167 2.214 . S
Co119 O120 2.160 1_655 S
Co119 O125 2.058 1_655 S
Co119 O135 2.057 1_655 S
Co119 O150 2.037 . S
Co119 N154 2.145 . S
Co119 N175 2.257 . S
O120 Co118 2.143 . S
O120 Co119 2.160 1_455 S
C121 O122 1.278 . S
C121 O129 1.224 . S
O122 C121 1.278 . S
C123 O124 1.245 . S
C123 O135 1.232 . S
O124 C123 1.245 . S
O125 Co119 2.058 1_455 S
O125 C151 1.269 . S
O126 Co118 2.074 . S
O126 C151 1.257 . S
H127 C152 0.930 . S
H128 C158 0.930 . S
O129 Co118 2.093 1_655 S
O129 C121 1.224 . S
H130 C162 0.929 . S
H131 C164 0.930 . S
H132 C165 0.930 . S
H133 C163 0.929 . S
H134 C166 0.928 . S
O135 Co119 2.057 1_455 S
O135 C123 1.232 . S
H136 C155 0.929 . S
H137 C156 0.929 . S
H138 C168 0.931 . S
H139 C160 0.929 . S
H140 C169 0.930 . S
H141 C161 0.931 . S
O142 Co118 2.097 1_655 S
O142 C170 1.214 . S
H143 C171 0.929 . S
H144 C172 0.929 . S
H145 C173 0.930 . S
H146 C174 0.929 . S
H147 C176 0.930 . S
H148 C153 0.930 . S
H149 C157 0.930 . S
O150 Co119 2.037 . S
O150 C170 1.234 . S
C151 O125 1.269 . S
C151 O126 1.257 . S
C152 H127 0.930 . S
C152 C155 1.388 . S
C152 C157 1.418 . S
C153 H148 0.930 . S
C153 C156 1.404 . S
C153 C157 1.353 . S
N154 Co119 2.145 . S
N154 C155 1.397 . S
N154 C156 1.334 . S
C155 H136 0.929 . S
C155 C152 1.388 . S
C155 N154 1.397 . S
C156 H137 0.929 . S
C156 C153 1.404 . S
C156 N154 1.334 . S
C157 H149 0.930 . S
C157 C152 1.418 . S
C157 C153 1.353 . S
C158 H128 0.930 . S
C158 N159 1.330 . S
C158 C160 1.446 . S
N159 Co118 2.151 . S
N159 C158 1.330 . S
N159 C163 1.418 . S
C160 H139 0.929 . S
C160 C158 1.446 . S
C160 C161 1.332 . S
C161 H141 0.931 . S
C161 C160 1.332 . S
C161 C162 1.267 . S
C162 H130 0.929 . S
C162 C161 1.267 . S
C162 C163 1.251 . S
C163 H133 0.929 . S
C163 N159 1.418 . S
C163 C162 1.251 . S
C164 H131 0.930 . S
C164 C166 1.406 . S
C164 C169 1.261 . S
C165 H132 0.930 . S
C165 N167 1.325 . S
C165 C168 1.357 . S
C166 H134 0.928 . S
C166 C164 1.406 . S
C166 N167 1.261 . S
N167 Co118 2.214 . S
N167 C165 1.325 . S
N167 C166 1.261 . S
C168 H138 0.931 . S
C168 C165 1.357 . S
C168 C169 1.312 . S
C169 H140 0.930 . S
C169 C164 1.261 . S
C169 C168 1.312 . S
C170 O142 1.214 . S
C170 O150 1.234 . S
C171 H143 0.929 . S
C171 C174 1.391 . S
C171 C176 1.391 . S
C172 H144 0.929 . S
C172 C173 1.390 . S
C172 N175 1.391 . S
C173 H145 0.930 . S
C173 C172 1.390 . S
C173 C174 1.392 . S
C174 H146 0.929 . S
C174 C171 1.391 . S
C174 C173 1.392 . S
N175 Co119 2.257 . S
N175 C172 1.391 . S
N175 C176 1.388 . S
C176 H147 0.930 . S
C176 C171 1.391 . S
C176 N175 1.388 . S
Co177 O179 2.165 . S
Co177 O185 2.074 . S
Co177 O188 2.093 . S
Co177 O201 2.097 . S
Co177 N218 2.151 . S
Co177 N226 2.214 . S
Co178 O179 2.137 1_545 S
Co178 O184 2.058 . S
Co178 O194 2.057 . S
Co178 O209 2.037 . S
Co178 N213 2.145 . S
Co178 N234 2.257 . S
O179 Co177 2.165 . S
O179 Co178 2.137 1_565 S
C180 O181 1.278 . S
C180 O188 1.224 . S
O181 C180 1.278 . S
C182 O183 1.245 . S
C182 O194 1.232 . S
O183 C182 1.245 . S
O184 Co178 2.058 . S
O184 C210 1.269 . S
O185 Co177 2.074 . S
O185 C210 1.257 1_565 S
H186 C211 0.930 . S
H187 C217 0.930 . S
O188 Co177 2.093 . S
O188 C180 1.224 . S
H189 C221 0.929 . S
H190 C223 0.930 . S
H191 C224 0.930 . S
H192 C222 0.929 . S
H193 C225 0.928 . S
O194 Co178 2.057 . S
O194 C182 1.232 . S
H195 C214 0.929 . S
H196 C215 0.929 . S
H197 C227 0.931 . S
H198 C219 0.929 . S
H199 C228 0.930 . S
H200 C220 0.931 . S
O201 Co177 2.097 . S
O201 C229 1.214 . S
H202 C230 0.929 . S
H203 C231 0.929 . S
H204 C232 0.930 . S
H205 C233 0.929 . S
H206 C235 0.930 . S
H207 C212 0.930 . S
H208 C216 0.930 . S
O209 Co178 2.037 . S
O209 C229 1.234 1_545 S
C210 O184 1.269 . S
C210 O185 1.257 1_545 S
C211 H186 0.930 . S
C211 C214 1.388 . S
C211 C216 1.418 . S
C212 H207 0.930 . S
C212 C215 1.404 . S
C212 C216 1.353 . S
N213 Co178 2.145 . S
N213 C214 1.397 . S
N213 C215 1.334 . S
C214 H195 0.929 . S
C214 C211 1.388 . S
C214 N213 1.397 . S
C215 H196 0.929 . S
C215 C212 1.404 . S
C215 N213 1.334 . S
C216 H208 0.930 . S
C216 C211 1.418 . S
C216 C212 1.353 . S
C217 H187 0.930 . S
C217 N218 1.330 . S
C217 C219 1.446 . S
N218 Co177 2.151 . S
N218 C217 1.330 . S
N218 C222 1.418 . S
C219 H198 0.929 . S
C219 C217 1.446 . S
C219 C220 1.332 . S
C220 H200 0.931 . S
C220 C219 1.332 . S
C220 C221 1.267 . S
C221 H189 0.929 . S
C221 C220 1.267 . S
C221 C222 1.251 . S
C222 H192 0.929 . S
C222 N218 1.418 . S
C222 C221 1.251 . S
C223 H190 0.930 . S
C223 C225 1.406 . S
C223 C228 1.261 . S
C224 H191 0.930 . S
C224 N226 1.325 . S
C224 C227 1.357 . S
C225 H193 0.928 . S
C225 C223 1.406 . S
C225 N226 1.261 . S
N226 Co177 2.214 . S
N226 C224 1.325 . S
N226 C225 1.261 . S
C227 H197 0.931 . S
C227 C224 1.357 . S
C227 C228 1.312 . S
C228 H199 0.930 . S
C228 C223 1.261 . S
C228 C227 1.312 . S
C229 O201 1.214 . S
C229 O209 1.234 1_565 S
C230 H202 0.929 . S
C230 C233 1.391 . S
C230 C235 1.391 . S
C231 H203 0.929 . S
C231 C232 1.390 . S
C231 N234 1.391 . S
C232 H204 0.930 . S
C232 C231 1.390 . S
C232 C233 1.392 . S
C233 H205 0.929 . S
C233 C230 1.391 . S
C233 C232 1.392 . S
N234 Co178 2.257 . S
N234 C231 1.391 . S
N234 C235 1.388 . S
C235 H206 0.930 . S
C235 C230 1.391 . S
C235 N234 1.388 . S
Co236 O238 2.174 . S
Co236 O244 2.074 . S
Co236 O247 2.093 . S
Co236 O260 2.097 . S
Co236 N277 2.151 . S
Co236 N285 2.214 . S
Co237 O238 2.129 1_545 S
Co237 O243 2.058 . S
Co237 O253 2.057 . S
Co237 O268 2.037 . S
Co237 N272 2.145 . S
Co237 N293 2.257 . S
O238 Co236 2.174 . S
O238 Co237 2.129 1_565 S
C239 O240 1.278 . S
C239 O247 1.224 . S
O240 C239 1.278 . S
C241 O242 1.245 . S
C241 O253 1.232 . S
O242 C241 1.245 . S
O243 Co237 2.058 . S
O243 C269 1.269 . S
O244 Co236 2.074 . S
O244 C269 1.257 1_565 S
H245 C270 0.930 . S
H246 C276 0.930 . S
O247 Co236 2.093 . S
O247 C239 1.224 . S
H248 C280 0.929 . S
H249 C282 0.930 . S
H250 C283 0.930 . S
H251 C281 0.929 . S
H252 C284 0.928 . S
O253 Co237 2.057 . S
O253 C241 1.232 . S
H254 C273 0.929 . S
H255 C274 0.929 . S
H256 C286 0.931 . S
H257 C278 0.929 . S
H258 C287 0.930 . S
H259 C279 0.931 . S
O260 Co236 2.097 . S
O260 C288 1.214 . S
H261 C289 0.929 . S
H262 C290 0.929 . S
H263 C291 0.930 . S
H264 C292 0.929 . S
H265 C294 0.930 . S
H266 C271 0.930 . S
H267 C275 0.930 . S
O268 Co237 2.037 . S
O268 C288 1.234 1_545 S
C269 O243 1.269 . S
C269 O244 1.257 1_545 S
C270 H245 0.930 . S
C270 C273 1.388 . S
C270 C275 1.418 . S
C271 H266 0.930 . S
C271 C274 1.404 . S
C271 C275 1.353 . S
N272 Co237 2.145 . S
N272 C273 1.397 . S
N272 C274 1.334 . S
C273 H254 0.929 . S
C273 C270 1.388 . S
C273 N272 1.397 . S
C274 H255 0.929 . S
C274 C271 1.404 . S
C274 N272 1.334 . S
C275 H267 0.930 . S
C275 C270 1.418 . S
C275 C271 1.353 . S
C276 H246 0.930 . S
C276 N277 1.330 . S
C276 C278 1.446 . S
N277 Co236 2.151 . S
N277 C276 1.330 . S
N277 C281 1.418 . S
C278 H257 0.929 . S
C278 C276 1.446 . S
C278 C279 1.332 . S
C279 H259 0.931 . S
C279 C278 1.332 . S
C279 C280 1.267 . S
C280 H248 0.929 . S
C280 C279 1.267 . S
C280 C281 1.251 . S
C281 H251 0.929 . S
C281 N277 1.418 . S
C281 C280 1.251 . S
C282 H249 0.930 . S
C282 C284 1.406 . S
C282 C287 1.261 . S
C283 H250 0.930 . S
C283 N285 1.325 . S
C283 C286 1.357 . S
C284 H252 0.928 . S
C284 C282 1.406 . S
C284 N285 1.261 . S
N285 Co236 2.214 . S
N285 C283 1.325 . S
N285 C284 1.261 . S
C286 H256 0.931 . S
C286 C283 1.357 . S
C286 C287 1.312 . S
C287 H258 0.930 . S
C287 C282 1.261 . S
C287 C286 1.312 . S
C288 O260 1.214 . S
C288 O268 1.234 1_565 S
C289 H261 0.929 . S
C289 C292 1.391 . S
C289 C294 1.391 . S
C290 H262 0.929 . S
C290 C291 1.390 . S
C290 N293 1.391 . S
C291 H263 0.930 . S
C291 C290 1.390 . S
C291 C292 1.392 . S
C292 H264 0.929 . S
C292 C289 1.391 . S
C292 C291 1.392 . S
N293 Co237 2.257 . S
N293 C290 1.391 . S
N293 C294 1.388 . S
C294 H265 0.930 . S
C294 C289 1.391 . S
C294 N293 1.388 . S
Co295 O297 2.143 . S
Co295 O303 2.074 . S
Co295 O306 2.093 1_655 S
Co295 O319 2.097 1_655 S
Co295 N336 2.151 . S
Co295 N344 2.214 . S
Co296 O297 2.160 1_455 S
Co296 O302 2.058 1_455 S
Co296 O312 2.044 1_455 S
Co296 O327 2.037 . S
Co296 N331 2.145 . S
Co296 N352 2.257 . S
O297 Co295 2.143 . S
O297 Co296 2.160 1_655 S
C298 O299 1.278 . S
C298 O306 1.224 . S
O299 C298 1.278 . S
C300 O301 1.245 . S
C300 O312 1.258 . S
O301 C300 1.245 . S
O302 Co296 2.058 1_655 S
O302 C328 1.269 . S
O303 Co295 2.074 . S
O303 C328 1.257 . S
H304 C329 0.930 . S
H305 C335 0.930 . S
O306 Co295 2.093 1_455 S
O306 C298 1.224 . S
H307 C339 0.929 . S
H308 C341 0.930 . S
H309 C342 0.930 . S
H310 C340 0.929 . S
H311 C343 0.928 . S
O312 Co296 2.044 1_655 S
O312 C300 1.258 . S
H313 C332 0.929 . S
H314 C333 0.929 . S
H315 C345 0.931 . S
H316 C337 0.929 . S
H317 C346 0.930 . S
H318 C338 0.931 . S
O319 Co295 2.097 1_455 S
O319 C347 1.214 . S
H320 C348 0.929 . S
H321 C349 0.929 . S
H322 C350 0.930 . S
H323 C351 0.929 . S
H324 C353 0.930 . S
H325 C330 0.930 . S
H326 C334 0.930 . S
O327 Co296 2.037 . S
O327 C347 1.234 . S
C328 O302 1.269 . S
C328 O303 1.257 . S
C329 H304 0.930 . S
C329 C332 1.388 . S
C329 C334 1.418 . S
C330 H325 0.930 . S
C330 C333 1.404 . S
C330 C334 1.353 . S
N331 Co296 2.145 . S
N331 C332 1.397 . S
N331 C333 1.334 . S
C332 H313 0.929 . S
C332 C329 1.388 . S
C332 N331 1.397 . S
C333 H314 0.929 . S
C333 C330 1.404 . S
C333 N331 1.334 . S
C334 H326 0.930 . S
C334 C329 1.418 . S
C334 C330 1.353 . S
C335 H305 0.930 . S
C335 N336 1.330 . S
C335 C337 1.446 . S
N336 Co295 2.151 . S
N336 C335 1.330 . S
N336 C340 1.418 . S
C337 H316 0.929 . S
C337 C335 1.446 . S
C337 C338 1.332 . S
C338 H318 0.931 . S
C338 C337 1.332 . S
C338 C339 1.267 . S
C339 H307 0.929 . S
C339 C338 1.267 . S
C339 C340 1.251 . S
C340 H310 0.929 . S
C340 N336 1.418 . S
C340 C339 1.251 . S
C341 H308 0.930 . S
C341 C343 1.406 . S
C341 C346 1.261 . S
C342 H309 0.930 . S
C342 N344 1.325 . S
C342 C345 1.357 . S
C343 H311 0.928 . S
C343 C341 1.406 . S
C343 N344 1.261 . S
N344 Co295 2.214 . S
N344 C342 1.325 . S
N344 C343 1.261 . S
C345 H315 0.931 . S
C345 C342 1.357 . S
C345 C346 1.312 . S
C346 H317 0.930 . S
C346 C341 1.261 . S
C346 C345 1.312 . S
C347 O319 1.214 . S
C347 O327 1.234 . S
C348 H320 0.929 . S
C348 C351 1.391 . S
C348 C353 1.391 . S
C349 H321 0.929 . S
C349 C350 1.390 . S
C349 N352 1.391 . S
C350 H322 0.930 . S
C350 C349 1.390 . S
C350 C351 1.392 . S
C351 H323 0.929 . S
C351 C348 1.391 . S
C351 C350 1.392 . S
N352 Co296 2.257 . S
N352 C349 1.391 . S
N352 C353 1.388 . S
C353 H324 0.930 . S
C353 C348 1.391 . S
C353 N352 1.388 . S
Co354 O356 2.143 . S
Co354 O362 2.074 . S
Co354 O365 2.093 . S
Co354 O378 2.097 . S
Co354 N395 2.151 . S
Co354 N403 2.214 . S
Co355 O356 2.160 1_565 S
Co355 O361 2.058 . S
Co355 O371 2.057 . S
Co355 O386 2.037 . S
Co355 N390 2.145 . S
Co355 N411 2.257 . S
O356 Co354 2.143 . S
O356 Co355 2.160 1_545 S
C357 O358 1.278 . S
C357 O365 1.224 . S
O358 C357 1.278 . S
C359 O360 1.245 . S
C359 O371 1.232 . S
O360 C359 1.245 . S
O361 Co355 2.058 . S
O361 C387 1.269 . S
O362 Co354 2.074 . S
O362 C387 1.257 1_545 S
H363 C388 0.930 . S
H364 C394 0.930 . S
O365 Co354 2.093 . S
O365 C357 1.224 . S
H366 C398 0.929 . S
H367 C400 0.930 . S
H368 C401 0.930 . S
H369 C399 0.929 . S
H370 C402 0.928 . S
O371 Co355 2.057 . S
O371 C359 1.232 . S
H372 C391 0.929 . S
H373 C392 0.929 . S
H374 C404 0.931 . S
H375 C396 0.929 . S
H376 C405 0.930 . S
H377 C397 0.931 . S
O378 Co354 2.097 . S
O378 C406 1.214 . S
H379 C407 0.929 . S
H380 C408 0.929 . S
H381 C409 0.930 . S
H382 C410 0.929 . S
H383 C412 0.930 . S
H384 C389 0.930 . S
H385 C393 0.930 . S
O386 Co355 2.037 . S
O386 C406 1.234 1_565 S
C387 O361 1.269 . S
C387 O362 1.257 1_565 S
C388 H363 0.930 . S
C388 C391 1.388 . S
C388 C393 1.418 . S
C389 H384 0.930 . S
C389 C392 1.404 . S
C389 C393 1.353 . S
N390 Co355 2.145 . S
N390 C391 1.397 . S
N390 C392 1.334 . S
C391 H372 0.929 . S
C391 C388 1.388 . S
C391 N390 1.397 . S
C392 H373 0.929 . S
C392 C389 1.404 . S
C392 N390 1.334 . S
C393 H385 0.930 . S
C393 C388 1.418 . S
C393 C389 1.353 . S
C394 H364 0.930 . S
C394 N395 1.330 . S
C394 C396 1.446 . S
N395 Co354 2.151 . S
N395 C394 1.330 . S
N395 C399 1.418 . S
C396 H375 0.929 . S
C396 C394 1.446 . S
C396 C397 1.332 . S
C397 H377 0.931 . S
C397 C396 1.332 . S
C397 C398 1.267 . S
C398 H366 0.929 . S
C398 C397 1.267 . S
C398 C399 1.251 . S
C399 H369 0.929 . S
C399 N395 1.418 . S
C399 C398 1.251 . S
C400 H367 0.930 . S
C400 C402 1.406 . S
C400 C405 1.261 . S
C401 H368 0.930 . S
C401 N403 1.325 . S
C401 C404 1.357 . S
C402 H370 0.928 . S
C402 C400 1.406 . S
C402 N403 1.261 . S
N403 Co354 2.214 . S
N403 C401 1.325 . S
N403 C402 1.261 . S
C404 H374 0.931 . S
C404 C401 1.357 . S
C404 C405 1.312 . S
C405 H376 0.930 . S
C405 C400 1.261 . S
C405 C404 1.312 . S
C406 O378 1.214 . S
C406 O386 1.234 1_545 S
C407 H379 0.929 . S
C407 C410 1.391 . S
C407 C412 1.391 . S
C408 H380 0.929 . S
C408 C409 1.390 . S
C408 N411 1.391 . S
C409 H381 0.930 . S
C409 C408 1.390 . S
C409 C410 1.392 . S
C410 H382 0.929 . S
C410 C407 1.391 . S
C410 C409 1.392 . S
N411 Co355 2.257 . S
N411 C408 1.391 . S
N411 C412 1.388 . S
C412 H383 0.930 . S
C412 C407 1.391 . S
C412 N411 1.388 . S
Co413 O415 2.143 . S
Co413 O421 2.074 . S
Co413 O424 2.093 1_655 S
Co413 O437 2.097 1_655 S
Co413 N454 2.151 . S
Co413 N462 2.214 . S
Co414 O415 2.160 1_455 S
Co414 O420 2.058 1_455 S
Co414 O430 2.046 1_455 S
Co414 O445 2.037 . S
Co414 N449 2.145 . S
Co414 N470 2.257 . S
O415 Co413 2.143 . S
O415 Co414 2.160 1_655 S
C416 O417 1.278 . S
C416 O424 1.224 . S
O417 C416 1.278 . S
C418 O419 1.245 . S
C418 O430 1.254 . S
O419 C418 1.245 . S
O420 Co414 2.058 1_655 S
O420 C446 1.269 . S
O421 Co413 2.074 . S
O421 C446 1.257 . S
H422 C447 0.930 . S
H423 C453 0.930 . S
O424 Co413 2.093 1_455 S
O424 C416 1.224 . S
H425 C457 0.929 . S
H426 C459 0.930 . S
H427 C460 0.930 . S
H428 C458 0.929 . S
H429 C461 0.928 . S
O430 Co414 2.046 1_655 S
O430 C418 1.254 . S
H431 C450 0.929 . S
H432 C451 0.929 . S
H433 C463 0.931 . S
H434 C455 0.929 . S
H435 C464 0.930 . S
H436 C456 0.931 . S
O437 Co413 2.097 1_455 S
O437 C465 1.214 . S
H438 C466 0.929 . S
H439 C467 0.929 . S
H440 C468 0.930 . S
H441 C469 0.929 . S
H442 C471 0.930 . S
H443 C448 0.930 . S
H444 C452 0.930 . S
O445 Co414 2.037 . S
O445 C465 1.234 . S
C446 O420 1.269 . S
C446 O421 1.257 . S
C447 H422 0.930 . S
C447 C450 1.388 . S
C447 C452 1.418 . S
C448 H443 0.930 . S
C448 C451 1.404 . S
C448 C452 1.353 . S
N449 Co414 2.145 . S
N449 C450 1.397 . S
N449 C451 1.334 . S
C450 H431 0.929 . S
C450 C447 1.388 . S
C450 N449 1.397 . S
C451 H432 0.929 . S
C451 C448 1.404 . S
C451 N449 1.334 . S
C452 H444 0.930 . S
C452 C447 1.418 . S
C452 C448 1.353 . S
C453 H423 0.930 . S
C453 N454 1.330 . S
C453 C455 1.446 . S
N454 Co413 2.151 . S
N454 C453 1.330 . S
N454 C458 1.418 . S
C455 H434 0.929 . S
C455 C453 1.446 . S
C455 C456 1.332 . S
C456 H436 0.931 . S
C456 C455 1.332 . S
C456 C457 1.267 . S
C457 H425 0.929 . S
C457 C456 1.267 . S
C457 C458 1.251 . S
C458 H428 0.929 . S
C458 N454 1.418 . S
C458 C457 1.251 . S
C459 H426 0.930 . S
C459 C461 1.406 . S
C459 C464 1.261 . S
C460 H427 0.930 . S
C460 N462 1.325 . S
C460 C463 1.357 . S
C461 H429 0.928 . S
C461 C459 1.406 . S
C461 N462 1.261 . S
N462 Co413 2.214 . S
N462 C460 1.325 . S
N462 C461 1.261 . S
C463 H433 0.931 . S
C463 C460 1.357 . S
C463 C464 1.312 . S
C464 H435 0.930 . S
C464 C459 1.261 . S
C464 C463 1.312 . S
C465 O437 1.214 . S
C465 O445 1.234 . S
C466 H438 0.929 . S
C466 C469 1.391 . S
C466 C471 1.391 . S
C467 H439 0.929 . S
C467 C468 1.390 . S
C467 N470 1.391 . S
C468 H440 0.930 . S
C468 C467 1.390 . S
C468 C469 1.392 . S
C469 H441 0.929 . S
C469 C466 1.391 . S
C469 C468 1.392 . S
N470 Co414 2.257 . S
N470 C467 1.391 . S
N470 C471 1.388 . S
C471 H442 0.930 . S
C471 C466 1.391 . S
C471 N470 1.388 . S
Co472 O474 2.143 . S
Co472 O480 2.074 . S
Co472 O483 2.093 1_554 S
Co472 O496 2.097 1_554 S
Co472 N513 2.151 . S
Co472 N521 2.214 . S
Co473 O474 2.160 1_556 S
Co473 O479 2.058 1_556 S
Co473 O489 2.057 1_556 S
Co473 O504 2.037 . S
Co473 N508 2.145 . S
Co473 N529 2.257 . S
O474 Co472 2.143 . S
O474 Co473 2.160 1_554 S
C475 O476 1.278 . S
C475 O483 1.224 . S
O476 C475 1.278 . S
C477 O478 1.245 . S
C477 O489 1.232 . S
O478 C477 1.245 . S
O479 Co473 2.058 1_554 S
O479 C505 1.269 . S
O480 Co472 2.074 . S
O480 C505 1.257 . S
H481 C506 0.930 . S
H482 C512 0.930 . S
O483 Co472 2.093 1_556 S
O483 C475 1.224 . S
H484 C516 0.929 . S
H485 C518 0.930 . S
H486 C519 0.930 . S
H487 C517 0.929 . S
H488 C520 0.928 . S
O489 Co473 2.057 1_554 S
O489 C477 1.232 . S
H490 C509 0.929 . S
H491 C510 0.929 . S
H492 C522 0.931 . S
H493 C514 0.929 . S
H494 C523 0.930 . S
H495 C515 0.931 . S
O496 Co472 2.097 1_556 S
O496 C524 1.214 . S
H497 C525 0.929 . S
H498 C526 0.929 . S
H499 C527 0.930 . S
H500 C528 0.929 . S
H501 C530 0.930 . S
H502 C507 0.930 . S
H503 C511 0.930 . S
O504 Co473 2.037 . S
O504 C524 1.234 . S
C505 O479 1.269 . S
C505 O480 1.257 . S
C506 H481 0.930 . S
C506 C509 1.388 . S
C506 C511 1.418 . S
C507 H502 0.930 . S
C507 C510 1.404 . S
C507 C511 1.353 . S
N508 Co473 2.145 . S
N508 C509 1.397 . S
N508 C510 1.334 . S
C509 H490 0.929 . S
C509 C506 1.388 . S
C509 N508 1.397 . S
C510 H491 0.929 . S
C510 C507 1.404 . S
C510 N508 1.334 . S
C511 H503 0.930 . S
C511 C506 1.418 . S
C511 C507 1.353 . S
C512 H482 0.930 . S
C512 N513 1.330 . S
C512 C514 1.446 . S
N513 Co472 2.151 . S
N513 C512 1.330 . S
N513 C517 1.418 . S
C514 H493 0.929 . S
C514 C512 1.446 . S
C514 C515 1.332 . S
C515 H495 0.931 . S
C515 C514 1.332 . S
C515 C516 1.267 . S
C516 H484 0.929 . S
C516 C515 1.267 . S
C516 C517 1.251 . S
C517 H487 0.929 . S
C517 N513 1.418 . S
C517 C516 1.251 . S
C518 H485 0.930 . S
C518 C520 1.406 . S
C518 C523 1.261 . S
C519 H486 0.930 . S
C519 N521 1.325 . S
C519 C522 1.357 . S
C520 H488 0.928 . S
C520 C518 1.406 . S
C520 N521 1.261 . S
N521 Co472 2.214 . S
N521 C519 1.325 . S
N521 C520 1.261 . S
C522 H492 0.931 . S
C522 C519 1.357 . S
C522 C523 1.312 . S
C523 H494 0.930 . S
C523 C518 1.261 . S
C523 C522 1.312 . S
C524 O496 1.214 . S
C524 O504 1.234 . S
C525 H497 0.929 . S
C525 C528 1.391 . S
C525 C530 1.391 . S
C526 H498 0.929 . S
C526 C527 1.390 . S
C526 N529 1.391 . S
C527 H499 0.930 . S
C527 C526 1.390 . S
C527 C528 1.392 . S
C528 H500 0.929 . S
C528 C525 1.391 . S
C528 C527 1.392 . S
N529 Co473 2.257 . S
N529 C526 1.391 . S
N529 C530 1.388 . S
C530 H501 0.930 . S
C530 C525 1.391 . S
C530 N529 1.388 . S
Co531 O533 2.174 . S
Co531 O539 2.074 . S
Co531 O542 2.093 . S
Co531 O555 2.097 . S
Co531 N572 2.151 . S
Co531 N580 2.214 . S
Co532 O533 2.129 1_554 S
Co532 O538 2.058 . S
Co532 O548 2.057 . S
Co532 O563 2.037 . S
Co532 N567 2.145 . S
Co532 N588 2.257 . S
O533 Co531 2.174 . S
O533 Co532 2.129 1_556 S
C534 O535 1.278 . S
C534 O542 1.224 . S
O535 C534 1.278 . S
C536 O537 1.245 . S
C536 O548 1.232 . S
O537 C536 1.245 . S
O538 Co532 2.058 . S
O538 C564 1.269 . S
O539 Co531 2.074 . S
O539 C564 1.257 1_556 S
H540 C565 0.930 . S
H541 C571 0.930 . S
O542 Co531 2.093 . S
O542 C534 1.224 . S
H543 C575 0.929 . S
H544 C577 0.930 . S
H545 C578 0.930 . S
H546 C576 0.929 . S
H547 C579 0.928 . S
O548 Co532 2.057 . S
O548 C536 1.232 . S
H549 C568 0.929 . S
H550 C569 0.929 . S
H551 C581 0.931 . S
H552 C573 0.929 . S
H553 C582 0.930 . S
H554 C574 0.931 . S
O555 Co531 2.097 . S
O555 C583 1.214 . S
H556 C584 0.929 . S
H557 C585 0.929 . S
H558 C586 0.930 . S
H559 C587 0.929 . S
H560 C589 0.930 . S
H561 C566 0.930 . S
H562 C570 0.930 . S
O563 Co532 2.037 . S
O563 C583 1.234 1_554 S
C564 O538 1.269 . S
C564 O539 1.257 1_554 S
C565 H540 0.930 . S
C565 C568 1.388 . S
C565 C570 1.418 . S
C566 H561 0.930 . S
C566 C569 1.404 . S
C566 C570 1.353 . S
N567 Co532 2.145 . S
N567 C568 1.397 . S
N567 C569 1.334 . S
C568 H549 0.929 . S
C568 C565 1.388 . S
C568 N567 1.397 . S
C569 H550 0.929 . S
C569 C566 1.404 . S
C569 N567 1.334 . S
C570 H562 0.930 . S
C570 C565 1.418 . S
C570 C566 1.353 . S
C571 H541 0.930 . S
C571 N572 1.330 . S
C571 C573 1.446 . S
N572 Co531 2.151 . S
N572 C571 1.330 . S
N572 C576 1.418 . S
C573 H552 0.929 . S
C573 C571 1.446 . S
C573 C574 1.332 . S
C574 H554 0.931 . S
C574 C573 1.332 . S
C574 C575 1.267 . S
C575 H543 0.929 . S
C575 C574 1.267 . S
C575 C576 1.251 . S
C576 H546 0.929 . S
C576 N572 1.418 . S
C576 C575 1.251 . S
C577 H544 0.930 . S
C577 C579 1.406 . S
C577 C582 1.261 . S
C578 H545 0.930 . S
C578 N580 1.325 . S
C578 C581 1.357 . S
C579 H547 0.928 . S
C579 C577 1.406 . S
C579 N580 1.261 . S
N580 Co531 2.214 . S
N580 C578 1.325 . S
N580 C579 1.261 . S
C581 H551 0.931 . S
C581 C578 1.357 . S
C581 C582 1.312 . S
C582 H553 0.930 . S
C582 C577 1.261 . S
C582 C581 1.312 . S
C583 O555 1.214 . S
C583 O563 1.234 1_556 S
C584 H556 0.929 . S
C584 C587 1.391 . S
C584 C589 1.391 . S
C585 H557 0.929 . S
C585 C586 1.390 . S
C585 N588 1.391 . S
C586 H558 0.930 . S
C586 C585 1.390 . S
C586 C587 1.392 . S
C587 H559 0.929 . S
C587 C584 1.391 . S
C587 C586 1.392 . S
N588 Co532 2.257 . S
N588 C585 1.391 . S
N588 C589 1.388 . S
C589 H560 0.930 . S
C589 C584 1.391 . S
C589 N588 1.388 . S
Co590 O592 2.143 . S
Co590 O598 2.074 . S
Co590 O601 2.093 1_554 S
Co590 O614 2.097 1_554 S
Co590 N631 2.151 . S
Co590 N639 2.214 . S
Co591 O592 2.160 1_556 S
Co591 O597 2.058 1_556 S
Co591 O607 2.057 1_556 S
Co591 O622 2.037 . S
Co591 N626 2.145 . S
Co591 N647 2.257 . S
O592 Co590 2.143 . S
O592 Co591 2.160 1_554 S
C593 O594 1.278 . S
C593 O601 1.224 . S
O594 C593 1.278 . S
C595 O596 1.245 . S
C595 O607 1.232 . S
O596 C595 1.245 . S
O597 Co591 2.058 1_554 S
O597 C623 1.269 . S
O598 Co590 2.074 . S
O598 C623 1.257 . S
H599 C624 0.930 . S
H600 C630 0.930 . S
O601 Co590 2.093 1_556 S
O601 C593 1.224 . S
H602 C634 0.929 . S
H603 C636 0.930 . S
H604 C637 0.930 . S
H605 C635 0.929 . S
H606 C638 0.928 . S
O607 Co591 2.057 1_554 S
O607 C595 1.232 . S
H608 C627 0.929 . S
H609 C628 0.929 . S
H610 C640 0.931 . S
H611 C632 0.929 . S
H612 C641 0.930 . S
H613 C633 0.931 . S
O614 Co590 2.097 1_556 S
O614 C642 1.214 . S
H615 C643 0.929 . S
H616 C644 0.929 . S
H617 C645 0.930 . S
H618 C646 0.929 . S
H619 C648 0.930 . S
H620 C625 0.930 . S
H621 C629 0.930 . S
O622 Co591 2.037 . S
O622 C642 1.234 . S
C623 O597 1.269 . S
C623 O598 1.257 . S
C624 H599 0.930 . S
C624 C627 1.388 . S
C624 C629 1.418 . S
C625 H620 0.930 . S
C625 C628 1.404 . S
C625 C629 1.353 . S
N626 Co591 2.145 . S
N626 C627 1.397 . S
N626 C628 1.334 . S
C627 H608 0.929 . S
C627 C624 1.388 . S
C627 N626 1.397 . S
C628 H609 0.929 . S
C628 C625 1.404 . S
C628 N626 1.334 . S
C629 H621 0.930 . S
C629 C624 1.418 . S
C629 C625 1.353 . S
C630 H600 0.930 . S
C630 N631 1.330 . S
C630 C632 1.446 . S
N631 Co590 2.151 . S
N631 C630 1.330 . S
N631 C635 1.418 . S
C632 H611 0.929 . S
C632 C630 1.446 . S
C632 C633 1.332 . S
C633 H613 0.931 . S
C633 C632 1.332 . S
C633 C634 1.267 . S
C634 H602 0.929 . S
C634 C633 1.267 . S
C634 C635 1.251 . S
C635 H605 0.929 . S
C635 N631 1.418 . S
C635 C634 1.251 . S
C636 H603 0.930 . S
C636 C638 1.406 . S
C636 C641 1.261 . S
C637 H604 0.930 . S
C637 N639 1.325 . S
C637 C640 1.357 . S
C638 H606 0.928 . S
C638 C636 1.406 . S
C638 N639 1.261 . S
N639 Co590 2.214 . S
N639 C637 1.325 . S
N639 C638 1.261 . S
C640 H610 0.931 . S
C640 C637 1.357 . S
C640 C641 1.312 . S
C641 H612 0.930 . S
C641 C636 1.261 . S
C641 C640 1.312 . S
C642 O614 1.214 . S
C642 O622 1.234 . S
C643 H615 0.929 . S
C643 C646 1.391 . S
C643 C648 1.391 . S
C644 H616 0.929 . S
C644 C645 1.390 . S
C644 N647 1.391 . S
C645 H617 0.930 . S
C645 C644 1.390 . S
C645 C646 1.392 . S
C646 H618 0.929 . S
C646 C643 1.391 . S
C646 C645 1.392 . S
N647 Co591 2.257 . S
N647 C644 1.391 . S
N647 C648 1.388 . S
C648 H619 0.930 . S
C648 C643 1.391 . S
C648 N647 1.388 . S
Co649 O651 2.143 . S
Co649 O657 2.074 . S
Co649 O660 2.093 . S
Co649 O673 2.097 . S
Co649 N690 2.151 . S
Co649 N698 2.214 . S
Co650 O651 2.160 1_556 S
Co650 O656 2.058 . S
Co650 O666 2.057 . S
Co650 O681 2.037 . S
Co650 N685 2.145 . S
Co650 N706 2.257 . S
O651 Co649 2.143 . S
O651 Co650 2.160 1_554 S
C652 O653 1.278 . S
C652 O660 1.224 . S
O653 C652 1.278 . S
C654 O655 1.245 . S
C654 O666 1.232 . S
O655 C654 1.245 . S
O656 Co650 2.058 . S
O656 C682 1.269 . S
O657 Co649 2.074 . S
O657 C682 1.257 1_554 S
H658 C683 0.930 . S
H659 C689 0.930 . S
O660 Co649 2.093 . S
O660 C652 1.224 . S
H661 C693 0.929 . S
H662 C695 0.930 . S
H663 C696 0.930 . S
H664 C694 0.929 . S
H665 C697 0.928 . S
O666 Co650 2.057 . S
O666 C654 1.232 . S
H667 C686 0.929 . S
H668 C687 0.929 . S
H669 C699 0.931 . S
H670 C691 0.929 . S
H671 C700 0.930 . S
H672 C692 0.931 . S
O673 Co649 2.097 . S
O673 C701 1.214 . S
H674 C702 0.929 . S
H675 C703 0.929 . S
H676 C704 0.930 . S
H677 C705 0.929 . S
H678 C707 0.930 . S
H679 C684 0.930 . S
H680 C688 0.930 . S
O681 Co650 2.037 . S
O681 C701 1.234 1_556 S
C682 O656 1.269 . S
C682 O657 1.257 1_556 S
C683 H658 0.930 . S
C683 C686 1.388 . S
C683 C688 1.418 . S
C684 H679 0.930 . S
C684 C687 1.404 . S
C684 C688 1.353 . S
N685 Co650 2.145 . S
N685 C686 1.397 . S
N685 C687 1.334 . S
C686 H667 0.929 . S
C686 C683 1.388 . S
C686 N685 1.397 . S
C687 H668 0.929 . S
C687 C684 1.404 . S
C687 N685 1.334 . S
C688 H680 0.930 . S
C688 C683 1.418 . S
C688 C684 1.353 . S
C689 H659 0.930 . S
C689 N690 1.330 . S
C689 C691 1.446 . S
N690 Co649 2.151 . S
N690 C689 1.330 . S
N690 C694 1.418 . S
C691 H670 0.929 . S
C691 C689 1.446 . S
C691 C692 1.332 . S
C692 H672 0.931 . S
C692 C691 1.332 . S
C692 C693 1.267 . S
C693 H661 0.929 . S
C693 C692 1.267 . S
C693 C694 1.251 . S
C694 H664 0.929 . S
C694 N690 1.418 . S
C694 C693 1.251 . S
C695 H662 0.930 . S
C695 C697 1.406 . S
C695 C700 1.261 . S
C696 H663 0.930 . S
C696 N698 1.325 . S
C696 C699 1.357 . S
C697 H665 0.928 . S
C697 C695 1.406 . S
C697 N698 1.261 . S
N698 Co649 2.214 . S
N698 C696 1.325 . S
N698 C697 1.261 . S
C699 H669 0.931 . S
C699 C696 1.357 . S
C699 C700 1.312 . S
C700 H671 0.930 . S
C700 C695 1.261 . S
C700 C699 1.312 . S
C701 O673 1.214 . S
C701 O681 1.234 1_554 S
C702 H674 0.929 . S
C702 C705 1.391 . S
C702 C707 1.391 . S
C703 H675 0.929 . S
C703 C704 1.390 . S
C703 N706 1.391 . S
C704 H676 0.930 . S
C704 C703 1.390 . S
C704 C705 1.392 . S
C705 H677 0.929 . S
C705 C702 1.391 . S
C705 C704 1.392 . S
N706 Co650 2.257 . S
N706 C703 1.391 . S
N706 C707 1.388 . S
C707 H678 0.930 . S
C707 C702 1.391 . S
C707 N706 1.388 . S
C708 C709 1.349 1_655 S
C708 C710 1.327 . S
C708 H733 0.950 . S
C709 C708 1.349 1_455 S
C709 C725 1.349 . S
C710 C708 1.327 . S
C710 C729 1.429 1_655 S
C710 H734 0.950 . S
C711 C728 1.574 . S
C711 C730 1.368 . S
C711 H735 0.949 . S
H712 C716 0.949 . S
C713 C714 1.349 1_455 S
C713 C715 1.327 . S
C713 H736 0.950 . S
C714 C713 1.349 1_655 S
C714 C726 1.349 . S
C715 C713 1.327 . S
C715 C731 1.429 1_455 S
C715 H737 0.950 . S
C716 H712 0.949 . S
C716 C724 1.574 . S
C716 C732 1.368 . S
H717 C725 0.950 . S
H718 C723 0.950 . S
H719 C724 0.949 . S
H720 C726 0.950 . S
H721 C727 0.950 . S
H722 C728 0.949 . S
C723 H718 0.950 . S
C723 C725 1.327 . S
C723 C729 1.429 . S
C724 C716 1.574 . S
C724 H719 0.949 . S
C724 C730 1.368 1_655 S
C725 C709 1.349 . S
C725 H717 0.950 . S
C725 C723 1.327 . S
C726 C714 1.349 . S
C726 H720 0.950 . S
C726 C727 1.327 . S
C727 H721 0.950 . S
C727 C726 1.327 . S
C727 C731 1.429 . S
C728 C711 1.574 . S
C728 H722 0.949 . S
C728 C732 1.368 1_455 S
C729 C710 1.429 1_455 S
C729 C723 1.429 . S
C729 C730 1.523 . S
C730 C711 1.368 . S
C730 C724 1.368 1_455 S
C730 C729 1.523 . S
C731 C715 1.429 1_655 S
C731 C727 1.429 . S
C731 C732 1.523 . S
C732 C716 1.368 . S
C732 C728 1.368 1_655 S
C732 C731 1.523 . S
H733 C708 0.950 . S
H734 C710 0.950 . S
H735 C711 0.949 . S
H736 C713 0.950 . S
H737 C715 0.950 . S
C738 C739 1.349 1_565 S
C738 C740 1.327 . S
C738 H763 0.950 . S
C739 C738 1.349 1_545 S
C739 C755 1.349 . S
C740 C738 1.327 . S
C740 C759 1.429 1_565 S
C740 H764 0.950 . S
C741 C758 1.574 . S
C741 C760 1.368 . S
C741 H765 0.949 . S
H742 C746 0.949 . S
C743 C744 1.349 1_545 S
C743 C745 1.327 . S
C743 H766 0.950 . S
C744 C743 1.349 1_565 S
C744 C756 1.349 . S
C745 C743 1.327 . S
C745 C761 1.429 1_545 S
C745 H767 0.950 . S
C746 H742 0.949 . S
C746 C754 1.574 . S
C746 C762 1.368 . S
H747 C755 0.950 . S
H748 C753 0.950 . S
H749 C754 0.949 . S
H750 C756 0.950 . S
H751 C757 0.950 . S
H752 C758 0.949 . S
C753 H748 0.950 . S
C753 C755 1.327 . S
C753 C759 1.429 . S
C754 C746 1.574 . S
C754 H749 0.949 . S
C754 C760 1.368 1_565 S
C755 C739 1.349 . S
C755 H747 0.950 . S
C755 C753 1.327 . S
C756 C744 1.349 . S
C756 H750 0.950 . S
C756 C757 1.327 . S
C757 H751 0.950 . S
C757 C756 1.327 . S
C757 C761 1.429 . S
C758 C741 1.574 . S
C758 H752 0.949 . S
C758 C762 1.368 1_545 S
C759 C740 1.429 1_545 S
C759 C753 1.429 . S
C759 C760 1.523 . S
C760 C741 1.368 . S
C760 C754 1.368 1_545 S
C760 C759 1.523 . S
C761 C745 1.429 1_565 S
C761 C757 1.429 . S
C761 C762 1.523 . S
C762 C746 1.368 . S
C762 C758 1.368 1_565 S
C762 C761 1.523 . S
H763 C738 0.950 . S
H764 C740 0.950 . S
H765 C741 0.949 . S
H766 C743 0.950 . S
H767 C745 0.950 . S
C768 C769 1.355 . S
C768 C770 1.326 1_455 S
C768 H793 0.946 1_455 S
C769 C768 1.355 . S
C769 C785 1.349 . S
C770 C768 1.326 1_655 S
C770 C789 1.429 1_655 S
C770 H794 0.950 . S
C771 C788 1.574 . S
C771 C790 1.368 . S
C771 H795 0.949 . S
H772 C776 0.949 . S
C773 C774 1.349 1_455 S
C773 C775 1.327 . S
C773 H796 0.950 . S
C774 C773 1.349 1_655 S
C774 C786 1.349 . S
C775 C773 1.327 . S
C775 C791 1.429 1_455 S
C775 H797 0.950 . S
C776 H772 0.949 . S
C776 C784 1.574 . S
C776 C792 1.368 . S
H777 C785 0.950 . S
H778 C783 0.950 . S
H779 C784 0.949 . S
H780 C786 0.950 . S
H781 C787 0.950 . S
H782 C788 0.949 . S
C783 H778 0.950 . S
C783 C785 1.327 . S
C783 C789 1.429 . S
C784 C776 1.574 . S
C784 H779 0.949 . S
C784 C790 1.368 1_655 S
C785 C769 1.349 . S
C785 H777 0.950 . S
C785 C783 1.327 . S
C786 C774 1.349 . S
C786 H780 0.950 . S
C786 C787 1.327 . S
C787 H781 0.950 . S
C787 C786 1.327 . S
C787 C791 1.429 . S
C788 C771 1.574 . S
C788 H782 0.949 . S
C788 C792 1.368 1_455 S
C789 C770 1.429 1_455 S
C789 C783 1.429 . S
C789 C790 1.523 . S
C790 C771 1.368 . S
C790 C784 1.368 1_455 S
C790 C789 1.523 . S
C791 C775 1.429 1_655 S
C791 C787 1.429 . S
C791 C792 1.523 . S
C792 C776 1.368 . S
C792 C788 1.368 1_655 S
C792 C791 1.523 . S
H793 C768 0.946 1_655 S
H794 C770 0.950 . S
H795 C771 0.949 . S
H796 C773 0.950 . S
H797 C775 0.950 . S
C798 C799 1.349 1_545 S
C798 C800 1.327 . S
C798 H823 0.950 . S
C799 C798 1.349 1_565 S
C799 C815 1.349 . S
C800 C798 1.327 . S
C800 C819 1.429 1_545 S
C800 H824 0.950 . S
C801 C818 1.574 . S
C801 C820 1.368 . S
C801 H825 0.949 . S
H802 C806 0.949 . S
C803 C804 1.349 1_565 S
C803 C805 1.327 . S
C803 H826 0.950 . S
C804 C803 1.349 1_545 S
C804 C816 1.349 . S
C805 C803 1.327 . S
C805 C821 1.429 1_565 S
C805 H827 0.950 . S
C806 H802 0.949 . S
C806 C814 1.574 . S
C806 C822 1.368 . S
H807 C815 0.950 . S
H808 C813 0.950 . S
H809 C814 0.949 . S
H810 C816 0.950 . S
H811 C817 0.950 . S
H812 C818 0.949 . S
C813 H808 0.950 . S
C813 C815 1.327 . S
C813 C819 1.429 . S
C814 C806 1.574 . S
C814 H809 0.949 . S
C814 C820 1.368 1_545 S
C815 C799 1.349 . S
C815 H807 0.950 . S
C815 C813 1.327 . S
C816 C804 1.349 . S
C816 H810 0.950 . S
C816 C817 1.327 . S
C817 H811 0.950 . S
C817 C816 1.327 . S
C817 C821 1.429 . S
C818 C801 1.574 . S
C818 H812 0.949 . S
C818 C822 1.368 1_565 S
C819 C800 1.429 1_565 S
C819 C813 1.429 . S
C819 C820 1.523 . S
C820 C801 1.368 . S
C820 C814 1.368 1_565 S
C820 C819 1.523 . S
C821 C805 1.429 1_545 S
C821 C817 1.429 . S
C821 C822 1.523 . S
C822 C806 1.368 . S
C822 C818 1.368 1_545 S
C822 C821 1.523 . S
H823 C798 0.950 . S
H824 C800 0.950 . S
H825 C801 0.949 . S
H826 C803 0.950 . S
H827 C805 0.950 . S
C828 C829 1.349 . S
C828 C830 1.327 . S
C828 H853 0.950 . S
C829 C828 1.349 . S
C829 C845 1.349 . S
C830 C828 1.327 . S
C830 C849 1.429 . S
C830 H854 0.950 1_655 S
C831 C848 1.574 . S
C831 C850 1.368 . S
C831 H855 0.949 . S
H832 C836 0.949 . S
C833 C834 1.349 . S
C833 C835 1.327 . S
C833 H856 0.950 . S
C834 C833 1.349 . S
C834 C846 1.349 . S
C835 C833 1.327 . S
C835 C851 1.429 . S
C835 H857 0.950 1_455 S
C836 H832 0.949 . S
C836 C844 1.574 . S
C836 C852 1.368 . S
H837 C845 0.950 . S
H838 C843 0.950 . S
H839 C844 0.949 . S
H840 C846 0.950 . S
H841 C847 0.950 . S
H842 C848 0.949 . S
C843 H838 0.950 . S
C843 C845 1.327 . S
C843 C849 1.429 . S
C844 C836 1.574 . S
C844 H839 0.949 . S
C844 C850 1.368 1_455 S
C845 C829 1.349 . S
C845 H837 0.950 . S
C845 C843 1.327 . S
C846 C834 1.349 . S
C846 H840 0.950 . S
C846 C847 1.327 . S
C847 H841 0.950 . S
C847 C846 1.327 . S
C847 C851 1.429 . S
C848 C831 1.574 . S
C848 H842 0.949 . S
C848 C852 1.368 1_655 S
C849 C830 1.429 . S
C849 C843 1.429 . S
C849 C850 1.523 . S
C850 C831 1.368 . S
C850 C844 1.368 1_655 S
C850 C849 1.523 . S
C851 C835 1.429 . S
C851 C847 1.429 . S
C851 C852 1.523 . S
C852 C836 1.368 . S
C852 C848 1.368 1_455 S
C852 C851 1.523 . S
H853 C828 0.950 . S
H854 C830 0.950 1_455 S
H855 C831 0.949 . S
H856 C833 0.950 . S
H857 C835 0.950 1_655 S
C858 C859 1.349 . S
C858 C860 1.324 1_565 S
C858 H883 0.950 1_565 S
C859 C858 1.349 . S
C859 C875 1.349 . S
C860 C858 1.324 1_545 S
C860 C879 1.423 1_545 S
C860 H884 0.959 . S
C861 C878 1.574 . S
C861 C880 1.368 . S
C861 H885 0.949 . S
H862 C866 0.949 . S
C863 C864 1.349 . S
C863 C865 1.334 . S
C863 H886 0.948 1_545 S
C864 C863 1.349 . S
C864 C876 1.349 . S
C865 C863 1.334 . S
C865 C881 1.439 . S
C865 H887 0.934 1_545 S
C866 H862 0.949 . S
C866 C874 1.574 . S
C866 C882 1.368 . S
H867 C875 0.950 . S
H868 C873 0.950 . S
H869 C874 0.949 . S
H870 C876 0.950 . S
H871 C877 0.950 . S
H872 C878 0.949 . S
C873 H868 0.950 . S
C873 C875 1.327 . S
C873 C879 1.429 . S
C874 C866 1.574 . S
C874 H869 0.949 . S
C874 C880 1.368 1_545 S
C875 C859 1.349 . S
C875 H867 0.950 . S
C875 C873 1.327 . S
C876 C864 1.349 . S
C876 H870 0.950 . S
C876 C877 1.327 . S
C877 H871 0.950 . S
C877 C876 1.327 . S
C877 C881 1.429 . S
C878 C861 1.574 . S
C878 H872 0.949 . S
C878 C882 1.368 1_565 S
C879 C860 1.423 1_565 S
C879 C873 1.429 . S
C879 C880 1.523 . S
C880 C861 1.368 . S
C880 C874 1.368 1_565 S
C880 C879 1.523 . S
C881 C865 1.439 . S
C881 C877 1.429 . S
C881 C882 1.523 . S
C882 C866 1.368 . S
C882 C878 1.368 1_545 S
C882 C881 1.523 . S
H883 C858 0.950 1_545 S
H884 C860 0.959 . S
H885 C861 0.949 . S
H886 C863 0.948 1_565 S
H887 C865 0.934 1_565 S
C888 C889 1.349 . S
C888 C890 1.327 . S
C888 H913 0.950 . S
C889 C888 1.349 . S
C889 C905 1.349 1_655 S
C890 C888 1.327 . S
C890 C909 1.429 . S
C890 H914 0.950 . S
C891 C908 1.574 . S
C891 C910 1.368 1_455 S
C891 H915 0.949 . S
H892 C896 0.949 . S
C893 C894 1.349 . S
C893 C895 1.327 . S
C893 H916 0.950 . S
C894 C893 1.349 . S
C894 C906 1.349 1_455 S
C895 C893 1.327 . S
C895 C911 1.429 . S
C895 H917 0.950 . S
C896 H892 0.949 . S
C896 C904 1.574 . S
C896 C912 1.368 1_655 S
H897 C905 0.950 . S
H898 C903 0.950 . S
H899 C904 0.949 . S
H900 C906 0.950 . S
H901 C907 0.950 . S
H902 C908 0.949 . S
C903 H898 0.950 . S
C903 C905 1.327 . S
C903 C909 1.429 1_455 S
C904 C896 1.574 . S
C904 H899 0.949 . S
C904 C910 1.368 . S
C905 C889 1.349 1_455 S
C905 H897 0.950 . S
C905 C903 1.327 . S
C906 C894 1.349 1_655 S
C906 H900 0.950 . S
C906 C907 1.327 . S
C907 H901 0.950 . S
C907 C906 1.327 . S
C907 C911 1.429 1_655 S
C908 C891 1.574 . S
C908 H902 0.949 . S
C908 C912 1.368 . S
C909 C890 1.429 . S
C909 C903 1.429 1_655 S
C909 C910 1.523 . S
C910 C891 1.368 1_655 S
C910 C904 1.368 . S
C910 C909 1.523 . S
C911 C895 1.429 . S
C911 C907 1.429 1_455 S
C911 C912 1.523 . S
C912 C896 1.368 1_455 S
C912 C908 1.368 . S
C912 C911 1.523 . S
H913 C888 0.950 . S
H914 C890 0.950 . S
H915 C891 0.949 . S
H916 C893 0.950 . S
H917 C895 0.950 . S
C918 C919 1.349 . S
C918 C920 1.327 . S
C918 H943 0.950 . S
C919 C918 1.349 . S
C919 C935 1.349 1_545 S
C920 C918 1.327 . S
C920 C939 1.429 . S
C920 H944 0.950 . S
C921 C938 1.574 . S
C921 C940 1.368 1_565 S
C921 H945 0.949 . S
H922 C926 0.949 . S
C923 C924 1.349 . S
C923 C925 1.327 . S
C923 H946 0.950 . S
C924 C923 1.349 . S
C924 C936 1.349 1_565 S
C925 C923 1.327 . S
C925 C941 1.429 . S
C925 H947 0.950 . S
C926 H922 0.949 . S
C926 C934 1.574 . S
C926 C942 1.368 1_545 S
H927 C935 0.950 . S
H928 C933 0.950 . S
H929 C934 0.949 . S
H930 C936 0.950 . S
H931 C937 0.950 . S
H932 C938 0.949 . S
C933 H928 0.950 . S
C933 C935 1.327 . S
C933 C939 1.429 1_565 S
C934 C926 1.574 . S
C934 H929 0.949 . S
C934 C940 1.368 . S
C935 C919 1.349 1_565 S
C935 H927 0.950 . S
C935 C933 1.327 . S
C936 C924 1.349 1_545 S
C936 H930 0.950 . S
C936 C937 1.327 . S
C937 H931 0.950 . S
C937 C936 1.327 . S
C937 C941 1.429 1_545 S
C938 C921 1.574 . S
C938 H932 0.949 . S
C938 C942 1.368 . S
C939 C920 1.429 . S
C939 C933 1.429 1_545 S
C939 C940 1.523 . S
C940 C921 1.368 1_545 S
C940 C934 1.368 . S
C940 C939 1.523 . S
C941 C925 1.429 . S
C941 C937 1.429 1_565 S
C941 C942 1.523 . S
C942 C926 1.368 1_565 S
C942 C938 1.368 . S
C942 C941 1.523 . S
H943 C918 0.950 . S
H944 C920 0.950 . S
H945 C921 0.949 . S
H946 C923 0.950 . S
H947 C925 0.950 . S
C948 C949 1.349 1_554 S
C948 C950 1.327 . S
C948 H973 0.950 . S
C949 C948 1.349 1_556 S
C949 C965 1.349 . S
C950 C948 1.327 . S
C950 C969 1.429 1_554 S
C950 H974 0.950 . S
C951 C968 1.574 . S
C951 C970 1.368 . S
C951 H975 0.949 . S
H952 C956 0.949 . S
C953 C954 1.349 1_556 S
C953 C955 1.327 . S
C953 H976 0.950 . S
C954 C953 1.349 1_554 S
C954 C966 1.349 . S
C955 C953 1.327 . S
C955 C971 1.429 1_556 S
C955 H977 0.950 . S
C956 H952 0.949 . S
C956 C964 1.574 . S
C956 C972 1.368 . S
H957 C965 0.950 . S
H958 C963 0.950 . S
H959 C964 0.949 . S
H960 C966 0.950 . S
H961 C967 0.950 . S
H962 C968 0.949 . S
C963 H958 0.950 . S
C963 C965 1.327 . S
C963 C969 1.429 . S
C964 C956 1.574 . S
C964 H959 0.949 . S
C964 C970 1.368 1_554 S
C965 C949 1.349 . S
C965 H957 0.950 . S
C965 C963 1.327 . S
C966 C954 1.349 . S
C966 H960 0.950 . S
C966 C967 1.327 . S
C967 H961 0.950 . S
C967 C966 1.327 . S
C967 C971 1.429 . S
C968 C951 1.574 . S
C968 H962 0.949 . S
C968 C972 1.368 1_556 S
C969 C950 1.429 1_556 S
C969 C963 1.429 . S
C969 C970 1.523 . S
C970 C951 1.368 . S
C970 C964 1.368 1_556 S
C970 C969 1.523 . S
C971 C955 1.429 1_554 S
C971 C967 1.429 . S
C971 C972 1.523 . S
C972 C956 1.368 . S
C972 C968 1.368 1_554 S
C972 C971 1.523 . S
H973 C948 0.950 . S
H974 C950 0.950 . S
H975 C951 0.949 . S
H976 C953 0.950 . S
H977 C955 0.950 . S
C978 C979 1.349 . S
C978 C980 1.327 . S
C978 H1003 0.950 . S
C979 C978 1.349 . S
C979 C995 1.349 1_556 S
C980 C978 1.327 . S
C980 C999 1.429 . S
C980 H1004 0.950 . S
C981 C998 1.574 . S
C981 C1000 1.368 1_554 S
C981 H1005 0.949 . S
H982 C986 0.949 . S
C983 C984 1.349 . S
C983 C985 1.327 . S
C983 H1006 0.950 . S
C984 C983 1.349 . S
C984 C996 1.349 1_554 S
C985 C983 1.327 . S
C985 C1001 1.429 . S
C985 H1007 0.950 . S
C986 H982 0.949 . S
C986 C994 1.574 . S
C986 C1002 1.368 1_556 S
H987 C995 0.950 . S
H988 C993 0.950 . S
H989 C994 0.949 . S
H990 C996 0.950 . S
H991 C997 0.950 . S
H992 C998 0.949 . S
C993 H988 0.950 . S
C993 C995 1.327 . S
C993 C999 1.429 1_554 S
C994 C986 1.574 . S
C994 H989 0.949 . S
C994 C1000 1.368 . S
C995 C979 1.349 1_554 S
C995 H987 0.950 . S
C995 C993 1.327 . S
C996 C984 1.349 1_556 S
C996 H990 0.950 . S
C996 C997 1.327 . S
C997 H991 0.950 . S
C997 C996 1.327 . S
C997 C1001 1.429 1_556 S
C998 C981 1.574 . S
C998 H992 0.949 . S
C998 C1002 1.368 . S
C999 C980 1.429 . S
C999 C993 1.429 1_556 S
C999 C1000 1.523 . S
C1000 C981 1.368 1_556 S
C1000 C994 1.368 . S
C1000 C999 1.523 . S
C1001 C985 1.429 . S
C1001 C997 1.429 1_554 S
C1001 C1002 1.523 . S
C1002 C986 1.368 1_554 S
C1002 C998 1.368 . S
C1002 C1001 1.523 . S
H1003 C978 0.950 . S
H1004 C980 0.950 . S
H1005 C981 0.949 . S
H1006 C983 0.950 . S
H1007 C985 0.950 . S
C1008 C1009 1.349 . S
C1008 C1010 1.327 . S
C1008 H1033 0.950 . S
C1009 C1008 1.349 . S
C1009 C1025 1.349 1_554 S
C1010 C1008 1.327 . S
C1010 C1029 1.429 . S
C1010 H1034 0.950 . S
C1011 C1028 1.574 . S
C1011 C1030 1.368 1_556 S
C1011 H1035 0.949 . S
H1012 C1016 0.949 . S
C1013 C1014 1.349 . S
C1013 C1015 1.327 . S
C1013 H1036 0.950 . S
C1014 C1013 1.349 . S
C1014 C1026 1.349 1_556 S
C1015 C1013 1.327 . S
C1015 C1031 1.429 . S
C1015 H1037 0.950 . S
C1016 H1012 0.949 . S
C1016 C1024 1.574 . S
C1016 C1032 1.368 1_554 S
H1017 C1025 0.950 . S
H1018 C1023 0.950 . S
H1019 C1024 0.949 . S
H1020 C1026 0.950 . S
H1021 C1027 0.950 . S
H1022 C1028 0.949 . S
C1023 H1018 0.950 . S
C1023 C1025 1.327 . S
C1023 C1029 1.429 1_556 S
C1024 C1016 1.574 . S
C1024 H1019 0.949 . S
C1024 C1030 1.368 . S
C1025 C1009 1.349 1_556 S
C1025 H1017 0.950 . S
C1025 C1023 1.327 . S
C1026 C1014 1.349 1_554 S
C1026 H1020 0.950 . S
C1026 C1027 1.327 . S
C1027 H1021 0.950 . S
C1027 C1026 1.327 . S
C1027 C1031 1.429 1_554 S
C1028 C1011 1.574 . S
C1028 H1022 0.949 . S
C1028 C1032 1.368 . S
C1029 C1010 1.429 . S
C1029 C1023 1.429 1_554 S
C1029 C1030 1.523 . S
C1030 C1011 1.368 1_554 S
C1030 C1024 1.368 . S
C1030 C1029 1.523 . S
C1031 C1015 1.429 . S
C1031 C1027 1.429 1_556 S
C1031 C1032 1.523 . S
C1032 C1016 1.368 1_556 S
C1032 C1028 1.368 . S
C1032 C1031 1.523 . S
H1033 C1008 0.950 . S
H1034 C1010 0.950 . S
H1035 C1011 0.949 . S
H1036 C1013 0.950 . S
H1037 C1015 0.950 . S
C1038 C1039 1.349 . S
C1038 C1040 1.327 . S
C1038 H1063 0.950 . S
C1039 C1038 1.349 . S
C1039 C1055 1.357 . S
C1040 C1038 1.327 . S
C1040 C1059 1.429 . S
C1040 H1064 0.950 . S
C1041 C1058 1.574 . S
C1041 C1060 1.368 1_556 S
C1041 H1065 0.949 . S
H1042 C1046 0.949 . S
C1043 C1044 1.349 . S
C1043 C1045 1.327 . S
C1043 H1066 0.950 . S
C1044 C1043 1.349 . S
C1044 C1056 1.349 1_556 S
C1045 C1043 1.327 . S
C1045 C1061 1.429 . S
C1045 H1067 0.950 . S
C1046 H1042 0.949 . S
C1046 C1054 1.574 . S
C1046 C1062 1.368 1_554 S
H1047 C1055 0.944 1_556 S
H1048 C1053 0.950 . S
H1049 C1054 0.949 . S
H1050 C1056 0.950 . S
H1051 C1057 0.950 . S
H1052 C1058 0.949 . S
C1053 H1048 0.950 . S
C1053 C1055 1.325 1_556 S
C1053 C1059 1.429 1_556 S
C1054 C1046 1.574 . S
C1054 H1049 0.949 . S
C1054 C1060 1.368 . S
C1055 C1039 1.357 . S
C1055 H1047 0.944 1_554 S
C1055 C1053 1.325 1_554 S
C1056 C1044 1.349 1_554 S
C1056 H1050 0.950 . S
C1056 C1057 1.327 . S
C1057 H1051 0.950 . S
C1057 C1056 1.327 . S
C1057 C1061 1.429 1_554 S
C1058 C1041 1.574 . S
C1058 H1052 0.949 . S
C1058 C1062 1.368 . S
C1059 C1040 1.429 . S
C1059 C1053 1.429 1_554 S
C1059 C1060 1.523 . S
C1060 C1041 1.368 1_554 S
C1060 C1054 1.368 . S
C1060 C1059 1.523 . S
C1061 C1045 1.429 . S
C1061 C1057 1.429 1_556 S
C1061 C1062 1.523 . S
C1062 C1046 1.368 1_556 S
C1062 C1058 1.368 . S
C1062 C1061 1.523 . S
H1063 C1038 0.950 . S
H1064 C1040 0.950 . S
H1065 C1041 0.949 . S
H1066 C1043 0.950 . S
H1067 C1045 0.950 . S
C1068 C1069 1.349 . S
C1068 C1070 1.327 . S
C1068 H1093 0.950 . S
C1069 C1068 1.349 . S
C1069 C1085 1.349 . S
C1070 C1068 1.327 . S
C1070 C1089 1.429 . S
C1070 H1094 0.950 . S
C1071 C1088 1.574 . S
C1071 C1090 1.368 . S
C1071 H1095 0.949 . S
H1072 C1076 0.949 . S
C1073 C1074 1.349 . S
C1073 C1075 1.327 . S
C1073 H1096 0.950 . S
C1074 C1073 1.349 . S
C1074 C1086 1.349 . S
C1075 C1073 1.327 . S
C1075 C1091 1.429 . S
C1075 H1097 0.950 . S
C1076 H1072 0.949 . S
C1076 C1084 1.574 . S
C1076 C1092 1.368 . S
H1077 C1085 0.950 . S
H1078 C1083 0.950 . S
H1079 C1084 0.949 . S
H1080 C1086 0.950 . S
H1081 C1087 0.950 . S
H1082 C1088 0.949 . S
C1083 H1078 0.950 . S
C1083 C1085 1.327 . S
C1083 C1089 1.429 . S
C1084 C1076 1.574 . S
C1084 H1079 0.949 . S
C1084 C1090 1.368 . S
C1085 C1069 1.349 . S
C1085 H1077 0.950 . S
C1085 C1083 1.327 . S
C1086 C1074 1.349 . S
C1086 H1080 0.950 . S
C1086 C1087 1.327 . S
C1087 H1081 0.950 . S
C1087 C1086 1.327 . S
C1087 C1091 1.429 . S
C1088 C1071 1.574 . S
C1088 H1082 0.949 . S
C1088 C1092 1.368 . S
C1089 C1070 1.429 . S
C1089 C1083 1.429 . S
C1089 C1090 1.523 . S
C1090 C1071 1.368 . S
C1090 C1084 1.368 . S
C1090 C1089 1.523 . S
C1091 C1075 1.429 . S
C1091 C1087 1.429 . S
C1091 C1092 1.523 . S
C1092 C1076 1.368 . S
C1092 C1088 1.368 . S
C1092 C1091 1.523 . S
H1093 C1068 0.950 . S
H1094 C1070 0.950 . S
H1095 C1071 0.949 . S
H1096 C1073 0.950 . S
H1097 C1075 0.950 . S
C1098 C1099 1.349 . S
C1098 C1100 1.327 . S
C1098 H1123 0.950 . S
C1099 C1098 1.349 . S
C1099 C1115 1.349 . S
C1100 C1098 1.327 . S
C1100 C1119 1.429 . S
C1100 H1124 0.950 . S
C1101 C1118 1.574 . S
C1101 C1120 1.368 . S
C1101 H1125 0.949 . S
H1102 C1106 0.949 . S
C1103 C1104 1.349 . S
C1103 C1105 1.327 . S
C1103 H1126 0.950 . S
C1104 C1103 1.349 . S
C1104 C1116 1.349 . S
C1105 C1103 1.327 . S
C1105 C1121 1.429 . S
C1105 H1127 0.950 . S
C1106 H1102 0.949 . S
C1106 C1114 1.574 . S
C1106 C1122 1.368 . S
H1107 C1115 0.950 . S
H1108 C1113 0.950 . S
H1109 C1114 0.949 . S
H1110 C1116 0.950 . S
H1111 C1117 0.950 . S
H1112 C1118 0.949 . S
C1113 H1108 0.950 . S
C1113 C1115 1.327 . S
C1113 C1119 1.429 . S
C1114 C1106 1.574 . S
C1114 H1109 0.949 . S
C1114 C1120 1.368 . S
C1115 C1099 1.349 . S
C1115 H1107 0.950 . S
C1115 C1113 1.327 . S
C1116 C1104 1.349 . S
C1116 H1110 0.950 . S
C1116 C1117 1.327 . S
C1117 H1111 0.950 . S
C1117 C1116 1.327 . S
C1117 C1121 1.429 . S
C1118 C1101 1.574 . S
C1118 H1112 0.949 . S
C1118 C1122 1.368 . S
C1119 C1100 1.429 . S
C1119 C1113 1.429 . S
C1119 C1120 1.523 . S
C1120 C1101 1.368 . S
C1120 C1114 1.368 . S
C1120 C1119 1.523 . S
C1121 C1105 1.429 . S
C1121 C1117 1.429 . S
C1121 C1122 1.523 . S
C1122 C1106 1.368 . S
C1122 C1118 1.368 . S
C1122 C1121 1.523 . S
H1123 C1098 0.950 . S
H1124 C1100 0.950 . S
H1125 C1101 0.949 . S
H1126 C1103 0.950 . S
H1127 C1105 0.950 . S
C1128 C1129 1.349 . S
C1128 C1130 1.327 . S
C1128 H1153 0.950 . S
C1129 C1128 1.349 . S
C1129 C1145 1.349 . S
C1130 C1128 1.327 . S
C1130 C1149 1.429 . S
C1130 H1154 0.950 . S
C1131 C1148 1.574 . S
C1131 C1150 1.368 . S
C1131 H1155 0.949 . S
H1132 C1136 0.949 . S
C1133 C1134 1.349 . S
C1133 C1135 1.327 . S
C1133 H1156 0.950 . S
C1134 C1133 1.349 . S
C1134 C1146 1.349 . S
C1135 C1133 1.327 . S
C1135 C1151 1.429 . S
C1135 H1157 0.950 . S
C1136 H1132 0.949 . S
C1136 C1144 1.574 . S
C1136 C1152 1.368 . S
H1137 C1145 0.950 . S
H1138 C1143 0.950 . S
H1139 C1144 0.949 . S
H1140 C1146 0.950 . S
H1141 C1147 0.950 . S
H1142 C1148 0.949 . S
C1143 H1138 0.950 . S
C1143 C1145 1.327 . S
C1143 C1149 1.429 . S
C1144 C1136 1.574 . S
C1144 H1139 0.949 . S
C1144 C1150 1.368 . S
C1145 C1129 1.349 . S
C1145 H1137 0.950 . S
C1145 C1143 1.327 . S
C1146 C1134 1.349 . S
C1146 H1140 0.950 . S
C1146 C1147 1.327 . S
C1147 H1141 0.950 . S
C1147 C1146 1.327 . S
C1147 C1151 1.429 . S
C1148 C1131 1.574 . S
C1148 H1142 0.949 . S
C1148 C1152 1.368 . S
C1149 C1130 1.429 . S
C1149 C1143 1.429 . S
C1149 C1150 1.523 . S
C1150 C1131 1.368 . S
C1150 C1144 1.368 . S
C1150 C1149 1.523 . S
C1151 C1135 1.429 . S
C1151 C1147 1.429 . S
C1151 C1152 1.523 . S
C1152 C1136 1.368 . S
C1152 C1148 1.368 . S
C1152 C1151 1.523 . S
H1153 C1128 0.950 . S
H1154 C1130 0.950 . S
H1155 C1131 0.949 . S
H1156 C1133 0.950 . S
H1157 C1135 0.950 . S
C1158 C1159 1.349 . S
C1158 C1160 1.327 . S
C1158 H1183 0.950 . S
C1159 C1158 1.349 . S
C1159 C1175 1.349 . S
C1160 C1158 1.327 . S
C1160 C1179 1.429 . S
C1160 H1184 0.950 . S
C1161 C1178 1.574 . S
C1161 C1180 1.368 . S
C1161 H1185 0.949 . S
H1162 C1166 0.949 . S
C1163 C1164 1.349 . S
C1163 C1165 1.327 . S
C1163 H1186 0.950 . S
C1164 C1163 1.349 . S
C1164 C1176 1.349 . S
C1165 C1163 1.327 . S
C1165 C1181 1.429 . S
C1165 H1187 0.950 . S
C1166 H1162 0.949 . S
C1166 C1174 1.574 . S
C1166 C1182 1.368 . S
H1167 C1175 0.950 . S
H1168 C1173 0.950 . S
H1169 C1174 0.949 . S
H1170 C1176 0.950 . S
H1171 C1177 0.950 . S
H1172 C1178 0.949 . S
C1173 H1168 0.950 . S
C1173 C1175 1.327 . S
C1173 C1179 1.429 . S
C1174 C1166 1.574 . S
C1174 H1169 0.949 . S
C1174 C1180 1.368 . S
C1175 C1159 1.349 . S
C1175 H1167 0.950 . S
C1175 C1173 1.327 . S
C1176 C1164 1.349 . S
C1176 H1170 0.950 . S
C1176 C1177 1.327 . S
C1177 H1171 0.950 . S
C1177 C1176 1.327 . S
C1177 C1181 1.429 . S
C1178 C1161 1.574 . S
C1178 H1172 0.949 . S
C1178 C1182 1.368 . S
C1179 C1160 1.429 . S
C1179 C1173 1.429 . S
C1179 C1180 1.523 . S
C1180 C1161 1.368 . S
C1180 C1174 1.368 . S
C1180 C1179 1.523 . S
C1181 C1165 1.429 . S
C1181 C1177 1.429 . S
C1181 C1182 1.523 . S
C1182 C1166 1.368 . S
C1182 C1178 1.368 . S
C1182 C1181 1.523 . S
H1183 C1158 0.950 . S
H1184 C1160 0.950 . S
H1185 C1161 0.949 . S
H1186 C1163 0.950 . S
H1187 C1165 0.950 . S
C1188 C1189 1.349 . S
C1188 C1190 1.327 . S
C1188 H1213 0.950 . S
C1189 C1188 1.349 . S
C1189 C1205 1.349 . S
C1190 C1188 1.327 . S
C1190 C1209 1.429 . S
C1190 H1214 0.950 . S
C1191 C1208 1.574 . S
C1191 C1210 1.368 . S
C1191 H1215 0.949 . S
H1192 C1196 0.949 . S
C1193 C1194 1.349 . S
C1193 C1195 1.327 . S
C1193 H1216 0.950 . S
C1194 C1193 1.349 . S
C1194 C1206 1.349 . S
C1195 C1193 1.327 . S
C1195 C1211 1.429 . S
C1195 H1217 0.950 . S
C1196 H1192 0.949 . S
C1196 C1204 1.574 . S
C1196 C1212 1.368 . S
H1197 C1205 0.950 . S
H1198 C1203 0.950 . S
H1199 C1204 0.949 . S
H1200 C1206 0.950 . S
H1201 C1207 0.950 . S
H1202 C1208 0.949 . S
C1203 H1198 0.950 . S
C1203 C1205 1.327 . S
C1203 C1209 1.429 . S
C1204 C1196 1.574 . S
C1204 H1199 0.949 . S
C1204 C1210 1.368 . S
C1205 C1189 1.349 . S
C1205 H1197 0.950 . S
C1205 C1203 1.327 . S
C1206 C1194 1.349 . S
C1206 H1200 0.950 . S
C1206 C1207 1.327 . S
C1207 H1201 0.950 . S
C1207 C1206 1.327 . S
C1207 C1211 1.429 . S
C1208 C1191 1.574 . S
C1208 H1202 0.949 . S
C1208 C1212 1.368 . S
C1209 C1190 1.429 . S
C1209 C1203 1.429 . S
C1209 C1210 1.523 . S
C1210 C1191 1.368 . S
C1210 C1204 1.368 . S
C1210 C1209 1.523 . S
C1211 C1195 1.429 . S
C1211 C1207 1.429 . S
C1211 C1212 1.523 . S
C1212 C1196 1.368 . S
C1212 C1208 1.368 . S
C1212 C1211 1.523 . S
H1213 C1188 0.950 . S
H1214 C1190 0.950 . S
H1215 C1191 0.949 . S
H1216 C1193 0.950 . S
H1217 C1195 0.950 . S
C1218 C1219 1.349 . S
C1218 C1220 1.327 . S
C1218 H1243 0.950 . S
C1219 C1218 1.349 . S
C1219 C1235 1.349 . S
C1220 C1218 1.327 . S
C1220 C1239 1.429 . S
C1220 H1244 0.950 . S
C1221 C1238 1.574 . S
C1221 C1240 1.368 . S
C1221 H1245 0.949 . S
H1222 C1226 0.949 . S
C1223 C1224 1.349 . S
C1223 C1225 1.327 . S
C1223 H1246 0.950 . S
C1224 C1223 1.349 . S
C1224 C1236 1.349 . S
C1225 C1223 1.327 . S
C1225 C1241 1.429 . S
C1225 H1247 0.950 . S
C1226 H1222 0.949 . S
C1226 C1234 1.574 . S
C1226 C1242 1.368 . S
H1227 C1235 0.950 . S
H1228 C1233 0.950 . S
H1229 C1234 0.949 . S
H1230 C1236 0.950 . S
H1231 C1237 0.950 . S
H1232 C1238 0.949 . S
C1233 H1228 0.950 . S
C1233 C1235 1.327 . S
C1233 C1239 1.429 . S
C1234 C1226 1.574 . S
C1234 H1229 0.949 . S
C1234 C1240 1.368 . S
C1235 C1219 1.349 . S
C1235 H1227 0.950 . S
C1235 C1233 1.327 . S
C1236 C1224 1.349 . S
C1236 H1230 0.950 . S
C1236 C1237 1.327 . S
C1237 H1231 0.950 . S
C1237 C1236 1.327 . S
C1237 C1241 1.429 . S
C1238 C1221 1.574 . S
C1238 H1232 0.949 . S
C1238 C1242 1.368 . S
C1239 C1220 1.429 . S
C1239 C1233 1.429 . S
C1239 C1240 1.523 . S
C1240 C1221 1.368 . S
C1240 C1234 1.368 . S
C1240 C1239 1.523 . S
C1241 C1225 1.429 . S
C1241 C1237 1.429 . S
C1241 C1242 1.523 . S
C1242 C1226 1.368 . S
C1242 C1238 1.368 . S
C1242 C1241 1.523 . S
H1243 C1218 0.950 . S
H1244 C1220 0.950 . S
H1245 C1221 0.949 . S
H1246 C1223 0.950 . S
H1247 C1225 0.950 . S
C1248 C1249 1.349 . S
C1248 C1250 1.327 . S
C1248 H1273 0.950 . S
C1249 C1248 1.349 . S
C1249 C1265 1.349 . S
C1250 C1248 1.327 . S
C1250 C1269 1.429 . S
C1250 H1274 0.950 . S
C1251 C1268 1.574 . S
C1251 C1270 1.368 . S
C1251 H1275 0.949 . S
H1252 C1256 0.949 . S
C1253 C1254 1.349 . S
C1253 C1255 1.327 . S
C1253 H1276 0.950 . S
C1254 C1253 1.349 . S
C1254 C1266 1.349 . S
C1255 C1253 1.327 . S
C1255 C1271 1.429 . S
C1255 H1277 0.950 . S
C1256 H1252 0.949 . S
C1256 C1264 1.574 . S
C1256 C1272 1.368 . S
H1257 C1265 0.950 . S
H1258 C1263 0.950 . S
H1259 C1264 0.949 . S
H1260 C1266 0.950 . S
H1261 C1267 0.950 . S
H1262 C1268 0.949 . S
C1263 H1258 0.950 . S
C1263 C1265 1.327 . S
C1263 C1269 1.429 . S
C1264 C1256 1.574 . S
C1264 H1259 0.949 . S
C1264 C1270 1.368 . S
C1265 C1249 1.349 . S
C1265 H1257 0.950 . S
C1265 C1263 1.327 . S
C1266 C1254 1.349 . S
C1266 H1260 0.950 . S
C1266 C1267 1.327 . S
C1267 H1261 0.950 . S
C1267 C1266 1.327 . S
C1267 C1271 1.429 . S
C1268 C1251 1.574 . S
C1268 H1262 0.949 . S
C1268 C1272 1.368 . S
C1269 C1250 1.429 . S
C1269 C1263 1.429 . S
C1269 C1270 1.523 . S
C1270 C1251 1.368 . S
C1270 C1264 1.368 . S
C1270 C1269 1.523 . S
C1271 C1255 1.429 . S
C1271 C1267 1.429 . S
C1271 C1272 1.523 . S
C1272 C1256 1.368 . S
C1272 C1268 1.368 . S
C1272 C1271 1.523 . S
H1273 C1248 0.950 . S
H1274 C1250 0.950 . S
H1275 C1251 0.949 . S
H1276 C1253 0.950 . S
H1277 C1255 0.950 . S
C1278 C1279 1.349 . S
C1278 C1280 1.327 . S
C1278 H1303 0.950 . S
C1279 C1278 1.349 . S
C1279 C1295 1.349 . S
C1280 C1278 1.327 . S
C1280 C1299 1.429 . S
C1280 H1304 0.950 . S
C1281 C1298 1.574 . S
C1281 C1300 1.368 . S
C1281 H1305 0.949 . S
H1282 C1286 0.949 . S
C1283 C1284 1.349 . S
C1283 C1285 1.327 . S
C1283 H1306 0.950 . S
C1284 C1283 1.349 . S
C1284 C1296 1.349 . S
C1285 C1283 1.327 . S
C1285 C1301 1.429 . S
C1285 H1307 0.950 . S
C1286 H1282 0.949 . S
C1286 C1294 1.574 . S
C1286 C1302 1.368 . S
H1287 C1295 0.950 . S
H1288 C1293 0.950 . S
H1289 C1294 0.949 . S
H1290 C1296 0.950 . S
H1291 C1297 0.950 . S
H1292 C1298 0.949 . S
C1293 H1288 0.950 . S
C1293 C1295 1.327 . S
C1293 C1299 1.429 . S
C1294 C1286 1.574 . S
C1294 H1289 0.949 . S
C1294 C1300 1.368 . S
C1295 C1279 1.349 . S
C1295 H1287 0.950 . S
C1295 C1293 1.327 . S
C1296 C1284 1.349 . S
C1296 H1290 0.950 . S
C1296 C1297 1.327 . S
C1297 H1291 0.950 . S
C1297 C1296 1.327 . S
C1297 C1301 1.429 . S
C1298 C1281 1.574 . S
C1298 H1292 0.949 . S
C1298 C1302 1.368 . S
C1299 C1280 1.429 . S
C1299 C1293 1.429 . S
C1299 C1300 1.523 . S
C1300 C1281 1.368 . S
C1300 C1294 1.368 . S
C1300 C1299 1.523 . S
C1301 C1285 1.429 . S
C1301 C1297 1.429 . S
C1301 C1302 1.523 . S
C1302 C1286 1.368 . S
C1302 C1298 1.368 . S
C1302 C1301 1.523 . S
H1303 C1278 0.950 . S
H1304 C1280 0.950 . S
H1305 C1281 0.949 . S
H1306 C1283 0.950 . S
H1307 C1285 0.950 . S
C1308 C1309 1.349 . S
C1308 C1310 1.327 . S
C1308 H1333 0.950 . S
C1309 C1308 1.349 . S
C1309 C1325 1.349 . S
C1310 C1308 1.327 . S
C1310 C1329 1.429 . S
C1310 H1334 0.950 . S
C1311 C1328 1.574 . S
C1311 C1330 1.368 . S
C1311 H1335 0.949 . S
H1312 C1316 0.949 . S
C1313 C1314 1.349 . S
C1313 C1315 1.327 . S
C1313 H1336 0.950 . S
C1314 C1313 1.349 . S
C1314 C1326 1.349 . S
C1315 C1313 1.327 . S
C1315 C1331 1.429 . S
C1315 H1337 0.950 . S
C1316 H1312 0.949 . S
C1316 C1324 1.574 . S
C1316 C1332 1.368 . S
H1317 C1325 0.950 . S
H1318 C1323 0.950 . S
H1319 C1324 0.949 . S
H1320 C1326 0.950 . S
H1321 C1327 0.950 . S
H1322 C1328 0.949 . S
C1323 H1318 0.950 . S
C1323 C1325 1.327 . S
C1323 C1329 1.429 . S
C1324 C1316 1.574 . S
C1324 H1319 0.949 . S
C1324 C1330 1.368 . S
C1325 C1309 1.349 . S
C1325 H1317 0.950 . S
C1325 C1323 1.327 . S
C1326 C1314 1.349 . S
C1326 H1320 0.950 . S
C1326 C1327 1.327 . S
C1327 H1321 0.950 . S
C1327 C1326 1.327 . S
C1327 C1331 1.429 . S
C1328 C1311 1.574 . S
C1328 H1322 0.949 . S
C1328 C1332 1.368 . S
C1329 C1310 1.429 . S
C1329 C1323 1.429 . S
C1329 C1330 1.523 . S
C1330 C1311 1.368 . S
C1330 C1324 1.368 . S
C1330 C1329 1.523 . S
C1331 C1315 1.429 . S
C1331 C1327 1.429 . S
C1331 C1332 1.523 . S
C1332 C1316 1.368 . S
C1332 C1328 1.368 . S
C1332 C1331 1.523 . S
H1333 C1308 0.950 . S
H1334 C1310 0.950 . S
H1335 C1311 0.949 . S
H1336 C1313 0.950 . S
H1337 C1315 0.950 . S
C1338 C1339 1.349 . S
C1338 C1340 1.327 . S
C1338 H1363 0.950 . S
C1339 C1338 1.349 . S
C1339 C1355 1.349 . S
C1340 C1338 1.327 . S
C1340 C1359 1.429 . S
C1340 H1364 0.950 . S
C1341 C1358 1.574 . S
C1341 C1360 1.368 . S
C1341 H1365 0.949 . S
H1342 C1346 0.949 . S
C1343 C1344 1.349 . S
C1343 C1345 1.327 . S
C1343 H1366 0.950 . S
C1344 C1343 1.349 . S
C1344 C1356 1.349 . S
C1345 C1343 1.327 . S
C1345 C1361 1.429 . S
C1345 H1367 0.950 . S
C1346 H1342 0.949 . S
C1346 C1354 1.574 . S
C1346 C1362 1.368 . S
H1347 C1355 0.950 . S
H1348 C1353 0.950 . S
H1349 C1354 0.949 . S
H1350 C1356 0.950 . S
H1351 C1357 0.950 . S
H1352 C1358 0.949 . S
C1353 H1348 0.950 . S
C1353 C1355 1.327 . S
C1353 C1359 1.429 . S
C1354 C1346 1.574 . S
C1354 H1349 0.949 . S
C1354 C1360 1.368 . S
C1355 C1339 1.349 . S
C1355 H1347 0.950 . S
C1355 C1353 1.327 . S
C1356 C1344 1.349 . S
C1356 H1350 0.950 . S
C1356 C1357 1.327 . S
C1357 H1351 0.950 . S
C1357 C1356 1.327 . S
C1357 C1361 1.429 . S
C1358 C1341 1.574 . S
C1358 H1352 0.949 . S
C1358 C1362 1.368 . S
C1359 C1340 1.429 . S
C1359 C1353 1.429 . S
C1359 C1360 1.523 . S
C1360 C1341 1.368 . S
C1360 C1354 1.368 . S
C1360 C1359 1.523 . S
C1361 C1345 1.429 . S
C1361 C1357 1.429 . S
C1361 C1362 1.523 . S
C1362 C1346 1.368 . S
C1362 C1358 1.368 . S
C1362 C1361 1.523 . S
H1363 C1338 0.950 . S
H1364 C1340 0.950 . S
H1365 C1341 0.949 . S
H1366 C1343 0.950 . S
H1367 C1345 0.950 . S
C1368 C1369 1.349 . S
C1368 C1370 1.327 . S
C1368 H1393 0.950 . S
C1369 C1368 1.349 . S
C1369 C1385 1.349 . S
C1370 C1368 1.327 . S
C1370 C1389 1.429 . S
C1370 H1394 0.950 . S
C1371 C1388 1.574 . S
C1371 C1390 1.368 . S
C1371 H1395 0.949 . S
H1372 C1376 0.949 . S
C1373 C1374 1.349 . S
C1373 C1375 1.327 . S
C1373 H1396 0.950 . S
C1374 C1373 1.349 . S
C1374 C1386 1.349 . S
C1375 C1373 1.327 . S
C1375 C1391 1.429 . S
C1375 H1397 0.950 . S
C1376 H1372 0.949 . S
C1376 C1384 1.574 . S
C1376 C1392 1.368 . S
H1377 C1385 0.950 . S
H1378 C1383 0.950 . S
H1379 C1384 0.949 . S
H1380 C1386 0.950 . S
H1381 C1387 0.950 . S
H1382 C1388 0.949 . S
C1383 H1378 0.950 . S
C1383 C1385 1.327 . S
C1383 C1389 1.429 . S
C1384 C1376 1.574 . S
C1384 H1379 0.949 . S
C1384 C1390 1.368 . S
C1385 C1369 1.349 . S
C1385 H1377 0.950 . S
C1385 C1383 1.327 . S
C1386 C1374 1.349 . S
C1386 H1380 0.950 . S
C1386 C1387 1.327 . S
C1387 H1381 0.950 . S
C1387 C1386 1.327 . S
C1387 C1391 1.429 . S
C1388 C1371 1.574 . S
C1388 H1382 0.949 . S
C1388 C1392 1.368 . S
C1389 C1370 1.429 . S
C1389 C1383 1.429 . S
C1389 C1390 1.523 . S
C1390 C1371 1.368 . S
C1390 C1384 1.368 . S
C1390 C1389 1.523 . S
C1391 C1375 1.429 . S
C1391 C1387 1.429 . S
C1391 C1392 1.523 . S
C1392 C1376 1.368 . S
C1392 C1388 1.368 . S
C1392 C1391 1.523 . S
H1393 C1368 0.950 . S
H1394 C1370 0.950 . S
H1395 C1371 0.949 . S
H1396 C1373 0.950 . S
H1397 C1375 0.950 . S
C1398 C1399 1.349 . S
C1398 C1400 1.327 . S
C1398 H1423 0.950 . S
C1399 C1398 1.349 . S
C1399 C1415 1.349 . S
C1400 C1398 1.327 . S
C1400 C1419 1.429 . S
C1400 H1424 0.950 . S
C1401 C1418 1.574 . S
C1401 C1420 1.368 . S
C1401 H1425 0.949 . S
H1402 C1406 0.949 . S
C1403 C1404 1.349 . S
C1403 C1405 1.327 . S
C1403 H1426 0.950 . S
C1404 C1403 1.349 . S
C1404 C1416 1.349 . S
C1405 C1403 1.327 . S
C1405 C1421 1.429 . S
C1405 H1427 0.950 . S
C1406 H1402 0.949 . S
C1406 C1414 1.574 . S
C1406 C1422 1.368 . S
H1407 C1415 0.950 . S
H1408 C1413 0.950 . S
H1409 C1414 0.949 . S
H1410 C1416 0.950 . S
H1411 C1417 0.950 . S
H1412 C1418 0.949 . S
C1413 H1408 0.950 . S
C1413 C1415 1.327 . S
C1413 C1419 1.429 . S
C1414 C1406 1.574 . S
C1414 H1409 0.949 . S
C1414 C1420 1.368 . S
C1415 C1399 1.349 . S
C1415 H1407 0.950 . S
C1415 C1413 1.327 . S
C1416 C1404 1.349 . S
C1416 H1410 0.950 . S
C1416 C1417 1.327 . S
C1417 H1411 0.950 . S
C1417 C1416 1.327 . S
C1417 C1421 1.429 . S
C1418 C1401 1.574 . S
C1418 H1412 0.949 . S
C1418 C1422 1.368 . S
C1419 C1400 1.429 . S
C1419 C1413 1.429 . S
C1419 C1420 1.523 . S
C1420 C1401 1.368 . S
C1420 C1414 1.368 . S
C1420 C1419 1.523 . S
C1421 C1405 1.429 . S
C1421 C1417 1.429 . S
C1421 C1422 1.523 . S
C1422 C1406 1.368 . S
C1422 C1418 1.368 . S
C1422 C1421 1.523 . S
H1423 C1398 0.950 . S
H1424 C1400 0.950 . S
H1425 C1401 0.949 . S
H1426 C1403 0.950 . S
H1427 C1405 0.950 . S
C709 C5 1.552 . S
C714 C300 1.551 . S
C739 C111 1.572 . S
C744 C288 1.571 . S
C769 C298 1.552 . S
C774 C121 1.551 . S
C799 C229 1.572 . S
C804 C269 1.574 . S
C829 C418 1.551 . S
C834 C123 1.552 . S
C859 C387 1.575 . S
C864 C210 1.575 . S
C889 C3 1.551 . S
C894 C416 1.552 . S
C919 C406 1.572 . S
C924 C92 1.574 . S
C949 C583 1.550 . S
C954 C477 1.557 . S
C979 C475 1.555 . S
C984 C701 1.547 . S
C1009 C564 1.548 . S
C1014 C593 1.557 . S
C1039 C595 1.558 . S
C1044 C682 1.550 . S
C1069 C654 1.552 . S
C1074 C359 1.551 . S
C1099 C524 1.572 . S
C1104 C465 1.571 . S
C1129 C357 1.552 . S
C1134 C534 1.551 . S
C1159 C446 1.574 . S
C1164 C642 1.572 . S
C1189 C241 1.551 . S
C1194 C536 1.551 . S
C1219 C328 1.575 . S
C1224 C623 1.575 . S
C1249 C652 1.551 . S
C1254 C239 1.552 . S
C1279 C505 1.574 . S
C1284 C347 1.572 . S
C1309 C64 1.557 . S
C1314 C170 1.549 . S
C1339 C52 1.547 . S
C1344 C62 1.555 . S
C1369 C151 1.548 . S
C1374 C180 1.557 . S
C1399 C33 1.550 . S
C1404 C182 1.558 . S
