# Generated by pormake.
# Topology fny, (5)-cn, num edge types: 1
# Building blocks:
#     Node 0, Type 0, BuildingBlock: BEQFEK_clean_sbu_0, # of connection points: 5
#     Node 1, Type 0, BuildingBlock: BEQFEK_clean_sbu_0, # of connection points: 5
#     Node 2, Type 0, BuildingBlock: BEQFEK_clean_sbu_0, # of connection points: 5
#     Node 3, Type 0, BuildingBlock: BEQFEK_clean_sbu_0, # of connection points: 5
#     Node 4, Type 0, BuildingBlock: BEQFEK_clean_sbu_0, # of connection points: 5
#     Node 5, Type 0, BuildingBlock: BEQFEK_clean_sbu_0, # of connection points: 5
#     Node 6, Type 0, BuildingBlock: BEQFEK_clean_sbu_0, # of connection points: 5
#     Node 7, Type 0, BuildingBlock: BEQFEK_clean_sbu_0, # of connection points: 5
#     Node 8, Type 0, BuildingBlock: BEQFEK_clean_sbu_0, # of connection points: 5
#     Node 9, Type 0, BuildingBlock: BEQFEK_clean_sbu_0, # of connection points: 5
#     Node 10, Type 0, BuildingBlock: BEQFEK_clean_sbu_0, # of connection points: 5
#     Node 11, Type 0, BuildingBlock: BEQFEK_clean_sbu_0, # of connection points: 5
#     Edge 12, Type (0, 0), BuildingBlock: OJICUG_clean_linker_0, # of connection points: 2
#     Edge 13, Type (0, 0), BuildingBlock: OJICUG_clean_linker_0, # of connection points: 2
#     Edge 14, Type (0, 0), BuildingBlock: OJICUG_clean_linker_0, # of connection points: 2
#     Edge 15, Type (0, 0), BuildingBlock: OJICUG_clean_linker_0, # of connection points: 2
#     Edge 16, Type (0, 0), BuildingBlock: OJICUG_clean_linker_0, # of connection points: 2
#     Edge 17, Type (0, 0), BuildingBlock: OJICUG_clean_linker_0, # of connection points: 2
#     Edge 18, Type (0, 0), BuildingBlock: OJICUG_clean_linker_0, # of connection points: 2
#     Edge 19, Type (0, 0), BuildingBlock: OJICUG_clean_linker_0, # of connection points: 2
#     Edge 20, Type (0, 0), BuildingBlock: OJICUG_clean_linker_0, # of connection points: 2
#     Edge 21, Type (0, 0), BuildingBlock: OJICUG_clean_linker_0, # of connection points: 2
#     Edge 22, Type (0, 0), BuildingBlock: OJICUG_clean_linker_0, # of connection points: 2
#     Edge 23, Type (0, 0), BuildingBlock: OJICUG_clean_linker_0, # of connection points: 2
#     Edge 24, Type (0, 0), BuildingBlock: OJICUG_clean_linker_0, # of connection points: 2
#     Edge 25, Type (0, 0), BuildingBlock: OJICUG_clean_linker_0, # of connection points: 2
#     Edge 26, Type (0, 0), BuildingBlock: OJICUG_clean_linker_0, # of connection points: 2
#     Edge 27, Type (0, 0), BuildingBlock: OJICUG_clean_linker_0, # of connection points: 2
#     Edge 28, Type (0, 0), BuildingBlock: OJICUG_clean_linker_0, # of connection points: 2
#     Edge 29, Type (0, 0), BuildingBlock: OJICUG_clean_linker_0, # of connection points: 2
#     Edge 30, Type (0, 0), BuildingBlock: OJICUG_clean_linker_0, # of connection points: 2
#     Edge 31, Type (0, 0), BuildingBlock: OJICUG_clean_linker_0, # of connection points: 2
#     Edge 32, Type (0, 0), BuildingBlock: OJICUG_clean_linker_0, # of connection points: 2
#     Edge 33, Type (0, 0), BuildingBlock: OJICUG_clean_linker_0, # of connection points: 2
#     Edge 34, Type (0, 0), BuildingBlock: OJICUG_clean_linker_0, # of connection points: 2
#     Edge 35, Type (0, 0), BuildingBlock: OJICUG_clean_linker_0, # of connection points: 2
#     Edge 36, Type (0, 0), BuildingBlock: OJICUG_clean_linker_0, # of connection points: 2
#     Edge 37, Type (0, 0), BuildingBlock: OJICUG_clean_linker_0, # of connection points: 2
#     Edge 38, Type (0, 0), BuildingBlock: OJICUG_clean_linker_0, # of connection points: 2
#     Edge 39, Type (0, 0), BuildingBlock: OJICUG_clean_linker_0, # of connection points: 2
#     Edge 40, Type (0, 0), BuildingBlock: OJICUG_clean_linker_0, # of connection points: 2
#     Edge 41, Type (0, 0), BuildingBlock: OJICUG_clean_linker_0, # of connection points: 2
# Relax obj value: 0.355
# Max RMSD: 0.110
# Mean RMSD: 0.110
data_MOF--net-fny--node1-BEQFEK_clean_sbu_0--edge1-OJICUG_clean_linker_0
_symmetry_space_group_name_H-M    P1
_symmetry_Int_Tables_number       1
_symmetry_cell_setting            triclinic
loop_
_symmetry_equiv_pos_as_xyz
'x, y, z'
_cell_length_a     45.88127
_cell_length_b     45.552959
_cell_length_c     17.955264
_cell_angle_alpha  89.734861
_cell_angle_beta   90.204106
_cell_angle_gamma 119.57883
loop_
_atom_site_label
_atom_site_type_symbol
_atom_site_fract_x
_atom_site_fract_y
_atom_site_fract_z
_atom_type_partial_charge
Co0 Co 0.43505 0.55716 0.28757 0.0
Co1 Co 0.38104 0.50435 0.19665 0.0
C2 C 0.43188 0.56979 0.12409 0.0
O3 O 0.44401 0.57765 0.18889 0.0
O4 O 0.40573 0.54097 0.11355 0.0
C5 C 0.46259 0.62262 0.33978 0.0
O6 O 0.4399 0.62453 0.29844 0.0
C7 C 0.32206 0.46517 0.10455 0.0
C8 C 0.30379 0.41331 0.14718 0.0
C9 C 0.29719 0.43202 0.09614 0.0
N10 N 0.343 0.46625 0.15774 0.0
N11 N 0.33216 0.43519 0.18281 0.0
C12 C 0.3249 0.49556 0.06547 0.0
H13 H 0.33677 0.49808 1.01033 0.0
H14 H 0.34054 0.51871 0.09834 0.0
H15 H 0.29973 0.49274 0.05613 0.0
C16 C 0.37838 0.54888 0.38643 0.0
N17 N 0.39082 0.54164 0.32517 0.0
N18 N 0.36609 0.52004 0.2835 0.0
C19 C 0.33673 0.51355 0.31659 0.0
C20 C 0.34339 0.53203 0.38346 0.0
C21 C 0.39942 0.56897 0.45086 0.0
H22 H 0.42355 0.56893 0.45219 0.0
H23 H 0.40437 0.59524 0.44554 0.0
H24 H 0.38599 0.55857 0.50417 0.0
O25 O 0.45107 0.52381 0.29408 0.0
O26 O 0.41066 0.48423 0.22647 0.0
H27 H 0.29681 0.46406 0.29237 0.0
H28 H 0.28329 0.4946 0.30987 0.0
C29 C 0.30298 0.49066 0.28387 0.0
H30 H 0.30348 0.49522 0.22309 0.0
H31 H 0.34377 0.42902 0.22535 0.0
O32 O 0.46392 0.59544 0.34246 0.0
C33 C 0.43764 0.4948 0.26405 0.0
Co34 Co 0.91945 0.41908 0.78314 0.0
Co35 Co 0.92275 0.36606 0.6981 0.0
C36 C 0.90241 0.4124 0.62083 0.0
O37 O 0.90502 0.42481 0.68476 0.0
O38 O 0.90809 0.38776 0.61291 0.0
C39 C 0.87747 0.44197 0.83491 0.0
O40 O 0.85349 0.41681 0.79774 0.0
C41 C 0.90703 0.30889 0.60512 0.0
C42 C 0.9404 0.29048 0.64828 0.0
C43 C 0.91632 0.28461 0.59503 0.0
N44 N 0.92539 0.32899 0.6605 0.0
N45 N 0.94552 0.31816 0.68603 0.0
C46 C 0.8789 0.31108 0.56791 0.0
H47 H 0.86838 0.32258 0.60606 0.0
H48 H 0.8587 0.28575 0.55077 0.0
H49 H 0.88861 0.32719 0.51746 0.0
C50 C 0.87994 0.36275 0.89427 0.0
N51 N 0.89609 0.3752 0.8286 0.0
N52 N 0.89429 0.35046 0.78837 0.0
C53 C 0.87538 0.321 0.82641 0.0
C54 C 0.86555 0.32769 0.8958 0.0
C55 C 0.87824 0.38385 0.95576 0.0
H56 H 0.89789 0.4106 0.94948 0.0
H57 H 0.85309 0.38166 0.95521 0.0
H58 H 0.88138 0.37446 1.0106 0.0
O59 O 0.9691 0.4401 0.78425 0.0
O60 O 0.97135 0.39951 0.72229 0.0
H61 H 0.84898 0.26652 0.8332 0.0
H62 H 0.85978 0.28417 0.73977 0.0
C63 C 0.86825 0.28722 0.79861 0.0
H64 H 0.89171 0.28582 0.80016 0.0
H65 H 0.96223 0.32924 0.73021 0.0
O66 O 0.90707 0.44641 0.83449 0.0
C67 C 0.98614 0.42808 0.75485 0.0
Co68 Co 0.54252 0.91428 0.31814 0.0
Co69 Co 0.59719 0.9155 0.2257 0.0
C70 C 0.53167 0.89478 0.15442 0.0
O71 O 0.52404 0.90169 0.21688 0.0
O72 O 0.56014 0.89663 0.14635 0.0
C73 C 0.48148 0.86395 0.35857 0.0
O74 O 0.49091 0.84794 0.31238 0.0
C75 C 0.63687 0.89594 0.13876 0.0
C76 C 0.68909 0.93565 0.16158 0.0
C77 C 0.66985 0.90598 0.12312 0.0
N78 N 0.63621 0.91872 0.18405 0.0
N79 N 0.66741 0.94262 0.19741 0.0
C80 C 0.60639 0.86411 0.11475 0.0
H81 H 0.58651 0.85582 0.1577 0.0
H82 H 0.61241 0.84368 0.10442 0.0
H83 H 0.59674 0.86905 0.06218 0.0
C84 C 0.56448 0.87748 0.42768 0.0
N85 N 0.56561 0.89202 0.36068 0.0
N86 N 0.5872 0.88936 0.31776 0.0
C87 C 0.59954 0.87175 0.35519 0.0
C88 C 0.58512 0.86278 0.42679 0.0
C89 C 0.54672 0.8806 0.49416 0.0
H90 H 0.52864 0.88892 0.47874 0.0
H91 H 0.53416 0.85638 0.52503 0.0
H92 H 0.56544 0.90002 0.53189 0.0
O93 O 0.57034 0.96446 0.31804 0.0
O94 O 0.60912 0.96373 0.24581 0.0
H95 H 0.64711 0.89066 0.30156 0.0
H96 H 0.63882 0.85883 0.3703 0.0
C97 C 0.6273 0.86676 0.32589 0.0
H98 H 0.61739 0.84748 0.28122 0.0
H99 H 0.6739 0.96323 0.23223 0.0
O100 O 0.50043 0.89557 0.36887 0.0
C101 C 0.59749 0.98005 0.28089 0.0
Co102 Co 0.67234 0.523 0.82284 0.0
Co103 Co 0.72122 0.56786 0.70928 0.0
C104 C 0.66648 0.49935 0.66086 0.0
O105 O 0.65619 0.49558 0.72789 0.0
O106 O 0.69364 0.52615 0.64278 0.0
C107 C 0.655 0.46839 0.91556 0.0
O108 O 0.67359 0.46207 0.87008 0.0
C109 C 0.77954 0.60474 0.61431 0.0
C110 C 0.79077 0.65741 0.63203 0.0
C111 C 0.80231 0.63803 0.59813 0.0
N112 N 0.75545 0.60428 0.65661 0.0
N113 N 0.76194 0.63575 0.66613 0.0
C114 C 0.78125 0.57395 0.59241 0.0
H115 H 0.77641 0.56976 0.53172 0.0
H116 H 0.76228 0.55143 0.62318 0.0
H117 H 0.80662 0.57752 0.60305 0.0
C118 C 0.73559 0.54397 0.91427 0.0
N119 N 0.71935 0.54275 0.85 0.0
N120 N 0.74162 0.56027 0.79891 0.0
C121 C 0.77284 0.57147 0.82895 0.0
C122 C 0.76994 0.56086 0.90355 0.0
C123 C 0.71993 0.5363 0.98926 0.0
H124 H 0.69646 0.53746 0.987 0.0
H125 H 0.71601 0.51139 1.00769 0.0
H126 H 0.73687 0.5551 0.03061 0.0
O127 O 0.6582 0.55746 0.8257 0.0
O128 O 0.69142 0.58749 0.73372 0.0
H129 H 0.80503 0.6157 0.76623 0.0
H130 H 0.8269 0.60067 0.82567 0.0
C131 C 0.80492 0.59292 0.78856 0.0
H132 H 0.8068 0.5785 0.74109 0.0
H133 H 0.74759 0.64263 0.69899 0.0
O134 O 0.64792 0.4912 0.89897 0.0
C135 C 0.66868 0.5822 0.78085 0.0
Co136 Co 0.18555 0.63425 0.3337 0.0
Co137 Co 0.19571 0.69488 0.24304 0.0
C138 C 0.20729 0.64154 0.17202 0.0
O139 O 0.19909 0.62533 0.23346 0.0
O140 O 0.20846 0.67013 0.16689 0.0
C141 C 0.15147 0.57009 0.39651 0.0
O142 O 0.13123 0.56433 0.33979 0.0
C143 C 0.21913 0.75353 0.14642 0.0
C144 C 0.19083 0.77757 0.18975 0.0
C145 C 0.21314 0.78014 0.13526 0.0
N146 N 0.20066 0.73547 0.20424 0.0
N147 N 0.18362 0.74975 0.22978 0.0
C148 C 0.24343 0.74636 0.10605 0.0
H149 H 0.25316 0.73389 0.14402 0.0
H150 H 0.26469 0.76992 0.08356 0.0
H151 H 0.23033 0.72908 0.05896 0.0
C152 C 0.23395 0.69001 0.44087 0.0
N153 N 0.21618 0.67836 0.37652 0.0
N154 N 0.22036 0.70436 0.33638 0.0
C155 C 0.2413 0.73323 0.37313 0.0
C156 C 0.25071 0.7255 0.44157 0.0
C157 C 0.23594 0.6675 0.49906 0.0
H158 H 0.25462 0.66016 0.48147 0.0
H159 H 0.2438 0.68042 0.55363 0.0
H160 H 0.21138 0.6441 0.50422 0.0
O161 O 0.13894 0.62726 0.32957 0.0
O162 O 0.14627 0.66874 0.25482 0.0
H163 H 0.27044 0.78793 0.37934 0.0
H164 H 0.26011 0.77042 0.28635 0.0
C165 C 0.25095 0.76774 0.34443 0.0
H166 H 0.2285 0.77091 0.34402 0.0
H167 H 0.16711 0.74049 0.27473 0.0
O168 O 0.17972 0.59721 0.39784 0.0
C169 C 0.12708 0.64271 0.29245 0.0
Co170 Co 0.57666 0.16984 0.81645 0.0
Co171 Co 0.52231 0.1694 0.72512 0.0
C172 C 0.5875 0.1882 0.65115 0.0
O173 O 0.59501 0.18137 0.71417 0.0
O174 O 0.55932 0.18723 0.64338 0.0
C175 C 0.63831 0.21934 0.85406 0.0
O176 O 0.6289 0.23543 0.80751 0.0
C177 C 0.48028 0.19078 0.64954 0.0
C178 C 0.42973 0.14582 0.65752 0.0
C179 C 0.4469 0.17886 0.63286 0.0
N180 N 0.48291 0.16616 0.68408 0.0
N181 N 0.45271 0.13925 0.68862 0.0
C182 C 0.50945 0.22467 0.63108 0.0
H183 H 0.53279 0.22776 0.65694 0.0
H184 H 0.50487 0.24508 0.65068 0.0
H185 H 0.51253 0.2272 0.5697 0.0
C186 C 0.55694 0.2084 0.92668 0.0
N187 N 0.55495 0.19355 0.85968 0.0
N188 N 0.53293 0.19618 0.81771 0.0
C189 C 0.52101 0.21387 0.85629 0.0
C190 C 0.53629 0.22316 0.92723 0.0
C191 C 0.57559 0.20557 0.99224 0.0
H192 H 0.59349 0.19723 0.97599 0.0
H193 H 0.58857 0.22993 1.02228 0.0
H194 H 0.55741 0.18624 0.03105 0.0
O195 O 0.54788 0.1195 0.81931 0.0
O196 O 0.50901 0.12047 0.74736 0.0
H197 H 0.48044 0.22416 0.87673 0.0
H198 H 0.5018 0.23921 0.78884 0.0
C199 C 0.49243 0.2183 0.82996 0.0
H200 H 0.47324 0.1949 0.80282 0.0
H201 H 0.4477 0.11652 0.71369 0.0
O202 O 0.61901 0.18786 0.86582 0.0
C203 C 0.52033 0.10392 0.78335 0.0
Co204 Co 0.54566 0.6688 0.73557 0.0
Co205 Co 0.59025 0.71718 0.85076 0.0
C206 C 0.52174 0.66305 0.89599 0.0
O207 O 0.51819 0.65313 0.82883 0.0
O208 O 0.54847 0.6899 0.91539 0.0
C209 C 0.49532 0.65651 0.63403 0.0
O210 O 0.49179 0.67904 0.67237 0.0
C211 C 0.62697 0.77586 0.94653 0.0
C212 C 0.67824 0.78282 0.94208 0.0
C213 C 0.65968 0.79675 0.96911 0.0
N214 N 0.62611 0.7507 0.90677 0.0
N215 N 0.65671 0.75469 0.90509 0.0
C216 C 0.59715 0.78011 0.9609 0.0
H217 H 0.60237 0.80562 0.94343 0.0
H218 H 0.59201 0.77786 1.02162 0.0
H219 H 0.5748 0.76067 0.93078 0.0
C220 C 0.57086 0.73167 0.64311 0.0
N221 N 0.56737 0.71601 0.70936 0.0
N222 N 0.58341 0.73849 0.7609 0.0
C223 C 0.59468 0.76971 0.7296 0.0
C224 C 0.58618 0.76668 0.65298 0.0
C225 C 0.56884 0.71424 0.57175 0.0
H226 H 0.56268 0.68802 0.58313 0.0
H227 H 0.55058 0.71569 0.53339 0.0
H228 H 0.59389 0.72599 0.54528 0.0
O229 O 0.57787 0.65252 0.7343 0.0
O230 O 0.60826 0.68533 0.82666 0.0
H231 H 0.63128 0.82295 0.72875 0.0
H232 H 0.60221 0.80864 0.80583 0.0
C233 C 0.61736 0.80201 0.76879 0.0
H234 H 0.63573 0.79891 0.80313 0.0
H235 H 0.66322 0.73892 0.87635 0.0
O236 O 0.51388 0.64537 0.65889 0.0
C237 C 0.60199 0.66196 0.77984 0.0
Co238 Co 0.92086 0.52447 0.22323 0.0
Co239 Co 0.91582 0.56941 0.3348 0.0
C240 C 0.901 0.50122 0.38498 0.0
O241 O 0.90841 0.49759 0.31869 0.0
O242 O 0.90029 0.52808 0.4025 0.0
C243 C 0.88389 0.47092 0.1305 0.0
O244 O 0.85884 0.46624 0.1735 0.0
C245 C 0.89996 0.6085 0.43837 0.0
C246 C 0.93296 0.66036 0.39609 0.0
C247 C 0.90897 0.64197 0.44898 0.0
N248 N 0.91834 0.6071 0.3825 0.0
N249 N 0.9384 0.63814 0.35809 0.0
C250 C 0.87155 0.57811 0.47406 0.0
H251 H 0.86351 0.55547 0.43875 0.0
H252 H 0.84995 0.58225 0.48362 0.0
H253 H 0.87991 0.57362 0.52889 0.0
C254 C 0.88019 0.54718 0.12887 0.0
N255 N 0.89487 0.54557 0.1933 0.0
N256 N 0.88872 0.56199 0.24481 0.0
C257 C 0.86766 0.57228 0.21552 0.0
C258 C 0.861 0.56258 0.14029 0.0
C259 C 0.89045 0.54226 0.05366 0.0
H260 H 0.9148 0.54289 0.05756 0.0
H261 H 0.8703 0.51847 0.0299 0.0
H262 H 0.89347 0.56287 1.0156 0.0
O263 O 0.96903 0.55687 0.22331 0.0
O264 O 0.96518 0.5864 0.31597 0.0
H265 H 0.87523 0.61805 0.26455 0.0
H266 H 0.83341 0.59154 0.22866 0.0
C267 C 0.85476 0.59159 0.25807 0.0
H268 H 0.84696 0.58058 0.3146 0.0
H269 H 0.95476 0.64397 0.3132 0.0
O270 O 0.9136 0.4918 0.14979 0.0
C271 C 0.98285 0.58034 0.27071 0.0
Co272 Co 0.44072 0.88706 0.7474 0.0
Co273 Co 0.39003 0.8954 0.83235 0.0
C274 C 0.44328 0.87859 0.90359 0.0
O275 O 0.4529 0.87469 0.8402 0.0
O276 O 0.41994 0.88644 0.90865 0.0
C277 C 0.46855 0.85874 0.65024 0.0
O278 O 0.4666 0.83677 0.70042 0.0
C279 C 0.32851 0.86735 0.91471 0.0
C280 C 0.31919 0.91047 0.92478 0.0
C281 C 0.30587 0.87653 0.94087 0.0
N282 N 0.35379 0.89438 0.88274 0.0
N283 N 0.34823 0.92015 0.8886 0.0
C284 C 0.32753 0.83418 0.92397 0.0
H285 H 0.35225 0.83668 0.91058 0.0
H286 H 0.30849 0.81527 0.88599 0.0
H287 H 0.32027 0.82477 0.98187 0.0
C288 C 0.37694 0.83047 0.67118 0.0
N289 N 0.39364 0.85657 0.71951 0.0
N290 N 0.37205 0.8642 0.74844 0.0
C291 C 0.34187 0.84557 0.71375 0.0
C292 C 0.34402 0.82363 0.6623 0.0
C293 C 0.38748 0.80522 0.65134 0.0
H294 H 0.39536 0.80819 0.5925 0.0
H295 H 0.40706 0.80696 0.68961 0.0
H296 H 0.36585 0.77923 0.65648 0.0
O297 O 0.45762 0.93824 0.75121 0.0
O298 O 0.41602 0.94262 0.79963 0.0
H299 H 0.31935 0.87467 0.7508 0.0
H300 H 0.298 0.84624 0.67396 0.0
C301 C 0.31184 0.84952 0.7269 0.0
H302 H 0.29467 0.82969 0.76616 0.0
H303 H 0.36415 0.9443 0.86776 0.0
O304 O 0.4681 0.88509 0.66975 0.0
C305 C 0.44507 0.95645 0.77156 0.0
Co306 Co 0.56656 0.40877 0.26294 0.0
Co307 Co 0.51194 0.35714 0.35199 0.0
C308 C 0.57749 0.40713 0.42755 0.0
O309 O 0.58701 0.41785 0.36222 0.0
O310 O 0.54786 0.38213 0.43688 0.0
C311 C 0.63118 0.43251 0.20963 0.0
O312 O 0.63101 0.40746 0.24651 0.0
C313 C 0.4729 0.30032 0.44906 0.0
C314 C 0.42117 0.28111 0.40739 0.0
C315 C 0.43999 0.27559 0.46002 0.0
N316 N 0.47365 0.32022 0.39342 0.0
N317 N 0.44269 0.30892 0.36894 0.0
C318 C 0.50354 0.30327 0.48602 0.0
H319 H 0.52542 0.31581 0.44817 0.0
H320 H 0.49965 0.27806 0.50247 0.0
H321 H 0.50892 0.3188 0.537 0.0
C322 C 0.55182 0.35012 0.15858 0.0
N323 N 0.54805 0.36379 0.22261 0.0
N324 N 0.52585 0.33979 0.26511 0.0
C325 C 0.5159 0.3096 0.23049 0.0
C326 C 0.53215 0.3148 0.16078 0.0
C327 C 0.57266 0.37049 0.09398 0.0
H328 H 0.58516 0.39773 0.10532 0.0
H329 H 0.59125 0.36257 0.07944 0.0
H330 H 0.55652 0.36641 0.04483 0.0
O331 O 0.53602 0.42815 0.2555 0.0
O332 O 0.49401 0.38836 0.31958 0.0
H333 H 0.48396 0.2553 0.22333 0.0
H334 H 0.49668 0.27223 0.31655 0.0
C335 C 0.48909 0.27663 0.26069 0.0
H336 H 0.46571 0.27785 0.26771 0.0
H337 H 0.43638 0.31966 0.32469 0.0
O338 O 0.60559 0.43638 0.21032 0.0
C339 C 0.50678 0.41604 0.28302 0.0
Co340 Co 0.19768 0.57317 0.73608 0.0
Co341 Co 0.19607 0.51146 0.80766 0.0
C342 C 0.2115 0.57344 0.89977 0.0
O343 O 0.21034 0.58769 0.83993 0.0
O344 O 0.20641 0.5432 0.89794 0.0
C345 C 0.18045 0.61771 0.65417 0.0
O346 O 0.1833 0.64759 0.64369 0.0
C347 C 0.21288 0.46879 0.89701 0.0
C348 C 0.18541 0.41943 0.84013 0.0
C349 C 0.20591 0.43565 0.90022 0.0
N350 N 0.19667 0.4721 0.83845 0.0
N351 N 0.18001 0.44252 0.80487 0.0
C352 C 0.23666 0.49754 0.945 0.0
H353 H 0.24912 0.52116 0.91169 0.0
H354 H 0.25596 0.49257 0.96994 0.0
H355 H 0.2224 0.50102 0.99063 0.0
C356 C 0.2467 0.566 0.62848 0.0
N357 N 0.22675 0.5577 0.6899 0.0
N358 N 0.22542 0.53091 0.72122 0.0
C359 C 0.24411 0.5212 0.68041 0.0
C360 C 0.25812 0.54269 0.61876 0.0
C361 C 0.25358 0.59488 0.57769 0.0
H362 H 0.24914 0.58623 0.51894 0.0
H363 H 0.23791 0.60629 0.59204 0.0
H364 H 0.28021 0.6147 0.58321 0.0
O365 O 0.14787 0.53833 0.7366 0.0
O366 O 0.14823 0.49323 0.78055 0.0
H367 H 0.22727 0.46837 0.68578 0.0
H368 H 0.27202 0.49442 0.67396 0.0
C369 C 0.2496 0.49251 0.70179 0.0
H370 H 0.25306 0.49239 0.76286 0.0
H371 H 0.16533 0.43821 0.75728 0.0
O372 O 0.20164 0.61546 0.69599 0.0
C373 C 0.13225 0.50724 0.75505 0.0
Co374 Co 0.68095 0.1976 0.24317 0.0
Co375 Co 0.72886 0.18468 0.33001 0.0
C376 C 0.67774 0.20443 0.40166 0.0
O377 O 0.66947 0.21 0.33789 0.0
O378 O 0.70019 0.1953 0.40706 0.0
C379 C 0.65723 0.23045 0.14601 0.0
O380 O 0.66405 0.25451 0.19447 0.0
C381 C 0.79277 0.20572 0.40221 0.0
C382 C 0.7914 0.157 0.42167 0.0
C383 C 0.81153 0.19154 0.42807 0.0
N384 N 0.76313 0.18075 0.37942 0.0
N385 N 0.76237 0.15166 0.39103 0.0
C386 C 0.80161 0.24205 0.40384 0.0
H387 H 0.7793 0.24465 0.39092 0.0
H388 H 0.82139 0.25662 0.36226 0.0
H389 H 0.81164 0.25287 0.45951 0.0
C390 C 0.7455 0.2463 0.1564 0.0
N391 N 0.72851 0.22438 0.21298 0.0
N392 N 0.74795 0.21384 0.24222 0.0
C393 C 0.77637 0.226 0.20014 0.0
C394 C 0.77571 0.24687 0.14307 0.0
C395 C 0.74017 0.27485 0.13264 0.0
H396 H 0.73208 0.27198 0.07386 0.0
H397 H 0.72262 0.27741 0.17008 0.0
H398 H 0.76433 0.29894 0.13519 0.0
O399 O 0.66086 0.14589 0.24406 0.0
O400 O 0.70021 0.13878 0.2973 0.0
H401 H 0.79224 0.19165 0.24132 0.0
H402 H 0.81182 0.21304 0.15494 0.0
C403 C 0.80248 0.21575 0.21 0.0
H404 H 0.82406 0.2357 0.24105 0.0
H405 H 0.74214 0.1281 0.37762 0.0
O406 O 0.65469 0.20277 0.16684 0.0
C407 C 0.67193 0.12653 0.26608 0.0
C408 C 0.4468 0.58599 0.98683 0.0
C409 C 0.4511 0.59466 0.06272 0.0
H410 H 0.46526 0.60056 0.87514 0.0
C411 C 0.4771 0.62738 0.08176 0.0
H412 H 0.42734 0.56122 0.96959 0.0
C413 C 0.499 0.64991 0.02792 0.0
C414 C 0.49577 0.6408 0.95251 0.0
H415 H 0.48135 0.63545 0.13934 0.0
H416 H 0.51914 0.67417 0.04595 0.0
C417 C 0.46878 0.60872 0.93261 0.0
C418 C 0.88801 0.45589 0.57245 0.0
C419 C 0.89659 0.43062 0.55694 0.0
H420 H 0.8826 0.49745 0.53223 0.0
C421 C 0.90343 0.42685 0.48239 0.0
H422 H 0.88235 0.45976 0.62887 0.0
C423 C 0.90334 0.44872 0.42628 0.0
C424 C 0.89656 0.47516 0.44292 0.0
H425 H 0.91031 0.40803 0.46787 0.0
H426 H 0.90993 0.44568 0.37012 0.0
C427 C 0.88814 0.47777 0.51675 0.0
C428 C 0.51354 0.87885 1.01987 0.0
C429 C 0.50736 0.88691 0.09128 0.0
H430 H 0.49803 0.86917 0.90589 0.0
C431 C 0.47798 0.88924 0.10171 0.0
H432 H 0.53564 0.87669 1.00944 0.0
C433 C 0.45635 0.88518 0.04209 0.0
C434 C 0.46315 0.87832 0.97009 0.0
H435 H 0.47209 0.89526 0.15589 0.0
H436 H 0.43484 0.88841 0.0521 0.0
C437 C 0.49172 0.87446 0.96039 0.0
C438 C 0.59109 0.42357 0.56575 0.0
C439 C 0.60105 0.42727 0.4906 0.0
H440 H 0.60352 0.44277 0.67764 0.0
C441 C 0.63382 0.45362 0.47369 0.0
H442 H 0.56624 0.40399 0.58162 0.0
C443 C 0.65517 0.4761 0.52851 0.0
C444 C 0.6449 0.47324 0.60313 0.0
H445 H 0.64291 0.45766 0.4169 0.0
H446 H 0.67958 0.4963 0.51181 0.0
C447 C 0.61264 0.44609 0.62098 0.0
C448 C 0.20737 0.59207 0.1067 0.0
C449 C 0.21267 0.6254 0.10431 0.0
H450 H 0.20311 0.54957 0.04525 0.0
C451 C 0.22074 0.64212 0.03513 0.0
H452 H 0.20112 0.57821 0.15878 0.0
C453 C 0.222 0.62569 0.97018 0.0
C454 C 0.21517 0.59185 0.97173 0.0
H455 H 0.22514 0.6677 0.03053 0.0
H456 H 0.22733 0.63938 0.91798 0.0
C457 C 0.2086 0.57554 0.04143 0.0
C458 C 0.66278 0.19617 0.54004 0.0
C459 C 0.65709 0.20414 0.46768 0.0
H460 H 0.64604 0.1854 0.65325 0.0
C461 C 0.62885 0.2086 0.45707 0.0
H462 H 0.68386 0.1923 0.55105 0.0
C463 C 0.60659 0.20415 0.51582 0.0
C464 C 0.61187 0.19538 0.58776 0.0
H465 H 0.6232 0.21459 0.40235 0.0
H466 H 0.58495 0.20704 0.50447 0.0
C467 C 0.64074 0.19208 0.59889 0.0
C468 C 0.65877 0.42786 0.09659 0.0
C469 C 0.65321 0.44823 0.14661 0.0
H470 H 0.66326 0.41811 0.98128 0.0
C471 C 0.65366 0.47739 0.12087 0.0
H472 H 0.65863 0.40519 0.11559 0.0
C473 C 0.64962 0.48066 0.04605 0.0
C474 C 0.65324 0.45962 0.99442 0.0
H475 H 0.65006 0.49376 0.15892 0.0
H476 H 0.64458 0.50056 0.02902 0.0
C477 C 0.65964 0.43417 1.02006 0.0
C478 C 0.1207 0.57454 0.49978 0.0
C479 C 0.13698 0.55803 0.46984 0.0
H480 H 0.1237 0.60904 0.58399 0.0
C481 C 0.15518 0.54876 0.51744 0.0
H482 H 0.10546 0.58095 0.46438 0.0
C483 C 0.1654 0.56462 0.58607 0.0
C484 C 0.15707 0.58918 0.60722 0.0
H485 H 0.16712 0.53507 0.49621 0.0
H486 H 0.18352 0.56116 0.6165 0.0
C487 C 0.13169 0.59123 0.56777 0.0
C488 C 0.6761 0.21999 0.02572 0.0
C489 C 0.66405 0.23809 0.06675 0.0
H490 H 0.68162 0.20365 0.91874 0.0
C491 C 0.65788 0.26169 0.03034 0.0
H492 H 0.68346 0.20331 0.05271 0.0
C493 C 0.65684 0.26168 0.95254 0.0
C494 C 0.66193 0.23796 0.91302 0.0
H495 H 0.65006 0.27698 0.06124 0.0
H496 H 0.64644 0.27568 0.92506 0.0
C497 C 0.67634 0.22106 0.94892 0.0
C498 C 0.50852 0.64442 0.50943 0.0
C499 C 0.48905 0.65342 0.55388 0.0
H500 H 0.52007 0.6352 0.40131 0.0
C501 C 0.46665 0.66199 0.51993 0.0
H502 H 0.52627 0.63779 0.533 0.0
C503 C 0.46111 0.65755 0.44312 0.0
C504 C 0.47891 0.64567 0.40108 0.0
H505 H 0.45203 0.66985 0.553 0.0
H506 H 0.44059 0.65965 0.41872 0.0
C507 C 0.50549 0.64353 0.43334 0.0
C508 C 0.84683 0.44103 1.02151 0.0
C509 C 0.87831 0.46417 0.05086 0.0
H510 H 0.82052 0.41554 0.92215 0.0
C511 C 0.90423 0.48541 1.00237 0.0
H512 H 0.82621 0.42497 0.05786 0.0
C513 C 0.89837 0.48494 0.92731 0.0
C514 C 0.87011 0.45722 0.89758 0.0
H515 H 0.92891 0.50373 1.02223 0.0
H516 H 0.91915 0.50172 0.89188 0.0
C517 C 0.84294 0.43686 0.94426 0.0
C518 C 0.44365 0.86183 0.45369 0.0
C519 C 0.45864 0.84539 0.41882 0.0
H520 H 0.43762 0.88116 0.55594 0.0
C521 C 0.46563 0.82331 0.46036 0.0
H522 H 0.43673 0.87779 0.42198 0.0
C523 C 0.46648 0.82528 0.53804 0.0
C524 C 0.46012 0.84908 0.57224 0.0
H525 H 0.47627 0.80944 0.43378 0.0
H526 H 0.47584 0.81143 0.56996 0.0
C527 C 0.44551 0.86473 0.5303 0.0
C528 C 0.24593 0.41539 0.92472 0.0
C529 C 0.22136 0.42238 0.95146 0.0
H530 H 0.29016 0.41286 0.95217 0.0
C531 C 0.21766 0.42478 0.02826 0.0
H532 H 0.24932 0.41402 0.86539 0.0
C533 C 0.24061 0.42374 0.07753 0.0
C534 C 0.26741 0.42054 0.04999 0.0
H535 H 0.19899 0.43059 0.04937 0.0
H536 H 0.23941 0.42883 0.13602 0.0
C537 C 0.26918 0.41477 0.97402 0.0
C538 C 0.87647 0.22425 0.5773 0.0
C539 C 0.89911 0.25557 0.54603 0.0
H540 H 0.82987 0.1785 0.56233 0.0
C541 C 0.89721 0.26158 0.47009 0.0
H542 H 0.87753 0.21949 0.63616 0.0
C543 C 0.86999 0.23848 0.42838 0.0
C544 C 0.84465 0.20942 0.46265 0.0
H545 H 0.91457 0.28575 0.44543 0.0
H546 H 0.86725 0.24475 0.37146 0.0
C547 C 0.84917 0.20106 0.5354 0.0
C548 C 0.68734 0.86303 0.11592 0.0
C549 C 0.68087 0.88647 0.07931 0.0
H550 H 0.68554 0.81515 0.10796 0.0
C551 C 0.67405 0.88343 1.00283 0.0
H552 H 0.69184 0.86475 0.17545 0.0
C553 C 0.67011 0.85518 0.96488 0.0
C554 C 0.67285 0.82984 1.0034 0.0
H555 H 0.66836 0.90104 0.97438 0.0
H556 H 0.66222 0.85176 0.9071 0.0
C557 C 0.68338 0.83465 0.0778 0.0
C558 C 0.84169 0.66151 0.49271 0.0
C559 C 0.83544 0.65023 0.56655 0.0
H560 H 0.87197 0.66868 0.39651 0.0
C561 C 0.85863 0.6446 0.60596 0.0
H562 H 0.82379 0.66585 0.46196 0.0
C563 C 0.88583 0.64606 0.56895 0.0
C564 C 0.88998 0.6535 0.49277 0.0
H565 H 0.85398 0.63601 0.66329 0.0
H566 H 0.90164 0.63821 0.59781 0.0
C567 C 0.86918 0.66331 0.45573 0.0
C568 C 0.24833 0.84062 0.10337 0.0
C569 C 0.22936 0.807 0.08015 0.0
H570 H 0.28829 0.88994 0.07514 0.0
C571 C 0.23052 0.79847 1.00584 0.0
H572 H 0.24749 0.8475 0.16068 0.0
C573 C 0.2535 0.82251 0.95737 0.0
C574 C 0.27552 0.85509 0.98318 0.0
H575 H 0.21545 0.77267 0.98692 0.0
H576 H 0.25572 0.81502 0.90144 0.0
C577 C 0.27151 0.86474 0.05473 0.0
C578 C 0.43845 0.22814 0.62903 0.0
C579 C 0.43311 0.19802 0.59638 0.0
H580 H 0.44418 0.27705 0.60951 0.0
C581 C 0.42147 0.19042 0.5229 0.0
H582 H 0.44723 0.23413 0.68602 0.0
C583 C 0.41935 0.21479 0.47943 0.0
C584 C 0.42899 0.24662 0.5097 0.0
H585 H 0.41741 0.16724 0.4971 0.0
H586 H 0.41383 0.21013 0.42055 0.0
C587 C 0.43655 0.25249 0.58565 0.0
C588 C 0.81929 0.59376 0.99463 0.0
C589 C 0.79548 0.56317 0.96095 0.0
H590 H 0.85802 0.61797 0.07867 0.0
C591 C 0.79277 0.53313 0.9899 0.0
H592 H 0.82167 0.61739 0.97529 0.0
C593 C 0.81331 0.53345 0.04877 0.0
C594 C 0.83705 0.56376 0.08298 0.0
H595 H 0.77443 0.50904 0.96683 0.0
H596 H 0.81059 0.50961 0.06778 0.0
C597 C 0.83972 0.59405 0.05497 0.0
C598 C 0.30728 0.77404 0.48087 0.0
C599 C 0.27413 0.75004 0.49974 0.0
H600 H 0.35442 0.81565 0.51568 0.0
C601 C 0.26355 0.75099 0.57313 0.0
H602 H 0.31644 0.77435 0.42518 0.0
C603 C 0.28544 0.77522 0.62556 0.0
C604 C 0.3188 0.79895 0.60657 0.0
H605 H 0.23815 0.73318 0.58981 0.0
H606 H 0.27645 0.77487 0.6814 0.0
C607 C 0.32914 0.79782 0.53315 0.0
C608 C 0.53292 0.26079 0.12069 0.0
C609 C 0.53008 0.28941 0.10173 0.0
H610 H 0.5354 0.21723 0.08418 0.0
C611 C 0.5272 0.29441 0.02477 0.0
H612 H 0.53519 0.25555 0.17865 0.0
C613 C 0.52888 0.27309 0.96958 0.0
C614 C 0.53255 0.2449 0.98817 0.0
H615 H 0.52335 0.31482 1.00633 0.0
H616 H 0.52791 0.27927 0.91169 0.0
C617 C 0.53381 0.23894 0.06545 0.0
C618 C 0.32744 0.56598 0.47088 0.0
C619 C 0.31986 0.53451 0.4399 0.0
H620 H 0.31523 0.59331 0.55056 0.0
C621 C 0.29087 0.50586 0.46677 0.0
H622 H 0.34909 0.58885 0.45152 0.0
C623 C 0.27081 0.50857 0.52334 0.0
C624 C 0.27894 0.54001 0.55563 0.0
H625 H 0.28406 0.4811 0.44543 0.0
H626 H 0.24882 0.48582 0.54202 0.0
C627 C 0.30752 0.56867 0.52749 0.0
C628 C 0.83482 0.28503 0.08892 0.0
C629 C 0.79986 0.26507 0.07879 0.0
H630 H 0.88268 0.32022 0.04038 0.0
C631 C 0.78743 0.26417 1.00608 0.0
H632 H 0.84558 0.28679 0.14359 0.0
C633 C 0.80879 0.28296 0.94652 0.0
C634 C 0.84352 0.30388 0.9572 0.0
H635 H 0.76082 0.24902 0.99518 0.0
H636 H 0.79789 0.282 0.89237 0.0
C637 C 0.85617 0.30434 0.02944 0.0
C638 C 0.58741 0.84527 0.56347 0.0
C639 C 0.58859 0.84032 0.48595 0.0
H640 H 0.5846 0.82641 0.67492 0.0
C641 C 0.59142 0.81212 0.46494 0.0
H642 H 0.58627 0.86694 0.58379 0.0
C643 C 0.59272 0.78987 0.51807 0.0
C644 C 0.58982 0.79357 0.59562 0.0
H645 H 0.59188 0.80652 0.40659 0.0
H646 H 0.59601 0.76985 0.49621 0.0
C647 C 0.58744 0.82217 0.61682 0.0
C648 C 0.48999 0.49009 0.27336 0.0
C649 C 0.45479 0.47411 0.26929 0.0
H650 H 0.53373 0.48448 0.27867 0.0
C651 C 0.43665 0.43855 0.26884 0.0
H652 H 0.50482 0.51738 0.2733 0.0
C653 C 0.4533 0.41956 0.27397 0.0
C654 C 0.48856 0.43566 0.27685 0.0
H655 H 0.40954 0.4254 0.26572 0.0
H656 H 0.4386 0.39226 0.27468 0.0
C657 C 0.50661 0.47118 0.27591 0.0
C658 C 0.07832 0.45172 0.74737 0.0
C659 C 0.09487 0.48723 0.75128 0.0
H660 H 1.03133 0.40535 0.74445 0.0
C661 C 0.07525 0.50306 0.75614 0.0
H662 H 0.0926 0.43866 0.74362 0.0
C663 C 1.04008 0.48385 0.75881 0.0
C664 C 1.02355 0.44834 0.75475 0.0
H665 H 0.08709 0.53029 0.75973 0.0
H666 H 1.02579 0.49688 0.76315 0.0
C667 C 1.04316 0.43258 0.74804 0.0
C668 C 0.66783 0.0701 0.25252 0.0
C669 C 0.65153 0.08912 0.26157 0.0
H670 H 0.6637 1.02121 0.2512 0.0
C671 C 0.61691 0.07194 0.27631 0.0
H672 H 0.69453 0.08257 0.24182 0.0
C673 C 0.59927 1.03654 0.28401 0.0
C674 C 0.61579 1.01762 0.27551 0.0
H675 H 0.60379 0.08593 0.28485 0.0
H676 H 0.57272 1.02398 0.29629 0.0
C677 C 0.65017 1.03489 0.25845 0.0
C678 C 0.63097 0.63531 0.71357 0.0
C679 C 0.62162 0.64409 0.78071 0.0
H680 H 0.65412 0.60972 0.6613 0.0
C681 C 0.62896 0.6334 0.84828 0.0
H682 H 0.6255 0.64314 0.66073 0.0
C683 C 0.64421 0.61321 0.84852 0.0
C684 C 0.6535 0.60438 0.7813 0.0
H685 H 0.62173 0.63956 0.90078 0.0
H686 H 0.64879 0.60453 0.90124 0.0
C687 C 0.64733 0.61622 0.71393 0.0
C688 C 0.07019 0.61622 0.35202 0.0
C689 C 0.09034 0.62884 0.28825 0.0
H690 H 1.02023 0.5921 0.39658 0.0
C691 C 0.07495 0.62688 0.21917 0.0
H692 H 0.08144 0.61746 0.40589 0.0
C693 C 1.03999 0.61142 0.21347 0.0
C694 C 1.01984 0.59885 0.27719 0.0
H695 H 0.08991 0.63622 0.16907 0.0
H696 H 1.02866 0.60918 0.15923 0.0
C697 C 1.03527 0.60193 0.34673 0.0
C698 C 0.49998 1.01157 0.77981 0.0
C699 C 0.46499 0.99421 0.76918 0.0
H700 H 0.54474 0.05955 0.79496 0.0
C701 C 0.44859 1.01335 0.76351 0.0
H702 H 0.51338 0.99767 0.78549 0.0
C703 C 0.46657 0.04874 0.76781 0.0
C704 C 0.50142 0.06613 0.78023 0.0
H705 H 0.42167 1.0009 0.75587 0.0
H706 H 0.453 0.06251 0.76266 0.0
C707 C 0.5179 0.04704 0.78621 0.0
loop_
_geom_bond_atom_site_label_1
_geom_bond_atom_site_label_2
_geom_bond_distance
_geom_bond_site_symmetry_2
_ccdc_geom_bond_type
Co0 O3 1.970 . S
Co0 N17 1.989 . S
Co0 O25 1.967 . S
Co0 O32 1.920 . S
Co1 O4 1.966 . S
Co1 N10 2.022 . S
Co1 N18 1.993 . S
Co1 O26 1.941 . S
C2 O3 1.258 . S
C2 O4 1.263 . S
O3 Co0 1.970 . S
O3 C2 1.258 . S
O4 Co1 1.966 . S
O4 C2 1.263 . S
C5 O6 1.235 . S
C5 O32 1.289 . S
O6 C5 1.235 . S
C7 C9 1.400 . S
C7 N10 1.351 . S
C7 C12 1.501 . S
C8 C9 1.387 . S
C8 N11 1.341 . S
C9 C7 1.400 . S
C9 C8 1.387 . S
N10 Co1 2.022 . S
N10 C7 1.351 . S
N10 N11 1.365 . S
N11 C8 1.341 . S
N11 N10 1.365 . S
N11 H31 0.862 . S
C12 C7 1.501 . S
C12 H13 0.961 . S
C12 H14 0.961 . S
C12 H15 0.960 1_554 S
H13 C12 0.961 . S
H14 C12 0.961 . S
H15 C12 0.960 1_556 S
C16 N17 1.342 . S
C16 C20 1.401 . S
C16 C21 1.499 . S
N17 Co0 1.989 . S
N17 C16 1.342 . S
N17 N18 1.388 . S
N18 Co1 1.993 . S
N18 N17 1.388 . S
N18 C19 1.346 . S
C19 N18 1.346 . S
C19 C20 1.396 . S
C19 C29 1.510 . S
C20 C16 1.401 . S
C20 C19 1.396 . S
C21 C16 1.499 . S
C21 H22 0.959 . S
C21 H23 0.960 . S
C21 H24 0.961 . S
H22 C21 0.959 . S
H23 C21 0.960 . S
H24 C21 0.961 . S
O25 Co0 1.967 . S
O25 C33 1.258 . S
O26 Co1 1.941 . S
O26 C33 1.266 . S
H27 C29 0.959 . S
H28 C29 0.961 . S
C29 C19 1.510 . S
C29 H27 0.959 . S
C29 H28 0.961 . S
C29 H30 0.960 . S
H30 C29 0.960 . S
H31 N11 0.862 . S
O32 Co0 1.920 . S
O32 C5 1.289 . S
C33 O25 1.258 . S
C33 O26 1.266 . S
Co34 O37 1.970 . S
Co34 N51 1.989 . S
Co34 O59 1.967 . S
Co34 O66 1.920 . S
Co35 O38 1.966 . S
Co35 N44 2.022 . S
Co35 N52 1.993 . S
Co35 O60 1.941 . S
C36 O37 1.258 . S
C36 O38 1.263 . S
O37 Co34 1.970 . S
O37 C36 1.258 . S
O38 Co35 1.966 . S
O38 C36 1.263 . S
C39 O40 1.235 . S
C39 O66 1.289 . S
O40 C39 1.235 . S
C41 C43 1.400 . S
C41 N44 1.351 . S
C41 C46 1.501 . S
C42 C43 1.387 . S
C42 N45 1.341 . S
C43 C41 1.400 . S
C43 C42 1.387 . S
N44 Co35 2.022 . S
N44 C41 1.351 . S
N44 N45 1.365 . S
N45 C42 1.341 . S
N45 N44 1.365 . S
N45 H65 0.862 . S
C46 C41 1.501 . S
C46 H47 0.961 . S
C46 H48 0.961 . S
C46 H49 0.960 . S
H47 C46 0.961 . S
H48 C46 0.961 . S
H49 C46 0.960 . S
C50 N51 1.342 . S
C50 C54 1.401 . S
C50 C55 1.499 . S
N51 Co34 1.989 . S
N51 C50 1.342 . S
N51 N52 1.388 . S
N52 Co35 1.993 . S
N52 N51 1.388 . S
N52 C53 1.346 . S
C53 N52 1.346 . S
C53 C54 1.396 . S
C53 C63 1.510 . S
C54 C50 1.401 . S
C54 C53 1.396 . S
C55 C50 1.499 . S
C55 H56 0.959 . S
C55 H57 0.960 . S
C55 H58 0.961 . S
H56 C55 0.959 . S
H57 C55 0.960 . S
H58 C55 0.961 . S
O59 Co34 1.967 . S
O59 C67 1.258 . S
O60 Co35 1.941 . S
O60 C67 1.266 . S
H61 C63 0.959 . S
H62 C63 0.961 . S
C63 C53 1.510 . S
C63 H61 0.959 . S
C63 H62 0.961 . S
C63 H64 0.960 . S
H64 C63 0.960 . S
H65 N45 0.862 . S
O66 Co34 1.920 . S
O66 C39 1.289 . S
C67 O59 1.258 . S
C67 O60 1.266 . S
Co68 O71 1.970 . S
Co68 N85 1.989 . S
Co68 O93 1.967 . S
Co68 O100 1.920 . S
Co69 O72 1.966 . S
Co69 N78 2.022 . S
Co69 N86 1.993 . S
Co69 O94 1.941 . S
C70 O71 1.258 . S
C70 O72 1.263 . S
O71 Co68 1.970 . S
O71 C70 1.258 . S
O72 Co69 1.966 . S
O72 C70 1.263 . S
C73 O74 1.235 . S
C73 O100 1.289 . S
O74 C73 1.235 . S
C75 C77 1.400 . S
C75 N78 1.351 . S
C75 C80 1.501 . S
C76 C77 1.387 . S
C76 N79 1.341 . S
C77 C75 1.400 . S
C77 C76 1.387 . S
N78 Co69 2.022 . S
N78 C75 1.351 . S
N78 N79 1.365 . S
N79 C76 1.341 . S
N79 N78 1.365 . S
N79 H99 0.862 . S
C80 C75 1.501 . S
C80 H81 0.961 . S
C80 H82 0.961 . S
C80 H83 0.960 1_554 S
H81 C80 0.961 . S
H82 C80 0.961 . S
H83 C80 0.960 1_556 S
C84 N85 1.342 . S
C84 C88 1.401 . S
C84 C89 1.499 . S
N85 Co68 1.989 . S
N85 C84 1.342 . S
N85 N86 1.388 . S
N86 Co69 1.993 . S
N86 N85 1.388 . S
N86 C87 1.346 . S
C87 N86 1.346 . S
C87 C88 1.396 . S
C87 C97 1.510 . S
C88 C84 1.401 . S
C88 C87 1.396 . S
C89 C84 1.499 . S
C89 H90 0.959 . S
C89 H91 0.960 . S
C89 H92 0.961 . S
H90 C89 0.959 . S
H91 C89 0.960 . S
H92 C89 0.961 . S
O93 Co68 1.967 . S
O93 C101 1.258 . S
O94 Co69 1.941 . S
O94 C101 1.266 . S
H95 C97 0.959 . S
H96 C97 0.961 . S
C97 C87 1.510 . S
C97 H95 0.959 . S
C97 H96 0.961 . S
C97 H98 0.960 . S
H98 C97 0.960 . S
H99 N79 0.862 . S
O100 Co68 1.920 . S
O100 C73 1.289 . S
C101 O93 1.258 . S
C101 O94 1.266 . S
Co102 O105 1.970 . S
Co102 N119 1.989 . S
Co102 O127 1.967 . S
Co102 O134 1.920 . S
Co103 O106 1.966 . S
Co103 N112 2.022 . S
Co103 N120 1.993 . S
Co103 O128 1.941 . S
C104 O105 1.258 . S
C104 O106 1.263 . S
O105 Co102 1.970 . S
O105 C104 1.258 . S
O106 Co103 1.966 . S
O106 C104 1.263 . S
C107 O108 1.235 . S
C107 O134 1.289 . S
O108 C107 1.235 . S
C109 C111 1.400 . S
C109 N112 1.351 . S
C109 C114 1.501 . S
C110 C111 1.387 . S
C110 N113 1.341 . S
C111 C109 1.400 . S
C111 C110 1.387 . S
N112 Co103 2.022 . S
N112 C109 1.351 . S
N112 N113 1.365 . S
N113 C110 1.341 . S
N113 N112 1.365 . S
N113 H133 0.862 . S
C114 C109 1.501 . S
C114 H115 0.961 . S
C114 H116 0.961 . S
C114 H117 0.960 . S
H115 C114 0.961 . S
H116 C114 0.961 . S
H117 C114 0.960 . S
C118 N119 1.342 . S
C118 C122 1.401 . S
C118 C123 1.499 . S
N119 Co102 1.989 . S
N119 C118 1.342 . S
N119 N120 1.388 . S
N120 Co103 1.993 . S
N120 N119 1.388 . S
N120 C121 1.346 . S
C121 N120 1.346 . S
C121 C122 1.396 . S
C121 C131 1.510 . S
C122 C118 1.401 . S
C122 C121 1.396 . S
C123 C118 1.499 . S
C123 H124 0.959 . S
C123 H125 0.960 . S
C123 H126 0.961 . S
H124 C123 0.959 . S
H125 C123 0.960 . S
H126 C123 0.961 . S
O127 Co102 1.967 . S
O127 C135 1.258 . S
O128 Co103 1.941 . S
O128 C135 1.266 . S
H129 C131 0.959 . S
H130 C131 0.961 . S
C131 C121 1.510 . S
C131 H129 0.959 . S
C131 H130 0.961 . S
C131 H132 0.960 . S
H132 C131 0.960 . S
H133 N113 0.862 . S
O134 Co102 1.920 . S
O134 C107 1.289 . S
C135 O127 1.258 . S
C135 O128 1.266 . S
Co136 O139 1.970 . S
Co136 N153 1.989 . S
Co136 O161 1.967 . S
Co136 O168 1.920 . S
Co137 O140 1.966 . S
Co137 N146 2.022 . S
Co137 N154 1.993 . S
Co137 O162 1.941 . S
C138 O139 1.258 . S
C138 O140 1.263 . S
O139 Co136 1.970 . S
O139 C138 1.258 . S
O140 Co137 1.966 . S
O140 C138 1.263 . S
C141 O142 1.235 . S
C141 O168 1.289 . S
O142 C141 1.235 . S
C143 C145 1.400 . S
C143 N146 1.351 . S
C143 C148 1.501 . S
C144 C145 1.387 . S
C144 N147 1.341 . S
C145 C143 1.400 . S
C145 C144 1.387 . S
N146 Co137 2.022 . S
N146 C143 1.351 . S
N146 N147 1.365 . S
N147 C144 1.341 . S
N147 N146 1.365 . S
N147 H167 0.862 . S
C148 C143 1.501 . S
C148 H149 0.961 . S
C148 H150 0.961 . S
C148 H151 0.960 1_554 S
H149 C148 0.961 . S
H150 C148 0.961 . S
H151 C148 0.960 1_556 S
C152 N153 1.342 . S
C152 C156 1.401 . S
C152 C157 1.499 . S
N153 Co136 1.989 . S
N153 C152 1.342 . S
N153 N154 1.388 . S
N154 Co137 1.993 . S
N154 N153 1.388 . S
N154 C155 1.346 . S
C155 N154 1.346 . S
C155 C156 1.396 . S
C155 C165 1.510 . S
C156 C152 1.401 . S
C156 C155 1.396 . S
C157 C152 1.499 . S
C157 H158 0.959 . S
C157 H159 0.960 . S
C157 H160 0.961 . S
H158 C157 0.959 . S
H159 C157 0.960 . S
H160 C157 0.961 . S
O161 Co136 1.967 . S
O161 C169 1.258 . S
O162 Co137 1.941 . S
O162 C169 1.266 . S
H163 C165 0.959 . S
H164 C165 0.961 . S
C165 C155 1.510 . S
C165 H163 0.959 . S
C165 H164 0.961 . S
C165 H166 0.960 . S
H166 C165 0.960 . S
H167 N147 0.862 . S
O168 Co136 1.920 . S
O168 C141 1.289 . S
C169 O161 1.258 . S
C169 O162 1.266 . S
Co170 O173 1.970 . S
Co170 N187 1.989 . S
Co170 O195 1.967 . S
Co170 O202 1.920 . S
Co171 O174 1.966 . S
Co171 N180 2.022 . S
Co171 N188 1.993 . S
Co171 O196 1.941 . S
C172 O173 1.258 . S
C172 O174 1.263 . S
O173 Co170 1.970 . S
O173 C172 1.258 . S
O174 Co171 1.966 . S
O174 C172 1.263 . S
C175 O176 1.235 . S
C175 O202 1.289 . S
O176 C175 1.235 . S
C177 C179 1.400 . S
C177 N180 1.351 . S
C177 C182 1.501 . S
C178 C179 1.387 . S
C178 N181 1.341 . S
C179 C177 1.400 . S
C179 C178 1.387 . S
N180 Co171 2.022 . S
N180 C177 1.351 . S
N180 N181 1.365 . S
N181 C178 1.341 . S
N181 N180 1.365 . S
N181 H201 0.862 . S
C182 C177 1.501 . S
C182 H183 0.961 . S
C182 H184 0.961 . S
C182 H185 0.960 . S
H183 C182 0.961 . S
H184 C182 0.961 . S
H185 C182 0.960 . S
C186 N187 1.342 . S
C186 C190 1.401 . S
C186 C191 1.499 . S
N187 Co170 1.989 . S
N187 C186 1.342 . S
N187 N188 1.388 . S
N188 Co171 1.993 . S
N188 N187 1.388 . S
N188 C189 1.346 . S
C189 N188 1.346 . S
C189 C190 1.396 . S
C189 C199 1.510 . S
C190 C186 1.401 . S
C190 C189 1.396 . S
C191 C186 1.499 . S
C191 H192 0.959 . S
C191 H193 0.960 . S
C191 H194 0.961 . S
H192 C191 0.959 . S
H193 C191 0.960 . S
H194 C191 0.961 . S
O195 Co170 1.967 . S
O195 C203 1.258 . S
O196 Co171 1.941 . S
O196 C203 1.266 . S
H197 C199 0.959 . S
H198 C199 0.961 . S
C199 C189 1.510 . S
C199 H197 0.959 . S
C199 H198 0.961 . S
C199 H200 0.960 . S
H200 C199 0.960 . S
H201 N181 0.862 . S
O202 Co170 1.920 . S
O202 C175 1.289 . S
C203 O195 1.258 . S
C203 O196 1.266 . S
Co204 O207 1.970 . S
Co204 N221 1.989 . S
Co204 O229 1.967 . S
Co204 O236 1.920 . S
Co205 O208 1.966 . S
Co205 N214 2.022 . S
Co205 N222 1.993 . S
Co205 O230 1.941 . S
C206 O207 1.258 . S
C206 O208 1.263 . S
O207 Co204 1.970 . S
O207 C206 1.258 . S
O208 Co205 1.966 . S
O208 C206 1.263 . S
C209 O210 1.235 . S
C209 O236 1.289 . S
O210 C209 1.235 . S
C211 C213 1.400 . S
C211 N214 1.351 . S
C211 C216 1.501 . S
C212 C213 1.387 . S
C212 N215 1.341 . S
C213 C211 1.400 . S
C213 C212 1.387 . S
N214 Co205 2.022 . S
N214 C211 1.351 . S
N214 N215 1.365 . S
N215 C212 1.341 . S
N215 N214 1.365 . S
N215 H235 0.862 . S
C216 C211 1.501 . S
C216 H217 0.961 . S
C216 H218 0.961 . S
C216 H219 0.960 1_556 S
H217 C216 0.961 . S
H218 C216 0.961 . S
H219 C216 0.960 1_554 S
C220 N221 1.342 . S
C220 C224 1.401 . S
C220 C225 1.499 . S
N221 Co204 1.989 . S
N221 C220 1.342 . S
N221 N222 1.388 . S
N222 Co205 1.993 . S
N222 N221 1.388 . S
N222 C223 1.346 . S
C223 N222 1.346 . S
C223 C224 1.396 . S
C223 C233 1.510 . S
C224 C220 1.401 . S
C224 C223 1.396 . S
C225 C220 1.499 . S
C225 H226 0.959 . S
C225 H227 0.960 . S
C225 H228 0.961 . S
H226 C225 0.959 . S
H227 C225 0.960 . S
H228 C225 0.961 . S
O229 Co204 1.967 . S
O229 C237 1.258 . S
O230 Co205 1.941 . S
O230 C237 1.266 . S
H231 C233 0.959 . S
H232 C233 0.961 . S
C233 C223 1.510 . S
C233 H231 0.959 . S
C233 H232 0.961 . S
C233 H234 0.960 . S
H234 C233 0.960 . S
H235 N215 0.862 . S
O236 Co204 1.920 . S
O236 C209 1.289 . S
C237 O229 1.258 . S
C237 O230 1.266 . S
Co238 O241 1.970 . S
Co238 N255 1.989 . S
Co238 O263 1.967 . S
Co238 O270 1.920 . S
Co239 O242 1.966 . S
Co239 N248 2.022 . S
Co239 N256 1.993 . S
Co239 O264 1.941 . S
C240 O241 1.258 . S
C240 O242 1.263 . S
O241 Co238 1.970 . S
O241 C240 1.258 . S
O242 Co239 1.966 . S
O242 C240 1.263 . S
C243 O244 1.235 . S
C243 O270 1.289 . S
O244 C243 1.235 . S
C245 C247 1.400 . S
C245 N248 1.351 . S
C245 C250 1.501 . S
C246 C247 1.387 . S
C246 N249 1.341 . S
C247 C245 1.400 . S
C247 C246 1.387 . S
N248 Co239 2.022 . S
N248 C245 1.351 . S
N248 N249 1.365 . S
N249 C246 1.341 . S
N249 N248 1.365 . S
N249 H269 0.862 . S
C250 C245 1.501 . S
C250 H251 0.961 . S
C250 H252 0.961 . S
C250 H253 0.960 . S
H251 C250 0.961 . S
H252 C250 0.961 . S
H253 C250 0.960 . S
C254 N255 1.342 . S
C254 C258 1.401 . S
C254 C259 1.499 . S
N255 Co238 1.989 . S
N255 C254 1.342 . S
N255 N256 1.388 . S
N256 Co239 1.993 . S
N256 N255 1.388 . S
N256 C257 1.346 . S
C257 N256 1.346 . S
C257 C258 1.396 . S
C257 C267 1.510 . S
C258 C254 1.401 . S
C258 C257 1.396 . S
C259 C254 1.499 . S
C259 H260 0.959 . S
C259 H261 0.960 . S
C259 H262 0.961 . S
H260 C259 0.959 . S
H261 C259 0.960 . S
H262 C259 0.961 . S
O263 Co238 1.967 . S
O263 C271 1.258 . S
O264 Co239 1.941 . S
O264 C271 1.266 . S
H265 C267 0.959 . S
H266 C267 0.961 . S
C267 C257 1.510 . S
C267 H265 0.959 . S
C267 H266 0.961 . S
C267 H268 0.960 . S
H268 C267 0.960 . S
H269 N249 0.862 . S
O270 Co238 1.920 . S
O270 C243 1.289 . S
C271 O263 1.258 . S
C271 O264 1.266 . S
Co272 O275 1.970 . S
Co272 N289 1.989 . S
Co272 O297 1.967 . S
Co272 O304 1.920 . S
Co273 O276 1.966 . S
Co273 N282 2.022 . S
Co273 N290 1.993 . S
Co273 O298 1.941 . S
C274 O275 1.258 . S
C274 O276 1.263 . S
O275 Co272 1.970 . S
O275 C274 1.258 . S
O276 Co273 1.966 . S
O276 C274 1.263 . S
C277 O278 1.235 . S
C277 O304 1.289 . S
O278 C277 1.235 . S
C279 C281 1.400 . S
C279 N282 1.351 . S
C279 C284 1.501 . S
C280 C281 1.387 . S
C280 N283 1.341 . S
C281 C279 1.400 . S
C281 C280 1.387 . S
N282 Co273 2.022 . S
N282 C279 1.351 . S
N282 N283 1.365 . S
N283 C280 1.341 . S
N283 N282 1.365 . S
N283 H303 0.862 . S
C284 C279 1.501 . S
C284 H285 0.961 . S
C284 H286 0.961 . S
C284 H287 0.960 1_556 S
H285 C284 0.961 . S
H286 C284 0.961 . S
H287 C284 0.960 1_554 S
C288 N289 1.342 . S
C288 C292 1.401 . S
C288 C293 1.499 . S
N289 Co272 1.989 . S
N289 C288 1.342 . S
N289 N290 1.388 . S
N290 Co273 1.993 . S
N290 N289 1.388 . S
N290 C291 1.346 . S
C291 N290 1.346 . S
C291 C292 1.396 . S
C291 C301 1.510 . S
C292 C288 1.401 . S
C292 C291 1.396 . S
C293 C288 1.499 . S
C293 H294 0.959 . S
C293 H295 0.960 . S
C293 H296 0.961 . S
H294 C293 0.959 . S
H295 C293 0.960 . S
H296 C293 0.961 . S
O297 Co272 1.967 . S
O297 C305 1.258 . S
O298 Co273 1.941 . S
O298 C305 1.266 . S
H299 C301 0.959 . S
H300 C301 0.961 . S
C301 C291 1.510 . S
C301 H299 0.959 . S
C301 H300 0.961 . S
C301 H302 0.960 . S
H302 C301 0.960 . S
H303 N283 0.862 . S
O304 Co272 1.920 . S
O304 C277 1.289 . S
C305 O297 1.258 . S
C305 O298 1.266 . S
Co306 O309 1.970 . S
Co306 N323 1.989 . S
Co306 O331 1.967 . S
Co306 O338 1.920 . S
Co307 O310 1.966 . S
Co307 N316 2.022 . S
Co307 N324 1.993 . S
Co307 O332 1.941 . S
C308 O309 1.258 . S
C308 O310 1.263 . S
O309 Co306 1.970 . S
O309 C308 1.258 . S
O310 Co307 1.966 . S
O310 C308 1.263 . S
C311 O312 1.235 . S
C311 O338 1.289 . S
O312 C311 1.235 . S
C313 C315 1.400 . S
C313 N316 1.351 . S
C313 C318 1.501 . S
C314 C315 1.387 . S
C314 N317 1.341 . S
C315 C313 1.400 . S
C315 C314 1.387 . S
N316 Co307 2.022 . S
N316 C313 1.351 . S
N316 N317 1.365 . S
N317 C314 1.341 . S
N317 N316 1.365 . S
N317 H337 0.862 . S
C318 C313 1.501 . S
C318 H319 0.961 . S
C318 H320 0.961 . S
C318 H321 0.960 . S
H319 C318 0.961 . S
H320 C318 0.961 . S
H321 C318 0.960 . S
C322 N323 1.342 . S
C322 C326 1.401 . S
C322 C327 1.499 . S
N323 Co306 1.989 . S
N323 C322 1.342 . S
N323 N324 1.388 . S
N324 Co307 1.993 . S
N324 N323 1.388 . S
N324 C325 1.346 . S
C325 N324 1.346 . S
C325 C326 1.396 . S
C325 C335 1.510 . S
C326 C322 1.401 . S
C326 C325 1.396 . S
C327 C322 1.499 . S
C327 H328 0.959 . S
C327 H329 0.960 . S
C327 H330 0.961 . S
H328 C327 0.959 . S
H329 C327 0.960 . S
H330 C327 0.961 . S
O331 Co306 1.967 . S
O331 C339 1.258 . S
O332 Co307 1.941 . S
O332 C339 1.266 . S
H333 C335 0.959 . S
H334 C335 0.961 . S
C335 C325 1.510 . S
C335 H333 0.959 . S
C335 H334 0.961 . S
C335 H336 0.960 . S
H336 C335 0.960 . S
H337 N317 0.862 . S
O338 Co306 1.920 . S
O338 C311 1.289 . S
C339 O331 1.258 . S
C339 O332 1.266 . S
Co340 O343 1.970 . S
Co340 N357 1.989 . S
Co340 O365 1.967 . S
Co340 O372 1.920 . S
Co341 O344 1.966 . S
Co341 N350 2.022 . S
Co341 N358 1.993 . S
Co341 O366 1.941 . S
C342 O343 1.258 . S
C342 O344 1.263 . S
O343 Co340 1.970 . S
O343 C342 1.258 . S
O344 Co341 1.966 . S
O344 C342 1.263 . S
C345 O346 1.235 . S
C345 O372 1.289 . S
O346 C345 1.235 . S
C347 C349 1.400 . S
C347 N350 1.351 . S
C347 C352 1.501 . S
C348 C349 1.387 . S
C348 N351 1.341 . S
C349 C347 1.400 . S
C349 C348 1.387 . S
N350 Co341 2.022 . S
N350 C347 1.351 . S
N350 N351 1.365 . S
N351 C348 1.341 . S
N351 N350 1.365 . S
N351 H371 0.862 . S
C352 C347 1.501 . S
C352 H353 0.961 . S
C352 H354 0.961 . S
C352 H355 0.960 1_556 S
H353 C352 0.961 . S
H354 C352 0.961 . S
H355 C352 0.960 1_554 S
C356 N357 1.342 . S
C356 C360 1.401 . S
C356 C361 1.499 . S
N357 Co340 1.989 . S
N357 C356 1.342 . S
N357 N358 1.388 . S
N358 Co341 1.993 . S
N358 N357 1.388 . S
N358 C359 1.346 . S
C359 N358 1.346 . S
C359 C360 1.396 . S
C359 C369 1.510 . S
C360 C356 1.401 . S
C360 C359 1.396 . S
C361 C356 1.499 . S
C361 H362 0.959 . S
C361 H363 0.960 . S
C361 H364 0.961 . S
H362 C361 0.959 . S
H363 C361 0.960 . S
H364 C361 0.961 . S
O365 Co340 1.967 . S
O365 C373 1.258 . S
O366 Co341 1.941 . S
O366 C373 1.266 . S
H367 C369 0.959 . S
H368 C369 0.961 . S
C369 C359 1.510 . S
C369 H367 0.959 . S
C369 H368 0.961 . S
C369 H370 0.960 . S
H370 C369 0.960 . S
H371 N351 0.862 . S
O372 Co340 1.920 . S
O372 C345 1.289 . S
C373 O365 1.258 . S
C373 O366 1.266 . S
Co374 O377 1.970 . S
Co374 N391 1.989 . S
Co374 O399 1.967 . S
Co374 O406 1.920 . S
Co375 O378 1.966 . S
Co375 N384 2.022 . S
Co375 N392 1.993 . S
Co375 O400 1.941 . S
C376 O377 1.258 . S
C376 O378 1.263 . S
O377 Co374 1.970 . S
O377 C376 1.258 . S
O378 Co375 1.966 . S
O378 C376 1.263 . S
C379 O380 1.235 . S
C379 O406 1.289 . S
O380 C379 1.235 . S
C381 C383 1.400 . S
C381 N384 1.351 . S
C381 C386 1.501 . S
C382 C383 1.387 . S
C382 N385 1.341 . S
C383 C381 1.400 . S
C383 C382 1.387 . S
N384 Co375 2.022 . S
N384 C381 1.351 . S
N384 N385 1.365 . S
N385 C382 1.341 . S
N385 N384 1.365 . S
N385 H405 0.862 . S
C386 C381 1.501 . S
C386 H387 0.961 . S
C386 H388 0.961 . S
C386 H389 0.960 . S
H387 C386 0.961 . S
H388 C386 0.961 . S
H389 C386 0.960 . S
C390 N391 1.342 . S
C390 C394 1.401 . S
C390 C395 1.499 . S
N391 Co374 1.989 . S
N391 C390 1.342 . S
N391 N392 1.388 . S
N392 Co375 1.993 . S
N392 N391 1.388 . S
N392 C393 1.346 . S
C393 N392 1.346 . S
C393 C394 1.396 . S
C393 C403 1.510 . S
C394 C390 1.401 . S
C394 C393 1.396 . S
C395 C390 1.499 . S
C395 H396 0.959 . S
C395 H397 0.960 . S
C395 H398 0.961 . S
H396 C395 0.959 . S
H397 C395 0.960 . S
H398 C395 0.961 . S
O399 Co374 1.967 . S
O399 C407 1.258 . S
O400 Co375 1.941 . S
O400 C407 1.266 . S
H401 C403 0.959 . S
H402 C403 0.961 . S
C403 C393 1.510 . S
C403 H401 0.959 . S
C403 H402 0.961 . S
C403 H404 0.960 . S
H404 C403 0.960 . S
H405 N385 0.862 . S
O406 Co374 1.920 . S
O406 C379 1.289 . S
C407 O399 1.258 . S
C407 O400 1.266 . S
C408 C409 1.387 1_556 S
C408 H412 0.950 . S
C408 C417 1.390 . S
C409 C408 1.387 1_554 S
C409 C411 1.387 . S
H410 C417 0.950 . S
C411 C409 1.387 . S
C411 C413 1.390 . S
C411 H415 0.950 . S
H412 C408 0.950 . S
C413 C411 1.390 . S
C413 C414 1.387 1_554 S
C413 H416 0.950 . S
C414 C413 1.387 1_556 S
C414 C417 1.387 . S
H415 C411 0.950 . S
H416 C413 0.950 . S
C417 C408 1.390 . S
C417 H410 0.950 . S
C417 C414 1.387 . S
C418 C419 1.387 . S
C418 H422 0.950 . S
C418 C427 1.390 . S
C419 C418 1.387 . S
C419 C421 1.387 . S
H420 C427 0.950 . S
C421 C419 1.387 . S
C421 C423 1.390 . S
C421 H425 0.950 . S
H422 C418 0.950 . S
C423 C421 1.390 . S
C423 C424 1.387 . S
C423 H426 0.950 . S
C424 C423 1.387 . S
C424 C427 1.387 . S
H425 C421 0.950 . S
H426 C423 0.950 . S
C427 C418 1.390 . S
C427 H420 0.950 . S
C427 C424 1.387 . S
C428 C429 1.387 . S
C428 H432 0.950 . S
C428 C437 1.390 1_554 S
C429 C428 1.387 . S
C429 C431 1.387 . S
H430 C437 0.950 . S
C431 C429 1.387 . S
C431 C433 1.390 1_554 S
C431 H435 0.950 . S
H432 C428 0.950 . S
C433 C431 1.390 1_556 S
C433 C434 1.387 . S
C433 H436 0.950 . S
C434 C433 1.387 . S
C434 C437 1.387 . S
H435 C431 0.950 . S
H436 C433 0.950 . S
C437 C428 1.390 1_556 S
C437 H430 0.950 . S
C437 C434 1.387 . S
C438 C439 1.387 . S
C438 H442 0.950 . S
C438 C447 1.390 . S
C439 C438 1.387 . S
C439 C441 1.387 . S
H440 C447 0.950 . S
C441 C439 1.387 . S
C441 C443 1.390 . S
C441 H445 0.950 . S
H442 C438 0.950 . S
C443 C441 1.390 . S
C443 C444 1.387 . S
C443 H446 0.950 . S
C444 C443 1.387 . S
C444 C447 1.387 . S
H445 C441 0.950 . S
H446 C443 0.950 . S
C447 C438 1.390 . S
C447 H440 0.950 . S
C447 C444 1.387 . S
C448 C449 1.387 . S
C448 H452 0.950 . S
C448 C457 1.390 . S
C449 C448 1.387 . S
C449 C451 1.387 1_554 S
H450 C457 0.950 . S
C451 C449 1.387 1_556 S
C451 C453 1.390 . S
C451 H455 0.950 . S
H452 C448 0.950 . S
C453 C451 1.390 . S
C453 C454 1.387 . S
C453 H456 0.950 . S
C454 C453 1.387 . S
C454 C457 1.387 1_556 S
H455 C451 0.950 . S
H456 C453 0.950 . S
C457 C448 1.390 . S
C457 H450 0.950 . S
C457 C454 1.387 1_554 S
C458 C459 1.387 . S
C458 H462 0.950 . S
C458 C467 1.390 . S
C459 C458 1.387 . S
C459 C461 1.387 . S
H460 C467 0.950 . S
C461 C459 1.387 . S
C461 C463 1.390 . S
C461 H465 0.950 . S
H462 C458 0.950 . S
C463 C461 1.390 . S
C463 C464 1.387 . S
C463 H466 0.950 . S
C464 C463 1.387 . S
C464 C467 1.387 . S
H465 C461 0.950 . S
H466 C463 0.950 . S
C467 C458 1.390 . S
C467 H460 0.950 . S
C467 C464 1.387 . S
C468 C469 1.387 . S
C468 H472 0.950 . S
C468 C477 1.390 1_554 S
C469 C468 1.387 . S
C469 C471 1.387 . S
H470 C477 0.950 . S
C471 C469 1.387 . S
C471 C473 1.390 1_554 S
C471 H475 0.950 . S
H472 C468 0.950 . S
C473 C471 1.390 1_556 S
C473 C474 1.387 . S
C473 H476 0.950 . S
C474 C473 1.387 . S
C474 C477 1.387 . S
H475 C471 0.950 . S
H476 C473 0.950 . S
C477 C468 1.390 1_556 S
C477 H470 0.950 . S
C477 C474 1.387 . S
C478 C479 1.387 . S
C478 H482 0.950 . S
C478 C487 1.390 . S
C479 C478 1.387 . S
C479 C481 1.387 . S
H480 C487 0.950 . S
C481 C479 1.387 . S
C481 C483 1.390 . S
C481 H485 0.950 . S
H482 C478 0.950 . S
C483 C481 1.390 . S
C483 C484 1.387 . S
C483 H486 0.950 . S
C484 C483 1.387 . S
C484 C487 1.387 . S
H485 C481 0.950 . S
H486 C483 0.950 . S
C487 C478 1.390 . S
C487 H480 0.950 . S
C487 C484 1.387 . S
C488 C489 1.387 . S
C488 H492 0.950 . S
C488 C497 1.390 1_554 S
C489 C488 1.387 . S
C489 C491 1.387 . S
H490 C497 0.950 . S
C491 C489 1.387 . S
C491 C493 1.390 1_554 S
C491 H495 0.950 . S
H492 C488 0.950 . S
C493 C491 1.390 1_556 S
C493 C494 1.387 . S
C493 H496 0.950 . S
C494 C493 1.387 . S
C494 C497 1.387 . S
H495 C491 0.950 . S
H496 C493 0.950 . S
C497 C488 1.390 1_556 S
C497 H490 0.950 . S
C497 C494 1.387 . S
C498 C499 1.387 . S
C498 H502 0.950 . S
C498 C507 1.390 . S
C499 C498 1.387 . S
C499 C501 1.387 . S
H500 C507 0.950 . S
C501 C499 1.387 . S
C501 C503 1.390 . S
C501 H505 0.950 . S
H502 C498 0.950 . S
C503 C501 1.390 . S
C503 C504 1.387 . S
C503 H506 0.950 . S
C504 C503 1.387 . S
C504 C507 1.387 . S
H505 C501 0.950 . S
H506 C503 0.950 . S
C507 C498 1.390 . S
C507 H500 0.950 . S
C507 C504 1.387 . S
C508 C509 1.387 . S
C508 H512 0.950 . S
C508 C517 1.390 . S
C509 C508 1.387 . S
C509 C511 1.387 1_554 S
H510 C517 0.950 . S
C511 C509 1.387 1_556 S
C511 C513 1.390 . S
C511 H515 0.950 . S
H512 C508 0.950 . S
C513 C511 1.390 . S
C513 C514 1.387 . S
C513 H516 0.950 . S
C514 C513 1.387 . S
C514 C517 1.387 1_556 S
H515 C511 0.950 . S
H516 C513 0.950 . S
C517 C508 1.390 . S
C517 H510 0.950 . S
C517 C514 1.387 1_554 S
C518 C519 1.387 . S
C518 H522 0.950 . S
C518 C527 1.390 . S
C519 C518 1.387 . S
C519 C521 1.387 . S
H520 C527 0.950 . S
C521 C519 1.387 . S
C521 C523 1.390 . S
C521 H525 0.950 . S
H522 C518 0.950 . S
C523 C521 1.390 . S
C523 C524 1.387 . S
C523 H526 0.950 . S
C524 C523 1.387 . S
C524 C527 1.387 . S
H525 C521 0.950 . S
H526 C523 0.950 . S
C527 C518 1.390 . S
C527 H520 0.950 . S
C527 C524 1.387 . S
C528 C529 1.387 . S
C528 H532 0.950 . S
C528 C537 1.390 1_556 S
C529 C528 1.387 . S
C529 C531 1.387 . S
H530 C537 0.950 . S
C531 C529 1.387 . S
C531 C533 1.390 1_556 S
C531 H535 0.950 . S
H532 C528 0.950 . S
C533 C531 1.390 1_554 S
C533 C534 1.387 . S
C533 H536 0.950 . S
C534 C533 1.387 . S
C534 C537 1.387 . S
H535 C531 0.950 . S
H536 C533 0.950 . S
C537 C528 1.390 1_554 S
C537 H530 0.950 . S
C537 C534 1.387 . S
C538 C539 1.387 . S
C538 H542 0.950 . S
C538 C547 1.390 . S
C539 C538 1.387 . S
C539 C541 1.387 . S
H540 C547 0.950 . S
C541 C539 1.387 . S
C541 C543 1.390 . S
C541 H545 0.950 . S
H542 C538 0.950 . S
C543 C541 1.390 . S
C543 C544 1.387 . S
C543 H546 0.950 . S
C544 C543 1.387 . S
C544 C547 1.387 . S
H545 C541 0.950 . S
H546 C543 0.950 . S
C547 C538 1.390 . S
C547 H540 0.950 . S
C547 C544 1.387 . S
C548 C549 1.387 . S
C548 H552 0.950 . S
C548 C557 1.390 . S
C549 C548 1.387 . S
C549 C551 1.387 1_554 S
H550 C557 0.950 . S
C551 C549 1.387 1_556 S
C551 C553 1.390 . S
C551 H555 0.950 . S
H552 C548 0.950 . S
C553 C551 1.390 . S
C553 C554 1.387 . S
C553 H556 0.950 . S
C554 C553 1.387 . S
C554 C557 1.387 1_556 S
H555 C551 0.950 . S
H556 C553 0.950 . S
C557 C548 1.390 . S
C557 H550 0.950 . S
C557 C554 1.387 1_554 S
C558 C559 1.387 . S
C558 H562 0.950 . S
C558 C567 1.390 . S
C559 C558 1.387 . S
C559 C561 1.387 . S
H560 C567 0.950 . S
C561 C559 1.387 . S
C561 C563 1.390 . S
C561 H565 0.950 . S
H562 C558 0.950 . S
C563 C561 1.390 . S
C563 C564 1.387 . S
C563 H566 0.950 . S
C564 C563 1.387 . S
C564 C567 1.387 . S
H565 C561 0.950 . S
H566 C563 0.950 . S
C567 C558 1.390 . S
C567 H560 0.950 . S
C567 C564 1.387 . S
C568 C569 1.387 . S
C568 H572 0.950 . S
C568 C577 1.390 . S
C569 C568 1.387 . S
C569 C571 1.387 1_554 S
H570 C577 0.950 . S
C571 C569 1.387 1_556 S
C571 C573 1.390 . S
C571 H575 0.950 . S
H572 C568 0.950 . S
C573 C571 1.390 . S
C573 C574 1.387 . S
C573 H576 0.950 . S
C574 C573 1.387 . S
C574 C577 1.387 1_556 S
H575 C571 0.950 . S
H576 C573 0.950 . S
C577 C568 1.390 . S
C577 H570 0.950 . S
C577 C574 1.387 1_554 S
C578 C579 1.387 . S
C578 H582 0.950 . S
C578 C587 1.390 . S
C579 C578 1.387 . S
C579 C581 1.387 . S
H580 C587 0.950 . S
C581 C579 1.387 . S
C581 C583 1.390 . S
C581 H585 0.950 . S
H582 C578 0.950 . S
C583 C581 1.390 . S
C583 C584 1.387 . S
C583 H586 0.950 . S
C584 C583 1.387 . S
C584 C587 1.387 . S
H585 C581 0.950 . S
H586 C583 0.950 . S
C587 C578 1.390 . S
C587 H580 0.950 . S
C587 C584 1.387 . S
C588 C589 1.387 . S
C588 H592 0.950 . S
C588 C597 1.390 1_556 S
C589 C588 1.387 . S
C589 C591 1.387 . S
H590 C597 0.950 . S
C591 C589 1.387 . S
C591 C593 1.390 1_556 S
C591 H595 0.950 . S
H592 C588 0.950 . S
C593 C591 1.390 1_554 S
C593 C594 1.387 . S
C593 H596 0.950 . S
C594 C593 1.387 . S
C594 C597 1.387 . S
H595 C591 0.950 . S
H596 C593 0.950 . S
C597 C588 1.390 1_554 S
C597 H590 0.950 . S
C597 C594 1.387 . S
C598 C599 1.387 . S
C598 H602 0.950 . S
C598 C607 1.390 . S
C599 C598 1.387 . S
C599 C601 1.387 . S
H600 C607 0.950 . S
C601 C599 1.387 . S
C601 C603 1.390 . S
C601 H605 0.950 . S
H602 C598 0.950 . S
C603 C601 1.390 . S
C603 C604 1.387 . S
C603 H606 0.950 . S
C604 C603 1.387 . S
C604 C607 1.387 . S
H605 C601 0.950 . S
H606 C603 0.950 . S
C607 C598 1.390 . S
C607 H600 0.950 . S
C607 C604 1.387 . S
C608 C609 1.387 . S
C608 H612 0.950 . S
C608 C617 1.390 . S
C609 C608 1.387 . S
C609 C611 1.387 1_554 S
H610 C617 0.950 . S
C611 C609 1.387 1_556 S
C611 C613 1.390 . S
C611 H615 0.950 . S
H612 C608 0.950 . S
C613 C611 1.390 . S
C613 C614 1.387 . S
C613 H616 0.950 . S
C614 C613 1.387 . S
C614 C617 1.387 1_556 S
H615 C611 0.950 . S
H616 C613 0.950 . S
C617 C608 1.390 . S
C617 H610 0.950 . S
C617 C614 1.387 1_554 S
C618 C619 1.387 . S
C618 H622 0.950 . S
C618 C627 1.390 . S
C619 C618 1.387 . S
C619 C621 1.387 . S
H620 C627 0.950 . S
C621 C619 1.387 . S
C621 C623 1.390 . S
C621 H625 0.950 . S
H622 C618 0.950 . S
C623 C621 1.390 . S
C623 C624 1.387 . S
C623 H626 0.950 . S
C624 C623 1.387 . S
C624 C627 1.387 . S
H625 C621 0.950 . S
H626 C623 0.950 . S
C627 C618 1.390 . S
C627 H620 0.950 . S
C627 C624 1.387 . S
C628 C629 1.387 . S
C628 H632 0.950 . S
C628 C637 1.390 . S
C629 C628 1.387 . S
C629 C631 1.387 1_554 S
H630 C637 0.950 . S
C631 C629 1.387 1_556 S
C631 C633 1.390 . S
C631 H635 0.950 . S
H632 C628 0.950 . S
C633 C631 1.390 . S
C633 C634 1.387 . S
C633 H636 0.950 . S
C634 C633 1.387 . S
C634 C637 1.387 1_556 S
H635 C631 0.950 . S
H636 C633 0.950 . S
C637 C628 1.390 . S
C637 H630 0.950 . S
C637 C634 1.387 1_554 S
C638 C639 1.387 . S
C638 H642 0.950 . S
C638 C647 1.390 . S
C639 C638 1.387 . S
C639 C641 1.387 . S
H640 C647 0.950 . S
C641 C639 1.387 . S
C641 C643 1.390 . S
C641 H645 0.950 . S
H642 C638 0.950 . S
C643 C641 1.390 . S
C643 C644 1.387 . S
C643 H646 0.950 . S
C644 C643 1.387 . S
C644 C647 1.387 . S
H645 C641 0.950 . S
H646 C643 0.950 . S
C647 C638 1.390 . S
C647 H640 0.950 . S
C647 C644 1.387 . S
C648 C649 1.387 . S
C648 H652 0.950 . S
C648 C657 1.390 . S
C649 C648 1.387 . S
C649 C651 1.387 . S
H650 C657 0.950 . S
C651 C649 1.387 . S
C651 C653 1.390 . S
C651 H655 0.950 . S
H652 C648 0.950 . S
C653 C651 1.390 . S
C653 C654 1.387 . S
C653 H656 0.950 . S
C654 C653 1.387 . S
C654 C657 1.387 . S
H655 C651 0.950 . S
H656 C653 0.950 . S
C657 C648 1.390 . S
C657 H650 0.950 . S
C657 C654 1.387 . S
C658 C659 1.387 . S
C658 H662 0.950 . S
C658 C667 1.390 1_455 S
C659 C658 1.387 . S
C659 C661 1.387 . S
H660 C667 0.950 . S
C661 C659 1.387 . S
C661 C663 1.390 1_455 S
C661 H665 0.950 . S
H662 C658 0.950 . S
C663 C661 1.390 1_655 S
C663 C664 1.387 . S
C663 H666 0.950 . S
C664 C663 1.387 . S
C664 C667 1.387 . S
H665 C661 0.950 . S
H666 C663 0.950 . S
C667 C658 1.390 1_655 S
C667 H660 0.950 . S
C667 C664 1.387 . S
C668 C669 1.387 . S
C668 H672 0.950 . S
C668 C677 1.390 1_545 S
C669 C668 1.387 . S
C669 C671 1.387 . S
H670 C677 0.950 . S
C671 C669 1.387 . S
C671 C673 1.390 1_545 S
C671 H675 0.950 . S
H672 C668 0.950 . S
C673 C671 1.390 1_565 S
C673 C674 1.387 . S
C673 H676 0.950 . S
C674 C673 1.387 . S
C674 C677 1.387 . S
H675 C671 0.950 . S
H676 C673 0.950 . S
C677 C668 1.390 1_565 S
C677 H670 0.950 . S
C677 C674 1.387 . S
C678 C679 1.387 . S
C678 H682 0.950 . S
C678 C687 1.390 . S
C679 C678 1.387 . S
C679 C681 1.387 . S
H680 C687 0.950 . S
C681 C679 1.387 . S
C681 C683 1.390 . S
C681 H685 0.950 . S
H682 C678 0.950 . S
C683 C681 1.390 . S
C683 C684 1.387 . S
C683 H686 0.950 . S
C684 C683 1.387 . S
C684 C687 1.387 . S
H685 C681 0.950 . S
H686 C683 0.950 . S
C687 C678 1.390 . S
C687 H680 0.950 . S
C687 C684 1.387 . S
C688 C689 1.387 . S
C688 H692 0.950 . S
C688 C697 1.390 1_455 S
C689 C688 1.387 . S
C689 C691 1.387 . S
H690 C697 0.950 . S
C691 C689 1.387 . S
C691 C693 1.390 1_455 S
C691 H695 0.950 . S
H692 C688 0.950 . S
C693 C691 1.390 1_655 S
C693 C694 1.387 . S
C693 H696 0.950 . S
C694 C693 1.387 . S
C694 C697 1.387 . S
H695 C691 0.950 . S
H696 C693 0.950 . S
C697 C688 1.390 1_655 S
C697 H690 0.950 . S
C697 C694 1.387 . S
C698 C699 1.387 . S
C698 H702 0.950 . S
C698 C707 1.390 1_565 S
C699 C698 1.387 . S
C699 C701 1.387 . S
H700 C707 0.950 . S
C701 C699 1.387 . S
C701 C703 1.390 1_565 S
C701 H705 0.950 . S
H702 C698 0.950 . S
C703 C701 1.390 1_545 S
C703 C704 1.387 . S
C703 H706 0.950 . S
C704 C703 1.387 . S
C704 C707 1.387 . S
H705 C701 0.950 . S
H706 C703 0.950 . S
C707 C698 1.390 1_545 S
C707 H700 0.950 . S
C707 C704 1.387 . S
C409 C2 2.922 . S
C414 C206 2.922 . S
C419 C36 2.922 . S
C424 C240 2.922 . S
C429 C70 2.922 . S
C434 C274 2.922 . S
C439 C308 2.922 . S
C444 C104 2.922 . S
C449 C138 2.922 . S
C454 C342 2.922 . S
C459 C376 2.922 . S
C464 C172 2.922 . S
C469 C311 1.057 . S
C474 C107 1.057 . S
C479 C141 1.056 . S
C484 C345 1.060 . S
C489 C379 1.059 . S
C494 C175 1.059 . S
C499 C209 1.058 . S
C504 C5 1.060 . S
C509 C243 1.058 . S
C514 C39 1.056 . S
C519 C73 1.059 . S
C524 C277 1.059 . S
C529 C349 0.874 . S
C534 C9 0.874 . S
C539 C43 0.872 . S
C544 C383 0.875 . S
C549 C77 0.872 . S
C554 C213 0.874 . S
C559 C111 0.874 . S
C564 C247 0.874 . S
C569 C145 0.872 . S
C574 C281 0.875 . S
C579 C179 0.871 . S
C584 C315 0.873 . S
C589 C122 2.303 . S
C594 C258 2.303 . S
C599 C156 2.303 . S
C604 C292 2.304 . S
C609 C326 2.303 . S
C614 C190 2.304 . S
C619 C20 2.303 . S
C624 C360 2.303 . S
C629 C394 2.303 . S
C634 C54 2.304 . S
C639 C88 2.304 . S
C644 C224 2.303 . S
C649 C33 0.874 . S
C654 C339 0.876 . S
C659 C373 0.876 . S
C664 C67 0.873 . S
C669 C407 0.875 . S
C674 C101 0.875 . S
C679 C237 0.874 . S
C684 C135 0.876 . S
C689 C169 0.873 . S
C694 C271 0.876 . S
C699 C305 0.876 . S
C704 C203 0.876 . S
