# Generated by pormake.
# Topology gme, (4)-cn, num edge types: 1
# Building blocks:
#     Node 0, Type 0, BuildingBlock: KUFVIS_clean_sbu_0, # of connection points: 4
#     Node 1, Type 0, BuildingBlock: KUFVIS_clean_sbu_0, # of connection points: 4
#     Node 2, Type 0, BuildingBlock: KUFVIS_clean_sbu_0, # of connection points: 4
#     Node 3, Type 0, BuildingBlock: KUFVIS_clean_sbu_0, # of connection points: 4
#     Node 4, Type 0, BuildingBlock: KUFVIS_clean_sbu_0, # of connection points: 4
#     Node 5, Type 0, BuildingBlock: KUFVIS_clean_sbu_0, # of connection points: 4
#     Node 6, Type 0, BuildingBlock: KUFVIS_clean_sbu_0, # of connection points: 4
#     Node 7, Type 0, BuildingBlock: KUFVIS_clean_sbu_0, # of connection points: 4
#     Node 8, Type 0, BuildingBlock: KUFVIS_clean_sbu_0, # of connection points: 4
#     Node 9, Type 0, BuildingBlock: KUFVIS_clean_sbu_0, # of connection points: 4
#     Node 10, Type 0, BuildingBlock: KUFVIS_clean_sbu_0, # of connection points: 4
#     Node 11, Type 0, BuildingBlock: KUFVIS_clean_sbu_0, # of connection points: 4
#     Node 12, Type 0, BuildingBlock: KUFVIS_clean_sbu_0, # of connection points: 4
#     Node 13, Type 0, BuildingBlock: KUFVIS_clean_sbu_0, # of connection points: 4
#     Node 14, Type 0, BuildingBlock: KUFVIS_clean_sbu_0, # of connection points: 4
#     Node 15, Type 0, BuildingBlock: KUFVIS_clean_sbu_0, # of connection points: 4
#     Node 16, Type 0, BuildingBlock: KUFVIS_clean_sbu_0, # of connection points: 4
#     Node 17, Type 0, BuildingBlock: KUFVIS_clean_sbu_0, # of connection points: 4
#     Node 18, Type 0, BuildingBlock: KUFVIS_clean_sbu_0, # of connection points: 4
#     Node 19, Type 0, BuildingBlock: KUFVIS_clean_sbu_0, # of connection points: 4
#     Node 20, Type 0, BuildingBlock: KUFVIS_clean_sbu_0, # of connection points: 4
#     Node 21, Type 0, BuildingBlock: KUFVIS_clean_sbu_0, # of connection points: 4
#     Node 22, Type 0, BuildingBlock: KUFVIS_clean_sbu_0, # of connection points: 4
#     Node 23, Type 0, BuildingBlock: KUFVIS_clean_sbu_0, # of connection points: 4
#     Edge 24, Type (0, 0), BuildingBlock: XUDNAN_clean_linker_2, # of connection points: 2
#     Edge 25, Type (0, 0), BuildingBlock: XUDNAN_clean_linker_2, # of connection points: 2
#     Edge 26, Type (0, 0), BuildingBlock: XUDNAN_clean_linker_2, # of connection points: 2
#     Edge 27, Type (0, 0), BuildingBlock: XUDNAN_clean_linker_2, # of connection points: 2
#     Edge 28, Type (0, 0), BuildingBlock: XUDNAN_clean_linker_2, # of connection points: 2
#     Edge 29, Type (0, 0), BuildingBlock: XUDNAN_clean_linker_2, # of connection points: 2
#     Edge 30, Type (0, 0), BuildingBlock: XUDNAN_clean_linker_2, # of connection points: 2
#     Edge 31, Type (0, 0), BuildingBlock: XUDNAN_clean_linker_2, # of connection points: 2
#     Edge 32, Type (0, 0), BuildingBlock: XUDNAN_clean_linker_2, # of connection points: 2
#     Edge 33, Type (0, 0), BuildingBlock: XUDNAN_clean_linker_2, # of connection points: 2
#     Edge 34, Type (0, 0), BuildingBlock: XUDNAN_clean_linker_2, # of connection points: 2
#     Edge 35, Type (0, 0), BuildingBlock: XUDNAN_clean_linker_2, # of connection points: 2
#     Edge 36, Type (0, 0), BuildingBlock: XUDNAN_clean_linker_2, # of connection points: 2
#     Edge 37, Type (0, 0), BuildingBlock: XUDNAN_clean_linker_2, # of connection points: 2
#     Edge 38, Type (0, 0), BuildingBlock: XUDNAN_clean_linker_2, # of connection points: 2
#     Edge 39, Type (0, 0), BuildingBlock: XUDNAN_clean_linker_2, # of connection points: 2
#     Edge 40, Type (0, 0), BuildingBlock: XUDNAN_clean_linker_2, # of connection points: 2
#     Edge 41, Type (0, 0), BuildingBlock: XUDNAN_clean_linker_2, # of connection points: 2
#     Edge 42, Type (0, 0), BuildingBlock: XUDNAN_clean_linker_2, # of connection points: 2
#     Edge 43, Type (0, 0), BuildingBlock: XUDNAN_clean_linker_2, # of connection points: 2
#     Edge 44, Type (0, 0), BuildingBlock: XUDNAN_clean_linker_2, # of connection points: 2
#     Edge 45, Type (0, 0), BuildingBlock: XUDNAN_clean_linker_2, # of connection points: 2
#     Edge 46, Type (0, 0), BuildingBlock: XUDNAN_clean_linker_2, # of connection points: 2
#     Edge 47, Type (0, 0), BuildingBlock: XUDNAN_clean_linker_2, # of connection points: 2
#     Edge 48, Type (0, 0), BuildingBlock: XUDNAN_clean_linker_2, # of connection points: 2
#     Edge 49, Type (0, 0), BuildingBlock: XUDNAN_clean_linker_2, # of connection points: 2
#     Edge 50, Type (0, 0), BuildingBlock: XUDNAN_clean_linker_2, # of connection points: 2
#     Edge 51, Type (0, 0), BuildingBlock: XUDNAN_clean_linker_2, # of connection points: 2
#     Edge 52, Type (0, 0), BuildingBlock: XUDNAN_clean_linker_2, # of connection points: 2
#     Edge 53, Type (0, 0), BuildingBlock: XUDNAN_clean_linker_2, # of connection points: 2
#     Edge 54, Type (0, 0), BuildingBlock: XUDNAN_clean_linker_2, # of connection points: 2
#     Edge 55, Type (0, 0), BuildingBlock: XUDNAN_clean_linker_2, # of connection points: 2
#     Edge 56, Type (0, 0), BuildingBlock: XUDNAN_clean_linker_2, # of connection points: 2
#     Edge 57, Type (0, 0), BuildingBlock: XUDNAN_clean_linker_2, # of connection points: 2
#     Edge 58, Type (0, 0), BuildingBlock: XUDNAN_clean_linker_2, # of connection points: 2
#     Edge 59, Type (0, 0), BuildingBlock: XUDNAN_clean_linker_2, # of connection points: 2
#     Edge 60, Type (0, 0), BuildingBlock: XUDNAN_clean_linker_2, # of connection points: 2
#     Edge 61, Type (0, 0), BuildingBlock: XUDNAN_clean_linker_2, # of connection points: 2
#     Edge 62, Type (0, 0), BuildingBlock: XUDNAN_clean_linker_2, # of connection points: 2
#     Edge 63, Type (0, 0), BuildingBlock: XUDNAN_clean_linker_2, # of connection points: 2
#     Edge 64, Type (0, 0), BuildingBlock: XUDNAN_clean_linker_2, # of connection points: 2
#     Edge 65, Type (0, 0), BuildingBlock: XUDNAN_clean_linker_2, # of connection points: 2
#     Edge 66, Type (0, 0), BuildingBlock: XUDNAN_clean_linker_2, # of connection points: 2
#     Edge 67, Type (0, 0), BuildingBlock: XUDNAN_clean_linker_2, # of connection points: 2
#     Edge 68, Type (0, 0), BuildingBlock: XUDNAN_clean_linker_2, # of connection points: 2
#     Edge 69, Type (0, 0), BuildingBlock: XUDNAN_clean_linker_2, # of connection points: 2
#     Edge 70, Type (0, 0), BuildingBlock: XUDNAN_clean_linker_2, # of connection points: 2
#     Edge 71, Type (0, 0), BuildingBlock: XUDNAN_clean_linker_2, # of connection points: 2
# Relax obj value: 0.088
# Max RMSD: 0.121
# Mean RMSD: 0.121
data_MOF--net-gme--node1-KUFVIS_clean_sbu_0--edge1-XUDNAN_clean_linker_2
_symmetry_space_group_name_H-M    P1
_symmetry_Int_Tables_number       1
_symmetry_cell_setting            triclinic
loop_
_symmetry_equiv_pos_as_xyz
'x, y, z'
_cell_length_a     55.456289
_cell_length_b     55.462447
_cell_length_c     56.601847
_cell_angle_alpha  89.988891
_cell_angle_beta   90.002422
_cell_angle_gamma 119.99912
loop_
_atom_site_label
_atom_site_type_symbol
_atom_site_fract_x
_atom_site_fract_y
_atom_site_fract_z
_atom_type_partial_charge
Mn0 Mn 0.39766 0.06076 0.11654 0.0
Mn1 Mn 0.44415 0.11886 0.1452 0.0
C2 C 0.44146 0.06756 0.12519 0.0
C3 C 0.37571 0.03722 0.08184 0.0
C4 C 0.40067 0.06851 0.17079 0.0
O5 O 0.38034 0.08535 0.1131 0.0
O6 O 0.41022 0.12014 0.13637 0.0
C7 C 0.4564 0.15494 0.1031 0.0
N8 N 0.46541 0.14498 0.12101 0.0
C9 C 0.51316 0.17475 0.10974 0.0
C10 C 0.50442 0.18537 0.09123 0.0
C11 C 0.47588 0.17527 0.0878 0.0
C12 C 0.49273 0.15392 0.12402 0.0
H13 H 0.43454 0.14757 0.1005 0.0
C14 C 0.38808 0.1081 0.12393 0.0
O15 O 0.36379 0.02905 0.10233 0.0
O16 O 0.40038 0.05908 0.08153 0.0
N17 N 0.47865 0.12241 0.15527 0.0
C18 C 0.48379 0.11212 0.17532 0.0
C19 C 0.51133 0.12042 0.18156 0.0
C20 C 0.53336 0.14036 0.16785 0.0
C21 C 0.52769 0.15199 0.1481 0.0
C22 C 0.49978 0.14228 0.14236 0.0
H23 H 0.46697 0.09761 0.18643 0.0
O24 O 0.42085 0.04295 0.12051 0.0
O25 O 0.43638 0.08809 0.12359 0.0
O26 O 0.38757 0.05509 0.15224 0.0
O27 O 0.42311 0.09212 0.17042 0.0
C28 C 0.54856 0.17349 0.13434 0.0
C29 C 0.54134 0.1845 0.11494 0.0
H30 H 0.51945 0.20141 0.07965 0.0
H31 H 0.46894 0.18336 0.07357 0.0
H32 H 0.51558 0.11185 0.19714 0.0
H33 H 0.55449 0.14699 0.17305 0.0
H34 H 0.57027 0.18192 0.13851 0.0
H35 H 0.55764 0.20085 0.10443 0.0
Mn36 Mn 0.34462 0.4112 0.61215 0.0
Mn37 Mn 0.33113 0.45344 0.64494 0.0
C38 C 0.38151 0.45312 0.62561 0.0
C39 C 0.34647 0.39593 0.57424 0.0
C40 C 0.32773 0.40024 0.66338 0.0
O41 O 0.30252 0.39515 0.60864 0.0
O42 O 0.29925 0.43092 0.62382 0.0
C43 C 0.32889 0.49012 0.60811 0.0
N44 N 0.33973 0.4869 0.62866 0.0
C45 C 0.36367 0.5361 0.63608 0.0
C46 C 0.35261 0.54002 0.61511 0.0
C47 C 0.33543 0.51695 0.60089 0.0
C48 C 0.35721 0.50902 0.64192 0.0
H49 H 0.31523 0.47235 0.59745 0.0
C50 C 0.28918 0.40798 0.61245 0.0
O51 O 0.34274 0.38028 0.59253 0.0
O52 O 0.3496 0.42037 0.57802 0.0
N53 N 0.3603 0.47683 0.66624 0.0
C54 C 0.36973 0.46958 0.6857 0.0
C55 C 0.38834 0.49042 0.70114 0.0
C56 C 0.39621 0.51836 0.69691 0.0
C57 C 0.3857 0.52521 0.67708 0.0
C58 C 0.36807 0.5037 0.66186 0.0
H59 H 0.36305 0.44808 0.68951 0.0
O60 O 0.38586 0.43372 0.61756 0.0
O61 O 0.35603 0.44801 0.62424 0.0
O62 O 0.33896 0.39523 0.64577 0.0
O63 O 0.32197 0.41986 0.66361 0.0
C64 C 0.39133 0.55242 0.6722 0.0
C65 C 0.3804 0.5579 0.65167 0.0
H66 H 0.35718 0.56064 0.60974 0.0
H67 H 0.32686 0.51977 0.58463 0.0
H68 H 0.39614 0.4849 0.71652 0.0
H69 H 0.4101 0.53433 0.70912 0.0
H70 H 0.40372 0.56916 0.68431 0.0
H71 H 0.38498 0.57893 0.64799 0.0
Mn72 Mn 0.92636 0.3333 0.10943 0.0
Mn73 Mn 0.8664 0.3225 0.13387 0.0
C74 C 0.91884 0.37069 0.11422 0.0
C75 C 0.94843 0.33182 0.07477 0.0
C76 C 0.91449 0.32499 0.16218 0.0
O77 O 0.9015 0.29081 0.10892 0.0
O78 O 0.86078 0.28751 0.11946 0.0
C79 C 0.83292 0.31143 0.09033 0.0
N80 N 0.84314 0.32589 0.1108 0.0
C81 C 0.82013 0.35221 0.10382 0.0
C82 C 0.80878 0.33711 0.08295 0.0
C83 C 0.81533 0.31672 0.07612 0.0
C84 C 0.83726 0.34577 0.11741 0.0
H85 H 0.83841 0.29624 0.08479 0.0
C86 C 0.87517 0.27694 0.11181 0.0
O87 O 0.95823 0.33063 0.09533 0.0
O88 O 0.92626 0.33395 0.07443 0.0
N89 N 0.8684 0.35463 0.14825 0.0
C90 C 0.88298 0.36892 0.16773 0.0
C91 C 0.88008 0.39112 0.17616 0.0
C92 C 0.86215 0.39828 0.16456 0.0
C93 C 0.84707 0.38304 0.14476 0.0
C94 C 0.85056 0.36093 0.13733 0.0
H95 H 0.89681 0.36353 0.1767 0.0
O96 O 0.9437 0.3749 0.11042 0.0
O97 O 0.89907 0.3448 0.11421 0.0
O98 O 0.93226 0.33231 0.14537 0.0
O99 O 0.88931 0.31931 0.15908 0.0
C100 C 0.82939 0.38943 0.13164 0.0
C101 C 0.8159 0.37403 0.11123 0.0
H102 H 0.79545 0.34137 0.07182 0.0
H103 H 0.80703 0.30527 0.05985 0.0
H104 H 0.89174 0.40278 0.19149 0.0
H105 H 0.8604 0.41571 0.17086 0.0
H106 H 0.82653 0.40658 0.13665 0.0
H107 H 0.80284 0.37958 0.10106 0.0
Mn108 Mn 0.59625 0.93884 0.62012 0.0
Mn109 Mn 0.55378 0.88529 0.65555 0.0
C110 C 0.55318 0.93295 0.63073 0.0
C111 C 0.61245 0.95431 0.58194 0.0
C112 C 0.60375 0.93825 0.67351 0.0
O113 O 0.61385 0.91398 0.61975 0.0
O114 O 0.58122 0.87755 0.64038 0.0
C115 C 0.525 0.84271 0.61855 0.0
N116 N 0.5239 0.85758 0.63725 0.0
C117 C 0.47391 0.83169 0.63747 0.0
C118 C 0.47441 0.81602 0.61824 0.0
C119 C 0.50009 0.82172 0.6086 0.0
C120 C 0.49936 0.85289 0.64615 0.0
H121 H 0.54474 0.84675 0.61139 0.0
C122 C 0.60374 0.88959 0.62841 0.0
O123 O 0.62724 0.96752 0.60029 0.0
O124 O 0.58849 0.93233 0.58575 0.0
N125 N 0.52595 0.88934 0.67199 0.0
C126 C 0.5291 0.9053 0.69135 0.0
C127 C 0.50542 0.90222 0.70308 0.0
C128 C 0.47879 0.88205 0.69536 0.0
C129 C 0.47615 0.86506 0.67605 0.0
C130 C 0.50044 0.86951 0.66472 0.0
H131 H 0.54953 0.9203 0.69778 0.0
O132 O 0.57243 0.95646 0.62222 0.0
O133 O 0.55923 0.91315 0.63179 0.0
O134 O 0.61073 0.95189 0.65407 0.0
O135 O 0.58369 0.91324 0.67549 0.0
C136 C 0.45041 0.84322 0.66816 0.0
C137 C 0.44921 0.8267 0.64874 0.0
H138 H 0.45524 0.79948 0.61081 0.0
H139 H 0.50068 0.80972 0.59377 0.0
H140 H 0.50769 0.9151 0.71822 0.0
H141 H 0.46055 0.87945 0.70463 0.0
H142 H 0.43152 0.83877 0.67719 0.0
H143 H 0.42924 0.81003 0.64274 0.0
Mn144 Mn 0.66164 0.59364 0.11691 0.0
Mn145 Mn 0.67466 0.54454 0.13853 0.0
C146 C 0.62584 0.54778 0.11975 0.0
C147 C 0.65999 0.61881 0.08441 0.0
C148 C 0.66812 0.58533 0.16978 0.0
O149 O 0.70409 0.61305 0.11537 0.0
O150 O 0.70971 0.57809 0.12923 0.0
C151 C 0.69459 0.53223 0.09414 0.0
N152 N 0.6768 0.52335 0.11287 0.0
C153 C 0.65457 0.47596 0.09929 0.0
C154 C 0.67277 0.48453 0.07992 0.0
C155 C 0.69284 0.5128 0.07732 0.0
C156 C 0.65744 0.49623 0.11556 0.0
H157 H 0.70995 0.55397 0.09204 0.0
C158 C 0.71927 0.60277 0.12125 0.0
O159 O 0.66193 0.62809 0.10583 0.0
O160 O 0.6596 0.59541 0.08197 0.0
N161 N 0.64281 0.51075 0.14841 0.0
C162 C 0.62617 0.50622 0.16754 0.0
C163 C 0.60453 0.47917 0.17233 0.0
C164 C 0.60038 0.45714 0.1575 0.0
C165 C 0.61822 0.46217 0.13828 0.0
C166 C 0.63961 0.48952 0.13453 0.0
H167 H 0.62926 0.52316 0.17891 0.0
O168 O 0.62045 0.56793 0.11828 0.0
O169 O 0.65207 0.55499 0.11912 0.0
O170 O 0.66334 0.59831 0.15336 0.0
O171 O 0.67238 0.56508 0.16586 0.0
C172 C 0.61517 0.44133 0.1223 0.0
C173 C 0.63332 0.44821 0.10283 0.0
H174 H 0.67136 0.46963 0.06684 0.0
H175 H 0.70687 0.51961 0.06236 0.0
H176 H 0.59099 0.47534 0.18733 0.0
H177 H 0.58328 0.43655 0.1609 0.0
H178 H 0.59866 0.42005 0.12451 0.0
H179 H 0.63051 0.43206 0.09052 0.0
Mn180 Mn 0.06835 0.66401 0.61476 0.0
Mn181 Mn 0.12576 0.67887 0.64645 0.0
C182 C 0.07595 0.62822 0.62633 0.0
C183 C 0.04978 0.66219 0.57751 0.0
C184 C 0.07354 0.6749 0.66781 0.0
O185 O 0.09182 0.70627 0.61207 0.0
O186 O 0.13072 0.71267 0.63004 0.0
C187 C 0.16369 0.69096 0.60579 0.0
N188 N 0.15204 0.67666 0.62608 0.0
C189 C 0.1803 0.65507 0.62478 0.0
C190 C 0.1929 0.66985 0.60404 0.0
C191 C 0.18432 0.68766 0.59435 0.0
C192 C 0.15924 0.65857 0.63496 0.0
H193 H 0.15725 0.70473 0.59841 0.0
C194 C 0.11699 0.72159 0.61845 0.0
O195 O 0.03769 0.66443 0.59639 0.0
O196 O 0.07211 0.66059 0.58033 0.0
N197 N 0.12526 0.64878 0.66344 0.0
C198 C 0.11194 0.6369 0.68408 0.0
C199 C 0.11781 0.61816 0.69588 0.0
C200 C 0.13836 0.61289 0.68699 0.0
C201 C 0.15274 0.62634 0.66634 0.0
C202 C 0.1453 0.64405 0.65491 0.0
H203 H 0.09719 0.64191 0.69162 0.0
O204 O 0.05168 0.62299 0.61893 0.0
O205 O 0.09564 0.65414 0.62531 0.0
O206 O 0.05852 0.66768 0.64914 0.0
O207 O 0.09888 0.68044 0.66849 0.0
C208 C 0.1749 0.62372 0.65713 0.0
C209 C 0.18827 0.63755 0.6361 0.0
H210 H 0.20919 0.66773 0.59544 0.0
H211 H 0.19381 0.69906 0.57828 0.0
H212 H 0.10703 0.60833 0.71209 0.0
H213 H 0.14328 0.59893 0.69645 0.0
H214 H 0.18214 0.6115 0.66626 0.0
H215 H 0.20497 0.63493 0.62902 0.0
Mn216 Mn 0.93822 0.60202 0.38679 0.0
Mn217 Mn 0.87923 0.55887 0.35722 0.0
C218 C 0.92681 0.5563 0.37912 0.0
C219 C 0.96182 0.62249 0.42177 0.0
C220 C 0.93134 0.60443 0.33366 0.0
O221 O 0.91579 0.62209 0.38888 0.0
O222 O 0.8758 0.58953 0.37186 0.0
C223 C 0.83976 0.53598 0.39731 0.0
N224 N 0.85209 0.5319 0.37812 0.0
C225 C 0.8232 0.48219 0.38139 0.0
C226 C 0.81013 0.48585 0.40116 0.0
C227 C 0.81859 0.51288 0.40925 0.0
C228 C 0.84449 0.50598 0.37048 0.0
H229 H 0.84597 0.55668 0.40337 0.0
C230 C 0.89053 0.6127 0.38261 0.0
O231 O 0.97117 0.63408 0.40136 0.0
O232 O 0.93839 0.59909 0.42196 0.0
N233 N 0.87948 0.52799 0.3424 0.0
C234 C 0.89475 0.528 0.32355 0.0
C235 C 0.88923 0.50261 0.31351 0.0
C236 C 0.86764 0.47751 0.3226 0.0
C237 C 0.85211 0.47801 0.34195 0.0
C238 C 0.85885 0.50393 0.35144 0.0
H239 H 0.91081 0.54721 0.31608 0.0
O240 O 0.9523 0.57514 0.38383 0.0
O241 O 0.9087 0.56463 0.37944 0.0
O242 O 0.94672 0.61259 0.35193 0.0
O243 O 0.90584 0.58525 0.33382 0.0
C244 C 0.82989 0.45387 0.35196 0.0
C245 C 0.81574 0.45589 0.3719 0.0
H246 H 0.79359 0.46808 0.41025 0.0
H247 H 0.80862 0.51591 0.42449 0.0
H248 H 0.90131 0.50242 0.29856 0.0
H249 H 0.86312 0.45802 0.31449 0.0
H250 H 0.82333 0.43366 0.34432 0.0
H251 H 0.79897 0.43711 0.37964 0.0
Mn252 Mn 0.33118 0.92571 0.89286 0.0
Mn253 Mn 0.31778 0.86515 0.86791 0.0
C254 C 0.36713 0.91604 0.88846 0.0
C255 C 0.33015 0.94777 0.92754 0.0
C256 C 0.32311 0.91473 0.84006 0.0
O257 O 0.28869 0.90271 0.89263 0.0
O258 O 0.28302 0.86118 0.88146 0.0
C259 C 0.30286 0.82966 0.91055 0.0
N260 N 0.31891 0.84056 0.89091 0.0
C261 C 0.3433 0.81573 0.89859 0.0
C262 C 0.32687 0.80402 0.91878 0.0
C263 C 0.30659 0.81107 0.92481 0.0
C264 C 0.33845 0.83393 0.88493 0.0
H265 H 0.28738 0.83516 0.9153 0.0
C266 C 0.27363 0.87663 0.88901 0.0
O267 O 0.33 0.95829 0.90705 0.0
O268 O 0.33108 0.92494 0.9278 0.0
N269 N 0.34958 0.86575 0.85425 0.0
C270 C 0.3649 0.88035 0.83516 0.0
C271 C 0.38685 0.87663 0.82739 0.0
C272 C 0.39266 0.85786 0.83921 0.0
C273 C 0.37634 0.84276 0.8586 0.0
C274 C 0.35462 0.84718 0.86543 0.0
H275 H 0.36054 0.89483 0.82604 0.0
O276 O 0.37248 0.94126 0.8924 0.0
O277 O 0.34088 0.8971 0.88809 0.0
O278 O 0.331 0.93236 0.857 0.0
O279 O 0.31666 0.8893 0.84285 0.0
C280 C 0.38123 0.82411 0.87186 0.0
C281 C 0.36474 0.8106 0.8918 0.0
H282 H 0.32985 0.78984 0.92993 0.0
H283 H 0.29394 0.80227 0.94044 0.0
H284 H 0.39936 0.88832 0.81241 0.0
H285 H 0.40989 0.85548 0.83338 0.0
H286 H 0.39794 0.82037 0.86724 0.0
H287 H 0.36905 0.79667 0.90203 0.0
Mn288 Mn 0.40471 0.34159 0.38434 0.0
Mn289 Mn 0.44978 0.32762 0.35595 0.0
C290 C 0.45064 0.37646 0.37854 0.0
C291 C 0.38289 0.34388 0.41881 0.0
C292 C 0.40498 0.33402 0.33095 0.0
O293 O 0.38504 0.29892 0.38559 0.0
O294 O 0.4185 0.29289 0.36862 0.0
C295 C 0.47054 0.30934 0.39636 0.0
N296 N 0.4756 0.32663 0.37763 0.0
C297 C 0.52508 0.34678 0.38213 0.0
C298 C 0.52047 0.3292 0.4015 0.0
C299 C 0.49307 0.31055 0.40876 0.0
C300 C 0.50185 0.34507 0.37083 0.0
H301 H 0.44948 0.29462 0.40167 0.0
C302 C 0.39481 0.28357 0.37864 0.0
O303 O 0.37194 0.34193 0.39814 0.0
O304 O 0.40617 0.34366 0.41955 0.0
N305 N 0.48119 0.3595 0.34267 0.0
C306 C 0.48198 0.37572 0.32427 0.0
C307 C 0.50781 0.39579 0.31504 0.0
C308 C 0.53247 0.39847 0.32444 0.0
C309 C 0.53111 0.38156 0.34343 0.0
C310 C 0.50481 0.36233 0.35217 0.0
H311 H 0.46303 0.37318 0.31656 0.0
O312 O 0.43136 0.38271 0.38253 0.0
O313 O 0.44253 0.35009 0.3783 0.0
O314 O 0.39573 0.3406 0.34897 0.0
O315 O 0.42456 0.32832 0.33191 0.0
C316 C 0.55473 0.38263 0.35375 0.0
C317 C 0.55178 0.36561 0.37334 0.0
H318 H 0.53779 0.32981 0.41088 0.0
H319 H 0.48933 0.2969 0.42367 0.0
H320 H 0.50871 0.40881 0.30044 0.0
H321 H 0.55228 0.4135 0.31684 0.0
H322 H 0.57528 0.39635 0.3467 0.0
H323 H 0.57016 0.36699 0.38135 0.0
Mn324 Mn 0.06171 0.39914 0.88587 0.0
Mn325 Mn 0.11973 0.44742 0.85802 0.0
C326 C 0.06876 0.44374 0.87983 0.0
C327 C 0.03909 0.37627 0.92073 0.0
C328 C 0.07106 0.39983 0.83256 0.0
O329 O 0.08765 0.38276 0.88749 0.0
O330 O 0.12641 0.41841 0.87147 0.0
C331 C 0.15721 0.47146 0.89918 0.0
N332 N 0.14445 0.4748 0.87993 0.0
C333 C 0.16618 0.52412 0.88664 0.0
C334 C 0.17971 0.52127 0.90648 0.0
C335 C 0.17518 0.49482 0.91278 0.0
C336 C 0.14873 0.50014 0.87365 0.0
H337 H 0.15364 0.45112 0.90413 0.0
C338 C 0.11322 0.39447 0.88132 0.0
O339 O 0.03049 0.3648 0.90014 0.0
O340 O 0.06103 0.40087 0.92108 0.0
N341 N 0.11603 0.47674 0.84409 0.0
C342 C 0.10008 0.4756 0.82534 0.0
C343 C 0.10172 0.50022 0.81704 0.0
C344 C 0.1197 0.52565 0.82811 0.0
C345 C 0.13584 0.52622 0.84739 0.0
C346 C 0.13378 0.50116 0.85457 0.0
H347 H 0.0862 0.45608 0.81679 0.0
O348 O 0.04394 0.42302 0.88381 0.0
O349 O 0.0886 0.4377 0.87969 0.0
O350 O 0.05475 0.38981 0.8503 0.0
O351 O 0.09571 0.4206 0.83394 0.0
C352 C 0.15333 0.55055 0.86012 0.0
C353 C 0.16861 0.54963 0.87967 0.0
H354 H 0.19337 0.5392 0.91714 0.0
H355 H 0.18543 0.49242 0.92813 0.0
H356 H 0.0891 0.4996 0.80221 0.0
H357 H 0.12083 0.54459 0.82176 0.0
H358 H 0.15443 0.56983 0.85536 0.0
H359 H 0.18167 0.56852 0.8895 0.0
Mn360 Mn 0.66431 0.07116 0.39348 0.0
Mn361 Mn 0.67865 0.13217 0.36831 0.0
C362 C 0.62827 0.07955 0.38474 0.0
C363 C 0.66019 0.04493 0.42709 0.0
C364 C 0.67404 0.08394 0.34007 0.0
O365 O 0.70639 0.0946 0.398 0.0
O366 O 0.71279 0.13311 0.3795 0.0
C367 C 0.69677 0.16457 0.41272 0.0
N368 N 0.68018 0.15609 0.39321 0.0
C369 C 0.6617 0.18592 0.40268 0.0
C370 C 0.67861 0.19504 0.42287 0.0
C371 C 0.69605 0.18412 0.42802 0.0
C372 C 0.66266 0.16572 0.38852 0.0
H373 H 0.71057 0.15659 0.41651 0.0
C374 C 0.72199 0.11912 0.39021 0.0
O375 O 0.66452 0.0378 0.40635 0.0
O376 O 0.65866 0.06748 0.42833 0.0
N377 N 0.64858 0.13588 0.3561 0.0
C378 C 0.63483 0.12608 0.33524 0.0
C379 C 0.61671 0.13516 0.32733 0.0
C380 C 0.61399 0.1552 0.34035 0.0
C381 C 0.62913 0.16579 0.36132 0.0
C382 C 0.64625 0.15537 0.36866 0.0
H383 H 0.63774 0.1115 0.3247 0.0
O384 O 0.62358 0.05454 0.38857 0.0
O385 O 0.65397 0.09955 0.3875 0.0
O386 O 0.66966 0.0676 0.35761 0.0
O387 O 0.67694 0.10822 0.34208 0.0
C388 C 0.6286 0.18686 0.37486 0.0
C389 C 0.64446 0.19654 0.39574 0.0
H390 H 0.67849 0.21053 0.43445 0.0
H391 H 0.70919 0.19106 0.44354 0.0
H392 H 0.60539 0.12723 0.31095 0.0
H393 H 0.60073 0.16275 0.33375 0.0
H394 H 0.616 0.19574 0.36951 0.0
H395 H 0.64355 0.21247 0.40613 0.0
Mn396 Mn 0.59269 0.65902 0.89248 0.0
Mn397 Mn 0.54994 0.66951 0.85699 0.0
C398 C 0.54975 0.62167 0.88202 0.0
C399 C 0.60965 0.65977 0.9304 0.0
C400 C 0.59584 0.66127 0.83786 0.0
O401 O 0.61044 0.70116 0.89339 0.0
O402 O 0.5827 0.7051 0.86688 0.0
C403 C 0.5331 0.69481 0.89498 0.0
N404 N 0.52609 0.67514 0.87784 0.0
C405 C 0.47733 0.65709 0.88494 0.0
C406 C 0.48399 0.67717 0.9026 0.0
C407 C 0.51203 0.696 0.90774 0.0
C408 C 0.49923 0.65643 0.87323 0.0
H409 H 0.55459 0.70955 0.89889 0.0
C410 C 0.60372 0.71572 0.88066 0.0
O411 O 0.62413 0.66142 0.91179 0.0
O412 O 0.58548 0.6574 0.92696 0.0
N413 N 0.51671 0.63809 0.84546 0.0
C414 C 0.5138 0.62195 0.82632 0.0
C415 C 0.48704 0.60225 0.81855 0.0
C416 C 0.46359 0.60037 0.82975 0.0
C417 C 0.46708 0.61838 0.84849 0.0
C418 C 0.49425 0.63706 0.85585 0.0
H419 H 0.53178 0.62405 0.81711 0.0
O420 O 0.56938 0.6178 0.89016 0.0
O421 O 0.55514 0.64744 0.88139 0.0
O422 O 0.60658 0.66108 0.85793 0.0
O423 O 0.57384 0.66305 0.83533 0.0
C424 C 0.44477 0.61919 0.85965 0.0
C425 C 0.44984 0.63816 0.87811 0.0
H426 H 0.46776 0.67842 0.91221 0.0
H427 H 0.51739 0.71159 0.92135 0.0
H428 H 0.48451 0.58888 0.80371 0.0
H429 H 0.4431 0.58549 0.82339 0.0
H430 H 0.42359 0.6055 0.85419 0.0
H431 H 0.43244 0.63836 0.88662 0.0
Mn432 Mn 0.58956 0.92886 0.8907 0.0
Mn433 Mn 0.5493 0.87599 0.85398 0.0
C434 C 0.54455 0.91895 0.88189 0.0
C435 C 0.60563 0.94381 0.92902 0.0
C436 C 0.59686 0.93148 0.83721 0.0
O437 O 0.6097 0.90637 0.88943 0.0
O438 O 0.57871 0.87 0.86754 0.0
C439 C 0.52323 0.82992 0.88855 0.0
N440 N 0.52071 0.84556 0.87123 0.0
C441 C 0.47089 0.81653 0.87083 0.0
C442 C 0.47289 0.80005 0.88866 0.0
C443 C 0.49917 0.8069 0.89767 0.0
C444 C 0.49552 0.83951 0.86278 0.0
H445 H 0.54345 0.83491 0.89524 0.0
C446 C 0.6011 0.88266 0.8797 0.0
O447 O 0.61955 0.95832 0.91078 0.0
O448 O 0.58266 0.9208 0.925 0.0
N449 N 0.51985 0.87913 0.83954 0.0
C450 C 0.52151 0.89779 0.82304 0.0
C451 C 0.49701 0.89425 0.81253 0.0
C452 C 0.47119 0.87126 0.81872 0.0
C453 C 0.47005 0.85231 0.83571 0.0
C454 C 0.49508 0.85717 0.84586 0.0
H455 H 0.54138 0.91512 0.81783 0.0
O456 O 0.56271 0.94318 0.89009 0.0
O457 O 0.55315 0.90122 0.87953 0.0
O458 O 0.60324 0.94409 0.85708 0.0
O459 O 0.57773 0.90619 0.83457 0.0
C460 C 0.44515 0.82854 0.84271 0.0
C461 C 0.44548 0.81089 0.86052 0.0
H462 H 0.45441 0.78209 0.89553 0.0
H463 H 0.5009 0.79429 0.91142 0.0
H464 H 0.49805 0.90899 0.79946 0.0
H465 H 0.45241 0.86837 0.81027 0.0
H466 H 0.42562 0.82352 0.83441 0.0
H467 H 0.4261 0.79292 0.866 0.0
Mn468 Mn 0.66363 0.59711 0.3947 0.0
Mn469 Mn 0.67749 0.54808 0.37465 0.0
C470 C 0.6276 0.55133 0.39122 0.0
C471 C 0.66202 0.62249 0.42705 0.0
C472 C 0.67285 0.58986 0.34266 0.0
O473 O 0.70617 0.6165 0.39625 0.0
O474 O 0.71188 0.58007 0.38737 0.0
C475 C 0.69102 0.53169 0.42033 0.0
N476 N 0.67583 0.52463 0.40003 0.0
C477 C 0.65116 0.47629 0.41104 0.0
C478 C 0.66685 0.48297 0.4319 0.0
C479 C 0.68682 0.51082 0.4366 0.0
C480 C 0.65646 0.49795 0.3954 0.0
H481 H 0.70609 0.55309 0.42414 0.0
C482 C 0.72124 0.60524 0.39396 0.0
O483 O 0.6641 0.63171 0.40559 0.0
O484 O 0.6614 0.599 0.42962 0.0
N485 N 0.64626 0.5156 0.36192 0.0
C486 C 0.63195 0.51292 0.34161 0.0
C487 C 0.61058 0.48651 0.33473 0.0
C488 C 0.60424 0.4632 0.34875 0.0
C489 C 0.61966 0.46636 0.36929 0.0
C490 C 0.64096 0.49314 0.37509 0.0
H491 H 0.63671 0.53079 0.33079 0.0
O492 O 0.62236 0.57155 0.39301 0.0
O493 O 0.65377 0.55839 0.39246 0.0
O494 O 0.66553 0.60145 0.35845 0.0
O495 O 0.67891 0.57091 0.3473 0.0
C496 C 0.61428 0.44417 0.3846 0.0
C497 C 0.63 0.44911 0.40544 0.0
H498 H 0.66349 0.46694 0.44457 0.0
H499 H 0.69883 0.51621 0.45276 0.0
H500 H 0.59893 0.48416 0.31873 0.0
H501 H 0.58735 0.44307 0.34366 0.0
H502 H 0.59776 0.42331 0.38086 0.0
H503 H 0.62534 0.43192 0.41721 0.0
Mn504 Mn 0.05912 0.6558 0.88754 0.0
Mn505 Mn 0.12021 0.67263 0.86117 0.0
C506 C 0.07067 0.62154 0.88002 0.0
C507 C 0.03324 0.65111 0.92144 0.0
C508 C 0.06995 0.66591 0.83447 0.0
O509 O 0.08095 0.698 0.89127 0.0
O510 O 0.121 0.70631 0.87405 0.0
C511 C 0.15564 0.69096 0.90397 0.0
N512 N 0.14627 0.67475 0.8843 0.0
C513 C 0.17905 0.65888 0.88976 0.0
C514 C 0.18928 0.67563 0.90997 0.0
C515 C 0.17731 0.69152 0.91725 0.0
C516 C 0.157 0.65871 0.87758 0.0
H517 H 0.1467 0.70339 0.9094 0.0
C518 C 0.10589 0.71433 0.88466 0.0
O519 O 0.02508 0.6542 0.90073 0.0
O520 O 0.05655 0.65097 0.92248 0.0
N521 N 0.12341 0.64262 0.84795 0.0
C522 C 0.11023 0.62661 0.82875 0.0
C523 C 0.11922 0.60895 0.81947 0.0
C524 C 0.14218 0.60859 0.8296 0.0
C525 C 0.15539 0.62522 0.84939 0.0
C526 C 0.14509 0.6419 0.85816 0.0
H527 H 0.09322 0.62758 0.82043 0.0
O528 O 0.04498 0.61513 0.88327 0.0
O529 O 0.08912 0.64787 0.88175 0.0
O530 O 0.05381 0.66019 0.8522 0.0
O531 O 0.0949 0.67061 0.83578 0.0
C532 C 0.17867 0.62634 0.86056 0.0
C533 C 0.19012 0.64269 0.88099 0.0
H534 H 0.20626 0.6764 0.92004 0.0
H535 H 0.18498 0.70444 0.93287 0.0
H536 H 0.1089 0.59613 0.80423 0.0
H537 H 0.14956 0.59559 0.82195 0.0
H538 H 0.1881 0.61484 0.85358 0.0
H539 H 0.20763 0.6429 0.88967 0.0
Mn540 Mn 0.40906 0.07132 0.3913 0.0
Mn541 Mn 0.45172 0.12509 0.35599 0.0
C542 C 0.45231 0.07771 0.3809 0.0
C543 C 0.39245 0.05489 0.42923 0.0
C544 C 0.40496 0.0709 0.33696 0.0
O545 O 0.39096 0.09545 0.39219 0.0
O546 O 0.42009 0.12903 0.36745 0.0
C547 C 0.47182 0.16736 0.39404 0.0
N548 N 0.4773 0.15419 0.3763 0.0
C549 C 0.52665 0.18393 0.38133 0.0
C550 C 0.52157 0.19787 0.39961 0.0
C551 C 0.49402 0.18939 0.40612 0.0
C552 C 0.5037 0.16154 0.37046 0.0
H553 H 0.45069 0.16118 0.3989 0.0
C554 C 0.3986 0.11785 0.38075 0.0
O555 O 0.37795 0.04197 0.41066 0.0
O556 O 0.41637 0.07703 0.42575 0.0
N557 N 0.48376 0.12551 0.34301 0.0
C558 C 0.4851 0.11192 0.32345 0.0
C559 C 0.51112 0.11828 0.31427 0.0
C560 C 0.53552 0.1396 0.32452 0.0
C561 C 0.53363 0.15446 0.34379 0.0
C562 C 0.50713 0.14663 0.35259 0.0
H563 H 0.46645 0.09647 0.31482 0.0
O564 O 0.43295 0.05398 0.38892 0.0
O565 O 0.44642 0.09768 0.38022 0.0
O566 O 0.39507 0.05915 0.35694 0.0
O567 O 0.42626 0.09519 0.33458 0.0
C568 C 0.55691 0.17757 0.35387 0.0
C569 C 0.55353 0.19191 0.37297 0.0
H570 H 0.53865 0.21523 0.40864 0.0
H571 H 0.48991 0.20004 0.4202 0.0
H572 H 0.51233 0.10719 0.299 0.0
H573 H 0.5555 0.14488 0.317 0.0
H574 H 0.57747 0.1848 0.3468 0.0
H575 H 0.57168 0.20949 0.3807 0.0
Mn576 Mn 0.33935 0.40083 0.88244 0.0
Mn577 Mn 0.32803 0.44715 0.85288 0.0
C578 C 0.37678 0.44401 0.87217 0.0
C579 C 0.3416 0.38005 0.91764 0.0
C580 C 0.327 0.39753 0.82952 0.0
O581 O 0.29736 0.38497 0.8864 0.0
O582 O 0.29348 0.41919 0.86861 0.0
C583 C 0.31745 0.47413 0.89349 0.0
N584 N 0.33197 0.47606 0.8735 0.0
C585 C 0.35349 0.52592 0.87316 0.0
C586 C 0.33889 0.52457 0.89382 0.0
C587 C 0.32105 0.49856 0.90419 0.0
C588 C 0.35003 0.50099 0.86394 0.0
H589 H 0.30301 0.45407 0.90098 0.0
C590 C 0.28321 0.39617 0.87986 0.0
O591 O 0.33679 0.3673 0.8975 0.0
O592 O 0.34478 0.4049 0.91745 0.0
N593 N 0.35919 0.47564 0.83621 0.0
C594 C 0.37159 0.47326 0.81625 0.0
C595 C 0.39048 0.49736 0.80393 0.0
C596 C 0.39542 0.52351 0.81164 0.0
C597 C 0.38187 0.52533 0.83191 0.0
C598 C 0.36424 0.50075 0.84404 0.0
H599 H 0.36693 0.4531 0.80967 0.0
O600 O 0.38047 0.42333 0.8775 0.0
O601 O 0.35137 0.43928 0.87393 0.0
O602 O 0.33394 0.38856 0.84754 0.0
O603 O 0.3237 0.41868 0.82999 0.0
C604 C 0.38426 0.55042 0.84 0.0
C605 C 0.37056 0.55085 0.86088 0.0
H606 H 0.34103 0.54332 0.90174 0.0
H607 H 0.3096 0.49732 0.92006 0.0
H608 H 0.40062 0.49573 0.78817 0.0
H609 H 0.40935 0.54198 0.80167 0.0
H610 H 0.39625 0.5694 0.83006 0.0
H611 H 0.37296 0.57039 0.86713 0.0
Mn612 Mn 0.93523 0.34377 0.38688 0.0
Mn613 Mn 0.87269 0.32884 0.36484 0.0
C614 C 0.92476 0.37907 0.38184 0.0
C615 C 0.96244 0.34745 0.41979 0.0
C616 C 0.91983 0.33392 0.33412 0.0
O617 O 0.91242 0.30149 0.39046 0.0
O618 O 0.87155 0.29449 0.37603 0.0
C619 C 0.84103 0.31139 0.40966 0.0
N620 N 0.84963 0.32807 0.39021 0.0
C621 C 0.82443 0.35083 0.40231 0.0
C622 C 0.81513 0.33376 0.4224 0.0
C623 C 0.82351 0.31398 0.4261 0.0
C624 C 0.84171 0.34716 0.38646 0.0
H625 H 0.84753 0.29624 0.41262 0.0
C626 C 0.88691 0.28572 0.385 0.0
O627 O 0.96962 0.34438 0.39863 0.0
O628 O 0.93945 0.34797 0.42176 0.0
N629 N 0.87034 0.35994 0.35331 0.0
C630 C 0.88214 0.3755 0.33358 0.0
C631 C 0.87647 0.39672 0.32763 0.0
C632 C 0.85861 0.40154 0.34192 0.0
C633 C 0.84625 0.38487 0.36187 0.0
C634 C 0.85248 0.36387 0.36679 0.0
H635 H 0.89593 0.37188 0.32258 0.0
O636 O 0.95039 0.38476 0.38352 0.0
O637 O 0.9059 0.35286 0.38359 0.0
O638 O 0.9378 0.33985 0.3506 0.0
O639 O 0.89526 0.32964 0.33778 0.0
C640 C 0.82857 0.38867 0.37743 0.0
C641 C 0.81768 0.37169 0.39761 0.0
H642 H 0.80174 0.33583 0.43519 0.0
H643 H 0.81654 0.30083 0.44162 0.0
H644 H 0.88594 0.40941 0.31213 0.0
H645 H 0.85473 0.41821 0.33746 0.0
H646 H 0.82351 0.40483 0.37433 0.0
H647 H 0.80441 0.37508 0.40957 0.0
Mn648 Mn 0.06875 0.41086 0.61323 0.0
Mn649 Mn 0.12426 0.4531 0.64619 0.0
C650 C 0.07401 0.45308 0.62615 0.0
C651 C 0.05218 0.39566 0.575 0.0
C652 C 0.07428 0.40013 0.66466 0.0
O653 O 0.09479 0.39471 0.61031 0.0
O654 O 0.13394 0.4309 0.62496 0.0
C655 C 0.16339 0.49038 0.60974 0.0
N656 N 0.14894 0.48681 0.63012 0.0
C657 C 0.17239 0.53611 0.63707 0.0
C658 C 0.18777 0.54037 0.61628 0.0
C659 C 0.183 0.5174 0.6024 0.0
C660 C 0.1526 0.50879 0.64312 0.0
H661 H 0.16008 0.47272 0.59928 0.0
C662 C 0.12103 0.40776 0.61386 0.0
O663 O 0.03989 0.38004 0.59324 0.0
O664 O 0.07356 0.41996 0.57901 0.0
N665 N 0.11786 0.47607 0.66753 0.0
C666 C 0.10115 0.4685 0.687 0.0
C667 C 0.10234 0.48914 0.7021 0.0
C668 C 0.12132 0.51729 0.69748 0.0
C669 C 0.1388 0.52451 0.67771 0.0
C670 C 0.13615 0.50311 0.66293 0.0
H671 H 0.08704 0.44692 0.69107 0.0
O672 O 0.05026 0.43379 0.61802 0.0
O673 O 0.09412 0.44758 0.62527 0.0
O674 O 0.05802 0.39526 0.64705 0.0
O675 O 0.09988 0.41929 0.66463 0.0
C676 C 0.15925 0.55206 0.67244 0.0
C677 C 0.17616 0.55785 0.65219 0.0
H678 H 0.2032 0.56118 0.61077 0.0
H679 H 0.19467 0.52049 0.58627 0.0
H680 H 0.08896 0.48334 0.71747 0.0
H681 H 0.12249 0.53315 0.70936 0.0
H682 H 0.16227 0.5688 0.68406 0.0
H683 H 0.1919 0.5791 0.64825 0.0
Mn684 Mn 0.65259 0.05821 0.1185 0.0
Mn685 Mn 0.66689 0.1201 0.14101 0.0
C686 C 0.61609 0.06589 0.12784 0.0
C687 C 0.64858 0.032 0.08491 0.0
C688 C 0.66942 0.07485 0.16955 0.0
O689 O 0.69459 0.08291 0.11325 0.0
O690 O 0.69904 0.12442 0.12247 0.0
C691 C 0.67079 0.15043 0.09688 0.0
N692 N 0.6595 0.14133 0.11868 0.0
C693 C 0.63731 0.16902 0.11773 0.0
C694 C 0.64874 0.17882 0.09528 0.0
C695 C 0.66526 0.16919 0.08468 0.0
C696 C 0.6426 0.14947 0.12858 0.0
H697 H 0.68409 0.14361 0.08901 0.0
C698 C 0.7086 0.10941 0.11425 0.0
O699 O 0.65359 0.02524 0.10556 0.0
O700 O 0.6461 0.054 0.08379 0.0
N701 N 0.63794 0.1198 0.15953 0.0
C702 C 0.62836 0.10818 0.18119 0.0
C703 C 0.61083 0.11498 0.1939 0.0
C704 C 0.60437 0.13457 0.18469 0.0
C705 C 0.61502 0.14674 0.16261 0.0
C706 C 0.63137 0.13826 0.15031 0.0
H707 H 0.6342 0.094 0.18882 0.0
O708 O 0.61165 0.04089 0.12436 0.0
O709 O 0.6415 0.08584 0.12436 0.0
O710 O 0.65925 0.05562 0.15396 0.0
O711 O 0.67468 0.09971 0.16561 0.0
C712 C 0.61097 0.16772 0.15273 0.0
C713 C 0.62164 0.17851 0.13012 0.0
H714 H 0.64508 0.19384 0.08609 0.0
H715 H 0.67419 0.17666 0.06737 0.0
H716 H 0.60293 0.10568 0.21102 0.0
H717 H 0.59148 0.14036 0.19484 0.0
H718 H 0.60003 0.176 0.16255 0.0
H719 H 0.61797 0.19433 0.12255 0.0
Mn720 Mn 0.59829 0.66594 0.61926 0.0
Mn721 Mn 0.55543 0.67598 0.65519 0.0
C722 C 0.55532 0.62862 0.62961 0.0
C723 C 0.61493 0.66686 0.58115 0.0
C724 C 0.60212 0.66819 0.67369 0.0
O725 O 0.61594 0.70814 0.61872 0.0
O726 O 0.58709 0.71178 0.64428 0.0
C727 C 0.53581 0.69944 0.6178 0.0
N728 N 0.5301 0.68029 0.63516 0.0
C729 C 0.48086 0.66156 0.6304 0.0
C730 C 0.48616 0.6811 0.61253 0.0
C731 C 0.51378 0.69998 0.60607 0.0
C732 C 0.50364 0.66143 0.64094 0.0
H733 H 0.55698 0.71428 0.61298 0.0
C734 C 0.60831 0.72254 0.6307 0.0
O735 O 0.62953 0.66837 0.59963 0.0
O736 O 0.59089 0.66473 0.58482 0.0
N737 N 0.52321 0.64411 0.66763 0.0
C738 C 0.52165 0.62821 0.68655 0.0
C739 C 0.49552 0.60835 0.6954 0.0
C740 C 0.47127 0.60608 0.68553 0.0
C741 C 0.47339 0.62377 0.66694 0.0
C742 C 0.49998 0.64252 0.65836 0.0
H743 H 0.54021 0.63074 0.69488 0.0
O744 O 0.57486 0.6247 0.6213 0.0
O745 O 0.5608 0.65436 0.6305 0.0
O746 O 0.61235 0.66729 0.65359 0.0
O747 O 0.58062 0.67078 0.67631 0.0
C748 C 0.45029 0.62431 0.65721 0.0
C749 C 0.45392 0.64274 0.63863 0.0
H750 H 0.46922 0.68192 0.60377 0.0
H751 H 0.51808 0.71515 0.5923 0.0
H752 H 0.49411 0.59526 0.71013 0.0
H753 H 0.45124 0.59117 0.6928 0.0
H754 H 0.42965 0.61087 0.66402 0.0
H755 H 0.4359 0.64266 0.63116 0.0
Mn756 Mn 0.93267 0.59336 0.11647 0.0
Mn757 Mn 0.88105 0.55347 0.15444 0.0
C758 C 0.92338 0.54872 0.12594 0.0
C759 C 0.94695 0.6085 0.07794 0.0
C760 C 0.93702 0.60076 0.17008 0.0
O761 O 0.90989 0.61298 0.11729 0.0
O762 O 0.87569 0.58385 0.14189 0.0
C763 C 0.83399 0.52919 0.12068 0.0
N764 N 0.84972 0.52576 0.13737 0.0
C765 C 0.81942 0.4761 0.13732 0.0
C766 C 0.80285 0.47905 0.12014 0.0
C767 C 0.81029 0.5057 0.11167 0.0
C768 C 0.84311 0.50019 0.14525 0.0
H769 H 0.8394 0.54968 0.11442 0.0
C770 C 0.88726 0.60535 0.12853 0.0
O771 O 0.96161 0.62304 0.0959 0.0
O772 O 0.92422 0.58541 0.08237 0.0
N773 N 0.88339 0.52309 0.1679 0.0
C774 C 0.90204 0.52379 0.18395 0.0
C775 C 0.89787 0.49885 0.19398 0.0
C776 C 0.87425 0.47354 0.18781 0.0
C777 C 0.8553 0.47334 0.17129 0.0
C778 C 0.86082 0.4988 0.16157 0.0
H779 H 0.91982 0.54323 0.18916 0.0
O780 O 0.94752 0.56701 0.11764 0.0
O781 O 0.90541 0.55703 0.12825 0.0
O782 O 0.94818 0.60835 0.1497 0.0
O783 O 0.91234 0.58077 0.1736 0.0
C784 C 0.83088 0.44899 0.16439 0.0
C785 C 0.81317 0.45028 0.14715 0.0
H786 H 0.78435 0.46102 0.11338 0.0
H787 H 0.7976 0.50816 0.09842 0.0
H788 H 0.9126 0.49919 0.20671 0.0
H789 H 0.87082 0.45444 0.196 0.0
H790 H 0.82548 0.42913 0.17225 0.0
H791 H 0.7947 0.43131 0.14172 0.0
Mn792 Mn 0.34046 0.93744 0.61743 0.0
Mn793 Mn 0.32544 0.87511 0.63967 0.0
C794 C 0.3766 0.92933 0.6268 0.0
C795 C 0.34489 0.96406 0.58398 0.0
C796 C 0.32459 0.92082 0.66883 0.0
O797 O 0.29846 0.91343 0.6122 0.0
O798 O 0.29309 0.87179 0.62215 0.0
C799 C 0.31976 0.84556 0.59469 0.0
N800 N 0.33149 0.85378 0.61646 0.0
C801 C 0.35299 0.82555 0.61357 0.0
C802 C 0.34104 0.8166 0.59115 0.0
C803 C 0.32462 0.82693 0.58155 0.0
C804 C 0.34828 0.84495 0.62541 0.0
H805 H 0.30668 0.85304 0.58751 0.0
C806 C 0.28393 0.88703 0.61372 0.0
O807 O 0.33997 0.97078 0.60469 0.0
O808 O 0.34696 0.94183 0.58271 0.0
N809 N 0.35429 0.87403 0.65724 0.0
C810 C 0.36421 0.88471 0.67909 0.0
C811 C 0.38134 0.87683 0.69107 0.0
C812 C 0.38709 0.85715 0.68092 0.0
C813 C 0.37619 0.846 0.65861 0.0
C814 C 0.36008 0.8554 0.64717 0.0
H815 H 0.35889 0.89893 0.68743 0.0
O816 O 0.38124 0.95438 0.62324 0.0
O817 O 0.35116 0.90944 0.62318 0.0
O818 O 0.33398 0.93983 0.653 0.0
O819 O 0.31924 0.8959 0.66497 0.0
C820 C 0.37981 0.82523 0.64762 0.0
C821 C 0.36874 0.81543 0.62493 0.0
H822 H 0.34423 0.80173 0.58122 0.0
H823 H 0.31532 0.82016 0.56425 0.0
H824 H 0.38945 0.88531 0.70837 0.0
H825 H 0.39948 0.85046 0.69067 0.0
H826 H 0.39091 0.81646 0.65645 0.0
H827 H 0.37218 0.79986 0.61651 0.0
Mn828 Mn 0.40464 0.33602 0.11014 0.0
Mn829 Mn 0.44768 0.32231 0.14207 0.0
C830 C 0.45006 0.37107 0.1175 0.0
C831 C 0.38581 0.33569 0.07325 0.0
C832 C 0.40155 0.32955 0.16365 0.0
O833 O 0.38447 0.29338 0.11056 0.0
O834 O 0.41734 0.28742 0.12871 0.0
C835 C 0.47114 0.30415 0.10366 0.0
N836 N 0.47493 0.32135 0.12218 0.0
C837 C 0.52464 0.34167 0.12013 0.0
C838 C 0.52134 0.32418 0.10102 0.0
C839 C 0.49447 0.30549 0.09263 0.0
C840 C 0.50068 0.33987 0.13001 0.0
H841 H 0.45047 0.28943 0.09749 0.0
C842 C 0.39386 0.27804 0.1183 0.0
O843 O 0.37319 0.33585 0.09254 0.0
O844 O 0.40907 0.33573 0.07541 0.0
N845 N 0.47813 0.35415 0.15639 0.0
C846 C 0.47763 0.36993 0.17463 0.0
C847 C 0.50276 0.38966 0.18514 0.0
C848 C 0.52802 0.39247 0.17718 0.0
C849 C 0.528 0.37603 0.15833 0.0
C850 C 0.50236 0.35702 0.14833 0.0
H851 H 0.45819 0.36724 0.18129 0.0
O852 O 0.43129 0.37716 0.11106 0.0
O853 O 0.44189 0.34472 0.11871 0.0
O854 O 0.39365 0.33657 0.14494 0.0
O855 O 0.42076 0.32325 0.16397 0.0
C856 C 0.5523 0.37723 0.14941 0.0
C857 C 0.5507 0.36047 0.13004 0.0
H858 H 0.53927 0.32486 0.0927 0.0
H859 H 0.49174 0.29191 0.07791 0.0
H860 H 0.50262 0.40228 0.19966 0.0
H861 H 0.54721 0.40714 0.18586 0.0
H862 H 0.57234 0.3908 0.15739 0.0
H863 H 0.5696 0.36194 0.12312 0.0
H864 H 0.42914 0.05533 0.30374 0.0
H865 H 0.35322 0.05594 0.31969 0.0
H866 H 0.33871 0.04519 0.27775 0.0
H867 H 0.44412 0.09403 0.25524 0.0
H868 H 0.45931 0.07744 0.23831 0.0
H869 H 0.45961 0.07625 0.26997 0.0
H870 H 0.43431 0.02241 0.26908 0.0
H871 H 0.43428 0.02331 0.23723 0.0
H872 H 0.40204 0.00325 0.25307 0.0
H873 H 0.3375 0.04426 0.23282 0.0
H874 H 0.35015 0.05429 0.19042 0.0
H875 H 0.4284 0.05748 0.2043 0.0
C876 C 0.40901 0.05218 0.29851 0.0
C877 C 0.39211 0.05611 0.31481 0.0
C878 C 0.36605 0.05222 0.30748 0.0
C879 C 0.35778 0.04628 0.28367 0.0
C880 C 0.37583 0.04423 0.26759 0.0
C881 C 0.40084 0.04677 0.27486 0.0
C882 C 0.41873 0.04839 0.25406 0.0
C883 C 0.44708 0.07564 0.25443 0.0
C884 C 0.42255 0.02281 0.25332 0.0
C885 C 0.40068 0.04796 0.23387 0.0
C886 C 0.37564 0.04471 0.24186 0.0
C887 C 0.35675 0.04615 0.22638 0.0
C888 C 0.364 0.05177 0.20235 0.0
C889 C 0.3901 0.0564 0.19428 0.0
C890 C 0.40821 0.05372 0.21011 0.0
H891 H 0.28938 0.39112 0.69688 0.0
H892 H 0.35824 0.37767 0.68143 0.0
H893 H 0.35902 0.36506 0.72331 0.0
H894 H 0.31601 0.42716 0.74573 0.0
H895 H 0.28399 0.41444 0.76203 0.0
H896 H 0.28332 0.41405 0.73038 0.0
H897 H 0.24824 0.36098 0.73053 0.0
H898 H 0.2485 0.36121 0.76239 0.0
H899 H 0.25647 0.33789 0.7465 0.0
H900 H 0.35886 0.36437 0.76829 0.0
H901 H 0.35789 0.37595 0.81051 0.0
H902 H 0.28996 0.39103 0.7957 0.0
C903 C 0.30384 0.38434 0.70209 0.0
C904 C 0.32361 0.38517 0.68593 0.0
C905 C 0.34256 0.37667 0.69344 0.0
C906 C 0.34319 0.36957 0.71724 0.0
C907 C 0.32444 0.37067 0.7331 0.0
C908 C 0.3048 0.37744 0.72563 0.0
C909 C 0.28988 0.38156 0.74622 0.0
C910 C 0.29356 0.41104 0.74607 0.0
C911 C 0.25893 0.35906 0.74642 0.0
C912 C 0.30527 0.37774 0.76656 0.0
C913 C 0.32464 0.37073 0.75883 0.0
C914 C 0.34326 0.36912 0.77454 0.0
C915 C 0.34254 0.37565 0.79849 0.0
C916 C 0.32373 0.38419 0.80626 0.0
C917 C 0.30434 0.38425 0.79021 0.0
H918 H 0.88045 0.29933 0.19963 0.0
H919 H 0.96767 0.35063 0.18127 0.0
H920 H 0.98 0.3551 0.22385 0.0
H921 H 0.88122 0.33803 0.24728 0.0
H922 H 0.85672 0.30873 0.26468 0.0
H923 H 0.85567 0.30644 0.23299 0.0
H924 H 0.86086 0.26253 0.23508 0.0
H925 H 0.86173 0.26455 0.26687 0.0
H926 H 0.88966 0.26397 0.25109 0.0
H927 H 0.98149 0.35767 0.26983 0.0
H928 H 0.97183 0.35796 0.31271 0.0
H929 H 0.88357 0.30537 0.29883 0.0
C930 C 0.90227 0.31108 0.20439 0.0
C931 C 0.92309 0.32457 0.18702 0.0
C932 C 0.95134 0.33983 0.1942 0.0
C933 C 0.95851 0.34254 0.21838 0.0
C934 C 0.93721 0.32963 0.23509 0.0
C935 C 0.90967 0.31397 0.22821 0.0
C936 C 0.89025 0.30378 0.24918 0.0
C937 C 0.86978 0.31492 0.24848 0.0
C938 C 0.87472 0.27181 0.25064 0.0
C939 C 0.91096 0.31672 0.26908 0.0
C940 C 0.93802 0.33131 0.26086 0.0
C941 C 0.96035 0.346 0.27636 0.0
C942 C 0.95471 0.34603 0.3007 0.0
C943 C 0.92695 0.33178 0.30917 0.0
C944 C 0.90505 0.3166 0.29303 0.0
H945 H 0.62259 0.91631 0.7058 0.0
H946 H 0.61366 0.98811 0.692 0.0
H947 H 0.62241 0.00116 0.73434 0.0
H948 H 0.58389 0.89557 0.75303 0.0
H949 H 0.60313 0.88298 0.76961 0.0
H950 H 0.60548 0.88458 0.73805 0.0
H951 H 0.65914 0.91546 0.74045 0.0
H952 H 0.65706 0.91368 0.77226 0.0
H953 H 0.67437 0.94703 0.75766 0.0
H954 H 0.62007 0.99913 0.7792 0.0
H955 H 0.60728 0.98239 0.82049 0.0
H956 H 0.61723 0.91165 0.80432 0.0
C957 C 0.62407 0.93564 0.71154 0.0
C958 C 0.61804 0.95154 0.69574 0.0
C959 C 0.61907 0.97615 0.70379 0.0
C960 C 0.62386 0.98358 0.72785 0.0
C961 C 0.62802 0.96637 0.7434 0.0
C962 C 0.62872 0.94315 0.73535 0.0
C963 C 0.62878 0.92534 0.75555 0.0
C964 C 0.60384 0.89539 0.75396 0.0
C965 C 0.6565 0.9254 0.75654 0.0
C966 C 0.62599 0.94097 0.77624 0.0
C967 C 0.62637 0.96503 0.76911 0.0
C968 C 0.62064 0.98083 0.78503 0.0
C969 C 0.61349 0.97129 0.80847 0.0
C970 C 0.6117 0.94599 0.81549 0.0
C971 C 0.61904 0.93136 0.7994 0.0
H972 H 0.69406 0.57484 0.30573 0.0
H973 H 0.65164 0.6207 0.32195 0.0
H974 H 0.64835 0.62799 0.27907 0.0
H975 H 0.73319 0.61591 0.25461 0.0
H976 H 0.72914 0.58561 0.2393 0.0
H977 H 0.73031 0.58677 0.2711 0.0
H978 H 0.68286 0.54074 0.27274 0.0
H979 H 0.68147 0.5395 0.241 0.0
H980 H 0.65326 0.53857 0.25756 0.0
H981 H 0.64694 0.62676 0.23308 0.0
H982 H 0.64761 0.61703 0.19027 0.0
H983 H 0.69067 0.57178 0.20645 0.0
C984 C 0.68439 0.5868 0.30045 0.0
C985 C 0.67314 0.59722 0.31733 0.0
C986 C 0.66061 0.61266 0.30941 0.0
C987 C 0.6586 0.61685 0.28506 0.0
C988 C 0.66941 0.60566 0.26891 0.0
C989 C 0.68223 0.59112 0.27646 0.0
C990 C 0.69094 0.57978 0.25598 0.0
C991 C 0.72279 0.5928 0.25521 0.0
C992 C 0.67625 0.54776 0.25688 0.0
C993 C 0.68059 0.58966 0.23559 0.0
C994 C 0.66842 0.60478 0.24314 0.0
C995 C 0.65664 0.61511 0.22706 0.0
C996 C 0.65714 0.60953 0.20277 0.0
C997 C 0.66906 0.59353 0.19492 0.0
C998 C 0.68121 0.58395 0.21171 0.0
H999 H 0.05207 0.63262 0.69895 0.0
H1000 H 0.06942 0.71706 0.68854 0.0
H1001 H 0.06038 0.72016 0.73102 0.0
H1002 H 0.0009 0.61254 0.75008 0.0
H1003 H 0.01595 0.59408 0.76432 0.0
H1004 H 0.0152 0.59556 0.73252 0.0
H1005 H 0.06836 0.61542 0.73151 0.0
H1006 H 0.06974 0.61478 0.76316 0.0
H1007 H 0.09092 0.64693 0.74749 0.0
H1008 H 0.05837 0.71712 0.77531 0.0
H1009 H 0.06574 0.70924 0.81716 0.0
H1010 H 0.054 0.62832 0.79885 0.0
C1011 C 0.05283 0.65131 0.70555 0.0
C1012 C 0.0608 0.67442 0.69064 0.0
C1013 C 0.0625 0.69892 0.69972 0.0
C1014 C 0.05748 0.70082 0.72381 0.0
C1015 C 0.05106 0.67809 0.73844 0.0
C1016 C 0.04863 0.65371 0.72958 0.0
C1017 C 0.04655 0.63423 0.74925 0.0
C1018 C 0.01794 0.60752 0.74903 0.0
C1019 C 0.07032 0.62748 0.74776 0.0
C1020 C 0.04964 0.65197 0.77058 0.0
C1021 C 0.05131 0.67682 0.76406 0.0
C1022 C 0.05644 0.69749 0.78064 0.0
C1023 C 0.06055 0.69287 0.80432 0.0
C1024 C 0.05993 0.66804 0.81101 0.0
C1025 C 0.05394 0.6472 0.79407 0.0
H1026 H 0.95937 0.5829 0.20324 0.0
H1027 H 0.9449 0.6504 0.1855 0.0
H1028 H 0.95253 0.66568 0.22721 0.0
H1029 H 0.91994 0.5623 0.25007 0.0
H1030 H 0.94023 0.55258 0.26848 0.0
H1031 H 0.9435 0.55259 0.23696 0.0
H1032 H 0.99664 0.58647 0.23983 0.0
H1033 H 0.99376 0.58611 0.27159 0.0
H1034 H 0.00961 0.61872 0.25582 0.0
H1035 H 0.94796 0.66499 0.27107 0.0
H1036 H 0.93531 0.65049 0.3128 0.0
H1037 H 0.9533 0.5838 0.30252 0.0
C1038 C 0.95944 0.60182 0.20802 0.0
C1039 C 0.95223 0.61593 0.19128 0.0
C1040 C 0.95137 0.63999 0.19805 0.0
C1041 C 0.95547 0.64863 0.22174 0.0
C1042 C 0.96061 0.63306 0.23829 0.0
C1043 C 0.96327 0.61047 0.2316 0.0
C1044 C 0.9641 0.59436 0.25291 0.0
C1045 C 0.94055 0.56368 0.25204 0.0
C1046 C 0.99274 0.59656 0.25517 0.0
C1047 C 0.9595 0.61016 0.27251 0.0
C1048 C 0.95809 0.63276 0.26384 0.0
C1049 C 0.95006 0.64802 0.27819 0.0
C1050 C 0.94286 0.63968 0.3018 0.0
C1051 C 0.94377 0.61636 0.31067 0.0
C1052 C 0.95293 0.60199 0.29608 0.0
H1053 H 0.295 0.88103 0.80315 0.0
H1054 H 0.34895 0.96798 0.82113 0.0
H1055 H 0.35064 0.98054 0.7788 0.0
H1056 H 0.32979 0.88122 0.75283 0.0
H1057 H 0.299 0.8571 0.73677 0.0
H1058 H 0.29913 0.85605 0.76849 0.0
H1059 H 0.25569 0.86215 0.76967 0.0
H1060 H 0.25545 0.86323 0.73785 0.0
H1061 H 0.25662 0.89133 0.75476 0.0
H1062 H 0.35051 0.98215 0.73313 0.0
H1063 H 0.34908 0.9726 0.69019 0.0
H1064 H 0.29489 0.88454 0.70393 0.0
C1065 C 0.30683 0.90284 0.79838 0.0
C1066 C 0.32187 0.92353 0.81551 0.0
C1067 C 0.33708 0.95178 0.80836 0.0
C1068 C 0.33815 0.95907 0.78434 0.0
C1069 C 0.32361 0.9379 0.76783 0.0
C1070 C 0.30806 0.91038 0.77473 0.0
C1071 C 0.29604 0.89107 0.75381 0.0
C1072 C 0.30664 0.87015 0.75293 0.0
C1073 C 0.26405 0.87607 0.75404 0.0
C1074 C 0.30787 0.91183 0.73385 0.0
C1075 C 0.32347 0.93882 0.74209 0.0
C1076 C 0.33795 0.96112 0.72657 0.0
C1077 C 0.33693 0.95553 0.70217 0.0
C1078 C 0.32179 0.92783 0.69363 0.0
C1079 C 0.30654 0.90598 0.70978 0.0
H1080 H 0.3945 0.29595 0.29706 0.0
H1081 H 0.39023 0.37035 0.31156 0.0
H1082 H 0.37927 0.37264 0.26934 0.0
H1083 H 0.43001 0.31724 0.2464 0.0
H1084 H 0.41274 0.2841 0.23147 0.0
H1085 H 0.41402 0.28528 0.26312 0.0
H1086 H 0.36015 0.25562 0.26494 0.0
H1087 H 0.3587 0.25433 0.23312 0.0
H1088 H 0.33933 0.26705 0.2493 0.0
H1089 H 0.37827 0.37151 0.22405 0.0
H1090 H 0.38708 0.36682 0.18171 0.0
H1091 H 0.39019 0.29221 0.19821 0.0
C1092 C 0.39033 0.3122 0.29147 0.0
C1093 C 0.39308 0.33292 0.30741 0.0
C1094 C 0.38782 0.35407 0.29957 0.0
C1095 C 0.38161 0.3555 0.27565 0.0
C1096 C 0.3801 0.33522 0.26008 0.0
C1097 C 0.38384 0.31366 0.26791 0.0
C1098 C 0.38433 0.29617 0.24769 0.0
C1099 C 0.41191 0.29571 0.24715 0.0
C1100 C 0.35912 0.26654 0.24883 0.0
C1101 C 0.38202 0.31214 0.22706 0.0
C1102 C 0.37904 0.33432 0.23436 0.0
C1103 C 0.3798 0.35376 0.21816 0.0
C1104 C 0.38468 0.35092 0.19414 0.0
C1105 C 0.38906 0.32904 0.1868 0.0
C1106 C 0.38654 0.30893 0.20337 0.0
H1107 H 0.10347 0.39258 0.69933 0.0
H1108 H 0.02111 0.37829 0.68264 0.0
H1109 H 0.0078 0.36778 0.7248 0.0
H1110 H 0.0838 0.34204 0.75029 0.0
H1111 H 0.11497 0.36613 0.76595 0.0
H1112 H 0.11504 0.3649 0.73412 0.0
H1113 H 0.13241 0.41781 0.73265 0.0
H1114 H 0.132 0.4192 0.7643 0.0
H1115 H 0.11246 0.43102 0.74721 0.0
H1116 H 0.00699 0.36794 0.77021 0.0
H1117 H 0.01894 0.379 0.81264 0.0
H1118 H 0.10246 0.39519 0.79836 0.0
C1119 C 0.08223 0.38609 0.70433 0.0
C1120 C 0.06325 0.386 0.68765 0.0
C1121 C 0.03583 0.37794 0.69501 0.0
C1122 C 0.02817 0.37209 0.71898 0.0
C1123 C 0.04808 0.37409 0.73525 0.0
C1124 C 0.07448 0.38055 0.72804 0.0
C1125 C 0.09352 0.38552 0.74883 0.0
C1126 C 0.10234 0.36332 0.74985 0.0
C1127 C 0.11907 0.41513 0.7482 0.0
C1128 C 0.07422 0.38213 0.76897 0.0
C1129 C 0.04787 0.37491 0.76102 0.0
C1130 C 0.02739 0.373 0.77659 0.0
C1131 C 0.03428 0.37924 0.80066 0.0
C1132 C 0.06157 0.38783 0.80872 0.0
C1133 C 0.08137 0.38849 0.7927 0.0
H1134 H 0.70161 0.11719 0.30294 0.0
H1135 H 0.64935 0.03042 0.32214 0.0
H1136 H 0.64746 0.0171 0.27998 0.0
H1137 H 0.66626 0.11556 0.2529 0.0
H1138 H 0.69663 0.13964 0.23634 0.0
H1139 H 0.69707 0.14129 0.26804 0.0
H1140 H 0.7409 0.13584 0.26894 0.0
H1141 H 0.74059 0.13418 0.23713 0.0
H1142 H 0.74011 0.10658 0.25431 0.0
H1143 H 0.64635 0.01468 0.23443 0.0
H1144 H 0.64623 0.02341 0.19145 0.0
H1145 H 0.70019 0.11182 0.20382 0.0
C1146 C 0.69019 0.09529 0.29842 0.0
C1147 C 0.67559 0.07483 0.3158 0.0
C1148 C 0.66089 0.04642 0.30911 0.0
C1149 C 0.6597 0.03871 0.28521 0.0
C1150 C 0.67373 0.05964 0.2684 0.0
C1151 C 0.68896 0.08734 0.2749 0.0
C1152 C 0.7004 0.10626 0.25369 0.0
C1153 C 0.68942 0.12687 0.25269 0.0
C1154 C 0.7324 0.12161 0.25352 0.0
C1155 C 0.68843 0.08509 0.23405 0.0
C1156 C 0.67335 0.05823 0.24268 0.0
C1157 C 0.65856 0.0356 0.22754 0.0
C1158 C 0.65868 0.04073 0.20312 0.0
C1159 C 0.67327 0.06829 0.19421 0.0
C1160 C 0.68894 0.09046 0.20995 0.0
H1161 H 0.57776 0.62576 0.70449 0.0
H1162 H 0.65256 0.70491 0.69322 0.0
H1163 H 0.66516 0.70602 0.73542 0.0
H1164 H 0.55885 0.6445 0.75328 0.0
H1165 H 0.54391 0.61171 0.76872 0.0
H1166 H 0.54548 0.61232 0.73709 0.0
H1167 H 0.57268 0.58568 0.73764 0.0
H1168 H 0.57089 0.5845 0.76947 0.0
H1169 H 0.60414 0.5989 0.75485 0.0
H1170 H 0.66372 0.70356 0.78012 0.0
H1171 H 0.64779 0.6987 0.82171 0.0
H1172 H 0.57257 0.62242 0.80369 0.0
C1173 C 0.59736 0.64271 0.71078 0.0
C1174 C 0.61444 0.66502 0.6957 0.0
C1175 C 0.63967 0.68724 0.70443 0.0
C1176 C 0.64684 0.68805 0.72841 0.0
C1177 C 0.62857 0.66642 0.74328 0.0
C1178 C 0.60442 0.64396 0.73462 0.0
C1179 C 0.58575 0.62591 0.75442 0.0
C1180 C 0.55683 0.62352 0.7533 0.0
C1181 C 0.58324 0.59704 0.75407 0.0
C1182 C 0.60223 0.64257 0.77564 0.0
C1183 C 0.6273 0.66539 0.76901 0.0
C1184 C 0.64454 0.68534 0.78553 0.0
C1185 C 0.63546 0.68239 0.80914 0.0
C1186 C 0.60923 0.65995 0.8158 0.0
C1187 C 0.59297 0.63942 0.79902 0.0
H1188 H 0.38036 0.1391 0.15642 0.0
H1189 H 0.36446 0.11362 0.08318 0.0
H1190 H 0.35243 0.1503 0.0753 0.0
H1191 H 0.32746 0.16469 0.16165 0.0
H1192 H 0.35139 0.19292 0.18031 0.0
H1193 H 0.35013 0.15981 0.18145 0.0
H1194 H 0.40314 0.18462 0.17295 0.0
H1195 H 0.40452 0.21753 0.1716 0.0
H1196 H 0.41663 0.20596 0.14688 0.0
H1197 H 0.35435 0.19687 0.07354 0.0
H1198 H 0.36948 0.24697 0.07841 0.0
H1199 H 0.38362 0.24117 0.15281 0.0
C1200 C 0.37302 0.14042 0.139 0.0
C1201 C 0.37307 0.12352 0.12046 0.0
C1202 C 0.36399 0.12608 0.09772 0.0
C1203 C 0.3572 0.14692 0.09311 0.0
C1204 C 0.35903 0.16451 0.11156 0.0
C1205 C 0.36617 0.16096 0.13423 0.0
C1206 C 0.37106 0.18482 0.1502 0.0
C1207 C 0.34866 0.17496 0.16954 0.0
C1208 C 0.40057 0.19906 0.16099 0.0
C1209 C 0.36777 0.20347 0.13263 0.0
C1210 C 0.36004 0.19123 0.11056 0.0
C1211 C 0.35949 0.20628 0.09091 0.0
C1212 C 0.368 0.23467 0.09378 0.0
C1213 C 0.37732 0.24757 0.11603 0.0
C1214 C 0.37603 0.23147 0.13573 0.0
H1215 H 0.16869 0.43597 0.58951 0.0
H1216 H 0.11311 0.35509 0.61959 0.0
H1217 H 0.14908 0.34149 0.61362 0.0
H1218 H 0.20722 0.41314 0.54693 0.0
H1219 H 0.23932 0.44495 0.55274 0.0
H1220 H 0.20673 0.4448 0.55301 0.0
H1221 H 0.21752 0.46554 0.59529 0.0
H1222 H 0.24983 0.46558 0.59524 0.0
H1223 H 0.22475 0.44759 0.61833 0.0
H1224 H 0.19497 0.34151 0.61315 0.0
H1225 H 0.24467 0.35522 0.61835 0.0
H1226 H 0.26925 0.43607 0.58852 0.0
C1227 C 0.16369 0.41498 0.59387 0.0
C1228 C 0.13825 0.39647 0.6048 0.0
C1229 C 0.1324 0.36932 0.61075 0.0
C1230 C 0.15274 0.36151 0.60744 0.0
C1231 C 0.17844 0.38096 0.59775 0.0
C1232 C 0.18365 0.40702 0.59064 0.0
C1233 C 0.21385 0.42582 0.58417 0.0
C1234 C 0.21695 0.43256 0.55763 0.0
C1235 C 0.22724 0.45267 0.59916 0.0
C1236 C 0.2254 0.4071 0.59037 0.0
C1237 C 0.20471 0.38099 0.59754 0.0
C1238 C 0.21119 0.36156 0.60689 0.0
C1239 C 0.23942 0.36942 0.60972 0.0
C1240 C 0.26057 0.39658 0.6036 0.0
C1241 C 0.25338 0.41506 0.59298 0.0
H1242 H 0.8317 0.25252 0.08206 0.0
H1243 H 0.88199 0.23448 0.12918 0.0
H1244 H 0.84708 0.18409 0.12678 0.0
H1245 H 0.77192 0.21255 0.10817 0.0
H1246 H 0.75027 0.20116 0.08215 0.0
H1247 H 0.7825 0.23349 0.08172 0.0
H1248 H 0.79885 0.21691 0.04543 0.0
H1249 H 0.76638 0.18433 0.04568 0.0
H1250 H 0.79895 0.18448 0.04679 0.0
H1251 H 0.80166 0.13798 0.12672 0.0
H1252 H 0.75153 0.10267 0.12992 0.0
H1253 H 0.73134 0.15184 0.08336 0.0
C1254 C 0.8359 0.23785 0.09107 0.0
C1255 C 0.85949 0.24718 0.10561 0.0
C1256 C 0.86423 0.22754 0.11753 0.0
C1257 C 0.84447 0.19893 0.11626 0.0
C1258 C 0.82044 0.19047 0.10271 0.0
C1259 C 0.81643 0.20951 0.09 0.0
C1260 C 0.78732 0.19648 0.07997 0.0
C1261 C 0.77214 0.21181 0.08854 0.0
C1262 C 0.78792 0.19549 0.05286 0.0
C1263 C 0.77477 0.16763 0.09041 0.0
C1264 C 0.79429 0.16409 0.10285 0.0
C1265 C 0.78646 0.14023 0.11643 0.0
C1266 C 0.75798 0.12018 0.11807 0.0
C1267 C 0.73784 0.1245 0.10654 0.0
C1268 C 0.74651 0.14787 0.09185 0.0
H1269 H 0.61448 0.7605 0.66351 0.0
H1270 H 0.63138 0.75264 0.59012 0.0
H1271 H 0.64233 0.80115 0.58283 0.0
H1272 H 0.57715 0.79069 0.65401 0.0
H1273 H 0.58872 0.81369 0.67917 0.0
H1274 H 0.59021 0.78217 0.67999 0.0
H1275 H 0.64305 0.81023 0.68922 0.0
H1276 H 0.64169 0.84204 0.68868 0.0
H1277 H 0.66601 0.83837 0.67003 0.0
H1278 H 0.6407 0.84632 0.58198 0.0
H1279 H 0.62707 0.88232 0.58792 0.0
H1280 H 0.61116 0.85958 0.66178 0.0
C1281 C 0.62168 0.76944 0.64614 0.0
C1282 C 0.6223 0.75301 0.62743 0.0
C1283 C 0.63129 0.76511 0.6048 0.0
C1284 C 0.63745 0.79263 0.60052 0.0
C1285 C 0.63505 0.80782 0.61917 0.0
C1286 C 0.62786 0.79668 0.64168 0.0
C1287 C 0.62263 0.81513 0.65798 0.0
C1288 C 0.59293 0.79949 0.66836 0.0
C1289 C 0.64467 0.82716 0.67764 0.0
C1290 C 0.62614 0.83752 0.64085 0.0
C1291 C 0.63399 0.83354 0.61865 0.0
C1292 C 0.63532 0.85006 0.59944 0.0
C1293 C 0.62763 0.87049 0.60293 0.0
C1294 C 0.6183 0.87368 0.62533 0.0
C1295 C 0.61857 0.85769 0.64454 0.0
H1296 H 0.75497 0.61209 0.15639 0.0
H1297 H 0.75123 0.62826 0.08218 0.0
H1298 H 0.80121 0.64272 0.07797 0.0
H1299 H 0.8324 0.66701 0.16661 0.0
H1300 H 0.83579 0.64321 0.18615 0.0
H1301 H 0.80338 0.64337 0.18473 0.0
H1302 H 0.7774 0.59056 0.17546 0.0
H1303 H 0.80948 0.59023 0.17652 0.0
H1304 H 0.78811 0.57812 0.15037 0.0
H1305 H 0.84699 0.6433 0.08001 0.0
H1306 H 0.88262 0.62983 0.08789 0.0
H1307 H 0.85569 0.61272 0.1608 0.0
C1308 C 0.76521 0.62019 0.13958 0.0
C1309 C 0.74972 0.61963 0.1197 0.0
C1310 C 0.76315 0.62932 0.0977 0.0
C1311 C 0.79147 0.63746 0.0952 0.0
C1312 C 0.80591 0.63614 0.11498 0.0
C1313 C 0.79323 0.62822 0.1369 0.0
C1314 C 0.8111 0.62364 0.15445 0.0
C1315 C 0.82128 0.64563 0.17414 0.0
C1316 C 0.7956 0.59389 0.16476 0.0
C1317 C 0.83484 0.62799 0.1386 0.0
C1318 C 0.8321 0.63607 0.11608 0.0
C1319 C 0.84979 0.63782 0.09774 0.0
C1320 C 0.87001 0.63018 0.10235 0.0
C1321 C 0.87186 0.62039 0.12498 0.0
C1322 C 0.85485 0.62046 0.14342 0.0
H1323 H 0.25931 0.84407 0.58345 0.0
H1324 H 0.24246 0.89532 0.63042 0.0
H1325 H 0.1921 0.86057 0.62904 0.0
H1326 H 0.18928 0.81095 0.54936 0.0
H1327 H 0.1891 0.77839 0.54811 0.0
H1328 H 0.22163 0.81085 0.54687 0.0
H1329 H 0.23975 0.79494 0.58238 0.0
H1330 H 0.20738 0.76282 0.584 0.0
H1331 H 0.22019 0.78509 0.60958 0.0
H1332 H 0.14702 0.81498 0.63162 0.0
H1333 H 0.11214 0.76485 0.63611 0.0
H1334 H 0.1579 0.74415 0.58612 0.0
C1335 C 0.24475 0.84862 0.59233 0.0
C1336 C 0.25446 0.8724 0.6067 0.0
C1337 C 0.23518 0.8775 0.61881 0.0
C1338 C 0.20658 0.85778 0.61818 0.0
C1339 C 0.19773 0.83349 0.60496 0.0
C1340 C 0.2163 0.82925 0.59173 0.0
C1341 C 0.20279 0.79994 0.58204 0.0
C1342 C 0.20056 0.80005 0.55499 0.0
C1343 C 0.21845 0.78484 0.59 0.0
C1344 C 0.17443 0.78758 0.59343 0.0
C1345 C 0.1715 0.80729 0.60615 0.0
C1346 C 0.14864 0.79963 0.621 0.0
C1347 C 0.12888 0.77117 0.62344 0.0
C1348 C 0.13233 0.75093 0.61117 0.0
C1349 C 0.15469 0.75937 0.59536 0.0
H1350 H 0.8547 0.59946 0.41861 0.0
H1351 H 0.89135 0.65672 0.36028 0.0
H1352 H 0.85549 0.67065 0.36447 0.0
H1353 H 0.79058 0.57179 0.39937 0.0
H1354 H 0.77316 0.56567 0.42746 0.0
H1355 H 0.80639 0.56773 0.42578 0.0
H1356 H 0.82641 0.60721 0.45694 0.0
H1357 H 0.79296 0.60513 0.45897 0.0
H1358 H 0.82366 0.63791 0.45231 0.0
H1359 H 0.80987 0.66964 0.36861 0.0
H1360 H 0.75911 0.65205 0.37063 0.0
H1361 H 0.751 0.59325 0.42459 0.0
C1362 C 0.85588 0.61593 0.40756 0.0
C1363 C 0.87597 0.62758 0.38954 0.0
C1364 C 0.87655 0.64832 0.37469 0.0
C1365 C 0.8562 0.65623 0.37694 0.0
C1366 C 0.83548 0.64309 0.39409 0.0
C1367 C 0.8354 0.62348 0.40931 0.0
C1368 C 0.80831 0.60823 0.42286 0.0
C1369 C 0.79377 0.57652 0.41858 0.0
C1370 C 0.81313 0.61504 0.44935 0.0
C1371 C 0.79238 0.62089 0.41182 0.0
C1372 C 0.80863 0.64169 0.39588 0.0
C1373 C 0.79724 0.654 0.38154 0.0
C1374 C 0.76843 0.64402 0.38285 0.0
C1375 C 0.75144 0.62167 0.39804 0.0
C1376 C 0.76376 0.61079 0.41325 0.0
H1377 H 0.1409 0.73974 0.92081 0.0
H1378 H 0.10385 0.75526 0.85978 0.0
H1379 H 0.13917 0.80537 0.8617 0.0
H1380 H 0.1726 0.81224 0.95012 0.0
H1381 H 0.20336 0.81065 0.95765 0.0
H1382 H 0.16981 0.77927 0.95729 0.0
H1383 H 0.18911 0.75692 0.92829 0.0
H1384 H 0.2224 0.78809 0.92822 0.0
H1385 H 0.20429 0.77418 0.90073 0.0
H1386 H 0.18447 0.84998 0.86367 0.0
H1387 H 0.23528 0.8831 0.86414 0.0
H1388 H 0.24479 0.83735 0.92176 0.0
C1389 C 0.1395 0.75403 0.90865 0.0
C1390 C 0.11949 0.74403 0.8905 0.0
C1391 C 0.11857 0.76289 0.87428 0.0
C1392 C 0.13864 0.79134 0.87524 0.0
C1393 C 0.15947 0.80039 0.89244 0.0
C1394 C 0.15984 0.7822 0.90903 0.0
C1395 C 0.18721 0.79514 0.92226 0.0
C1396 C 0.18298 0.7996 0.94838 0.0
C1397 C 0.20158 0.77755 0.91969 0.0
C1398 C 0.20299 0.82263 0.9094 0.0
C1399 C 0.18636 0.82584 0.89291 0.0
C1400 C 0.19742 0.8481 0.87701 0.0
C1401 C 0.22624 0.86686 0.8774 0.0
C1402 C 0.24355 0.86283 0.89327 0.0
C1403 C 0.23168 0.84109 0.90991 0.0
H1404 H 0.38954 0.14683 0.34709 0.0
H1405 H 0.37558 0.12509 0.42122 0.0
H1406 H 0.36124 0.16042 0.42731 0.0
H1407 H 0.42246 0.21484 0.35383 0.0
H1408 H 0.40855 0.22319 0.32833 0.0
H1409 H 0.4099 0.19161 0.32882 0.0
H1410 H 0.35678 0.16304 0.32084 0.0
H1411 H 0.35528 0.19478 0.3203 0.0
H1412 H 0.33306 0.16697 0.34008 0.0
H1413 H 0.35993 0.20553 0.4268 0.0
H1414 H 0.37182 0.25441 0.4196 0.0
H1415 H 0.38522 0.24525 0.34568 0.0
C1416 C 0.38232 0.14874 0.36439 0.0
C1417 C 0.38346 0.13325 0.38365 0.0
C1418 C 0.37437 0.13649 0.40616 0.0
C1419 C 0.36622 0.15654 0.40975 0.0
C1420 C 0.36669 0.17258 0.39051 0.0
C1421 C 0.374 0.16839 0.36813 0.0
C1422 C 0.37684 0.19057 0.35103 0.0
C1423 C 0.40616 0.20595 0.33989 0.0
C1424 C 0.35413 0.17809 0.33194 0.0
C1425 C 0.37207 0.20916 0.36756 0.0
C1426 C 0.36551 0.19824 0.39017 0.0
C1427 C 0.36411 0.21382 0.40902 0.0
C1428 C 0.37071 0.2415 0.40481 0.0
C1429 C 0.37892 0.2532 0.38202 0.0
C1430 C 0.37831 0.2364 0.36312 0.0
H1431 H 0.24441 0.38752 0.84764 0.0
H1432 H 0.25464 0.37524 0.92163 0.0
H1433 H 0.20558 0.36283 0.92911 0.0
H1434 H 0.21163 0.42294 0.85529 0.0
H1435 H 0.18843 0.40915 0.83035 0.0
H1436 H 0.22085 0.40939 0.83005 0.0
H1437 H 0.19476 0.35611 0.82274 0.0
H1438 H 0.16204 0.35572 0.82288 0.0
H1439 H 0.16737 0.33327 0.84259 0.0
H1440 H 0.15905 0.36205 0.9294 0.0
H1441 H 0.12153 0.37336 0.92253 0.0
H1442 H 0.14294 0.38622 0.84835 0.0
C1443 C 0.23588 0.38104 0.86524 0.0
C1444 C 0.25296 0.38199 0.88403 0.0
C1445 C 0.24156 0.37405 0.90695 0.0
C1446 C 0.21376 0.36706 0.9113 0.0
C1447 C 0.19774 0.36765 0.89243 0.0
C1448 C 0.20842 0.37402 0.86974 0.0
C1449 C 0.189 0.37726 0.85302 0.0
C1450 C 0.20333 0.4064 0.84154 0.0
C1451 C 0.17761 0.3542 0.8342 0.0
C1452 C 0.16643 0.37352 0.87004 0.0
C1453 C 0.17127 0.36727 0.89261 0.0
C1454 C 0.15467 0.36612 0.91168 0.0
C1455 C 0.13334 0.37243 0.90766 0.0
C1456 C 0.12928 0.38019 0.88486 0.0
C1457 C 0.14537 0.37973 0.86583 0.0
H1458 H 0.75973 0.14445 0.35611 0.0
H1459 H 0.75184 0.12756 0.43111 0.0
H1460 H 0.80135 0.16375 0.43668 0.0
H1461 H 0.83801 0.16799 0.35026 0.0
H1462 H 0.84208 0.1942 0.32925 0.0
H1463 H 0.80996 0.16134 0.33037 0.0
H1464 H 0.78264 0.18756 0.33589 0.0
H1465 H 0.81442 0.22025 0.33504 0.0
H1466 H 0.79151 0.21166 0.36013 0.0
H1467 H 0.84676 0.2094 0.43513 0.0
H1468 H 0.88182 0.25865 0.42677 0.0
H1469 H 0.8592 0.24575 0.35287 0.0
C1470 C 0.76898 0.14741 0.3735 0.0
C1471 C 0.75238 0.13312 0.39313 0.0
C1472 C 0.76457 0.1379 0.4158 0.0
C1473 C 0.79264 0.15848 0.41907 0.0
C1474 C 0.80813 0.17361 0.39941 0.0
C1475 C 0.79672 0.16783 0.37693 0.0
C1476 C 0.81537 0.18977 0.35931 0.0
C1477 C 0.82706 0.17759 0.34124 0.0
C1478 C 0.80007 0.20309 0.34692 0.0
C1479 C 0.83799 0.21007 0.37561 0.0
C1480 C 0.83413 0.2001 0.39855 0.0
C1481 C 0.8505 0.21698 0.41713 0.0
C1482 C 0.87044 0.24489 0.41226 0.0
C1483 C 0.87333 0.25556 0.38913 0.0
C1484 C 0.85772 0.23767 0.37057 0.0
H1485 H 0.61107 0.75319 0.8469 0.0
H1486 H 0.62747 0.74667 0.92071 0.0
H1487 H 0.6399 0.79578 0.92683 0.0
H1488 H 0.66426 0.83084 0.83917 0.0
H1489 H 0.64036 0.83469 0.82011 0.0
H1490 H 0.64099 0.80249 0.8203 0.0
H1491 H 0.5881 0.77546 0.82943 0.0
H1492 H 0.58733 0.80736 0.82946 0.0
H1493 H 0.57528 0.78495 0.85501 0.0
H1494 H 0.63913 0.84114 0.92668 0.0
H1495 H 0.62531 0.87683 0.92012 0.0
H1496 H 0.6096 0.85312 0.84646 0.0
C1497 C 0.61849 0.76252 0.86411 0.0
C1498 C 0.61849 0.74632 0.88329 0.0
C1499 C 0.6278 0.75893 0.90568 0.0
C1500 C 0.63485 0.78681 0.9093 0.0
C1501 C 0.633 0.80182 0.89023 0.0
C1502 C 0.62554 0.79014 0.86792 0.0
C1503 C 0.62081 0.80856 0.85114 0.0
C1504 C 0.64294 0.81982 0.83152 0.0
C1505 C 0.59113 0.79317 0.84069 0.0
C1506 C 0.62473 0.83149 0.86781 0.0
C1507 C 0.63253 0.82784 0.89015 0.0
C1508 C 0.63387 0.84467 0.9091 0.0
C1509 C 0.62609 0.86495 0.90525 0.0
C1510 C 0.61665 0.86773 0.88275 0.0
C1511 C 0.61715 0.8516 0.86374 0.0
H1512 H 0.36668 0.99968 0.94464 0.0
H1513 H 0.29145 0.92261 0.9615 0.0
H1514 H 0.29233 0.93952 1.00207 0.0
H1515 H 0.39993 0.00377 0.99753 0.0
H1516 H 0.41733 0.04109 1.00058 0.0
H1517 H 0.40824 0.02554 0.9717 0.0
H1518 H 0.38057 0.05086 0.96325 0.0
H1519 H 0.38983 0.06677 0.99207 0.0
H1520 H 0.35374 0.04689 0.98352 0.0
H1521 H 0.30382 0.96231 0.04156 0.0
H1522 H 0.32564 0.98913 0.07781 0.0
H1523 H 0.39498 0.05072 0.03626 0.0
C1524 C 0.34989 0.98696 0.9567 0.0
C1525 C 0.32856 0.96022 0.94998 0.0
C1526 C 0.3076 0.9434 0.96637 0.0
C1527 C 0.30795 0.95282 0.98939 0.0
C1528 C 0.32965 0.97899 0.9958 0.0
C1529 C 0.35027 0.99588 0.97997 0.0
C1530 C 0.37289 0.02166 0.99218 0.0
C1531 C 0.40126 0.02308 0.99039 0.0
C1532 C 0.37433 0.04811 0.98216 0.0
C1533 C 0.36208 0.01625 0.01736 0.0
C1534 C 0.3369 0.99174 0.01896 0.0
C1535 C 0.32338 0.98171 0.04051 0.0
C1536 C 0.33598 0.99705 0.06102 0.0
C1537 C 0.36199 0.02202 0.05989 0.0
C1538 C 0.37502 0.03179 0.0377 0.0
H1539 H 0.39427 0.33854 0.46523 0.0
H1540 H 0.34419 0.36034 0.42084 0.0
H1541 H 0.32722 0.37319 0.45624 0.0
H1542 H 0.34296 0.30931 0.5143 0.0
H1543 H 0.36972 0.32237 0.53663 0.0
H1544 H 0.37649 0.31299 0.50791 0.0
H1545 H 0.41949 0.36231 0.50336 0.0
H1546 H 0.41277 0.37189 0.53195 0.0
H1547 H 0.41528 0.39237 0.50635 0.0
H1548 H 0.32066 0.38948 0.4954 0.0
H1549 H 0.3207 0.40346 0.53685 0.0
H1550 H 0.3715 0.36756 0.55686 0.0
C1551 C 0.37938 0.34558 0.46303 0.0
C1552 C 0.37056 0.34848 0.44029 0.0
C1553 C 0.3511 0.3578 0.43809 0.0
C1554 C 0.34139 0.36521 0.45809 0.0
C1555 C 0.35088 0.36265 0.4802 0.0
C1556 C 0.36901 0.35256 0.48289 0.0
C1557 C 0.37631 0.35238 0.50871 0.0
C1558 C 0.36573 0.32248 0.51739 0.0
C1559 C 0.40783 0.37084 0.51282 0.0
C1560 C 0.3602 0.36483 0.51999 0.0
C1561 C 0.34578 0.37068 0.50315 0.0
C1562 C 0.33132 0.38443 0.50883 0.0
C1563 C 0.33156 0.3924 0.53234 0.0
C1564 C 0.34575 0.38618 0.54993 0.0
C1565 C 0.35997 0.37193 0.54375 0.0
H1566 H 0.05266 0.3953 0.96641 0.0
H1567 H 0.99085 0.32629 0.92475 0.0
H1568 H 0.96356 0.30482 0.96089 0.0
H1569 H 0.04758 0.35393 0.01962 0.0
H1570 H 0.0519 0.38118 0.03953 0.0
H1571 H 0.06802 0.38988 0.01077 0.0
H1572 H 0.04337 0.41803 1.00157 0.0
H1573 H 0.02725 0.40947 0.03026 0.0
H1574 H 0.00601 0.40128 0.00411 0.0
H1575 H 0.94025 0.29378 1.00027 0.0
H1576 H 0.9231 0.29328 0.0407 0.0
H1577 H 0.00065 0.36787 0.05777 0.0
C1578 C 0.03362 0.37543 0.96495 0.0
C1579 C 0.02392 0.36244 0.94272 0.0
C1580 C 0.99877 0.33659 0.94155 0.0
C1581 C 0.98314 0.32419 0.96201 0.0
C1582 C 0.99307 0.33772 0.98357 0.0
C1583 C 0.01783 0.36266 0.98525 0.0
C1584 C 0.023 0.37361 0.01041 0.0
C1585 C 0.04918 0.37471 0.02069 0.0
C1586 C 0.02501 0.40229 0.01165 0.0
C1587 C 0.99686 0.35136 0.02248 0.0
C1588 C 0.97996 0.33078 0.00664 0.0
C1589 C 0.95358 0.30937 0.01296 0.0
C1590 C 0.94402 0.30921 0.03592 0.0
C1591 C 0.96091 0.33006 0.05236 0.0
C1592 C 0.98783 0.35114 0.04571 0.0
H1593 H 0.66415 0.06026 0.47363 0.0
H1594 H 0.64587 0.99013 0.42822 0.0
H1595 H 0.63447 0.95983 0.46332 0.0
H1596 H 0.69596 0.04044 0.52165 0.0
H1597 H 0.68183 0.05253 0.54441 0.0
H1598 H 0.68999 0.06899 0.51579 0.0
H1599 H 0.63943 0.0595 0.51194 0.0
H1600 H 0.63108 0.04295 0.54046 0.0
H1601 H 0.61079 0.02439 0.51497 0.0
H1602 H 0.61966 0.93619 0.50275 0.0
H1603 H 0.60674 0.92163 0.54431 0.0
H1604 H 0.63845 0.00761 0.56468 0.0
C1605 C 0.65808 0.0386 0.47111 0.0
C1606 C 0.6558 0.02749 0.44821 0.0
C1607 C 0.64786 0.99908 0.44561 0.0
C1608 C 0.64131 0.98171 0.46544 0.0
C1609 C 0.64335 0.99321 0.48776 0.0
C1610 C 0.652 0.0211 0.49075 0.0
C1611 C 0.65206 0.02812 0.51666 0.0
C1612 C 0.68173 0.04874 0.52513 0.0
C1613 C 0.63215 0.0394 0.52127 0.0
C1614 C 0.64133 0.99967 0.52772 0.0
C1615 C 0.6363 0.9798 0.51069 0.0
C1616 C 0.62409 0.95163 0.51629 0.0
C1617 C 0.61675 0.94354 0.53988 0.0
C1618 C 0.6221 0.96358 0.55761 0.0
C1619 C 0.63486 0.99202 0.55149 0.0
H1620 H 0.667 0.61051 0.03789 0.0
H1621 H 0.64402 0.65825 0.08399 0.0
H1622 H 0.63214 0.67704 0.04902 0.0
H1623 H 0.6971 0.66351 0.99012 0.0
H1624 H 0.68428 0.63736 0.96728 0.0
H1625 H 0.69338 0.62983 0.99582 0.0
H1626 H 0.64404 0.58668 0.99959 0.0
H1627 H 0.63471 0.59416 0.9712 0.0
H1628 H 0.61399 0.59093 0.99681 0.0
H1629 H 0.61648 0.68506 0.00959 0.0
H1630 H 0.60246 0.68553 0.9682 0.0
H1631 H 0.63884 0.63547 0.9473 0.0
C1632 C 0.65999 0.62535 0.04061 0.0
C1633 C 0.6564 0.63294 0.06365 0.0
C1634 C 0.64709 0.65231 0.0665 0.0
C1635 C 0.64024 0.66303 0.04675 0.0
C1636 C 0.64336 0.65458 0.02429 0.0
C1637 C 0.65351 0.63658 0.0211 0.0
C1638 C 0.65398 0.62999 0.99515 0.0
C1639 C 0.68397 0.64083 0.98659 0.0
C1640 C 0.63558 0.59858 0.99043 0.0
C1641 C 0.64163 0.64636 0.98425 0.0
C1642 C 0.63559 0.66035 1.0014 0.0
C1643 C 0.62171 0.67476 0.99597 0.0
C1644 C 0.61373 0.67481 0.97247 0.0
C1645 C 0.62 0.66092 0.95462 0.0
C1646 C 0.63448 0.64685 0.96055 0.0
H1647 H 0.99659 0.63191 0.55995 0.0
H1648 H 0.08124 0.69332 0.54112 0.0
H1649 H 0.0666 0.69288 0.49983 0.0
H1650 H 0.98416 0.59152 0.50853 0.0
H1651 H 0.9481 0.58192 0.5054 0.0
H1652 H 0.96406 0.58982 0.53417 0.0
H1653 H 0.94994 0.62742 0.54012 0.0
H1654 H 0.93383 0.61957 0.51136 0.0
H1655 H 0.96017 0.65471 0.5185 0.0
H1656 H 0.04382 0.68435 0.46065 0.0
H1657 H 0.01507 0.66566 0.42487 0.0
H1658 H 0.94546 0.60698 0.46791 0.0
C1659 C 0.01177 0.64569 0.54716 0.0
C1660 C 0.03991 0.66302 0.55359 0.0
C1661 C 0.05954 0.68011 0.5364 0.0
C1662 C 0.05141 0.68007 0.513 0.0
C1663 C 0.02362 0.66246 0.50701 0.0
C1664 C 0.00409 0.64537 0.52348 0.0
C1665 C 0.97627 0.6264 0.51177 0.0
C1666 C 0.96765 0.59559 0.51517 0.0
C1667 C 0.95372 0.6324 0.52099 0.0
C1668 C 0.9834 0.63526 0.48617 0.0
C1669 C 0.01069 0.65645 0.48396 0.0
C1670 C 0.02237 0.66784 0.46212 0.0
C1671 C 0.00585 0.65707 0.4419 0.0
C1672 C 0.97804 0.63484 0.44358 0.0
C1673 C 0.96664 0.624 0.46607 0.0
H1674 H 0.62922 0.99669 0.94695 0.0
H1675 H 0.60159 0.91114 0.96623 0.0
H1676 H 0.6136 0.92526 0.00798 0.0
H1677 H 0.68605 0.03105 0.99043 0.0
H1678 H 0.6782 0.05832 0.99642 0.0
H1679 H 0.67101 0.0422 0.96768 0.0
H1680 H 0.61954 0.02998 0.97126 0.0
H1681 H 0.62654 0.04597 1.0 0.0
H1682 H 0.59932 0.01029 0.99641 0.0
H1683 H 0.62695 0.94835 0.04778 0.0
H1684 H 0.63667 0.97786 0.08324 0.0
H1685 H 0.65186 0.04765 0.03856 0.0
C1686 C 0.62637 0.98114 0.95994 0.0
C1687 C 0.61497 0.95294 0.95345 0.0
C1688 C 0.61055 0.93289 0.97093 0.0
C1689 C 0.61739 0.94074 0.99463 0.0
C1690 C 0.6282 0.96865 1.00059 0.0
C1691 C 0.63242 0.98852 0.9838 0.0
C1692 C 0.64161 0.01652 0.99523 0.0
C1693 C 0.67097 0.03831 0.98695 0.0
C1694 C 0.62049 0.02625 0.99044 0.0
C1695 C 0.6416 0.0092 0.02104 0.0
C1696 C 0.63434 0.98162 0.02371 0.0
C1697 C 0.6327 0.96999 0.04592 0.0
C1698 C 0.63829 0.98691 0.06595 0.0
C1699 C 0.6449 0.01497 0.06365 0.0
C1700 C 0.64677 0.02623 0.04086 0.0
H1701 H 0.66933 0.61463 0.47362 0.0
H1702 H 0.64637 0.66218 0.42725 0.0
H1703 H 0.63525 0.68175 0.46213 0.0
H1704 H 0.617 0.59631 0.51535 0.0
H1705 H 0.63812 0.59975 0.54073 0.0
H1706 H 0.64671 0.59154 0.51232 0.0
H1707 H 0.69638 0.63434 0.51525 0.0
H1708 H 0.68801 0.64262 0.54379 0.0
H1709 H 0.70067 0.66831 0.52057 0.0
H1710 H 0.62053 0.69079 0.50166 0.0
H1711 H 0.60747 0.69229 0.54319 0.0
H1712 H 0.64332 0.64178 0.56419 0.0
C1713 C 0.66244 0.62956 0.47081 0.0
C1714 C 0.65868 0.6369 0.44773 0.0
C1715 C 0.64957 0.65642 0.44477 0.0
C1716 C 0.64316 0.66759 0.46447 0.0
C1717 C 0.6465 0.65941 0.48699 0.0
C1718 C 0.65641 0.64123 0.49027 0.0
C1719 C 0.65729 0.63509 0.51627 0.0
C1720 C 0.63867 0.60382 0.52146 0.0
C1721 C 0.68738 0.64573 0.52445 0.0
C1722 C 0.64547 0.65197 0.52712 0.0
C1723 C 0.63931 0.66578 0.50989 0.0
C1724 C 0.62587 0.68062 0.51533 0.0
C1725 C 0.61844 0.68127 0.53891 0.0
C1726 C 0.62485 0.66756 0.55683 0.0
C1727 C 0.63889 0.65306 0.55088 0.0
H1728 H 0.99976 0.63385 0.0597 0.0
H1729 H 0.91325 0.60174 0.04082 0.0
H1730 H 0.92665 0.61305 0.99888 0.0
H1731 H 0.0313 0.68981 0.01513 0.0
H1732 H 0.05974 0.68365 0.00934 0.0
H1733 H 0.0439 0.67652 0.0382 0.0
H1734 H 0.03435 0.62584 0.03566 0.0
H1735 H 0.05006 0.63278 0.00681 0.0
H1736 H 0.01502 0.60439 0.01092 0.0
H1737 H 0.94904 0.626 0.959 0.0
H1738 H 0.97832 0.63614 0.92339 0.0
H1739 H 0.04985 0.65641 0.96771 0.0
C1740 C 0.98381 0.62985 0.04674 0.0
C1741 C 0.95556 0.61737 0.05338 0.0
C1742 C 0.93504 0.61151 0.03598 0.0
C1743 C 0.94246 0.61794 0.01218 0.0
C1744 C 0.97045 0.62984 0.00607 0.0
C1745 C 0.99081 0.63552 0.02279 0.0
C1746 C 0.01894 0.64577 0.01123 0.0
C1747 C 0.03969 0.67572 0.01894 0.0
C1748 C 0.03024 0.62601 0.01646 0.0
C1749 C 0.01112 0.64462 0.98543 0.0
C1750 C 0.98316 0.63588 0.98289 0.0
C1751 C 0.97098 0.63293 0.96075 0.0
C1752 C 0.98777 0.63876 0.94064 0.0
C1753 C 0.01629 0.64696 0.9428 0.0
C1754 C 0.02808 0.6501 0.96552 0.0
H1755 H 0.34183 0.94893 0.5375 0.0
H1756 H 0.35785 0.01851 0.58277 0.0
H1757 H 0.36881 0.04869 0.54761 0.0
H1758 H 0.39529 0.98585 0.4965 0.0
H1759 H 0.37552 0.96694 0.47092 0.0
H1760 H 0.36728 0.95041 0.49945 0.0
H1761 H 0.31629 0.93952 0.49515 0.0
H1762 H 0.32435 0.95596 0.46653 0.0
H1763 H 0.30941 0.96744 0.48908 0.0
H1764 H 0.38344 0.07238 0.50818 0.0
H1765 H 0.39661 0.08712 0.46669 0.0
H1766 H 0.36731 0.00153 0.44642 0.0
C1767 C 0.34732 0.97044 0.53998 0.0
C1768 C 0.34909 0.98145 0.56286 0.0
C1769 C 0.35627 0.00965 0.5654 0.0
C1770 C 0.36256 0.02694 0.54554 0.0
C1771 C 0.36102 0.01555 0.52324 0.0
C1772 C 0.35313 0.98784 0.52031 0.0
C1773 C 0.35354 0.98091 0.49444 0.0
C1774 C 0.37414 0.97042 0.49008 0.0
C1775 C 0.32415 0.9597 0.48579 0.0
C1776 C 0.36367 0.00924 0.48332 0.0
C1777 C 0.36798 0.02895 0.5003 0.0
C1778 C 0.37956 0.05704 0.49467 0.0
C1779 C 0.38705 0.06523 0.47113 0.0
C1780 C 0.38246 0.04536 0.45345 0.0
C1781 C 0.37029 0.01697 0.45957 0.0
H1782 H 0.36746 0.3698 0.05566 0.0
H1783 H 0.38048 0.30127 0.03742 0.0
H1784 H 0.36627 0.30261 0.99627 0.0
H1785 H 0.30846 0.35253 0.01495 0.0
H1786 H 0.32117 0.38848 0.00739 0.0
H1787 H 0.3283 0.37956 0.03617 0.0
H1788 H 0.38112 0.41244 0.02941 0.0
H1789 H 0.37418 0.42133 1.00061 0.0
H1790 H 0.39747 0.40769 0.00369 0.0
H1791 H 0.35342 0.31286 0.95701 0.0
H1792 H 0.34571 0.33326 0.92114 0.0
H1793 H 0.3443 0.39772 0.96363 0.0
C1794 C 0.36651 0.35464 0.04306 0.0
C1795 C 0.37444 0.33502 0.04962 0.0
C1796 C 0.3741 0.31617 0.03264 0.0
C1797 C 0.36601 0.31676 0.00931 0.0
C1798 C 0.35879 0.33665 1.00317 0.0
C1799 C 0.35913 0.35541 0.01946 0.0
C1800 C 0.35325 0.37649 0.0076 0.0
C1801 C 0.32618 0.37411 0.01709 0.0
C1802 C 0.37798 0.40624 0.0105 0.0
C1803 C 0.34998 0.36687 0.9821 0.0
C1804 C 0.35276 0.34355 0.98009 0.0
C1805 C 0.35108 0.33104 0.95835 0.0
C1806 C 0.34669 0.34281 0.93807 0.0
C1807 C 0.34444 0.3671 0.93956 0.0
C1808 C 0.34592 0.37913 0.96194 0.0
H1809 H 0.99882 0.3671 0.55752 0.0
H1810 H 0.08554 0.40433 0.53725 0.0
H1811 H 0.07162 0.39165 0.49557 0.0
H1812 H 0.96942 0.31023 0.51365 0.0
H1813 H 0.93939 0.31389 0.50815 0.0
H1814 H 0.95585 0.32246 0.53677 0.0
H1815 H 0.96192 0.37183 0.53379 0.0
H1816 H 0.94549 0.3634 0.50522 0.0
H1817 H 0.97972 0.39338 0.50863 0.0
H1818 H 0.04844 0.37651 0.45588 0.0
H1819 H 0.01807 0.36448 0.42069 0.0
H1820 H 0.94674 0.34061 0.46627 0.0
C1821 C 0.01474 0.37197 0.54432 0.0
C1822 C 0.04321 0.38626 0.55052 0.0
C1823 C 0.06361 0.39319 0.53277 0.0
C1824 C 0.0559 0.38597 0.5091 0.0
C1825 C 0.02768 0.37221 0.50341 0.0
C1826 C 0.00741 0.36555 0.52045 0.0
C1827 C 0.97881 0.35337 0.50928 0.0
C1828 C 0.95974 0.32319 0.51745 0.0
C1829 C 0.96573 0.37159 0.51454 0.0
C1830 C 0.98624 0.35457 0.48335 0.0
C1831 C 0.01446 0.36494 0.48037 0.0
C1832 C 0.02629 0.3683 0.45799 0.0
C1833 C 0.0089 0.36135 0.43811 0.0
C1834 C 0.98011 0.35169 0.44075 0.0
C1835 C 0.96869 0.34798 0.46371 0.0
H1836 H 0.49147 0.09501 0.10165 0.0
H1837 H 0.45089 0.04386 0.16292 0.0
H1838 H 0.49398 0.04329 0.17295 0.0
H1839 H 0.52399 0.05621 0.08604 0.0
H1840 H 0.55525 0.08526 0.07431 0.0
H1841 H 0.52305 0.08578 0.07386 0.0
H1842 H 0.54613 0.13248 0.09727 0.0
H1843 H 0.57839 0.13197 0.09655 0.0
H1844 H 0.56418 0.13452 0.12438 0.0
H1845 H 0.53914 0.04433 0.17444 0.0
H1846 H 0.58296 0.04449 0.16596 0.0
H1847 H 0.59509 0.09394 0.10318 0.0
C1848 C 0.49215 0.08454 0.11758 0.0
C1849 C 0.4684 0.07047 0.13218 0.0
C1850 C 0.46922 0.0554 0.15201 0.0
C1851 C 0.49359 0.05503 0.15783 0.0
C1852 C 0.51675 0.06912 0.1432 0.0
C1853 C 0.5162 0.0833 0.12328 0.0
C1854 C 0.54259 0.09319 0.10879 0.0
C1855 C 0.53581 0.07927 0.08431 0.0
C1856 C 0.55877 0.12497 0.10658 0.0
C1857 C 0.55824 0.08293 0.12395 0.0
C1858 C 0.54287 0.06911 0.14372 0.0
C1859 C 0.55164 0.05561 0.15932 0.0
C1860 C 0.57652 0.05583 0.15442 0.0
C1861 C 0.5927 0.07001 0.13444 0.0
C1862 C 0.58359 0.08394 0.11911 0.0
H1863 H 0.50409 0.60944 0.60942 0.0
H1864 H 0.5479 0.59167 0.6638 0.0
H1865 H 0.50517 0.54705 0.67249 0.0
H1866 H 0.43346 0.57414 0.63565 0.0
H1867 H 0.41691 0.5604 0.60759 0.0
H1868 H 0.44935 0.59297 0.60887 0.0
H1869 H 0.471 0.57287 0.57983 0.0
H1870 H 0.43875 0.54026 0.57899 0.0
H1871 H 0.4705 0.54102 0.5873 0.0
H1872 H 0.46034 0.50244 0.67197 0.0
H1873 H 0.41651 0.45975 0.66139 0.0
H1874 H 0.40091 0.5051 0.60694 0.0
C1875 C 0.50421 0.59651 0.62371 0.0
C1876 C 0.52875 0.60432 0.63672 0.0
C1877 C 0.52893 0.58624 0.65423 0.0
C1878 C 0.50479 0.56095 0.65927 0.0
C1879 C 0.48086 0.55364 0.64611 0.0
C1880 C 0.48042 0.57072 0.62849 0.0
C1881 C 0.45333 0.55612 0.61471 0.0
C1882 C 0.43728 0.57187 0.6168 0.0
C1883 C 0.45873 0.55234 0.58868 0.0
C1884 C 0.43848 0.52838 0.62753 0.0
C1885 C 0.45481 0.52745 0.64558 0.0
C1886 C 0.44705 0.50312 0.65831 0.0
C1887 C 0.42219 0.47901 0.65221 0.0
C1888 C 0.40507 0.47955 0.63399 0.0
C1889 C 0.41316 0.50458 0.62163 0.0
H1890 H 0.94603 0.41825 0.14057 0.0
H1891 H 0.88294 0.3779 0.08666 0.0
H1892 H 0.87382 0.41727 0.0873 0.0
H1893 H 0.91483 0.45309 0.17373 0.0
H1894 H 0.94794 0.48418 0.17779 0.0
H1895 H 0.94617 0.45093 0.1751 0.0
H1896 H 0.98178 0.47141 0.14033 0.0
H1897 H 0.98247 0.50409 0.14298 0.0
H1898 H 0.97363 0.48593 0.11512 0.0
H1899 H 0.86994 0.45973 0.09535 0.0
H1900 H 0.87979 0.50786 0.10223 0.0
H1901 H 0.9493 0.52344 0.14725 0.0
C1902 C 0.92995 0.4176 0.12927 0.0
C1903 C 0.91377 0.39435 0.11468 0.0
C1904 C 0.89423 0.39484 0.09898 0.0
C1905 C 0.88905 0.41713 0.09916 0.0
C1906 C 0.90417 0.43907 0.11475 0.0
C1907 C 0.92484 0.43994 0.12899 0.0
C1908 C 0.94052 0.46762 0.14178 0.0
C1909 C 0.93716 0.46369 0.16869 0.0
C1910 C 0.97143 0.48318 0.13461 0.0
C1911 C 0.92543 0.48211 0.13249 0.0
C1912 C 0.90395 0.4649 0.11751 0.0
C1913 C 0.88679 0.47346 0.10693 0.0
C1914 C 0.89237 0.50069 0.11108 0.0
C1915 C 0.91506 0.51904 0.12544 0.0
C1916 C 0.93167 0.5096 0.13638 0.0
H1917 H 0.39862 0.90047 0.60473 0.0
H1918 H 0.40803 0.95196 0.66546 0.0
H1919 H 0.45216 0.95375 0.67573 0.0
H1920 H 0.43136 0.86208 0.62983 0.0
H1921 H 0.44961 0.86351 0.6031 0.0
H1922 H 0.41667 0.8626 0.60159 0.0
H1923 H 0.43847 0.90787 0.57744 0.0
H1924 H 0.47151 0.90909 0.5781 0.0
H1925 H 0.46887 0.93837 0.58859 0.0
H1926 H 0.49854 0.95773 0.67511 0.0
H1927 H 0.54285 0.95905 0.6662 0.0
H1928 H 0.5036 0.90246 0.60768 0.0
C1929 C 0.40951 0.91111 0.62069 0.0
C1930 C 0.39966 0.92538 0.63481 0.0
C1931 C 0.41507 0.94043 0.65482 0.0
C1932 C 0.44011 0.94156 0.66076 0.0
C1933 C 0.44972 0.92786 0.64627 0.0
C1934 C 0.43489 0.91273 0.62672 0.0
C1935 C 0.45153 0.90263 0.61274 0.0
C1936 C 0.43638 0.87077 0.61173 0.0
C1937 C 0.45798 0.91525 0.58774 0.0
C1938 C 0.4778 0.91422 0.6276 0.0
C1939 C 0.47643 0.92912 0.64662 0.0
C1940 C 0.49951 0.94521 0.66088 0.0
C1941 C 0.52455 0.94589 0.65572 0.0
C1942 C 0.526 0.92966 0.63716 0.0
C1943 C 0.5024 0.91373 0.62283 0.0
H1944 H 0.57712 0.52281 0.1446 0.0
H1945 H 0.62162 0.50874 0.08844 0.0
H1946 H 0.58302 0.46008 0.08453 0.0
H1947 H 0.51084 0.45338 0.1762 0.0
H1948 H 0.5437 0.48554 0.17614 0.0
H1949 H 0.54263 0.45289 0.17125 0.0
H1950 H 0.52392 0.50432 0.14364 0.0
H1951 H 0.49163 0.47172 0.14357 0.0
H1952 H 0.51093 0.48505 0.1165 0.0
H1953 H 0.54017 0.41257 0.08774 0.0
H1954 H 0.49212 0.37283 0.09172 0.0
H1955 H 0.47361 0.41918 0.14309 0.0
C1956 C 0.57884 0.50922 0.13181 0.0
C1957 C 0.60296 0.51875 0.11778 0.0
C1958 C 0.60393 0.50114 0.10023 0.0
C1959 C 0.58207 0.4736 0.09783 0.0
C1960 C 0.55913 0.46428 0.11278 0.0
C1961 C 0.55704 0.48176 0.12902 0.0
C1962 C 0.52882 0.46757 0.14103 0.0
C1963 C 0.5317 0.46471 0.16774 0.0
C1964 C 0.51289 0.48309 0.13587 0.0
C1965 C 0.51539 0.43942 0.12899 0.0
C1966 C 0.53349 0.4377 0.11321 0.0
C1967 C 0.52581 0.41371 0.10001 0.0
C1968 C 0.49862 0.3912 0.10251 0.0
C1969 C 0.47955 0.39296 0.11798 0.0
C1970 C 0.48805 0.41732 0.13139 0.0
H1971 H 0.1052 0.50378 0.60514 0.0
H1972 H 0.04799 0.46182 0.66276 0.0
H1973 H 0.04862 0.50549 0.673 0.0
H1974 H 0.1447 0.57581 0.63031 0.0
H1975 H 0.145 0.59127 0.60233 0.0
H1976 H 0.14475 0.55863 0.60327 0.0
H1977 H 0.10037 0.53698 0.57693 0.0
H1978 H 0.10049 0.56947 0.5769 0.0
H1979 H 0.0701 0.53817 0.58689 0.0
H1980 H 0.04997 0.55082 0.67356 0.0
H1981 H 0.05086 0.5947 0.66367 0.0
H1982 H 0.10661 0.60812 0.60527 0.0
C1983 C 0.09369 0.50426 0.62042 0.0
C1984 C 0.07741 0.47994 0.63386 0.0
C1985 C 0.06118 0.48058 0.6528 0.0
C1986 C 0.06149 0.50526 0.65873 0.0
C1987 C 0.07754 0.52893 0.64507 0.0
C1988 C 0.09318 0.52863 0.62615 0.0
C1989 C 0.10486 0.55547 0.61205 0.0
C1990 C 0.13677 0.57121 0.61196 0.0
C1991 C 0.09325 0.54967 0.5867 0.0
C1992 C 0.09368 0.57101 0.62617 0.0
C1993 C 0.07798 0.55527 0.64515 0.0
C1994 C 0.06285 0.56368 0.65919 0.0
C1995 C 0.06347 0.58857 0.65349 0.0
C1996 C 0.07969 0.60512 0.63438 0.0
C1997 C 0.09516 0.59638 0.62067 0.0
H1998 H 0.94928 0.53063 0.35337 0.0
H1999 H 0.88761 0.51596 0.4069 0.0
H2000 H 0.87801 0.4676 0.41171 0.0
H2001 H 0.91119 0.45976 0.32747 0.0
H2002 H 0.94249 0.45843 0.32184 0.0
H2003 H 0.94322 0.4913 0.32108 0.0
H2004 H 0.98252 0.51165 0.35217 0.0
H2005 H 0.98246 0.47919 0.3531 0.0
H2006 H 0.97768 0.49382 0.37992 0.0
H2007 H 0.88084 0.42388 0.41518 0.0
H2008 H 0.89036 0.38484 0.41258 0.0
H2009 H 0.9476 0.4262 0.35484 0.0
C2010 C 0.93336 0.51694 0.36571 0.0
C2011 C 0.91872 0.52663 0.37944 0.0
C2012 C 0.89846 0.50854 0.39581 0.0
C2013 C 0.89303 0.48115 0.39875 0.0
C2014 C 0.90803 0.47223 0.38514 0.0
C2015 C 0.9274 0.48939 0.3686 0.0
C2016 C 0.94115 0.47488 0.35667 0.0
C2017 C 0.93409 0.47084 0.33019 0.0
C2018 C 0.97282 0.49084 0.36072 0.0
C2019 C 0.92729 0.44731 0.36972 0.0
C2020 C 0.90834 0.44627 0.38614 0.0
C2021 C 0.89485 0.42403 0.40181 0.0
C2022 C 0.90023 0.4019 0.40014 0.0
C2023 C 0.91841 0.4019 0.38264 0.0
C2024 C 0.93265 0.42523 0.36767 0.0
H2025 H 0.51991 0.94461 0.85923 0.0
H2026 H 0.50299 0.87574 0.90554 0.0
H2027 H 0.45448 0.86561 0.91064 0.0
H2028 H 0.48194 0.96901 0.88955 0.0
H2029 H 0.46831 0.97737 0.86387 0.0
H2030 H 0.50082 0.97762 0.86202 0.0
H2031 H 0.48177 0.94272 0.82736 0.0
H2032 H 0.44895 0.94204 0.82892 0.0
H2033 H 0.4499 0.91012 0.83099 0.0
H2034 H 0.41115 0.86877 0.91637 0.0
H2035 H 0.37222 0.87861 0.91589 0.0
H2036 H 0.41517 0.94219 0.86282 0.0
C2037 C 0.50569 0.92703 0.86997 0.0
C2038 C 0.51483 0.9106 0.8817 0.0
C2039 C 0.49604 0.88809 0.89601 0.0
C2040 C 0.46857 0.88233 0.89912 0.0
C2041 C 0.46024 0.89919 0.88763 0.0
C2042 C 0.478 0.92064 0.87284 0.0
C2043 C 0.46394 0.93588 0.86291 0.0
C2044 C 0.4797 0.96679 0.87002 0.0
C2045 C 0.46095 0.93249 0.83594 0.0
C2046 C 0.43589 0.92034 0.87508 0.0
C2047 C 0.4343 0.89944 0.88946 0.0
C2048 C 0.41166 0.88425 0.90442 0.0
C2049 C 0.3896 0.88981 0.90395 0.0
C2050 C 0.39004 0.90981 0.88822 0.0
C2051 C 0.41382 0.92581 0.87414 0.0
H2052 H 0.47774 0.42623 0.35518 0.0
H2053 H 0.48919 0.37604 0.40771 0.0
H2054 H 0.53691 0.41472 0.41552 0.0
H2055 H 0.54916 0.45995 0.33267 0.0
H2056 H 0.55183 0.49338 0.32803 0.0
H2057 H 0.51861 0.46186 0.32539 0.0
H2058 H 0.4965 0.47865 0.35641 0.0
H2059 H 0.52889 0.51094 0.35904 0.0
H2060 H 0.51275 0.49011 0.38493 0.0
H2061 H 0.57997 0.46137 0.42209 0.0
H2062 H 0.61944 0.50989 0.42155 0.0
H2063 H 0.58202 0.52866 0.36246 0.0
C2064 C 0.49059 0.42333 0.36797 0.0
C2065 C 0.48017 0.39812 0.38057 0.0
C2066 C 0.49719 0.39503 0.3975 0.0
C2067 C 0.52418 0.41694 0.40217 0.0
C2068 C 0.53379 0.44175 0.38969 0.0
C2069 C 0.51776 0.44486 0.37257 0.0
C2070 C 0.53297 0.47374 0.36182 0.0
C2071 C 0.5385 0.47217 0.33541 0.0
C2072 C 0.51681 0.48926 0.3658 0.0
C2073 C 0.55971 0.48667 0.37605 0.0
C2074 C 0.55961 0.46795 0.39224 0.0
C2075 C 0.58078 0.47588 0.40891 0.0
C2076 C 0.60315 0.50336 0.40842 0.0
C2077 C 0.60444 0.5223 0.39108 0.0
C2078 C 0.58205 0.51408 0.37518 0.0
H2079 H 0.04227 0.46735 0.85627 0.0
H2080 H 0.1054 0.48415 0.90893 0.0
H2081 H 0.11548 0.53278 0.91216 0.0
H2082 H 0.04112 0.53424 0.8244 0.0
H2083 H 0.04309 0.50277 0.82476 0.0
H2084 H 0.07435 0.53633 0.82682 0.0
H2085 H 0.00752 0.48652 0.86003 0.0
H2086 H 0.00827 0.51935 0.85989 0.0
H2087 H 0.01692 0.50743 0.88646 0.0
H2088 H 0.11941 0.57971 0.9092 0.0
H2089 H 0.11127 0.6195 0.90538 0.0
H2090 H 0.04417 0.57225 0.85605 0.0
C2091 C 0.05851 0.48152 0.86814 0.0
C2092 C 0.07425 0.47264 0.8814 0.0
C2093 C 0.0942 0.49111 0.89777 0.0
C2094 C 0.09995 0.51868 0.89978 0.0
C2095 C 0.08514 0.52731 0.88561 0.0
C2096 C 0.06438 0.50916 0.87047 0.0
C2097 C 0.04948 0.523 0.85927 0.0
C2098 C 0.05219 0.52409 0.83222 0.0
C2099 C 0.01873 0.5082 0.86687 0.0
C2100 C 0.06564 0.55188 0.86998 0.0
C2101 C 0.08629 0.55399 0.88494 0.0
C2102 C 0.10346 0.57838 0.89737 0.0
C2103 C 0.09898 0.60101 0.89486 0.0
C2104 C 0.07782 0.59924 0.87979 0.0
C2105 C 0.06095 0.57433 0.86724 0.0
H2106 H 0.60648 0.10875 0.40678 0.0
H2107 H 0.59591 0.05587 0.34679 0.0
H2108 H 0.55185 0.05428 0.3366 0.0
H2109 H 0.53614 0.07131 0.42335 0.0
H2110 H 0.53376 0.10082 0.43358 0.0
H2111 H 0.5667 0.10183 0.43426 0.0
H2112 H 0.58886 0.14686 0.40932 0.0
H2113 H 0.55595 0.14607 0.40863 0.0
H2114 H 0.57316 0.14707 0.38142 0.0
H2115 H 0.50611 0.05189 0.33653 0.0
H2116 H 0.46228 0.05172 0.34512 0.0
H2117 H 0.50196 0.10779 0.40388 0.0
C2118 C 0.59532 0.0978 0.39101 0.0
C2119 C 0.60493 0.08321 0.377 0.0
C2120 C 0.58911 0.0677 0.3573 0.0
C2121 C 0.56412 0.0667 0.3514 0.0
C2122 C 0.55489 0.08092 0.36566 0.0
C2123 C 0.56996 0.09627 0.38504 0.0
C2124 C 0.55357 0.10677 0.39891 0.0
C2125 C 0.54716 0.09444 0.42401 0.0
C2126 C 0.56884 0.13864 0.39964 0.0
C2127 C 0.52727 0.09526 0.38413 0.0
C2128 C 0.52838 0.0801 0.36521 0.0
C2129 C 0.50534 0.0645 0.35077 0.0
C2130 C 0.48058 0.0645 0.35573 0.0
C2131 C 0.47938 0.08084 0.37433 0.0
C2132 C 0.50297 0.09637 0.38876 0.0
H2133 H 0.4971 0.59927 0.90076 0.0
H2134 H 0.54512 0.58775 0.84617 0.0
H2135 H 0.50375 0.5433 0.83464 0.0
H2136 H 0.46346 0.52853 0.91842 0.0
H2137 H 0.43082 0.52616 0.92614 0.0
H2138 H 0.46262 0.55915 0.92785 0.0
H2139 H 0.44205 0.58131 0.89964 0.0
H2140 H 0.41005 0.54831 0.89881 0.0
H2141 H 0.4277 0.56453 0.87173 0.0
H2142 H 0.45938 0.49844 0.83155 0.0
H2143 H 0.41491 0.45475 0.83809 0.0
H2144 H 0.39464 0.49377 0.89499 0.0
C2145 C 0.49845 0.58774 0.88587 0.0
C2146 C 0.52382 0.59738 0.87357 0.0
C2147 C 0.52555 0.58101 0.85523 0.0
C2148 C 0.50218 0.5558 0.84858 0.0
C2149 C 0.4774 0.54677 0.86095 0.0
C2150 C 0.47538 0.56203 0.8794 0.0
C2151 C 0.44741 0.54567 0.89178 0.0
C2152 C 0.45132 0.53952 0.91757 0.0
C2153 C 0.43082 0.56091 0.89044 0.0
C2154 C 0.43387 0.51922 0.87707 0.0
C2155 C 0.45164 0.52034 0.85943 0.0
C2156 C 0.44503 0.49755 0.84494 0.0
C2157 C 0.41977 0.47286 0.84874 0.0
C2158 C 0.40109 0.47133 0.86644 0.0
C2159 C 0.40813 0.49487 0.88069 0.0
loop_
_geom_bond_atom_site_label_1
_geom_bond_atom_site_label_2
_geom_bond_distance
_geom_bond_site_symmetry_2
_ccdc_geom_bond_type
Mn0 O5 2.095 . S
Mn0 O15 2.162 . S
Mn0 O16 2.297 . S
Mn0 O24 2.385 . S
Mn0 O25 2.209 . S
Mn0 O26 2.094 . S
Mn1 O6 2.121 . S
Mn1 N8 2.257 . S
Mn1 N17 2.282 . S
Mn1 O25 2.215 . S
Mn1 O27 2.117 . S
C2 O24 1.234 . S
C2 O25 1.283 . S
C3 O15 1.281 . S
C3 O16 1.236 . S
C4 O26 1.240 . S
C4 O27 1.264 . S
O5 Mn0 2.095 . S
O5 C14 1.250 . S
O6 Mn1 2.121 . S
O6 C14 1.258 . S
C7 N8 1.326 . S
C7 C11 1.460 . S
C7 H13 0.929 . S
N8 Mn1 2.257 . S
N8 C7 1.326 . S
N8 C12 1.362 . S
C9 C10 1.258 . S
C9 C12 1.431 . S
C9 C29 1.449 . S
C10 C9 1.258 . S
C10 C11 1.477 . S
C10 H30 0.931 . S
C11 C7 1.460 . S
C11 C10 1.477 . S
C11 H31 0.930 . S
C12 N8 1.362 . S
C12 C9 1.431 . S
C12 C22 1.476 . S
H13 C7 0.929 . S
C14 O5 1.250 . S
C14 O6 1.258 . S
O15 Mn0 2.162 . S
O15 C3 1.281 . S
O16 Mn0 2.297 . S
O16 C3 1.236 . S
N17 Mn1 2.282 . S
N17 C18 1.328 . S
N17 C22 1.318 . S
C18 N17 1.328 . S
C18 C19 1.457 . S
C18 H23 0.929 . S
C19 C18 1.457 . S
C19 C20 1.291 . S
C19 H32 0.931 . S
C20 C19 1.291 . S
C20 C21 1.373 . S
C20 H33 0.929 . S
C21 C20 1.373 . S
C21 C22 1.396 . S
C21 C28 1.403 . S
C22 C12 1.476 . S
C22 N17 1.318 . S
C22 C21 1.396 . S
H23 C18 0.929 . S
O24 Mn0 2.385 . S
O24 C2 1.234 . S
O25 Mn0 2.209 . S
O25 Mn1 2.215 . S
O25 C2 1.283 . S
O26 Mn0 2.094 . S
O26 C4 1.240 . S
O27 Mn1 2.117 . S
O27 C4 1.264 . S
C28 C21 1.403 . S
C28 C29 1.399 . S
C28 H34 0.929 . S
C29 C9 1.449 . S
C29 C28 1.399 . S
C29 H35 0.930 . S
H30 C10 0.931 . S
H31 C11 0.930 . S
H32 C19 0.931 . S
H33 C20 0.929 . S
H34 C28 0.929 . S
H35 C29 0.930 . S
Mn36 O41 2.095 . S
Mn36 O51 2.162 . S
Mn36 O52 2.297 . S
Mn36 O60 2.385 . S
Mn36 O61 2.209 . S
Mn36 O62 2.094 . S
Mn37 O42 2.121 . S
Mn37 N44 2.257 . S
Mn37 N53 2.282 . S
Mn37 O61 2.215 . S
Mn37 O63 2.117 . S
C38 O60 1.234 . S
C38 O61 1.283 . S
C39 O51 1.281 . S
C39 O52 1.236 . S
C40 O62 1.240 . S
C40 O63 1.264 . S
O41 Mn36 2.095 . S
O41 C50 1.250 . S
O42 Mn37 2.121 . S
O42 C50 1.258 . S
C43 N44 1.326 . S
C43 C47 1.460 . S
C43 H49 0.929 . S
N44 Mn37 2.257 . S
N44 C43 1.326 . S
N44 C48 1.362 . S
C45 C46 1.258 . S
C45 C48 1.431 . S
C45 C65 1.449 . S
C46 C45 1.258 . S
C46 C47 1.477 . S
C46 H66 0.931 . S
C47 C43 1.460 . S
C47 C46 1.477 . S
C47 H67 0.930 . S
C48 N44 1.362 . S
C48 C45 1.431 . S
C48 C58 1.476 . S
H49 C43 0.929 . S
C50 O41 1.250 . S
C50 O42 1.258 . S
O51 Mn36 2.162 . S
O51 C39 1.281 . S
O52 Mn36 2.297 . S
O52 C39 1.236 . S
N53 Mn37 2.282 . S
N53 C54 1.328 . S
N53 C58 1.318 . S
C54 N53 1.328 . S
C54 C55 1.457 . S
C54 H59 0.929 . S
C55 C54 1.457 . S
C55 C56 1.291 . S
C55 H68 0.931 . S
C56 C55 1.291 . S
C56 C57 1.373 . S
C56 H69 0.929 . S
C57 C56 1.373 . S
C57 C58 1.396 . S
C57 C64 1.403 . S
C58 C48 1.476 . S
C58 N53 1.318 . S
C58 C57 1.396 . S
H59 C54 0.929 . S
O60 Mn36 2.385 . S
O60 C38 1.234 . S
O61 Mn36 2.209 . S
O61 Mn37 2.215 . S
O61 C38 1.283 . S
O62 Mn36 2.094 . S
O62 C40 1.240 . S
O63 Mn37 2.117 . S
O63 C40 1.264 . S
C64 C57 1.403 . S
C64 C65 1.399 . S
C64 H70 0.929 . S
C65 C45 1.449 . S
C65 C64 1.399 . S
C65 H71 0.930 . S
H66 C46 0.931 . S
H67 C47 0.930 . S
H68 C55 0.931 . S
H69 C56 0.929 . S
H70 C64 0.929 . S
H71 C65 0.930 . S
Mn72 O77 2.095 . S
Mn72 O87 2.162 . S
Mn72 O88 2.297 . S
Mn72 O96 2.385 . S
Mn72 O97 2.209 . S
Mn72 O98 2.094 . S
Mn73 O78 2.121 . S
Mn73 N80 2.257 . S
Mn73 N89 2.282 . S
Mn73 O97 2.215 . S
Mn73 O99 2.117 . S
C74 O96 1.234 . S
C74 O97 1.283 . S
C75 O87 1.281 . S
C75 O88 1.236 . S
C76 O98 1.240 . S
C76 O99 1.264 . S
O77 Mn72 2.095 . S
O77 C86 1.250 . S
O78 Mn73 2.121 . S
O78 C86 1.258 . S
C79 N80 1.326 . S
C79 C83 1.460 . S
C79 H85 0.929 . S
N80 Mn73 2.257 . S
N80 C79 1.326 . S
N80 C84 1.362 . S
C81 C82 1.258 . S
C81 C84 1.431 . S
C81 C101 1.449 . S
C82 C81 1.258 . S
C82 C83 1.477 . S
C82 H102 0.931 . S
C83 C79 1.460 . S
C83 C82 1.477 . S
C83 H103 0.930 . S
C84 N80 1.362 . S
C84 C81 1.431 . S
C84 C94 1.476 . S
H85 C79 0.929 . S
C86 O77 1.250 . S
C86 O78 1.258 . S
O87 Mn72 2.162 . S
O87 C75 1.281 . S
O88 Mn72 2.297 . S
O88 C75 1.236 . S
N89 Mn73 2.282 . S
N89 C90 1.328 . S
N89 C94 1.318 . S
C90 N89 1.328 . S
C90 C91 1.457 . S
C90 H95 0.929 . S
C91 C90 1.457 . S
C91 C92 1.291 . S
C91 H104 0.931 . S
C92 C91 1.291 . S
C92 C93 1.373 . S
C92 H105 0.929 . S
C93 C92 1.373 . S
C93 C94 1.396 . S
C93 C100 1.403 . S
C94 C84 1.476 . S
C94 N89 1.318 . S
C94 C93 1.396 . S
H95 C90 0.929 . S
O96 Mn72 2.385 . S
O96 C74 1.234 . S
O97 Mn72 2.209 . S
O97 Mn73 2.215 . S
O97 C74 1.283 . S
O98 Mn72 2.094 . S
O98 C76 1.240 . S
O99 Mn73 2.117 . S
O99 C76 1.264 . S
C100 C93 1.403 . S
C100 C101 1.399 . S
C100 H106 0.929 . S
C101 C81 1.449 . S
C101 C100 1.399 . S
C101 H107 0.930 . S
H102 C82 0.931 . S
H103 C83 0.930 . S
H104 C91 0.931 . S
H105 C92 0.929 . S
H106 C100 0.929 . S
H107 C101 0.930 . S
Mn108 O113 2.095 . S
Mn108 O123 2.162 . S
Mn108 O124 2.297 . S
Mn108 O132 2.385 . S
Mn108 O133 2.209 . S
Mn108 O134 2.094 . S
Mn109 O114 2.121 . S
Mn109 N116 2.257 . S
Mn109 N125 2.282 . S
Mn109 O133 2.215 . S
Mn109 O135 2.117 . S
C110 O132 1.234 . S
C110 O133 1.283 . S
C111 O123 1.281 . S
C111 O124 1.236 . S
C112 O134 1.240 . S
C112 O135 1.264 . S
O113 Mn108 2.095 . S
O113 C122 1.250 . S
O114 Mn109 2.121 . S
O114 C122 1.258 . S
C115 N116 1.326 . S
C115 C119 1.460 . S
C115 H121 0.929 . S
N116 Mn109 2.257 . S
N116 C115 1.326 . S
N116 C120 1.362 . S
C117 C118 1.258 . S
C117 C120 1.431 . S
C117 C137 1.449 . S
C118 C117 1.258 . S
C118 C119 1.477 . S
C118 H138 0.931 . S
C119 C115 1.460 . S
C119 C118 1.477 . S
C119 H139 0.930 . S
C120 N116 1.362 . S
C120 C117 1.431 . S
C120 C130 1.476 . S
H121 C115 0.929 . S
C122 O113 1.250 . S
C122 O114 1.258 . S
O123 Mn108 2.162 . S
O123 C111 1.281 . S
O124 Mn108 2.297 . S
O124 C111 1.236 . S
N125 Mn109 2.282 . S
N125 C126 1.328 . S
N125 C130 1.318 . S
C126 N125 1.328 . S
C126 C127 1.457 . S
C126 H131 0.929 . S
C127 C126 1.457 . S
C127 C128 1.291 . S
C127 H140 0.931 . S
C128 C127 1.291 . S
C128 C129 1.373 . S
C128 H141 0.929 . S
C129 C128 1.373 . S
C129 C130 1.396 . S
C129 C136 1.403 . S
C130 C120 1.476 . S
C130 N125 1.318 . S
C130 C129 1.396 . S
H131 C126 0.929 . S
O132 Mn108 2.385 . S
O132 C110 1.234 . S
O133 Mn108 2.209 . S
O133 Mn109 2.215 . S
O133 C110 1.283 . S
O134 Mn108 2.094 . S
O134 C112 1.240 . S
O135 Mn109 2.117 . S
O135 C112 1.264 . S
C136 C129 1.403 . S
C136 C137 1.399 . S
C136 H142 0.929 . S
C137 C117 1.449 . S
C137 C136 1.399 . S
C137 H143 0.930 . S
H138 C118 0.931 . S
H139 C119 0.930 . S
H140 C127 0.931 . S
H141 C128 0.929 . S
H142 C136 0.929 . S
H143 C137 0.930 . S
Mn144 O149 2.095 . S
Mn144 O159 2.162 . S
Mn144 O160 2.297 . S
Mn144 O168 2.385 . S
Mn144 O169 2.209 . S
Mn144 O170 2.094 . S
Mn145 O150 2.121 . S
Mn145 N152 2.257 . S
Mn145 N161 2.282 . S
Mn145 O169 2.215 . S
Mn145 O171 2.117 . S
C146 O168 1.234 . S
C146 O169 1.283 . S
C147 O159 1.281 . S
C147 O160 1.236 . S
C148 O170 1.240 . S
C148 O171 1.264 . S
O149 Mn144 2.095 . S
O149 C158 1.250 . S
O150 Mn145 2.121 . S
O150 C158 1.258 . S
C151 N152 1.326 . S
C151 C155 1.460 . S
C151 H157 0.929 . S
N152 Mn145 2.257 . S
N152 C151 1.326 . S
N152 C156 1.362 . S
C153 C154 1.258 . S
C153 C156 1.431 . S
C153 C173 1.449 . S
C154 C153 1.258 . S
C154 C155 1.477 . S
C154 H174 0.931 . S
C155 C151 1.460 . S
C155 C154 1.477 . S
C155 H175 0.930 . S
C156 N152 1.362 . S
C156 C153 1.431 . S
C156 C166 1.476 . S
H157 C151 0.929 . S
C158 O149 1.250 . S
C158 O150 1.258 . S
O159 Mn144 2.162 . S
O159 C147 1.281 . S
O160 Mn144 2.297 . S
O160 C147 1.236 . S
N161 Mn145 2.282 . S
N161 C162 1.328 . S
N161 C166 1.318 . S
C162 N161 1.328 . S
C162 C163 1.457 . S
C162 H167 0.929 . S
C163 C162 1.457 . S
C163 C164 1.291 . S
C163 H176 0.931 . S
C164 C163 1.291 . S
C164 C165 1.373 . S
C164 H177 0.929 . S
C165 C164 1.373 . S
C165 C166 1.396 . S
C165 C172 1.403 . S
C166 C156 1.476 . S
C166 N161 1.318 . S
C166 C165 1.396 . S
H167 C162 0.929 . S
O168 Mn144 2.385 . S
O168 C146 1.234 . S
O169 Mn144 2.209 . S
O169 Mn145 2.215 . S
O169 C146 1.283 . S
O170 Mn144 2.094 . S
O170 C148 1.240 . S
O171 Mn145 2.117 . S
O171 C148 1.264 . S
C172 C165 1.403 . S
C172 C173 1.399 . S
C172 H178 0.929 . S
C173 C153 1.449 . S
C173 C172 1.399 . S
C173 H179 0.930 . S
H174 C154 0.931 . S
H175 C155 0.930 . S
H176 C163 0.931 . S
H177 C164 0.929 . S
H178 C172 0.929 . S
H179 C173 0.930 . S
Mn180 O185 2.095 . S
Mn180 O195 2.162 . S
Mn180 O196 2.297 . S
Mn180 O204 2.385 . S
Mn180 O205 2.209 . S
Mn180 O206 2.094 . S
Mn181 O186 2.121 . S
Mn181 N188 2.257 . S
Mn181 N197 2.282 . S
Mn181 O205 2.215 . S
Mn181 O207 2.117 . S
C182 O204 1.234 . S
C182 O205 1.283 . S
C183 O195 1.281 . S
C183 O196 1.236 . S
C184 O206 1.240 . S
C184 O207 1.264 . S
O185 Mn180 2.095 . S
O185 C194 1.250 . S
O186 Mn181 2.121 . S
O186 C194 1.258 . S
C187 N188 1.326 . S
C187 C191 1.460 . S
C187 H193 0.929 . S
N188 Mn181 2.257 . S
N188 C187 1.326 . S
N188 C192 1.362 . S
C189 C190 1.258 . S
C189 C192 1.431 . S
C189 C209 1.449 . S
C190 C189 1.258 . S
C190 C191 1.477 . S
C190 H210 0.931 . S
C191 C187 1.460 . S
C191 C190 1.477 . S
C191 H211 0.930 . S
C192 N188 1.362 . S
C192 C189 1.431 . S
C192 C202 1.476 . S
H193 C187 0.929 . S
C194 O185 1.250 . S
C194 O186 1.258 . S
O195 Mn180 2.162 . S
O195 C183 1.281 . S
O196 Mn180 2.297 . S
O196 C183 1.236 . S
N197 Mn181 2.282 . S
N197 C198 1.328 . S
N197 C202 1.318 . S
C198 N197 1.328 . S
C198 C199 1.457 . S
C198 H203 0.929 . S
C199 C198 1.457 . S
C199 C200 1.291 . S
C199 H212 0.931 . S
C200 C199 1.291 . S
C200 C201 1.373 . S
C200 H213 0.929 . S
C201 C200 1.373 . S
C201 C202 1.396 . S
C201 C208 1.403 . S
C202 C192 1.476 . S
C202 N197 1.318 . S
C202 C201 1.396 . S
H203 C198 0.929 . S
O204 Mn180 2.385 . S
O204 C182 1.234 . S
O205 Mn180 2.209 . S
O205 Mn181 2.215 . S
O205 C182 1.283 . S
O206 Mn180 2.094 . S
O206 C184 1.240 . S
O207 Mn181 2.117 . S
O207 C184 1.264 . S
C208 C201 1.403 . S
C208 C209 1.399 . S
C208 H214 0.929 . S
C209 C189 1.449 . S
C209 C208 1.399 . S
C209 H215 0.930 . S
H210 C190 0.931 . S
H211 C191 0.930 . S
H212 C199 0.931 . S
H213 C200 0.929 . S
H214 C208 0.929 . S
H215 C209 0.930 . S
Mn216 O221 2.095 . S
Mn216 O231 2.162 . S
Mn216 O232 2.297 . S
Mn216 O240 2.385 . S
Mn216 O241 2.209 . S
Mn216 O242 2.094 . S
Mn217 O222 2.121 . S
Mn217 N224 2.257 . S
Mn217 N233 2.282 . S
Mn217 O241 2.215 . S
Mn217 O243 2.117 . S
C218 O240 1.234 . S
C218 O241 1.283 . S
C219 O231 1.281 . S
C219 O232 1.236 . S
C220 O242 1.240 . S
C220 O243 1.264 . S
O221 Mn216 2.095 . S
O221 C230 1.250 . S
O222 Mn217 2.121 . S
O222 C230 1.258 . S
C223 N224 1.326 . S
C223 C227 1.460 . S
C223 H229 0.929 . S
N224 Mn217 2.257 . S
N224 C223 1.326 . S
N224 C228 1.362 . S
C225 C226 1.258 . S
C225 C228 1.431 . S
C225 C245 1.449 . S
C226 C225 1.258 . S
C226 C227 1.477 . S
C226 H246 0.931 . S
C227 C223 1.460 . S
C227 C226 1.477 . S
C227 H247 0.930 . S
C228 N224 1.362 . S
C228 C225 1.431 . S
C228 C238 1.476 . S
H229 C223 0.929 . S
C230 O221 1.250 . S
C230 O222 1.258 . S
O231 Mn216 2.162 . S
O231 C219 1.281 . S
O232 Mn216 2.297 . S
O232 C219 1.236 . S
N233 Mn217 2.282 . S
N233 C234 1.328 . S
N233 C238 1.318 . S
C234 N233 1.328 . S
C234 C235 1.457 . S
C234 H239 0.929 . S
C235 C234 1.457 . S
C235 C236 1.291 . S
C235 H248 0.931 . S
C236 C235 1.291 . S
C236 C237 1.373 . S
C236 H249 0.929 . S
C237 C236 1.373 . S
C237 C238 1.396 . S
C237 C244 1.403 . S
C238 C228 1.476 . S
C238 N233 1.318 . S
C238 C237 1.396 . S
H239 C234 0.929 . S
O240 Mn216 2.385 . S
O240 C218 1.234 . S
O241 Mn216 2.209 . S
O241 Mn217 2.215 . S
O241 C218 1.283 . S
O242 Mn216 2.094 . S
O242 C220 1.240 . S
O243 Mn217 2.117 . S
O243 C220 1.264 . S
C244 C237 1.403 . S
C244 C245 1.399 . S
C244 H250 0.929 . S
C245 C225 1.449 . S
C245 C244 1.399 . S
C245 H251 0.930 . S
H246 C226 0.931 . S
H247 C227 0.930 . S
H248 C235 0.931 . S
H249 C236 0.929 . S
H250 C244 0.929 . S
H251 C245 0.930 . S
Mn252 O257 2.095 . S
Mn252 O267 2.162 . S
Mn252 O268 2.297 . S
Mn252 O276 2.385 . S
Mn252 O277 2.209 . S
Mn252 O278 2.094 . S
Mn253 O258 2.121 . S
Mn253 N260 2.257 . S
Mn253 N269 2.282 . S
Mn253 O277 2.215 . S
Mn253 O279 2.117 . S
C254 O276 1.234 . S
C254 O277 1.283 . S
C255 O267 1.281 . S
C255 O268 1.236 . S
C256 O278 1.240 . S
C256 O279 1.264 . S
O257 Mn252 2.095 . S
O257 C266 1.250 . S
O258 Mn253 2.121 . S
O258 C266 1.258 . S
C259 N260 1.326 . S
C259 C263 1.460 . S
C259 H265 0.929 . S
N260 Mn253 2.257 . S
N260 C259 1.326 . S
N260 C264 1.362 . S
C261 C262 1.258 . S
C261 C264 1.431 . S
C261 C281 1.449 . S
C262 C261 1.258 . S
C262 C263 1.477 . S
C262 H282 0.931 . S
C263 C259 1.460 . S
C263 C262 1.477 . S
C263 H283 0.930 . S
C264 N260 1.362 . S
C264 C261 1.431 . S
C264 C274 1.476 . S
H265 C259 0.929 . S
C266 O257 1.250 . S
C266 O258 1.258 . S
O267 Mn252 2.162 . S
O267 C255 1.281 . S
O268 Mn252 2.297 . S
O268 C255 1.236 . S
N269 Mn253 2.282 . S
N269 C270 1.328 . S
N269 C274 1.318 . S
C270 N269 1.328 . S
C270 C271 1.457 . S
C270 H275 0.929 . S
C271 C270 1.457 . S
C271 C272 1.291 . S
C271 H284 0.931 . S
C272 C271 1.291 . S
C272 C273 1.373 . S
C272 H285 0.929 . S
C273 C272 1.373 . S
C273 C274 1.396 . S
C273 C280 1.403 . S
C274 C264 1.476 . S
C274 N269 1.318 . S
C274 C273 1.396 . S
H275 C270 0.929 . S
O276 Mn252 2.385 . S
O276 C254 1.234 . S
O277 Mn252 2.209 . S
O277 Mn253 2.215 . S
O277 C254 1.283 . S
O278 Mn252 2.094 . S
O278 C256 1.240 . S
O279 Mn253 2.117 . S
O279 C256 1.264 . S
C280 C273 1.403 . S
C280 C281 1.399 . S
C280 H286 0.929 . S
C281 C261 1.449 . S
C281 C280 1.399 . S
C281 H287 0.930 . S
H282 C262 0.931 . S
H283 C263 0.930 . S
H284 C271 0.931 . S
H285 C272 0.929 . S
H286 C280 0.929 . S
H287 C281 0.930 . S
Mn288 O293 2.095 . S
Mn288 O303 2.162 . S
Mn288 O304 2.297 . S
Mn288 O312 2.385 . S
Mn288 O313 2.209 . S
Mn288 O314 2.094 . S
Mn289 O294 2.121 . S
Mn289 N296 2.257 . S
Mn289 N305 2.282 . S
Mn289 O313 2.215 . S
Mn289 O315 2.117 . S
C290 O312 1.234 . S
C290 O313 1.283 . S
C291 O303 1.281 . S
C291 O304 1.236 . S
C292 O314 1.240 . S
C292 O315 1.264 . S
O293 Mn288 2.095 . S
O293 C302 1.250 . S
O294 Mn289 2.121 . S
O294 C302 1.258 . S
C295 N296 1.326 . S
C295 C299 1.460 . S
C295 H301 0.929 . S
N296 Mn289 2.257 . S
N296 C295 1.326 . S
N296 C300 1.362 . S
C297 C298 1.258 . S
C297 C300 1.431 . S
C297 C317 1.449 . S
C298 C297 1.258 . S
C298 C299 1.477 . S
C298 H318 0.931 . S
C299 C295 1.460 . S
C299 C298 1.477 . S
C299 H319 0.930 . S
C300 N296 1.362 . S
C300 C297 1.431 . S
C300 C310 1.476 . S
H301 C295 0.929 . S
C302 O293 1.250 . S
C302 O294 1.258 . S
O303 Mn288 2.162 . S
O303 C291 1.281 . S
O304 Mn288 2.297 . S
O304 C291 1.236 . S
N305 Mn289 2.282 . S
N305 C306 1.328 . S
N305 C310 1.318 . S
C306 N305 1.328 . S
C306 C307 1.457 . S
C306 H311 0.929 . S
C307 C306 1.457 . S
C307 C308 1.291 . S
C307 H320 0.931 . S
C308 C307 1.291 . S
C308 C309 1.373 . S
C308 H321 0.929 . S
C309 C308 1.373 . S
C309 C310 1.396 . S
C309 C316 1.403 . S
C310 C300 1.476 . S
C310 N305 1.318 . S
C310 C309 1.396 . S
H311 C306 0.929 . S
O312 Mn288 2.385 . S
O312 C290 1.234 . S
O313 Mn288 2.209 . S
O313 Mn289 2.215 . S
O313 C290 1.283 . S
O314 Mn288 2.094 . S
O314 C292 1.240 . S
O315 Mn289 2.117 . S
O315 C292 1.264 . S
C316 C309 1.403 . S
C316 C317 1.399 . S
C316 H322 0.929 . S
C317 C297 1.449 . S
C317 C316 1.399 . S
C317 H323 0.930 . S
H318 C298 0.931 . S
H319 C299 0.930 . S
H320 C307 0.931 . S
H321 C308 0.929 . S
H322 C316 0.929 . S
H323 C317 0.930 . S
Mn324 O329 2.095 . S
Mn324 O339 2.162 . S
Mn324 O340 2.297 . S
Mn324 O348 2.385 . S
Mn324 O349 2.209 . S
Mn324 O350 2.094 . S
Mn325 O330 2.121 . S
Mn325 N332 2.257 . S
Mn325 N341 2.282 . S
Mn325 O349 2.215 . S
Mn325 O351 2.117 . S
C326 O348 1.234 . S
C326 O349 1.283 . S
C327 O339 1.281 . S
C327 O340 1.236 . S
C328 O350 1.240 . S
C328 O351 1.264 . S
O329 Mn324 2.095 . S
O329 C338 1.250 . S
O330 Mn325 2.121 . S
O330 C338 1.258 . S
C331 N332 1.326 . S
C331 C335 1.460 . S
C331 H337 0.929 . S
N332 Mn325 2.257 . S
N332 C331 1.326 . S
N332 C336 1.362 . S
C333 C334 1.258 . S
C333 C336 1.431 . S
C333 C353 1.449 . S
C334 C333 1.258 . S
C334 C335 1.477 . S
C334 H354 0.931 . S
C335 C331 1.460 . S
C335 C334 1.477 . S
C335 H355 0.930 . S
C336 N332 1.362 . S
C336 C333 1.431 . S
C336 C346 1.476 . S
H337 C331 0.929 . S
C338 O329 1.250 . S
C338 O330 1.258 . S
O339 Mn324 2.162 . S
O339 C327 1.281 . S
O340 Mn324 2.297 . S
O340 C327 1.236 . S
N341 Mn325 2.282 . S
N341 C342 1.328 . S
N341 C346 1.318 . S
C342 N341 1.328 . S
C342 C343 1.457 . S
C342 H347 0.929 . S
C343 C342 1.457 . S
C343 C344 1.291 . S
C343 H356 0.931 . S
C344 C343 1.291 . S
C344 C345 1.373 . S
C344 H357 0.929 . S
C345 C344 1.373 . S
C345 C346 1.396 . S
C345 C352 1.403 . S
C346 C336 1.476 . S
C346 N341 1.318 . S
C346 C345 1.396 . S
H347 C342 0.929 . S
O348 Mn324 2.385 . S
O348 C326 1.234 . S
O349 Mn324 2.209 . S
O349 Mn325 2.215 . S
O349 C326 1.283 . S
O350 Mn324 2.094 . S
O350 C328 1.240 . S
O351 Mn325 2.117 . S
O351 C328 1.264 . S
C352 C345 1.403 . S
C352 C353 1.399 . S
C352 H358 0.929 . S
C353 C333 1.449 . S
C353 C352 1.399 . S
C353 H359 0.930 . S
H354 C334 0.931 . S
H355 C335 0.930 . S
H356 C343 0.931 . S
H357 C344 0.929 . S
H358 C352 0.929 . S
H359 C353 0.930 . S
Mn360 O365 2.095 . S
Mn360 O375 2.162 . S
Mn360 O376 2.297 . S
Mn360 O384 2.385 . S
Mn360 O385 2.209 . S
Mn360 O386 2.094 . S
Mn361 O366 2.121 . S
Mn361 N368 2.257 . S
Mn361 N377 2.282 . S
Mn361 O385 2.215 . S
Mn361 O387 2.117 . S
C362 O384 1.234 . S
C362 O385 1.283 . S
C363 O375 1.281 . S
C363 O376 1.236 . S
C364 O386 1.240 . S
C364 O387 1.264 . S
O365 Mn360 2.095 . S
O365 C374 1.250 . S
O366 Mn361 2.121 . S
O366 C374 1.258 . S
C367 N368 1.326 . S
C367 C371 1.460 . S
C367 H373 0.929 . S
N368 Mn361 2.257 . S
N368 C367 1.326 . S
N368 C372 1.362 . S
C369 C370 1.258 . S
C369 C372 1.431 . S
C369 C389 1.449 . S
C370 C369 1.258 . S
C370 C371 1.477 . S
C370 H390 0.931 . S
C371 C367 1.460 . S
C371 C370 1.477 . S
C371 H391 0.930 . S
C372 N368 1.362 . S
C372 C369 1.431 . S
C372 C382 1.476 . S
H373 C367 0.929 . S
C374 O365 1.250 . S
C374 O366 1.258 . S
O375 Mn360 2.162 . S
O375 C363 1.281 . S
O376 Mn360 2.297 . S
O376 C363 1.236 . S
N377 Mn361 2.282 . S
N377 C378 1.328 . S
N377 C382 1.318 . S
C378 N377 1.328 . S
C378 C379 1.457 . S
C378 H383 0.929 . S
C379 C378 1.457 . S
C379 C380 1.291 . S
C379 H392 0.931 . S
C380 C379 1.291 . S
C380 C381 1.373 . S
C380 H393 0.929 . S
C381 C380 1.373 . S
C381 C382 1.396 . S
C381 C388 1.403 . S
C382 C372 1.476 . S
C382 N377 1.318 . S
C382 C381 1.396 . S
H383 C378 0.929 . S
O384 Mn360 2.385 . S
O384 C362 1.234 . S
O385 Mn360 2.209 . S
O385 Mn361 2.215 . S
O385 C362 1.283 . S
O386 Mn360 2.094 . S
O386 C364 1.240 . S
O387 Mn361 2.117 . S
O387 C364 1.264 . S
C388 C381 1.403 . S
C388 C389 1.399 . S
C388 H394 0.929 . S
C389 C369 1.449 . S
C389 C388 1.399 . S
C389 H395 0.930 . S
H390 C370 0.931 . S
H391 C371 0.930 . S
H392 C379 0.931 . S
H393 C380 0.929 . S
H394 C388 0.929 . S
H395 C389 0.930 . S
Mn396 O401 2.095 . S
Mn396 O411 2.162 . S
Mn396 O412 2.297 . S
Mn396 O420 2.385 . S
Mn396 O421 2.209 . S
Mn396 O422 2.094 . S
Mn397 O402 2.121 . S
Mn397 N404 2.257 . S
Mn397 N413 2.282 . S
Mn397 O421 2.215 . S
Mn397 O423 2.117 . S
C398 O420 1.234 . S
C398 O421 1.283 . S
C399 O411 1.281 . S
C399 O412 1.236 . S
C400 O422 1.240 . S
C400 O423 1.264 . S
O401 Mn396 2.095 . S
O401 C410 1.250 . S
O402 Mn397 2.121 . S
O402 C410 1.258 . S
C403 N404 1.326 . S
C403 C407 1.460 . S
C403 H409 0.929 . S
N404 Mn397 2.257 . S
N404 C403 1.326 . S
N404 C408 1.362 . S
C405 C406 1.258 . S
C405 C408 1.431 . S
C405 C425 1.449 . S
C406 C405 1.258 . S
C406 C407 1.477 . S
C406 H426 0.931 . S
C407 C403 1.460 . S
C407 C406 1.477 . S
C407 H427 0.930 . S
C408 N404 1.362 . S
C408 C405 1.431 . S
C408 C418 1.476 . S
H409 C403 0.929 . S
C410 O401 1.250 . S
C410 O402 1.258 . S
O411 Mn396 2.162 . S
O411 C399 1.281 . S
O412 Mn396 2.297 . S
O412 C399 1.236 . S
N413 Mn397 2.282 . S
N413 C414 1.328 . S
N413 C418 1.318 . S
C414 N413 1.328 . S
C414 C415 1.457 . S
C414 H419 0.929 . S
C415 C414 1.457 . S
C415 C416 1.291 . S
C415 H428 0.931 . S
C416 C415 1.291 . S
C416 C417 1.373 . S
C416 H429 0.929 . S
C417 C416 1.373 . S
C417 C418 1.396 . S
C417 C424 1.403 . S
C418 C408 1.476 . S
C418 N413 1.318 . S
C418 C417 1.396 . S
H419 C414 0.929 . S
O420 Mn396 2.385 . S
O420 C398 1.234 . S
O421 Mn396 2.209 . S
O421 Mn397 2.215 . S
O421 C398 1.283 . S
O422 Mn396 2.094 . S
O422 C400 1.240 . S
O423 Mn397 2.117 . S
O423 C400 1.264 . S
C424 C417 1.403 . S
C424 C425 1.399 . S
C424 H430 0.929 . S
C425 C405 1.449 . S
C425 C424 1.399 . S
C425 H431 0.930 . S
H426 C406 0.931 . S
H427 C407 0.930 . S
H428 C415 0.931 . S
H429 C416 0.929 . S
H430 C424 0.929 . S
H431 C425 0.930 . S
Mn432 O437 2.095 . S
Mn432 O447 2.162 . S
Mn432 O448 2.297 . S
Mn432 O456 2.385 . S
Mn432 O457 2.209 . S
Mn432 O458 2.094 . S
Mn433 O438 2.121 . S
Mn433 N440 2.257 . S
Mn433 N449 2.282 . S
Mn433 O457 2.215 . S
Mn433 O459 2.117 . S
C434 O456 1.234 . S
C434 O457 1.283 . S
C435 O447 1.281 . S
C435 O448 1.236 . S
C436 O458 1.240 . S
C436 O459 1.264 . S
O437 Mn432 2.095 . S
O437 C446 1.250 . S
O438 Mn433 2.121 . S
O438 C446 1.258 . S
C439 N440 1.326 . S
C439 C443 1.460 . S
C439 H445 0.929 . S
N440 Mn433 2.257 . S
N440 C439 1.326 . S
N440 C444 1.362 . S
C441 C442 1.258 . S
C441 C444 1.431 . S
C441 C461 1.449 . S
C442 C441 1.258 . S
C442 C443 1.477 . S
C442 H462 0.931 . S
C443 C439 1.460 . S
C443 C442 1.477 . S
C443 H463 0.930 . S
C444 N440 1.362 . S
C444 C441 1.431 . S
C444 C454 1.476 . S
H445 C439 0.929 . S
C446 O437 1.250 . S
C446 O438 1.258 . S
O447 Mn432 2.162 . S
O447 C435 1.281 . S
O448 Mn432 2.297 . S
O448 C435 1.236 . S
N449 Mn433 2.282 . S
N449 C450 1.328 . S
N449 C454 1.318 . S
C450 N449 1.328 . S
C450 C451 1.457 . S
C450 H455 0.929 . S
C451 C450 1.457 . S
C451 C452 1.291 . S
C451 H464 0.931 . S
C452 C451 1.291 . S
C452 C453 1.373 . S
C452 H465 0.929 . S
C453 C452 1.373 . S
C453 C454 1.396 . S
C453 C460 1.403 . S
C454 C444 1.476 . S
C454 N449 1.318 . S
C454 C453 1.396 . S
H455 C450 0.929 . S
O456 Mn432 2.385 . S
O456 C434 1.234 . S
O457 Mn432 2.209 . S
O457 Mn433 2.215 . S
O457 C434 1.283 . S
O458 Mn432 2.094 . S
O458 C436 1.240 . S
O459 Mn433 2.117 . S
O459 C436 1.264 . S
C460 C453 1.403 . S
C460 C461 1.399 . S
C460 H466 0.929 . S
C461 C441 1.449 . S
C461 C460 1.399 . S
C461 H467 0.930 . S
H462 C442 0.931 . S
H463 C443 0.930 . S
H464 C451 0.931 . S
H465 C452 0.929 . S
H466 C460 0.929 . S
H467 C461 0.930 . S
Mn468 O473 2.095 . S
Mn468 O483 2.162 . S
Mn468 O484 2.297 . S
Mn468 O492 2.385 . S
Mn468 O493 2.209 . S
Mn468 O494 2.094 . S
Mn469 O474 2.121 . S
Mn469 N476 2.257 . S
Mn469 N485 2.282 . S
Mn469 O493 2.215 . S
Mn469 O495 2.117 . S
C470 O492 1.234 . S
C470 O493 1.283 . S
C471 O483 1.281 . S
C471 O484 1.236 . S
C472 O494 1.240 . S
C472 O495 1.264 . S
O473 Mn468 2.095 . S
O473 C482 1.250 . S
O474 Mn469 2.121 . S
O474 C482 1.258 . S
C475 N476 1.326 . S
C475 C479 1.460 . S
C475 H481 0.929 . S
N476 Mn469 2.257 . S
N476 C475 1.326 . S
N476 C480 1.362 . S
C477 C478 1.258 . S
C477 C480 1.431 . S
C477 C497 1.449 . S
C478 C477 1.258 . S
C478 C479 1.477 . S
C478 H498 0.931 . S
C479 C475 1.460 . S
C479 C478 1.477 . S
C479 H499 0.930 . S
C480 N476 1.362 . S
C480 C477 1.431 . S
C480 C490 1.476 . S
H481 C475 0.929 . S
C482 O473 1.250 . S
C482 O474 1.258 . S
O483 Mn468 2.162 . S
O483 C471 1.281 . S
O484 Mn468 2.297 . S
O484 C471 1.236 . S
N485 Mn469 2.282 . S
N485 C486 1.328 . S
N485 C490 1.318 . S
C486 N485 1.328 . S
C486 C487 1.457 . S
C486 H491 0.929 . S
C487 C486 1.457 . S
C487 C488 1.291 . S
C487 H500 0.931 . S
C488 C487 1.291 . S
C488 C489 1.373 . S
C488 H501 0.929 . S
C489 C488 1.373 . S
C489 C490 1.396 . S
C489 C496 1.403 . S
C490 C480 1.476 . S
C490 N485 1.318 . S
C490 C489 1.396 . S
H491 C486 0.929 . S
O492 Mn468 2.385 . S
O492 C470 1.234 . S
O493 Mn468 2.209 . S
O493 Mn469 2.215 . S
O493 C470 1.283 . S
O494 Mn468 2.094 . S
O494 C472 1.240 . S
O495 Mn469 2.117 . S
O495 C472 1.264 . S
C496 C489 1.403 . S
C496 C497 1.399 . S
C496 H502 0.929 . S
C497 C477 1.449 . S
C497 C496 1.399 . S
C497 H503 0.930 . S
H498 C478 0.931 . S
H499 C479 0.930 . S
H500 C487 0.931 . S
H501 C488 0.929 . S
H502 C496 0.929 . S
H503 C497 0.930 . S
Mn504 O509 2.095 . S
Mn504 O519 2.162 . S
Mn504 O520 2.297 . S
Mn504 O528 2.385 . S
Mn504 O529 2.209 . S
Mn504 O530 2.094 . S
Mn505 O510 2.121 . S
Mn505 N512 2.257 . S
Mn505 N521 2.282 . S
Mn505 O529 2.215 . S
Mn505 O531 2.117 . S
C506 O528 1.234 . S
C506 O529 1.283 . S
C507 O519 1.281 . S
C507 O520 1.236 . S
C508 O530 1.240 . S
C508 O531 1.264 . S
O509 Mn504 2.095 . S
O509 C518 1.250 . S
O510 Mn505 2.121 . S
O510 C518 1.258 . S
C511 N512 1.326 . S
C511 C515 1.460 . S
C511 H517 0.929 . S
N512 Mn505 2.257 . S
N512 C511 1.326 . S
N512 C516 1.362 . S
C513 C514 1.258 . S
C513 C516 1.431 . S
C513 C533 1.449 . S
C514 C513 1.258 . S
C514 C515 1.477 . S
C514 H534 0.931 . S
C515 C511 1.460 . S
C515 C514 1.477 . S
C515 H535 0.930 . S
C516 N512 1.362 . S
C516 C513 1.431 . S
C516 C526 1.476 . S
H517 C511 0.929 . S
C518 O509 1.250 . S
C518 O510 1.258 . S
O519 Mn504 2.162 . S
O519 C507 1.281 . S
O520 Mn504 2.297 . S
O520 C507 1.236 . S
N521 Mn505 2.282 . S
N521 C522 1.328 . S
N521 C526 1.318 . S
C522 N521 1.328 . S
C522 C523 1.457 . S
C522 H527 0.929 . S
C523 C522 1.457 . S
C523 C524 1.291 . S
C523 H536 0.931 . S
C524 C523 1.291 . S
C524 C525 1.373 . S
C524 H537 0.929 . S
C525 C524 1.373 . S
C525 C526 1.396 . S
C525 C532 1.403 . S
C526 C516 1.476 . S
C526 N521 1.318 . S
C526 C525 1.396 . S
H527 C522 0.929 . S
O528 Mn504 2.385 . S
O528 C506 1.234 . S
O529 Mn504 2.209 . S
O529 Mn505 2.215 . S
O529 C506 1.283 . S
O530 Mn504 2.094 . S
O530 C508 1.240 . S
O531 Mn505 2.117 . S
O531 C508 1.264 . S
C532 C525 1.403 . S
C532 C533 1.399 . S
C532 H538 0.929 . S
C533 C513 1.449 . S
C533 C532 1.399 . S
C533 H539 0.930 . S
H534 C514 0.931 . S
H535 C515 0.930 . S
H536 C523 0.931 . S
H537 C524 0.929 . S
H538 C532 0.929 . S
H539 C533 0.930 . S
Mn540 O545 2.095 . S
Mn540 O555 2.162 . S
Mn540 O556 2.297 . S
Mn540 O564 2.385 . S
Mn540 O565 2.209 . S
Mn540 O566 2.094 . S
Mn541 O546 2.121 . S
Mn541 N548 2.257 . S
Mn541 N557 2.282 . S
Mn541 O565 2.215 . S
Mn541 O567 2.117 . S
C542 O564 1.234 . S
C542 O565 1.283 . S
C543 O555 1.281 . S
C543 O556 1.236 . S
C544 O566 1.240 . S
C544 O567 1.264 . S
O545 Mn540 2.095 . S
O545 C554 1.250 . S
O546 Mn541 2.121 . S
O546 C554 1.258 . S
C547 N548 1.326 . S
C547 C551 1.460 . S
C547 H553 0.929 . S
N548 Mn541 2.257 . S
N548 C547 1.326 . S
N548 C552 1.362 . S
C549 C550 1.258 . S
C549 C552 1.431 . S
C549 C569 1.449 . S
C550 C549 1.258 . S
C550 C551 1.477 . S
C550 H570 0.931 . S
C551 C547 1.460 . S
C551 C550 1.477 . S
C551 H571 0.930 . S
C552 N548 1.362 . S
C552 C549 1.431 . S
C552 C562 1.476 . S
H553 C547 0.929 . S
C554 O545 1.250 . S
C554 O546 1.258 . S
O555 Mn540 2.162 . S
O555 C543 1.281 . S
O556 Mn540 2.297 . S
O556 C543 1.236 . S
N557 Mn541 2.282 . S
N557 C558 1.328 . S
N557 C562 1.318 . S
C558 N557 1.328 . S
C558 C559 1.457 . S
C558 H563 0.929 . S
C559 C558 1.457 . S
C559 C560 1.291 . S
C559 H572 0.931 . S
C560 C559 1.291 . S
C560 C561 1.373 . S
C560 H573 0.929 . S
C561 C560 1.373 . S
C561 C562 1.396 . S
C561 C568 1.403 . S
C562 C552 1.476 . S
C562 N557 1.318 . S
C562 C561 1.396 . S
H563 C558 0.929 . S
O564 Mn540 2.385 . S
O564 C542 1.234 . S
O565 Mn540 2.209 . S
O565 Mn541 2.215 . S
O565 C542 1.283 . S
O566 Mn540 2.094 . S
O566 C544 1.240 . S
O567 Mn541 2.117 . S
O567 C544 1.264 . S
C568 C561 1.403 . S
C568 C569 1.399 . S
C568 H574 0.929 . S
C569 C549 1.449 . S
C569 C568 1.399 . S
C569 H575 0.930 . S
H570 C550 0.931 . S
H571 C551 0.930 . S
H572 C559 0.931 . S
H573 C560 0.929 . S
H574 C568 0.929 . S
H575 C569 0.930 . S
Mn576 O581 2.095 . S
Mn576 O591 2.162 . S
Mn576 O592 2.297 . S
Mn576 O600 2.385 . S
Mn576 O601 2.209 . S
Mn576 O602 2.094 . S
Mn577 O582 2.121 . S
Mn577 N584 2.257 . S
Mn577 N593 2.282 . S
Mn577 O601 2.215 . S
Mn577 O603 2.117 . S
C578 O600 1.234 . S
C578 O601 1.283 . S
C579 O591 1.281 . S
C579 O592 1.236 . S
C580 O602 1.240 . S
C580 O603 1.264 . S
O581 Mn576 2.095 . S
O581 C590 1.250 . S
O582 Mn577 2.121 . S
O582 C590 1.258 . S
C583 N584 1.326 . S
C583 C587 1.460 . S
C583 H589 0.929 . S
N584 Mn577 2.257 . S
N584 C583 1.326 . S
N584 C588 1.362 . S
C585 C586 1.258 . S
C585 C588 1.431 . S
C585 C605 1.449 . S
C586 C585 1.258 . S
C586 C587 1.477 . S
C586 H606 0.931 . S
C587 C583 1.460 . S
C587 C586 1.477 . S
C587 H607 0.930 . S
C588 N584 1.362 . S
C588 C585 1.431 . S
C588 C598 1.476 . S
H589 C583 0.929 . S
C590 O581 1.250 . S
C590 O582 1.258 . S
O591 Mn576 2.162 . S
O591 C579 1.281 . S
O592 Mn576 2.297 . S
O592 C579 1.236 . S
N593 Mn577 2.282 . S
N593 C594 1.328 . S
N593 C598 1.318 . S
C594 N593 1.328 . S
C594 C595 1.457 . S
C594 H599 0.929 . S
C595 C594 1.457 . S
C595 C596 1.291 . S
C595 H608 0.931 . S
C596 C595 1.291 . S
C596 C597 1.373 . S
C596 H609 0.929 . S
C597 C596 1.373 . S
C597 C598 1.396 . S
C597 C604 1.403 . S
C598 C588 1.476 . S
C598 N593 1.318 . S
C598 C597 1.396 . S
H599 C594 0.929 . S
O600 Mn576 2.385 . S
O600 C578 1.234 . S
O601 Mn576 2.209 . S
O601 Mn577 2.215 . S
O601 C578 1.283 . S
O602 Mn576 2.094 . S
O602 C580 1.240 . S
O603 Mn577 2.117 . S
O603 C580 1.264 . S
C604 C597 1.403 . S
C604 C605 1.399 . S
C604 H610 0.929 . S
C605 C585 1.449 . S
C605 C604 1.399 . S
C605 H611 0.930 . S
H606 C586 0.931 . S
H607 C587 0.930 . S
H608 C595 0.931 . S
H609 C596 0.929 . S
H610 C604 0.929 . S
H611 C605 0.930 . S
Mn612 O617 2.095 . S
Mn612 O627 2.162 . S
Mn612 O628 2.297 . S
Mn612 O636 2.385 . S
Mn612 O637 2.209 . S
Mn612 O638 2.094 . S
Mn613 O618 2.121 . S
Mn613 N620 2.257 . S
Mn613 N629 2.282 . S
Mn613 O637 2.215 . S
Mn613 O639 2.117 . S
C614 O636 1.234 . S
C614 O637 1.283 . S
C615 O627 1.281 . S
C615 O628 1.236 . S
C616 O638 1.240 . S
C616 O639 1.264 . S
O617 Mn612 2.095 . S
O617 C626 1.250 . S
O618 Mn613 2.121 . S
O618 C626 1.258 . S
C619 N620 1.326 . S
C619 C623 1.460 . S
C619 H625 0.929 . S
N620 Mn613 2.257 . S
N620 C619 1.326 . S
N620 C624 1.362 . S
C621 C622 1.258 . S
C621 C624 1.431 . S
C621 C641 1.449 . S
C622 C621 1.258 . S
C622 C623 1.477 . S
C622 H642 0.931 . S
C623 C619 1.460 . S
C623 C622 1.477 . S
C623 H643 0.930 . S
C624 N620 1.362 . S
C624 C621 1.431 . S
C624 C634 1.476 . S
H625 C619 0.929 . S
C626 O617 1.250 . S
C626 O618 1.258 . S
O627 Mn612 2.162 . S
O627 C615 1.281 . S
O628 Mn612 2.297 . S
O628 C615 1.236 . S
N629 Mn613 2.282 . S
N629 C630 1.328 . S
N629 C634 1.318 . S
C630 N629 1.328 . S
C630 C631 1.457 . S
C630 H635 0.929 . S
C631 C630 1.457 . S
C631 C632 1.291 . S
C631 H644 0.931 . S
C632 C631 1.291 . S
C632 C633 1.373 . S
C632 H645 0.929 . S
C633 C632 1.373 . S
C633 C634 1.396 . S
C633 C640 1.403 . S
C634 C624 1.476 . S
C634 N629 1.318 . S
C634 C633 1.396 . S
H635 C630 0.929 . S
O636 Mn612 2.385 . S
O636 C614 1.234 . S
O637 Mn612 2.209 . S
O637 Mn613 2.215 . S
O637 C614 1.283 . S
O638 Mn612 2.094 . S
O638 C616 1.240 . S
O639 Mn613 2.117 . S
O639 C616 1.264 . S
C640 C633 1.403 . S
C640 C641 1.399 . S
C640 H646 0.929 . S
C641 C621 1.449 . S
C641 C640 1.399 . S
C641 H647 0.930 . S
H642 C622 0.931 . S
H643 C623 0.930 . S
H644 C631 0.931 . S
H645 C632 0.929 . S
H646 C640 0.929 . S
H647 C641 0.930 . S
Mn648 O653 2.095 . S
Mn648 O663 2.162 . S
Mn648 O664 2.297 . S
Mn648 O672 2.385 . S
Mn648 O673 2.209 . S
Mn648 O674 2.094 . S
Mn649 O654 2.121 . S
Mn649 N656 2.257 . S
Mn649 N665 2.282 . S
Mn649 O673 2.215 . S
Mn649 O675 2.117 . S
C650 O672 1.234 . S
C650 O673 1.283 . S
C651 O663 1.281 . S
C651 O664 1.236 . S
C652 O674 1.240 . S
C652 O675 1.264 . S
O653 Mn648 2.095 . S
O653 C662 1.250 . S
O654 Mn649 2.121 . S
O654 C662 1.258 . S
C655 N656 1.326 . S
C655 C659 1.460 . S
C655 H661 0.929 . S
N656 Mn649 2.257 . S
N656 C655 1.326 . S
N656 C660 1.362 . S
C657 C658 1.258 . S
C657 C660 1.431 . S
C657 C677 1.449 . S
C658 C657 1.258 . S
C658 C659 1.477 . S
C658 H678 0.931 . S
C659 C655 1.460 . S
C659 C658 1.477 . S
C659 H679 0.930 . S
C660 N656 1.362 . S
C660 C657 1.431 . S
C660 C670 1.476 . S
H661 C655 0.929 . S
C662 O653 1.250 . S
C662 O654 1.258 . S
O663 Mn648 2.162 . S
O663 C651 1.281 . S
O664 Mn648 2.297 . S
O664 C651 1.236 . S
N665 Mn649 2.282 . S
N665 C666 1.328 . S
N665 C670 1.318 . S
C666 N665 1.328 . S
C666 C667 1.457 . S
C666 H671 0.929 . S
C667 C666 1.457 . S
C667 C668 1.291 . S
C667 H680 0.931 . S
C668 C667 1.291 . S
C668 C669 1.373 . S
C668 H681 0.929 . S
C669 C668 1.373 . S
C669 C670 1.396 . S
C669 C676 1.403 . S
C670 C660 1.476 . S
C670 N665 1.318 . S
C670 C669 1.396 . S
H671 C666 0.929 . S
O672 Mn648 2.385 . S
O672 C650 1.234 . S
O673 Mn648 2.209 . S
O673 Mn649 2.215 . S
O673 C650 1.283 . S
O674 Mn648 2.094 . S
O674 C652 1.240 . S
O675 Mn649 2.117 . S
O675 C652 1.264 . S
C676 C669 1.403 . S
C676 C677 1.399 . S
C676 H682 0.929 . S
C677 C657 1.449 . S
C677 C676 1.399 . S
C677 H683 0.930 . S
H678 C658 0.931 . S
H679 C659 0.930 . S
H680 C667 0.931 . S
H681 C668 0.929 . S
H682 C676 0.929 . S
H683 C677 0.930 . S
Mn684 O689 2.095 . S
Mn684 O699 2.162 . S
Mn684 O700 2.297 . S
Mn684 O708 2.385 . S
Mn684 O709 2.209 . S
Mn684 O710 2.094 . S
Mn685 O690 2.121 . S
Mn685 N692 2.257 . S
Mn685 N701 2.282 . S
Mn685 O709 2.215 . S
Mn685 O711 2.117 . S
C686 O708 1.234 . S
C686 O709 1.283 . S
C687 O699 1.281 . S
C687 O700 1.236 . S
C688 O710 1.240 . S
C688 O711 1.264 . S
O689 Mn684 2.095 . S
O689 C698 1.250 . S
O690 Mn685 2.121 . S
O690 C698 1.258 . S
C691 N692 1.326 . S
C691 C695 1.460 . S
C691 H697 0.929 . S
N692 Mn685 2.257 . S
N692 C691 1.326 . S
N692 C696 1.362 . S
C693 C694 1.258 . S
C693 C696 1.431 . S
C693 C713 1.449 . S
C694 C693 1.258 . S
C694 C695 1.477 . S
C694 H714 0.931 . S
C695 C691 1.460 . S
C695 C694 1.477 . S
C695 H715 0.930 . S
C696 N692 1.362 . S
C696 C693 1.431 . S
C696 C706 1.476 . S
H697 C691 0.929 . S
C698 O689 1.250 . S
C698 O690 1.258 . S
O699 Mn684 2.162 . S
O699 C687 1.281 . S
O700 Mn684 2.297 . S
O700 C687 1.236 . S
N701 Mn685 2.282 . S
N701 C702 1.328 . S
N701 C706 1.318 . S
C702 N701 1.328 . S
C702 C703 1.457 . S
C702 H707 0.929 . S
C703 C702 1.457 . S
C703 C704 1.291 . S
C703 H716 0.931 . S
C704 C703 1.291 . S
C704 C705 1.373 . S
C704 H717 0.929 . S
C705 C704 1.373 . S
C705 C706 1.396 . S
C705 C712 1.403 . S
C706 C696 1.476 . S
C706 N701 1.318 . S
C706 C705 1.396 . S
H707 C702 0.929 . S
O708 Mn684 2.385 . S
O708 C686 1.234 . S
O709 Mn684 2.209 . S
O709 Mn685 2.215 . S
O709 C686 1.283 . S
O710 Mn684 2.094 . S
O710 C688 1.240 . S
O711 Mn685 2.117 . S
O711 C688 1.264 . S
C712 C705 1.403 . S
C712 C713 1.399 . S
C712 H718 0.929 . S
C713 C693 1.449 . S
C713 C712 1.399 . S
C713 H719 0.930 . S
H714 C694 0.931 . S
H715 C695 0.930 . S
H716 C703 0.931 . S
H717 C704 0.929 . S
H718 C712 0.929 . S
H719 C713 0.930 . S
Mn720 O725 2.095 . S
Mn720 O735 2.162 . S
Mn720 O736 2.297 . S
Mn720 O744 2.385 . S
Mn720 O745 2.209 . S
Mn720 O746 2.094 . S
Mn721 O726 2.121 . S
Mn721 N728 2.257 . S
Mn721 N737 2.282 . S
Mn721 O745 2.215 . S
Mn721 O747 2.117 . S
C722 O744 1.234 . S
C722 O745 1.283 . S
C723 O735 1.281 . S
C723 O736 1.236 . S
C724 O746 1.240 . S
C724 O747 1.264 . S
O725 Mn720 2.095 . S
O725 C734 1.250 . S
O726 Mn721 2.121 . S
O726 C734 1.258 . S
C727 N728 1.326 . S
C727 C731 1.460 . S
C727 H733 0.929 . S
N728 Mn721 2.257 . S
N728 C727 1.326 . S
N728 C732 1.362 . S
C729 C730 1.258 . S
C729 C732 1.431 . S
C729 C749 1.449 . S
C730 C729 1.258 . S
C730 C731 1.477 . S
C730 H750 0.931 . S
C731 C727 1.460 . S
C731 C730 1.477 . S
C731 H751 0.930 . S
C732 N728 1.362 . S
C732 C729 1.431 . S
C732 C742 1.476 . S
H733 C727 0.929 . S
C734 O725 1.250 . S
C734 O726 1.258 . S
O735 Mn720 2.162 . S
O735 C723 1.281 . S
O736 Mn720 2.297 . S
O736 C723 1.236 . S
N737 Mn721 2.282 . S
N737 C738 1.328 . S
N737 C742 1.318 . S
C738 N737 1.328 . S
C738 C739 1.457 . S
C738 H743 0.929 . S
C739 C738 1.457 . S
C739 C740 1.291 . S
C739 H752 0.931 . S
C740 C739 1.291 . S
C740 C741 1.373 . S
C740 H753 0.929 . S
C741 C740 1.373 . S
C741 C742 1.396 . S
C741 C748 1.403 . S
C742 C732 1.476 . S
C742 N737 1.318 . S
C742 C741 1.396 . S
H743 C738 0.929 . S
O744 Mn720 2.385 . S
O744 C722 1.234 . S
O745 Mn720 2.209 . S
O745 Mn721 2.215 . S
O745 C722 1.283 . S
O746 Mn720 2.094 . S
O746 C724 1.240 . S
O747 Mn721 2.117 . S
O747 C724 1.264 . S
C748 C741 1.403 . S
C748 C749 1.399 . S
C748 H754 0.929 . S
C749 C729 1.449 . S
C749 C748 1.399 . S
C749 H755 0.930 . S
H750 C730 0.931 . S
H751 C731 0.930 . S
H752 C739 0.931 . S
H753 C740 0.929 . S
H754 C748 0.929 . S
H755 C749 0.930 . S
Mn756 O761 2.095 . S
Mn756 O771 2.162 . S
Mn756 O772 2.297 . S
Mn756 O780 2.385 . S
Mn756 O781 2.209 . S
Mn756 O782 2.094 . S
Mn757 O762 2.121 . S
Mn757 N764 2.257 . S
Mn757 N773 2.282 . S
Mn757 O781 2.215 . S
Mn757 O783 2.117 . S
C758 O780 1.234 . S
C758 O781 1.283 . S
C759 O771 1.281 . S
C759 O772 1.236 . S
C760 O782 1.240 . S
C760 O783 1.264 . S
O761 Mn756 2.095 . S
O761 C770 1.250 . S
O762 Mn757 2.121 . S
O762 C770 1.258 . S
C763 N764 1.326 . S
C763 C767 1.460 . S
C763 H769 0.929 . S
N764 Mn757 2.257 . S
N764 C763 1.326 . S
N764 C768 1.362 . S
C765 C766 1.258 . S
C765 C768 1.431 . S
C765 C785 1.449 . S
C766 C765 1.258 . S
C766 C767 1.477 . S
C766 H786 0.931 . S
C767 C763 1.460 . S
C767 C766 1.477 . S
C767 H787 0.930 . S
C768 N764 1.362 . S
C768 C765 1.431 . S
C768 C778 1.476 . S
H769 C763 0.929 . S
C770 O761 1.250 . S
C770 O762 1.258 . S
O771 Mn756 2.162 . S
O771 C759 1.281 . S
O772 Mn756 2.297 . S
O772 C759 1.236 . S
N773 Mn757 2.282 . S
N773 C774 1.328 . S
N773 C778 1.318 . S
C774 N773 1.328 . S
C774 C775 1.457 . S
C774 H779 0.929 . S
C775 C774 1.457 . S
C775 C776 1.291 . S
C775 H788 0.931 . S
C776 C775 1.291 . S
C776 C777 1.373 . S
C776 H789 0.929 . S
C777 C776 1.373 . S
C777 C778 1.396 . S
C777 C784 1.403 . S
C778 C768 1.476 . S
C778 N773 1.318 . S
C778 C777 1.396 . S
H779 C774 0.929 . S
O780 Mn756 2.385 . S
O780 C758 1.234 . S
O781 Mn756 2.209 . S
O781 Mn757 2.215 . S
O781 C758 1.283 . S
O782 Mn756 2.094 . S
O782 C760 1.240 . S
O783 Mn757 2.117 . S
O783 C760 1.264 . S
C784 C777 1.403 . S
C784 C785 1.399 . S
C784 H790 0.929 . S
C785 C765 1.449 . S
C785 C784 1.399 . S
C785 H791 0.930 . S
H786 C766 0.931 . S
H787 C767 0.930 . S
H788 C775 0.931 . S
H789 C776 0.929 . S
H790 C784 0.929 . S
H791 C785 0.930 . S
Mn792 O797 2.095 . S
Mn792 O807 2.162 . S
Mn792 O808 2.297 . S
Mn792 O816 2.385 . S
Mn792 O817 2.209 . S
Mn792 O818 2.094 . S
Mn793 O798 2.121 . S
Mn793 N800 2.257 . S
Mn793 N809 2.282 . S
Mn793 O817 2.215 . S
Mn793 O819 2.117 . S
C794 O816 1.234 . S
C794 O817 1.283 . S
C795 O807 1.281 . S
C795 O808 1.236 . S
C796 O818 1.240 . S
C796 O819 1.264 . S
O797 Mn792 2.095 . S
O797 C806 1.250 . S
O798 Mn793 2.121 . S
O798 C806 1.258 . S
C799 N800 1.326 . S
C799 C803 1.460 . S
C799 H805 0.929 . S
N800 Mn793 2.257 . S
N800 C799 1.326 . S
N800 C804 1.362 . S
C801 C802 1.258 . S
C801 C804 1.431 . S
C801 C821 1.449 . S
C802 C801 1.258 . S
C802 C803 1.477 . S
C802 H822 0.931 . S
C803 C799 1.460 . S
C803 C802 1.477 . S
C803 H823 0.930 . S
C804 N800 1.362 . S
C804 C801 1.431 . S
C804 C814 1.476 . S
H805 C799 0.929 . S
C806 O797 1.250 . S
C806 O798 1.258 . S
O807 Mn792 2.162 . S
O807 C795 1.281 . S
O808 Mn792 2.297 . S
O808 C795 1.236 . S
N809 Mn793 2.282 . S
N809 C810 1.328 . S
N809 C814 1.318 . S
C810 N809 1.328 . S
C810 C811 1.457 . S
C810 H815 0.929 . S
C811 C810 1.457 . S
C811 C812 1.291 . S
C811 H824 0.931 . S
C812 C811 1.291 . S
C812 C813 1.373 . S
C812 H825 0.929 . S
C813 C812 1.373 . S
C813 C814 1.396 . S
C813 C820 1.403 . S
C814 C804 1.476 . S
C814 N809 1.318 . S
C814 C813 1.396 . S
H815 C810 0.929 . S
O816 Mn792 2.385 . S
O816 C794 1.234 . S
O817 Mn792 2.209 . S
O817 Mn793 2.215 . S
O817 C794 1.283 . S
O818 Mn792 2.094 . S
O818 C796 1.240 . S
O819 Mn793 2.117 . S
O819 C796 1.264 . S
C820 C813 1.403 . S
C820 C821 1.399 . S
C820 H826 0.929 . S
C821 C801 1.449 . S
C821 C820 1.399 . S
C821 H827 0.930 . S
H822 C802 0.931 . S
H823 C803 0.930 . S
H824 C811 0.931 . S
H825 C812 0.929 . S
H826 C820 0.929 . S
H827 C821 0.930 . S
Mn828 O833 2.095 . S
Mn828 O843 2.162 . S
Mn828 O844 2.297 . S
Mn828 O852 2.385 . S
Mn828 O853 2.209 . S
Mn828 O854 2.094 . S
Mn829 O834 2.121 . S
Mn829 N836 2.257 . S
Mn829 N845 2.282 . S
Mn829 O853 2.215 . S
Mn829 O855 2.117 . S
C830 O852 1.234 . S
C830 O853 1.283 . S
C831 O843 1.281 . S
C831 O844 1.236 . S
C832 O854 1.240 . S
C832 O855 1.264 . S
O833 Mn828 2.095 . S
O833 C842 1.250 . S
O834 Mn829 2.121 . S
O834 C842 1.258 . S
C835 N836 1.326 . S
C835 C839 1.460 . S
C835 H841 0.929 . S
N836 Mn829 2.257 . S
N836 C835 1.326 . S
N836 C840 1.362 . S
C837 C838 1.258 . S
C837 C840 1.431 . S
C837 C857 1.449 . S
C838 C837 1.258 . S
C838 C839 1.477 . S
C838 H858 0.931 . S
C839 C835 1.460 . S
C839 C838 1.477 . S
C839 H859 0.930 . S
C840 N836 1.362 . S
C840 C837 1.431 . S
C840 C850 1.476 . S
H841 C835 0.929 . S
C842 O833 1.250 . S
C842 O834 1.258 . S
O843 Mn828 2.162 . S
O843 C831 1.281 . S
O844 Mn828 2.297 . S
O844 C831 1.236 . S
N845 Mn829 2.282 . S
N845 C846 1.328 . S
N845 C850 1.318 . S
C846 N845 1.328 . S
C846 C847 1.457 . S
C846 H851 0.929 . S
C847 C846 1.457 . S
C847 C848 1.291 . S
C847 H860 0.931 . S
C848 C847 1.291 . S
C848 C849 1.373 . S
C848 H861 0.929 . S
C849 C848 1.373 . S
C849 C850 1.396 . S
C849 C856 1.403 . S
C850 C840 1.476 . S
C850 N845 1.318 . S
C850 C849 1.396 . S
H851 C846 0.929 . S
O852 Mn828 2.385 . S
O852 C830 1.234 . S
O853 Mn828 2.209 . S
O853 Mn829 2.215 . S
O853 C830 1.283 . S
O854 Mn828 2.094 . S
O854 C832 1.240 . S
O855 Mn829 2.117 . S
O855 C832 1.264 . S
C856 C849 1.403 . S
C856 C857 1.399 . S
C856 H862 0.929 . S
C857 C837 1.449 . S
C857 C856 1.399 . S
C857 H863 0.930 . S
H858 C838 0.931 . S
H859 C839 0.930 . S
H860 C847 0.931 . S
H861 C848 0.929 . S
H862 C856 0.929 . S
H863 C857 0.930 . S
H864 C876 0.930 . S
H865 C878 0.930 . S
H866 C879 0.930 . S
H867 C883 0.962 . S
H868 C883 0.954 1_565 S
H869 C883 0.957 1_565 S
H870 C884 0.960 . S
H871 C884 0.961 . S
H872 C884 0.931 1_545 S
H873 C887 0.929 . S
H874 C888 0.931 . S
H875 C890 0.930 . S
C876 H864 0.930 . S
C876 C877 1.399 . S
C876 C881 1.399 . S
C877 C876 1.399 . S
C877 C878 1.376 . S
C878 H865 0.930 . S
C878 C877 1.376 . S
C878 C879 1.388 . S
C879 H866 0.930 . S
C879 C878 1.388 . S
C879 C880 1.390 . S
C880 C879 1.390 . S
C880 C881 1.394 . S
C880 C886 1.465 . S
C881 C876 1.399 . S
C881 C880 1.394 . S
C881 C882 1.516 . S
C882 C881 1.516 . S
C882 C883 1.509 . S
C882 C884 1.561 1_545 S
C882 C885 1.526 . S
C883 H867 0.962 . S
C883 H868 0.954 1_545 S
C883 H869 0.957 1_545 S
C883 C882 1.509 . S
C884 H870 0.960 . S
C884 H871 0.961 . S
C884 H872 0.931 1_565 S
C884 C882 1.561 1_565 S
C885 C882 1.526 . S
C885 C886 1.396 . S
C885 C890 1.390 . S
C886 C880 1.465 . S
C886 C885 1.396 . S
C886 C887 1.399 . S
C887 H873 0.929 . S
C887 C886 1.399 . S
C887 C888 1.385 . S
C888 H874 0.931 . S
C888 C887 1.385 . S
C888 C889 1.389 . S
C889 C888 1.389 . S
C889 C890 1.387 . S
C890 H875 0.930 . S
C890 C885 1.390 . S
C890 C889 1.387 . S
H891 C903 0.930 . S
H892 C905 0.930 . S
H893 C906 0.930 . S
H894 C910 0.959 . S
H895 C910 0.959 . S
H896 C910 0.961 . S
H897 C911 0.960 . S
H898 C911 0.961 . S
H899 C911 0.959 . S
H900 C914 0.929 . S
H901 C915 0.931 . S
H902 C917 0.930 . S
C903 H891 0.930 . S
C903 C904 1.399 . S
C903 C908 1.399 . S
C904 C903 1.399 . S
C904 C905 1.376 . S
C905 H892 0.930 . S
C905 C904 1.376 . S
C905 C906 1.388 . S
C906 H893 0.930 . S
C906 C905 1.388 . S
C906 C907 1.390 . S
C907 C906 1.390 . S
C907 C908 1.394 . S
C907 C913 1.465 . S
C908 C903 1.399 . S
C908 C907 1.394 . S
C908 C909 1.516 . S
C909 C908 1.516 . S
C909 C910 1.502 . S
C909 C911 1.561 . S
C909 C912 1.526 . S
C910 H894 0.959 . S
C910 H895 0.959 . S
C910 H896 0.961 . S
C910 C909 1.502 . S
C911 H897 0.960 . S
C911 H898 0.961 . S
C911 H899 0.959 . S
C911 C909 1.561 . S
C912 C909 1.526 . S
C912 C913 1.396 . S
C912 C917 1.390 . S
C913 C907 1.465 . S
C913 C912 1.396 . S
C913 C914 1.399 . S
C914 H900 0.929 . S
C914 C913 1.399 . S
C914 C915 1.385 . S
C915 H901 0.931 . S
C915 C914 1.385 . S
C915 C916 1.389 . S
C916 C915 1.389 . S
C916 C917 1.387 . S
C917 H902 0.930 . S
C917 C912 1.390 . S
C917 C916 1.387 . S
H918 C930 0.930 . S
H919 C932 0.930 . S
H920 C933 0.950 . S
H921 C937 0.959 . S
H922 C937 0.959 . S
H923 C937 0.961 . S
H924 C938 0.960 . S
H925 C938 0.961 . S
H926 C938 0.959 . S
H927 C941 0.929 . S
H928 C942 0.931 . S
H929 C944 0.930 . S
C930 H918 0.930 . S
C930 C931 1.399 . S
C930 C935 1.399 . S
C931 C930 1.399 . S
C931 C932 1.376 . S
C932 H919 0.930 . S
C932 C931 1.376 . S
C932 C933 1.388 . S
C933 H920 0.950 . S
C933 C932 1.388 . S
C933 C934 1.390 . S
C934 C933 1.390 . S
C934 C935 1.394 . S
C934 C940 1.465 . S
C935 C930 1.399 . S
C935 C934 1.394 . S
C935 C936 1.516 . S
C936 C935 1.516 . S
C936 C937 1.502 . S
C936 C938 1.561 . S
C936 C939 1.526 . S
C937 H921 0.959 . S
C937 H922 0.959 . S
C937 H923 0.961 . S
C937 C936 1.502 . S
C938 H924 0.960 . S
C938 H925 0.961 . S
C938 H926 0.959 . S
C938 C936 1.561 . S
C939 C936 1.526 . S
C939 C940 1.396 . S
C939 C944 1.390 . S
C940 C934 1.465 . S
C940 C939 1.396 . S
C940 C941 1.399 . S
C941 H927 0.929 . S
C941 C940 1.399 . S
C941 C942 1.385 . S
C942 H928 0.931 . S
C942 C941 1.385 . S
C942 C943 1.389 . S
C943 C942 1.389 . S
C943 C944 1.387 . S
C944 H929 0.930 . S
C944 C939 1.390 . S
C944 C943 1.387 . S
H945 C957 0.930 . S
H946 C959 0.930 . S
H947 C960 0.919 1_545 S
H948 C964 0.959 . S
H949 C964 0.959 . S
H950 C964 0.961 . S
H951 C965 0.960 . S
H952 C965 0.961 . S
H953 C965 0.959 . S
H954 C968 0.929 1_545 S
H955 C969 0.931 . S
H956 C971 0.930 . S
C957 H945 0.930 . S
C957 C958 1.399 . S
C957 C962 1.399 . S
C958 C957 1.399 . S
C958 C959 1.376 . S
C959 H946 0.930 . S
C959 C958 1.376 . S
C959 C960 1.388 . S
C960 H947 0.919 1_565 S
C960 C959 1.388 . S
C960 C961 1.390 . S
C961 C960 1.390 . S
C961 C962 1.394 . S
C961 C967 1.465 . S
C962 C957 1.399 . S
C962 C961 1.394 . S
C962 C963 1.516 . S
C963 C962 1.516 . S
C963 C964 1.502 . S
C963 C965 1.561 . S
C963 C966 1.526 . S
C964 H948 0.959 . S
C964 H949 0.959 . S
C964 H950 0.961 . S
C964 C963 1.502 . S
C965 H951 0.960 . S
C965 H952 0.961 . S
C965 H953 0.959 . S
C965 C963 1.561 . S
C966 C963 1.526 . S
C966 C967 1.396 . S
C966 C971 1.390 . S
C967 C961 1.465 . S
C967 C966 1.396 . S
C967 C968 1.399 . S
C968 H954 0.929 1_565 S
C968 C967 1.399 . S
C968 C969 1.385 . S
C969 H955 0.931 . S
C969 C968 1.385 . S
C969 C970 1.389 . S
C970 C969 1.389 . S
C970 C971 1.387 . S
C971 H956 0.930 . S
C971 C966 1.390 . S
C971 C970 1.387 . S
H972 C984 0.930 . S
H973 C986 0.930 . S
H974 C987 0.930 . S
H975 C991 0.959 . S
H976 C991 0.959 . S
H977 C991 0.961 . S
H978 C992 0.960 . S
H979 C992 0.961 . S
H980 C992 0.959 . S
H981 C995 0.929 . S
H982 C996 0.931 . S
H983 C998 0.930 . S
C984 H972 0.930 . S
C984 C985 1.399 . S
C984 C989 1.399 . S
C985 C984 1.399 . S
C985 C986 1.376 . S
C986 H973 0.930 . S
C986 C985 1.376 . S
C986 C987 1.388 . S
C987 H974 0.930 . S
C987 C986 1.388 . S
C987 C988 1.390 . S
C988 C987 1.390 . S
C988 C989 1.394 . S
C988 C994 1.465 . S
C989 C984 1.399 . S
C989 C988 1.394 . S
C989 C990 1.516 . S
C990 C989 1.516 . S
C990 C991 1.502 . S
C990 C992 1.561 . S
C990 C993 1.526 . S
C991 H975 0.959 . S
C991 H976 0.959 . S
C991 H977 0.961 . S
C991 C990 1.502 . S
C992 H978 0.960 . S
C992 H979 0.961 . S
C992 H980 0.959 . S
C992 C990 1.561 . S
C993 C990 1.526 . S
C993 C994 1.396 . S
C993 C998 1.390 . S
C994 C988 1.465 . S
C994 C993 1.396 . S
C994 C995 1.399 . S
C995 H981 0.929 . S
C995 C994 1.399 . S
C995 C996 1.385 . S
C996 H982 0.931 . S
C996 C995 1.385 . S
C996 C997 1.389 . S
C997 C996 1.389 . S
C997 C998 1.387 . S
C998 H983 0.930 . S
C998 C993 1.390 . S
C998 C997 1.387 . S
H999 C1011 0.930 . S
H1000 C1013 0.930 . S
H1001 C1014 0.930 . S
H1002 C1018 0.959 . S
H1003 C1018 0.959 . S
H1004 C1018 0.961 . S
H1005 C1019 0.960 . S
H1006 C1019 0.961 . S
H1007 C1019 0.959 . S
H1008 C1022 0.929 . S
H1009 C1023 0.931 . S
H1010 C1025 0.930 . S
C1011 H999 0.930 . S
C1011 C1012 1.399 . S
C1011 C1016 1.399 . S
C1012 C1011 1.399 . S
C1012 C1013 1.376 . S
C1013 H1000 0.930 . S
C1013 C1012 1.376 . S
C1013 C1014 1.388 . S
C1014 H1001 0.930 . S
C1014 C1013 1.388 . S
C1014 C1015 1.390 . S
C1015 C1014 1.390 . S
C1015 C1016 1.394 . S
C1015 C1021 1.465 . S
C1016 C1011 1.399 . S
C1016 C1015 1.394 . S
C1016 C1017 1.516 . S
C1017 C1016 1.516 . S
C1017 C1018 1.502 . S
C1017 C1019 1.561 . S
C1017 C1020 1.526 . S
C1018 H1002 0.959 . S
C1018 H1003 0.959 . S
C1018 H1004 0.961 . S
C1018 C1017 1.502 . S
C1019 H1005 0.960 . S
C1019 H1006 0.961 . S
C1019 H1007 0.959 . S
C1019 C1017 1.561 . S
C1020 C1017 1.526 . S
C1020 C1021 1.396 . S
C1020 C1025 1.390 . S
C1021 C1015 1.465 . S
C1021 C1020 1.396 . S
C1021 C1022 1.399 . S
C1022 H1008 0.929 . S
C1022 C1021 1.399 . S
C1022 C1023 1.385 . S
C1023 H1009 0.931 . S
C1023 C1022 1.385 . S
C1023 C1024 1.389 . S
C1024 C1023 1.389 . S
C1024 C1025 1.387 . S
C1025 H1010 0.930 . S
C1025 C1020 1.390 . S
C1025 C1024 1.387 . S
H1026 C1038 0.930 . S
H1027 C1040 0.930 . S
H1028 C1041 0.930 . S
H1029 C1045 0.959 . S
H1030 C1045 0.959 . S
H1031 C1045 0.961 . S
H1032 C1046 0.960 . S
H1033 C1046 0.961 . S
H1034 C1046 0.959 . S
H1035 C1049 0.929 . S
H1036 C1050 0.931 . S
H1037 C1052 0.930 . S
C1038 H1026 0.930 . S
C1038 C1039 1.399 . S
C1038 C1043 1.399 . S
C1039 C1038 1.399 . S
C1039 C1040 1.376 . S
C1040 H1027 0.930 . S
C1040 C1039 1.376 . S
C1040 C1041 1.388 . S
C1041 H1028 0.930 . S
C1041 C1040 1.388 . S
C1041 C1042 1.390 . S
C1042 C1041 1.390 . S
C1042 C1043 1.394 . S
C1042 C1048 1.465 . S
C1043 C1038 1.399 . S
C1043 C1042 1.394 . S
C1043 C1044 1.516 . S
C1044 C1043 1.516 . S
C1044 C1045 1.502 1_655 S
C1044 C1046 1.561 . S
C1044 C1047 1.526 . S
C1045 H1029 0.959 . S
C1045 H1030 0.959 . S
C1045 H1031 0.961 . S
C1045 C1044 1.502 1_455 S
C1046 H1032 0.960 . S
C1046 H1033 0.961 . S
C1046 H1034 0.959 . S
C1046 C1044 1.561 . S
C1047 C1044 1.526 . S
C1047 C1048 1.396 . S
C1047 C1052 1.390 . S
C1048 C1042 1.465 . S
C1048 C1047 1.396 . S
C1048 C1049 1.399 . S
C1049 H1035 0.929 . S
C1049 C1048 1.399 . S
C1049 C1050 1.385 . S
C1050 H1036 0.931 . S
C1050 C1049 1.385 . S
C1050 C1051 1.389 . S
C1051 C1050 1.389 . S
C1051 C1052 1.387 . S
C1052 H1037 0.930 . S
C1052 C1047 1.390 . S
C1052 C1051 1.387 . S
H1053 C1065 0.930 . S
H1054 C1067 0.930 . S
H1055 C1068 0.930 . S
H1056 C1072 0.959 . S
H1057 C1072 0.959 . S
H1058 C1072 0.961 . S
H1059 C1073 0.960 . S
H1060 C1073 0.961 . S
H1061 C1073 0.959 . S
H1062 C1076 0.929 . S
H1063 C1077 0.931 . S
H1064 C1079 0.930 . S
C1065 H1053 0.930 . S
C1065 C1066 1.399 . S
C1065 C1070 1.399 . S
C1066 C1065 1.399 . S
C1066 C1067 1.376 . S
C1067 H1054 0.930 . S
C1067 C1066 1.376 . S
C1067 C1068 1.388 . S
C1068 H1055 0.930 . S
C1068 C1067 1.388 . S
C1068 C1069 1.390 . S
C1069 C1068 1.390 . S
C1069 C1070 1.394 . S
C1069 C1075 1.465 . S
C1070 C1065 1.399 . S
C1070 C1069 1.394 . S
C1070 C1071 1.516 . S
C1071 C1070 1.516 . S
C1071 C1072 1.502 . S
C1071 C1073 1.561 . S
C1071 C1074 1.526 . S
C1072 H1056 0.959 . S
C1072 H1057 0.959 . S
C1072 H1058 0.961 . S
C1072 C1071 1.502 . S
C1073 H1059 0.960 . S
C1073 H1060 0.961 . S
C1073 H1061 0.959 . S
C1073 C1071 1.561 . S
C1074 C1071 1.526 . S
C1074 C1075 1.396 . S
C1074 C1079 1.390 . S
C1075 C1069 1.465 . S
C1075 C1074 1.396 . S
C1075 C1076 1.399 . S
C1076 H1062 0.929 . S
C1076 C1075 1.399 . S
C1076 C1077 1.385 . S
C1077 H1063 0.931 . S
C1077 C1076 1.385 . S
C1077 C1078 1.389 . S
C1078 C1077 1.389 . S
C1078 C1079 1.387 . S
C1079 H1064 0.930 . S
C1079 C1074 1.390 . S
C1079 C1078 1.387 . S
H1080 C1092 0.930 . S
H1081 C1094 0.930 . S
H1082 C1095 0.930 . S
H1083 C1099 0.959 . S
H1084 C1099 0.959 . S
H1085 C1099 0.961 . S
H1086 C1100 0.960 . S
H1087 C1100 0.961 . S
H1088 C1100 0.959 . S
H1089 C1103 0.929 . S
H1090 C1104 0.931 . S
H1091 C1106 0.930 . S
C1092 H1080 0.930 . S
C1092 C1093 1.399 . S
C1092 C1097 1.399 . S
C1093 C1092 1.399 . S
C1093 C1094 1.376 . S
C1094 H1081 0.930 . S
C1094 C1093 1.376 . S
C1094 C1095 1.388 . S
C1095 H1082 0.930 . S
C1095 C1094 1.388 . S
C1095 C1096 1.390 . S
C1096 C1095 1.390 . S
C1096 C1097 1.394 . S
C1096 C1102 1.465 . S
C1097 C1092 1.399 . S
C1097 C1096 1.394 . S
C1097 C1098 1.516 . S
C1098 C1097 1.516 . S
C1098 C1099 1.502 . S
C1098 C1100 1.561 . S
C1098 C1101 1.526 . S
C1099 H1083 0.959 . S
C1099 H1084 0.959 . S
C1099 H1085 0.961 . S
C1099 C1098 1.502 . S
C1100 H1086 0.960 . S
C1100 H1087 0.961 . S
C1100 H1088 0.959 . S
C1100 C1098 1.561 . S
C1101 C1098 1.526 . S
C1101 C1102 1.396 . S
C1101 C1106 1.390 . S
C1102 C1096 1.465 . S
C1102 C1101 1.396 . S
C1102 C1103 1.399 . S
C1103 H1089 0.929 . S
C1103 C1102 1.399 . S
C1103 C1104 1.385 . S
C1104 H1090 0.931 . S
C1104 C1103 1.385 . S
C1104 C1105 1.389 . S
C1105 C1104 1.389 . S
C1105 C1106 1.387 . S
C1106 H1091 0.930 . S
C1106 C1101 1.390 . S
C1106 C1105 1.387 . S
H1107 C1119 0.930 . S
H1108 C1121 0.930 . S
H1109 C1122 0.930 . S
H1110 C1126 0.959 . S
H1111 C1126 0.959 . S
H1112 C1126 0.961 . S
H1113 C1127 0.960 . S
H1114 C1127 0.961 . S
H1115 C1127 0.959 . S
H1116 C1130 0.929 . S
H1117 C1131 0.931 . S
H1118 C1133 0.930 . S
C1119 H1107 0.930 . S
C1119 C1120 1.399 . S
C1119 C1124 1.399 . S
C1120 C1119 1.399 . S
C1120 C1121 1.376 . S
C1121 H1108 0.930 . S
C1121 C1120 1.376 . S
C1121 C1122 1.388 . S
C1122 H1109 0.930 . S
C1122 C1121 1.388 . S
C1122 C1123 1.390 . S
C1123 C1122 1.390 . S
C1123 C1124 1.394 . S
C1123 C1129 1.465 . S
C1124 C1119 1.399 . S
C1124 C1123 1.394 . S
C1124 C1125 1.516 . S
C1125 C1124 1.516 . S
C1125 C1126 1.502 . S
C1125 C1127 1.561 . S
C1125 C1128 1.526 . S
C1126 H1110 0.959 . S
C1126 H1111 0.959 . S
C1126 H1112 0.961 . S
C1126 C1125 1.502 . S
C1127 H1113 0.960 . S
C1127 H1114 0.961 . S
C1127 H1115 0.959 . S
C1127 C1125 1.561 . S
C1128 C1125 1.526 . S
C1128 C1129 1.396 . S
C1128 C1133 1.390 . S
C1129 C1123 1.465 . S
C1129 C1128 1.396 . S
C1129 C1130 1.399 . S
C1130 H1116 0.929 . S
C1130 C1129 1.399 . S
C1130 C1131 1.385 . S
C1131 H1117 0.931 . S
C1131 C1130 1.385 . S
C1131 C1132 1.389 . S
C1132 C1131 1.389 . S
C1132 C1133 1.387 . S
C1133 H1118 0.930 . S
C1133 C1128 1.390 . S
C1133 C1132 1.387 . S
H1134 C1146 0.930 . S
H1135 C1148 0.930 . S
H1136 C1149 0.930 1_565 S
H1137 C1153 0.959 . S
H1138 C1153 0.959 . S
H1139 C1153 0.961 . S
H1140 C1154 0.960 . S
H1141 C1154 0.961 . S
H1142 C1154 0.959 . S
H1143 C1157 0.929 1_565 S
H1144 C1158 0.931 . S
H1145 C1160 0.930 . S
C1146 H1134 0.930 . S
C1146 C1147 1.399 . S
C1146 C1151 1.399 . S
C1147 C1146 1.399 . S
C1147 C1148 1.376 . S
C1148 H1135 0.930 . S
C1148 C1147 1.376 . S
C1148 C1149 1.388 . S
C1149 H1136 0.930 1_545 S
C1149 C1148 1.388 . S
C1149 C1150 1.390 . S
C1150 C1149 1.390 . S
C1150 C1151 1.394 . S
C1150 C1156 1.465 . S
C1151 C1146 1.399 . S
C1151 C1150 1.394 . S
C1151 C1152 1.516 . S
C1152 C1151 1.516 . S
C1152 C1153 1.502 . S
C1152 C1154 1.561 . S
C1152 C1155 1.526 . S
C1153 H1137 0.959 . S
C1153 H1138 0.959 . S
C1153 H1139 0.961 . S
C1153 C1152 1.502 . S
C1154 H1140 0.960 . S
C1154 H1141 0.961 . S
C1154 H1142 0.959 . S
C1154 C1152 1.561 . S
C1155 C1152 1.526 . S
C1155 C1156 1.396 . S
C1155 C1160 1.390 . S
C1156 C1150 1.465 . S
C1156 C1155 1.396 . S
C1156 C1157 1.399 . S
C1157 H1143 0.929 1_545 S
C1157 C1156 1.399 . S
C1157 C1158 1.385 . S
C1158 H1144 0.931 . S
C1158 C1157 1.385 . S
C1158 C1159 1.389 . S
C1159 C1158 1.389 . S
C1159 C1160 1.387 . S
C1160 H1145 0.930 . S
C1160 C1155 1.390 . S
C1160 C1159 1.387 . S
H1161 C1173 0.930 . S
H1162 C1175 0.930 . S
H1163 C1176 0.930 . S
H1164 C1180 0.959 . S
H1165 C1180 0.959 . S
H1166 C1180 0.961 . S
H1167 C1181 0.960 . S
H1168 C1181 0.961 . S
H1169 C1181 0.959 . S
H1170 C1184 0.929 . S
H1171 C1185 0.931 . S
H1172 C1187 0.930 . S
C1173 H1161 0.930 . S
C1173 C1174 1.399 . S
C1173 C1178 1.399 . S
C1174 C1173 1.399 . S
C1174 C1175 1.376 . S
C1175 H1162 0.930 . S
C1175 C1174 1.376 . S
C1175 C1176 1.388 . S
C1176 H1163 0.930 . S
C1176 C1175 1.388 . S
C1176 C1177 1.390 . S
C1177 C1176 1.390 . S
C1177 C1178 1.394 . S
C1177 C1183 1.465 . S
C1178 C1173 1.399 . S
C1178 C1177 1.394 . S
C1178 C1179 1.516 . S
C1179 C1178 1.516 . S
C1179 C1180 1.502 . S
C1179 C1181 1.561 . S
C1179 C1182 1.526 . S
C1180 H1164 0.959 . S
C1180 H1165 0.959 . S
C1180 H1166 0.961 . S
C1180 C1179 1.502 . S
C1181 H1167 0.960 . S
C1181 H1168 0.961 . S
C1181 H1169 0.959 . S
C1181 C1179 1.561 . S
C1182 C1179 1.526 . S
C1182 C1183 1.396 . S
C1182 C1187 1.390 . S
C1183 C1177 1.465 . S
C1183 C1182 1.396 . S
C1183 C1184 1.399 . S
C1184 H1170 0.929 . S
C1184 C1183 1.399 . S
C1184 C1185 1.385 . S
C1185 H1171 0.931 . S
C1185 C1184 1.385 . S
C1185 C1186 1.389 . S
C1186 C1185 1.389 . S
C1186 C1187 1.387 . S
C1187 H1172 0.930 . S
C1187 C1182 1.390 . S
C1187 C1186 1.387 . S
H1188 C1200 0.930 . S
H1189 C1202 0.930 . S
H1190 C1203 0.930 . S
H1191 C1207 0.959 . S
H1192 C1207 0.959 . S
H1193 C1207 0.961 . S
H1194 C1208 0.960 . S
H1195 C1208 0.961 . S
H1196 C1208 0.959 . S
H1197 C1211 0.929 . S
H1198 C1212 0.931 . S
H1199 C1214 0.930 . S
C1200 H1188 0.930 . S
C1200 C1201 1.399 . S
C1200 C1205 1.399 . S
C1201 C1200 1.399 . S
C1201 C1202 1.376 . S
C1202 H1189 0.930 . S
C1202 C1201 1.376 . S
C1202 C1203 1.388 . S
C1203 H1190 0.930 . S
C1203 C1202 1.388 . S
C1203 C1204 1.390 . S
C1204 C1203 1.390 . S
C1204 C1205 1.394 . S
C1204 C1210 1.465 . S
C1205 C1200 1.399 . S
C1205 C1204 1.394 . S
C1205 C1206 1.516 . S
C1206 C1205 1.516 . S
C1206 C1207 1.502 . S
C1206 C1208 1.561 . S
C1206 C1209 1.526 . S
C1207 H1191 0.959 . S
C1207 H1192 0.959 . S
C1207 H1193 0.961 . S
C1207 C1206 1.502 . S
C1208 H1194 0.960 . S
C1208 H1195 0.961 . S
C1208 H1196 0.959 . S
C1208 C1206 1.561 . S
C1209 C1206 1.526 . S
C1209 C1210 1.396 . S
C1209 C1214 1.390 . S
C1210 C1204 1.465 . S
C1210 C1209 1.396 . S
C1210 C1211 1.399 . S
C1211 H1197 0.929 . S
C1211 C1210 1.399 . S
C1211 C1212 1.385 . S
C1212 H1198 0.931 . S
C1212 C1211 1.385 . S
C1212 C1213 1.389 . S
C1213 C1212 1.389 . S
C1213 C1214 1.387 . S
C1214 H1199 0.930 . S
C1214 C1209 1.390 . S
C1214 C1213 1.387 . S
H1215 C1227 0.930 . S
H1216 C1229 0.930 . S
H1217 C1230 0.930 . S
H1218 C1234 0.959 . S
H1219 C1234 0.959 . S
H1220 C1234 0.961 . S
H1221 C1235 0.960 . S
H1222 C1235 0.961 . S
H1223 C1235 0.959 . S
H1224 C1238 0.929 . S
H1225 C1239 0.931 . S
H1226 C1241 0.930 . S
C1227 H1215 0.930 . S
C1227 C1228 1.399 . S
C1227 C1232 1.399 . S
C1228 C1227 1.399 . S
C1228 C1229 1.376 . S
C1229 H1216 0.930 . S
C1229 C1228 1.376 . S
C1229 C1230 1.388 . S
C1230 H1217 0.930 . S
C1230 C1229 1.388 . S
C1230 C1231 1.390 . S
C1231 C1230 1.390 . S
C1231 C1232 1.394 . S
C1231 C1237 1.465 . S
C1232 C1227 1.399 . S
C1232 C1231 1.394 . S
C1232 C1233 1.516 . S
C1233 C1232 1.516 . S
C1233 C1234 1.502 . S
C1233 C1235 1.561 . S
C1233 C1236 1.526 . S
C1234 H1218 0.959 . S
C1234 H1219 0.959 . S
C1234 H1220 0.961 . S
C1234 C1233 1.502 . S
C1235 H1221 0.960 . S
C1235 H1222 0.961 . S
C1235 H1223 0.959 . S
C1235 C1233 1.561 . S
C1236 C1233 1.526 . S
C1236 C1237 1.396 . S
C1236 C1241 1.390 . S
C1237 C1231 1.465 . S
C1237 C1236 1.396 . S
C1237 C1238 1.399 . S
C1238 H1224 0.929 . S
C1238 C1237 1.399 . S
C1238 C1239 1.385 . S
C1239 H1225 0.931 . S
C1239 C1238 1.385 . S
C1239 C1240 1.389 . S
C1240 C1239 1.389 . S
C1240 C1241 1.387 . S
C1241 H1226 0.930 . S
C1241 C1236 1.390 . S
C1241 C1240 1.387 . S
H1242 C1254 0.930 . S
H1243 C1256 0.930 . S
H1244 C1257 0.930 . S
H1245 C1261 0.959 . S
H1246 C1261 0.959 . S
H1247 C1261 0.961 . S
H1248 C1262 0.960 . S
H1249 C1262 0.961 . S
H1250 C1262 0.959 . S
H1251 C1265 0.929 . S
H1252 C1266 0.931 . S
H1253 C1268 0.930 . S
C1254 H1242 0.930 . S
C1254 C1255 1.399 . S
C1254 C1259 1.399 . S
C1255 C1254 1.399 . S
C1255 C1256 1.376 . S
C1256 H1243 0.930 . S
C1256 C1255 1.376 . S
C1256 C1257 1.388 . S
C1257 H1244 0.930 . S
C1257 C1256 1.388 . S
C1257 C1258 1.390 . S
C1258 C1257 1.390 . S
C1258 C1259 1.394 . S
C1258 C1264 1.465 . S
C1259 C1254 1.399 . S
C1259 C1258 1.394 . S
C1259 C1260 1.516 . S
C1260 C1259 1.516 . S
C1260 C1261 1.502 . S
C1260 C1262 1.561 . S
C1260 C1263 1.526 . S
C1261 H1245 0.959 . S
C1261 H1246 0.959 . S
C1261 H1247 0.961 . S
C1261 C1260 1.502 . S
C1262 H1248 0.960 . S
C1262 H1249 0.961 . S
C1262 H1250 0.959 . S
C1262 C1260 1.561 . S
C1263 C1260 1.526 . S
C1263 C1264 1.396 . S
C1263 C1268 1.390 . S
C1264 C1258 1.465 . S
C1264 C1263 1.396 . S
C1264 C1265 1.399 . S
C1265 H1251 0.929 . S
C1265 C1264 1.399 . S
C1265 C1266 1.385 . S
C1266 H1252 0.931 . S
C1266 C1265 1.385 . S
C1266 C1267 1.389 . S
C1267 C1266 1.389 . S
C1267 C1268 1.387 . S
C1268 H1253 0.930 . S
C1268 C1263 1.390 . S
C1268 C1267 1.387 . S
H1269 C1281 0.930 . S
H1270 C1283 0.930 . S
H1271 C1284 0.930 . S
H1272 C1288 0.959 . S
H1273 C1288 0.959 . S
H1274 C1288 0.961 . S
H1275 C1289 0.960 . S
H1276 C1289 0.961 . S
H1277 C1289 0.959 . S
H1278 C1292 0.929 . S
H1279 C1293 0.931 . S
H1280 C1295 0.930 . S
C1281 H1269 0.930 . S
C1281 C1282 1.399 . S
C1281 C1286 1.399 . S
C1282 C1281 1.399 . S
C1282 C1283 1.376 . S
C1283 H1270 0.930 . S
C1283 C1282 1.376 . S
C1283 C1284 1.388 . S
C1284 H1271 0.930 . S
C1284 C1283 1.388 . S
C1284 C1285 1.390 . S
C1285 C1284 1.390 . S
C1285 C1286 1.394 . S
C1285 C1291 1.465 . S
C1286 C1281 1.399 . S
C1286 C1285 1.394 . S
C1286 C1287 1.516 . S
C1287 C1286 1.516 . S
C1287 C1288 1.502 . S
C1287 C1289 1.561 . S
C1287 C1290 1.526 . S
C1288 H1272 0.959 . S
C1288 H1273 0.959 . S
C1288 H1274 0.961 . S
C1288 C1287 1.502 . S
C1289 H1275 0.960 . S
C1289 H1276 0.961 . S
C1289 H1277 0.959 . S
C1289 C1287 1.561 . S
C1290 C1287 1.526 . S
C1290 C1291 1.396 . S
C1290 C1295 1.390 . S
C1291 C1285 1.465 . S
C1291 C1290 1.396 . S
C1291 C1292 1.399 . S
C1292 H1278 0.929 . S
C1292 C1291 1.399 . S
C1292 C1293 1.385 . S
C1293 H1279 0.931 . S
C1293 C1292 1.385 . S
C1293 C1294 1.389 . S
C1294 C1293 1.389 . S
C1294 C1295 1.387 . S
C1295 H1280 0.930 . S
C1295 C1290 1.390 . S
C1295 C1294 1.387 . S
H1296 C1308 0.930 . S
H1297 C1310 0.930 . S
H1298 C1311 0.930 . S
H1299 C1315 0.959 . S
H1300 C1315 0.959 . S
H1301 C1315 0.961 . S
H1302 C1316 0.960 . S
H1303 C1316 0.961 . S
H1304 C1316 0.959 . S
H1305 C1319 0.929 . S
H1306 C1320 0.931 . S
H1307 C1322 0.930 . S
C1308 H1296 0.930 . S
C1308 C1309 1.399 . S
C1308 C1313 1.399 . S
C1309 C1308 1.399 . S
C1309 C1310 1.376 . S
C1310 H1297 0.930 . S
C1310 C1309 1.376 . S
C1310 C1311 1.388 . S
C1311 H1298 0.930 . S
C1311 C1310 1.388 . S
C1311 C1312 1.390 . S
C1312 C1311 1.390 . S
C1312 C1313 1.394 . S
C1312 C1318 1.465 . S
C1313 C1308 1.399 . S
C1313 C1312 1.394 . S
C1313 C1314 1.516 . S
C1314 C1313 1.516 . S
C1314 C1315 1.502 . S
C1314 C1316 1.561 . S
C1314 C1317 1.526 . S
C1315 H1299 0.959 . S
C1315 H1300 0.959 . S
C1315 H1301 0.961 . S
C1315 C1314 1.502 . S
C1316 H1302 0.960 . S
C1316 H1303 0.961 . S
C1316 H1304 0.959 . S
C1316 C1314 1.561 . S
C1317 C1314 1.526 . S
C1317 C1318 1.396 . S
C1317 C1322 1.390 . S
C1318 C1312 1.465 . S
C1318 C1317 1.396 . S
C1318 C1319 1.399 . S
C1319 H1305 0.929 . S
C1319 C1318 1.399 . S
C1319 C1320 1.385 . S
C1320 H1306 0.931 . S
C1320 C1319 1.385 . S
C1320 C1321 1.389 . S
C1321 C1320 1.389 . S
C1321 C1322 1.387 . S
C1322 H1307 0.930 . S
C1322 C1317 1.390 . S
C1322 C1321 1.387 . S
H1323 C1335 0.930 . S
H1324 C1337 0.930 . S
H1325 C1338 0.930 . S
H1326 C1342 0.959 . S
H1327 C1342 0.959 . S
H1328 C1342 0.961 . S
H1329 C1343 0.960 . S
H1330 C1343 0.961 . S
H1331 C1343 0.959 . S
H1332 C1346 0.929 . S
H1333 C1347 0.931 . S
H1334 C1349 0.930 . S
C1335 H1323 0.930 . S
C1335 C1336 1.399 . S
C1335 C1340 1.399 . S
C1336 C1335 1.399 . S
C1336 C1337 1.376 . S
C1337 H1324 0.930 . S
C1337 C1336 1.376 . S
C1337 C1338 1.388 . S
C1338 H1325 0.930 . S
C1338 C1337 1.388 . S
C1338 C1339 1.390 . S
C1339 C1338 1.390 . S
C1339 C1340 1.394 . S
C1339 C1345 1.465 . S
C1340 C1335 1.399 . S
C1340 C1339 1.394 . S
C1340 C1341 1.516 . S
C1341 C1340 1.516 . S
C1341 C1342 1.502 . S
C1341 C1343 1.561 . S
C1341 C1344 1.526 . S
C1342 H1326 0.959 . S
C1342 H1327 0.959 . S
C1342 H1328 0.961 . S
C1342 C1341 1.502 . S
C1343 H1329 0.960 . S
C1343 H1330 0.961 . S
C1343 H1331 0.959 . S
C1343 C1341 1.561 . S
C1344 C1341 1.526 . S
C1344 C1345 1.396 . S
C1344 C1349 1.390 . S
C1345 C1339 1.465 . S
C1345 C1344 1.396 . S
C1345 C1346 1.399 . S
C1346 H1332 0.929 . S
C1346 C1345 1.399 . S
C1346 C1347 1.385 . S
C1347 H1333 0.931 . S
C1347 C1346 1.385 . S
C1347 C1348 1.389 . S
C1348 C1347 1.389 . S
C1348 C1349 1.387 . S
C1349 H1334 0.930 . S
C1349 C1344 1.390 . S
C1349 C1348 1.387 . S
H1350 C1362 0.930 . S
H1351 C1364 0.930 . S
H1352 C1365 0.930 . S
H1353 C1369 0.959 . S
H1354 C1369 0.959 . S
H1355 C1369 0.961 . S
H1356 C1370 0.960 . S
H1357 C1370 0.961 . S
H1358 C1370 0.959 . S
H1359 C1373 0.929 . S
H1360 C1374 0.931 . S
H1361 C1376 0.930 . S
C1362 H1350 0.930 . S
C1362 C1363 1.399 . S
C1362 C1367 1.399 . S
C1363 C1362 1.399 . S
C1363 C1364 1.376 . S
C1364 H1351 0.930 . S
C1364 C1363 1.376 . S
C1364 C1365 1.388 . S
C1365 H1352 0.930 . S
C1365 C1364 1.388 . S
C1365 C1366 1.390 . S
C1366 C1365 1.390 . S
C1366 C1367 1.394 . S
C1366 C1372 1.465 . S
C1367 C1362 1.399 . S
C1367 C1366 1.394 . S
C1367 C1368 1.516 . S
C1368 C1367 1.516 . S
C1368 C1369 1.502 . S
C1368 C1370 1.561 . S
C1368 C1371 1.526 . S
C1369 H1353 0.959 . S
C1369 H1354 0.959 . S
C1369 H1355 0.961 . S
C1369 C1368 1.502 . S
C1370 H1356 0.960 . S
C1370 H1357 0.961 . S
C1370 H1358 0.959 . S
C1370 C1368 1.561 . S
C1371 C1368 1.526 . S
C1371 C1372 1.396 . S
C1371 C1376 1.390 . S
C1372 C1366 1.465 . S
C1372 C1371 1.396 . S
C1372 C1373 1.399 . S
C1373 H1359 0.929 . S
C1373 C1372 1.399 . S
C1373 C1374 1.385 . S
C1374 H1360 0.931 . S
C1374 C1373 1.385 . S
C1374 C1375 1.389 . S
C1375 C1374 1.389 . S
C1375 C1376 1.387 . S
C1376 H1361 0.930 . S
C1376 C1371 1.390 . S
C1376 C1375 1.387 . S
H1377 C1389 0.930 . S
H1378 C1391 0.930 . S
H1379 C1392 0.930 . S
H1380 C1396 0.959 . S
H1381 C1396 0.959 . S
H1382 C1396 0.961 . S
H1383 C1397 0.960 . S
H1384 C1397 0.961 . S
H1385 C1397 0.959 . S
H1386 C1400 0.929 . S
H1387 C1401 0.931 . S
H1388 C1403 0.930 . S
C1389 H1377 0.930 . S
C1389 C1390 1.399 . S
C1389 C1394 1.399 . S
C1390 C1389 1.399 . S
C1390 C1391 1.376 . S
C1391 H1378 0.930 . S
C1391 C1390 1.376 . S
C1391 C1392 1.388 . S
C1392 H1379 0.930 . S
C1392 C1391 1.388 . S
C1392 C1393 1.390 . S
C1393 C1392 1.390 . S
C1393 C1394 1.394 . S
C1393 C1399 1.465 . S
C1394 C1389 1.399 . S
C1394 C1393 1.394 . S
C1394 C1395 1.516 . S
C1395 C1394 1.516 . S
C1395 C1396 1.502 . S
C1395 C1397 1.561 . S
C1395 C1398 1.526 . S
C1396 H1380 0.959 . S
C1396 H1381 0.959 . S
C1396 H1382 0.961 . S
C1396 C1395 1.502 . S
C1397 H1383 0.960 . S
C1397 H1384 0.961 . S
C1397 H1385 0.959 . S
C1397 C1395 1.561 . S
C1398 C1395 1.526 . S
C1398 C1399 1.396 . S
C1398 C1403 1.390 . S
C1399 C1393 1.465 . S
C1399 C1398 1.396 . S
C1399 C1400 1.399 . S
C1400 H1386 0.929 . S
C1400 C1399 1.399 . S
C1400 C1401 1.385 . S
C1401 H1387 0.931 . S
C1401 C1400 1.385 . S
C1401 C1402 1.389 . S
C1402 C1401 1.389 . S
C1402 C1403 1.387 . S
C1403 H1388 0.930 . S
C1403 C1398 1.390 . S
C1403 C1402 1.387 . S
H1404 C1416 0.930 . S
H1405 C1418 0.930 . S
H1406 C1419 0.930 . S
H1407 C1423 0.959 . S
H1408 C1423 0.959 . S
H1409 C1423 0.961 . S
H1410 C1424 0.960 . S
H1411 C1424 0.961 . S
H1412 C1424 0.959 . S
H1413 C1427 0.929 . S
H1414 C1428 0.931 . S
H1415 C1430 0.930 . S
C1416 H1404 0.930 . S
C1416 C1417 1.399 . S
C1416 C1421 1.399 . S
C1417 C1416 1.399 . S
C1417 C1418 1.376 . S
C1418 H1405 0.930 . S
C1418 C1417 1.376 . S
C1418 C1419 1.388 . S
C1419 H1406 0.930 . S
C1419 C1418 1.388 . S
C1419 C1420 1.390 . S
C1420 C1419 1.390 . S
C1420 C1421 1.394 . S
C1420 C1426 1.465 . S
C1421 C1416 1.399 . S
C1421 C1420 1.394 . S
C1421 C1422 1.516 . S
C1422 C1421 1.516 . S
C1422 C1423 1.502 . S
C1422 C1424 1.561 . S
C1422 C1425 1.526 . S
C1423 H1407 0.959 . S
C1423 H1408 0.959 . S
C1423 H1409 0.961 . S
C1423 C1422 1.502 . S
C1424 H1410 0.960 . S
C1424 H1411 0.961 . S
C1424 H1412 0.959 . S
C1424 C1422 1.561 . S
C1425 C1422 1.526 . S
C1425 C1426 1.396 . S
C1425 C1430 1.390 . S
C1426 C1420 1.465 . S
C1426 C1425 1.396 . S
C1426 C1427 1.399 . S
C1427 H1413 0.929 . S
C1427 C1426 1.399 . S
C1427 C1428 1.385 . S
C1428 H1414 0.931 . S
C1428 C1427 1.385 . S
C1428 C1429 1.389 . S
C1429 C1428 1.389 . S
C1429 C1430 1.387 . S
C1430 H1415 0.930 . S
C1430 C1425 1.390 . S
C1430 C1429 1.387 . S
H1431 C1443 0.930 . S
H1432 C1445 0.930 . S
H1433 C1446 0.930 . S
H1434 C1450 0.959 . S
H1435 C1450 0.959 . S
H1436 C1450 0.961 . S
H1437 C1451 0.960 . S
H1438 C1451 0.961 . S
H1439 C1451 0.959 . S
H1440 C1454 0.929 . S
H1441 C1455 0.931 . S
H1442 C1457 0.930 . S
C1443 H1431 0.930 . S
C1443 C1444 1.399 . S
C1443 C1448 1.399 . S
C1444 C1443 1.399 . S
C1444 C1445 1.376 . S
C1445 H1432 0.930 . S
C1445 C1444 1.376 . S
C1445 C1446 1.388 . S
C1446 H1433 0.930 . S
C1446 C1445 1.388 . S
C1446 C1447 1.390 . S
C1447 C1446 1.390 . S
C1447 C1448 1.394 . S
C1447 C1453 1.465 . S
C1448 C1443 1.399 . S
C1448 C1447 1.394 . S
C1448 C1449 1.516 . S
C1449 C1448 1.516 . S
C1449 C1450 1.502 . S
C1449 C1451 1.561 . S
C1449 C1452 1.526 . S
C1450 H1434 0.959 . S
C1450 H1435 0.959 . S
C1450 H1436 0.961 . S
C1450 C1449 1.502 . S
C1451 H1437 0.960 . S
C1451 H1438 0.961 . S
C1451 H1439 0.959 . S
C1451 C1449 1.561 . S
C1452 C1449 1.526 . S
C1452 C1453 1.396 . S
C1452 C1457 1.390 . S
C1453 C1447 1.465 . S
C1453 C1452 1.396 . S
C1453 C1454 1.399 . S
C1454 H1440 0.929 . S
C1454 C1453 1.399 . S
C1454 C1455 1.385 . S
C1455 H1441 0.931 . S
C1455 C1454 1.385 . S
C1455 C1456 1.389 . S
C1456 C1455 1.389 . S
C1456 C1457 1.387 . S
C1457 H1442 0.930 . S
C1457 C1452 1.390 . S
C1457 C1456 1.387 . S
H1458 C1470 0.930 . S
H1459 C1472 0.930 . S
H1460 C1473 0.930 . S
H1461 C1477 0.959 . S
H1462 C1477 0.959 . S
H1463 C1477 0.961 . S
H1464 C1478 0.960 . S
H1465 C1478 0.961 . S
H1466 C1478 0.959 . S
H1467 C1481 0.929 . S
H1468 C1482 0.931 . S
H1469 C1484 0.930 . S
C1470 H1458 0.930 . S
C1470 C1471 1.399 . S
C1470 C1475 1.399 . S
C1471 C1470 1.399 . S
C1471 C1472 1.376 . S
C1472 H1459 0.930 . S
C1472 C1471 1.376 . S
C1472 C1473 1.388 . S
C1473 H1460 0.930 . S
C1473 C1472 1.388 . S
C1473 C1474 1.390 . S
C1474 C1473 1.390 . S
C1474 C1475 1.394 . S
C1474 C1480 1.465 . S
C1475 C1470 1.399 . S
C1475 C1474 1.394 . S
C1475 C1476 1.516 . S
C1476 C1475 1.516 . S
C1476 C1477 1.502 . S
C1476 C1478 1.561 . S
C1476 C1479 1.526 . S
C1477 H1461 0.959 . S
C1477 H1462 0.959 . S
C1477 H1463 0.961 . S
C1477 C1476 1.502 . S
C1478 H1464 0.960 . S
C1478 H1465 0.961 . S
C1478 H1466 0.959 . S
C1478 C1476 1.561 . S
C1479 C1476 1.526 . S
C1479 C1480 1.396 . S
C1479 C1484 1.390 . S
C1480 C1474 1.465 . S
C1480 C1479 1.396 . S
C1480 C1481 1.399 . S
C1481 H1467 0.929 . S
C1481 C1480 1.399 . S
C1481 C1482 1.385 . S
C1482 H1468 0.931 . S
C1482 C1481 1.385 . S
C1482 C1483 1.389 . S
C1483 C1482 1.389 . S
C1483 C1484 1.387 . S
C1484 H1469 0.930 . S
C1484 C1479 1.390 . S
C1484 C1483 1.387 . S
H1485 C1497 0.930 . S
H1486 C1499 0.930 . S
H1487 C1500 0.930 . S
H1488 C1504 0.959 . S
H1489 C1504 0.959 . S
H1490 C1504 0.961 . S
H1491 C1505 0.960 . S
H1492 C1505 0.961 . S
H1493 C1505 0.959 . S
H1494 C1508 0.929 . S
H1495 C1509 0.931 . S
H1496 C1511 0.930 . S
C1497 H1485 0.930 . S
C1497 C1498 1.399 . S
C1497 C1502 1.399 . S
C1498 C1497 1.399 . S
C1498 C1499 1.376 . S
C1499 H1486 0.930 . S
C1499 C1498 1.376 . S
C1499 C1500 1.388 . S
C1500 H1487 0.930 . S
C1500 C1499 1.388 . S
C1500 C1501 1.390 . S
C1501 C1500 1.390 . S
C1501 C1502 1.394 . S
C1501 C1507 1.465 . S
C1502 C1497 1.399 . S
C1502 C1501 1.394 . S
C1502 C1503 1.516 . S
C1503 C1502 1.516 . S
C1503 C1504 1.502 . S
C1503 C1505 1.561 . S
C1503 C1506 1.526 . S
C1504 H1488 0.959 . S
C1504 H1489 0.959 . S
C1504 H1490 0.961 . S
C1504 C1503 1.502 . S
C1505 H1491 0.960 . S
C1505 H1492 0.961 . S
C1505 H1493 0.959 . S
C1505 C1503 1.561 . S
C1506 C1503 1.526 . S
C1506 C1507 1.396 . S
C1506 C1511 1.390 . S
C1507 C1501 1.465 . S
C1507 C1506 1.396 . S
C1507 C1508 1.399 . S
C1508 H1494 0.929 . S
C1508 C1507 1.399 . S
C1508 C1509 1.385 . S
C1509 H1495 0.931 . S
C1509 C1508 1.385 . S
C1509 C1510 1.389 . S
C1510 C1509 1.389 . S
C1510 C1511 1.387 . S
C1511 H1496 0.930 . S
C1511 C1506 1.390 . S
C1511 C1510 1.387 . S
H1512 C1524 0.930 . S
H1513 C1526 0.930 . S
H1514 C1527 0.930 . S
H1515 C1531 0.959 . S
H1516 C1531 0.959 . S
H1517 C1531 0.961 . S
H1518 C1532 0.960 . S
H1519 C1532 0.983 . S
H1520 C1532 0.959 . S
H1521 C1535 0.929 . S
H1522 C1536 0.931 . S
H1523 C1538 0.930 . S
C1524 H1512 0.930 . S
C1524 C1525 1.399 1_545 S
C1524 C1529 1.399 . S
C1525 C1524 1.399 1_565 S
C1525 C1526 1.376 . S
C1526 H1513 0.930 . S
C1526 C1525 1.376 . S
C1526 C1527 1.388 . S
C1527 H1514 0.930 . S
C1527 C1526 1.388 . S
C1527 C1528 1.390 . S
C1528 C1527 1.390 . S
C1528 C1529 1.394 1_565 S
C1528 C1534 1.465 1_556 S
C1529 C1524 1.399 . S
C1529 C1528 1.394 1_545 S
C1529 C1530 1.516 . S
C1530 C1529 1.516 . S
C1530 C1531 1.502 . S
C1530 C1532 1.561 . S
C1530 C1533 1.526 1_556 S
C1531 H1515 0.959 . S
C1531 H1516 0.959 . S
C1531 H1517 0.961 . S
C1531 C1530 1.502 . S
C1532 H1518 0.960 . S
C1532 H1519 0.983 . S
C1532 H1520 0.959 . S
C1532 C1530 1.561 . S
C1533 C1530 1.526 1_554 S
C1533 C1534 1.396 1_545 S
C1533 C1538 1.390 . S
C1534 C1528 1.465 1_554 S
C1534 C1533 1.396 1_565 S
C1534 C1535 1.399 . S
C1535 H1521 0.929 . S
C1535 C1534 1.399 . S
C1535 C1536 1.385 . S
C1536 H1522 0.931 . S
C1536 C1535 1.385 . S
C1536 C1537 1.389 1_565 S
C1537 C1536 1.389 1_545 S
C1537 C1538 1.387 . S
C1538 H1523 0.930 . S
C1538 C1533 1.390 . S
C1538 C1537 1.387 . S
H1539 C1551 0.930 . S
H1540 C1553 0.930 . S
H1541 C1554 0.930 . S
H1542 C1558 0.959 . S
H1543 C1558 0.959 . S
H1544 C1558 0.961 . S
H1545 C1559 0.960 . S
H1546 C1559 0.961 . S
H1547 C1559 0.959 . S
H1548 C1562 0.929 . S
H1549 C1563 0.931 . S
H1550 C1565 0.930 . S
C1551 H1539 0.930 . S
C1551 C1552 1.399 . S
C1551 C1556 1.399 . S
C1552 C1551 1.399 . S
C1552 C1553 1.376 . S
C1553 H1540 0.930 . S
C1553 C1552 1.376 . S
C1553 C1554 1.388 . S
C1554 H1541 0.930 . S
C1554 C1553 1.388 . S
C1554 C1555 1.390 . S
C1555 C1554 1.390 . S
C1555 C1556 1.394 . S
C1555 C1561 1.465 . S
C1556 C1551 1.399 . S
C1556 C1555 1.394 . S
C1556 C1557 1.516 . S
C1557 C1556 1.516 . S
C1557 C1558 1.502 . S
C1557 C1559 1.561 . S
C1557 C1560 1.526 . S
C1558 H1542 0.959 . S
C1558 H1543 0.959 . S
C1558 H1544 0.961 . S
C1558 C1557 1.502 . S
C1559 H1545 0.960 . S
C1559 H1546 0.961 . S
C1559 H1547 0.959 . S
C1559 C1557 1.561 . S
C1560 C1557 1.526 . S
C1560 C1561 1.396 . S
C1560 C1565 1.390 . S
C1561 C1555 1.465 . S
C1561 C1560 1.396 . S
C1561 C1562 1.399 . S
C1562 H1548 0.929 . S
C1562 C1561 1.399 . S
C1562 C1563 1.385 . S
C1563 H1549 0.931 . S
C1563 C1562 1.385 . S
C1563 C1564 1.389 . S
C1564 C1563 1.389 . S
C1564 C1565 1.387 . S
C1565 H1550 0.930 . S
C1565 C1560 1.390 . S
C1565 C1564 1.387 . S
H1566 C1578 0.930 . S
H1567 C1580 0.930 . S
H1568 C1581 0.930 . S
H1569 C1585 0.959 . S
H1570 C1585 0.959 . S
H1571 C1585 0.961 . S
H1572 C1586 0.960 1_556 S
H1573 C1586 0.961 . S
H1574 C1586 0.959 . S
H1575 C1589 0.929 . S
H1576 C1590 0.931 . S
H1577 C1592 0.930 1_455 S
C1578 H1566 0.930 . S
C1578 C1579 1.399 . S
C1578 C1583 1.399 . S
C1579 C1578 1.399 . S
C1579 C1580 1.376 1_455 S
C1580 H1567 0.930 . S
C1580 C1579 1.376 1_655 S
C1580 C1581 1.388 . S
C1581 H1568 0.930 . S
C1581 C1580 1.388 . S
C1581 C1582 1.390 . S
C1582 C1581 1.390 . S
C1582 C1583 1.394 1_655 S
C1582 C1588 1.465 1_556 S
C1583 C1578 1.399 . S
C1583 C1582 1.394 1_455 S
C1583 C1584 1.516 1_556 S
C1584 C1583 1.516 1_554 S
C1584 C1585 1.502 . S
C1584 C1586 1.561 . S
C1584 C1587 1.526 . S
C1585 H1569 0.959 . S
C1585 H1570 0.959 . S
C1585 H1571 0.961 . S
C1585 C1584 1.502 . S
C1586 H1572 0.960 1_554 S
C1586 H1573 0.961 . S
C1586 H1574 0.959 . S
C1586 C1584 1.561 . S
C1587 C1584 1.526 . S
C1587 C1588 1.396 1_455 S
C1587 C1592 1.390 1_455 S
C1588 C1582 1.465 1_554 S
C1588 C1587 1.396 1_655 S
C1588 C1589 1.399 . S
C1589 H1575 0.929 . S
C1589 C1588 1.399 . S
C1589 C1590 1.385 . S
C1590 H1576 0.931 . S
C1590 C1589 1.385 . S
C1590 C1591 1.389 . S
C1591 C1590 1.389 . S
C1591 C1592 1.387 . S
C1592 H1577 0.930 1_655 S
C1592 C1587 1.390 1_655 S
C1592 C1591 1.387 . S
H1593 C1605 0.930 . S
H1594 C1607 0.930 . S
H1595 C1608 0.930 . S
H1596 C1612 0.959 . S
H1597 C1612 0.959 . S
H1598 C1612 0.961 . S
H1599 C1613 0.960 . S
H1600 C1613 0.961 . S
H1601 C1613 0.959 . S
H1602 C1616 0.929 . S
H1603 C1617 0.931 . S
H1604 C1619 0.930 1_545 S
C1605 H1593 0.930 . S
C1605 C1606 1.399 . S
C1605 C1610 1.399 . S
C1606 C1605 1.399 . S
C1606 C1607 1.376 1_545 S
C1607 H1594 0.930 . S
C1607 C1606 1.376 1_565 S
C1607 C1608 1.388 . S
C1608 H1595 0.930 . S
C1608 C1607 1.388 . S
C1608 C1609 1.390 . S
C1609 C1608 1.390 . S
C1609 C1610 1.394 1_565 S
C1609 C1615 1.465 . S
C1610 C1605 1.399 . S
C1610 C1609 1.394 1_545 S
C1610 C1611 1.516 . S
C1611 C1610 1.516 . S
C1611 C1612 1.502 . S
C1611 C1613 1.561 . S
C1611 C1614 1.526 . S
C1612 H1596 0.959 . S
C1612 H1597 0.959 . S
C1612 H1598 0.961 . S
C1612 C1611 1.502 . S
C1613 H1599 0.960 . S
C1613 H1600 0.961 . S
C1613 H1601 0.959 . S
C1613 C1611 1.561 . S
C1614 C1611 1.526 . S
C1614 C1615 1.396 1_545 S
C1614 C1619 1.390 1_545 S
C1615 C1609 1.465 . S
C1615 C1614 1.396 1_565 S
C1615 C1616 1.399 . S
C1616 H1602 0.929 . S
C1616 C1615 1.399 . S
C1616 C1617 1.385 . S
C1617 H1603 0.931 . S
C1617 C1616 1.385 . S
C1617 C1618 1.389 . S
C1618 C1617 1.389 . S
C1618 C1619 1.387 . S
C1619 H1604 0.930 1_565 S
C1619 C1614 1.390 1_565 S
C1619 C1618 1.387 . S
H1620 C1632 0.930 . S
H1621 C1634 0.930 . S
H1622 C1635 0.930 . S
H1623 C1639 0.959 . S
H1624 C1639 0.959 . S
H1625 C1639 0.961 . S
H1626 C1640 0.960 1_554 S
H1627 C1640 0.961 . S
H1628 C1640 0.959 . S
H1629 C1643 0.929 . S
H1630 C1644 0.931 . S
H1631 C1646 0.930 . S
C1632 H1620 0.930 . S
C1632 C1633 1.399 . S
C1632 C1637 1.399 . S
C1633 C1632 1.399 . S
C1633 C1634 1.376 . S
C1634 H1621 0.930 . S
C1634 C1633 1.376 . S
C1634 C1635 1.388 . S
C1635 H1622 0.930 . S
C1635 C1634 1.388 . S
C1635 C1636 1.390 . S
C1636 C1635 1.390 . S
C1636 C1637 1.394 . S
C1636 C1642 1.465 1_554 S
C1637 C1632 1.399 . S
C1637 C1636 1.394 . S
C1637 C1638 1.516 1_554 S
C1638 C1637 1.516 1_556 S
C1638 C1639 1.502 . S
C1638 C1640 1.561 . S
C1638 C1641 1.526 . S
C1639 H1623 0.959 . S
C1639 H1624 0.959 . S
C1639 H1625 0.961 . S
C1639 C1638 1.502 . S
C1640 H1626 0.960 1_556 S
C1640 H1627 0.961 . S
C1640 H1628 0.959 . S
C1640 C1638 1.561 . S
C1641 C1638 1.526 . S
C1641 C1642 1.396 . S
C1641 C1646 1.390 . S
C1642 C1636 1.465 1_556 S
C1642 C1641 1.396 . S
C1642 C1643 1.399 . S
C1643 H1629 0.929 . S
C1643 C1642 1.399 . S
C1643 C1644 1.385 . S
C1644 H1630 0.931 . S
C1644 C1643 1.385 . S
C1644 C1645 1.389 . S
C1645 C1644 1.389 . S
C1645 C1646 1.387 . S
C1646 H1631 0.930 . S
C1646 C1641 1.390 . S
C1646 C1645 1.387 . S
H1647 C1659 0.930 1_655 S
H1648 C1661 0.930 . S
H1649 C1662 0.930 . S
H1650 C1666 0.959 . S
H1651 C1666 0.959 . S
H1652 C1666 0.961 . S
H1653 C1667 0.960 . S
H1654 C1667 0.961 . S
H1655 C1667 0.959 1_455 S
H1656 C1670 0.929 . S
H1657 C1671 0.946 . S
H1658 C1673 0.930 . S
C1659 H1647 0.930 1_455 S
C1659 C1660 1.399 . S
C1659 C1664 1.402 . S
C1660 C1659 1.399 . S
C1660 C1661 1.376 . S
C1661 H1648 0.930 . S
C1661 C1660 1.376 . S
C1661 C1662 1.388 . S
C1662 H1649 0.930 . S
C1662 C1661 1.388 . S
C1662 C1663 1.390 . S
C1663 C1662 1.390 . S
C1663 C1664 1.428 . S
C1663 C1669 1.465 . S
C1664 C1659 1.402 . S
C1664 C1663 1.428 . S
C1664 C1665 1.484 1_455 S
C1665 C1664 1.484 1_655 S
C1665 C1666 1.502 . S
C1665 C1667 1.561 . S
C1665 C1668 1.526 . S
C1666 H1650 0.959 . S
C1666 H1651 0.959 . S
C1666 H1652 0.961 . S
C1666 C1665 1.502 . S
C1667 H1653 0.960 . S
C1667 H1654 0.961 . S
C1667 H1655 0.959 1_655 S
C1667 C1665 1.561 . S
C1668 C1665 1.526 . S
C1668 C1669 1.396 1_655 S
C1668 C1673 1.390 . S
C1669 C1663 1.465 . S
C1669 C1668 1.396 1_455 S
C1669 C1670 1.399 . S
C1670 H1656 0.929 . S
C1670 C1669 1.399 . S
C1670 C1671 1.399 . S
C1671 H1657 0.946 . S
C1671 C1670 1.399 . S
C1671 C1672 1.362 1_455 S
C1672 C1671 1.362 1_655 S
C1672 C1673 1.387 . S
C1673 H1658 0.930 . S
C1673 C1668 1.390 . S
C1673 C1672 1.387 . S
H1674 C1686 0.930 1_545 S
H1675 C1688 0.930 . S
H1676 C1689 0.930 . S
H1677 C1693 0.959 . S
H1678 C1693 0.959 . S
H1679 C1693 0.961 . S
H1680 C1694 0.960 . S
H1681 C1694 0.961 1_554 S
H1682 C1694 0.959 1_564 S
H1683 C1697 0.929 . S
H1684 C1698 0.931 . S
H1685 C1700 0.930 . S
C1686 H1674 0.930 1_565 S
C1686 C1687 1.399 . S
C1686 C1691 1.399 . S
C1687 C1686 1.399 . S
C1687 C1688 1.376 . S
C1688 H1675 0.930 . S
C1688 C1687 1.376 . S
C1688 C1689 1.388 . S
C1689 H1676 0.930 . S
C1689 C1688 1.388 . S
C1689 C1690 1.390 . S
C1690 C1689 1.390 . S
C1690 C1691 1.400 . S
C1690 C1696 1.465 1_556 S
C1691 C1686 1.399 . S
C1691 C1690 1.400 . S
C1691 C1692 1.510 1_565 S
C1692 C1691 1.510 1_545 S
C1692 C1693 1.502 . S
C1692 C1694 1.561 . S
C1692 C1695 1.526 1_556 S
C1693 H1677 0.959 . S
C1693 H1678 0.959 . S
C1693 H1679 0.961 . S
C1693 C1692 1.502 . S
C1694 H1680 0.960 . S
C1694 H1681 0.961 1_556 S
C1694 H1682 0.959 1_546 S
C1694 C1692 1.561 . S
C1695 C1692 1.526 1_554 S
C1695 C1696 1.396 1_545 S
C1695 C1700 1.390 . S
C1696 C1690 1.465 1_554 S
C1696 C1695 1.396 1_565 S
C1696 C1697 1.399 . S
C1697 H1683 0.929 . S
C1697 C1696 1.399 . S
C1697 C1698 1.385 . S
C1698 H1684 0.931 . S
C1698 C1697 1.385 . S
C1698 C1699 1.389 1_565 S
C1699 C1698 1.389 1_545 S
C1699 C1700 1.387 . S
C1700 H1685 0.930 . S
C1700 C1695 1.390 . S
C1700 C1699 1.387 . S
H1701 C1713 0.930 . S
H1702 C1715 0.930 . S
H1703 C1716 0.930 . S
H1704 C1720 0.959 . S
H1705 C1720 0.959 . S
H1706 C1720 0.961 . S
H1707 C1721 0.960 . S
H1708 C1721 0.961 . S
H1709 C1721 0.959 . S
H1710 C1724 0.929 . S
H1711 C1725 0.931 . S
H1712 C1727 0.930 . S
C1713 H1701 0.930 . S
C1713 C1714 1.399 . S
C1713 C1718 1.399 . S
C1714 C1713 1.399 . S
C1714 C1715 1.376 . S
C1715 H1702 0.930 . S
C1715 C1714 1.376 . S
C1715 C1716 1.388 . S
C1716 H1703 0.930 . S
C1716 C1715 1.388 . S
C1716 C1717 1.390 . S
C1717 C1716 1.390 . S
C1717 C1718 1.394 . S
C1717 C1723 1.465 . S
C1718 C1713 1.399 . S
C1718 C1717 1.394 . S
C1718 C1719 1.516 . S
C1719 C1718 1.516 . S
C1719 C1720 1.502 . S
C1719 C1721 1.561 . S
C1719 C1722 1.526 . S
C1720 H1704 0.959 . S
C1720 H1705 0.959 . S
C1720 H1706 0.961 . S
C1720 C1719 1.502 . S
C1721 H1707 0.960 . S
C1721 H1708 0.961 . S
C1721 H1709 0.959 . S
C1721 C1719 1.561 . S
C1722 C1719 1.526 . S
C1722 C1723 1.396 . S
C1722 C1727 1.390 . S
C1723 C1717 1.465 . S
C1723 C1722 1.396 . S
C1723 C1724 1.399 . S
C1724 H1710 0.929 . S
C1724 C1723 1.399 . S
C1724 C1725 1.385 . S
C1725 H1711 0.931 . S
C1725 C1724 1.385 . S
C1725 C1726 1.389 . S
C1726 C1725 1.389 . S
C1726 C1727 1.387 . S
C1727 H1712 0.930 . S
C1727 C1722 1.390 . S
C1727 C1726 1.387 . S
H1728 C1740 0.930 . S
H1729 C1742 0.930 . S
H1730 C1743 0.930 . S
H1731 C1747 0.972 1_655 S
H1732 C1747 0.976 . S
H1733 C1747 0.940 1_654 S
H1734 C1748 0.960 . S
H1735 C1748 0.963 . S
H1736 C1748 0.959 . S
H1737 C1751 0.929 1_655 S
H1738 C1752 0.931 . S
H1739 C1754 0.930 . S
C1740 H1728 0.930 . S
C1740 C1741 1.399 . S
C1740 C1745 1.416 . S
C1741 C1740 1.399 . S
C1741 C1742 1.376 . S
C1742 H1729 0.930 . S
C1742 C1741 1.376 . S
C1742 C1743 1.388 . S
C1743 H1730 0.930 . S
C1743 C1742 1.388 . S
C1743 C1744 1.390 . S
C1744 C1743 1.390 . S
C1744 C1745 1.379 . S
C1744 C1750 1.465 1_654 S
C1745 C1740 1.416 . S
C1745 C1744 1.379 . S
C1745 C1746 1.512 1_655 S
C1746 C1745 1.512 1_455 S
C1746 C1747 1.494 1_554 S
C1746 C1748 1.561 . S
C1746 C1749 1.526 1_554 S
C1747 H1731 0.972 1_455 S
C1747 H1732 0.976 . S
C1747 H1733 0.940 1_456 S
C1747 C1746 1.494 1_556 S
C1748 H1734 0.960 . S
C1748 H1735 0.963 . S
C1748 H1736 0.959 . S
C1748 C1746 1.561 . S
C1749 C1746 1.526 1_556 S
C1749 C1750 1.396 . S
C1749 C1754 1.390 . S
C1750 C1744 1.465 1_456 S
C1750 C1749 1.396 . S
C1750 C1751 1.399 . S
C1751 H1737 0.929 1_455 S
C1751 C1750 1.399 . S
C1751 C1752 1.385 . S
C1752 H1738 0.931 . S
C1752 C1751 1.385 . S
C1752 C1753 1.389 . S
C1753 C1752 1.389 . S
C1753 C1754 1.387 . S
C1754 H1739 0.930 . S
C1754 C1749 1.390 . S
C1754 C1753 1.387 . S
H1755 C1767 0.930 . S
H1756 C1769 0.930 . S
H1757 C1770 0.930 . S
H1758 C1774 0.959 . S
H1759 C1774 0.959 . S
H1760 C1774 0.961 . S
H1761 C1775 0.960 . S
H1762 C1775 0.961 . S
H1763 C1775 0.959 . S
H1764 C1778 0.929 . S
H1765 C1779 0.931 . S
H1766 C1781 0.930 . S
C1767 H1755 0.930 . S
C1767 C1768 1.399 . S
C1767 C1772 1.399 . S
C1768 C1767 1.399 . S
C1768 C1769 1.376 1_565 S
C1769 H1756 0.930 . S
C1769 C1768 1.376 1_545 S
C1769 C1770 1.388 . S
C1770 H1757 0.930 . S
C1770 C1769 1.388 . S
C1770 C1771 1.390 . S
C1771 C1770 1.390 . S
C1771 C1772 1.394 1_545 S
C1771 C1777 1.465 . S
C1772 C1767 1.399 . S
C1772 C1771 1.394 1_565 S
C1772 C1773 1.516 . S
C1773 C1772 1.516 . S
C1773 C1774 1.502 . S
C1773 C1775 1.561 . S
C1773 C1776 1.526 . S
C1774 H1758 0.959 . S
C1774 H1759 0.959 . S
C1774 H1760 0.961 . S
C1774 C1773 1.502 . S
C1775 H1761 0.960 . S
C1775 H1762 0.961 . S
C1775 H1763 0.959 . S
C1775 C1773 1.561 . S
C1776 C1773 1.526 . S
C1776 C1777 1.396 1_565 S
C1776 C1781 1.390 . S
C1777 C1771 1.465 . S
C1777 C1776 1.396 1_545 S
C1777 C1778 1.399 . S
C1778 H1764 0.929 . S
C1778 C1777 1.399 . S
C1778 C1779 1.385 . S
C1779 H1765 0.931 . S
C1779 C1778 1.385 . S
C1779 C1780 1.389 . S
C1780 C1779 1.389 . S
C1780 C1781 1.387 1_545 S
C1781 H1766 0.930 . S
C1781 C1776 1.390 . S
C1781 C1780 1.387 1_565 S
H1782 C1794 0.930 . S
H1783 C1796 0.930 . S
H1784 C1797 0.930 . S
H1785 C1801 0.959 . S
H1786 C1801 0.959 . S
H1787 C1801 0.961 . S
H1788 C1802 0.960 . S
H1789 C1802 0.961 . S
H1790 C1802 0.959 . S
H1791 C1805 0.929 . S
H1792 C1806 0.931 . S
H1793 C1808 0.930 . S
C1794 H1782 0.930 . S
C1794 C1795 1.399 . S
C1794 C1799 1.399 . S
C1795 C1794 1.399 . S
C1795 C1796 1.376 . S
C1796 H1783 0.930 . S
C1796 C1795 1.376 . S
C1796 C1797 1.388 . S
C1797 H1784 0.930 . S
C1797 C1796 1.388 . S
C1797 C1798 1.390 . S
C1798 C1797 1.390 . S
C1798 C1799 1.394 . S
C1798 C1804 1.465 1_554 S
C1799 C1794 1.399 . S
C1799 C1798 1.394 . S
C1799 C1800 1.516 . S
C1800 C1799 1.516 . S
C1800 C1801 1.502 . S
C1800 C1802 1.561 . S
C1800 C1803 1.526 1_554 S
C1801 H1785 0.959 . S
C1801 H1786 0.959 . S
C1801 H1787 0.961 . S
C1801 C1800 1.502 . S
C1802 H1788 0.960 . S
C1802 H1789 0.961 . S
C1802 H1790 0.959 . S
C1802 C1800 1.561 . S
C1803 C1800 1.526 1_556 S
C1803 C1804 1.396 . S
C1803 C1808 1.390 . S
C1804 C1798 1.465 1_556 S
C1804 C1803 1.396 . S
C1804 C1805 1.399 . S
C1805 H1791 0.929 . S
C1805 C1804 1.399 . S
C1805 C1806 1.385 . S
C1806 H1792 0.931 . S
C1806 C1805 1.385 . S
C1806 C1807 1.389 . S
C1807 C1806 1.389 . S
C1807 C1808 1.387 . S
C1808 H1793 0.930 . S
C1808 C1803 1.390 . S
C1808 C1807 1.387 . S
H1809 C1821 0.930 . S
H1810 C1823 0.930 . S
H1811 C1824 0.930 . S
H1812 C1828 0.959 . S
H1813 C1828 0.964 . S
H1814 C1828 0.961 . S
H1815 C1829 0.960 . S
H1816 C1829 0.961 . S
H1817 C1829 0.959 . S
H1818 C1832 0.929 . S
H1819 C1833 0.931 . S
H1820 C1835 0.930 . S
C1821 H1809 0.930 . S
C1821 C1822 1.399 . S
C1821 C1826 1.399 . S
C1822 C1821 1.399 . S
C1822 C1823 1.376 . S
C1823 H1810 0.930 . S
C1823 C1822 1.376 . S
C1823 C1824 1.388 . S
C1824 H1811 0.930 . S
C1824 C1823 1.388 . S
C1824 C1825 1.390 . S
C1825 C1824 1.390 . S
C1825 C1826 1.394 . S
C1825 C1831 1.465 1_455 S
C1826 C1821 1.399 . S
C1826 C1825 1.394 . S
C1826 C1827 1.516 1_455 S
C1827 C1826 1.516 1_655 S
C1827 C1828 1.502 1_655 S
C1827 C1829 1.561 . S
C1827 C1830 1.526 . S
C1828 H1812 0.959 . S
C1828 H1813 0.964 . S
C1828 H1814 0.961 . S
C1828 C1827 1.502 1_455 S
C1829 H1815 0.960 . S
C1829 H1816 0.961 . S
C1829 H1817 0.959 . S
C1829 C1827 1.561 . S
C1830 C1827 1.526 . S
C1830 C1831 1.396 . S
C1830 C1835 1.390 . S
C1831 C1825 1.465 1_655 S
C1831 C1830 1.396 . S
C1831 C1832 1.399 . S
C1832 H1818 0.929 . S
C1832 C1831 1.399 . S
C1832 C1833 1.385 . S
C1833 H1819 0.931 . S
C1833 C1832 1.385 . S
C1833 C1834 1.389 . S
C1834 C1833 1.389 . S
C1834 C1835 1.387 . S
C1835 H1820 0.930 . S
C1835 C1830 1.390 . S
C1835 C1834 1.387 . S
H1836 C1848 0.930 . S
H1837 C1850 0.930 . S
H1838 C1851 0.930 . S
H1839 C1855 0.959 . S
H1840 C1855 0.959 . S
H1841 C1855 0.961 . S
H1842 C1856 0.960 . S
H1843 C1856 0.961 . S
H1844 C1856 0.959 . S
H1845 C1859 0.929 . S
H1846 C1860 0.931 . S
H1847 C1862 0.930 . S
C1848 H1836 0.930 . S
C1848 C1849 1.399 . S
C1848 C1853 1.399 . S
C1849 C1848 1.399 . S
C1849 C1850 1.376 . S
C1850 H1837 0.930 . S
C1850 C1849 1.376 . S
C1850 C1851 1.388 . S
C1851 H1838 0.930 . S
C1851 C1850 1.388 . S
C1851 C1852 1.390 . S
C1852 C1851 1.390 . S
C1852 C1853 1.394 . S
C1852 C1858 1.465 . S
C1853 C1848 1.399 . S
C1853 C1852 1.394 . S
C1853 C1854 1.516 . S
C1854 C1853 1.516 . S
C1854 C1855 1.502 . S
C1854 C1856 1.561 . S
C1854 C1857 1.526 . S
C1855 H1839 0.959 . S
C1855 H1840 0.959 . S
C1855 H1841 0.961 . S
C1855 C1854 1.502 . S
C1856 H1842 0.960 . S
C1856 H1843 0.961 . S
C1856 H1844 0.959 . S
C1856 C1854 1.561 . S
C1857 C1854 1.526 . S
C1857 C1858 1.396 . S
C1857 C1862 1.390 . S
C1858 C1852 1.465 . S
C1858 C1857 1.396 . S
C1858 C1859 1.399 . S
C1859 H1845 0.929 . S
C1859 C1858 1.399 . S
C1859 C1860 1.385 . S
C1860 H1846 0.931 . S
C1860 C1859 1.385 . S
C1860 C1861 1.389 . S
C1861 C1860 1.389 . S
C1861 C1862 1.387 . S
C1862 H1847 0.930 . S
C1862 C1857 1.390 . S
C1862 C1861 1.387 . S
H1863 C1875 0.930 . S
H1864 C1877 0.930 . S
H1865 C1878 0.930 . S
H1866 C1882 0.959 . S
H1867 C1882 0.959 . S
H1868 C1882 0.961 . S
H1869 C1883 0.960 . S
H1870 C1883 0.961 . S
H1871 C1883 0.959 . S
H1872 C1886 0.929 . S
H1873 C1887 0.931 . S
H1874 C1889 0.930 . S
C1875 H1863 0.930 . S
C1875 C1876 1.399 . S
C1875 C1880 1.399 . S
C1876 C1875 1.399 . S
C1876 C1877 1.376 . S
C1877 H1864 0.930 . S
C1877 C1876 1.376 . S
C1877 C1878 1.388 . S
C1878 H1865 0.930 . S
C1878 C1877 1.388 . S
C1878 C1879 1.390 . S
C1879 C1878 1.390 . S
C1879 C1880 1.394 . S
C1879 C1885 1.465 . S
C1880 C1875 1.399 . S
C1880 C1879 1.394 . S
C1880 C1881 1.516 . S
C1881 C1880 1.516 . S
C1881 C1882 1.502 . S
C1881 C1883 1.561 . S
C1881 C1884 1.526 . S
C1882 H1866 0.959 . S
C1882 H1867 0.959 . S
C1882 H1868 0.961 . S
C1882 C1881 1.502 . S
C1883 H1869 0.960 . S
C1883 H1870 0.961 . S
C1883 H1871 0.959 . S
C1883 C1881 1.561 . S
C1884 C1881 1.526 . S
C1884 C1885 1.396 . S
C1884 C1889 1.390 . S
C1885 C1879 1.465 . S
C1885 C1884 1.396 . S
C1885 C1886 1.399 . S
C1886 H1872 0.929 . S
C1886 C1885 1.399 . S
C1886 C1887 1.385 . S
C1887 H1873 0.931 . S
C1887 C1886 1.385 . S
C1887 C1888 1.389 . S
C1888 C1887 1.389 . S
C1888 C1889 1.387 . S
C1889 H1874 0.930 . S
C1889 C1884 1.390 . S
C1889 C1888 1.387 . S
H1890 C1902 0.930 . S
H1891 C1904 0.930 . S
H1892 C1905 0.930 . S
H1893 C1909 0.959 . S
H1894 C1909 0.959 . S
H1895 C1909 0.961 . S
H1896 C1910 0.960 . S
H1897 C1910 0.961 . S
H1898 C1910 0.959 . S
H1899 C1913 0.929 . S
H1900 C1914 0.931 . S
H1901 C1916 0.930 . S
C1902 H1890 0.930 . S
C1902 C1903 1.399 . S
C1902 C1907 1.399 . S
C1903 C1902 1.399 . S
C1903 C1904 1.376 . S
C1904 H1891 0.930 . S
C1904 C1903 1.376 . S
C1904 C1905 1.388 . S
C1905 H1892 0.930 . S
C1905 C1904 1.388 . S
C1905 C1906 1.390 . S
C1906 C1905 1.390 . S
C1906 C1907 1.394 . S
C1906 C1912 1.465 . S
C1907 C1902 1.399 . S
C1907 C1906 1.394 . S
C1907 C1908 1.516 . S
C1908 C1907 1.516 . S
C1908 C1909 1.502 . S
C1908 C1910 1.561 . S
C1908 C1911 1.526 . S
C1909 H1893 0.959 . S
C1909 H1894 0.959 . S
C1909 H1895 0.961 . S
C1909 C1908 1.502 . S
C1910 H1896 0.960 . S
C1910 H1897 0.961 . S
C1910 H1898 0.959 . S
C1910 C1908 1.561 . S
C1911 C1908 1.526 . S
C1911 C1912 1.396 . S
C1911 C1916 1.390 . S
C1912 C1906 1.465 . S
C1912 C1911 1.396 . S
C1912 C1913 1.399 . S
C1913 H1899 0.929 . S
C1913 C1912 1.399 . S
C1913 C1914 1.385 . S
C1914 H1900 0.931 . S
C1914 C1913 1.385 . S
C1914 C1915 1.389 . S
C1915 C1914 1.389 . S
C1915 C1916 1.387 . S
C1916 H1901 0.930 . S
C1916 C1911 1.390 . S
C1916 C1915 1.387 . S
H1917 C1929 0.930 . S
H1918 C1931 0.930 . S
H1919 C1932 0.930 . S
H1920 C1936 0.959 . S
H1921 C1936 0.959 . S
H1922 C1936 0.961 . S
H1923 C1937 0.960 . S
H1924 C1937 0.961 . S
H1925 C1937 0.959 . S
H1926 C1940 0.929 . S
H1927 C1941 0.931 . S
H1928 C1943 0.930 . S
C1929 H1917 0.930 . S
C1929 C1930 1.399 . S
C1929 C1934 1.399 . S
C1930 C1929 1.399 . S
C1930 C1931 1.376 . S
C1931 H1918 0.930 . S
C1931 C1930 1.376 . S
C1931 C1932 1.388 . S
C1932 H1919 0.930 . S
C1932 C1931 1.388 . S
C1932 C1933 1.390 . S
C1933 C1932 1.390 . S
C1933 C1934 1.394 . S
C1933 C1939 1.465 . S
C1934 C1929 1.399 . S
C1934 C1933 1.394 . S
C1934 C1935 1.516 . S
C1935 C1934 1.516 . S
C1935 C1936 1.502 . S
C1935 C1937 1.561 . S
C1935 C1938 1.526 . S
C1936 H1920 0.959 . S
C1936 H1921 0.959 . S
C1936 H1922 0.961 . S
C1936 C1935 1.502 . S
C1937 H1923 0.960 . S
C1937 H1924 0.961 . S
C1937 H1925 0.959 . S
C1937 C1935 1.561 . S
C1938 C1935 1.526 . S
C1938 C1939 1.396 . S
C1938 C1943 1.390 . S
C1939 C1933 1.465 . S
C1939 C1938 1.396 . S
C1939 C1940 1.399 . S
C1940 H1926 0.929 . S
C1940 C1939 1.399 . S
C1940 C1941 1.385 . S
C1941 H1927 0.931 . S
C1941 C1940 1.385 . S
C1941 C1942 1.389 . S
C1942 C1941 1.389 . S
C1942 C1943 1.387 . S
C1943 H1928 0.930 . S
C1943 C1938 1.390 . S
C1943 C1942 1.387 . S
H1944 C1956 0.930 . S
H1945 C1958 0.930 . S
H1946 C1959 0.930 . S
H1947 C1963 0.959 . S
H1948 C1963 0.959 . S
H1949 C1963 0.961 . S
H1950 C1964 0.960 . S
H1951 C1964 0.961 . S
H1952 C1964 0.959 . S
H1953 C1967 0.929 . S
H1954 C1968 0.931 . S
H1955 C1970 0.930 . S
C1956 H1944 0.930 . S
C1956 C1957 1.399 . S
C1956 C1961 1.399 . S
C1957 C1956 1.399 . S
C1957 C1958 1.376 . S
C1958 H1945 0.930 . S
C1958 C1957 1.376 . S
C1958 C1959 1.388 . S
C1959 H1946 0.930 . S
C1959 C1958 1.388 . S
C1959 C1960 1.390 . S
C1960 C1959 1.390 . S
C1960 C1961 1.394 . S
C1960 C1966 1.465 . S
C1961 C1956 1.399 . S
C1961 C1960 1.394 . S
C1961 C1962 1.516 . S
C1962 C1961 1.516 . S
C1962 C1963 1.502 . S
C1962 C1964 1.561 . S
C1962 C1965 1.526 . S
C1963 H1947 0.959 . S
C1963 H1948 0.959 . S
C1963 H1949 0.961 . S
C1963 C1962 1.502 . S
C1964 H1950 0.960 . S
C1964 H1951 0.961 . S
C1964 H1952 0.959 . S
C1964 C1962 1.561 . S
C1965 C1962 1.526 . S
C1965 C1966 1.396 . S
C1965 C1970 1.390 . S
C1966 C1960 1.465 . S
C1966 C1965 1.396 . S
C1966 C1967 1.399 . S
C1967 H1953 0.929 . S
C1967 C1966 1.399 . S
C1967 C1968 1.385 . S
C1968 H1954 0.931 . S
C1968 C1967 1.385 . S
C1968 C1969 1.389 . S
C1969 C1968 1.389 . S
C1969 C1970 1.387 . S
C1970 H1955 0.930 . S
C1970 C1965 1.390 . S
C1970 C1969 1.387 . S
H1971 C1983 0.930 . S
H1972 C1985 0.930 . S
H1973 C1986 0.930 . S
H1974 C1990 0.959 . S
H1975 C1990 0.959 . S
H1976 C1990 0.961 . S
H1977 C1991 0.960 . S
H1978 C1991 0.961 . S
H1979 C1991 0.959 . S
H1980 C1994 0.929 . S
H1981 C1995 0.931 . S
H1982 C1997 0.930 . S
C1983 H1971 0.930 . S
C1983 C1984 1.399 . S
C1983 C1988 1.399 . S
C1984 C1983 1.399 . S
C1984 C1985 1.376 . S
C1985 H1972 0.930 . S
C1985 C1984 1.376 . S
C1985 C1986 1.388 . S
C1986 H1973 0.930 . S
C1986 C1985 1.388 . S
C1986 C1987 1.390 . S
C1987 C1986 1.390 . S
C1987 C1988 1.394 . S
C1987 C1993 1.465 . S
C1988 C1983 1.399 . S
C1988 C1987 1.394 . S
C1988 C1989 1.516 . S
C1989 C1988 1.516 . S
C1989 C1990 1.502 . S
C1989 C1991 1.561 . S
C1989 C1992 1.526 . S
C1990 H1974 0.959 . S
C1990 H1975 0.959 . S
C1990 H1976 0.961 . S
C1990 C1989 1.502 . S
C1991 H1977 0.960 . S
C1991 H1978 0.961 . S
C1991 H1979 0.959 . S
C1991 C1989 1.561 . S
C1992 C1989 1.526 . S
C1992 C1993 1.396 . S
C1992 C1997 1.390 . S
C1993 C1987 1.465 . S
C1993 C1992 1.396 . S
C1993 C1994 1.399 . S
C1994 H1980 0.929 . S
C1994 C1993 1.399 . S
C1994 C1995 1.385 . S
C1995 H1981 0.931 . S
C1995 C1994 1.385 . S
C1995 C1996 1.389 . S
C1996 C1995 1.389 . S
C1996 C1997 1.387 . S
C1997 H1982 0.930 . S
C1997 C1992 1.390 . S
C1997 C1996 1.387 . S
H1998 C2010 0.930 . S
H1999 C2012 0.930 . S
H2000 C2013 0.930 . S
H2001 C2017 0.959 . S
H2002 C2017 0.959 . S
H2003 C2017 0.961 . S
H2004 C2018 0.960 . S
H2005 C2018 0.961 . S
H2006 C2018 0.959 . S
H2007 C2021 0.929 . S
H2008 C2022 0.931 . S
H2009 C2024 0.930 . S
C2010 H1998 0.930 . S
C2010 C2011 1.399 . S
C2010 C2015 1.399 . S
C2011 C2010 1.399 . S
C2011 C2012 1.376 . S
C2012 H1999 0.930 . S
C2012 C2011 1.376 . S
C2012 C2013 1.388 . S
C2013 H2000 0.930 . S
C2013 C2012 1.388 . S
C2013 C2014 1.390 . S
C2014 C2013 1.390 . S
C2014 C2015 1.394 . S
C2014 C2020 1.465 . S
C2015 C2010 1.399 . S
C2015 C2014 1.394 . S
C2015 C2016 1.516 . S
C2016 C2015 1.516 . S
C2016 C2017 1.502 . S
C2016 C2018 1.561 . S
C2016 C2019 1.526 . S
C2017 H2001 0.959 . S
C2017 H2002 0.959 . S
C2017 H2003 0.961 . S
C2017 C2016 1.502 . S
C2018 H2004 0.960 . S
C2018 H2005 0.961 . S
C2018 H2006 0.959 . S
C2018 C2016 1.561 . S
C2019 C2016 1.526 . S
C2019 C2020 1.396 . S
C2019 C2024 1.390 . S
C2020 C2014 1.465 . S
C2020 C2019 1.396 . S
C2020 C2021 1.399 . S
C2021 H2007 0.929 . S
C2021 C2020 1.399 . S
C2021 C2022 1.385 . S
C2022 H2008 0.931 . S
C2022 C2021 1.385 . S
C2022 C2023 1.389 . S
C2023 C2022 1.389 . S
C2023 C2024 1.387 . S
C2024 H2009 0.930 . S
C2024 C2019 1.390 . S
C2024 C2023 1.387 . S
H2025 C2037 0.930 . S
H2026 C2039 0.930 . S
H2027 C2040 0.930 . S
H2028 C2044 0.959 . S
H2029 C2044 0.959 . S
H2030 C2044 0.961 . S
H2031 C2045 0.960 . S
H2032 C2045 0.961 . S
H2033 C2045 0.959 . S
H2034 C2048 0.929 . S
H2035 C2049 0.931 . S
H2036 C2051 0.930 . S
C2037 H2025 0.930 . S
C2037 C2038 1.399 . S
C2037 C2042 1.399 . S
C2038 C2037 1.399 . S
C2038 C2039 1.376 . S
C2039 H2026 0.930 . S
C2039 C2038 1.376 . S
C2039 C2040 1.388 . S
C2040 H2027 0.930 . S
C2040 C2039 1.388 . S
C2040 C2041 1.390 . S
C2041 C2040 1.390 . S
C2041 C2042 1.394 . S
C2041 C2047 1.465 . S
C2042 C2037 1.399 . S
C2042 C2041 1.394 . S
C2042 C2043 1.516 . S
C2043 C2042 1.516 . S
C2043 C2044 1.502 . S
C2043 C2045 1.561 . S
C2043 C2046 1.526 . S
C2044 H2028 0.959 . S
C2044 H2029 0.959 . S
C2044 H2030 0.961 . S
C2044 C2043 1.502 . S
C2045 H2031 0.960 . S
C2045 H2032 0.961 . S
C2045 H2033 0.959 . S
C2045 C2043 1.561 . S
C2046 C2043 1.526 . S
C2046 C2047 1.396 . S
C2046 C2051 1.390 . S
C2047 C2041 1.465 . S
C2047 C2046 1.396 . S
C2047 C2048 1.399 . S
C2048 H2034 0.929 . S
C2048 C2047 1.399 . S
C2048 C2049 1.385 . S
C2049 H2035 0.931 . S
C2049 C2048 1.385 . S
C2049 C2050 1.389 . S
C2050 C2049 1.389 . S
C2050 C2051 1.387 . S
C2051 H2036 0.930 . S
C2051 C2046 1.390 . S
C2051 C2050 1.387 . S
H2052 C2064 0.930 . S
H2053 C2066 0.930 . S
H2054 C2067 0.930 . S
H2055 C2071 0.959 . S
H2056 C2071 0.959 . S
H2057 C2071 0.961 . S
H2058 C2072 0.960 . S
H2059 C2072 0.961 . S
H2060 C2072 0.959 . S
H2061 C2075 0.929 . S
H2062 C2076 0.931 . S
H2063 C2078 0.930 . S
C2064 H2052 0.930 . S
C2064 C2065 1.399 . S
C2064 C2069 1.399 . S
C2065 C2064 1.399 . S
C2065 C2066 1.376 . S
C2066 H2053 0.930 . S
C2066 C2065 1.376 . S
C2066 C2067 1.388 . S
C2067 H2054 0.930 . S
C2067 C2066 1.388 . S
C2067 C2068 1.390 . S
C2068 C2067 1.390 . S
C2068 C2069 1.394 . S
C2068 C2074 1.465 . S
C2069 C2064 1.399 . S
C2069 C2068 1.394 . S
C2069 C2070 1.516 . S
C2070 C2069 1.516 . S
C2070 C2071 1.502 . S
C2070 C2072 1.561 . S
C2070 C2073 1.526 . S
C2071 H2055 0.959 . S
C2071 H2056 0.959 . S
C2071 H2057 0.961 . S
C2071 C2070 1.502 . S
C2072 H2058 0.960 . S
C2072 H2059 0.961 . S
C2072 H2060 0.959 . S
C2072 C2070 1.561 . S
C2073 C2070 1.526 . S
C2073 C2074 1.396 . S
C2073 C2078 1.390 . S
C2074 C2068 1.465 . S
C2074 C2073 1.396 . S
C2074 C2075 1.399 . S
C2075 H2061 0.929 . S
C2075 C2074 1.399 . S
C2075 C2076 1.385 . S
C2076 H2062 0.931 . S
C2076 C2075 1.385 . S
C2076 C2077 1.389 . S
C2077 C2076 1.389 . S
C2077 C2078 1.387 . S
C2078 H2063 0.930 . S
C2078 C2073 1.390 . S
C2078 C2077 1.387 . S
H2079 C2091 0.930 . S
H2080 C2093 0.930 . S
H2081 C2094 0.930 . S
H2082 C2098 0.959 . S
H2083 C2098 0.959 . S
H2084 C2098 0.961 . S
H2085 C2099 0.960 . S
H2086 C2099 0.961 . S
H2087 C2099 0.959 . S
H2088 C2102 0.929 . S
H2089 C2103 0.931 . S
H2090 C2105 0.930 . S
C2091 H2079 0.930 . S
C2091 C2092 1.399 . S
C2091 C2096 1.399 . S
C2092 C2091 1.399 . S
C2092 C2093 1.376 . S
C2093 H2080 0.930 . S
C2093 C2092 1.376 . S
C2093 C2094 1.388 . S
C2094 H2081 0.930 . S
C2094 C2093 1.388 . S
C2094 C2095 1.390 . S
C2095 C2094 1.390 . S
C2095 C2096 1.394 . S
C2095 C2101 1.465 . S
C2096 C2091 1.399 . S
C2096 C2095 1.394 . S
C2096 C2097 1.516 . S
C2097 C2096 1.516 . S
C2097 C2098 1.502 . S
C2097 C2099 1.561 . S
C2097 C2100 1.526 . S
C2098 H2082 0.959 . S
C2098 H2083 0.959 . S
C2098 H2084 0.961 . S
C2098 C2097 1.502 . S
C2099 H2085 0.960 . S
C2099 H2086 0.961 . S
C2099 H2087 0.959 . S
C2099 C2097 1.561 . S
C2100 C2097 1.526 . S
C2100 C2101 1.396 . S
C2100 C2105 1.390 . S
C2101 C2095 1.465 . S
C2101 C2100 1.396 . S
C2101 C2102 1.399 . S
C2102 H2088 0.929 . S
C2102 C2101 1.399 . S
C2102 C2103 1.385 . S
C2103 H2089 0.931 . S
C2103 C2102 1.385 . S
C2103 C2104 1.389 . S
C2104 C2103 1.389 . S
C2104 C2105 1.387 . S
C2105 H2090 0.930 . S
C2105 C2100 1.390 . S
C2105 C2104 1.387 . S
H2106 C2118 0.930 . S
H2107 C2120 0.930 . S
H2108 C2121 0.930 . S
H2109 C2125 0.959 . S
H2110 C2125 0.959 . S
H2111 C2125 0.961 . S
H2112 C2126 0.960 . S
H2113 C2126 0.961 . S
H2114 C2126 0.959 . S
H2115 C2129 0.929 . S
H2116 C2130 0.931 . S
H2117 C2132 0.930 . S
C2118 H2106 0.930 . S
C2118 C2119 1.399 . S
C2118 C2123 1.399 . S
C2119 C2118 1.399 . S
C2119 C2120 1.376 . S
C2120 H2107 0.930 . S
C2120 C2119 1.376 . S
C2120 C2121 1.388 . S
C2121 H2108 0.930 . S
C2121 C2120 1.388 . S
C2121 C2122 1.390 . S
C2122 C2121 1.390 . S
C2122 C2123 1.394 . S
C2122 C2128 1.465 . S
C2123 C2118 1.399 . S
C2123 C2122 1.394 . S
C2123 C2124 1.516 . S
C2124 C2123 1.516 . S
C2124 C2125 1.502 . S
C2124 C2126 1.561 . S
C2124 C2127 1.526 . S
C2125 H2109 0.959 . S
C2125 H2110 0.959 . S
C2125 H2111 0.961 . S
C2125 C2124 1.502 . S
C2126 H2112 0.960 . S
C2126 H2113 0.961 . S
C2126 H2114 0.959 . S
C2126 C2124 1.561 . S
C2127 C2124 1.526 . S
C2127 C2128 1.396 . S
C2127 C2132 1.390 . S
C2128 C2122 1.465 . S
C2128 C2127 1.396 . S
C2128 C2129 1.399 . S
C2129 H2115 0.929 . S
C2129 C2128 1.399 . S
C2129 C2130 1.385 . S
C2130 H2116 0.931 . S
C2130 C2129 1.385 . S
C2130 C2131 1.389 . S
C2131 C2130 1.389 . S
C2131 C2132 1.387 . S
C2132 H2117 0.930 . S
C2132 C2127 1.390 . S
C2132 C2131 1.387 . S
H2133 C2145 0.930 . S
H2134 C2147 0.930 . S
H2135 C2148 0.930 . S
H2136 C2152 0.959 . S
H2137 C2152 0.959 . S
H2138 C2152 0.961 . S
H2139 C2153 0.960 . S
H2140 C2153 0.961 . S
H2141 C2153 0.959 . S
H2142 C2156 0.929 . S
H2143 C2157 0.931 . S
H2144 C2159 0.930 . S
C2145 H2133 0.930 . S
C2145 C2146 1.399 . S
C2145 C2150 1.399 . S
C2146 C2145 1.399 . S
C2146 C2147 1.376 . S
C2147 H2134 0.930 . S
C2147 C2146 1.376 . S
C2147 C2148 1.388 . S
C2148 H2135 0.930 . S
C2148 C2147 1.388 . S
C2148 C2149 1.390 . S
C2149 C2148 1.390 . S
C2149 C2150 1.394 . S
C2149 C2155 1.465 . S
C2150 C2145 1.399 . S
C2150 C2149 1.394 . S
C2150 C2151 1.516 . S
C2151 C2150 1.516 . S
C2151 C2152 1.502 . S
C2151 C2153 1.561 . S
C2151 C2154 1.526 . S
C2152 H2136 0.959 . S
C2152 H2137 0.959 . S
C2152 H2138 0.961 . S
C2152 C2151 1.502 . S
C2153 H2139 0.960 . S
C2153 H2140 0.961 . S
C2153 H2141 0.959 . S
C2153 C2151 1.561 . S
C2154 C2151 1.526 . S
C2154 C2155 1.396 . S
C2154 C2159 1.390 . S
C2155 C2149 1.465 . S
C2155 C2154 1.396 . S
C2155 C2156 1.399 . S
C2156 H2142 0.929 . S
C2156 C2155 1.399 . S
C2156 C2157 1.385 . S
C2157 H2143 0.931 . S
C2157 C2156 1.385 . S
C2157 C2158 1.389 . S
C2158 C2157 1.389 . S
C2158 C2159 1.387 . S
C2159 H2144 0.930 . S
C2159 C2154 1.390 . S
C2159 C2158 1.387 . S
C877 C544 1.263 . S
C889 C4 1.252 . S
C904 C40 1.301 . S
C916 C580 1.306 . S
C931 C76 1.294 . S
C943 C616 1.284 . S
C958 C112 1.308 . S
C970 C436 1.307 . S
C985 C472 1.303 . S
C997 C148 1.307 . S
C1012 C184 1.274 . S
C1024 C508 1.286 . S
C1039 C760 1.233 . S
C1051 C220 1.230 . S
C1066 C256 1.305 . S
C1078 C796 1.307 . S
C1093 C292 1.291 . S
C1105 C832 1.280 . S
C1120 C652 1.303 . S
C1132 C328 1.307 . S
C1147 C364 1.308 . S
C1159 C688 1.307 . S
C1174 C724 1.301 . S
C1186 C400 1.293 . S
C1201 C14 1.425 . S
C1213 C842 1.438 . S
C1228 C662 1.372 . S
C1240 C50 1.381 . S
C1255 C86 1.402 . S
C1267 C698 1.390 . S
C1282 C734 1.460 . S
C1294 C122 1.460 . S
C1309 C158 1.422 . S
C1321 C770 1.435 . S
C1336 C806 1.369 . S
C1348 C194 1.371 . S
C1363 C230 1.461 . S
C1375 C482 1.458 . S
C1390 C518 1.370 . S
C1402 C266 1.370 . S
C1417 C554 1.461 . S
C1429 C302 1.459 . S
C1444 C590 1.445 . S
C1456 C338 1.454 . S
C1471 C374 1.413 . S
C1483 C626 1.427 . S
C1498 C410 1.418 . S
C1510 C446 1.432 . S
C1525 C255 1.195 . S
C1537 C3 1.235 . S
C1552 C291 1.196 . S
C1564 C39 1.202 . S
C1579 C327 1.238 . S
C1591 C75 1.200 . S
C1606 C363 1.212 . S
C1618 C111 1.190 . S
C1633 C147 1.238 . S
C1645 C399 1.201 . S
C1660 C183 1.188 . S
C1672 C219 1.222 . S
C1687 C435 1.198 . S
C1699 C687 1.239 . S
C1714 C471 1.223 . S
C1726 C723 1.192 . S
C1741 C759 1.204 . S
C1753 C507 1.207 . S
C1768 C795 1.239 . S
C1780 C543 1.199 . S
C1795 C831 1.189 . S
C1807 C579 1.236 . S
C1822 C651 1.209 . S
C1834 C615 1.203 . S
C1849 C2 1.529 . S
C1861 C686 1.524 . S
C1876 C722 1.513 . S
C1888 C38 1.516 . S
C1903 C74 1.528 . S
C1915 C758 1.534 . S
C1930 C794 1.514 . S
C1942 C110 1.519 . S
C1957 C146 1.522 . S
C1969 C830 1.527 . S
C1984 C650 1.515 . S
C1996 C182 1.519 . S
C2011 C218 1.521 . S
C2023 C614 1.527 . S
C2038 C434 1.537 . S
C2050 C254 1.532 . S
C2065 C290 1.521 . S
C2077 C470 1.526 . S
C2092 C326 1.524 . S
C2104 C506 1.530 . S
C2119 C362 1.538 . S
C2131 C542 1.533 . S
C2146 C398 1.525 . S
C2158 C578 1.520 . S
