# Generated by pormake.
# Topology ung, (4)-cn, num edge types: 1
# Building blocks:
#     Node 0, Type 0, BuildingBlock: CEKHIL_clean_sbu_0, # of connection points: 4
#     Node 1, Type 0, BuildingBlock: CEKHIL_clean_sbu_0, # of connection points: 4
#     Node 2, Type 0, BuildingBlock: CEKHIL_clean_sbu_0, # of connection points: 4
#     Node 3, Type 0, BuildingBlock: CEKHIL_clean_sbu_0, # of connection points: 4
#     Node 4, Type 0, BuildingBlock: CEKHIL_clean_sbu_0, # of connection points: 4
#     Node 5, Type 0, BuildingBlock: CEKHIL_clean_sbu_0, # of connection points: 4
#     Node 6, Type 0, BuildingBlock: CEKHIL_clean_sbu_0, # of connection points: 4
#     Node 7, Type 0, BuildingBlock: CEKHIL_clean_sbu_0, # of connection points: 4
#     Node 8, Type 0, BuildingBlock: CEKHIL_clean_sbu_0, # of connection points: 4
#     Node 9, Type 0, BuildingBlock: CEKHIL_clean_sbu_0, # of connection points: 4
#     Node 10, Type 0, BuildingBlock: CEKHIL_clean_sbu_0, # of connection points: 4
#     Node 11, Type 0, BuildingBlock: CEKHIL_clean_sbu_0, # of connection points: 4
#     Node 12, Type 0, BuildingBlock: CEKHIL_clean_sbu_0, # of connection points: 4
#     Node 13, Type 0, BuildingBlock: CEKHIL_clean_sbu_0, # of connection points: 4
#     Node 14, Type 0, BuildingBlock: CEKHIL_clean_sbu_0, # of connection points: 4
#     Node 15, Type 0, BuildingBlock: CEKHIL_clean_sbu_0, # of connection points: 4
#     Node 16, Type 0, BuildingBlock: CEKHIL_clean_sbu_0, # of connection points: 4
#     Node 17, Type 0, BuildingBlock: CEKHIL_clean_sbu_0, # of connection points: 4
#     Edge 18, Type (0, 0), BuildingBlock: ZUJKAS_clean_linker_0, # of connection points: 2
#     Edge 19, Type (0, 0), BuildingBlock: ZUJKAS_clean_linker_0, # of connection points: 2
#     Edge 20, Type (0, 0), BuildingBlock: ZUJKAS_clean_linker_0, # of connection points: 2
#     Edge 21, Type (0, 0), BuildingBlock: ZUJKAS_clean_linker_0, # of connection points: 2
#     Edge 22, Type (0, 0), BuildingBlock: ZUJKAS_clean_linker_0, # of connection points: 2
#     Edge 23, Type (0, 0), BuildingBlock: ZUJKAS_clean_linker_0, # of connection points: 2
#     Edge 24, Type (0, 0), BuildingBlock: ZUJKAS_clean_linker_0, # of connection points: 2
#     Edge 25, Type (0, 0), BuildingBlock: ZUJKAS_clean_linker_0, # of connection points: 2
#     Edge 26, Type (0, 0), BuildingBlock: ZUJKAS_clean_linker_0, # of connection points: 2
#     Edge 27, Type (0, 0), BuildingBlock: ZUJKAS_clean_linker_0, # of connection points: 2
#     Edge 28, Type (0, 0), BuildingBlock: ZUJKAS_clean_linker_0, # of connection points: 2
#     Edge 29, Type (0, 0), BuildingBlock: ZUJKAS_clean_linker_0, # of connection points: 2
#     Edge 30, Type (0, 0), BuildingBlock: ZUJKAS_clean_linker_0, # of connection points: 2
#     Edge 31, Type (0, 0), BuildingBlock: ZUJKAS_clean_linker_0, # of connection points: 2
#     Edge 32, Type (0, 0), BuildingBlock: ZUJKAS_clean_linker_0, # of connection points: 2
#     Edge 33, Type (0, 0), BuildingBlock: ZUJKAS_clean_linker_0, # of connection points: 2
#     Edge 34, Type (0, 0), BuildingBlock: ZUJKAS_clean_linker_0, # of connection points: 2
#     Edge 35, Type (0, 0), BuildingBlock: ZUJKAS_clean_linker_0, # of connection points: 2
#     Edge 36, Type (0, 0), BuildingBlock: ZUJKAS_clean_linker_0, # of connection points: 2
#     Edge 37, Type (0, 0), BuildingBlock: ZUJKAS_clean_linker_0, # of connection points: 2
#     Edge 38, Type (0, 0), BuildingBlock: ZUJKAS_clean_linker_0, # of connection points: 2
#     Edge 39, Type (0, 0), BuildingBlock: ZUJKAS_clean_linker_0, # of connection points: 2
#     Edge 40, Type (0, 0), BuildingBlock: ZUJKAS_clean_linker_0, # of connection points: 2
#     Edge 41, Type (0, 0), BuildingBlock: ZUJKAS_clean_linker_0, # of connection points: 2
#     Edge 42, Type (0, 0), BuildingBlock: ZUJKAS_clean_linker_0, # of connection points: 2
#     Edge 43, Type (0, 0), BuildingBlock: ZUJKAS_clean_linker_0, # of connection points: 2
#     Edge 44, Type (0, 0), BuildingBlock: ZUJKAS_clean_linker_0, # of connection points: 2
#     Edge 45, Type (0, 0), BuildingBlock: ZUJKAS_clean_linker_0, # of connection points: 2
#     Edge 46, Type (0, 0), BuildingBlock: ZUJKAS_clean_linker_0, # of connection points: 2
#     Edge 47, Type (0, 0), BuildingBlock: ZUJKAS_clean_linker_0, # of connection points: 2
#     Edge 48, Type (0, 0), BuildingBlock: ZUJKAS_clean_linker_0, # of connection points: 2
#     Edge 49, Type (0, 0), BuildingBlock: ZUJKAS_clean_linker_0, # of connection points: 2
#     Edge 50, Type (0, 0), BuildingBlock: ZUJKAS_clean_linker_0, # of connection points: 2
#     Edge 51, Type (0, 0), BuildingBlock: ZUJKAS_clean_linker_0, # of connection points: 2
#     Edge 52, Type (0, 0), BuildingBlock: ZUJKAS_clean_linker_0, # of connection points: 2
#     Edge 53, Type (0, 0), BuildingBlock: ZUJKAS_clean_linker_0, # of connection points: 2
# Relax obj value: 0.073
# Max RMSD: 0.188
# Mean RMSD: 0.184
data_MOF--net-ung--node1-CEKHIL_clean_sbu_0--edge1-ZUJKAS_clean_linker_0
_symmetry_space_group_name_H-M    P1
_symmetry_Int_Tables_number       1
_symmetry_cell_setting            triclinic
loop_
_symmetry_equiv_pos_as_xyz
'x, y, z'
_cell_length_a     94.162229
_cell_length_b     94.545661
_cell_length_c     28.815097
_cell_angle_alpha  90.705486
_cell_angle_beta   90.789737
_cell_angle_gamma 119.99915
loop_
_atom_site_label
_atom_site_type_symbol
_atom_site_fract_x
_atom_site_fract_y
_atom_site_fract_z
_atom_type_partial_charge
Co0 Co 0.07165 0.62441 0.25446 0.0
O1 O 0.08301 0.61622 0.29067 0.0
O2 O 0.05622 0.60276 0.27582 0.0
C3 C 0.0832 0.64908 0.28931 0.0
O4 O 0.05602 0.62972 0.21895 0.0
Co5 Co 0.09208 0.65365 0.1906 0.0
O6 O 0.07162 0.65477 0.18984 0.0
C7 C 0.08367 0.62056 0.15965 0.0
C8 C 0.06889 0.60329 0.29646 0.0
C9 C 0.05767 0.64258 0.19902 0.0
O10 O 0.07541 0.61491 0.19664 0.0
O11 O 0.09199 0.63585 0.15136 0.0
O12 O 0.07084 0.63663 0.30765 0.0
O13 O 0.08936 0.64587 0.25349 0.0
Co14 Co 0.49477 0.49035 0.22767 0.0
O15 O 0.51411 0.50007 0.19168 0.0
O16 O 0.49874 0.5113 0.20457 0.0
C17 C 0.48402 0.46564 0.19297 0.0
O18 O 0.47357 0.48296 0.26315 0.0
Co19 Co 0.48951 0.46223 0.292 0.0
O20 O 0.46685 0.45846 0.29239 0.0
C21 C 0.51265 0.49621 0.32119 0.0
C22 C 0.51146 0.51205 0.18475 0.0
C23 C 0.46343 0.46959 0.28308 0.0
O24 O 0.50831 0.50116 0.28523 0.0
O25 O 0.50733 0.48109 0.32904 0.0
O26 O 0.48195 0.47699 0.1748 0.0
O27 O 0.49368 0.47 0.22915 0.0
Co28 Co 0.62553 0.0534 0.25937 0.0
O29 O 0.6064 0.04287 0.29635 0.0
O30 O 0.62087 0.06956 0.28671 0.0
C31 C 0.63734 0.03979 0.28949 0.0
O32 O 0.64638 0.06829 0.22392 0.0
Co33 Co 0.63174 0.03227 0.18901 0.0
O34 O 0.65387 0.05186 0.18784 0.0
C35 C 0.60761 0.04232 0.16516 0.0
C36 C 0.60856 0.05721 0.30612 0.0
C37 C 0.65669 0.06601 0.20051 0.0
O38 O 0.61151 0.05085 0.2031 0.0
O39 O 0.61358 0.03321 0.15414 0.0
O40 O 0.63888 0.05275 0.31025 0.0
O41 O 0.62759 0.03466 0.25338 0.0
Co42 Co 0.05348 0.48656 0.73201 0.0
O43 O 0.04465 0.49554 0.68924 0.0
O44 O 0.07097 0.50718 0.70958 0.0
C45 C 0.04063 0.46127 0.70082 0.0
O46 O 0.06657 0.47994 0.77493 0.0
Co47 Co 0.02896 0.45973 0.79664 0.0
O48 O 0.04808 0.45687 0.80931 0.0
C49 C 0.03976 0.49405 0.81861 0.0
C50 C 0.05947 0.50752 0.68476 0.0
C51 C 0.06285 0.46749 0.80047 0.0
O52 O 0.0496 0.49819 0.78457 0.0
O53 O 0.02964 0.47916 0.82811 0.0
O54 O 0.05418 0.47259 0.68365 0.0
O55 O 0.03432 0.46604 0.73277 0.0
Co56 Co 0.62802 0.62302 0.76298 0.0
O57 O 0.6084 0.61568 0.79725 0.0
O58 O 0.62162 0.60194 0.7899 0.0
C59 C 0.64077 0.64847 0.79373 0.0
O60 O 0.64906 0.62758 0.73037 0.0
Co61 Co 0.63713 0.65085 0.69313 0.0
O62 O 0.65872 0.65199 0.69665 0.0
C63 C 0.61131 0.61734 0.66775 0.0
C64 C 0.60945 0.60294 0.80738 0.0
C65 C 0.66037 0.64003 0.70946 0.0
O66 O 0.61459 0.61219 0.70521 0.0
O67 O 0.61817 0.63249 0.65782 0.0
O68 O 0.6411 0.63667 0.81535 0.0
O69 O 0.6316 0.64424 0.75657 0.0
Co70 Co 0.49519 0.06191 0.7333 0.0
O71 O 0.5144 0.07372 0.69709 0.0
O72 O 0.50108 0.04688 0.70438 0.0
C73 C 0.48241 0.07478 0.70448 0.0
O74 O 0.47453 0.04563 0.76713 0.0
Co75 Co 0.48658 0.08042 0.80561 0.0
O76 O 0.46499 0.06006 0.80458 0.0
C77 C 0.51215 0.07223 0.82879 0.0
C78 C 0.51306 0.05979 0.68597 0.0
C79 C 0.46339 0.04652 0.79039 0.0
O80 O 0.50921 0.06453 0.78959 0.0
O81 O 0.50507 0.08022 0.84094 0.0
O82 O 0.48159 0.06227 0.68288 0.0
O83 O 0.49191 0.07995 0.74111 0.0
Co84 Co 0.72206 0.94608 0.55944 0.0
O85 O 0.71881 0.92802 0.52129 0.0
O86 O 0.7429 0.94698 0.55126 0.0
C87 C 0.70737 0.95373 0.51494 0.0
O88 O 0.72969 0.96649 0.60004 0.0
Co89 Co 0.69146 0.94366 0.60638 0.0
O90 O 0.70732 0.96612 0.62852 0.0
C91 C 0.70736 0.92672 0.64762 0.0
C92 C 0.73443 0.93368 0.52632 0.0
C93 C 0.72281 0.97284 0.62428 0.0
O94 O 0.71826 0.93276 0.6163 0.0
O95 O 0.6949 0.92874 0.64849 0.0
O96 O 0.72245 0.9582 0.50529 0.0
O97 O 0.70104 0.94321 0.54765 0.0
Co98 Co 0.15537 0.8268 0.56244 0.0
O99 O 0.17539 0.835 0.52983 0.0
O100 O 0.16262 0.84896 0.54201 0.0
C101 C 0.14275 0.80269 0.5238 0.0
O102 O 0.134 0.82127 0.59495 0.0
Co103 Co 0.1451 0.79629 0.62245 0.0
O104 O 0.12371 0.79554 0.61996 0.0
C105 C 0.17108 0.82852 0.65705 0.0
C106 C 0.17487 0.84825 0.52389 0.0
C107 C 0.12234 0.80805 0.61202 0.0
O108 O 0.16817 0.83521 0.62242 0.0
O109 O 0.16398 0.81303 0.66192 0.0
O110 O 0.14284 0.81536 0.5067 0.0
O111 O 0.1514 0.80533 0.56149 0.0
Co112 Co 0.29335 0.39041 0.56791 0.0
O113 O 0.28237 0.39951 0.53383 0.0
O114 O 0.27253 0.37302 0.54283 0.0
C115 C 0.31793 0.40578 0.53497 0.0
O116 O 0.30172 0.37676 0.6001 0.0
Co117 Co 0.3216 0.41277 0.63583 0.0
O118 O 0.32559 0.39409 0.63661 0.0
C119 C 0.28751 0.39973 0.66491 0.0
C120 C 0.27081 0.38467 0.52489 0.0
C121 C 0.31479 0.37973 0.62312 0.0
O122 O 0.28252 0.39145 0.62656 0.0
O123 O 0.30265 0.40986 0.67422 0.0
O124 O 0.30662 0.39245 0.5148 0.0
O125 O 0.31357 0.41025 0.5723 0.0
Co126 Co 0.72781 0.82822 0.06317 0.0
O127 O 0.7189 0.84056 0.03636 0.0
O128 O 0.74546 0.84986 0.04859 0.0
C129 C 0.71305 0.80568 0.01866 0.0
O130 O 0.74112 0.81842 0.08976 0.0
Co131 Co 0.70462 0.79667 0.11569 0.0
O132 O 0.72307 0.79247 0.10789 0.0
C133 C 0.71792 0.8288 0.16325 0.0
C134 C 0.73388 0.85231 0.03248 0.0
C135 C 0.73771 0.80402 0.10217 0.0
O136 O 0.72602 0.83582 0.12694 0.0
O137 O 0.70811 0.81336 0.16524 0.0
O138 O 0.72641 0.81787 0.00347 0.0
O139 O 0.70815 0.80812 0.05814 0.0
Co140 Co 0.29682 0.94714 0.1016 0.0
O141 O 0.27722 0.93926 0.13612 0.0
O142 O 0.29111 0.92619 0.12892 0.0
C143 C 0.30873 0.97248 0.13264 0.0
O144 O 0.31802 0.95253 0.06833 0.0
Co145 Co 0.30486 0.97497 0.03258 0.0
O146 O 0.32688 0.9771 0.03629 0.0
C147 C 0.27953 0.94118 0.00742 0.0
C148 C 0.27871 0.9268 0.14638 0.0
C149 C 0.32908 0.96539 0.04819 0.0
O150 O 0.28333 0.93605 0.04405 0.0
O151 O 0.28589 0.95635 -0.00183 0.0
O152 O 0.30982 0.96102 0.15379 0.0
O153 O 0.29945 0.96799 0.09571 0.0
Co154 Co 0.16035 0.38887 0.06248 0.0
O155 O 0.18071 0.39848 0.03068 0.0
O156 O 0.16388 0.37186 0.03633 0.0
C157 C 0.15154 0.40483 0.0302 0.0
O158 O 0.13811 0.37467 0.09208 0.0
Co159 Co 0.15353 0.40996 0.13121 0.0
O160 O 0.1308 0.39124 0.12791 0.0
C161 C 0.17461 0.39673 0.16136 0.0
C162 C 0.17743 0.38376 0.02049 0.0
C163 C 0.12763 0.37711 0.11382 0.0
O164 O 0.1719 0.38917 0.12201 0.0
O165 O 0.16917 0.40641 0.17097 0.0
O166 O 0.14945 0.39175 0.00875 0.0
O167 O 0.16003 0.40861 0.06866 0.0
Co168 Co 0.39575 0.28658 0.92338 0.0
O169 O 0.40471 0.27892 0.96985 0.0
O170 O 0.37834 0.2667 0.94978 0.0
C171 C 0.40897 0.31263 0.94902 0.0
O172 O 0.38247 0.29181 0.87703 0.0
Co173 Co 0.41988 0.31132 0.85413 0.0
O174 O 0.40047 0.31285 0.83462 0.0
C175 C 0.40967 0.27669 0.84217 0.0
C176 C 0.38995 0.26705 0.97584 0.0
C177 C 0.38584 0.30273 0.8461 0.0
O178 O 0.39954 0.27344 0.87514 0.0
O179 O 0.41982 0.29126 0.83007 0.0
O180 O 0.39525 0.302 0.96707 0.0
O181 O 0.41508 0.3069 0.91924 0.0
Co182 Co 0.82631 0.15284 0.89291 0.0
O183 O 0.84445 0.1598 0.85268 0.0
O184 O 0.83179 0.17379 0.86645 0.0
C185 C 0.8123 0.1272 0.86353 0.0
O186 O 0.80674 0.14864 0.9327 0.0
Co187 Co 0.82087 0.12593 0.96236 0.0
O188 O 0.80118 0.12724 0.97796 0.0
C189 C 0.84677 0.1597 0.98239 0.0
C190 C 0.84324 0.17259 0.84484 0.0
C191 C 0.79815 0.13819 0.96365 0.0
O192 O 0.84186 0.1642 0.94668 0.0
O193 O 0.84077 0.14472 0.9932 0.0
O194 O 0.81133 0.13898 0.84402 0.0
O195 O 0.8229 0.13152 0.89747 0.0
Co196 Co 0.95522 0.71178 0.92567 0.0
O197 O 0.93542 0.70046 0.95979 0.0
O198 O 0.94989 0.72732 0.95374 0.0
C199 C 0.96667 0.69783 0.95598 0.0
O200 O 0.9766 0.72762 0.89402 0.0
Co201 Co 0.96358 0.6927 0.85446 0.0
O202 O 0.98547 0.71268 0.8561 0.0
C203 C 0.93953 0.70264 0.82845 0.0
C204 C 0.93734 0.71461 0.97099 0.0
C205 C 0.98755 0.72637 0.87082 0.0
O206 O 0.94225 0.71013 0.86792 0.0
O207 O 0.9461 0.6941 0.81713 0.0
O208 O 0.96774 0.71045 0.97758 0.0
O209 O 0.95767 0.69321 0.91833 0.0
Co210 Co 0.38023 0.15119 0.40326 0.0
O211 O 0.36909 0.16017 0.36947 0.0
O212 O 0.3958 0.17329 0.38544 0.0
C213 C 0.36879 0.12734 0.36399 0.0
O214 O 0.3957 0.14519 0.43659 0.0
Co215 Co 0.35972 0.12042 0.4616 0.0
O216 O 0.38019 0.11931 0.45993 0.0
C217 C 0.36788 0.15273 0.49956 0.0
C218 C 0.38326 0.17319 0.36537 0.0
C219 C 0.39411 0.13187 0.45298 0.0
O220 O 0.37613 0.15935 0.46314 0.0
O221 O 0.3597 0.13725 0.50498 0.0
O222 O 0.38138 0.14013 0.34773 0.0
O223 O 0.36245 0.12974 0.40071 0.0
Co224 Co 0.95823 0.28272 0.42528 0.0
O225 O 0.9383 0.2738 0.45865 0.0
O226 O 0.95178 0.26066 0.44438 0.0
C227 C 0.97043 0.30665 0.46477 0.0
O228 O 0.97958 0.28886 0.39206 0.0
Co229 Co 0.9676 0.31305 0.36603 0.0
O230 O 0.98934 0.31455 0.36755 0.0
C231 C 0.94261 0.28062 0.33005 0.0
C232 C 0.93939 0.2608 0.46357 0.0
C233 C 0.99102 0.30219 0.37492 0.0
O234 O 0.94535 0.27421 0.3656 0.0
O235 O 0.94957 0.29608 0.32453 0.0
O236 O 0.97073 0.29405 0.48087 0.0
O237 O 0.96162 0.30406 0.42735 0.0
Co238 Co 0.82865 0.72588 0.40065 0.0
O239 O 0.84653 0.73538 0.35905 0.0
O240 O 0.83234 0.709 0.37375 0.0
C241 C 0.81611 0.73899 0.37191 0.0
O242 O 0.80899 0.71199 0.44149 0.0
Co243 Co 0.82522 0.74895 0.47028 0.0
O244 O 0.8041 0.72923 0.48365 0.0
C245 C 0.84946 0.73878 0.49012 0.0
C246 C 0.8441 0.72083 0.35115 0.0
C247 C 0.80041 0.71483 0.47076 0.0
O248 O 0.84427 0.72944 0.4537 0.0
O249 O 0.8442 0.74845 0.50147 0.0
O250 O 0.81377 0.72548 0.35284 0.0
O251 O 0.82703 0.74496 0.40518 0.0
H252 H 0.05474 0.52665 0.80161 0.0
H253 H 0.06201 0.54882 0.85806 0.0
H254 H 0.03639 0.51374 0.96395 0.0
H255 H 0.02905 0.49135 0.90776 0.0
H256 H 0.04187 0.55607 0.92221 0.0
H257 H 0.08612 0.54144 0.00826 0.0
H258 H 0.07786 0.53416 0.95037 0.0
H259 H 0.06549 0.52472 -0.00016 0.0
C260 C 0.05042 0.52361 0.83673 0.0
C261 C 0.0415 0.50723 0.85041 0.0
C262 C 0.05457 0.5363 0.86884 0.0
C263 C 0.04996 0.53284 0.91511 0.0
C264 C 0.0402 0.51657 0.92834 0.0
H265 H 0.07082 0.58777 0.16906 0.0
H266 H 0.0639 0.56734 0.10752 0.0
C267 C 0.03595 0.50382 0.89616 0.0
C268 C 0.05636 0.54623 0.95009 0.0
H269 H 0.08285 0.56236 0.04303 0.0
C270 C 0.05086 0.55753 0.94861 0.0
C271 C 0.06818 0.54807 0.984 0.0
C272 C 0.07491 0.53656 0.98575 0.0
C273 C 0.05654 0.57042 0.98134 0.0
C274 C 0.06827 0.57218 0.01557 0.0
C275 C 0.07391 0.56098 0.01655 0.0
C276 C 0.07398 0.58487 0.05267 0.0
C277 C 0.04956 0.58172 0.97998 0.0
C278 C 0.08253 0.60153 0.04232 0.0
C279 C 0.08653 0.61332 0.07752 0.0
C280 C 0.08204 0.60857 0.12353 0.0
C281 C 0.07432 0.59188 0.13395 0.0
C282 C 0.07035 0.58016 0.09884 0.0
H283 H 0.03823 0.57665 0.95789 0.0
H284 H 0.04669 0.58412 0.01546 0.0
H285 H 0.05876 0.59357 0.96546 0.0
H286 H 0.08574 0.60539 0.0069 0.0
H287 H 0.09252 0.62607 0.06835 0.0
H288 H 0.57926 0.5978 0.82725 0.0
H289 H 0.56207 0.58246 0.89149 0.0
H290 H 0.59628 0.56644 0.92777 0.0
H291 H 0.61371 0.58191 0.86309 0.0
H292 H 0.54736 0.54861 0.91711 0.0
H293 H 0.5942 0.59202 0.04493 0.0
H294 H 0.59457 0.59649 0.98407 0.0
H295 H 0.60124 0.58271 0.00325 0.0
C296 C 0.58301 0.59079 0.8484 0.0
C297 C 0.59789 0.59115 0.84048 0.0
C298 C 0.57316 0.58204 0.88507 0.0
C299 C 0.57807 0.57359 0.91479 0.0
C300 C 0.59244 0.57311 0.90548 0.0
H301 H 0.54272 0.52123 0.16449 0.0
H302 H 0.55851 0.53776 0.10009 0.0
C303 C 0.60229 0.5818 0.86837 0.0
C304 C 0.56854 0.56616 0.95689 0.0
H305 H 0.57047 0.56976 0.07514 0.0
C306 C 0.55236 0.55321 0.95171 0.0
C307 C 0.57509 0.57239 0.00181 0.0
C308 C 0.59218 0.58675 0.00914 0.0
C309 C 0.54268 0.54594 0.9905 0.0
C310 C 0.54928 0.55207 0.03553 0.0
C311 C 0.5654 0.56519 0.04057 0.0
C312 C 0.5403 0.54396 0.0779 0.0
C313 C 0.5257 0.53139 0.98304 0.0
C314 C 0.52509 0.54256 0.08817 0.0
C315 C 0.51597 0.53309 0.1254 0.0
C316 C 0.52201 0.52492 0.15251 0.0
C317 C 0.53771 0.52729 0.14392 0.0
C318 C 0.54676 0.53674 0.10711 0.0
H319 H 0.52374 0.52624 0.94712 0.0
H320 H 0.52349 0.52162 0.00778 0.0
H321 H 0.51647 0.53519 0.98917 0.0
H322 H 0.52004 0.54834 0.06652 0.0
H323 H 0.50389 0.53141 0.13124 0.0
H324 H 0.5905 0.05837 0.17834 0.0
H325 H 0.57396 0.06301 0.12123 0.0
H326 H 0.58328 0.03524 0.0186 0.0
H327 H 0.59967 0.03029 0.07561 0.0
H328 H 0.58481 0.07906 0.03832 0.0
H329 H 0.53371 0.01565 0.00687 0.0
H330 H 0.5477 0.02134 0.05612 0.0
H331 H 0.55373 0.01811 -0.00015 0.0
C332 C 0.5889 0.05306 0.1438 0.0
C333 C 0.59643 0.04393 0.13164 0.0
C334 C 0.57945 0.05576 0.11119 0.0
C335 C 0.57727 0.04935 0.06584 0.0
C336 C 0.58454 0.04003 0.05368 0.0
H337 H 0.53006 0.05701 0.81525 0.0
H338 H 0.5466 0.05245 0.8725 0.0
C339 C 0.59396 0.03726 0.08633 0.0
C340 C 0.56812 0.05317 0.03071 0.0
H341 H 0.53509 0.03581 0.95579 0.0
C342 C 0.57388 0.06962 0.02042 0.0
C343 C 0.55391 0.04082 0.00737 0.0
C344 C 0.54678 0.02299 0.01833 0.0
C345 C 0.56596 0.07404 0.98684 0.0
C346 C 0.55178 0.06169 0.96346 0.0
C347 C 0.54601 0.04524 0.97373 0.0
C348 C 0.54265 0.06551 0.92829 0.0
C349 C 0.57303 0.09186 0.97596 0.0
C350 C 0.53504 0.07449 0.94066 0.0
C351 C 0.52557 0.07718 0.90797 0.0
C352 C 0.52345 0.07082 0.86237 0.0
C353 C 0.53139 0.0621 0.84998 0.0
C354 C 0.54084 0.05943 0.88267 0.0
H355 H 0.58602 0.0993 0.98807 0.0
H356 H 0.57233 0.09352 0.93808 0.0
H357 H 0.56585 0.09662 0.9938 0.0
H358 H 0.53606 0.07905 0.97593 0.0
H359 H 0.51957 0.08386 0.91885 0.0
H360 H 0.61395 0.08488 0.35431 0.0
H361 H 0.59804 0.08605 0.41992 0.0
H362 H 0.56374 0.03455 0.40129 0.0
H363 H 0.57943 0.03326 0.33654 0.0
H364 H 0.56329 0.07606 0.42715 0.0
H365 H 0.5812 0.03939 0.53689 0.0
H366 H 0.5919 0.04922 0.48491 0.0
H367 H 0.57267 0.03037 0.48084 0.0
C368 C 0.60287 0.0739 0.36383 0.0
C369 C 0.59804 0.05896 0.34065 0.0
C370 C 0.59386 0.07456 0.40135 0.0
C371 C 0.57996 0.06028 0.41605 0.0
C372 C 0.57464 0.04561 0.39119 0.0
H373 H 0.50952 0.03296 0.63721 0.0
H374 H 0.52616 0.03307 0.572 0.0
C375 C 0.5836 0.04493 0.35401 0.0
C376 C 0.57112 0.06042 0.45802 0.0
H377 H 0.56024 0.04394 0.56551 0.0
C378 C 0.56272 0.06916 0.45758 0.0
C379 C 0.57034 0.05131 0.4975 0.0
C380 C 0.57961 0.04214 0.50044 0.0
C381 C 0.55321 0.06873 0.49525 0.0
C382 C 0.55237 0.05956 0.53468 0.0
C383 C 0.56085 0.05089 0.53518 0.0
C384 C 0.54302 0.05915 0.57611 0.0
C385 C 0.5438 0.07776 0.49202 0.0
C386 C 0.5474 0.07363 0.601 0.0
C387 C 0.53798 0.07359 0.63796 0.0
C388 C 0.52406 0.05903 0.65115 0.0
C389 C 0.52017 0.04435 0.62784 0.0
C390 C 0.52962 0.04441 0.59053 0.0
H391 H 0.54222 0.08045 0.4555 0.0
H392 H 0.53151 0.07063 0.50743 0.0
H393 H 0.55066 0.08957 0.5115 0.0
H394 H 0.55794 0.08504 0.59125 0.0
H395 H 0.54142 0.08509 0.65554 0.0
H396 H 0.04164 0.58075 0.34169 0.0
H397 H 0.04125 0.56409 0.40699 0.0
H398 H 0.09273 0.58123 0.38988 0.0
H399 H 0.09329 0.598 0.32546 0.0
H400 H 0.05051 0.53974 0.41773 0.0
H401 H 0.09041 0.59591 0.52325 0.0
H402 H 0.08026 0.59622 0.47 0.0
H403 H 0.09856 0.59477 0.46823 0.0
C404 C 0.05277 0.58068 0.35131 0.0
C405 C 0.06754 0.5908 0.329 0.0
C406 C 0.05256 0.57125 0.38866 0.0
C407 C 0.06708 0.57183 0.4039 0.0
C408 C 0.08151 0.58098 0.37938 0.0
H409 H 0.08825 0.52742 0.64063 0.0
H410 H 0.0913 0.54399 0.57219 0.0
C411 C 0.08177 0.59045 0.34242 0.0
C412 C 0.0674 0.56354 0.44673 0.0
H413 H 0.08403 0.57072 0.55659 0.0
C414 C 0.05783 0.54649 0.44808 0.0
C415 C 0.07702 0.57243 0.48619 0.0
C416 C 0.08705 0.59085 0.48721 0.0
C417 C 0.05766 0.53805 0.48793 0.0
C418 C 0.06712 0.54696 0.52753 0.0
C419 C 0.07688 0.56398 0.52601 0.0
C420 C 0.06614 0.53877 0.57164 0.0
C421 C 0.04739 0.51965 0.48736 0.0
C422 C 0.05128 0.53112 0.59492 0.0
C423 C 0.04954 0.52177 0.6336 0.0
C424 C 0.06268 0.52 0.64998 0.0
C425 C 0.07796 0.52862 0.62871 0.0
C426 C 0.07967 0.53798 0.58959 0.0
H427 H 0.04431 0.51449 0.45139 0.0
H428 H 0.05384 0.51419 0.50592 0.0
H429 H 0.03573 0.516 0.50526 0.0
H430 H 0.04083 0.53192 0.58214 0.0
H431 H 0.03767 0.51542 0.64968 0.0
H432 H 0.60187 0.62257 0.58213 0.0
H433 H 0.58418 0.60196 0.52396 0.0
H434 H 0.57712 0.56373 0.61713 0.0
H435 H 0.59451 0.58412 0.67572 0.0
H436 H 0.59012 0.57839 0.48441 0.0
H437 H 0.53038 0.54947 0.57288 0.0
H438 H 0.5474 0.56907 0.5911 0.0
H439 H 0.54693 0.55054 0.60741 0.0
C440 C 0.59639 0.60979 0.59055 0.0
C441 C 0.59965 0.60502 0.63364 0.0
C442 C 0.58631 0.59804 0.55724 0.0
C443 C 0.57923 0.58136 0.56653 0.0
C444 C 0.58221 0.57655 0.60967 0.0
H445 H 0.52237 0.4913 0.40683 0.0
H446 H 0.53926 0.5121 0.4657 0.0
C447 C 0.59226 0.58826 0.643 0.0
C448 C 0.56959 0.56896 0.53008 0.0
H449 H 0.53215 0.53556 0.5057 0.0
C450 C 0.57741 0.56908 0.48886 0.0
C451 C 0.55306 0.55682 0.53627 0.0
C452 C 0.54388 0.5565 0.57912 0.0
C453 C 0.56919 0.55718 0.45384 0.0
C454 C 0.55269 0.545 0.46011 0.0
C455 C 0.54485 0.54488 0.50127 0.0
C456 C 0.54317 0.53252 0.42378 0.0
C457 C 0.57832 0.55753 0.41083 0.0
C458 C 0.53984 0.53718 0.38089 0.0
C459 C 0.53025 0.52539 0.34721 0.0
C460 C 0.52372 0.50867 0.35593 0.0
C461 C 0.52725 0.50405 0.39888 0.0
C462 C 0.53685 0.5159 0.4326 0.0
H463 H 0.59182 0.56494 0.41649 0.0
H464 H 0.57511 0.54499 0.39951 0.0
H465 H 0.57486 0.56307 0.38227 0.0
H466 H 0.5444 0.54995 0.37379 0.0
H467 H 0.52777 0.52941 0.31461 0.0
H468 H 0.711 0.81882 0.25299 0.0
H469 H 0.71821 0.83606 0.32314 0.0
H470 H 0.73917 0.8791 0.2395 0.0
H471 H 0.73238 0.86203 0.16928 0.0
H472 H 0.75905 0.88192 0.31534 0.0
H473 H 0.69479 0.85974 0.36764 0.0
H474 H 0.70001 0.84403 0.36007 0.0
H475 H 0.69977 0.85544 0.31091 0.0
C476 C 0.71698 0.83194 0.24947 0.0
C477 C 0.721 0.83904 0.20552 0.0
C478 C 0.72111 0.84177 0.2896 0.0
C479 C 0.72909 0.85883 0.28641 0.0
C480 C 0.73305 0.86595 0.24265 0.0
H481 H 0.75273 0.94291 0.44936 0.0
H482 H 0.7553 0.92418 0.39534 0.0
C483 C 0.72907 0.85616 0.20257 0.0
C484 C 0.73314 0.86936 0.32854 0.0
H485 H 0.7157 0.87868 0.41776 0.0
C486 C 0.74961 0.88117 0.33801 0.0
C487 C 0.72079 0.8683 0.35799 0.0
C488 C 0.70283 0.8563 0.34857 0.0
C489 C 0.75403 0.89213 0.37599 0.0
C490 C 0.74163 0.8913 0.40478 0.0
C491 C 0.72523 0.87919 0.39593 0.0
C492 C 0.74484 0.90367 0.4416 0.0
C493 C 0.77189 0.9045 0.38478 0.0
C494 C 0.73868 0.89856 0.48613 0.0
C495 C 0.73703 0.9092 0.51659 0.0
C496 C 0.74176 0.92512 0.50319 0.0
C497 C 0.74942 0.93077 0.46067 0.0
C498 C 0.75089 0.92006 0.42985 0.0
H499 H 0.77997 0.90014 0.37054 0.0
H500 H 0.77483 0.91599 0.36716 0.0
H501 H 0.77471 0.90728 0.42244 0.0
H502 H 0.73387 0.88596 0.49576 0.0
H503 H 0.73081 0.90458 0.549 0.0
H504 H 0.20686 0.85735 0.51976 0.0
H505 H 0.22547 0.87204 0.45729 0.0
H506 H 0.18877 0.88092 0.39524 0.0
H507 H 0.17017 0.86648 0.45877 0.0
H508 H 0.21799 0.86065 0.36822 0.0
H509 H 0.23045 0.92451 0.37896 0.0
H510 H 0.22207 0.91065 0.42656 0.0
H511 H 0.20904 0.90941 0.37861 0.0
C512 C 0.20298 0.86295 0.49367 0.0
C513 C 0.18713 0.86087 0.49407 0.0
C514 C 0.21359 0.87125 0.45784 0.0
C515 C 0.20853 0.87754 0.42148 0.0
C516 C 0.19305 0.87639 0.42331 0.0
H517 H 0.24683 0.91757 0.15546 0.0
H518 H 0.22953 0.90387 0.22112 0.0
C519 C 0.18245 0.8682 0.45967 0.0
C520 C 0.21873 0.88359 0.3796 0.0
H521 H 0.23848 0.91653 0.31008 0.0
C522 C 0.22257 0.87292 0.35565 0.0
C523 C 0.22465 0.89955 0.3632 0.0
C524 C 0.22149 0.91176 0.38836 0.0
C525 C 0.2319 0.87766 0.31529 0.0
C526 C 0.23772 0.89359 0.29872 0.0
C527 C 0.23397 0.9043 0.32281 0.0
C528 C 0.24738 0.8994 0.25584 0.0
C529 C 0.23508 0.86548 0.29007 0.0
C530 C 0.26295 0.90084 0.25253 0.0
C531 C 0.27283 0.9085 0.2144 0.0
C532 C 0.26731 0.915 0.17965 0.0
C533 C 0.25138 0.91267 0.18183 0.0
C534 C 0.24151 0.90493 0.21945 0.0
H535 H 0.22656 0.85276 0.30073 0.0
H536 H 0.23385 0.86619 0.25191 0.0
H537 H 0.24779 0.86827 0.29822 0.0
H538 H 0.26781 0.89686 0.28053 0.0
H539 H 0.28516 0.91039 0.21388 0.0
H540 H 0.24943 0.35626 0.47725 0.0
H541 H 0.23007 0.35333 0.41435 0.0
H542 H 0.24259 0.40344 0.43677 0.0
H543 H 0.26176 0.40649 0.49902 0.0
H544 H 0.20268 0.36659 0.41646 0.0
H545 H 0.25464 0.39303 0.29444 0.0
H546 H 0.25427 0.38131 0.34398 0.0
H547 H 0.25839 0.40186 0.35221 0.0
C548 C 0.24774 0.3665 0.46937 0.0
C549 C 0.25718 0.38163 0.49272 0.0
C550 C 0.23675 0.36483 0.43348 0.0
C551 C 0.23508 0.37823 0.42096 0.0
C552 C 0.2438 0.39301 0.44596 0.0
H553 H 0.18043 0.40769 0.25198 0.0
H554 H 0.19401 0.40084 0.31318 0.0
C555 C 0.25476 0.39471 0.48146 0.0
C556 C 0.22533 0.37756 0.37964 0.0
H557 H 0.23003 0.39195 0.26966 0.0
C558 C 0.20853 0.37184 0.38401 0.0
C559 C 0.23306 0.38437 0.33749 0.0
C560 C 0.25107 0.39044 0.3313 0.0
C561 C 0.19937 0.37344 0.34765 0.0
C562 C 0.20735 0.3812 0.30648 0.0
C563 C 0.22397 0.38613 0.30138 0.0
C564 C 0.19894 0.38513 0.26929 0.0
C565 C 0.18129 0.36701 0.35383 0.0
C566 C 0.19773 0.37902 0.22394 0.0
C567 C 0.19009 0.38302 0.18868 0.0
C568 C 0.18363 0.39333 0.19806 0.0
C569 C 0.18521 0.3997 0.24344 0.0
C570 C 0.19282 0.39566 0.27864 0.0
H571 H 0.17618 0.35736 0.38031 0.0
H572 H 0.17942 0.37715 0.36576 0.0
H573 H 0.17432 0.36195 0.32061 0.0
H574 H 0.20257 0.37103 0.21592 0.0
H575 H 0.18914 0.3779 0.15417 0.0
H576 H 0.20946 0.40498 0.00542 0.0
H577 H 0.22664 0.40301 0.94599 0.0
H578 H 0.18733 0.35513 0.90496 0.0
H579 H 0.16995 0.35695 0.96513 0.0
H580 H 0.23501 0.37622 0.92587 0.0
H581 H 0.19928 0.3867 0.78813 0.0
H582 H 0.19899 0.39222 0.84818 0.0
H583 H 0.18842 0.37114 0.83011 0.0
C584 C 0.20454 0.3939 0.98431 0.0
C585 C 0.18834 0.38115 0.98965 0.0
C586 C 0.21438 0.39279 0.95046 0.0
C587 C 0.20818 0.37901 0.92094 0.0
C588 C 0.19227 0.36589 0.92741 0.0
H589 H 0.25493 0.37637 0.66312 0.0
H590 H 0.23525 0.36965 0.72497 0.0
C591 C 0.18241 0.36691 0.96184 0.0
C592 C 0.21815 0.37918 0.88154 0.0
H593 H 0.22339 0.38721 0.76595 0.0
C594 C 0.23239 0.37839 0.89073 0.0
C595 C 0.21464 0.382 0.83587 0.0
C596 C 0.19955 0.38315 0.82459 0.0
C597 C 0.24344 0.38069 0.85546 0.0
C598 C 0.24038 0.38437 0.8102 0.0
C599 C 0.22579 0.38453 0.80072 0.0
C600 C 0.25237 0.38859 0.77257 0.0
C601 C 0.25828 0.37915 0.8671 0.0
C602 C 0.26844 0.40177 0.77827 0.0
C603 C 0.27979 0.40564 0.74301 0.0
C604 C 0.27522 0.39652 0.70105 0.0
C605 C 0.25893 0.38366 0.69492 0.0
C606 C 0.24763 0.37976 0.73032 0.0
H607 H 0.25615 0.37135 0.8977 0.0
H608 H 0.26162 0.37391 0.83735 0.0
H609 H 0.26883 0.39144 0.87576 0.0
H610 H 0.27224 0.40908 0.81005 0.0
H611 H 0.29216 0.41569 0.74886 0.0
H612 H 0.7145 0.86566 0.02346 0.0
H613 H 0.71493 0.88278 0.96021 0.0
H614 H 0.76034 0.88744 0.91332 0.0
H615 H 0.75998 0.87021 0.977 0.0
H616 H 0.73832 0.91453 0.92121 0.0
H617 H 0.72449 0.86019 0.81025 0.0
H618 H 0.72317 0.8592 0.87265 0.0
H619 H 0.74285 0.86893 0.84604 0.0
C620 C 0.72488 0.87082 0.00066 0.0
C621 C 0.73712 0.86651 0.00467 0.0
C622 C 0.72511 0.88059 0.96458 0.0
C623 C 0.73749 0.88607 0.93173 0.0
C624 C 0.75061 0.88314 0.93822 0.0
H625 H 0.73092 0.91799 0.65409 0.0
H626 H 0.73916 0.9088 0.7227 0.0
C627 C 0.75046 0.87344 0.97476 0.0
C628 C 0.73515 0.89262 0.88782 0.0
H629 H 0.72285 0.88149 0.77478 0.0
C630 C 0.73515 0.90745 0.88898 0.0
C631 C 0.73088 0.88323 0.84605 0.0
C632 C 0.73021 0.86694 0.84336 0.0
C633 C 0.73081 0.91308 0.84941 0.0
C634 C 0.72595 0.90338 0.80812 0.0
C635 C 0.72644 0.8888 0.80663 0.0
C636 C 0.72026 0.90811 0.76606 0.0
C637 C 0.7315 0.92936 0.85213 0.0
C638 C 0.70647 0.91011 0.76718 0.0
C639 C 0.70167 0.91537 0.72792 0.0
C640 C 0.71057 0.91863 0.68682 0.0
C641 C 0.72385 0.91574 0.68524 0.0
C642 C 0.72863 0.91051 0.72446 0.0
H643 H 0.73968 0.93716 0.88114 0.0
H644 H 0.7359 0.93604 0.81923 0.0
H645 H 0.71901 0.92732 0.8583 0.0
H646 H 0.69956 0.90785 0.79866 0.0
H647 H 0.69136 0.91741 0.73033 0.0
H648 H 0.26837 0.94669 0.92517 0.0
H649 H 0.24966 0.92638 0.86804 0.0
H650 H 0.2453 0.88769 0.95508 0.0
H651 H 0.26383 0.90784 0.01282 0.0
H652 H 0.2547 0.90268 0.82228 0.0
H653 H 0.19737 0.87427 0.92317 0.0
H654 H 0.21489 0.89382 0.93924 0.0
H655 H 0.21494 0.87529 0.95187 0.0
C656 C 0.26334 0.93387 0.93247 0.0
C657 C 0.26762 0.92892 0.97366 0.0
C658 C 0.25267 0.9223 0.89973 0.0
C659 C 0.24601 0.90558 0.90766 0.0
C660 C 0.25011 0.90055 0.94876 0.0
H661 H 0.18024 0.81982 0.73784 0.0
H662 H 0.19922 0.83806 0.79859 0.0
C663 C 0.26078 0.91211 0.98159 0.0
C664 C 0.23534 0.89346 0.87186 0.0
H665 H 0.19647 0.86199 0.85032 0.0
C666 C 0.24196 0.89378 0.82833 0.0
C667 C 0.21879 0.88183 0.88018 0.0
C668 C 0.21098 0.88129 0.92599 0.0
C669 C 0.23244 0.88274 0.79267 0.0
C670 C 0.2158 0.8713 0.80067 0.0
C671 C 0.20925 0.87079 0.84446 0.0
C672 C 0.20479 0.86027 0.76337 0.0
C673 C 0.24029 0.88333 0.74688 0.0
C674 C 0.20161 0.86677 0.72376 0.0
C675 C 0.19084 0.85644 0.68902 0.0
C676 C 0.18292 0.83937 0.6934 0.0
C677 C 0.18615 0.83289 0.73326 0.0
C678 C 0.19696 0.84328 0.76803 0.0
H679 H 0.25385 0.88935 0.75066 0.0
H680 H 0.23554 0.87087 0.73176 0.0
H681 H 0.23739 0.89047 0.7221 0.0
H682 H 0.20728 0.87987 0.72002 0.0
H683 H 0.18861 0.86189 0.65896 0.0
H684 H 0.39411 0.24456 0.86545 0.0
H685 H 0.38799 0.22119 0.81495 0.0
H686 H 0.41535 0.25383 0.70558 0.0
H687 H 0.42181 0.2773 0.75603 0.0
H688 H 0.37008 0.21448 0.73525 0.0
H689 H 0.43033 0.22061 0.69756 0.0
H690 H 0.42751 0.2315 0.74517 0.0
H691 H 0.43008 0.23914 0.68714 0.0
C692 C 0.39913 0.24679 0.83096 0.0
C693 C 0.40835 0.26279 0.81459 0.0
C694 C 0.39562 0.23341 0.80222 0.0
C695 C 0.40129 0.23578 0.75669 0.0
C696 C 0.41114 0.25174 0.74095 0.0
H697 H 0.38111 0.18578 0.49791 0.0
H698 H 0.38788 0.20448 0.56416 0.0
C699 C 0.41476 0.26515 0.76978 0.0
C700 C 0.39538 0.22171 0.72398 0.0
H701 H 0.40821 0.20408 0.64342 0.0
C702 C 0.37839 0.212 0.71575 0.0
C703 C 0.40626 0.21851 0.69871 0.0
C704 C 0.42455 0.22789 0.70793 0.0
C705 C 0.37203 0.19968 0.68118 0.0
C706 C 0.38297 0.19704 0.65453 0.0
C707 C 0.3999 0.2063 0.66388 0.0
C708 C 0.37723 0.18543 0.61475 0.0
C709 C 0.35376 0.19007 0.67188 0.0
C710 C 0.36862 0.16853 0.62143 0.0
C711 C 0.36468 0.15772 0.58353 0.0
C712 C 0.3694 0.16374 0.53857 0.0
C713 C 0.37737 0.18071 0.53204 0.0
C714 C 0.38129 0.19144 0.56983 0.0
H715 H 0.34711 0.19498 0.69194 0.0
H716 H 0.351 0.19015 0.63432 0.0
H717 H 0.34901 0.17717 0.68157 0.0
H718 H 0.36549 0.16373 0.65604 0.0
H719 H 0.35861 0.14474 0.58979 0.0
H720 H 0.87321 0.1783 0.82097 0.0
H721 H 0.88931 0.19373 0.75546 0.0
H722 H 0.85381 0.2086 0.72431 0.0
H723 H 0.83743 0.19296 0.7905 0.0
H724 H 0.86121 0.19344 0.64855 0.0
H725 H 0.91789 0.2429 0.73363 0.0
H726 H 0.91183 0.22292 0.75477 0.0
H727 H 0.89887 0.23159 0.76393 0.0
C728 C 0.86898 0.18513 0.80081 0.0
C729 C 0.85407 0.18444 0.81071 0.0
C730 C 0.87824 0.19401 0.7635 0.0
C731 C 0.87282 0.20238 0.73526 0.0
C732 C 0.85823 0.20226 0.74597 0.0
H733 H 0.90838 0.25346 0.48088 0.0
H734 H 0.89133 0.23716 0.54395 0.0
C735 C 0.84896 0.19344 0.78384 0.0
C736 C 0.88174 0.20994 0.69242 0.0
H737 H 0.91933 0.23795 0.653 0.0
C738 C 0.87387 0.20329 0.64942 0.0
C739 C 0.89831 0.22261 0.6938 0.0
C740 C 0.9072 0.23054 0.73899 0.0
C741 C 0.88224 0.2088 0.60766 0.0
C742 C 0.89883 0.22143 0.60905 0.0
C743 C 0.90667 0.22811 0.65207 0.0
C744 C 0.90793 0.22888 0.56634 0.0
C745 C 0.87335 0.20086 0.56248 0.0
C746 C 0.92283 0.2294 0.55736 0.0
C747 C 0.93264 0.23873 0.52096 0.0
C748 C 0.92775 0.24784 0.49378 0.0
C749 C 0.91243 0.24653 0.5013 0.0
C750 C 0.90262 0.23716 0.53724 0.0
H751 H 0.86271 0.18847 0.56786 0.0
H752 H 0.86865 0.20842 0.5468 0.0
H753 H 0.8817 0.19986 0.53747 0.0
H754 H 0.92716 0.22315 0.57968 0.0
H755 H 0.94448 0.23969 0.5162 0.0
H756 H 0.93176 0.69051 0.73881 0.0
H757 H 0.9168 0.69667 0.67986 0.0
H758 H 0.90942 0.72666 0.77948 0.0
H759 H 0.92404 0.7204 0.83881 0.0
H760 H 0.88155 0.70647 0.72663 0.0
H761 H 0.93547 0.74046 0.61488 0.0
H762 H 0.93074 0.72003 0.62754 0.0
H763 H 0.93732 0.7351 0.67368 0.0
C764 C 0.92685 0.69832 0.74835 0.0
C765 C 0.92923 0.70505 0.79356 0.0
C766 C 0.91843 0.70193 0.71447 0.0
C767 C 0.91233 0.7124 0.72508 0.0
C768 C 0.91416 0.71866 0.7705 0.0
H769 H 0.86032 0.7529 0.5767 0.0
H770 H 0.87633 0.74719 0.63316 0.0
C771 C 0.92252 0.71504 0.80438 0.0
C772 C 0.90404 0.71693 0.68903 0.0
H773 H 0.90993 0.73612 0.5855 0.0
C774 C 0.88775 0.71299 0.69583 0.0
C775 C 0.91221 0.72547 0.64896 0.0
C776 C 0.92995 0.73066 0.64085 0.0
C777 C 0.87932 0.71716 0.66329 0.0
C778 C 0.88749 0.72572 0.62329 0.0
C779 C 0.90375 0.7296 0.61633 0.0
C780 C 0.87919 0.73041 0.58784 0.0
C781 C 0.86162 0.71211 0.67153 0.0
C782 C 0.87614 0.72342 0.54307 0.0
C783 C 0.86707 0.7267 0.51061 0.0
C784 C 0.86094 0.73712 0.5223 0.0
C785 C 0.86477 0.74477 0.56653 0.0
C786 C 0.87382 0.74144 0.59899 0.0
H787 H 0.85612 0.70254 0.69814 0.0
H788 H 0.8609 0.72289 0.68394 0.0
H789 H 0.85419 0.70744 0.63887 0.0
H790 H 0.88031 0.71497 0.53375 0.0
H791 H 0.86447 0.72067 0.47682 0.0
H792 H 0.87284 0.74395 0.3166 0.0
H793 H 0.88775 0.74133 0.2519 0.0
H794 H 0.85293 0.68971 0.24071 0.0
H795 H 0.83766 0.69229 0.3059 0.0
H796 H 0.90229 0.72196 0.23905 0.0
H797 H 0.85199 0.70702 0.10989 0.0
H798 H 0.85235 0.71511 0.16725 0.0
H799 H 0.84667 0.69405 0.15935 0.0
C800 C 0.86837 0.73198 0.30072 0.0
C801 C 0.85398 0.71833 0.31607 0.0
C802 C 0.87695 0.73052 0.26374 0.0
C803 C 0.8713 0.71541 0.24102 0.0
C804 C 0.85732 0.70155 0.25736 0.0
H805 H 0.90822 0.69 -3e-05 0.0
H806 H 0.89198 0.69062 0.06431 0.0
C807 C 0.84871 0.703 0.29478 0.0
C808 C 0.88001 0.71456 0.19957 0.0
H809 H 0.87616 0.70865 0.08184 0.0
C810 C 0.89658 0.71899 0.20468 0.0
C811 C 0.87253 0.71081 0.15479 0.0
C812 C 0.85494 0.70659 0.14713 0.0
C813 C 0.90587 0.71969 0.1662 0.0
C814 C 0.89845 0.71615 0.12134 0.0
C815 C 0.88183 0.71151 0.11627 0.0
C816 C 0.90758 0.71642 0.07956 0.0
C817 C 0.92346 0.72395 0.17397 0.0
C818 C 0.92144 0.73089 0.06568 0.0
C819 C 0.93079 0.7306 0.02862 0.0
C820 C 0.92638 0.71583 0.00507 0.0
C821 C 0.91202 0.70157 0.01764 0.0
C822 C 0.9027 0.70188 0.0544 0.0
H823 H 0.92614 0.72272 0.2109 0.0
H824 H 0.92637 0.71601 0.15214 0.0
H825 H 0.93171 0.7368 0.16413 0.0
H826 H 0.92524 0.74231 0.0842 0.0
H827 H 0.94178 0.74177 0.01969 0.0
H828 H 0.35918 0.17922 0.33818 0.0
H829 H 0.35986 0.19608 0.27382 0.0
H830 H 0.4113 0.21298 0.25694 0.0
H831 H 0.41071 0.196 0.32155 0.0
H832 H 0.37983 0.23033 0.25193 0.0
H833 H 0.38784 0.18817 0.13296 0.0
H834 H 0.38168 0.18323 0.19234 0.0
H835 H 0.40275 0.19722 0.17968 0.0
C836 C 0.37074 0.1868 0.32145 0.0
C837 C 0.38486 0.18618 0.33442 0.0
C838 C 0.37109 0.19642 0.28473 0.0
C839 C 0.38553 0.20547 0.26019 0.0
C840 C 0.39998 0.20586 0.27521 0.0
H841 H 0.41222 0.26031 0.01347 0.0
H842 H 0.4093 0.24411 0.08137 0.0
C843 C 0.39967 0.19628 0.31228 0.0
C844 C 0.38498 0.21326 0.2166 0.0
H845 H 0.38787 0.21083 0.09919 0.0
C846 C 0.38155 0.22608 0.21847 0.0
C847 C 0.38697 0.20745 0.17311 0.0
C848 C 0.38988 0.19317 0.16907 0.0
C849 C 0.38064 0.23368 0.17786 0.0
C850 C 0.3829 0.22803 0.13442 0.0
C851 C 0.38604 0.21502 0.13258 0.0
C852 C 0.38375 0.23654 0.09096 0.0
C853 C 0.37784 0.24802 0.18178 0.0
C854 C 0.37014 0.23717 0.07289 0.0
C855 C 0.37175 0.24643 0.03361 0.0
C856 C 0.38701 0.25518 0.01237 0.0
C857 C 0.40033 0.25382 0.02939 0.0
C858 C 0.3987 0.24456 0.06817 0.0
H859 H 0.37912 0.25257 0.2182 0.0
H860 H 0.38664 0.25821 0.16016 0.0
H861 H 0.36526 0.24427 0.16886 0.0
H862 H 0.35842 0.23081 0.0897 0.0
H863 H 0.36132 0.2473 0.02114 0.0
H864 H 0.93762 0.28803 0.24151 0.0
H865 H 0.92095 0.26872 0.17902 0.0
H866 H 0.9063 0.22865 0.27219 0.0
H867 H 0.92259 0.24766 0.33467 0.0
H868 H 0.92514 0.24311 0.14407 0.0
H869 H 0.86278 0.21944 0.21275 0.0
H870 H 0.88028 0.23814 0.23438 0.0
H871 H 0.87681 0.2187 0.25408 0.0
C872 C 0.93063 0.27513 0.24888 0.0
C873 C 0.93147 0.2694 0.2931 0.0
C874 C 0.92117 0.26414 0.21313 0.0
C875 C 0.91228 0.24731 0.22123 0.0
C876 C 0.91283 0.24161 0.26548 0.0
H877 H 0.8558 0.15638 0.07064 0.0
H878 H 0.87297 0.1783 0.12638 0.0
C879 C 0.92227 0.25253 0.30109 0.0
C880 C 0.90321 0.23547 0.18303 0.0
H881 H 0.86556 0.20345 0.15236 0.0
C882 C 0.91207 0.23456 0.14547 0.0
C883 C 0.88619 0.22434 0.18518 0.0
C884 C 0.87592 0.22527 0.22354 0.0
C885 C 0.90444 0.22237 0.11075 0.0
C886 C 0.88752 0.21097 0.11368 0.0
C887 C 0.87859 0.21212 0.15065 0.0
C888 C 0.87871 0.1978 0.07851 0.0
C889 C 0.91459 0.22145 0.07201 0.0
C890 C 0.87651 0.20157 0.03309 0.0
C891 C 0.86673 0.18911 0.00118 0.0
C892 C 0.85891 0.17264 0.01424 0.0
C893 C 0.86167 0.1689 0.05937 0.0
C894 C 0.87142 0.1814 0.09131 0.0
H895 H 0.92794 0.22884 0.08015 0.0
H896 H 0.91137 0.20861 0.06491 0.0
H897 H 0.912 0.2262 0.03988 0.0
H898 H 0.88187 0.21417 0.02279 0.0
H899 H 0.8649 0.19244 0.96669 0.0
H900 H 0.07283 0.65764 0.36619 0.0
H901 H 0.08269 0.68495 0.39854 0.0
H902 H 0.11683 0.70554 0.28712 0.0
H903 H 0.10715 0.67798 0.25464 0.0
H904 H 0.13089 0.71766 0.37353 0.0
H905 H 0.07373 0.72019 0.35232 0.0
H906 H 0.07037 0.70221 0.38182 0.0
H907 H 0.07691 0.70511 0.32256 0.0
C908 C 0.08237 0.66796 0.3483 0.0
C909 C 0.08922 0.66572 0.30782 0.0
C910 C 0.08789 0.68357 0.36667 0.0
C911 C 0.10021 0.69724 0.34464 0.0
C912 C 0.10717 0.69509 0.30428 0.0
H913 H 0.12769 0.79568 0.43867 0.0
H914 H 0.1176 0.77044 0.39278 0.0
C915 C 0.10167 0.6794 0.28587 0.0
C916 C 0.10635 0.71362 0.3657 0.0
H917 H 0.09363 0.73919 0.40799 0.0
C918 C 0.12283 0.7225 0.38052 0.0
C919 C 0.09582 0.71996 0.3742 0.0
C920 C 0.07826 0.71144 0.35644 0.0
C921 C 0.12891 0.73728 0.40549 0.0
C922 C 0.11809 0.74305 0.41669 0.0
C923 C 0.1018 0.73454 0.40007 0.0
C924 C 0.12347 0.75795 0.4455 0.0
C925 C 0.14685 0.74656 0.41958 0.0
C926 C 0.12962 0.75904 0.49086 0.0
C927 C 0.13547 0.77347 0.5171 0.0
C928 C 0.13506 0.78691 0.49846 0.0
C929 C 0.12821 0.78552 0.45385 0.0
C930 C 0.12246 0.77114 0.42756 0.0
H931 H 0.15422 0.74309 0.39736 0.0
H932 H 0.15189 0.75996 0.41755 0.0
H933 H 0.14828 0.74368 0.45595 0.0
H934 H 0.13007 0.7488 0.50572 0.0
H935 H 0.14056 0.77419 0.55156 0.0
H936 H 0.43502 0.44094 0.28927 0.0
H937 H 0.41117 0.43563 0.33427 0.0
H938 H 0.4326 0.48718 0.3643 0.0
H939 H 0.45666 0.49265 0.31854 0.0
H940 H 0.41669 0.44604 0.43271 0.0
H941 H 0.38221 0.46949 0.33122 0.0
H942 H 0.39543 0.4634 0.30324 0.0
H943 H 0.4042 0.48188 0.33766 0.0
C944 C 0.43449 0.45121 0.30443 0.0
C945 C 0.44773 0.4672 0.30064 0.0
C946 C 0.42088 0.44815 0.3302 0.0
C947 C 0.42019 0.46099 0.35283 0.0
C948 C 0.43287 0.47712 0.34678 0.0
H949 H 0.34284 0.43647 0.56112 0.0
H950 H 0.36906 0.45291 0.52185 0.0
C951 C 0.44656 0.48023 0.32053 0.0
C952 C 0.40697 0.45697 0.38631 0.0
H953 H 0.36996 0.45488 0.39873 0.0
C954 C 0.40664 0.44828 0.42586 0.0
C955 C 0.39392 0.45993 0.37719 0.0
C956 C 0.39378 0.46914 0.33502 0.0
C957 C 0.39318 0.44175 0.45525 0.0
C958 C 0.37974 0.44395 0.44478 0.0
C959 C 0.38039 0.45335 0.40667 0.0
C960 C 0.36408 0.4345 0.46887 0.0
C961 C 0.39291 0.43172 0.49589 0.0
C962 C 0.35283 0.41876 0.45221 0.0
C963 C 0.33802 0.40941 0.47441 0.0
C964 C 0.33414 0.41562 0.51382 0.0
C965 C 0.34552 0.43137 0.5309 0.0
C966 C 0.36042 0.44078 0.50845 0.0
H967 H 0.40502 0.43269 0.5025 0.0
H968 H 0.38922 0.43571 0.5277 0.0
H969 H 0.38367 0.41869 0.48885 0.0
H970 H 0.35554 0.4137 0.4219 0.0
H971 H 0.32955 0.39732 0.46042 0.0
H972 H 0.67957 0.95412 0.54055 0.0
H973 H 0.66657 0.9676 0.50013 0.0
H974 H 0.70212 0.98178 0.39195 0.0
H975 H 0.71538 0.96893 0.43269 0.0
H976 H 0.69967 0.00698 0.42166 0.0
H977 H 0.6373 0.95449 0.38536 0.0
H978 H 0.64327 0.95722 0.44568 0.0
H979 H 0.65416 0.95191 0.40465 0.0
C980 C 0.68445 0.95997 0.50789 0.0
C981 C 0.69849 0.96054 0.48979 0.0
C982 C 0.67697 0.96758 0.48469 0.0
C983 C 0.68327 0.97555 0.4427 0.0
C984 C 0.69705 0.97573 0.42426 0.0
H985 H 0.6374 0.01294 0.2526 0.0
H986 H 0.64896 -0.00264 0.28845 0.0
C987 C 0.70462 0.96837 0.44762 0.0
C988 C 0.67632 0.98466 0.41909 0.0
H989 H 0.64134 0.98095 0.37019 0.0
C990 C 0.68692 0.00125 0.41024 0.0
C991 C 0.65975 0.97714 0.40366 0.0
C992 C 0.64798 0.95917 0.40987 0.0
C993 C 0.68143 0.01055 0.38667 0.0
C994 C 0.66473 0.0032 0.37277 0.0
C995 C 0.65413 0.98657 0.38113 0.0
C996 C 0.65797 0.0127 0.35053 0.0
C997 C 0.69368 0.02809 0.37621 0.0
C998 C 0.65915 0.0264 0.37363 0.0
C999 C 0.65278 0.03538 0.35308 0.0
C1000 C 0.64483 0.03067 0.30932 0.0
C1001 C 0.64353 0.01688 0.28626 0.0
C1002 C 0.65006 0.00795 0.30675 0.0
H1003 H 0.7064 0.03021 0.37576 0.0
H1004 H 0.69088 0.03167 0.34223 0.0
H1005 H 0.69326 0.0362 0.40368 0.0
H1006 H 0.66484 0.03005 0.4079 0.0
H1007 H 0.65383 0.04584 0.37198 0.0
H1008 H 0.66254 0.0969 0.1803 0.0
H1009 H 0.68591 0.1178 0.13707 0.0
H1010 H 0.70801 0.0874 0.13733 0.0
H1011 H 0.68501 0.0667 0.18007 0.0
H1012 H 0.72502 0.1328 0.15694 0.0
H1013 H 0.69778 0.09619 0.99479 0.0
H1014 H 0.68561 0.09535 0.04381 0.0
H1015 H 0.69675 0.08451 0.04476 0.0
C1016 C 0.6726 0.09491 0.17213 0.0
C1017 C 0.67187 0.08009 0.1832 0.0
C1018 C 0.68587 0.10679 0.14725 0.0
C1019 C 0.6985 0.10397 0.1335 0.0
C1020 C 0.69827 0.08969 0.14721 0.0
H1021 H 0.78961 0.13171 0.05296 0.0
H1022 H 0.76538 0.12891 0.08996 0.0
C1023 C 0.68511 0.07789 0.1717 0.0
C1024 C 0.71162 0.11512 0.10238 0.0
H1025 H 0.72694 0.11417 0.99656 0.0
C1026 C 0.7253 0.12908 0.12137 0.0
C1027 C 0.71184 0.11041 0.05575 0.0
C1028 C 0.69716 0.09587 0.03327 0.0
C1029 C 0.7398 0.13751 0.09622 0.0
C1030 C 0.74065 0.13159 0.05153 0.0
C1031 C 0.72638 0.11868 0.03089 0.0
C1032 C 0.75661 0.13616 0.03007 0.0
C1033 C 0.75435 0.15216 0.11875 0.0
C1034 C 0.75984 0.14113 0.98368 0.0
C1035 C 0.77387 0.14275 0.96211 0.0
C1036 C 0.78457 0.13899 0.98643 0.0
C1037 C 0.78153 0.13458 0.03318 0.0
C1038 C 0.76776 0.13319 0.05466 0.0
H1039 H 0.7503 0.15891 0.14181 0.0
H1040 H 0.7613 0.14799 0.14058 0.0
H1041 H 0.76269 0.16063 0.0925 0.0
H1042 H 0.75126 0.14326 0.96383 0.0
H1043 H 0.77589 0.14609 0.92599 0.0
H1044 H 0.9637 0.66883 0.92468 0.0
H1045 H 0.97321 0.65217 0.96493 0.0
H1046 H 0.99402 0.68847 0.07547 0.0
H1047 H 0.98462 0.705 0.03602 0.0
H1048 H 0.00552 0.66074 0.99294 0.0
H1049 H 0.96576 0.64603 0.14496 0.0
H1050 H 0.9617 0.6533 0.09147 0.0
H1051 H 0.97633 0.66749 0.13369 0.0
C1052 C 0.97034 0.67323 0.9575 0.0
C1053 C 0.97333 0.68817 0.97735 0.0
C1054 C 0.97568 0.66368 0.9805 0.0
C1055 C 0.9839 0.66889 0.02377 0.0
C1056 C 0.98727 0.684 0.04279 0.0
H1057 H 0.05486 0.66949 0.1885 0.0
H1058 H 0.03334 0.67143 0.14597 0.0
C1059 C 0.98202 0.69351 0.01992 0.0
C1060 C 0.98984 0.65917 0.0487 0.0
H1061 H 0.99115 0.64554 0.15703 0.0
C1062 C 0.00202 0.65692 0.0283 0.0
C1063 C 0.98515 0.65407 0.09473 0.0
C1064 C 0.97138 0.65519 0.11732 0.0
C1065 C 0.01066 0.65107 0.05421 0.0
C1066 C 0.00698 0.64743 0.10145 0.0
C1067 C 0.99394 0.64842 0.12079 0.0
C1068 C 0.01839 0.64544 0.13259 0.0
C1069 C 0.02449 0.64994 0.03213 0.0
C1070 C 0.01671 0.63006 0.14047 0.0
C1071 C 0.029 0.62888 0.16522 0.0
C1072 C 0.04311 0.6431 0.18174 0.0
C1073 C 0.04419 0.65834 0.17589 0.0
C1074 C 0.03192 0.65948 0.15165 0.0
H1075 H 0.02443 0.65111 0.99382 0.0
H1076 H 0.03638 0.65985 0.04657 0.0
H1077 H 0.02367 0.63811 0.04036 0.0
H1078 H 0.00629 0.61911 0.12587 0.0
H1079 H 0.02792 0.617 0.16898 0.0
H1080 H 0.44151 0.33499 0.93955 0.0
H1081 H 0.45708 0.36137 0.98116 0.0
H1082 H 0.41242 0.35448 0.04138 0.0
H1083 H 0.39691 0.32811 0.00094 0.0
H1084 H 0.4549 0.38943 0.98263 0.0
H1085 H 0.44143 0.36108 0.15517 0.0
H1086 H 0.43765 0.34936 0.1019 0.0
H1087 H 0.4231 0.35511 0.12129 0.0
C1088 C 0.43503 0.33923 0.96125 0.0
C1089 C 0.41807 0.32947 0.96761 0.0
C1090 C 0.44392 0.35422 0.98509 0.0
C1091 C 0.43593 0.35957 0.01533 0.0
C1092 C 0.41886 0.35029 0.01931 0.0
H1093 H 0.4609 0.45305 0.12394 0.0
H1094 H 0.45091 0.42721 0.08157 0.0
C1095 C 0.41001 0.33531 0.99591 0.0
C1096 C 0.44529 0.37478 0.04323 0.0
H1097 H 0.45099 0.38988 0.15423 0.0
C1098 C 0.45425 0.38955 0.02018 0.0
C1099 C 0.44474 0.37482 0.09228 0.0
C1100 C 0.43636 0.35922 0.11914 0.0
C1101 C 0.46191 0.40449 0.04483 0.0
C1102 C 0.46019 0.40459 0.09353 0.0
C1103 C 0.45205 0.38977 0.1168 0.0
C1104 C 0.46594 0.41992 0.12056 0.0
C1105 C 0.47164 0.42003 0.0184 0.0
C1106 C 0.47704 0.42396 0.15813 0.0
C1107 C 0.48258 0.43864 0.183 0.0
C1108 C 0.47706 0.44942 0.17049 0.0
C1109 C 0.4655 0.44505 0.13397 0.0
C1110 C 0.4599 0.43037 0.10945 0.0
H1111 H 0.47627 0.41771 0.98557 0.0
H1112 H 0.46359 0.42507 0.00919 0.0
H1113 H 0.48223 0.42936 0.0395 0.0
H1114 H 0.48165 0.41591 0.16758 0.0
H1115 H 0.49147 0.44173 0.2111 0.0
H1116 H 0.98347 0.31238 0.5521 0.0
H1117 H 0.9941 0.33742 0.59886 0.0
H1118 H 0.98545 0.36125 0.48407 0.0
H1119 H 0.97418 0.33592 0.4374 0.0
H1120 H 0.01957 0.36666 0.58769 0.0
H1121 H 0.96318 0.37121 0.58734 0.0
H1122 H 0.96329 0.35314 0.56698 0.0
H1123 H 0.96974 0.37036 0.52974 0.0
C1124 C 0.98382 0.32295 0.53674 0.0
C1125 C 0.97791 0.32221 0.49122 0.0
C1126 C 0.98987 0.33723 0.56357 0.0
C1127 C 0.99022 0.35107 0.5453 0.0
C1128 C 0.98482 0.35054 0.49929 0.0
H1129 H 0.05072 0.45011 0.62898 0.0
H1130 H 0.03798 0.42245 0.59699 0.0
C1131 C 0.97855 0.33615 0.47253 0.0
C1132 C -0.00326 0.36615 0.57416 0.0
H1133 H 0.98798 0.39507 0.61336 0.0
C1134 C 0.01259 0.37277 0.59369 0.0
C1135 C 0.98747 0.37389 0.58297 0.0
C1136 C 0.96991 0.36669 0.56608 0.0
C1137 C 0.01968 0.3873 0.62018 0.0
C1138 C 0.01086 0.39566 0.62608 0.0
C1139 C 0.99476 0.3887 0.60833 0.0
C1140 C 0.01863 0.41224 0.6471 0.0
C1141 C 0.03658 0.39358 0.6414 0.0
C1142 C 0.01167 0.41577 0.68516 0.0
C1143 C 0.01884 0.43173 0.70329 0.0
C1144 C 0.033 0.4443 0.68337 0.0
C1145 C 0.03989 0.44066 0.64533 0.0
C1146 C 0.03269 0.42482 0.62717 0.0
H1147 H 0.03907 0.38343 0.64769 0.0
H1148 H 0.0459 0.40205 0.61705 0.0
H1149 H 0.03812 0.40025 0.67476 0.0
H1150 H 0.00071 0.4062 0.70069 0.0
H1151 H 0.0133 0.43425 0.73259 0.0
H1152 H 0.691 0.66606 0.71317 0.0
H1153 H 0.71498 0.66897 0.67333 0.0
H1154 H 0.68798 0.61811 0.63127 0.0
H1155 H 0.66376 0.61509 0.67188 0.0
H1156 H 0.73343 0.651 0.67555 0.0
H1157 H 0.70026 0.64547 0.50826 0.0
H1158 H 0.69328 0.64949 0.56224 0.0
H1159 H 0.69092 0.62974 0.55069 0.0
C1160 C 0.69031 0.65537 0.69659 0.0
C1161 C 0.67556 0.64037 0.69547 0.0
C1162 C 0.70401 0.65704 0.67383 0.0
C1163 C 0.70319 0.64382 0.6489 0.0
C1164 C 0.68881 0.62849 0.65014 0.0
H1165 H 0.7839 0.68183 0.44667 0.0
H1166 H 0.76055 0.65968 0.48697 0.0
C1167 C 0.67506 0.62674 0.67362 0.0
C1168 C 0.71691 0.64701 0.61807 0.0
H1169 H 0.72894 0.65853 0.50695 0.0
C1170 C 0.73239 0.65212 0.6384 0.0
C1171 C 0.71553 0.64839 0.56954 0.0
C1172 C 0.69915 0.64303 0.54604 0.0
C1173 C 0.74666 0.65987 0.61218 0.0
C1174 C 0.74541 0.66285 0.56474 0.0
C1175 C 0.72985 0.65626 0.54338 0.0
C1176 C 0.75976 0.6756 0.54018 0.0
C1177 C 0.76308 0.66588 0.63618 0.0
C1178 C 0.76672 0.69181 0.55618 0.0
C1179 C 0.77973 0.70435 0.5332 0.0
C1180 C 0.78622 0.70107 0.49345 0.0
C1181 C 0.77922 0.68477 0.47719 0.0
C1182 C 0.76594 0.67213 0.50018 0.0
H1183 H 0.762 0.65827 0.66647 0.0
H1184 H 0.77213 0.66582 0.61197 0.0
H1185 H 0.76781 0.6786 0.64913 0.0
H1186 H 0.76194 0.69481 0.58642 0.0
H1187 H 0.78475 0.71667 0.54706 0.0
H1188 H 0.42204 0.15623 0.49522 0.0
H1189 H 0.44318 0.15294 0.53679 0.0
H1190 H 0.41963 0.10258 0.49003 0.0
H1191 H 0.39852 0.10572 0.44926 0.0
H1192 H 0.4334 0.12828 0.60858 0.0
H1193 H 0.46943 0.12012 0.47135 0.0
H1194 H 0.45805 0.13062 0.46184 0.0
H1195 H 0.44768 0.10866 0.46019 0.0
C1196 C 0.42172 0.14463 0.49271 0.0
C1197 C 0.40868 0.13121 0.46915 0.0
C1198 C 0.43371 0.14275 0.51661 0.0
C1199 C 0.43299 0.12755 0.51616 0.0
C1200 C 0.42054 0.11447 0.49025 0.0
H1201 H 0.45924 0.06412 0.63572 0.0
H1202 H 0.44928 0.07984 0.59401 0.0
C1203 C 0.40846 0.11626 0.46712 0.0
C1204 C 0.4438 0.12445 0.54692 0.0
H1205 H 0.46887 0.10812 0.54505 0.0
C1206 C 0.44152 0.12427 0.59501 0.0
C1207 C 0.45431 0.11922 0.52892 0.0
C1208 C 0.45766 0.11979 0.47775 0.0
C1209 C 0.44847 0.11772 0.62526 0.0
C1210 C 0.45814 0.11149 0.60679 0.0
C1211 C 0.46133 0.11277 0.55908 0.0
C1212 C 0.4636 0.10203 0.63505 0.0
C1213 C 0.44449 0.11647 0.67611 0.0
C1214 C 0.47471 0.10919 0.67272 0.0
C1215 C 0.48031 0.10012 0.69711 0.0
C1216 C 0.47502 0.08385 0.68368 0.0
C1217 C 0.46358 0.07664 0.64679 0.0
C1218 C 0.45793 0.08563 0.62278 0.0
H1219 H 0.43462 0.11932 0.68334 0.0
H1220 H 0.44062 0.10401 0.68852 0.0
H1221 H 0.45562 0.12524 0.69644 0.0
H1222 H 0.47939 0.12189 0.68239 0.0
H1223 H 0.48923 0.10601 0.72519 0.0
H1224 H 0.33311 0.94208 0.00282 0.0
H1225 H 0.35726 0.94715 0.95817 0.0
H1226 H 0.38339 -0.00334 0.01246 0.0
H1227 H 0.35946 0.99166 0.05645 0.0
H1228 H 0.36829 0.97031 0.88995 0.0
H1229 H 0.41937 0.98487 0.013 0.0
H1230 H 0.39815 0.97352 0.02961 0.0
H1231 H 0.40885 -0.00448 0.02927 0.0
C1232 C 0.34429 0.95378 0.00671 0.0
C1233 C 0.3445 0.96647 0.03318 0.0
C1234 C 0.35802 0.95671 0.98097 0.0
C1235 C 0.37221 0.97225 0.98225 0.0
C1236 C 0.37277 0.98448 0.0116 0.0
H1237 H 0.43314 0.04219 0.80584 0.0
H1238 H 0.41062 0.01964 0.84529 0.0
C1239 C 0.35905 0.98164 0.03666 0.0
C1240 C 0.38533 0.9768 0.94782 0.0
H1241 H 0.42697 -0.00089 0.93916 0.0
C1242 C 0.38112 0.97615 0.90056 0.0
C1243 C 0.40208 0.98427 0.96136 0.0
C1244 C 0.40736 0.98443 0.01108 0.0
C1245 C 0.3932 0.98415 0.86728 0.0
C1246 C 0.40988 0.99312 0.88169 0.0
C1247 C 0.41417 0.99241 0.92813 0.0
C1248 C 0.42264 0.0053 0.85132 0.0
C1249 C 0.38796 0.98363 0.81732 0.0
C1250 C 0.43687 0.00468 0.84103 0.0
C1251 C 0.44979 0.0176 0.81792 0.0
C1252 C 0.44879 0.03145 0.80585 0.0
C1253 C 0.43426 0.03168 0.81465 0.0
C1254 C 0.42133 0.01874 0.83701 0.0
H1255 H 0.37614 0.97231 0.80919 0.0
H1256 H 0.38617 0.9942 0.81107 0.0
H1257 H 0.39739 0.98432 0.79326 0.0
H1258 H 0.43818 -0.00551 0.85218 0.0
H1259 H 0.46091 0.01717 0.81206 0.0
H1260 H 0.0965 0.48825 0.80073 0.0
H1261 H 0.11743 0.48442 0.84169 0.0
H1262 H 0.07956 0.43811 0.89103 0.0
H1263 H 0.05884 0.4417 0.85105 0.0
H1264 H 0.10276 0.45998 0.96109 0.0
H1265 H 0.13177 0.4501 0.80596 0.0
H1266 H 0.12947 0.4679 0.80915 0.0
H1267 H 0.11166 0.44802 0.80228 0.0
C1268 C 0.09268 0.47723 0.8201 0.0
C1269 C 0.07596 0.46532 0.82257 0.0
C1270 C 0.10464 0.47507 0.84346 0.0
C1271 C 0.09999 0.46099 0.86944 0.0
C1272 C 0.08339 0.44911 0.87145 0.0
H1273 H 0.13009 0.39698 0.95759 0.0
H1274 H 0.12068 0.41408 0.92126 0.0
C1275 C 0.07154 0.45121 0.84831 0.0
C1276 C 0.11205 0.45812 0.89488 0.0
H1277 H 0.1382 0.44348 0.87841 0.0
C1278 C 0.11085 0.45673 0.9433 0.0
C1279 C 0.12247 0.45386 0.87134 0.0
C1280 C 0.12399 0.45495 0.81929 0.0
C1281 C 0.11887 0.45005 0.96851 0.0
C1282 C 0.12859 0.44491 0.9446 0.0
C1283 C 0.13071 0.4474 0.8966 0.0
C1284 C 0.13478 0.43497 0.96726 0.0
C1285 C 0.11589 0.44745 0.01985 0.0
C1286 C 0.14579 0.441 0.00546 0.0
C1287 C 0.15102 0.4311 0.02686 0.0
C1288 C 0.14548 0.41514 0.00987 0.0
C1289 C 0.13456 0.40922 0.9715 0.0
C1290 C 0.12924 0.41902 0.95052 0.0
H1291 H 0.10577 0.44943 0.0312 0.0
H1292 H 0.11285 0.43489 0.02907 0.0
H1293 H 0.12718 0.4562 0.03958 0.0
H1294 H 0.15043 0.45336 0.0185 0.0
H1295 H 0.15958 0.43603 0.05609 0.0
H1296 H 0.64229 0.67551 0.75568 0.0
H1297 H 0.65522 0.70313 0.79013 0.0
H1298 H 0.67093 0.68679 0.90914 0.0
H1299 H 0.65838 0.65935 0.8747 0.0
H1300 H 0.64778 0.71227 0.87385 0.0
H1301 H 0.71285 0.72768 0.87366 0.0
H1302 H 0.69701 0.71075 0.8401 0.0
H1303 H 0.69967 0.70871 0.90113 0.0
C1304 C 0.64868 0.67789 0.78891 0.0
C1305 C 0.64938 0.66533 0.8125 0.0
C1306 C 0.65601 0.69362 0.80855 0.0
C1307 C 0.66417 0.697 0.85187 0.0
C1308 C 0.66498 0.6845 0.87523 0.0
H1309 H 0.68739 0.77668 0.04697 0.0
H1310 H 0.67484 0.75026 0.00523 0.0
C1311 C 0.65774 0.66881 0.85559 0.0
C1312 C 0.67121 0.7134 0.87383 0.0
H1313 H 0.70664 0.74487 0.92012 0.0
C1314 C 0.66068 0.71948 0.88367 0.0
C1315 C 0.68804 0.72278 0.88619 0.0
C1316 C 0.70009 0.71723 0.87434 0.0
C1317 C 0.6665 0.73463 0.90648 0.0
C1318 C 0.68321 0.74372 0.92044 0.0
C1319 C 0.69379 0.73776 0.90979 0.0
C1320 C 0.69015 0.75965 0.94514 0.0
C1321 C 0.65479 0.74087 0.9149 0.0
C1322 C 0.70302 0.77355 0.92543 0.0
C1323 C 0.71027 0.78852 0.94928 0.0
C1324 C 0.70479 0.78987 0.99334 0.0
C1325 C 0.69178 0.77598 0.01295 0.0
C1326 C 0.68456 0.76094 0.98907 0.0
H1327 H 0.64369 0.73458 0.89189 0.0
H1328 H 0.65075 0.73859 0.95139 0.0
H1329 H 0.66082 0.75422 0.90925 0.0
H1330 H 0.70752 0.77278 0.89162 0.0
H1331 H 0.72027 0.79902 0.93325 0.0
H1332 H 0.7541 -0.00255 0.60697 0.0
H1333 H 0.77039 0.02279 0.65284 0.0
H1334 H 0.73121 0.00698 0.75048 0.0
H1335 H 0.71476 0.98222 0.70412 0.0
H1336 H 0.7408 0.03659 0.72684 0.0
H1337 H 0.7958 0.03231 0.77315 0.0
H1338 H 0.79205 0.03111 0.71163 0.0
H1339 H 0.77743 0.01533 0.74795 0.0
C1340 C 0.74905 -0.00058 0.63832 0.0
C1341 C 0.73311 0.98798 0.65166 0.0
C1342 C 0.75841 0.01379 0.66476 0.0
C1343 C 0.7521 0.01668 0.70548 0.0
C1344 C 0.73634 0.00504 0.71921 0.0
H1345 H 0.80773 0.09882 0.90204 0.0
H1346 H 0.79281 0.0712 0.86663 0.0
C1347 C 0.72691 0.99092 0.69249 0.0
C1348 C 0.7612 0.0323 0.73218 0.0
H1349 H 0.79772 0.05828 0.78701 0.0
C1350 C 0.7532 0.04122 0.74033 0.0
C1351 C 0.77726 0.03823 0.75052 0.0
C1352 C 0.78608 0.02866 0.74582 0.0
C1353 C 0.76087 0.05602 0.76545 0.0
C1354 C 0.77728 0.06246 0.78131 0.0
C1355 C 0.7852 0.05338 0.77433 0.0
C1356 C 0.7866 0.07898 0.80289 0.0
C1357 C 0.75122 0.06453 0.775 0.0
C1358 C 0.78825 0.09242 0.77847 0.0
C1359 C 0.7964 0.10798 0.79878 0.0
C1360 C 0.80345 0.11051 0.84354 0.0
C1361 C 0.80228 0.09715 0.86761 0.0
C1362 C 0.79385 0.08144 0.8474 0.0
H1363 H 0.73783 0.0557 0.77507 0.0
H1364 H 0.75489 0.07125 0.8089 0.0
H1365 H 0.75345 0.07338 0.7472 0.0
H1366 H 0.78319 0.09088 0.74356 0.0
H1367 H 0.79735 0.11808 0.77901 0.0
H1368 H 0.11927 0.83166 0.65972 0.0
H1369 H 0.09574 0.82683 0.70701 0.0
H1370 H 0.06834 0.77755 0.6515 0.0
H1371 H 0.09156 0.78234 0.60439 0.0
H1372 H 0.04866 0.79168 0.66838 0.0
H1373 H 0.08892 0.79814 0.82045 0.0
H1374 H 0.09546 0.81533 0.78318 0.0
H1375 H 0.09479 0.79709 0.76177 0.0
C1376 C 0.10797 0.82004 0.65632 0.0
C1377 C 0.10723 0.80732 0.6287 0.0
C1378 C 0.09461 0.81723 0.68372 0.0
C1379 C 0.08041 0.80171 0.68354 0.0
C1380 C 0.07917 0.7896 0.65242 0.0
H1381 H 0.0166 0.72899 0.84735 0.0
H1382 H 0.03931 0.75155 0.80861 0.0
C1383 C 0.09245 0.79235 0.62545 0.0
C1384 C 0.06768 0.79698 0.7193 0.0
H1385 H 0.06076 0.78523 0.83228 0.0
C1386 C 0.05129 0.7907 0.70458 0.0
C1387 C 0.07117 0.79559 0.76646 0.0
C1388 C 0.0885 0.80179 0.78419 0.0
C1389 C 0.03827 0.78204 0.73485 0.0
C1390 C 0.04176 0.77975 0.78118 0.0
C1391 C 0.05815 0.78708 0.7968 0.0
C1392 C 0.02886 0.76737 0.8108 0.0
C1393 C 0.02088 0.77424 0.71604 0.0
C1394 C 0.01568 0.76899 0.82659 0.0
C1395 C 0.0026 0.75603 0.84914 0.0
C1396 C 0.0025 0.74126 0.85583 0.0
C1397 C 0.01621 0.74013 0.8424 0.0
C1398 C 0.02924 0.75305 0.82031 0.0
H1399 H 0.02033 0.7759 0.67809 0.0
H1400 H 0.01421 0.76095 0.72301 0.0
H1401 H 0.01438 0.77976 0.7338 0.0
H1402 H 0.01524 0.78003 0.82011 0.0
H1403 H 0.9922 0.75725 0.85898 0.0
H1404 H 0.34305 0.38148 0.65384 0.0
H1405 H 0.34634 0.36014 0.69001 0.0
H1406 H 0.29505 0.32562 0.66518 0.0
H1407 H 0.29153 0.3471 0.62853 0.0
H1408 H 0.32397 0.34085 0.77206 0.0
H1409 H 0.32488 0.30446 0.61968 0.0
H1410 H 0.33153 0.32586 0.61359 0.0
H1411 H 0.31031 0.31157 0.62265 0.0
C1412 C 0.33245 0.36933 0.65545 0.0
C1413 C 0.31699 0.36604 0.63856 0.0
C1414 C 0.33437 0.35715 0.6762 0.0
C1415 C 0.32093 0.3414 0.6805 0.0
C1416 C 0.30557 0.33775 0.66207 0.0
H1417 H 0.35325 0.28899 0.86952 0.0
H1418 H 0.33217 0.29311 0.8307 0.0
C1419 C 0.30361 0.35 0.64102 0.0
C1420 C 0.32329 0.32934 0.70661 0.0
H1421 H 0.33569 0.30141 0.69083 0.0
C1422 C 0.32603 0.33179 0.75476 0.0
C1423 C 0.32591 0.3176 0.68367 0.0
C1424 C 0.32301 0.31458 0.63202 0.0
C1425 C 0.33277 0.32387 0.78001 0.0
C1426 C 0.33672 0.31313 0.75635 0.0
C1427 C 0.33259 0.3096 0.70889 0.0
C1428 C 0.34824 0.30851 0.77738 0.0
C1429 C 0.33704 0.32822 0.83082 0.0
C1430 C 0.36403 0.31539 0.7595 0.0
C1431 C 0.37597 0.31311 0.78138 0.0
C1432 C 0.37244 0.30383 0.82179 0.0
C1433 C 0.35638 0.29629 0.83866 0.0
C1434 C 0.34435 0.29866 0.81661 0.0
H1435 H 0.33434 0.33781 0.84297 0.0
H1436 H 0.32988 0.31719 0.85179 0.0
H1437 H 0.35026 0.33262 0.83749 0.0
H1438 H 0.36732 0.32306 0.72936 0.0
H1439 H 0.3881 0.31892 0.76689 0.0
H1440 H 0.02151 0.32863 0.3768 0.0
H1441 H 0.04459 0.33268 0.33006 0.0
H1442 H 0.01766 0.28221 0.28416 0.0
H1443 H 0.99432 0.27807 0.33128 0.0
H1444 H 0.06425 0.31728 0.31958 0.0
H1445 H 0.02445 0.30937 0.16494 0.0
H1446 H 0.01889 0.31207 0.2227 0.0
H1447 H 0.01741 0.29305 0.20564 0.0
C1448 C 0.02068 0.31826 0.35785 0.0
C1449 C 0.0061 0.30308 0.35735 0.0
C1450 C 0.03387 0.32058 0.33116 0.0
C1451 C 0.03273 0.30782 0.30305 0.0
C1452 C 0.0187 0.29225 0.30529 0.0
H1453 H 0.12058 0.34558 0.12797 0.0
H1454 H 0.09667 0.32425 0.16786 0.0
C1455 C 0.00546 0.28987 0.33252 0.0
C1456 C 0.04543 0.31175 0.26778 0.0
H1457 H 0.05264 0.32155 0.15349 0.0
C1458 C 0.06171 0.31777 0.28298 0.0
C1459 C 0.04204 0.31251 0.22014 0.0
C1460 C 0.02479 0.3065 0.20207 0.0
C1461 C 0.0748 0.32551 0.25238 0.0
C1462 C 0.07146 0.32716 0.20534 0.0
C1463 C 0.05512 0.32016 0.18952 0.0
C1464 C 0.08464 0.33855 0.17466 0.0
C1465 C 0.09215 0.33302 0.2713 0.0
C1466 C 0.08538 0.35329 0.16344 0.0
C1467 C 0.09892 0.36541 0.14082 0.0
C1468 C 0.11198 0.36302 0.12859 0.0
C1469 C 0.11069 0.34777 0.13683 0.0
C1470 C 0.09712 0.33563 0.15992 0.0
H1471 H 0.09264 0.33189 0.30955 0.0
H1472 H 0.09829 0.32687 0.25493 0.0
H1473 H 0.09922 0.34616 0.26273 0.0
H1474 H 0.07586 0.35576 0.17436 0.0
H1475 H 0.09949 0.37697 0.1347 0.0
H1476 H 0.8257 0.77142 0.38375 0.0
H1477 H 0.81516 0.7867 0.34066 0.0
H1478 H 0.77962 0.74219 0.26978 0.0
H1479 H 0.79002 0.72696 0.31221 0.0
H1480 H 0.81351 0.78729 0.23753 0.0
H1481 H 0.75304 0.76346 0.31962 0.0
H1482 H 0.77003 0.76284 0.34745 0.0
H1483 H 0.75777 0.74791 0.30327 0.0
C1484 C 0.81545 0.76489 0.35956 0.0
C1485 C 0.80865 0.74802 0.35128 0.0
C1486 C 0.80954 0.77363 0.33485 0.0
C1487 C 0.7966 0.76552 0.30229 0.0
C1488 C 0.78951 0.74862 0.29512 0.0
H1489 H 0.73764 0.77532 0.09926 0.0
H1490 H 0.75506 0.76844 0.14597 0.0
C1491 C 0.79548 0.73995 0.31935 0.0
C1492 C 0.79077 0.77458 0.27381 0.0
H1493 H 0.756 0.77546 0.24523 0.0
C1494 C 0.80105 0.78501 0.23964 0.0
C1495 C 0.77453 0.77152 0.27683 0.0
C1496 C 0.76323 0.76094 0.31404 0.0
C1497 C 0.79511 0.79173 0.20658 0.0
C1498 C 0.77861 0.78794 0.20823 0.0
C1499 C 0.76863 0.77818 0.24382 0.0
C1500 C 0.77092 0.79309 0.17217 0.0
C1501 C 0.80619 0.80212 0.16877 0.0
C1502 C 0.77463 0.8094 0.1697 0.0
C1503 C 0.76473 0.81341 0.14258 0.0
C1504 C 0.75093 0.80108 0.11829 0.0
C1505 C 0.74815 0.78504 0.11783 0.0
C1506 C 0.75806 0.78108 0.14456 0.0
H1507 H 0.81811 0.80236 0.16923 0.0
H1508 H 0.80009 0.79748 0.13425 0.0
H1509 H 0.80862 0.81482 0.17327 0.0
H1510 H 0.78442 0.81879 0.19116 0.0
H1511 H 0.76705 0.82584 0.14391 0.0
H1512 H 0.33326 0.9866 0.19788 0.0
H1513 H 0.34368 0.01328 0.23638 0.0
H1514 H 0.31064 0.02203 0.15242 0.0
H1515 H 0.3007 -0.00432 0.1124 0.0
H1516 H 0.3395 0.04869 0.16093 0.0
H1517 H 0.31971 0.02259 0.33495 0.0
H1518 H 0.33361 0.01704 0.30986 0.0
H1519 H 0.31379 0.01007 0.28271 0.0
C1520 C 0.32834 0.9943 0.18743 0.0
C1521 C 0.3161 0.98909 0.15254 0.0
C1522 C 0.33418 0.00944 0.20972 0.0
C1523 C 0.32757 0.01939 0.19822 0.0
C1524 C 0.31579 0.01445 0.1621 0.0
H1525 H 0.33872 0.10021 0.37354 0.0
H1526 H 0.32807 0.07385 0.33238 0.0
C1527 C 0.31015 -0.00056 0.13923 0.0
C1528 C 0.3329 0.03494 0.2238 0.0
H1529 H 0.33726 0.05149 0.33254 0.0
C1530 C 0.33892 0.0493 0.19843 0.0
C1531 C 0.33178 0.03563 0.27264 0.0
C1532 C 0.3242 0.02048 0.30157 0.0
C1533 C 0.34419 0.06443 0.22063 0.0
C1534 C 0.34397 0.06524 0.26967 0.0
C1535 C 0.33761 0.05084 0.29499 0.0
C1536 C 0.35045 0.08095 0.29538 0.0
C1537 C 0.34964 0.07929 0.19116 0.0
C1538 C 0.36664 0.09344 0.28908 0.0
C1539 C 0.3726 0.10849 0.31183 0.0
C1540 C 0.36259 0.11115 0.34216 0.0
C1541 C 0.34663 0.09843 0.35016 0.0
C1542 C 0.34056 0.08343 0.3267 0.0
H1543 H 0.34408 0.07588 0.15563 0.0
H1544 H 0.34634 0.088 0.20695 0.0
H1545 H 0.36316 0.08561 0.18777 0.0
H1546 H 0.37466 0.09159 0.26634 0.0
H1547 H 0.38507 0.11803 0.30569 0.0
loop_
_geom_bond_atom_site_label_1
_geom_bond_atom_site_label_2
_geom_bond_distance
_geom_bond_site_symmetry_2
_ccdc_geom_bond_type
Co0 O1 2.216 . S
Co0 O2 2.091 . S
Co0 O4 2.004 . S
Co0 O10 2.021 . S
Co0 O12 2.137 . S
Co0 O13 2.244 . S
O1 Co0 2.216 . S
O1 C8 1.247 . S
O2 Co0 2.091 . S
O2 C8 1.261 . S
C3 O12 1.247 . S
C3 O13 1.272 . S
O4 Co0 2.004 . S
O4 C9 1.259 . S
Co5 O6 2.061 . S
Co5 O11 2.052 . S
Co5 O13 2.135 . S
O6 Co5 2.061 . S
O6 C9 1.235 . S
C7 O10 1.238 . S
C7 O11 1.241 . S
C8 O1 1.247 . S
C8 O2 1.261 . S
C9 O4 1.259 . S
C9 O6 1.235 . S
O10 Co0 2.021 . S
O10 C7 1.238 . S
O11 Co5 2.052 . S
O11 C7 1.241 . S
O12 Co0 2.137 . S
O12 C3 1.247 . S
O13 Co0 2.244 . S
O13 C3 1.272 . S
O13 Co5 2.135 . S
Co14 O15 2.216 . S
Co14 O16 2.091 . S
Co14 O18 2.004 . S
Co14 O24 2.021 . S
Co14 O26 2.137 . S
Co14 O27 2.244 . S
O15 Co14 2.216 . S
O15 C22 1.247 . S
O16 Co14 2.091 . S
O16 C22 1.261 . S
C17 O26 1.247 . S
C17 O27 1.272 . S
O18 Co14 2.004 . S
O18 C23 1.259 . S
Co19 O20 2.061 . S
Co19 O25 2.052 . S
Co19 O27 2.135 . S
O20 Co19 2.061 . S
O20 C23 1.235 . S
C21 O24 1.238 . S
C21 O25 1.241 . S
C22 O15 1.247 . S
C22 O16 1.261 . S
C23 O18 1.259 . S
C23 O20 1.235 . S
O24 Co14 2.021 . S
O24 C21 1.238 . S
O25 Co19 2.052 . S
O25 C21 1.241 . S
O26 Co14 2.137 . S
O26 C17 1.247 . S
O27 Co14 2.244 . S
O27 C17 1.272 . S
O27 Co19 2.135 . S
Co28 O29 2.216 . S
Co28 O30 2.091 . S
Co28 O32 2.004 . S
Co28 O38 2.021 . S
Co28 O40 2.137 . S
Co28 O41 2.244 . S
O29 Co28 2.216 . S
O29 C36 1.247 . S
O30 Co28 2.091 . S
O30 C36 1.261 . S
C31 O40 1.247 . S
C31 O41 1.272 . S
O32 Co28 2.004 . S
O32 C37 1.259 . S
Co33 O34 2.061 . S
Co33 O39 2.052 . S
Co33 O41 2.135 . S
O34 Co33 2.061 . S
O34 C37 1.235 . S
C35 O38 1.238 . S
C35 O39 1.241 . S
C36 O29 1.247 . S
C36 O30 1.261 . S
C37 O32 1.259 . S
C37 O34 1.235 . S
O38 Co28 2.021 . S
O38 C35 1.238 . S
O39 Co33 2.052 . S
O39 C35 1.241 . S
O40 Co28 2.137 . S
O40 C31 1.247 . S
O41 Co28 2.244 . S
O41 C31 1.272 . S
O41 Co33 2.135 . S
Co42 O43 2.216 . S
Co42 O44 2.091 . S
Co42 O46 2.004 . S
Co42 O52 2.021 . S
Co42 O54 2.137 . S
Co42 O55 2.244 . S
O43 Co42 2.216 . S
O43 C50 1.247 . S
O44 Co42 2.091 . S
O44 C50 1.261 . S
C45 O54 1.247 . S
C45 O55 1.272 . S
O46 Co42 2.004 . S
O46 C51 1.259 . S
Co47 O48 2.061 . S
Co47 O53 2.052 . S
Co47 O55 2.135 . S
O48 Co47 2.061 . S
O48 C51 1.235 . S
C49 O52 1.238 . S
C49 O53 1.241 . S
C50 O43 1.247 . S
C50 O44 1.261 . S
C51 O46 1.259 . S
C51 O48 1.235 . S
O52 Co42 2.021 . S
O52 C49 1.238 . S
O53 Co47 2.052 . S
O53 C49 1.241 . S
O54 Co42 2.137 . S
O54 C45 1.247 . S
O55 Co42 2.244 . S
O55 C45 1.272 . S
O55 Co47 2.135 . S
Co56 O57 2.216 . S
Co56 O58 2.091 . S
Co56 O60 2.004 . S
Co56 O66 2.021 . S
Co56 O68 2.137 . S
Co56 O69 2.244 . S
O57 Co56 2.216 . S
O57 C64 1.247 . S
O58 Co56 2.091 . S
O58 C64 1.261 . S
C59 O68 1.247 . S
C59 O69 1.272 . S
O60 Co56 2.004 . S
O60 C65 1.259 . S
Co61 O62 2.061 . S
Co61 O67 2.052 . S
Co61 O69 2.135 . S
O62 Co61 2.061 . S
O62 C65 1.235 . S
C63 O66 1.238 . S
C63 O67 1.241 . S
C64 O57 1.247 . S
C64 O58 1.261 . S
C65 O60 1.259 . S
C65 O62 1.235 . S
O66 Co56 2.021 . S
O66 C63 1.238 . S
O67 Co61 2.052 . S
O67 C63 1.241 . S
O68 Co56 2.137 . S
O68 C59 1.247 . S
O69 Co56 2.244 . S
O69 C59 1.272 . S
O69 Co61 2.135 . S
Co70 O71 2.216 . S
Co70 O72 2.091 . S
Co70 O74 2.004 . S
Co70 O80 2.021 . S
Co70 O82 2.137 . S
Co70 O83 2.244 . S
O71 Co70 2.216 . S
O71 C78 1.247 . S
O72 Co70 2.091 . S
O72 C78 1.261 . S
C73 O82 1.247 . S
C73 O83 1.272 . S
O74 Co70 2.004 . S
O74 C79 1.259 . S
Co75 O76 2.061 . S
Co75 O81 2.052 . S
Co75 O83 2.135 . S
O76 Co75 2.061 . S
O76 C79 1.235 . S
C77 O80 1.238 . S
C77 O81 1.241 . S
C78 O71 1.247 . S
C78 O72 1.261 . S
C79 O74 1.259 . S
C79 O76 1.235 . S
O80 Co70 2.021 . S
O80 C77 1.238 . S
O81 Co75 2.052 . S
O81 C77 1.241 . S
O82 Co70 2.137 . S
O82 C73 1.247 . S
O83 Co70 2.244 . S
O83 C73 1.272 . S
O83 Co75 2.135 . S
Co84 O85 2.216 . S
Co84 O86 2.091 . S
Co84 O88 2.004 . S
Co84 O94 2.021 . S
Co84 O96 2.137 . S
Co84 O97 2.244 . S
O85 Co84 2.216 . S
O85 C92 1.247 . S
O86 Co84 2.091 . S
O86 C92 1.261 . S
C87 O96 1.247 . S
C87 O97 1.272 . S
O88 Co84 2.004 . S
O88 C93 1.259 . S
Co89 O90 2.061 . S
Co89 O95 2.052 . S
Co89 O97 2.135 . S
O90 Co89 2.061 . S
O90 C93 1.235 . S
C91 O94 1.238 . S
C91 O95 1.241 . S
C92 O85 1.247 . S
C92 O86 1.261 . S
C93 O88 1.259 . S
C93 O90 1.235 . S
O94 Co84 2.021 . S
O94 C91 1.238 . S
O95 Co89 2.052 . S
O95 C91 1.241 . S
O96 Co84 2.137 . S
O96 C87 1.247 . S
O97 Co84 2.244 . S
O97 C87 1.272 . S
O97 Co89 2.135 . S
Co98 O99 2.216 . S
Co98 O100 2.091 . S
Co98 O102 2.004 . S
Co98 O108 2.021 . S
Co98 O110 2.137 . S
Co98 O111 2.244 . S
O99 Co98 2.216 . S
O99 C106 1.247 . S
O100 Co98 2.091 . S
O100 C106 1.261 . S
C101 O110 1.247 . S
C101 O111 1.272 . S
O102 Co98 2.004 . S
O102 C107 1.259 . S
Co103 O104 2.061 . S
Co103 O109 2.052 . S
Co103 O111 2.135 . S
O104 Co103 2.061 . S
O104 C107 1.235 . S
C105 O108 1.238 . S
C105 O109 1.241 . S
C106 O99 1.247 . S
C106 O100 1.261 . S
C107 O102 1.259 . S
C107 O104 1.235 . S
O108 Co98 2.021 . S
O108 C105 1.238 . S
O109 Co103 2.052 . S
O109 C105 1.241 . S
O110 Co98 2.137 . S
O110 C101 1.247 . S
O111 Co98 2.244 . S
O111 C101 1.272 . S
O111 Co103 2.135 . S
Co112 O113 2.216 . S
Co112 O114 2.091 . S
Co112 O116 2.004 . S
Co112 O122 2.021 . S
Co112 O124 2.137 . S
Co112 O125 2.244 . S
O113 Co112 2.216 . S
O113 C120 1.247 . S
O114 Co112 2.091 . S
O114 C120 1.261 . S
C115 O124 1.247 . S
C115 O125 1.272 . S
O116 Co112 2.004 . S
O116 C121 1.259 . S
Co117 O118 2.061 . S
Co117 O123 2.052 . S
Co117 O125 2.135 . S
O118 Co117 2.061 . S
O118 C121 1.235 . S
C119 O122 1.238 . S
C119 O123 1.241 . S
C120 O113 1.247 . S
C120 O114 1.261 . S
C121 O116 1.259 . S
C121 O118 1.235 . S
O122 Co112 2.021 . S
O122 C119 1.238 . S
O123 Co117 2.052 . S
O123 C119 1.241 . S
O124 Co112 2.137 . S
O124 C115 1.247 . S
O125 Co112 2.244 . S
O125 C115 1.272 . S
O125 Co117 2.135 . S
Co126 O127 2.216 . S
Co126 O128 2.091 . S
Co126 O130 2.004 . S
Co126 O136 2.021 . S
Co126 O138 2.137 . S
Co126 O139 2.244 . S
O127 Co126 2.216 . S
O127 C134 1.247 . S
O128 Co126 2.091 . S
O128 C134 1.261 . S
C129 O138 1.247 . S
C129 O139 1.272 . S
O130 Co126 2.004 . S
O130 C135 1.259 . S
Co131 O132 2.061 . S
Co131 O137 2.052 . S
Co131 O139 2.135 . S
O132 Co131 2.061 . S
O132 C135 1.235 . S
C133 O136 1.238 . S
C133 O137 1.241 . S
C134 O127 1.247 . S
C134 O128 1.261 . S
C135 O130 1.259 . S
C135 O132 1.235 . S
O136 Co126 2.021 . S
O136 C133 1.238 . S
O137 Co131 2.052 . S
O137 C133 1.241 . S
O138 Co126 2.137 . S
O138 C129 1.247 . S
O139 Co126 2.244 . S
O139 C129 1.272 . S
O139 Co131 2.135 . S
Co140 O141 2.216 . S
Co140 O142 2.091 . S
Co140 O144 2.004 . S
Co140 O150 2.021 . S
Co140 O152 2.137 . S
Co140 O153 2.244 . S
O141 Co140 2.216 . S
O141 C148 1.247 . S
O142 Co140 2.091 . S
O142 C148 1.261 . S
C143 O152 1.247 . S
C143 O153 1.272 . S
O144 Co140 2.004 . S
O144 C149 1.259 . S
Co145 O146 2.061 . S
Co145 O151 2.052 . S
Co145 O153 2.135 . S
O146 Co145 2.061 . S
O146 C149 1.235 . S
C147 O150 1.238 . S
C147 O151 1.241 . S
C148 O141 1.247 . S
C148 O142 1.261 . S
C149 O144 1.259 . S
C149 O146 1.235 . S
O150 Co140 2.021 . S
O150 C147 1.238 . S
O151 Co145 2.052 . S
O151 C147 1.241 . S
O152 Co140 2.137 . S
O152 C143 1.247 . S
O153 Co140 2.244 . S
O153 C143 1.272 . S
O153 Co145 2.135 . S
Co154 O155 2.216 . S
Co154 O156 2.091 . S
Co154 O158 2.004 . S
Co154 O164 2.021 . S
Co154 O166 2.137 . S
Co154 O167 2.244 . S
O155 Co154 2.216 . S
O155 C162 1.247 . S
O156 Co154 2.091 . S
O156 C162 1.261 . S
C157 O166 1.247 . S
C157 O167 1.272 . S
O158 Co154 2.004 . S
O158 C163 1.259 . S
Co159 O160 2.061 . S
Co159 O165 2.052 . S
Co159 O167 2.135 . S
O160 Co159 2.061 . S
O160 C163 1.235 . S
C161 O164 1.238 . S
C161 O165 1.241 . S
C162 O155 1.247 . S
C162 O156 1.261 . S
C163 O158 1.259 . S
C163 O160 1.235 . S
O164 Co154 2.021 . S
O164 C161 1.238 . S
O165 Co159 2.052 . S
O165 C161 1.241 . S
O166 Co154 2.137 . S
O166 C157 1.247 . S
O167 Co154 2.244 . S
O167 C157 1.272 . S
O167 Co159 2.135 . S
Co168 O169 2.216 . S
Co168 O170 2.091 . S
Co168 O172 2.004 . S
Co168 O178 2.021 . S
Co168 O180 2.137 . S
Co168 O181 2.244 . S
O169 Co168 2.216 . S
O169 C176 1.247 . S
O170 Co168 2.091 . S
O170 C176 1.261 . S
C171 O180 1.247 . S
C171 O181 1.272 . S
O172 Co168 2.004 . S
O172 C177 1.259 . S
Co173 O174 2.061 . S
Co173 O179 2.052 . S
Co173 O181 2.135 . S
O174 Co173 2.061 . S
O174 C177 1.235 . S
C175 O178 1.238 . S
C175 O179 1.241 . S
C176 O169 1.247 . S
C176 O170 1.261 . S
C177 O172 1.259 . S
C177 O174 1.235 . S
O178 Co168 2.021 . S
O178 C175 1.238 . S
O179 Co173 2.052 . S
O179 C175 1.241 . S
O180 Co168 2.137 . S
O180 C171 1.247 . S
O181 Co168 2.244 . S
O181 C171 1.272 . S
O181 Co173 2.135 . S
Co182 O183 2.216 . S
Co182 O184 2.091 . S
Co182 O186 2.004 . S
Co182 O192 2.021 . S
Co182 O194 2.137 . S
Co182 O195 2.244 . S
O183 Co182 2.216 . S
O183 C190 1.247 . S
O184 Co182 2.091 . S
O184 C190 1.261 . S
C185 O194 1.247 . S
C185 O195 1.272 . S
O186 Co182 2.004 . S
O186 C191 1.259 . S
Co187 O188 2.061 . S
Co187 O193 2.052 1_556 S
Co187 O195 2.135 . S
O188 Co187 2.061 . S
O188 C191 1.235 . S
C189 O192 1.238 . S
C189 O193 1.241 1_556 S
C190 O183 1.247 . S
C190 O184 1.261 . S
C191 O186 1.259 . S
C191 O188 1.235 . S
O192 Co182 2.021 . S
O192 C189 1.238 . S
O193 Co187 2.052 1_554 S
O193 C189 1.241 1_554 S
O194 Co182 2.137 . S
O194 C185 1.247 . S
O195 Co182 2.244 . S
O195 C185 1.272 . S
O195 Co187 2.135 . S
Co196 O197 2.216 . S
Co196 O198 2.091 . S
Co196 O200 2.004 . S
Co196 O206 2.021 . S
Co196 O208 2.137 . S
Co196 O209 2.244 . S
O197 Co196 2.216 . S
O197 C204 1.247 . S
O198 Co196 2.091 . S
O198 C204 1.261 . S
C199 O208 1.247 . S
C199 O209 1.272 . S
O200 Co196 2.004 . S
O200 C205 1.259 . S
Co201 O202 2.061 . S
Co201 O207 2.052 . S
Co201 O209 2.135 . S
O202 Co201 2.061 . S
O202 C205 1.235 . S
C203 O206 1.238 . S
C203 O207 1.241 . S
C204 O197 1.247 . S
C204 O198 1.261 . S
C205 O200 1.259 . S
C205 O202 1.235 . S
O206 Co196 2.021 . S
O206 C203 1.238 . S
O207 Co201 2.052 . S
O207 C203 1.241 . S
O208 Co196 2.137 . S
O208 C199 1.247 . S
O209 Co196 2.244 . S
O209 C199 1.272 . S
O209 Co201 2.135 . S
Co210 O211 2.216 . S
Co210 O212 2.091 . S
Co210 O214 2.004 . S
Co210 O220 2.021 . S
Co210 O222 2.137 . S
Co210 O223 2.244 . S
O211 Co210 2.216 . S
O211 C218 1.247 . S
O212 Co210 2.091 . S
O212 C218 1.261 . S
C213 O222 1.247 . S
C213 O223 1.272 . S
O214 Co210 2.004 . S
O214 C219 1.259 . S
Co215 O216 2.061 . S
Co215 O221 2.052 . S
Co215 O223 2.135 . S
O216 Co215 2.061 . S
O216 C219 1.235 . S
C217 O220 1.238 . S
C217 O221 1.241 . S
C218 O211 1.247 . S
C218 O212 1.261 . S
C219 O214 1.259 . S
C219 O216 1.235 . S
O220 Co210 2.021 . S
O220 C217 1.238 . S
O221 Co215 2.052 . S
O221 C217 1.241 . S
O222 Co210 2.137 . S
O222 C213 1.247 . S
O223 Co210 2.244 . S
O223 C213 1.272 . S
O223 Co215 2.135 . S
Co224 O225 2.216 . S
Co224 O226 2.091 . S
Co224 O228 2.004 . S
Co224 O234 2.021 . S
Co224 O236 2.137 . S
Co224 O237 2.244 . S
O225 Co224 2.216 . S
O225 C232 1.247 . S
O226 Co224 2.091 . S
O226 C232 1.261 . S
C227 O236 1.247 . S
C227 O237 1.272 . S
O228 Co224 2.004 . S
O228 C233 1.259 . S
Co229 O230 2.061 . S
Co229 O235 2.052 . S
Co229 O237 2.135 . S
O230 Co229 2.061 . S
O230 C233 1.235 . S
C231 O234 1.238 . S
C231 O235 1.241 . S
C232 O225 1.247 . S
C232 O226 1.261 . S
C233 O228 1.259 . S
C233 O230 1.235 . S
O234 Co224 2.021 . S
O234 C231 1.238 . S
O235 Co229 2.052 . S
O235 C231 1.241 . S
O236 Co224 2.137 . S
O236 C227 1.247 . S
O237 Co224 2.244 . S
O237 C227 1.272 . S
O237 Co229 2.135 . S
Co238 O239 2.216 . S
Co238 O240 2.091 . S
Co238 O242 2.004 . S
Co238 O248 2.021 . S
Co238 O250 2.137 . S
Co238 O251 2.244 . S
O239 Co238 2.216 . S
O239 C246 1.247 . S
O240 Co238 2.091 . S
O240 C246 1.261 . S
C241 O250 1.247 . S
C241 O251 1.272 . S
O242 Co238 2.004 . S
O242 C247 1.259 . S
Co243 O244 2.061 . S
Co243 O249 2.052 . S
Co243 O251 2.135 . S
O244 Co243 2.061 . S
O244 C247 1.235 . S
C245 O248 1.238 . S
C245 O249 1.241 . S
C246 O239 1.247 . S
C246 O240 1.261 . S
C247 O242 1.259 . S
C247 O244 1.235 . S
O248 Co238 2.021 . S
O248 C245 1.238 . S
O249 Co243 2.052 . S
O249 C245 1.241 . S
O250 Co238 2.137 . S
O250 C241 1.247 . S
O251 Co238 2.244 . S
O251 C241 1.272 . S
O251 Co243 2.135 . S
H252 C260 0.929 . S
H253 C262 0.930 . S
H254 C264 0.930 . S
H255 C267 0.929 . S
H256 C270 0.930 . S
H257 C272 0.960 . S
H258 C272 0.960 1_556 S
H259 C272 0.960 . S
C260 H252 0.929 . S
C260 C261 1.377 . S
C260 C262 1.384 . S
C261 C260 1.377 . S
C261 C267 1.390 . S
C262 H253 0.930 . S
C262 C260 1.384 . S
C262 C263 1.372 . S
C263 C262 1.372 . S
C263 C264 1.400 . S
C263 C268 1.490 . S
C264 H254 0.930 . S
C264 C263 1.400 . S
C264 C267 1.386 . S
H265 C281 0.930 . S
H266 C282 0.931 . S
C267 H255 0.929 . S
C267 C261 1.390 . S
C267 C264 1.386 . S
C268 C263 1.490 . S
C268 C270 1.395 . S
C268 C271 1.403 . S
H269 C275 0.930 . S
C270 H256 0.930 . S
C270 C268 1.395 . S
C270 C273 1.403 . S
C271 C268 1.403 . S
C271 C272 1.524 1_556 S
C271 C275 1.400 1_556 S
C272 H257 0.960 . S
C272 H258 0.960 1_554 S
C272 H259 0.960 . S
C272 C271 1.524 1_554 S
C273 C270 1.403 . S
C273 C274 1.392 1_556 S
C273 C277 1.495 . S
C274 C273 1.392 1_554 S
C274 C275 1.385 . S
C274 C276 1.478 . S
C275 H269 0.930 . S
C275 C271 1.400 1_554 S
C275 C274 1.385 . S
C276 C274 1.478 . S
C276 C278 1.381 . S
C276 C282 1.383 . S
C277 C273 1.495 . S
C277 H283 0.959 . S
C277 H284 0.961 1_556 S
C277 H285 0.960 . S
C278 C276 1.381 . S
C278 C279 1.394 . S
C278 H286 0.930 . S
C279 C278 1.394 . S
C279 C280 1.383 . S
C279 H287 0.929 . S
C280 C279 1.383 . S
C280 C281 1.377 . S
C281 H265 0.930 . S
C281 C280 1.377 . S
C281 C282 1.379 . S
C282 H266 0.931 . S
C282 C276 1.383 . S
C282 C281 1.379 . S
H283 C277 0.959 . S
H284 C277 0.961 1_554 S
H285 C277 0.960 . S
H286 C278 0.930 . S
H287 C279 0.929 . S
H288 C296 0.929 . S
H289 C298 0.930 . S
H290 C300 0.930 . S
H291 C303 0.929 . S
H292 C306 0.930 . S
H293 C308 0.960 . S
H294 C308 0.960 . S
H295 C308 0.960 . S
C296 H288 0.929 . S
C296 C297 1.377 . S
C296 C298 1.384 . S
C297 C296 1.377 . S
C297 C303 1.390 . S
C298 H289 0.930 . S
C298 C296 1.384 . S
C298 C299 1.372 . S
C299 C298 1.372 . S
C299 C300 1.400 . S
C299 C304 1.490 . S
C300 H290 0.930 . S
C300 C299 1.400 . S
C300 C303 1.386 . S
H301 C317 0.930 . S
H302 C318 0.931 . S
C303 H291 0.929 . S
C303 C297 1.390 . S
C303 C300 1.386 . S
C304 C299 1.490 . S
C304 C306 1.395 . S
C304 C307 1.403 1_556 S
H305 C311 0.930 . S
C306 H292 0.930 . S
C306 C304 1.395 . S
C306 C309 1.403 . S
C307 C304 1.403 1_554 S
C307 C308 1.524 . S
C307 C311 1.400 . S
C308 H293 0.960 . S
C308 H294 0.960 . S
C308 H295 0.960 . S
C308 C307 1.524 . S
C309 C306 1.403 . S
C309 C310 1.392 1_556 S
C309 C313 1.495 . S
C310 C309 1.392 1_554 S
C310 C311 1.385 . S
C310 C312 1.478 . S
C311 H305 0.930 . S
C311 C307 1.400 . S
C311 C310 1.385 . S
C312 C310 1.478 . S
C312 C314 1.381 . S
C312 C318 1.383 . S
C313 C309 1.495 . S
C313 H319 0.959 . S
C313 H320 0.961 . S
C313 H321 0.960 . S
C314 C312 1.381 . S
C314 C315 1.394 . S
C314 H322 0.930 . S
C315 C314 1.394 . S
C315 C316 1.383 . S
C315 H323 0.929 . S
C316 C315 1.383 . S
C316 C317 1.377 . S
C317 H301 0.930 . S
C317 C316 1.377 . S
C317 C318 1.379 . S
C318 H302 0.931 . S
C318 C312 1.383 . S
C318 C317 1.379 . S
H319 C313 0.959 . S
H320 C313 0.961 . S
H321 C313 0.960 . S
H322 C314 0.930 . S
H323 C315 0.929 . S
H324 C332 0.929 . S
H325 C334 0.930 . S
H326 C336 0.930 . S
H327 C339 0.929 . S
H328 C342 0.930 . S
H329 C344 0.960 . S
H330 C344 0.960 1_554 S
H331 C344 0.960 . S
C332 H324 0.929 . S
C332 C333 1.377 . S
C332 C334 1.384 . S
C333 C332 1.377 . S
C333 C339 1.390 . S
C334 H325 0.930 . S
C334 C332 1.384 . S
C334 C335 1.372 . S
C335 C334 1.372 . S
C335 C336 1.400 . S
C335 C340 1.490 . S
C336 H326 0.930 . S
C336 C335 1.400 . S
C336 C339 1.386 . S
H337 C353 0.930 . S
H338 C354 0.931 . S
C339 H327 0.929 . S
C339 C333 1.390 . S
C339 C336 1.386 . S
C340 C335 1.490 . S
C340 C342 1.395 . S
C340 C343 1.403 . S
H341 C347 0.930 . S
C342 H328 0.930 . S
C342 C340 1.395 . S
C342 C345 1.403 . S
C343 C340 1.403 . S
C343 C344 1.524 1_554 S
C343 C347 1.400 1_554 S
C344 H329 0.960 . S
C344 H330 0.960 1_556 S
C344 H331 0.960 . S
C344 C343 1.524 1_556 S
C345 C342 1.403 . S
C345 C346 1.392 1_554 S
C345 C349 1.495 . S
C346 C345 1.392 1_556 S
C346 C347 1.385 . S
C346 C348 1.478 . S
C347 H341 0.930 . S
C347 C343 1.400 1_556 S
C347 C346 1.385 . S
C348 C346 1.478 . S
C348 C350 1.381 . S
C348 C354 1.383 . S
C349 C345 1.495 . S
C349 H355 0.959 . S
C349 H356 0.961 . S
C349 H357 0.960 . S
C350 C348 1.381 . S
C350 C351 1.394 . S
C350 H358 0.930 . S
C351 C350 1.394 . S
C351 C352 1.383 . S
C351 H359 0.929 . S
C352 C351 1.383 . S
C352 C353 1.377 . S
C353 H337 0.930 . S
C353 C352 1.377 . S
C353 C354 1.379 . S
C354 H338 0.931 . S
C354 C348 1.383 . S
C354 C353 1.379 . S
H355 C349 0.959 . S
H356 C349 0.961 . S
H357 C349 0.960 . S
H358 C350 0.930 . S
H359 C351 0.929 . S
H360 C368 0.929 . S
H361 C370 0.930 . S
H362 C372 0.930 . S
H363 C375 0.929 . S
H364 C378 0.930 . S
H365 C380 0.960 . S
H366 C380 0.960 . S
H367 C380 0.960 . S
C368 H360 0.929 . S
C368 C369 1.377 . S
C368 C370 1.384 . S
C369 C368 1.377 . S
C369 C375 1.390 . S
C370 H361 0.930 . S
C370 C368 1.384 . S
C370 C371 1.372 . S
C371 C370 1.372 . S
C371 C372 1.400 . S
C371 C376 1.490 . S
C372 H362 0.930 . S
C372 C371 1.400 . S
C372 C375 1.386 . S
H373 C389 0.930 . S
H374 C390 0.931 . S
C375 H363 0.929 . S
C375 C369 1.390 . S
C375 C372 1.386 . S
C376 C371 1.490 . S
C376 C378 1.395 . S
C376 C379 1.403 . S
H377 C383 0.930 . S
C378 H364 0.930 . S
C378 C376 1.395 . S
C378 C381 1.403 . S
C379 C376 1.403 . S
C379 C380 1.524 . S
C379 C383 1.400 . S
C380 H365 0.960 . S
C380 H366 0.960 . S
C380 H367 0.960 . S
C380 C379 1.524 . S
C381 C378 1.403 . S
C381 C382 1.392 . S
C381 C385 1.495 . S
C382 C381 1.392 . S
C382 C383 1.385 . S
C382 C384 1.478 . S
C383 H377 0.930 . S
C383 C379 1.400 . S
C383 C382 1.385 . S
C384 C382 1.478 . S
C384 C386 1.381 . S
C384 C390 1.383 . S
C385 C381 1.495 . S
C385 H391 0.959 . S
C385 H392 0.961 . S
C385 H393 0.960 . S
C386 C384 1.381 . S
C386 C387 1.394 . S
C386 H394 0.930 . S
C387 C386 1.394 . S
C387 C388 1.383 . S
C387 H395 0.929 . S
C388 C387 1.383 . S
C388 C389 1.377 . S
C389 H373 0.930 . S
C389 C388 1.377 . S
C389 C390 1.379 . S
C390 H374 0.931 . S
C390 C384 1.383 . S
C390 C389 1.379 . S
H391 C385 0.959 . S
H392 C385 0.961 . S
H393 C385 0.960 . S
H394 C386 0.930 . S
H395 C387 0.929 . S
H396 C404 0.929 . S
H397 C406 0.930 . S
H398 C408 0.930 . S
H399 C411 0.929 . S
H400 C414 0.930 . S
H401 C416 0.960 . S
H402 C416 0.960 . S
H403 C416 0.960 . S
C404 H396 0.929 . S
C404 C405 1.377 . S
C404 C406 1.384 . S
C405 C404 1.377 . S
C405 C411 1.390 . S
C406 H397 0.930 . S
C406 C404 1.384 . S
C406 C407 1.372 . S
C407 C406 1.372 . S
C407 C408 1.400 . S
C407 C412 1.490 . S
C408 H398 0.930 . S
C408 C407 1.400 . S
C408 C411 1.386 . S
H409 C425 0.930 . S
H410 C426 0.931 . S
C411 H399 0.929 . S
C411 C405 1.390 . S
C411 C408 1.386 . S
C412 C407 1.490 . S
C412 C414 1.395 . S
C412 C415 1.403 . S
H413 C419 0.930 . S
C414 H400 0.930 . S
C414 C412 1.395 . S
C414 C417 1.403 . S
C415 C412 1.403 . S
C415 C416 1.524 . S
C415 C419 1.400 . S
C416 H401 0.960 . S
C416 H402 0.960 . S
C416 H403 0.960 . S
C416 C415 1.524 . S
C417 C414 1.403 . S
C417 C418 1.392 . S
C417 C421 1.495 . S
C418 C417 1.392 . S
C418 C419 1.385 . S
C418 C420 1.478 . S
C419 H413 0.930 . S
C419 C415 1.400 . S
C419 C418 1.385 . S
C420 C418 1.478 . S
C420 C422 1.381 . S
C420 C426 1.383 . S
C421 C417 1.495 . S
C421 H427 0.959 . S
C421 H428 0.961 . S
C421 H429 0.960 . S
C422 C420 1.381 . S
C422 C423 1.394 . S
C422 H430 0.930 . S
C423 C422 1.394 . S
C423 C424 1.383 . S
C423 H431 0.929 . S
C424 C423 1.383 . S
C424 C425 1.377 . S
C425 H409 0.930 . S
C425 C424 1.377 . S
C425 C426 1.379 . S
C426 H410 0.931 . S
C426 C420 1.383 . S
C426 C425 1.379 . S
H427 C421 0.959 . S
H428 C421 0.961 . S
H429 C421 0.960 . S
H430 C422 0.930 . S
H431 C423 0.929 . S
H432 C440 0.929 . S
H433 C442 0.930 . S
H434 C444 0.930 . S
H435 C447 0.929 . S
H436 C450 0.930 . S
H437 C452 0.960 . S
H438 C452 0.960 . S
H439 C452 0.960 . S
C440 H432 0.929 . S
C440 C441 1.377 . S
C440 C442 1.384 . S
C441 C440 1.377 . S
C441 C447 1.390 . S
C442 H433 0.930 . S
C442 C440 1.384 . S
C442 C443 1.372 . S
C443 C442 1.372 . S
C443 C444 1.400 . S
C443 C448 1.490 . S
C444 H434 0.930 . S
C444 C443 1.400 . S
C444 C447 1.386 . S
H445 C461 0.930 . S
H446 C462 0.931 . S
C447 H435 0.929 . S
C447 C441 1.390 . S
C447 C444 1.386 . S
C448 C443 1.490 . S
C448 C450 1.395 . S
C448 C451 1.403 . S
H449 C455 0.930 . S
C450 H436 0.930 . S
C450 C448 1.395 . S
C450 C453 1.403 . S
C451 C448 1.403 . S
C451 C452 1.524 . S
C451 C455 1.400 . S
C452 H437 0.960 . S
C452 H438 0.960 . S
C452 H439 0.960 . S
C452 C451 1.524 . S
C453 C450 1.403 . S
C453 C454 1.392 . S
C453 C457 1.495 . S
C454 C453 1.392 . S
C454 C455 1.385 . S
C454 C456 1.478 . S
C455 H449 0.930 . S
C455 C451 1.400 . S
C455 C454 1.385 . S
C456 C454 1.478 . S
C456 C458 1.381 . S
C456 C462 1.383 . S
C457 C453 1.495 . S
C457 H463 0.959 . S
C457 H464 0.961 . S
C457 H465 0.960 . S
C458 C456 1.381 . S
C458 C459 1.394 . S
C458 H466 0.930 . S
C459 C458 1.394 . S
C459 C460 1.383 . S
C459 H467 0.929 . S
C460 C459 1.383 . S
C460 C461 1.377 . S
C461 H445 0.930 . S
C461 C460 1.377 . S
C461 C462 1.379 . S
C462 H446 0.931 . S
C462 C456 1.383 . S
C462 C461 1.379 . S
H463 C457 0.959 . S
H464 C457 0.961 . S
H465 C457 0.960 . S
H466 C458 0.930 . S
H467 C459 0.929 . S
H468 C476 0.929 . S
H469 C478 0.930 . S
H470 C480 0.930 . S
H471 C483 0.929 . S
H472 C486 0.930 . S
H473 C488 0.960 . S
H474 C488 0.960 . S
H475 C488 0.960 . S
C476 H468 0.929 . S
C476 C477 1.377 . S
C476 C478 1.384 . S
C477 C476 1.377 . S
C477 C483 1.390 . S
C478 H469 0.930 . S
C478 C476 1.384 . S
C478 C479 1.372 . S
C479 C478 1.372 . S
C479 C480 1.400 . S
C479 C484 1.490 . S
C480 H470 0.930 . S
C480 C479 1.400 . S
C480 C483 1.386 . S
H481 C497 0.930 . S
H482 C498 0.931 . S
C483 H471 0.929 . S
C483 C477 1.390 . S
C483 C480 1.386 . S
C484 C479 1.490 . S
C484 C486 1.395 . S
C484 C487 1.403 . S
H485 C491 0.930 . S
C486 H472 0.930 . S
C486 C484 1.395 . S
C486 C489 1.403 . S
C487 C484 1.403 . S
C487 C488 1.524 . S
C487 C491 1.400 . S
C488 H473 0.960 . S
C488 H474 0.960 . S
C488 H475 0.960 . S
C488 C487 1.524 . S
C489 C486 1.403 . S
C489 C490 1.392 . S
C489 C493 1.495 . S
C490 C489 1.392 . S
C490 C491 1.385 . S
C490 C492 1.478 . S
C491 H485 0.930 . S
C491 C487 1.400 . S
C491 C490 1.385 . S
C492 C490 1.478 . S
C492 C494 1.381 . S
C492 C498 1.383 . S
C493 C489 1.495 . S
C493 H499 0.959 . S
C493 H500 0.961 . S
C493 H501 0.960 . S
C494 C492 1.381 . S
C494 C495 1.394 . S
C494 H502 0.930 . S
C495 C494 1.394 . S
C495 C496 1.383 . S
C495 H503 0.929 . S
C496 C495 1.383 . S
C496 C497 1.377 . S
C497 H481 0.930 . S
C497 C496 1.377 . S
C497 C498 1.379 . S
C498 H482 0.931 . S
C498 C492 1.383 . S
C498 C497 1.379 . S
H499 C493 0.959 . S
H500 C493 0.961 . S
H501 C493 0.960 . S
H502 C494 0.930 . S
H503 C495 0.929 . S
H504 C512 0.929 . S
H505 C514 0.930 . S
H506 C516 0.930 . S
H507 C519 0.929 . S
H508 C522 0.930 . S
H509 C524 0.960 . S
H510 C524 0.960 . S
H511 C524 0.960 . S
C512 H504 0.929 . S
C512 C513 1.377 . S
C512 C514 1.384 . S
C513 C512 1.377 . S
C513 C519 1.390 . S
C514 H505 0.930 . S
C514 C512 1.384 . S
C514 C515 1.372 . S
C515 C514 1.372 . S
C515 C516 1.400 . S
C515 C520 1.490 . S
C516 H506 0.930 . S
C516 C515 1.400 . S
C516 C519 1.386 . S
H517 C533 0.930 . S
H518 C534 0.931 . S
C519 H507 0.929 . S
C519 C513 1.390 . S
C519 C516 1.386 . S
C520 C515 1.490 . S
C520 C522 1.395 . S
C520 C523 1.403 . S
H521 C527 0.930 . S
C522 H508 0.930 . S
C522 C520 1.395 . S
C522 C525 1.403 . S
C523 C520 1.403 . S
C523 C524 1.524 . S
C523 C527 1.400 . S
C524 H509 0.960 . S
C524 H510 0.960 . S
C524 H511 0.960 . S
C524 C523 1.524 . S
C525 C522 1.403 . S
C525 C526 1.392 . S
C525 C529 1.495 . S
C526 C525 1.392 . S
C526 C527 1.385 . S
C526 C528 1.478 . S
C527 H521 0.930 . S
C527 C523 1.400 . S
C527 C526 1.385 . S
C528 C526 1.478 . S
C528 C530 1.381 . S
C528 C534 1.383 . S
C529 C525 1.495 . S
C529 H535 0.959 . S
C529 H536 0.961 . S
C529 H537 0.960 . S
C530 C528 1.381 . S
C530 C531 1.394 . S
C530 H538 0.930 . S
C531 C530 1.394 . S
C531 C532 1.383 . S
C531 H539 0.929 . S
C532 C531 1.383 . S
C532 C533 1.377 . S
C533 H517 0.930 . S
C533 C532 1.377 . S
C533 C534 1.379 . S
C534 H518 0.931 . S
C534 C528 1.383 . S
C534 C533 1.379 . S
H535 C529 0.959 . S
H536 C529 0.961 . S
H537 C529 0.960 . S
H538 C530 0.930 . S
H539 C531 0.929 . S
H540 C548 0.929 . S
H541 C550 0.930 . S
H542 C552 0.930 . S
H543 C555 0.929 . S
H544 C558 0.930 . S
H545 C560 0.960 . S
H546 C560 0.960 . S
H547 C560 0.960 . S
C548 H540 0.929 . S
C548 C549 1.377 . S
C548 C550 1.384 . S
C549 C548 1.377 . S
C549 C555 1.390 . S
C550 H541 0.930 . S
C550 C548 1.384 . S
C550 C551 1.372 . S
C551 C550 1.372 . S
C551 C552 1.400 . S
C551 C556 1.490 . S
C552 H542 0.930 . S
C552 C551 1.400 . S
C552 C555 1.386 . S
H553 C569 0.930 . S
H554 C570 0.931 . S
C555 H543 0.929 . S
C555 C549 1.390 . S
C555 C552 1.386 . S
C556 C551 1.490 . S
C556 C558 1.395 . S
C556 C559 1.403 . S
H557 C563 0.930 . S
C558 H544 0.930 . S
C558 C556 1.395 . S
C558 C561 1.403 . S
C559 C556 1.403 . S
C559 C560 1.524 . S
C559 C563 1.400 . S
C560 H545 0.960 . S
C560 H546 0.960 . S
C560 H547 0.960 . S
C560 C559 1.524 . S
C561 C558 1.403 . S
C561 C562 1.392 . S
C561 C565 1.495 . S
C562 C561 1.392 . S
C562 C563 1.385 . S
C562 C564 1.478 . S
C563 H557 0.930 . S
C563 C559 1.400 . S
C563 C562 1.385 . S
C564 C562 1.478 . S
C564 C566 1.381 . S
C564 C570 1.383 . S
C565 C561 1.495 . S
C565 H571 0.959 . S
C565 H572 0.961 . S
C565 H573 0.960 . S
C566 C564 1.381 . S
C566 C567 1.394 . S
C566 H574 0.930 . S
C567 C566 1.394 . S
C567 C568 1.383 . S
C567 H575 0.929 . S
C568 C567 1.383 . S
C568 C569 1.377 . S
C569 H553 0.930 . S
C569 C568 1.377 . S
C569 C570 1.379 . S
C570 H554 0.931 . S
C570 C564 1.383 . S
C570 C569 1.379 . S
H571 C565 0.959 . S
H572 C565 0.961 . S
H573 C565 0.960 . S
H574 C566 0.930 . S
H575 C567 0.929 . S
H576 C584 0.929 . S
H577 C586 0.930 . S
H578 C588 0.930 . S
H579 C591 0.929 . S
H580 C594 0.930 . S
H581 C596 0.960 . S
H582 C596 0.960 . S
H583 C596 0.960 . S
C584 H576 0.929 . S
C584 C585 1.377 . S
C584 C586 1.384 . S
C585 C584 1.377 . S
C585 C591 1.390 . S
C586 H577 0.930 . S
C586 C584 1.384 . S
C586 C587 1.372 . S
C587 C586 1.372 . S
C587 C588 1.400 . S
C587 C592 1.490 . S
C588 H578 0.930 . S
C588 C587 1.400 . S
C588 C591 1.386 . S
H589 C605 0.930 . S
H590 C606 0.931 . S
C591 H579 0.929 . S
C591 C585 1.390 . S
C591 C588 1.386 . S
C592 C587 1.490 . S
C592 C594 1.395 . S
C592 C595 1.403 . S
H593 C599 0.930 . S
C594 H580 0.930 . S
C594 C592 1.395 . S
C594 C597 1.403 . S
C595 C592 1.403 . S
C595 C596 1.524 . S
C595 C599 1.400 . S
C596 H581 0.960 . S
C596 H582 0.960 . S
C596 H583 0.960 . S
C596 C595 1.524 . S
C597 C594 1.403 . S
C597 C598 1.392 . S
C597 C601 1.495 . S
C598 C597 1.392 . S
C598 C599 1.385 . S
C598 C600 1.478 . S
C599 H593 0.930 . S
C599 C595 1.400 . S
C599 C598 1.385 . S
C600 C598 1.478 . S
C600 C602 1.381 . S
C600 C606 1.383 . S
C601 C597 1.495 . S
C601 H607 0.959 . S
C601 H608 0.961 . S
C601 H609 0.960 . S
C602 C600 1.381 . S
C602 C603 1.394 . S
C602 H610 0.930 . S
C603 C602 1.394 . S
C603 C604 1.383 . S
C603 H611 0.929 . S
C604 C603 1.383 . S
C604 C605 1.377 . S
C605 H589 0.930 . S
C605 C604 1.377 . S
C605 C606 1.379 . S
C606 H590 0.931 . S
C606 C600 1.383 . S
C606 C605 1.379 . S
H607 C601 0.959 . S
H608 C601 0.961 . S
H609 C601 0.960 . S
H610 C602 0.930 . S
H611 C603 0.929 . S
H612 C620 0.929 1_554 S
H613 C622 0.930 . S
H614 C624 0.930 . S
H615 C627 0.929 . S
H616 C630 0.930 . S
H617 C632 0.960 . S
H618 C632 0.960 . S
H619 C632 0.960 . S
C620 H612 0.929 1_556 S
C620 C621 1.377 . S
C620 C622 1.384 . S
C621 C620 1.377 . S
C621 C627 1.390 . S
C622 H613 0.930 . S
C622 C620 1.384 . S
C622 C623 1.372 . S
C623 C622 1.372 . S
C623 C624 1.400 . S
C623 C628 1.490 . S
C624 H614 0.930 . S
C624 C623 1.400 . S
C624 C627 1.386 . S
H625 C641 0.930 . S
H626 C642 0.931 . S
C627 H615 0.929 . S
C627 C621 1.390 . S
C627 C624 1.386 . S
C628 C623 1.490 . S
C628 C630 1.395 . S
C628 C631 1.403 . S
H629 C635 0.930 . S
C630 H616 0.930 . S
C630 C628 1.395 . S
C630 C633 1.403 . S
C631 C628 1.403 . S
C631 C632 1.524 . S
C631 C635 1.400 . S
C632 H617 0.960 . S
C632 H618 0.960 . S
C632 H619 0.960 . S
C632 C631 1.524 . S
C633 C630 1.403 . S
C633 C634 1.392 . S
C633 C637 1.495 . S
C634 C633 1.392 . S
C634 C635 1.385 . S
C634 C636 1.478 . S
C635 H629 0.930 . S
C635 C631 1.400 . S
C635 C634 1.385 . S
C636 C634 1.478 . S
C636 C638 1.381 . S
C636 C642 1.383 . S
C637 C633 1.495 . S
C637 H643 0.959 . S
C637 H644 0.961 . S
C637 H645 0.960 . S
C638 C636 1.381 . S
C638 C639 1.394 . S
C638 H646 0.930 . S
C639 C638 1.394 . S
C639 C640 1.383 . S
C639 H647 0.929 . S
C640 C639 1.383 . S
C640 C641 1.377 . S
C641 H625 0.930 . S
C641 C640 1.377 . S
C641 C642 1.379 . S
C642 H626 0.931 . S
C642 C636 1.383 . S
C642 C641 1.379 . S
H643 C637 0.959 . S
H644 C637 0.961 . S
H645 C637 0.960 . S
H646 C638 0.930 . S
H647 C639 0.929 . S
H648 C656 0.929 . S
H649 C658 0.930 . S
H650 C660 0.930 . S
H651 C663 0.929 1_554 S
H652 C666 0.930 . S
H653 C668 0.960 . S
H654 C668 0.960 . S
H655 C668 0.960 . S
C656 H648 0.929 . S
C656 C657 1.377 . S
C656 C658 1.384 . S
C657 C656 1.377 . S
C657 C663 1.390 . S
C658 H649 0.930 . S
C658 C656 1.384 . S
C658 C659 1.372 . S
C659 C658 1.372 . S
C659 C660 1.400 . S
C659 C664 1.490 . S
C660 H650 0.930 . S
C660 C659 1.400 . S
C660 C663 1.386 . S
H661 C677 0.930 . S
H662 C678 0.931 . S
C663 H651 0.929 1_556 S
C663 C657 1.390 . S
C663 C660 1.386 . S
C664 C659 1.490 . S
C664 C666 1.395 . S
C664 C667 1.403 . S
H665 C671 0.930 . S
C666 H652 0.930 . S
C666 C664 1.395 . S
C666 C669 1.403 . S
C667 C664 1.403 . S
C667 C668 1.524 . S
C667 C671 1.400 . S
C668 H653 0.960 . S
C668 H654 0.960 . S
C668 H655 0.960 . S
C668 C667 1.524 . S
C669 C666 1.403 . S
C669 C670 1.392 . S
C669 C673 1.495 . S
C670 C669 1.392 . S
C670 C671 1.385 . S
C670 C672 1.478 . S
C671 H665 0.930 . S
C671 C667 1.400 . S
C671 C670 1.385 . S
C672 C670 1.478 . S
C672 C674 1.381 . S
C672 C678 1.383 . S
C673 C669 1.495 . S
C673 H679 0.959 . S
C673 H680 0.961 . S
C673 H681 0.960 . S
C674 C672 1.381 . S
C674 C675 1.394 . S
C674 H682 0.930 . S
C675 C674 1.394 . S
C675 C676 1.383 . S
C675 H683 0.929 . S
C676 C675 1.383 . S
C676 C677 1.377 . S
C677 H661 0.930 . S
C677 C676 1.377 . S
C677 C678 1.379 . S
C678 H662 0.931 . S
C678 C672 1.383 . S
C678 C677 1.379 . S
H679 C673 0.959 . S
H680 C673 0.961 . S
H681 C673 0.960 . S
H682 C674 0.930 . S
H683 C675 0.929 . S
H684 C692 0.929 . S
H685 C694 0.930 . S
H686 C696 0.930 . S
H687 C699 0.929 . S
H688 C702 0.930 . S
H689 C704 0.960 . S
H690 C704 0.960 . S
H691 C704 0.960 . S
C692 H684 0.929 . S
C692 C693 1.377 . S
C692 C694 1.384 . S
C693 C692 1.377 . S
C693 C699 1.390 . S
C694 H685 0.930 . S
C694 C692 1.384 . S
C694 C695 1.372 . S
C695 C694 1.372 . S
C695 C696 1.400 . S
C695 C700 1.490 . S
C696 H686 0.930 . S
C696 C695 1.400 . S
C696 C699 1.386 . S
H697 C713 0.930 . S
H698 C714 0.931 . S
C699 H687 0.929 . S
C699 C693 1.390 . S
C699 C696 1.386 . S
C700 C695 1.490 . S
C700 C702 1.395 . S
C700 C703 1.403 . S
H701 C707 0.930 . S
C702 H688 0.930 . S
C702 C700 1.395 . S
C702 C705 1.403 . S
C703 C700 1.403 . S
C703 C704 1.524 . S
C703 C707 1.400 . S
C704 H689 0.960 . S
C704 H690 0.960 . S
C704 H691 0.960 . S
C704 C703 1.524 . S
C705 C702 1.403 . S
C705 C706 1.392 . S
C705 C709 1.495 . S
C706 C705 1.392 . S
C706 C707 1.385 . S
C706 C708 1.478 . S
C707 H701 0.930 . S
C707 C703 1.400 . S
C707 C706 1.385 . S
C708 C706 1.478 . S
C708 C710 1.381 . S
C708 C714 1.383 . S
C709 C705 1.495 . S
C709 H715 0.959 . S
C709 H716 0.961 . S
C709 H717 0.960 . S
C710 C708 1.381 . S
C710 C711 1.394 . S
C710 H718 0.930 . S
C711 C710 1.394 . S
C711 C712 1.383 . S
C711 H719 0.929 . S
C712 C711 1.383 . S
C712 C713 1.377 . S
C713 H697 0.930 . S
C713 C712 1.377 . S
C713 C714 1.379 . S
C714 H698 0.931 . S
C714 C708 1.383 . S
C714 C713 1.379 . S
H715 C709 0.959 . S
H716 C709 0.961 . S
H717 C709 0.960 . S
H718 C710 0.930 . S
H719 C711 0.929 . S
H720 C728 0.929 . S
H721 C730 0.930 . S
H722 C732 0.930 . S
H723 C735 0.929 . S
H724 C738 0.930 . S
H725 C740 0.960 . S
H726 C740 0.960 . S
H727 C740 0.960 . S
C728 H720 0.929 . S
C728 C729 1.377 . S
C728 C730 1.384 . S
C729 C728 1.377 . S
C729 C735 1.390 . S
C730 H721 0.930 . S
C730 C728 1.384 . S
C730 C731 1.372 . S
C731 C730 1.372 . S
C731 C732 1.400 . S
C731 C736 1.490 . S
C732 H722 0.930 . S
C732 C731 1.400 . S
C732 C735 1.386 . S
H733 C749 0.930 . S
H734 C750 0.931 . S
C735 H723 0.929 . S
C735 C729 1.390 . S
C735 C732 1.386 . S
C736 C731 1.490 . S
C736 C738 1.395 . S
C736 C739 1.403 . S
H737 C743 0.930 . S
C738 H724 0.930 . S
C738 C736 1.395 . S
C738 C741 1.403 . S
C739 C736 1.403 . S
C739 C740 1.524 . S
C739 C743 1.400 . S
C740 H725 0.960 . S
C740 H726 0.960 . S
C740 H727 0.960 . S
C740 C739 1.524 . S
C741 C738 1.403 . S
C741 C742 1.392 . S
C741 C745 1.495 . S
C742 C741 1.392 . S
C742 C743 1.385 . S
C742 C744 1.478 . S
C743 H737 0.930 . S
C743 C739 1.400 . S
C743 C742 1.385 . S
C744 C742 1.478 . S
C744 C746 1.381 . S
C744 C750 1.383 . S
C745 C741 1.495 . S
C745 H751 0.959 . S
C745 H752 0.961 . S
C745 H753 0.960 . S
C746 C744 1.381 . S
C746 C747 1.394 . S
C746 H754 0.930 . S
C747 C746 1.394 . S
C747 C748 1.383 . S
C747 H755 0.929 . S
C748 C747 1.383 . S
C748 C749 1.377 . S
C749 H733 0.930 . S
C749 C748 1.377 . S
C749 C750 1.379 . S
C750 H734 0.931 . S
C750 C744 1.383 . S
C750 C749 1.379 . S
H751 C745 0.959 . S
H752 C745 0.961 . S
H753 C745 0.960 . S
H754 C746 0.930 . S
H755 C747 0.929 . S
H756 C764 0.929 . S
H757 C766 0.930 . S
H758 C768 0.930 . S
H759 C771 0.929 . S
H760 C774 0.930 . S
H761 C776 0.960 . S
H762 C776 0.960 . S
H763 C776 0.960 . S
C764 H756 0.929 . S
C764 C765 1.377 . S
C764 C766 1.384 . S
C765 C764 1.377 . S
C765 C771 1.390 . S
C766 H757 0.930 . S
C766 C764 1.384 . S
C766 C767 1.372 . S
C767 C766 1.372 . S
C767 C768 1.400 . S
C767 C772 1.490 . S
C768 H758 0.930 . S
C768 C767 1.400 . S
C768 C771 1.386 . S
H769 C785 0.930 . S
H770 C786 0.931 . S
C771 H759 0.929 . S
C771 C765 1.390 . S
C771 C768 1.386 . S
C772 C767 1.490 . S
C772 C774 1.395 . S
C772 C775 1.403 . S
H773 C779 0.930 . S
C774 H760 0.930 . S
C774 C772 1.395 . S
C774 C777 1.403 . S
C775 C772 1.403 . S
C775 C776 1.524 . S
C775 C779 1.400 . S
C776 H761 0.960 . S
C776 H762 0.960 . S
C776 H763 0.960 . S
C776 C775 1.524 . S
C777 C774 1.403 . S
C777 C778 1.392 . S
C777 C781 1.495 . S
C778 C777 1.392 . S
C778 C779 1.385 . S
C778 C780 1.478 . S
C779 H773 0.930 . S
C779 C775 1.400 . S
C779 C778 1.385 . S
C780 C778 1.478 . S
C780 C782 1.381 . S
C780 C786 1.383 . S
C781 C777 1.495 . S
C781 H787 0.959 . S
C781 H788 0.961 . S
C781 H789 0.960 . S
C782 C780 1.381 . S
C782 C783 1.394 . S
C782 H790 0.930 . S
C783 C782 1.394 . S
C783 C784 1.383 . S
C783 H791 0.929 . S
C784 C783 1.383 . S
C784 C785 1.377 . S
C785 H769 0.930 . S
C785 C784 1.377 . S
C785 C786 1.379 . S
C786 H770 0.931 . S
C786 C780 1.383 . S
C786 C785 1.379 . S
H787 C781 0.959 . S
H788 C781 0.961 . S
H789 C781 0.960 . S
H790 C782 0.930 . S
H791 C783 0.929 . S
H792 C800 0.929 . S
H793 C802 0.930 . S
H794 C804 0.930 . S
H795 C807 0.929 . S
H796 C810 0.930 . S
H797 C812 0.960 . S
H798 C812 0.960 . S
H799 C812 0.960 . S
C800 H792 0.929 . S
C800 C801 1.377 . S
C800 C802 1.384 . S
C801 C800 1.377 . S
C801 C807 1.390 . S
C802 H793 0.930 . S
C802 C800 1.384 . S
C802 C803 1.372 . S
C803 C802 1.372 . S
C803 C804 1.400 . S
C803 C808 1.490 . S
C804 H794 0.930 . S
C804 C803 1.400 . S
C804 C807 1.386 . S
H805 C821 0.930 1_556 S
H806 C822 0.931 . S
C807 H795 0.929 . S
C807 C801 1.390 . S
C807 C804 1.386 . S
C808 C803 1.490 . S
C808 C810 1.395 . S
C808 C811 1.403 . S
H809 C815 0.930 . S
C810 H796 0.930 . S
C810 C808 1.395 . S
C810 C813 1.403 . S
C811 C808 1.403 . S
C811 C812 1.524 . S
C811 C815 1.400 . S
C812 H797 0.960 . S
C812 H798 0.960 . S
C812 H799 0.960 . S
C812 C811 1.524 . S
C813 C810 1.403 . S
C813 C814 1.392 . S
C813 C817 1.495 . S
C814 C813 1.392 . S
C814 C815 1.385 . S
C814 C816 1.478 . S
C815 H809 0.930 . S
C815 C811 1.400 . S
C815 C814 1.385 . S
C816 C814 1.478 . S
C816 C818 1.381 . S
C816 C822 1.383 . S
C817 C813 1.495 . S
C817 H823 0.959 . S
C817 H824 0.961 . S
C817 H825 0.960 . S
C818 C816 1.381 . S
C818 C819 1.394 . S
C818 H826 0.930 . S
C819 C818 1.394 . S
C819 C820 1.383 . S
C819 H827 0.929 . S
C820 C819 1.383 . S
C820 C821 1.377 . S
C821 H805 0.930 1_554 S
C821 C820 1.377 . S
C821 C822 1.379 . S
C822 H806 0.931 . S
C822 C816 1.383 . S
C822 C821 1.379 . S
H823 C817 0.959 . S
H824 C817 0.961 . S
H825 C817 0.960 . S
H826 C818 0.930 . S
H827 C819 0.929 . S
H828 C836 0.929 . S
H829 C838 0.930 . S
H830 C840 0.930 . S
H831 C843 0.929 . S
H832 C846 0.930 . S
H833 C848 0.960 . S
H834 C848 0.960 . S
H835 C848 0.960 . S
C836 H828 0.929 . S
C836 C837 1.377 . S
C836 C838 1.384 . S
C837 C836 1.377 . S
C837 C843 1.390 . S
C838 H829 0.930 . S
C838 C836 1.384 . S
C838 C839 1.372 . S
C839 C838 1.372 . S
C839 C840 1.400 . S
C839 C844 1.490 . S
C840 H830 0.930 . S
C840 C839 1.400 . S
C840 C843 1.386 . S
H841 C857 0.930 . S
H842 C858 0.931 . S
C843 H831 0.929 . S
C843 C837 1.390 . S
C843 C840 1.386 . S
C844 C839 1.490 . S
C844 C846 1.395 . S
C844 C847 1.403 . S
H845 C851 0.930 . S
C846 H832 0.930 . S
C846 C844 1.395 . S
C846 C849 1.403 . S
C847 C844 1.403 . S
C847 C848 1.524 . S
C847 C851 1.400 . S
C848 H833 0.960 . S
C848 H834 0.960 . S
C848 H835 0.960 . S
C848 C847 1.524 . S
C849 C846 1.403 . S
C849 C850 1.392 . S
C849 C853 1.495 . S
C850 C849 1.392 . S
C850 C851 1.385 . S
C850 C852 1.478 . S
C851 H845 0.930 . S
C851 C847 1.400 . S
C851 C850 1.385 . S
C852 C850 1.478 . S
C852 C854 1.381 . S
C852 C858 1.383 . S
C853 C849 1.495 . S
C853 H859 0.959 . S
C853 H860 0.961 . S
C853 H861 0.960 . S
C854 C852 1.381 . S
C854 C855 1.394 . S
C854 H862 0.930 . S
C855 C854 1.394 . S
C855 C856 1.383 . S
C855 H863 0.929 . S
C856 C855 1.383 . S
C856 C857 1.377 . S
C857 H841 0.930 . S
C857 C856 1.377 . S
C857 C858 1.379 . S
C858 H842 0.931 . S
C858 C852 1.383 . S
C858 C857 1.379 . S
H859 C853 0.959 . S
H860 C853 0.961 . S
H861 C853 0.960 . S
H862 C854 0.930 . S
H863 C855 0.929 . S
H864 C872 0.929 . S
H865 C874 0.930 . S
H866 C876 0.930 . S
H867 C879 0.929 . S
H868 C882 0.930 . S
H869 C884 0.960 . S
H870 C884 0.960 . S
H871 C884 0.960 . S
C872 H864 0.929 . S
C872 C873 1.377 . S
C872 C874 1.384 . S
C873 C872 1.377 . S
C873 C879 1.390 . S
C874 H865 0.930 . S
C874 C872 1.384 . S
C874 C875 1.372 . S
C875 C874 1.372 . S
C875 C876 1.400 . S
C875 C880 1.490 . S
C876 H866 0.930 . S
C876 C875 1.400 . S
C876 C879 1.386 . S
H877 C893 0.930 . S
H878 C894 0.931 . S
C879 H867 0.929 . S
C879 C873 1.390 . S
C879 C876 1.386 . S
C880 C875 1.490 . S
C880 C882 1.395 . S
C880 C883 1.403 . S
H881 C887 0.930 . S
C882 H868 0.930 . S
C882 C880 1.395 . S
C882 C885 1.403 . S
C883 C880 1.403 . S
C883 C884 1.524 . S
C883 C887 1.400 . S
C884 H869 0.960 . S
C884 H870 0.960 . S
C884 H871 0.960 . S
C884 C883 1.524 . S
C885 C882 1.403 . S
C885 C886 1.392 . S
C885 C889 1.495 . S
C886 C885 1.392 . S
C886 C887 1.385 . S
C886 C888 1.478 . S
C887 H881 0.930 . S
C887 C883 1.400 . S
C887 C886 1.385 . S
C888 C886 1.478 . S
C888 C890 1.381 . S
C888 C894 1.383 . S
C889 C885 1.495 . S
C889 H895 0.959 . S
C889 H896 0.961 . S
C889 H897 0.960 . S
C890 C888 1.381 . S
C890 C891 1.394 . S
C890 H898 0.930 . S
C891 C890 1.394 . S
C891 C892 1.383 . S
C891 H899 0.929 1_554 S
C892 C891 1.383 . S
C892 C893 1.377 . S
C893 H877 0.930 . S
C893 C892 1.377 . S
C893 C894 1.379 . S
C894 H878 0.931 . S
C894 C888 1.383 . S
C894 C893 1.379 . S
H895 C889 0.959 . S
H896 C889 0.961 . S
H897 C889 0.960 . S
H898 C890 0.930 . S
H899 C891 0.929 1_556 S
H900 C908 0.929 . S
H901 C910 0.930 . S
H902 C912 0.930 . S
H903 C915 0.929 . S
H904 C918 0.930 . S
H905 C920 0.960 . S
H906 C920 0.960 . S
H907 C920 0.960 . S
C908 H900 0.929 . S
C908 C909 1.377 . S
C908 C910 1.384 . S
C909 C908 1.377 . S
C909 C915 1.390 . S
C910 H901 0.930 . S
C910 C908 1.384 . S
C910 C911 1.372 . S
C911 C910 1.372 . S
C911 C912 1.400 . S
C911 C916 1.490 . S
C912 H902 0.930 . S
C912 C911 1.400 . S
C912 C915 1.386 . S
H913 C929 0.930 . S
H914 C930 0.931 . S
C915 H903 0.929 . S
C915 C909 1.390 . S
C915 C912 1.386 . S
C916 C911 1.490 . S
C916 C918 1.395 . S
C916 C919 1.403 . S
H917 C923 0.930 . S
C918 H904 0.930 . S
C918 C916 1.395 . S
C918 C921 1.403 . S
C919 C916 1.403 . S
C919 C920 1.524 . S
C919 C923 1.400 . S
C920 H905 0.960 . S
C920 H906 0.960 . S
C920 H907 0.960 . S
C920 C919 1.524 . S
C921 C918 1.403 . S
C921 C922 1.392 . S
C921 C925 1.495 . S
C922 C921 1.392 . S
C922 C923 1.385 . S
C922 C924 1.478 . S
C923 H917 0.930 . S
C923 C919 1.400 . S
C923 C922 1.385 . S
C924 C922 1.478 . S
C924 C926 1.381 . S
C924 C930 1.383 . S
C925 C921 1.495 . S
C925 H931 0.959 . S
C925 H932 0.961 . S
C925 H933 0.960 . S
C926 C924 1.381 . S
C926 C927 1.394 . S
C926 H934 0.930 . S
C927 C926 1.394 . S
C927 C928 1.383 . S
C927 H935 0.929 . S
C928 C927 1.383 . S
C928 C929 1.377 . S
C929 H913 0.930 . S
C929 C928 1.377 . S
C929 C930 1.379 . S
C930 H914 0.931 . S
C930 C924 1.383 . S
C930 C929 1.379 . S
H931 C925 0.959 . S
H932 C925 0.961 . S
H933 C925 0.960 . S
H934 C926 0.930 . S
H935 C927 0.929 . S
H936 C944 0.929 . S
H937 C946 0.930 . S
H938 C948 0.930 . S
H939 C951 0.929 . S
H940 C954 0.930 . S
H941 C956 0.960 . S
H942 C956 0.960 . S
H943 C956 0.960 . S
C944 H936 0.929 . S
C944 C945 1.377 . S
C944 C946 1.384 . S
C945 C944 1.377 . S
C945 C951 1.390 . S
C946 H937 0.930 . S
C946 C944 1.384 . S
C946 C947 1.372 . S
C947 C946 1.372 . S
C947 C948 1.400 . S
C947 C952 1.490 . S
C948 H938 0.930 . S
C948 C947 1.400 . S
C948 C951 1.386 . S
H949 C965 0.930 . S
H950 C966 0.931 . S
C951 H939 0.929 . S
C951 C945 1.390 . S
C951 C948 1.386 . S
C952 C947 1.490 . S
C952 C954 1.395 . S
C952 C955 1.403 . S
H953 C959 0.930 . S
C954 H940 0.930 . S
C954 C952 1.395 . S
C954 C957 1.403 . S
C955 C952 1.403 . S
C955 C956 1.524 . S
C955 C959 1.400 . S
C956 H941 0.960 . S
C956 H942 0.960 . S
C956 H943 0.960 . S
C956 C955 1.524 . S
C957 C954 1.403 . S
C957 C958 1.392 . S
C957 C961 1.495 . S
C958 C957 1.392 . S
C958 C959 1.385 . S
C958 C960 1.478 . S
C959 H953 0.930 . S
C959 C955 1.400 . S
C959 C958 1.385 . S
C960 C958 1.478 . S
C960 C962 1.381 . S
C960 C966 1.383 . S
C961 C957 1.495 . S
C961 H967 0.959 . S
C961 H968 0.961 . S
C961 H969 0.960 . S
C962 C960 1.381 . S
C962 C963 1.394 . S
C962 H970 0.930 . S
C963 C962 1.394 . S
C963 C964 1.383 . S
C963 H971 0.929 . S
C964 C963 1.383 . S
C964 C965 1.377 . S
C965 H949 0.930 . S
C965 C964 1.377 . S
C965 C966 1.379 . S
C966 H950 0.931 . S
C966 C960 1.383 . S
C966 C965 1.379 . S
H967 C961 0.959 . S
H968 C961 0.961 . S
H969 C961 0.960 . S
H970 C962 0.930 . S
H971 C963 0.929 . S
H972 C980 0.929 . S
H973 C982 0.930 1_545 S
H974 C984 0.930 . S
H975 C987 0.929 . S
H976 C990 0.930 . S
H977 C992 0.960 . S
H978 C992 0.960 . S
H979 C992 0.960 . S
C980 H972 0.929 . S
C980 C981 1.377 . S
C980 C982 1.384 . S
C981 C980 1.377 . S
C981 C987 1.390 . S
C982 H973 0.930 1_565 S
C982 C980 1.384 . S
C982 C983 1.372 . S
C983 C982 1.372 . S
C983 C984 1.400 . S
C983 C988 1.490 . S
C984 H974 0.930 . S
C984 C983 1.400 . S
C984 C987 1.386 . S
H985 C1001 0.930 . S
H986 C1002 0.931 . S
C987 H975 0.929 . S
C987 C981 1.390 . S
C987 C984 1.386 . S
C988 C983 1.490 . S
C988 C990 1.395 1_565 S
C988 C991 1.403 . S
H989 C995 0.930 . S
C990 H976 0.930 . S
C990 C988 1.395 1_545 S
C990 C993 1.403 . S
C991 C988 1.403 . S
C991 C992 1.524 . S
C991 C995 1.400 . S
C992 H977 0.960 . S
C992 H978 0.960 . S
C992 H979 0.960 . S
C992 C991 1.524 . S
C993 C990 1.403 . S
C993 C994 1.392 . S
C993 C997 1.495 . S
C994 C993 1.392 . S
C994 C995 1.385 1_545 S
C994 C996 1.478 . S
C995 H989 0.930 . S
C995 C991 1.400 . S
C995 C994 1.385 1_565 S
C996 C994 1.478 . S
C996 C998 1.381 . S
C996 C1002 1.383 . S
C997 C993 1.495 . S
C997 H1003 0.959 . S
C997 H1004 0.961 . S
C997 H1005 0.960 . S
C998 C996 1.381 . S
C998 C999 1.394 . S
C998 H1006 0.930 . S
C999 C998 1.394 . S
C999 C1000 1.383 . S
C999 H1007 0.929 . S
C1000 C999 1.383 . S
C1000 C1001 1.377 . S
C1001 H985 0.930 . S
C1001 C1000 1.377 . S
C1001 C1002 1.379 . S
C1002 H986 0.931 . S
C1002 C996 1.383 . S
C1002 C1001 1.379 . S
H1003 C997 0.959 . S
H1004 C997 0.961 . S
H1005 C997 0.960 . S
H1006 C998 0.930 . S
H1007 C999 0.929 . S
H1008 C1016 0.929 . S
H1009 C1018 0.930 . S
H1010 C1020 0.930 . S
H1011 C1023 0.929 . S
H1012 C1026 0.930 . S
H1013 C1028 0.960 . S
H1014 C1028 0.960 . S
H1015 C1028 0.960 . S
C1016 H1008 0.929 . S
C1016 C1017 1.377 . S
C1016 C1018 1.384 . S
C1017 C1016 1.377 . S
C1017 C1023 1.390 . S
C1018 H1009 0.930 . S
C1018 C1016 1.384 . S
C1018 C1019 1.372 . S
C1019 C1018 1.372 . S
C1019 C1020 1.400 . S
C1019 C1024 1.490 . S
C1020 H1010 0.930 . S
C1020 C1019 1.400 . S
C1020 C1023 1.386 . S
H1021 C1037 0.930 . S
H1022 C1038 0.931 . S
C1023 H1011 0.929 . S
C1023 C1017 1.390 . S
C1023 C1020 1.386 . S
C1024 C1019 1.490 . S
C1024 C1026 1.395 . S
C1024 C1027 1.403 . S
H1025 C1031 0.930 . S
C1026 H1012 0.930 . S
C1026 C1024 1.395 . S
C1026 C1029 1.403 . S
C1027 C1024 1.403 . S
C1027 C1028 1.524 . S
C1027 C1031 1.400 . S
C1028 H1013 0.960 . S
C1028 H1014 0.960 . S
C1028 H1015 0.960 . S
C1028 C1027 1.524 . S
C1029 C1026 1.403 . S
C1029 C1030 1.392 . S
C1029 C1033 1.495 . S
C1030 C1029 1.392 . S
C1030 C1031 1.385 . S
C1030 C1032 1.478 . S
C1031 H1025 0.930 . S
C1031 C1027 1.400 . S
C1031 C1030 1.385 . S
C1032 C1030 1.478 . S
C1032 C1034 1.381 1_554 S
C1032 C1038 1.383 . S
C1033 C1029 1.495 . S
C1033 H1039 0.959 . S
C1033 H1040 0.961 . S
C1033 H1041 0.960 . S
C1034 C1032 1.381 1_556 S
C1034 C1035 1.394 . S
C1034 H1042 0.930 . S
C1035 C1034 1.394 . S
C1035 C1036 1.383 . S
C1035 H1043 0.929 . S
C1036 C1035 1.383 . S
C1036 C1037 1.377 1_556 S
C1037 H1021 0.930 . S
C1037 C1036 1.377 1_554 S
C1037 C1038 1.379 . S
C1038 H1022 0.931 . S
C1038 C1032 1.383 . S
C1038 C1037 1.379 . S
H1039 C1033 0.959 . S
H1040 C1033 0.961 . S
H1041 C1033 0.960 . S
H1042 C1034 0.930 . S
H1043 C1035 0.929 . S
H1044 C1052 0.929 . S
H1045 C1054 0.930 . S
H1046 C1056 0.930 . S
H1047 C1059 0.929 . S
H1048 C1062 0.930 . S
H1049 C1064 0.960 . S
H1050 C1064 0.960 . S
H1051 C1064 0.960 . S
C1052 H1044 0.929 . S
C1052 C1053 1.377 . S
C1052 C1054 1.384 . S
C1053 C1052 1.377 . S
C1053 C1059 1.390 1_556 S
C1054 H1045 0.930 . S
C1054 C1052 1.384 . S
C1054 C1055 1.372 1_556 S
C1055 C1054 1.372 1_554 S
C1055 C1056 1.400 . S
C1055 C1060 1.490 . S
C1056 H1046 0.930 . S
C1056 C1055 1.400 . S
C1056 C1059 1.386 . S
H1057 C1073 0.930 . S
H1058 C1074 0.931 . S
C1059 H1047 0.929 . S
C1059 C1053 1.390 1_554 S
C1059 C1056 1.386 . S
C1060 C1055 1.490 . S
C1060 C1062 1.395 1_655 S
C1060 C1063 1.403 . S
H1061 C1067 0.930 . S
C1062 H1048 0.930 . S
C1062 C1060 1.395 1_455 S
C1062 C1065 1.403 . S
C1063 C1060 1.403 . S
C1063 C1064 1.524 . S
C1063 C1067 1.400 . S
C1064 H1049 0.960 . S
C1064 H1050 0.960 . S
C1064 H1051 0.960 . S
C1064 C1063 1.524 . S
C1065 C1062 1.403 . S
C1065 C1066 1.392 . S
C1065 C1069 1.495 . S
C1066 C1065 1.392 . S
C1066 C1067 1.385 1_455 S
C1066 C1068 1.478 . S
C1067 H1061 0.930 . S
C1067 C1063 1.400 . S
C1067 C1066 1.385 1_655 S
C1068 C1066 1.478 . S
C1068 C1070 1.381 . S
C1068 C1074 1.383 . S
C1069 C1065 1.495 . S
C1069 H1075 0.959 . S
C1069 H1076 0.961 . S
C1069 H1077 0.960 . S
C1070 C1068 1.381 . S
C1070 C1071 1.394 . S
C1070 H1078 0.930 . S
C1071 C1070 1.394 . S
C1071 C1072 1.383 . S
C1071 H1079 0.929 . S
C1072 C1071 1.383 . S
C1072 C1073 1.377 . S
C1073 H1057 0.930 . S
C1073 C1072 1.377 . S
C1073 C1074 1.379 . S
C1074 H1058 0.931 . S
C1074 C1068 1.383 . S
C1074 C1073 1.379 . S
H1075 C1069 0.959 . S
H1076 C1069 0.961 . S
H1077 C1069 0.960 . S
H1078 C1070 0.930 . S
H1079 C1071 0.929 . S
H1080 C1088 0.929 . S
H1081 C1090 0.930 . S
H1082 C1092 0.930 . S
H1083 C1095 0.929 . S
H1084 C1098 0.930 . S
H1085 C1100 0.960 . S
H1086 C1100 0.960 . S
H1087 C1100 0.960 . S
C1088 H1080 0.929 . S
C1088 C1089 1.377 1_554 S
C1088 C1090 1.384 . S
C1089 C1088 1.377 1_556 S
C1089 C1095 1.390 . S
C1090 H1081 0.930 . S
C1090 C1088 1.384 . S
C1090 C1091 1.372 . S
C1091 C1090 1.372 . S
C1091 C1092 1.400 . S
C1091 C1096 1.490 . S
C1092 H1082 0.930 . S
C1092 C1091 1.400 . S
C1092 C1095 1.386 1_554 S
H1093 C1109 0.930 . S
H1094 C1110 0.931 . S
C1095 H1083 0.929 . S
C1095 C1089 1.390 . S
C1095 C1092 1.386 1_556 S
C1096 C1091 1.490 . S
C1096 C1098 1.395 . S
C1096 C1099 1.403 . S
H1097 C1103 0.930 . S
C1098 H1084 0.930 . S
C1098 C1096 1.395 . S
C1098 C1101 1.403 . S
C1099 C1096 1.403 . S
C1099 C1100 1.524 . S
C1099 C1103 1.400 . S
C1100 H1085 0.960 . S
C1100 H1086 0.960 . S
C1100 H1087 0.960 . S
C1100 C1099 1.524 . S
C1101 C1098 1.403 . S
C1101 C1102 1.392 . S
C1101 C1105 1.495 . S
C1102 C1101 1.392 . S
C1102 C1103 1.385 . S
C1102 C1104 1.478 . S
C1103 H1097 0.930 . S
C1103 C1099 1.400 . S
C1103 C1102 1.385 . S
C1104 C1102 1.478 . S
C1104 C1106 1.381 . S
C1104 C1110 1.383 . S
C1105 C1101 1.495 . S
C1105 H1111 0.959 . S
C1105 H1112 0.961 . S
C1105 H1113 0.960 . S
C1106 C1104 1.381 . S
C1106 C1107 1.394 . S
C1106 H1114 0.930 . S
C1107 C1106 1.394 . S
C1107 C1108 1.383 . S
C1107 H1115 0.929 . S
C1108 C1107 1.383 . S
C1108 C1109 1.377 . S
C1109 H1093 0.930 . S
C1109 C1108 1.377 . S
C1109 C1110 1.379 . S
C1110 H1094 0.931 . S
C1110 C1104 1.383 . S
C1110 C1109 1.379 . S
H1111 C1105 0.959 . S
H1112 C1105 0.961 . S
H1113 C1105 0.960 . S
H1114 C1106 0.930 . S
H1115 C1107 0.929 . S
H1116 C1124 0.929 . S
H1117 C1126 0.930 . S
H1118 C1128 0.930 1_455 S
H1119 C1131 0.929 . S
H1120 C1134 0.930 . S
H1121 C1136 0.960 . S
H1122 C1136 0.960 . S
H1123 C1136 0.960 . S
C1124 H1116 0.929 . S
C1124 C1125 1.377 . S
C1124 C1126 1.384 . S
C1125 C1124 1.377 . S
C1125 C1131 1.390 . S
C1126 H1117 0.930 . S
C1126 C1124 1.384 . S
C1126 C1127 1.372 . S
C1127 C1126 1.372 . S
C1127 C1128 1.400 . S
C1127 C1132 1.490 1_655 S
C1128 H1118 0.930 1_655 S
C1128 C1127 1.400 . S
C1128 C1131 1.386 . S
H1129 C1145 0.930 . S
H1130 C1146 0.931 . S
C1131 H1119 0.929 . S
C1131 C1125 1.390 . S
C1131 C1128 1.386 . S
C1132 C1127 1.490 1_455 S
C1132 C1134 1.395 . S
C1132 C1135 1.403 1_455 S
H1133 C1139 0.930 . S
C1134 H1120 0.930 . S
C1134 C1132 1.395 . S
C1134 C1137 1.403 . S
C1135 C1132 1.403 1_655 S
C1135 C1136 1.524 . S
C1135 C1139 1.400 1_655 S
C1136 H1121 0.960 . S
C1136 H1122 0.960 . S
C1136 H1123 0.960 . S
C1136 C1135 1.524 . S
C1137 C1134 1.403 . S
C1137 C1138 1.392 . S
C1137 C1141 1.495 . S
C1138 C1137 1.392 . S
C1138 C1139 1.385 . S
C1138 C1140 1.478 . S
C1139 H1133 0.930 . S
C1139 C1135 1.400 1_455 S
C1139 C1138 1.385 . S
C1140 C1138 1.478 . S
C1140 C1142 1.381 . S
C1140 C1146 1.383 . S
C1141 C1137 1.495 . S
C1141 H1147 0.959 . S
C1141 H1148 0.961 . S
C1141 H1149 0.960 . S
C1142 C1140 1.381 . S
C1142 C1143 1.394 . S
C1142 H1150 0.930 . S
C1143 C1142 1.394 . S
C1143 C1144 1.383 . S
C1143 H1151 0.929 . S
C1144 C1143 1.383 . S
C1144 C1145 1.377 . S
C1145 H1129 0.930 . S
C1145 C1144 1.377 . S
C1145 C1146 1.379 . S
C1146 H1130 0.931 . S
C1146 C1140 1.383 . S
C1146 C1145 1.379 . S
H1147 C1141 0.959 . S
H1148 C1141 0.961 . S
H1149 C1141 0.960 . S
H1150 C1142 0.930 . S
H1151 C1143 0.929 . S
H1152 C1160 0.929 . S
H1153 C1162 0.930 . S
H1154 C1164 0.930 . S
H1155 C1167 0.929 . S
H1156 C1170 0.930 . S
H1157 C1172 0.960 . S
H1158 C1172 0.960 . S
H1159 C1172 0.960 . S
C1160 H1152 0.929 . S
C1160 C1161 1.377 . S
C1160 C1162 1.384 . S
C1161 C1160 1.377 . S
C1161 C1167 1.390 . S
C1162 H1153 0.930 . S
C1162 C1160 1.384 . S
C1162 C1163 1.372 . S
C1163 C1162 1.372 . S
C1163 C1164 1.400 . S
C1163 C1168 1.490 . S
C1164 H1154 0.930 . S
C1164 C1163 1.400 . S
C1164 C1167 1.386 . S
H1165 C1181 0.930 . S
H1166 C1182 0.931 . S
C1167 H1155 0.929 . S
C1167 C1161 1.390 . S
C1167 C1164 1.386 . S
C1168 C1163 1.490 . S
C1168 C1170 1.395 . S
C1168 C1171 1.403 . S
H1169 C1175 0.930 . S
C1170 H1156 0.930 . S
C1170 C1168 1.395 . S
C1170 C1173 1.403 . S
C1171 C1168 1.403 . S
C1171 C1172 1.524 . S
C1171 C1175 1.400 . S
C1172 H1157 0.960 . S
C1172 H1158 0.960 . S
C1172 H1159 0.960 . S
C1172 C1171 1.524 . S
C1173 C1170 1.403 . S
C1173 C1174 1.392 . S
C1173 C1177 1.495 . S
C1174 C1173 1.392 . S
C1174 C1175 1.385 . S
C1174 C1176 1.478 . S
C1175 H1169 0.930 . S
C1175 C1171 1.400 . S
C1175 C1174 1.385 . S
C1176 C1174 1.478 . S
C1176 C1178 1.381 . S
C1176 C1182 1.383 . S
C1177 C1173 1.495 . S
C1177 H1183 0.959 . S
C1177 H1184 0.961 . S
C1177 H1185 0.960 . S
C1178 C1176 1.381 . S
C1178 C1179 1.394 . S
C1178 H1186 0.930 . S
C1179 C1178 1.394 . S
C1179 C1180 1.383 . S
C1179 H1187 0.929 . S
C1180 C1179 1.383 . S
C1180 C1181 1.377 . S
C1181 H1165 0.930 . S
C1181 C1180 1.377 . S
C1181 C1182 1.379 . S
C1182 H1166 0.931 . S
C1182 C1176 1.383 . S
C1182 C1181 1.379 . S
H1183 C1177 0.959 . S
H1184 C1177 0.961 . S
H1185 C1177 0.960 . S
H1186 C1178 0.930 . S
H1187 C1179 0.929 . S
H1188 C1196 0.929 . S
H1189 C1198 0.930 . S
H1190 C1200 0.930 . S
H1191 C1203 0.929 . S
H1192 C1206 0.930 . S
H1193 C1208 0.960 . S
H1194 C1208 0.960 . S
H1195 C1208 0.960 . S
C1196 H1188 0.929 . S
C1196 C1197 1.377 . S
C1196 C1198 1.384 . S
C1197 C1196 1.377 . S
C1197 C1203 1.390 . S
C1198 H1189 0.930 . S
C1198 C1196 1.384 . S
C1198 C1199 1.372 . S
C1199 C1198 1.372 . S
C1199 C1200 1.400 . S
C1199 C1204 1.490 . S
C1200 H1190 0.930 . S
C1200 C1199 1.400 . S
C1200 C1203 1.386 . S
H1201 C1217 0.930 . S
H1202 C1218 0.931 . S
C1203 H1191 0.929 . S
C1203 C1197 1.390 . S
C1203 C1200 1.386 . S
C1204 C1199 1.490 . S
C1204 C1206 1.395 . S
C1204 C1207 1.403 . S
H1205 C1211 0.930 . S
C1206 H1192 0.930 . S
C1206 C1204 1.395 . S
C1206 C1209 1.403 . S
C1207 C1204 1.403 . S
C1207 C1208 1.524 . S
C1207 C1211 1.400 . S
C1208 H1193 0.960 . S
C1208 H1194 0.960 . S
C1208 H1195 0.960 . S
C1208 C1207 1.524 . S
C1209 C1206 1.403 . S
C1209 C1210 1.392 . S
C1209 C1213 1.495 . S
C1210 C1209 1.392 . S
C1210 C1211 1.385 . S
C1210 C1212 1.478 . S
C1211 H1205 0.930 . S
C1211 C1207 1.400 . S
C1211 C1210 1.385 . S
C1212 C1210 1.478 . S
C1212 C1214 1.381 . S
C1212 C1218 1.383 . S
C1213 C1209 1.495 . S
C1213 H1219 0.959 . S
C1213 H1220 0.961 . S
C1213 H1221 0.960 . S
C1214 C1212 1.381 . S
C1214 C1215 1.394 . S
C1214 H1222 0.930 . S
C1215 C1214 1.394 . S
C1215 C1216 1.383 . S
C1215 H1223 0.929 . S
C1216 C1215 1.383 . S
C1216 C1217 1.377 . S
C1217 H1201 0.930 . S
C1217 C1216 1.377 . S
C1217 C1218 1.379 . S
C1218 H1202 0.931 . S
C1218 C1212 1.383 . S
C1218 C1217 1.379 . S
H1219 C1213 0.959 . S
H1220 C1213 0.961 . S
H1221 C1213 0.960 . S
H1222 C1214 0.930 . S
H1223 C1215 0.929 . S
H1224 C1232 0.929 . S
H1225 C1234 0.930 . S
H1226 C1236 0.930 1_545 S
H1227 C1239 0.929 . S
H1228 C1242 0.930 . S
H1229 C1244 0.960 . S
H1230 C1244 0.960 . S
H1231 C1244 0.960 . S
C1232 H1224 0.929 . S
C1232 C1233 1.377 . S
C1232 C1234 1.384 1_554 S
C1233 C1232 1.377 . S
C1233 C1239 1.390 . S
C1234 H1225 0.930 . S
C1234 C1232 1.384 1_556 S
C1234 C1235 1.372 . S
C1235 C1234 1.372 . S
C1235 C1236 1.400 . S
C1235 C1240 1.490 . S
C1236 H1226 0.930 1_565 S
C1236 C1235 1.400 . S
C1236 C1239 1.386 1_556 S
H1237 C1253 0.930 . S
H1238 C1254 0.931 . S
C1239 H1227 0.929 . S
C1239 C1233 1.390 . S
C1239 C1236 1.386 1_554 S
C1240 C1235 1.490 . S
C1240 C1242 1.395 . S
C1240 C1243 1.403 1_565 S
H1241 C1247 0.930 . S
C1242 H1228 0.930 . S
C1242 C1240 1.395 . S
C1242 C1245 1.403 . S
C1243 C1240 1.403 1_545 S
C1243 C1244 1.524 1_556 S
C1243 C1247 1.400 . S
C1244 H1229 0.960 . S
C1244 H1230 0.960 . S
C1244 H1231 0.960 . S
C1244 C1243 1.524 1_554 S
C1245 C1242 1.403 . S
C1245 C1246 1.392 1_565 S
C1245 C1249 1.495 . S
C1246 C1245 1.392 1_545 S
C1246 C1247 1.385 . S
C1246 C1248 1.478 . S
C1247 H1241 0.930 . S
C1247 C1243 1.400 . S
C1247 C1246 1.385 . S
C1248 C1246 1.478 . S
C1248 C1250 1.381 . S
C1248 C1254 1.383 . S
C1249 C1245 1.495 . S
C1249 H1255 0.959 . S
C1249 H1256 0.961 . S
C1249 H1257 0.960 . S
C1250 C1248 1.381 . S
C1250 C1251 1.394 . S
C1250 H1258 0.930 1_545 S
C1251 C1250 1.394 . S
C1251 C1252 1.383 . S
C1251 H1259 0.929 . S
C1252 C1251 1.383 . S
C1252 C1253 1.377 . S
C1253 H1237 0.930 . S
C1253 C1252 1.377 . S
C1253 C1254 1.379 . S
C1254 H1238 0.931 . S
C1254 C1248 1.383 . S
C1254 C1253 1.379 . S
H1255 C1249 0.959 . S
H1256 C1249 0.961 . S
H1257 C1249 0.960 . S
H1258 C1250 0.930 1_565 S
H1259 C1251 0.929 . S
H1260 C1268 0.929 . S
H1261 C1270 0.930 . S
H1262 C1272 0.930 . S
H1263 C1275 0.929 . S
H1264 C1278 0.930 . S
H1265 C1280 0.960 . S
H1266 C1280 0.960 . S
H1267 C1280 0.960 . S
C1268 H1260 0.929 . S
C1268 C1269 1.377 . S
C1268 C1270 1.384 . S
C1269 C1268 1.377 . S
C1269 C1275 1.390 . S
C1270 H1261 0.930 . S
C1270 C1268 1.384 . S
C1270 C1271 1.372 . S
C1271 C1270 1.372 . S
C1271 C1272 1.400 . S
C1271 C1276 1.490 . S
C1272 H1262 0.930 . S
C1272 C1271 1.400 . S
C1272 C1275 1.386 . S
H1273 C1289 0.930 . S
H1274 C1290 0.931 . S
C1275 H1263 0.929 . S
C1275 C1269 1.390 . S
C1275 C1272 1.386 . S
C1276 C1271 1.490 . S
C1276 C1278 1.395 . S
C1276 C1279 1.403 . S
H1277 C1283 0.930 . S
C1278 H1264 0.930 . S
C1278 C1276 1.395 . S
C1278 C1281 1.403 . S
C1279 C1276 1.403 . S
C1279 C1280 1.524 . S
C1279 C1283 1.400 . S
C1280 H1265 0.960 . S
C1280 H1266 0.960 . S
C1280 H1267 0.960 . S
C1280 C1279 1.524 . S
C1281 C1278 1.403 . S
C1281 C1282 1.392 . S
C1281 C1285 1.495 . S
C1282 C1281 1.392 . S
C1282 C1283 1.385 . S
C1282 C1284 1.478 . S
C1283 H1277 0.930 . S
C1283 C1279 1.400 . S
C1283 C1282 1.385 . S
C1284 C1282 1.478 . S
C1284 C1286 1.381 . S
C1284 C1290 1.383 1_556 S
C1285 C1281 1.495 . S
C1285 H1291 0.959 . S
C1285 H1292 0.961 1_556 S
C1285 H1293 0.960 . S
C1286 C1284 1.381 . S
C1286 C1287 1.394 . S
C1286 H1294 0.930 . S
C1287 C1286 1.394 . S
C1287 C1288 1.383 1_556 S
C1287 H1295 0.929 . S
C1288 C1287 1.383 1_554 S
C1288 C1289 1.377 . S
C1289 H1273 0.930 . S
C1289 C1288 1.377 . S
C1289 C1290 1.379 . S
C1290 H1274 0.931 . S
C1290 C1284 1.383 1_554 S
C1290 C1289 1.379 . S
H1291 C1285 0.959 . S
H1292 C1285 0.961 1_554 S
H1293 C1285 0.960 . S
H1294 C1286 0.930 . S
H1295 C1287 0.929 . S
H1296 C1304 0.929 . S
H1297 C1306 0.930 . S
H1298 C1308 0.930 . S
H1299 C1311 0.929 . S
H1300 C1314 0.930 . S
H1301 C1316 0.960 . S
H1302 C1316 0.960 . S
H1303 C1316 0.960 . S
C1304 H1296 0.929 . S
C1304 C1305 1.377 . S
C1304 C1306 1.384 . S
C1305 C1304 1.377 . S
C1305 C1311 1.390 . S
C1306 H1297 0.930 . S
C1306 C1304 1.384 . S
C1306 C1307 1.372 . S
C1307 C1306 1.372 . S
C1307 C1308 1.400 . S
C1307 C1312 1.490 . S
C1308 H1298 0.930 . S
C1308 C1307 1.400 . S
C1308 C1311 1.386 . S
H1309 C1325 0.930 . S
H1310 C1326 0.929 1_554 S
C1311 H1299 0.929 . S
C1311 C1305 1.390 . S
C1311 C1308 1.386 . S
C1312 C1307 1.490 . S
C1312 C1314 1.395 . S
C1312 C1315 1.403 . S
H1313 C1319 0.930 . S
C1314 H1300 0.930 . S
C1314 C1312 1.395 . S
C1314 C1317 1.403 . S
C1315 C1312 1.403 . S
C1315 C1316 1.524 . S
C1315 C1319 1.400 . S
C1316 H1301 0.960 . S
C1316 H1302 0.960 . S
C1316 H1303 0.960 . S
C1316 C1315 1.524 . S
C1317 C1314 1.403 . S
C1317 C1318 1.392 . S
C1317 C1321 1.495 . S
C1318 C1317 1.392 . S
C1318 C1319 1.385 . S
C1318 C1320 1.478 . S
C1319 H1313 0.930 . S
C1319 C1315 1.400 . S
C1319 C1318 1.385 . S
C1320 C1318 1.478 . S
C1320 C1322 1.381 . S
C1320 C1326 1.389 . S
C1321 C1317 1.495 . S
C1321 H1327 0.959 . S
C1321 H1328 0.961 . S
C1321 H1329 0.960 . S
C1322 C1320 1.381 . S
C1322 C1323 1.394 . S
C1322 H1330 0.930 . S
C1323 C1322 1.394 . S
C1323 C1324 1.383 1_556 S
C1323 H1331 0.929 . S
C1324 C1323 1.383 1_554 S
C1324 C1325 1.377 . S
C1325 H1309 0.930 . S
C1325 C1324 1.377 . S
C1325 C1326 1.376 1_554 S
C1326 H1310 0.929 1_556 S
C1326 C1320 1.389 . S
C1326 C1325 1.376 1_556 S
H1327 C1321 0.959 . S
H1328 C1321 0.961 . S
H1329 C1321 0.960 . S
H1330 C1322 0.930 . S
H1331 C1323 0.929 . S
H1332 C1340 0.929 . S
H1333 C1342 0.930 . S
H1334 C1344 0.930 . S
H1335 C1347 0.929 1_565 S
H1336 C1350 0.930 . S
H1337 C1352 0.960 . S
H1338 C1352 0.960 . S
H1339 C1352 0.960 . S
C1340 H1332 0.929 . S
C1340 C1341 1.377 . S
C1340 C1342 1.384 . S
C1341 C1340 1.377 . S
C1341 C1347 1.390 . S
C1342 H1333 0.930 . S
C1342 C1340 1.384 . S
C1342 C1343 1.372 . S
C1343 C1342 1.372 . S
C1343 C1344 1.400 . S
C1343 C1348 1.490 . S
C1344 H1334 0.930 . S
C1344 C1343 1.400 . S
C1344 C1347 1.386 . S
H1345 C1361 0.930 . S
H1346 C1362 0.931 . S
C1347 H1335 0.929 1_545 S
C1347 C1341 1.390 . S
C1347 C1344 1.386 . S
C1348 C1343 1.490 . S
C1348 C1350 1.395 . S
C1348 C1351 1.403 . S
H1349 C1355 0.930 . S
C1350 H1336 0.930 . S
C1350 C1348 1.395 . S
C1350 C1353 1.403 . S
C1351 C1348 1.403 . S
C1351 C1352 1.524 . S
C1351 C1355 1.400 . S
C1352 H1337 0.960 . S
C1352 H1338 0.960 . S
C1352 H1339 0.960 . S
C1352 C1351 1.524 . S
C1353 C1350 1.403 . S
C1353 C1354 1.392 . S
C1353 C1357 1.495 . S
C1354 C1353 1.392 . S
C1354 C1355 1.385 . S
C1354 C1356 1.478 . S
C1355 H1349 0.930 . S
C1355 C1351 1.400 . S
C1355 C1354 1.385 . S
C1356 C1354 1.478 . S
C1356 C1358 1.381 . S
C1356 C1362 1.383 . S
C1357 C1353 1.495 . S
C1357 H1363 0.959 . S
C1357 H1364 0.961 . S
C1357 H1365 0.960 . S
C1358 C1356 1.381 . S
C1358 C1359 1.394 . S
C1358 H1366 0.930 . S
C1359 C1358 1.394 . S
C1359 C1360 1.383 . S
C1359 H1367 0.929 . S
C1360 C1359 1.383 . S
C1360 C1361 1.377 . S
C1361 H1345 0.930 . S
C1361 C1360 1.377 . S
C1361 C1362 1.379 . S
C1362 H1346 0.931 . S
C1362 C1356 1.383 . S
C1362 C1361 1.379 . S
H1363 C1357 0.959 . S
H1364 C1357 0.961 . S
H1365 C1357 0.960 . S
H1366 C1358 0.930 . S
H1367 C1359 0.929 . S
H1368 C1376 0.929 . S
H1369 C1378 0.930 . S
H1370 C1380 0.930 . S
H1371 C1383 0.929 . S
H1372 C1386 0.930 . S
H1373 C1388 0.960 . S
H1374 C1388 0.960 . S
H1375 C1388 0.960 . S
C1376 H1368 0.929 . S
C1376 C1377 1.377 . S
C1376 C1378 1.384 . S
C1377 C1376 1.377 . S
C1377 C1383 1.390 . S
C1378 H1369 0.930 . S
C1378 C1376 1.384 . S
C1378 C1379 1.372 . S
C1379 C1378 1.372 . S
C1379 C1380 1.400 . S
C1379 C1384 1.490 . S
C1380 H1370 0.930 . S
C1380 C1379 1.400 . S
C1380 C1383 1.386 . S
H1381 C1397 0.930 . S
H1382 C1398 0.931 . S
C1383 H1371 0.929 . S
C1383 C1377 1.390 . S
C1383 C1380 1.386 . S
C1384 C1379 1.490 . S
C1384 C1386 1.395 . S
C1384 C1387 1.403 . S
H1385 C1391 0.930 . S
C1386 H1372 0.930 . S
C1386 C1384 1.395 . S
C1386 C1389 1.403 . S
C1387 C1384 1.403 . S
C1387 C1388 1.524 . S
C1387 C1391 1.400 . S
C1388 H1373 0.960 . S
C1388 H1374 0.960 . S
C1388 H1375 0.960 . S
C1388 C1387 1.524 . S
C1389 C1386 1.403 . S
C1389 C1390 1.392 . S
C1389 C1393 1.495 . S
C1390 C1389 1.392 . S
C1390 C1391 1.385 . S
C1390 C1392 1.478 . S
C1391 H1385 0.930 . S
C1391 C1387 1.400 . S
C1391 C1390 1.385 . S
C1392 C1390 1.478 . S
C1392 C1394 1.381 . S
C1392 C1398 1.383 . S
C1393 C1389 1.495 . S
C1393 H1399 0.959 . S
C1393 H1400 0.961 . S
C1393 H1401 0.960 . S
C1394 C1392 1.381 . S
C1394 C1395 1.394 . S
C1394 H1402 0.930 . S
C1395 C1394 1.394 . S
C1395 C1396 1.383 . S
C1395 H1403 0.929 . S
C1396 C1395 1.383 . S
C1396 C1397 1.377 . S
C1397 H1381 0.930 . S
C1397 C1396 1.377 . S
C1397 C1398 1.379 . S
C1398 H1382 0.931 . S
C1398 C1392 1.383 . S
C1398 C1397 1.379 . S
H1399 C1393 0.959 . S
H1400 C1393 0.961 . S
H1401 C1393 0.960 . S
H1402 C1394 0.930 . S
H1403 C1395 0.929 . S
H1404 C1412 0.929 . S
H1405 C1414 0.930 . S
H1406 C1416 0.930 . S
H1407 C1419 0.929 . S
H1408 C1422 0.930 . S
H1409 C1424 0.960 . S
H1410 C1424 0.960 . S
H1411 C1424 0.960 . S
C1412 H1404 0.929 . S
C1412 C1413 1.377 . S
C1412 C1414 1.384 . S
C1413 C1412 1.377 . S
C1413 C1419 1.390 . S
C1414 H1405 0.930 . S
C1414 C1412 1.384 . S
C1414 C1415 1.372 . S
C1415 C1414 1.372 . S
C1415 C1416 1.400 . S
C1415 C1420 1.490 . S
C1416 H1406 0.930 . S
C1416 C1415 1.400 . S
C1416 C1419 1.386 . S
H1417 C1433 0.930 . S
H1418 C1434 0.931 . S
C1419 H1407 0.929 . S
C1419 C1413 1.390 . S
C1419 C1416 1.386 . S
C1420 C1415 1.490 . S
C1420 C1422 1.395 . S
C1420 C1423 1.403 . S
H1421 C1427 0.930 . S
C1422 H1408 0.930 . S
C1422 C1420 1.395 . S
C1422 C1425 1.403 . S
C1423 C1420 1.403 . S
C1423 C1424 1.524 . S
C1423 C1427 1.400 . S
C1424 H1409 0.960 . S
C1424 H1410 0.960 . S
C1424 H1411 0.960 . S
C1424 C1423 1.524 . S
C1425 C1422 1.403 . S
C1425 C1426 1.392 . S
C1425 C1429 1.495 . S
C1426 C1425 1.392 . S
C1426 C1427 1.385 . S
C1426 C1428 1.478 . S
C1427 H1421 0.930 . S
C1427 C1423 1.400 . S
C1427 C1426 1.385 . S
C1428 C1426 1.478 . S
C1428 C1430 1.381 . S
C1428 C1434 1.383 . S
C1429 C1425 1.495 . S
C1429 H1435 0.959 . S
C1429 H1436 0.961 . S
C1429 H1437 0.960 . S
C1430 C1428 1.381 . S
C1430 C1431 1.394 . S
C1430 H1438 0.930 . S
C1431 C1430 1.394 . S
C1431 C1432 1.383 . S
C1431 H1439 0.929 . S
C1432 C1431 1.383 . S
C1432 C1433 1.377 . S
C1433 H1417 0.930 . S
C1433 C1432 1.377 . S
C1433 C1434 1.379 . S
C1434 H1418 0.931 . S
C1434 C1428 1.383 . S
C1434 C1433 1.379 . S
H1435 C1429 0.959 . S
H1436 C1429 0.961 . S
H1437 C1429 0.960 . S
H1438 C1430 0.930 . S
H1439 C1431 0.929 . S
H1440 C1448 0.929 . S
H1441 C1450 0.930 . S
H1442 C1452 0.930 . S
H1443 C1455 0.929 . S
H1444 C1458 0.930 . S
H1445 C1460 0.960 . S
H1446 C1460 0.960 . S
H1447 C1460 0.960 . S
C1448 H1440 0.929 . S
C1448 C1449 1.377 . S
C1448 C1450 1.384 . S
C1449 C1448 1.377 . S
C1449 C1455 1.390 . S
C1450 H1441 0.930 . S
C1450 C1448 1.384 . S
C1450 C1451 1.372 . S
C1451 C1450 1.372 . S
C1451 C1452 1.400 . S
C1451 C1456 1.490 . S
C1452 H1442 0.930 . S
C1452 C1451 1.400 . S
C1452 C1455 1.386 . S
H1453 C1469 0.930 . S
H1454 C1470 0.931 . S
C1455 H1443 0.929 . S
C1455 C1449 1.390 . S
C1455 C1452 1.386 . S
C1456 C1451 1.490 . S
C1456 C1458 1.395 . S
C1456 C1459 1.403 . S
H1457 C1463 0.930 . S
C1458 H1444 0.930 . S
C1458 C1456 1.395 . S
C1458 C1461 1.403 . S
C1459 C1456 1.403 . S
C1459 C1460 1.524 . S
C1459 C1463 1.400 . S
C1460 H1445 0.960 . S
C1460 H1446 0.960 . S
C1460 H1447 0.960 . S
C1460 C1459 1.524 . S
C1461 C1458 1.403 . S
C1461 C1462 1.392 . S
C1461 C1465 1.495 . S
C1462 C1461 1.392 . S
C1462 C1463 1.385 . S
C1462 C1464 1.478 . S
C1463 H1457 0.930 . S
C1463 C1459 1.400 . S
C1463 C1462 1.385 . S
C1464 C1462 1.478 . S
C1464 C1466 1.381 . S
C1464 C1470 1.383 . S
C1465 C1461 1.495 . S
C1465 H1471 0.959 . S
C1465 H1472 0.961 . S
C1465 H1473 0.960 . S
C1466 C1464 1.381 . S
C1466 C1467 1.394 . S
C1466 H1474 0.930 . S
C1467 C1466 1.394 . S
C1467 C1468 1.383 . S
C1467 H1475 0.929 . S
C1468 C1467 1.383 . S
C1468 C1469 1.377 . S
C1469 H1453 0.930 . S
C1469 C1468 1.377 . S
C1469 C1470 1.379 . S
C1470 H1454 0.931 . S
C1470 C1464 1.383 . S
C1470 C1469 1.379 . S
H1471 C1465 0.959 . S
H1472 C1465 0.961 . S
H1473 C1465 0.960 . S
H1474 C1466 0.930 . S
H1475 C1467 0.929 . S
H1476 C1484 0.929 . S
H1477 C1486 0.930 . S
H1478 C1488 0.930 . S
H1479 C1491 0.929 . S
H1480 C1494 0.930 . S
H1481 C1496 0.960 . S
H1482 C1496 0.960 . S
H1483 C1496 0.960 . S
C1484 H1476 0.929 . S
C1484 C1485 1.377 . S
C1484 C1486 1.384 . S
C1485 C1484 1.377 . S
C1485 C1491 1.390 . S
C1486 H1477 0.930 . S
C1486 C1484 1.384 . S
C1486 C1487 1.372 . S
C1487 C1486 1.372 . S
C1487 C1488 1.400 . S
C1487 C1492 1.490 . S
C1488 H1478 0.930 . S
C1488 C1487 1.400 . S
C1488 C1491 1.386 . S
H1489 C1505 0.930 . S
H1490 C1506 0.931 . S
C1491 H1479 0.929 . S
C1491 C1485 1.390 . S
C1491 C1488 1.386 . S
C1492 C1487 1.490 . S
C1492 C1494 1.395 . S
C1492 C1495 1.403 . S
H1493 C1499 0.930 . S
C1494 H1480 0.930 . S
C1494 C1492 1.395 . S
C1494 C1497 1.403 . S
C1495 C1492 1.403 . S
C1495 C1496 1.524 . S
C1495 C1499 1.400 . S
C1496 H1481 0.960 . S
C1496 H1482 0.960 . S
C1496 H1483 0.960 . S
C1496 C1495 1.524 . S
C1497 C1494 1.403 . S
C1497 C1498 1.392 . S
C1497 C1501 1.495 . S
C1498 C1497 1.392 . S
C1498 C1499 1.385 . S
C1498 C1500 1.478 . S
C1499 H1493 0.930 . S
C1499 C1495 1.400 . S
C1499 C1498 1.385 . S
C1500 C1498 1.478 . S
C1500 C1502 1.381 . S
C1500 C1506 1.383 . S
C1501 C1497 1.495 . S
C1501 H1507 0.959 . S
C1501 H1508 0.961 . S
C1501 H1509 0.960 . S
C1502 C1500 1.381 . S
C1502 C1503 1.394 . S
C1502 H1510 0.930 . S
C1503 C1502 1.394 . S
C1503 C1504 1.383 . S
C1503 H1511 0.929 . S
C1504 C1503 1.383 . S
C1504 C1505 1.377 . S
C1505 H1489 0.930 . S
C1505 C1504 1.377 . S
C1505 C1506 1.379 . S
C1506 H1490 0.931 . S
C1506 C1500 1.383 . S
C1506 C1505 1.379 . S
H1507 C1501 0.959 . S
H1508 C1501 0.961 . S
H1509 C1501 0.960 . S
H1510 C1502 0.930 . S
H1511 C1503 0.929 . S
H1512 C1520 0.929 . S
H1513 C1522 0.930 . S
H1514 C1524 0.930 . S
H1515 C1527 0.929 1_565 S
H1516 C1530 0.930 . S
H1517 C1532 0.960 . S
H1518 C1532 0.960 . S
H1519 C1532 0.960 . S
C1520 H1512 0.929 . S
C1520 C1521 1.377 1_545 S
C1520 C1522 1.384 . S
C1521 C1520 1.377 1_565 S
C1521 C1527 1.390 1_565 S
C1522 H1513 0.930 . S
C1522 C1520 1.384 . S
C1522 C1523 1.372 . S
C1523 C1522 1.372 . S
C1523 C1524 1.400 . S
C1523 C1528 1.490 . S
C1524 H1514 0.930 . S
C1524 C1523 1.400 . S
C1524 C1527 1.386 . S
H1525 C1541 0.930 . S
H1526 C1542 0.931 . S
C1527 H1515 0.929 1_545 S
C1527 C1521 1.390 1_545 S
C1527 C1524 1.386 . S
C1528 C1523 1.490 . S
C1528 C1530 1.395 . S
C1528 C1531 1.403 . S
H1529 C1535 0.930 . S
C1530 H1516 0.930 . S
C1530 C1528 1.395 . S
C1530 C1533 1.403 . S
C1531 C1528 1.403 . S
C1531 C1532 1.524 . S
C1531 C1535 1.400 . S
C1532 H1517 0.960 . S
C1532 H1518 0.960 . S
C1532 H1519 0.960 . S
C1532 C1531 1.524 . S
C1533 C1530 1.403 . S
C1533 C1534 1.392 . S
C1533 C1537 1.495 . S
C1534 C1533 1.392 . S
C1534 C1535 1.385 . S
C1534 C1536 1.478 . S
C1535 H1529 0.930 . S
C1535 C1531 1.400 . S
C1535 C1534 1.385 . S
C1536 C1534 1.478 . S
C1536 C1538 1.381 . S
C1536 C1542 1.383 . S
C1537 C1533 1.495 . S
C1537 H1543 0.959 . S
C1537 H1544 0.961 . S
C1537 H1545 0.960 . S
C1538 C1536 1.381 . S
C1538 C1539 1.394 . S
C1538 H1546 0.930 . S
C1539 C1538 1.394 . S
C1539 C1540 1.383 . S
C1539 H1547 0.929 . S
C1540 C1539 1.383 . S
C1540 C1541 1.377 . S
C1541 H1525 0.930 . S
C1541 C1540 1.377 . S
C1541 C1542 1.379 . S
C1542 H1526 0.931 . S
C1542 C1536 1.383 . S
C1542 C1541 1.379 . S
H1543 C1537 0.959 . S
H1544 C1537 0.961 . S
H1545 C1537 0.960 . S
H1546 C1538 0.930 . S
H1547 C1539 0.929 . S
C261 C49 1.297 . S
C280 C7 1.277 . S
C297 C64 1.314 . S
C316 C22 1.311 . S
C333 C35 1.313 . S
C352 C77 1.301 . S
C369 C36 1.260 . S
C388 C78 1.245 . S
C405 C8 1.235 . S
C424 C50 1.220 . S
C441 C63 1.235 . S
C460 C21 1.244 . S
C477 C133 1.184 . S
C496 C92 1.207 . S
C513 C106 1.217 . S
C532 C148 1.221 . S
C549 C120 1.225 . S
C568 C161 1.191 . S
C585 C162 1.362 1_556 S
C604 C119 1.330 . S
C621 C134 1.338 1_556 S
C640 C91 1.307 . S
C657 C147 1.345 1_556 S
C676 C105 1.358 . S
C693 C175 1.297 . S
C712 C217 1.287 . S
C729 C190 1.317 . S
C748 C232 1.320 . S
C765 C203 1.321 . S
C784 C245 1.302 . S
C801 C246 1.255 . S
C820 C204 1.246 1_554 S
C837 C218 1.241 . S
C856 C176 1.235 1_554 S
C873 C231 1.236 . S
C892 C189 1.253 1_554 S
C909 C3 1.135 . S
C928 C101 1.159 . S
C945 C23 1.170 . S
C964 C115 1.175 . S
C981 C87 1.146 . S
C1000 C31 1.128 . S
C1017 C37 1.172 . S
C1036 C191 1.195 . S
C1053 C199 1.157 . S
C1072 C9 1.102 . S
C1089 C171 1.109 . S
C1108 C17 1.112 . S
C1125 C227 1.109 . S
C1144 C45 1.097 . S
C1161 C65 1.176 . S
C1180 C247 1.191 . S
C1197 C219 1.140 . S
C1216 C73 1.172 . S
C1233 C149 1.151 . S
C1252 C79 1.170 . S
C1269 C51 1.109 . S
C1288 C157 1.144 . S
C1305 C59 1.077 . S
C1324 C129 1.080 . S
C1341 C93 1.109 1_545 S
C1360 C185 1.095 . S
C1377 C107 1.149 . S
C1396 C205 1.150 1_455 S
C1413 C121 1.147 . S
C1432 C177 1.122 . S
C1449 C233 1.196 1_455 S
C1468 C163 1.182 . S
C1485 C241 1.184 . S
C1504 C135 1.192 . S
C1521 C143 1.138 . S
C1540 C213 1.130 . S
