# Generated by pormake.
# Topology lcs, (4)-cn, num edge types: 1
# Building blocks:
#     Node 0, Type 0, BuildingBlock: UXUYUI_clean_sbu_0, # of connection points: 4
#     Node 1, Type 0, BuildingBlock: UXUYUI_clean_sbu_0, # of connection points: 4
#     Node 2, Type 0, BuildingBlock: UXUYUI_clean_sbu_0, # of connection points: 4
#     Node 3, Type 0, BuildingBlock: UXUYUI_clean_sbu_0, # of connection points: 4
#     Node 4, Type 0, BuildingBlock: UXUYUI_clean_sbu_0, # of connection points: 4
#     Node 5, Type 0, BuildingBlock: UXUYUI_clean_sbu_0, # of connection points: 4
#     Node 6, Type 0, BuildingBlock: UXUYUI_clean_sbu_0, # of connection points: 4
#     Node 7, Type 0, BuildingBlock: UXUYUI_clean_sbu_0, # of connection points: 4
#     Node 8, Type 0, BuildingBlock: UXUYUI_clean_sbu_0, # of connection points: 4
#     Node 9, Type 0, BuildingBlock: UXUYUI_clean_sbu_0, # of connection points: 4
#     Node 10, Type 0, BuildingBlock: UXUYUI_clean_sbu_0, # of connection points: 4
#     Node 11, Type 0, BuildingBlock: UXUYUI_clean_sbu_0, # of connection points: 4
#     Node 12, Type 0, BuildingBlock: UXUYUI_clean_sbu_0, # of connection points: 4
#     Node 13, Type 0, BuildingBlock: UXUYUI_clean_sbu_0, # of connection points: 4
#     Node 14, Type 0, BuildingBlock: UXUYUI_clean_sbu_0, # of connection points: 4
#     Node 15, Type 0, BuildingBlock: UXUYUI_clean_sbu_0, # of connection points: 4
#     Node 16, Type 0, BuildingBlock: UXUYUI_clean_sbu_0, # of connection points: 4
#     Node 17, Type 0, BuildingBlock: UXUYUI_clean_sbu_0, # of connection points: 4
#     Node 18, Type 0, BuildingBlock: UXUYUI_clean_sbu_0, # of connection points: 4
#     Node 19, Type 0, BuildingBlock: UXUYUI_clean_sbu_0, # of connection points: 4
#     Node 20, Type 0, BuildingBlock: UXUYUI_clean_sbu_0, # of connection points: 4
#     Node 21, Type 0, BuildingBlock: UXUYUI_clean_sbu_0, # of connection points: 4
#     Node 22, Type 0, BuildingBlock: UXUYUI_clean_sbu_0, # of connection points: 4
#     Node 23, Type 0, BuildingBlock: UXUYUI_clean_sbu_0, # of connection points: 4
#     Edge 24, Type (0, 0), BuildingBlock: CIFDUS_clean_linker_0, # of connection points: 2
#     Edge 25, Type (0, 0), BuildingBlock: CIFDUS_clean_linker_0, # of connection points: 2
#     Edge 26, Type (0, 0), BuildingBlock: CIFDUS_clean_linker_0, # of connection points: 2
#     Edge 27, Type (0, 0), BuildingBlock: CIFDUS_clean_linker_0, # of connection points: 2
#     Edge 28, Type (0, 0), BuildingBlock: CIFDUS_clean_linker_0, # of connection points: 2
#     Edge 29, Type (0, 0), BuildingBlock: CIFDUS_clean_linker_0, # of connection points: 2
#     Edge 30, Type (0, 0), BuildingBlock: CIFDUS_clean_linker_0, # of connection points: 2
#     Edge 31, Type (0, 0), BuildingBlock: CIFDUS_clean_linker_0, # of connection points: 2
#     Edge 32, Type (0, 0), BuildingBlock: CIFDUS_clean_linker_0, # of connection points: 2
#     Edge 33, Type (0, 0), BuildingBlock: CIFDUS_clean_linker_0, # of connection points: 2
#     Edge 34, Type (0, 0), BuildingBlock: CIFDUS_clean_linker_0, # of connection points: 2
#     Edge 35, Type (0, 0), BuildingBlock: CIFDUS_clean_linker_0, # of connection points: 2
#     Edge 36, Type (0, 0), BuildingBlock: CIFDUS_clean_linker_0, # of connection points: 2
#     Edge 37, Type (0, 0), BuildingBlock: CIFDUS_clean_linker_0, # of connection points: 2
#     Edge 38, Type (0, 0), BuildingBlock: CIFDUS_clean_linker_0, # of connection points: 2
#     Edge 39, Type (0, 0), BuildingBlock: CIFDUS_clean_linker_0, # of connection points: 2
#     Edge 40, Type (0, 0), BuildingBlock: CIFDUS_clean_linker_0, # of connection points: 2
#     Edge 41, Type (0, 0), BuildingBlock: CIFDUS_clean_linker_0, # of connection points: 2
#     Edge 42, Type (0, 0), BuildingBlock: CIFDUS_clean_linker_0, # of connection points: 2
#     Edge 43, Type (0, 0), BuildingBlock: CIFDUS_clean_linker_0, # of connection points: 2
#     Edge 44, Type (0, 0), BuildingBlock: CIFDUS_clean_linker_0, # of connection points: 2
#     Edge 45, Type (0, 0), BuildingBlock: CIFDUS_clean_linker_0, # of connection points: 2
#     Edge 46, Type (0, 0), BuildingBlock: CIFDUS_clean_linker_0, # of connection points: 2
#     Edge 47, Type (0, 0), BuildingBlock: CIFDUS_clean_linker_0, # of connection points: 2
#     Edge 48, Type (0, 0), BuildingBlock: CIFDUS_clean_linker_0, # of connection points: 2
#     Edge 49, Type (0, 0), BuildingBlock: CIFDUS_clean_linker_0, # of connection points: 2
#     Edge 50, Type (0, 0), BuildingBlock: CIFDUS_clean_linker_0, # of connection points: 2
#     Edge 51, Type (0, 0), BuildingBlock: CIFDUS_clean_linker_0, # of connection points: 2
#     Edge 52, Type (0, 0), BuildingBlock: CIFDUS_clean_linker_0, # of connection points: 2
#     Edge 53, Type (0, 0), BuildingBlock: CIFDUS_clean_linker_0, # of connection points: 2
#     Edge 54, Type (0, 0), BuildingBlock: CIFDUS_clean_linker_0, # of connection points: 2
#     Edge 55, Type (0, 0), BuildingBlock: CIFDUS_clean_linker_0, # of connection points: 2
#     Edge 56, Type (0, 0), BuildingBlock: CIFDUS_clean_linker_0, # of connection points: 2
#     Edge 57, Type (0, 0), BuildingBlock: CIFDUS_clean_linker_0, # of connection points: 2
#     Edge 58, Type (0, 0), BuildingBlock: CIFDUS_clean_linker_0, # of connection points: 2
#     Edge 59, Type (0, 0), BuildingBlock: CIFDUS_clean_linker_0, # of connection points: 2
#     Edge 60, Type (0, 0), BuildingBlock: CIFDUS_clean_linker_0, # of connection points: 2
#     Edge 61, Type (0, 0), BuildingBlock: CIFDUS_clean_linker_0, # of connection points: 2
#     Edge 62, Type (0, 0), BuildingBlock: CIFDUS_clean_linker_0, # of connection points: 2
#     Edge 63, Type (0, 0), BuildingBlock: CIFDUS_clean_linker_0, # of connection points: 2
#     Edge 64, Type (0, 0), BuildingBlock: CIFDUS_clean_linker_0, # of connection points: 2
#     Edge 65, Type (0, 0), BuildingBlock: CIFDUS_clean_linker_0, # of connection points: 2
#     Edge 66, Type (0, 0), BuildingBlock: CIFDUS_clean_linker_0, # of connection points: 2
#     Edge 67, Type (0, 0), BuildingBlock: CIFDUS_clean_linker_0, # of connection points: 2
#     Edge 68, Type (0, 0), BuildingBlock: CIFDUS_clean_linker_0, # of connection points: 2
#     Edge 69, Type (0, 0), BuildingBlock: CIFDUS_clean_linker_0, # of connection points: 2
#     Edge 70, Type (0, 0), BuildingBlock: CIFDUS_clean_linker_0, # of connection points: 2
#     Edge 71, Type (0, 0), BuildingBlock: CIFDUS_clean_linker_0, # of connection points: 2
# Relax obj value: 0.148
# Max RMSD: 0.190
# Mean RMSD: 0.190
data_MOF--net-lcs--node1-UXUYUI_clean_sbu_0--edge1-CIFDUS_clean_linker_0
_symmetry_space_group_name_H-M    P1
_symmetry_Int_Tables_number       1
_symmetry_cell_setting            triclinic
loop_
_symmetry_equiv_pos_as_xyz
'x, y, z'
_cell_length_a     65.88577
_cell_length_b     65.893366
_cell_length_c     65.886249
_cell_angle_alpha  89.992683
_cell_angle_beta   90.008496
_cell_angle_gamma 89.997418
loop_
_atom_site_label
_atom_site_type_symbol
_atom_site_fract_x
_atom_site_fract_y
_atom_site_fract_z
_atom_type_partial_charge
Li0 Li 0.00493 0.26931 0.36559 0.0
Li1 Li 0.01742 0.24578 0.39142 0.0
Li2 Li 0.99051 0.23452 0.36661 0.0
Li3 Li 0.98262 0.2579 0.39453 0.0
C4 C 0.02924 0.24111 0.34338 0.0
N5 N 0.0498 0.23702 0.30704 0.0
C6 C 0.05045 0.24173 0.34298 0.0
C7 C 0.01853 0.238 0.32534 0.0
C8 C 0.06055 0.23977 0.32444 0.0
C9 C 0.02918 0.23607 0.30711 0.0
C10 C 0.02109 0.28286 0.40864 0.0
C11 C 0.03322 0.28759 0.44285 0.0
N12 N 0.04816 0.29994 0.43574 0.0
C13 C 0.03641 0.29578 0.40169 0.0
C14 C 0.01933 0.27889 0.4294 0.0
C15 C 0.05001 0.30419 0.41563 0.0
C16 C 0.99808 0.30705 0.34689 0.0
N17 N 0.01215 0.2922 0.34954 0.0
C18 C 0.03736 0.31217 0.3328 0.0
C19 C 0.03148 0.29439 0.3427 0.0
C20 C 0.02325 0.32794 0.33012 0.0
C21 C 0.0033 0.32511 0.3371 0.0
H22 H 0.98291 0.30508 0.35286 0.0
H23 H 0.04258 0.28274 0.34568 0.0
C24 C 0.04214 0.22081 0.41671 0.0
N25 N 0.04174 0.23766 0.40481 0.0
C26 C 0.06048 0.21394 0.42491 0.0
C27 C 0.07752 0.24212 0.40877 0.0
C28 C 0.05892 0.24832 0.40078 0.0
C29 C 0.07858 0.22452 0.42077 0.0
H30 H 0.02833 0.21235 0.41933 0.0
H31 H 0.05827 0.26139 0.39089 0.0
C32 C 0.96242 0.26367 0.34986 0.0
N33 N 0.93497 0.26968 0.31869 0.0
C34 C 0.94158 0.26387 0.35386 0.0
C35 C 0.96929 0.26691 0.33005 0.0
C36 C 0.92795 0.26681 0.33788 0.0
C37 C 0.95518 0.26983 0.31449 0.0
C38 C 0.98177 0.22055 0.41165 0.0
C39 C 0.96599 0.2071 0.40717 0.0
C40 C 0.98643 0.22489 0.43188 0.0
C41 C 0.95486 0.19851 0.42304 0.0
C42 C 0.97494 0.216 0.44732 0.0
N43 N 0.9595 0.20312 0.44262 0.0
C44 C 0.99267 0.19688 0.34593 0.0
C45 C 0.95964 0.21084 0.34867 0.0
C46 C 0.98489 0.17938 0.33679 0.0
N47 N 0.97999 0.2121 0.35173 0.0
C48 C 0.95124 0.1937 0.33954 0.0
C49 C 0.96385 0.1775 0.33376 0.0
H50 H 0.00877 0.19812 0.34892 0.0
H51 H 0.94981 0.2228 0.35397 0.0
C52 C 0.96237 0.28411 0.42202 0.0
N53 N 0.96091 0.26634 0.41165 0.0
C54 C 0.94559 0.29177 0.4325 0.0
C55 C 0.92632 0.26245 0.42186 0.0
C56 C 0.9434 0.25545 0.41148 0.0
C57 C 0.92712 0.28106 0.43225 0.0
H58 H 0.97632 0.29273 0.4215 0.0
H59 H 0.94243 0.24169 0.40263 0.0
O60 O 0.01913 0.2429 0.36144 0.0
O61 O 0.00774 0.27436 0.39521 0.0
O62 O 0.97596 0.26092 0.36538 0.0
O63 O 0.99275 0.22922 0.39631 0.0
H64 H 0.05902 0.24385 0.35681 0.0
H65 H 0.00218 0.23682 0.3254 0.0
H66 H 0.07695 0.24039 0.32391 0.0
H67 H 0.02106 0.23372 0.29304 0.0
H68 H 0.03209 0.28457 0.45895 0.0
H69 H 0.0379 0.29915 0.3857 0.0
H70 H 0.00733 0.26926 0.43506 0.0
H71 H 0.06203 0.3141 0.41045 0.0
H72 H 0.05301 0.31388 0.32808 0.0
H73 H 0.99193 0.33684 0.33527 0.0
H74 H 0.06056 0.20011 0.43378 0.0
H75 H 0.09097 0.25092 0.40535 0.0
H76 H 0.93598 0.26164 0.36912 0.0
H77 H 0.98533 0.26749 0.32674 0.0
H78 H 0.91178 0.26684 0.34075 0.0
H79 H 0.96031 0.27231 0.29909 0.0
H80 H 0.96229 0.20343 0.39161 0.0
H81 H 0.99882 0.23496 0.43562 0.0
H82 H 0.94252 0.18818 0.41979 0.0
H83 H 0.97832 0.2193 0.46304 0.0
H84 H 0.99516 0.16716 0.33286 0.0
H85 H 0.93496 0.19303 0.33734 0.0
H86 H 0.94687 0.30634 0.44 0.0
H87 H 0.91252 0.25353 0.4214 0.0
Li88 Li 0.00633 0.76763 0.63898 0.0
Li89 Li 0.98239 0.7582 0.61216 0.0
Li90 Li 0.99432 0.73259 0.63727 0.0
Li91 Li 0.01716 0.74508 0.61102 0.0
C92 C 0.96781 0.76639 0.65731 0.0
N93 N 0.94687 0.78472 0.68868 0.0
C94 C 0.95558 0.7833 0.65352 0.0
C95 C 0.96902 0.75852 0.67697 0.0
C96 C 0.94523 0.79244 0.6696 0.0
C97 C 0.95842 0.76807 0.69265 0.0
C98 C 0.01052 0.78089 0.59007 0.0
C99 C 0.00666 0.77662 0.55392 0.0
N100 N 0.01571 0.79493 0.5509 0.0
C101 C 0.01977 0.79965 0.58662 0.0
C102 C 0.00389 0.76926 0.57361 0.0
C103 C 0.02226 0.80649 0.5667 0.0
C104 C 0.0336 0.78915 0.6645 0.0
N105 N 0.015 0.78987 0.65557 0.0
C106 C 0.01001 0.82383 0.66746 0.0
C107 C 0.00331 0.80683 0.65667 0.0
C108 C 0.02915 0.82354 0.6769 0.0
C109 C 0.04094 0.80581 0.67536 0.0
H110 H 0.04304 0.77587 0.6627 0.0
H111 H 0.98899 0.8074 0.64873 0.0
C112 C 0.94606 0.75475 0.58921 0.0
N113 N 0.96 0.76792 0.5968 0.0
C114 C 0.92953 0.76196 0.57802 0.0
C115 C 0.94207 0.79612 0.58273 0.0
C116 C 0.95832 0.78825 0.59381 0.0
C117 C 0.92736 0.78293 0.57467 0.0
H118 H 0.94777 0.73866 0.59191 0.0
H119 H 0.96956 0.79838 0.60019 0.0
C120 C 0.03227 0.73427 0.65677 0.0
N121 N 0.05146 0.71735 0.68999 0.0
C122 C 0.0489 0.72137 0.65405 0.0
C123 C 0.02555 0.73874 0.67637 0.0
C124 C 0.05835 0.71291 0.67105 0.0
C125 C 0.03542 0.72999 0.69298 0.0
C126 C 0.99465 0.7098 0.60182 0.0
C127 C 0.01194 0.69965 0.60873 0.0
C128 C 0.9806 0.69953 0.58971 0.0
C129 C 0.01489 0.67934 0.60343 0.0
C130 C 0.98408 0.67921 0.58473 0.0
N131 N 0.001 0.66962 0.59165 0.0
C132 C 0.96575 0.70674 0.65581 0.0
C133 C 0.99937 0.6941 0.6571 0.0
C134 C 0.95837 0.68899 0.66481 0.0
N135 N 0.98592 0.70893 0.65204 0.0
C136 C 0.99267 0.67614 0.66611 0.0
C137 C 0.97188 0.67326 0.66987 0.0
H138 H 0.95532 0.71861 0.65135 0.0
H139 H 0.01526 0.69587 0.65363 0.0
C140 C 0.05835 0.74353 0.60112 0.0
N141 N 0.03965 0.73841 0.59414 0.0
C142 C 0.0757 0.73773 0.59044 0.0
C143 C 0.05418 0.72196 0.56526 0.0
C144 C 0.03723 0.72821 0.57636 0.0
C145 C 0.07379 0.72643 0.57243 0.0
H146 H 0.05977 0.75181 0.61523 0.0
H147 H 0.02217 0.72445 0.57106 0.0
O148 O 0.97793 0.75717 0.64171 0.0
O149 O 0.00801 0.77405 0.60951 0.0
O150 O 0.02275 0.74253 0.64027 0.0
O151 O 0.99134 0.72966 0.60695 0.0
H152 H 0.95424 0.7894 0.63833 0.0
H153 H 0.97787 0.74505 0.68007 0.0
H154 H 0.93587 0.80566 0.66691 0.0
H155 H 0.95929 0.76219 0.70795 0.0
H156 H 0.00161 0.76778 0.54104 0.0
H157 H 0.02497 0.80883 0.59922 0.0
H158 H 0.99666 0.75472 0.57597 0.0
H159 H 0.02939 0.82099 0.5638 0.0
H160 H 0.00036 0.8371 0.66822 0.0
H161 H 0.056 0.80503 0.6819 0.0
H162 H 0.91867 0.75123 0.57195 0.0
H163 H 0.94085 0.8124 0.58083 0.0
H164 H 0.05434 0.7178 0.63897 0.0
H165 H 0.013 0.74901 0.67873 0.0
H166 H 0.07116 0.70281 0.66917 0.0
H167 H 0.03035 0.73331 0.70824 0.0
H168 H 0.023 0.70735 0.61807 0.0
H169 H 0.96714 0.70716 0.58421 0.0
H170 H 0.0282 0.6713 0.6087 0.0
H171 H 0.97332 0.67106 0.57538 0.0
H172 H 0.94218 0.68735 0.66715 0.0
H173 H 0.00367 0.66454 0.66992 0.0
H174 H 0.09045 0.74191 0.59635 0.0
H175 H 0.05192 0.71314 0.55158 0.0
Li176 Li 0.50777 0.77083 0.86149 0.0
Li177 Li 0.5194 0.74575 0.88612 0.0
Li178 Li 0.49343 0.73601 0.86007 0.0
Li179 Li 0.48493 0.75753 0.88916 0.0
C180 C 0.53117 0.74284 0.83741 0.0
N181 N 0.54936 0.73851 0.79983 0.0
C182 C 0.55226 0.74105 0.83588 0.0
C183 C 0.51934 0.74205 0.81982 0.0
C184 C 0.56117 0.73899 0.81675 0.0
C185 C 0.5288 0.73995 0.80097 0.0
C186 C 0.52463 0.78079 0.90447 0.0
C187 C 0.53954 0.78188 0.93788 0.0
N188 N 0.55486 0.79361 0.93054 0.0
C189 C 0.54043 0.79298 0.89728 0.0
C190 C 0.52407 0.77531 0.92495 0.0
C191 C 0.5556 0.79927 0.9107 0.0
C192 C 0.50239 0.81071 0.84784 0.0
N193 N 0.51527 0.79462 0.84694 0.0
C194 C 0.53936 0.8141 0.82808 0.0
C195 C 0.53346 0.79596 0.8373 0.0
C196 C 0.52651 0.83109 0.82902 0.0
C197 C 0.50772 0.82918 0.83891 0.0
H198 H 0.48812 0.80926 0.85583 0.0
H199 H 0.54371 0.78319 0.83731 0.0
C200 C 0.54304 0.72251 0.91435 0.0
N201 N 0.5434 0.73709 0.89975 0.0
C202 C 0.56116 0.71569 0.92308 0.0
C203 C 0.57955 0.73918 0.90172 0.0
C204 C 0.56113 0.7456 0.89353 0.0
C205 C 0.57976 0.72385 0.91652 0.0
H206 H 0.52874 0.71588 0.91891 0.0
H207 H 0.56094 0.75724 0.88197 0.0
C208 C 0.46566 0.76716 0.84465 0.0
N209 N 0.43902 0.77739 0.81384 0.0
C210 C 0.44471 0.76668 0.84801 0.0
C211 C 0.47302 0.77326 0.8257 0.0
C212 C 0.4315 0.77177 0.83222 0.0
C213 C 0.45933 0.77826 0.81031 0.0
C214 C 0.48197 0.71978 0.90302 0.0
C215 C 0.4667 0.70672 0.89622 0.0
C216 C 0.48402 0.72364 0.92377 0.0
C217 C 0.45352 0.69794 0.91032 0.0
C218 C 0.47051 0.71459 0.93739 0.0
N219 N 0.45566 0.70206 0.93044 0.0
C220 C 0.49688 0.69916 0.83883 0.0
C221 C 0.46424 0.71413 0.83686 0.0
C222 C 0.49029 0.68245 0.82758 0.0
N223 N 0.48385 0.71454 0.84324 0.0
C224 C 0.45702 0.69777 0.8255 0.0
C225 C 0.47007 0.68156 0.82086 0.0
H226 H 0.51235 0.69979 0.8443 0.0
H227 H 0.45401 0.7262 0.84104 0.0
C228 C 0.46507 0.78016 0.92013 0.0
N229 N 0.46298 0.76471 0.90662 0.0
C230 C 0.44835 0.78681 0.9314 0.0
C231 C 0.42784 0.76127 0.91489 0.0
C232 C 0.44493 0.75507 0.90405 0.0
C233 C 0.42933 0.77758 0.92852 0.0
H234 H 0.47953 0.78774 0.92169 0.0
H235 H 0.44365 0.74292 0.89311 0.0
O236 O 0.52222 0.74481 0.85608 0.0
O237 O 0.50985 0.77415 0.89149 0.0
O238 O 0.47882 0.76242 0.86007 0.0
O239 O 0.49488 0.72868 0.88942 0.0
H240 H 0.5617 0.74128 0.84929 0.0
H241 H 0.503 0.74271 0.82068 0.0
H242 H 0.57749 0.73773 0.81536 0.0
H243 H 0.51979 0.73935 0.78726 0.0
H244 H 0.53937 0.77765 0.95374 0.0
H245 H 0.54108 0.79738 0.88149 0.0
H246 H 0.51189 0.76599 0.93078 0.0
H247 H 0.56799 0.8086 0.90532 0.0
H248 H 0.55415 0.81502 0.82097 0.0
H249 H 0.49732 0.84188 0.83988 0.0
H250 H 0.56069 0.70372 0.93433 0.0
H251 H 0.59352 0.74605 0.89642 0.0
H252 H 0.43865 0.76231 0.86258 0.0
H253 H 0.48912 0.77441 0.8229 0.0
H254 H 0.41526 0.7713 0.8346 0.0
H255 H 0.46486 0.78295 0.79557 0.0
H256 H 0.46496 0.70347 0.88023 0.0
H257 H 0.4958 0.73362 0.92929 0.0
H258 H 0.44156 0.68789 0.90526 0.0
H259 H 0.47183 0.71756 0.95348 0.0
H260 H 0.50087 0.67032 0.82425 0.0
H261 H 0.44122 0.69752 0.82097 0.0
H262 H 0.45011 0.79958 0.9416 0.0
H263 H 0.41352 0.7536 0.91238 0.0
Li264 Li 0.50631 0.2615 0.14381 0.0
Li265 Li 0.4821 0.25286 0.11798 0.0
Li266 Li 0.49519 0.22727 0.14109 0.0
Li267 Li 0.51788 0.24152 0.11603 0.0
C268 C 0.47316 0.25088 0.16784 0.0
N269 N 0.46254 0.24961 0.20838 0.0
C270 C 0.45303 0.25406 0.17368 0.0
C271 C 0.48791 0.24707 0.18261 0.0
C272 C 0.44796 0.25336 0.19426 0.0
C273 C 0.48223 0.24648 0.20303 0.0
C274 C 0.50829 0.29009 0.11599 0.0
C275 C 0.52825 0.32077 0.1157 0.0
N276 N 0.51139 0.33167 0.12052 0.0
C277 C 0.49115 0.3016 0.12088 0.0
C278 C 0.52698 0.29974 0.1133 0.0
C279 C 0.49303 0.3226 0.1231 0.0
C280 C 0.5356 0.28437 0.16398 0.0
N281 N 0.51523 0.28269 0.1613 0.0
C282 C 0.50954 0.31337 0.17977 0.0
C283 C 0.50214 0.29655 0.16919 0.0
C284 C 0.53058 0.31576 0.18237 0.0
C285 C 0.54365 0.30082 0.1746 0.0
H286 H 0.54564 0.27326 0.15725 0.0
H287 H 0.486 0.29491 0.16664 0.0
C288 C 0.44063 0.25246 0.11054 0.0
N289 N 0.45827 0.26073 0.10382 0.0
C290 C 0.42215 0.25837 0.10206 0.0
C291 C 0.44038 0.28087 0.07953 0.0
C292 C 0.45856 0.27445 0.08842 0.0
C293 C 0.4218 0.27302 0.08655 0.0
H294 H 0.44093 0.24149 0.12275 0.0
H295 H 0.47284 0.28078 0.08338 0.0
C296 C 0.53616 0.22075 0.14725 0.0
N297 N 0.56233 0.18819 0.15111 0.0
C298 C 0.53308 0.20315 0.13578 0.0
C299 C 0.55255 0.22177 0.16067 0.0
C300 C 0.54648 0.18687 0.13795 0.0
C301 C 0.56561 0.20515 0.16241 0.0
C302 C 0.48967 0.22139 0.09099 0.0
C303 C 0.48201 0.20263 0.08474 0.0
C304 C 0.4942 0.23623 0.0765 0.0
C305 C 0.47903 0.199 0.06406 0.0
C306 C 0.49099 0.23201 0.05597 0.0
N307 N 0.48354 0.21364 0.05023 0.0
C308 C 0.47143 0.19287 0.14656 0.0
C309 C 0.49651 0.19653 0.1721 0.0
C310 C 0.4644 0.17502 0.1555 0.0
N311 N 0.4872 0.20318 0.15491 0.0
C312 C 0.48998 0.17868 0.18155 0.0
C313 C 0.47367 0.16769 0.17327 0.0
H314 H 0.46431 0.19857 0.1329 0.0
H315 H 0.50895 0.2051 0.17852 0.0
C316 C 0.55785 0.24771 0.10486 0.0
N317 N 0.54146 0.23614 0.10011 0.0
C318 C 0.57675 0.2436 0.09626 0.0
C319 C 0.56159 0.21571 0.07788 0.0
C320 C 0.54294 0.22038 0.08686 0.0
C321 C 0.57889 0.2272 0.0828 0.0
H322 H 0.55639 0.25966 0.116 0.0
H323 H 0.52993 0.21086 0.08391 0.0
O324 O 0.47822 0.25146 0.14771 0.0
O325 O 0.50684 0.26943 0.11434 0.0
O326 O 0.52346 0.23707 0.14531 0.0
O327 O 0.49252 0.22511 0.11122 0.0
H328 H 0.44144 0.25702 0.16241 0.0
H329 H 0.50357 0.24459 0.17844 0.0
H330 H 0.43242 0.25578 0.199 0.0
H331 H 0.49348 0.24354 0.21462 0.0
H332 H 0.54264 0.32843 0.11376 0.0
H333 H 0.47663 0.29436 0.12339 0.0
H334 H 0.54039 0.29112 0.10947 0.0
H335 H 0.47992 0.33167 0.12704 0.0
H336 H 0.49897 0.3245 0.18563 0.0
H337 H 0.55996 0.30223 0.17602 0.0
H338 H 0.40826 0.25164 0.10771 0.0
H339 H 0.44085 0.29234 0.06776 0.0
H340 H 0.52053 0.20202 0.12529 0.0
H341 H 0.55516 0.23529 0.16963 0.0
H342 H 0.54428 0.17318 0.12916 0.0
H343 H 0.57836 0.20574 0.17274 0.0
H344 H 0.47844 0.19099 0.09577 0.0
H345 H 0.50021 0.25081 0.08097 0.0
H346 H 0.47313 0.18453 0.05901 0.0
H347 H 0.49445 0.24334 0.0446 0.0
H348 H 0.45197 0.16692 0.14843 0.0
H349 H 0.49742 0.1737 0.19534 0.0
H350 H 0.58963 0.2529 0.10043 0.0
H351 H 0.56263 0.20267 0.06793 0.0
Li352 Li 0.0098 0.7303 0.14233 0.0
Li353 Li 0.02169 0.75455 0.11704 0.0
Li354 Li 0.996 0.76538 0.14267 0.0
Li355 Li 0.98694 0.74304 0.11421 0.0
C356 C 0.03267 0.75865 0.16598 0.0
N357 N 0.04903 0.76378 0.20426 0.0
C358 C 0.05353 0.76172 0.16834 0.0
C359 C 0.02012 0.75845 0.18306 0.0
C360 C 0.06152 0.7642 0.18783 0.0
C361 C 0.02867 0.76102 0.20229 0.0
C362 C 0.02614 0.71901 0.0993 0.0
C363 C 0.03962 0.71603 0.06542 0.0
N364 N 0.05549 0.70509 0.07281 0.0
C365 C 0.04248 0.70759 0.10656 0.0
C366 C 0.02458 0.72314 0.07856 0.0
C367 C 0.0572 0.70074 0.09292 0.0
C368 C 0.00453 0.69062 0.15692 0.0
N369 N 0.01721 0.70689 0.15745 0.0
C370 C 0.04177 0.68799 0.17626 0.0
C371 C 0.03551 0.70593 0.16691 0.0
C372 C 0.02924 0.67074 0.17557 0.0
C373 C 0.01024 0.67232 0.16598 0.0
H374 H 0.99022 0.69174 0.14895 0.0
H375 H 0.04556 0.71885 0.16669 0.0
C376 C 0.04572 0.77704 0.08866 0.0
N377 N 0.04584 0.76269 0.10348 0.0
C378 C 0.06399 0.78389 0.0803 0.0
C379 C 0.08204 0.7608 0.10239 0.0
C380 C 0.06347 0.75444 0.1103 0.0
C381 C 0.08251 0.77595 0.08739 0.0
H382 H 0.03151 0.78357 0.08372 0.0
H383 H 0.0631 0.74316 0.12222 0.0
C384 C 0.9664 0.73539 0.15769 0.0
N385 N 0.93665 0.72701 0.18608 0.0
C386 C 0.94592 0.73799 0.1528 0.0
C387 C 0.97171 0.72817 0.17693 0.0
C388 C 0.93111 0.73379 0.16738 0.0
C389 C 0.95646 0.72412 0.1911 0.0
C390 C 0.98547 0.78119 0.0991 0.0
C391 C 0.97129 0.79572 0.10524 0.0
C392 C 0.98751 0.77655 0.0785 0.0
C393 C 0.95916 0.80519 0.09065 0.0
C394 C 0.97508 0.78634 0.06438 0.0
N395 N 0.96127 0.80032 0.0707 0.0
C396 C 0.00063 0.80268 0.16262 0.0
C397 C 0.96742 0.78909 0.16491 0.0
C398 C 0.99456 0.82024 0.17283 0.0
N399 N 0.98705 0.78763 0.15878 0.0
C400 C 0.96069 0.80635 0.17518 0.0
C401 C 0.97425 0.82236 0.17901 0.0
H402 H 0.01609 0.80124 0.15728 0.0
H403 H 0.9568 0.77718 0.16133 0.0
C404 C 0.96619 0.71716 0.08706 0.0
N405 N 0.965 0.73521 0.09696 0.0
C406 C 0.94962 0.70992 0.07596 0.0
C407 C 0.93112 0.74027 0.08499 0.0
C408 C 0.94796 0.74679 0.09606 0.0
C409 C 0.93163 0.72141 0.07502 0.0
H410 H 0.97981 0.70807 0.08831 0.0
H411 H 0.94716 0.76085 0.10444 0.0
O412 O 0.02464 0.7562 0.14698 0.0
O413 O 0.01178 0.72616 0.11245 0.0
O414 O 0.98108 0.73918 0.14347 0.0
O415 O 0.99739 0.77168 0.11318 0.0
H416 H 0.06346 0.76213 0.15528 0.0
H417 H 0.00392 0.75664 0.18149 0.0
H418 H 0.07765 0.76648 0.18989 0.0
H419 H 0.01911 0.76089 0.21563 0.0
H420 H 0.03867 0.7192 0.04933 0.0
H421 H 0.04389 0.70424 0.12257 0.0
H422 H 0.01191 0.73177 0.07269 0.0
H423 H 0.07001 0.69201 0.09834 0.0
H424 H 0.05643 0.68758 0.18367 0.0
H425 H 1.0002 0.65936 0.16481 0.0
H426 H 0.06365 0.79577 0.06895 0.0
H427 H 0.09589 0.75407 0.10812 0.0
H428 H 0.94148 0.74339 0.13797 0.0
H429 H 0.9874 0.72552 0.18089 0.0
H430 H 0.91522 0.73589 0.16383 0.0
H431 H 0.96038 0.71858 0.20605 0.0
H432 H 0.9696 0.79958 0.1211 0.0
H433 H 0.99849 0.76544 0.07349 0.0
H434 H 0.94805 0.81639 0.09519 0.0
H435 H 0.9764 0.78281 0.0484 0.0
H436 H 0.00546 0.8323 0.17519 0.0
H437 H 0.94495 0.80724 0.17983 0.0
H438 H 0.95067 0.69516 0.06884 0.0
H439 H 0.91775 0.7498 0.08451 0.0
Li440 Li 0.49435 0.76368 0.36277 0.0
Li441 Li 0.51742 0.75267 0.38968 0.0
Li442 Li 0.5054 0.72879 0.3639 0.0
Li443 Li 0.48262 0.74163 0.39028 0.0
C444 C 0.53055 0.7665 0.34675 0.0
N445 N 0.54552 0.79509 0.32 0.0
C446 C 0.54212 0.78276 0.35393 0.0
C447 C 0.5267 0.76469 0.32597 0.0
C448 C 0.54954 0.79708 0.34016 0.0
C449 C 0.53437 0.77934 0.31269 0.0
C450 C 0.4791 0.77833 0.40473 0.0
C451 C 0.46464 0.78275 0.43807 0.0
N452 N 0.44946 0.79408 0.42986 0.0
C453 C 0.46338 0.79005 0.39663 0.0
C454 C 0.4798 0.77469 0.42562 0.0
C455 C 0.44854 0.79788 0.40959 0.0
C456 C 0.47339 0.7845 0.33106 0.0
N457 N 0.48704 0.7864 0.3464 0.0
C458 C 0.48868 0.82229 0.34143 0.0
C459 C 0.4948 0.80477 0.35165 0.0
C460 C 0.47424 0.82093 0.32578 0.0
C461 C 0.46679 0.80165 0.32044 0.0
H462 H 0.46717 0.76976 0.32745 0.0
H463 H 0.5054 0.80586 0.36414 0.0
C464 C 0.55871 0.7517 0.40016 0.0
N465 N 0.54063 0.76036 0.405 0.0
C466 C 0.5764 0.75752 0.41024 0.0
C467 C 0.55656 0.78126 0.42997 0.0
C468 C 0.53921 0.77486 0.4196 0.0
C469 C 0.57549 0.77265 0.42523 0.0
H470 H 0.55942 0.7405 0.38818 0.0
H471 H 0.52469 0.7817 0.42293 0.0
C472 C 0.4688 0.72526 0.34819 0.0
N473 N 0.45288 0.69577 0.32299 0.0
C474 C 0.45557 0.71061 0.35596 0.0
C475 C 0.47385 0.72498 0.32758 0.0
C476 C 0.44769 0.69582 0.34297 0.0
C477 C 0.46568 0.70992 0.3151 0.0
C478 C 0.52103 0.71691 0.40657 0.0
C479 C 0.53622 0.70405 0.39924 0.0
C480 C 0.5209 0.72239 0.42707 0.0
C481 C 0.55114 0.69697 0.41255 0.0
C482 C 0.53611 0.71502 0.43988 0.0
N483 N 0.55079 0.70258 0.43241 0.0
C484 C 0.52867 0.70548 0.33603 0.0
C485 C 0.50324 0.6874 0.35391 0.0
C486 C 0.5356 0.68754 0.32708 0.0
N487 N 0.51285 0.70504 0.34925 0.0
C488 C 0.50947 0.66917 0.34512 0.0
C489 C 0.52612 0.66897 0.33177 0.0
H490 H 0.53636 0.71965 0.33299 0.0
H491 H 0.49105 0.68742 0.36488 0.0
C492 C 0.44138 0.74257 0.40135 0.0
N493 N 0.45976 0.73477 0.40654 0.0
C494 C 0.42398 0.73693 0.41203 0.0
C495 C 0.44475 0.71537 0.43325 0.0
C496 C 0.46177 0.72149 0.42218 0.0
C497 C 0.42548 0.72294 0.42807 0.0
H498 H 0.44021 0.75289 0.38864 0.0
H499 H 0.4765 0.71523 0.42575 0.0
O500 O 0.52279 0.75257 0.36001 0.0
O501 O 0.49356 0.77019 0.39226 0.0
O502 O 0.47689 0.73971 0.3607 0.0
O503 O 0.50651 0.72433 0.39371 0.0
H504 H 0.54515 0.78445 0.36998 0.0
H505 H 0.51776 0.7522 0.32018 0.0
H506 H 0.55843 0.8098 0.3455 0.0
H507 H 0.53142 0.7782 0.29658 0.0
H508 H 0.46492 0.77995 0.45424 0.0
H509 H 0.46249 0.79289 0.38049 0.0
H510 H 0.49177 0.76553 0.43212 0.0
H511 H 0.43624 0.8069 0.40352 0.0
H512 H 0.49501 0.83678 0.34592 0.0
H513 H 0.45543 0.7999 0.3087 0.0
H514 H 0.59073 0.75073 0.4059 0.0
H515 H 0.5552 0.7929 0.44149 0.0
H516 H 0.45157 0.71053 0.37188 0.0
H517 H 0.48412 0.73616 0.32135 0.0
H518 H 0.4375 0.68434 0.3488 0.0
H519 H 0.46954 0.70945 0.29916 0.0
H520 H 0.53663 0.69972 0.38342 0.0
H521 H 0.50934 0.73243 0.43297 0.0
H522 H 0.56304 0.68708 0.40706 0.0
H523 H 0.53628 0.71925 0.45574 0.0
H524 H 0.54872 0.68815 0.31721 0.0
H525 H 0.50148 0.65536 0.34901 0.0
H526 H 0.40949 0.74331 0.40763 0.0
H527 H 0.44659 0.70432 0.44527 0.0
Li528 Li 0.50479 0.23117 0.64182 0.0
Li529 Li 0.51612 0.25498 0.61579 0.0
Li530 Li 0.49212 0.26545 0.64217 0.0
Li531 Li 0.48171 0.24256 0.61497 0.0
C532 C 0.52781 0.27053 0.65853 0.0
N533 N 0.541 0.30066 0.68455 0.0
C534 C 0.53971 0.28649 0.6512 0.0
C535 C 0.5227 0.26984 0.67911 0.0
C536 C 0.54622 0.30158 0.6646 0.0
C537 C 0.52947 0.28524 0.69201 0.0
C538 C 0.52081 0.21907 0.59904 0.0
C539 C 0.53528 0.21732 0.56547 0.0
N540 N 0.55047 0.20538 0.57276 0.0
C541 C 0.5365 0.20672 0.6062 0.0
C542 C 0.52011 0.22435 0.5785 0.0
C543 C 0.55137 0.19997 0.59267 0.0
C544 C 0.50609 0.18969 0.65174 0.0
N545 N 0.51288 0.20829 0.65748 0.0
C546 C 0.53286 0.1936 0.68394 0.0
C547 C 0.52594 0.21057 0.67328 0.0
C548 C 0.52632 0.17411 0.67821 0.0
C549 C 0.51255 0.17232 0.66201 0.0
H550 H 0.49591 0.18833 0.63894 0.0
H551 H 0.53137 0.22551 0.67729 0.0
C552 C 0.53874 0.27864 0.58726 0.0
N553 N 0.53956 0.26338 0.60112 0.0
C554 C 0.55659 0.28601 0.57844 0.0
C555 C 0.57563 0.26147 0.59797 0.0
C556 C 0.55748 0.25474 0.60653 0.0
C557 C 0.57543 0.27758 0.58398 0.0
H558 H 0.52432 0.28554 0.58358 0.0
H559 H 0.55772 0.24294 0.61793 0.0
C560 C 0.4687 0.22572 0.65693 0.0
N561 N 0.45492 0.19497 0.68188 0.0
C562 C 0.45784 0.20943 0.64876 0.0
C563 C 0.4725 0.2264 0.67779 0.0
C564 C 0.451 0.19403 0.66164 0.0
C565 C 0.46544 0.21069 0.69015 0.0
C566 C 0.47709 0.27877 0.59966 0.0
C567 C 0.46034 0.28934 0.60727 0.0
C568 C 0.47878 0.27538 0.57879 0.0
C569 C 0.44546 0.29624 0.59383 0.0
C570 C 0.46356 0.2825 0.56586 0.0
N571 N 0.44735 0.29268 0.57358 0.0
C572 C 0.49052 0.30656 0.65384 0.0
C573 C 0.46803 0.28503 0.67188 0.0
C574 C 0.48275 0.3236 0.66375 0.0
N575 N 0.48303 0.28779 0.65801 0.0
C576 C 0.45972 0.30166 0.68205 0.0
C577 C 0.4669 0.32129 0.67782 0.0
H578 H 0.50209 0.30834 0.64234 0.0
H579 H 0.46208 0.27 0.6746 0.0
C580 C 0.45969 0.2221 0.58326 0.0
N581 N 0.45857 0.23486 0.59945 0.0
C582 C 0.4419 0.21499 0.57405 0.0
C583 C 0.42235 0.23466 0.59806 0.0
C584 C 0.44043 0.2414 0.60674 0.0
C585 C 0.42291 0.22094 0.58177 0.0
H586 H 0.47431 0.21688 0.57798 0.0
H587 H 0.44002 0.25133 0.6198 0.0
O588 O 0.52098 0.2558 0.6456 0.0
O589 O 0.50629 0.2261 0.61209 0.0
O590 O 0.4759 0.24074 0.64453 0.0
O591 O 0.49159 0.2715 0.6126 0.0
H592 H 0.54373 0.28736 0.63531 0.0
H593 H 0.51338 0.25768 0.68501 0.0
H594 H 0.55537 0.31406 0.65912 0.0
H595 H 0.52552 0.28496 0.70794 0.0
H596 H 0.535 0.22138 0.54957 0.0
H597 H 0.53733 0.20257 0.62206 0.0
H598 H 0.5081 0.23393 0.57274 0.0
H599 H 0.56366 0.19049 0.59801 0.0
H600 H 0.54372 0.19569 0.6961 0.0
H601 H 0.50695 0.15764 0.65719 0.0
H602 H 0.55568 0.29865 0.56799 0.0
H603 H 0.5897 0.2543 0.60252 0.0
H604 H 0.45494 0.20851 0.63264 0.0
H605 H 0.48102 0.23881 0.68434 0.0
H606 H 0.44265 0.18129 0.65552 0.0
H607 H 0.46837 0.21097 0.7063 0.0
H608 H 0.45872 0.292 0.62339 0.0
H609 H 0.49163 0.26721 0.57267 0.0
H610 H 0.43236 0.30435 0.59951 0.0
H611 H 0.46462 0.2799 0.54968 0.0
H612 H 0.48849 0.33849 0.6598 0.0
H613 H 0.44758 0.29922 0.69286 0.0
H614 H 0.443 0.20427 0.56165 0.0
H615 H 0.40805 0.23981 0.60434 0.0
Li616 Li 0.99509 0.27005 0.86177 0.0
Li617 Li 0.01941 0.2594 0.88803 0.0
Li618 Li 0.00811 0.23543 0.8621 0.0
Li619 Li 0.98465 0.24559 0.88843 0.0
C620 C 0.02982 0.26237 0.83837 0.0
N621 N 0.04205 0.26477 0.79834 0.0
C622 C 0.05015 0.2661 0.83366 0.0
C623 C 0.0157 0.25983 0.82273 0.0
C624 C 0.05604 0.26728 0.81332 0.0
C625 C 0.02219 0.2611 0.80259 0.0
C626 C 0.98953 0.29028 0.90336 0.0
C627 C 0.97664 0.30477 0.93442 0.0
N628 N 0.98119 0.32363 0.9274 0.0
C629 C 0.99396 0.30983 0.89641 0.0
C630 C 0.98069 0.28772 0.92248 0.0
C631 C 0.98969 0.32649 0.9088 0.0
C632 C 0.96586 0.2963 0.84491 0.0
N633 N 0.98615 0.29304 0.84665 0.0
C634 C 0.99331 0.32444 0.82992 0.0
C635 C 0.99987 0.30657 0.83927 0.0
C636 C 0.97242 0.32848 0.82825 0.0
C637 C 0.95862 0.31398 0.83569 0.0
H638 H 0.95532 0.28539 0.8512 0.0
H639 H 0.01593 0.30378 0.84114 0.0
C640 C 0.05716 0.25423 0.90758 0.0
N641 N 0.04234 0.26802 0.90356 0.0
C642 C 0.07488 0.26015 0.91764 0.0
C643 C 0.0617 0.29432 0.91934 0.0
C644 C 0.04427 0.28774 0.90925 0.0
C645 C 0.07743 0.28052 0.92346 0.0
H646 H 0.0554 0.23869 0.90258 0.0
H647 H 0.03251 0.2985 0.9056 0.0
C648 C 0.96693 0.22824 0.85455 0.0
N649 N 0.94154 0.19579 0.84679 0.0
C650 C 0.97067 0.20939 0.86354 0.0
C651 C 0.95029 0.2306 0.84162 0.0
C652 C 0.95765 0.19317 0.85943 0.0
C653 C 0.93762 0.214 0.83788 0.0
C654 C 0.01341 0.22394 0.91121 0.0
C655 C 0.01821 0.20363 0.91497 0.0
C656 C 0.01127 0.2374 0.92745 0.0
C657 C 0.02069 0.19709 0.93499 0.0
C658 C 0.01388 0.23029 0.94725 0.0
N659 N 0.01849 0.21045 0.95058 0.0
C660 C 0.03222 0.20158 0.85429 0.0
C661 C 0.0083 0.20793 0.82818 0.0
C662 C 0.03906 0.1842 0.84432 0.0
N663 N 0.01703 0.21294 0.84621 0.0
C664 C 0.01468 0.19062 0.81767 0.0
C665 C 0.03021 0.17842 0.82578 0.0
H666 H 0.03882 0.20591 0.86869 0.0
H667 H 0.99623 0.21722 0.82207 0.0
C668 C 0.94564 0.25019 0.905 0.0
N669 N 0.96188 0.23748 0.90441 0.0
C670 C 0.92787 0.24442 0.91504 0.0
C671 C 0.94391 0.21262 0.92377 0.0
C672 C 0.96134 0.219 0.91356 0.0
C673 C 0.92676 0.22529 0.92442 0.0
H674 H 0.94636 0.26466 0.89726 0.0
H675 H 0.97422 0.20893 0.91251 0.0
O676 O 0.02391 0.26103 0.85823 0.0
O677 O 0.99325 0.27378 0.89129 0.0
O678 O 0.97934 0.24443 0.85841 0.0
O679 O 0.01084 0.23047 0.89167 0.0
H680 H 0.06126 0.26806 0.84561 0.0
H681 H 0.9999 0.25689 0.82607 0.0
H682 H 0.07173 0.27016 0.80945 0.0
H683 H 0.01143 0.25916 0.79034 0.0
H684 H 0.96984 0.30299 0.94926 0.0
H685 H 0.00088 0.31212 0.88172 0.0
H686 H 0.97692 0.27275 0.92806 0.0
H687 H 0.99315 0.34169 0.90365 0.0
H688 H 0.00449 0.33505 0.82423 0.0
H689 H 0.9424 0.31657 0.83502 0.0
H690 H 0.08672 0.24904 0.92024 0.0
H691 H 0.0629 0.31012 0.92371 0.0
H692 H 0.98348 0.20725 0.87357 0.0
H693 H 0.94719 0.24511 0.83457 0.0
H694 H 0.96037 0.1785 0.86628 0.0
H695 H 0.92468 0.2156 0.82791 0.0
H696 H 0.0199 0.19302 0.90255 0.0
H697 H 0.00778 0.25318 0.9248 0.0
H698 H 0.02435 0.1814 0.93814 0.0
H699 H 0.01228 0.24056 0.95996 0.0
H700 H 0.05085 0.17513 0.85131 0.0
H701 H 0.00757 0.18687 0.80333 0.0
H702 H 0.91493 0.25455 0.91488 0.0
H703 H 0.94382 0.19782 0.93092 0.0
Li704 Li 0.3843 0.01323 0.24539 0.0
Li705 Li 0.35854 0.00256 0.26833 0.0
Li706 Li 0.38707 0.97922 0.26244 0.0
Li707 Li 0.36048 0.98614 0.23585 0.0
C708 C 0.38742 0.01834 0.29163 0.0
N709 N 0.38437 0.04121 0.32666 0.0
C710 C 0.38689 0.03953 0.29053 0.0
C711 C 0.38652 0.0088 0.31056 0.0
C712 C 0.38536 0.05082 0.30841 0.0
C713 C 0.38491 0.02063 0.32808 0.0
C714 C 0.33926 0.02833 0.24284 0.0
C715 C 0.30342 0.03533 0.24522 0.0
N716 N 0.30755 0.05551 0.24649 0.0
C717 C 0.34316 0.04915 0.244 0.0
C718 C 0.31924 0.02135 0.24328 0.0
C719 C 0.32692 0.06265 0.2459 0.0
C720 C 0.39085 0.04339 0.2167 0.0
N721 N 0.39865 0.03566 0.23414 0.0
C722 C 0.424 0.06161 0.23506 0.0
C723 C 0.41516 0.0441 0.2432 0.0
C724 C 0.41574 0.0704 0.21744 0.0
C725 C 0.3992 0.06078 0.20803 0.0
H726 H 0.37781 0.03623 0.20974 0.0
H727 H 0.42113 0.03753 0.25702 0.0
C728 C 0.33371 0.99636 0.30264 0.0
N729 N 0.34094 0.01104 0.29006 0.0
C730 C 0.32322 0.00158 0.32032 0.0
C731 C 0.32737 0.03693 0.31159 0.0
C732 C 0.33776 0.03103 0.2941 0.0
C733 C 0.32022 0.02213 0.32517 0.0
H734 H 0.33672 0.98058 0.29933 0.0
H735 H 0.34417 0.0425 0.28436 0.0
C736 C 0.4043 0.99129 0.21883 0.0
N737 N 0.43196 0.00452 0.19025 0.0
C738 C 0.39819 0.99441 0.19876 0.0
C739 C 0.42446 0.99484 0.22438 0.0
C740 C 0.41241 0.00111 0.18453 0.0
C741 C 0.43822 0.00155 0.2097 0.0
C742 C 0.34535 0.95686 0.26047 0.0
C743 C 0.35374 0.93743 0.25896 0.0
C744 C 0.32434 0.95937 0.2591 0.0
C745 C 0.34093 0.92084 0.2558 0.0
C746 C 0.31205 0.94239 0.25593 0.0
N747 N 0.32053 0.92364 0.25433 0.0
C748 C 0.39782 0.95147 0.29251 0.0
C749 C 0.41926 0.95013 0.26365 0.0
C750 C 0.40824 0.93537 0.30148 0.0
N751 N 0.4035 0.95853 0.27399 0.0
C752 C 0.43009 0.93389 0.27204 0.0
C753 C 0.42457 0.92628 0.29121 0.0
H754 H 0.38483 0.95803 0.30008 0.0
H755 H 0.42319 0.95578 0.24876 0.0
C756 C 0.3354 0.98621 0.20089 0.0
N757 N 0.34694 0.97432 0.21319 0.0
C758 C 0.32731 0.97835 0.18291 0.0
C759 C 0.34271 0.94604 0.19089 0.0
C760 C 0.35074 0.95461 0.20852 0.0
C761 C 0.3311 0.95803 0.17755 0.0
H762 H 0.3331 0.00201 0.20465 0.0
H763 H 0.36052 0.94567 0.21818 0.0
O764 O 0.38855 0.00702 0.27427 0.0
O765 O 0.35494 0.01489 0.24087 0.0
O766 O 0.39048 0.98537 0.23311 0.0
O767 O 0.35763 0.97331 0.26345 0.0
H768 H 0.38723 0.04717 0.27601 0.0
H769 H 0.38685 0.99245 0.3117 0.0
H770 H 0.38479 0.06721 0.30776 0.0
H771 H 0.38404 0.01344 0.34282 0.0
H772 H 0.28785 0.03013 0.24567 0.0
H773 H 0.35856 0.05482 0.24373 0.0
H774 H 0.31597 0.00531 0.2421 0.0
H775 H 0.32971 0.07879 0.24696 0.0
H776 H 0.4367 0.06856 0.24285 0.0
H777 H 0.39261 0.06675 0.19421 0.0
H778 H 0.31785 0.98965 0.33027 0.0
H779 H 0.32581 0.05295 0.31489 0.0
H780 H 0.3826 0.99187 0.19426 0.0
H781 H 0.42935 0.99274 0.23992 0.0
H782 H 0.4079 0.00366 0.16895 0.0
H783 H 0.45384 0.00448 0.21379 0.0
H784 H 0.36998 0.93522 0.25998 0.0
H785 H 0.31761 0.97427 0.26054 0.0
H786 H 0.34722 0.90573 0.25446 0.0
H787 H 0.29576 0.94412 0.25476 0.0
H788 H 0.40318 0.92972 0.31606 0.0
H789 H 0.44261 0.92737 0.26363 0.0
H790 H 0.31885 0.98834 0.17299 0.0
H791 H 0.34586 0.93025 0.18764 0.0
Li792 Li 0.23421 0.13847 0.49351 0.0
Li793 Li 0.24486 0.11262 0.51705 0.0
Li794 Li 0.26936 0.13662 0.50398 0.0
Li795 Li 0.25571 0.11083 0.48214 0.0
C796 C 0.24553 0.16246 0.52655 0.0
N797 N 0.24611 0.20295 0.53742 0.0
C798 C 0.2426 0.1681 0.54678 0.0
C799 C 0.24876 0.17741 0.51184 0.0
C800 C 0.24294 0.18865 0.55198 0.0
C801 C 0.249 0.19779 0.51765 0.0
C802 C 0.20763 0.10637 0.49766 0.0
C803 C 0.17486 0.09141 0.49118 0.0
N804 N 0.16722 0.10126 0.50763 0.0
C805 C 0.19945 0.11635 0.51451 0.0
C806 C 0.19525 0.09381 0.48588 0.0
C807 C 0.17899 0.11357 0.5193 0.0
C808 C 0.20625 0.15422 0.46571 0.0
N809 N 0.21167 0.15486 0.48559 0.0
C810 C 0.18258 0.17505 0.49354 0.0
C811 C 0.20031 0.16507 0.49948 0.0
C812 C 0.17631 0.17432 0.47315 0.0
C813 C 0.18856 0.16388 0.45912 0.0
H814 H 0.21537 0.14564 0.45509 0.0
H815 H 0.20465 0.16499 0.5153 0.0
C816 C 0.24464 0.10601 0.5587 0.0
N817 N 0.23742 0.09823 0.54103 0.0
C818 C 0.23854 0.09785 0.57727 0.0
C819 C 0.21808 0.07341 0.55912 0.0
C820 C 0.22474 0.08194 0.54086 0.0
C821 C 0.22471 0.0816 0.5777 0.0
H822 H 0.25484 0.11886 0.55834 0.0
H823 H 0.2193 0.07595 0.52659 0.0
C824 C 0.2738 0.14298 0.46216 0.0
N825 N 0.3043 0.14808 0.43384 0.0
C826 C 0.29275 0.13391 0.46514 0.0
C827 C 0.27035 0.15463 0.44478 0.0
C828 C 0.30797 0.13667 0.45065 0.0
C829 C 0.28597 0.15703 0.43064 0.0
C830 C 0.27676 0.08665 0.50964 0.0
C831 C 0.29538 0.08068 0.51784 0.0
C832 C 0.2624 0.07194 0.50438 0.0
C833 C 0.29934 0.06004 0.52066 0.0
C834 C 0.26693 0.05146 0.50744 0.0
N835 N 0.28516 0.04598 0.51544 0.0
C836 C 0.30343 0.14398 0.52765 0.0
C837 C 0.29921 0.16856 0.50171 0.0
C838 C 0.32097 0.15367 0.5345 0.0
N839 N 0.293 0.1515 0.51154 0.0
C840 C 0.31678 0.17869 0.50799 0.0
C841 C 0.32787 0.17128 0.52464 0.0
H842 H 0.29808 0.13041 0.53518 0.0
H843 H 0.29054 0.17432 0.48902 0.0
C844 C 0.24739 0.09319 0.44426 0.0
N845 N 0.26163 0.09431 0.45913 0.0
C846 C 0.2518 0.08347 0.42593 0.0
C847 C 0.28531 0.07585 0.43877 0.0
C848 C 0.28024 0.08568 0.45685 0.0
C849 C 0.27112 0.07492 0.42286 0.0
H850 H 0.23279 0.10038 0.44643 0.0
H851 H 0.29145 0.08711 0.46874 0.0
O852 O 0.24538 0.14236 0.52136 0.0
O853 O 0.22755 0.10899 0.49245 0.0
O854 O 0.25852 0.14034 0.47597 0.0
O855 O 0.27275 0.10684 0.50688 0.0
H856 H 0.2401 0.1567 0.55835 0.0
H857 H 0.25101 0.17338 0.49611 0.0
H858 H 0.24069 0.19324 0.56758 0.0
H859 H 0.25148 0.20952 0.50642 0.0
H860 H 0.1651 0.08174 0.48219 0.0
H861 H 0.20877 0.12613 0.52382 0.0
H862 H 0.20135 0.08603 0.47276 0.0
H863 H 0.17247 0.1212 0.53229 0.0
H864 H 0.17378 0.18307 0.50486 0.0
H865 H 0.18419 0.16256 0.44334 0.0
H866 H 0.24443 0.1044 0.59114 0.0
H867 H 0.2073 0.06103 0.55864 0.0
H868 H 0.29569 0.12479 0.47847 0.0
H869 H 0.25574 0.16169 0.44223 0.0
H870 H 0.32269 0.12972 0.45276 0.0
H871 H 0.28352 0.166 0.41711 0.0
H872 H 0.30665 0.09189 0.52198 0.0
H873 H 0.24793 0.0762 0.49795 0.0
H874 H 0.3137 0.0552 0.52699 0.0
H875 H 0.25597 0.03992 0.50343 0.0
H876 H 0.32917 0.14729 0.54724 0.0
H877 H 0.32146 0.19234 0.50011 0.0
H878 H 0.24033 0.08294 0.41418 0.0
H879 H 0.30049 0.0698 0.43699 0.0
Li880 Li 0.13812 0.00753 0.73142 0.0
Li881 Li 0.11212 0.01913 0.75498 0.0
Li882 Li 0.13712 0.99322 0.7659 0.0
Li883 Li 0.11008 0.98452 0.74149 0.0
C884 C 0.15284 0.03899 0.75877 0.0
N885 N 0.17513 0.07445 0.76096 0.0
C886 C 0.14529 0.05688 0.75022 0.0
C887 C 0.17163 0.03919 0.76862 0.0
C888 C 0.15681 0.07464 0.75145 0.0
C889 C 0.1827 0.05725 0.7695 0.0
C890 C 0.09922 0.02322 0.71326 0.0
C891 C 0.07007 0.03239 0.69309 0.0
N892 N 0.08 0.04929 0.68661 0.0
C893 C 0.10922 0.04055 0.70622 0.0
C894 C 0.07956 0.01897 0.70649 0.0
C895 C 0.09921 0.05358 0.69282 0.0
C896 C 0.14844 0.00753 0.69051 0.0
N897 N 0.15467 0.01479 0.70879 0.0
C898 C 0.18197 0.03276 0.69303 0.0
C899 C 0.17129 0.02692 0.7104 0.0
C900 C 0.1756 0.02586 0.67388 0.0
C901 C 0.15875 0.01286 0.67278 0.0
H902 H 0.13517 0.99789 0.68971 0.0
H903 H 0.17622 0.03223 0.72508 0.0
C904 C 0.10541 0.04925 0.78315 0.0
N905 N 0.09822 0.04251 0.76505 0.0
C906 C 0.09818 0.06729 0.79152 0.0
C907 C 0.07559 0.07084 0.76284 0.0
C908 C 0.08332 0.05267 0.75498 0.0
C909 C 0.08331 0.07856 0.78119 0.0
H910 H 0.11719 0.0408 0.79086 0.0
H911 H 0.07769 0.04699 0.74069 0.0
C912 C 0.159 0.97121 0.73651 0.0
N913 N 0.19791 0.95703 0.72997 0.0
C914 C 0.16206 0.95252 0.72697 0.0
C915 C 0.17572 0.98272 0.74267 0.0
C916 C 0.18185 0.94561 0.72382 0.0
C917 C 0.19527 0.97528 0.73925 0.0
C918 C 0.08735 0.99224 0.77662 0.0
C919 C 0.0827 0.98461 0.79585 0.0
C920 C 0.07173 0.99872 0.76382 0.0
C921 C 0.06241 0.98353 0.80195 0.0
C922 C 0.05165 0.99742 0.77047 0.0
N923 N 0.04744 0.98991 0.78924 0.0
C924 C 0.1545 0.99702 0.80445 0.0
C925 C 0.15953 0.96469 0.78951 0.0
C926 C 0.1644 0.99081 0.82214 0.0
N927 N 0.15222 0.98396 0.78866 0.0
C928 C 0.16965 0.95787 0.80686 0.0
C929 C 0.17203 0.97093 0.8236 0.0
H930 H 0.14828 0.01218 0.80341 0.0
H931 H 0.15728 0.95452 0.77683 0.0
C932 C 0.09094 0.96168 0.71133 0.0
N933 N 0.09324 0.96322 0.73176 0.0
C934 C 0.08009 0.94551 0.70297 0.0
C935 C 0.0739 0.93294 0.73687 0.0
C936 C 0.08496 0.94933 0.74458 0.0
C937 C 0.0715 0.93073 0.71576 0.0
H938 H 0.09797 0.9728 0.7015 0.0
H939 H 0.08724 0.95078 0.76077 0.0
O940 O 0.14183 0.02141 0.75785 0.0
O941 O 0.10872 0.01016 0.72631 0.0
O942 O 0.1397 0.97821 0.73956 0.0
O943 O 0.10714 0.99333 0.77046 0.0
H944 H 0.13064 0.05714 0.7429 0.0
H945 H 0.17764 0.02551 0.77546 0.0
H946 H 0.15115 0.08858 0.74488 0.0
H947 H 0.19731 0.0576 0.777 0.0
H948 H 0.05482 0.02936 0.68782 0.0
H949 H 0.12458 0.04385 0.71089 0.0
H950 H 0.0717 0.00547 0.71156 0.0
H951 H 0.10676 0.06708 0.6873 0.0
H952 H 0.19506 0.04259 0.69455 0.0
H953 H 0.15322 0.00734 0.65831 0.0
H954 H 0.1043 0.07244 0.80588 0.0
H955 H 0.06417 0.07905 0.75435 0.0
H956 H 0.14925 0.94347 0.72205 0.0
H957 H 0.17364 0.99722 0.75002 0.0
H958 H 0.18446 0.93116 0.71647 0.0
H959 H 0.20834 0.98403 0.74395 0.0
H960 H 0.09465 0.97954 0.80593 0.0
H961 H 0.07506 0.0047 0.74894 0.0
H962 H 0.05858 0.97764 0.81678 0.0
H963 H 0.03941 0.00239 0.76072 0.0
H964 H 0.16555 0.00131 0.83472 0.0
H965 H 0.17548 0.94252 0.80716 0.0
H966 H 0.07898 0.9443 0.68662 0.0
H967 H 0.06739 0.92206 0.74734 0.0
Li968 Li 0.26959 0.86256 0.99135 0.0
Li969 Li 0.25923 0.88831 0.01435 0.0
Li970 Li 0.23531 0.8603 0.00795 0.0
Li971 Li 0.24289 0.88696 0.98177 0.0
C972 C 0.27371 0.85924 0.03778 0.0
N973 N 0.29547 0.86262 0.07347 0.0
C974 C 0.29482 0.86128 0.03724 0.0
C975 C 0.26367 0.85877 0.05646 0.0
C976 C 0.30555 0.86297 0.05545 0.0
C977 C 0.27494 0.86057 0.07433 0.0
C978 C 0.28576 0.90714 0.98822 0.0
C979 C 0.294 0.94272 0.99036 0.0
N980 N 0.31409 0.93795 0.99046 0.0
C981 C 0.30648 0.90258 0.98819 0.0
C982 C 0.27944 0.92735 0.98915 0.0
C983 C 0.32057 0.91838 0.98939 0.0
C984 C 0.29882 0.85311 0.96208 0.0
N985 N 0.2916 0.84733 0.98051 0.0
C986 C 0.31631 0.82084 0.98264 0.0
C987 C 0.29983 0.83145 0.9908 0.0
C988 C 0.32408 0.82651 0.96361 0.0
C989 C 0.31504 0.84279 0.95325 0.0
H990 H 0.29198 0.86585 0.9543 0.0
H991 H 0.29366 0.82708 0.00537 0.0
C992 C 0.25362 0.90996 0.05068 0.0
N993 N 0.26787 0.9053 0.0365 0.0
C994 C 0.2592 0.91945 0.06882 0.0
C995 C 0.29391 0.91995 0.0571 0.0
C996 C 0.2877 0.91026 0.03934 0.0
C997 C 0.27968 0.92427 0.0724 0.0
H998 H 0.23802 0.90543 0.04832 0.0
H999 H 0.29895 0.90581 0.02835 0.0
C1000 C 0.24724 0.84356 0.96398 0.0
N1001 N 0.2595 0.81649 0.93443 0.0
C1002 C 0.24976 0.85009 0.94396 0.0
C1003 C 0.25089 0.82327 0.96898 0.0
C1004 C 0.25596 0.83615 0.92923 0.0
C1005 C 0.2571 0.80982 0.95382 0.0
C1006 C 0.21441 0.90311 0.00659 0.0
C1007 C 0.19464 0.89592 0.00392 0.0
C1008 C 0.2181 0.92399 0.00661 0.0
C1009 C 0.17888 0.90979 0.00095 0.0
C1010 C 0.20193 0.93737 0.0036 0.0
N1011 N 0.18282 0.93005 0.00084 0.0
C1012 C 0.2057 0.84948 0.03651 0.0
C1013 C 0.20576 0.82906 0.00689 0.0
C1014 C 0.1885 0.83949 0.04381 0.0
N1015 N 0.21388 0.84417 0.01835 0.0
C1016 C 0.18854 0.81866 0.0136 0.0
C1017 C 0.17955 0.82397 0.03221 0.0
H1018 H 0.21215 0.86196 0.045 0.0
H1019 H 0.21231 0.82544 0.9923 0.0
C1020 C 0.2416 0.91376 0.94776 0.0
N1021 N 0.23077 0.90064 0.95942 0.0
C1022 C 0.23308 0.92188 0.93008 0.0
C1023 C 0.20235 0.90311 0.93703 0.0
C1024 C 0.21152 0.89521 0.9544 0.0
C1025 C 0.21325 0.91639 0.92436 0.0
H1026 H 0.25708 0.91738 0.95178 0.0
H1027 H 0.20347 0.88429 0.96363 0.0
O1028 O 0.26289 0.85812 0.0201 0.0
O1029 O 0.27177 0.89188 0.98689 0.0
O1030 O 0.24178 0.85709 0.97873 0.0
O1031 O 0.23006 0.88978 0.00934 0.0
H1032 H 0.3028 0.86196 0.0229 0.0
H1033 H 0.24734 0.85726 0.05713 0.0
H1034 H 0.32187 0.86472 0.05526 0.0
H1035 H 0.26736 0.8604 0.0889 0.0
H1036 H 0.28933 0.95844 0.99117 0.0
H1037 H 0.31163 0.88701 0.98749 0.0
H1038 H 0.26347 0.93113 0.98892 0.0
H1039 H 0.33665 0.91508 0.98951 0.0
H1040 H 0.32277 0.80825 0.991 0.0
H1041 H 0.32072 0.84775 0.93864 0.0
H1042 H 0.2477 0.92216 0.08024 0.0
H1043 H 0.30983 0.92358 0.059 0.0
H1044 H 0.24714 0.86577 0.93986 0.0
H1045 H 0.24924 0.81806 0.98448 0.0
H1046 H 0.25805 0.84099 0.91368 0.0
H1047 H 0.26011 0.79411 0.95749 0.0
H1048 H 0.19153 0.87979 0.00391 0.0
H1049 H 0.23327 0.92978 0.00898 0.0
H1050 H 0.16351 0.90444 0.99872 0.0
H1051 H 0.20456 0.95357 0.0035 0.0
H1052 H 0.18187 0.84436 0.05804 0.0
H1053 H 0.18223 0.80672 0.00424 0.0
H1054 H 0.24222 0.93176 0.92065 0.0
H1055 H 0.18696 0.89861 0.93344 0.0
Li1056 Li 0.25021 0.38812 0.01558 0.0
Li1057 Li 0.27201 0.36022 0.00475 0.0
Li1058 Li 0.26436 0.38859 0.98061 0.0
Li1059 Li 0.23878 0.36285 0.98891 0.0
C1060 C 0.28863 0.40687 0.01351 0.0
N1061 N 0.30768 0.44196 0.02642 0.0
C1062 C 0.30457 0.40586 0.02749 0.0
C1063 C 0.28264 0.42572 0.00586 0.0
C1064 C 0.31393 0.42377 0.03391 0.0
C1065 C 0.29238 0.44328 0.01262 0.0
C1066 C 0.24761 0.34351 0.0323 0.0
C1067 C 0.24806 0.30813 0.04168 0.0
N1068 N 0.25385 0.31337 0.06079 0.0
C1069 C 0.25333 0.34856 0.05209 0.0
C1070 C 0.24475 0.32316 0.02708 0.0
C1071 C 0.2565 0.3331 0.06625 0.0
C1072 C 0.22181 0.40882 0.04004 0.0
N1073 N 0.24168 0.40345 0.0386 0.0
C1074 C 0.24849 0.41736 0.07142 0.0
C1075 C 0.255 0.4075 0.05383 0.0
C1076 C 0.22801 0.42293 0.07346 0.0
C1077 C 0.21463 0.4187 0.05738 0.0
H1078 H 0.21147 0.40512 0.02784 0.0
H1079 H 0.27054 0.40245 0.05266 0.0
C1080 C 0.30134 0.32818 0.00262 0.0
N1081 N 0.29312 0.34297 0.01443 0.0
C1082 C 0.31802 0.31701 0.00954 0.0
C1083 C 0.31731 0.33643 0.04065 0.0
C1084 C 0.30067 0.34715 0.03315 0.0
C1085 C 0.32638 0.32123 0.02873 0.0
H1086 H 0.29529 0.32536 0.98765 0.0
H1087 H 0.29405 0.35921 0.04208 0.0
C1088 C 0.22628 0.40968 0.98168 0.0
N1089 N 0.20648 0.44339 0.96637 0.0
C1090 C 0.21372 0.40792 0.96467 0.0
C1091 C 0.22837 0.42855 0.99117 0.0
C1092 C 0.20397 0.42514 0.95707 0.0
C1093 C 0.21835 0.44542 0.98314 0.0
C1094 C 0.26263 0.34488 0.96048 0.0
C1095 C 0.26412 0.35053 0.94008 0.0
C1096 C 0.25802 0.3248 0.96547 0.0
C1097 C 0.26063 0.33604 0.92501 0.0
C1098 C 0.25462 0.31075 0.94997 0.0
N1099 N 0.25596 0.31662 0.93022 0.0
C1100 C 0.29512 0.40934 0.95916 0.0
C1101 C 0.26346 0.40816 0.94217 0.0
C1102 C 0.30411 0.41883 0.94249 0.0
N1103 N 0.27514 0.40421 0.95871 0.0
C1104 C 0.27186 0.41753 0.9251 0.0
C1105 C 0.29254 0.42276 0.925 0.0
H1106 H 0.30424 0.40555 0.97227 0.0
H1107 H 0.24787 0.40317 0.9418 0.0
C1108 C 0.20234 0.33953 0.99021 0.0
N1109 N 0.21571 0.34924 0.97785 0.0
C1110 C 0.18449 0.33122 0.98224 0.0
C1111 C 0.19476 0.34274 0.94897 0.0
C1112 C 0.21231 0.35084 0.95757 0.0
C1113 C 0.18036 0.33306 0.96137 0.0
H1114 H 0.20525 0.33875 0.00635 0.0
H1115 H 0.22297 0.35894 0.94811 0.0
O1116 O 0.27923 0.38946 0.00716 0.0
O1117 O 0.24471 0.35843 0.01815 0.0
O1118 O 0.23574 0.39288 0.98948 0.0
O1119 O 0.26575 0.35894 0.97544 0.0
H1120 H 0.30963 0.39141 0.0334 0.0
H1121 H 0.27084 0.42675 0.99456 0.0
H1122 H 0.32619 0.4232 0.04482 0.0
H1123 H 0.28785 0.45796 0.00682 0.0
H1124 H 0.24598 0.29231 0.03782 0.0
H1125 H 0.25551 0.36423 0.05642 0.0
H1126 H 0.23993 0.31899 0.01197 0.0
H1127 H 0.2611 0.33678 0.08157 0.0
H1128 H 0.25924 0.41994 0.08358 0.0
H1129 H 0.19875 0.42285 0.05823 0.0
H1130 H 0.3244 0.30534 0.9999 0.0
H1131 H 0.32341 0.34051 0.05536 0.0
H1132 H 0.21164 0.39344 0.95728 0.0
H1133 H 0.23746 0.43018 0.00473 0.0
H1134 H 0.19437 0.42399 0.9438 0.0
H1135 H 0.21992 0.46011 0.9903 0.0
H1136 H 0.26787 0.36595 0.93592 0.0
H1137 H 0.25703 0.32012 0.98115 0.0
H1138 H 0.26163 0.34023 0.90916 0.0
H1139 H 0.25093 0.29518 0.95363 0.0
H1140 H 0.32007 0.42272 0.94318 0.0
H1141 H 0.26245 0.41982 0.91182 0.0
H1142 H 0.17371 0.32411 0.99241 0.0
H1143 H 0.19238 0.34429 0.93278 0.0
Li1144 Li 0.73413 0.14481 0.00799 0.0
Li1145 Li 0.75559 0.11696 0.01989 0.0
Li1146 Li 0.76752 0.14154 0.99307 0.0
Li1147 Li 0.74218 0.11581 0.98463 0.0
C1148 C 0.75771 0.16153 0.03615 0.0
N1149 N 0.75045 0.19148 0.06459 0.0
C1150 C 0.75388 0.15634 0.05636 0.0
C1151 C 0.75815 0.18196 0.03047 0.0
C1152 C 0.75016 0.1717 0.07049 0.0
C1153 C 0.75435 0.19687 0.04504 0.0
C1154 C 0.71573 0.09937 0.01718 0.0
C1155 C 0.70806 0.06357 0.01621 0.0
N1156 N 0.69293 0.06653 0.02993 0.0
C1157 C 0.6999 0.10208 0.03105 0.0
C1158 C 0.71967 0.07999 0.00951 0.0
C1159 C 0.68863 0.08528 0.0374 0.0
C1160 C 0.70346 0.175 0.00334 0.0
N1161 N 0.71271 0.16217 0.01659 0.0
C1162 C 0.68856 0.17024 0.04238 0.0
C1163 C 0.70574 0.15977 0.03584 0.0
C1164 C 0.67832 0.18326 0.02893 0.0
C1165 C 0.68616 0.1858 0.00924 0.0
H1166 H 0.70911 0.17637 0.988 0.0
H1167 H 0.71309 0.14911 0.0459 0.0
C1168 C 0.78369 0.09826 0.04603 0.0
N1169 N 0.7636 0.10219 0.04347 0.0
C1170 C 0.79061 0.08903 0.06383 0.0
C1171 C 0.75603 0.08795 0.07598 0.0
C1172 C 0.74979 0.09723 0.05798 0.0
C1173 C 0.77673 0.0839 0.07921 0.0
H1174 H 0.79438 0.10271 0.0344 0.0
H1175 H 0.734 0.10102 0.05589 0.0
C1176 C 0.74557 0.1583 0.96323 0.0
N1177 N 0.75528 0.18429 0.93178 0.0
C1178 C 0.74684 0.15099 0.94335 0.0
C1179 C 0.74894 0.17888 0.96706 0.0
C1180 C 0.75184 0.16436 0.92767 0.0
C1181 C 0.75393 0.19176 0.95098 0.0
C1182 C 0.77926 0.09339 0.9887 0.0
C1183 C 0.79371 0.09274 0.97317 0.0
C1184 C 0.77436 0.07558 0.99914 0.0
C1185 C 0.80256 0.07419 0.96796 0.0
C1186 C 0.78356 0.05734 0.99351 0.0
N1187 N 0.79733 0.05701 0.97814 0.0
C1188 C 0.80231 0.1676 0.99335 0.0
C1189 C 0.79594 0.14995 0.96268 0.0
C1190 C 0.82016 0.17584 0.98528 0.0
N1191 N 0.79073 0.15481 0.98203 0.0
C1192 C 0.81355 0.15783 0.95402 0.0
C1193 C 0.82613 0.17071 0.96544 0.0
H1194 H 0.79796 0.17101 0.00881 0.0
H1195 H 0.78657 0.1396 0.95408 0.0
C1196 C 0.71081 0.0986 0.96187 0.0
N1197 N 0.73136 0.10001 0.96299 0.0
C1198 C 0.70161 0.08956 0.94508 0.0
C1199 C 0.73488 0.08335 0.93095 0.0
C1200 C 0.74345 0.09249 0.94805 0.0
C1201 C 0.71366 0.08211 0.92914 0.0
H1202 H 0.70155 0.10506 0.97378 0.0
H1203 H 0.75969 0.09445 0.94891 0.0
O1204 O 0.76112 0.14669 0.02204 0.0
O1205 O 0.72683 0.11572 0.01073 0.0
O1206 O 0.74095 0.14538 0.97882 0.0
O1207 O 0.77061 0.11151 0.99413 0.0
H1208 H 0.75359 0.14063 0.06106 0.0
H1209 H 0.76139 0.18625 0.01497 0.0
H1210 H 0.74703 0.1679 0.08616 0.0
H1211 H 0.75454 0.21274 0.04083 0.0
H1212 H 0.711 0.0485 0.01041 0.0
H1213 H 0.69639 0.11698 0.03695 0.0
H1214 H 0.73134 0.07766 0.99826 0.0
H1215 H 0.67645 0.08716 0.04824 0.0
H1216 H 0.68288 0.16748 0.05755 0.0
H1217 H 0.67883 0.19577 0.99842 0.0
H1218 H 0.80674 0.08654 0.06576 0.0
H1219 H 0.74476 0.08414 0.08732 0.0
H1220 H 0.74414 0.13514 0.94007 0.0
H1221 H 0.74777 0.18482 0.98229 0.0
H1222 H 0.75301 0.15888 0.91224 0.0
H1223 H 0.7567 0.2077 0.95375 0.0
H1224 H 0.79797 0.10637 0.96512 0.0
H1225 H 0.76374 0.07582 0.01163 0.0
H1226 H 0.81363 0.07346 0.95586 0.0
H1227 H 0.77983 0.04345 0.00143 0.0
H1228 H 0.8295 0.18554 0.9947 0.0
H1229 H 0.81737 0.1537 0.93857 0.0
H1230 H 0.6852 0.08876 0.94441 0.0
H1231 H 0.74474 0.07815 0.91887 0.0
Li1232 Li 0.14078 0.50341 0.26754 0.0
Li1233 Li 0.11448 0.48012 0.25753 0.0
Li1234 Li 0.14169 0.48662 0.23314 0.0
Li1235 Li 0.11571 0.51197 0.24084 0.0
C1236 C 0.1439 0.45835 0.27428 0.0
N1237 N 0.14158 0.42623 0.30121 0.0
C1238 C 0.14329 0.46194 0.29518 0.0
C1239 C 0.14329 0.43839 0.2671 0.0
C1240 C 0.14218 0.44551 0.30855 0.0
C1241 C 0.14209 0.42237 0.28094 0.0
C1242 C 0.09686 0.50512 0.2848 0.0
C1243 C 0.06198 0.50058 0.29492 0.0
N1244 N 0.06786 0.50038 0.31471 0.0
C1245 C 0.10255 0.50501 0.30524 0.0
C1246 C 0.07641 0.50304 0.27958 0.0
C1247 C 0.08766 0.50255 0.32014 0.0
C1248 C 0.14924 0.53378 0.29523 0.0
N1249 N 0.15628 0.51557 0.28864 0.0
C1250 C 0.18308 0.51634 0.31311 0.0
C1251 C 0.17306 0.50687 0.29694 0.0
C1252 C 0.17586 0.53501 0.32052 0.0
C1253 C 0.1588 0.54379 0.31122 0.0
H1254 H 0.13591 0.54035 0.28823 0.0
H1255 H 0.17849 0.49248 0.2912 0.0
C1256 C 0.09021 0.44561 0.25183 0.0
N1257 N 0.09731 0.45831 0.26647 0.0
C1258 C 0.0796 0.42804 0.25709 0.0
C1259 C 0.08339 0.43708 0.29242 0.0
C1260 C 0.09398 0.45442 0.28648 0.0
C1261 C 0.07628 0.42347 0.27764 0.0
H1262 H 0.09333 0.4488 0.23604 0.0
H1263 H 0.10024 0.46427 0.29793 0.0
C1264 C 0.16522 0.52222 0.23882 0.0
N1265 N 0.20499 0.53533 0.23688 0.0
C1266 C 0.16958 0.54215 0.23307 0.0
C1267 C 0.18107 0.50895 0.24363 0.0
C1268 C 0.18979 0.54849 0.23216 0.0
C1269 C 0.20107 0.51587 0.24254 0.0
C1270 C 0.09926 0.48888 0.21273 0.0
C1271 C 0.10663 0.49203 0.1931 0.0
C1272 C 0.07841 0.49005 0.21644 0.0
C1273 C 0.09301 0.49663 0.17752 0.0
C1274 C 0.06528 0.4947 0.20046 0.0
N1275 N 0.07279 0.49789 0.18149 0.0
C1276 C 0.15586 0.45547 0.2079 0.0
C1277 C 0.16676 0.48818 0.19775 0.0
C1278 C 0.16438 0.44684 0.19055 0.0
N1279 N 0.15713 0.47578 0.21116 0.0
C1280 C 0.17549 0.48019 0.18013 0.0
C1281 C 0.17406 0.45928 0.17618 0.0
H1282 H 0.14751 0.44607 0.21839 0.0
H1283 H 0.16691 0.50439 0.20022 0.0
C1284 C 0.08717 0.54439 0.23945 0.0
N1285 N 0.1018 0.53425 0.22904 0.0
C1286 C 0.07859 0.56202 0.23134 0.0
C1287 C 0.1 0.55808 0.20181 0.0
C1288 C 0.10828 0.54069 0.21057 0.0
C1289 C 0.08519 0.56925 0.21237 0.0
H1290 H 0.08263 0.5392 0.25433 0.0
H1291 H 0.12024 0.53254 0.20284 0.0
O1292 O 0.14463 0.47429 0.26095 0.0
O1293 O 0.11121 0.50762 0.27001 0.0
O1294 O 0.14549 0.51589 0.24001 0.0
O1295 O 0.11237 0.48466 0.22826 0.0
H1296 H 0.1432 0.47723 0.30107 0.0
H1297 H 0.14352 0.43525 0.25102 0.0
H1298 H 0.1416 0.4481 0.32475 0.0
H1299 H 0.14151 0.40687 0.27557 0.0
H1300 H 0.04611 0.49885 0.29109 0.0
H1301 H 0.1183 0.5066 0.30958 0.0
H1302 H 0.07173 0.50327 0.26386 0.0
H1303 H 0.09185 0.50232 0.33601 0.0
H1304 H 0.19633 0.50918 0.31969 0.0
H1305 H 0.15258 0.55803 0.31657 0.0
H1306 H 0.07429 0.41799 0.24521 0.0
H1307 H 0.08154 0.43395 0.30845 0.0
H1308 H 0.15745 0.5526 0.22937 0.0
H1309 H 0.17797 0.49347 0.24816 0.0
H1310 H 0.1934 0.56388 0.22772 0.0
H1311 H 0.21349 0.50578 0.24622 0.0
H1312 H 0.12271 0.49113 0.18995 0.0
H1313 H 0.07245 0.48739 0.2315 0.0
H1314 H 0.09851 0.49925 0.16227 0.0
H1315 H 0.04911 0.49576 0.20312 0.0
H1316 H 0.16303 0.43062 0.18822 0.0
H1317 H 0.18246 0.49041 0.16931 0.0
H1318 H 0.06748 0.57028 0.2402 0.0
H1319 H 0.10537 0.56287 0.18704 0.0
Li1320 Li 0.74409 0.88655 0.51614 0.0
Li1321 Li 0.76664 0.85917 0.50523 0.0
Li1322 Li 0.75692 0.88644 0.48113 0.0
Li1323 Li 0.73234 0.86137 0.49176 0.0
C1324 C 0.78732 0.89908 0.51636 0.0
N1325 N 0.81785 0.92009 0.53602 0.0
C1326 C 0.7962 0.89109 0.5339 0.0
C1327 C 0.79409 0.91769 0.50874 0.0
C1328 C 0.81158 0.90196 0.54364 0.0
C1329 C 0.8095 0.9281 0.51892 0.0
C1330 C 0.73632 0.83739 0.52575 0.0
C1331 C 0.73775 0.80146 0.51897 0.0
N1332 N 0.72741 0.79786 0.53648 0.0
C1333 C 0.72568 0.83335 0.54364 0.0
C1334 C 0.74238 0.82134 0.51327 0.0
C1335 C 0.72134 0.81325 0.54881 0.0
C1336 C 0.71441 0.90352 0.54042 0.0
N1337 N 0.73491 0.90199 0.5388 0.0
C1338 C 0.73927 0.91834 0.5709 0.0
C1339 C 0.7474 0.90941 0.55346 0.0
C1340 C 0.7181 0.91959 0.57327 0.0
C1341 C 0.70565 0.91241 0.55751 0.0
H1342 H 0.70483 0.89732 0.52861 0.0
H1343 H 0.76361 0.90784 0.55202 0.0
C1344 C 0.80441 0.83874 0.50195 0.0
N1345 N 0.78834 0.84237 0.51437 0.0
C1346 C 0.82115 0.82778 0.50907 0.0
C1347 C 0.80426 0.82423 0.54144 0.0
C1348 C 0.78793 0.83528 0.53374 0.0
C1349 C 0.82127 0.8205 0.52914 0.0
H1350 H 0.80436 0.8447 0.48665 0.0
H1351 H 0.77519 0.83877 0.54346 0.0
C1352 C 0.72305 0.91104 0.48857 0.0
N1353 N 0.71182 0.95121 0.48436 0.0
C1354 C 0.70433 0.91602 0.47994 0.0
C1355 C 0.73603 0.92647 0.49513 0.0
C1356 C 0.69894 0.93642 0.47791 0.0
C1357 C 0.73009 0.94669 0.49286 0.0
C1358 C 0.7543 0.85268 0.45624 0.0
C1359 C 0.73796 0.86202 0.44643 0.0
C1360 C 0.76708 0.83975 0.44534 0.0
C1361 C 0.73468 0.85825 0.42583 0.0
C1362 C 0.76329 0.83636 0.42475 0.0
N1363 N 0.74731 0.8456 0.4155 0.0
C1364 C 0.78641 0.90269 0.45464 0.0
C1365 C 0.7525 0.91064 0.44567 0.0
C1366 C 0.79363 0.9122 0.43709 0.0
N1367 N 0.76616 0.902 0.45851 0.0
C1368 C 0.75903 0.92025 0.42797 0.0
C1369 C 0.77982 0.92091 0.42334 0.0
H1370 H 0.79691 0.89538 0.46493 0.0
H1371 H 0.73645 0.90954 0.4488 0.0
C1372 C 0.69083 0.85593 0.48945 0.0
N1373 N 0.70858 0.84712 0.48381 0.0
C1374 C 0.67236 0.84778 0.4831 0.0
C1375 C 0.69076 0.82126 0.46566 0.0
C1376 C 0.70892 0.82988 0.47247 0.0
C1377 C 0.67215 0.83043 0.4707 0.0
H1378 H 0.69106 0.86955 0.49861 0.0
H1379 H 0.72328 0.82313 0.46827 0.0
O1380 O 0.77252 0.88852 0.50633 0.0
O1381 O 0.74051 0.85702 0.52045 0.0
O1382 O 0.7285 0.89111 0.49057 0.0
O1383 O 0.75801 0.85627 0.47635 0.0
H1384 H 0.79105 0.87683 0.54012 0.0
H1385 H 0.78753 0.92402 0.49507 0.0
H1386 H 0.81849 0.896 0.55729 0.0
H1387 H 0.81484 0.94253 0.51321 0.0
H1388 H 0.74235 0.78889 0.50947 0.0
H1389 H 0.72083 0.84564 0.55341 0.0
H1390 H 0.75058 0.82416 0.49934 0.0
H1391 H 0.71313 0.80989 0.56263 0.0
H1392 H 0.74946 0.92346 0.58275 0.0
H1393 H 0.68927 0.91333 0.55851 0.0
H1394 H 0.83388 0.82513 0.49903 0.0
H1395 H 0.80384 0.81927 0.55711 0.0
H1396 H 0.69412 0.90422 0.4748 0.0
H1397 H 0.75048 0.92289 0.50198 0.0
H1398 H 0.68451 0.9405 0.47122 0.0
H1399 H 0.73999 0.95879 0.49787 0.0
H1400 H 0.72789 0.87206 0.45461 0.0
H1401 H 0.77982 0.83244 0.45272 0.0
H1402 H 0.72211 0.86538 0.41806 0.0
H1403 H 0.77307 0.82639 0.41611 0.0
H1404 H 0.80977 0.9121 0.43399 0.0
H1405 H 0.74786 0.92692 0.41791 0.0
H1406 H 0.65841 0.85513 0.48771 0.0
H1407 H 0.69135 0.80798 0.456 0.0
Li1408 Li 0.8925 0.01791 0.25688 0.0
Li1409 Li 0.86521 0.99531 0.26804 0.0
Li1410 Li 0.89081 0.98371 0.24203 0.0
Li1411 Li 0.86434 0.00808 0.23265 0.0
C1412 C 0.91141 0.9913 0.28355 0.0
N1413 N 0.94465 0.99163 0.30914 0.0
C1414 C 0.90872 0.99304 0.30452 0.0
C1415 C 0.93099 0.98935 0.27564 0.0
C1416 C 0.92572 0.9933 0.31719 0.0
C1417 C 0.9476 0.98964 0.2888 0.0
C1418 C 0.84732 0.03407 0.2675 0.0
C1419 C 0.81171 0.04221 0.27006 0.0
N1420 N 0.81584 0.05484 0.28586 0.0
C1421 C 0.85124 0.04738 0.28355 0.0
C1422 C 0.82743 0.03167 0.26051 0.0
C1423 C 0.8351 0.05763 0.29272 0.0
C1424 C 0.91794 0.05259 0.2525 0.0
N1425 N 0.90893 0.03984 0.266 0.0
C1426 C 0.91999 0.06033 0.29378 0.0
C1427 C 0.90979 0.04338 0.28629 0.0
C1428 C 0.92913 0.07404 0.28024 0.0
C1429 C 0.92826 0.06983 0.25933 0.0
H1430 H 0.91655 0.04974 0.2364 0.0
H1431 H 0.90193 0.03341 0.29665 0.0
C1432 C 0.84224 0.96825 0.29242 0.0
N1433 N 0.85059 0.9871 0.29163 0.0
C1434 C 0.83344 0.96118 0.31038 0.0
C1435 C 0.84201 0.99303 0.32639 0.0
C1436 C 0.85062 0.99947 0.30814 0.0
C1437 C 0.83346 0.97354 0.32777 0.0
H1438 H 0.843 0.95843 0.2793 0.0
H1439 H 0.85805 0.01405 0.30739 0.0
C1440 C 0.90928 0.00879 0.21375 0.0
N1441 N 0.94001 0.0059 0.18535 0.0
C1442 C 0.90462 0.00628 0.19321 0.0
C1443 C 0.92956 0.01024 0.21979 0.0
C1444 C 0.92037 0.00472 0.1791 0.0
C1445 C 0.94488 0.00864 0.20522 0.0
C1446 C 0.84355 0.97092 0.23534 0.0
C1447 C 0.8446 0.95595 0.22035 0.0
C1448 C 0.82468 0.97655 0.24321 0.0
C1449 C 0.82668 0.9472 0.21313 0.0
C1450 C 0.80711 0.96743 0.23562 0.0
N1451 N 0.80846 0.95309 0.22083 0.0
C1452 C 0.91488 0.94774 0.24412 0.0
C1453 C 0.9026 0.95675 0.21154 0.0
C1454 C 0.92319 0.9298 0.23639 0.0
N1455 N 0.9048 0.96073 0.23164 0.0
C1456 C 0.9107 0.9391 0.20317 0.0
C1457 C 0.9209 0.92516 0.21568 0.0
H1458 H 0.91587 0.95094 0.26018 0.0
H1459 H 0.89389 0.96695 0.20211 0.0
C1460 C 0.84229 0.03645 0.20874 0.0
N1461 N 0.8487 0.01688 0.20997 0.0
C1462 C 0.83289 0.04355 0.19108 0.0
C1463 C 0.8367 0.01016 0.17639 0.0
C1464 C 0.84606 0.00376 0.19427 0.0
C1465 C 0.83024 0.0304 0.17446 0.0
H1466 H 0.84508 0.04673 0.22123 0.0
H1467 H 0.85196 0.98851 0.19531 0.0
O1468 O 0.89493 0.9911 0.27091 0.0
O1469 O 0.86296 0.02398 0.25829 0.0
O1470 O 0.89404 0.01032 0.22779 0.0
O1471 O 0.86096 0.97966 0.24255 0.0
H1472 H 0.89368 0.99434 0.31094 0.0
H1473 H 0.93332 0.9874 0.25953 0.0
H1474 H 0.92386 0.9948 0.33344 0.0
H1475 H 0.96284 0.98821 0.28286 0.0
H1476 H 0.79625 0.04043 0.26485 0.0
H1477 H 0.86656 0.04965 0.28898 0.0
H1478 H 0.82418 0.02196 0.24771 0.0
H1479 H 0.83791 0.06783 0.30528 0.0
H1480 H 0.92041 0.06283 0.31002 0.0
H1481 H 0.93479 0.08014 0.24832 0.0
H1482 H 0.82739 0.9459 0.31083 0.0
H1483 H 0.84231 0.00311 0.33937 0.0
H1484 H 0.88901 0.00538 0.18822 0.0
H1485 H 0.93344 0.01279 0.23551 0.0
H1486 H 0.91697 0.0026 0.16318 0.0
H1487 H 0.96064 0.00966 0.20971 0.0
H1488 H 0.85909 0.95122 0.21425 0.0
H1489 H 0.82362 0.98763 0.25524 0.0
H1490 H 0.82727 0.93572 0.20141 0.0
H1491 H 0.79241 0.97169 0.24155 0.0
H1492 H 0.93062 0.91934 0.24666 0.0
H1493 H 0.9087 0.93626 0.18711 0.0
H1494 H 0.8285 0.05936 0.19017 0.0
H1495 H 0.83486 0.99944 0.16408 0.0
Li1496 Li 0.23164 0.63931 0.50639 0.0
Li1497 Li 0.25546 0.61283 0.5166 0.0
Li1498 Li 0.26536 0.63926 0.49239 0.0
Li1499 Li 0.24177 0.61242 0.48273 0.0
C1500 C 0.27229 0.65505 0.52783 0.0
N1501 N 0.3037 0.68024 0.53954 0.0
C1502 C 0.28899 0.64713 0.53825 0.0
C1503 C 0.27153 0.67579 0.52343 0.0
C1504 C 0.30472 0.66012 0.54404 0.0
C1505 C 0.28758 0.68827 0.52944 0.0
C1506 C 0.21959 0.59705 0.52304 0.0
C1507 C 0.21779 0.56381 0.53828 0.0
N1508 N 0.20706 0.57173 0.55404 0.0
C1509 C 0.20848 0.60485 0.53935 0.0
C1510 C 0.22421 0.57635 0.52244 0.0
C1511 C 0.2023 0.5918 0.55487 0.0
C1512 C 0.19044 0.65123 0.5094 0.0
N1513 N 0.20957 0.6553 0.51601 0.0
C1514 C 0.197 0.68019 0.53918 0.0
C1515 C 0.21312 0.66952 0.53051 0.0
C1516 C 0.17704 0.67613 0.53287 0.0
C1517 C 0.17387 0.66165 0.51755 0.0
H1518 H 0.18802 0.63948 0.4982 0.0
H1519 H 0.22843 0.67221 0.53574 0.0
C1520 C 0.27752 0.58198 0.53786 0.0
N1521 N 0.26418 0.59761 0.53958 0.0
C1522 C 0.28437 0.57185 0.55521 0.0
C1523 C 0.26346 0.59402 0.57565 0.0
C1524 C 0.25715 0.60377 0.55796 0.0
C1525 C 0.27738 0.57792 0.57444 0.0
H1526 H 0.28309 0.57758 0.52307 0.0
H1527 H 0.24686 0.61653 0.55887 0.0
C1528 C 0.22468 0.65435 0.47046 0.0
N1529 N 0.19332 0.67913 0.45774 0.0
C1530 C 0.20851 0.64624 0.45939 0.0
C1531 C 0.22495 0.67508 0.475 0.0
C1532 C 0.1928 0.65902 0.45309 0.0
C1533 C 0.20893 0.68734 0.46847 0.0
C1534 C 0.27772 0.59662 0.47679 0.0
C1535 C 0.28848 0.60403 0.46008 0.0
C1536 C 0.2735 0.57588 0.47821 0.0
C1537 C 0.29475 0.59054 0.44497 0.0
C1538 C 0.27999 0.56289 0.46277 0.0
N1539 N 0.29039 0.57043 0.44661 0.0
C1540 C 0.3066 0.64991 0.48855 0.0
C1541 C 0.28409 0.67055 0.46953 0.0
C1542 C 0.32333 0.66024 0.48067 0.0
N1543 N 0.28749 0.65515 0.48281 0.0
C1544 C 0.30038 0.68127 0.46124 0.0
C1545 C 0.32035 0.676 0.4666 0.0
H1546 H 0.30884 0.63734 0.49886 0.0
H1547 H 0.26877 0.67423 0.46502 0.0
C1548 C 0.22075 0.58025 0.46235 0.0
N1549 N 0.23337 0.59642 0.46015 0.0
C1550 C 0.21443 0.56927 0.44533 0.0
C1551 C 0.23432 0.59172 0.42421 0.0
C1552 C 0.24016 0.6023 0.44159 0.0
C1553 C 0.22112 0.57505 0.42589 0.0
H1554 H 0.21535 0.57608 0.47726 0.0
H1555 H 0.25004 0.61534 0.4403 0.0
O1556 O 0.25695 0.64253 0.52162 0.0
O1557 O 0.22616 0.60964 0.50791 0.0
O1558 O 0.24005 0.64204 0.47705 0.0
O1559 O 0.27105 0.60964 0.49152 0.0
H1560 H 0.28993 0.6311 0.54164 0.0
H1561 H 0.2588 0.68214 0.51522 0.0
H1562 H 0.31777 0.65419 0.55204 0.0
H1563 H 0.28725 0.70432 0.52603 0.0
H1564 H 0.22138 0.5478 0.53808 0.0
H1565 H 0.20486 0.62084 0.54014 0.0
H1566 H 0.2329 0.57009 0.51 0.0
H1567 H 0.19378 0.59765 0.56763 0.0
H1568 H 0.2001 0.69131 0.55088 0.0
H1569 H 0.1587 0.65784 0.51249 0.0
H1570 H 0.29504 0.55945 0.55361 0.0
H1571 H 0.25797 0.59943 0.59017 0.0
H1572 H 0.20796 0.63023 0.45585 0.0
H1573 H 0.23725 0.68157 0.48373 0.0
H1574 H 0.18015 0.65294 0.44458 0.0
H1575 H 0.20888 0.70337 0.472 0.0
H1576 H 0.29174 0.62005 0.45864 0.0
H1577 H 0.26506 0.56991 0.49096 0.0
H1578 H 0.30301 0.59607 0.43191 0.0
H1579 H 0.27671 0.54683 0.4636 0.0
H1580 H 0.33845 0.65545 0.48498 0.0
H1581 H 0.29739 0.69342 0.45058 0.0
H1582 H 0.20401 0.55672 0.44733 0.0
H1583 H 0.24009 0.59659 0.40961 0.0
Li1584 Li 0.39273 0.52026 0.75438 0.0
Li1585 Li 0.36489 0.49618 0.76424 0.0
Li1586 Li 0.39304 0.48554 0.74131 0.0
Li1587 Li 0.368 0.5093 0.73012 0.0
C1588 C 0.41368 0.49052 0.77748 0.0
N1589 N 0.45205 0.48248 0.7923 0.0
C1590 C 0.41604 0.47987 0.79566 0.0
C1591 C 0.43081 0.49705 0.7668 0.0
C1592 C 0.43558 0.47597 0.80292 0.0
C1593 C 0.45008 0.49284 0.77455 0.0
C1594 C 0.35002 0.53933 0.74845 0.0
C1595 C 0.31624 0.55012 0.73941 0.0
N1596 N 0.32393 0.56791 0.7323 0.0
C1597 C 0.35759 0.55777 0.74122 0.0
C1598 C 0.32917 0.5355 0.7477 0.0
C1599 C 0.34415 0.57201 0.73306 0.0
C1600 C 0.4169 0.55574 0.75154 0.0
N1601 N 0.40859 0.54198 0.76446 0.0
C1602 C 0.42157 0.55991 0.79315 0.0
C1603 C 0.41075 0.54369 0.7849 0.0
C1604 C 0.43007 0.57459 0.78023 0.0
C1605 C 0.42772 0.57232 0.75915 0.0
H1606 H 0.41483 0.55398 0.73534 0.0
H1607 H 0.40381 0.53257 0.79478 0.0
C1608 C 0.34959 0.4672 0.79101 0.0
N1609 N 0.3488 0.48724 0.78625 0.0
C1610 C 0.33953 0.45992 0.80816 0.0
C1611 C 0.32771 0.494 0.81496 0.0
C1612 C 0.33802 0.50063 0.79764 0.0
C1613 C 0.32865 0.47343 0.82058 0.0
H1614 H 0.35838 0.45697 0.78165 0.0
H1615 H 0.33787 0.51653 0.79355 0.0
C1616 C 0.40377 0.50704 0.70685 0.0
N1617 N 0.41542 0.4985 0.66749 0.0
C1618 C 0.39354 0.4922 0.69568 0.0
C1619 C 0.41993 0.51754 0.69801 0.0
C1620 C 0.39964 0.48811 0.6758 0.0
C1621 C 0.4256 0.513 0.67809 0.0
C1622 C 0.34698 0.47062 0.73186 0.0
C1623 C 0.34898 0.45599 0.71662 0.0
C1624 C 0.32793 0.4743 0.74043 0.0
C1625 C 0.33177 0.44559 0.7099 0.0
C1626 C 0.31109 0.46356 0.7333 0.0
N1627 N 0.31333 0.44957 0.71829 0.0
C1628 C 0.40121 0.44422 0.73981 0.0
C1629 C 0.42708 0.46412 0.72469 0.0
C1630 C 0.41131 0.42638 0.7345 0.0
N1631 N 0.40906 0.46255 0.73462 0.0
C1632 C 0.43763 0.44665 0.71892 0.0
C1633 C 0.42962 0.42741 0.7236 0.0
H1634 H 0.38693 0.44348 0.74788 0.0
H1635 H 0.43312 0.4789 0.72094 0.0
C1636 C 0.36307 0.53456 0.6965 0.0
N1637 N 0.35377 0.51901 0.70641 0.0
C1638 C 0.35504 0.54216 0.67846 0.0
C1639 C 0.3275 0.51815 0.68131 0.0
C1640 C 0.33613 0.51095 0.69932 0.0
C1641 C 0.33715 0.53378 0.67048 0.0
H1642 H 0.3769 0.54098 0.70257 0.0
H1643 H 0.32875 0.49884 0.70741 0.0
O1644 O 0.39465 0.49432 0.77012 0.0
O1645 O 0.363 0.52498 0.75595 0.0
O1646 O 0.3981 0.51138 0.72635 0.0
O1647 O 0.36375 0.48068 0.73884 0.0
H1648 H 0.4029 0.47467 0.80405 0.0
H1649 H 0.42926 0.50524 0.75265 0.0
H1650 H 0.43765 0.46775 0.81698 0.0
H1651 H 0.46347 0.49779 0.76645 0.0
H1652 H 0.30008 0.54731 0.73861 0.0
H1653 H 0.37368 0.56095 0.74167 0.0
H1654 H 0.32306 0.52136 0.75334 0.0
H1655 H 0.34981 0.58629 0.72726 0.0
H1656 H 0.42278 0.56124 0.80949 0.0
H1657 H 0.43415 0.58323 0.74868 0.0
H1658 H 0.34041 0.44391 0.81174 0.0
H1659 H 0.31968 0.50496 0.8242 0.0
H1660 H 0.38098 0.48401 0.70224 0.0
H1661 H 0.42802 0.52907 0.70648 0.0
H1662 H 0.39183 0.47667 0.66698 0.0
H1663 H 0.43808 0.52101 0.67105 0.0
H1664 H 0.36367 0.45264 0.71009 0.0
H1665 H 0.3261 0.48539 0.75235 0.0
H1666 H 0.33308 0.4343 0.69805 0.0
H1667 H 0.29623 0.46635 0.73971 0.0
H1668 H 0.40476 0.41195 0.73884 0.0
H1669 H 0.45159 0.44822 0.7104 0.0
H1670 H 0.36276 0.55452 0.67085 0.0
H1671 H 0.3137 0.51122 0.67569 0.0
Li1672 Li 0.64231 0.00695 0.76802 0.0
Li1673 Li 0.61602 0.98358 0.75589 0.0
Li1674 Li 0.64431 0.99466 0.73247 0.0
Li1675 Li 0.6167 0.01739 0.74189 0.0
C1676 C 0.66141 0.96714 0.76518 0.0
N1677 N 0.69304 0.94336 0.77919 0.0
C1678 C 0.65785 0.95205 0.77966 0.0
C1679 C 0.68102 0.96983 0.75753 0.0
C1680 C 0.67404 0.94028 0.78665 0.0
C1681 C 0.69682 0.95774 0.76488 0.0
C1682 C 0.59807 0.00558 0.78511 0.0
C1683 C 0.56355 0.99783 0.79452 0.0
N1684 N 0.56938 0.99633 0.81427 0.0
C1685 C 0.60369 0.00414 0.80552 0.0
C1686 C 0.57782 0.00258 0.77957 0.0
C1687 C 0.58897 0.9994 0.82003 0.0
C1688 C 0.66044 0.03567 0.79387 0.0
N1689 N 0.65702 0.01547 0.79145 0.0
C1690 C 0.67259 0.00833 0.82344 0.0
C1691 C 0.66281 0.00182 0.8058 0.0
C1692 C 0.67622 0.02912 0.82644 0.0
C1693 C 0.67011 0.04286 0.81131 0.0
H1694 H 0.65543 0.04621 0.78232 0.0
H1695 H 0.65935 0.98595 0.80388 0.0
C1696 C 0.5891 0.95054 0.74965 0.0
N1697 N 0.59986 0.96096 0.76384 0.0
C1698 C 0.57819 0.93319 0.75513 0.0
C1699 C 0.58942 0.93784 0.78975 0.0
C1700 C 0.6002 0.95497 0.78358 0.0
C1701 C 0.57836 0.92659 0.77542 0.0
H1702 H 0.58929 0.95548 0.734 0.0
H1703 H 0.60922 0.96325 0.79448 0.0
C1704 C 0.6645 0.03239 0.73858 0.0
N1705 N 0.70105 0.05142 0.73066 0.0
C1706 C 0.66525 0.04904 0.72544 0.0
C1707 C 0.6823 0.02567 0.74795 0.0
C1708 C 0.68389 0.05838 0.72154 0.0
C1709 C 0.70063 0.03542 0.74369 0.0
C1710 C 0.60178 0.99587 0.71143 0.0
C1711 C 0.60925 1.00019 0.69206 0.0
C1712 C 0.58089 0.99661 0.71502 0.0
C1713 C 0.59569 0.00553 0.67665 0.0
C1714 C 0.56782 0.00204 0.69923 0.0
N1715 N 0.57543 0.00637 0.68053 0.0
C1716 C 0.66407 0.9659 0.70816 0.0
C1717 C 0.6683 0.99979 0.69685 0.0
C1718 C 0.67452 0.95858 0.69125 0.0
N1719 N 0.66111 0.98617 0.71059 0.0
C1720 C 0.67883 0.99313 0.6797 0.0
C1721 C 0.68181 0.97225 0.67658 0.0
H1722 H 0.6579 0.9554 0.71917 0.0
H1723 H 0.66516 0.01575 0.69874 0.0
C1724 C 0.58489 0.04707 0.74144 0.0
N1725 N 0.60113 0.0393 0.73136 0.0
C1726 C 0.57378 0.06309 0.73302 0.0
C1727 C 0.59639 0.06274 0.70413 0.0
C1728 C 0.60706 0.04684 0.71312 0.0
C1729 C 0.57948 0.07108 0.71407 0.0
H1730 H 0.58057 0.04085 0.75599 0.0
H1731 H 0.62009 0.04042 0.7055 0.0
O1732 O 0.64563 0.97865 0.75803 0.0
O1733 O 0.61232 0.01001 0.77067 0.0
O1734 O 0.64633 0.02311 0.74255 0.0
O1735 O 0.61485 0.99104 0.72682 0.0
H1736 H 0.64277 0.94952 0.78558 0.0
H1737 H 0.68404 0.98092 0.74584 0.0
H1738 H 0.6715 0.92867 0.79798 0.0
H1739 H 0.71206 0.95972 0.75912 0.0
H1740 H 0.54785 0.99533 0.79042 0.0
H1741 H 0.61925 0.00656 0.81011 0.0
H1742 H 0.57318 0.00376 0.76388 0.0
H1743 H 0.59312 0.99813 0.83586 0.0
H1744 H 0.67671 0.99727 0.83488 0.0
H1745 H 0.67274 0.059 0.81294 0.0
H1746 H 0.56979 0.92499 0.74363 0.0
H1747 H 0.59027 0.93309 0.80546 0.0
H1748 H 0.65161 0.05466 0.71825 0.0
H1749 H 0.68195 0.01326 0.75862 0.0
H1750 H 0.6847 0.07118 0.7113 0.0
H1751 H 0.71451 0.03033 0.75083 0.0
H1752 H 0.62535 0.99962 0.68898 0.0
H1753 H 0.57484 0.99312 0.72986 0.0
H1754 H 0.60127 0.00905 0.66162 0.0
H1755 H 0.55163 0.0028 0.70183 0.0
H1756 H 0.67663 0.94237 0.68955 0.0
H1757 H 0.68386 0.00417 0.66861 0.0
H1758 H 0.56077 0.06899 0.74114 0.0
H1759 H 0.60153 0.06863 0.68967 0.0
Li1760 Li 0.75896 0.61702 0.98545 0.0
Li1761 Li 0.76864 0.64361 0.01115 0.0
Li1762 Li 0.74492 0.61689 0.0195 0.0
Li1763 Li 0.73399 0.64328 0.99697 0.0
C1764 C 0.77997 0.59838 0.02349 0.0
N1765 N 0.79087 0.56687 0.04891 0.0
C1766 C 0.79089 0.60231 0.04125 0.0
C1767 C 0.77479 0.57842 0.01854 0.0
C1768 C 0.79621 0.58616 0.05393 0.0
C1769 C 0.78038 0.5627 0.03161 0.0
C1770 C 0.76149 0.66727 0.97606 0.0
C1771 C 0.75888 0.70303 0.98341 0.0
N1772 N 0.76387 0.7073 0.96384 0.0
C1773 C 0.76656 0.672 0.95602 0.0
C1774 C 0.75759 0.68289 0.98989 0.0
C1775 C 0.7677 0.69234 0.95014 0.0
C1776 C 0.75801 0.60191 0.94526 0.0
N1777 N 0.76877 0.60225 0.96285 0.0
C1778 C 0.79596 0.58389 0.94746 0.0
C1779 C 0.7873 0.59334 0.96432 0.0
C1780 C 0.78549 0.58373 0.92887 0.0
C1781 C 0.7661 0.59262 0.92798 0.0
H1782 H 0.74337 0.60932 0.94453 0.0
H1783 H 0.79556 0.59398 0.9785 0.0
C1784 C 0.79199 0.66196 0.04144 0.0
N1785 N 0.79052 0.65949 0.02104 0.0
C1786 C 0.80853 0.67223 0.0498 0.0
C1787 C 0.82149 0.67767 0.01591 0.0
C1788 C 0.80478 0.66711 0.00822 0.0
C1789 C 0.82367 0.68017 0.03701 0.0
H1790 H 0.78052 0.65549 0.05126 0.0
H1791 H 0.8033 0.66477 0.99204 0.0
C1792 C 0.71669 0.59862 0.99076 0.0
N1793 N 0.68883 0.56776 0.98531 0.0
C1794 C 0.69601 0.60224 0.99389 0.0
C1795 C 0.72315 0.57942 0.98448 0.0
C1796 C 0.68218 0.5864 0.99117 0.0
C1797 C 0.70884 0.56399 0.98191 0.0
C1798 C 0.7276 0.65172 0.03865 0.0
C1799 C 0.70908 0.6414 0.03839 0.0
C1800 C 0.73057 0.66764 0.05233 0.0
C1801 C 0.69377 0.64722 0.05184 0.0
C1802 C 0.71487 0.67303 0.06553 0.0
N1803 N 0.69695 0.66279 0.06502 0.0
C1804 C 0.74407 0.60757 0.06049 0.0
C1805 C 0.72347 0.58503 0.04155 0.0
C1806 C 0.73799 0.59854 0.07863 0.0
N1807 N 0.73664 0.6009 0.04244 0.0
C1808 C 0.71675 0.57569 0.05938 0.0
C1809 C 0.72379 0.58262 0.07832 0.0
H1810 H 0.75449 0.62026 0.06079 0.0
H1811 H 0.7177 0.57988 0.02716 0.0
C1812 C 0.7024 0.65196 0.97047 0.0
N1813 N 0.71146 0.65879 0.98768 0.0
C1814 C 0.68498 0.66144 0.96306 0.0
C1815 C 0.68667 0.68508 0.99106 0.0
C1816 C 0.70419 0.6752 0.99786 0.0
C1817 C 0.67676 0.67811 0.9735 0.0
H1818 H 0.70854 0.63886 0.9627 0.0
H1819 H 0.71182 0.68053 0.01136 0.0
O1820 O 0.77419 0.61401 0.01112 0.0
O1821 O 0.76015 0.64743 0.98197 0.0
O1822 O 0.73044 0.61397 0.99319 0.0
O1823 O 0.74286 0.64629 0.02568 0.0
H1824 H 0.79505 0.61766 0.04528 0.0
H1825 H 0.76645 0.57513 0.0048 0.0
H1826 H 0.80454 0.58898 0.06779 0.0
H1827 H 0.77637 0.54719 0.02803 0.0
H1828 H 0.7559 0.71526 0.99394 0.0
H1829 H 0.76955 0.66006 0.94514 0.0
H1830 H 0.75359 0.67952 0.00544 0.0
H1831 H 0.77162 0.69623 0.93468 0.0
H1832 H 0.81081 0.57699 0.94892 0.0
H1833 H 0.7576 0.59304 0.91392 0.0
H1834 H 0.80968 0.6734 0.06615 0.0
H1835 H 0.83259 0.68375 0.00543 0.0
H1836 H 0.69065 0.61712 0.99828 0.0
H1837 H 0.73902 0.57646 0.98157 0.0
H1838 H 0.66615 0.58896 0.99364 0.0
H1839 H 0.71363 0.54903 0.97716 0.0
H1840 H 0.70663 0.62897 0.02801 0.0
H1841 H 0.74484 0.67578 0.0527 0.0
H1842 H 0.67937 0.63934 0.05183 0.0
H1843 H 0.71694 0.68535 0.07618 0.0
H1844 H 0.74419 0.60417 0.09276 0.0
H1845 H 0.70563 0.56364 0.05832 0.0
H1846 H 0.67772 0.65545 0.94958 0.0
H1847 H 0.68098 0.69804 0.9994 0.0
Li1848 Li 0.88385 0.51925 0.74431 0.0
Li1849 Li 0.85717 0.50864 0.76779 0.0
Li1850 Li 0.88374 0.48359 0.75657 0.0
Li1851 Li 0.85644 0.49441 0.73328 0.0
C1852 C 0.90502 0.51551 0.78078 0.0
N1853 N 0.94143 0.52854 0.79702 0.0
C1854 C 0.90519 0.52966 0.79658 0.0
C1855 C 0.92335 0.50779 0.77343 0.0
C1856 C 0.92376 0.53613 0.80453 0.0
C1857 C 0.9416 0.5146 0.78179 0.0
C1858 C 0.8388 0.53714 0.74386 0.0
C1859 C 0.80327 0.5459 0.74285 0.0
N1860 N 0.80794 0.5651 0.74884 0.0
C1861 C 0.84328 0.55702 0.7497 0.0
C1862 C 0.81867 0.53158 0.74015 0.0
C1863 C 0.82746 0.57091 0.75226 0.0
C1864 C 0.90522 0.5438 0.71616 0.0
N1865 N 0.89926 0.54225 0.73585 0.0
C1866 C 0.91159 0.57565 0.74287 0.0
C1867 C 0.90231 0.55768 0.7492 0.0
C1868 C 0.91761 0.5779 0.72253 0.0
C1869 C 0.91455 0.56153 0.70916 0.0
H1870 H 0.90216 0.5315 0.70574 0.0
H1871 H 0.89689 0.55634 0.76461 0.0
C1872 C 0.82842 0.50613 0.80038 0.0
N1873 N 0.84184 0.51822 0.79039 0.0
C1874 C 0.8182 0.51337 0.81751 0.0
C1875 C 0.83591 0.54526 0.81383 0.0
C1876 C 0.84578 0.53742 0.79682 0.0
C1877 C 0.822 0.53315 0.82453 0.0
H1878 H 0.82597 0.49073 0.79537 0.0
H1879 H 0.85685 0.54655 0.78888 0.0
C1880 C 0.90069 0.48454 0.71666 0.0
N1881 N 0.92988 0.46596 0.69295 0.0
C1882 C 0.89532 0.46878 0.70352 0.0
C1883 C 0.92084 0.49114 0.71742 0.0
C1884 C 0.91031 0.45949 0.69176 0.0
C1885 C 0.93539 0.48148 0.7054 0.0
C1886 C 0.83842 0.46615 0.75948 0.0
C1887 C 0.84248 0.44537 0.76089 0.0
C1888 C 0.81837 0.47282 0.75777 0.0
C1889 C 0.82637 0.43159 0.7603 0.0
C1890 C 0.80268 0.45857 0.75724 0.0
N1891 N 0.80697 0.43842 0.75848 0.0
C1892 C 0.90706 0.45911 0.78354 0.0
C1893 C 0.89971 0.44405 0.75175 0.0
C1894 C 0.91636 0.44125 0.79025 0.0
N1895 N 0.89897 0.46018 0.76458 0.0
C1896 C 0.90886 0.42592 0.7578 0.0
C1897 C 0.91713 0.42423 0.77739 0.0
H1898 H 0.90574 0.47192 0.79371 0.0
H1899 H 0.8925 0.44495 0.73708 0.0
C1900 C 0.83474 0.49962 0.69663 0.0
N1901 N 0.84052 0.4857 0.71071 0.0
C1902 C 0.82459 0.49349 0.67902 0.0
C1903 C 0.8261 0.45888 0.69102 0.0
C1904 C 0.83646 0.46564 0.70819 0.0
C1905 C 0.82031 0.4728 0.6759 0.0
H1906 H 0.83851 0.51545 0.69882 0.0
H1907 H 0.84175 0.45475 0.71922 0.0
O1908 O 0.88698 0.50913 0.77273 0.0
O1909 O 0.85408 0.52331 0.74136 0.0
O1910 O 0.88615 0.49392 0.72815 0.0
O1911 O 0.85404 0.47983 0.75977 0.0
H1912 H 0.89114 0.53567 0.80257 0.0
H1913 H 0.92346 0.49649 0.76156 0.0
H1914 H 0.92412 0.54717 0.81667 0.0
H1915 H 0.95589 0.50877 0.77622 0.0
H1916 H 0.78762 0.54178 0.74012 0.0
H1917 H 0.85879 0.56165 0.7524 0.0
H1918 H 0.81498 0.51643 0.73508 0.0
H1919 H 0.83069 0.5863 0.75696 0.0
H1920 H 0.91377 0.58776 0.75376 0.0
H1921 H 0.91861 0.56268 0.69328 0.0
H1922 H 0.80787 0.50338 0.8255 0.0
H1923 H 0.83921 0.56065 0.81857 0.0
H1924 H 0.87976 0.46364 0.70255 0.0
H1925 H 0.92518 0.50372 0.727 0.0
H1926 H 0.90639 0.44715 0.68166 0.0
H1927 H 0.95105 0.48639 0.70589 0.0
H1928 H 0.85789 0.43993 0.76236 0.0
H1929 H 0.81495 0.48883 0.75697 0.0
H1930 H 0.8293 0.41547 0.76128 0.0
H1931 H 0.78709 0.46354 0.75587 0.0
H1932 H 0.92218 0.44054 0.8056 0.0
H1933 H 0.90917 0.41326 0.74733 0.0
H1934 H 0.82077 0.50477 0.6677 0.0
H1935 H 0.82292 0.44283 0.68953 0.0
Li1936 Li 0.76352 0.36255 0.49061 0.0
Li1937 Li 0.75436 0.38869 0.51552 0.0
Li1938 Li 0.72818 0.36297 0.50415 0.0
Li1939 Li 0.73924 0.39084 0.48203 0.0
C1940 C 0.75905 0.34161 0.52952 0.0
N1941 N 0.76874 0.30698 0.55112 0.0
C1942 C 0.77318 0.34249 0.54532 0.0
C1943 C 0.74961 0.32318 0.52493 0.0
C1944 C 0.77796 0.32479 0.55599 0.0
C1945 C 0.75477 0.30583 0.53596 0.0
C1946 C 0.78384 0.40566 0.49239 0.0
C1947 C 0.79552 0.43956 0.49969 0.0
N1948 N 0.81498 0.43267 0.50004 0.0
C1949 C 0.80396 0.39894 0.49265 0.0
C1950 C 0.77957 0.42616 0.49576 0.0
C1951 C 0.81949 0.41282 0.49661 0.0
C1952 C 0.78835 0.34572 0.46033 0.0
N1953 N 0.78556 0.34661 0.48075 0.0
C1954 C 0.8156 0.32703 0.48635 0.0
C1955 C 0.79878 0.33759 0.49377 0.0
C1956 C 0.81901 0.32595 0.46531 0.0
C1957 C 0.80502 0.33541 0.45225 0.0
H1958 H 0.77778 0.35335 0.45035 0.0
H1959 H 0.79655 0.33889 0.50993 0.0
C1960 C 0.75318 0.4137 0.55101 0.0
N1961 N 0.76516 0.40249 0.5385 0.0
C1962 C 0.76122 0.42209 0.5688 0.0
C1963 C 0.79381 0.40775 0.56005 0.0
C1964 C 0.7851 0.39942 0.54269 0.0
C1965 C 0.78179 0.41894 0.57367 0.0
H1966 H 0.73726 0.41563 0.54748 0.0
H1967 H 0.79416 0.39002 0.53277 0.0
C1968 C 0.73217 0.34514 0.46372 0.0
N1969 N 0.72179 0.31219 0.43994 0.0
C1970 C 0.7189 0.34756 0.44734 0.0
C1971 C 0.74034 0.326 0.46785 0.0
C1972 C 0.71378 0.3307 0.43555 0.0
C1973 C 0.73486 0.30953 0.45569 0.0
C1974 C 0.71054 0.40697 0.50597 0.0
C1975 C 0.6905 0.40096 0.50247 0.0
C1976 C 0.71541 0.4276 0.50641 0.0
C1977 C 0.67568 0.41575 0.49911 0.0
C1978 C 0.70015 0.44192 0.50297 0.0
N1979 N 0.68078 0.43575 0.4994 0.0
C1980 C 0.69926 0.35058 0.53245 0.0
C1981 C 0.69445 0.33539 0.50024 0.0
C1982 C 0.68178 0.34117 0.53991 0.0
N1983 N 0.70516 0.34765 0.51292 0.0
C1984 C 0.67696 0.32555 0.50709 0.0
C1985 C 0.67026 0.32852 0.52713 0.0
H1986 H 0.70794 0.36061 0.54213 0.0
H1987 H 0.69921 0.33338 0.48473 0.0
C1988 C 0.74231 0.42105 0.451 0.0
N1989 N 0.72977 0.40776 0.46058 0.0
C1990 C 0.73547 0.43189 0.43406 0.0
C1991 C 0.70285 0.41549 0.43756 0.0
C1992 C 0.71035 0.40491 0.45427 0.0
C1993 C 0.71555 0.42893 0.42693 0.0
H1994 H 0.75781 0.42278 0.45611 0.0
H1995 H 0.70082 0.39398 0.46193 0.0
O1996 O 0.75411 0.35884 0.51903 0.0
O1997 O 0.76844 0.39226 0.48872 0.0
O1998 O 0.73735 0.36153 0.47538 0.0
O1999 O 0.72529 0.39272 0.5091 0.0
H2000 H 0.78048 0.35665 0.54924 0.0
H2001 H 0.73827 0.32227 0.51313 0.0
H2002 H 0.78897 0.32523 0.56816 0.0
H2003 H 0.74761 0.29146 0.53253 0.0
H2004 H 0.79242 0.45545 0.50244 0.0
H2005 H 0.80754 0.38314 0.48997 0.0
H2006 H 0.7641 0.43162 0.49542 0.0
H2007 H 0.83512 0.40782 0.49698 0.0
H2008 H 0.82584 0.31984 0.49701 0.0
H2009 H 0.80718 0.33533 0.43596 0.0
H2010 H 0.75126 0.43035 0.57893 0.0
H2011 H 0.8098 0.40516 0.56287 0.0
H2012 H 0.71256 0.36227 0.4438 0.0
H2013 H 0.75092 0.32388 0.48019 0.0
H2014 H 0.70346 0.33234 0.42288 0.0
H2015 H 0.74106 0.29463 0.45875 0.0
H2016 H 0.68647 0.38504 0.50213 0.0
H2017 H 0.73079 0.43249 0.50935 0.0
H2018 H 0.66013 0.41132 0.49624 0.0
H2019 H 0.70371 0.45795 0.50315 0.0
H2020 H 0.67708 0.34421 0.55535 0.0
H2021 H 0.66877 0.31575 0.49675 0.0
H2022 H 0.74588 0.44189 0.42622 0.0
H2023 H 0.68731 0.41293 0.43285 0.0
Li2024 Li 0.63611 0.50382 0.22845 0.0
Li2025 Li 0.61042 0.51587 0.25147 0.0
Li2026 Li 0.63612 0.49082 0.26294 0.0
Li2027 Li 0.6093 0.48052 0.23894 0.0
C2028 C 0.64515 0.53924 0.25012 0.0
N2029 N 0.65428 0.57941 0.2423 0.0
C2030 C 0.63606 0.54926 0.23377 0.0
C2031 C 0.65886 0.54964 0.2625 0.0
C2032 C 0.64087 0.56957 0.23007 0.0
C2033 C 0.66329 0.56995 0.25829 0.0
C2034 C 0.58704 0.50897 0.21647 0.0
C2035 C 0.55096 0.50606 0.22185 0.0
N2036 N 0.54762 0.5147 0.2034 0.0
C2037 C 0.58326 0.51777 0.19754 0.0
C2038 C 0.57079 0.50302 0.22872 0.0
C2039 C 0.56322 0.52056 0.19122 0.0
C2040 C 0.64532 0.50578 0.18716 0.0
N2041 N 0.6525 0.51097 0.20578 0.0
C2042 C 0.68109 0.52759 0.19089 0.0
C2043 C 0.67022 0.52133 0.20798 0.0
C2044 C 0.6738 0.52282 0.17143 0.0
C2045 C 0.65583 0.5115 0.16968 0.0
H2046 H 0.6312 0.4975 0.18591 0.0
H2047 H 0.67573 0.52505 0.22298 0.0
C2048 C 0.59699 0.5439 0.2804 0.0
N2049 N 0.59548 0.53904 0.26042 0.0
C2050 C 0.58777 0.56147 0.28788 0.0
C2051 C 0.57543 0.56862 0.2541 0.0
C2052 C 0.58505 0.55104 0.24725 0.0
C2053 C 0.57683 0.57418 0.27466 0.0
H2054 H 0.60574 0.5343 0.29045 0.0
H2055 H 0.58452 0.54727 0.23132 0.0
C2056 C 0.65814 0.46872 0.23313 0.0
N2057 N 0.69714 0.45612 0.22435 0.0
C2058 C 0.66131 0.45139 0.22134 0.0
C2059 C 0.67477 0.47971 0.24039 0.0
C2060 C 0.68116 0.44524 0.2171 0.0
C2061 C 0.69438 0.47308 0.2358 0.0
C2062 C 0.59475 0.4835 0.28236 0.0
C2063 C 0.60108 0.46659 0.2935 0.0
C2064 C 0.57656 0.49318 0.28743 0.0
C2065 C 0.589 0.45953 0.30943 0.0
C2066 C 0.56491 0.48566 0.30347 0.0
N2067 N 0.57131 0.46912 0.31404 0.0
C2068 C 0.65234 0.49299 0.30273 0.0
C2069 C 0.6579 0.4618 0.2857 0.0
C2070 C 0.66093 0.48519 0.32053 0.0
N2071 N 0.65081 0.48117 0.28589 0.0
C2072 C 0.6667 0.45346 0.30305 0.0
C2073 C 0.66794 0.46502 0.32093 0.0
H2074 H 0.64626 0.50824 0.30253 0.0
H2075 H 0.6561 0.45255 0.27229 0.0
C2076 C 0.58691 0.45698 0.21095 0.0
N2077 N 0.59287 0.45814 0.23068 0.0
C2078 C 0.57577 0.44029 0.2041 0.0
C2079 C 0.57732 0.42616 0.23791 0.0
C2080 C 0.58836 0.44316 0.24412 0.0
C2081 C 0.57097 0.42451 0.21762 0.0
H2082 H 0.59113 0.46884 0.20043 0.0
H2083 H 0.59365 0.44417 0.25957 0.0
O2084 O 0.64061 0.5194 0.2542 0.0
O2085 O 0.60662 0.50622 0.22281 0.0
O2086 O 0.6388 0.47508 0.23718 0.0
O2087 O 0.60655 0.49093 0.26695 0.0
H2088 H 0.62541 0.54147 0.224 0.0
H2089 H 0.66599 0.54209 0.27524 0.0
H2090 H 0.63395 0.5775 0.21747 0.0
H2091 H 0.67388 0.5782 0.26775 0.0
H2092 H 0.53824 0.50152 0.23117 0.0
H2093 H 0.59571 0.52243 0.18788 0.0
H2094 H 0.57342 0.49602 0.24329 0.0
H2095 H 0.56006 0.52739 0.17662 0.0
H2096 H 0.695 0.53613 0.19285 0.0
H2097 H 0.64963 0.50768 0.15494 0.0
H2098 H 0.58966 0.56528 0.30375 0.0
H2099 H 0.56704 0.57779 0.24334 0.0
H2100 H 0.64856 0.4428 0.21554 0.0
H2101 H 0.67259 0.49324 0.24942 0.0
H2102 H 0.68386 0.43184 0.20801 0.0
H2103 H 0.70739 0.48142 0.24131 0.0
H2104 H 0.61504 0.45885 0.28977 0.0
H2105 H 0.57149 0.5064 0.27911 0.0
H2106 H 0.59368 0.4464 0.31811 0.0
H2107 H 0.55079 0.49299 0.30753 0.0
H2108 H 0.66134 0.49457 0.33401 0.0
H2109 H 0.67213 0.43796 0.30253 0.0
H2110 H 0.57151 0.43948 0.18825 0.0
H2111 H 0.57389 0.41439 0.24886 0.0
H2112 H 0.04795 0.41765 0.30714 0.0
H2113 H 0.08295 0.38571 0.26194 0.0
H2114 H 0.06873 0.35346 0.27338 0.0
H2115 H 0.04768 0.33415 0.29735 0.0
H2116 H 0.01351 0.36603 0.34322 0.0
H2117 H 0.02596 0.39844 0.33032 0.0
C2118 C 0.05246 0.40362 0.29981 0.0
C2119 C 0.06652 0.40409 0.28376 0.0
C2120 C 0.04439 0.3851 0.30659 0.0
C2121 C 0.07198 0.38581 0.27419 0.0
C2122 C 0.06397 0.36734 0.28081 0.0
C2123 C 0.04297 0.34819 0.30452 0.0
C2124 C 0.02973 0.34764 0.32126 0.0
C2125 C 0.05037 0.36678 0.29717 0.0
C2126 C 0.02351 0.366 0.33018 0.0
C2127 C 0.03074 0.38455 0.32291 0.0
H2128 H 0.88788 0.77078 0.57693 0.0
H2129 H 0.92713 0.81361 0.54668 0.0
H2130 H 0.89793 0.82845 0.52934 0.0
H2131 H 0.8611 0.83023 0.52388 0.0
H2132 H 0.82191 0.78707 0.55373 0.0
H2133 H 0.85127 0.7713 0.56996 0.0
C2134 C 0.89011 0.78315 0.56631 0.0
C2135 C 0.90969 0.79112 0.56322 0.0
C2136 C 0.87325 0.79161 0.55636 0.0
C2137 C 0.91221 0.80738 0.54961 0.0
C2138 C 0.89553 0.81581 0.53959 0.0
C2139 C 0.859 0.81716 0.53366 0.0
C2140 C 0.83931 0.80991 0.53763 0.0
C2141 C 0.87595 0.80819 0.54301 0.0
C2142 C 0.83687 0.79314 0.55061 0.0
C2143 C 0.85366 0.78406 0.55986 0.0
H2144 H 0.42609 0.61406 0.76888 0.0
H2145 H 0.4577 0.57528 0.81113 0.0
H2146 H 0.47351 0.6049 0.82687 0.0
H2147 H 0.47713 0.64188 0.82961 0.0
H2148 H 0.44536 0.68072 0.78755 0.0
H2149 H 0.43088 0.65102 0.7707 0.0
C2150 C 0.43668 0.61209 0.78133 0.0
C2151 C 0.44069 0.59251 0.78885 0.0
C2152 C 0.44558 0.62919 0.79042 0.0
C2153 C 0.45419 0.59021 0.80521 0.0
C2154 C 0.46328 0.60713 0.81418 0.0
C2155 C 0.46729 0.64383 0.81656 0.0
C2156 C 0.46232 0.66348 0.80986 0.0
C2157 C 0.45891 0.6267 0.80705 0.0
C2158 C 0.44925 0.66576 0.79314 0.0
C2159 C 0.44102 0.64879 0.78346 0.0
H2160 H 0.58904 0.21474 0.04459 0.0
H2161 H 0.61455 0.22618 0.10385 0.0
H2162 H 0.64777 0.21506 0.09199 0.0
H2163 H 0.6693 0.20057 0.06535 0.0
H2164 H 0.64365 0.18767 0.00648 0.0
H2165 H 0.61092 0.20107 0.01756 0.0
C2166 C 0.60187 0.21476 0.05491 0.0
C2167 C 0.59926 0.22131 0.07508 0.0
C2168 C 0.62095 0.20811 0.04806 0.0
C2169 C 0.61613 0.2215 0.08817 0.0
C2170 C 0.63514 0.21501 0.08145 0.0
C2171 C 0.65654 0.20066 0.05495 0.0
C2172 C 0.65895 0.19304 0.03515 0.0
C2173 C 0.63767 0.20807 0.06151 0.0
C2174 C 0.64233 0.19364 0.02174 0.0
C2175 C 0.62354 0.20114 0.02812 0.0
H2176 H 0.04654 0.58444 0.21412 0.0
H2177 H 0.10675 0.59839 0.19221 0.0
H2178 H 0.09464 0.63054 0.1787 0.0
H2179 H 0.06718 0.6548 0.17312 0.0
H2180 H 0.00732 0.64213 0.1965 0.0
H2181 H 0.01912 0.60942 0.20943 0.0
C2182 C 0.05707 0.59458 0.20655 0.0
C2183 C 0.07751 0.58883 0.20409 0.0
C2184 C 0.05009 0.61331 0.19907 0.0
C2185 C 0.09084 0.60212 0.19398 0.0
C2186 C 0.08398 0.62065 0.18638 0.0
C2187 C 0.05675 0.64505 0.18131 0.0
C2188 C 0.03641 0.65101 0.1839 0.0
C2189 C 0.06367 0.6264 0.18887 0.0
C2190 C 0.02301 0.63788 0.19411 0.0
C2191 C 0.02978 0.61921 0.2016 0.0
H2192 H 0.58638 0.81172 0.4321 0.0
H2193 H 0.60698 0.75013 0.44025 0.0
H2194 H 0.63862 0.76248 0.4553 0.0
H2195 H 0.66051 0.79087 0.46589 0.0
H2196 H 0.63997 0.85241 0.45659 0.0
H2197 H 0.60807 0.83995 0.4427 0.0
C2198 C 0.59768 0.80099 0.43741 0.0
C2199 C 0.59432 0.78005 0.43513 0.0
C2200 C 0.61584 0.80819 0.4459 0.0
C2201 C 0.60929 0.76634 0.44172 0.0
C2202 C 0.62734 0.77339 0.45037 0.0
C2203 C 0.64911 0.80156 0.4607 0.0
C2204 C 0.65266 0.82256 0.46242 0.0
C2205 C 0.63084 0.79429 0.45242 0.0
C2206 C 0.63757 0.83617 0.45583 0.0
C2207 C 0.61934 0.82907 0.44773 0.0
H2208 H 0.48516 0.35482 0.69381 0.0
H2209 H 0.42641 0.32834 0.68211 0.0
H2210 H 0.40981 0.35855 0.69561 0.0
H2211 H 0.4119 0.39295 0.70931 0.0
H2212 H 0.47051 0.41944 0.72186 0.0
H2213 H 0.48722 0.38896 0.70898 0.0
C2214 C 0.46873 0.3557 0.69422 0.0
C2215 C 0.45705 0.33934 0.687 0.0
C2216 C 0.45925 0.37317 0.70196 0.0
C2217 C 0.43576 0.3406 0.68782 0.0
C2218 C 0.42625 0.35793 0.69541 0.0
C2219 C 0.42833 0.39198 0.70958 0.0
C2220 C 0.43989 0.40855 0.71655 0.0
C2221 C 0.43784 0.37434 0.70239 0.0
C2222 C 0.4612 0.40708 0.71633 0.0
C2223 C 0.47078 0.3896 0.70908 0.0
H2224 H 0.90988 0.18774 0.92207 0.0
H2225 H 0.90037 0.24703 0.94819 0.0
H2226 H 0.86845 0.23548 0.9632 0.0
H2227 H 0.84303 0.20852 0.96863 0.0
H2228 H 0.85342 0.14909 0.94308 0.0
H2229 H 0.88522 0.16072 0.92825 0.0
C2230 C 0.901 0.19808 0.93129 0.0
C2231 C 0.90759 0.2182 0.93404 0.0
C2232 C 0.88273 0.19134 0.93992 0.0
C2233 C 0.89559 0.23151 0.94565 0.0
C2234 C 0.87737 0.22489 0.95433 0.0
C2235 C 0.85234 0.19807 0.95997 0.0
C2236 C 0.84571 0.17799 0.95686 0.0
C2237 C 0.87076 0.20484 0.95153 0.0
C2238 C 0.85791 0.16473 0.94541 0.0
C2239 C 0.8762 0.17132 0.93702 0.0
H2240 H 0.29362 0.04093 0.41542 0.0
H2241 H 0.26182 0.08957 0.38516 0.0
H2242 H 0.27306 0.07678 0.35229 0.0
H2243 H 0.29336 0.05286 0.33217 0.0
H2244 H 0.32646 0.00517 0.36254 0.0
H2245 H 0.3132 0.01646 0.39521 0.0
C2246 C 0.28918 0.04876 0.40164 0.0
C2247 C 0.27691 0.06622 0.40282 0.0
C2248 C 0.29594 0.04151 0.38275 0.0
C2249 C 0.27102 0.07596 0.38475 0.0
C2250 C 0.27758 0.06875 0.36592 0.0
C2251 C 0.2977 0.04495 0.34594 0.0
C2252 C 0.31092 0.0282 0.34485 0.0
C2253 C 0.29026 0.0517 0.36475 0.0
C2254 C 0.31611 0.01793 0.36284 0.0
C2255 C 0.30866 0.02448 0.38159 0.0
H2256 H 0.18721 0.06419 0.66434 0.0
H2257 H 0.18693 0.003 0.64114 0.0
H2258 H 0.20261 0.01466 0.60956 0.0
H2259 H 0.21595 0.04239 0.58838 0.0
H2260 H 0.21472 0.10377 0.61134 0.0
H2261 H 0.20061 0.09179 0.6433 0.0
C2262 C 0.19082 0.05337 0.65247 0.0
C2263 C 0.18595 0.03276 0.65509 0.0
C2264 C 0.19964 0.06021 0.63431 0.0
C2265 C 0.19039 0.01897 0.63942 0.0
C2266 C 0.19941 0.02563 0.62139 0.0
C2267 C 0.21248 0.05318 0.60031 0.0
C2268 C 0.21654 0.07397 0.59737 0.0
C2269 C 0.20395 0.04624 0.6186 0.0
C2270 C 0.21217 0.08765 0.6132 0.0
C2271 C 0.20392 0.08084 0.63148 0.0
H2272 H 0.16835 0.93375 0.84135 0.0
H2273 H 0.19761 0.99187 0.84896 0.0
H2274 H 0.21256 0.98036 0.88085 0.0
H2275 H 0.21708 0.95387 0.90679 0.0
H2276 H 0.1893 0.89517 0.89789 0.0
H2277 H 0.17408 0.9069 0.86634 0.0
C2278 C 0.17824 0.94384 0.84978 0.0
C2279 C 0.18179 0.96368 0.84268 0.0
C2280 C 0.18698 0.93707 0.868 0.0
C2281 C 0.19434 0.97662 0.85414 0.0
C2282 C 0.20301 0.97002 0.87235 0.0
C2283 C 0.20788 0.94355 0.89787 0.0
C2284 C 0.20424 0.9237 0.90493 0.0
C2285 C 0.19939 0.95028 0.87947 0.0
C2286 C 0.19204 0.91067 0.89318 0.0
C2287 C 0.18344 0.9173 0.87499 0.0
H2288 H 0.31417 0.91526 0.09335 0.0
H2289 H 0.26007 0.95211 0.09651 0.0
H2290 H 0.27074 0.96515 0.12954 0.0
H2291 H 0.29552 0.96617 0.15748 0.0
H2292 H 0.35079 0.9312 0.15264 0.0
H2293 H 0.33948 0.91741 0.12034 0.0
C2294 C 0.30482 0.92642 0.10103 0.0
C2295 C 0.28635 0.93272 0.0923 0.0
C2296 C 0.31119 0.93412 0.11984 0.0
C2297 C 0.27425 0.94678 0.10289 0.0
C2298 C 0.2804 0.95435 0.12175 0.0
C2299 C 0.30522 0.9557 0.1493 0.0
C2300 C 0.32394 0.94966 0.15775 0.0
C2301 C 0.29886 0.94813 0.13038 0.0
C2302 C 0.3361 0.93582 0.14691 0.0
C2303 C 0.32974 0.92804 0.12827 0.0
H2304 H 0.33466 0.30806 0.06706 0.0
H2305 H 0.36004 0.31065 0.00672 0.0
H2306 H 0.39137 0.29516 0.01903 0.0
H2307 H 0.41215 0.28217 0.04722 0.0
H2308 H 0.3872 0.28136 0.10781 0.0
H2309 H 0.35522 0.29487 0.09508 0.0
C2310 C 0.34707 0.30534 0.0566 0.0
C2311 C 0.34495 0.3106 0.036 0.0
C2312 C 0.36519 0.29676 0.06383 0.0
C2313 C 0.36109 0.30655 0.02261 0.0
C2314 C 0.37911 0.29783 0.02966 0.0
C2315 C 0.39976 0.28504 0.05766 0.0
C2316 C 0.40214 0.2807 0.07845 0.0
C2317 C 0.38142 0.2931 0.05029 0.0
C2318 C 0.38576 0.28424 0.09169 0.0
C2319 C 0.36747 0.29212 0.08445 0.0
H2320 H 0.93897 0.8422 0.17137 0.0
H2321 H 0.99344 0.84583 0.20756 0.0
H2322 H 0.98187 0.87799 0.22203 0.0
H2323 H 0.95636 0.90529 0.22408 0.0
H2324 H 0.90148 0.90065 0.18855 0.0
H2325 H 0.91316 0.86866 0.17421 0.0
C2326 C 0.9482 0.84984 0.18265 0.0
C2327 C 0.96701 0.84155 0.18841 0.0
C2328 C 0.94144 0.86823 0.19095 0.0
C2329 C 0.97897 0.85195 0.20271 0.0
C2330 C 0.97233 0.8703 0.21106 0.0
C2331 C 0.94688 0.89719 0.21334 0.0
C2332 C 0.92815 0.90551 0.20729 0.0
C2333 C 0.9536 0.87862 0.20524 0.0
C2334 C 0.91615 0.89486 0.19318 0.0
C2335 C 0.92274 0.87646 0.18507 0.0
H2336 H 0.14334 0.69257 0.51532 0.0
H2337 H 0.17151 0.6817 0.57344 0.0
H2338 H 0.14239 0.69673 0.59067 0.0
H2339 H 0.10844 0.71162 0.58936 0.0
H2340 H 0.08029 0.72337 0.53136 0.0
H2341 H 0.10969 0.70893 0.514 0.0
C2342 C 0.14305 0.69349 0.53175 0.0
C2343 C 0.15957 0.68605 0.54307 0.0
C2344 C 0.12622 0.70214 0.5416 0.0
C2345 C 0.15911 0.68754 0.56435 0.0
C2346 C 0.14241 0.69602 0.57423 0.0
C2347 C 0.10882 0.71138 0.57291 0.0
C2348 C 0.0921 0.71859 0.56173 0.0
C2349 C 0.12584 0.70327 0.56302 0.0
C2350 C 0.09279 0.71769 0.5404 0.0
C2351 C 0.10965 0.70953 0.53044 0.0
H2352 H 0.9422 0.66752 0.69822 0.0
H2353 H 0.98447 0.63489 0.66028 0.0
H2354 H 0.97195 0.6027 0.67361 0.0
H2355 H 0.94864 0.58369 0.69565 0.0
H2356 H 0.90548 0.6163 0.73259 0.0
H2357 H 0.91874 0.64851 0.72009 0.0
C2358 C 0.94859 0.65337 0.69276 0.0
C2359 C 0.96431 0.6537 0.67829 0.0
C2360 C 0.94119 0.63485 0.70035 0.0
C2361 C 0.97259 0.63517 0.67163 0.0
C2362 C 0.96534 0.61671 0.67914 0.0
C2363 C 0.94204 0.59783 0.70087 0.0
C2364 C 0.92611 0.59749 0.71511 0.0
C2365 C 0.94959 0.61636 0.69345 0.0
C2366 C 0.91796 0.61604 0.72191 0.0
C2367 C 0.92544 0.6345 0.71464 0.0
H2368 H 0.16814 0.19444 0.43785 0.0
H2369 H 0.14026 0.17506 0.4939 0.0
H2370 H 0.10797 0.18953 0.48309 0.0
H2371 H 0.08733 0.207 0.45738 0.0
H2372 H 0.11482 0.22439 0.40048 0.0
H2373 H 0.14745 0.2114 0.412 0.0
C2374 C 0.15498 0.19322 0.44766 0.0
C2375 C 0.15674 0.18367 0.46669 0.0
C2376 C 0.13631 0.20126 0.44121 0.0
C2377 C 0.13953 0.18259 0.47931 0.0
C2378 C 0.12097 0.19073 0.47307 0.0
C2379 C 0.10041 0.20782 0.44742 0.0
C2380 C 0.09853 0.21678 0.42811 0.0
C2381 C 0.11914 0.19999 0.454 0.0
C2382 C 0.11579 0.21795 0.41557 0.0
C2383 C 0.13448 0.21036 0.42208 0.0
H2384 H 0.57946 0.38517 0.2267 0.0
H2385 H 0.5383 0.42252 0.19206 0.0
H2386 H 0.52159 0.39217 0.1788 0.0
H2387 H 0.51955 0.355 0.17604 0.0
H2388 H 0.56086 0.31774 0.21058 0.0
H2389 H 0.57652 0.34809 0.22504 0.0
C2390 C 0.56664 0.38668 0.21649 0.0
C2391 C 0.56015 0.40609 0.21038 0.0
C2392 C 0.55717 0.36919 0.20887 0.0
C2393 C 0.54374 0.40776 0.19683 0.0
C2394 C 0.53412 0.39042 0.18931 0.0
C2395 C 0.53177 0.35353 0.18698 0.0
C2396 C 0.53903 0.33416 0.19224 0.0
C2397 C 0.54082 0.37105 0.19509 0.0
C2398 C 0.55512 0.3325 0.20616 0.0
C2399 C 0.56405 0.34983 0.21446 0.0
H2400 H 0.35967 0.81645 0.982 0.0
H2401 H 0.3279 0.81263 0.92488 0.0
H2402 H 0.35741 0.79651 0.90925 0.0
H2403 H 0.3926 0.78472 0.91144 0.0
H2404 H 0.42488 0.78906 0.96823 0.0
H2405 H 0.39484 0.8038 0.98439 0.0
C2406 C 0.35917 0.81185 0.9662 0.0
C2407 C 0.34166 0.81573 0.95459 0.0
C2408 C 0.3763 0.80281 0.95724 0.0
C2409 C 0.34128 0.80997 0.93406 0.0
C2410 C 0.35811 0.80071 0.92514 0.0
C2411 C 0.39297 0.78862 0.92743 0.0
C2412 C 0.41091 0.78572 0.93864 0.0
C2413 C 0.37575 0.79723 0.93653 0.0
C2414 C 0.41129 0.79126 0.95924 0.0
C2415 C 0.39411 0.79962 0.96849 0.0
H2416 H 0.95092 0.41795 0.80061 0.0
H2417 H 0.90206 0.38614 0.77072 0.0
H2418 H 0.91518 0.35384 0.78314 0.0
H2419 H 0.94009 0.33457 0.80306 0.0
H2420 H 0.98822 0.36644 0.83404 0.0
H2421 H 0.97585 0.39865 0.82059 0.0
C2422 C 0.94307 0.40397 0.7969 0.0
C2423 C 0.92554 0.40455 0.78469 0.0
C2424 C 0.95058 0.3854 0.80427 0.0
C2425 C 0.91576 0.38619 0.77982 0.0
C2426 C 0.92316 0.36769 0.78704 0.0
C2427 C 0.94781 0.34857 0.80698 0.0
C2428 C 0.96508 0.34801 0.81955 0.0
C2429 C 0.9405 0.36711 0.79936 0.0
C2430 C 0.97507 0.36632 0.82418 0.0
C2431 C 0.96792 0.3848 0.81661 0.0
H2432 H 0.33851 0.17938 0.56359 0.0
H2433 H 0.35896 0.18685 0.50186 0.0
H2434 H 0.39009 0.20315 0.51394 0.0
H2435 H 0.41186 0.21464 0.54225 0.0
H2436 H 0.39111 0.20661 0.60385 0.0
H2437 H 0.35983 0.19114 0.59162 0.0
C2438 C 0.34984 0.18446 0.55277 0.0
C2439 C 0.34647 0.18179 0.53187 0.0
C2440 C 0.36767 0.19374 0.55981 0.0
C2441 C 0.36112 0.18885 0.51803 0.0
C2442 C 0.37897 0.19806 0.52493 0.0
C2443 C 0.4005 0.20943 0.55296 0.0
C2444 C 0.40381 0.21187 0.57393 0.0
C2445 C 0.38247 0.20048 0.54581 0.0
C2446 C 0.38885 0.20522 0.58763 0.0
C2447 C 0.37099 0.19625 0.58066 0.0
H2448 H 0.54207 0.66159 0.29412 0.0
H2449 H 0.52849 0.63225 0.35116 0.0
H2450 H 0.54196 0.60039 0.33824 0.0
H2451 H 0.55823 0.58089 0.31109 0.0
H2452 H 0.57436 0.61083 0.25506 0.0
H2453 H 0.55927 0.6423 0.26729 0.0
C2454 C 0.5422 0.6483 0.30383 0.0
C2455 C 0.53412 0.64944 0.32358 0.0
C2456 C 0.55043 0.63004 0.29648 0.0
C2457 C 0.53418 0.63186 0.33575 0.0
C2458 C 0.54207 0.61361 0.32844 0.0
C2459 C 0.55867 0.59432 0.3016 0.0
C2460 C 0.56742 0.59335 0.28213 0.0
C2461 C 0.55034 0.61255 0.30888 0.0
C2462 C 0.56744 0.61092 0.26996 0.0
C2463 C 0.55894 0.62902 0.27701 0.0
H2464 H 0.093 0.78565 0.04849 0.0
H2465 H 0.11631 0.78464 0.10971 0.0
H2466 H 0.14851 0.79858 0.09797 0.0
H2467 H 0.16986 0.8118 0.0705 0.0
H2468 H 0.14632 0.8139 0.00942 0.0
H2469 H 0.11452 0.79874 0.0209 0.0
C2470 C 0.10509 0.78858 0.05927 0.0
C2471 C 0.10221 0.78405 0.07994 0.0
C2472 C 0.12358 0.79677 0.05244 0.0
C2473 C 0.11817 0.78769 0.09367 0.0
C2474 C 0.13657 0.7958 0.08699 0.0
C2475 C 0.15774 0.80904 0.05971 0.0
C2476 C 0.16051 0.81401 0.03913 0.0
C2477 C 0.13941 0.80049 0.06644 0.0
C2478 C 0.14473 0.81 0.0253 0.0
C2479 C 0.12647 0.80145 0.03188 0.0
H2480 H 0.73042 0.95187 0.59629 0.0
H2481 H 0.68542 0.9043 0.5936 0.0
H2482 H 0.67037 0.9164 0.62511 0.0
H2483 H 0.66984 0.94039 0.65341 0.0
H2484 H 0.71521 0.98745 0.65699 0.0
H2485 H 0.7303 0.97558 0.62521 0.0
C2486 C 0.71742 0.94406 0.60267 0.0
C2487 C 0.70901 0.92728 0.59245 0.0
C2488 C 0.70891 0.95097 0.62098 0.0
C2489 C 0.692 0.91749 0.60087 0.0
C2490 C 0.68345 0.92429 0.619 0.0
C2491 C 0.6832 0.94789 0.6474 0.0
C2492 C 0.69143 0.96472 0.65763 0.0
C2493 C 0.69178 0.94099 0.62919 0.0
C2494 C 0.70848 0.97455 0.64935 0.0
C2495 C 0.71715 0.96773 0.63122 0.0
H2496 H 0.79933 0.95106 0.33432 0.0
H2497 H 0.84999 0.97847 0.36552 0.0
H2498 H 0.83767 0.96511 0.39778 0.0
H2499 H 0.81286 0.94508 0.41714 0.0
H2500 H 0.7628 0.9168 0.38575 0.0
H2501 H 0.77454 0.93104 0.35365 0.0
C2502 C 0.80774 0.95402 0.34816 0.0
C2503 C 0.82554 0.96579 0.34745 0.0
C2504 C 0.80068 0.94613 0.36667 0.0
C2505 C 0.83608 0.96971 0.36561 0.0
C2506 C 0.82913 0.96196 0.38408 0.0
C2507 C 0.80459 0.94194 0.40325 0.0
C2508 C 0.78695 0.92992 0.4039 0.0
C2509 C 0.8115 0.95006 0.38478 0.0
C2510 C 0.77626 0.92623 0.38578 0.0
C2511 C 0.78303 0.93426 0.36737 0.0
H2512 H 0.80633 0.05553 0.08496 0.0
H2513 H 0.76327 0.09261 0.11755 0.0
H2514 H 0.77542 0.07885 0.14971 0.0
H2515 H 0.79882 0.05685 0.16871 0.0
H2516 H 0.84296 0.02108 0.13608 0.0
H2517 H 0.82984 0.03377 0.10392 0.0
C2518 C 0.79969 0.06073 0.09909 0.0
C2519 C 0.78388 0.07509 0.09876 0.0
C2520 C 0.80693 0.05296 0.11758 0.0
C2521 C 0.77524 0.08136 0.11726 0.0
C2522 C 0.78229 0.07361 0.13571 0.0
C2523 C 0.80566 0.05192 0.15458 0.0
C2524 C 0.82182 0.03795 0.1549 0.0
C2525 C 0.79821 0.05949 0.13607 0.0
C2526 C 0.83029 0.03154 0.13636 0.0
C2527 C 0.82289 0.03891 0.11792 0.0
H2528 H 0.66474 0.06142 0.84931 0.0
H2529 H 0.70885 0.01312 0.84654 0.0
H2530 H 0.72412 0.02494 0.87824 0.0
H2531 H 0.72496 0.04913 0.90672 0.0
H2532 H 0.68106 0.09771 0.90893 0.0
H2533 H 0.66566 0.08559 0.87754 0.0
C2534 C 0.67783 0.0536 0.85553 0.0
C2535 C 0.6857 0.03647 0.84552 0.0
C2536 C 0.6865 0.06046 0.87373 0.0
C2537 C 0.70241 0.02626 0.85401 0.0
C2538 C 0.71119 0.03305 0.8721 0.0
C2539 C 0.71209 0.05712 0.90027 0.0
C2540 C 0.70414 0.07425 0.91025 0.0
C2541 C 0.70336 0.05015 0.88209 0.0
C2542 C 0.68729 0.08429 0.90179 0.0
C2543 C 0.67856 0.07746 0.88374 0.0
H2544 H 0.59016 0.7157 0.95577 0.0
H2545 H 0.61329 0.7139 0.89454 0.0
H2546 H 0.64544 0.7002 0.90679 0.0
H2547 H 0.66683 0.68814 0.93476 0.0
H2548 H 0.64396 0.68977 0.99607 0.0
H2549 H 0.61197 0.70425 0.98399 0.0
C2550 C 0.60223 0.71223 0.94514 0.0
C2551 C 0.59934 0.71582 0.92429 0.0
C2552 C 0.62075 0.70438 0.9523 0.0
C2553 C 0.61521 0.71149 0.9107 0.0
C2554 C 0.63357 0.70356 0.91767 0.0
C2555 C 0.65481 0.6916 0.94546 0.0
C2556 C 0.65774 0.68781 0.96626 0.0
C2557 C 0.63648 0.69987 0.93841 0.0
C2558 C 0.64215 0.6927 0.97999 0.0
C2559 C 0.62381 0.70086 0.97308 0.0
H2560 H 0.04468 0.09371 0.78272 0.0
H2561 H 0.10673 0.10836 0.79778 0.0
H2562 H 0.09587 0.14058 0.81235 0.0
H2563 H 0.06882 0.16442 0.82132 0.0
H2564 H 0.00665 0.14992 0.80673 0.0
H2565 H 0.01755 0.11816 0.79097 0.0
C2566 C 0.05583 0.10404 0.78901 0.0
C2567 C 0.07647 0.09849 0.78932 0.0
C2568 C 0.04949 0.12265 0.79736 0.0
C2569 C 0.09071 0.11203 0.79769 0.0
C2570 C 0.08453 0.13054 0.80591 0.0
C2571 C 0.05762 0.15427 0.8148 0.0
C2572 C 0.03694 0.15956 0.81531 0.0
C2573 C 0.06396 0.13593 0.806 0.0
C2574 C 0.0227 0.14638 0.80639 0.0
C2575 C 0.0289 0.12812 0.7975 0.0
H2576 H 0.8884 0.27993 0.41773 0.0
H2577 H 0.92402 0.30208 0.46807 0.0
H2578 H 0.89382 0.31782 0.48269 0.0
H2579 H 0.85749 0.32599 0.48074 0.0
H2580 H 0.82169 0.30239 0.43117 0.0
H2581 H 0.85183 0.28646 0.41676 0.0
C2582 C 0.88955 0.28787 0.43209 0.0
C2583 C 0.90854 0.28978 0.44175 0.0
C2584 C 0.8721 0.29674 0.44051 0.0
C2585 C 0.90971 0.30057 0.46014 0.0
C2586 C 0.89241 0.3095 0.46857 0.0
C2587 C 0.85617 0.3171 0.46696 0.0
C2588 C 0.83728 0.31551 0.45705 0.0
C2589 C 0.87355 0.30778 0.45883 0.0
C2590 C 0.83604 0.3042 0.43898 0.0
C2591 C 0.85326 0.29496 0.43077 0.0
H2592 H 0.55527 0.92027 0.80904 0.0
H2593 H 0.57816 0.89021 0.75557 0.0
H2594 H 0.56322 0.85821 0.76688 0.0
H2595 H 0.54523 0.83837 0.79289 0.0
H2596 H 0.523 0.86837 0.84668 0.0
H2597 H 0.53602 0.90076 0.8343 0.0
C2598 C 0.55698 0.9067 0.79987 0.0
C2599 C 0.5679 0.9076 0.78155 0.0
C2600 C 0.5485 0.88833 0.80655 0.0
C2601 C 0.56968 0.88998 0.76965 0.0
C2602 C 0.56127 0.87164 0.77618 0.0
C2603 C 0.54324 0.85201 0.80188 0.0
C2604 C 0.53323 0.85093 0.82071 0.0
C2605 C 0.5509 0.87058 0.79474 0.0
C2606 C 0.53048 0.8688 0.83205 0.0
C2607 C 0.53804 0.88731 0.82504 0.0
H2608 H 0.97821 0.15349 0.30305 0.0
H2609 H 0.92945 0.15837 0.34657 0.0
H2610 H 0.91442 0.12721 0.33362 0.0
H2611 H 0.91496 0.09862 0.31009 0.0
H2612 H 0.96419 0.09252 0.26734 0.0
H2613 H 0.97915 0.12413 0.27982 0.0
C2614 C 0.96438 0.14765 0.30979 0.0
C2615 C 0.95492 0.15841 0.32566 0.0
C2616 C 0.95588 0.12952 0.30242 0.0
C2617 C 0.93687 0.15069 0.33408 0.0
C2618 C 0.92832 0.13276 0.32679 0.0
C2619 C 0.92913 0.10401 0.30367 0.0
C2620 C 0.93849 0.09311 0.28788 0.0
C2621 C 0.93769 0.12206 0.311 0.0
C2622 C 0.95657 0.10067 0.2794 0.0
C2623 C 0.96518 0.1187 0.2866 0.0
H2624 H 0.56501 0.10513 0.73264 0.0
H2625 H 0.56852 0.07541 0.67436 0.0
H2626 H 0.55197 0.10439 0.65831 0.0
H2627 H 0.53789 0.13868 0.66052 0.0
H2628 H 0.53364 0.16834 0.71876 0.0
H2629 H 0.54911 0.13885 0.73512 0.0
C2630 C 0.56189 0.10487 0.71648 0.0
C2631 C 0.56814 0.08818 0.70471 0.0
C2632 C 0.55236 0.12162 0.70731 0.0
C2633 C 0.56418 0.08821 0.68373 0.0
C2634 C 0.55463 0.10473 0.67454 0.0
C2635 C 0.54001 0.13859 0.67685 0.0
C2636 C 0.53462 0.15574 0.68837 0.0
C2637 C 0.54886 0.1216 0.68614 0.0
C2638 C 0.53788 0.15546 0.70947 0.0
C2639 C 0.54664 0.13856 0.71885 0.0
H2640 H 0.15983 0.29797 0.9699 0.0
H2641 H 0.15674 0.35224 0.93331 0.0
H2642 H 0.12492 0.34074 0.91844 0.0
H2643 H 0.0981 0.3153 0.9155 0.0
H2644 H 0.10024 0.26136 0.95258 0.0
H2645 H 0.13227 0.2727 0.96754 0.0
C2646 C 0.1521 0.30734 0.9588 0.0
C2647 C 0.1608 0.32588 0.95265 0.0
C2648 C 0.13364 0.3007 0.95035 0.0
C2649 C 0.15065 0.33774 0.93807 0.0
C2650 C 0.13235 0.33125 0.92964 0.0
C2651 C 0.1054 0.30612 0.92706 0.0
C2652 C 0.0967 0.28754 0.93295 0.0
C2653 C 0.12373 0.31276 0.93563 0.0
C2654 C 0.10667 0.27565 0.94762 0.0
C2655 C 0.12495 0.28217 0.95625 0.0
H2656 H 0.38903 0.71333 0.41128 0.0
H2657 H 0.42042 0.71567 0.46873 0.0
H2658 H 0.39057 0.70177 0.4858 0.0
H2659 H 0.35572 0.68835 0.48428 0.0
H2660 H 0.32462 0.68604 0.42666 0.0
H2661 H 0.35398 0.70111 0.40992 0.0
C2662 C 0.38926 0.71113 0.42759 0.0
C2663 C 0.40698 0.71554 0.43868 0.0
C2664 C 0.37205 0.7032 0.43731 0.0
C2665 C 0.40709 0.71218 0.45976 0.0
C2666 C 0.38999 0.70432 0.46956 0.0
C2667 C 0.3554 0.69111 0.46805 0.0
C2668 C 0.33797 0.68608 0.45676 0.0
C2669 C 0.37244 0.69961 0.45845 0.0
C2670 C 0.3377 0.69001 0.43578 0.0
C2671 C 0.35456 0.69849 0.42616 0.0
H2672 H 0.83922 0.55527 0.85478 0.0
H2673 H 0.78241 0.52836 0.83641 0.0
H2674 H 0.76615 0.54126 0.86718 0.0
H2675 H 0.76805 0.56051 0.89922 0.0
H2676 H 0.82484 0.58808 0.91678 0.0
H2677 H 0.84106 0.57463 0.8864 0.0
C2678 C 0.82322 0.5524 0.85737 0.0
C2679 C 0.81205 0.54095 0.84323 0.0
C2680 C 0.81396 0.55994 0.875 0.0
C2681 C 0.79143 0.53699 0.84711 0.0
C2682 C 0.78209 0.54445 0.86465 0.0
C2683 C 0.78394 0.56367 0.89633 0.0
C2684 C 0.7952 0.57522 0.91035 0.0
C2685 C 0.7932 0.55599 0.87869 0.0
C2686 C 0.81586 0.57896 0.90646 0.0
C2687 C 0.82514 0.57139 0.889 0.0
H2688 H 0.68719 0.56103 0.16439 0.0
H2689 H 0.68357 0.50167 0.13712 0.0
H2690 H 0.69941 0.51469 0.10613 0.0
H2691 H 0.71371 0.54314 0.08664 0.0
H2692 H 0.71526 0.60292 0.11353 0.0
H2693 H 0.70133 0.5894 0.14493 0.0
C2694 C 0.69011 0.5509 0.15174 0.0
C2695 C 0.6843 0.53042 0.15303 0.0
C2696 C 0.69892 0.55855 0.13392 0.0
C2697 C 0.68782 0.51753 0.13641 0.0
C2698 C 0.69691 0.52496 0.11873 0.0
C2699 C 0.71087 0.55327 0.09929 0.0
C2700 C 0.71569 0.57404 0.09762 0.0
C2701 C 0.70235 0.5455 0.11724 0.0
C2702 C 0.71215 0.58681 0.11439 0.0
C2703 C 0.70399 0.57913 0.13236 0.0
H2704 H 0.6923 0.4124 0.39719 0.0
H2705 H 0.72277 0.46791 0.41389 0.0
H2706 H 0.71106 0.48393 0.3825 0.0
H2707 H 0.69202 0.4821 0.35026 0.0
H2708 H 0.66043 0.42677 0.33486 0.0
H2709 H 0.67267 0.41086 0.36585 0.0
C2710 C 0.69616 0.42811 0.39417 0.0
C2711 C 0.70831 0.43894 0.408 0.0
C2712 C 0.68924 0.43726 0.37624 0.0
C2713 C 0.71358 0.45913 0.40347 0.0
C2714 C 0.7068 0.46834 0.38556 0.0
C2715 C 0.68769 0.46662 0.35376 0.0
C2716 C 0.67547 0.45564 0.34007 0.0
C2717 C 0.6946 0.45755 0.37183 0.0
C2718 C 0.67017 0.4355 0.34482 0.0
C2719 C 0.67703 0.42639 0.36265 0.0
H2720 H 0.82849 0.43801 0.65513 0.0
H2721 H 0.79064 0.49148 0.65312 0.0
H2722 H 0.77575 0.47988 0.62121 0.0
H2723 H 0.77357 0.45451 0.59377 0.0
H2724 H 0.80963 0.39988 0.59784 0.0
H2725 H 0.82494 0.41201 0.62911 0.0
C2726 C 0.81671 0.44703 0.648 0.0
C2727 C 0.81072 0.46561 0.65668 0.0
C2728 C 0.80792 0.4401 0.62989 0.0
C2729 C 0.79581 0.47725 0.64674 0.0
C2730 C 0.78716 0.47056 0.62852 0.0
C2731 C 0.7846 0.44514 0.60159 0.0
C2732 C 0.79057 0.4264 0.59316 0.0
C2733 C 0.79311 0.452 0.61994 0.0
C2734 C 0.80507 0.4146 0.60354 0.0
C2735 C 0.81374 0.42143 0.62159 0.0
H2736 H 0.45533 0.08246 0.21373 0.0
H2737 H 0.39384 0.10236 0.20296 0.0
H2738 H 0.40631 0.13407 0.18865 0.0
H2739 H 0.43452 0.15616 0.17898 0.0
H2740 H 0.49613 0.13669 0.18956 0.0
H2741 H 0.48376 0.1051 0.20465 0.0
C2742 C 0.44467 0.09381 0.20841 0.0
C2743 C 0.42368 0.08989 0.20925 0.0
C2744 C 0.45195 0.11216 0.20026 0.0
C2745 C 0.41008 0.10475 0.20214 0.0
C2746 C 0.41718 0.12298 0.19407 0.0
C2747 C 0.44526 0.14495 0.18445 0.0
C2748 C 0.46622 0.14876 0.18303 0.0
C2749 C 0.43807 0.12679 0.19293 0.0
C2750 C 0.47991 0.13423 0.19061 0.0
C2751 C 0.47285 0.1161 0.19912 0.0
H2752 H 0.02524 0.86323 0.66564 0.0
H2753 H 0.05137 0.82503 0.71204 0.0
H2754 H 0.06635 0.85474 0.72831 0.0
H2755 H 0.07311 0.89138 0.72868 0.0
H2756 H 0.04587 0.9297 0.68302 0.0
H2757 H 0.03018 0.90009 0.66727 0.0
C2758 C 0.0339 0.86139 0.67951 0.0
C2759 C 0.03721 0.84183 0.68751 0.0
C2760 C 0.04239 0.87856 0.68889 0.0
C2761 C 0.04882 0.83981 0.70532 0.0
C2762 C 0.05732 0.85682 0.71472 0.0
C2763 C 0.06346 0.89335 0.71549 0.0
C2764 C 0.06081 0.9128 0.70703 0.0
C2765 C 0.05436 0.87625 0.70654 0.0
C2766 C 0.0485 0.91491 0.6897 0.0
C2767 C 0.03941 0.89798 0.68072 0.0
H2768 H 0.46463 0.85685 0.34371 0.0
H2769 H 0.4656 0.82687 0.28549 0.0
H2770 H 0.45091 0.85698 0.26955 0.0
H2771 H 0.43677 0.89148 0.27237 0.0
H2772 H 0.43637 0.92141 0.33062 0.0
H2773 H 0.45205 0.89172 0.34626 0.0
C2774 C 0.46195 0.85698 0.32747 0.0
C2775 C 0.46624 0.83958 0.31584 0.0
C2776 C 0.45354 0.87433 0.31841 0.0
C2777 C 0.46225 0.83994 0.29487 0.0
C2778 C 0.45393 0.8572 0.28571 0.0
C2779 C 0.44039 0.89161 0.28843 0.0
C2780 C 0.43532 0.90864 0.30031 0.0
C2781 C 0.44937 0.87443 0.29736 0.0
C2782 C 0.43985 0.90842 0.32117 0.0
C2783 C 0.44889 0.89147 0.33012 0.0
H2784 H 0.86296 0.67799 0.02384 0.0
H2785 H 0.82537 0.70551 0.06996 0.0
H2786 H 0.8553 0.72059 0.0856 0.0
H2787 H 0.89215 0.72508 0.0869 0.0
H2788 H 0.92965 0.69932 0.03973 0.0
H2789 H 0.89966 0.68451 0.02379 0.0
C2790 C 0.86121 0.68757 0.0371 0.0
C2791 C 0.84185 0.69043 0.04574 0.0
C2792 C 0.87849 0.69644 0.04593 0.0
C2793 C 0.84006 0.70266 0.06316 0.0
C2794 C 0.85718 0.71143 0.07207 0.0
C2795 C 0.8938 0.71656 0.07292 0.0
C2796 C 0.91324 0.71333 0.06461 0.0
C2797 C 0.87648 0.70828 0.06368 0.0
C2798 C 0.91498 0.70183 0.0467 0.0
C2799 C 0.8978 0.69343 0.03748 0.0
H2800 H 0.58349 0.29161 0.54572 0.0
H2801 H 0.61109 0.28307 0.60456 0.0
H2802 H 0.64283 0.29718 0.59199 0.0
H2803 H 0.66275 0.31241 0.56455 0.0
H2804 H 0.63465 0.32303 0.5063 0.0
H2805 H 0.60325 0.30763 0.51841 0.0
C2806 C 0.59638 0.29298 0.55586 0.0
C2807 C 0.59482 0.28612 0.57605 0.0
C2808 C 0.61458 0.30146 0.54864 0.0
C2809 C 0.61186 0.2878 0.58884 0.0
C2810 C 0.63003 0.29604 0.58172 0.0
C2811 C 0.64972 0.31156 0.55453 0.0
C2812 C 0.65117 0.31888 0.53451 0.0
C2813 C 0.63155 0.30299 0.56168 0.0
C2814 C 0.63416 0.31725 0.52168 0.0
C2815 C 0.6161 0.30857 0.52864 0.0
H2816 H 0.19309 0.41427 0.09366 0.0
H2817 H 0.24625 0.45241 0.09642 0.0
H2818 H 0.23445 0.46687 0.12848 0.0
H2819 H 0.20911 0.46844 0.15593 0.0
H2820 H 0.15562 0.43076 0.15244 0.0
H2821 H 0.16751 0.41639 0.12052 0.0
C2822 C 0.20198 0.42595 0.10112 0.0
C2823 C 0.2205 0.43227 0.09259 0.0
C2824 C 0.19511 0.4342 0.11952 0.0
C2825 C 0.23202 0.44712 0.10272 0.0
C2826 C 0.22525 0.45546 0.12103 0.0
C2827 C 0.19998 0.4572 0.14811 0.0
C2828 C 0.18156 0.45061 0.15671 0.0
C2829 C 0.20684 0.44907 0.1296 0.0
C2830 C 0.17004 0.43585 0.14643 0.0
C2831 C 0.17675 0.42772 0.12806 0.0
H2832 H 0.34437 0.44712 0.84813 0.0
H2833 H 0.29141 0.48371 0.83608 0.0
H2834 H 0.27582 0.47181 0.86759 0.0
H2835 H 0.27712 0.45066 0.89841 0.0
H2836 H 0.32977 0.41323 0.90949 0.0
H2837 H 0.34558 0.4259 0.87857 0.0
C2838 C 0.32931 0.45233 0.85226 0.0
C2839 C 0.31904 0.46619 0.83967 0.0
C2840 C 0.32042 0.44537 0.8703 0.0
C2841 C 0.29973 0.47315 0.84554 0.0
C2842 C 0.29076 0.46629 0.86352 0.0
C2843 C 0.292 0.44519 0.894 0.0
C2844 C 0.30224 0.43107 0.90637 0.0
C2845 C 0.30095 0.45234 0.876 0.0
C2846 C 0.32165 0.42436 0.90052 0.0
C2847 C 0.33066 0.43147 0.88272 0.0
H2848 H 0.31639 0.56782 0.58326 0.0
H2849 H 0.25578 0.56644 0.60797 0.0
H2850 H 0.2688 0.55234 0.63973 0.0
H2851 H 0.2976 0.54142 0.66087 0.0
H2852 H 0.35815 0.54269 0.63593 0.0
H2853 H 0.34496 0.5558 0.6039 0.0
C2854 C 0.30599 0.56416 0.59548 0.0
C2855 C 0.28515 0.56818 0.59324 0.0
C2856 C 0.31359 0.55617 0.61373 0.0
C2857 C 0.27192 0.56367 0.60938 0.0
C2858 C 0.27935 0.55556 0.62752 0.0
C2859 C 0.30787 0.54436 0.64835 0.0
C2860 C 0.32885 0.54118 0.65085 0.0
C2861 C 0.30018 0.55191 0.62993 0.0
C2862 C 0.34198 0.54531 0.63453 0.0
C2863 C 0.33444 0.55269 0.61616 0.0
H2864 H 0.18906 0.51771 0.35574 0.0
H2865 H 0.18445 0.57528 0.32484 0.0
H2866 H 0.19818 0.5926 0.35455 0.0
H2867 H 0.21024 0.59162 0.38966 0.0
H2868 H 0.21559 0.53413 0.42059 0.0
H2869 H 0.20271 0.51659 0.39055 0.0
C2870 C 0.19134 0.53401 0.35541 0.0
C2871 C 0.18564 0.54519 0.33811 0.0
C2872 C 0.1992 0.54391 0.37261 0.0
C2873 C 0.18845 0.56634 0.33805 0.0
C2874 C 0.19636 0.57626 0.35501 0.0
C2875 C 0.2089 0.57522 0.38977 0.0
C2876 C 0.21389 0.56424 0.40741 0.0
C2877 C 0.2016 0.56523 0.37243 0.0
C2878 C 0.21163 0.54301 0.40734 0.0
C2879 C 0.20438 0.53294 0.39012 0.0
loop_
_geom_bond_atom_site_label_1
_geom_bond_atom_site_label_2
_geom_bond_distance
_geom_bond_site_symmetry_2
_ccdc_geom_bond_type
Li0 N17 1.990 . S
Li0 O60 1.956 . S
Li0 O61 1.970 . S
Li0 O62 1.961 1_455 S
Li1 N25 1.990 . S
Li1 O60 1.970 . S
Li1 O61 1.956 . S
Li1 O63 1.961 1_455 S
Li2 N47 1.990 . S
Li2 O60 1.961 1_655 S
Li2 O62 1.956 . S
Li2 O63 1.970 . S
Li3 N53 1.990 . S
Li3 O61 1.961 1_655 S
Li3 O62 1.970 . S
Li3 O63 1.956 . S
C4 C6 1.348 . S
C4 C7 1.356 . S
C4 O60 1.325 . S
N5 C8 1.314 . S
N5 C9 1.279 . S
C6 C4 1.348 . S
C6 C8 1.353 . S
C6 H64 0.929 . S
C7 C4 1.356 . S
C7 C9 1.358 . S
C7 H65 0.930 . S
C8 N5 1.314 . S
C8 C6 1.353 . S
C8 H66 0.930 . S
C9 N5 1.279 . S
C9 C7 1.358 . S
C9 H67 0.930 . S
C10 C13 1.348 . S
C10 C14 1.356 . S
C10 O61 1.325 . S
C11 N12 1.279 . S
C11 C14 1.358 . S
C11 H68 0.930 . S
N12 C11 1.279 . S
N12 C15 1.314 . S
C13 C10 1.348 . S
C13 C15 1.353 . S
C13 H69 0.929 . S
C14 C10 1.356 . S
C14 C11 1.358 . S
C14 H70 0.930 . S
C15 N12 1.314 . S
C15 C13 1.353 . S
C15 H71 0.930 . S
C16 N17 1.314 . S
C16 C21 1.353 . S
C16 H22 0.930 1_455 S
N17 Li0 1.990 . S
N17 C16 1.314 . S
N17 C19 1.279 . S
C18 C19 1.358 . S
C18 C20 1.356 . S
C18 H72 0.930 . S
C19 N17 1.279 . S
C19 C18 1.358 . S
C19 H23 0.930 . S
C20 C18 1.356 . S
C20 C21 1.348 . S
C21 C16 1.353 . S
C21 C20 1.348 . S
C21 H73 0.929 . S
H22 C16 0.930 1_655 S
H23 C19 0.930 . S
C24 N25 1.314 . S
C24 C26 1.353 . S
C24 H30 0.930 . S
N25 Li1 1.990 . S
N25 C24 1.314 . S
N25 C28 1.279 . S
C26 C24 1.353 . S
C26 C29 1.348 . S
C26 H74 0.929 . S
C27 C28 1.358 . S
C27 C29 1.356 . S
C27 H75 0.930 . S
C28 N25 1.279 . S
C28 C27 1.358 . S
C28 H31 0.930 . S
C29 C26 1.348 . S
C29 C27 1.356 . S
H30 C24 0.930 . S
H31 C28 0.930 . S
C32 C34 1.348 . S
C32 C35 1.356 . S
C32 O62 1.325 . S
N33 C36 1.314 . S
N33 C37 1.279 . S
C34 C32 1.348 . S
C34 C36 1.353 . S
C34 H76 0.929 . S
C35 C32 1.356 . S
C35 C37 1.358 . S
C35 H77 0.930 . S
C36 N33 1.314 . S
C36 C34 1.353 . S
C36 H78 0.930 . S
C37 N33 1.279 . S
C37 C35 1.358 . S
C37 H79 0.930 . S
C38 C39 1.348 . S
C38 C40 1.356 . S
C38 O63 1.325 . S
C39 C38 1.348 . S
C39 C41 1.353 . S
C39 H80 0.929 . S
C40 C38 1.356 . S
C40 C42 1.358 . S
C40 H81 0.930 . S
C41 C39 1.353 . S
C41 N43 1.314 . S
C41 H82 0.930 . S
C42 C40 1.358 . S
C42 N43 1.279 . S
C42 H83 0.930 . S
N43 C41 1.314 . S
N43 C42 1.279 . S
C44 C46 1.353 . S
C44 N47 1.314 . S
C44 H50 0.930 1_655 S
C45 N47 1.279 . S
C45 C48 1.358 . S
C45 H51 0.930 . S
C46 C44 1.353 . S
C46 C49 1.348 . S
C46 H84 0.929 . S
N47 Li2 1.990 . S
N47 C44 1.314 . S
N47 C45 1.279 . S
C48 C45 1.358 . S
C48 C49 1.356 . S
C48 H85 0.930 . S
C49 C46 1.348 . S
C49 C48 1.356 . S
H50 C44 0.930 1_455 S
H51 C45 0.930 . S
C52 N53 1.314 . S
C52 C54 1.353 . S
C52 H58 0.930 . S
N53 Li3 1.990 . S
N53 C52 1.314 . S
N53 C56 1.279 . S
C54 C52 1.353 . S
C54 C57 1.348 . S
C54 H86 0.929 . S
C55 C56 1.358 . S
C55 C57 1.356 . S
C55 H87 0.930 . S
C56 N53 1.279 . S
C56 C55 1.358 . S
C56 H59 0.930 . S
C57 C54 1.348 . S
C57 C55 1.356 . S
H58 C52 0.930 . S
H59 C56 0.930 . S
O60 Li0 1.956 . S
O60 Li1 1.970 . S
O60 Li2 1.961 1_455 S
O60 C4 1.325 . S
O61 Li0 1.970 . S
O61 Li1 1.956 . S
O61 Li3 1.961 1_455 S
O61 C10 1.325 . S
O62 Li0 1.961 1_655 S
O62 Li2 1.956 . S
O62 Li3 1.970 . S
O62 C32 1.325 . S
O63 Li1 1.961 1_655 S
O63 Li2 1.970 . S
O63 Li3 1.956 . S
O63 C38 1.325 . S
H64 C6 0.929 . S
H65 C7 0.930 . S
H66 C8 0.930 . S
H67 C9 0.930 . S
H68 C11 0.930 . S
H69 C13 0.929 . S
H70 C14 0.930 . S
H71 C15 0.930 . S
H72 C18 0.930 . S
H73 C21 0.929 . S
H74 C26 0.929 . S
H75 C27 0.930 . S
H76 C34 0.929 . S
H77 C35 0.930 . S
H78 C36 0.930 . S
H79 C37 0.930 . S
H80 C39 0.929 . S
H81 C40 0.930 . S
H82 C41 0.930 . S
H83 C42 0.930 . S
H84 C46 0.929 . S
H85 C48 0.930 . S
H86 C54 0.929 . S
H87 C55 0.930 . S
Li88 N105 1.990 . S
Li88 O148 1.956 1_455 S
Li88 O149 1.970 . S
Li88 O150 1.961 . S
Li89 N113 1.990 . S
Li89 O148 1.970 . S
Li89 O149 1.956 1_655 S
Li89 O151 1.961 . S
Li90 N135 1.990 . S
Li90 O148 1.961 . S
Li90 O150 1.956 1_655 S
Li90 O151 1.970 . S
Li91 N141 1.990 . S
Li91 O149 1.961 . S
Li91 O150 1.970 . S
Li91 O151 1.956 1_455 S
C92 C94 1.348 . S
C92 C95 1.356 . S
C92 O148 1.325 . S
N93 C96 1.314 . S
N93 C97 1.279 . S
C94 C92 1.348 . S
C94 C96 1.353 . S
C94 H152 0.929 . S
C95 C92 1.356 . S
C95 C97 1.358 . S
C95 H153 0.930 . S
C96 N93 1.314 . S
C96 C94 1.353 . S
C96 H154 0.930 . S
C97 N93 1.279 . S
C97 C95 1.358 . S
C97 H155 0.930 . S
C98 C101 1.348 . S
C98 C102 1.356 . S
C98 O149 1.325 . S
C99 N100 1.279 . S
C99 C102 1.358 . S
C99 H156 0.930 . S
N100 C99 1.279 . S
N100 C103 1.314 . S
C101 C98 1.348 . S
C101 C103 1.353 . S
C101 H157 0.929 . S
C102 C98 1.356 . S
C102 C99 1.358 . S
C102 H158 0.930 . S
C103 N100 1.314 . S
C103 C101 1.353 . S
C103 H159 0.930 . S
C104 N105 1.314 . S
C104 C109 1.353 . S
C104 H110 0.930 . S
N105 Li88 1.990 . S
N105 C104 1.314 . S
N105 C107 1.279 . S
C106 C107 1.358 . S
C106 C108 1.356 . S
C106 H160 0.930 . S
C107 N105 1.279 . S
C107 C106 1.358 . S
C107 H111 0.930 1_455 S
C108 C106 1.356 . S
C108 C109 1.348 . S
C109 C104 1.353 . S
C109 C108 1.348 . S
C109 H161 0.929 . S
H110 C104 0.930 . S
H111 C107 0.930 1_655 S
C112 N113 1.314 . S
C112 C114 1.353 . S
C112 H118 0.930 . S
N113 Li89 1.990 . S
N113 C112 1.314 . S
N113 C116 1.279 . S
C114 C112 1.353 . S
C114 C117 1.348 . S
C114 H162 0.929 . S
C115 C116 1.358 . S
C115 C117 1.356 . S
C115 H163 0.930 . S
C116 N113 1.279 . S
C116 C115 1.358 . S
C116 H119 0.930 . S
C117 C114 1.348 . S
C117 C115 1.356 . S
H118 C112 0.930 . S
H119 C116 0.930 . S
C120 C122 1.348 . S
C120 C123 1.356 . S
C120 O150 1.325 . S
N121 C124 1.314 . S
N121 C125 1.279 . S
C122 C120 1.348 . S
C122 C124 1.353 . S
C122 H164 0.929 . S
C123 C120 1.356 . S
C123 C125 1.358 . S
C123 H165 0.930 . S
C124 N121 1.314 . S
C124 C122 1.353 . S
C124 H166 0.930 . S
C125 N121 1.279 . S
C125 C123 1.358 . S
C125 H167 0.930 . S
C126 C127 1.348 . S
C126 C128 1.356 . S
C126 O151 1.325 . S
C127 C126 1.348 . S
C127 C129 1.353 . S
C127 H168 0.929 . S
C128 C126 1.356 . S
C128 C130 1.358 . S
C128 H169 0.930 . S
C129 C127 1.353 . S
C129 N131 1.314 . S
C129 H170 0.930 . S
C130 C128 1.358 . S
C130 N131 1.279 . S
C130 H171 0.930 . S
N131 C129 1.314 . S
N131 C130 1.279 . S
C132 C134 1.353 . S
C132 N135 1.314 . S
C132 H138 0.930 . S
C133 N135 1.279 . S
C133 C136 1.358 . S
C133 H139 0.930 1_655 S
C134 C132 1.353 . S
C134 C137 1.348 . S
C134 H172 0.929 . S
N135 Li90 1.990 . S
N135 C132 1.314 . S
N135 C133 1.279 . S
C136 C133 1.358 . S
C136 C137 1.356 . S
C136 H173 0.930 . S
C137 C134 1.348 . S
C137 C136 1.356 . S
H138 C132 0.930 . S
H139 C133 0.930 1_455 S
C140 N141 1.314 . S
C140 C142 1.353 . S
C140 H146 0.930 . S
N141 Li91 1.990 . S
N141 C140 1.314 . S
N141 C144 1.279 . S
C142 C140 1.353 . S
C142 C145 1.348 . S
C142 H174 0.929 . S
C143 C144 1.358 . S
C143 C145 1.356 . S
C143 H175 0.930 . S
C144 N141 1.279 . S
C144 C143 1.358 . S
C144 H147 0.930 . S
C145 C142 1.348 . S
C145 C143 1.356 . S
H146 C140 0.930 . S
H147 C144 0.930 . S
O148 Li88 1.956 1_655 S
O148 Li89 1.970 . S
O148 Li90 1.961 . S
O148 C92 1.325 . S
O149 Li88 1.970 . S
O149 Li89 1.956 1_455 S
O149 Li91 1.961 . S
O149 C98 1.325 . S
O150 Li88 1.961 . S
O150 Li90 1.956 1_455 S
O150 Li91 1.970 . S
O150 C120 1.325 . S
O151 Li89 1.961 . S
O151 Li90 1.970 . S
O151 Li91 1.956 1_655 S
O151 C126 1.325 . S
H152 C94 0.929 . S
H153 C95 0.930 . S
H154 C96 0.930 . S
H155 C97 0.930 . S
H156 C99 0.930 . S
H157 C101 0.929 . S
H158 C102 0.930 . S
H159 C103 0.930 . S
H160 C106 0.930 . S
H161 C109 0.929 . S
H162 C114 0.929 . S
H163 C115 0.930 . S
H164 C122 0.929 . S
H165 C123 0.930 . S
H166 C124 0.930 . S
H167 C125 0.930 . S
H168 C127 0.929 . S
H169 C128 0.930 . S
H170 C129 0.930 . S
H171 C130 0.930 . S
H172 C134 0.929 . S
H173 C136 0.930 . S
H174 C142 0.929 . S
H175 C143 0.930 . S
Li176 N193 1.990 . S
Li176 O236 1.956 . S
Li176 O237 1.970 . S
Li176 O238 1.961 . S
Li177 N201 1.990 . S
Li177 O236 1.970 . S
Li177 O237 1.956 . S
Li177 O239 1.961 . S
Li178 N223 1.990 . S
Li178 O236 1.961 . S
Li178 O238 1.956 . S
Li178 O239 1.970 . S
Li179 N229 1.990 . S
Li179 O237 1.961 . S
Li179 O238 1.970 . S
Li179 O239 1.956 . S
C180 C182 1.348 . S
C180 C183 1.356 . S
C180 O236 1.325 . S
N181 C184 1.314 . S
N181 C185 1.279 . S
C182 C180 1.348 . S
C182 C184 1.353 . S
C182 H240 0.929 . S
C183 C180 1.356 . S
C183 C185 1.358 . S
C183 H241 0.930 . S
C184 N181 1.314 . S
C184 C182 1.353 . S
C184 H242 0.930 . S
C185 N181 1.279 . S
C185 C183 1.358 . S
C185 H243 0.930 . S
C186 C189 1.348 . S
C186 C190 1.356 . S
C186 O237 1.325 . S
C187 N188 1.279 . S
C187 C190 1.358 . S
C187 H244 0.930 . S
N188 C187 1.279 . S
N188 C191 1.314 . S
C189 C186 1.348 . S
C189 C191 1.353 . S
C189 H245 0.929 . S
C190 C186 1.356 . S
C190 C187 1.358 . S
C190 H246 0.930 . S
C191 N188 1.314 . S
C191 C189 1.353 . S
C191 H247 0.930 . S
C192 N193 1.314 . S
C192 C197 1.353 . S
C192 H198 0.930 . S
N193 Li176 1.990 . S
N193 C192 1.314 . S
N193 C195 1.279 . S
C194 C195 1.358 . S
C194 C196 1.356 . S
C194 H248 0.930 . S
C195 N193 1.279 . S
C195 C194 1.358 . S
C195 H199 0.930 . S
C196 C194 1.356 . S
C196 C197 1.348 . S
C197 C192 1.353 . S
C197 C196 1.348 . S
C197 H249 0.929 . S
H198 C192 0.930 . S
H199 C195 0.930 . S
C200 N201 1.314 . S
C200 C202 1.353 . S
C200 H206 0.930 . S
N201 Li177 1.990 . S
N201 C200 1.314 . S
N201 C204 1.279 . S
C202 C200 1.353 . S
C202 C205 1.348 . S
C202 H250 0.929 . S
C203 C204 1.358 . S
C203 C205 1.356 . S
C203 H251 0.930 . S
C204 N201 1.279 . S
C204 C203 1.358 . S
C204 H207 0.930 . S
C205 C202 1.348 . S
C205 C203 1.356 . S
H206 C200 0.930 . S
H207 C204 0.930 . S
C208 C210 1.348 . S
C208 C211 1.356 . S
C208 O238 1.325 . S
N209 C212 1.314 . S
N209 C213 1.279 . S
C210 C208 1.348 . S
C210 C212 1.353 . S
C210 H252 0.929 . S
C211 C208 1.356 . S
C211 C213 1.358 . S
C211 H253 0.930 . S
C212 N209 1.314 . S
C212 C210 1.353 . S
C212 H254 0.930 . S
C213 N209 1.279 . S
C213 C211 1.358 . S
C213 H255 0.930 . S
C214 C215 1.348 . S
C214 C216 1.356 . S
C214 O239 1.325 . S
C215 C214 1.348 . S
C215 C217 1.353 . S
C215 H256 0.929 . S
C216 C214 1.356 . S
C216 C218 1.358 . S
C216 H257 0.930 . S
C217 C215 1.353 . S
C217 N219 1.314 . S
C217 H258 0.930 . S
C218 C216 1.358 . S
C218 N219 1.279 . S
C218 H259 0.930 . S
N219 C217 1.314 . S
N219 C218 1.279 . S
C220 C222 1.353 . S
C220 N223 1.314 . S
C220 H226 0.930 . S
C221 N223 1.279 . S
C221 C224 1.358 . S
C221 H227 0.930 . S
C222 C220 1.353 . S
C222 C225 1.348 . S
C222 H260 0.929 . S
N223 Li178 1.990 . S
N223 C220 1.314 . S
N223 C221 1.279 . S
C224 C221 1.358 . S
C224 C225 1.356 . S
C224 H261 0.930 . S
C225 C222 1.348 . S
C225 C224 1.356 . S
H226 C220 0.930 . S
H227 C221 0.930 . S
C228 N229 1.314 . S
C228 C230 1.353 . S
C228 H234 0.930 . S
N229 Li179 1.990 . S
N229 C228 1.314 . S
N229 C232 1.279 . S
C230 C228 1.353 . S
C230 C233 1.348 . S
C230 H262 0.929 . S
C231 C232 1.358 . S
C231 C233 1.356 . S
C231 H263 0.930 . S
C232 N229 1.279 . S
C232 C231 1.358 . S
C232 H235 0.930 . S
C233 C230 1.348 . S
C233 C231 1.356 . S
H234 C228 0.930 . S
H235 C232 0.930 . S
O236 Li176 1.956 . S
O236 Li177 1.970 . S
O236 Li178 1.961 . S
O236 C180 1.325 . S
O237 Li176 1.970 . S
O237 Li177 1.956 . S
O237 Li179 1.961 . S
O237 C186 1.325 . S
O238 Li176 1.961 . S
O238 Li178 1.956 . S
O238 Li179 1.970 . S
O238 C208 1.325 . S
O239 Li177 1.961 . S
O239 Li178 1.970 . S
O239 Li179 1.956 . S
O239 C214 1.325 . S
H240 C182 0.929 . S
H241 C183 0.930 . S
H242 C184 0.930 . S
H243 C185 0.930 . S
H244 C187 0.930 . S
H245 C189 0.929 . S
H246 C190 0.930 . S
H247 C191 0.930 . S
H248 C194 0.930 . S
H249 C197 0.929 . S
H250 C202 0.929 . S
H251 C203 0.930 . S
H252 C210 0.929 . S
H253 C211 0.930 . S
H254 C212 0.930 . S
H255 C213 0.930 . S
H256 C215 0.929 . S
H257 C216 0.930 . S
H258 C217 0.930 . S
H259 C218 0.930 . S
H260 C222 0.929 . S
H261 C224 0.930 . S
H262 C230 0.929 . S
H263 C231 0.930 . S
Li264 N281 1.990 . S
Li264 O324 1.956 . S
Li264 O325 1.970 . S
Li264 O326 1.961 . S
Li265 N289 1.990 . S
Li265 O324 1.970 . S
Li265 O325 1.956 . S
Li265 O327 1.961 . S
Li266 N311 1.990 . S
Li266 O324 1.961 . S
Li266 O326 1.956 . S
Li266 O327 1.970 . S
Li267 N317 1.990 . S
Li267 O325 1.961 . S
Li267 O326 1.970 . S
Li267 O327 1.956 . S
C268 C270 1.348 . S
C268 C271 1.356 . S
C268 O324 1.325 . S
N269 C272 1.314 . S
N269 C273 1.279 . S
C270 C268 1.348 . S
C270 C272 1.353 . S
C270 H328 0.929 . S
C271 C268 1.356 . S
C271 C273 1.358 . S
C271 H329 0.930 . S
C272 N269 1.314 . S
C272 C270 1.353 . S
C272 H330 0.930 . S
C273 N269 1.279 . S
C273 C271 1.358 . S
C273 H331 0.930 . S
C274 C277 1.348 . S
C274 C278 1.356 . S
C274 O325 1.325 . S
C275 N276 1.279 . S
C275 C278 1.358 . S
C275 H332 0.930 . S
N276 C275 1.279 . S
N276 C279 1.314 . S
C277 C274 1.348 . S
C277 C279 1.353 . S
C277 H333 0.929 . S
C278 C274 1.356 . S
C278 C275 1.358 . S
C278 H334 0.930 . S
C279 N276 1.314 . S
C279 C277 1.353 . S
C279 H335 0.930 . S
C280 N281 1.314 . S
C280 C285 1.353 . S
C280 H286 0.930 . S
N281 Li264 1.990 . S
N281 C280 1.314 . S
N281 C283 1.279 . S
C282 C283 1.358 . S
C282 C284 1.356 . S
C282 H336 0.930 . S
C283 N281 1.279 . S
C283 C282 1.358 . S
C283 H287 0.930 . S
C284 C282 1.356 . S
C284 C285 1.348 . S
C285 C280 1.353 . S
C285 C284 1.348 . S
C285 H337 0.929 . S
H286 C280 0.930 . S
H287 C283 0.930 . S
C288 N289 1.314 . S
C288 C290 1.353 . S
C288 H294 0.930 . S
N289 Li265 1.990 . S
N289 C288 1.314 . S
N289 C292 1.279 . S
C290 C288 1.353 . S
C290 C293 1.348 . S
C290 H338 0.929 . S
C291 C292 1.358 . S
C291 C293 1.356 . S
C291 H339 0.930 . S
C292 N289 1.279 . S
C292 C291 1.358 . S
C292 H295 0.930 . S
C293 C290 1.348 . S
C293 C291 1.356 . S
H294 C288 0.930 . S
H295 C292 0.930 . S
C296 C298 1.348 . S
C296 C299 1.356 . S
C296 O326 1.325 . S
N297 C300 1.314 . S
N297 C301 1.279 . S
C298 C296 1.348 . S
C298 C300 1.353 . S
C298 H340 0.929 . S
C299 C296 1.356 . S
C299 C301 1.358 . S
C299 H341 0.930 . S
C300 N297 1.314 . S
C300 C298 1.353 . S
C300 H342 0.930 . S
C301 N297 1.279 . S
C301 C299 1.358 . S
C301 H343 0.930 . S
C302 C303 1.348 . S
C302 C304 1.356 . S
C302 O327 1.325 . S
C303 C302 1.348 . S
C303 C305 1.353 . S
C303 H344 0.929 . S
C304 C302 1.356 . S
C304 C306 1.358 . S
C304 H345 0.930 . S
C305 C303 1.353 . S
C305 N307 1.314 . S
C305 H346 0.930 . S
C306 C304 1.358 . S
C306 N307 1.279 . S
C306 H347 0.930 . S
N307 C305 1.314 . S
N307 C306 1.279 . S
C308 C310 1.353 . S
C308 N311 1.314 . S
C308 H314 0.930 . S
C309 N311 1.279 . S
C309 C312 1.358 . S
C309 H315 0.930 . S
C310 C308 1.353 . S
C310 C313 1.348 . S
C310 H348 0.929 . S
N311 Li266 1.990 . S
N311 C308 1.314 . S
N311 C309 1.279 . S
C312 C309 1.358 . S
C312 C313 1.356 . S
C312 H349 0.930 . S
C313 C310 1.348 . S
C313 C312 1.356 . S
H314 C308 0.930 . S
H315 C309 0.930 . S
C316 N317 1.314 . S
C316 C318 1.353 . S
C316 H322 0.930 . S
N317 Li267 1.990 . S
N317 C316 1.314 . S
N317 C320 1.279 . S
C318 C316 1.353 . S
C318 C321 1.348 . S
C318 H350 0.929 . S
C319 C320 1.358 . S
C319 C321 1.356 . S
C319 H351 0.930 . S
C320 N317 1.279 . S
C320 C319 1.358 . S
C320 H323 0.930 . S
C321 C318 1.348 . S
C321 C319 1.356 . S
H322 C316 0.930 . S
H323 C320 0.930 . S
O324 Li264 1.956 . S
O324 Li265 1.970 . S
O324 Li266 1.961 . S
O324 C268 1.325 . S
O325 Li264 1.970 . S
O325 Li265 1.956 . S
O325 Li267 1.961 . S
O325 C274 1.325 . S
O326 Li264 1.961 . S
O326 Li266 1.956 . S
O326 Li267 1.970 . S
O326 C296 1.325 . S
O327 Li265 1.961 . S
O327 Li266 1.970 . S
O327 Li267 1.956 . S
O327 C302 1.325 . S
H328 C270 0.929 . S
H329 C271 0.930 . S
H330 C272 0.930 . S
H331 C273 0.930 . S
H332 C275 0.930 . S
H333 C277 0.929 . S
H334 C278 0.930 . S
H335 C279 0.930 . S
H336 C282 0.930 . S
H337 C285 0.929 . S
H338 C290 0.929 . S
H339 C291 0.930 . S
H340 C298 0.929 . S
H341 C299 0.930 . S
H342 C300 0.930 . S
H343 C301 0.930 . S
H344 C303 0.929 . S
H345 C304 0.930 . S
H346 C305 0.930 . S
H347 C306 0.930 . S
H348 C310 0.929 . S
H349 C312 0.930 . S
H350 C318 0.929 . S
H351 C319 0.930 . S
Li352 N369 1.990 . S
Li352 O412 1.956 . S
Li352 O413 1.970 . S
Li352 O414 1.961 1_455 S
Li353 N377 1.990 . S
Li353 O412 1.970 . S
Li353 O413 1.956 . S
Li353 O415 1.961 1_455 S
Li354 N399 1.990 . S
Li354 O412 1.961 1_655 S
Li354 O414 1.956 . S
Li354 O415 1.970 . S
Li355 N405 1.990 . S
Li355 O413 1.961 1_655 S
Li355 O414 1.970 . S
Li355 O415 1.956 . S
C356 C358 1.348 . S
C356 C359 1.356 . S
C356 O412 1.325 . S
N357 C360 1.314 . S
N357 C361 1.279 . S
C358 C356 1.348 . S
C358 C360 1.353 . S
C358 H416 0.929 . S
C359 C356 1.356 . S
C359 C361 1.358 . S
C359 H417 0.930 . S
C360 N357 1.314 . S
C360 C358 1.353 . S
C360 H418 0.930 . S
C361 N357 1.279 . S
C361 C359 1.358 . S
C361 H419 0.930 . S
C362 C365 1.348 . S
C362 C366 1.356 . S
C362 O413 1.325 . S
C363 N364 1.279 . S
C363 C366 1.358 . S
C363 H420 0.930 . S
N364 C363 1.279 . S
N364 C367 1.314 . S
C365 C362 1.348 . S
C365 C367 1.353 . S
C365 H421 0.929 . S
C366 C362 1.356 . S
C366 C363 1.358 . S
C366 H422 0.930 . S
C367 N364 1.314 . S
C367 C365 1.353 . S
C367 H423 0.930 . S
C368 N369 1.314 . S
C368 C373 1.353 . S
C368 H374 0.930 1_455 S
N369 Li352 1.990 . S
N369 C368 1.314 . S
N369 C371 1.279 . S
C370 C371 1.358 . S
C370 C372 1.356 . S
C370 H424 0.930 . S
C371 N369 1.279 . S
C371 C370 1.358 . S
C371 H375 0.930 . S
C372 C370 1.356 . S
C372 C373 1.348 . S
C373 C368 1.353 . S
C373 C372 1.348 . S
C373 H425 0.929 . S
H374 C368 0.930 1_655 S
H375 C371 0.930 . S
C376 N377 1.314 . S
C376 C378 1.353 . S
C376 H382 0.930 . S
N377 Li353 1.990 . S
N377 C376 1.314 . S
N377 C380 1.279 . S
C378 C376 1.353 . S
C378 C381 1.348 . S
C378 H426 0.929 . S
C379 C380 1.358 . S
C379 C381 1.356 . S
C379 H427 0.930 . S
C380 N377 1.279 . S
C380 C379 1.358 . S
C380 H383 0.930 . S
C381 C378 1.348 . S
C381 C379 1.356 . S
H382 C376 0.930 . S
H383 C380 0.930 . S
C384 C386 1.348 . S
C384 C387 1.356 . S
C384 O414 1.325 . S
N385 C388 1.314 . S
N385 C389 1.279 . S
C386 C384 1.348 . S
C386 C388 1.353 . S
C386 H428 0.929 . S
C387 C384 1.356 . S
C387 C389 1.358 . S
C387 H429 0.930 . S
C388 N385 1.314 . S
C388 C386 1.353 . S
C388 H430 0.930 . S
C389 N385 1.279 . S
C389 C387 1.358 . S
C389 H431 0.930 . S
C390 C391 1.348 . S
C390 C392 1.356 . S
C390 O415 1.325 . S
C391 C390 1.348 . S
C391 C393 1.353 . S
C391 H432 0.929 . S
C392 C390 1.356 . S
C392 C394 1.358 . S
C392 H433 0.930 . S
C393 C391 1.353 . S
C393 N395 1.314 . S
C393 H434 0.930 . S
C394 C392 1.358 . S
C394 N395 1.279 . S
C394 H435 0.930 . S
N395 C393 1.314 . S
N395 C394 1.279 . S
C396 C398 1.353 . S
C396 N399 1.314 . S
C396 H402 0.930 1_655 S
C397 N399 1.279 . S
C397 C400 1.358 . S
C397 H403 0.930 . S
C398 C396 1.353 . S
C398 C401 1.348 . S
C398 H436 0.929 . S
N399 Li354 1.990 . S
N399 C396 1.314 . S
N399 C397 1.279 . S
C400 C397 1.358 . S
C400 C401 1.356 . S
C400 H437 0.930 . S
C401 C398 1.348 . S
C401 C400 1.356 . S
H402 C396 0.930 1_455 S
H403 C397 0.930 . S
C404 N405 1.314 . S
C404 C406 1.353 . S
C404 H410 0.930 . S
N405 Li355 1.990 . S
N405 C404 1.314 . S
N405 C408 1.279 . S
C406 C404 1.353 . S
C406 C409 1.348 . S
C406 H438 0.929 . S
C407 C408 1.358 . S
C407 C409 1.356 . S
C407 H439 0.930 . S
C408 N405 1.279 . S
C408 C407 1.358 . S
C408 H411 0.930 . S
C409 C406 1.348 . S
C409 C407 1.356 . S
H410 C404 0.930 . S
H411 C408 0.930 . S
O412 Li352 1.956 . S
O412 Li353 1.970 . S
O412 Li354 1.961 1_455 S
O412 C356 1.325 . S
O413 Li352 1.970 . S
O413 Li353 1.956 . S
O413 Li355 1.961 1_455 S
O413 C362 1.325 . S
O414 Li352 1.961 1_655 S
O414 Li354 1.956 . S
O414 Li355 1.970 . S
O414 C384 1.325 . S
O415 Li353 1.961 1_655 S
O415 Li354 1.970 . S
O415 Li355 1.956 . S
O415 C390 1.325 . S
H416 C358 0.929 . S
H417 C359 0.930 . S
H418 C360 0.930 . S
H419 C361 0.930 . S
H420 C363 0.930 . S
H421 C365 0.929 . S
H422 C366 0.930 . S
H423 C367 0.930 . S
H424 C370 0.930 . S
H425 C373 0.929 . S
H426 C378 0.929 . S
H427 C379 0.930 . S
H428 C386 0.929 . S
H429 C387 0.930 . S
H430 C388 0.930 . S
H431 C389 0.930 . S
H432 C391 0.929 . S
H433 C392 0.930 . S
H434 C393 0.930 . S
H435 C394 0.930 . S
H436 C398 0.929 . S
H437 C400 0.930 . S
H438 C406 0.929 . S
H439 C407 0.930 . S
Li440 N457 1.990 . S
Li440 O500 1.956 . S
Li440 O501 1.970 . S
Li440 O502 1.961 . S
Li441 N465 1.990 . S
Li441 O500 1.970 . S
Li441 O501 1.956 . S
Li441 O503 1.961 . S
Li442 N487 1.990 . S
Li442 O500 1.961 . S
Li442 O502 1.956 . S
Li442 O503 1.970 . S
Li443 N493 1.990 . S
Li443 O501 1.961 . S
Li443 O502 1.970 . S
Li443 O503 1.956 . S
C444 C446 1.348 . S
C444 C447 1.356 . S
C444 O500 1.325 . S
N445 C448 1.314 . S
N445 C449 1.279 . S
C446 C444 1.348 . S
C446 C448 1.353 . S
C446 H504 0.929 . S
C447 C444 1.356 . S
C447 C449 1.358 . S
C447 H505 0.930 . S
C448 N445 1.314 . S
C448 C446 1.353 . S
C448 H506 0.930 . S
C449 N445 1.279 . S
C449 C447 1.358 . S
C449 H507 0.930 . S
C450 C453 1.348 . S
C450 C454 1.356 . S
C450 O501 1.325 . S
C451 N452 1.279 . S
C451 C454 1.358 . S
C451 H508 0.930 . S
N452 C451 1.279 . S
N452 C455 1.314 . S
C453 C450 1.348 . S
C453 C455 1.353 . S
C453 H509 0.929 . S
C454 C450 1.356 . S
C454 C451 1.358 . S
C454 H510 0.930 . S
C455 N452 1.314 . S
C455 C453 1.353 . S
C455 H511 0.930 . S
C456 N457 1.314 . S
C456 C461 1.353 . S
C456 H462 0.930 . S
N457 Li440 1.990 . S
N457 C456 1.314 . S
N457 C459 1.279 . S
C458 C459 1.358 . S
C458 C460 1.356 . S
C458 H512 0.930 . S
C459 N457 1.279 . S
C459 C458 1.358 . S
C459 H463 0.930 . S
C460 C458 1.356 . S
C460 C461 1.348 . S
C461 C456 1.353 . S
C461 C460 1.348 . S
C461 H513 0.929 . S
H462 C456 0.930 . S
H463 C459 0.930 . S
C464 N465 1.314 . S
C464 C466 1.353 . S
C464 H470 0.930 . S
N465 Li441 1.990 . S
N465 C464 1.314 . S
N465 C468 1.279 . S
C466 C464 1.353 . S
C466 C469 1.348 . S
C466 H514 0.929 . S
C467 C468 1.358 . S
C467 C469 1.356 . S
C467 H515 0.930 . S
C468 N465 1.279 . S
C468 C467 1.358 . S
C468 H471 0.930 . S
C469 C466 1.348 . S
C469 C467 1.356 . S
H470 C464 0.930 . S
H471 C468 0.930 . S
C472 C474 1.348 . S
C472 C475 1.356 . S
C472 O502 1.325 . S
N473 C476 1.314 . S
N473 C477 1.279 . S
C474 C472 1.348 . S
C474 C476 1.353 . S
C474 H516 0.929 . S
C475 C472 1.356 . S
C475 C477 1.358 . S
C475 H517 0.930 . S
C476 N473 1.314 . S
C476 C474 1.353 . S
C476 H518 0.930 . S
C477 N473 1.279 . S
C477 C475 1.358 . S
C477 H519 0.930 . S
C478 C479 1.348 . S
C478 C480 1.356 . S
C478 O503 1.325 . S
C479 C478 1.348 . S
C479 C481 1.353 . S
C479 H520 0.929 . S
C480 C478 1.356 . S
C480 C482 1.358 . S
C480 H521 0.930 . S
C481 C479 1.353 . S
C481 N483 1.314 . S
C481 H522 0.930 . S
C482 C480 1.358 . S
C482 N483 1.279 . S
C482 H523 0.930 . S
N483 C481 1.314 . S
N483 C482 1.279 . S
C484 C486 1.353 . S
C484 N487 1.314 . S
C484 H490 0.930 . S
C485 N487 1.279 . S
C485 C488 1.358 . S
C485 H491 0.930 . S
C486 C484 1.353 . S
C486 C489 1.348 . S
C486 H524 0.929 . S
N487 Li442 1.990 . S
N487 C484 1.314 . S
N487 C485 1.279 . S
C488 C485 1.358 . S
C488 C489 1.356 . S
C488 H525 0.930 . S
C489 C486 1.348 . S
C489 C488 1.356 . S
H490 C484 0.930 . S
H491 C485 0.930 . S
C492 N493 1.314 . S
C492 C494 1.353 . S
C492 H498 0.930 . S
N493 Li443 1.990 . S
N493 C492 1.314 . S
N493 C496 1.279 . S
C494 C492 1.353 . S
C494 C497 1.348 . S
C494 H526 0.929 . S
C495 C496 1.358 . S
C495 C497 1.356 . S
C495 H527 0.930 . S
C496 N493 1.279 . S
C496 C495 1.358 . S
C496 H499 0.930 . S
C497 C494 1.348 . S
C497 C495 1.356 . S
H498 C492 0.930 . S
H499 C496 0.930 . S
O500 Li440 1.956 . S
O500 Li441 1.970 . S
O500 Li442 1.961 . S
O500 C444 1.325 . S
O501 Li440 1.970 . S
O501 Li441 1.956 . S
O501 Li443 1.961 . S
O501 C450 1.325 . S
O502 Li440 1.961 . S
O502 Li442 1.956 . S
O502 Li443 1.970 . S
O502 C472 1.325 . S
O503 Li441 1.961 . S
O503 Li442 1.970 . S
O503 Li443 1.956 . S
O503 C478 1.325 . S
H504 C446 0.929 . S
H505 C447 0.930 . S
H506 C448 0.930 . S
H507 C449 0.930 . S
H508 C451 0.930 . S
H509 C453 0.929 . S
H510 C454 0.930 . S
H511 C455 0.930 . S
H512 C458 0.930 . S
H513 C461 0.929 . S
H514 C466 0.929 . S
H515 C467 0.930 . S
H516 C474 0.929 . S
H517 C475 0.930 . S
H518 C476 0.930 . S
H519 C477 0.930 . S
H520 C479 0.929 . S
H521 C480 0.930 . S
H522 C481 0.930 . S
H523 C482 0.930 . S
H524 C486 0.929 . S
H525 C488 0.930 . S
H526 C494 0.929 . S
H527 C495 0.930 . S
Li528 N545 1.990 . S
Li528 O588 1.956 . S
Li528 O589 1.970 . S
Li528 O590 1.961 . S
Li529 N553 1.990 . S
Li529 O588 1.970 . S
Li529 O589 1.956 . S
Li529 O591 1.961 . S
Li530 N575 1.990 . S
Li530 O588 1.961 . S
Li530 O590 1.956 . S
Li530 O591 1.970 . S
Li531 N581 1.990 . S
Li531 O589 1.961 . S
Li531 O590 1.970 . S
Li531 O591 1.956 . S
C532 C534 1.348 . S
C532 C535 1.356 . S
C532 O588 1.325 . S
N533 C536 1.314 . S
N533 C537 1.279 . S
C534 C532 1.348 . S
C534 C536 1.353 . S
C534 H592 0.929 . S
C535 C532 1.356 . S
C535 C537 1.358 . S
C535 H593 0.930 . S
C536 N533 1.314 . S
C536 C534 1.353 . S
C536 H594 0.930 . S
C537 N533 1.279 . S
C537 C535 1.358 . S
C537 H595 0.930 . S
C538 C541 1.348 . S
C538 C542 1.356 . S
C538 O589 1.325 . S
C539 N540 1.279 . S
C539 C542 1.358 . S
C539 H596 0.930 . S
N540 C539 1.279 . S
N540 C543 1.314 . S
C541 C538 1.348 . S
C541 C543 1.353 . S
C541 H597 0.929 . S
C542 C538 1.356 . S
C542 C539 1.358 . S
C542 H598 0.930 . S
C543 N540 1.314 . S
C543 C541 1.353 . S
C543 H599 0.930 . S
C544 N545 1.314 . S
C544 C549 1.353 . S
C544 H550 0.930 . S
N545 Li528 1.990 . S
N545 C544 1.314 . S
N545 C547 1.279 . S
C546 C547 1.358 . S
C546 C548 1.356 . S
C546 H600 0.930 . S
C547 N545 1.279 . S
C547 C546 1.358 . S
C547 H551 0.930 . S
C548 C546 1.356 . S
C548 C549 1.348 . S
C549 C544 1.353 . S
C549 C548 1.348 . S
C549 H601 0.929 . S
H550 C544 0.930 . S
H551 C547 0.930 . S
C552 N553 1.314 . S
C552 C554 1.353 . S
C552 H558 0.930 . S
N553 Li529 1.990 . S
N553 C552 1.314 . S
N553 C556 1.279 . S
C554 C552 1.353 . S
C554 C557 1.348 . S
C554 H602 0.929 . S
C555 C556 1.358 . S
C555 C557 1.356 . S
C555 H603 0.930 . S
C556 N553 1.279 . S
C556 C555 1.358 . S
C556 H559 0.930 . S
C557 C554 1.348 . S
C557 C555 1.356 . S
H558 C552 0.930 . S
H559 C556 0.930 . S
C560 C562 1.348 . S
C560 C563 1.356 . S
C560 O590 1.325 . S
N561 C564 1.314 . S
N561 C565 1.279 . S
C562 C560 1.348 . S
C562 C564 1.353 . S
C562 H604 0.929 . S
C563 C560 1.356 . S
C563 C565 1.358 . S
C563 H605 0.930 . S
C564 N561 1.314 . S
C564 C562 1.353 . S
C564 H606 0.930 . S
C565 N561 1.279 . S
C565 C563 1.358 . S
C565 H607 0.930 . S
C566 C567 1.348 . S
C566 C568 1.356 . S
C566 O591 1.325 . S
C567 C566 1.348 . S
C567 C569 1.353 . S
C567 H608 0.929 . S
C568 C566 1.356 . S
C568 C570 1.358 . S
C568 H609 0.930 . S
C569 C567 1.353 . S
C569 N571 1.314 . S
C569 H610 0.930 . S
C570 C568 1.358 . S
C570 N571 1.279 . S
C570 H611 0.930 . S
N571 C569 1.314 . S
N571 C570 1.279 . S
C572 C574 1.353 . S
C572 N575 1.314 . S
C572 H578 0.930 . S
C573 N575 1.279 . S
C573 C576 1.358 . S
C573 H579 0.930 . S
C574 C572 1.353 . S
C574 C577 1.348 . S
C574 H612 0.929 . S
N575 Li530 1.990 . S
N575 C572 1.314 . S
N575 C573 1.279 . S
C576 C573 1.358 . S
C576 C577 1.356 . S
C576 H613 0.930 . S
C577 C574 1.348 . S
C577 C576 1.356 . S
H578 C572 0.930 . S
H579 C573 0.930 . S
C580 N581 1.314 . S
C580 C582 1.353 . S
C580 H586 0.930 . S
N581 Li531 1.990 . S
N581 C580 1.314 . S
N581 C584 1.279 . S
C582 C580 1.353 . S
C582 C585 1.348 . S
C582 H614 0.929 . S
C583 C584 1.358 . S
C583 C585 1.356 . S
C583 H615 0.930 . S
C584 N581 1.279 . S
C584 C583 1.358 . S
C584 H587 0.930 . S
C585 C582 1.348 . S
C585 C583 1.356 . S
H586 C580 0.930 . S
H587 C584 0.930 . S
O588 Li528 1.956 . S
O588 Li529 1.970 . S
O588 Li530 1.961 . S
O588 C532 1.325 . S
O589 Li528 1.970 . S
O589 Li529 1.956 . S
O589 Li531 1.961 . S
O589 C538 1.325 . S
O590 Li528 1.961 . S
O590 Li530 1.956 . S
O590 Li531 1.970 . S
O590 C560 1.325 . S
O591 Li529 1.961 . S
O591 Li530 1.970 . S
O591 Li531 1.956 . S
O591 C566 1.325 . S
H592 C534 0.929 . S
H593 C535 0.930 . S
H594 C536 0.930 . S
H595 C537 0.930 . S
H596 C539 0.930 . S
H597 C541 0.929 . S
H598 C542 0.930 . S
H599 C543 0.930 . S
H600 C546 0.930 . S
H601 C549 0.929 . S
H602 C554 0.929 . S
H603 C555 0.930 . S
H604 C562 0.929 . S
H605 C563 0.930 . S
H606 C564 0.930 . S
H607 C565 0.930 . S
H608 C567 0.929 . S
H609 C568 0.930 . S
H610 C569 0.930 . S
H611 C570 0.930 . S
H612 C574 0.929 . S
H613 C576 0.930 . S
H614 C582 0.929 . S
H615 C583 0.930 . S
Li616 N633 1.990 . S
Li616 O676 1.956 1_655 S
Li616 O677 1.970 . S
Li616 O678 1.961 . S
Li617 N641 1.990 . S
Li617 O676 1.970 . S
Li617 O677 1.956 1_455 S
Li617 O679 1.961 . S
Li618 N663 1.990 . S
Li618 O676 1.961 . S
Li618 O678 1.956 1_455 S
Li618 O679 1.970 . S
Li619 N669 1.990 . S
Li619 O677 1.961 . S
Li619 O678 1.970 . S
Li619 O679 1.956 1_655 S
C620 C622 1.348 . S
C620 C623 1.356 . S
C620 O676 1.325 . S
N621 C624 1.314 . S
N621 C625 1.279 . S
C622 C620 1.348 . S
C622 C624 1.353 . S
C622 H680 0.929 . S
C623 C620 1.356 . S
C623 C625 1.358 . S
C623 H681 0.930 . S
C624 N621 1.314 . S
C624 C622 1.353 . S
C624 H682 0.930 . S
C625 N621 1.279 . S
C625 C623 1.358 . S
C625 H683 0.930 . S
C626 C629 1.348 . S
C626 C630 1.356 . S
C626 O677 1.325 . S
C627 N628 1.279 . S
C627 C630 1.358 . S
C627 H684 0.930 . S
N628 C627 1.279 . S
N628 C631 1.314 . S
C629 C626 1.348 . S
C629 C631 1.353 . S
C629 H685 0.929 . S
C630 C626 1.356 . S
C630 C627 1.358 . S
C630 H686 0.930 . S
C631 N628 1.314 . S
C631 C629 1.353 . S
C631 H687 0.930 . S
C632 N633 1.314 . S
C632 C637 1.353 . S
C632 H638 0.930 . S
N633 Li616 1.990 . S
N633 C632 1.314 . S
N633 C635 1.279 . S
C634 C635 1.358 . S
C634 C636 1.356 . S
C634 H688 0.930 . S
C635 N633 1.279 . S
C635 C634 1.358 . S
C635 H639 0.930 1_655 S
C636 C634 1.356 . S
C636 C637 1.348 . S
C637 C632 1.353 . S
C637 C636 1.348 . S
C637 H689 0.929 . S
H638 C632 0.930 . S
H639 C635 0.930 1_455 S
C640 N641 1.314 . S
C640 C642 1.353 . S
C640 H646 0.930 . S
N641 Li617 1.990 . S
N641 C640 1.314 . S
N641 C644 1.279 . S
C642 C640 1.353 . S
C642 C645 1.348 . S
C642 H690 0.929 . S
C643 C644 1.358 . S
C643 C645 1.356 . S
C643 H691 0.930 . S
C644 N641 1.279 . S
C644 C643 1.358 . S
C644 H647 0.930 . S
C645 C642 1.348 . S
C645 C643 1.356 . S
H646 C640 0.930 . S
H647 C644 0.930 . S
C648 C650 1.348 . S
C648 C651 1.356 . S
C648 O678 1.325 . S
N649 C652 1.314 . S
N649 C653 1.279 . S
C650 C648 1.348 . S
C650 C652 1.353 . S
C650 H692 0.929 . S
C651 C648 1.356 . S
C651 C653 1.358 . S
C651 H693 0.930 . S
C652 N649 1.314 . S
C652 C650 1.353 . S
C652 H694 0.930 . S
C653 N649 1.279 . S
C653 C651 1.358 . S
C653 H695 0.930 . S
C654 C655 1.348 . S
C654 C656 1.356 . S
C654 O679 1.325 . S
C655 C654 1.348 . S
C655 C657 1.353 . S
C655 H696 0.929 . S
C656 C654 1.356 . S
C656 C658 1.358 . S
C656 H697 0.930 . S
C657 C655 1.353 . S
C657 N659 1.314 . S
C657 H698 0.930 . S
C658 C656 1.358 . S
C658 N659 1.279 . S
C658 H699 0.930 . S
N659 C657 1.314 . S
N659 C658 1.279 . S
C660 C662 1.353 . S
C660 N663 1.314 . S
C660 H666 0.930 . S
C661 N663 1.279 . S
C661 C664 1.358 . S
C661 H667 0.930 1_455 S
C662 C660 1.353 . S
C662 C665 1.348 . S
C662 H700 0.929 . S
N663 Li618 1.990 . S
N663 C660 1.314 . S
N663 C661 1.279 . S
C664 C661 1.358 . S
C664 C665 1.356 . S
C664 H701 0.930 . S
C665 C662 1.348 . S
C665 C664 1.356 . S
H666 C660 0.930 . S
H667 C661 0.930 1_655 S
C668 N669 1.314 . S
C668 C670 1.353 . S
C668 H674 0.930 . S
N669 Li619 1.990 . S
N669 C668 1.314 . S
N669 C672 1.279 . S
C670 C668 1.353 . S
C670 C673 1.348 . S
C670 H702 0.929 . S
C671 C672 1.358 . S
C671 C673 1.356 . S
C671 H703 0.930 . S
C672 N669 1.279 . S
C672 C671 1.358 . S
C672 H675 0.930 . S
C673 C670 1.348 . S
C673 C671 1.356 . S
H674 C668 0.930 . S
H675 C672 0.930 . S
O676 Li616 1.956 1_455 S
O676 Li617 1.970 . S
O676 Li618 1.961 . S
O676 C620 1.325 . S
O677 Li616 1.970 . S
O677 Li617 1.956 1_655 S
O677 Li619 1.961 . S
O677 C626 1.325 . S
O678 Li616 1.961 . S
O678 Li618 1.956 1_655 S
O678 Li619 1.970 . S
O678 C648 1.325 . S
O679 Li617 1.961 . S
O679 Li618 1.970 . S
O679 Li619 1.956 1_455 S
O679 C654 1.325 . S
H680 C622 0.929 . S
H681 C623 0.930 . S
H682 C624 0.930 . S
H683 C625 0.930 . S
H684 C627 0.930 . S
H685 C629 0.929 . S
H686 C630 0.930 . S
H687 C631 0.930 . S
H688 C634 0.930 . S
H689 C637 0.929 . S
H690 C642 0.929 . S
H691 C643 0.930 . S
H692 C650 0.929 . S
H693 C651 0.930 . S
H694 C652 0.930 . S
H695 C653 0.930 . S
H696 C655 0.929 . S
H697 C656 0.930 . S
H698 C657 0.930 . S
H699 C658 0.930 . S
H700 C662 0.929 . S
H701 C664 0.930 . S
H702 C670 0.929 . S
H703 C671 0.930 . S
Li704 N721 1.990 . S
Li704 O764 1.956 . S
Li704 O765 1.970 . S
Li704 O766 1.961 1_545 S
Li705 N729 1.990 . S
Li705 O764 1.970 . S
Li705 O765 1.956 . S
Li705 O767 1.961 1_545 S
Li706 N751 1.990 . S
Li706 O764 1.961 1_565 S
Li706 O766 1.956 . S
Li706 O767 1.970 . S
Li707 N757 1.990 . S
Li707 O765 1.961 1_565 S
Li707 O766 1.970 . S
Li707 O767 1.956 . S
C708 C710 1.348 . S
C708 C711 1.356 . S
C708 O764 1.325 . S
N709 C712 1.314 . S
N709 C713 1.279 . S
C710 C708 1.348 . S
C710 C712 1.353 . S
C710 H768 0.929 . S
C711 C708 1.356 . S
C711 C713 1.358 . S
C711 H769 0.930 . S
C712 N709 1.314 . S
C712 C710 1.353 . S
C712 H770 0.930 . S
C713 N709 1.279 . S
C713 C711 1.358 . S
C713 H771 0.930 . S
C714 C717 1.348 . S
C714 C718 1.356 . S
C714 O765 1.325 . S
C715 N716 1.279 . S
C715 C718 1.358 . S
C715 H772 0.930 . S
N716 C715 1.279 . S
N716 C719 1.314 . S
C717 C714 1.348 . S
C717 C719 1.353 . S
C717 H773 0.929 . S
C718 C714 1.356 . S
C718 C715 1.358 . S
C718 H774 0.930 . S
C719 N716 1.314 . S
C719 C717 1.353 . S
C719 H775 0.930 . S
C720 N721 1.314 . S
C720 C725 1.353 . S
C720 H726 0.930 . S
N721 Li704 1.990 . S
N721 C720 1.314 . S
N721 C723 1.279 . S
C722 C723 1.358 . S
C722 C724 1.356 . S
C722 H776 0.930 . S
C723 N721 1.279 . S
C723 C722 1.358 . S
C723 H727 0.930 . S
C724 C722 1.356 . S
C724 C725 1.348 . S
C725 C720 1.353 . S
C725 C724 1.348 . S
C725 H777 0.929 . S
H726 C720 0.930 . S
H727 C723 0.930 . S
C728 N729 1.314 . S
C728 C730 1.353 . S
C728 H734 0.930 1_545 S
N729 Li705 1.990 . S
N729 C728 1.314 . S
N729 C732 1.279 . S
C730 C728 1.353 . S
C730 C733 1.348 . S
C730 H778 0.929 . S
C731 C732 1.358 . S
C731 C733 1.356 . S
C731 H779 0.930 . S
C732 N729 1.279 . S
C732 C731 1.358 . S
C732 H735 0.930 . S
C733 C730 1.348 . S
C733 C731 1.356 . S
H734 C728 0.930 1_565 S
H735 C732 0.930 . S
C736 C738 1.348 . S
C736 C739 1.356 . S
C736 O766 1.325 . S
N737 C740 1.314 . S
N737 C741 1.279 . S
C738 C736 1.348 . S
C738 C740 1.353 . S
C738 H780 0.929 . S
C739 C736 1.356 . S
C739 C741 1.358 . S
C739 H781 0.930 . S
C740 N737 1.314 . S
C740 C738 1.353 . S
C740 H782 0.930 . S
C741 N737 1.279 . S
C741 C739 1.358 . S
C741 H783 0.930 . S
C742 C743 1.348 . S
C742 C744 1.356 . S
C742 O767 1.325 . S
C743 C742 1.348 . S
C743 C745 1.353 . S
C743 H784 0.929 . S
C744 C742 1.356 . S
C744 C746 1.358 . S
C744 H785 0.930 . S
C745 C743 1.353 . S
C745 N747 1.314 . S
C745 H786 0.930 . S
C746 C744 1.358 . S
C746 N747 1.279 . S
C746 H787 0.930 . S
N747 C745 1.314 . S
N747 C746 1.279 . S
C748 C750 1.353 . S
C748 N751 1.314 . S
C748 H754 0.930 . S
C749 N751 1.279 . S
C749 C752 1.358 . S
C749 H755 0.930 . S
C750 C748 1.353 . S
C750 C753 1.348 . S
C750 H788 0.929 . S
N751 Li706 1.990 . S
N751 C748 1.314 . S
N751 C749 1.279 . S
C752 C749 1.358 . S
C752 C753 1.356 . S
C752 H789 0.930 . S
C753 C750 1.348 . S
C753 C752 1.356 . S
H754 C748 0.930 . S
H755 C749 0.930 . S
C756 N757 1.314 . S
C756 C758 1.353 . S
C756 H762 0.930 1_565 S
N757 Li707 1.990 . S
N757 C756 1.314 . S
N757 C760 1.279 . S
C758 C756 1.353 . S
C758 C761 1.348 . S
C758 H790 0.929 . S
C759 C760 1.358 . S
C759 C761 1.356 . S
C759 H791 0.930 . S
C760 N757 1.279 . S
C760 C759 1.358 . S
C760 H763 0.930 . S
C761 C758 1.348 . S
C761 C759 1.356 . S
H762 C756 0.930 1_545 S
H763 C760 0.930 . S
O764 Li704 1.956 . S
O764 Li705 1.970 . S
O764 Li706 1.961 1_545 S
O764 C708 1.325 . S
O765 Li704 1.970 . S
O765 Li705 1.956 . S
O765 Li707 1.961 1_545 S
O765 C714 1.325 . S
O766 Li704 1.961 1_565 S
O766 Li706 1.956 . S
O766 Li707 1.970 . S
O766 C736 1.325 . S
O767 Li705 1.961 1_565 S
O767 Li706 1.970 . S
O767 Li707 1.956 . S
O767 C742 1.325 . S
H768 C710 0.929 . S
H769 C711 0.930 . S
H770 C712 0.930 . S
H771 C713 0.930 . S
H772 C715 0.930 . S
H773 C717 0.929 . S
H774 C718 0.930 . S
H775 C719 0.930 . S
H776 C722 0.930 . S
H777 C725 0.929 . S
H778 C730 0.929 . S
H779 C731 0.930 . S
H780 C738 0.929 . S
H781 C739 0.930 . S
H782 C740 0.930 . S
H783 C741 0.930 . S
H784 C743 0.929 . S
H785 C744 0.930 . S
H786 C745 0.930 . S
H787 C746 0.930 . S
H788 C750 0.929 . S
H789 C752 0.930 . S
H790 C758 0.929 . S
H791 C759 0.930 . S
Li792 N809 1.990 . S
Li792 O852 1.956 . S
Li792 O853 1.970 . S
Li792 O854 1.961 . S
Li793 N817 1.990 . S
Li793 O852 1.970 . S
Li793 O853 1.956 . S
Li793 O855 1.961 . S
Li794 N839 1.990 . S
Li794 O852 1.961 . S
Li794 O854 1.956 . S
Li794 O855 1.970 . S
Li795 N845 1.990 . S
Li795 O853 1.961 . S
Li795 O854 1.970 . S
Li795 O855 1.956 . S
C796 C798 1.348 . S
C796 C799 1.356 . S
C796 O852 1.325 . S
N797 C800 1.314 . S
N797 C801 1.279 . S
C798 C796 1.348 . S
C798 C800 1.353 . S
C798 H856 0.929 . S
C799 C796 1.356 . S
C799 C801 1.358 . S
C799 H857 0.930 . S
C800 N797 1.314 . S
C800 C798 1.353 . S
C800 H858 0.930 . S
C801 N797 1.279 . S
C801 C799 1.358 . S
C801 H859 0.930 . S
C802 C805 1.348 . S
C802 C806 1.356 . S
C802 O853 1.325 . S
C803 N804 1.279 . S
C803 C806 1.358 . S
C803 H860 0.930 . S
N804 C803 1.279 . S
N804 C807 1.314 . S
C805 C802 1.348 . S
C805 C807 1.353 . S
C805 H861 0.929 . S
C806 C802 1.356 . S
C806 C803 1.358 . S
C806 H862 0.930 . S
C807 N804 1.314 . S
C807 C805 1.353 . S
C807 H863 0.930 . S
C808 N809 1.314 . S
C808 C813 1.353 . S
C808 H814 0.930 . S
N809 Li792 1.990 . S
N809 C808 1.314 . S
N809 C811 1.279 . S
C810 C811 1.358 . S
C810 C812 1.356 . S
C810 H864 0.930 . S
C811 N809 1.279 . S
C811 C810 1.358 . S
C811 H815 0.930 . S
C812 C810 1.356 . S
C812 C813 1.348 . S
C813 C808 1.353 . S
C813 C812 1.348 . S
C813 H865 0.929 . S
H814 C808 0.930 . S
H815 C811 0.930 . S
C816 N817 1.314 . S
C816 C818 1.353 . S
C816 H822 0.930 . S
N817 Li793 1.990 . S
N817 C816 1.314 . S
N817 C820 1.279 . S
C818 C816 1.353 . S
C818 C821 1.348 . S
C818 H866 0.929 . S
C819 C820 1.358 . S
C819 C821 1.356 . S
C819 H867 0.930 . S
C820 N817 1.279 . S
C820 C819 1.358 . S
C820 H823 0.930 . S
C821 C818 1.348 . S
C821 C819 1.356 . S
H822 C816 0.930 . S
H823 C820 0.930 . S
C824 C826 1.348 . S
C824 C827 1.356 . S
C824 O854 1.325 . S
N825 C828 1.314 . S
N825 C829 1.279 . S
C826 C824 1.348 . S
C826 C828 1.353 . S
C826 H868 0.929 . S
C827 C824 1.356 . S
C827 C829 1.358 . S
C827 H869 0.930 . S
C828 N825 1.314 . S
C828 C826 1.353 . S
C828 H870 0.930 . S
C829 N825 1.279 . S
C829 C827 1.358 . S
C829 H871 0.930 . S
C830 C831 1.348 . S
C830 C832 1.356 . S
C830 O855 1.325 . S
C831 C830 1.348 . S
C831 C833 1.353 . S
C831 H872 0.929 . S
C832 C830 1.356 . S
C832 C834 1.358 . S
C832 H873 0.930 . S
C833 C831 1.353 . S
C833 N835 1.314 . S
C833 H874 0.930 . S
C834 C832 1.358 . S
C834 N835 1.279 . S
C834 H875 0.930 . S
N835 C833 1.314 . S
N835 C834 1.279 . S
C836 C838 1.353 . S
C836 N839 1.314 . S
C836 H842 0.930 . S
C837 N839 1.279 . S
C837 C840 1.358 . S
C837 H843 0.930 . S
C838 C836 1.353 . S
C838 C841 1.348 . S
C838 H876 0.929 . S
N839 Li794 1.990 . S
N839 C836 1.314 . S
N839 C837 1.279 . S
C840 C837 1.358 . S
C840 C841 1.356 . S
C840 H877 0.930 . S
C841 C838 1.348 . S
C841 C840 1.356 . S
H842 C836 0.930 . S
H843 C837 0.930 . S
C844 N845 1.314 . S
C844 C846 1.353 . S
C844 H850 0.930 . S
N845 Li795 1.990 . S
N845 C844 1.314 . S
N845 C848 1.279 . S
C846 C844 1.353 . S
C846 C849 1.348 . S
C846 H878 0.929 . S
C847 C848 1.358 . S
C847 C849 1.356 . S
C847 H879 0.930 . S
C848 N845 1.279 . S
C848 C847 1.358 . S
C848 H851 0.930 . S
C849 C846 1.348 . S
C849 C847 1.356 . S
H850 C844 0.930 . S
H851 C848 0.930 . S
O852 Li792 1.956 . S
O852 Li793 1.970 . S
O852 Li794 1.961 . S
O852 C796 1.325 . S
O853 Li792 1.970 . S
O853 Li793 1.956 . S
O853 Li795 1.961 . S
O853 C802 1.325 . S
O854 Li792 1.961 . S
O854 Li794 1.956 . S
O854 Li795 1.970 . S
O854 C824 1.325 . S
O855 Li793 1.961 . S
O855 Li794 1.970 . S
O855 Li795 1.956 . S
O855 C830 1.325 . S
H856 C798 0.929 . S
H857 C799 0.930 . S
H858 C800 0.930 . S
H859 C801 0.930 . S
H860 C803 0.930 . S
H861 C805 0.929 . S
H862 C806 0.930 . S
H863 C807 0.930 . S
H864 C810 0.930 . S
H865 C813 0.929 . S
H866 C818 0.929 . S
H867 C819 0.930 . S
H868 C826 0.929 . S
H869 C827 0.930 . S
H870 C828 0.930 . S
H871 C829 0.930 . S
H872 C831 0.929 . S
H873 C832 0.930 . S
H874 C833 0.930 . S
H875 C834 0.930 . S
H876 C838 0.929 . S
H877 C840 0.930 . S
H878 C846 0.929 . S
H879 C847 0.930 . S
Li880 N897 1.990 . S
Li880 O940 1.956 . S
Li880 O941 1.970 . S
Li880 O942 1.961 1_545 S
Li881 N905 1.990 . S
Li881 O940 1.970 . S
Li881 O941 1.956 . S
Li881 O943 1.961 1_545 S
Li882 N927 1.990 . S
Li882 O940 1.961 1_565 S
Li882 O942 1.956 . S
Li882 O943 1.970 . S
Li883 N933 1.990 . S
Li883 O941 1.961 1_565 S
Li883 O942 1.970 . S
Li883 O943 1.956 . S
C884 C886 1.348 . S
C884 C887 1.356 . S
C884 O940 1.325 . S
N885 C888 1.314 . S
N885 C889 1.279 . S
C886 C884 1.348 . S
C886 C888 1.353 . S
C886 H944 0.929 . S
C887 C884 1.356 . S
C887 C889 1.358 . S
C887 H945 0.930 . S
C888 N885 1.314 . S
C888 C886 1.353 . S
C888 H946 0.930 . S
C889 N885 1.279 . S
C889 C887 1.358 . S
C889 H947 0.930 . S
C890 C893 1.348 . S
C890 C894 1.356 . S
C890 O941 1.325 . S
C891 N892 1.279 . S
C891 C894 1.358 . S
C891 H948 0.930 . S
N892 C891 1.279 . S
N892 C895 1.314 . S
C893 C890 1.348 . S
C893 C895 1.353 . S
C893 H949 0.929 . S
C894 C890 1.356 . S
C894 C891 1.358 . S
C894 H950 0.930 . S
C895 N892 1.314 . S
C895 C893 1.353 . S
C895 H951 0.930 . S
C896 N897 1.314 . S
C896 C901 1.353 . S
C896 H902 0.930 1_545 S
N897 Li880 1.990 . S
N897 C896 1.314 . S
N897 C899 1.279 . S
C898 C899 1.358 . S
C898 C900 1.356 . S
C898 H952 0.930 . S
C899 N897 1.279 . S
C899 C898 1.358 . S
C899 H903 0.930 . S
C900 C898 1.356 . S
C900 C901 1.348 . S
C901 C896 1.353 . S
C901 C900 1.348 . S
C901 H953 0.929 . S
H902 C896 0.930 1_565 S
H903 C899 0.930 . S
C904 N905 1.314 . S
C904 C906 1.353 . S
C904 H910 0.930 . S
N905 Li881 1.990 . S
N905 C904 1.314 . S
N905 C908 1.279 . S
C906 C904 1.353 . S
C906 C909 1.348 . S
C906 H954 0.929 . S
C907 C908 1.358 . S
C907 C909 1.356 . S
C907 H955 0.930 . S
C908 N905 1.279 . S
C908 C907 1.358 . S
C908 H911 0.930 . S
C909 C906 1.348 . S
C909 C907 1.356 . S
H910 C904 0.930 . S
H911 C908 0.930 . S
C912 C914 1.348 . S
C912 C915 1.356 . S
C912 O942 1.325 . S
N913 C916 1.314 . S
N913 C917 1.279 . S
C914 C912 1.348 . S
C914 C916 1.353 . S
C914 H956 0.929 . S
C915 C912 1.356 . S
C915 C917 1.358 . S
C915 H957 0.930 . S
C916 N913 1.314 . S
C916 C914 1.353 . S
C916 H958 0.930 . S
C917 N913 1.279 . S
C917 C915 1.358 . S
C917 H959 0.930 . S
C918 C919 1.348 . S
C918 C920 1.356 . S
C918 O943 1.325 . S
C919 C918 1.348 . S
C919 C921 1.353 . S
C919 H960 0.929 . S
C920 C918 1.356 . S
C920 C922 1.358 . S
C920 H961 0.930 . S
C921 C919 1.353 . S
C921 N923 1.314 . S
C921 H962 0.930 . S
C922 C920 1.358 . S
C922 N923 1.279 . S
C922 H963 0.930 . S
N923 C921 1.314 . S
N923 C922 1.279 . S
C924 C926 1.353 . S
C924 N927 1.314 . S
C924 H930 0.930 1_565 S
C925 N927 1.279 . S
C925 C928 1.358 . S
C925 H931 0.930 . S
C926 C924 1.353 . S
C926 C929 1.348 . S
C926 H964 0.929 . S
N927 Li882 1.990 . S
N927 C924 1.314 . S
N927 C925 1.279 . S
C928 C925 1.358 . S
C928 C929 1.356 . S
C928 H965 0.930 . S
C929 C926 1.348 . S
C929 C928 1.356 . S
H930 C924 0.930 1_545 S
H931 C925 0.930 . S
C932 N933 1.314 . S
C932 C934 1.353 . S
C932 H938 0.930 . S
N933 Li883 1.990 . S
N933 C932 1.314 . S
N933 C936 1.279 . S
C934 C932 1.353 . S
C934 C937 1.348 . S
C934 H966 0.929 . S
C935 C936 1.358 . S
C935 C937 1.356 . S
C935 H967 0.930 . S
C936 N933 1.279 . S
C936 C935 1.358 . S
C936 H939 0.930 . S
C937 C934 1.348 . S
C937 C935 1.356 . S
H938 C932 0.930 . S
H939 C936 0.930 . S
O940 Li880 1.956 . S
O940 Li881 1.970 . S
O940 Li882 1.961 1_545 S
O940 C884 1.325 . S
O941 Li880 1.970 . S
O941 Li881 1.956 . S
O941 Li883 1.961 1_545 S
O941 C890 1.325 . S
O942 Li880 1.961 1_565 S
O942 Li882 1.956 . S
O942 Li883 1.970 . S
O942 C912 1.325 . S
O943 Li881 1.961 1_565 S
O943 Li882 1.970 . S
O943 Li883 1.956 . S
O943 C918 1.325 . S
H944 C886 0.929 . S
H945 C887 0.930 . S
H946 C888 0.930 . S
H947 C889 0.930 . S
H948 C891 0.930 . S
H949 C893 0.929 . S
H950 C894 0.930 . S
H951 C895 0.930 . S
H952 C898 0.930 . S
H953 C901 0.929 . S
H954 C906 0.929 . S
H955 C907 0.930 . S
H956 C914 0.929 . S
H957 C915 0.930 . S
H958 C916 0.930 . S
H959 C917 0.930 . S
H960 C919 0.929 . S
H961 C920 0.930 . S
H962 C921 0.930 . S
H963 C922 0.930 . S
H964 C926 0.929 . S
H965 C928 0.930 . S
H966 C934 0.929 . S
H967 C935 0.930 . S
Li968 N985 1.990 . S
Li968 O1028 1.956 1_556 S
Li968 O1029 1.970 . S
Li968 O1030 1.961 . S
Li969 N993 1.990 . S
Li969 O1028 1.970 . S
Li969 O1029 1.956 1_554 S
Li969 O1031 1.961 . S
Li970 N1015 1.990 . S
Li970 O1028 1.961 . S
Li970 O1030 1.956 1_554 S
Li970 O1031 1.970 . S
Li971 N1021 1.990 . S
Li971 O1029 1.961 . S
Li971 O1030 1.970 . S
Li971 O1031 1.956 1_556 S
C972 C974 1.348 . S
C972 C975 1.356 . S
C972 O1028 1.325 . S
N973 C976 1.314 . S
N973 C977 1.279 . S
C974 C972 1.348 . S
C974 C976 1.353 . S
C974 H1032 0.929 . S
C975 C972 1.356 . S
C975 C977 1.358 . S
C975 H1033 0.930 . S
C976 N973 1.314 . S
C976 C974 1.353 . S
C976 H1034 0.930 . S
C977 N973 1.279 . S
C977 C975 1.358 . S
C977 H1035 0.930 . S
C978 C981 1.348 . S
C978 C982 1.356 . S
C978 O1029 1.325 . S
C979 N980 1.279 . S
C979 C982 1.358 . S
C979 H1036 0.930 . S
N980 C979 1.279 . S
N980 C983 1.314 . S
C981 C978 1.348 . S
C981 C983 1.353 . S
C981 H1037 0.929 . S
C982 C978 1.356 . S
C982 C979 1.358 . S
C982 H1038 0.930 . S
C983 N980 1.314 . S
C983 C981 1.353 . S
C983 H1039 0.930 . S
C984 N985 1.314 . S
C984 C989 1.353 . S
C984 H990 0.930 . S
N985 Li968 1.990 . S
N985 C984 1.314 . S
N985 C987 1.279 . S
C986 C987 1.358 . S
C986 C988 1.356 . S
C986 H1040 0.930 . S
C987 N985 1.279 . S
C987 C986 1.358 . S
C987 H991 0.930 1_556 S
C988 C986 1.356 . S
C988 C989 1.348 . S
C989 C984 1.353 . S
C989 C988 1.348 . S
C989 H1041 0.929 . S
H990 C984 0.930 . S
H991 C987 0.930 1_554 S
C992 N993 1.314 . S
C992 C994 1.353 . S
C992 H998 0.930 . S
N993 Li969 1.990 . S
N993 C992 1.314 . S
N993 C996 1.279 . S
C994 C992 1.353 . S
C994 C997 1.348 . S
C994 H1042 0.929 . S
C995 C996 1.358 . S
C995 C997 1.356 . S
C995 H1043 0.930 . S
C996 N993 1.279 . S
C996 C995 1.358 . S
C996 H999 0.930 . S
C997 C994 1.348 . S
C997 C995 1.356 . S
H998 C992 0.930 . S
H999 C996 0.930 . S
C1000 C1002 1.348 . S
C1000 C1003 1.356 . S
C1000 O1030 1.325 . S
N1001 C1004 1.314 . S
N1001 C1005 1.279 . S
C1002 C1000 1.348 . S
C1002 C1004 1.353 . S
C1002 H1044 0.929 . S
C1003 C1000 1.356 . S
C1003 C1005 1.358 . S
C1003 H1045 0.930 . S
C1004 N1001 1.314 . S
C1004 C1002 1.353 . S
C1004 H1046 0.930 . S
C1005 N1001 1.279 . S
C1005 C1003 1.358 . S
C1005 H1047 0.930 . S
C1006 C1007 1.348 . S
C1006 C1008 1.356 . S
C1006 O1031 1.325 . S
C1007 C1006 1.348 . S
C1007 C1009 1.353 . S
C1007 H1048 0.929 . S
C1008 C1006 1.356 . S
C1008 C1010 1.358 . S
C1008 H1049 0.930 . S
C1009 C1007 1.353 . S
C1009 N1011 1.314 . S
C1009 H1050 0.930 . S
C1010 C1008 1.358 . S
C1010 N1011 1.279 . S
C1010 H1051 0.930 . S
N1011 C1009 1.314 . S
N1011 C1010 1.279 . S
C1012 C1014 1.353 . S
C1012 N1015 1.314 . S
C1012 H1018 0.930 . S
C1013 N1015 1.279 . S
C1013 C1016 1.358 . S
C1013 H1019 0.930 1_554 S
C1014 C1012 1.353 . S
C1014 C1017 1.348 . S
C1014 H1052 0.929 . S
N1015 Li970 1.990 . S
N1015 C1012 1.314 . S
N1015 C1013 1.279 . S
C1016 C1013 1.358 . S
C1016 C1017 1.356 . S
C1016 H1053 0.930 . S
C1017 C1014 1.348 . S
C1017 C1016 1.356 . S
H1018 C1012 0.930 . S
H1019 C1013 0.930 1_556 S
C1020 N1021 1.314 . S
C1020 C1022 1.353 . S
C1020 H1026 0.930 . S
N1021 Li971 1.990 . S
N1021 C1020 1.314 . S
N1021 C1024 1.279 . S
C1022 C1020 1.353 . S
C1022 C1025 1.348 . S
C1022 H1054 0.929 . S
C1023 C1024 1.358 . S
C1023 C1025 1.356 . S
C1023 H1055 0.930 . S
C1024 N1021 1.279 . S
C1024 C1023 1.358 . S
C1024 H1027 0.930 . S
C1025 C1022 1.348 . S
C1025 C1023 1.356 . S
H1026 C1020 0.930 . S
H1027 C1024 0.930 . S
O1028 Li968 1.956 1_554 S
O1028 Li969 1.970 . S
O1028 Li970 1.961 . S
O1028 C972 1.325 . S
O1029 Li968 1.970 . S
O1029 Li969 1.956 1_556 S
O1029 Li971 1.961 . S
O1029 C978 1.325 . S
O1030 Li968 1.961 . S
O1030 Li970 1.956 1_556 S
O1030 Li971 1.970 . S
O1030 C1000 1.325 . S
O1031 Li969 1.961 . S
O1031 Li970 1.970 . S
O1031 Li971 1.956 1_554 S
O1031 C1006 1.325 . S
H1032 C974 0.929 . S
H1033 C975 0.930 . S
H1034 C976 0.930 . S
H1035 C977 0.930 . S
H1036 C979 0.930 . S
H1037 C981 0.929 . S
H1038 C982 0.930 . S
H1039 C983 0.930 . S
H1040 C986 0.930 . S
H1041 C989 0.929 . S
H1042 C994 0.929 . S
H1043 C995 0.930 . S
H1044 C1002 0.929 . S
H1045 C1003 0.930 . S
H1046 C1004 0.930 . S
H1047 C1005 0.930 . S
H1048 C1007 0.929 . S
H1049 C1008 0.930 . S
H1050 C1009 0.930 . S
H1051 C1010 0.930 . S
H1052 C1014 0.929 . S
H1053 C1016 0.930 . S
H1054 C1022 0.929 . S
H1055 C1023 0.930 . S
Li1056 N1073 1.990 . S
Li1056 O1116 1.956 . S
Li1056 O1117 1.970 . S
Li1056 O1118 1.961 1_554 S
Li1057 N1081 1.990 . S
Li1057 O1116 1.970 . S
Li1057 O1117 1.956 . S
Li1057 O1119 1.961 1_554 S
Li1058 N1103 1.990 . S
Li1058 O1116 1.961 1_556 S
Li1058 O1118 1.956 . S
Li1058 O1119 1.970 . S
Li1059 N1109 1.990 . S
Li1059 O1117 1.961 1_556 S
Li1059 O1118 1.970 . S
Li1059 O1119 1.956 . S
C1060 C1062 1.348 . S
C1060 C1063 1.356 . S
C1060 O1116 1.325 . S
N1061 C1064 1.314 . S
N1061 C1065 1.279 . S
C1062 C1060 1.348 . S
C1062 C1064 1.353 . S
C1062 H1120 0.929 . S
C1063 C1060 1.356 . S
C1063 C1065 1.358 . S
C1063 H1121 0.930 . S
C1064 N1061 1.314 . S
C1064 C1062 1.353 . S
C1064 H1122 0.930 . S
C1065 N1061 1.279 . S
C1065 C1063 1.358 . S
C1065 H1123 0.930 . S
C1066 C1069 1.348 . S
C1066 C1070 1.356 . S
C1066 O1117 1.325 . S
C1067 N1068 1.279 . S
C1067 C1070 1.358 . S
C1067 H1124 0.930 . S
N1068 C1067 1.279 . S
N1068 C1071 1.314 . S
C1069 C1066 1.348 . S
C1069 C1071 1.353 . S
C1069 H1125 0.929 . S
C1070 C1066 1.356 . S
C1070 C1067 1.358 . S
C1070 H1126 0.930 . S
C1071 N1068 1.314 . S
C1071 C1069 1.353 . S
C1071 H1127 0.930 . S
C1072 N1073 1.314 . S
C1072 C1077 1.353 . S
C1072 H1078 0.930 . S
N1073 Li1056 1.990 . S
N1073 C1072 1.314 . S
N1073 C1075 1.279 . S
C1074 C1075 1.358 . S
C1074 C1076 1.356 . S
C1074 H1128 0.930 . S
C1075 N1073 1.279 . S
C1075 C1074 1.358 . S
C1075 H1079 0.930 . S
C1076 C1074 1.356 . S
C1076 C1077 1.348 . S
C1077 C1072 1.353 . S
C1077 C1076 1.348 . S
C1077 H1129 0.929 . S
H1078 C1072 0.930 . S
H1079 C1075 0.930 . S
C1080 N1081 1.314 . S
C1080 C1082 1.353 . S
C1080 H1086 0.930 1_554 S
N1081 Li1057 1.990 . S
N1081 C1080 1.314 . S
N1081 C1084 1.279 . S
C1082 C1080 1.353 . S
C1082 C1085 1.348 . S
C1082 H1130 0.929 . S
C1083 C1084 1.358 . S
C1083 C1085 1.356 . S
C1083 H1131 0.930 . S
C1084 N1081 1.279 . S
C1084 C1083 1.358 . S
C1084 H1087 0.930 . S
C1085 C1082 1.348 . S
C1085 C1083 1.356 . S
H1086 C1080 0.930 1_556 S
H1087 C1084 0.930 . S
C1088 C1090 1.348 . S
C1088 C1091 1.356 . S
C1088 O1118 1.325 . S
N1089 C1092 1.314 . S
N1089 C1093 1.279 . S
C1090 C1088 1.348 . S
C1090 C1092 1.353 . S
C1090 H1132 0.929 . S
C1091 C1088 1.356 . S
C1091 C1093 1.358 . S
C1091 H1133 0.930 . S
C1092 N1089 1.314 . S
C1092 C1090 1.353 . S
C1092 H1134 0.930 . S
C1093 N1089 1.279 . S
C1093 C1091 1.358 . S
C1093 H1135 0.930 . S
C1094 C1095 1.348 . S
C1094 C1096 1.356 . S
C1094 O1119 1.325 . S
C1095 C1094 1.348 . S
C1095 C1097 1.353 . S
C1095 H1136 0.929 . S
C1096 C1094 1.356 . S
C1096 C1098 1.358 . S
C1096 H1137 0.930 . S
C1097 C1095 1.353 . S
C1097 N1099 1.314 . S
C1097 H1138 0.930 . S
C1098 C1096 1.358 . S
C1098 N1099 1.279 . S
C1098 H1139 0.930 . S
N1099 C1097 1.314 . S
N1099 C1098 1.279 . S
C1100 C1102 1.353 . S
C1100 N1103 1.314 . S
C1100 H1106 0.930 . S
C1101 N1103 1.279 . S
C1101 C1104 1.358 . S
C1101 H1107 0.930 . S
C1102 C1100 1.353 . S
C1102 C1105 1.348 . S
C1102 H1140 0.929 . S
N1103 Li1058 1.990 . S
N1103 C1100 1.314 . S
N1103 C1101 1.279 . S
C1104 C1101 1.358 . S
C1104 C1105 1.356 . S
C1104 H1141 0.930 . S
C1105 C1102 1.348 . S
C1105 C1104 1.356 . S
H1106 C1100 0.930 . S
H1107 C1101 0.930 . S
C1108 N1109 1.314 . S
C1108 C1110 1.353 . S
C1108 H1114 0.930 1_556 S
N1109 Li1059 1.990 . S
N1109 C1108 1.314 . S
N1109 C1112 1.279 . S
C1110 C1108 1.353 . S
C1110 C1113 1.348 . S
C1110 H1142 0.929 . S
C1111 C1112 1.358 . S
C1111 C1113 1.356 . S
C1111 H1143 0.930 . S
C1112 N1109 1.279 . S
C1112 C1111 1.358 . S
C1112 H1115 0.930 . S
C1113 C1110 1.348 . S
C1113 C1111 1.356 . S
H1114 C1108 0.930 1_554 S
H1115 C1112 0.930 . S
O1116 Li1056 1.956 . S
O1116 Li1057 1.970 . S
O1116 Li1058 1.961 1_554 S
O1116 C1060 1.325 . S
O1117 Li1056 1.970 . S
O1117 Li1057 1.956 . S
O1117 Li1059 1.961 1_554 S
O1117 C1066 1.325 . S
O1118 Li1056 1.961 1_556 S
O1118 Li1058 1.956 . S
O1118 Li1059 1.970 . S
O1118 C1088 1.325 . S
O1119 Li1057 1.961 1_556 S
O1119 Li1058 1.970 . S
O1119 Li1059 1.956 . S
O1119 C1094 1.325 . S
H1120 C1062 0.929 . S
H1121 C1063 0.930 . S
H1122 C1064 0.930 . S
H1123 C1065 0.930 . S
H1124 C1067 0.930 . S
H1125 C1069 0.929 . S
H1126 C1070 0.930 . S
H1127 C1071 0.930 . S
H1128 C1074 0.930 . S
H1129 C1077 0.929 . S
H1130 C1082 0.929 . S
H1131 C1083 0.930 . S
H1132 C1090 0.929 . S
H1133 C1091 0.930 . S
H1134 C1092 0.930 . S
H1135 C1093 0.930 . S
H1136 C1095 0.929 . S
H1137 C1096 0.930 . S
H1138 C1097 0.930 . S
H1139 C1098 0.930 . S
H1140 C1102 0.929 . S
H1141 C1104 0.930 . S
H1142 C1110 0.929 . S
H1143 C1111 0.930 . S
Li1144 N1161 1.990 . S
Li1144 O1204 1.956 . S
Li1144 O1205 1.970 . S
Li1144 O1206 1.961 1_554 S
Li1145 N1169 1.990 . S
Li1145 O1204 1.970 . S
Li1145 O1205 1.956 . S
Li1145 O1207 1.961 1_554 S
Li1146 N1191 1.990 . S
Li1146 O1204 1.961 1_556 S
Li1146 O1206 1.956 . S
Li1146 O1207 1.970 . S
Li1147 N1197 1.990 . S
Li1147 O1205 1.961 1_556 S
Li1147 O1206 1.970 . S
Li1147 O1207 1.956 . S
C1148 C1150 1.348 . S
C1148 C1151 1.356 . S
C1148 O1204 1.325 . S
N1149 C1152 1.314 . S
N1149 C1153 1.279 . S
C1150 C1148 1.348 . S
C1150 C1152 1.353 . S
C1150 H1208 0.929 . S
C1151 C1148 1.356 . S
C1151 C1153 1.358 . S
C1151 H1209 0.930 . S
C1152 N1149 1.314 . S
C1152 C1150 1.353 . S
C1152 H1210 0.930 . S
C1153 N1149 1.279 . S
C1153 C1151 1.358 . S
C1153 H1211 0.930 . S
C1154 C1157 1.348 . S
C1154 C1158 1.356 . S
C1154 O1205 1.325 . S
C1155 N1156 1.279 . S
C1155 C1158 1.358 . S
C1155 H1212 0.930 . S
N1156 C1155 1.279 . S
N1156 C1159 1.314 . S
C1157 C1154 1.348 . S
C1157 C1159 1.353 . S
C1157 H1213 0.929 . S
C1158 C1154 1.356 . S
C1158 C1155 1.358 . S
C1158 H1214 0.930 . S
C1159 N1156 1.314 . S
C1159 C1157 1.353 . S
C1159 H1215 0.930 . S
C1160 N1161 1.314 . S
C1160 C1165 1.353 . S
C1160 H1166 0.930 1_554 S
N1161 Li1144 1.990 . S
N1161 C1160 1.314 . S
N1161 C1163 1.279 . S
C1162 C1163 1.358 . S
C1162 C1164 1.356 . S
C1162 H1216 0.930 . S
C1163 N1161 1.279 . S
C1163 C1162 1.358 . S
C1163 H1167 0.930 . S
C1164 C1162 1.356 . S
C1164 C1165 1.348 . S
C1165 C1160 1.353 . S
C1165 C1164 1.348 . S
C1165 H1217 0.929 . S
H1166 C1160 0.930 1_556 S
H1167 C1163 0.930 . S
C1168 N1169 1.314 . S
C1168 C1170 1.353 . S
C1168 H1174 0.930 . S
N1169 Li1145 1.990 . S
N1169 C1168 1.314 . S
N1169 C1172 1.279 . S
C1170 C1168 1.353 . S
C1170 C1173 1.348 . S
C1170 H1218 0.929 . S
C1171 C1172 1.358 . S
C1171 C1173 1.356 . S
C1171 H1219 0.930 . S
C1172 N1169 1.279 . S
C1172 C1171 1.358 . S
C1172 H1175 0.930 . S
C1173 C1170 1.348 . S
C1173 C1171 1.356 . S
H1174 C1168 0.930 . S
H1175 C1172 0.930 . S
C1176 C1178 1.348 . S
C1176 C1179 1.356 . S
C1176 O1206 1.325 . S
N1177 C1180 1.314 . S
N1177 C1181 1.279 . S
C1178 C1176 1.348 . S
C1178 C1180 1.353 . S
C1178 H1220 0.929 . S
C1179 C1176 1.356 . S
C1179 C1181 1.358 . S
C1179 H1221 0.930 . S
C1180 N1177 1.314 . S
C1180 C1178 1.353 . S
C1180 H1222 0.930 . S
C1181 N1177 1.279 . S
C1181 C1179 1.358 . S
C1181 H1223 0.930 . S
C1182 C1183 1.348 . S
C1182 C1184 1.356 . S
C1182 O1207 1.325 . S
C1183 C1182 1.348 . S
C1183 C1185 1.353 . S
C1183 H1224 0.929 . S
C1184 C1182 1.356 . S
C1184 C1186 1.358 . S
C1184 H1225 0.930 . S
C1185 C1183 1.353 . S
C1185 N1187 1.314 . S
C1185 H1226 0.930 . S
C1186 C1184 1.358 . S
C1186 N1187 1.279 . S
C1186 H1227 0.930 . S
N1187 C1185 1.314 . S
N1187 C1186 1.279 . S
C1188 C1190 1.353 . S
C1188 N1191 1.314 . S
C1188 H1194 0.930 1_556 S
C1189 N1191 1.279 . S
C1189 C1192 1.358 . S
C1189 H1195 0.930 . S
C1190 C1188 1.353 . S
C1190 C1193 1.348 . S
C1190 H1228 0.929 . S
N1191 Li1146 1.990 . S
N1191 C1188 1.314 . S
N1191 C1189 1.279 . S
C1192 C1189 1.358 . S
C1192 C1193 1.356 . S
C1192 H1229 0.930 . S
C1193 C1190 1.348 . S
C1193 C1192 1.356 . S
H1194 C1188 0.930 1_554 S
H1195 C1189 0.930 . S
C1196 N1197 1.314 . S
C1196 C1198 1.353 . S
C1196 H1202 0.930 . S
N1197 Li1147 1.990 . S
N1197 C1196 1.314 . S
N1197 C1200 1.279 . S
C1198 C1196 1.353 . S
C1198 C1201 1.348 . S
C1198 H1230 0.929 . S
C1199 C1200 1.358 . S
C1199 C1201 1.356 . S
C1199 H1231 0.930 . S
C1200 N1197 1.279 . S
C1200 C1199 1.358 . S
C1200 H1203 0.930 . S
C1201 C1198 1.348 . S
C1201 C1199 1.356 . S
H1202 C1196 0.930 . S
H1203 C1200 0.930 . S
O1204 Li1144 1.956 . S
O1204 Li1145 1.970 . S
O1204 Li1146 1.961 1_554 S
O1204 C1148 1.325 . S
O1205 Li1144 1.970 . S
O1205 Li1145 1.956 . S
O1205 Li1147 1.961 1_554 S
O1205 C1154 1.325 . S
O1206 Li1144 1.961 1_556 S
O1206 Li1146 1.956 . S
O1206 Li1147 1.970 . S
O1206 C1176 1.325 . S
O1207 Li1145 1.961 1_556 S
O1207 Li1146 1.970 . S
O1207 Li1147 1.956 . S
O1207 C1182 1.325 . S
H1208 C1150 0.929 . S
H1209 C1151 0.930 . S
H1210 C1152 0.930 . S
H1211 C1153 0.930 . S
H1212 C1155 0.930 . S
H1213 C1157 0.929 . S
H1214 C1158 0.930 . S
H1215 C1159 0.930 . S
H1216 C1162 0.930 . S
H1217 C1165 0.929 . S
H1218 C1170 0.929 . S
H1219 C1171 0.930 . S
H1220 C1178 0.929 . S
H1221 C1179 0.930 . S
H1222 C1180 0.930 . S
H1223 C1181 0.930 . S
H1224 C1183 0.929 . S
H1225 C1184 0.930 . S
H1226 C1185 0.930 . S
H1227 C1186 0.930 . S
H1228 C1190 0.929 . S
H1229 C1192 0.930 . S
H1230 C1198 0.929 . S
H1231 C1199 0.930 . S
Li1232 N1249 1.990 . S
Li1232 O1292 1.956 . S
Li1232 O1293 1.970 . S
Li1232 O1294 1.961 . S
Li1233 N1257 1.990 . S
Li1233 O1292 1.970 . S
Li1233 O1293 1.956 . S
Li1233 O1295 1.961 . S
Li1234 N1279 1.990 . S
Li1234 O1292 1.961 . S
Li1234 O1294 1.956 . S
Li1234 O1295 1.970 . S
Li1235 N1285 1.990 . S
Li1235 O1293 1.961 . S
Li1235 O1294 1.970 . S
Li1235 O1295 1.956 . S
C1236 C1238 1.348 . S
C1236 C1239 1.356 . S
C1236 O1292 1.325 . S
N1237 C1240 1.314 . S
N1237 C1241 1.279 . S
C1238 C1236 1.348 . S
C1238 C1240 1.353 . S
C1238 H1296 0.929 . S
C1239 C1236 1.356 . S
C1239 C1241 1.358 . S
C1239 H1297 0.930 . S
C1240 N1237 1.314 . S
C1240 C1238 1.353 . S
C1240 H1298 0.930 . S
C1241 N1237 1.279 . S
C1241 C1239 1.358 . S
C1241 H1299 0.930 . S
C1242 C1245 1.348 . S
C1242 C1246 1.356 . S
C1242 O1293 1.325 . S
C1243 N1244 1.279 . S
C1243 C1246 1.358 . S
C1243 H1300 0.930 . S
N1244 C1243 1.279 . S
N1244 C1247 1.314 . S
C1245 C1242 1.348 . S
C1245 C1247 1.353 . S
C1245 H1301 0.929 . S
C1246 C1242 1.356 . S
C1246 C1243 1.358 . S
C1246 H1302 0.930 . S
C1247 N1244 1.314 . S
C1247 C1245 1.353 . S
C1247 H1303 0.930 . S
C1248 N1249 1.314 . S
C1248 C1253 1.353 . S
C1248 H1254 0.930 . S
N1249 Li1232 1.990 . S
N1249 C1248 1.314 . S
N1249 C1251 1.279 . S
C1250 C1251 1.358 . S
C1250 C1252 1.356 . S
C1250 H1304 0.930 . S
C1251 N1249 1.279 . S
C1251 C1250 1.358 . S
C1251 H1255 0.930 . S
C1252 C1250 1.356 . S
C1252 C1253 1.348 . S
C1253 C1248 1.353 . S
C1253 C1252 1.348 . S
C1253 H1305 0.929 . S
H1254 C1248 0.930 . S
H1255 C1251 0.930 . S
C1256 N1257 1.314 . S
C1256 C1258 1.353 . S
C1256 H1262 0.930 . S
N1257 Li1233 1.990 . S
N1257 C1256 1.314 . S
N1257 C1260 1.279 . S
C1258 C1256 1.353 . S
C1258 C1261 1.348 . S
C1258 H1306 0.929 . S
C1259 C1260 1.358 . S
C1259 C1261 1.356 . S
C1259 H1307 0.930 . S
C1260 N1257 1.279 . S
C1260 C1259 1.358 . S
C1260 H1263 0.930 . S
C1261 C1258 1.348 . S
C1261 C1259 1.356 . S
H1262 C1256 0.930 . S
H1263 C1260 0.930 . S
C1264 C1266 1.348 . S
C1264 C1267 1.356 . S
C1264 O1294 1.325 . S
N1265 C1268 1.314 . S
N1265 C1269 1.279 . S
C1266 C1264 1.348 . S
C1266 C1268 1.353 . S
C1266 H1308 0.929 . S
C1267 C1264 1.356 . S
C1267 C1269 1.358 . S
C1267 H1309 0.930 . S
C1268 N1265 1.314 . S
C1268 C1266 1.353 . S
C1268 H1310 0.930 . S
C1269 N1265 1.279 . S
C1269 C1267 1.358 . S
C1269 H1311 0.930 . S
C1270 C1271 1.348 . S
C1270 C1272 1.356 . S
C1270 O1295 1.325 . S
C1271 C1270 1.348 . S
C1271 C1273 1.353 . S
C1271 H1312 0.929 . S
C1272 C1270 1.356 . S
C1272 C1274 1.358 . S
C1272 H1313 0.930 . S
C1273 C1271 1.353 . S
C1273 N1275 1.314 . S
C1273 H1314 0.930 . S
C1274 C1272 1.358 . S
C1274 N1275 1.279 . S
C1274 H1315 0.930 . S
N1275 C1273 1.314 . S
N1275 C1274 1.279 . S
C1276 C1278 1.353 . S
C1276 N1279 1.314 . S
C1276 H1282 0.930 . S
C1277 N1279 1.279 . S
C1277 C1280 1.358 . S
C1277 H1283 0.930 . S
C1278 C1276 1.353 . S
C1278 C1281 1.348 . S
C1278 H1316 0.929 . S
N1279 Li1234 1.990 . S
N1279 C1276 1.314 . S
N1279 C1277 1.279 . S
C1280 C1277 1.358 . S
C1280 C1281 1.356 . S
C1280 H1317 0.930 . S
C1281 C1278 1.348 . S
C1281 C1280 1.356 . S
H1282 C1276 0.930 . S
H1283 C1277 0.930 . S
C1284 N1285 1.314 . S
C1284 C1286 1.353 . S
C1284 H1290 0.930 . S
N1285 Li1235 1.990 . S
N1285 C1284 1.314 . S
N1285 C1288 1.279 . S
C1286 C1284 1.353 . S
C1286 C1289 1.348 . S
C1286 H1318 0.929 . S
C1287 C1288 1.358 . S
C1287 C1289 1.356 . S
C1287 H1319 0.930 . S
C1288 N1285 1.279 . S
C1288 C1287 1.358 . S
C1288 H1291 0.930 . S
C1289 C1286 1.348 . S
C1289 C1287 1.356 . S
H1290 C1284 0.930 . S
H1291 C1288 0.930 . S
O1292 Li1232 1.956 . S
O1292 Li1233 1.970 . S
O1292 Li1234 1.961 . S
O1292 C1236 1.325 . S
O1293 Li1232 1.970 . S
O1293 Li1233 1.956 . S
O1293 Li1235 1.961 . S
O1293 C1242 1.325 . S
O1294 Li1232 1.961 . S
O1294 Li1234 1.956 . S
O1294 Li1235 1.970 . S
O1294 C1264 1.325 . S
O1295 Li1233 1.961 . S
O1295 Li1234 1.970 . S
O1295 Li1235 1.956 . S
O1295 C1270 1.325 . S
H1296 C1238 0.929 . S
H1297 C1239 0.930 . S
H1298 C1240 0.930 . S
H1299 C1241 0.930 . S
H1300 C1243 0.930 . S
H1301 C1245 0.929 . S
H1302 C1246 0.930 . S
H1303 C1247 0.930 . S
H1304 C1250 0.930 . S
H1305 C1253 0.929 . S
H1306 C1258 0.929 . S
H1307 C1259 0.930 . S
H1308 C1266 0.929 . S
H1309 C1267 0.930 . S
H1310 C1268 0.930 . S
H1311 C1269 0.930 . S
H1312 C1271 0.929 . S
H1313 C1272 0.930 . S
H1314 C1273 0.930 . S
H1315 C1274 0.930 . S
H1316 C1278 0.929 . S
H1317 C1280 0.930 . S
H1318 C1286 0.929 . S
H1319 C1287 0.930 . S
Li1320 N1337 1.990 . S
Li1320 O1380 1.956 . S
Li1320 O1381 1.970 . S
Li1320 O1382 1.961 . S
Li1321 N1345 1.990 . S
Li1321 O1380 1.970 . S
Li1321 O1381 1.956 . S
Li1321 O1383 1.961 . S
Li1322 N1367 1.990 . S
Li1322 O1380 1.961 . S
Li1322 O1382 1.956 . S
Li1322 O1383 1.970 . S
Li1323 N1373 1.990 . S
Li1323 O1381 1.961 . S
Li1323 O1382 1.970 . S
Li1323 O1383 1.956 . S
C1324 C1326 1.348 . S
C1324 C1327 1.356 . S
C1324 O1380 1.325 . S
N1325 C1328 1.314 . S
N1325 C1329 1.279 . S
C1326 C1324 1.348 . S
C1326 C1328 1.353 . S
C1326 H1384 0.929 . S
C1327 C1324 1.356 . S
C1327 C1329 1.358 . S
C1327 H1385 0.930 . S
C1328 N1325 1.314 . S
C1328 C1326 1.353 . S
C1328 H1386 0.930 . S
C1329 N1325 1.279 . S
C1329 C1327 1.358 . S
C1329 H1387 0.930 . S
C1330 C1333 1.348 . S
C1330 C1334 1.356 . S
C1330 O1381 1.325 . S
C1331 N1332 1.279 . S
C1331 C1334 1.358 . S
C1331 H1388 0.930 . S
N1332 C1331 1.279 . S
N1332 C1335 1.314 . S
C1333 C1330 1.348 . S
C1333 C1335 1.353 . S
C1333 H1389 0.929 . S
C1334 C1330 1.356 . S
C1334 C1331 1.358 . S
C1334 H1390 0.930 . S
C1335 N1332 1.314 . S
C1335 C1333 1.353 . S
C1335 H1391 0.930 . S
C1336 N1337 1.314 . S
C1336 C1341 1.353 . S
C1336 H1342 0.930 . S
N1337 Li1320 1.990 . S
N1337 C1336 1.314 . S
N1337 C1339 1.279 . S
C1338 C1339 1.358 . S
C1338 C1340 1.356 . S
C1338 H1392 0.930 . S
C1339 N1337 1.279 . S
C1339 C1338 1.358 . S
C1339 H1343 0.930 . S
C1340 C1338 1.356 . S
C1340 C1341 1.348 . S
C1341 C1336 1.353 . S
C1341 C1340 1.348 . S
C1341 H1393 0.929 . S
H1342 C1336 0.930 . S
H1343 C1339 0.930 . S
C1344 N1345 1.314 . S
C1344 C1346 1.353 . S
C1344 H1350 0.930 . S
N1345 Li1321 1.990 . S
N1345 C1344 1.314 . S
N1345 C1348 1.279 . S
C1346 C1344 1.353 . S
C1346 C1349 1.348 . S
C1346 H1394 0.929 . S
C1347 C1348 1.358 . S
C1347 C1349 1.356 . S
C1347 H1395 0.930 . S
C1348 N1345 1.279 . S
C1348 C1347 1.358 . S
C1348 H1351 0.930 . S
C1349 C1346 1.348 . S
C1349 C1347 1.356 . S
H1350 C1344 0.930 . S
H1351 C1348 0.930 . S
C1352 C1354 1.348 . S
C1352 C1355 1.356 . S
C1352 O1382 1.325 . S
N1353 C1356 1.314 . S
N1353 C1357 1.279 . S
C1354 C1352 1.348 . S
C1354 C1356 1.353 . S
C1354 H1396 0.929 . S
C1355 C1352 1.356 . S
C1355 C1357 1.358 . S
C1355 H1397 0.930 . S
C1356 N1353 1.314 . S
C1356 C1354 1.353 . S
C1356 H1398 0.930 . S
C1357 N1353 1.279 . S
C1357 C1355 1.358 . S
C1357 H1399 0.930 . S
C1358 C1359 1.348 . S
C1358 C1360 1.356 . S
C1358 O1383 1.325 . S
C1359 C1358 1.348 . S
C1359 C1361 1.353 . S
C1359 H1400 0.929 . S
C1360 C1358 1.356 . S
C1360 C1362 1.358 . S
C1360 H1401 0.930 . S
C1361 C1359 1.353 . S
C1361 N1363 1.314 . S
C1361 H1402 0.930 . S
C1362 C1360 1.358 . S
C1362 N1363 1.279 . S
C1362 H1403 0.930 . S
N1363 C1361 1.314 . S
N1363 C1362 1.279 . S
C1364 C1366 1.353 . S
C1364 N1367 1.314 . S
C1364 H1370 0.930 . S
C1365 N1367 1.279 . S
C1365 C1368 1.358 . S
C1365 H1371 0.930 . S
C1366 C1364 1.353 . S
C1366 C1369 1.348 . S
C1366 H1404 0.929 . S
N1367 Li1322 1.990 . S
N1367 C1364 1.314 . S
N1367 C1365 1.279 . S
C1368 C1365 1.358 . S
C1368 C1369 1.356 . S
C1368 H1405 0.930 . S
C1369 C1366 1.348 . S
C1369 C1368 1.356 . S
H1370 C1364 0.930 . S
H1371 C1365 0.930 . S
C1372 N1373 1.314 . S
C1372 C1374 1.353 . S
C1372 H1378 0.930 . S
N1373 Li1323 1.990 . S
N1373 C1372 1.314 . S
N1373 C1376 1.279 . S
C1374 C1372 1.353 . S
C1374 C1377 1.348 . S
C1374 H1406 0.929 . S
C1375 C1376 1.358 . S
C1375 C1377 1.356 . S
C1375 H1407 0.930 . S
C1376 N1373 1.279 . S
C1376 C1375 1.358 . S
C1376 H1379 0.930 . S
C1377 C1374 1.348 . S
C1377 C1375 1.356 . S
H1378 C1372 0.930 . S
H1379 C1376 0.930 . S
O1380 Li1320 1.956 . S
O1380 Li1321 1.970 . S
O1380 Li1322 1.961 . S
O1380 C1324 1.325 . S
O1381 Li1320 1.970 . S
O1381 Li1321 1.956 . S
O1381 Li1323 1.961 . S
O1381 C1330 1.325 . S
O1382 Li1320 1.961 . S
O1382 Li1322 1.956 . S
O1382 Li1323 1.970 . S
O1382 C1352 1.325 . S
O1383 Li1321 1.961 . S
O1383 Li1322 1.970 . S
O1383 Li1323 1.956 . S
O1383 C1358 1.325 . S
H1384 C1326 0.929 . S
H1385 C1327 0.930 . S
H1386 C1328 0.930 . S
H1387 C1329 0.930 . S
H1388 C1331 0.930 . S
H1389 C1333 0.929 . S
H1390 C1334 0.930 . S
H1391 C1335 0.930 . S
H1392 C1338 0.930 . S
H1393 C1341 0.929 . S
H1394 C1346 0.929 . S
H1395 C1347 0.930 . S
H1396 C1354 0.929 . S
H1397 C1355 0.930 . S
H1398 C1356 0.930 . S
H1399 C1357 0.930 . S
H1400 C1359 0.929 . S
H1401 C1360 0.930 . S
H1402 C1361 0.930 . S
H1403 C1362 0.930 . S
H1404 C1366 0.929 . S
H1405 C1368 0.930 . S
H1406 C1374 0.929 . S
H1407 C1375 0.930 . S
Li1408 N1425 1.990 . S
Li1408 O1468 1.956 1_545 S
Li1408 O1469 1.970 . S
Li1408 O1470 1.961 . S
Li1409 N1433 1.990 . S
Li1409 O1468 1.970 . S
Li1409 O1469 1.956 1_565 S
Li1409 O1471 1.961 . S
Li1410 N1455 1.990 . S
Li1410 O1468 1.961 . S
Li1410 O1470 1.956 1_565 S
Li1410 O1471 1.970 . S
Li1411 N1461 1.990 . S
Li1411 O1469 1.961 . S
Li1411 O1470 1.970 . S
Li1411 O1471 1.956 1_545 S
C1412 C1414 1.348 . S
C1412 C1415 1.356 . S
C1412 O1468 1.325 . S
N1413 C1416 1.314 . S
N1413 C1417 1.279 . S
C1414 C1412 1.348 . S
C1414 C1416 1.353 . S
C1414 H1472 0.929 . S
C1415 C1412 1.356 . S
C1415 C1417 1.358 . S
C1415 H1473 0.930 . S
C1416 N1413 1.314 . S
C1416 C1414 1.353 . S
C1416 H1474 0.930 . S
C1417 N1413 1.279 . S
C1417 C1415 1.358 . S
C1417 H1475 0.930 . S
C1418 C1421 1.348 . S
C1418 C1422 1.356 . S
C1418 O1469 1.325 . S
C1419 N1420 1.279 . S
C1419 C1422 1.358 . S
C1419 H1476 0.930 . S
N1420 C1419 1.279 . S
N1420 C1423 1.314 . S
C1421 C1418 1.348 . S
C1421 C1423 1.353 . S
C1421 H1477 0.929 . S
C1422 C1418 1.356 . S
C1422 C1419 1.358 . S
C1422 H1478 0.930 . S
C1423 N1420 1.314 . S
C1423 C1421 1.353 . S
C1423 H1479 0.930 . S
C1424 N1425 1.314 . S
C1424 C1429 1.353 . S
C1424 H1430 0.930 . S
N1425 Li1408 1.990 . S
N1425 C1424 1.314 . S
N1425 C1427 1.279 . S
C1426 C1427 1.358 . S
C1426 C1428 1.356 . S
C1426 H1480 0.930 . S
C1427 N1425 1.279 . S
C1427 C1426 1.358 . S
C1427 H1431 0.930 . S
C1428 C1426 1.356 . S
C1428 C1429 1.348 . S
C1429 C1424 1.353 . S
C1429 C1428 1.348 . S
C1429 H1481 0.929 . S
H1430 C1424 0.930 . S
H1431 C1427 0.930 . S
C1432 N1433 1.314 . S
C1432 C1434 1.353 . S
C1432 H1438 0.930 . S
N1433 Li1409 1.990 . S
N1433 C1432 1.314 . S
N1433 C1436 1.279 . S
C1434 C1432 1.353 . S
C1434 C1437 1.348 . S
C1434 H1482 0.929 . S
C1435 C1436 1.358 . S
C1435 C1437 1.356 . S
C1435 H1483 0.930 . S
C1436 N1433 1.279 . S
C1436 C1435 1.358 . S
C1436 H1439 0.930 1_565 S
C1437 C1434 1.348 . S
C1437 C1435 1.356 . S
H1438 C1432 0.930 . S
H1439 C1436 0.930 1_545 S
C1440 C1442 1.348 . S
C1440 C1443 1.356 . S
C1440 O1470 1.325 . S
N1441 C1444 1.314 . S
N1441 C1445 1.279 . S
C1442 C1440 1.348 . S
C1442 C1444 1.353 . S
C1442 H1484 0.929 . S
C1443 C1440 1.356 . S
C1443 C1445 1.358 . S
C1443 H1485 0.930 . S
C1444 N1441 1.314 . S
C1444 C1442 1.353 . S
C1444 H1486 0.930 . S
C1445 N1441 1.279 . S
C1445 C1443 1.358 . S
C1445 H1487 0.930 . S
C1446 C1447 1.348 . S
C1446 C1448 1.356 . S
C1446 O1471 1.325 . S
C1447 C1446 1.348 . S
C1447 C1449 1.353 . S
C1447 H1488 0.929 . S
C1448 C1446 1.356 . S
C1448 C1450 1.358 . S
C1448 H1489 0.930 . S
C1449 C1447 1.353 . S
C1449 N1451 1.314 . S
C1449 H1490 0.930 . S
C1450 C1448 1.358 . S
C1450 N1451 1.279 . S
C1450 H1491 0.930 . S
N1451 C1449 1.314 . S
N1451 C1450 1.279 . S
C1452 C1454 1.353 . S
C1452 N1455 1.314 . S
C1452 H1458 0.930 . S
C1453 N1455 1.279 . S
C1453 C1456 1.358 . S
C1453 H1459 0.930 . S
C1454 C1452 1.353 . S
C1454 C1457 1.348 . S
C1454 H1492 0.929 . S
N1455 Li1410 1.990 . S
N1455 C1452 1.314 . S
N1455 C1453 1.279 . S
C1456 C1453 1.358 . S
C1456 C1457 1.356 . S
C1456 H1493 0.930 . S
C1457 C1454 1.348 . S
C1457 C1456 1.356 . S
H1458 C1452 0.930 . S
H1459 C1453 0.930 . S
C1460 N1461 1.314 . S
C1460 C1462 1.353 . S
C1460 H1466 0.930 . S
N1461 Li1411 1.990 . S
N1461 C1460 1.314 . S
N1461 C1464 1.279 . S
C1462 C1460 1.353 . S
C1462 C1465 1.348 . S
C1462 H1494 0.929 . S
C1463 C1464 1.358 . S
C1463 C1465 1.356 . S
C1463 H1495 0.930 . S
C1464 N1461 1.279 . S
C1464 C1463 1.358 . S
C1464 H1467 0.930 1_545 S
C1465 C1462 1.348 . S
C1465 C1463 1.356 . S
H1466 C1460 0.930 . S
H1467 C1464 0.930 1_565 S
O1468 Li1408 1.956 1_565 S
O1468 Li1409 1.970 . S
O1468 Li1410 1.961 . S
O1468 C1412 1.325 . S
O1469 Li1408 1.970 . S
O1469 Li1409 1.956 1_545 S
O1469 Li1411 1.961 . S
O1469 C1418 1.325 . S
O1470 Li1408 1.961 . S
O1470 Li1410 1.956 1_545 S
O1470 Li1411 1.970 . S
O1470 C1440 1.325 . S
O1471 Li1409 1.961 . S
O1471 Li1410 1.970 . S
O1471 Li1411 1.956 1_565 S
O1471 C1446 1.325 . S
H1472 C1414 0.929 . S
H1473 C1415 0.930 . S
H1474 C1416 0.930 . S
H1475 C1417 0.930 . S
H1476 C1419 0.930 . S
H1477 C1421 0.929 . S
H1478 C1422 0.930 . S
H1479 C1423 0.930 . S
H1480 C1426 0.930 . S
H1481 C1429 0.929 . S
H1482 C1434 0.929 . S
H1483 C1435 0.930 . S
H1484 C1442 0.929 . S
H1485 C1443 0.930 . S
H1486 C1444 0.930 . S
H1487 C1445 0.930 . S
H1488 C1447 0.929 . S
H1489 C1448 0.930 . S
H1490 C1449 0.930 . S
H1491 C1450 0.930 . S
H1492 C1454 0.929 . S
H1493 C1456 0.930 . S
H1494 C1462 0.929 . S
H1495 C1463 0.930 . S
Li1496 N1513 1.990 . S
Li1496 O1556 1.956 . S
Li1496 O1557 1.970 . S
Li1496 O1558 1.961 . S
Li1497 N1521 1.990 . S
Li1497 O1556 1.970 . S
Li1497 O1557 1.956 . S
Li1497 O1559 1.961 . S
Li1498 N1543 1.990 . S
Li1498 O1556 1.961 . S
Li1498 O1558 1.956 . S
Li1498 O1559 1.970 . S
Li1499 N1549 1.990 . S
Li1499 O1557 1.961 . S
Li1499 O1558 1.970 . S
Li1499 O1559 1.956 . S
C1500 C1502 1.348 . S
C1500 C1503 1.356 . S
C1500 O1556 1.325 . S
N1501 C1504 1.314 . S
N1501 C1505 1.279 . S
C1502 C1500 1.348 . S
C1502 C1504 1.353 . S
C1502 H1560 0.929 . S
C1503 C1500 1.356 . S
C1503 C1505 1.358 . S
C1503 H1561 0.930 . S
C1504 N1501 1.314 . S
C1504 C1502 1.353 . S
C1504 H1562 0.930 . S
C1505 N1501 1.279 . S
C1505 C1503 1.358 . S
C1505 H1563 0.930 . S
C1506 C1509 1.348 . S
C1506 C1510 1.356 . S
C1506 O1557 1.325 . S
C1507 N1508 1.279 . S
C1507 C1510 1.358 . S
C1507 H1564 0.930 . S
N1508 C1507 1.279 . S
N1508 C1511 1.314 . S
C1509 C1506 1.348 . S
C1509 C1511 1.353 . S
C1509 H1565 0.929 . S
C1510 C1506 1.356 . S
C1510 C1507 1.358 . S
C1510 H1566 0.930 . S
C1511 N1508 1.314 . S
C1511 C1509 1.353 . S
C1511 H1567 0.930 . S
C1512 N1513 1.314 . S
C1512 C1517 1.353 . S
C1512 H1518 0.930 . S
N1513 Li1496 1.990 . S
N1513 C1512 1.314 . S
N1513 C1515 1.279 . S
C1514 C1515 1.358 . S
C1514 C1516 1.356 . S
C1514 H1568 0.930 . S
C1515 N1513 1.279 . S
C1515 C1514 1.358 . S
C1515 H1519 0.930 . S
C1516 C1514 1.356 . S
C1516 C1517 1.348 . S
C1517 C1512 1.353 . S
C1517 C1516 1.348 . S
C1517 H1569 0.929 . S
H1518 C1512 0.930 . S
H1519 C1515 0.930 . S
C1520 N1521 1.314 . S
C1520 C1522 1.353 . S
C1520 H1526 0.930 . S
N1521 Li1497 1.990 . S
N1521 C1520 1.314 . S
N1521 C1524 1.279 . S
C1522 C1520 1.353 . S
C1522 C1525 1.348 . S
C1522 H1570 0.929 . S
C1523 C1524 1.358 . S
C1523 C1525 1.356 . S
C1523 H1571 0.930 . S
C1524 N1521 1.279 . S
C1524 C1523 1.358 . S
C1524 H1527 0.930 . S
C1525 C1522 1.348 . S
C1525 C1523 1.356 . S
H1526 C1520 0.930 . S
H1527 C1524 0.930 . S
C1528 C1530 1.348 . S
C1528 C1531 1.356 . S
C1528 O1558 1.325 . S
N1529 C1532 1.314 . S
N1529 C1533 1.279 . S
C1530 C1528 1.348 . S
C1530 C1532 1.353 . S
C1530 H1572 0.929 . S
C1531 C1528 1.356 . S
C1531 C1533 1.358 . S
C1531 H1573 0.930 . S
C1532 N1529 1.314 . S
C1532 C1530 1.353 . S
C1532 H1574 0.930 . S
C1533 N1529 1.279 . S
C1533 C1531 1.358 . S
C1533 H1575 0.930 . S
C1534 C1535 1.348 . S
C1534 C1536 1.356 . S
C1534 O1559 1.325 . S
C1535 C1534 1.348 . S
C1535 C1537 1.353 . S
C1535 H1576 0.929 . S
C1536 C1534 1.356 . S
C1536 C1538 1.358 . S
C1536 H1577 0.930 . S
C1537 C1535 1.353 . S
C1537 N1539 1.314 . S
C1537 H1578 0.930 . S
C1538 C1536 1.358 . S
C1538 N1539 1.279 . S
C1538 H1579 0.930 . S
N1539 C1537 1.314 . S
N1539 C1538 1.279 . S
C1540 C1542 1.353 . S
C1540 N1543 1.314 . S
C1540 H1546 0.930 . S
C1541 N1543 1.279 . S
C1541 C1544 1.358 . S
C1541 H1547 0.930 . S
C1542 C1540 1.353 . S
C1542 C1545 1.348 . S
C1542 H1580 0.929 . S
N1543 Li1498 1.990 . S
N1543 C1540 1.314 . S
N1543 C1541 1.279 . S
C1544 C1541 1.358 . S
C1544 C1545 1.356 . S
C1544 H1581 0.930 . S
C1545 C1542 1.348 . S
C1545 C1544 1.356 . S
H1546 C1540 0.930 . S
H1547 C1541 0.930 . S
C1548 N1549 1.314 . S
C1548 C1550 1.353 . S
C1548 H1554 0.930 . S
N1549 Li1499 1.990 . S
N1549 C1548 1.314 . S
N1549 C1552 1.279 . S
C1550 C1548 1.353 . S
C1550 C1553 1.348 . S
C1550 H1582 0.929 . S
C1551 C1552 1.358 . S
C1551 C1553 1.356 . S
C1551 H1583 0.930 . S
C1552 N1549 1.279 . S
C1552 C1551 1.358 . S
C1552 H1555 0.930 . S
C1553 C1550 1.348 . S
C1553 C1551 1.356 . S
H1554 C1548 0.930 . S
H1555 C1552 0.930 . S
O1556 Li1496 1.956 . S
O1556 Li1497 1.970 . S
O1556 Li1498 1.961 . S
O1556 C1500 1.325 . S
O1557 Li1496 1.970 . S
O1557 Li1497 1.956 . S
O1557 Li1499 1.961 . S
O1557 C1506 1.325 . S
O1558 Li1496 1.961 . S
O1558 Li1498 1.956 . S
O1558 Li1499 1.970 . S
O1558 C1528 1.325 . S
O1559 Li1497 1.961 . S
O1559 Li1498 1.970 . S
O1559 Li1499 1.956 . S
O1559 C1534 1.325 . S
H1560 C1502 0.929 . S
H1561 C1503 0.930 . S
H1562 C1504 0.930 . S
H1563 C1505 0.930 . S
H1564 C1507 0.930 . S
H1565 C1509 0.929 . S
H1566 C1510 0.930 . S
H1567 C1511 0.930 . S
H1568 C1514 0.930 . S
H1569 C1517 0.929 . S
H1570 C1522 0.929 . S
H1571 C1523 0.930 . S
H1572 C1530 0.929 . S
H1573 C1531 0.930 . S
H1574 C1532 0.930 . S
H1575 C1533 0.930 . S
H1576 C1535 0.929 . S
H1577 C1536 0.930 . S
H1578 C1537 0.930 . S
H1579 C1538 0.930 . S
H1580 C1542 0.929 . S
H1581 C1544 0.930 . S
H1582 C1550 0.929 . S
H1583 C1551 0.930 . S
Li1584 N1601 1.990 . S
Li1584 O1644 1.956 . S
Li1584 O1645 1.970 . S
Li1584 O1646 1.961 . S
Li1585 N1609 1.990 . S
Li1585 O1644 1.970 . S
Li1585 O1645 1.956 . S
Li1585 O1647 1.961 . S
Li1586 N1631 1.990 . S
Li1586 O1644 1.961 . S
Li1586 O1646 1.956 . S
Li1586 O1647 1.970 . S
Li1587 N1637 1.990 . S
Li1587 O1645 1.961 . S
Li1587 O1646 1.970 . S
Li1587 O1647 1.956 . S
C1588 C1590 1.348 . S
C1588 C1591 1.356 . S
C1588 O1644 1.325 . S
N1589 C1592 1.314 . S
N1589 C1593 1.279 . S
C1590 C1588 1.348 . S
C1590 C1592 1.353 . S
C1590 H1648 0.929 . S
C1591 C1588 1.356 . S
C1591 C1593 1.358 . S
C1591 H1649 0.930 . S
C1592 N1589 1.314 . S
C1592 C1590 1.353 . S
C1592 H1650 0.930 . S
C1593 N1589 1.279 . S
C1593 C1591 1.358 . S
C1593 H1651 0.930 . S
C1594 C1597 1.348 . S
C1594 C1598 1.356 . S
C1594 O1645 1.325 . S
C1595 N1596 1.279 . S
C1595 C1598 1.358 . S
C1595 H1652 0.930 . S
N1596 C1595 1.279 . S
N1596 C1599 1.314 . S
C1597 C1594 1.348 . S
C1597 C1599 1.353 . S
C1597 H1653 0.929 . S
C1598 C1594 1.356 . S
C1598 C1595 1.358 . S
C1598 H1654 0.930 . S
C1599 N1596 1.314 . S
C1599 C1597 1.353 . S
C1599 H1655 0.930 . S
C1600 N1601 1.314 . S
C1600 C1605 1.353 . S
C1600 H1606 0.930 . S
N1601 Li1584 1.990 . S
N1601 C1600 1.314 . S
N1601 C1603 1.279 . S
C1602 C1603 1.358 . S
C1602 C1604 1.356 . S
C1602 H1656 0.930 . S
C1603 N1601 1.279 . S
C1603 C1602 1.358 . S
C1603 H1607 0.930 . S
C1604 C1602 1.356 . S
C1604 C1605 1.348 . S
C1605 C1600 1.353 . S
C1605 C1604 1.348 . S
C1605 H1657 0.929 . S
H1606 C1600 0.930 . S
H1607 C1603 0.930 . S
C1608 N1609 1.314 . S
C1608 C1610 1.353 . S
C1608 H1614 0.930 . S
N1609 Li1585 1.990 . S
N1609 C1608 1.314 . S
N1609 C1612 1.279 . S
C1610 C1608 1.353 . S
C1610 C1613 1.348 . S
C1610 H1658 0.929 . S
C1611 C1612 1.358 . S
C1611 C1613 1.356 . S
C1611 H1659 0.930 . S
C1612 N1609 1.279 . S
C1612 C1611 1.358 . S
C1612 H1615 0.930 . S
C1613 C1610 1.348 . S
C1613 C1611 1.356 . S
H1614 C1608 0.930 . S
H1615 C1612 0.930 . S
C1616 C1618 1.348 . S
C1616 C1619 1.356 . S
C1616 O1646 1.325 . S
N1617 C1620 1.314 . S
N1617 C1621 1.279 . S
C1618 C1616 1.348 . S
C1618 C1620 1.353 . S
C1618 H1660 0.929 . S
C1619 C1616 1.356 . S
C1619 C1621 1.358 . S
C1619 H1661 0.930 . S
C1620 N1617 1.314 . S
C1620 C1618 1.353 . S
C1620 H1662 0.930 . S
C1621 N1617 1.279 . S
C1621 C1619 1.358 . S
C1621 H1663 0.930 . S
C1622 C1623 1.348 . S
C1622 C1624 1.356 . S
C1622 O1647 1.325 . S
C1623 C1622 1.348 . S
C1623 C1625 1.353 . S
C1623 H1664 0.929 . S
C1624 C1622 1.356 . S
C1624 C1626 1.358 . S
C1624 H1665 0.930 . S
C1625 C1623 1.353 . S
C1625 N1627 1.314 . S
C1625 H1666 0.930 . S
C1626 C1624 1.358 . S
C1626 N1627 1.279 . S
C1626 H1667 0.930 . S
N1627 C1625 1.314 . S
N1627 C1626 1.279 . S
C1628 C1630 1.353 . S
C1628 N1631 1.314 . S
C1628 H1634 0.930 . S
C1629 N1631 1.279 . S
C1629 C1632 1.358 . S
C1629 H1635 0.930 . S
C1630 C1628 1.353 . S
C1630 C1633 1.348 . S
C1630 H1668 0.929 . S
N1631 Li1586 1.990 . S
N1631 C1628 1.314 . S
N1631 C1629 1.279 . S
C1632 C1629 1.358 . S
C1632 C1633 1.356 . S
C1632 H1669 0.930 . S
C1633 C1630 1.348 . S
C1633 C1632 1.356 . S
H1634 C1628 0.930 . S
H1635 C1629 0.930 . S
C1636 N1637 1.314 . S
C1636 C1638 1.353 . S
C1636 H1642 0.930 . S
N1637 Li1587 1.990 . S
N1637 C1636 1.314 . S
N1637 C1640 1.279 . S
C1638 C1636 1.353 . S
C1638 C1641 1.348 . S
C1638 H1670 0.929 . S
C1639 C1640 1.358 . S
C1639 C1641 1.356 . S
C1639 H1671 0.930 . S
C1640 N1637 1.279 . S
C1640 C1639 1.358 . S
C1640 H1643 0.930 . S
C1641 C1638 1.348 . S
C1641 C1639 1.356 . S
H1642 C1636 0.930 . S
H1643 C1640 0.930 . S
O1644 Li1584 1.956 . S
O1644 Li1585 1.970 . S
O1644 Li1586 1.961 . S
O1644 C1588 1.325 . S
O1645 Li1584 1.970 . S
O1645 Li1585 1.956 . S
O1645 Li1587 1.961 . S
O1645 C1594 1.325 . S
O1646 Li1584 1.961 . S
O1646 Li1586 1.956 . S
O1646 Li1587 1.970 . S
O1646 C1616 1.325 . S
O1647 Li1585 1.961 . S
O1647 Li1586 1.970 . S
O1647 Li1587 1.956 . S
O1647 C1622 1.325 . S
H1648 C1590 0.929 . S
H1649 C1591 0.930 . S
H1650 C1592 0.930 . S
H1651 C1593 0.930 . S
H1652 C1595 0.930 . S
H1653 C1597 0.929 . S
H1654 C1598 0.930 . S
H1655 C1599 0.930 . S
H1656 C1602 0.930 . S
H1657 C1605 0.929 . S
H1658 C1610 0.929 . S
H1659 C1611 0.930 . S
H1660 C1618 0.929 . S
H1661 C1619 0.930 . S
H1662 C1620 0.930 . S
H1663 C1621 0.930 . S
H1664 C1623 0.929 . S
H1665 C1624 0.930 . S
H1666 C1625 0.930 . S
H1667 C1626 0.930 . S
H1668 C1630 0.929 . S
H1669 C1632 0.930 . S
H1670 C1638 0.929 . S
H1671 C1639 0.930 . S
Li1672 N1689 1.990 . S
Li1672 O1732 1.956 1_545 S
Li1672 O1733 1.970 . S
Li1672 O1734 1.961 . S
Li1673 N1697 1.990 . S
Li1673 O1732 1.970 . S
Li1673 O1733 1.956 1_565 S
Li1673 O1735 1.961 . S
Li1674 N1719 1.990 . S
Li1674 O1732 1.961 . S
Li1674 O1734 1.956 1_565 S
Li1674 O1735 1.970 . S
Li1675 N1725 1.990 . S
Li1675 O1733 1.961 . S
Li1675 O1734 1.970 . S
Li1675 O1735 1.956 1_545 S
C1676 C1678 1.348 . S
C1676 C1679 1.356 . S
C1676 O1732 1.325 . S
N1677 C1680 1.314 . S
N1677 C1681 1.279 . S
C1678 C1676 1.348 . S
C1678 C1680 1.353 . S
C1678 H1736 0.929 . S
C1679 C1676 1.356 . S
C1679 C1681 1.358 . S
C1679 H1737 0.930 . S
C1680 N1677 1.314 . S
C1680 C1678 1.353 . S
C1680 H1738 0.930 . S
C1681 N1677 1.279 . S
C1681 C1679 1.358 . S
C1681 H1739 0.930 . S
C1682 C1685 1.348 . S
C1682 C1686 1.356 . S
C1682 O1733 1.325 . S
C1683 N1684 1.279 . S
C1683 C1686 1.358 . S
C1683 H1740 0.930 . S
N1684 C1683 1.279 . S
N1684 C1687 1.314 . S
C1685 C1682 1.348 . S
C1685 C1687 1.353 . S
C1685 H1741 0.929 . S
C1686 C1682 1.356 . S
C1686 C1683 1.358 . S
C1686 H1742 0.930 . S
C1687 N1684 1.314 . S
C1687 C1685 1.353 . S
C1687 H1743 0.930 . S
C1688 N1689 1.314 . S
C1688 C1693 1.353 . S
C1688 H1694 0.930 . S
N1689 Li1672 1.990 . S
N1689 C1688 1.314 . S
N1689 C1691 1.279 . S
C1690 C1691 1.358 . S
C1690 C1692 1.356 . S
C1690 H1744 0.930 . S
C1691 N1689 1.279 . S
C1691 C1690 1.358 . S
C1691 H1695 0.930 1_545 S
C1692 C1690 1.356 . S
C1692 C1693 1.348 . S
C1693 C1688 1.353 . S
C1693 C1692 1.348 . S
C1693 H1745 0.929 . S
H1694 C1688 0.930 . S
H1695 C1691 0.930 1_565 S
C1696 N1697 1.314 . S
C1696 C1698 1.353 . S
C1696 H1702 0.930 . S
N1697 Li1673 1.990 . S
N1697 C1696 1.314 . S
N1697 C1700 1.279 . S
C1698 C1696 1.353 . S
C1698 C1701 1.348 . S
C1698 H1746 0.929 . S
C1699 C1700 1.358 . S
C1699 C1701 1.356 . S
C1699 H1747 0.930 . S
C1700 N1697 1.279 . S
C1700 C1699 1.358 . S
C1700 H1703 0.930 . S
C1701 C1698 1.348 . S
C1701 C1699 1.356 . S
H1702 C1696 0.930 . S
H1703 C1700 0.930 . S
C1704 C1706 1.348 . S
C1704 C1707 1.356 . S
C1704 O1734 1.325 . S
N1705 C1708 1.314 . S
N1705 C1709 1.279 . S
C1706 C1704 1.348 . S
C1706 C1708 1.353 . S
C1706 H1748 0.929 . S
C1707 C1704 1.356 . S
C1707 C1709 1.358 . S
C1707 H1749 0.930 . S
C1708 N1705 1.314 . S
C1708 C1706 1.353 . S
C1708 H1750 0.930 . S
C1709 N1705 1.279 . S
C1709 C1707 1.358 . S
C1709 H1751 0.930 . S
C1710 C1711 1.348 . S
C1710 C1712 1.356 . S
C1710 O1735 1.325 . S
C1711 C1710 1.348 . S
C1711 C1713 1.353 . S
C1711 H1752 0.929 . S
C1712 C1710 1.356 . S
C1712 C1714 1.358 . S
C1712 H1753 0.930 . S
C1713 C1711 1.353 . S
C1713 N1715 1.314 . S
C1713 H1754 0.930 . S
C1714 C1712 1.358 . S
C1714 N1715 1.279 . S
C1714 H1755 0.930 . S
N1715 C1713 1.314 . S
N1715 C1714 1.279 . S
C1716 C1718 1.353 . S
C1716 N1719 1.314 . S
C1716 H1722 0.930 . S
C1717 N1719 1.279 . S
C1717 C1720 1.358 . S
C1717 H1723 0.930 1_565 S
C1718 C1716 1.353 . S
C1718 C1721 1.348 . S
C1718 H1756 0.929 . S
N1719 Li1674 1.990 . S
N1719 C1716 1.314 . S
N1719 C1717 1.279 . S
C1720 C1717 1.358 . S
C1720 C1721 1.356 . S
C1720 H1757 0.930 . S
C1721 C1718 1.348 . S
C1721 C1720 1.356 . S
H1722 C1716 0.930 . S
H1723 C1717 0.930 1_545 S
C1724 N1725 1.314 . S
C1724 C1726 1.353 . S
C1724 H1730 0.930 . S
N1725 Li1675 1.990 . S
N1725 C1724 1.314 . S
N1725 C1728 1.279 . S
C1726 C1724 1.353 . S
C1726 C1729 1.348 . S
C1726 H1758 0.929 . S
C1727 C1728 1.358 . S
C1727 C1729 1.356 . S
C1727 H1759 0.930 . S
C1728 N1725 1.279 . S
C1728 C1727 1.358 . S
C1728 H1731 0.930 . S
C1729 C1726 1.348 . S
C1729 C1727 1.356 . S
H1730 C1724 0.930 . S
H1731 C1728 0.930 . S
O1732 Li1672 1.956 1_565 S
O1732 Li1673 1.970 . S
O1732 Li1674 1.961 . S
O1732 C1676 1.325 . S
O1733 Li1672 1.970 . S
O1733 Li1673 1.956 1_545 S
O1733 Li1675 1.961 . S
O1733 C1682 1.325 . S
O1734 Li1672 1.961 . S
O1734 Li1674 1.956 1_545 S
O1734 Li1675 1.970 . S
O1734 C1704 1.325 . S
O1735 Li1673 1.961 . S
O1735 Li1674 1.970 . S
O1735 Li1675 1.956 1_565 S
O1735 C1710 1.325 . S
H1736 C1678 0.929 . S
H1737 C1679 0.930 . S
H1738 C1680 0.930 . S
H1739 C1681 0.930 . S
H1740 C1683 0.930 . S
H1741 C1685 0.929 . S
H1742 C1686 0.930 . S
H1743 C1687 0.930 . S
H1744 C1690 0.930 . S
H1745 C1693 0.929 . S
H1746 C1698 0.929 . S
H1747 C1699 0.930 . S
H1748 C1706 0.929 . S
H1749 C1707 0.930 . S
H1750 C1708 0.930 . S
H1751 C1709 0.930 . S
H1752 C1711 0.929 . S
H1753 C1712 0.930 . S
H1754 C1713 0.930 . S
H1755 C1714 0.930 . S
H1756 C1718 0.929 . S
H1757 C1720 0.930 . S
H1758 C1726 0.929 . S
H1759 C1727 0.930 . S
Li1760 N1777 1.990 . S
Li1760 O1820 1.956 1_556 S
Li1760 O1821 1.970 . S
Li1760 O1822 1.961 . S
Li1761 N1785 1.990 . S
Li1761 O1820 1.970 . S
Li1761 O1821 1.956 1_554 S
Li1761 O1823 1.961 . S
Li1762 N1807 1.990 . S
Li1762 O1820 1.961 . S
Li1762 O1822 1.956 1_554 S
Li1762 O1823 1.970 . S
Li1763 N1813 1.990 . S
Li1763 O1821 1.961 . S
Li1763 O1822 1.970 . S
Li1763 O1823 1.956 1_556 S
C1764 C1766 1.348 . S
C1764 C1767 1.356 . S
C1764 O1820 1.325 . S
N1765 C1768 1.314 . S
N1765 C1769 1.279 . S
C1766 C1764 1.348 . S
C1766 C1768 1.353 . S
C1766 H1824 0.929 . S
C1767 C1764 1.356 . S
C1767 C1769 1.358 . S
C1767 H1825 0.930 . S
C1768 N1765 1.314 . S
C1768 C1766 1.353 . S
C1768 H1826 0.930 . S
C1769 N1765 1.279 . S
C1769 C1767 1.358 . S
C1769 H1827 0.930 . S
C1770 C1773 1.348 . S
C1770 C1774 1.356 . S
C1770 O1821 1.325 . S
C1771 N1772 1.279 . S
C1771 C1774 1.358 . S
C1771 H1828 0.930 . S
N1772 C1771 1.279 . S
N1772 C1775 1.314 . S
C1773 C1770 1.348 . S
C1773 C1775 1.353 . S
C1773 H1829 0.929 . S
C1774 C1770 1.356 . S
C1774 C1771 1.358 . S
C1774 H1830 0.930 . S
C1775 N1772 1.314 . S
C1775 C1773 1.353 . S
C1775 H1831 0.930 . S
C1776 N1777 1.314 . S
C1776 C1781 1.353 . S
C1776 H1782 0.930 . S
N1777 Li1760 1.990 . S
N1777 C1776 1.314 . S
N1777 C1779 1.279 . S
C1778 C1779 1.358 . S
C1778 C1780 1.356 . S
C1778 H1832 0.930 . S
C1779 N1777 1.279 . S
C1779 C1778 1.358 . S
C1779 H1783 0.930 . S
C1780 C1778 1.356 . S
C1780 C1781 1.348 . S
C1781 C1776 1.353 . S
C1781 C1780 1.348 . S
C1781 H1833 0.929 . S
H1782 C1776 0.930 . S
H1783 C1779 0.930 . S
C1784 N1785 1.314 . S
C1784 C1786 1.353 . S
C1784 H1790 0.930 . S
N1785 Li1761 1.990 . S
N1785 C1784 1.314 . S
N1785 C1788 1.279 . S
C1786 C1784 1.353 . S
C1786 C1789 1.348 . S
C1786 H1834 0.929 . S
C1787 C1788 1.358 . S
C1787 C1789 1.356 . S
C1787 H1835 0.930 . S
C1788 N1785 1.279 . S
C1788 C1787 1.358 . S
C1788 H1791 0.930 1_554 S
C1789 C1786 1.348 . S
C1789 C1787 1.356 . S
H1790 C1784 0.930 . S
H1791 C1788 0.930 1_556 S
C1792 C1794 1.348 . S
C1792 C1795 1.356 . S
C1792 O1822 1.325 . S
N1793 C1796 1.314 . S
N1793 C1797 1.279 . S
C1794 C1792 1.348 . S
C1794 C1796 1.353 . S
C1794 H1836 0.929 . S
C1795 C1792 1.356 . S
C1795 C1797 1.358 . S
C1795 H1837 0.930 . S
C1796 N1793 1.314 . S
C1796 C1794 1.353 . S
C1796 H1838 0.930 . S
C1797 N1793 1.279 . S
C1797 C1795 1.358 . S
C1797 H1839 0.930 . S
C1798 C1799 1.348 . S
C1798 C1800 1.356 . S
C1798 O1823 1.325 . S
C1799 C1798 1.348 . S
C1799 C1801 1.353 . S
C1799 H1840 0.929 . S
C1800 C1798 1.356 . S
C1800 C1802 1.358 . S
C1800 H1841 0.930 . S
C1801 C1799 1.353 . S
C1801 N1803 1.314 . S
C1801 H1842 0.930 . S
C1802 C1800 1.358 . S
C1802 N1803 1.279 . S
C1802 H1843 0.930 . S
N1803 C1801 1.314 . S
N1803 C1802 1.279 . S
C1804 C1806 1.353 . S
C1804 N1807 1.314 . S
C1804 H1810 0.930 . S
C1805 N1807 1.279 . S
C1805 C1808 1.358 . S
C1805 H1811 0.930 . S
C1806 C1804 1.353 . S
C1806 C1809 1.348 . S
C1806 H1844 0.929 . S
N1807 Li1762 1.990 . S
N1807 C1804 1.314 . S
N1807 C1805 1.279 . S
C1808 C1805 1.358 . S
C1808 C1809 1.356 . S
C1808 H1845 0.930 . S
C1809 C1806 1.348 . S
C1809 C1808 1.356 . S
H1810 C1804 0.930 . S
H1811 C1805 0.930 . S
C1812 N1813 1.314 . S
C1812 C1814 1.353 . S
C1812 H1818 0.930 . S
N1813 Li1763 1.990 . S
N1813 C1812 1.314 . S
N1813 C1816 1.279 . S
C1814 C1812 1.353 . S
C1814 C1817 1.348 . S
C1814 H1846 0.929 . S
C1815 C1816 1.358 . S
C1815 C1817 1.356 . S
C1815 H1847 0.930 . S
C1816 N1813 1.279 . S
C1816 C1815 1.358 . S
C1816 H1819 0.930 1_556 S
C1817 C1814 1.348 . S
C1817 C1815 1.356 . S
H1818 C1812 0.930 . S
H1819 C1816 0.930 1_554 S
O1820 Li1760 1.956 1_554 S
O1820 Li1761 1.970 . S
O1820 Li1762 1.961 . S
O1820 C1764 1.325 . S
O1821 Li1760 1.970 . S
O1821 Li1761 1.956 1_556 S
O1821 Li1763 1.961 . S
O1821 C1770 1.325 . S
O1822 Li1760 1.961 . S
O1822 Li1762 1.956 1_556 S
O1822 Li1763 1.970 . S
O1822 C1792 1.325 . S
O1823 Li1761 1.961 . S
O1823 Li1762 1.970 . S
O1823 Li1763 1.956 1_554 S
O1823 C1798 1.325 . S
H1824 C1766 0.929 . S
H1825 C1767 0.930 . S
H1826 C1768 0.930 . S
H1827 C1769 0.930 . S
H1828 C1771 0.930 . S
H1829 C1773 0.929 . S
H1830 C1774 0.930 . S
H1831 C1775 0.930 . S
H1832 C1778 0.930 . S
H1833 C1781 0.929 . S
H1834 C1786 0.929 . S
H1835 C1787 0.930 . S
H1836 C1794 0.929 . S
H1837 C1795 0.930 . S
H1838 C1796 0.930 . S
H1839 C1797 0.930 . S
H1840 C1799 0.929 . S
H1841 C1800 0.930 . S
H1842 C1801 0.930 . S
H1843 C1802 0.930 . S
H1844 C1806 0.929 . S
H1845 C1808 0.930 . S
H1846 C1814 0.929 . S
H1847 C1815 0.930 . S
Li1848 N1865 1.990 . S
Li1848 O1908 1.956 . S
Li1848 O1909 1.970 . S
Li1848 O1910 1.961 . S
Li1849 N1873 1.990 . S
Li1849 O1908 1.970 . S
Li1849 O1909 1.956 . S
Li1849 O1911 1.961 . S
Li1850 N1895 1.990 . S
Li1850 O1908 1.961 . S
Li1850 O1910 1.956 . S
Li1850 O1911 1.970 . S
Li1851 N1901 1.990 . S
Li1851 O1909 1.961 . S
Li1851 O1910 1.970 . S
Li1851 O1911 1.956 . S
C1852 C1854 1.348 . S
C1852 C1855 1.356 . S
C1852 O1908 1.325 . S
N1853 C1856 1.314 . S
N1853 C1857 1.279 . S
C1854 C1852 1.348 . S
C1854 C1856 1.353 . S
C1854 H1912 0.929 . S
C1855 C1852 1.356 . S
C1855 C1857 1.358 . S
C1855 H1913 0.930 . S
C1856 N1853 1.314 . S
C1856 C1854 1.353 . S
C1856 H1914 0.930 . S
C1857 N1853 1.279 . S
C1857 C1855 1.358 . S
C1857 H1915 0.930 . S
C1858 C1861 1.348 . S
C1858 C1862 1.356 . S
C1858 O1909 1.325 . S
C1859 N1860 1.279 . S
C1859 C1862 1.358 . S
C1859 H1916 0.930 . S
N1860 C1859 1.279 . S
N1860 C1863 1.314 . S
C1861 C1858 1.348 . S
C1861 C1863 1.353 . S
C1861 H1917 0.929 . S
C1862 C1858 1.356 . S
C1862 C1859 1.358 . S
C1862 H1918 0.930 . S
C1863 N1860 1.314 . S
C1863 C1861 1.353 . S
C1863 H1919 0.930 . S
C1864 N1865 1.314 . S
C1864 C1869 1.353 . S
C1864 H1870 0.930 . S
N1865 Li1848 1.990 . S
N1865 C1864 1.314 . S
N1865 C1867 1.279 . S
C1866 C1867 1.358 . S
C1866 C1868 1.356 . S
C1866 H1920 0.930 . S
C1867 N1865 1.279 . S
C1867 C1866 1.358 . S
C1867 H1871 0.930 . S
C1868 C1866 1.356 . S
C1868 C1869 1.348 . S
C1869 C1864 1.353 . S
C1869 C1868 1.348 . S
C1869 H1921 0.929 . S
H1870 C1864 0.930 . S
H1871 C1867 0.930 . S
C1872 N1873 1.314 . S
C1872 C1874 1.353 . S
C1872 H1878 0.930 . S
N1873 Li1849 1.990 . S
N1873 C1872 1.314 . S
N1873 C1876 1.279 . S
C1874 C1872 1.353 . S
C1874 C1877 1.348 . S
C1874 H1922 0.929 . S
C1875 C1876 1.358 . S
C1875 C1877 1.356 . S
C1875 H1923 0.930 . S
C1876 N1873 1.279 . S
C1876 C1875 1.358 . S
C1876 H1879 0.930 . S
C1877 C1874 1.348 . S
C1877 C1875 1.356 . S
H1878 C1872 0.930 . S
H1879 C1876 0.930 . S
C1880 C1882 1.348 . S
C1880 C1883 1.356 . S
C1880 O1910 1.325 . S
N1881 C1884 1.314 . S
N1881 C1885 1.279 . S
C1882 C1880 1.348 . S
C1882 C1884 1.353 . S
C1882 H1924 0.929 . S
C1883 C1880 1.356 . S
C1883 C1885 1.358 . S
C1883 H1925 0.930 . S
C1884 N1881 1.314 . S
C1884 C1882 1.353 . S
C1884 H1926 0.930 . S
C1885 N1881 1.279 . S
C1885 C1883 1.358 . S
C1885 H1927 0.930 . S
C1886 C1887 1.348 . S
C1886 C1888 1.356 . S
C1886 O1911 1.325 . S
C1887 C1886 1.348 . S
C1887 C1889 1.353 . S
C1887 H1928 0.929 . S
C1888 C1886 1.356 . S
C1888 C1890 1.358 . S
C1888 H1929 0.930 . S
C1889 C1887 1.353 . S
C1889 N1891 1.314 . S
C1889 H1930 0.930 . S
C1890 C1888 1.358 . S
C1890 N1891 1.279 . S
C1890 H1931 0.930 . S
N1891 C1889 1.314 . S
N1891 C1890 1.279 . S
C1892 C1894 1.353 . S
C1892 N1895 1.314 . S
C1892 H1898 0.930 . S
C1893 N1895 1.279 . S
C1893 C1896 1.358 . S
C1893 H1899 0.930 . S
C1894 C1892 1.353 . S
C1894 C1897 1.348 . S
C1894 H1932 0.929 . S
N1895 Li1850 1.990 . S
N1895 C1892 1.314 . S
N1895 C1893 1.279 . S
C1896 C1893 1.358 . S
C1896 C1897 1.356 . S
C1896 H1933 0.930 . S
C1897 C1894 1.348 . S
C1897 C1896 1.356 . S
H1898 C1892 0.930 . S
H1899 C1893 0.930 . S
C1900 N1901 1.314 . S
C1900 C1902 1.353 . S
C1900 H1906 0.930 . S
N1901 Li1851 1.990 . S
N1901 C1900 1.314 . S
N1901 C1904 1.279 . S
C1902 C1900 1.353 . S
C1902 C1905 1.348 . S
C1902 H1934 0.929 . S
C1903 C1904 1.358 . S
C1903 C1905 1.356 . S
C1903 H1935 0.930 . S
C1904 N1901 1.279 . S
C1904 C1903 1.358 . S
C1904 H1907 0.930 . S
C1905 C1902 1.348 . S
C1905 C1903 1.356 . S
H1906 C1900 0.930 . S
H1907 C1904 0.930 . S
O1908 Li1848 1.956 . S
O1908 Li1849 1.970 . S
O1908 Li1850 1.961 . S
O1908 C1852 1.325 . S
O1909 Li1848 1.970 . S
O1909 Li1849 1.956 . S
O1909 Li1851 1.961 . S
O1909 C1858 1.325 . S
O1910 Li1848 1.961 . S
O1910 Li1850 1.956 . S
O1910 Li1851 1.970 . S
O1910 C1880 1.325 . S
O1911 Li1849 1.961 . S
O1911 Li1850 1.970 . S
O1911 Li1851 1.956 . S
O1911 C1886 1.325 . S
H1912 C1854 0.929 . S
H1913 C1855 0.930 . S
H1914 C1856 0.930 . S
H1915 C1857 0.930 . S
H1916 C1859 0.930 . S
H1917 C1861 0.929 . S
H1918 C1862 0.930 . S
H1919 C1863 0.930 . S
H1920 C1866 0.930 . S
H1921 C1869 0.929 . S
H1922 C1874 0.929 . S
H1923 C1875 0.930 . S
H1924 C1882 0.929 . S
H1925 C1883 0.930 . S
H1926 C1884 0.930 . S
H1927 C1885 0.930 . S
H1928 C1887 0.929 . S
H1929 C1888 0.930 . S
H1930 C1889 0.930 . S
H1931 C1890 0.930 . S
H1932 C1894 0.929 . S
H1933 C1896 0.930 . S
H1934 C1902 0.929 . S
H1935 C1903 0.930 . S
Li1936 N1953 1.990 . S
Li1936 O1996 1.956 . S
Li1936 O1997 1.970 . S
Li1936 O1998 1.961 . S
Li1937 N1961 1.990 . S
Li1937 O1996 1.970 . S
Li1937 O1997 1.956 . S
Li1937 O1999 1.961 . S
Li1938 N1983 1.990 . S
Li1938 O1996 1.961 . S
Li1938 O1998 1.956 . S
Li1938 O1999 1.970 . S
Li1939 N1989 1.990 . S
Li1939 O1997 1.961 . S
Li1939 O1998 1.970 . S
Li1939 O1999 1.956 . S
C1940 C1942 1.348 . S
C1940 C1943 1.356 . S
C1940 O1996 1.325 . S
N1941 C1944 1.314 . S
N1941 C1945 1.279 . S
C1942 C1940 1.348 . S
C1942 C1944 1.353 . S
C1942 H2000 0.929 . S
C1943 C1940 1.356 . S
C1943 C1945 1.358 . S
C1943 H2001 0.930 . S
C1944 N1941 1.314 . S
C1944 C1942 1.353 . S
C1944 H2002 0.930 . S
C1945 N1941 1.279 . S
C1945 C1943 1.358 . S
C1945 H2003 0.930 . S
C1946 C1949 1.348 . S
C1946 C1950 1.356 . S
C1946 O1997 1.325 . S
C1947 N1948 1.279 . S
C1947 C1950 1.358 . S
C1947 H2004 0.930 . S
N1948 C1947 1.279 . S
N1948 C1951 1.314 . S
C1949 C1946 1.348 . S
C1949 C1951 1.353 . S
C1949 H2005 0.929 . S
C1950 C1946 1.356 . S
C1950 C1947 1.358 . S
C1950 H2006 0.930 . S
C1951 N1948 1.314 . S
C1951 C1949 1.353 . S
C1951 H2007 0.930 . S
C1952 N1953 1.314 . S
C1952 C1957 1.353 . S
C1952 H1958 0.930 . S
N1953 Li1936 1.990 . S
N1953 C1952 1.314 . S
N1953 C1955 1.279 . S
C1954 C1955 1.358 . S
C1954 C1956 1.356 . S
C1954 H2008 0.930 . S
C1955 N1953 1.279 . S
C1955 C1954 1.358 . S
C1955 H1959 0.930 . S
C1956 C1954 1.356 . S
C1956 C1957 1.348 . S
C1957 C1952 1.353 . S
C1957 C1956 1.348 . S
C1957 H2009 0.929 . S
H1958 C1952 0.930 . S
H1959 C1955 0.930 . S
C1960 N1961 1.314 . S
C1960 C1962 1.353 . S
C1960 H1966 0.930 . S
N1961 Li1937 1.990 . S
N1961 C1960 1.314 . S
N1961 C1964 1.279 . S
C1962 C1960 1.353 . S
C1962 C1965 1.348 . S
C1962 H2010 0.929 . S
C1963 C1964 1.358 . S
C1963 C1965 1.356 . S
C1963 H2011 0.930 . S
C1964 N1961 1.279 . S
C1964 C1963 1.358 . S
C1964 H1967 0.930 . S
C1965 C1962 1.348 . S
C1965 C1963 1.356 . S
H1966 C1960 0.930 . S
H1967 C1964 0.930 . S
C1968 C1970 1.348 . S
C1968 C1971 1.356 . S
C1968 O1998 1.325 . S
N1969 C1972 1.314 . S
N1969 C1973 1.279 . S
C1970 C1968 1.348 . S
C1970 C1972 1.353 . S
C1970 H2012 0.929 . S
C1971 C1968 1.356 . S
C1971 C1973 1.358 . S
C1971 H2013 0.930 . S
C1972 N1969 1.314 . S
C1972 C1970 1.353 . S
C1972 H2014 0.930 . S
C1973 N1969 1.279 . S
C1973 C1971 1.358 . S
C1973 H2015 0.930 . S
C1974 C1975 1.348 . S
C1974 C1976 1.356 . S
C1974 O1999 1.325 . S
C1975 C1974 1.348 . S
C1975 C1977 1.353 . S
C1975 H2016 0.929 . S
C1976 C1974 1.356 . S
C1976 C1978 1.358 . S
C1976 H2017 0.930 . S
C1977 C1975 1.353 . S
C1977 N1979 1.314 . S
C1977 H2018 0.930 . S
C1978 C1976 1.358 . S
C1978 N1979 1.279 . S
C1978 H2019 0.930 . S
N1979 C1977 1.314 . S
N1979 C1978 1.279 . S
C1980 C1982 1.353 . S
C1980 N1983 1.314 . S
C1980 H1986 0.930 . S
C1981 N1983 1.279 . S
C1981 C1984 1.358 . S
C1981 H1987 0.930 . S
C1982 C1980 1.353 . S
C1982 C1985 1.348 . S
C1982 H2020 0.929 . S
N1983 Li1938 1.990 . S
N1983 C1980 1.314 . S
N1983 C1981 1.279 . S
C1984 C1981 1.358 . S
C1984 C1985 1.356 . S
C1984 H2021 0.930 . S
C1985 C1982 1.348 . S
C1985 C1984 1.356 . S
H1986 C1980 0.930 . S
H1987 C1981 0.930 . S
C1988 N1989 1.314 . S
C1988 C1990 1.353 . S
C1988 H1994 0.930 . S
N1989 Li1939 1.990 . S
N1989 C1988 1.314 . S
N1989 C1992 1.279 . S
C1990 C1988 1.353 . S
C1990 C1993 1.348 . S
C1990 H2022 0.929 . S
C1991 C1992 1.358 . S
C1991 C1993 1.356 . S
C1991 H2023 0.930 . S
C1992 N1989 1.279 . S
C1992 C1991 1.358 . S
C1992 H1995 0.930 . S
C1993 C1990 1.348 . S
C1993 C1991 1.356 . S
H1994 C1988 0.930 . S
H1995 C1992 0.930 . S
O1996 Li1936 1.956 . S
O1996 Li1937 1.970 . S
O1996 Li1938 1.961 . S
O1996 C1940 1.325 . S
O1997 Li1936 1.970 . S
O1997 Li1937 1.956 . S
O1997 Li1939 1.961 . S
O1997 C1946 1.325 . S
O1998 Li1936 1.961 . S
O1998 Li1938 1.956 . S
O1998 Li1939 1.970 . S
O1998 C1968 1.325 . S
O1999 Li1937 1.961 . S
O1999 Li1938 1.970 . S
O1999 Li1939 1.956 . S
O1999 C1974 1.325 . S
H2000 C1942 0.929 . S
H2001 C1943 0.930 . S
H2002 C1944 0.930 . S
H2003 C1945 0.930 . S
H2004 C1947 0.930 . S
H2005 C1949 0.929 . S
H2006 C1950 0.930 . S
H2007 C1951 0.930 . S
H2008 C1954 0.930 . S
H2009 C1957 0.929 . S
H2010 C1962 0.929 . S
H2011 C1963 0.930 . S
H2012 C1970 0.929 . S
H2013 C1971 0.930 . S
H2014 C1972 0.930 . S
H2015 C1973 0.930 . S
H2016 C1975 0.929 . S
H2017 C1976 0.930 . S
H2018 C1977 0.930 . S
H2019 C1978 0.930 . S
H2020 C1982 0.929 . S
H2021 C1984 0.930 . S
H2022 C1990 0.929 . S
H2023 C1991 0.930 . S
Li2024 N2041 1.990 . S
Li2024 O2084 1.956 . S
Li2024 O2085 1.970 . S
Li2024 O2086 1.961 . S
Li2025 N2049 1.990 . S
Li2025 O2084 1.970 . S
Li2025 O2085 1.956 . S
Li2025 O2087 1.961 . S
Li2026 N2071 1.990 . S
Li2026 O2084 1.961 . S
Li2026 O2086 1.956 . S
Li2026 O2087 1.970 . S
Li2027 N2077 1.990 . S
Li2027 O2085 1.961 . S
Li2027 O2086 1.970 . S
Li2027 O2087 1.956 . S
C2028 C2030 1.348 . S
C2028 C2031 1.356 . S
C2028 O2084 1.325 . S
N2029 C2032 1.314 . S
N2029 C2033 1.279 . S
C2030 C2028 1.348 . S
C2030 C2032 1.353 . S
C2030 H2088 0.929 . S
C2031 C2028 1.356 . S
C2031 C2033 1.358 . S
C2031 H2089 0.930 . S
C2032 N2029 1.314 . S
C2032 C2030 1.353 . S
C2032 H2090 0.930 . S
C2033 N2029 1.279 . S
C2033 C2031 1.358 . S
C2033 H2091 0.930 . S
C2034 C2037 1.348 . S
C2034 C2038 1.356 . S
C2034 O2085 1.325 . S
C2035 N2036 1.279 . S
C2035 C2038 1.358 . S
C2035 H2092 0.930 . S
N2036 C2035 1.279 . S
N2036 C2039 1.314 . S
C2037 C2034 1.348 . S
C2037 C2039 1.353 . S
C2037 H2093 0.929 . S
C2038 C2034 1.356 . S
C2038 C2035 1.358 . S
C2038 H2094 0.930 . S
C2039 N2036 1.314 . S
C2039 C2037 1.353 . S
C2039 H2095 0.930 . S
C2040 N2041 1.314 . S
C2040 C2045 1.353 . S
C2040 H2046 0.930 . S
N2041 Li2024 1.990 . S
N2041 C2040 1.314 . S
N2041 C2043 1.279 . S
C2042 C2043 1.358 . S
C2042 C2044 1.356 . S
C2042 H2096 0.930 . S
C2043 N2041 1.279 . S
C2043 C2042 1.358 . S
C2043 H2047 0.930 . S
C2044 C2042 1.356 . S
C2044 C2045 1.348 . S
C2045 C2040 1.353 . S
C2045 C2044 1.348 . S
C2045 H2097 0.929 . S
H2046 C2040 0.930 . S
H2047 C2043 0.930 . S
C2048 N2049 1.314 . S
C2048 C2050 1.353 . S
C2048 H2054 0.930 . S
N2049 Li2025 1.990 . S
N2049 C2048 1.314 . S
N2049 C2052 1.279 . S
C2050 C2048 1.353 . S
C2050 C2053 1.348 . S
C2050 H2098 0.929 . S
C2051 C2052 1.358 . S
C2051 C2053 1.356 . S
C2051 H2099 0.930 . S
C2052 N2049 1.279 . S
C2052 C2051 1.358 . S
C2052 H2055 0.930 . S
C2053 C2050 1.348 . S
C2053 C2051 1.356 . S
H2054 C2048 0.930 . S
H2055 C2052 0.930 . S
C2056 C2058 1.348 . S
C2056 C2059 1.356 . S
C2056 O2086 1.325 . S
N2057 C2060 1.314 . S
N2057 C2061 1.279 . S
C2058 C2056 1.348 . S
C2058 C2060 1.353 . S
C2058 H2100 0.929 . S
C2059 C2056 1.356 . S
C2059 C2061 1.358 . S
C2059 H2101 0.930 . S
C2060 N2057 1.314 . S
C2060 C2058 1.353 . S
C2060 H2102 0.930 . S
C2061 N2057 1.279 . S
C2061 C2059 1.358 . S
C2061 H2103 0.930 . S
C2062 C2063 1.348 . S
C2062 C2064 1.356 . S
C2062 O2087 1.325 . S
C2063 C2062 1.348 . S
C2063 C2065 1.353 . S
C2063 H2104 0.929 . S
C2064 C2062 1.356 . S
C2064 C2066 1.358 . S
C2064 H2105 0.930 . S
C2065 C2063 1.353 . S
C2065 N2067 1.314 . S
C2065 H2106 0.930 . S
C2066 C2064 1.358 . S
C2066 N2067 1.279 . S
C2066 H2107 0.930 . S
N2067 C2065 1.314 . S
N2067 C2066 1.279 . S
C2068 C2070 1.353 . S
C2068 N2071 1.314 . S
C2068 H2074 0.930 . S
C2069 N2071 1.279 . S
C2069 C2072 1.358 . S
C2069 H2075 0.930 . S
C2070 C2068 1.353 . S
C2070 C2073 1.348 . S
C2070 H2108 0.929 . S
N2071 Li2026 1.990 . S
N2071 C2068 1.314 . S
N2071 C2069 1.279 . S
C2072 C2069 1.358 . S
C2072 C2073 1.356 . S
C2072 H2109 0.930 . S
C2073 C2070 1.348 . S
C2073 C2072 1.356 . S
H2074 C2068 0.930 . S
H2075 C2069 0.930 . S
C2076 N2077 1.314 . S
C2076 C2078 1.353 . S
C2076 H2082 0.930 . S
N2077 Li2027 1.990 . S
N2077 C2076 1.314 . S
N2077 C2080 1.279 . S
C2078 C2076 1.353 . S
C2078 C2081 1.348 . S
C2078 H2110 0.929 . S
C2079 C2080 1.358 . S
C2079 C2081 1.356 . S
C2079 H2111 0.930 . S
C2080 N2077 1.279 . S
C2080 C2079 1.358 . S
C2080 H2083 0.930 . S
C2081 C2078 1.348 . S
C2081 C2079 1.356 . S
H2082 C2076 0.930 . S
H2083 C2080 0.930 . S
O2084 Li2024 1.956 . S
O2084 Li2025 1.970 . S
O2084 Li2026 1.961 . S
O2084 C2028 1.325 . S
O2085 Li2024 1.970 . S
O2085 Li2025 1.956 . S
O2085 Li2027 1.961 . S
O2085 C2034 1.325 . S
O2086 Li2024 1.961 . S
O2086 Li2026 1.956 . S
O2086 Li2027 1.970 . S
O2086 C2056 1.325 . S
O2087 Li2025 1.961 . S
O2087 Li2026 1.970 . S
O2087 Li2027 1.956 . S
O2087 C2062 1.325 . S
H2088 C2030 0.929 . S
H2089 C2031 0.930 . S
H2090 C2032 0.930 . S
H2091 C2033 0.930 . S
H2092 C2035 0.930 . S
H2093 C2037 0.929 . S
H2094 C2038 0.930 . S
H2095 C2039 0.930 . S
H2096 C2042 0.930 . S
H2097 C2045 0.929 . S
H2098 C2050 0.929 . S
H2099 C2051 0.930 . S
H2100 C2058 0.929 . S
H2101 C2059 0.930 . S
H2102 C2060 0.930 . S
H2103 C2061 0.930 . S
H2104 C2063 0.929 . S
H2105 C2064 0.930 . S
H2106 C2065 0.930 . S
H2107 C2066 0.930 . S
H2108 C2070 0.929 . S
H2109 C2072 0.930 . S
H2110 C2078 0.929 . S
H2111 C2079 0.930 . S
H2112 C2118 0.930 . S
H2113 C2121 0.930 . S
H2114 C2122 0.930 . S
H2115 C2123 0.930 . S
H2116 C2126 0.930 . S
H2117 C2127 0.930 . S
C2118 H2112 0.930 . S
C2118 C2119 1.355 . S
C2118 C2120 1.415 . S
C2119 C2118 1.355 . S
C2119 C2121 1.419 . S
C2120 C2118 1.415 . S
C2120 C2125 1.425 . S
C2120 C2127 1.409 . S
C2121 H2113 0.930 . S
C2121 C2119 1.419 . S
C2121 C2122 1.362 . S
C2122 H2114 0.930 . S
C2122 C2121 1.362 . S
C2122 C2125 1.409 . S
C2123 H2115 0.930 . S
C2123 C2124 1.355 . S
C2123 C2125 1.415 . S
C2124 C2123 1.355 . S
C2124 C2126 1.419 . S
C2125 C2120 1.425 . S
C2125 C2122 1.409 . S
C2125 C2123 1.415 . S
C2126 H2116 0.930 . S
C2126 C2124 1.419 . S
C2126 C2127 1.362 . S
C2127 H2117 0.930 . S
C2127 C2120 1.409 . S
C2127 C2126 1.362 . S
H2128 C2134 0.930 . S
H2129 C2137 0.930 . S
H2130 C2138 0.930 . S
H2131 C2139 0.930 . S
H2132 C2142 0.930 . S
H2133 C2143 0.930 . S
C2134 H2128 0.930 . S
C2134 C2135 1.355 . S
C2134 C2136 1.415 . S
C2135 C2134 1.355 . S
C2135 C2137 1.419 . S
C2136 C2134 1.415 . S
C2136 C2141 1.425 . S
C2136 C2143 1.409 . S
C2137 H2129 0.930 . S
C2137 C2135 1.419 . S
C2137 C2138 1.362 . S
C2138 H2130 0.930 . S
C2138 C2137 1.362 . S
C2138 C2141 1.409 . S
C2139 H2131 0.930 . S
C2139 C2140 1.355 . S
C2139 C2141 1.415 . S
C2140 C2139 1.355 . S
C2140 C2142 1.419 . S
C2141 C2136 1.425 . S
C2141 C2138 1.409 . S
C2141 C2139 1.415 . S
C2142 H2132 0.930 . S
C2142 C2140 1.419 . S
C2142 C2143 1.362 . S
C2143 H2133 0.930 . S
C2143 C2136 1.409 . S
C2143 C2142 1.362 . S
H2144 C2150 0.930 . S
H2145 C2153 0.930 . S
H2146 C2154 0.930 . S
H2147 C2155 0.930 . S
H2148 C2158 0.930 . S
H2149 C2159 0.930 . S
C2150 H2144 0.930 . S
C2150 C2151 1.355 . S
C2150 C2152 1.415 . S
C2151 C2150 1.355 . S
C2151 C2153 1.419 . S
C2152 C2150 1.415 . S
C2152 C2157 1.425 . S
C2152 C2159 1.409 . S
C2153 H2145 0.930 . S
C2153 C2151 1.419 . S
C2153 C2154 1.362 . S
C2154 H2146 0.930 . S
C2154 C2153 1.362 . S
C2154 C2157 1.409 . S
C2155 H2147 0.930 . S
C2155 C2156 1.355 . S
C2155 C2157 1.415 . S
C2156 C2155 1.355 . S
C2156 C2158 1.419 . S
C2157 C2152 1.425 . S
C2157 C2154 1.409 . S
C2157 C2155 1.415 . S
C2158 H2148 0.930 . S
C2158 C2156 1.419 . S
C2158 C2159 1.362 . S
C2159 H2149 0.930 . S
C2159 C2152 1.409 . S
C2159 C2158 1.362 . S
H2160 C2166 0.930 . S
H2161 C2169 0.930 . S
H2162 C2170 0.930 . S
H2163 C2171 0.930 . S
H2164 C2174 0.930 . S
H2165 C2175 0.930 . S
C2166 H2160 0.930 . S
C2166 C2167 1.355 . S
C2166 C2168 1.415 . S
C2167 C2166 1.355 . S
C2167 C2169 1.419 . S
C2168 C2166 1.415 . S
C2168 C2173 1.425 . S
C2168 C2175 1.409 . S
C2169 H2161 0.930 . S
C2169 C2167 1.419 . S
C2169 C2170 1.362 . S
C2170 H2162 0.930 . S
C2170 C2169 1.362 . S
C2170 C2173 1.409 . S
C2171 H2163 0.930 . S
C2171 C2172 1.355 . S
C2171 C2173 1.415 . S
C2172 C2171 1.355 . S
C2172 C2174 1.419 . S
C2173 C2168 1.425 . S
C2173 C2170 1.409 . S
C2173 C2171 1.415 . S
C2174 H2164 0.930 . S
C2174 C2172 1.419 . S
C2174 C2175 1.362 . S
C2175 H2165 0.930 . S
C2175 C2168 1.409 . S
C2175 C2174 1.362 . S
H2176 C2182 0.930 . S
H2177 C2185 0.930 . S
H2178 C2186 0.930 . S
H2179 C2187 0.930 . S
H2180 C2190 0.930 . S
H2181 C2191 0.930 . S
C2182 H2176 0.930 . S
C2182 C2183 1.355 . S
C2182 C2184 1.415 . S
C2183 C2182 1.355 . S
C2183 C2185 1.419 . S
C2184 C2182 1.415 . S
C2184 C2189 1.425 . S
C2184 C2191 1.409 . S
C2185 H2177 0.930 . S
C2185 C2183 1.419 . S
C2185 C2186 1.362 . S
C2186 H2178 0.930 . S
C2186 C2185 1.362 . S
C2186 C2189 1.409 . S
C2187 H2179 0.930 . S
C2187 C2188 1.355 . S
C2187 C2189 1.415 . S
C2188 C2187 1.355 . S
C2188 C2190 1.419 . S
C2189 C2184 1.425 . S
C2189 C2186 1.409 . S
C2189 C2187 1.415 . S
C2190 H2180 0.930 . S
C2190 C2188 1.419 . S
C2190 C2191 1.362 . S
C2191 H2181 0.930 . S
C2191 C2184 1.409 . S
C2191 C2190 1.362 . S
H2192 C2198 0.930 . S
H2193 C2201 0.930 . S
H2194 C2202 0.930 . S
H2195 C2203 0.930 . S
H2196 C2206 0.930 . S
H2197 C2207 0.930 . S
C2198 H2192 0.930 . S
C2198 C2199 1.355 . S
C2198 C2200 1.415 . S
C2199 C2198 1.355 . S
C2199 C2201 1.419 . S
C2200 C2198 1.415 . S
C2200 C2205 1.425 . S
C2200 C2207 1.409 . S
C2201 H2193 0.930 . S
C2201 C2199 1.419 . S
C2201 C2202 1.362 . S
C2202 H2194 0.930 . S
C2202 C2201 1.362 . S
C2202 C2205 1.409 . S
C2203 H2195 0.930 . S
C2203 C2204 1.355 . S
C2203 C2205 1.415 . S
C2204 C2203 1.355 . S
C2204 C2206 1.419 . S
C2205 C2200 1.425 . S
C2205 C2202 1.409 . S
C2205 C2203 1.415 . S
C2206 H2196 0.930 . S
C2206 C2204 1.419 . S
C2206 C2207 1.362 . S
C2207 H2197 0.930 . S
C2207 C2200 1.409 . S
C2207 C2206 1.362 . S
H2208 C2214 0.930 . S
H2209 C2217 0.930 . S
H2210 C2218 0.930 . S
H2211 C2219 0.930 . S
H2212 C2222 0.930 . S
H2213 C2223 0.930 . S
C2214 H2208 0.930 . S
C2214 C2215 1.355 . S
C2214 C2216 1.415 . S
C2215 C2214 1.355 . S
C2215 C2217 1.419 . S
C2216 C2214 1.415 . S
C2216 C2221 1.425 . S
C2216 C2223 1.409 . S
C2217 H2209 0.930 . S
C2217 C2215 1.419 . S
C2217 C2218 1.362 . S
C2218 H2210 0.930 . S
C2218 C2217 1.362 . S
C2218 C2221 1.409 . S
C2219 H2211 0.930 . S
C2219 C2220 1.355 . S
C2219 C2221 1.415 . S
C2220 C2219 1.355 . S
C2220 C2222 1.419 . S
C2221 C2216 1.425 . S
C2221 C2218 1.409 . S
C2221 C2219 1.415 . S
C2222 H2212 0.930 . S
C2222 C2220 1.419 . S
C2222 C2223 1.362 . S
C2223 H2213 0.930 . S
C2223 C2216 1.409 . S
C2223 C2222 1.362 . S
H2224 C2230 0.930 . S
H2225 C2233 0.930 . S
H2226 C2234 0.930 . S
H2227 C2235 0.930 . S
H2228 C2238 0.930 . S
H2229 C2239 0.930 . S
C2230 H2224 0.930 . S
C2230 C2231 1.355 . S
C2230 C2232 1.415 . S
C2231 C2230 1.355 . S
C2231 C2233 1.419 . S
C2232 C2230 1.415 . S
C2232 C2237 1.425 . S
C2232 C2239 1.409 . S
C2233 H2225 0.930 . S
C2233 C2231 1.419 . S
C2233 C2234 1.362 . S
C2234 H2226 0.930 . S
C2234 C2233 1.362 . S
C2234 C2237 1.409 . S
C2235 H2227 0.930 . S
C2235 C2236 1.355 . S
C2235 C2237 1.415 . S
C2236 C2235 1.355 . S
C2236 C2238 1.419 . S
C2237 C2232 1.425 . S
C2237 C2234 1.409 . S
C2237 C2235 1.415 . S
C2238 H2228 0.930 . S
C2238 C2236 1.419 . S
C2238 C2239 1.362 . S
C2239 H2229 0.930 . S
C2239 C2232 1.409 . S
C2239 C2238 1.362 . S
H2240 C2246 0.930 . S
H2241 C2249 0.930 . S
H2242 C2250 0.930 . S
H2243 C2251 0.930 . S
H2244 C2254 0.930 . S
H2245 C2255 0.930 . S
C2246 H2240 0.930 . S
C2246 C2247 1.355 . S
C2246 C2248 1.415 . S
C2247 C2246 1.355 . S
C2247 C2249 1.419 . S
C2248 C2246 1.415 . S
C2248 C2253 1.425 . S
C2248 C2255 1.409 . S
C2249 H2241 0.930 . S
C2249 C2247 1.419 . S
C2249 C2250 1.362 . S
C2250 H2242 0.930 . S
C2250 C2249 1.362 . S
C2250 C2253 1.409 . S
C2251 H2243 0.930 . S
C2251 C2252 1.355 . S
C2251 C2253 1.415 . S
C2252 C2251 1.355 . S
C2252 C2254 1.419 . S
C2253 C2248 1.425 . S
C2253 C2250 1.409 . S
C2253 C2251 1.415 . S
C2254 H2244 0.930 . S
C2254 C2252 1.419 . S
C2254 C2255 1.362 . S
C2255 H2245 0.930 . S
C2255 C2248 1.409 . S
C2255 C2254 1.362 . S
H2256 C2262 0.930 . S
H2257 C2265 0.930 . S
H2258 C2266 0.930 . S
H2259 C2267 0.930 . S
H2260 C2270 0.930 . S
H2261 C2271 0.930 . S
C2262 H2256 0.930 . S
C2262 C2263 1.355 . S
C2262 C2264 1.415 . S
C2263 C2262 1.355 . S
C2263 C2265 1.419 . S
C2264 C2262 1.415 . S
C2264 C2269 1.425 . S
C2264 C2271 1.409 . S
C2265 H2257 0.930 . S
C2265 C2263 1.419 . S
C2265 C2266 1.362 . S
C2266 H2258 0.930 . S
C2266 C2265 1.362 . S
C2266 C2269 1.409 . S
C2267 H2259 0.930 . S
C2267 C2268 1.355 . S
C2267 C2269 1.415 . S
C2268 C2267 1.355 . S
C2268 C2270 1.419 . S
C2269 C2264 1.425 . S
C2269 C2266 1.409 . S
C2269 C2267 1.415 . S
C2270 H2260 0.930 . S
C2270 C2268 1.419 . S
C2270 C2271 1.362 . S
C2271 H2261 0.930 . S
C2271 C2264 1.409 . S
C2271 C2270 1.362 . S
H2272 C2278 0.930 . S
H2273 C2281 0.930 . S
H2274 C2282 0.930 . S
H2275 C2283 0.930 . S
H2276 C2286 0.930 . S
H2277 C2287 0.930 . S
C2278 H2272 0.930 . S
C2278 C2279 1.355 . S
C2278 C2280 1.415 . S
C2279 C2278 1.355 . S
C2279 C2281 1.419 . S
C2280 C2278 1.415 . S
C2280 C2285 1.425 . S
C2280 C2287 1.409 . S
C2281 H2273 0.930 . S
C2281 C2279 1.419 . S
C2281 C2282 1.362 . S
C2282 H2274 0.930 . S
C2282 C2281 1.362 . S
C2282 C2285 1.409 . S
C2283 H2275 0.930 . S
C2283 C2284 1.355 . S
C2283 C2285 1.415 . S
C2284 C2283 1.355 . S
C2284 C2286 1.419 . S
C2285 C2280 1.425 . S
C2285 C2282 1.409 . S
C2285 C2283 1.415 . S
C2286 H2276 0.930 . S
C2286 C2284 1.419 . S
C2286 C2287 1.362 . S
C2287 H2277 0.930 . S
C2287 C2280 1.409 . S
C2287 C2286 1.362 . S
H2288 C2294 0.930 . S
H2289 C2297 0.930 . S
H2290 C2298 0.930 . S
H2291 C2299 0.930 . S
H2292 C2302 0.930 . S
H2293 C2303 0.930 . S
C2294 H2288 0.930 . S
C2294 C2295 1.355 . S
C2294 C2296 1.415 . S
C2295 C2294 1.355 . S
C2295 C2297 1.419 . S
C2296 C2294 1.415 . S
C2296 C2301 1.425 . S
C2296 C2303 1.409 . S
C2297 H2289 0.930 . S
C2297 C2295 1.419 . S
C2297 C2298 1.362 . S
C2298 H2290 0.930 . S
C2298 C2297 1.362 . S
C2298 C2301 1.409 . S
C2299 H2291 0.930 . S
C2299 C2300 1.355 . S
C2299 C2301 1.415 . S
C2300 C2299 1.355 . S
C2300 C2302 1.419 . S
C2301 C2296 1.425 . S
C2301 C2298 1.409 . S
C2301 C2299 1.415 . S
C2302 H2292 0.930 . S
C2302 C2300 1.419 . S
C2302 C2303 1.362 . S
C2303 H2293 0.930 . S
C2303 C2296 1.409 . S
C2303 C2302 1.362 . S
H2304 C2310 0.930 . S
H2305 C2313 0.930 . S
H2306 C2314 0.930 . S
H2307 C2315 0.930 . S
H2308 C2318 0.930 . S
H2309 C2319 0.930 . S
C2310 H2304 0.930 . S
C2310 C2311 1.355 . S
C2310 C2312 1.415 . S
C2311 C2310 1.355 . S
C2311 C2313 1.419 . S
C2312 C2310 1.415 . S
C2312 C2317 1.425 . S
C2312 C2319 1.409 . S
C2313 H2305 0.930 . S
C2313 C2311 1.419 . S
C2313 C2314 1.362 . S
C2314 H2306 0.930 . S
C2314 C2313 1.362 . S
C2314 C2317 1.409 . S
C2315 H2307 0.930 . S
C2315 C2316 1.355 . S
C2315 C2317 1.415 . S
C2316 C2315 1.355 . S
C2316 C2318 1.419 . S
C2317 C2312 1.425 . S
C2317 C2314 1.409 . S
C2317 C2315 1.415 . S
C2318 H2308 0.930 . S
C2318 C2316 1.419 . S
C2318 C2319 1.362 . S
C2319 H2309 0.930 . S
C2319 C2312 1.409 . S
C2319 C2318 1.362 . S
H2320 C2326 0.930 . S
H2321 C2329 0.930 . S
H2322 C2330 0.930 . S
H2323 C2331 0.930 . S
H2324 C2334 0.930 . S
H2325 C2335 0.930 . S
C2326 H2320 0.930 . S
C2326 C2327 1.355 . S
C2326 C2328 1.415 . S
C2327 C2326 1.355 . S
C2327 C2329 1.419 . S
C2328 C2326 1.415 . S
C2328 C2333 1.425 . S
C2328 C2335 1.409 . S
C2329 H2321 0.930 . S
C2329 C2327 1.419 . S
C2329 C2330 1.362 . S
C2330 H2322 0.930 . S
C2330 C2329 1.362 . S
C2330 C2333 1.409 . S
C2331 H2323 0.930 . S
C2331 C2332 1.355 . S
C2331 C2333 1.415 . S
C2332 C2331 1.355 . S
C2332 C2334 1.419 . S
C2333 C2328 1.425 . S
C2333 C2330 1.409 . S
C2333 C2331 1.415 . S
C2334 H2324 0.930 . S
C2334 C2332 1.419 . S
C2334 C2335 1.362 . S
C2335 H2325 0.930 . S
C2335 C2328 1.409 . S
C2335 C2334 1.362 . S
H2336 C2342 0.930 . S
H2337 C2345 0.930 . S
H2338 C2346 0.930 . S
H2339 C2347 0.930 . S
H2340 C2350 0.930 . S
H2341 C2351 0.930 . S
C2342 H2336 0.930 . S
C2342 C2343 1.355 . S
C2342 C2344 1.415 . S
C2343 C2342 1.355 . S
C2343 C2345 1.419 . S
C2344 C2342 1.415 . S
C2344 C2349 1.425 . S
C2344 C2351 1.409 . S
C2345 H2337 0.930 . S
C2345 C2343 1.419 . S
C2345 C2346 1.362 . S
C2346 H2338 0.930 . S
C2346 C2345 1.362 . S
C2346 C2349 1.409 . S
C2347 H2339 0.930 . S
C2347 C2348 1.355 . S
C2347 C2349 1.415 . S
C2348 C2347 1.355 . S
C2348 C2350 1.419 . S
C2349 C2344 1.425 . S
C2349 C2346 1.409 . S
C2349 C2347 1.415 . S
C2350 H2340 0.930 . S
C2350 C2348 1.419 . S
C2350 C2351 1.362 . S
C2351 H2341 0.930 . S
C2351 C2344 1.409 . S
C2351 C2350 1.362 . S
H2352 C2358 0.930 . S
H2353 C2361 0.930 . S
H2354 C2362 0.930 . S
H2355 C2363 0.930 . S
H2356 C2366 0.930 . S
H2357 C2367 0.930 . S
C2358 H2352 0.930 . S
C2358 C2359 1.355 . S
C2358 C2360 1.415 . S
C2359 C2358 1.355 . S
C2359 C2361 1.419 . S
C2360 C2358 1.415 . S
C2360 C2365 1.425 . S
C2360 C2367 1.409 . S
C2361 H2353 0.930 . S
C2361 C2359 1.419 . S
C2361 C2362 1.362 . S
C2362 H2354 0.930 . S
C2362 C2361 1.362 . S
C2362 C2365 1.409 . S
C2363 H2355 0.930 . S
C2363 C2364 1.355 . S
C2363 C2365 1.415 . S
C2364 C2363 1.355 . S
C2364 C2366 1.419 . S
C2365 C2360 1.425 . S
C2365 C2362 1.409 . S
C2365 C2363 1.415 . S
C2366 H2356 0.930 . S
C2366 C2364 1.419 . S
C2366 C2367 1.362 . S
C2367 H2357 0.930 . S
C2367 C2360 1.409 . S
C2367 C2366 1.362 . S
H2368 C2374 0.930 . S
H2369 C2377 0.930 . S
H2370 C2378 0.930 . S
H2371 C2379 0.930 . S
H2372 C2382 0.930 . S
H2373 C2383 0.930 . S
C2374 H2368 0.930 . S
C2374 C2375 1.355 . S
C2374 C2376 1.415 . S
C2375 C2374 1.355 . S
C2375 C2377 1.419 . S
C2376 C2374 1.415 . S
C2376 C2381 1.425 . S
C2376 C2383 1.409 . S
C2377 H2369 0.930 . S
C2377 C2375 1.419 . S
C2377 C2378 1.362 . S
C2378 H2370 0.930 . S
C2378 C2377 1.362 . S
C2378 C2381 1.409 . S
C2379 H2371 0.930 . S
C2379 C2380 1.355 . S
C2379 C2381 1.415 . S
C2380 C2379 1.355 . S
C2380 C2382 1.419 . S
C2381 C2376 1.425 . S
C2381 C2378 1.409 . S
C2381 C2379 1.415 . S
C2382 H2372 0.930 . S
C2382 C2380 1.419 . S
C2382 C2383 1.362 . S
C2383 H2373 0.930 . S
C2383 C2376 1.409 . S
C2383 C2382 1.362 . S
H2384 C2390 0.930 . S
H2385 C2393 0.930 . S
H2386 C2394 0.930 . S
H2387 C2395 0.930 . S
H2388 C2398 0.930 . S
H2389 C2399 0.930 . S
C2390 H2384 0.930 . S
C2390 C2391 1.355 . S
C2390 C2392 1.415 . S
C2391 C2390 1.355 . S
C2391 C2393 1.419 . S
C2392 C2390 1.415 . S
C2392 C2397 1.425 . S
C2392 C2399 1.409 . S
C2393 H2385 0.930 . S
C2393 C2391 1.419 . S
C2393 C2394 1.362 . S
C2394 H2386 0.930 . S
C2394 C2393 1.362 . S
C2394 C2397 1.409 . S
C2395 H2387 0.930 . S
C2395 C2396 1.355 . S
C2395 C2397 1.415 . S
C2396 C2395 1.355 . S
C2396 C2398 1.419 . S
C2397 C2392 1.425 . S
C2397 C2394 1.409 . S
C2397 C2395 1.415 . S
C2398 H2388 0.930 . S
C2398 C2396 1.419 . S
C2398 C2399 1.362 . S
C2399 H2389 0.930 . S
C2399 C2392 1.409 . S
C2399 C2398 1.362 . S
H2400 C2406 0.930 . S
H2401 C2409 0.930 . S
H2402 C2410 0.930 . S
H2403 C2411 0.930 . S
H2404 C2414 0.930 . S
H2405 C2415 0.930 . S
C2406 H2400 0.930 . S
C2406 C2407 1.355 . S
C2406 C2408 1.415 . S
C2407 C2406 1.355 . S
C2407 C2409 1.419 . S
C2408 C2406 1.415 . S
C2408 C2413 1.425 . S
C2408 C2415 1.409 . S
C2409 H2401 0.930 . S
C2409 C2407 1.419 . S
C2409 C2410 1.362 . S
C2410 H2402 0.930 . S
C2410 C2409 1.362 . S
C2410 C2413 1.409 . S
C2411 H2403 0.930 . S
C2411 C2412 1.355 . S
C2411 C2413 1.415 . S
C2412 C2411 1.355 . S
C2412 C2414 1.419 . S
C2413 C2408 1.425 . S
C2413 C2410 1.409 . S
C2413 C2411 1.415 . S
C2414 H2404 0.930 . S
C2414 C2412 1.419 . S
C2414 C2415 1.362 . S
C2415 H2405 0.930 . S
C2415 C2408 1.409 . S
C2415 C2414 1.362 . S
H2416 C2422 0.930 . S
H2417 C2425 0.930 . S
H2418 C2426 0.930 . S
H2419 C2427 0.930 . S
H2420 C2430 0.930 . S
H2421 C2431 0.930 . S
C2422 H2416 0.930 . S
C2422 C2423 1.355 . S
C2422 C2424 1.415 . S
C2423 C2422 1.355 . S
C2423 C2425 1.419 . S
C2424 C2422 1.415 . S
C2424 C2429 1.425 . S
C2424 C2431 1.409 . S
C2425 H2417 0.930 . S
C2425 C2423 1.419 . S
C2425 C2426 1.362 . S
C2426 H2418 0.930 . S
C2426 C2425 1.362 . S
C2426 C2429 1.409 . S
C2427 H2419 0.930 . S
C2427 C2428 1.355 . S
C2427 C2429 1.415 . S
C2428 C2427 1.355 . S
C2428 C2430 1.419 . S
C2429 C2424 1.425 . S
C2429 C2426 1.409 . S
C2429 C2427 1.415 . S
C2430 H2420 0.930 . S
C2430 C2428 1.419 . S
C2430 C2431 1.362 . S
C2431 H2421 0.930 . S
C2431 C2424 1.409 . S
C2431 C2430 1.362 . S
H2432 C2438 0.930 . S
H2433 C2441 0.930 . S
H2434 C2442 0.930 . S
H2435 C2443 0.930 . S
H2436 C2446 0.930 . S
H2437 C2447 0.930 . S
C2438 H2432 0.930 . S
C2438 C2439 1.355 . S
C2438 C2440 1.415 . S
C2439 C2438 1.355 . S
C2439 C2441 1.419 . S
C2440 C2438 1.415 . S
C2440 C2445 1.425 . S
C2440 C2447 1.409 . S
C2441 H2433 0.930 . S
C2441 C2439 1.419 . S
C2441 C2442 1.362 . S
C2442 H2434 0.930 . S
C2442 C2441 1.362 . S
C2442 C2445 1.409 . S
C2443 H2435 0.930 . S
C2443 C2444 1.355 . S
C2443 C2445 1.415 . S
C2444 C2443 1.355 . S
C2444 C2446 1.419 . S
C2445 C2440 1.425 . S
C2445 C2442 1.409 . S
C2445 C2443 1.415 . S
C2446 H2436 0.930 . S
C2446 C2444 1.419 . S
C2446 C2447 1.362 . S
C2447 H2437 0.930 . S
C2447 C2440 1.409 . S
C2447 C2446 1.362 . S
H2448 C2454 0.930 . S
H2449 C2457 0.930 . S
H2450 C2458 0.930 . S
H2451 C2459 0.930 . S
H2452 C2462 0.930 . S
H2453 C2463 0.930 . S
C2454 H2448 0.930 . S
C2454 C2455 1.355 . S
C2454 C2456 1.415 . S
C2455 C2454 1.355 . S
C2455 C2457 1.419 . S
C2456 C2454 1.415 . S
C2456 C2461 1.425 . S
C2456 C2463 1.409 . S
C2457 H2449 0.930 . S
C2457 C2455 1.419 . S
C2457 C2458 1.362 . S
C2458 H2450 0.930 . S
C2458 C2457 1.362 . S
C2458 C2461 1.409 . S
C2459 H2451 0.930 . S
C2459 C2460 1.355 . S
C2459 C2461 1.415 . S
C2460 C2459 1.355 . S
C2460 C2462 1.419 . S
C2461 C2456 1.425 . S
C2461 C2458 1.409 . S
C2461 C2459 1.415 . S
C2462 H2452 0.930 . S
C2462 C2460 1.419 . S
C2462 C2463 1.362 . S
C2463 H2453 0.930 . S
C2463 C2456 1.409 . S
C2463 C2462 1.362 . S
H2464 C2470 0.930 . S
H2465 C2473 0.930 . S
H2466 C2474 0.930 . S
H2467 C2475 0.930 . S
H2468 C2478 0.930 . S
H2469 C2479 0.930 . S
C2470 H2464 0.930 . S
C2470 C2471 1.355 . S
C2470 C2472 1.415 . S
C2471 C2470 1.355 . S
C2471 C2473 1.419 . S
C2472 C2470 1.415 . S
C2472 C2477 1.425 . S
C2472 C2479 1.409 . S
C2473 H2465 0.930 . S
C2473 C2471 1.419 . S
C2473 C2474 1.362 . S
C2474 H2466 0.930 . S
C2474 C2473 1.362 . S
C2474 C2477 1.409 . S
C2475 H2467 0.930 . S
C2475 C2476 1.355 . S
C2475 C2477 1.415 . S
C2476 C2475 1.355 . S
C2476 C2478 1.419 . S
C2477 C2472 1.425 . S
C2477 C2474 1.409 . S
C2477 C2475 1.415 . S
C2478 H2468 0.930 . S
C2478 C2476 1.419 . S
C2478 C2479 1.362 . S
C2479 H2469 0.930 . S
C2479 C2472 1.409 . S
C2479 C2478 1.362 . S
H2480 C2486 0.930 . S
H2481 C2489 0.930 . S
H2482 C2490 0.930 . S
H2483 C2491 0.930 . S
H2484 C2494 0.930 . S
H2485 C2495 0.930 . S
C2486 H2480 0.930 . S
C2486 C2487 1.355 . S
C2486 C2488 1.415 . S
C2487 C2486 1.355 . S
C2487 C2489 1.419 . S
C2488 C2486 1.415 . S
C2488 C2493 1.425 . S
C2488 C2495 1.409 . S
C2489 H2481 0.930 . S
C2489 C2487 1.419 . S
C2489 C2490 1.362 . S
C2490 H2482 0.930 . S
C2490 C2489 1.362 . S
C2490 C2493 1.409 . S
C2491 H2483 0.930 . S
C2491 C2492 1.355 . S
C2491 C2493 1.415 . S
C2492 C2491 1.355 . S
C2492 C2494 1.419 . S
C2493 C2488 1.425 . S
C2493 C2490 1.409 . S
C2493 C2491 1.415 . S
C2494 H2484 0.930 . S
C2494 C2492 1.419 . S
C2494 C2495 1.362 . S
C2495 H2485 0.930 . S
C2495 C2488 1.409 . S
C2495 C2494 1.362 . S
H2496 C2502 0.930 . S
H2497 C2505 0.930 . S
H2498 C2506 0.930 . S
H2499 C2507 0.930 . S
H2500 C2510 0.930 . S
H2501 C2511 0.930 . S
C2502 H2496 0.930 . S
C2502 C2503 1.355 . S
C2502 C2504 1.415 . S
C2503 C2502 1.355 . S
C2503 C2505 1.419 . S
C2504 C2502 1.415 . S
C2504 C2509 1.425 . S
C2504 C2511 1.409 . S
C2505 H2497 0.930 . S
C2505 C2503 1.419 . S
C2505 C2506 1.362 . S
C2506 H2498 0.930 . S
C2506 C2505 1.362 . S
C2506 C2509 1.409 . S
C2507 H2499 0.930 . S
C2507 C2508 1.355 . S
C2507 C2509 1.415 . S
C2508 C2507 1.355 . S
C2508 C2510 1.419 . S
C2509 C2504 1.425 . S
C2509 C2506 1.409 . S
C2509 C2507 1.415 . S
C2510 H2500 0.930 . S
C2510 C2508 1.419 . S
C2510 C2511 1.362 . S
C2511 H2501 0.930 . S
C2511 C2504 1.409 . S
C2511 C2510 1.362 . S
H2512 C2518 0.930 . S
H2513 C2521 0.930 . S
H2514 C2522 0.930 . S
H2515 C2523 0.930 . S
H2516 C2526 0.930 . S
H2517 C2527 0.930 . S
C2518 H2512 0.930 . S
C2518 C2519 1.355 . S
C2518 C2520 1.415 . S
C2519 C2518 1.355 . S
C2519 C2521 1.419 . S
C2520 C2518 1.415 . S
C2520 C2525 1.425 . S
C2520 C2527 1.409 . S
C2521 H2513 0.930 . S
C2521 C2519 1.419 . S
C2521 C2522 1.362 . S
C2522 H2514 0.930 . S
C2522 C2521 1.362 . S
C2522 C2525 1.409 . S
C2523 H2515 0.930 . S
C2523 C2524 1.355 . S
C2523 C2525 1.415 . S
C2524 C2523 1.355 . S
C2524 C2526 1.419 . S
C2525 C2520 1.425 . S
C2525 C2522 1.409 . S
C2525 C2523 1.415 . S
C2526 H2516 0.930 . S
C2526 C2524 1.419 . S
C2526 C2527 1.362 . S
C2527 H2517 0.930 . S
C2527 C2520 1.409 . S
C2527 C2526 1.362 . S
H2528 C2534 0.930 . S
H2529 C2537 0.930 . S
H2530 C2538 0.930 . S
H2531 C2539 0.930 . S
H2532 C2542 0.930 . S
H2533 C2543 0.930 . S
C2534 H2528 0.930 . S
C2534 C2535 1.355 . S
C2534 C2536 1.415 . S
C2535 C2534 1.355 . S
C2535 C2537 1.419 . S
C2536 C2534 1.415 . S
C2536 C2541 1.425 . S
C2536 C2543 1.409 . S
C2537 H2529 0.930 . S
C2537 C2535 1.419 . S
C2537 C2538 1.362 . S
C2538 H2530 0.930 . S
C2538 C2537 1.362 . S
C2538 C2541 1.409 . S
C2539 H2531 0.930 . S
C2539 C2540 1.355 . S
C2539 C2541 1.415 . S
C2540 C2539 1.355 . S
C2540 C2542 1.419 . S
C2541 C2536 1.425 . S
C2541 C2538 1.409 . S
C2541 C2539 1.415 . S
C2542 H2532 0.930 . S
C2542 C2540 1.419 . S
C2542 C2543 1.362 . S
C2543 H2533 0.930 . S
C2543 C2536 1.409 . S
C2543 C2542 1.362 . S
H2544 C2550 0.930 . S
H2545 C2553 0.930 . S
H2546 C2554 0.930 . S
H2547 C2555 0.930 . S
H2548 C2558 0.930 . S
H2549 C2559 0.930 . S
C2550 H2544 0.930 . S
C2550 C2551 1.355 . S
C2550 C2552 1.415 . S
C2551 C2550 1.355 . S
C2551 C2553 1.419 . S
C2552 C2550 1.415 . S
C2552 C2557 1.425 . S
C2552 C2559 1.409 . S
C2553 H2545 0.930 . S
C2553 C2551 1.419 . S
C2553 C2554 1.362 . S
C2554 H2546 0.930 . S
C2554 C2553 1.362 . S
C2554 C2557 1.409 . S
C2555 H2547 0.930 . S
C2555 C2556 1.355 . S
C2555 C2557 1.415 . S
C2556 C2555 1.355 . S
C2556 C2558 1.419 . S
C2557 C2552 1.425 . S
C2557 C2554 1.409 . S
C2557 C2555 1.415 . S
C2558 H2548 0.930 . S
C2558 C2556 1.419 . S
C2558 C2559 1.362 . S
C2559 H2549 0.930 . S
C2559 C2552 1.409 . S
C2559 C2558 1.362 . S
H2560 C2566 0.930 . S
H2561 C2569 0.930 . S
H2562 C2570 0.930 . S
H2563 C2571 0.930 . S
H2564 C2574 0.930 . S
H2565 C2575 0.930 . S
C2566 H2560 0.930 . S
C2566 C2567 1.355 . S
C2566 C2568 1.415 . S
C2567 C2566 1.355 . S
C2567 C2569 1.419 . S
C2568 C2566 1.415 . S
C2568 C2573 1.425 . S
C2568 C2575 1.409 . S
C2569 H2561 0.930 . S
C2569 C2567 1.419 . S
C2569 C2570 1.362 . S
C2570 H2562 0.930 . S
C2570 C2569 1.362 . S
C2570 C2573 1.409 . S
C2571 H2563 0.930 . S
C2571 C2572 1.355 . S
C2571 C2573 1.415 . S
C2572 C2571 1.355 . S
C2572 C2574 1.419 . S
C2573 C2568 1.425 . S
C2573 C2570 1.409 . S
C2573 C2571 1.415 . S
C2574 H2564 0.930 . S
C2574 C2572 1.419 . S
C2574 C2575 1.362 . S
C2575 H2565 0.930 . S
C2575 C2568 1.409 . S
C2575 C2574 1.362 . S
H2576 C2582 0.930 . S
H2577 C2585 0.930 . S
H2578 C2586 0.930 . S
H2579 C2587 0.930 . S
H2580 C2590 0.930 . S
H2581 C2591 0.930 . S
C2582 H2576 0.930 . S
C2582 C2583 1.355 . S
C2582 C2584 1.415 . S
C2583 C2582 1.355 . S
C2583 C2585 1.419 . S
C2584 C2582 1.415 . S
C2584 C2589 1.425 . S
C2584 C2591 1.409 . S
C2585 H2577 0.930 . S
C2585 C2583 1.419 . S
C2585 C2586 1.362 . S
C2586 H2578 0.930 . S
C2586 C2585 1.362 . S
C2586 C2589 1.409 . S
C2587 H2579 0.930 . S
C2587 C2588 1.355 . S
C2587 C2589 1.415 . S
C2588 C2587 1.355 . S
C2588 C2590 1.419 . S
C2589 C2584 1.425 . S
C2589 C2586 1.409 . S
C2589 C2587 1.415 . S
C2590 H2580 0.930 . S
C2590 C2588 1.419 . S
C2590 C2591 1.362 . S
C2591 H2581 0.930 . S
C2591 C2584 1.409 . S
C2591 C2590 1.362 . S
H2592 C2598 0.930 . S
H2593 C2601 0.930 . S
H2594 C2602 0.930 . S
H2595 C2603 0.930 . S
H2596 C2606 0.930 . S
H2597 C2607 0.930 . S
C2598 H2592 0.930 . S
C2598 C2599 1.355 . S
C2598 C2600 1.415 . S
C2599 C2598 1.355 . S
C2599 C2601 1.419 . S
C2600 C2598 1.415 . S
C2600 C2605 1.425 . S
C2600 C2607 1.409 . S
C2601 H2593 0.930 . S
C2601 C2599 1.419 . S
C2601 C2602 1.362 . S
C2602 H2594 0.930 . S
C2602 C2601 1.362 . S
C2602 C2605 1.409 . S
C2603 H2595 0.930 . S
C2603 C2604 1.355 . S
C2603 C2605 1.415 . S
C2604 C2603 1.355 . S
C2604 C2606 1.419 . S
C2605 C2600 1.425 . S
C2605 C2602 1.409 . S
C2605 C2603 1.415 . S
C2606 H2596 0.930 . S
C2606 C2604 1.419 . S
C2606 C2607 1.362 . S
C2607 H2597 0.930 . S
C2607 C2600 1.409 . S
C2607 C2606 1.362 . S
H2608 C2614 0.930 . S
H2609 C2617 0.930 . S
H2610 C2618 0.930 . S
H2611 C2619 0.930 . S
H2612 C2622 0.930 . S
H2613 C2623 0.930 . S
C2614 H2608 0.930 . S
C2614 C2615 1.355 . S
C2614 C2616 1.415 . S
C2615 C2614 1.355 . S
C2615 C2617 1.419 . S
C2616 C2614 1.415 . S
C2616 C2621 1.425 . S
C2616 C2623 1.409 . S
C2617 H2609 0.930 . S
C2617 C2615 1.419 . S
C2617 C2618 1.362 . S
C2618 H2610 0.930 . S
C2618 C2617 1.362 . S
C2618 C2621 1.409 . S
C2619 H2611 0.930 . S
C2619 C2620 1.355 . S
C2619 C2621 1.415 . S
C2620 C2619 1.355 . S
C2620 C2622 1.419 . S
C2621 C2616 1.425 . S
C2621 C2618 1.409 . S
C2621 C2619 1.415 . S
C2622 H2612 0.930 . S
C2622 C2620 1.419 . S
C2622 C2623 1.362 . S
C2623 H2613 0.930 . S
C2623 C2616 1.409 . S
C2623 C2622 1.362 . S
H2624 C2630 0.930 . S
H2625 C2633 0.930 . S
H2626 C2634 0.930 . S
H2627 C2635 0.930 . S
H2628 C2638 0.930 . S
H2629 C2639 0.930 . S
C2630 H2624 0.930 . S
C2630 C2631 1.355 . S
C2630 C2632 1.415 . S
C2631 C2630 1.355 . S
C2631 C2633 1.419 . S
C2632 C2630 1.415 . S
C2632 C2637 1.425 . S
C2632 C2639 1.409 . S
C2633 H2625 0.930 . S
C2633 C2631 1.419 . S
C2633 C2634 1.362 . S
C2634 H2626 0.930 . S
C2634 C2633 1.362 . S
C2634 C2637 1.409 . S
C2635 H2627 0.930 . S
C2635 C2636 1.355 . S
C2635 C2637 1.415 . S
C2636 C2635 1.355 . S
C2636 C2638 1.419 . S
C2637 C2632 1.425 . S
C2637 C2634 1.409 . S
C2637 C2635 1.415 . S
C2638 H2628 0.930 . S
C2638 C2636 1.419 . S
C2638 C2639 1.362 . S
C2639 H2629 0.930 . S
C2639 C2632 1.409 . S
C2639 C2638 1.362 . S
H2640 C2646 0.930 . S
H2641 C2649 0.930 . S
H2642 C2650 0.930 . S
H2643 C2651 0.930 . S
H2644 C2654 0.930 . S
H2645 C2655 0.930 . S
C2646 H2640 0.930 . S
C2646 C2647 1.355 . S
C2646 C2648 1.415 . S
C2647 C2646 1.355 . S
C2647 C2649 1.419 . S
C2648 C2646 1.415 . S
C2648 C2653 1.425 . S
C2648 C2655 1.409 . S
C2649 H2641 0.930 . S
C2649 C2647 1.419 . S
C2649 C2650 1.362 . S
C2650 H2642 0.930 . S
C2650 C2649 1.362 . S
C2650 C2653 1.409 . S
C2651 H2643 0.930 . S
C2651 C2652 1.355 . S
C2651 C2653 1.415 . S
C2652 C2651 1.355 . S
C2652 C2654 1.419 . S
C2653 C2648 1.425 . S
C2653 C2650 1.409 . S
C2653 C2651 1.415 . S
C2654 H2644 0.930 . S
C2654 C2652 1.419 . S
C2654 C2655 1.362 . S
C2655 H2645 0.930 . S
C2655 C2648 1.409 . S
C2655 C2654 1.362 . S
H2656 C2662 0.930 . S
H2657 C2665 0.930 . S
H2658 C2666 0.930 . S
H2659 C2667 0.930 . S
H2660 C2670 0.930 . S
H2661 C2671 0.930 . S
C2662 H2656 0.930 . S
C2662 C2663 1.355 . S
C2662 C2664 1.415 . S
C2663 C2662 1.355 . S
C2663 C2665 1.419 . S
C2664 C2662 1.415 . S
C2664 C2669 1.425 . S
C2664 C2671 1.409 . S
C2665 H2657 0.930 . S
C2665 C2663 1.419 . S
C2665 C2666 1.362 . S
C2666 H2658 0.930 . S
C2666 C2665 1.362 . S
C2666 C2669 1.409 . S
C2667 H2659 0.930 . S
C2667 C2668 1.355 . S
C2667 C2669 1.415 . S
C2668 C2667 1.355 . S
C2668 C2670 1.419 . S
C2669 C2664 1.425 . S
C2669 C2666 1.409 . S
C2669 C2667 1.415 . S
C2670 H2660 0.930 . S
C2670 C2668 1.419 . S
C2670 C2671 1.362 . S
C2671 H2661 0.930 . S
C2671 C2664 1.409 . S
C2671 C2670 1.362 . S
H2672 C2678 0.930 . S
H2673 C2681 0.930 . S
H2674 C2682 0.930 . S
H2675 C2683 0.930 . S
H2676 C2686 0.930 . S
H2677 C2687 0.930 . S
C2678 H2672 0.930 . S
C2678 C2679 1.355 . S
C2678 C2680 1.415 . S
C2679 C2678 1.355 . S
C2679 C2681 1.419 . S
C2680 C2678 1.415 . S
C2680 C2685 1.425 . S
C2680 C2687 1.409 . S
C2681 H2673 0.930 . S
C2681 C2679 1.419 . S
C2681 C2682 1.362 . S
C2682 H2674 0.930 . S
C2682 C2681 1.362 . S
C2682 C2685 1.409 . S
C2683 H2675 0.930 . S
C2683 C2684 1.355 . S
C2683 C2685 1.415 . S
C2684 C2683 1.355 . S
C2684 C2686 1.419 . S
C2685 C2680 1.425 . S
C2685 C2682 1.409 . S
C2685 C2683 1.415 . S
C2686 H2676 0.930 . S
C2686 C2684 1.419 . S
C2686 C2687 1.362 . S
C2687 H2677 0.930 . S
C2687 C2680 1.409 . S
C2687 C2686 1.362 . S
H2688 C2694 0.930 . S
H2689 C2697 0.930 . S
H2690 C2698 0.930 . S
H2691 C2699 0.930 . S
H2692 C2702 0.930 . S
H2693 C2703 0.930 . S
C2694 H2688 0.930 . S
C2694 C2695 1.355 . S
C2694 C2696 1.415 . S
C2695 C2694 1.355 . S
C2695 C2697 1.419 . S
C2696 C2694 1.415 . S
C2696 C2701 1.425 . S
C2696 C2703 1.409 . S
C2697 H2689 0.930 . S
C2697 C2695 1.419 . S
C2697 C2698 1.362 . S
C2698 H2690 0.930 . S
C2698 C2697 1.362 . S
C2698 C2701 1.409 . S
C2699 H2691 0.930 . S
C2699 C2700 1.355 . S
C2699 C2701 1.415 . S
C2700 C2699 1.355 . S
C2700 C2702 1.419 . S
C2701 C2696 1.425 . S
C2701 C2698 1.409 . S
C2701 C2699 1.415 . S
C2702 H2692 0.930 . S
C2702 C2700 1.419 . S
C2702 C2703 1.362 . S
C2703 H2693 0.930 . S
C2703 C2696 1.409 . S
C2703 C2702 1.362 . S
H2704 C2710 0.930 . S
H2705 C2713 0.930 . S
H2706 C2714 0.930 . S
H2707 C2715 0.930 . S
H2708 C2718 0.930 . S
H2709 C2719 0.930 . S
C2710 H2704 0.930 . S
C2710 C2711 1.355 . S
C2710 C2712 1.415 . S
C2711 C2710 1.355 . S
C2711 C2713 1.419 . S
C2712 C2710 1.415 . S
C2712 C2717 1.425 . S
C2712 C2719 1.409 . S
C2713 H2705 0.930 . S
C2713 C2711 1.419 . S
C2713 C2714 1.362 . S
C2714 H2706 0.930 . S
C2714 C2713 1.362 . S
C2714 C2717 1.409 . S
C2715 H2707 0.930 . S
C2715 C2716 1.355 . S
C2715 C2717 1.415 . S
C2716 C2715 1.355 . S
C2716 C2718 1.419 . S
C2717 C2712 1.425 . S
C2717 C2714 1.409 . S
C2717 C2715 1.415 . S
C2718 H2708 0.930 . S
C2718 C2716 1.419 . S
C2718 C2719 1.362 . S
C2719 H2709 0.930 . S
C2719 C2712 1.409 . S
C2719 C2718 1.362 . S
H2720 C2726 0.930 . S
H2721 C2729 0.930 . S
H2722 C2730 0.930 . S
H2723 C2731 0.930 . S
H2724 C2734 0.930 . S
H2725 C2735 0.930 . S
C2726 H2720 0.930 . S
C2726 C2727 1.355 . S
C2726 C2728 1.415 . S
C2727 C2726 1.355 . S
C2727 C2729 1.419 . S
C2728 C2726 1.415 . S
C2728 C2733 1.425 . S
C2728 C2735 1.409 . S
C2729 H2721 0.930 . S
C2729 C2727 1.419 . S
C2729 C2730 1.362 . S
C2730 H2722 0.930 . S
C2730 C2729 1.362 . S
C2730 C2733 1.409 . S
C2731 H2723 0.930 . S
C2731 C2732 1.355 . S
C2731 C2733 1.415 . S
C2732 C2731 1.355 . S
C2732 C2734 1.419 . S
C2733 C2728 1.425 . S
C2733 C2730 1.409 . S
C2733 C2731 1.415 . S
C2734 H2724 0.930 . S
C2734 C2732 1.419 . S
C2734 C2735 1.362 . S
C2735 H2725 0.930 . S
C2735 C2728 1.409 . S
C2735 C2734 1.362 . S
H2736 C2742 0.930 . S
H2737 C2745 0.930 . S
H2738 C2746 0.930 . S
H2739 C2747 0.930 . S
H2740 C2750 0.930 . S
H2741 C2751 0.930 . S
C2742 H2736 0.930 . S
C2742 C2743 1.355 . S
C2742 C2744 1.415 . S
C2743 C2742 1.355 . S
C2743 C2745 1.419 . S
C2744 C2742 1.415 . S
C2744 C2749 1.425 . S
C2744 C2751 1.409 . S
C2745 H2737 0.930 . S
C2745 C2743 1.419 . S
C2745 C2746 1.362 . S
C2746 H2738 0.930 . S
C2746 C2745 1.362 . S
C2746 C2749 1.409 . S
C2747 H2739 0.930 . S
C2747 C2748 1.355 . S
C2747 C2749 1.415 . S
C2748 C2747 1.355 . S
C2748 C2750 1.419 . S
C2749 C2744 1.425 . S
C2749 C2746 1.409 . S
C2749 C2747 1.415 . S
C2750 H2740 0.930 . S
C2750 C2748 1.419 . S
C2750 C2751 1.362 . S
C2751 H2741 0.930 . S
C2751 C2744 1.409 . S
C2751 C2750 1.362 . S
H2752 C2758 0.930 . S
H2753 C2761 0.930 . S
H2754 C2762 0.930 . S
H2755 C2763 0.930 . S
H2756 C2766 0.930 . S
H2757 C2767 0.930 . S
C2758 H2752 0.930 . S
C2758 C2759 1.355 . S
C2758 C2760 1.415 . S
C2759 C2758 1.355 . S
C2759 C2761 1.419 . S
C2760 C2758 1.415 . S
C2760 C2765 1.425 . S
C2760 C2767 1.409 . S
C2761 H2753 0.930 . S
C2761 C2759 1.419 . S
C2761 C2762 1.362 . S
C2762 H2754 0.930 . S
C2762 C2761 1.362 . S
C2762 C2765 1.409 . S
C2763 H2755 0.930 . S
C2763 C2764 1.355 . S
C2763 C2765 1.415 . S
C2764 C2763 1.355 . S
C2764 C2766 1.419 . S
C2765 C2760 1.425 . S
C2765 C2762 1.409 . S
C2765 C2763 1.415 . S
C2766 H2756 0.930 . S
C2766 C2764 1.419 . S
C2766 C2767 1.362 . S
C2767 H2757 0.930 . S
C2767 C2760 1.409 . S
C2767 C2766 1.362 . S
H2768 C2774 0.930 . S
H2769 C2777 0.930 . S
H2770 C2778 0.930 . S
H2771 C2779 0.930 . S
H2772 C2782 0.930 . S
H2773 C2783 0.930 . S
C2774 H2768 0.930 . S
C2774 C2775 1.355 . S
C2774 C2776 1.415 . S
C2775 C2774 1.355 . S
C2775 C2777 1.419 . S
C2776 C2774 1.415 . S
C2776 C2781 1.425 . S
C2776 C2783 1.409 . S
C2777 H2769 0.930 . S
C2777 C2775 1.419 . S
C2777 C2778 1.362 . S
C2778 H2770 0.930 . S
C2778 C2777 1.362 . S
C2778 C2781 1.409 . S
C2779 H2771 0.930 . S
C2779 C2780 1.355 . S
C2779 C2781 1.415 . S
C2780 C2779 1.355 . S
C2780 C2782 1.419 . S
C2781 C2776 1.425 . S
C2781 C2778 1.409 . S
C2781 C2779 1.415 . S
C2782 H2772 0.930 . S
C2782 C2780 1.419 . S
C2782 C2783 1.362 . S
C2783 H2773 0.930 . S
C2783 C2776 1.409 . S
C2783 C2782 1.362 . S
H2784 C2790 0.930 . S
H2785 C2793 0.930 . S
H2786 C2794 0.930 . S
H2787 C2795 0.930 . S
H2788 C2798 0.930 . S
H2789 C2799 0.930 . S
C2790 H2784 0.930 . S
C2790 C2791 1.355 . S
C2790 C2792 1.415 . S
C2791 C2790 1.355 . S
C2791 C2793 1.419 . S
C2792 C2790 1.415 . S
C2792 C2797 1.425 . S
C2792 C2799 1.409 . S
C2793 H2785 0.930 . S
C2793 C2791 1.419 . S
C2793 C2794 1.362 . S
C2794 H2786 0.930 . S
C2794 C2793 1.362 . S
C2794 C2797 1.409 . S
C2795 H2787 0.930 . S
C2795 C2796 1.355 . S
C2795 C2797 1.415 . S
C2796 C2795 1.355 . S
C2796 C2798 1.419 . S
C2797 C2792 1.425 . S
C2797 C2794 1.409 . S
C2797 C2795 1.415 . S
C2798 H2788 0.930 . S
C2798 C2796 1.419 . S
C2798 C2799 1.362 . S
C2799 H2789 0.930 . S
C2799 C2792 1.409 . S
C2799 C2798 1.362 . S
H2800 C2806 0.930 . S
H2801 C2809 0.930 . S
H2802 C2810 0.930 . S
H2803 C2811 0.930 . S
H2804 C2814 0.930 . S
H2805 C2815 0.930 . S
C2806 H2800 0.930 . S
C2806 C2807 1.355 . S
C2806 C2808 1.415 . S
C2807 C2806 1.355 . S
C2807 C2809 1.419 . S
C2808 C2806 1.415 . S
C2808 C2813 1.425 . S
C2808 C2815 1.409 . S
C2809 H2801 0.930 . S
C2809 C2807 1.419 . S
C2809 C2810 1.362 . S
C2810 H2802 0.930 . S
C2810 C2809 1.362 . S
C2810 C2813 1.409 . S
C2811 H2803 0.930 . S
C2811 C2812 1.355 . S
C2811 C2813 1.415 . S
C2812 C2811 1.355 . S
C2812 C2814 1.419 . S
C2813 C2808 1.425 . S
C2813 C2810 1.409 . S
C2813 C2811 1.415 . S
C2814 H2804 0.930 . S
C2814 C2812 1.419 . S
C2814 C2815 1.362 . S
C2815 H2805 0.930 . S
C2815 C2808 1.409 . S
C2815 C2814 1.362 . S
H2816 C2822 0.930 . S
H2817 C2825 0.930 . S
H2818 C2826 0.930 . S
H2819 C2827 0.930 . S
H2820 C2830 0.930 . S
H2821 C2831 0.930 . S
C2822 H2816 0.930 . S
C2822 C2823 1.355 . S
C2822 C2824 1.415 . S
C2823 C2822 1.355 . S
C2823 C2825 1.419 . S
C2824 C2822 1.415 . S
C2824 C2829 1.425 . S
C2824 C2831 1.409 . S
C2825 H2817 0.930 . S
C2825 C2823 1.419 . S
C2825 C2826 1.362 . S
C2826 H2818 0.930 . S
C2826 C2825 1.362 . S
C2826 C2829 1.409 . S
C2827 H2819 0.930 . S
C2827 C2828 1.355 . S
C2827 C2829 1.415 . S
C2828 C2827 1.355 . S
C2828 C2830 1.419 . S
C2829 C2824 1.425 . S
C2829 C2826 1.409 . S
C2829 C2827 1.415 . S
C2830 H2820 0.930 . S
C2830 C2828 1.419 . S
C2830 C2831 1.362 . S
C2831 H2821 0.930 . S
C2831 C2824 1.409 . S
C2831 C2830 1.362 . S
H2832 C2838 0.930 . S
H2833 C2841 0.930 . S
H2834 C2842 0.930 . S
H2835 C2843 0.930 . S
H2836 C2846 0.930 . S
H2837 C2847 0.930 . S
C2838 H2832 0.930 . S
C2838 C2839 1.355 . S
C2838 C2840 1.415 . S
C2839 C2838 1.355 . S
C2839 C2841 1.419 . S
C2840 C2838 1.415 . S
C2840 C2845 1.425 . S
C2840 C2847 1.409 . S
C2841 H2833 0.930 . S
C2841 C2839 1.419 . S
C2841 C2842 1.362 . S
C2842 H2834 0.930 . S
C2842 C2841 1.362 . S
C2842 C2845 1.409 . S
C2843 H2835 0.930 . S
C2843 C2844 1.355 . S
C2843 C2845 1.415 . S
C2844 C2843 1.355 . S
C2844 C2846 1.419 . S
C2845 C2840 1.425 . S
C2845 C2842 1.409 . S
C2845 C2843 1.415 . S
C2846 H2836 0.930 . S
C2846 C2844 1.419 . S
C2846 C2847 1.362 . S
C2847 H2837 0.930 . S
C2847 C2840 1.409 . S
C2847 C2846 1.362 . S
H2848 C2854 0.930 . S
H2849 C2857 0.930 . S
H2850 C2858 0.930 . S
H2851 C2859 0.930 . S
H2852 C2862 0.930 . S
H2853 C2863 0.930 . S
C2854 H2848 0.930 . S
C2854 C2855 1.355 . S
C2854 C2856 1.415 . S
C2855 C2854 1.355 . S
C2855 C2857 1.419 . S
C2856 C2854 1.415 . S
C2856 C2861 1.425 . S
C2856 C2863 1.409 . S
C2857 H2849 0.930 . S
C2857 C2855 1.419 . S
C2857 C2858 1.362 . S
C2858 H2850 0.930 . S
C2858 C2857 1.362 . S
C2858 C2861 1.409 . S
C2859 H2851 0.930 . S
C2859 C2860 1.355 . S
C2859 C2861 1.415 . S
C2860 C2859 1.355 . S
C2860 C2862 1.419 . S
C2861 C2856 1.425 . S
C2861 C2858 1.409 . S
C2861 C2859 1.415 . S
C2862 H2852 0.930 . S
C2862 C2860 1.419 . S
C2862 C2863 1.362 . S
C2863 H2853 0.930 . S
C2863 C2856 1.409 . S
C2863 C2862 1.362 . S
H2864 C2870 0.930 . S
H2865 C2873 0.930 . S
H2866 C2874 0.930 . S
H2867 C2875 0.930 . S
H2868 C2878 0.930 . S
H2869 C2879 0.930 . S
C2870 H2864 0.930 . S
C2870 C2871 1.355 . S
C2870 C2872 1.415 . S
C2871 C2870 1.355 . S
C2871 C2873 1.419 . S
C2872 C2870 1.415 . S
C2872 C2877 1.425 . S
C2872 C2879 1.409 . S
C2873 H2865 0.930 . S
C2873 C2871 1.419 . S
C2873 C2874 1.362 . S
C2874 H2866 0.930 . S
C2874 C2873 1.362 . S
C2874 C2877 1.409 . S
C2875 H2867 0.930 . S
C2875 C2876 1.355 . S
C2875 C2877 1.415 . S
C2876 C2875 1.355 . S
C2876 C2878 1.419 . S
C2877 C2872 1.425 . S
C2877 C2874 1.409 . S
C2877 C2875 1.415 . S
C2878 H2868 0.930 . S
C2878 C2876 1.419 . S
C2878 C2879 1.362 . S
C2879 H2869 0.930 . S
C2879 C2872 1.409 . S
C2879 C2878 1.362 . S
C2119 C1261 1.343 . S
C2124 C20 1.354 . S
C2135 C117 1.397 . S
C2140 C1349 1.393 . S
C2151 C1604 1.395 . S
C2156 C225 1.396 . S
C2167 C321 1.341 . S
C2172 C1164 1.344 . S
C2183 C1289 1.362 . S
C2188 C372 1.380 . S
C2199 C469 1.349 . S
C2204 C1377 1.341 . S
C2215 C577 1.388 . S
C2220 C1633 1.397 . S
C2231 C673 1.376 . S
C2236 C1193 1.365 . S
C2247 C849 1.341 . S
C2252 C733 1.345 . S
C2263 C900 1.348 . S
C2268 C821 1.339 . S
C2279 C929 1.362 . S
C2284 C1025 1.354 . S
C2295 C997 1.362 . S
C2300 C761 1.342 . S
C2311 C1085 1.341 . S
C2316 C293 1.349 . S
C2327 C401 1.368 . S
C2332 C1457 1.358 . S
C2343 C1516 1.382 . S
C2348 C145 1.390 . S
C2359 C137 1.348 . S
C2364 C1868 1.349 . S
C2375 C812 1.363 . S
C2380 C29 1.345 . S
C2391 C2081 1.403 . S
C2396 C284 1.402 . S
C2407 C988 1.402 . S
C2412 C233 1.406 . S
C2423 C1897 1.348 . S
C2428 C636 1.349 . S
C2439 C841 1.349 . S
C2444 C585 1.346 . S
C2455 C489 1.353 . S
C2460 C2053 1.346 . S
C2471 C381 1.350 . S
C2476 C1017 1.339 . S
C2487 C1340 1.375 . S
C2492 C1721 1.393 . S
C2503 C1437 1.346 . S
C2508 C1369 1.352 . S
C2519 C1173 1.366 . S
C2524 C1465 1.345 . S
C2535 C1692 1.392 . S
C2540 C1201 1.378 . S
C2551 C205 1.346 . S
C2556 C1817 1.354 . S
C2567 C909 1.347 . S
C2572 C665 1.348 . S
C2583 C57 1.397 . S
C2588 C1956 1.408 . S
C2599 C1701 1.342 . S
C2604 C196 1.361 . S
C2615 C49 1.363 . S
C2620 C1428 1.380 . S
C2631 C1729 1.397 . S
C2636 C548 1.386 . S
C2647 C1113 1.365 . S
C2652 C645 1.382 . S
C2663 C497 1.393 . S
C2668 C1545 1.378 . S
C2679 C1877 1.362 . S
C2684 C1780 1.351 . S
C2695 C2044 1.348 . S
C2700 C1809 1.335 . S
C2711 C1993 1.355 . S
C2716 C2073 1.342 . S
C2727 C1905 1.367 . S
C2732 C1965 1.350 . S
C2743 C724 1.346 . S
C2748 C313 1.348 . S
C2759 C108 1.404 . S
C2764 C937 1.401 . S
C2775 C460 1.402 . S
C2780 C753 1.408 . S
C2791 C1789 1.387 . S
C2796 C409 1.401 . S
C2807 C557 1.360 . S
C2812 C1985 1.349 . S
C2823 C1076 1.389 . S
C2828 C1281 1.368 . S
C2839 C1613 1.401 . S
C2844 C1105 1.393 . S
C2855 C1525 1.375 . S
C2860 C1641 1.359 . S
C2871 C1252 1.404 . S
C2876 C1553 1.400 . S
