# Generated by pormake.
# Topology uoz, (4)-cn, num edge types: 1
# Building blocks:
#     Node 0, Type 0, BuildingBlock: GALJAG_clean_sbu_0, # of connection points: 4
#     Node 1, Type 0, BuildingBlock: GALJAG_clean_sbu_0, # of connection points: 4
#     Node 2, Type 0, BuildingBlock: GALJAG_clean_sbu_0, # of connection points: 4
#     Node 3, Type 0, BuildingBlock: GALJAG_clean_sbu_0, # of connection points: 4
#     Node 4, Type 0, BuildingBlock: GALJAG_clean_sbu_0, # of connection points: 4
#     Node 5, Type 0, BuildingBlock: GALJAG_clean_sbu_0, # of connection points: 4
#     Node 6, Type 0, BuildingBlock: GALJAG_clean_sbu_0, # of connection points: 4
#     Node 7, Type 0, BuildingBlock: GALJAG_clean_sbu_0, # of connection points: 4
#     Node 8, Type 0, BuildingBlock: GALJAG_clean_sbu_0, # of connection points: 4
#     Node 9, Type 0, BuildingBlock: GALJAG_clean_sbu_0, # of connection points: 4
#     Node 10, Type 0, BuildingBlock: GALJAG_clean_sbu_0, # of connection points: 4
#     Node 11, Type 0, BuildingBlock: GALJAG_clean_sbu_0, # of connection points: 4
#     Node 12, Type 0, BuildingBlock: GALJAG_clean_sbu_0, # of connection points: 4
#     Node 13, Type 0, BuildingBlock: GALJAG_clean_sbu_0, # of connection points: 4
#     Node 14, Type 0, BuildingBlock: GALJAG_clean_sbu_0, # of connection points: 4
#     Node 15, Type 0, BuildingBlock: GALJAG_clean_sbu_0, # of connection points: 4
#     Edge 16, Type (0, 0), BuildingBlock: ZUJKAS_clean_linker_0, # of connection points: 2
#     Edge 17, Type (0, 0), BuildingBlock: ZUJKAS_clean_linker_0, # of connection points: 2
#     Edge 18, Type (0, 0), BuildingBlock: ZUJKAS_clean_linker_0, # of connection points: 2
#     Edge 19, Type (0, 0), BuildingBlock: ZUJKAS_clean_linker_0, # of connection points: 2
#     Edge 20, Type (0, 0), BuildingBlock: ZUJKAS_clean_linker_0, # of connection points: 2
#     Edge 21, Type (0, 0), BuildingBlock: ZUJKAS_clean_linker_0, # of connection points: 2
#     Edge 22, Type (0, 0), BuildingBlock: ZUJKAS_clean_linker_0, # of connection points: 2
#     Edge 23, Type (0, 0), BuildingBlock: ZUJKAS_clean_linker_0, # of connection points: 2
#     Edge 24, Type (0, 0), BuildingBlock: ZUJKAS_clean_linker_0, # of connection points: 2
#     Edge 25, Type (0, 0), BuildingBlock: ZUJKAS_clean_linker_0, # of connection points: 2
#     Edge 26, Type (0, 0), BuildingBlock: ZUJKAS_clean_linker_0, # of connection points: 2
#     Edge 27, Type (0, 0), BuildingBlock: ZUJKAS_clean_linker_0, # of connection points: 2
#     Edge 28, Type (0, 0), BuildingBlock: ZUJKAS_clean_linker_0, # of connection points: 2
#     Edge 29, Type (0, 0), BuildingBlock: ZUJKAS_clean_linker_0, # of connection points: 2
#     Edge 30, Type (0, 0), BuildingBlock: ZUJKAS_clean_linker_0, # of connection points: 2
#     Edge 31, Type (0, 0), BuildingBlock: ZUJKAS_clean_linker_0, # of connection points: 2
#     Edge 32, Type (0, 0), BuildingBlock: ZUJKAS_clean_linker_0, # of connection points: 2
#     Edge 33, Type (0, 0), BuildingBlock: ZUJKAS_clean_linker_0, # of connection points: 2
#     Edge 34, Type (0, 0), BuildingBlock: ZUJKAS_clean_linker_0, # of connection points: 2
#     Edge 35, Type (0, 0), BuildingBlock: ZUJKAS_clean_linker_0, # of connection points: 2
#     Edge 36, Type (0, 0), BuildingBlock: ZUJKAS_clean_linker_0, # of connection points: 2
#     Edge 37, Type (0, 0), BuildingBlock: ZUJKAS_clean_linker_0, # of connection points: 2
#     Edge 38, Type (0, 0), BuildingBlock: ZUJKAS_clean_linker_0, # of connection points: 2
#     Edge 39, Type (0, 0), BuildingBlock: ZUJKAS_clean_linker_0, # of connection points: 2
#     Edge 40, Type (0, 0), BuildingBlock: ZUJKAS_clean_linker_0, # of connection points: 2
#     Edge 41, Type (0, 0), BuildingBlock: ZUJKAS_clean_linker_0, # of connection points: 2
#     Edge 42, Type (0, 0), BuildingBlock: ZUJKAS_clean_linker_0, # of connection points: 2
#     Edge 43, Type (0, 0), BuildingBlock: ZUJKAS_clean_linker_0, # of connection points: 2
#     Edge 44, Type (0, 0), BuildingBlock: ZUJKAS_clean_linker_0, # of connection points: 2
#     Edge 45, Type (0, 0), BuildingBlock: ZUJKAS_clean_linker_0, # of connection points: 2
#     Edge 46, Type (0, 0), BuildingBlock: ZUJKAS_clean_linker_0, # of connection points: 2
#     Edge 47, Type (0, 0), BuildingBlock: ZUJKAS_clean_linker_0, # of connection points: 2
# Relax obj value: 0.135
# Max RMSD: 0.159
# Mean RMSD: 0.159
data_MOF--net-uoz--node1-GALJAG_clean_sbu_0--edge1-ZUJKAS_clean_linker_0
_symmetry_space_group_name_H-M    P1
_symmetry_Int_Tables_number       1
_symmetry_cell_setting            triclinic
loop_
_symmetry_equiv_pos_as_xyz
'x, y, z'
_cell_length_a     82.922796
_cell_length_b     82.86425
_cell_length_c     24.566424
_cell_angle_alpha  90.024919
_cell_angle_beta   89.997489
_cell_angle_gamma 90.01298
loop_
_atom_site_label
_atom_site_type_symbol
_atom_site_fract_x
_atom_site_fract_y
_atom_site_fract_z
_atom_type_partial_charge
In0 In 0.99692 0.58868 0.27455 0.0
O1 O 0.99413 0.57192 0.20232 0.0
O2 O 0.01485 0.569 0.25271 0.0
C3 C 0.97078 0.60717 0.25478 0.0
C4 C 0.99077 0.56986 0.36218 0.0
C5 C 0.02032 0.61022 0.25086 0.0
O6 O 0.97455 0.59512 0.22618 0.0
O7 O 0.97986 0.60962 0.29528 0.0
O8 O 0.0168 0.60673 0.29963 0.0
O9 O 0.01215 0.60286 0.21551 0.0
C10 C 0.00693 0.56417 0.21194 0.0
O11 O 0.00215 0.58004 0.36207 0.0
O12 O 0.98202 0.57017 0.32027 0.0
In13 In 0.65817 0.75002 0.54345 0.0
O14 O 0.67593 0.74059 0.48109 0.0
O15 O 0.67752 0.76537 0.50325 0.0
C16 C 0.63959 0.72386 0.52458 0.0
C17 C 0.67631 0.7492 0.63555 0.0
C18 C 0.63674 0.77306 0.51468 0.0
O19 O 0.65165 0.7276 0.49611 0.0
O20 O 0.63703 0.73309 0.56474 0.0
O21 O 0.63797 0.76824 0.56338 0.0
O22 O 0.64626 0.76636 0.48181 0.0
C23 C 0.68299 0.75394 0.47481 0.0
O24 O 0.66997 0.76197 0.61774 0.0
O25 O 0.67237 0.73668 0.60965 0.0
In26 In 0.50284 0.40657 0.78548 0.0
O27 O 0.50614 0.42047 0.70695 0.0
O28 O 0.48442 0.4242 0.75159 0.0
C29 C 0.52984 0.38849 0.77795 0.0
C30 C 0.50702 0.428 0.86779 0.0
C31 C 0.48026 0.38418 0.76233 0.0
O32 O 0.52752 0.40107 0.75026 0.0
O33 O 0.51881 0.38533 0.81183 0.0
O34 O 0.48167 0.38998 0.80986 0.0
O35 O 0.49021 0.38956 0.72811 0.0
C36 C 0.49278 0.42771 0.71032 0.0
O37 O 0.49713 0.41642 0.87179 0.0
O38 O 0.51518 0.42796 0.82462 0.0
In39 In 0.84365 0.25552 0.04387 0.0
O40 O 0.82561 0.26595 0.98406 0.0
O41 O 0.82493 0.24065 0.99876 0.0
C42 C 0.8625 0.28191 0.03422 0.0
C43 C 0.82527 0.25454 0.13544 0.0
C44 C 0.865 0.23326 0.00817 0.0
O45 O 0.85015 0.27943 0.00554 0.0
O46 O 0.8652 0.27124 0.06993 0.0
O47 O 0.86319 0.23614 0.05843 0.0
O48 O 0.85617 0.24154 0.97723 0.0
C49 C 0.81905 0.25256 0.97373 0.0
O50 O 0.83183 0.24214 0.11553 0.0
O51 O 0.82914 0.2675 0.11205 0.0
In52 In 0.00512 0.40977 0.79137 0.0
O53 O 0.00746 0.41922 0.70307 0.0
O54 O 0.98972 0.42958 0.75438 0.0
C55 C 0.02923 0.38765 0.78677 0.0
C56 C 0.01608 0.42965 0.86944 0.0
C57 C 0.97855 0.39404 0.82624 0.0
O58 O 0.03166 0.40243 0.79503 0.0
O59 O 0.01478 0.38418 0.77618 0.0
O60 O 0.98597 0.4043 0.85475 0.0
O61 O 0.9842 0.39205 0.77888 0.0
C62 C 0.99671 0.4299 0.70891 0.0
O63 O 0.00896 0.41657 0.88021 0.0
O64 O 0.01774 0.4326 0.81939 0.0
In65 In 0.84077 0.75277 0.03927 0.0
O66 O 0.8232 0.74278 0.10118 0.0
O67 O 0.82058 0.76738 0.07765 0.0
C68 C 0.85957 0.72704 0.06193 0.0
C69 C 0.82285 0.7511 0.94686 0.0
C70 C 0.86179 0.7765 0.06578 0.0
O71 O 0.84849 0.73201 0.09277 0.0
O72 O 0.86111 0.7349 0.01807 0.0
O73 O 0.86198 0.76987 0.01938 0.0
O74 O 0.85099 0.77135 0.09723 0.0
C75 C 0.81551 0.75583 0.10641 0.0
O76 O 0.82898 0.76409 0.96378 0.0
O77 O 0.8269 0.73883 0.97386 0.0
In78 In 0.50082 0.58737 0.30432 0.0
O79 O 0.50541 0.57029 0.37427 0.0
O80 O 0.48304 0.56816 0.33213 0.0
C81 C 0.52674 0.60603 0.32643 0.0
C82 C 0.50612 0.5683 0.21634 0.0
C83 C 0.47733 0.60894 0.32702 0.0
O84 O 0.52233 0.5944 0.35589 0.0
O85 O 0.51838 0.60802 0.2839 0.0
O86 O 0.48213 0.60663 0.2787 0.0
O87 O 0.48424 0.60037 0.36228 0.0
C88 C 0.49209 0.56303 0.36968 0.0
O89 O 0.49419 0.57777 0.21889 0.0
O90 O 0.51575 0.56945 0.25577 0.0
In91 In 0.66105 0.24796 0.53648 0.0
O92 O 0.67365 0.23503 0.46562 0.0
O93 O 0.6725 0.26048 0.46265 0.0
C94 C 0.64042 0.22422 0.56542 0.0
C95 C 0.68683 0.24686 0.60203 0.0
C96 C 0.642 0.27331 0.56208 0.0
O97 O 0.6399 0.23071 0.51883 0.0
O98 O 0.65139 0.22952 0.59607 0.0
O99 O 0.65462 0.26972 0.58787 0.0
O100 O 0.63903 0.26432 0.52169 0.0
C101 C 0.67799 0.24775 0.44165 0.0
O102 O 0.68077 0.25996 0.5857 0.0
O103 O 0.67979 0.23427 0.58553 0.0
In104 In 0.33595 0.24978 0.56142 0.0
O105 O 0.32731 0.25565 0.47441 0.0
O106 O 0.31833 0.23454 0.51276 0.0
C107 C 0.35819 0.2727 0.58377 0.0
C108 C 0.31118 0.26048 0.6214 0.0
C109 C 0.35324 0.22323 0.58692 0.0
O110 O 0.35628 0.26731 0.53595 0.0
O111 O 0.34891 0.26663 0.61875 0.0
O112 O 0.34162 0.22828 0.6153 0.0
O113 O 0.35592 0.23131 0.54423 0.0
C114 C 0.31774 0.24377 0.47208 0.0
O115 O 0.31844 0.24743 0.6317 0.0
O116 O 0.31652 0.26822 0.58099 0.0
In117 In 0.15922 0.74827 0.03505 0.0
O118 O 0.17154 0.73564 0.9628 0.0
O119 O 0.17293 0.76108 0.96654 0.0
C120 C 0.1381 0.7252 0.06607 0.0
C121 C 0.18286 0.74568 0.10917 0.0
C122 C 0.14056 0.77474 0.04627 0.0
O123 O 0.13933 0.72962 0.01693 0.0
O124 O 0.14752 0.73229 0.09843 0.0
O125 O 0.15468 0.77372 0.06489 0.0
O126 O 0.13597 0.7626 0.01913 0.0
C127 C 0.17736 0.74837 0.94274 0.0
O128 O 0.17377 0.75784 0.10611 0.0
O129 O 0.17994 0.73469 0.07503 0.0
In130 In 0.15847 0.25063 0.0333 0.0
O131 O 0.16744 0.25163 0.12282 0.0
O132 O 0.18176 0.23957 0.06438 0.0
C133 C 0.13531 0.27376 0.03639 0.0
C134 C 0.17639 0.26158 0.94989 0.0
C135 C 0.14167 0.22404 0.00529 0.0
O136 O 0.15011 0.2769 0.04097 0.0
O137 O 0.13212 0.25892 0.03479 0.0
O138 O 0.14905 0.23278 0.97138 0.0
O139 O 0.14299 0.22851 0.05444 0.0
C140 C 0.18042 0.24423 0.11284 0.0
O141 O 0.17123 0.24727 0.95217 0.0
O142 O 0.17242 0.27038 0.98956 0.0
In143 In 0.34202 0.75045 0.54253 0.0
O144 O 0.32893 0.73632 0.60947 0.0
O145 O 0.32988 0.76173 0.61724 0.0
C146 C 0.36388 0.72802 0.51249 0.0
C147 C 0.31665 0.74838 0.47515 0.0
C148 C 0.36026 0.77694 0.525 0.0
O149 O 0.36155 0.7315 0.56206 0.0
O150 O 0.35524 0.73575 0.47939 0.0
O151 O 0.34858 0.77288 0.49518 0.0
O152 O 0.36261 0.76782 0.56554 0.0
C153 C 0.32436 0.74862 0.63541 0.0
O154 O 0.32121 0.76155 0.49576 0.0
O155 O 0.32494 0.73624 0.48841 0.0
In156 In 0.49753 0.0915 0.77842 0.0
O157 O 0.501 0.08182 0.8662 0.0
O158 O 0.48766 0.06781 0.80959 0.0
C159 C 0.51893 0.11569 0.76382 0.0
C160 C 0.50966 0.07252 0.69998 0.0
C161 C 0.46916 0.1073 0.77061 0.0
O162 O 0.51921 0.10696 0.80613 0.0
O163 O 0.50776 0.11239 0.73092 0.0
O164 O 0.4736 0.09655 0.73755 0.0
O165 O 0.47878 0.10972 0.80972 0.0
C166 C 0.49352 0.06879 0.85672 0.0
O167 O 0.49572 0.07858 0.69746 0.0
O168 O 0.51758 0.07613 0.74213 0.0
In169 In 0.00504 0.90987 0.27949 0.0
O170 O 0.99967 0.91935 0.36624 0.0
O171 O 0.01818 0.93057 0.32008 0.0
C172 C 0.98205 0.88775 0.25761 0.0
C173 C 0.99521 0.93164 0.20601 0.0
C174 C 0.032 0.89189 0.26923 0.0
O175 O 0.98381 0.89346 0.3051 0.0
O176 O 0.99177 0.89318 0.22279 0.0
O177 O 0.02955 0.90467 0.2427 0.0
O178 O 0.02118 0.88853 0.30365 0.0
C179 C 0.00995 0.93061 0.36317 0.0
O180 O 0.00741 0.9228 0.19875 0.0
O181 O 0.98782 0.92939 0.25027 0.0
In182 In 0.49904 0.91284 0.30464 0.0
O183 O 0.50574 0.92146 0.2183 0.0
O184 O 0.48414 0.93023 0.25387 0.0
C185 C 0.52156 0.89051 0.32939 0.0
C186 C 0.50901 0.93751 0.3668 0.0
C187 C 0.47273 0.89493 0.32777 0.0
O188 O 0.51773 0.89347 0.28049 0.0
O189 O 0.51418 0.89883 0.36432 0.0
O190 O 0.47716 0.90683 0.356 0.0
O191 O 0.48122 0.89235 0.2859 0.0
C192 C 0.4938 0.93089 0.21435 0.0
O193 O 0.49535 0.93099 0.37236 0.0
O194 O 0.51775 0.9315 0.32994 0.0
In195 In 0.99795 0.09193 0.78971 0.0
O196 O 0.00066 0.07983 0.87194 0.0
O197 O 0.98427 0.06943 0.81483 0.0
C198 C 0.02381 0.10987 0.81877 0.0
C199 C 0.00485 0.07204 0.70504 0.0
C200 C 0.97291 0.11298 0.79677 0.0
O201 O 0.01625 0.10091 0.85143 0.0
O202 O 0.01849 0.10968 0.77055 0.0
O203 O 0.98445 0.1152 0.76412 0.0
O204 O 0.97373 0.1 0.82296 0.0
C205 C 0.99068 0.06872 0.8614 0.0
O206 O 0.99294 0.08157 0.70401 0.0
O207 O 0.01367 0.07348 0.7465 0.0
H208 H 0.11587 0.70821 0.00622 0.0
H209 H 0.09615 0.68852 0.04033 0.0
H210 H 0.1144 0.69493 0.20325 0.0
H211 H 0.13396 0.71459 0.16982 0.0
H212 H 0.10216 0.65921 0.09937 0.0
H213 H 0.0655 0.7026 0.21953 0.0
H214 H 0.07952 0.70898 0.16758 0.0
H215 H 0.08676 0.70302 0.23351 0.0
C216 C 0.11565 0.70541 0.04927 0.0
C217 C 0.1264 0.713 0.08535 0.0
C218 C 0.1044 0.69419 0.06868 0.0
C219 C 0.10366 0.69049 0.12444 0.0
C220 C 0.11455 0.69786 0.16028 0.0
H221 H 0.04134 0.6269 0.31688 0.0
H222 H 0.06238 0.64602 0.28803 0.0
C223 C 0.12578 0.70903 0.14099 0.0
C224 C 0.09171 0.67871 0.14524 0.0
H225 H 0.05928 0.67487 0.23005 0.0
C226 C 0.09275 0.66263 0.12779 0.0
C227 C 0.07956 0.68319 0.18276 0.0
C228 C 0.07762 0.70041 0.20172 0.0
C229 C 0.08201 0.65085 0.14712 0.0
C230 C 0.06969 0.65538 0.18401 0.0
C231 C 0.06876 0.67143 0.20194 0.0
C232 C 0.05712 0.64381 0.20203 0.0
C233 C 0.08411 0.63363 0.12843 0.0
C234 C 0.04704 0.6365 0.16341 0.0
C235 C 0.03516 0.62563 0.17967 0.0
C236 C 0.03294 0.62194 0.23504 0.0
C237 C 0.04282 0.62947 0.27395 0.0
C238 C 0.05481 0.64038 0.25753 0.0
H239 H 0.09663 0.63129 0.11443 0.0
H240 H 0.08114 0.62498 0.16147 0.0
H241 H 0.07589 0.63129 0.09365 0.0
H242 H 0.04831 0.63929 0.12055 0.0
H243 H 0.02765 0.62015 0.14866 0.0
H244 H 0.54103 0.87182 0.26409 0.0
H245 H 0.56067 0.85138 0.29388 0.0
H246 H 0.54856 0.86113 0.46136 0.0
H247 H 0.52909 0.8814 0.43231 0.0
H248 H 0.58784 0.8564 0.36965 0.0
H249 H 0.54346 0.81134 0.44446 0.0
H250 H 0.53813 0.82721 0.39735 0.0
H251 H 0.5404 0.83159 0.46855 0.0
C252 C 0.54255 0.86955 0.30719 0.0
C253 C 0.53349 0.87817 0.34582 0.0
C254 C 0.55375 0.85791 0.32413 0.0
C255 C 0.55587 0.85463 0.37978 0.0
C256 C 0.54691 0.8633 0.41823 0.0
H257 H 0.61488 0.79012 0.57604 0.0
H258 H 0.59555 0.81043 0.54348 0.0
C259 C 0.53584 0.87494 0.40147 0.0
C260 C 0.56769 0.84243 0.39836 0.0
H261 H 0.57088 0.80685 0.46757 0.0
C262 C 0.58417 0.84549 0.39064 0.0
C263 C 0.56282 0.82833 0.42627 0.0
C264 C 0.54524 0.82429 0.43438 0.0
C265 C 0.59595 0.83494 0.4111 0.0
C266 C 0.59108 0.82079 0.43895 0.0
C267 C 0.57458 0.81773 0.44646 0.0
C268 C 0.6029 0.80876 0.45909 0.0
C269 C 0.6135 0.83926 0.40392 0.0
C270 C 0.61325 0.80097 0.42241 0.0
C271 C 0.62426 0.78949 0.44085 0.0
C272 C 0.62506 0.78541 0.49635 0.0
C273 C 0.61457 0.79307 0.53311 0.0
C274 C 0.60354 0.80464 0.51455 0.0
H275 H 0.61513 0.85238 0.39644 0.0
H276 H 0.62067 0.83581 0.44028 0.0
H277 H 0.6184 0.83267 0.36823 0.0
H278 H 0.6127 0.80366 0.3793 0.0
H279 H 0.63208 0.78372 0.41138 0.0
H280 H 0.47642 0.37034 0.66308 0.0
H281 H 0.45542 0.35173 0.6336 0.0
H282 H 0.4348 0.35238 0.79477 0.0
H283 H 0.45584 0.37134 0.82468 0.0
H284 H 0.44787 0.3212 0.67213 0.0
H285 H 0.3963 0.36341 0.69637 0.0
H286 H 0.41701 0.37012 0.69699 0.0
H287 H 0.40846 0.36072 0.75622 0.0
C288 C 0.46744 0.36656 0.69242 0.0
C289 C 0.46774 0.37237 0.74623 0.0
C290 C 0.45544 0.35589 0.67543 0.0
C291 C 0.44342 0.35084 0.71171 0.0
C292 C 0.44381 0.35637 0.76583 0.0
H293 H 0.36221 0.28654 0.68291 0.0
H294 H 0.38299 0.30556 0.71138 0.0
C295 C 0.45587 0.3671 0.78297 0.0
C296 C 0.43065 0.33969 0.69239 0.0
H297 H 0.39004 0.33651 0.67167 0.0
C298 C 0.43522 0.32454 0.67191 0.0
C299 C 0.41418 0.34414 0.69185 0.0
C300 C 0.40864 0.36053 0.71106 0.0
C301 C 0.42374 0.3136 0.65182 0.0
C302 C 0.40728 0.31803 0.65141 0.0
C303 C 0.4027 0.33318 0.67183 0.0
C304 C 0.39451 0.30681 0.63254 0.0
C305 C 0.42927 0.29722 0.63245 0.0
C306 C 0.39393 0.30137 0.57835 0.0
C307 C 0.38199 0.29043 0.56177 0.0
C308 C 0.37047 0.28482 0.59921 0.0
C309 C 0.37095 0.29057 0.65308 0.0
C310 C 0.3828 0.30147 0.66948 0.0
H311 H 0.44171 0.29442 0.64635 0.0
H312 H 0.42103 0.28761 0.64721 0.0
H313 H 0.42918 0.29698 0.5873 0.0
H314 H 0.40272 0.30556 0.54896 0.0
H315 H 0.38189 0.28624 0.52 0.0
H316 H 0.86999 0.22583 0.90185 0.0
H317 H 0.88808 0.20555 0.86388 0.0
H318 H 0.90372 0.19271 0.02554 0.0
H319 H 0.88561 0.21324 0.0642 0.0
H320 H 0.92919 0.19637 0.94808 0.0
H321 H 0.88054 0.15651 0.87064 0.0
H322 H 0.87884 0.17715 0.84912 0.0
H323 H 0.87693 0.17223 0.92009 0.0
C324 C 0.87726 0.21871 0.9295 0.0
C325 C 0.8763 0.22107 0.98612 0.0
C326 C 0.88754 0.20707 0.90765 0.0
C327 C 0.89704 0.19746 0.94189 0.0
C328 C 0.89639 0.19995 0.99845 0.0
H329 H 0.9467 0.10932 0.86182 0.0
H330 H 0.92835 0.13022 0.89412 0.0
C331 C 0.88605 0.21164 0.02047 0.0
C332 C 0.90766 0.18489 0.91822 0.0
H333 H 0.90716 0.15054 0.84133 0.0
C334 C 0.92441 0.18631 0.92486 0.0
C335 C 0.90135 0.17173 0.88828 0.0
C336 C 0.88343 0.16917 0.88192 0.0
C337 C 0.93504 0.17501 0.90179 0.0
C338 C 0.92874 0.1621 0.87058 0.0
C339 C 0.91198 0.16059 0.86453 0.0
C340 C 0.93926 0.14939 0.84708 0.0
C341 C 0.95289 0.17678 0.91208 0.0
C342 C 0.95119 0.15311 0.80839 0.0
C343 C 0.96175 0.14112 0.78965 0.0
C344 C 0.96047 0.12524 0.80926 0.0
C345 C 0.94803 0.12145 0.846 0.0
C346 C 0.93753 0.13339 0.8646 0.0
H347 H 0.95543 0.1851 0.9465 0.0
H348 H 0.95847 0.16489 0.92109 0.0
H349 H 0.95876 0.18175 0.87512 0.0
H350 H 0.95252 0.16533 0.79347 0.0
H351 H 0.97122 0.14439 0.76137 0.0
H352 H 0.02509 0.35498 0.79334 0.0
H353 H 0.04345 0.3356 0.83595 0.0
H354 H 0.07919 0.37299 0.85479 0.0
H355 H 0.06083 0.3925 0.81308 0.0
H356 H 0.07499 0.32507 0.81536 0.0
H357 H 0.07114 0.35817 0.01153 0.0
H358 H 0.05773 0.36218 0.95529 0.0
H359 H 0.07787 0.37023 0.95523 0.0
C360 C 0.037 0.359 0.80544 0.0
C361 C 0.04146 0.3753 0.80031 0.0
C362 C 0.04744 0.34792 0.83004 0.0
C363 C 0.06249 0.35297 0.84989 0.0
C364 C 0.06745 0.36895 0.84105 0.0
H365 H 0.14013 0.3062 0.02475 0.0
H366 H 0.12171 0.32558 0.98235 0.0
C367 C 0.05701 0.38004 0.81668 0.0
C368 C 0.07265 0.34174 0.88206 0.0
H369 H 0.08957 0.33633 0.00766 0.0
C370 C 0.07814 0.32749 0.85744 0.0
C371 C 0.07666 0.34491 0.93711 0.0
C372 C 0.07044 0.35962 0.96663 0.0
C373 C 0.08783 0.31647 0.88602 0.0
C374 C 0.0919 0.31969 0.94094 0.0
C375 C 0.0864 0.33391 0.9656 0.0
C376 C 0.10217 0.30852 0.97289 0.0
C377 C 0.09394 0.30165 0.85684 0.0
C378 C 0.09697 0.29275 0.98398 0.0
C379 C 0.10742 0.28168 0.00845 0.0
C380 C 0.12323 0.28622 0.02234 0.0
C381 C 0.12802 0.30234 0.01457 0.0
C382 C 0.11754 0.31341 0.99013 0.0
H383 H 0.09278 0.30278 0.81195 0.0
H384 H 0.10678 0.29935 0.867 0.0
H385 H 0.0868 0.29102 0.86997 0.0
H386 H 0.08502 0.28884 0.97199 0.0
H387 H 0.10337 0.26936 0.01399 0.0
H388 H 0.97922 0.87223 0.16101 0.0
H389 H 0.95831 0.85339 0.13238 0.0
H390 H 0.93568 0.85724 0.2899 0.0
H391 H 0.95673 0.87634 0.31912 0.0
H392 H 0.94947 0.8233 0.18038 0.0
H393 H 0.89918 0.86777 0.17875 0.0
H394 H 0.9201 0.87382 0.17993 0.0
H395 H 0.91066 0.86638 0.2407 0.0
C396 C 0.96982 0.86909 0.18975 0.0
C397 C 0.96957 0.87583 0.24231 0.0
C398 C 0.95789 0.85829 0.17327 0.0
C399 C 0.94537 0.85407 0.20875 0.0
C400 C 0.94515 0.86054 0.26166 0.0
H401 H 0.86197 0.79266 0.16194 0.0
H402 H 0.88228 0.81144 0.1959 0.0
C403 C 0.9572 0.87135 0.27839 0.0
C404 C 0.93264 0.84288 0.1896 0.0
H405 H 0.89278 0.84092 0.15526 0.0
C406 C 0.93706 0.82711 0.17498 0.0
C407 C 0.9165 0.84795 0.18246 0.0
C408 C 0.91125 0.86493 0.19584 0.0
C409 C 0.92572 0.81621 0.15374 0.0
C410 C 0.90962 0.82134 0.14584 0.0
C411 C 0.90517 0.83706 0.16101 0.0
C412 C 0.8971 0.8104 0.12354 0.0
C413 C 0.93102 0.79921 0.14087 0.0
C414 C 0.8985 0.80383 0.07097 0.0
C415 C 0.88686 0.79304 0.0513 0.0
C416 C 0.87363 0.78873 0.08391 0.0
C417 C 0.87206 0.79569 0.13587 0.0
C418 C 0.88365 0.80645 0.15539 0.0
H419 H 0.94253 0.7961 0.16148 0.0
H420 H 0.92168 0.79034 0.15328 0.0
H421 H 0.9329 0.79804 0.09632 0.0
H422 H 0.90865 0.80698 0.04531 0.0
H423 H 0.88835 0.7879 0.01107 0.0
H424 H 0.3826 0.70756 0.57384 0.0
H425 H 0.40185 0.6873 0.5402 0.0
H426 H 0.39085 0.70084 0.37488 0.0
H427 H 0.37174 0.72098 0.40784 0.0
H428 H 0.39475 0.66087 0.46481 0.0
H429 H 0.44084 0.70333 0.38427 0.0
H430 H 0.42578 0.70934 0.43339 0.0
H431 H 0.42047 0.70716 0.3629 0.0
C432 C 0.38436 0.70625 0.53039 0.0
C433 C 0.3757 0.71589 0.49352 0.0
C434 C 0.39532 0.69469 0.51125 0.0
C435 C 0.39789 0.69275 0.45509 0.0
C436 C 0.38923 0.70233 0.41836 0.0
H437 H 0.46063 0.63002 0.26125 0.0
H438 H 0.44043 0.65004 0.28998 0.0
C439 C 0.37826 0.71379 0.43734 0.0
C440 C 0.40928 0.68041 0.43444 0.0
H441 H 0.44431 0.67566 0.36311 0.0
C442 C 0.40563 0.66407 0.44279 0.0
C443 C 0.42333 0.68467 0.40513 0.0
C444 C 0.42797 0.70207 0.39612 0.0
C445 C 0.41564 0.65184 0.42225 0.0
C446 C 0.42984 0.65608 0.39363 0.0
C447 C 0.43339 0.67243 0.38484 0.0
C448 C 0.44164 0.64376 0.37543 0.0
C449 C 0.41076 0.63447 0.43066 0.0
C450 C 0.44911 0.63378 0.41392 0.0
C451 C 0.46053 0.62241 0.3977 0.0
C452 C 0.46486 0.62085 0.34259 0.0
C453 C 0.45746 0.63091 0.30392 0.0
C454 C 0.44597 0.64234 0.32029 0.0
H455 H 0.39758 0.63331 0.43778 0.0
H456 H 0.4141 0.62692 0.39503 0.0
H457 H 0.41706 0.62964 0.46701 0.0
H458 H 0.44627 0.63493 0.45678 0.0
H459 H 0.46607 0.61493 0.42863 0.0
H460 H 0.64183 0.20677 0.65894 0.0
H461 H 0.62192 0.18774 0.69417 0.0
H462 H 0.59241 0.1954 0.55192 0.0
H463 H 0.61254 0.21425 0.51573 0.0
H464 H 0.59078 0.1936 0.72096 0.0
H465 H 0.59356 0.14664 0.56042 0.0
H466 H 0.60857 0.1623 0.56666 0.0
H467 H 0.58957 0.16645 0.53422 0.0
C468 C 0.63119 0.20427 0.63479 0.0
C469 C 0.62876 0.21195 0.58442 0.0
C470 C 0.61981 0.19341 0.65508 0.0
C471 C 0.60575 0.18999 0.62548 0.0
C472 C 0.60333 0.19757 0.57494 0.0
H473 H 0.51861 0.1365 0.6787 0.0
H474 H 0.53996 0.15476 0.6495 0.0
C475 C 0.6148 0.20839 0.55438 0.0
C476 C 0.59338 0.17904 0.64879 0.0
H477 H 0.5718 0.14476 0.62339 0.0
C478 C 0.58671 0.18284 0.69984 0.0
C479 C 0.58814 0.16497 0.62133 0.0
C480 C 0.59544 0.15973 0.56789 0.0
C481 C 0.57463 0.17322 0.72338 0.0
C482 C 0.56918 0.15937 0.69534 0.0
C483 C 0.57599 0.15543 0.64471 0.0
C484 C 0.55593 0.14912 0.71642 0.0
C485 C 0.56744 0.17819 0.77725 0.0
C486 C 0.55773 0.14003 0.76432 0.0
C487 C 0.54546 0.12953 0.78136 0.0
C488 C 0.53127 0.12795 0.75048 0.0
C489 C 0.52939 0.13741 0.70339 0.0
C490 C 0.5416 0.14784 0.68651 0.0
H491 H 0.57073 0.19076 0.78841 0.0
H492 H 0.55409 0.17716 0.77619 0.0
H493 H 0.57196 0.17003 0.80963 0.0
H494 H 0.5688 0.14069 0.78761 0.0
H495 H 0.54728 0.12231 0.81757 0.0
H496 H 0.96559 0.39576 0.92797 0.0
H497 H 0.94555 0.37779 0.9686 0.0
H498 H 0.94132 0.35213 0.81648 0.0
H499 H 0.96161 0.36993 0.7757 0.0
H500 H 0.91399 0.37105 0.94201 0.0
H501 H 0.95205 0.31624 0.92455 0.0
H502 H 0.95994 0.33632 0.91445 0.0
H503 H 0.94887 0.32644 0.86099 0.0
C504 C 0.96032 0.38635 0.903 0.0
C505 C 0.96525 0.38418 0.84871 0.0
C506 C 0.94888 0.37609 0.92632 0.0
C507 C 0.94218 0.36343 0.89591 0.0
C508 C 0.94661 0.3616 0.84105 0.0
H509 H 0.85818 0.30598 0.9606 0.0
H510 H 0.87753 0.32652 0.93282 0.0
C511 C 0.9581 0.37186 0.81767 0.0
C512 C 0.9307 0.35207 0.92193 0.0
H513 H 0.92478 0.31223 0.95126 0.0
C514 C 0.91637 0.3582 0.94427 0.0
C515 C 0.93399 0.33535 0.92591 0.0
C516 C 0.94961 0.32818 0.90571 0.0
C517 C 0.90501 0.34798 0.969 0.0
C518 C 0.90795 0.33117 0.97062 0.0
C519 C 0.92249 0.32511 0.94973 0.0
C520 C 0.89578 0.31954 0.99117 0.0
C521 C 0.89001 0.35532 0.99344 0.0
C522 C 0.89963 0.30864 0.03303 0.0
C523 C 0.88857 0.29675 0.04889 0.0
C524 C 0.87355 0.2955 0.02276 0.0
C525 C 0.86962 0.30667 0.98177 0.0
C526 C 0.88064 0.31851 0.96601 0.0
H527 H 0.89191 0.36821 0.00426 0.0
H528 H 0.88009 0.35476 0.96322 0.0
H529 H 0.88617 0.34868 0.03048 0.0
H530 H 0.91131 0.30916 0.05275 0.0
H531 H 0.89197 0.28825 0.08034 0.0
H532 H 0.44737 0.10387 0.68872 0.0
H533 H 0.42623 0.12276 0.66205 0.0
H534 H 0.43732 0.15263 0.8009 0.0
H535 H 0.45881 0.13385 0.82743 0.0
H536 H 0.39891 0.13457 0.71233 0.0
H537 H 0.44324 0.18345 0.67239 0.0
H538 H 0.44922 0.16281 0.68409 0.0
H539 H 0.4437 0.17552 0.7404 0.0
C540 C 0.4452 0.11435 0.71403 0.0
C541 C 0.45485 0.11746 0.75992 0.0
C542 C 0.4331 0.12514 0.6987 0.0
C543 C 0.43042 0.13926 0.72884 0.0
C544 C 0.43943 0.14197 0.77642 0.0
H545 H 0.35052 0.20574 0.6803 0.0
H546 H 0.36876 0.18489 0.71409 0.0
C547 C 0.4516 0.13117 0.79179 0.0
C548 C 0.41868 0.15138 0.70871 0.0
H549 H 0.41571 0.19001 0.66144 0.0
C550 C 0.40255 0.14671 0.70134 0.0
C551 C 0.42355 0.1671 0.69336 0.0
C552 C 0.44089 0.17253 0.69741 0.0
C553 C 0.39112 0.1574 0.67942 0.0
C554 C 0.3959 0.17325 0.66539 0.0
C555 C 0.41205 0.17787 0.67245 0.0
C556 C 0.38437 0.18531 0.64352 0.0
C557 C 0.37412 0.15147 0.67031 0.0
C558 C 0.3872 0.19267 0.59288 0.0
C559 C 0.37684 0.20471 0.57359 0.0
C560 C 0.36352 0.20965 0.60477 0.0
C561 C 0.36061 0.20211 0.6551 0.0
C562 C 0.37098 0.19012 0.6744 0.0
H563 H 0.37357 0.13808 0.66841 0.0
H564 H 0.36641 0.15547 0.70466 0.0
H565 H 0.36902 0.15645 0.63205 0.0
H566 H 0.39751 0.18918 0.5685 0.0
H567 H 0.37943 0.21035 0.53479 0.0
H568 H 0.53793 0.63297 0.27357 0.0
H569 H 0.55818 0.65225 0.30661 0.0
H570 H 0.56453 0.62374 0.45189 0.0
H571 H 0.54469 0.60435 0.41881 0.0
H572 H 0.55709 0.67053 0.39957 0.0
H573 H 0.6107 0.63067 0.40423 0.0
H574 H 0.5924 0.62527 0.36883 0.0
H575 H 0.59392 0.62255 0.44133 0.0
C576 C 0.54385 0.6307 0.31212 0.0
C577 C 0.53981 0.6171 0.34341 0.0
C578 C 0.55536 0.64174 0.33105 0.0
C579 C 0.56303 0.63932 0.3814 0.0
C580 C 0.55906 0.62568 0.4124 0.0
H581 H 0.61148 0.71402 0.57376 0.0
H582 H 0.59273 0.69317 0.5413 0.0
C583 C 0.54765 0.61464 0.39348 0.0
C584 C 0.57462 0.65139 0.40295 0.0
H585 H 0.61297 0.65572 0.45144 0.0
C586 C 0.56934 0.66732 0.41064 0.0
C587 C 0.59064 0.64721 0.41702 0.0
C588 C 0.59732 0.63054 0.40695 0.0
C589 C 0.57958 0.67916 0.43263 0.0
C590 C 0.59542 0.67484 0.44845 0.0
C591 C 0.60075 0.65895 0.44011 0.0
C592 C 0.60699 0.68684 0.47057 0.0
C593 C 0.57346 0.69625 0.43753 0.0
C594 C 0.62149 0.68973 0.44291 0.0
C595 C 0.63225 0.70142 0.46168 0.0
C596 C 0.62875 0.71049 0.50863 0.0
C597 C 0.61446 0.70726 0.53739 0.0
C598 C 0.60369 0.69546 0.51861 0.0
H599 H 0.56272 0.69835 0.41142 0.0
H600 H 0.56991 0.6986 0.48036 0.0
H601 H 0.58296 0.70507 0.42612 0.0
H602 H 0.62434 0.68318 0.40595 0.0
H603 H 0.64317 0.70359 0.43859 0.0
H604 H 0.14888 0.8029 0.09572 0.0
H605 H 0.13082 0.82329 0.13374 0.0
H606 H 0.08975 0.79707 0.07219 0.0
H607 H 0.10782 0.77672 0.03298 0.0
H608 H 0.08675 0.83003 0.05941 0.0
H609 H 0.10452 0.81516 0.27111 0.0
H610 H 0.12126 0.82054 0.22853 0.0
H611 H 0.10983 0.80261 0.2138 0.0
C612 C 0.13601 0.80158 0.08961 0.0
C613 C 0.12975 0.78816 0.06168 0.0
C614 C 0.12571 0.81316 0.11181 0.0
C615 C 0.10894 0.81145 0.1071 0.0
C616 C 0.10266 0.79852 0.07676 0.0
H617 H 0.03593 0.8605 0.30124 0.0
H618 H 0.055 0.84085 0.2634 0.0
C619 C 0.11299 0.78695 0.0542 0.0
C620 C 0.09799 0.823 0.13471 0.0
H621 H 0.08837 0.83865 0.2593 0.0
C622 C 0.08706 0.83189 0.10311 0.0
C623 C 0.09821 0.82518 0.1919 0.0
C624 C 0.10896 0.81526 0.22844 0.0
C625 C 0.07662 0.84319 0.12698 0.0
C626 C 0.07736 0.8459 0.18386 0.0
C627 C 0.088 0.83673 0.21564 0.0
C628 C 0.067 0.85807 0.21099 0.0
C629 C 0.0647 0.85193 0.09113 0.0
C630 C 0.06793 0.87437 0.1959 0.0
C631 C 0.05707 0.88557 0.21731 0.0
C632 C 0.04519 0.88071 0.25472 0.0
C633 C 0.04496 0.8646 0.27254 0.0
C634 C 0.0558 0.85336 0.2508 0.0
H635 H 0.06265 0.84542 0.05218 0.0
H636 H 0.05292 0.85345 0.11206 0.0
H637 H 0.06949 0.86408 0.08124 0.0
H638 H 0.07677 0.87834 0.16635 0.0
H639 H 0.05762 0.89793 0.20309 0.0
H640 H 0.9505 0.60417 0.16826 0.0
H641 H 0.93109 0.62396 0.13456 0.0
H642 H 0.94209 0.65521 0.27001 0.0
H643 H 0.9618 0.63552 0.30362 0.0
H644 H 0.90391 0.63739 0.18007 0.0
H645 H 0.9501 0.68427 0.13818 0.0
H646 H 0.95527 0.66358 0.15311 0.0
H647 H 0.94996 0.67718 0.20725 0.0
C648 C 0.94871 0.6152 0.19118 0.0
C649 C 0.95775 0.61835 0.23843 0.0
C650 C 0.93762 0.6265 0.1718 0.0
C651 C 0.93538 0.64119 0.19914 0.0
C652 C 0.9439 0.6441 0.24761 0.0
H653 H 0.85811 0.70955 0.15524 0.0
H654 H 0.87633 0.68828 0.18543 0.0
C655 C 0.95504 0.63279 0.26703 0.0
C656 C 0.92427 0.65347 0.17629 0.0
H657 H 0.92272 0.69208 0.12791 0.0
C658 C 0.90802 0.64934 0.16856 0.0
C659 C 0.92974 0.66894 0.16024 0.0
C660 C 0.94724 0.67376 0.16456 0.0
C661 C 0.897 0.66037 0.14635 0.0
C662 C 0.90232 0.67606 0.13236 0.0
C663 C 0.91864 0.68008 0.13896 0.0
C664 C 0.89104 0.68866 0.1127 0.0
C665 C 0.87979 0.65505 0.13748 0.0
C666 C 0.89344 0.69622 0.06212 0.0
C667 C 0.88306 0.70854 0.04479 0.0
C668 C 0.8702 0.71353 0.07799 0.0
C669 C 0.86784 0.7059 0.12849 0.0
C670 C 0.87819 0.69366 0.14574 0.0
H671 H 0.87883 0.64171 0.13456 0.0
H672 H 0.87233 0.65903 0.17252 0.0
H673 H 0.87469 0.66045 0.09986 0.0
H674 H 0.90337 0.69261 0.03617 0.0
H675 H 0.88522 0.71426 0.00583 0.0
H676 H 0.04239 0.13016 0.75691 0.0
H677 H 0.06407 0.14801 0.78849 0.0
H678 H 0.05702 0.13112 0.95283 0.0
H679 H 0.03567 0.11308 0.92152 0.0
H680 H 0.06172 0.17268 0.86177 0.0
H681 H 0.10544 0.12733 0.93734 0.0
H682 H 0.08859 0.12202 0.89436 0.0
H683 H 0.08569 0.12505 0.96623 0.0
C684 C 0.04561 0.13012 0.79964 0.0
C685 C 0.03738 0.12017 0.83668 0.0
C686 C 0.05798 0.14033 0.81764 0.0
C687 C 0.06235 0.1407 0.87289 0.0
C688 C 0.05415 0.13074 0.90983 0.0
H689 H 0.12323 0.20389 0.06852 0.0
H690 H 0.10426 0.18311 0.03681 0.0
C691 C 0.04186 0.12052 0.89189 0.0
C692 C 0.07481 0.15218 0.89252 0.0
H693 H 0.11032 0.15471 0.96282 0.0
C694 C 0.0724 0.16873 0.88347 0.0
C695 C 0.08872 0.14702 0.92111 0.0
C696 C 0.09238 0.12938 0.92993 0.0
C697 C 0.08337 0.18027 0.90293 0.0
C698 C 0.09719 0.17511 0.93177 0.0
C699 C 0.09965 0.15859 0.94092 0.0
C700 C 0.10941 0.18677 0.95137 0.0
C701 C 0.07999 0.19793 0.89327 0.0
C702 C 0.11881 0.19535 0.91386 0.0
C703 C 0.12964 0.20711 0.93175 0.0
C704 C 0.13127 0.21052 0.98757 0.0
C705 C 0.12221 0.20153 0.02528 0.0
C706 C 0.11139 0.18969 0.00727 0.0
H707 H 0.06731 0.20006 0.88062 0.0
H708 H 0.08249 0.20509 0.93056 0.0
H709 H 0.08802 0.20243 0.86048 0.0
H710 H 0.11757 0.19312 0.8706 0.0
H711 H 0.13648 0.21377 0.90165 0.0
H712 H 0.61065 0.27891 0.53224 0.0
H713 H 0.59218 0.29896 0.57103 0.0
H714 H 0.63054 0.31715 0.67264 0.0
H715 H 0.64883 0.29687 0.63544 0.0
H716 H 0.60391 0.31271 0.73059 0.0
H717 H 0.58854 0.34657 0.54317 0.0
H718 H 0.58431 0.3254 0.53777 0.0
H719 H 0.60482 0.33215 0.54559 0.0
C720 C 0.61517 0.28735 0.56228 0.0
C721 C 0.63118 0.28637 0.58069 0.0
C722 C 0.60463 0.29883 0.58431 0.0
C723 C 0.61002 0.30971 0.62434 0.0
C724 C 0.6261 0.30891 0.64186 0.0
H725 H 0.55741 0.39529 0.72263 0.0
H726 H 0.57773 0.37617 0.69039 0.0
C727 C 0.63656 0.29734 0.62039 0.0
C728 C 0.59882 0.32151 0.64985 0.0
H729 H 0.5728 0.35229 0.62175 0.0
C730 C 0.59716 0.32143 0.7068 0.0
C731 C 0.59018 0.33301 0.61894 0.0
C732 C 0.59215 0.33443 0.55806 0.0
C733 C 0.58704 0.33244 0.73363 0.0
C734 C 0.57795 0.34357 0.70255 0.0
C735 C 0.57969 0.34371 0.64563 0.0
C736 C 0.56662 0.35529 0.72781 0.0
C737 C 0.58649 0.33226 0.79503 0.0
C738 C 0.5538 0.35001 0.76073 0.0
C739 C 0.54233 0.361 0.78012 0.0
C740 C 0.54331 0.37739 0.76592 0.0
C741 C 0.55638 0.38272 0.73429 0.0
C742 C 0.56795 0.3718 0.71563 0.0
H743 H 0.59757 0.3268 0.81255 0.0
H744 H 0.5851 0.34463 0.81179 0.0
H745 H 0.57607 0.32489 0.80857 0.0
H746 H 0.55227 0.33731 0.76965 0.0
H747 H 0.53225 0.35652 0.80377 0.0
H748 H 0.38762 0.78734 0.5773 0.0
H749 H 0.40603 0.80886 0.54783 0.0
H750 H 0.37549 0.81835 0.40937 0.0
H751 H 0.35702 0.79723 0.43891 0.0
H752 H 0.42295 0.81042 0.45199 0.0
H753 H 0.38252 0.86333 0.46915 0.0
H754 H 0.37789 0.84415 0.5002 0.0
H755 H 0.37393 0.84742 0.42902 0.0
C756 C 0.38473 0.79421 0.54109 0.0
C757 C 0.37084 0.79065 0.51059 0.0
C758 C 0.39527 0.80645 0.52421 0.0
C759 C 0.39201 0.81537 0.47681 0.0
C760 C 0.37807 0.8119 0.44672 0.0
H761 H 0.46152 0.86757 0.27757 0.0
H762 H 0.4416 0.84838 0.31308 0.0
C763 C 0.36756 0.79974 0.46356 0.0
C764 C 0.40358 0.82767 0.45676 0.0
H765 H 0.40649 0.867 0.41644 0.0
C766 C 0.4194 0.82283 0.44463 0.0
C767 C 0.39897 0.84388 0.44759 0.0
C768 C 0.38245 0.85006 0.46268 0.0
C769 C 0.43064 0.83367 0.42247 0.0
C770 C 0.42581 0.8497 0.41104 0.0
C771 C 0.4101 0.85464 0.42436 0.0
C772 C 0.43707 0.86172 0.38733 0.0
C773 C 0.44764 0.82791 0.41235 0.0
C774 C 0.44058 0.87593 0.41604 0.0
C775 C 0.45175 0.88698 0.39554 0.0
C776 C 0.45963 0.88405 0.34582 0.0
C777 C 0.45568 0.87011 0.31607 0.0
C778 C 0.44443 0.85907 0.33656 0.0
H779 H 0.45048 0.81691 0.43636 0.0
H780 H 0.44905 0.82488 0.36861 0.0
H781 H 0.45656 0.83742 0.42274 0.0
H782 H 0.43498 0.87828 0.4551 0.0
H783 H 0.45451 0.89761 0.41943 0.0
H784 H 0.99287 0.5529 0.11952 0.0
H785 H 0.99922 0.528 0.07085 0.0
H786 H 0.03782 0.51821 0.18383 0.0
H787 H 0.03169 0.54333 0.23246 0.0
H788 H 0.04573 0.51187 0.07372 0.0
H789 H 0.98799 0.48343 0.13385 0.0
H790 H 0.98516 0.50274 0.10222 0.0
H791 H 0.99566 0.50144 0.1662 0.0
C792 C 0.00279 0.54552 0.13378 0.0
C793 C 0.0117 0.54993 0.18 0.0
C794 C 0.00634 0.53128 0.10614 0.0
C795 C 0.01874 0.52116 0.12461 0.0
C796 C 0.02812 0.52584 0.16938 0.0
H797 H 0.01562 0.42527 0.97947 0.0
H798 H 0.02024 0.4458 0.04944 0.0
C799 C 0.02461 0.54016 0.19699 0.0
C800 C 0.02154 0.50553 0.09751 0.0
H801 H 0.00185 0.47141 0.0584 0.0
C802 C 0.03627 0.50286 0.07098 0.0
C803 C 0.00933 0.49365 0.09539 0.0
C804 C 0.99371 0.49536 0.12644 0.0
C805 C 0.03869 0.48902 0.03909 0.0
C806 C 0.02591 0.47784 0.03304 0.0
C807 C 0.01161 0.48004 0.06263 0.0
C808 C 0.02629 0.46473 0.99224 0.0
C809 C 0.05478 0.48666 0.01158 0.0
C810 C 0.02847 0.4685 0.93705 0.0
C811 C 0.02596 0.4568 0.89717 0.0
C812 C 0.02094 0.44121 0.91181 0.0
C813 C 0.01942 0.43723 0.96713 0.0
C814 C 0.0221 0.44892 0.00707 0.0
H815 H 0.06463 0.49233 0.03555 0.0
H816 H 0.05758 0.47367 0.00584 0.0
H817 H 0.05454 0.49258 0.97108 0.0
H818 H 0.03125 0.48071 0.9245 0.0
H819 H 0.02716 0.4602 0.8548 0.0
H820 H 0.80438 0.73344 0.17795 0.0
H821 H 0.78155 0.73606 0.24031 0.0
H822 H 0.77285 0.78436 0.18196 0.0
H823 H 0.79575 0.78188 0.11931 0.0
H824 H 0.77719 0.76248 0.32301 0.0
H825 H 0.72906 0.75786 0.16525 0.0
H826 H 0.74925 0.75039 0.15389 0.0
H827 H 0.74545 0.77168 0.15332 0.0
C828 C 0.79761 0.74461 0.17834 0.0
C829 C 0.80177 0.75745 0.14379 0.0
C830 C 0.78463 0.74609 0.214 0.0
C831 C 0.77558 0.76036 0.21526 0.0
C832 C 0.77971 0.77323 0.18105 0.0
H833 H 0.70132 0.78089 0.45898 0.0
H834 H 0.72395 0.78405 0.39557 0.0
C835 C 0.79276 0.7718 0.1455 0.0
C836 C 0.76179 0.76161 0.25257 0.0
H837 H 0.72072 0.76035 0.25647 0.0
C838 C 0.76483 0.7622 0.30866 0.0
C839 C 0.74577 0.76112 0.2332 0.0
C840 C 0.74205 0.76014 0.17317 0.0
C841 C 0.75214 0.76203 0.34628 0.0
C842 C 0.73612 0.76131 0.32693 0.0
C843 C 0.73307 0.761 0.27081 0.0
C844 C 0.72241 0.75968 0.36445 0.0
C845 C 0.7559 0.76202 0.40637 0.0
C846 C 0.71409 0.74499 0.36712 0.0
C847 C 0.70126 0.74313 0.40318 0.0
C848 C 0.69652 0.756 0.43677 0.0
C849 C 0.70478 0.77078 0.43358 0.0
C850 C 0.71767 0.7726 0.3976 0.0
H851 H 0.76899 0.76044 0.41449 0.0
H852 H 0.75199 0.77364 0.4245 0.0
H853 H 0.74917 0.75221 0.42718 0.0
H854 H 0.71764 0.73492 0.34165 0.0
H855 H 0.69507 0.73163 0.40472 0.0
H856 H 0.51009 0.54986 0.45045 0.0
H857 H 0.50356 0.5264 0.50615 0.0
H858 H 0.45763 0.52196 0.42501 0.0
H859 H 0.4642 0.54541 0.3682 0.0
H860 H 0.47712 0.52126 0.57664 0.0
H861 H 0.47907 0.47727 0.40501 0.0
H862 H 0.48715 0.49742 0.39905 0.0
H863 H 0.46574 0.49428 0.39824 0.0
C864 C 0.49857 0.54393 0.44452 0.0
C865 C 0.48769 0.54937 0.40483 0.0
C866 C 0.49485 0.53057 0.47644 0.0
C867 C 0.48019 0.52241 0.46922 0.0
C868 C 0.46909 0.52801 0.43054 0.0
H869 H 0.46459 0.44475 0.70842 0.0
H870 H 0.45757 0.46697 0.64697 0.0
C871 C 0.47284 0.5414 0.39838 0.0
C872 C 0.477 0.50781 0.50173 0.0
H873 H 0.47642 0.46674 0.49314 0.0
C874 C 0.47665 0.50932 0.55855 0.0
C875 C 0.47648 0.49234 0.47758 0.0
C876 C 0.47722 0.4901 0.41666 0.0
C877 C 0.47672 0.49569 0.5922 0.0
C878 C 0.4768 0.48019 0.56809 0.0
C879 C 0.47625 0.47869 0.51124 0.0
C880 C 0.47975 0.46558 0.60083 0.0
C881 C 0.4778 0.49799 0.65308 0.0
C882 C 0.49423 0.4571 0.5936 0.0
C883 C 0.49821 0.4444 0.62819 0.0
C884 C 0.48776 0.44 0.67061 0.0
C885 C 0.47292 0.44801 0.67628 0.0
C886 C 0.46891 0.4607 0.64141 0.0
H887 H 0.48028 0.51074 0.66437 0.0
H888 H 0.46621 0.4944 0.67209 0.0
H889 H 0.48747 0.49028 0.67047 0.0
H890 H 0.50274 0.46071 0.56242 0.0
H891 H 0.50969 0.43838 0.62273 0.0
H892 H 0.80392 0.27657 0.91812 0.0
H893 H 0.78165 0.27385 0.85349 0.0
H894 H 0.78195 0.22223 0.87631 0.0
H895 H 0.80408 0.22486 0.94165 0.0
H896 H 0.78127 0.25583 0.75611 0.0
H897 H 0.73463 0.23485 0.90273 0.0
H898 H 0.75329 0.24407 0.92434 0.0
H899 H 0.75303 0.2234 0.90233 0.0
C900 C 0.79919 0.26465 0.90952 0.0
C901 C 0.80564 0.25093 0.93498 0.0
C902 C 0.78652 0.26312 0.87262 0.0
C903 C 0.78009 0.24787 0.86081 0.0
C904 C 0.78659 0.23412 0.88577 0.0
H905 H 0.7012 0.22028 0.64588 0.0
H906 H 0.72465 0.21965 0.70658 0.0
C907 C 0.79925 0.23565 0.92281 0.0
C908 C 0.76676 0.2464 0.82151 0.0
H909 H 0.7272 0.23569 0.80991 0.0
C910 C 0.76944 0.25141 0.76775 0.0
C911 C 0.75142 0.24056 0.83707 0.0
C912 C 0.74781 0.23552 0.89484 0.0
C913 C 0.7571 0.2508 0.72893 0.0
C914 C 0.7417 0.24523 0.74474 0.0
C915 C 0.73909 0.23992 0.79818 0.0
C916 C 0.72791 0.24555 0.70704 0.0
C917 C 0.76062 0.25606 0.67134 0.0
C918 C 0.722 0.26034 0.68795 0.0
C919 C 0.70865 0.26075 0.65354 0.0
C920 C 0.70099 0.24636 0.63794 0.0
C921 C 0.70692 0.23154 0.65722 0.0
C922 C 0.72027 0.23115 0.69179 0.0
H923 H 0.77377 0.25599 0.66256 0.0
H924 H 0.75443 0.24812 0.64152 0.0
H925 H 0.75613 0.26855 0.66539 0.0
H926 H 0.72761 0.27158 0.70019 0.0
H927 H 0.70429 0.27234 0.63941 0.0
H928 H 0.19034 0.29125 0.93985 0.0
H929 H 0.21115 0.29924 0.87442 0.0
H930 H 0.20802 0.25242 0.79822 0.0
H931 H 0.18714 0.24447 0.8627 0.0
H932 H 0.23994 0.28427 0.86947 0.0
H933 H 0.21135 0.28166 0.66693 0.0
H934 H 0.19974 0.28284 0.72907 0.0
H935 H 0.20709 0.26367 0.7048 0.0
C936 C 0.19385 0.28281 0.90831 0.0
C937 C 0.18724 0.2672 0.90646 0.0
C938 C 0.20568 0.28741 0.87097 0.0
C939 C 0.21095 0.27651 0.83105 0.0
C940 C 0.20384 0.26117 0.82779 0.0
H941 H 0.2988 0.24658 0.71236 0.0
H942 H 0.27484 0.25478 0.76289 0.0
C943 C 0.19202 0.25657 0.86502 0.0
C944 C 0.2254 0.28006 0.79804 0.0
H945 H 0.24029 0.27603 0.66945 0.0
C946 C 0.23996 0.28292 0.82554 0.0
C947 C 0.2254 0.27857 0.74073 0.0
C948 C 0.21 0.2767 0.70869 0.0
C949 C 0.25469 0.28286 0.7977 0.0
C950 C 0.2548 0.27962 0.74126 0.0
C951 C 0.24016 0.27825 0.71298 0.0
C952 C 0.26986 0.2756 0.71239 0.0
C953 C 0.27005 0.28555 0.82935 0.0
C954 C 0.2748 0.28446 0.66675 0.0
C955 C 0.28848 0.27975 0.63761 0.0
C956 C 0.29725 0.26602 0.65346 0.0
C957 C 0.29231 0.25725 0.69937 0.0
C958 C 0.2787 0.26199 0.72849 0.0
H959 H 0.26783 0.29302 0.86616 0.0
H960 H 0.27485 0.27373 0.84301 0.0
H961 H 0.27936 0.29155 0.80393 0.0
H962 H 0.26799 0.2949 0.65348 0.0
H963 H 0.29202 0.28669 0.60219 0.0
H964 H 0.30646 0.722 0.41848 0.0
H965 H 0.28373 0.72045 0.35507 0.0
H966 H 0.2727 0.7705 0.38607 0.0
H967 H 0.29557 0.77225 0.44854 0.0
H968 H 0.25122 0.72609 0.37356 0.0
H969 H 0.27578 0.76879 0.22067 0.0
H970 H 0.28801 0.76019 0.27407 0.0
H971 H 0.27497 0.77704 0.28815 0.0
C972 C 0.2992 0.73268 0.41161 0.0
C973 C 0.30281 0.74728 0.43797 0.0
C974 C 0.28625 0.73177 0.37551 0.0
C975 C 0.27677 0.74544 0.36531 0.0
C976 C 0.28014 0.75993 0.39251 0.0
H977 H 0.19196 0.76851 0.18244 0.0
H978 H 0.21467 0.76734 0.24578 0.0
C979 C 0.29314 0.76088 0.42833 0.0
C980 C 0.26318 0.74453 0.32675 0.0
H981 H 0.24812 0.76149 0.21103 0.0
C982 C 0.25058 0.73371 0.33774 0.0
C983 C 0.26249 0.75446 0.28002 0.0
C984 C 0.27611 0.76566 0.26463 0.0
C985 C 0.23698 0.73293 0.30394 0.0
C986 C 0.23615 0.74315 0.25809 0.0
C987 C 0.24885 0.75376 0.24658 0.0
C988 C 0.22202 0.74331 0.22192 0.0
C989 C 0.22343 0.72154 0.31812 0.0
C990 C 0.21876 0.73015 0.1878 0.0
C991 C 0.20584 0.7308 0.15146 0.0
C992 C 0.19607 0.74463 0.14888 0.0
C993 C 0.19929 0.7577 0.18364 0.0
C994 C 0.21222 0.75706 0.21975 0.0
H995 H 0.22476 0.71645 0.35972 0.0
H996 H 0.21162 0.7278 0.31526 0.0
H997 H 0.22331 0.71139 0.28862 0.0
H998 H 0.22638 0.71954 0.18861 0.0
H999 H 0.20362 0.72058 0.12499 0.0
H1000 H 0.49183 0.95248 0.44609 0.0
H1001 H 0.49968 0.97609 0.49912 0.0
H1002 H 0.54563 0.97734 0.41686 0.0
H1003 H 0.53774 0.9537 0.36275 0.0
H1004 H 0.5268 0.98017 0.56855 0.0
H1005 H 0.52646 0.02308 0.39377 0.0
H1006 H 0.51714 0.00343 0.38961 0.0
H1007 H 0.5387 0.00522 0.38821 0.0
C1008 C 0.50362 0.95773 0.43932 0.0
C1009 C 0.51415 0.95133 0.40016 0.0
C1010 C 0.50811 0.97118 0.46972 0.0
C1011 C 0.52317 0.97848 0.46148 0.0
C1012 C 0.53388 0.97196 0.4232 0.0
H1013 H 0.53867 0.05683 0.69844 0.0
H1014 H 0.54679 0.03505 0.6366 0.0
C1015 C 0.52938 0.95846 0.39257 0.0
C1016 C 0.5272 0.99313 0.49274 0.0
H1017 H 0.52885 0.0341 0.48127 0.0
C1018 C 0.52763 0.99197 0.54964 0.0
C1019 C 0.52822 0.00842 0.46751 0.0
C1020 C 0.52754 0.01026 0.40644 0.0
C1021 C 0.52792 0.00581 0.58233 0.0
C1022 C 0.52812 0.02116 0.55715 0.0
C1023 C 0.52878 0.02228 0.50021 0.0
C1024 C 0.5249 0.03596 0.58875 0.0
C1025 C 0.52674 0.00391 0.64335 0.0
C1026 C 0.51029 0.04412 0.58048 0.0
C1027 C 0.50569 0.05655 0.6153 0.0
C1028 C 0.51563 0.06101 0.65902 0.0
C1029 C 0.53072 0.05351 0.6653 0.0
C1030 C 0.53535 0.04107 0.63019 0.0
H1031 H 0.52433 0.99123 0.65557 0.0
H1032 H 0.53827 0.00772 0.66234 0.0
H1033 H 0.51699 0.01166 0.65994 0.0
H1034 H 0.50207 0.04033 0.54863 0.0
H1035 H 0.49404 0.0622 0.60926 0.0
H1036 H 0.9751 0.04049 0.84028 0.0
H1037 H 0.97217 0.01738 0.90124 0.0
H1038 H 0.99555 0.04414 0.02971 0.0
H1039 H 0.999 0.0671 0.96834 0.0
H1040 H 0.00926 0.01565 0.01434 0.0
H1041 H 0.94312 0.00725 0.02823 0.0
H1042 H 0.9502 0.00772 0.95924 0.0
H1043 H 0.95214 0.0254 0.0013 0.0
C1044 C 0.97937 0.04152 0.8818 0.0
C1045 C 0.98735 0.05551 0.89965 0.0
C1046 C 0.97757 0.02836 0.91671 0.0
C1047 C 0.98343 0.02914 0.9702 0.0
C1048 C 0.99088 0.04334 0.9886 0.0
H1049 H 0.97479 0.95687 0.22364 0.0
H1050 H 0.97068 0.98027 0.16438 0.0
C1051 C 0.99287 0.05642 0.95355 0.0
C1052 C 0.98344 0.01462 0.00503 0.0
H1053 H 0.95947 0.98516 0.05874 0.0
C1054 C 0.99835 0.00907 0.02443 0.0
C1055 C 0.96918 0.00613 0.01836 0.0
C1056 C 0.95274 0.01202 0.00116 0.0
C1057 C 0.99945 0.99515 0.05627 0.0
C1058 C 0.98529 0.98624 0.06755 0.0
C1059 C 0.97032 0.99191 0.04912 0.0
C1060 C 0.98592 0.97122 0.09967 0.0
C1061 C 0.01575 0.99026 0.07819 0.0
C1062 C 0.99531 0.95819 0.08178 0.0
C1063 C 0.99786 0.94497 0.11573 0.0
C1064 C 0.99078 0.94448 0.1676 0.0
C1065 C 0.98043 0.957 0.18387 0.0
C1066 C 0.97806 0.97034 0.15012 0.0
H1067 H 0.02435 0.00055 0.07844 0.0
H1068 H 0.01475 0.98546 0.12025 0.0
H1069 H 0.02091 0.98067 0.05189 0.0
H1070 H 0.00116 0.95852 0.04236 0.0
H1071 H 0.00571 0.93535 0.10198 0.0
H1072 H 0.00861 0.43323 0.60488 0.0
H1073 H 0.00625 0.45694 0.54556 0.0
H1074 H 0.97739 0.48085 0.6675 0.0
H1075 H 0.97902 0.45705 0.72525 0.0
H1076 H 0.9656 0.48733 0.57339 0.0
H1077 H 0.03152 0.49744 0.56169 0.0
H1078 H 0.02573 0.47814 0.53514 0.0
H1079 H 0.02274 0.48257 0.60623 0.0
C1080 C 0.00159 0.44348 0.61858 0.0
C1081 C 0.99405 0.44326 0.6698 0.0
C1082 C 0.00041 0.45712 0.58497 0.0
C1083 C 0.99202 0.47094 0.60258 0.0
C1084 C 0.98402 0.47045 0.65293 0.0
H1085 H 0.00669 0.5667 0.45982 0.0
H1086 H 0.00604 0.54342 0.52156 0.0
C1087 C 0.98496 0.45677 0.68597 0.0
C1088 C 0.99152 0.486 0.56928 0.0
H1089 H 0.01518 0.51381 0.50456 0.0
C1090 C 0.97647 0.49313 0.55856 0.0
C1091 C 0.00568 0.49387 0.55087 0.0
C1092 C 0.02233 0.48772 0.56454 0.0
C1093 C 0.97516 0.50771 0.52966 0.0
C1094 C 0.98927 0.51512 0.5088 0.0
C1095 C 0.00434 0.50811 0.52007 0.0
C1096 C 0.98868 0.52987 0.474 0.0
C1097 C 0.95867 0.51517 0.52318 0.0
C1098 C 0.97908 0.53016 0.42696 0.0
C1099 C 0.97916 0.54356 0.3925 0.0
C1100 C 0.98918 0.55688 0.40338 0.0
C1101 C 0.99874 0.55669 0.4506 0.0
C1102 C 0.99845 0.54334 0.48569 0.0
H1103 H 0.95048 0.51149 0.55677 0.0
H1104 H 0.9593 0.52855 0.52235 0.0
H1105 H 0.95322 0.51091 0.48449 0.0
H1106 H 0.97185 0.51979 0.41582 0.0
H1107 H 0.97185 0.54317 0.35598 0.0
H1108 H 0.808 0.77663 0.89718 0.0
H1109 H 0.78297 0.77604 0.84429 0.0
H1110 H 0.78264 0.72406 0.85211 0.0
H1111 H 0.80748 0.72457 0.9059 0.0
H1112 H 0.7736 0.76203 0.74723 0.0
H1113 H 0.73931 0.7356 0.91946 0.0
H1114 H 0.75942 0.74358 0.92729 0.0
H1115 H 0.75641 0.72379 0.89893 0.0
C1116 C 0.80276 0.76506 0.88683 0.0
C1117 C 0.80967 0.75065 0.90608 0.0
C1118 C 0.7884 0.76474 0.85679 0.0
C1119 C 0.78068 0.75003 0.84549 0.0
C1120 C 0.78813 0.73558 0.86163 0.0
H1121 H 0.69261 0.72329 0.67702 0.0
H1122 H 0.71756 0.72378 0.73041 0.0
C1123 C 0.80243 0.73588 0.89187 0.0
C1124 C 0.76462 0.74984 0.81839 0.0
H1125 H 0.72544 0.73789 0.83531 0.0
C1126 C 0.76307 0.75681 0.76658 0.0
C1127 C 0.75083 0.7431 0.84379 0.0
C1128 C 0.75148 0.73623 0.90064 0.0
C1129 C 0.7482 0.75692 0.73904 0.0
C1130 C 0.73446 0.75007 0.76429 0.0
C1131 C 0.73599 0.74312 0.81607 0.0
C1132 C 0.71847 0.74979 0.73697 0.0
C1133 C 0.74737 0.76406 0.68261 0.0
C1134 C 0.71035 0.76422 0.72492 0.0
C1135 C 0.69601 0.76397 0.69481 0.0
C1136 C 0.68955 0.74928 0.67615 0.0
C1137 C 0.69725 0.7348 0.69084 0.0
C1138 C 0.71155 0.73506 0.72116 0.0
H1139 H 0.75954 0.76563 0.66443 0.0
H1140 H 0.74004 0.7563 0.65524 0.0
H1141 H 0.74152 0.77608 0.68474 0.0
H1142 H 0.71533 0.7757 0.73758 0.0
H1143 H 0.6904 0.77534 0.68413 0.0
H1144 H 0.52641 0.54261 0.21968 0.0
H1145 H 0.52674 0.51912 0.16024 0.0
H1146 H 0.48956 0.54051 0.06085 0.0
H1147 H 0.48861 0.56386 0.12237 0.0
H1148 H 0.48269 0.51024 0.07805 0.0
H1149 H 0.54661 0.51259 0.0159 0.0
H1150 H 0.54493 0.51171 0.0885 0.0
H1151 H 0.53711 0.52893 0.05217 0.0
C1152 C 0.51848 0.54248 0.18465 0.0
C1153 C 0.50759 0.5552 0.17544 0.0
C1154 C 0.51874 0.52902 0.15042 0.0
C1155 C 0.50844 0.52809 0.10516 0.0
C1156 C 0.49771 0.54093 0.09529 0.0
H1157 H 0.52135 0.45694 0.85081 0.0
H1158 H 0.52093 0.48071 0.90876 0.0
C1159 C 0.49724 0.55433 0.13022 0.0
C1160 C 0.50837 0.51338 0.07003 0.0
H1161 H 0.53303 0.4875 0.00084 0.0
C1162 C 0.49369 0.50536 0.0607 0.0
C1163 C 0.52265 0.50703 0.04673 0.0
C1164 C 0.53866 0.51563 0.05085 0.0
C1165 C 0.49291 0.49114 0.0294 0.0
C1166 C 0.50733 0.48435 0.00845 0.0
C1167 C 0.52197 0.49247 0.01746 0.0
C1168 C 0.5075 0.46945 0.97411 0.0
C1169 C 0.47657 0.48388 0.01789 0.0
C1170 C 0.50028 0.45494 0.99146 0.0
C1171 C 0.50023 0.44127 0.95756 0.0
C1172 C 0.5078 0.44176 0.9064 0.0
C1173 C 0.51549 0.45609 0.89012 0.0
C1174 C 0.51525 0.46976 0.92331 0.0
H1175 H 0.46678 0.49293 0.02252 0.0
H1176 H 0.47597 0.47883 0.97607 0.0
H1177 H 0.47422 0.47401 0.04734 0.0
H1178 H 0.49466 0.45416 0.03112 0.0
H1179 H 0.49427 0.43038 0.9713 0.0
H1180 H 0.81149 0.22758 0.18009 0.0
H1181 H 0.78619 0.22616 0.23146 0.0
H1182 H 0.78311 0.27809 0.231 0.0
H1183 H 0.80827 0.27962 0.1792 0.0
H1184 H 0.7758 0.2394 0.33151 0.0
H1185 H 0.74077 0.26413 0.15799 0.0
H1186 H 0.76126 0.25707 0.15087 0.0
H1187 H 0.75728 0.27662 0.17961 0.0
C1188 C 0.80559 0.23871 0.19181 0.0
C1189 C 0.81185 0.25371 0.17528 0.0
C1190 C 0.79109 0.23788 0.22095 0.0
C1191 C 0.78255 0.252 0.23388 0.0
C1192 C 0.78928 0.26702 0.22031 0.0
H1193 H 0.69201 0.27398 0.39347 0.0
H1194 H 0.71699 0.27444 0.34034 0.0
C1195 C 0.80376 0.26787 0.19117 0.0
C1196 C 0.76639 0.25103 0.25998 0.0
H1197 H 0.72665 0.2606 0.2411 0.0
C1198 C 0.76504 0.24396 0.31167 0.0
C1199 C 0.75234 0.25694 0.23394 0.0
C1200 C 0.75288 0.26399 0.17734 0.0
C1201 C 0.7501 0.24301 0.33863 0.0
C1202 C 0.73606 0.249 0.31269 0.0
C1203 C 0.7374 0.25599 0.26088 0.0
C1204 C 0.71997 0.2485 0.33949 0.0
C1205 C 0.74957 0.23602 0.39532 0.0
C1206 C 0.71294 0.23374 0.35451 0.0
C1207 C 0.69862 0.23344 0.38473 0.0
C1208 C 0.69102 0.2479 0.40026 0.0
C1209 C 0.69754 0.26262 0.38213 0.0
C1210 C 0.71186 0.26291 0.35194 0.0
H1211 H 0.76172 0.23563 0.41433 0.0
H1212 H 0.74142 0.24314 0.42195 0.0
H1213 H 0.74489 0.22348 0.39332 0.0
H1214 H 0.71878 0.22246 0.34422 0.0
H1215 H 0.69391 0.2219 0.39797 0.0
H1216 H 0.31316 0.26201 0.37989 0.0
H1217 H 0.29003 0.26102 0.31766 0.0
H1218 H 0.27008 0.22133 0.40917 0.0
H1219 H 0.29334 0.22184 0.46977 0.0
H1220 H 0.2656 0.2163 0.30538 0.0
H1221 H 0.24633 0.27878 0.35233 0.0
H1222 H 0.26633 0.27786 0.3247 0.0
H1223 H 0.26212 0.26874 0.3897 0.0
C1224 C 0.30395 0.25293 0.38616 0.0
C1225 C 0.30506 0.24205 0.42988 0.0
C1226 C 0.29062 0.2525 0.351 0.0
C1227 C 0.27803 0.2414 0.35957 0.0
C1228 C 0.27952 0.2301 0.40184 0.0
H1229 H 0.18098 0.25214 0.22175 0.0
H1230 H 0.20414 0.25048 0.28399 0.0
C1231 C 0.29289 0.23039 0.43647 0.0
C1232 C 0.2632 0.24151 0.32519 0.0
H1233 H 0.23239 0.26552 0.28054 0.0
C1234 C 0.25832 0.22707 0.30013 0.0
C1235 C 0.25343 0.25544 0.31927 0.0
C1236 C 0.2572 0.27103 0.34838 0.0
C1237 C 0.24418 0.22622 0.26873 0.0
C1238 C 0.23487 0.24034 0.2605 0.0
C1239 C 0.23957 0.25472 0.28635 0.0
C1240 C 0.22052 0.24059 0.22393 0.0
C1241 C 0.23923 0.21007 0.24572 0.0
C1242 C 0.22197 0.23565 0.16952 0.0
C1243 C 0.20876 0.23635 0.13437 0.0
C1244 C 0.19381 0.24234 0.15238 0.0
C1245 C 0.19231 0.24736 0.2068 0.0
C1246 C 0.20555 0.24647 0.24228 0.0
H1247 H 0.24412 0.19997 0.27046 0.0
H1248 H 0.22591 0.20885 0.24382 0.0
H1249 H 0.24415 0.20881 0.20393 0.0
H1250 H 0.23346 0.23154 0.15374 0.0
H1251 H 0.21042 0.23259 0.09251 0.0
H1252 H 0.31009 0.77393 0.68803 0.0
H1253 H 0.28523 0.77335 0.74174 0.0
H1254 H 0.28342 0.72155 0.72628 0.0
H1255 H 0.30835 0.72202 0.67304 0.0
H1256 H 0.25584 0.76185 0.70176 0.0
H1257 H 0.27371 0.72839 0.88788 0.0
H1258 H 0.28828 0.73732 0.84228 0.0
H1259 H 0.27885 0.71844 0.82526 0.0
C1260 C 0.30464 0.76238 0.69727 0.0
C1261 C 0.31124 0.74801 0.6764 0.0
C1262 C 0.29037 0.76207 0.7277 0.0
C1263 C 0.28248 0.74741 0.73827 0.0
C1264 C 0.28941 0.73299 0.71944 0.0
H1265 H 0.19144 0.72218 0.89425 0.0
H1266 H 0.2162 0.72185 0.83985 0.0
C1267 C 0.30368 0.73328 0.68895 0.0
C1268 C 0.2664 0.74734 0.76511 0.0
H1269 H 0.24571 0.7329 0.87505 0.0
C1270 C 0.25364 0.75559 0.73981 0.0
C1271 C 0.2635 0.73904 0.81446 0.0
C1272 C 0.27682 0.7304 0.84441 0.0
C1273 C 0.23803 0.75564 0.76218 0.0
C1274 C 0.23515 0.74745 0.81177 0.0
C1275 C 0.24789 0.73912 0.83692 0.0
C1276 C 0.21917 0.74779 0.83935 0.0
C1277 C 0.22472 0.7642 0.73189 0.0
C1278 C 0.21241 0.76249 0.85632 0.0
C1279 C 0.1982 0.76273 0.88704 0.0
C1280 C 0.19052 0.74824 0.90188 0.0
C1281 C 0.19698 0.73356 0.88317 0.0
C1282 C 0.2112 0.73334 0.85237 0.0
H1283 H 0.22764 0.76559 0.688 0.0
H1284 H 0.21311 0.7576 0.73563 0.0
H1285 H 0.2231 0.77645 0.74934 0.0
H1286 H 0.21847 0.77379 0.84775 0.0
H1287 H 0.19364 0.77423 0.90127 0.0
H1288 H 0.47162 0.955 0.20869 0.0
H1289 H 0.47123 0.97789 0.14658 0.0
H1290 H 0.51227 0.95838 0.06104 0.0
H1291 H 0.51309 0.9356 0.1248 0.0
H1292 H 0.51658 0.98954 0.08098 0.0
H1293 H 0.45561 0.98187 0.99394 0.0
H1294 H 0.45495 0.98298 0.06674 0.0
H1295 H 0.46517 0.96639 0.03413 0.0
C1296 C 0.48041 0.95539 0.17608 0.0
C1297 C 0.49233 0.94339 0.17147 0.0
C1298 C 0.48012 0.9685 0.14035 0.0
C1299 C 0.49154 0.9698 0.0984 0.0
C1300 C 0.50327 0.95764 0.09291 0.0
H1301 H 0.48355 0.03836 0.83419 0.0
H1302 H 0.48369 0.01487 0.89354 0.0
C1303 C 0.50367 0.94456 0.12913 0.0
C1304 C 0.49174 0.98428 0.06243 0.0
H1305 H 0.46793 0.00768 0.98097 0.0
C1306 C 0.50598 0.99343 0.05872 0.0
C1307 C 0.47797 0.98933 0.0329 0.0
C1308 C 0.46263 0.97953 0.03163 0.0
C1309 C 0.50677 0.00753 0.02692 0.0
C1310 C 0.49278 0.01297 0.99935 0.0
C1311 C 0.47861 0.00371 0.00267 0.0
C1312 C 0.49275 0.02763 0.96411 0.0
C1313 C 0.52273 0.01617 0.02215 0.0
C1314 C 0.49761 0.04283 0.9839 0.0
C1315 C 0.49777 0.05637 0.94948 0.0
C1316 C 0.49273 0.05499 0.89506 0.0
C1317 C 0.48745 0.03988 0.87596 0.0
C1318 C 0.48753 0.02639 0.90993 0.0
H1319 H 0.533 0.0081 0.0323 0.0
H1320 H 0.52458 0.02096 0.98041 0.0
H1321 H 0.52296 0.02644 0.05115 0.0
H1322 H 0.50125 0.04426 0.02593 0.0
H1323 H 0.50182 0.06786 0.96541 0.0
H1324 H 0.98923 0.06683 0.60778 0.0
H1325 H 0.991 0.04279 0.5497 0.0
H1326 H 0.02615 0.02221 0.65902 0.0
H1327 H 0.02505 0.04641 0.71516 0.0
H1328 H 0.03465 0.01571 0.56155 0.0
H1329 H 0.96982 0.00069 0.57851 0.0
H1330 H 0.97296 0.02015 0.54855 0.0
H1331 H 0.979 0.01656 0.61797 0.0
C1332 C 0.99748 0.05725 0.61888 0.0
C1333 C 0.00698 0.05853 0.66608 0.0
C1334 C 0.99833 0.04341 0.58609 0.0
C1335 C 0.00837 0.0304 0.60068 0.0
C1336 C 0.01823 0.03196 0.64686 0.0
H1337 H 0.99631 0.93298 0.46514 0.0
H1338 H 0.99679 0.95651 0.52609 0.0
C1339 C 0.0176 0.04587 0.67896 0.0
C1340 C 0.00875 0.01515 0.56827 0.0
H1341 H 0.98502 0.98541 0.51439 0.0
C1342 C 0.02378 0.00907 0.55154 0.0
C1343 C 0.99464 0.00616 0.55617 0.0
C1344 C 0.97822 0.01112 0.57675 0.0
C1345 C 0.02509 0.9945 0.52258 0.0
C1346 C 0.01091 0.98602 0.50766 0.0
C1347 C 0.9959 0.99193 0.52519 0.0
C1348 C 0.01134 0.97132 0.4725 0.0
C1349 C 0.04173 0.98821 0.50957 0.0
C1350 C 0.01932 0.97172 0.42212 0.0
C1351 C 0.01937 0.95823 0.38809 0.0
C1352 C 0.01105 0.94409 0.40276 0.0
C1353 C 0.00294 0.94365 0.45296 0.0
C1354 C 0.00314 0.95713 0.48762 0.0
H1355 H 0.05073 0.99251 0.53981 0.0
H1356 H 0.04203 0.97482 0.5088 0.0
H1357 H 0.04551 0.9928 0.4691 0.0
H1358 H 0.02524 0.98263 0.40836 0.0
H1359 H 0.02549 0.9591 0.34925 0.0
loop_
_geom_bond_atom_site_label_1
_geom_bond_atom_site_label_2
_geom_bond_distance
_geom_bond_site_symmetry_2
_ccdc_geom_bond_type
In0 O1 2.294 1_455 S
In0 O2 2.326 . S
In0 O6 2.266 1_455 S
In0 O7 2.326 1_455 S
In0 O8 2.266 . S
In0 O9 2.326 . S
In0 O11 2.294 . S
In0 O12 2.326 1_455 S
O1 In0 2.294 1_655 S
O1 C10 1.240 1_655 S
O2 In0 2.326 . S
O2 C10 1.252 . S
C3 O6 1.252 . S
C3 O7 1.260 . S
C4 O11 1.240 1_655 S
C4 O12 1.252 . S
C5 O8 1.252 . S
C5 O9 1.260 . S
O6 In0 2.266 1_655 S
O6 C3 1.252 . S
O7 In0 2.326 1_655 S
O7 C3 1.260 . S
O8 In0 2.266 . S
O8 C5 1.252 . S
O9 In0 2.326 . S
O9 C5 1.260 . S
C10 O1 1.240 1_455 S
C10 O2 1.252 . S
O11 In0 2.294 . S
O11 C4 1.240 1_455 S
O12 In0 2.326 1_655 S
O12 C4 1.252 . S
In13 O14 2.294 . S
In13 O15 2.326 . S
In13 O19 2.266 . S
In13 O20 2.326 . S
In13 O21 2.266 . S
In13 O22 2.326 . S
In13 O24 2.294 . S
In13 O25 2.326 . S
O14 In13 2.294 . S
O14 C23 1.240 . S
O15 In13 2.326 . S
O15 C23 1.252 . S
C16 O19 1.252 . S
C16 O20 1.260 . S
C17 O24 1.240 . S
C17 O25 1.252 . S
C18 O21 1.252 . S
C18 O22 1.260 . S
O19 In13 2.266 . S
O19 C16 1.252 . S
O20 In13 2.326 . S
O20 C16 1.260 . S
O21 In13 2.266 . S
O21 C18 1.252 . S
O22 In13 2.326 . S
O22 C18 1.260 . S
C23 O14 1.240 . S
C23 O15 1.252 . S
O24 In13 2.294 . S
O24 C17 1.240 . S
O25 In13 2.326 . S
O25 C17 1.252 . S
In26 O27 2.294 . S
In26 O28 2.326 . S
In26 O32 2.266 . S
In26 O33 2.326 . S
In26 O34 2.266 . S
In26 O35 2.326 . S
In26 O37 2.294 . S
In26 O38 2.326 . S
O27 In26 2.294 . S
O27 C36 1.240 . S
O28 In26 2.326 . S
O28 C36 1.252 . S
C29 O32 1.252 . S
C29 O33 1.260 . S
C30 O37 1.240 . S
C30 O38 1.252 . S
C31 O34 1.252 . S
C31 O35 1.260 . S
O32 In26 2.266 . S
O32 C29 1.252 . S
O33 In26 2.326 . S
O33 C29 1.260 . S
O34 In26 2.266 . S
O34 C31 1.252 . S
O35 In26 2.326 . S
O35 C31 1.260 . S
C36 O27 1.240 . S
C36 O28 1.252 . S
O37 In26 2.294 . S
O37 C30 1.240 . S
O38 In26 2.326 . S
O38 C30 1.252 . S
In39 O40 2.293 1_554 S
In39 O41 2.326 1_554 S
In39 O45 2.266 1_554 S
In39 O46 2.326 . S
In39 O47 2.266 . S
In39 O48 2.325 1_554 S
In39 O50 2.295 . S
In39 O51 2.327 . S
O40 In39 2.293 1_556 S
O40 C49 1.240 . S
O41 In39 2.326 1_556 S
O41 C49 1.252 . S
C42 O45 1.252 1_554 S
C42 O46 1.260 . S
C43 O50 1.240 . S
C43 O51 1.252 . S
C44 O47 1.252 1_556 S
C44 O48 1.260 . S
O45 In39 2.266 1_556 S
O45 C42 1.252 1_556 S
O46 In39 2.326 . S
O46 C42 1.260 . S
O47 In39 2.266 . S
O47 C44 1.252 1_554 S
O48 In39 2.325 1_556 S
O48 C44 1.260 . S
C49 O40 1.240 . S
C49 O41 1.252 . S
O50 In39 2.295 . S
O50 C43 1.240 . S
O51 In39 2.327 . S
O51 C43 1.252 . S
In52 O53 2.294 . S
In52 O54 2.326 1_455 S
In52 O58 2.266 . S
In52 O59 2.326 . S
In52 O60 2.266 1_455 S
In52 O61 2.326 1_455 S
In52 O63 2.294 1_455 S
In52 O64 2.326 . S
O53 In52 2.294 . S
O53 C62 1.240 1_455 S
O54 In52 2.326 1_655 S
O54 C62 1.252 . S
C55 O58 1.252 . S
C55 O59 1.260 . S
C56 O63 1.240 1_455 S
C56 O64 1.252 . S
C57 O60 1.252 . S
C57 O61 1.260 . S
O58 In52 2.266 . S
O58 C55 1.252 . S
O59 In52 2.326 . S
O59 C55 1.260 . S
O60 In52 2.266 1_655 S
O60 C57 1.252 . S
O61 In52 2.326 1_655 S
O61 C57 1.260 . S
C62 O53 1.240 1_655 S
C62 O54 1.252 . S
O63 In52 2.294 1_655 S
O63 C56 1.240 1_655 S
O64 In52 2.326 . S
O64 C56 1.252 . S
In65 O66 2.294 . S
In65 O67 2.326 . S
In65 O71 2.266 . S
In65 O72 2.326 . S
In65 O73 2.266 . S
In65 O74 2.326 . S
In65 O76 2.294 . S
In65 O77 2.326 . S
O66 In65 2.294 . S
O66 C75 1.240 . S
O67 In65 2.326 . S
O67 C75 1.252 . S
C68 O71 1.252 . S
C68 O72 1.260 . S
C69 O76 1.240 1_556 S
C69 O77 1.252 1_556 S
C70 O73 1.252 . S
C70 O74 1.260 . S
O71 In65 2.266 . S
O71 C68 1.252 . S
O72 In65 2.326 . S
O72 C68 1.260 . S
O73 In65 2.266 . S
O73 C70 1.252 . S
O74 In65 2.326 . S
O74 C70 1.260 . S
C75 O66 1.240 . S
C75 O67 1.252 . S
O76 In65 2.294 . S
O76 C69 1.240 1_554 S
O77 In65 2.326 . S
O77 C69 1.252 1_554 S
In78 O79 2.294 . S
In78 O80 2.326 . S
In78 O84 2.266 . S
In78 O85 2.326 . S
In78 O86 2.266 . S
In78 O87 2.326 . S
In78 O89 2.294 . S
In78 O90 2.326 . S
O79 In78 2.294 . S
O79 C88 1.240 . S
O80 In78 2.326 . S
O80 C88 1.252 . S
C81 O84 1.252 . S
C81 O85 1.260 . S
C82 O89 1.240 . S
C82 O90 1.252 . S
C83 O86 1.252 . S
C83 O87 1.260 . S
O84 In78 2.266 . S
O84 C81 1.252 . S
O85 In78 2.326 . S
O85 C81 1.260 . S
O86 In78 2.266 . S
O86 C83 1.252 . S
O87 In78 2.326 . S
O87 C83 1.260 . S
C88 O79 1.240 . S
C88 O80 1.252 . S
O89 In78 2.294 . S
O89 C82 1.240 . S
O90 In78 2.326 . S
O90 C82 1.252 . S
In91 O92 2.294 . S
In91 O93 2.326 . S
In91 O97 2.266 . S
In91 O98 2.326 . S
In91 O99 2.266 . S
In91 O100 2.326 . S
In91 O102 2.294 . S
In91 O103 2.326 . S
O92 In91 2.294 . S
O92 C101 1.240 . S
O93 In91 2.326 . S
O93 C101 1.252 . S
C94 O97 1.252 . S
C94 O98 1.260 . S
C95 O102 1.240 . S
C95 O103 1.252 . S
C96 O99 1.252 . S
C96 O100 1.260 . S
O97 In91 2.266 . S
O97 C94 1.252 . S
O98 In91 2.326 . S
O98 C94 1.260 . S
O99 In91 2.266 . S
O99 C96 1.252 . S
O100 In91 2.326 . S
O100 C96 1.260 . S
C101 O92 1.240 . S
C101 O93 1.252 . S
O102 In91 2.294 . S
O102 C95 1.240 . S
O103 In91 2.326 . S
O103 C95 1.252 . S
In104 O105 2.294 . S
In104 O106 2.326 . S
In104 O110 2.266 . S
In104 O111 2.326 . S
In104 O112 2.266 . S
In104 O113 2.326 . S
In104 O115 2.294 . S
In104 O116 2.326 . S
O105 In104 2.294 . S
O105 C114 1.240 . S
O106 In104 2.326 . S
O106 C114 1.252 . S
C107 O110 1.252 . S
C107 O111 1.260 . S
C108 O115 1.240 . S
C108 O116 1.252 . S
C109 O112 1.252 . S
C109 O113 1.260 . S
O110 In104 2.266 . S
O110 C107 1.252 . S
O111 In104 2.326 . S
O111 C107 1.260 . S
O112 In104 2.266 . S
O112 C109 1.252 . S
O113 In104 2.326 . S
O113 C109 1.260 . S
C114 O105 1.240 . S
C114 O106 1.252 . S
O115 In104 2.294 . S
O115 C108 1.240 . S
O116 In104 2.326 . S
O116 C108 1.252 . S
In117 O118 2.294 . S
In117 O119 2.326 . S
In117 O123 2.266 . S
In117 O124 2.326 . S
In117 O125 2.266 . S
In117 O126 2.326 . S
In117 O128 2.294 . S
In117 O129 2.326 . S
O118 In117 2.294 . S
O118 C127 1.240 1_554 S
O119 In117 2.326 . S
O119 C127 1.252 1_554 S
C120 O123 1.252 . S
C120 O124 1.260 . S
C121 O128 1.240 . S
C121 O129 1.252 . S
C122 O125 1.252 . S
C122 O126 1.260 . S
O123 In117 2.266 . S
O123 C120 1.252 . S
O124 In117 2.326 . S
O124 C120 1.260 . S
O125 In117 2.266 . S
O125 C122 1.252 . S
O126 In117 2.326 . S
O126 C122 1.260 . S
C127 O118 1.240 1_556 S
C127 O119 1.252 1_556 S
O128 In117 2.294 . S
O128 C121 1.240 . S
O129 In117 2.326 . S
O129 C121 1.252 . S
In130 O131 2.295 . S
In130 O132 2.327 . S
In130 O136 2.266 . S
In130 O137 2.325 1_554 S
In130 O138 2.266 1_554 S
In130 O139 2.326 . S
In130 O141 2.293 1_554 S
In130 O142 2.326 1_554 S
O131 In130 2.295 . S
O131 C140 1.240 . S
O132 In130 2.327 . S
O132 C140 1.252 . S
C133 O136 1.252 1_556 S
C133 O137 1.260 . S
C134 O141 1.240 . S
C134 O142 1.252 . S
C135 O138 1.252 1_554 S
C135 O139 1.260 . S
O136 In130 2.266 . S
O136 C133 1.252 1_554 S
O137 In130 2.325 1_556 S
O137 C133 1.260 . S
O138 In130 2.266 1_556 S
O138 C135 1.252 1_556 S
O139 In130 2.326 . S
O139 C135 1.260 . S
C140 O131 1.240 . S
C140 O132 1.252 . S
O141 In130 2.293 1_556 S
O141 C134 1.240 . S
O142 In130 2.326 1_556 S
O142 C134 1.252 . S
In143 O144 2.294 . S
In143 O145 2.326 . S
In143 O149 2.266 . S
In143 O150 2.326 . S
In143 O151 2.266 . S
In143 O152 2.326 . S
In143 O154 2.294 . S
In143 O155 2.326 . S
O144 In143 2.294 . S
O144 C153 1.240 . S
O145 In143 2.326 . S
O145 C153 1.252 . S
C146 O149 1.252 . S
C146 O150 1.260 . S
C147 O154 1.240 . S
C147 O155 1.252 . S
C148 O151 1.252 . S
C148 O152 1.260 . S
O149 In143 2.266 . S
O149 C146 1.252 . S
O150 In143 2.326 . S
O150 C146 1.260 . S
O151 In143 2.266 . S
O151 C148 1.252 . S
O152 In143 2.326 . S
O152 C148 1.260 . S
C153 O144 1.240 . S
C153 O145 1.252 . S
O154 In143 2.294 . S
O154 C147 1.240 . S
O155 In143 2.326 . S
O155 C147 1.252 . S
In156 O157 2.294 . S
In156 O158 2.326 . S
In156 O162 2.266 . S
In156 O163 2.326 . S
In156 O164 2.266 . S
In156 O165 2.326 . S
In156 O167 2.294 . S
In156 O168 2.326 . S
O157 In156 2.294 . S
O157 C166 1.240 . S
O158 In156 2.326 . S
O158 C166 1.252 . S
C159 O162 1.252 . S
C159 O163 1.260 . S
C160 O167 1.240 . S
C160 O168 1.252 . S
C161 O164 1.252 . S
C161 O165 1.260 . S
O162 In156 2.266 . S
O162 C159 1.252 . S
O163 In156 2.326 . S
O163 C159 1.260 . S
O164 In156 2.266 . S
O164 C161 1.252 . S
O165 In156 2.326 . S
O165 C161 1.260 . S
C166 O157 1.240 . S
C166 O158 1.252 . S
O167 In156 2.294 . S
O167 C160 1.240 . S
O168 In156 2.326 . S
O168 C160 1.252 . S
In169 O170 2.294 1_455 S
In169 O171 2.326 . S
In169 O175 2.266 1_455 S
In169 O176 2.326 1_455 S
In169 O177 2.266 . S
In169 O178 2.326 . S
In169 O180 2.294 . S
In169 O181 2.326 1_455 S
O170 In169 2.294 1_655 S
O170 C179 1.240 1_655 S
O171 In169 2.326 . S
O171 C179 1.252 . S
C172 O175 1.252 . S
C172 O176 1.260 . S
C173 O180 1.240 1_655 S
C173 O181 1.252 . S
C174 O177 1.252 . S
C174 O178 1.260 . S
O175 In169 2.266 1_655 S
O175 C172 1.252 . S
O176 In169 2.326 1_655 S
O176 C172 1.260 . S
O177 In169 2.266 . S
O177 C174 1.252 . S
O178 In169 2.326 . S
O178 C174 1.260 . S
C179 O170 1.240 1_455 S
C179 O171 1.252 . S
O180 In169 2.294 . S
O180 C173 1.240 1_455 S
O181 In169 2.326 1_655 S
O181 C173 1.252 . S
In182 O183 2.294 . S
In182 O184 2.326 . S
In182 O188 2.266 . S
In182 O189 2.326 . S
In182 O190 2.266 . S
In182 O191 2.326 . S
In182 O193 2.294 . S
In182 O194 2.326 . S
O183 In182 2.294 . S
O183 C192 1.240 . S
O184 In182 2.326 . S
O184 C192 1.252 . S
C185 O188 1.252 . S
C185 O189 1.260 . S
C186 O193 1.240 . S
C186 O194 1.252 . S
C187 O190 1.252 . S
C187 O191 1.260 . S
O188 In182 2.266 . S
O188 C185 1.252 . S
O189 In182 2.326 . S
O189 C185 1.260 . S
O190 In182 2.266 . S
O190 C187 1.252 . S
O191 In182 2.326 . S
O191 C187 1.260 . S
C192 O183 1.240 . S
C192 O184 1.252 . S
O193 In182 2.294 . S
O193 C186 1.240 . S
O194 In182 2.326 . S
O194 C186 1.252 . S
In195 O196 2.294 . S
In195 O197 2.326 1_455 S
In195 O201 2.266 . S
In195 O202 2.326 . S
In195 O203 2.266 1_455 S
In195 O204 2.326 1_455 S
In195 O206 2.294 1_455 S
In195 O207 2.326 . S
O196 In195 2.294 . S
O196 C205 1.240 1_455 S
O197 In195 2.326 1_655 S
O197 C205 1.252 . S
C198 O201 1.252 . S
C198 O202 1.260 . S
C199 O206 1.240 1_455 S
C199 O207 1.252 . S
C200 O203 1.252 . S
C200 O204 1.260 . S
O201 In195 2.266 . S
O201 C198 1.252 . S
O202 In195 2.326 . S
O202 C198 1.260 . S
O203 In195 2.266 1_655 S
O203 C200 1.252 . S
O204 In195 2.326 1_655 S
O204 C200 1.260 . S
C205 O196 1.240 1_655 S
C205 O197 1.252 . S
O206 In195 2.294 1_655 S
O206 C199 1.240 1_655 S
O207 In195 2.326 . S
O207 C199 1.252 . S
H208 C216 0.929 . S
H209 C218 0.930 . S
H210 C220 0.930 . S
H211 C223 0.929 . S
H212 C226 0.930 . S
H213 C228 0.960 . S
H214 C228 0.960 . S
H215 C228 0.960 . S
C216 H208 0.929 . S
C216 C217 1.377 . S
C216 C218 1.384 . S
C217 C216 1.377 . S
C217 C223 1.390 . S
C218 H209 0.930 . S
C218 C216 1.384 . S
C218 C219 1.372 . S
C219 C218 1.372 . S
C219 C220 1.400 . S
C219 C224 1.490 . S
C220 H210 0.930 . S
C220 C219 1.400 . S
C220 C223 1.386 . S
H221 C237 0.930 . S
H222 C238 0.931 . S
C223 H211 0.929 . S
C223 C217 1.390 . S
C223 C220 1.386 . S
C224 C219 1.490 . S
C224 C226 1.395 . S
C224 C227 1.403 . S
H225 C231 0.930 . S
C226 H212 0.930 . S
C226 C224 1.395 . S
C226 C229 1.403 . S
C227 C224 1.403 . S
C227 C228 1.524 . S
C227 C231 1.400 . S
C228 H213 0.960 . S
C228 H214 0.960 . S
C228 H215 0.960 . S
C228 C227 1.524 . S
C229 C226 1.403 . S
C229 C230 1.392 . S
C229 C233 1.495 . S
C230 C229 1.392 . S
C230 C231 1.385 . S
C230 C232 1.478 . S
C231 H225 0.930 . S
C231 C227 1.400 . S
C231 C230 1.385 . S
C232 C230 1.478 . S
C232 C234 1.381 . S
C232 C238 1.383 . S
C233 C229 1.495 . S
C233 H239 0.959 . S
C233 H240 0.961 . S
C233 H241 0.960 . S
C234 C232 1.381 . S
C234 C235 1.394 . S
C234 H242 0.930 . S
C235 C234 1.394 . S
C235 C236 1.383 . S
C235 H243 0.929 . S
C236 C235 1.383 . S
C236 C237 1.377 . S
C237 H221 0.930 . S
C237 C236 1.377 . S
C237 C238 1.379 . S
C238 H222 0.931 . S
C238 C232 1.383 . S
C238 C237 1.379 . S
H239 C233 0.959 . S
H240 C233 0.961 . S
H241 C233 0.960 . S
H242 C234 0.930 . S
H243 C235 0.929 . S
H244 C252 0.929 . S
H245 C254 0.930 . S
H246 C256 0.930 . S
H247 C259 0.929 . S
H248 C262 0.930 . S
H249 C264 0.960 . S
H250 C264 0.960 . S
H251 C264 0.960 . S
C252 H244 0.929 . S
C252 C253 1.377 . S
C252 C254 1.384 . S
C253 C252 1.377 . S
C253 C259 1.390 . S
C254 H245 0.930 . S
C254 C252 1.384 . S
C254 C255 1.372 . S
C255 C254 1.372 . S
C255 C256 1.400 . S
C255 C260 1.490 . S
C256 H246 0.930 . S
C256 C255 1.400 . S
C256 C259 1.386 . S
H257 C273 0.930 . S
H258 C274 0.931 . S
C259 H247 0.929 . S
C259 C253 1.390 . S
C259 C256 1.386 . S
C260 C255 1.490 . S
C260 C262 1.395 . S
C260 C263 1.403 . S
H261 C267 0.930 . S
C262 H248 0.930 . S
C262 C260 1.395 . S
C262 C265 1.403 . S
C263 C260 1.403 . S
C263 C264 1.524 . S
C263 C267 1.400 . S
C264 H249 0.960 . S
C264 H250 0.960 . S
C264 H251 0.960 . S
C264 C263 1.524 . S
C265 C262 1.403 . S
C265 C266 1.392 . S
C265 C269 1.495 . S
C266 C265 1.392 . S
C266 C267 1.385 . S
C266 C268 1.478 . S
C267 H261 0.930 . S
C267 C263 1.400 . S
C267 C266 1.385 . S
C268 C266 1.478 . S
C268 C270 1.381 . S
C268 C274 1.383 . S
C269 C265 1.495 . S
C269 H275 0.959 . S
C269 H276 0.961 . S
C269 H277 0.960 . S
C270 C268 1.381 . S
C270 C271 1.394 . S
C270 H278 0.930 . S
C271 C270 1.394 . S
C271 C272 1.383 . S
C271 H279 0.929 . S
C272 C271 1.383 . S
C272 C273 1.377 . S
C273 H257 0.930 . S
C273 C272 1.377 . S
C273 C274 1.379 . S
C274 H258 0.931 . S
C274 C268 1.383 . S
C274 C273 1.379 . S
H275 C269 0.959 . S
H276 C269 0.961 . S
H277 C269 0.960 . S
H278 C270 0.930 . S
H279 C271 0.929 . S
H280 C288 0.929 . S
H281 C290 0.930 . S
H282 C292 0.930 . S
H283 C295 0.929 . S
H284 C298 0.930 . S
H285 C300 0.960 . S
H286 C300 0.960 . S
H287 C300 0.960 . S
C288 H280 0.929 . S
C288 C289 1.377 . S
C288 C290 1.384 . S
C289 C288 1.377 . S
C289 C295 1.390 . S
C290 H281 0.930 . S
C290 C288 1.384 . S
C290 C291 1.372 . S
C291 C290 1.372 . S
C291 C292 1.400 . S
C291 C296 1.490 . S
C292 H282 0.930 . S
C292 C291 1.400 . S
C292 C295 1.386 . S
H293 C309 0.930 . S
H294 C310 0.931 . S
C295 H283 0.929 . S
C295 C289 1.390 . S
C295 C292 1.386 . S
C296 C291 1.490 . S
C296 C298 1.395 . S
C296 C299 1.403 . S
H297 C303 0.930 . S
C298 H284 0.930 . S
C298 C296 1.395 . S
C298 C301 1.403 . S
C299 C296 1.403 . S
C299 C300 1.524 . S
C299 C303 1.400 . S
C300 H285 0.960 . S
C300 H286 0.960 . S
C300 H287 0.960 . S
C300 C299 1.524 . S
C301 C298 1.403 . S
C301 C302 1.392 . S
C301 C305 1.495 . S
C302 C301 1.392 . S
C302 C303 1.385 . S
C302 C304 1.478 . S
C303 H297 0.930 . S
C303 C299 1.400 . S
C303 C302 1.385 . S
C304 C302 1.478 . S
C304 C306 1.381 . S
C304 C310 1.383 . S
C305 C301 1.495 . S
C305 H311 0.959 . S
C305 H312 0.961 . S
C305 H313 0.960 . S
C306 C304 1.381 . S
C306 C307 1.394 . S
C306 H314 0.930 . S
C307 C306 1.394 . S
C307 C308 1.383 . S
C307 H315 0.929 . S
C308 C307 1.383 . S
C308 C309 1.377 . S
C309 H293 0.930 . S
C309 C308 1.377 . S
C309 C310 1.379 . S
C310 H294 0.931 . S
C310 C304 1.383 . S
C310 C309 1.379 . S
H311 C305 0.959 . S
H312 C305 0.961 . S
H313 C305 0.960 . S
H314 C306 0.930 . S
H315 C307 0.929 . S
H316 C324 0.929 . S
H317 C326 0.930 . S
H318 C328 0.930 . S
H319 C331 0.929 1_554 S
H320 C334 0.930 . S
H321 C336 0.960 . S
H322 C336 0.960 . S
H323 C336 0.960 . S
C324 H316 0.929 . S
C324 C325 1.377 . S
C324 C326 1.384 . S
C325 C324 1.377 . S
C325 C331 1.390 . S
C326 H317 0.930 . S
C326 C324 1.384 . S
C326 C327 1.372 . S
C327 C326 1.372 . S
C327 C328 1.400 . S
C327 C332 1.490 . S
C328 H318 0.930 . S
C328 C327 1.400 . S
C328 C331 1.386 . S
H329 C345 0.930 . S
H330 C346 0.931 . S
C331 H319 0.929 1_556 S
C331 C325 1.390 . S
C331 C328 1.386 . S
C332 C327 1.490 . S
C332 C334 1.395 . S
C332 C335 1.403 . S
H333 C339 0.930 . S
C334 H320 0.930 . S
C334 C332 1.395 . S
C334 C337 1.403 . S
C335 C332 1.403 . S
C335 C336 1.524 . S
C335 C339 1.400 . S
C336 H321 0.960 . S
C336 H322 0.960 . S
C336 H323 0.960 . S
C336 C335 1.524 . S
C337 C334 1.403 . S
C337 C338 1.392 . S
C337 C341 1.495 . S
C338 C337 1.392 . S
C338 C339 1.385 . S
C338 C340 1.478 . S
C339 H333 0.930 . S
C339 C335 1.400 . S
C339 C338 1.385 . S
C340 C338 1.478 . S
C340 C342 1.381 . S
C340 C346 1.383 . S
C341 C337 1.495 . S
C341 H347 0.959 . S
C341 H348 0.961 . S
C341 H349 0.960 . S
C342 C340 1.381 . S
C342 C343 1.394 . S
C342 H350 0.930 . S
C343 C342 1.394 . S
C343 C344 1.383 . S
C343 H351 0.929 . S
C344 C343 1.383 . S
C344 C345 1.377 . S
C345 H329 0.930 . S
C345 C344 1.377 . S
C345 C346 1.379 . S
C346 H330 0.931 . S
C346 C340 1.383 . S
C346 C345 1.379 . S
H347 C341 0.959 . S
H348 C341 0.961 . S
H349 C341 0.960 . S
H350 C342 0.930 . S
H351 C343 0.929 . S
H352 C360 0.929 . S
H353 C362 0.930 . S
H354 C364 0.930 . S
H355 C367 0.929 . S
H356 C370 0.930 . S
H357 C372 0.960 1_554 S
H358 C372 0.960 1_554 S
H359 C372 0.960 . S
C360 H352 0.929 . S
C360 C361 1.377 . S
C360 C362 1.384 . S
C361 C360 1.377 . S
C361 C367 1.390 . S
C362 H353 0.930 . S
C362 C360 1.384 . S
C362 C363 1.372 . S
C363 C362 1.372 . S
C363 C364 1.400 . S
C363 C368 1.490 . S
C364 H354 0.930 . S
C364 C363 1.400 . S
C364 C367 1.386 . S
H365 C381 0.930 . S
H366 C382 0.931 . S
C367 H355 0.929 . S
C367 C361 1.390 . S
C367 C364 1.386 . S
C368 C363 1.490 . S
C368 C370 1.395 . S
C368 C371 1.403 . S
H369 C375 0.930 . S
C370 H356 0.930 . S
C370 C368 1.395 . S
C370 C373 1.403 . S
C371 C368 1.403 . S
C371 C372 1.524 . S
C371 C375 1.400 . S
C372 H357 0.960 1_556 S
C372 H358 0.960 1_556 S
C372 H359 0.960 . S
C372 C371 1.524 . S
C373 C370 1.403 . S
C373 C374 1.392 . S
C373 C377 1.495 . S
C374 C373 1.392 . S
C374 C375 1.385 . S
C374 C376 1.478 . S
C375 H369 0.930 . S
C375 C371 1.400 . S
C375 C374 1.385 . S
C376 C374 1.478 . S
C376 C378 1.381 . S
C376 C382 1.383 . S
C377 C373 1.495 . S
C377 H383 0.959 . S
C377 H384 0.961 . S
C377 H385 0.960 . S
C378 C376 1.381 . S
C378 C379 1.394 . S
C378 H386 0.930 . S
C379 C378 1.394 . S
C379 C380 1.383 . S
C379 H387 0.929 . S
C380 C379 1.383 . S
C380 C381 1.377 . S
C381 H365 0.930 . S
C381 C380 1.377 . S
C381 C382 1.379 . S
C382 H366 0.931 . S
C382 C376 1.383 . S
C382 C381 1.379 . S
H383 C377 0.959 . S
H384 C377 0.961 . S
H385 C377 0.960 . S
H386 C378 0.930 . S
H387 C379 0.929 . S
H388 C396 0.929 . S
H389 C398 0.930 . S
H390 C400 0.930 . S
H391 C403 0.929 . S
H392 C406 0.930 . S
H393 C408 0.960 . S
H394 C408 0.960 . S
H395 C408 0.960 . S
C396 H388 0.929 . S
C396 C397 1.377 . S
C396 C398 1.384 . S
C397 C396 1.377 . S
C397 C403 1.390 . S
C398 H389 0.930 . S
C398 C396 1.384 . S
C398 C399 1.372 . S
C399 C398 1.372 . S
C399 C400 1.400 . S
C399 C404 1.490 . S
C400 H390 0.930 . S
C400 C399 1.400 . S
C400 C403 1.386 . S
H401 C417 0.930 . S
H402 C418 0.931 . S
C403 H391 0.929 . S
C403 C397 1.390 . S
C403 C400 1.386 . S
C404 C399 1.490 . S
C404 C406 1.395 . S
C404 C407 1.403 . S
H405 C411 0.930 . S
C406 H392 0.930 . S
C406 C404 1.395 . S
C406 C409 1.403 . S
C407 C404 1.403 . S
C407 C408 1.524 . S
C407 C411 1.400 . S
C408 H393 0.960 . S
C408 H394 0.960 . S
C408 H395 0.960 . S
C408 C407 1.524 . S
C409 C406 1.403 . S
C409 C410 1.392 . S
C409 C413 1.495 . S
C410 C409 1.392 . S
C410 C411 1.385 . S
C410 C412 1.478 . S
C411 H405 0.930 . S
C411 C407 1.400 . S
C411 C410 1.385 . S
C412 C410 1.478 . S
C412 C414 1.381 . S
C412 C418 1.383 . S
C413 C409 1.495 . S
C413 H419 0.959 . S
C413 H420 0.961 . S
C413 H421 0.960 . S
C414 C412 1.381 . S
C414 C415 1.394 . S
C414 H422 0.930 . S
C415 C414 1.394 . S
C415 C416 1.383 . S
C415 H423 0.929 . S
C416 C415 1.383 . S
C416 C417 1.377 . S
C417 H401 0.930 . S
C417 C416 1.377 . S
C417 C418 1.379 . S
C418 H402 0.931 . S
C418 C412 1.383 . S
C418 C417 1.379 . S
H419 C413 0.959 . S
H420 C413 0.961 . S
H421 C413 0.960 . S
H422 C414 0.930 . S
H423 C415 0.929 . S
H424 C432 0.929 . S
H425 C434 0.930 . S
H426 C436 0.930 . S
H427 C439 0.929 . S
H428 C442 0.930 . S
H429 C444 0.960 . S
H430 C444 0.960 . S
H431 C444 0.960 . S
C432 H424 0.929 . S
C432 C433 1.377 . S
C432 C434 1.384 . S
C433 C432 1.377 . S
C433 C439 1.390 . S
C434 H425 0.930 . S
C434 C432 1.384 . S
C434 C435 1.372 . S
C435 C434 1.372 . S
C435 C436 1.400 . S
C435 C440 1.490 . S
C436 H426 0.930 . S
C436 C435 1.400 . S
C436 C439 1.386 . S
H437 C453 0.930 . S
H438 C454 0.931 . S
C439 H427 0.929 . S
C439 C433 1.390 . S
C439 C436 1.386 . S
C440 C435 1.490 . S
C440 C442 1.395 . S
C440 C443 1.403 . S
H441 C447 0.930 . S
C442 H428 0.930 . S
C442 C440 1.395 . S
C442 C445 1.403 . S
C443 C440 1.403 . S
C443 C444 1.524 . S
C443 C447 1.400 . S
C444 H429 0.960 . S
C444 H430 0.960 . S
C444 H431 0.960 . S
C444 C443 1.524 . S
C445 C442 1.403 . S
C445 C446 1.392 . S
C445 C449 1.495 . S
C446 C445 1.392 . S
C446 C447 1.385 . S
C446 C448 1.478 . S
C447 H441 0.930 . S
C447 C443 1.400 . S
C447 C446 1.385 . S
C448 C446 1.478 . S
C448 C450 1.381 . S
C448 C454 1.383 . S
C449 C445 1.495 . S
C449 H455 0.959 . S
C449 H456 0.961 . S
C449 H457 0.960 . S
C450 C448 1.381 . S
C450 C451 1.394 . S
C450 H458 0.930 . S
C451 C450 1.394 . S
C451 C452 1.383 . S
C451 H459 0.929 . S
C452 C451 1.383 . S
C452 C453 1.377 . S
C453 H437 0.930 . S
C453 C452 1.377 . S
C453 C454 1.379 . S
C454 H438 0.931 . S
C454 C448 1.383 . S
C454 C453 1.379 . S
H455 C449 0.959 . S
H456 C449 0.961 . S
H457 C449 0.960 . S
H458 C450 0.930 . S
H459 C451 0.929 . S
H460 C468 0.929 . S
H461 C470 0.930 . S
H462 C472 0.930 . S
H463 C475 0.929 . S
H464 C478 0.930 . S
H465 C480 0.960 . S
H466 C480 0.960 . S
H467 C480 0.960 . S
C468 H460 0.929 . S
C468 C469 1.377 . S
C468 C470 1.384 . S
C469 C468 1.377 . S
C469 C475 1.390 . S
C470 H461 0.930 . S
C470 C468 1.384 . S
C470 C471 1.372 . S
C471 C470 1.372 . S
C471 C472 1.400 . S
C471 C476 1.490 . S
C472 H462 0.930 . S
C472 C471 1.400 . S
C472 C475 1.386 . S
H473 C489 0.930 . S
H474 C490 0.931 . S
C475 H463 0.929 . S
C475 C469 1.390 . S
C475 C472 1.386 . S
C476 C471 1.490 . S
C476 C478 1.395 . S
C476 C479 1.403 . S
H477 C483 0.930 . S
C478 H464 0.930 . S
C478 C476 1.395 . S
C478 C481 1.403 . S
C479 C476 1.403 . S
C479 C480 1.524 . S
C479 C483 1.400 . S
C480 H465 0.960 . S
C480 H466 0.960 . S
C480 H467 0.960 . S
C480 C479 1.524 . S
C481 C478 1.403 . S
C481 C482 1.392 . S
C481 C485 1.495 . S
C482 C481 1.392 . S
C482 C483 1.385 . S
C482 C484 1.478 . S
C483 H477 0.930 . S
C483 C479 1.400 . S
C483 C482 1.385 . S
C484 C482 1.478 . S
C484 C486 1.381 . S
C484 C490 1.383 . S
C485 C481 1.495 . S
C485 H491 0.959 . S
C485 H492 0.961 . S
C485 H493 0.960 . S
C486 C484 1.381 . S
C486 C487 1.394 . S
C486 H494 0.930 . S
C487 C486 1.394 . S
C487 C488 1.383 . S
C487 H495 0.929 . S
C488 C487 1.383 . S
C488 C489 1.377 . S
C489 H473 0.930 . S
C489 C488 1.377 . S
C489 C490 1.379 . S
C490 H474 0.931 . S
C490 C484 1.383 . S
C490 C489 1.379 . S
H491 C485 0.959 . S
H492 C485 0.961 . S
H493 C485 0.960 . S
H494 C486 0.930 . S
H495 C487 0.929 . S
H496 C504 0.929 . S
H497 C506 0.930 . S
H498 C508 0.930 . S
H499 C511 0.929 . S
H500 C514 0.930 . S
H501 C516 0.960 . S
H502 C516 0.960 . S
H503 C516 0.960 . S
C504 H496 0.929 . S
C504 C505 1.377 . S
C504 C506 1.384 . S
C505 C504 1.377 . S
C505 C511 1.390 . S
C506 H497 0.930 . S
C506 C504 1.384 . S
C506 C507 1.372 . S
C507 C506 1.372 . S
C507 C508 1.400 . S
C507 C512 1.490 . S
C508 H498 0.930 . S
C508 C507 1.400 . S
C508 C511 1.386 . S
H509 C525 0.930 . S
H510 C526 0.931 . S
C511 H499 0.929 . S
C511 C505 1.390 . S
C511 C508 1.386 . S
C512 C507 1.490 . S
C512 C514 1.395 . S
C512 C515 1.403 . S
H513 C519 0.930 . S
C514 H500 0.930 . S
C514 C512 1.395 . S
C514 C517 1.403 . S
C515 C512 1.403 . S
C515 C516 1.524 . S
C515 C519 1.400 . S
C516 H501 0.960 . S
C516 H502 0.960 . S
C516 H503 0.960 . S
C516 C515 1.524 . S
C517 C514 1.403 . S
C517 C518 1.392 . S
C517 C521 1.495 . S
C518 C517 1.392 . S
C518 C519 1.385 . S
C518 C520 1.478 . S
C519 H513 0.930 . S
C519 C515 1.400 . S
C519 C518 1.385 . S
C520 C518 1.478 . S
C520 C522 1.381 1_556 S
C520 C526 1.383 . S
C521 C517 1.495 . S
C521 H527 0.959 . S
C521 H528 0.961 . S
C521 H529 0.960 1_556 S
C522 C520 1.381 1_554 S
C522 C523 1.394 . S
C522 H530 0.930 . S
C523 C522 1.394 . S
C523 C524 1.383 1_554 S
C523 H531 0.929 . S
C524 C523 1.383 1_556 S
C524 C525 1.377 . S
C525 H509 0.930 . S
C525 C524 1.377 . S
C525 C526 1.379 . S
C526 H510 0.931 . S
C526 C520 1.383 . S
C526 C525 1.379 . S
H527 C521 0.959 . S
H528 C521 0.961 . S
H529 C521 0.960 1_554 S
H530 C522 0.930 . S
H531 C523 0.929 . S
H532 C540 0.929 . S
H533 C542 0.930 . S
H534 C544 0.930 . S
H535 C547 0.929 . S
H536 C550 0.930 . S
H537 C552 0.960 . S
H538 C552 0.960 . S
H539 C552 0.960 . S
C540 H532 0.929 . S
C540 C541 1.377 . S
C540 C542 1.384 . S
C541 C540 1.377 . S
C541 C547 1.390 . S
C542 H533 0.930 . S
C542 C540 1.384 . S
C542 C543 1.372 . S
C543 C542 1.372 . S
C543 C544 1.400 . S
C543 C548 1.490 . S
C544 H534 0.930 . S
C544 C543 1.400 . S
C544 C547 1.386 . S
H545 C561 0.930 . S
H546 C562 0.931 . S
C547 H535 0.929 . S
C547 C541 1.390 . S
C547 C544 1.386 . S
C548 C543 1.490 . S
C548 C550 1.395 . S
C548 C551 1.403 . S
H549 C555 0.930 . S
C550 H536 0.930 . S
C550 C548 1.395 . S
C550 C553 1.403 . S
C551 C548 1.403 . S
C551 C552 1.524 . S
C551 C555 1.400 . S
C552 H537 0.960 . S
C552 H538 0.960 . S
C552 H539 0.960 . S
C552 C551 1.524 . S
C553 C550 1.403 . S
C553 C554 1.392 . S
C553 C557 1.495 . S
C554 C553 1.392 . S
C554 C555 1.385 . S
C554 C556 1.478 . S
C555 H549 0.930 . S
C555 C551 1.400 . S
C555 C554 1.385 . S
C556 C554 1.478 . S
C556 C558 1.381 . S
C556 C562 1.383 . S
C557 C553 1.495 . S
C557 H563 0.959 . S
C557 H564 0.961 . S
C557 H565 0.960 . S
C558 C556 1.381 . S
C558 C559 1.394 . S
C558 H566 0.930 . S
C559 C558 1.394 . S
C559 C560 1.383 . S
C559 H567 0.929 . S
C560 C559 1.383 . S
C560 C561 1.377 . S
C561 H545 0.930 . S
C561 C560 1.377 . S
C561 C562 1.379 . S
C562 H546 0.931 . S
C562 C556 1.383 . S
C562 C561 1.379 . S
H563 C557 0.959 . S
H564 C557 0.961 . S
H565 C557 0.960 . S
H566 C558 0.930 . S
H567 C559 0.929 . S
H568 C576 0.929 . S
H569 C578 0.930 . S
H570 C580 0.930 . S
H571 C583 0.929 . S
H572 C586 0.930 . S
H573 C588 0.960 . S
H574 C588 0.960 . S
H575 C588 0.960 . S
C576 H568 0.929 . S
C576 C577 1.377 . S
C576 C578 1.384 . S
C577 C576 1.377 . S
C577 C583 1.390 . S
C578 H569 0.930 . S
C578 C576 1.384 . S
C578 C579 1.372 . S
C579 C578 1.372 . S
C579 C580 1.400 . S
C579 C584 1.490 . S
C580 H570 0.930 . S
C580 C579 1.400 . S
C580 C583 1.386 . S
H581 C597 0.930 . S
H582 C598 0.931 . S
C583 H571 0.929 . S
C583 C577 1.390 . S
C583 C580 1.386 . S
C584 C579 1.490 . S
C584 C586 1.395 . S
C584 C587 1.403 . S
H585 C591 0.930 . S
C586 H572 0.930 . S
C586 C584 1.395 . S
C586 C589 1.403 . S
C587 C584 1.403 . S
C587 C588 1.524 . S
C587 C591 1.400 . S
C588 H573 0.960 . S
C588 H574 0.960 . S
C588 H575 0.960 . S
C588 C587 1.524 . S
C589 C586 1.403 . S
C589 C590 1.392 . S
C589 C593 1.495 . S
C590 C589 1.392 . S
C590 C591 1.385 . S
C590 C592 1.478 . S
C591 H585 0.930 . S
C591 C587 1.400 . S
C591 C590 1.385 . S
C592 C590 1.478 . S
C592 C594 1.381 . S
C592 C598 1.383 . S
C593 C589 1.495 . S
C593 H599 0.959 . S
C593 H600 0.961 . S
C593 H601 0.960 . S
C594 C592 1.381 . S
C594 C595 1.394 . S
C594 H602 0.930 . S
C595 C594 1.394 . S
C595 C596 1.383 . S
C595 H603 0.929 . S
C596 C595 1.383 . S
C596 C597 1.377 . S
C597 H581 0.930 . S
C597 C596 1.377 . S
C597 C598 1.379 . S
C598 H582 0.931 . S
C598 C592 1.383 . S
C598 C597 1.379 . S
H599 C593 0.959 . S
H600 C593 0.961 . S
H601 C593 0.960 . S
H602 C594 0.930 . S
H603 C595 0.929 . S
H604 C612 0.929 . S
H605 C614 0.930 . S
H606 C616 0.930 . S
H607 C619 0.929 . S
H608 C622 0.930 . S
H609 C624 0.960 . S
H610 C624 0.960 . S
H611 C624 0.960 . S
C612 H604 0.929 . S
C612 C613 1.377 . S
C612 C614 1.384 . S
C613 C612 1.377 . S
C613 C619 1.390 . S
C614 H605 0.930 . S
C614 C612 1.384 . S
C614 C615 1.372 . S
C615 C614 1.372 . S
C615 C616 1.400 . S
C615 C620 1.490 . S
C616 H606 0.930 . S
C616 C615 1.400 . S
C616 C619 1.386 . S
H617 C633 0.930 . S
H618 C634 0.931 . S
C619 H607 0.929 . S
C619 C613 1.390 . S
C619 C616 1.386 . S
C620 C615 1.490 . S
C620 C622 1.395 . S
C620 C623 1.403 . S
H621 C627 0.930 . S
C622 H608 0.930 . S
C622 C620 1.395 . S
C622 C625 1.403 . S
C623 C620 1.403 . S
C623 C624 1.524 . S
C623 C627 1.400 . S
C624 H609 0.960 . S
C624 H610 0.960 . S
C624 H611 0.960 . S
C624 C623 1.524 . S
C625 C622 1.403 . S
C625 C626 1.392 . S
C625 C629 1.495 . S
C626 C625 1.392 . S
C626 C627 1.385 . S
C626 C628 1.478 . S
C627 H621 0.930 . S
C627 C623 1.400 . S
C627 C626 1.385 . S
C628 C626 1.478 . S
C628 C630 1.381 . S
C628 C634 1.383 . S
C629 C625 1.495 . S
C629 H635 0.959 . S
C629 H636 0.961 . S
C629 H637 0.960 . S
C630 C628 1.381 . S
C630 C631 1.394 . S
C630 H638 0.930 . S
C631 C630 1.394 . S
C631 C632 1.383 . S
C631 H639 0.929 . S
C632 C631 1.383 . S
C632 C633 1.377 . S
C633 H617 0.930 . S
C633 C632 1.377 . S
C633 C634 1.379 . S
C634 H618 0.931 . S
C634 C628 1.383 . S
C634 C633 1.379 . S
H635 C629 0.959 . S
H636 C629 0.961 . S
H637 C629 0.960 . S
H638 C630 0.930 . S
H639 C631 0.929 . S
H640 C648 0.929 . S
H641 C650 0.930 . S
H642 C652 0.930 . S
H643 C655 0.929 . S
H644 C658 0.930 . S
H645 C660 0.960 . S
H646 C660 0.960 . S
H647 C660 0.960 . S
C648 H640 0.929 . S
C648 C649 1.377 . S
C648 C650 1.384 . S
C649 C648 1.377 . S
C649 C655 1.390 . S
C650 H641 0.930 . S
C650 C648 1.384 . S
C650 C651 1.372 . S
C651 C650 1.372 . S
C651 C652 1.400 . S
C651 C656 1.490 . S
C652 H642 0.930 . S
C652 C651 1.400 . S
C652 C655 1.386 . S
H653 C669 0.930 . S
H654 C670 0.931 . S
C655 H643 0.929 . S
C655 C649 1.390 . S
C655 C652 1.386 . S
C656 C651 1.490 . S
C656 C658 1.395 . S
C656 C659 1.403 . S
H657 C663 0.930 . S
C658 H644 0.930 . S
C658 C656 1.395 . S
C658 C661 1.403 . S
C659 C656 1.403 . S
C659 C660 1.524 . S
C659 C663 1.400 . S
C660 H645 0.960 . S
C660 H646 0.960 . S
C660 H647 0.960 . S
C660 C659 1.524 . S
C661 C658 1.403 . S
C661 C662 1.392 . S
C661 C665 1.495 . S
C662 C661 1.392 . S
C662 C663 1.385 . S
C662 C664 1.478 . S
C663 H657 0.930 . S
C663 C659 1.400 . S
C663 C662 1.385 . S
C664 C662 1.478 . S
C664 C666 1.381 . S
C664 C670 1.383 . S
C665 C661 1.495 . S
C665 H671 0.959 . S
C665 H672 0.961 . S
C665 H673 0.960 . S
C666 C664 1.381 . S
C666 C667 1.394 . S
C666 H674 0.930 . S
C667 C666 1.394 . S
C667 C668 1.383 . S
C667 H675 0.929 . S
C668 C667 1.383 . S
C668 C669 1.377 . S
C669 H653 0.930 . S
C669 C668 1.377 . S
C669 C670 1.379 . S
C670 H654 0.931 . S
C670 C664 1.383 . S
C670 C669 1.379 . S
H671 C665 0.959 . S
H672 C665 0.961 . S
H673 C665 0.960 . S
H674 C666 0.930 . S
H675 C667 0.929 . S
H676 C684 0.929 . S
H677 C686 0.930 . S
H678 C688 0.930 . S
H679 C691 0.929 . S
H680 C694 0.930 . S
H681 C696 0.960 . S
H682 C696 0.960 . S
H683 C696 0.960 . S
C684 H676 0.929 . S
C684 C685 1.377 . S
C684 C686 1.384 . S
C685 C684 1.377 . S
C685 C691 1.390 . S
C686 H677 0.930 . S
C686 C684 1.384 . S
C686 C687 1.372 . S
C687 C686 1.372 . S
C687 C688 1.400 . S
C687 C692 1.490 . S
C688 H678 0.930 . S
C688 C687 1.400 . S
C688 C691 1.386 . S
H689 C705 0.930 . S
H690 C706 0.931 . S
C691 H679 0.929 . S
C691 C685 1.390 . S
C691 C688 1.386 . S
C692 C687 1.490 . S
C692 C694 1.395 . S
C692 C695 1.403 . S
H693 C699 0.930 . S
C694 H680 0.930 . S
C694 C692 1.395 . S
C694 C697 1.403 . S
C695 C692 1.403 . S
C695 C696 1.524 . S
C695 C699 1.400 . S
C696 H681 0.960 . S
C696 H682 0.960 . S
C696 H683 0.960 . S
C696 C695 1.524 . S
C697 C694 1.403 . S
C697 C698 1.392 . S
C697 C701 1.495 . S
C698 C697 1.392 . S
C698 C699 1.385 . S
C698 C700 1.478 . S
C699 H693 0.930 . S
C699 C695 1.400 . S
C699 C698 1.385 . S
C700 C698 1.478 . S
C700 C702 1.381 . S
C700 C706 1.383 1_556 S
C701 C697 1.495 . S
C701 H707 0.959 . S
C701 H708 0.961 . S
C701 H709 0.960 . S
C702 C700 1.381 . S
C702 C703 1.394 . S
C702 H710 0.930 . S
C703 C702 1.394 . S
C703 C704 1.383 . S
C703 H711 0.929 . S
C704 C703 1.383 . S
C704 C705 1.377 1_556 S
C705 H689 0.930 . S
C705 C704 1.377 1_554 S
C705 C706 1.379 . S
C706 H690 0.931 . S
C706 C700 1.383 1_554 S
C706 C705 1.379 . S
H707 C701 0.959 . S
H708 C701 0.961 . S
H709 C701 0.960 . S
H710 C702 0.930 . S
H711 C703 0.929 . S
H712 C720 0.929 . S
H713 C722 0.930 . S
H714 C724 0.930 . S
H715 C727 0.929 . S
H716 C730 0.930 . S
H717 C732 0.960 . S
H718 C732 0.960 . S
H719 C732 0.960 . S
C720 H712 0.929 . S
C720 C721 1.377 . S
C720 C722 1.384 . S
C721 C720 1.377 . S
C721 C727 1.390 . S
C722 H713 0.930 . S
C722 C720 1.384 . S
C722 C723 1.372 . S
C723 C722 1.372 . S
C723 C724 1.400 . S
C723 C728 1.490 . S
C724 H714 0.930 . S
C724 C723 1.400 . S
C724 C727 1.386 . S
H725 C741 0.930 . S
H726 C742 0.931 . S
C727 H715 0.929 . S
C727 C721 1.390 . S
C727 C724 1.386 . S
C728 C723 1.490 . S
C728 C730 1.395 . S
C728 C731 1.403 . S
H729 C735 0.930 . S
C730 H716 0.930 . S
C730 C728 1.395 . S
C730 C733 1.403 . S
C731 C728 1.403 . S
C731 C732 1.524 . S
C731 C735 1.400 . S
C732 H717 0.960 . S
C732 H718 0.960 . S
C732 H719 0.960 . S
C732 C731 1.524 . S
C733 C730 1.403 . S
C733 C734 1.392 . S
C733 C737 1.495 . S
C734 C733 1.392 . S
C734 C735 1.385 . S
C734 C736 1.478 . S
C735 H729 0.930 . S
C735 C731 1.400 . S
C735 C734 1.385 . S
C736 C734 1.478 . S
C736 C738 1.381 . S
C736 C742 1.383 . S
C737 C733 1.495 . S
C737 H743 0.959 . S
C737 H744 0.961 . S
C737 H745 0.960 . S
C738 C736 1.381 . S
C738 C739 1.394 . S
C738 H746 0.930 . S
C739 C738 1.394 . S
C739 C740 1.383 . S
C739 H747 0.929 . S
C740 C739 1.383 . S
C740 C741 1.377 . S
C741 H725 0.930 . S
C741 C740 1.377 . S
C741 C742 1.379 . S
C742 H726 0.931 . S
C742 C736 1.383 . S
C742 C741 1.379 . S
H743 C737 0.959 . S
H744 C737 0.961 . S
H745 C737 0.960 . S
H746 C738 0.930 . S
H747 C739 0.929 . S
H748 C756 0.929 . S
H749 C758 0.930 . S
H750 C760 0.930 . S
H751 C763 0.929 . S
H752 C766 0.930 . S
H753 C768 0.960 . S
H754 C768 0.960 . S
H755 C768 0.960 . S
C756 H748 0.929 . S
C756 C757 1.377 . S
C756 C758 1.384 . S
C757 C756 1.377 . S
C757 C763 1.390 . S
C758 H749 0.930 . S
C758 C756 1.384 . S
C758 C759 1.372 . S
C759 C758 1.372 . S
C759 C760 1.400 . S
C759 C764 1.490 . S
C760 H750 0.930 . S
C760 C759 1.400 . S
C760 C763 1.386 . S
H761 C777 0.930 . S
H762 C778 0.931 . S
C763 H751 0.929 . S
C763 C757 1.390 . S
C763 C760 1.386 . S
C764 C759 1.490 . S
C764 C766 1.395 . S
C764 C767 1.403 . S
H765 C771 0.930 . S
C766 H752 0.930 . S
C766 C764 1.395 . S
C766 C769 1.403 . S
C767 C764 1.403 . S
C767 C768 1.524 . S
C767 C771 1.400 . S
C768 H753 0.960 . S
C768 H754 0.960 . S
C768 H755 0.960 . S
C768 C767 1.524 . S
C769 C766 1.403 . S
C769 C770 1.392 . S
C769 C773 1.495 . S
C770 C769 1.392 . S
C770 C771 1.385 . S
C770 C772 1.478 . S
C771 H765 0.930 . S
C771 C767 1.400 . S
C771 C770 1.385 . S
C772 C770 1.478 . S
C772 C774 1.381 . S
C772 C778 1.383 . S
C773 C769 1.495 . S
C773 H779 0.959 . S
C773 H780 0.961 . S
C773 H781 0.960 . S
C774 C772 1.381 . S
C774 C775 1.394 . S
C774 H782 0.930 . S
C775 C774 1.394 . S
C775 C776 1.383 . S
C775 H783 0.929 . S
C776 C775 1.383 . S
C776 C777 1.377 . S
C777 H761 0.930 . S
C777 C776 1.377 . S
C777 C778 1.379 . S
C778 H762 0.931 . S
C778 C772 1.383 . S
C778 C777 1.379 . S
H779 C773 0.959 . S
H780 C773 0.961 . S
H781 C773 0.960 . S
H782 C774 0.930 . S
H783 C775 0.929 . S
H784 C792 0.929 . S
H785 C794 0.930 . S
H786 C796 0.920 1_655 S
H787 C799 0.921 1_655 S
H788 C802 0.930 . S
H789 C804 0.960 . S
H790 C804 0.960 . S
H791 C804 0.960 . S
C792 H784 0.929 . S
C792 C793 1.377 . S
C792 C794 1.384 . S
C793 C792 1.377 . S
C793 C799 1.398 . S
C794 H785 0.930 . S
C794 C792 1.384 . S
C794 C795 1.372 . S
C795 C794 1.372 . S
C795 C796 1.410 . S
C795 C800 1.490 . S
C796 H786 0.920 1_455 S
C796 C795 1.410 . S
C796 C799 1.386 . S
H797 C813 0.936 . S
H798 C814 0.931 1_554 S
C799 H787 0.921 1_455 S
C799 C793 1.398 . S
C799 C796 1.386 . S
C800 C795 1.490 . S
C800 C802 1.395 . S
C800 C803 1.403 1_455 S
H801 C807 0.930 . S
C802 H788 0.930 . S
C802 C800 1.395 . S
C802 C805 1.403 . S
C803 C800 1.403 1_655 S
C803 C804 1.524 . S
C803 C807 1.400 . S
C804 H789 0.960 . S
C804 H790 0.960 . S
C804 H791 0.960 . S
C804 C803 1.524 . S
C805 C802 1.403 . S
C805 C806 1.392 . S
C805 C809 1.495 . S
C806 C805 1.392 . S
C806 C807 1.385 1_455 S
C806 C808 1.478 1_554 S
C807 H801 0.930 . S
C807 C803 1.400 . S
C807 C806 1.385 1_655 S
C808 C806 1.478 1_556 S
C808 C810 1.381 . S
C808 C814 1.383 . S
C809 C805 1.495 . S
C809 H815 0.959 . S
C809 H816 0.961 . S
C809 H817 0.960 1_554 S
C810 C808 1.381 . S
C810 C811 1.394 . S
C810 H818 0.930 . S
C811 C810 1.394 . S
C811 C812 1.383 . S
C811 H819 0.929 . S
C812 C811 1.383 . S
C812 C813 1.377 . S
C813 H797 0.936 . S
C813 C812 1.377 . S
C813 C814 1.379 . S
C814 H798 0.931 1_556 S
C814 C808 1.383 . S
C814 C813 1.379 . S
H815 C809 0.959 . S
H816 C809 0.961 . S
H817 C809 0.960 1_556 S
H818 C810 0.930 . S
H819 C811 0.929 . S
H820 C828 0.929 . S
H821 C830 0.930 . S
H822 C832 0.930 . S
H823 C835 0.929 . S
H824 C838 0.930 . S
H825 C840 0.960 . S
H826 C840 0.960 . S
H827 C840 0.960 . S
C828 H820 0.929 . S
C828 C829 1.377 . S
C828 C830 1.384 . S
C829 C828 1.377 . S
C829 C835 1.390 . S
C830 H821 0.930 . S
C830 C828 1.384 . S
C830 C831 1.372 . S
C831 C830 1.372 . S
C831 C832 1.400 . S
C831 C836 1.490 . S
C832 H822 0.930 . S
C832 C831 1.400 . S
C832 C835 1.386 . S
H833 C849 0.930 . S
H834 C850 0.931 . S
C835 H823 0.929 . S
C835 C829 1.390 . S
C835 C832 1.386 . S
C836 C831 1.490 . S
C836 C838 1.395 . S
C836 C839 1.403 . S
H837 C843 0.930 . S
C838 H824 0.930 . S
C838 C836 1.395 . S
C838 C841 1.403 . S
C839 C836 1.403 . S
C839 C840 1.524 . S
C839 C843 1.400 . S
C840 H825 0.960 . S
C840 H826 0.960 . S
C840 H827 0.960 . S
C840 C839 1.524 . S
C841 C838 1.403 . S
C841 C842 1.392 . S
C841 C845 1.495 . S
C842 C841 1.392 . S
C842 C843 1.385 . S
C842 C844 1.478 . S
C843 H837 0.930 . S
C843 C839 1.400 . S
C843 C842 1.385 . S
C844 C842 1.478 . S
C844 C846 1.381 . S
C844 C850 1.383 . S
C845 C841 1.495 . S
C845 H851 0.959 . S
C845 H852 0.961 . S
C845 H853 0.960 . S
C846 C844 1.381 . S
C846 C847 1.394 . S
C846 H854 0.930 . S
C847 C846 1.394 . S
C847 C848 1.383 . S
C847 H855 0.929 . S
C848 C847 1.383 . S
C848 C849 1.377 . S
C849 H833 0.930 . S
C849 C848 1.377 . S
C849 C850 1.379 . S
C850 H834 0.931 . S
C850 C844 1.383 . S
C850 C849 1.379 . S
H851 C845 0.959 . S
H852 C845 0.961 . S
H853 C845 0.960 . S
H854 C846 0.930 . S
H855 C847 0.929 . S
H856 C864 0.929 . S
H857 C866 0.930 . S
H858 C868 0.930 . S
H859 C871 0.929 . S
H860 C874 0.930 . S
H861 C876 0.960 . S
H862 C876 0.960 . S
H863 C876 0.960 . S
C864 H856 0.929 . S
C864 C865 1.377 . S
C864 C866 1.384 . S
C865 C864 1.377 . S
C865 C871 1.390 . S
C866 H857 0.930 . S
C866 C864 1.384 . S
C866 C867 1.372 . S
C867 C866 1.372 . S
C867 C868 1.400 . S
C867 C872 1.490 . S
C868 H858 0.930 . S
C868 C867 1.400 . S
C868 C871 1.386 . S
H869 C885 0.930 . S
H870 C886 0.931 . S
C871 H859 0.929 . S
C871 C865 1.390 . S
C871 C868 1.386 . S
C872 C867 1.490 . S
C872 C874 1.395 . S
C872 C875 1.403 . S
H873 C879 0.930 . S
C874 H860 0.930 . S
C874 C872 1.395 . S
C874 C877 1.403 . S
C875 C872 1.403 . S
C875 C876 1.524 . S
C875 C879 1.400 . S
C876 H861 0.960 . S
C876 H862 0.960 . S
C876 H863 0.960 . S
C876 C875 1.524 . S
C877 C874 1.403 . S
C877 C878 1.392 . S
C877 C881 1.495 . S
C878 C877 1.392 . S
C878 C879 1.385 . S
C878 C880 1.478 . S
C879 H873 0.930 . S
C879 C875 1.400 . S
C879 C878 1.385 . S
C880 C878 1.478 . S
C880 C882 1.381 . S
C880 C886 1.383 . S
C881 C877 1.495 . S
C881 H887 0.959 . S
C881 H888 0.961 . S
C881 H889 0.960 . S
C882 C880 1.381 . S
C882 C883 1.394 . S
C882 H890 0.930 . S
C883 C882 1.394 . S
C883 C884 1.383 . S
C883 H891 0.929 . S
C884 C883 1.383 . S
C884 C885 1.377 . S
C885 H869 0.930 . S
C885 C884 1.377 . S
C885 C886 1.379 . S
C886 H870 0.931 . S
C886 C880 1.383 . S
C886 C885 1.379 . S
H887 C881 0.959 . S
H888 C881 0.961 . S
H889 C881 0.960 . S
H890 C882 0.930 . S
H891 C883 0.929 . S
H892 C900 0.929 . S
H893 C902 0.930 . S
H894 C904 0.930 . S
H895 C907 0.929 . S
H896 C910 0.930 . S
H897 C912 0.960 . S
H898 C912 0.960 . S
H899 C912 0.960 . S
C900 H892 0.929 . S
C900 C901 1.377 . S
C900 C902 1.384 . S
C901 C900 1.377 . S
C901 C907 1.390 . S
C902 H893 0.930 . S
C902 C900 1.384 . S
C902 C903 1.372 . S
C903 C902 1.372 . S
C903 C904 1.400 . S
C903 C908 1.490 . S
C904 H894 0.930 . S
C904 C903 1.400 . S
C904 C907 1.386 . S
H905 C921 0.930 . S
H906 C922 0.931 . S
C907 H895 0.929 . S
C907 C901 1.390 . S
C907 C904 1.386 . S
C908 C903 1.490 . S
C908 C910 1.395 . S
C908 C911 1.403 . S
H909 C915 0.930 . S
C910 H896 0.930 . S
C910 C908 1.395 . S
C910 C913 1.403 . S
C911 C908 1.403 . S
C911 C912 1.524 . S
C911 C915 1.400 . S
C912 H897 0.960 . S
C912 H898 0.960 . S
C912 H899 0.960 . S
C912 C911 1.524 . S
C913 C910 1.403 . S
C913 C914 1.392 . S
C913 C917 1.495 . S
C914 C913 1.392 . S
C914 C915 1.385 . S
C914 C916 1.478 . S
C915 H909 0.930 . S
C915 C911 1.400 . S
C915 C914 1.385 . S
C916 C914 1.478 . S
C916 C918 1.381 . S
C916 C922 1.383 . S
C917 C913 1.495 . S
C917 H923 0.959 . S
C917 H924 0.961 . S
C917 H925 0.960 . S
C918 C916 1.381 . S
C918 C919 1.394 . S
C918 H926 0.930 . S
C919 C918 1.394 . S
C919 C920 1.383 . S
C919 H927 0.929 . S
C920 C919 1.383 . S
C920 C921 1.377 . S
C921 H905 0.930 . S
C921 C920 1.377 . S
C921 C922 1.379 . S
C922 H906 0.931 . S
C922 C916 1.383 . S
C922 C921 1.379 . S
H923 C917 0.959 . S
H924 C917 0.961 . S
H925 C917 0.960 . S
H926 C918 0.930 . S
H927 C919 0.929 . S
H928 C936 0.929 . S
H929 C938 0.930 . S
H930 C940 0.930 . S
H931 C943 0.929 . S
H932 C946 0.930 . S
H933 C948 0.960 . S
H934 C948 0.960 . S
H935 C948 0.960 . S
C936 H928 0.929 . S
C936 C937 1.377 . S
C936 C938 1.384 . S
C937 C936 1.377 . S
C937 C943 1.390 . S
C938 H929 0.930 . S
C938 C936 1.384 . S
C938 C939 1.372 . S
C939 C938 1.372 . S
C939 C940 1.400 . S
C939 C944 1.490 . S
C940 H930 0.930 . S
C940 C939 1.400 . S
C940 C943 1.386 . S
H941 C957 0.930 . S
H942 C958 0.931 . S
C943 H931 0.929 . S
C943 C937 1.390 . S
C943 C940 1.386 . S
C944 C939 1.490 . S
C944 C946 1.395 . S
C944 C947 1.403 . S
H945 C951 0.930 . S
C946 H932 0.930 . S
C946 C944 1.395 . S
C946 C949 1.403 . S
C947 C944 1.403 . S
C947 C948 1.524 . S
C947 C951 1.400 . S
C948 H933 0.960 . S
C948 H934 0.960 . S
C948 H935 0.960 . S
C948 C947 1.524 . S
C949 C946 1.403 . S
C949 C950 1.392 . S
C949 C953 1.495 . S
C950 C949 1.392 . S
C950 C951 1.385 . S
C950 C952 1.478 . S
C951 H945 0.930 . S
C951 C947 1.400 . S
C951 C950 1.385 . S
C952 C950 1.478 . S
C952 C954 1.381 . S
C952 C958 1.383 . S
C953 C949 1.495 . S
C953 H959 0.959 . S
C953 H960 0.961 . S
C953 H961 0.960 . S
C954 C952 1.381 . S
C954 C955 1.394 . S
C954 H962 0.930 . S
C955 C954 1.394 . S
C955 C956 1.383 . S
C955 H963 0.929 . S
C956 C955 1.383 . S
C956 C957 1.377 . S
C957 H941 0.930 . S
C957 C956 1.377 . S
C957 C958 1.379 . S
C958 H942 0.931 . S
C958 C952 1.383 . S
C958 C957 1.379 . S
H959 C953 0.959 . S
H960 C953 0.961 . S
H961 C953 0.960 . S
H962 C954 0.930 . S
H963 C955 0.929 . S
H964 C972 0.929 . S
H965 C974 0.930 . S
H966 C976 0.930 . S
H967 C979 0.929 . S
H968 C982 0.930 . S
H969 C984 0.960 . S
H970 C984 0.960 . S
H971 C984 0.960 . S
C972 H964 0.929 . S
C972 C973 1.377 . S
C972 C974 1.384 . S
C973 C972 1.377 . S
C973 C979 1.390 . S
C974 H965 0.930 . S
C974 C972 1.384 . S
C974 C975 1.372 . S
C975 C974 1.372 . S
C975 C976 1.400 . S
C975 C980 1.490 . S
C976 H966 0.930 . S
C976 C975 1.400 . S
C976 C979 1.386 . S
H977 C993 0.930 . S
H978 C994 0.931 . S
C979 H967 0.929 . S
C979 C973 1.390 . S
C979 C976 1.386 . S
C980 C975 1.490 . S
C980 C982 1.395 . S
C980 C983 1.403 . S
H981 C987 0.930 . S
C982 H968 0.930 . S
C982 C980 1.395 . S
C982 C985 1.403 . S
C983 C980 1.403 . S
C983 C984 1.524 . S
C983 C987 1.400 . S
C984 H969 0.960 . S
C984 H970 0.960 . S
C984 H971 0.960 . S
C984 C983 1.524 . S
C985 C982 1.403 . S
C985 C986 1.392 . S
C985 C989 1.495 . S
C986 C985 1.392 . S
C986 C987 1.385 . S
C986 C988 1.478 . S
C987 H981 0.930 . S
C987 C983 1.400 . S
C987 C986 1.385 . S
C988 C986 1.478 . S
C988 C990 1.381 . S
C988 C994 1.383 . S
C989 C985 1.495 . S
C989 H995 0.959 . S
C989 H996 0.961 . S
C989 H997 0.960 . S
C990 C988 1.381 . S
C990 C991 1.394 . S
C990 H998 0.930 . S
C991 C990 1.394 . S
C991 C992 1.383 . S
C991 H999 0.929 . S
C992 C991 1.383 . S
C992 C993 1.377 . S
C993 H977 0.930 . S
C993 C992 1.377 . S
C993 C994 1.379 . S
C994 H978 0.931 . S
C994 C988 1.383 . S
C994 C993 1.379 . S
H995 C989 0.959 . S
H996 C989 0.961 . S
H997 C989 0.960 . S
H998 C990 0.930 . S
H999 C991 0.929 . S
H1000 C1008 0.929 . S
H1001 C1010 0.930 . S
H1002 C1012 0.930 . S
H1003 C1015 0.929 . S
H1004 C1018 0.930 . S
H1005 C1020 0.960 1_545 S
H1006 C1020 0.960 . S
H1007 C1020 0.960 . S
C1008 H1000 0.929 . S
C1008 C1009 1.377 . S
C1008 C1010 1.384 . S
C1009 C1008 1.377 . S
C1009 C1015 1.390 . S
C1010 H1001 0.930 . S
C1010 C1008 1.384 . S
C1010 C1011 1.372 . S
C1011 C1010 1.372 . S
C1011 C1012 1.400 . S
C1011 C1016 1.490 . S
C1012 H1002 0.930 . S
C1012 C1011 1.400 . S
C1012 C1015 1.386 . S
H1013 C1029 0.930 . S
H1014 C1030 0.931 . S
C1015 H1003 0.929 . S
C1015 C1009 1.390 . S
C1015 C1012 1.386 . S
C1016 C1011 1.490 . S
C1016 C1018 1.395 . S
C1016 C1019 1.403 . S
H1017 C1023 0.930 . S
C1018 H1004 0.930 . S
C1018 C1016 1.395 . S
C1018 C1021 1.403 1_565 S
C1019 C1016 1.403 . S
C1019 C1020 1.524 . S
C1019 C1023 1.400 1_565 S
C1020 H1005 0.960 1_565 S
C1020 H1006 0.960 . S
C1020 H1007 0.960 . S
C1020 C1019 1.524 . S
C1021 C1018 1.403 1_545 S
C1021 C1022 1.392 . S
C1021 C1025 1.495 . S
C1022 C1021 1.392 . S
C1022 C1023 1.385 . S
C1022 C1024 1.478 . S
C1023 H1017 0.930 . S
C1023 C1019 1.400 1_545 S
C1023 C1022 1.385 . S
C1024 C1022 1.478 . S
C1024 C1026 1.381 . S
C1024 C1030 1.383 . S
C1025 C1021 1.495 . S
C1025 H1031 0.959 1_545 S
C1025 H1032 0.961 . S
C1025 H1033 0.960 . S
C1026 C1024 1.381 . S
C1026 C1027 1.394 . S
C1026 H1034 0.930 . S
C1027 C1026 1.394 . S
C1027 C1028 1.383 . S
C1027 H1035 0.929 . S
C1028 C1027 1.383 . S
C1028 C1029 1.377 . S
C1029 H1013 0.930 . S
C1029 C1028 1.377 . S
C1029 C1030 1.379 . S
C1030 H1014 0.931 . S
C1030 C1024 1.383 . S
C1030 C1029 1.379 . S
H1031 C1025 0.959 1_565 S
H1032 C1025 0.961 . S
H1033 C1025 0.960 . S
H1034 C1026 0.930 . S
H1035 C1027 0.929 . S
H1036 C1044 0.929 . S
H1037 C1046 0.930 . S
H1038 C1048 0.930 1_554 S
H1039 C1051 0.929 . S
H1040 C1054 0.939 . S
H1041 C1056 0.960 . S
H1042 C1056 0.960 . S
H1043 C1056 0.960 . S
C1044 H1036 0.929 . S
C1044 C1045 1.377 . S
C1044 C1046 1.384 . S
C1045 C1044 1.377 . S
C1045 C1051 1.390 . S
C1046 H1037 0.930 . S
C1046 C1044 1.384 . S
C1046 C1047 1.372 . S
C1047 C1046 1.372 . S
C1047 C1048 1.400 . S
C1047 C1052 1.490 1_556 S
C1048 H1038 0.930 1_556 S
C1048 C1047 1.400 . S
C1048 C1051 1.386 . S
H1049 C1065 0.930 . S
H1050 C1066 0.934 . S
C1051 H1039 0.929 . S
C1051 C1045 1.390 . S
C1051 C1048 1.386 . S
C1052 C1047 1.490 1_554 S
C1052 C1054 1.393 1_654 S
C1052 C1055 1.403 . S
H1053 C1059 0.930 . S
C1054 H1040 0.939 . S
C1054 C1052 1.393 1_456 S
C1054 C1057 1.396 1_546 S
C1055 C1052 1.403 . S
C1055 C1056 1.524 . S
C1055 C1059 1.400 1_545 S
C1056 H1041 0.960 . S
C1056 H1042 0.960 . S
C1056 H1043 0.960 . S
C1056 C1055 1.524 . S
C1057 C1054 1.396 1_564 S
C1057 C1058 1.392 1_455 S
C1057 C1061 1.495 . S
C1058 C1057 1.392 1_655 S
C1058 C1059 1.385 . S
C1058 C1060 1.478 . S
C1059 H1053 0.930 . S
C1059 C1055 1.400 1_565 S
C1059 C1058 1.385 . S
C1060 C1058 1.478 . S
C1060 C1062 1.381 . S
C1060 C1066 1.383 . S
C1061 C1057 1.495 . S
C1061 H1067 0.959 1_554 S
C1061 H1068 0.961 . S
C1061 H1069 0.960 . S
C1062 C1060 1.381 . S
C1062 C1063 1.394 . S
C1062 H1070 0.930 . S
C1063 C1062 1.394 . S
C1063 C1064 1.383 . S
C1063 H1071 0.929 . S
C1064 C1063 1.383 . S
C1064 C1065 1.377 . S
C1065 H1049 0.930 . S
C1065 C1064 1.377 . S
C1065 C1066 1.379 . S
C1066 H1050 0.934 . S
C1066 C1060 1.383 . S
C1066 C1065 1.379 . S
H1067 C1061 0.959 1_556 S
H1068 C1061 0.961 . S
H1069 C1061 0.960 . S
H1070 C1062 0.930 . S
H1071 C1063 0.929 . S
H1072 C1080 0.929 . S
H1073 C1082 0.930 . S
H1074 C1084 0.930 1_455 S
H1075 C1087 0.929 1_455 S
H1076 C1090 0.930 . S
H1077 C1092 0.960 . S
H1078 C1092 0.960 . S
H1079 C1092 0.960 . S
C1080 H1072 0.929 . S
C1080 C1081 1.377 . S
C1080 C1082 1.384 . S
C1081 C1080 1.377 . S
C1081 C1087 1.390 . S
C1082 H1073 0.930 . S
C1082 C1080 1.384 . S
C1082 C1083 1.372 . S
C1083 C1082 1.372 . S
C1083 C1084 1.400 . S
C1083 C1088 1.490 . S
C1084 H1074 0.930 1_655 S
C1084 C1083 1.400 . S
C1084 C1087 1.386 . S
H1085 C1101 0.930 . S
H1086 C1102 0.931 . S
C1087 H1075 0.929 1_655 S
C1087 C1081 1.390 . S
C1087 C1084 1.386 . S
C1088 C1083 1.490 . S
C1088 C1090 1.395 . S
C1088 C1091 1.403 1_655 S
H1089 C1095 0.930 . S
C1090 H1076 0.930 . S
C1090 C1088 1.395 . S
C1090 C1093 1.403 . S
C1091 C1088 1.403 1_455 S
C1091 C1092 1.524 . S
C1091 C1095 1.400 . S
C1092 H1077 0.960 . S
C1092 H1078 0.960 . S
C1092 H1079 0.960 . S
C1092 C1091 1.524 . S
C1093 C1090 1.403 . S
C1093 C1094 1.392 . S
C1093 C1097 1.495 . S
C1094 C1093 1.392 . S
C1094 C1095 1.385 1_655 S
C1094 C1096 1.478 . S
C1095 H1089 0.930 . S
C1095 C1091 1.400 . S
C1095 C1094 1.385 1_455 S
C1096 C1094 1.478 . S
C1096 C1098 1.381 . S
C1096 C1102 1.383 . S
C1097 C1093 1.495 . S
C1097 H1103 0.959 . S
C1097 H1104 0.961 . S
C1097 H1105 0.960 . S
C1098 C1096 1.381 . S
C1098 C1099 1.394 . S
C1098 H1106 0.930 . S
C1099 C1098 1.394 . S
C1099 C1100 1.383 . S
C1099 H1107 0.929 . S
C1100 C1099 1.383 . S
C1100 C1101 1.377 . S
C1101 H1085 0.930 . S
C1101 C1100 1.377 . S
C1101 C1102 1.379 . S
C1102 H1086 0.931 . S
C1102 C1096 1.383 . S
C1102 C1101 1.379 . S
H1103 C1097 0.959 . S
H1104 C1097 0.961 . S
H1105 C1097 0.960 . S
H1106 C1098 0.930 . S
H1107 C1099 0.929 . S
H1108 C1116 0.929 . S
H1109 C1118 0.930 . S
H1110 C1120 0.930 . S
H1111 C1123 0.929 . S
H1112 C1126 0.930 . S
H1113 C1128 0.960 . S
H1114 C1128 0.960 . S
H1115 C1128 0.960 . S
C1116 H1108 0.929 . S
C1116 C1117 1.377 . S
C1116 C1118 1.384 . S
C1117 C1116 1.377 . S
C1117 C1123 1.390 . S
C1118 H1109 0.930 . S
C1118 C1116 1.384 . S
C1118 C1119 1.372 . S
C1119 C1118 1.372 . S
C1119 C1120 1.400 . S
C1119 C1124 1.490 . S
C1120 H1110 0.930 . S
C1120 C1119 1.400 . S
C1120 C1123 1.386 . S
H1121 C1137 0.930 . S
H1122 C1138 0.931 . S
C1123 H1111 0.929 . S
C1123 C1117 1.390 . S
C1123 C1120 1.386 . S
C1124 C1119 1.490 . S
C1124 C1126 1.395 . S
C1124 C1127 1.403 . S
H1125 C1131 0.930 . S
C1126 H1112 0.930 . S
C1126 C1124 1.395 . S
C1126 C1129 1.403 . S
C1127 C1124 1.403 . S
C1127 C1128 1.524 . S
C1127 C1131 1.400 . S
C1128 H1113 0.960 . S
C1128 H1114 0.960 . S
C1128 H1115 0.960 . S
C1128 C1127 1.524 . S
C1129 C1126 1.403 . S
C1129 C1130 1.392 . S
C1129 C1133 1.495 . S
C1130 C1129 1.392 . S
C1130 C1131 1.385 . S
C1130 C1132 1.478 . S
C1131 H1125 0.930 . S
C1131 C1127 1.400 . S
C1131 C1130 1.385 . S
C1132 C1130 1.478 . S
C1132 C1134 1.381 . S
C1132 C1138 1.383 . S
C1133 C1129 1.495 . S
C1133 H1139 0.959 . S
C1133 H1140 0.961 . S
C1133 H1141 0.960 . S
C1134 C1132 1.381 . S
C1134 C1135 1.394 . S
C1134 H1142 0.930 . S
C1135 C1134 1.394 . S
C1135 C1136 1.383 . S
C1135 H1143 0.929 . S
C1136 C1135 1.383 . S
C1136 C1137 1.377 . S
C1137 H1121 0.930 . S
C1137 C1136 1.377 . S
C1137 C1138 1.379 . S
C1138 H1122 0.931 . S
C1138 C1132 1.383 . S
C1138 C1137 1.379 . S
H1139 C1133 0.959 . S
H1140 C1133 0.961 . S
H1141 C1133 0.960 . S
H1142 C1134 0.930 . S
H1143 C1135 0.929 . S
H1144 C1152 0.929 . S
H1145 C1154 0.930 . S
H1146 C1156 0.930 . S
H1147 C1159 0.929 . S
H1148 C1162 0.930 . S
H1149 C1164 0.960 . S
H1150 C1164 0.960 . S
H1151 C1164 0.960 . S
C1152 H1144 0.929 . S
C1152 C1153 1.377 . S
C1152 C1154 1.384 . S
C1153 C1152 1.377 . S
C1153 C1159 1.390 . S
C1154 H1145 0.930 . S
C1154 C1152 1.384 . S
C1154 C1155 1.372 . S
C1155 C1154 1.372 . S
C1155 C1156 1.400 . S
C1155 C1160 1.490 . S
C1156 H1146 0.930 . S
C1156 C1155 1.400 . S
C1156 C1159 1.386 . S
H1157 C1173 0.930 . S
H1158 C1174 0.931 . S
C1159 H1147 0.929 . S
C1159 C1153 1.390 . S
C1159 C1156 1.386 . S
C1160 C1155 1.490 . S
C1160 C1162 1.395 . S
C1160 C1163 1.403 . S
H1161 C1167 0.930 1_556 S
C1162 H1148 0.930 . S
C1162 C1160 1.395 . S
C1162 C1165 1.403 . S
C1163 C1160 1.403 . S
C1163 C1164 1.524 . S
C1163 C1167 1.400 . S
C1164 H1149 0.960 . S
C1164 H1150 0.960 . S
C1164 H1151 0.960 . S
C1164 C1163 1.524 . S
C1165 C1162 1.403 . S
C1165 C1166 1.392 . S
C1165 C1169 1.495 . S
C1166 C1165 1.392 . S
C1166 C1167 1.385 . S
C1166 C1168 1.478 1_554 S
C1167 H1161 0.930 1_554 S
C1167 C1163 1.400 . S
C1167 C1166 1.385 . S
C1168 C1166 1.478 1_556 S
C1168 C1170 1.381 . S
C1168 C1174 1.383 . S
C1169 C1165 1.495 . S
C1169 H1175 0.959 . S
C1169 H1176 0.961 . S
C1169 H1177 0.960 . S
C1170 C1168 1.381 . S
C1170 C1171 1.394 . S
C1170 H1178 0.930 1_556 S
C1171 C1170 1.394 . S
C1171 C1172 1.383 . S
C1171 H1179 0.929 . S
C1172 C1171 1.383 . S
C1172 C1173 1.377 . S
C1173 H1157 0.930 . S
C1173 C1172 1.377 . S
C1173 C1174 1.379 . S
C1174 H1158 0.931 . S
C1174 C1168 1.383 . S
C1174 C1173 1.379 . S
H1175 C1169 0.959 . S
H1176 C1169 0.961 . S
H1177 C1169 0.960 . S
H1178 C1170 0.930 1_554 S
H1179 C1171 0.929 . S
H1180 C1188 0.929 . S
H1181 C1190 0.930 . S
H1182 C1192 0.930 . S
H1183 C1195 0.929 . S
H1184 C1198 0.930 . S
H1185 C1200 0.960 . S
H1186 C1200 0.960 . S
H1187 C1200 0.960 . S
C1188 H1180 0.929 . S
C1188 C1189 1.377 . S
C1188 C1190 1.384 . S
C1189 C1188 1.377 . S
C1189 C1195 1.390 . S
C1190 H1181 0.930 . S
C1190 C1188 1.384 . S
C1190 C1191 1.372 . S
C1191 C1190 1.372 . S
C1191 C1192 1.400 . S
C1191 C1196 1.490 . S
C1192 H1182 0.930 . S
C1192 C1191 1.400 . S
C1192 C1195 1.386 . S
H1193 C1209 0.930 . S
H1194 C1210 0.931 . S
C1195 H1183 0.929 . S
C1195 C1189 1.390 . S
C1195 C1192 1.386 . S
C1196 C1191 1.490 . S
C1196 C1198 1.395 . S
C1196 C1199 1.403 . S
H1197 C1203 0.930 . S
C1198 H1184 0.930 . S
C1198 C1196 1.395 . S
C1198 C1201 1.403 . S
C1199 C1196 1.403 . S
C1199 C1200 1.524 . S
C1199 C1203 1.400 . S
C1200 H1185 0.960 . S
C1200 H1186 0.960 . S
C1200 H1187 0.960 . S
C1200 C1199 1.524 . S
C1201 C1198 1.403 . S
C1201 C1202 1.392 . S
C1201 C1205 1.495 . S
C1202 C1201 1.392 . S
C1202 C1203 1.385 . S
C1202 C1204 1.478 . S
C1203 H1197 0.930 . S
C1203 C1199 1.400 . S
C1203 C1202 1.385 . S
C1204 C1202 1.478 . S
C1204 C1206 1.381 . S
C1204 C1210 1.383 . S
C1205 C1201 1.495 . S
C1205 H1211 0.959 . S
C1205 H1212 0.961 . S
C1205 H1213 0.960 . S
C1206 C1204 1.381 . S
C1206 C1207 1.394 . S
C1206 H1214 0.930 . S
C1207 C1206 1.394 . S
C1207 C1208 1.383 . S
C1207 H1215 0.929 . S
C1208 C1207 1.383 . S
C1208 C1209 1.377 . S
C1209 H1193 0.930 . S
C1209 C1208 1.377 . S
C1209 C1210 1.379 . S
C1210 H1194 0.931 . S
C1210 C1204 1.383 . S
C1210 C1209 1.379 . S
H1211 C1205 0.959 . S
H1212 C1205 0.961 . S
H1213 C1205 0.960 . S
H1214 C1206 0.930 . S
H1215 C1207 0.929 . S
H1216 C1224 0.929 . S
H1217 C1226 0.930 . S
H1218 C1228 0.930 . S
H1219 C1231 0.929 . S
H1220 C1234 0.930 . S
H1221 C1236 0.960 . S
H1222 C1236 0.960 . S
H1223 C1236 0.960 . S
C1224 H1216 0.929 . S
C1224 C1225 1.377 . S
C1224 C1226 1.384 . S
C1225 C1224 1.377 . S
C1225 C1231 1.390 . S
C1226 H1217 0.930 . S
C1226 C1224 1.384 . S
C1226 C1227 1.372 . S
C1227 C1226 1.372 . S
C1227 C1228 1.400 . S
C1227 C1232 1.490 . S
C1228 H1218 0.930 . S
C1228 C1227 1.400 . S
C1228 C1231 1.386 . S
H1229 C1245 0.930 . S
H1230 C1246 0.931 . S
C1231 H1219 0.929 . S
C1231 C1225 1.390 . S
C1231 C1228 1.386 . S
C1232 C1227 1.490 . S
C1232 C1234 1.395 . S
C1232 C1235 1.403 . S
H1233 C1239 0.930 . S
C1234 H1220 0.930 . S
C1234 C1232 1.395 . S
C1234 C1237 1.403 . S
C1235 C1232 1.403 . S
C1235 C1236 1.524 . S
C1235 C1239 1.400 . S
C1236 H1221 0.960 . S
C1236 H1222 0.960 . S
C1236 H1223 0.960 . S
C1236 C1235 1.524 . S
C1237 C1234 1.403 . S
C1237 C1238 1.392 . S
C1237 C1241 1.495 . S
C1238 C1237 1.392 . S
C1238 C1239 1.385 . S
C1238 C1240 1.478 . S
C1239 H1233 0.930 . S
C1239 C1235 1.400 . S
C1239 C1238 1.385 . S
C1240 C1238 1.478 . S
C1240 C1242 1.381 . S
C1240 C1246 1.383 . S
C1241 C1237 1.495 . S
C1241 H1247 0.959 . S
C1241 H1248 0.961 . S
C1241 H1249 0.960 . S
C1242 C1240 1.381 . S
C1242 C1243 1.394 . S
C1242 H1250 0.930 . S
C1243 C1242 1.394 . S
C1243 C1244 1.383 . S
C1243 H1251 0.929 . S
C1244 C1243 1.383 . S
C1244 C1245 1.377 . S
C1245 H1229 0.930 . S
C1245 C1244 1.377 . S
C1245 C1246 1.379 . S
C1246 H1230 0.931 . S
C1246 C1240 1.383 . S
C1246 C1245 1.379 . S
H1247 C1241 0.959 . S
H1248 C1241 0.961 . S
H1249 C1241 0.960 . S
H1250 C1242 0.930 . S
H1251 C1243 0.929 . S
H1252 C1260 0.929 . S
H1253 C1262 0.930 . S
H1254 C1264 0.930 . S
H1255 C1267 0.929 . S
H1256 C1270 0.930 . S
H1257 C1272 0.960 . S
H1258 C1272 0.960 . S
H1259 C1272 0.960 . S
C1260 H1252 0.929 . S
C1260 C1261 1.377 . S
C1260 C1262 1.384 . S
C1261 C1260 1.377 . S
C1261 C1267 1.390 . S
C1262 H1253 0.930 . S
C1262 C1260 1.384 . S
C1262 C1263 1.372 . S
C1263 C1262 1.372 . S
C1263 C1264 1.400 . S
C1263 C1268 1.490 . S
C1264 H1254 0.930 . S
C1264 C1263 1.400 . S
C1264 C1267 1.386 . S
H1265 C1281 0.930 . S
H1266 C1282 0.931 . S
C1267 H1255 0.929 . S
C1267 C1261 1.390 . S
C1267 C1264 1.386 . S
C1268 C1263 1.490 . S
C1268 C1270 1.395 . S
C1268 C1271 1.403 . S
H1269 C1275 0.930 . S
C1270 H1256 0.930 . S
C1270 C1268 1.395 . S
C1270 C1273 1.403 . S
C1271 C1268 1.403 . S
C1271 C1272 1.524 . S
C1271 C1275 1.400 . S
C1272 H1257 0.960 . S
C1272 H1258 0.960 . S
C1272 H1259 0.960 . S
C1272 C1271 1.524 . S
C1273 C1270 1.403 . S
C1273 C1274 1.392 . S
C1273 C1277 1.495 . S
C1274 C1273 1.392 . S
C1274 C1275 1.385 . S
C1274 C1276 1.478 . S
C1275 H1269 0.930 . S
C1275 C1271 1.400 . S
C1275 C1274 1.385 . S
C1276 C1274 1.478 . S
C1276 C1278 1.381 . S
C1276 C1282 1.383 . S
C1277 C1273 1.495 . S
C1277 H1283 0.959 . S
C1277 H1284 0.961 . S
C1277 H1285 0.960 . S
C1278 C1276 1.381 . S
C1278 C1279 1.394 . S
C1278 H1286 0.930 . S
C1279 C1278 1.394 . S
C1279 C1280 1.383 . S
C1279 H1287 0.929 . S
C1280 C1279 1.383 . S
C1280 C1281 1.377 . S
C1281 H1265 0.930 . S
C1281 C1280 1.377 . S
C1281 C1282 1.379 . S
C1282 H1266 0.931 . S
C1282 C1276 1.383 . S
C1282 C1281 1.379 . S
H1283 C1277 0.959 . S
H1284 C1277 0.961 . S
H1285 C1277 0.960 . S
H1286 C1278 0.930 . S
H1287 C1279 0.929 . S
H1288 C1296 0.929 . S
H1289 C1298 0.930 . S
H1290 C1300 0.930 . S
H1291 C1303 0.929 . S
H1292 C1306 0.930 . S
H1293 C1308 0.960 1_556 S
H1294 C1308 0.960 . S
H1295 C1308 0.960 . S
C1296 H1288 0.929 . S
C1296 C1297 1.377 . S
C1296 C1298 1.384 . S
C1297 C1296 1.377 . S
C1297 C1303 1.390 . S
C1298 H1289 0.930 . S
C1298 C1296 1.384 . S
C1298 C1299 1.372 . S
C1299 C1298 1.372 . S
C1299 C1300 1.400 . S
C1299 C1304 1.490 . S
C1300 H1290 0.930 . S
C1300 C1299 1.400 . S
C1300 C1303 1.386 . S
H1301 C1317 0.930 . S
H1302 C1318 0.931 . S
C1303 H1291 0.929 . S
C1303 C1297 1.390 . S
C1303 C1300 1.386 . S
C1304 C1299 1.490 . S
C1304 C1306 1.395 1_565 S
C1304 C1307 1.403 . S
H1305 C1311 0.934 . S
C1306 H1292 0.930 . S
C1306 C1304 1.395 1_545 S
C1306 C1309 1.403 . S
C1307 C1304 1.403 . S
C1307 C1308 1.524 . S
C1307 C1311 1.397 1_564 S
C1308 H1293 0.960 1_554 S
C1308 H1294 0.960 . S
C1308 H1295 0.960 . S
C1308 C1307 1.524 . S
C1309 C1306 1.403 . S
C1309 C1310 1.392 . S
C1309 C1313 1.495 . S
C1310 C1309 1.392 . S
C1310 C1311 1.384 1_554 S
C1310 C1312 1.478 1_554 S
C1311 H1305 0.934 . S
C1311 C1307 1.397 1_546 S
C1311 C1310 1.384 1_556 S
C1312 C1310 1.478 1_556 S
C1312 C1314 1.381 . S
C1312 C1318 1.383 . S
C1313 C1309 1.495 . S
C1313 H1319 0.959 . S
C1313 H1320 0.961 . S
C1313 H1321 0.960 . S
C1314 C1312 1.381 . S
C1314 C1315 1.394 . S
C1314 H1322 0.930 1_556 S
C1315 C1314 1.394 . S
C1315 C1316 1.383 . S
C1315 H1323 0.929 . S
C1316 C1315 1.383 . S
C1316 C1317 1.377 . S
C1317 H1301 0.930 . S
C1317 C1316 1.377 . S
C1317 C1318 1.379 . S
C1318 H1302 0.931 . S
C1318 C1312 1.383 . S
C1318 C1317 1.379 . S
H1319 C1313 0.959 . S
H1320 C1313 0.961 . S
H1321 C1313 0.960 . S
H1322 C1314 0.930 1_554 S
H1323 C1315 0.929 . S
H1324 C1332 0.930 1_655 S
H1325 C1334 0.931 1_655 S
H1326 C1336 0.930 . S
H1327 C1339 0.929 . S
H1328 C1342 0.930 . S
H1329 C1344 0.960 . S
H1330 C1344 0.960 1_545 S
H1331 C1344 0.960 . S
C1332 H1324 0.930 1_455 S
C1332 C1333 1.377 . S
C1332 C1334 1.384 . S
C1333 C1332 1.377 . S
C1333 C1339 1.390 . S
C1334 H1325 0.931 1_455 S
C1334 C1332 1.384 . S
C1334 C1335 1.371 . S
C1335 C1334 1.371 . S
C1335 C1336 1.400 . S
C1335 C1340 1.490 . S
C1336 H1326 0.930 . S
C1336 C1335 1.400 . S
C1336 C1339 1.386 . S
H1337 C1353 0.930 . S
H1338 C1354 0.931 . S
C1339 H1327 0.929 . S
C1339 C1333 1.390 . S
C1339 C1336 1.386 . S
C1340 C1335 1.490 . S
C1340 C1342 1.395 . S
C1340 C1343 1.403 1_445 S
H1341 C1347 0.964 . S
C1342 H1328 0.930 . S
C1342 C1340 1.395 . S
C1342 C1345 1.403 . S
C1343 C1340 1.403 1_665 S
C1343 C1344 1.524 . S
C1343 C1347 1.407 . S
C1344 H1329 0.960 . S
C1344 H1330 0.960 1_565 S
C1344 H1331 0.960 . S
C1344 C1343 1.524 . S
C1345 C1342 1.403 . S
C1345 C1346 1.392 1_545 S
C1345 C1349 1.495 . S
C1346 C1345 1.392 1_565 S
C1346 C1347 1.351 1_455 S
C1346 C1348 1.478 . S
C1347 H1341 0.964 . S
C1347 C1343 1.407 . S
C1347 C1346 1.351 1_655 S
C1348 C1346 1.478 . S
C1348 C1350 1.407 . S
C1348 C1354 1.383 . S
C1349 C1345 1.495 . S
C1349 H1355 0.959 . S
C1349 H1356 0.961 1_545 S
C1349 H1357 0.960 . S
C1350 C1348 1.407 . S
C1350 C1351 1.393 . S
C1350 H1358 0.909 1_455 S
C1351 C1350 1.393 . S
C1351 C1352 1.381 . S
C1351 H1359 0.931 1_455 S
C1352 C1351 1.381 . S
C1352 C1353 1.377 . S
C1353 H1337 0.930 . S
C1353 C1352 1.377 . S
C1353 C1354 1.379 . S
C1354 H1338 0.931 . S
C1354 C1348 1.383 . S
C1354 C1353 1.379 . S
H1355 C1349 0.959 . S
H1356 C1349 0.961 1_565 S
H1357 C1349 0.960 . S
H1358 C1350 0.909 1_655 S
H1359 C1351 0.931 1_655 S
C217 C120 1.488 . S
C236 C5 1.484 . S
C253 C185 1.487 . S
C272 C18 1.486 . S
C289 C31 1.488 . S
C308 C107 1.483 . S
C325 C44 1.488 . S
C344 C200 1.488 . S
C361 C55 1.488 . S
C380 C133 1.484 . S
C397 C172 1.488 . S
C416 C70 1.488 . S
C433 C146 1.487 . S
C452 C83 1.487 . S
C469 C94 1.488 . S
C488 C159 1.482 . S
C505 C57 1.608 . S
C524 C42 1.615 1_556 S
C541 C161 1.607 . S
C560 C109 1.607 . S
C577 C81 1.611 . S
C596 C16 1.596 . S
C613 C122 1.608 . S
C632 C174 1.587 . S
C649 C3 1.607 . S
C668 C68 1.614 . S
C685 C198 1.612 . S
C704 C135 1.596 1_556 S
C721 C96 1.613 . S
C740 C29 1.616 . S
C757 C148 1.613 . S
C776 C187 1.611 . S
C793 C10 0.523 . S
C812 C56 0.551 . S
C829 C75 0.519 . S
C848 C23 0.531 . S
C865 C88 0.519 . S
C884 C36 0.522 . S
C901 C49 0.521 . S
C920 C95 0.512 . S
C937 C134 0.529 . S
C956 C108 0.521 . S
C973 C147 0.523 . S
C992 C121 0.551 . S
C1009 C186 0.523 . S
C1028 C160 0.503 . S
C1045 C205 0.528 . S
C1064 C173 0.507 . S
C1081 C62 1.857 . S
C1100 C4 1.858 . S
C1117 C69 1.854 . S
C1136 C17 1.841 . S
C1153 C82 1.857 . S
C1172 C30 1.852 . S
C1189 C43 1.854 . S
C1208 C101 1.840 . S
C1225 C114 1.856 . S
C1244 C140 1.850 . S
C1261 C153 1.859 . S
C1280 C127 1.865 . S
C1297 C192 1.857 . S
C1316 C166 1.855 . S
C1333 C199 1.855 . S
C1352 C179 1.849 . S
