# Generated by pormake.
# Topology wje, (4)-cn, num edge types: 1
# Building blocks:
#     Node 0, Type 0, BuildingBlock: QUQFOY_clean_sbu_1, # of connection points: 4
#     Node 1, Type 0, BuildingBlock: QUQFOY_clean_sbu_1, # of connection points: 4
#     Node 2, Type 0, BuildingBlock: QUQFOY_clean_sbu_1, # of connection points: 4
#     Node 3, Type 0, BuildingBlock: QUQFOY_clean_sbu_1, # of connection points: 4
#     Node 4, Type 0, BuildingBlock: QUQFOY_clean_sbu_1, # of connection points: 4
#     Node 5, Type 0, BuildingBlock: QUQFOY_clean_sbu_1, # of connection points: 4
#     Node 6, Type 0, BuildingBlock: QUQFOY_clean_sbu_1, # of connection points: 4
#     Node 7, Type 0, BuildingBlock: QUQFOY_clean_sbu_1, # of connection points: 4
#     Node 8, Type 0, BuildingBlock: QUQFOY_clean_sbu_1, # of connection points: 4
#     Node 9, Type 0, BuildingBlock: QUQFOY_clean_sbu_1, # of connection points: 4
#     Node 10, Type 0, BuildingBlock: QUQFOY_clean_sbu_1, # of connection points: 4
#     Node 11, Type 0, BuildingBlock: QUQFOY_clean_sbu_1, # of connection points: 4
#     Edge 12, Type (0, 0), BuildingBlock: ZUJKAS_clean_linker_0, # of connection points: 2
#     Edge 13, Type (0, 0), BuildingBlock: ZUJKAS_clean_linker_0, # of connection points: 2
#     Edge 14, Type (0, 0), BuildingBlock: ZUJKAS_clean_linker_0, # of connection points: 2
#     Edge 15, Type (0, 0), BuildingBlock: ZUJKAS_clean_linker_0, # of connection points: 2
#     Edge 16, Type (0, 0), BuildingBlock: ZUJKAS_clean_linker_0, # of connection points: 2
#     Edge 17, Type (0, 0), BuildingBlock: ZUJKAS_clean_linker_0, # of connection points: 2
#     Edge 18, Type (0, 0), BuildingBlock: ZUJKAS_clean_linker_0, # of connection points: 2
#     Edge 19, Type (0, 0), BuildingBlock: ZUJKAS_clean_linker_0, # of connection points: 2
#     Edge 20, Type (0, 0), BuildingBlock: ZUJKAS_clean_linker_0, # of connection points: 2
#     Edge 21, Type (0, 0), BuildingBlock: ZUJKAS_clean_linker_0, # of connection points: 2
#     Edge 22, Type (0, 0), BuildingBlock: ZUJKAS_clean_linker_0, # of connection points: 2
#     Edge 23, Type (0, 0), BuildingBlock: ZUJKAS_clean_linker_0, # of connection points: 2
#     Edge 24, Type (0, 0), BuildingBlock: ZUJKAS_clean_linker_0, # of connection points: 2
#     Edge 25, Type (0, 0), BuildingBlock: ZUJKAS_clean_linker_0, # of connection points: 2
#     Edge 26, Type (0, 0), BuildingBlock: ZUJKAS_clean_linker_0, # of connection points: 2
#     Edge 27, Type (0, 0), BuildingBlock: ZUJKAS_clean_linker_0, # of connection points: 2
#     Edge 28, Type (0, 0), BuildingBlock: ZUJKAS_clean_linker_0, # of connection points: 2
#     Edge 29, Type (0, 0), BuildingBlock: ZUJKAS_clean_linker_0, # of connection points: 2
#     Edge 30, Type (0, 0), BuildingBlock: ZUJKAS_clean_linker_0, # of connection points: 2
#     Edge 31, Type (0, 0), BuildingBlock: ZUJKAS_clean_linker_0, # of connection points: 2
#     Edge 32, Type (0, 0), BuildingBlock: ZUJKAS_clean_linker_0, # of connection points: 2
#     Edge 33, Type (0, 0), BuildingBlock: ZUJKAS_clean_linker_0, # of connection points: 2
#     Edge 34, Type (0, 0), BuildingBlock: ZUJKAS_clean_linker_0, # of connection points: 2
#     Edge 35, Type (0, 0), BuildingBlock: ZUJKAS_clean_linker_0, # of connection points: 2
# Relax obj value: 0.109
# Max RMSD: 0.087
# Mean RMSD: 0.087
data_MOF--net-wje--node1-QUQFOY_clean_sbu_1--edge1-ZUJKAS_clean_linker_0
_symmetry_space_group_name_H-M    P1
_symmetry_Int_Tables_number       1
_symmetry_cell_setting            triclinic
loop_
_symmetry_equiv_pos_as_xyz
'x, y, z'
_cell_length_a     54.126694
_cell_length_b     54.116807
_cell_length_c     50.242677
_cell_angle_alpha  89.943075
_cell_angle_beta   90.078726
_cell_angle_gamma 119.97658
loop_
_atom_site_label
_atom_site_type_symbol
_atom_site_fract_x
_atom_site_fract_y
_atom_site_fract_z
_atom_type_partial_charge
O0 O 0.28055 0.00269 0.3143 0.0
Cd1 Cd 0.31613 0.04196 0.32076 0.0
Cd2 Cd 0.34275 0.01042 0.32144 0.0
O3 O 0.3028 0.97808 0.31064 0.0
O4 O 0.30707 0.07087 0.3061 0.0
O5 O 0.34147 0.06437 0.29008 0.0
C6 C 0.32683 0.07727 0.28861 0.0
C7 C 0.38251 0.00852 0.30511 0.0
C8 C 0.27984 0.97911 0.31063 0.0
C9 C 0.33861 0.03752 0.37326 0.0
O10 O 0.3461 0.02182 0.36093 0.0
O11 O 0.32739 0.04987 0.36064 0.0
O12 O 0.36477 0.98989 0.32151 0.0
O13 O 0.37743 0.02825 0.29719 0.0
O14 O 0.2679 0.27735 0.64756 0.0
Cd15 Cd 0.26659 0.31413 0.6546 0.0
Cd16 Cd 0.32466 0.33811 0.65483 0.0
O17 O 0.31465 0.29726 0.64462 0.0
O18 O 0.22938 0.30742 0.64001 0.0
O19 O 0.27115 0.34064 0.62438 0.0
C20 C 0.24361 0.32727 0.6228 0.0
C21 C 0.36787 0.37579 0.63844 0.0
C22 C 0.29 0.27517 0.6442 0.0
C23 C 0.29445 0.3358 0.70689 0.0
O24 O 0.3173 0.34267 0.69423 0.0
O25 O 0.2707 0.32501 0.69463 0.0
O26 O 0.36712 0.35784 0.65563 0.0
O27 O 0.34382 0.37211 0.62974 0.0
O28 O 0.99245 0.27004 0.98577 0.0
Cd29 Cd 0.95549 0.27164 0.99086 0.0
Cd30 Cd 0.99215 0.32853 0.9858 0.0
O31 O 0.02068 0.3154 0.9758 0.0
O32 O 0.92355 0.23434 0.97809 0.0
O33 O 0.93532 0.27561 0.95883 0.0
C34 C 0.91965 0.2481 0.95905 0.0
C35 C 0.99836 0.37111 0.96713 0.0
C36 C 0.01686 0.29045 0.97924 0.0
C37 C 0.96493 0.30464 0.04008 0.0
O38 O 0.98259 0.32524 0.02572 0.0
O39 O 0.9491 0.2802 0.02975 0.0
O40 O 0.01645 0.37077 0.98347 0.0
O41 O 0.97691 0.34691 0.96021 0.0
O42 O 0.72903 0.98667 0.32443 0.0
Cd43 Cd 0.68848 0.95236 0.32789 0.0
Cd44 Cd 0.67473 0.99288 0.32073 0.0
O45 O 0.71681 0.01719 0.30897 0.0
O46 O 0.69018 0.91819 0.3155 0.0
O47 O 0.66516 0.93469 0.29488 0.0
C48 C 0.67433 0.91674 0.29562 0.0
C49 C 0.63921 0.99916 0.30033 0.0
C50 C 0.73596 0.01118 0.31531 0.0
C51 C 0.66794 0.96669 0.376 0.0
O52 O 0.66889 0.98626 0.36126 0.0
O53 O 0.67241 0.94763 0.36609 0.0
O54 O 0.65921 0.01893 0.31435 0.0
O55 O 0.63997 0.97593 0.29673 0.0
O56 O 0.73359 0.72643 0.65073 0.0
Cd57 Cd 0.73771 0.69121 0.65774 0.0
Cd58 Cd 0.67928 0.66352 0.65992 0.0
O59 O 0.68657 0.70384 0.65101 0.0
O60 O 0.77539 0.69999 0.64267 0.0
O61 O 0.73425 0.66506 0.6276 0.0
C62 C 0.76174 0.67971 0.6257 0.0
C63 C 0.63653 0.62506 0.64358 0.0
C64 C 0.71038 0.72685 0.64916 0.0
C65 C 0.71211 0.66802 0.71071 0.0
O66 O 0.68838 0.65865 0.69876 0.0
O67 O 0.73543 0.68119 0.69786 0.0
O68 O 0.63682 0.64182 0.66182 0.0
O69 O 0.66074 0.63026 0.63394 0.0
O70 O 0.0112 0.73596 0.98775 0.0
Cd71 Cd 0.05006 0.7386 0.99352 0.0
Cd72 Cd 0.01861 0.68068 0.99432 0.0
O73 O 0.98609 0.68898 0.98609 0.0
O74 O 0.08008 0.77562 0.97825 0.0
O75 O 0.07026 0.73359 0.96215 0.0
C76 C 0.08465 0.76112 0.96049 0.0
C77 C 0.01436 0.63854 0.97655 0.0
C78 C 0.98736 0.71307 0.98544 0.0
C79 C 0.04777 0.71152 0.04555 0.0
O80 O 0.03252 0.68823 0.03323 0.0
O81 O 0.05855 0.73519 0.03319 0.0
O82 O 0.99773 0.6382 0.99493 0.0
O83 O 0.03337 0.66306 0.96742 0.0
O84 O 0.0032 0.72396 0.37994 0.0
Cd85 Cd 0.96433 0.68835 0.37247 0.0
Cd86 Cd 0.99548 0.66183 0.37194 0.0
O87 O 0.02783 0.70171 0.38307 0.0
O88 O 0.93483 0.69688 0.38642 0.0
O89 O 0.94128 0.66248 0.40262 0.0
C90 C 0.92817 0.67694 0.40379 0.0
C91 C 0.995 0.62169 0.39041 0.0
C92 C 0.02677 0.72464 0.38356 0.0
C93 C 0.96989 0.66664 0.31974 0.0
O94 O 0.98506 0.65849 0.33212 0.0
O95 O 0.95769 0.67801 0.33234 0.0
O96 O 0.01485 0.63876 0.37453 0.0
O97 O 0.9753 0.62756 0.39638 0.0
O98 O 0.2655 0.99474 0.70719 0.0
Cd99 Cd 0.26711 0.95799 0.70098 0.0
Cd100 Cd 0.32384 0.99345 0.70476 0.0
O101 O 0.31122 0.02202 0.71625 0.0
O102 O 0.23057 0.92514 0.71401 0.0
O103 O 0.27247 0.93836 0.73264 0.0
C104 C 0.24507 0.92184 0.73272 0.0
C105 C 0.36568 0.99796 0.7236 0.0
C106 C 0.28643 0.01885 0.71369 0.0
C107 C 0.29886 0.96795 0.6506 0.0
O108 O 0.32022 0.98513 0.66452 0.0
O109 O 0.27473 0.95243 0.66159 0.0
O110 O 0.36605 0.01729 0.70845 0.0
O111 O 0.3412 0.97601 0.72891 0.0
O112 O 0.2721 0.26528 0.04154 0.0
Cd113 Cd 0.30949 0.26532 0.03413 0.0
Cd114 Cd 0.33198 0.32268 0.03692 0.0
O115 O 0.29141 0.31134 0.0494 0.0
O116 O 0.30384 0.22801 0.04734 0.0
O117 O 0.33553 0.26957 0.06465 0.0
C118 C 0.32293 0.24201 0.06526 0.0
C119 C 0.3704 0.36489 0.05402 0.0
C120 C 0.26951 0.28664 0.04773 0.0
C121 C 0.32998 0.2958 0.98297 0.0
O122 O 0.33519 0.31759 0.99669 0.0
O123 O 0.32112 0.27174 0.99426 0.0
O124 O 0.35119 0.36508 0.03912 0.0
O125 O 0.36751 0.34041 0.06012 0.0
O126 O 0.01362 0.27639 0.36986 0.0
Cd127 Cd 0.04639 0.31788 0.36659 0.0
Cd128 Cd 0.00445 0.32757 0.37687 0.0
O129 O 0.98307 0.28578 0.38983 0.0
O130 O 0.08217 0.31832 0.37739 0.0
O131 O 0.06387 0.34059 0.39989 0.0
C132 C 0.08302 0.33303 0.39797 0.0
C133 C 1.00062 0.36385 0.39844 0.0
C134 C 0.98971 0.2678 0.38114 0.0
C135 C 0.02686 0.33575 0.32024 0.0
O136 O 0.00691 0.33189 0.33604 0.0
O137 O 0.0485 0.33489 0.32906 0.0
O138 O 0.97906 0.34299 0.38686 0.0
O139 O 0.02425 0.36341 0.39909 0.0
O140 O 0.72961 0.00535 0.71121 0.0
Cd141 Cd 0.73059 0.04338 0.70462 0.0
Cd142 Cd 0.67288 0.00951 0.70634 0.0
O143 O 0.68318 0.97897 0.71709 0.0
O144 O 0.76811 0.07409 0.71838 0.0
O145 O 0.72669 0.06502 0.73541 0.0
C146 C 0.75427 0.07942 0.73624 0.0
C147 C 0.63108 0.00592 0.72418 0.0
C148 C 0.70773 0.98133 0.71607 0.0
C149 C 0.70082 0.03656 0.65335 0.0
O150 O 0.67854 0.02012 0.66656 0.0
O151 O 0.7249 0.05012 0.66497 0.0
O152 O 0.63045 0.98712 0.70816 0.0
O153 O 0.65577 0.02675 0.73094 0.0
O154 O 0.72746 0.73118 0.04558 0.0
Cd155 Cd 0.69134 0.73337 0.03761 0.0
Cd156 Cd 0.66623 0.67523 0.03661 0.0
O157 O 0.70638 0.68435 0.04857 0.0
O158 O 0.6986 0.77074 0.05219 0.0
O159 O 0.66448 0.72915 0.06731 0.0
C160 C 0.67838 0.75668 0.0691 0.0
C161 C 0.62753 0.63235 0.05231 0.0
C162 C 0.72885 0.7087 0.0494 0.0
C163 C 0.67093 0.70649 0.98466 0.0
O164 O 0.66333 0.68324 0.99695 0.0
O165 O 0.68159 0.72997 0.99735 0.0
O166 O 0.64624 0.63273 0.03634 0.0
O167 O 0.63088 0.65658 0.06001 0.0
H168 H 0.29319 0.09981 0.27557 0.0
H169 H 0.2978 0.12984 0.23751 0.0
H170 H 0.37529 0.13151 0.21421 0.0
H171 H 0.37019 0.10044 0.25184 0.0
H172 H 0.33626 0.18182 0.22276 0.0
H173 H 0.33129 0.10586 0.14602 0.0
H174 H 0.32399 0.09623 0.18064 0.0
H175 H 0.36022 0.11652 0.16905 0.0
C176 C 0.31129 0.1066 0.26242 0.0
C177 C 0.33121 0.09751 0.26667 0.0
C178 C 0.31391 0.12383 0.24061 0.0
C179 C 0.33657 0.13255 0.22256 0.0
C180 C 0.35714 0.12443 0.22734 0.0
H181 H 0.36519 0.26422 0.10321 0.0
H182 H 0.3717 0.23904 0.14074 0.0
C183 C 0.35435 0.10685 0.24902 0.0
C184 C 0.33825 0.14991 0.19879 0.0
H185 H 0.33988 0.15078 0.13074 0.0
C186 C 0.33713 0.17506 0.20264 0.0
C187 C 0.33901 0.14096 0.17246 0.0
C188 C 0.33841 0.11329 0.1667 0.0
C189 C 0.33636 0.19122 0.18104 0.0
C190 C 0.33767 0.18257 0.15471 0.0
C191 C 0.33918 0.15763 0.15087 0.0
C192 C 0.33545 0.19785 0.13088 0.0
C193 C 0.33287 0.2167 0.18672 0.0
C194 C 0.31385 0.18295 0.112 0.0
C195 C 0.31048 0.19716 0.09025 0.0
C196 C 0.32855 0.22671 0.08689 0.0
C197 C 0.35076 0.2415 0.10532 0.0
C198 C 0.35434 0.22716 0.12694 0.0
H199 H 0.32451 0.21583 0.2071 0.0
H200 H 0.35394 0.23645 0.18521 0.0
H201 H 0.31816 0.21814 0.1722 0.0
H202 H 0.29906 0.16034 0.11444 0.0
H203 H 0.29314 0.18506 0.07649 0.0
H204 H 0.26534 0.37293 0.58849 0.0
H205 H 0.24074 0.38094 0.55133 0.0
H206 H 0.16422 0.30184 0.56966 0.0
H207 H 0.18819 0.29445 0.60734 0.0
H208 H 0.21968 0.35283 0.50767 0.0
H209 H 0.13029 0.35136 0.56151 0.0
H210 H 0.16037 0.35305 0.57868 0.0
H211 H 0.13106 0.31921 0.568 0.0
C212 C 0.24313 0.3575 0.58483 0.0
C213 C 0.22866 0.33321 0.60107 0.0
C214 C 0.22908 0.36205 0.56353 0.0
C215 C 0.20034 0.34232 0.55789 0.0
C216 C 0.18602 0.31795 0.57402 0.0
H217 H 0.11557 0.30819 0.40606 0.0
H218 H 0.14576 0.31372 0.4442 0.0
C219 C 0.19987 0.31363 0.59552 0.0
C220 C 0.18574 0.3462 0.53433 0.0
H221 H 0.12341 0.34209 0.51436 0.0
C222 C 0.1988 0.35088 0.50923 0.0
C223 C 0.15873 0.34434 0.5362 0.0
C224 C 0.14449 0.34205 0.56261 0.0
C225 C 0.18515 0.3525 0.48598 0.0
C226 C 0.15716 0.34828 0.48762 0.0
C227 C 0.14464 0.34486 0.51285 0.0
C228 C 0.14001 0.34626 0.46353 0.0
C229 C 0.20114 0.359 0.45998 0.0
C230 C 0.12589 0.36209 0.46175 0.0
C231 C 0.10794 0.35843 0.44014 0.0
C232 C 0.10393 0.33903 0.41969 0.0
C233 C 0.11851 0.32365 0.42122 0.0
C234 C 0.13602 0.32695 0.44302 0.0
H235 H 0.22455 0.37182 0.46325 0.0
H236 H 0.19665 0.3387 0.4504 0.0
H237 H 0.19476 0.37082 0.44613 0.0
H238 H 0.12842 0.37702 0.47731 0.0
H239 H 0.09693 0.37051 0.43962 0.0
H240 H 0.81061 0.10367 0.74913 0.0
H241 H 0.83546 0.13436 0.78696 0.0
H242 H 0.75839 0.13376 0.80993 0.0
H243 H 0.73299 0.10191 0.7726 0.0
H244 H 0.84781 0.18571 0.80131 0.0
H245 H 0.7775 0.10997 0.8785 0.0
H246 H 0.77529 0.10006 0.84398 0.0
H247 H 0.7588 0.11995 0.8553 0.0
C248 C 0.7989 0.1101 0.76217 0.0
C249 C 0.76972 0.10013 0.75794 0.0
C250 C 0.81319 0.12771 0.78384 0.0
C251 C 0.79875 0.13599 0.80175 0.0
C252 C 0.76986 0.12702 0.79694 0.0
H253 H 0.90022 0.26972 0.91995 0.0
H254 H 0.86903 0.24392 0.88235 0.0
C255 C 0.7554 0.10901 0.77543 0.0
C256 C 0.81411 0.15375 0.82541 0.0
H257 H 0.81299 0.15543 0.89342 0.0
C258 C 0.84015 0.1791 0.82146 0.0
C259 C 0.80437 0.14501 0.85179 0.0
C260 C 0.77762 0.11714 0.85774 0.0
C261 C 0.85687 0.19565 0.84297 0.0
C262 C 0.84685 0.18722 0.86933 0.0
C263 C 0.8206 0.16211 0.87327 0.0
C264 C 0.8641 0.20293 0.89313 0.0
C265 C 0.88569 0.22126 0.83717 0.0
C266 C 0.87061 0.18835 0.91255 0.0
C267 C 0.88783 0.20291 0.93436 0.0
C268 C 0.89919 0.23249 0.93722 0.0
C269 C 0.89203 0.24699 0.91821 0.0
C270 C 0.8744 0.23228 0.89655 0.0
H271 H 0.89339 0.22013 0.81697 0.0
H272 H 0.88404 0.24086 0.83811 0.0
H273 H 0.90185 0.22321 0.85194 0.0
H274 H 0.8629 0.16572 0.91051 0.0
H275 H 0.89292 0.19105 0.94858 0.0
H276 H 0.71183 0.81199 0.08463 0.0
H277 H 0.7054 0.83591 0.12286 0.0
H278 H 0.62554 0.7601 0.14087 0.0
H279 H 0.63257 0.73554 0.10317 0.0
H280 H 0.66797 0.85041 0.13622 0.0
H281 H 0.66366 0.7733 0.21142 0.0
H282 H 0.67298 0.77227 0.17718 0.0
H283 H 0.63617 0.75725 0.18671 0.0
C284 C 0.69282 0.80037 0.09665 0.0
C285 C 0.67282 0.77175 0.09094 0.0
C286 C 0.68916 0.81412 0.11857 0.0
C287 C 0.66528 0.79971 0.13523 0.0
C288 C 0.64461 0.77147 0.1289 0.0
H289 H 0.63552 0.90172 0.25486 0.0
H290 H 0.62969 0.87138 0.21644 0.0
C291 C 0.64851 0.75751 0.10716 0.0
C292 C 0.6625 0.81443 0.15922 0.0
H293 H 0.65565 0.80987 0.22697 0.0
C294 C 0.66521 0.84149 0.15606 0.0
C295 C 0.65926 0.80304 0.18523 0.0
C296 C 0.65814 0.77502 0.19045 0.0
C297 C 0.66534 0.85765 0.17803 0.0
C298 C 0.66153 0.84602 0.204 0.0
C299 C 0.65829 0.81873 0.20711 0.0
C300 C 0.663 0.86255 0.22833 0.0
C301 C 0.67092 0.88755 0.17318 0.0
C302 C 0.68249 0.86649 0.24865 0.0
C303 C 0.6853 0.88317 0.27094 0.0
C304 C 0.66886 0.89657 0.27337 0.0
C305 C 0.64868 0.89191 0.25347 0.0
C306 C 0.64554 0.87478 0.23134 0.0
H307 H 0.68117 0.8959 0.15355 0.0
H308 H 0.65036 0.88742 0.17329 0.0
H309 H 0.68486 0.90241 0.18888 0.0
H310 H 0.69615 0.85725 0.24697 0.0
H311 H 0.7011 0.88632 0.28584 0.0
H312 H 0.90367 0.70917 0.41531 0.0
H313 H 0.87318 0.70432 0.45299 0.0
H314 H 0.87453 0.62891 0.4786 0.0
H315 H 0.90597 0.63422 0.44129 0.0
H316 H 0.82146 0.66438 0.4684 0.0
H317 H 0.89991 0.67567 0.54553 0.0
H318 H 0.90904 0.68227 0.51075 0.0
H319 H 0.89018 0.64631 0.52326 0.0
C320 C 0.89743 0.69145 0.42886 0.0
C321 C 0.90749 0.67221 0.42536 0.0
C322 C 0.87993 0.6887 0.45045 0.0
C323 C 0.87195 0.66659 0.46904 0.0
C324 C 0.881 0.64662 0.465 0.0
H325 H 0.74057 0.63611 0.58911 0.0
H326 H 0.76599 0.62992 0.55167 0.0
C327 C 0.89879 0.64954 0.44351 0.0
C328 C 0.85454 0.66496 0.49268 0.0
H329 H 0.8547 0.66605 0.56074 0.0
C330 C 0.82868 0.66463 0.4886 0.0
C331 C 0.8641 0.66567 0.5191 0.0
C332 C 0.89244 0.66778 0.52502 0.0
C333 C 0.81238 0.66539 0.51003 0.0
C334 C 0.8217 0.66564 0.53645 0.0
C335 C 0.84736 0.66557 0.54054 0.0
C336 C 0.8063 0.668 0.56006 0.0
C337 C 0.78595 0.66715 0.50407 0.0
C338 C 0.8207 0.6907 0.57801 0.0
C339 C 0.80637 0.69397 0.59966 0.0
C340 C 0.77722 0.67466 0.60388 0.0
C341 C 0.76296 0.65148 0.58633 0.0
C342 C 0.77743 0.64806 0.56476 0.0
H343 H 0.78597 0.67431 0.48333 0.0
H344 H 0.76686 0.64571 0.50648 0.0
H345 H 0.78399 0.68207 0.51789 0.0
H346 H 0.84297 0.70632 0.57494 0.0
H347 H 0.81806 0.71207 0.61275 0.0
H348 H 0.26789 0.91587 0.77944 0.0
H349 H 0.24224 0.88562 0.8175 0.0
H350 H 0.16328 0.85077 0.77368 0.0
H351 H 0.18862 0.88138 0.73586 0.0
H352 H 0.15804 0.86819 0.82192 0.0
H353 H 0.20866 0.80149 0.83228 0.0
H354 H 0.23394 0.83902 0.83238 0.0
H355 H 0.21309 0.82266 0.80299 0.0
C356 C 0.24514 0.90141 0.77773 0.0
C357 C 0.23033 0.90108 0.75458 0.0
C358 C 0.2305 0.88398 0.7995 0.0
C359 C 0.20082 0.86561 0.79842 0.0
C360 C 0.18616 0.86469 0.77501 0.0
H361 H 0.09313 0.73726 0.91571 0.0
H362 H 0.12195 0.76222 0.87661 0.0
C363 C 0.20072 0.8822 0.75335 0.0
C364 C 0.18464 0.84904 0.82228 0.0
H365 H 0.17959 0.80031 0.86856 0.0
C366 C 0.1627 0.85324 0.832 0.0
C367 C 0.19043 0.82927 0.83534 0.0
C368 C 0.21262 0.82258 0.82508 0.0
C369 C 0.14673 0.83864 0.85455 0.0
C370 C 0.15326 0.81974 0.86825 0.0
C371 C 0.17483 0.81508 0.85828 0.0
C372 C 0.13767 0.80453 0.89281 0.0
C373 C 0.12264 0.84328 0.86317 0.0
C374 C 0.13762 0.81993 0.91526 0.0
C375 C 0.12107 0.80575 0.93753 0.0
C376 C 0.10446 0.7758 0.938 0.0
C377 C 0.10562 0.76033 0.916 0.0
C378 C 0.12209 0.77458 0.89363 0.0
H379 H 0.11533 0.85177 0.84667 0.0
H380 H 0.10415 0.82314 0.87043 0.0
H381 H 0.13012 0.85906 0.87962 0.0
H382 H 0.15001 0.84301 0.91538 0.0
H383 H 0.12091 0.81835 0.9542 0.0
H384 H 0.3966 0.9683 0.31812 0.0
H385 H 0.4414 0.96925 0.30955 0.0
H386 H 0.47246 0.04784 0.2659 0.0
H387 H 0.4274 0.04719 0.27446 0.0
H388 H 0.48167 0.99644 0.24431 0.0
H389 H 0.51825 0.03795 0.34674 0.0
H390 H 0.48223 0.00888 0.34317 0.0
H391 H 0.49198 0.04308 0.32922 0.0
C392 C 0.41274 0.98566 0.3064 0.0
C393 C 0.4085 0.00782 0.29714 0.0
C394 C 0.43831 0.9861 0.30149 0.0
C395 C 0.46016 0.00863 0.2872 0.0
C396 C 0.45571 0.03023 0.27692 0.0
H397 H 0.63577 0.04766 0.29982 0.0
H398 H 0.59348 0.05178 0.29196 0.0
C399 C 0.43003 0.02984 0.28187 0.0
C400 C 0.48829 0.0105 0.28508 0.0
H401 H 0.54604 0.0233 0.32256 0.0
C402 C 0.49596 0.00258 0.26126 0.0
C403 C 0.50681 0.01864 0.30722 0.0
C404 C 0.49965 0.02782 0.33306 0.0
C405 C 0.52158 0.00193 0.25928 0.0
C406 C 0.53964 0.00911 0.28178 0.0
C407 C 0.53218 0.01775 0.30532 0.0
C408 C 0.56613 0.0073 0.28192 0.0
C409 C 0.5291 0.99364 0.23317 0.0
C410 C 0.56503 0.98103 0.27824 0.0
C411 C 0.58932 0.97861 0.28261 0.0
C412 C 0.61498 0.00238 0.29105 0.0
C413 C 0.61631 0.0289 0.29345 0.0
C414 C 0.59214 0.03132 0.28895 0.0
H415 H 0.51759 0.99662 0.21626 0.0
H416 H 0.55239 0.00632 0.22934 0.0
H417 H 0.52291 0.97077 0.2339 0.0
H418 H 0.54507 0.96207 0.27333 0.0
H419 H 0.58756 0.95785 0.28076 0.0
H420 H 0.62595 0.59001 0.60023 0.0
H421 H 0.58005 0.54869 0.58727 0.0
H422 H 0.54018 0.56235 0.65562 0.0
H423 H 0.58519 0.60386 0.66792 0.0
H424 H 0.54811 0.50033 0.61121 0.0
H425 H 0.48313 0.55184 0.60071 0.0
H426 H 0.52151 0.57227 0.60322 0.0
H427 H 0.49972 0.56035 0.63281 0.0
C428 C 0.60725 0.58435 0.61223 0.0
C429 C 0.60914 0.60035 0.63495 0.0
C430 C 0.58105 0.56077 0.60481 0.0
C431 C 0.55639 0.55281 0.62004 0.0
C432 C 0.55851 0.56863 0.6429 0.0
H433 H 0.41952 0.39342 0.66119 0.0
H434 H 0.46483 0.43531 0.65049 0.0
C435 C 0.58443 0.59227 0.65008 0.0
C436 C 0.52883 0.52679 0.61361 0.0
H437 H 0.45705 0.50143 0.61339 0.0
C438 C 0.52824 0.50067 0.61108 0.0
C439 C 0.50281 0.52708 0.61254 0.0
C440 C 0.5019 0.55449 0.61214 0.0
C441 C 0.50233 0.47476 0.60979 0.0
C442 C 0.47631 0.47489 0.61208 0.0
C443 C 0.47691 0.50113 0.61229 0.0
C444 C 0.44868 0.44837 0.61709 0.0
C445 C 0.50326 0.44753 0.60645 0.0
C446 C 0.42399 0.4421 0.60254 0.0
C447 C 0.39762 0.4183 0.6091 0.0
C448 C 0.39557 0.40034 0.63025 0.0
C449 C 0.42036 0.40656 0.64454 0.0
C450 C 0.44647 0.43044 0.63825 0.0
H451 H 0.522 0.45129 0.59435 0.0
H452 H 0.50553 0.43983 0.62628 0.0
H453 H 0.48364 0.43059 0.59674 0.0
H454 H 0.42506 0.45579 0.58631 0.0
H455 H 0.37887 0.41409 0.59778 0.0
H456 H 0.98797 0.58768 1.00204 0.0
H457 H 0.98563 0.54331 0.98914 0.0
H458 H 0.03201 0.58293 0.9171 0.0
H459 H 0.03571 0.62826 0.93076 0.0
H460 H 0.9621 0.50861 0.9493 0.0
H461 H 0.07917 0.55106 0.94505 0.0
H462 H 0.06417 0.57178 0.95787 0.0
H463 H 0.06601 0.56759 0.92254 0.0
C464 C 0.99772 0.58705 0.98342 0.0
C465 C 0.0122 0.61153 0.96749 0.0
C466 C 0.99629 0.56157 0.97601 0.0
C467 C 0.00894 0.55974 0.95229 0.0
C468 C 0.02271 0.58395 0.93583 0.0
H469 H 0.97009 0.38142 0.92682 0.0
H470 H 0.97322 0.42717 0.91589 0.0
C471 C 0.02465 0.60978 0.94355 0.0
C472 C 0.00783 0.53239 0.94568 0.0
H473 H 0.04959 0.50208 0.93797 0.0
C474 C 0.98122 0.50716 0.94657 0.0
C475 C 0.03279 0.53053 0.94206 0.0
C476 C 0.06218 0.55661 0.94202 0.0
C477 C 0.97897 0.48017 0.94591 0.0
C478 C 0.00401 0.47829 0.94301 0.0
C479 C 0.03041 0.50352 0.94018 0.0
C480 C 0.00395 0.45098 0.94682 0.0
C481 C 0.95003 0.45416 0.95029 0.0
C482 C 0.02127 0.44939 0.96678 0.0
C483 C 0.02011 0.42364 0.97248 0.0
C484 C 1.00129 0.39865 0.95862 0.0
C485 C 0.98458 0.40029 0.938 0.0
C486 C 0.98619 0.42637 0.93191 0.0
H487 H 0.93427 0.45983 0.95801 0.0
H488 H 0.94181 0.44285 0.9311 0.0
H489 H 0.9514 0.43924 0.9646 0.0
H490 H 0.03515 0.46797 0.97861 0.0
H491 H 0.03328 0.42317 0.98851 0.0
H492 H 0.94985 0.57343 0.4114 0.0
H493 H 0.94823 0.52831 0.42205 0.0
H494 H 0.03716 0.56598 0.40164 0.0
H495 H 0.03891 0.61081 0.39073 0.0
H496 H 0.96453 0.49924 0.38118 0.0
H497 H 0.02776 0.52311 0.47437 0.0
H498 H 0.01018 0.54259 0.46436 0.0
H499 H 0.0429 0.54978 0.44869 0.0
C500 C 0.96916 0.57223 0.40969 0.0
C501 C 0.99448 0.59562 0.40014 0.0
C502 C 0.9682 0.54647 0.41575 0.0
C503 C 0.99266 0.54396 0.41289 0.0
C504 C 0.01818 0.56762 0.40437 0.0
H505 H 0.04441 0.41813 0.40707 0.0
H506 H 0.04051 0.46086 0.41393 0.0
C507 C 0.01907 0.59317 0.39799 0.0
C508 C 0.99106 0.51598 0.41589 0.0
H509 H 0.01854 0.48111 0.45093 0.0
C510 C 0.97592 0.49501 0.39667 0.0
C511 C 0.00634 0.51084 0.43588 0.0
C512 C 0.02259 0.53265 0.45717 0.0
C513 C 0.97654 0.4694 0.39621 0.0
C514 C 0.99198 0.46421 0.41614 0.0
C515 C 0.00661 0.485 0.43577 0.0
C516 C 0.99439 0.43802 0.41593 0.0
C517 C 0.96189 0.44888 0.37352 0.0
C518 C 0.96987 0.41088 0.41605 0.0
C519 C 0.97203 0.38651 0.41175 0.0
C520 C 0.9988 0.38877 0.4079 0.0
C521 C 0.02348 0.41572 0.40999 0.0
C522 C 0.02128 0.44016 0.41386 0.0
H523 H 0.95781 0.45941 0.35642 0.0
H524 H 0.97485 0.43953 0.36638 0.0
H525 H 0.941 0.43128 0.38043 0.0
H526 H 0.94896 0.40861 0.41844 0.0
H527 H 0.95264 0.36599 0.41055 0.0
H528 H 0.57709 0.96231 0.71568 0.0
H529 H 0.53249 0.96204 0.72353 0.0
H530 H 0.5789 0.04546 0.75919 0.0
H531 H 0.62401 0.04602 0.75138 0.0
H532 H 0.51935 0.99583 0.78439 0.0
H533 H 0.52176 0.02473 0.6776 0.0
H534 H 0.52937 0.9967 0.68528 0.0
H535 H 0.55368 0.03251 0.69576 0.0
C536 C 0.57789 0.98046 0.72561 0.0
C537 C 0.60415 0.00434 0.73267 0.0
C538 C 0.55234 0.98019 0.73013 0.0
C539 C 0.55251 0.00375 0.74181 0.0
C540 C 0.57844 0.02704 0.75022 0.0
H541 H 0.41867 0.04464 0.72069 0.0
H542 H 0.46423 0.04721 0.7293 0.0
C543 C 0.60415 0.02734 0.74571 0.0
C544 C 0.52588 0.00505 0.74248 0.0
H545 H 0.48022 0.01352 0.70177 0.0
C546 C 0.51078 0.99988 0.76644 0.0
C547 C 0.51498 0.01044 0.71901 0.0
C548 C 0.53076 0.0166 0.6929 0.0
C549 C 0.48461 0.99952 0.76736 0.0
C550 C 0.47336 0.00423 0.74369 0.0
C551 C 0.48884 0.00987 0.71989 0.0
C552 C 0.44563 0.00353 0.74275 0.0
C553 C 0.46933 0.99437 0.79361 0.0
C554 C 0.41995 0.97824 0.74802 0.0
C555 C 0.3937 0.9767 0.74317 0.0
C556 C 0.39282 1.00036 0.73271 0.0
C557 C 0.41859 0.02597 0.72861 0.0
C558 C 0.44469 0.02751 0.73355 0.0
H559 H 0.48383 0.99813 0.81071 0.0
H560 H 0.45988 0.00835 0.79574 0.0
H561 H 0.45175 0.97187 0.79449 0.0
H562 H 0.42018 0.95932 0.75467 0.0
H563 H 0.37422 0.95665 0.7464 0.0
H564 H 0.37906 0.41848 0.04678 0.0
H565 H 0.42312 0.46364 0.05354 0.0
H566 H 0.4636 0.41871 0.08534 0.0
H567 H 0.41933 0.37306 0.07865 0.0
H568 H 0.475 0.4756 0.11241 0.0
H569 H 0.49316 0.47888 1.00313 0.0
H570 H 0.45834 0.47156 0.01354 0.0
H571 H 0.46968 0.44623 0.02057 0.0
C572 C 0.39714 0.41811 0.05561 0.0
C573 C 0.39579 0.39212 0.06192 0.0
C574 C 0.42228 0.44398 0.05949 0.0
C575 C 0.44658 0.44442 0.06972 0.0
C576 C 0.44497 0.41872 0.07744 0.0
H577 H 0.61931 0.57923 0.04339 0.0
H578 H 0.57625 0.53358 0.0512 0.0
C579 C 0.41972 0.3927 0.07357 0.0
C580 C 0.47417 0.47145 0.06978 0.0
H581 H 0.52467 0.51974 0.02773 0.0
C582 C 0.48601 0.48528 0.09397 0.0
C583 C 0.48845 0.4838 0.04566 0.0
C584 C 0.47698 0.46936 0.0192 0.0
C585 C 0.51172 0.51157 0.09458 0.0
C586 C 0.52564 0.52421 0.07036 0.0
C587 C 0.5139 0.51007 0.04627 0.0
C588 C 0.55274 0.55185 0.06922 0.0
C589 C 0.52397 0.52542 0.12105 0.0
C590 C 0.55401 0.57734 0.07718 0.0
C591 C 0.57877 0.60366 0.07276 0.0
C592 C 0.60248 0.60482 0.0601 0.0
C593 C 0.60139 0.57914 0.05306 0.0
C594 C 0.57679 0.55298 0.05754 0.0
H595 H 0.51436 0.51011 0.1378 0.0
H596 H 0.54745 0.53446 0.12141 0.0
H597 H 0.5196 0.54316 0.12425 0.0
H598 H 0.53551 0.57698 0.0858 0.0
H599 H 0.57893 0.62308 0.0783 0.0
H600 H 0.08144 0.73426 0.38387 0.0
H601 H 0.12462 0.7788 0.37256 0.0
H602 H 0.07625 0.82233 0.36997 0.0
H603 H 0.03296 0.77801 0.38144 0.0
H604 H 0.12779 0.80659 0.32361 0.0
H605 H 0.14958 0.87863 0.41003 0.0
H606 H 0.12744 0.84034 0.41249 0.0
H607 H 0.11347 0.86121 0.39802 0.0
C608 C 0.08007 0.75345 0.38168 0.0
C609 C 0.05364 0.75247 0.38336 0.0
C610 C 0.10478 0.77886 0.37509 0.0
C611 C 0.10359 0.80379 0.37038 0.0
C612 C 0.07768 0.80338 0.37381 0.0
H613 H 0.22644 0.97278 0.31325 0.0
H614 H 0.18212 0.92928 0.32445 0.0
C615 C 0.05293 0.77797 0.38034 0.0
C616 C 0.1286 0.82927 0.35912 0.0
H617 H 0.17595 0.89954 0.37065 0.0
C618 C 0.13845 0.82691 0.33393 0.0
C619 C 0.14216 0.85575 0.3725 0.0
C620 C 0.13284 0.85922 0.39986 0.0
C621 C 0.16142 0.85045 0.32163 0.0
C622 C 0.17521 0.87688 0.33513 0.0
C623 C 0.16523 0.87927 0.36027 0.0
C624 C 0.20084 0.9021 0.32421 0.0
C625 C 0.17036 0.84689 0.29412 0.0
C626 C 0.22584 0.90104 0.31951 0.0
C627 C 0.25117 0.92581 0.31289 0.0
C628 C 0.25205 0.9522 0.3112 0.0
C629 C 0.22656 0.95285 0.31439 0.0
C630 C 0.20121 0.92803 0.32094 0.0
H631 H 0.15274 0.82853 0.2835 0.0
H632 H 0.17741 0.86643 0.28195 0.0
H633 H 0.18844 0.84279 0.2958 0.0
H634 H 0.22617 0.88137 0.32235 0.0
H635 H 0.27039 0.92451 0.3107 0.0
H636 H 0.24103 0.22309 0.64582 0.0
H637 H 0.23723 0.17742 0.65755 0.0
H638 H 0.32883 0.21678 0.65667 0.0
H639 H 0.333 0.26251 0.64488 0.0
H640 H 0.26441 0.14448 0.63321 0.0
H641 H 0.29935 0.18649 0.73572 0.0
H642 H 0.28489 0.20179 0.71282 0.0
H643 H 0.32078 0.20884 0.70879 0.0
C644 C 0.26038 0.22193 0.64745 0.0
C645 C 0.28735 0.24658 0.64474 0.0
C646 C 0.25813 0.19582 0.65422 0.0
C647 C 0.28277 0.19402 0.65845 0.0
C648 C 0.30961 0.21797 0.6538 0.0
H649 H 0.32806 0.07464 0.71921 0.0
H650 H 0.32442 0.11651 0.70785 0.0
C651 C 0.31191 0.24403 0.64691 0.0
C652 C 0.28061 0.16781 0.66971 0.0
H653 H 0.29403 0.14133 0.72615 0.0
C654 C 0.27065 0.1436 0.65356 0.0
C655 C 0.28876 0.16694 0.69628 0.0
C656 C 0.29888 0.19229 0.71458 0.0
C657 C 0.26958 0.11867 0.66305 0.0
C658 C 0.27799 0.11785 0.68962 0.0
C659 C 0.28745 0.14198 0.70588 0.0
C660 C 0.279 0.09283 0.70025 0.0
C661 C 0.26055 0.09389 0.64422 0.0
C662 C 0.25438 0.06582 0.70118 0.0
C663 C 0.25638 0.04173 0.7076 0.0
C664 C 0.28303 0.04435 0.7134 0.0
C665 C 0.30722 0.07178 0.7147 0.0
C666 C 0.3052 0.09578 0.70813 0.0
H667 H 0.26121 0.10035 0.62312 0.0
H668 H 0.27446 0.08435 0.64645 0.0
H669 H 0.23833 0.0772 0.64884 0.0
H670 H 0.2338 0.06322 0.69591 0.0
H671 H 0.23727 0.02097 0.70666 0.0
H672 H 0.21783 0.2377 0.04235 0.0
H673 H 0.17228 0.23462 0.03151 0.0
H674 H 0.21057 0.32553 0.04149 0.0
H675 H 0.25617 0.32898 0.05247 0.0
H676 H 0.1392 0.2632 0.06075 0.0
H677 H 0.18234 0.29917 0.95861 0.0
H678 H 0.19517 0.28128 0.9802 0.0
H679 H 0.20509 0.31768 0.98649 0.0
C680 C 0.21642 0.25696 0.04298 0.0
C681 C 0.24078 0.28365 0.04796 0.0
C682 C 0.19039 0.25513 0.03672 0.0
C683 C 0.18836 0.27991 0.03535 0.0
C684 C 0.21193 0.30623 0.0423 0.0
H685 H 0.07319 0.33099 0.97465 0.0
H686 H 0.11409 0.32578 0.98643 0.0
C687 C 0.23792 0.30811 0.04867 0.0
C688 C 0.16258 0.27876 0.02423 0.0
H689 H 0.13726 0.29385 0.96795 0.0
C690 C 0.13856 0.26967 0.04044 0.0
C691 C 0.1621 0.28728 0.99773 0.0
C692 C 0.18744 0.2968 0.97956 0.0
C693 C 0.11413 0.26968 0.03101 0.0
C694 C 0.11365 0.27837 1.00447 0.0
C695 C 0.13763 0.28704 0.98819 0.0
C696 C 0.08918 0.28039 0.99387 0.0
C697 C 0.08953 0.26147 0.04985 0.0
C698 C 0.0618 0.25631 0.99279 0.0
C699 C 0.03829 0.2592 0.98612 0.0
C700 C 0.04184 0.28622 0.98021 0.0
C701 C 0.06962 0.30989 0.9792 0.0
C702 C 0.09306 0.30698 0.98601 0.0
H703 H 0.09591 0.26184 0.07095 0.0
H704 H 0.08077 0.27604 0.04768 0.0
H705 H 0.07228 0.23949 0.0452 0.0
H706 H 0.05847 0.23545 0.99805 0.0
H707 H 0.01722 0.24048 0.98684 0.0
H708 H 0.98854 0.22879 0.34642 0.0
H709 H 0.94765 0.18293 0.3349 0.0
H710 H 0.89988 0.19118 0.39959 0.0
H711 H 0.94037 0.23834 0.4101 0.0
H712 H 0.91602 0.13366 0.35435 0.0
H713 H 0.84843 0.18274 0.34012 0.0
H714 H 0.88601 0.20368 0.34714 0.0
H715 H 0.86079 0.18633 0.37375 0.0
C716 C 0.96952 0.22071 0.35853 0.0
C717 C 0.96752 0.23741 0.37893 0.0
C718 C 0.94605 0.19441 0.35185 0.0
C719 C 0.92026 0.18398 0.36574 0.0
C720 C 0.91914 0.19933 0.38784 0.0
H721 H 0.77707 0.0134 0.34782 0.0
H722 H 0.82313 0.05476 0.35772 0.0
C723 C 0.9424 0.22609 0.39409 0.0
C724 C 0.89439 0.15796 0.35601 0.0
H725 H 0.82504 0.13229 0.33778 0.0
C726 C 0.89616 0.13342 0.35059 0.0
C727 C 0.86868 0.15782 0.35024 0.0
C728 C 0.86592 0.18415 0.35282 0.0
C729 C 0.87293 0.10872 0.33999 0.0
C730 C 0.84667 0.10799 0.3359 0.0
C731 C 0.84504 0.13265 0.34101 0.0
C732 C 0.82023 0.08175 0.32745 0.0
C733 C 0.87719 0.08406 0.33265 0.0
C734 C 0.8028 0.08297 0.30728 0.0
C735 C 0.77583 0.05948 0.30217 0.0
C736 C 0.76606 0.03416 0.31679 0.0
C737 C 0.78417 0.03244 0.33586 0.0
C738 C 0.81072 0.05612 0.34147 0.0
H739 H 0.89971 0.09166 0.32704 0.0
H740 H 0.87224 0.06982 0.35015 0.0
H741 H 0.86325 0.0715 0.31583 0.0
H742 H 0.80961 0.10248 0.29615 0.0
H743 H 0.76229 0.06143 0.28742 0.0
H744 H 0.75726 0.78051 0.64966 0.0
H745 H 0.75829 0.82492 0.66117 0.0
H746 H 0.6664 0.78048 0.66265 0.0
H747 H 0.66501 0.73594 0.65125 0.0
H748 H 0.73108 0.85525 0.63802 0.0
H749 H 0.69266 0.81283 0.73967 0.0
H750 H 0.70705 0.79711 0.71729 0.0
H751 H 0.67132 0.79045 0.71275 0.0
C752 C 0.73724 0.78025 0.65184 0.0
C753 C 0.71105 0.75455 0.64989 0.0
C754 C 0.73789 0.80564 0.6585 0.0
C755 C 0.71244 0.80572 0.66336 0.0
C756 C 0.68627 0.78064 0.65946 0.0
H757 H 0.66462 0.92582 0.719 0.0
H758 H 0.66765 0.88345 0.70818 0.0
C759 C 0.68556 0.75526 0.65276 0.0
C760 C 0.71324 0.83153 0.67407 0.0
H761 H 0.69679 0.85739 0.72913 0.0
C762 C 0.72375 0.85586 0.65796 0.0
C763 C 0.70374 0.83213 0.70016 0.0
C764 C 0.69326 0.80685 0.71863 0.0
C765 C 0.72421 0.88062 0.66699 0.0
C766 C 0.71451 0.88117 0.69304 0.0
C767 C 0.7043 0.85691 0.70924 0.0
C768 C 0.71348 0.90628 0.70326 0.0
C769 C 0.73418 0.90563 0.64824 0.0
C770 C 0.73843 0.93291 0.70549 0.0
C771 C 0.73681 0.95723 0.71166 0.0
C772 C 0.71018 0.95527 0.71585 0.0
C773 C 0.68546 0.92816 0.71575 0.0
C774 C 0.68713 0.9039 0.70949 0.0
H775 H 0.73454 0.8994 0.62724 0.0
H776 H 0.72022 0.91518 0.64959 0.0
H777 H 0.75616 0.92224 0.65376 0.0
H778 H 0.75906 0.93504 0.70144 0.0
H779 H 0.75629 0.97772 0.7118 0.0
H780 H 0.78159 0.75674 0.04734 0.0
H781 H 0.82677 0.75885 0.03718 0.0
H782 H 0.78535 0.66717 0.04158 0.0
H783 H 0.74003 0.66469 0.05165 0.0
H784 H 0.85938 0.73504 0.06279 0.0
H785 H 0.81558 0.68902 0.96325 0.0
H786 H 0.79949 0.70403 0.98443 0.0
H787 H 0.79419 0.66912 0.99124 0.0
C788 C 0.78217 0.73704 0.04679 0.0
C789 C 0.75706 0.71051 0.04991 0.0
C790 C 0.80801 0.73831 0.04091 0.0
C791 C 0.80911 0.71313 0.03802 0.0
C792 C 0.7847 0.68679 0.04326 0.0
H793 H 0.93261 0.66829 0.9859 0.0
H794 H 0.88956 0.66993 0.99694 0.0
C795 C 0.75887 0.68547 0.04919 0.0
C796 C 0.83518 0.71424 0.02766 0.0
H797 H 0.86113 0.69581 0.97397 0.0
C798 C 0.85989 0.72661 0.04335 0.0
C799 C 0.83565 0.70332 1.00221 0.0
C800 C 0.80992 0.69081 0.98413 0.0
C801 C 0.88497 0.72758 0.03456 0.0
C802 C 0.8854 0.71647 1.00916 0.0
C803 C 0.86073 0.70438 0.99337 0.0
C804 C 0.91087 0.71597 0.99922 0.0
C805 C 0.9105 0.73968 0.05288 0.0
C806 C 0.93681 0.74139 0.99553 0.0
C807 C 0.96151 0.74055 0.98921 0.0
C808 C 0.96062 0.71425 0.98634 0.0
C809 C 0.93413 0.6889 0.9881 0.0
C810 C 0.90949 0.68979 0.99449 0.0
H811 H 0.90461 0.74114 0.07376 0.0
H812 H 0.92086 0.72641 0.05249 0.0
H813 H 0.92634 0.76149 0.04616 0.0
H814 H 0.93812 0.76184 0.99843 0.0
H815 H 0.98152 0.76051 0.9878 0.0
H816 H 0.36646 0.01877 0.40541 0.0
H817 H 0.35837 0.00762 0.45274 0.0
H818 H 0.3025 0.04286 0.4557 0.0
H819 H 0.31041 0.05415 0.40803 0.0
H820 H 0.34162 0.05591 0.50135 0.0
H821 H 0.27873 0.94052 0.47717 0.0
H822 H 0.31332 0.95911 0.46184 0.0
H823 H 0.28664 0.96812 0.45287 0.0
C824 C 0.35285 0.02469 0.41614 0.0
C825 C 0.33884 0.03711 0.4028 0.0
C826 C 0.34812 0.01811 0.44319 0.0
C827 C 0.32931 0.02377 0.45751 0.0
C828 C 0.31689 0.03807 0.44486 0.0
H829 H 0.2563 0.94877 0.61296 0.0
H830 H 0.262 0.96133 0.56553 0.0
C831 C 0.32158 0.04467 0.41767 0.0
C832 C 0.32172 0.01342 0.48528 0.0
H833 H 0.2912 0.95247 0.52269 0.0
C834 C 0.33043 0.03332 0.50604 0.0
C835 C 0.30666 0.9839 0.4913 0.0
C836 C 0.29552 0.9616 0.46965 0.0
C837 C 0.32547 0.02447 0.53277 0.0
C838 C 0.31178 0.99497 0.53883 0.0
C839 C 0.30202 0.97505 0.51802 0.0
C840 C 0.30813 0.98457 0.56669 0.0
C841 C 0.33494 0.0468 0.55432 0.0
C842 C 0.33213 0.9922 0.58268 0.0
C843 C 0.32897 0.98497 0.60963 0.0
C844 C 0.30169 0.96979 0.62119 0.0
C845 C 0.27759 0.9604 0.6047 0.0
C846 C 0.28081 0.96773 0.57764 0.0
H847 H 0.33787 0.06731 0.54651 0.0
H848 H 0.31926 0.03949 0.57085 0.0
H849 H 0.35569 0.05085 0.5625 0.0
H850 H 0.3534 0.00454 0.57447 0.0
H851 H 0.348 0.99235 0.62167 0.0
H852 H 0.35438 0.34456 0.95345 0.0
H853 H 0.34637 0.34958 0.90648 0.0
H854 H 0.2973 0.25812 0.89852 0.0
H855 H 0.30522 0.25278 0.94582 0.0
H856 H 0.3358 0.28833 0.8546 0.0
H857 H 0.2662 0.3328 0.88076 0.0
H858 H 0.30056 0.35044 0.89663 0.0
H859 H 0.27574 0.31377 0.90438 0.0
C860 C 0.34226 0.32542 0.94169 0.0
C861 C 0.3302 0.29824 0.95352 0.0
C862 C 0.33754 0.32837 0.91486 0.0
C863 C 0.32062 0.30426 0.89923 0.0
C864 C 0.31016 0.27702 0.91037 0.0
H865 H 0.25028 0.30733 0.74228 0.0
H866 H 0.2546 0.29903 0.78968 0.0
C867 C 0.31487 0.274 0.93735 0.0
C868 C 0.31322 0.30782 0.87157 0.0
H869 H 0.28057 0.33699 0.83535 0.0
C870 C 0.32354 0.29875 0.85037 0.0
C871 C 0.29681 0.32102 0.86611 0.0
C872 C 0.28392 0.32985 0.88814 0.0
C873 C 0.3189 0.30361 0.82383 0.0
C874 C 0.30381 0.31818 0.81841 0.0
C875 C 0.29244 0.32617 0.83957 0.0
C876 C 0.30049 0.32599 0.79084 0.0
C877 C 0.33029 0.2932 0.80176 0.0
C878 C 0.32464 0.34507 0.77626 0.0
C879 C 0.32224 0.35001 0.74935 0.0
C880 C 0.2956 0.336 0.73643 0.0
C881 C 0.2711 0.31854 0.7516 0.0
C882 C 0.27355 0.3136 0.77864 0.0
H883 H 0.3349 0.27646 0.80882 0.0
H884 H 0.3149 0.2845 0.78497 0.0
H885 H 0.35045 0.31135 0.79413 0.0
H886 H 0.34554 0.35535 0.78546 0.0
H887 H 0.34154 0.36378 0.73837 0.0
H888 H 0.0627 0.34144 0.27874 0.0
H889 H 0.05227 0.33916 0.23094 0.0
H890 H 0.97024 0.33019 0.24871 0.0
H891 H 0.98079 0.33351 0.29594 0.0
H892 H 0.01111 0.29624 0.20339 0.0
H893 H 0.99668 0.38983 0.19238 0.0
H894 H 0.01214 0.38397 0.22184 0.0
H895 H 0.97397 0.3663 0.21787 0.0
C896 C 0.04274 0.33964 0.27241 0.0
C897 C 0.02271 0.33785 0.29126 0.0
C898 C 0.03671 0.33817 0.24509 0.0
C899 C 0.0106 0.33491 0.23614 0.0
C900 C 0.99083 0.3335 0.25495 0.0
H901 H 0.93635 0.26482 0.07952 0.0
H902 H 0.94524 0.27147 0.1276 0.0
C903 C 0.99691 0.33525 0.2821 0.0
C904 C 0.00308 0.33123 0.20734 0.0
H905 H 0.97751 0.35519 0.15741 0.0
C906 C 0.00401 0.3093 0.19326 0.0
C907 C 0.99401 0.34838 0.19401 0.0
C908 C 0.99443 0.37362 0.20725 0.0
C909 C 0.9958 0.30382 0.16638 0.0
C910 C 0.98546 0.32014 0.1534 0.0
C911 C 0.98488 0.34228 0.16743 0.0
C912 C 0.97735 0.31618 0.12473 0.0
C913 C 0.99906 0.28113 0.15202 0.0
C914 C 0.99097 0.33943 0.1073 0.0
C915 C 0.98543 0.33586 0.08004 0.0
C916 C 0.96623 0.30886 0.06939 0.0
C917 C 0.95135 0.28585 0.087 0.0
C918 C 0.95673 0.28955 0.11447 0.0
H919 H 0.0142 0.2762 0.16246 0.0
H920 H 0.97807 0.26122 0.15116 0.0
H921 H 0.00675 0.2878 0.13134 0.0
H922 H 0.00676 0.36025 0.11466 0.0
H923 H 0.99721 0.35417 0.0672 0.0
H924 H 0.68292 0.9419 0.41589 0.0
H925 H 0.68775 0.95388 0.46337 0.0
H926 H 0.65336 0.00947 0.44944 0.0
H927 H 0.64884 0.99799 0.40212 0.0
H928 H 0.70449 0.03609 0.47647 0.0
H929 H 0.62981 0.93212 0.52348 0.0
H930 H 0.6554 0.93126 0.50133 0.0
H931 H 0.62882 0.93868 0.48837 0.0
C932 C 0.67568 0.95608 0.42306 0.0
C933 C 0.66553 0.96901 0.40519 0.0
C934 C 0.67851 0.96295 0.45022 0.0
C935 C 0.6709 0.98258 0.45997 0.0
C936 C 0.65948 0.99439 0.44235 0.0
H937 H 0.65284 0.01886 0.6235 0.0
H938 H 0.64722 0.00836 0.57595 0.0
C939 C 0.65679 0.98767 0.4153 0.0
C940 C 0.67651 0.99242 0.48808 0.0
H941 H 0.65967 0.96997 0.55242 0.0
C942 C 0.69467 0.02164 0.4931 0.0
C943 C 0.66359 0.97358 0.50972 0.0
C944 C 0.64312 0.94219 0.50556 0.0
C945 C 0.70018 0.03255 0.51915 0.0
C946 C 0.68751 0.01366 0.54081 0.0
C947 C 0.66943 0.98443 0.53579 0.0
C948 C 0.69198 0.02367 0.56887 0.0
C949 C 0.71895 0.06425 0.52322 0.0
C950 C 0.7192 0.03667 0.58059 0.0
C951 C 0.72256 0.04302 0.60787 0.0
C952 C 0.69867 0.03611 0.6239 0.0
C953 C 0.67169 0.02441 0.61176 0.0
C954 C 0.6684 0.01825 0.58458 0.0
H955 H 0.72115 0.0764 0.50469 0.0
H956 H 0.71035 0.07204 0.53915 0.0
H957 H 0.74055 0.06887 0.52934 0.0
H958 H 0.73767 0.04069 0.56895 0.0
H959 H 0.74357 0.0517 0.61663 0.0
H960 H 0.63936 0.66138 0.95185 0.0
H961 H 0.64795 0.65749 0.90467 0.0
H962 H 0.7136 0.746 0.90358 0.0
H963 H 0.70501 0.75024 0.9509 0.0
H964 H 0.65347 0.699 0.85638 0.0
H965 H 0.74851 0.68987 0.88356 0.0
H966 H 0.71945 0.67997 0.90661 0.0
H967 H 0.74316 0.71684 0.89918 0.0
C968 C 0.65515 0.68024 0.94145 0.0
C969 C 0.67154 0.70612 0.95516 0.0
C970 C 0.66008 0.67793 0.91452 0.0
C971 C 0.68164 0.70134 0.90084 0.0
C972 C 0.69696 0.72766 0.91393 0.0
H973 H 0.75398 0.7056 0.74427 0.0
H974 H 0.74798 0.71388 0.79116 0.0
C975 C 0.69184 0.7301 0.94089 0.0
C976 C 0.68913 0.69749 0.87341 0.0
H977 H 0.73543 0.68436 0.83836 0.0
C978 C 0.67146 0.69595 0.85235 0.0
C979 C 0.71271 0.69369 0.86832 0.0
C980 C 0.73215 0.69506 0.89051 0.0
C981 C 0.67665 0.69055 0.8262 0.0
C982 C 0.69962 0.68561 0.82118 0.0
C983 C 0.71769 0.68782 0.84224 0.0
C984 C 0.705 0.67808 0.79417 0.0
C985 C 0.65769 0.6906 0.80417 0.0
C986 C 0.68357 0.65419 0.78079 0.0
C987 C 0.6869 0.64947 0.75403 0.0
C988 C 0.71196 0.66828 0.74021 0.0
C989 C 0.73448 0.69063 0.75435 0.0
C990 C 0.73099 0.69553 0.78112 0.0
H991 H 0.64705 0.70285 0.80985 0.0
H992 H 0.67 0.69991 0.7856 0.0
H993 H 0.64079 0.66834 0.79998 0.0
H994 H 0.66371 0.63988 0.7907 0.0
H995 H 0.66924 0.63193 0.74376 0.0
H996 H 0.96184 0.70181 0.28603 0.0
H997 H 0.97457 0.71001 0.2387 0.0
H998 H 0.99409 0.64197 0.23967 0.0
H999 H 0.98182 0.63383 0.28694 0.0
H1000 H 0.03501 0.72137 0.22138 0.0
H1001 H 0.94229 0.6316 0.17036 0.0
H1002 H 0.93889 0.64583 0.20181 0.0
H1003 H 0.95488 0.62375 0.20066 0.0
C1004 C 0.96803 0.68803 0.27599 0.0
C1005 C 0.97081 0.66715 0.29025 0.0
C1006 C 0.97552 0.69292 0.24902 0.0
C1007 C 0.98535 0.67665 0.2358 0.0
C1008 C 0.98647 0.65468 0.24953 0.0
H1009 H 0.04085 0.66759 0.0772 0.0
H1010 H 0.02905 0.66141 0.12454 0.0
C1011 C 0.97937 0.65002 0.27652 0.0
C1012 C 0.9967 0.68398 0.20835 0.0
H1013 H 0.98309 0.65998 0.14433 0.0
C1014 C 0.02365 0.70813 0.20442 0.0
C1015 C 0.98192 0.66646 0.18648 0.0
C1016 C 0.9528 0.64049 0.1898 0.0
C1017 C 0.03657 0.71488 0.17916 0.0
C1018 C 0.02176 0.69734 0.15714 0.0
C1019 C 0.99458 0.67337 0.16116 0.0
C1020 C 0.03373 0.70325 0.12969 0.0
C1021 C 0.06629 0.74012 0.17656 0.0
C1022 C 0.04148 0.72928 0.11697 0.0
C1023 C 0.04887 0.73309 0.08995 0.0
C1024 C 0.04801 0.7107 0.07503 0.0
C1025 C 0.04177 0.68527 0.08815 0.0
C1026 C 0.03481 0.68163 0.11519 0.0
H1027 H 0.07778 0.74563 0.19591 0.0
H1028 H 0.07901 0.73596 0.16178 0.0
H1029 H 0.06494 0.75895 0.16984 0.0
H1030 H 0.04026 0.74609 0.12748 0.0
H1031 H 0.05309 0.75274 0.08033 0.0
loop_
_geom_bond_atom_site_label_1
_geom_bond_atom_site_label_2
_geom_bond_distance
_geom_bond_site_symmetry_2
_ccdc_geom_bond_type
O0 Cd1 2.223 . S
O0 C8 1.315 1_545 S
Cd1 O0 2.223 . S
Cd1 O4 2.297 . S
Cd1 O5 2.439 . S
Cd1 O11 2.240 . S
Cd2 O3 2.240 . S
Cd2 O10 2.223 . S
Cd2 O12 2.297 . S
Cd2 O13 2.439 1_565 S
O3 Cd2 2.240 . S
O3 C8 1.279 . S
O4 Cd1 2.297 . S
O4 C6 1.247 . S
O5 Cd1 2.439 . S
O5 C6 1.208 . S
C6 O4 1.247 . S
C6 O5 1.208 . S
C7 O12 1.246 1_545 S
C7 O13 1.208 . S
C8 O0 1.315 1_565 S
C8 O3 1.279 . S
C9 O10 1.315 1_545 S
C9 O11 1.279 . S
O10 Cd2 2.223 . S
O10 C9 1.315 1_565 S
O11 Cd1 2.240 . S
O11 C9 1.279 . S
O12 Cd2 2.297 . S
O12 C7 1.246 1_565 S
O13 Cd2 2.439 1_545 S
O13 C7 1.208 . S
O14 Cd15 2.223 . S
O14 C22 1.315 . S
Cd15 O14 2.223 . S
Cd15 O18 2.297 . S
Cd15 O19 2.439 . S
Cd15 O25 2.240 . S
Cd16 O17 2.240 . S
Cd16 O24 2.223 . S
Cd16 O26 2.297 . S
Cd16 O27 2.439 . S
O17 Cd16 2.240 . S
O17 C22 1.279 . S
O18 Cd15 2.297 . S
O18 C20 1.247 . S
O19 Cd15 2.439 . S
O19 C20 1.208 . S
C20 O18 1.247 . S
C20 O19 1.208 . S
C21 O26 1.247 . S
C21 O27 1.208 . S
C22 O14 1.315 . S
C22 O17 1.279 . S
C23 O24 1.315 . S
C23 O25 1.279 . S
O24 Cd16 2.223 . S
O24 C23 1.315 . S
O25 Cd15 2.240 . S
O25 C23 1.279 . S
O26 Cd16 2.297 . S
O26 C21 1.247 . S
O27 Cd16 2.439 . S
O27 C21 1.208 . S
O28 Cd29 2.223 1_554 S
O28 C36 1.315 1_654 S
Cd29 O28 2.223 1_556 S
Cd29 O32 2.297 . S
Cd29 O33 2.439 . S
Cd29 O39 2.240 1_556 S
Cd30 O31 2.240 . S
Cd30 O38 2.223 1_556 S
Cd30 O40 2.299 1_556 S
Cd30 O41 2.439 1_455 S
O31 Cd30 2.240 . S
O31 C36 1.279 . S
O32 Cd29 2.297 . S
O32 C34 1.247 . S
O33 Cd29 2.439 . S
O33 C34 1.208 . S
C34 O32 1.247 . S
C34 O33 1.208 . S
C35 O40 1.246 1_656 S
C35 O41 1.208 . S
C36 O28 1.315 1_456 S
C36 O31 1.279 . S
C37 O38 1.315 1_655 S
C37 O39 1.279 . S
O38 Cd30 2.223 1_554 S
O38 C37 1.315 1_455 S
O39 Cd29 2.240 1_554 S
O39 C37 1.279 . S
O40 Cd30 2.299 1_554 S
O40 C35 1.246 1_454 S
O41 Cd30 2.439 1_655 S
O41 C35 1.208 . S
O42 Cd43 2.223 . S
O42 C50 1.315 1_565 S
Cd43 O42 2.223 . S
Cd43 O46 2.297 . S
Cd43 O47 2.439 . S
Cd43 O53 2.240 . S
Cd44 O45 2.240 . S
Cd44 O52 2.223 . S
Cd44 O54 2.297 . S
Cd44 O55 2.439 1_545 S
O45 Cd44 2.240 . S
O45 C50 1.279 . S
O46 Cd43 2.297 . S
O46 C48 1.247 . S
O47 Cd43 2.439 . S
O47 C48 1.208 . S
C48 O46 1.247 . S
C48 O47 1.208 . S
C49 O54 1.246 1_565 S
C49 O55 1.208 . S
C50 O42 1.315 1_545 S
C50 O45 1.279 . S
C51 O52 1.315 1_565 S
C51 O53 1.279 . S
O52 Cd44 2.223 . S
O52 C51 1.315 1_545 S
O53 Cd43 2.240 . S
O53 C51 1.279 . S
O54 Cd44 2.297 . S
O54 C49 1.246 1_545 S
O55 Cd44 2.439 1_565 S
O55 C49 1.208 . S
O56 Cd57 2.223 . S
O56 C64 1.315 . S
Cd57 O56 2.223 . S
Cd57 O60 2.297 . S
Cd57 O61 2.439 . S
Cd57 O67 2.240 . S
Cd58 O59 2.240 . S
Cd58 O66 2.223 . S
Cd58 O68 2.297 . S
Cd58 O69 2.439 . S
O59 Cd58 2.240 . S
O59 C64 1.279 . S
O60 Cd57 2.297 . S
O60 C62 1.247 . S
O61 Cd57 2.439 . S
O61 C62 1.208 . S
C62 O60 1.247 . S
C62 O61 1.208 . S
C63 O68 1.247 . S
C63 O69 1.208 . S
C64 O56 1.315 . S
C64 O59 1.279 . S
C65 O66 1.315 . S
C65 O67 1.279 . S
O66 Cd58 2.223 . S
O66 C65 1.315 . S
O67 Cd57 2.240 . S
O67 C65 1.279 . S
O68 Cd58 2.297 . S
O68 C63 1.247 . S
O69 Cd58 2.439 . S
O69 C63 1.208 . S
O70 Cd71 2.223 1_554 S
O70 C78 1.315 1_454 S
Cd71 O70 2.223 1_556 S
Cd71 O74 2.297 . S
Cd71 O75 2.439 . S
Cd71 O81 2.240 1_556 S
Cd72 O73 2.240 . S
Cd72 O80 2.223 1_556 S
Cd72 O82 2.299 1_556 S
Cd72 O83 2.439 1_655 S
O73 Cd72 2.240 . S
O73 C78 1.279 . S
O74 Cd71 2.297 . S
O74 C76 1.247 . S
O75 Cd71 2.439 . S
O75 C76 1.208 . S
C76 O74 1.247 . S
C76 O75 1.208 . S
C77 O82 1.246 1_456 S
C77 O83 1.208 . S
C78 O70 1.315 1_656 S
C78 O73 1.279 . S
C79 O80 1.315 1_455 S
C79 O81 1.279 . S
O80 Cd72 2.223 1_554 S
O80 C79 1.315 1_655 S
O81 Cd71 2.240 1_554 S
O81 C79 1.279 . S
O82 Cd72 2.299 1_554 S
O82 C77 1.246 1_654 S
O83 Cd72 2.439 1_455 S
O83 C77 1.208 . S
O84 Cd85 2.223 . S
O84 C92 1.315 1_655 S
Cd85 O84 2.223 . S
Cd85 O88 2.297 . S
Cd85 O89 2.439 . S
Cd85 O95 2.240 . S
Cd86 O87 2.240 . S
Cd86 O94 2.223 . S
Cd86 O96 2.297 . S
Cd86 O97 2.439 1_455 S
O87 Cd86 2.240 . S
O87 C92 1.279 . S
O88 Cd85 2.297 . S
O88 C90 1.247 . S
O89 Cd85 2.439 . S
O89 C90 1.208 . S
C90 O88 1.247 . S
C90 O89 1.208 . S
C91 O96 1.246 1_655 S
C91 O97 1.208 . S
C92 O84 1.315 1_455 S
C92 O87 1.279 . S
C93 O94 1.315 1_655 S
C93 O95 1.279 . S
O94 Cd86 2.223 . S
O94 C93 1.315 1_455 S
O95 Cd85 2.240 . S
O95 C93 1.279 . S
O96 Cd86 2.297 . S
O96 C91 1.246 1_455 S
O97 Cd86 2.439 1_655 S
O97 C91 1.208 . S
O98 Cd99 2.223 . S
O98 C106 1.315 1_565 S
Cd99 O98 2.223 . S
Cd99 O102 2.297 . S
Cd99 O103 2.439 . S
Cd99 O109 2.240 . S
Cd100 O101 2.240 . S
Cd100 O108 2.223 . S
Cd100 O110 2.299 . S
Cd100 O111 2.439 1_545 S
O101 Cd100 2.240 . S
O101 C106 1.279 . S
O102 Cd99 2.297 . S
O102 C104 1.247 . S
O103 Cd99 2.439 . S
O103 C104 1.208 . S
C104 O102 1.247 . S
C104 O103 1.208 . S
C105 O110 1.246 1_565 S
C105 O111 1.208 . S
C106 O98 1.315 1_545 S
C106 O101 1.279 . S
C107 O108 1.315 1_565 S
C107 O109 1.279 . S
O108 Cd100 2.223 . S
O108 C107 1.315 1_545 S
O109 Cd99 2.240 . S
O109 C107 1.279 . S
O110 Cd100 2.299 . S
O110 C105 1.246 1_545 S
O111 Cd100 2.439 1_565 S
O111 C105 1.208 . S
O112 Cd113 2.223 . S
O112 C120 1.315 . S
Cd113 O112 2.223 . S
Cd113 O116 2.297 . S
Cd113 O117 2.439 . S
Cd113 O123 2.240 1_554 S
Cd114 O115 2.240 . S
Cd114 O122 2.223 1_554 S
Cd114 O124 2.297 1_554 S
Cd114 O125 2.439 . S
O115 Cd114 2.240 . S
O115 C120 1.279 . S
O116 Cd113 2.297 . S
O116 C118 1.247 . S
O117 Cd113 2.439 . S
O117 C118 1.208 . S
C118 O116 1.247 . S
C118 O117 1.208 . S
C119 O124 1.247 1_554 S
C119 O125 1.208 . S
C120 O112 1.315 . S
C120 O115 1.279 . S
C121 O122 1.315 . S
C121 O123 1.279 . S
O122 Cd114 2.223 1_556 S
O122 C121 1.315 . S
O123 Cd113 2.240 1_556 S
O123 C121 1.279 . S
O124 Cd114 2.297 1_556 S
O124 C119 1.247 1_556 S
O125 Cd114 2.439 . S
O125 C119 1.208 . S
O126 Cd127 2.223 . S
O126 C134 1.315 1_455 S
Cd127 O126 2.223 . S
Cd127 O130 2.297 . S
Cd127 O131 2.439 . S
Cd127 O137 2.240 . S
Cd128 O129 2.240 . S
Cd128 O136 2.223 . S
Cd128 O138 2.297 . S
Cd128 O139 2.439 1_655 S
O129 Cd128 2.240 . S
O129 C134 1.279 . S
O130 Cd127 2.297 . S
O130 C132 1.247 . S
O131 Cd127 2.439 . S
O131 C132 1.208 . S
C132 O130 1.247 . S
C132 O131 1.208 . S
C133 O138 1.246 1_455 S
C133 O139 1.208 . S
C134 O126 1.315 1_655 S
C134 O129 1.279 . S
C135 O136 1.315 1_455 S
C135 O137 1.279 . S
O136 Cd128 2.223 . S
O136 C135 1.315 1_655 S
O137 Cd127 2.240 . S
O137 C135 1.279 . S
O138 Cd128 2.297 . S
O138 C133 1.246 1_655 S
O139 Cd128 2.439 1_455 S
O139 C133 1.208 . S
O140 Cd141 2.223 . S
O140 C148 1.315 1_545 S
Cd141 O140 2.223 . S
Cd141 O144 2.297 . S
Cd141 O145 2.439 . S
Cd141 O151 2.240 . S
Cd142 O143 2.240 . S
Cd142 O150 2.223 . S
Cd142 O152 2.299 . S
Cd142 O153 2.439 1_565 S
O143 Cd142 2.240 . S
O143 C148 1.279 . S
O144 Cd141 2.297 . S
O144 C146 1.247 . S
O145 Cd141 2.439 . S
O145 C146 1.208 . S
C146 O144 1.247 . S
C146 O145 1.208 . S
C147 O152 1.246 1_545 S
C147 O153 1.208 . S
C148 O140 1.315 1_565 S
C148 O143 1.279 . S
C149 O150 1.315 1_545 S
C149 O151 1.279 . S
O150 Cd142 2.223 . S
O150 C149 1.315 1_565 S
O151 Cd141 2.240 . S
O151 C149 1.279 . S
O152 Cd142 2.299 . S
O152 C147 1.246 1_565 S
O153 Cd142 2.439 1_545 S
O153 C147 1.208 . S
O154 Cd155 2.223 . S
O154 C162 1.315 . S
Cd155 O154 2.223 . S
Cd155 O158 2.297 . S
Cd155 O159 2.439 . S
Cd155 O165 2.240 1_554 S
Cd156 O157 2.240 . S
Cd156 O164 2.223 1_554 S
Cd156 O166 2.297 1_554 S
Cd156 O167 2.439 . S
O157 Cd156 2.240 . S
O157 C162 1.279 . S
O158 Cd155 2.297 . S
O158 C160 1.247 . S
O159 Cd155 2.439 . S
O159 C160 1.208 . S
C160 O158 1.247 . S
C160 O159 1.208 . S
C161 O166 1.247 1_554 S
C161 O167 1.208 . S
C162 O154 1.315 . S
C162 O157 1.279 . S
C163 O164 1.315 . S
C163 O165 1.279 . S
O164 Cd156 2.223 1_556 S
O164 C163 1.315 . S
O165 Cd155 2.240 1_556 S
O165 C163 1.279 . S
O166 Cd156 2.297 1_556 S
O166 C161 1.247 1_556 S
O167 Cd156 2.439 . S
O167 C161 1.208 . S
H168 C176 0.929 . S
H169 C178 0.930 . S
H170 C180 0.930 . S
H171 C183 0.929 . S
H172 C186 0.930 . S
H173 C188 0.960 . S
H174 C188 0.960 . S
H175 C188 0.960 . S
C176 H168 0.929 . S
C176 C177 1.377 . S
C176 C178 1.384 . S
C177 C176 1.377 . S
C177 C183 1.390 . S
C178 H169 0.930 . S
C178 C176 1.384 . S
C178 C179 1.372 . S
C179 C178 1.372 . S
C179 C180 1.400 . S
C179 C184 1.490 . S
C180 H170 0.930 . S
C180 C179 1.400 . S
C180 C183 1.386 . S
H181 C197 0.930 . S
H182 C198 0.931 . S
C183 H171 0.929 . S
C183 C177 1.390 . S
C183 C180 1.386 . S
C184 C179 1.490 . S
C184 C186 1.395 . S
C184 C187 1.403 . S
H185 C191 0.930 . S
C186 H172 0.930 . S
C186 C184 1.395 . S
C186 C189 1.403 . S
C187 C184 1.403 . S
C187 C188 1.524 . S
C187 C191 1.400 . S
C188 H173 0.960 . S
C188 H174 0.960 . S
C188 H175 0.960 . S
C188 C187 1.524 . S
C189 C186 1.403 . S
C189 C190 1.392 . S
C189 C193 1.495 . S
C190 C189 1.392 . S
C190 C191 1.385 . S
C190 C192 1.478 . S
C191 H185 0.930 . S
C191 C187 1.400 . S
C191 C190 1.385 . S
C192 C190 1.478 . S
C192 C194 1.381 . S
C192 C198 1.383 . S
C193 C189 1.495 . S
C193 H199 0.959 . S
C193 H200 0.961 . S
C193 H201 0.960 . S
C194 C192 1.381 . S
C194 C195 1.394 . S
C194 H202 0.930 . S
C195 C194 1.394 . S
C195 C196 1.383 . S
C195 H203 0.929 . S
C196 C195 1.383 . S
C196 C197 1.377 . S
C197 H181 0.930 . S
C197 C196 1.377 . S
C197 C198 1.379 . S
C198 H182 0.931 . S
C198 C192 1.383 . S
C198 C197 1.379 . S
H199 C193 0.959 . S
H200 C193 0.961 . S
H201 C193 0.960 . S
H202 C194 0.930 . S
H203 C195 0.929 . S
H204 C212 0.929 . S
H205 C214 0.930 . S
H206 C216 0.930 . S
H207 C219 0.929 . S
H208 C222 0.930 . S
H209 C224 0.960 . S
H210 C224 0.960 . S
H211 C224 0.960 . S
C212 H204 0.929 . S
C212 C213 1.377 . S
C212 C214 1.384 . S
C213 C212 1.377 . S
C213 C219 1.390 . S
C214 H205 0.930 . S
C214 C212 1.384 . S
C214 C215 1.372 . S
C215 C214 1.372 . S
C215 C216 1.400 . S
C215 C220 1.490 . S
C216 H206 0.930 . S
C216 C215 1.400 . S
C216 C219 1.386 . S
H217 C233 0.930 . S
H218 C234 0.931 . S
C219 H207 0.929 . S
C219 C213 1.390 . S
C219 C216 1.386 . S
C220 C215 1.490 . S
C220 C222 1.395 . S
C220 C223 1.403 . S
H221 C227 0.930 . S
C222 H208 0.930 . S
C222 C220 1.395 . S
C222 C225 1.403 . S
C223 C220 1.403 . S
C223 C224 1.524 . S
C223 C227 1.400 . S
C224 H209 0.960 . S
C224 H210 0.960 . S
C224 H211 0.960 . S
C224 C223 1.524 . S
C225 C222 1.403 . S
C225 C226 1.392 . S
C225 C229 1.495 . S
C226 C225 1.392 . S
C226 C227 1.385 . S
C226 C228 1.478 . S
C227 H221 0.930 . S
C227 C223 1.400 . S
C227 C226 1.385 . S
C228 C226 1.478 . S
C228 C230 1.381 . S
C228 C234 1.383 . S
C229 C225 1.495 . S
C229 H235 0.959 . S
C229 H236 0.961 . S
C229 H237 0.960 . S
C230 C228 1.381 . S
C230 C231 1.394 . S
C230 H238 0.930 . S
C231 C230 1.394 . S
C231 C232 1.383 . S
C231 H239 0.929 . S
C232 C231 1.383 . S
C232 C233 1.377 . S
C233 H217 0.930 . S
C233 C232 1.377 . S
C233 C234 1.379 . S
C234 H218 0.931 . S
C234 C228 1.383 . S
C234 C233 1.379 . S
H235 C229 0.959 . S
H236 C229 0.961 . S
H237 C229 0.960 . S
H238 C230 0.930 . S
H239 C231 0.929 . S
H240 C248 0.929 . S
H241 C250 0.930 . S
H242 C252 0.930 . S
H243 C255 0.929 . S
H244 C258 0.930 . S
H245 C260 0.960 . S
H246 C260 0.960 . S
H247 C260 0.960 . S
C248 H240 0.929 . S
C248 C249 1.377 . S
C248 C250 1.384 . S
C249 C248 1.377 . S
C249 C255 1.390 . S
C250 H241 0.930 . S
C250 C248 1.384 . S
C250 C251 1.372 . S
C251 C250 1.372 . S
C251 C252 1.400 . S
C251 C256 1.490 . S
C252 H242 0.930 . S
C252 C251 1.400 . S
C252 C255 1.386 . S
H253 C269 0.930 . S
H254 C270 0.931 . S
C255 H243 0.929 . S
C255 C249 1.390 . S
C255 C252 1.386 . S
C256 C251 1.490 . S
C256 C258 1.395 . S
C256 C259 1.403 . S
H257 C263 0.930 . S
C258 H244 0.930 . S
C258 C256 1.395 . S
C258 C261 1.403 . S
C259 C256 1.403 . S
C259 C260 1.524 . S
C259 C263 1.400 . S
C260 H245 0.960 . S
C260 H246 0.960 . S
C260 H247 0.960 . S
C260 C259 1.524 . S
C261 C258 1.403 . S
C261 C262 1.392 . S
C261 C265 1.495 . S
C262 C261 1.392 . S
C262 C263 1.385 . S
C262 C264 1.478 . S
C263 H257 0.930 . S
C263 C259 1.400 . S
C263 C262 1.385 . S
C264 C262 1.478 . S
C264 C266 1.381 . S
C264 C270 1.383 . S
C265 C261 1.495 . S
C265 H271 0.959 . S
C265 H272 0.961 . S
C265 H273 0.960 . S
C266 C264 1.381 . S
C266 C267 1.394 . S
C266 H274 0.930 . S
C267 C266 1.394 . S
C267 C268 1.383 . S
C267 H275 0.929 . S
C268 C267 1.383 . S
C268 C269 1.377 . S
C269 H253 0.930 . S
C269 C268 1.377 . S
C269 C270 1.379 . S
C270 H254 0.931 . S
C270 C264 1.383 . S
C270 C269 1.379 . S
H271 C265 0.959 . S
H272 C265 0.961 . S
H273 C265 0.960 . S
H274 C266 0.930 . S
H275 C267 0.929 . S
H276 C284 0.929 . S
H277 C286 0.930 . S
H278 C288 0.930 . S
H279 C291 0.929 . S
H280 C294 0.930 . S
H281 C296 0.960 . S
H282 C296 0.960 . S
H283 C296 0.960 . S
C284 H276 0.929 . S
C284 C285 1.377 . S
C284 C286 1.384 . S
C285 C284 1.377 . S
C285 C291 1.390 . S
C286 H277 0.930 . S
C286 C284 1.384 . S
C286 C287 1.372 . S
C287 C286 1.372 . S
C287 C288 1.400 . S
C287 C292 1.490 . S
C288 H278 0.930 . S
C288 C287 1.400 . S
C288 C291 1.386 . S
H289 C305 0.930 . S
H290 C306 0.931 . S
C291 H279 0.929 . S
C291 C285 1.390 . S
C291 C288 1.386 . S
C292 C287 1.490 . S
C292 C294 1.395 . S
C292 C295 1.403 . S
H293 C299 0.930 . S
C294 H280 0.930 . S
C294 C292 1.395 . S
C294 C297 1.403 . S
C295 C292 1.403 . S
C295 C296 1.524 . S
C295 C299 1.400 . S
C296 H281 0.960 . S
C296 H282 0.960 . S
C296 H283 0.960 . S
C296 C295 1.524 . S
C297 C294 1.403 . S
C297 C298 1.392 . S
C297 C301 1.495 . S
C298 C297 1.392 . S
C298 C299 1.385 . S
C298 C300 1.478 . S
C299 H293 0.930 . S
C299 C295 1.400 . S
C299 C298 1.385 . S
C300 C298 1.478 . S
C300 C302 1.381 . S
C300 C306 1.383 . S
C301 C297 1.495 . S
C301 H307 0.959 . S
C301 H308 0.961 . S
C301 H309 0.960 . S
C302 C300 1.381 . S
C302 C303 1.394 . S
C302 H310 0.930 . S
C303 C302 1.394 . S
C303 C304 1.383 . S
C303 H311 0.929 . S
C304 C303 1.383 . S
C304 C305 1.377 . S
C305 H289 0.930 . S
C305 C304 1.377 . S
C305 C306 1.379 . S
C306 H290 0.931 . S
C306 C300 1.383 . S
C306 C305 1.379 . S
H307 C301 0.959 . S
H308 C301 0.961 . S
H309 C301 0.960 . S
H310 C302 0.930 . S
H311 C303 0.929 . S
H312 C320 0.929 . S
H313 C322 0.930 . S
H314 C324 0.930 . S
H315 C327 0.929 . S
H316 C330 0.930 . S
H317 C332 0.960 . S
H318 C332 0.960 . S
H319 C332 0.960 . S
C320 H312 0.929 . S
C320 C321 1.377 . S
C320 C322 1.384 . S
C321 C320 1.377 . S
C321 C327 1.390 . S
C322 H313 0.930 . S
C322 C320 1.384 . S
C322 C323 1.372 . S
C323 C322 1.372 . S
C323 C324 1.400 . S
C323 C328 1.490 . S
C324 H314 0.930 . S
C324 C323 1.400 . S
C324 C327 1.386 . S
H325 C341 0.930 . S
H326 C342 0.931 . S
C327 H315 0.929 . S
C327 C321 1.390 . S
C327 C324 1.386 . S
C328 C323 1.490 . S
C328 C330 1.395 . S
C328 C331 1.403 . S
H329 C335 0.930 . S
C330 H316 0.930 . S
C330 C328 1.395 . S
C330 C333 1.403 . S
C331 C328 1.403 . S
C331 C332 1.524 . S
C331 C335 1.400 . S
C332 H317 0.960 . S
C332 H318 0.960 . S
C332 H319 0.960 . S
C332 C331 1.524 . S
C333 C330 1.403 . S
C333 C334 1.392 . S
C333 C337 1.495 . S
C334 C333 1.392 . S
C334 C335 1.385 . S
C334 C336 1.478 . S
C335 H329 0.930 . S
C335 C331 1.400 . S
C335 C334 1.385 . S
C336 C334 1.478 . S
C336 C338 1.381 . S
C336 C342 1.383 . S
C337 C333 1.495 . S
C337 H343 0.959 . S
C337 H344 0.961 . S
C337 H345 0.960 . S
C338 C336 1.381 . S
C338 C339 1.394 . S
C338 H346 0.930 . S
C339 C338 1.394 . S
C339 C340 1.383 . S
C339 H347 0.929 . S
C340 C339 1.383 . S
C340 C341 1.377 . S
C341 H325 0.930 . S
C341 C340 1.377 . S
C341 C342 1.379 . S
C342 H326 0.931 . S
C342 C336 1.383 . S
C342 C341 1.379 . S
H343 C337 0.959 . S
H344 C337 0.961 . S
H345 C337 0.960 . S
H346 C338 0.930 . S
H347 C339 0.929 . S
H348 C356 0.929 . S
H349 C358 0.930 . S
H350 C360 0.930 . S
H351 C363 0.929 . S
H352 C366 0.930 . S
H353 C368 0.960 . S
H354 C368 0.960 . S
H355 C368 0.960 . S
C356 H348 0.929 . S
C356 C357 1.377 . S
C356 C358 1.384 . S
C357 C356 1.377 . S
C357 C363 1.390 . S
C358 H349 0.930 . S
C358 C356 1.384 . S
C358 C359 1.372 . S
C359 C358 1.372 . S
C359 C360 1.400 . S
C359 C364 1.490 . S
C360 H350 0.930 . S
C360 C359 1.400 . S
C360 C363 1.386 . S
H361 C377 0.930 . S
H362 C378 0.931 . S
C363 H351 0.929 . S
C363 C357 1.390 . S
C363 C360 1.386 . S
C364 C359 1.490 . S
C364 C366 1.395 . S
C364 C367 1.403 . S
H365 C371 0.930 . S
C366 H352 0.930 . S
C366 C364 1.395 . S
C366 C369 1.403 . S
C367 C364 1.403 . S
C367 C368 1.524 . S
C367 C371 1.400 . S
C368 H353 0.960 . S
C368 H354 0.960 . S
C368 H355 0.960 . S
C368 C367 1.524 . S
C369 C366 1.403 . S
C369 C370 1.392 . S
C369 C373 1.495 . S
C370 C369 1.392 . S
C370 C371 1.385 . S
C370 C372 1.478 . S
C371 H365 0.930 . S
C371 C367 1.400 . S
C371 C370 1.385 . S
C372 C370 1.478 . S
C372 C374 1.381 . S
C372 C378 1.383 . S
C373 C369 1.495 . S
C373 H379 0.959 . S
C373 H380 0.961 . S
C373 H381 0.960 . S
C374 C372 1.381 . S
C374 C375 1.394 . S
C374 H382 0.930 . S
C375 C374 1.394 . S
C375 C376 1.383 . S
C375 H383 0.929 . S
C376 C375 1.383 . S
C376 C377 1.377 . S
C377 H361 0.930 . S
C377 C376 1.377 . S
C377 C378 1.379 . S
C378 H362 0.931 . S
C378 C372 1.383 . S
C378 C377 1.379 . S
H379 C373 0.959 . S
H380 C373 0.961 . S
H381 C373 0.960 . S
H382 C374 0.930 . S
H383 C375 0.929 . S
H384 C392 0.929 1_565 S
H385 C394 0.930 . S
H386 C396 0.930 . S
H387 C399 0.929 . S
H388 C402 0.930 . S
H389 C404 0.960 . S
H390 C404 0.960 . S
H391 C404 0.960 . S
C392 H384 0.929 1_545 S
C392 C393 1.377 . S
C392 C394 1.384 1_545 S
C393 C392 1.377 . S
C393 C399 1.390 . S
C394 H385 0.930 . S
C394 C392 1.384 1_565 S
C394 C395 1.372 1_565 S
C395 C394 1.372 1_545 S
C395 C396 1.400 . S
C395 C400 1.490 . S
C396 H386 0.930 . S
C396 C395 1.400 . S
C396 C399 1.386 . S
H397 C413 0.930 . S
H398 C414 0.931 1_545 S
C399 H387 0.929 . S
C399 C393 1.390 . S
C399 C396 1.386 . S
C400 C395 1.490 . S
C400 C402 1.395 1_545 S
C400 C403 1.403 . S
H401 C407 0.930 . S
C402 H388 0.930 . S
C402 C400 1.395 1_565 S
C402 C405 1.403 . S
C403 C400 1.403 . S
C403 C404 1.524 . S
C403 C407 1.400 . S
C404 H389 0.960 . S
C404 H390 0.960 . S
C404 H391 0.960 . S
C404 C403 1.524 . S
C405 C402 1.403 . S
C405 C406 1.392 . S
C405 C409 1.495 . S
C406 C405 1.392 . S
C406 C407 1.385 1_565 S
C406 C408 1.478 . S
C407 H401 0.930 . S
C407 C403 1.400 . S
C407 C406 1.385 1_545 S
C408 C406 1.478 . S
C408 C410 1.381 . S
C408 C414 1.383 . S
C409 C405 1.495 . S
C409 H415 0.959 . S
C409 H416 0.961 . S
C409 H417 0.960 . S
C410 C408 1.381 . S
C410 C411 1.394 . S
C410 H418 0.930 . S
C411 C410 1.394 . S
C411 C412 1.383 . S
C411 H419 0.929 . S
C412 C411 1.383 . S
C412 C413 1.377 . S
C413 H397 0.930 . S
C413 C412 1.377 . S
C413 C414 1.379 . S
C414 H398 0.931 1_565 S
C414 C408 1.383 . S
C414 C413 1.379 . S
H415 C409 0.959 . S
H416 C409 0.961 . S
H417 C409 0.960 . S
H418 C410 0.930 . S
H419 C411 0.929 . S
H420 C428 0.929 . S
H421 C430 0.930 . S
H422 C432 0.930 . S
H423 C435 0.929 . S
H424 C438 0.930 . S
H425 C440 0.960 . S
H426 C440 0.960 . S
H427 C440 0.960 . S
C428 H420 0.929 . S
C428 C429 1.377 . S
C428 C430 1.384 . S
C429 C428 1.377 . S
C429 C435 1.390 . S
C430 H421 0.930 . S
C430 C428 1.384 . S
C430 C431 1.372 . S
C431 C430 1.372 . S
C431 C432 1.400 . S
C431 C436 1.490 . S
C432 H422 0.930 . S
C432 C431 1.400 . S
C432 C435 1.386 . S
H433 C449 0.930 . S
H434 C450 0.931 . S
C435 H423 0.929 . S
C435 C429 1.390 . S
C435 C432 1.386 . S
C436 C431 1.490 . S
C436 C438 1.395 . S
C436 C439 1.403 . S
H437 C443 0.930 . S
C438 H424 0.930 . S
C438 C436 1.395 . S
C438 C441 1.403 . S
C439 C436 1.403 . S
C439 C440 1.524 . S
C439 C443 1.400 . S
C440 H425 0.960 . S
C440 H426 0.960 . S
C440 H427 0.960 . S
C440 C439 1.524 . S
C441 C438 1.403 . S
C441 C442 1.392 . S
C441 C445 1.495 . S
C442 C441 1.392 . S
C442 C443 1.385 . S
C442 C444 1.478 . S
C443 H437 0.930 . S
C443 C439 1.400 . S
C443 C442 1.385 . S
C444 C442 1.478 . S
C444 C446 1.381 . S
C444 C450 1.383 . S
C445 C441 1.495 . S
C445 H451 0.959 . S
C445 H452 0.961 . S
C445 H453 0.960 . S
C446 C444 1.381 . S
C446 C447 1.394 . S
C446 H454 0.930 . S
C447 C446 1.394 . S
C447 C448 1.383 . S
C447 H455 0.929 . S
C448 C447 1.383 . S
C448 C449 1.377 . S
C449 H433 0.930 . S
C449 C448 1.377 . S
C449 C450 1.379 . S
C450 H434 0.931 . S
C450 C444 1.383 . S
C450 C449 1.379 . S
H451 C445 0.959 . S
H452 C445 0.961 . S
H453 C445 0.960 . S
H454 C446 0.930 . S
H455 C447 0.929 . S
H456 C464 0.929 . S
H457 C466 0.930 . S
H458 C468 0.930 . S
H459 C471 0.929 . S
H460 C474 0.930 . S
H461 C476 0.960 . S
H462 C476 0.960 . S
H463 C476 0.960 . S
C464 H456 0.929 . S
C464 C465 1.377 1_554 S
C464 C466 1.384 . S
C465 C464 1.377 1_556 S
C465 C471 1.390 . S
C466 H457 0.930 . S
C466 C464 1.384 . S
C466 C467 1.372 1_554 S
C467 C466 1.372 1_556 S
C467 C468 1.400 . S
C467 C472 1.490 . S
C468 H458 0.930 . S
C468 C467 1.400 . S
C468 C471 1.386 . S
H469 C485 0.930 . S
H470 C486 0.931 . S
C471 H459 0.929 . S
C471 C465 1.390 . S
C471 C468 1.386 . S
C472 C467 1.490 . S
C472 C474 1.395 1_456 S
C472 C475 1.403 . S
H473 C479 0.930 . S
C474 H460 0.930 . S
C474 C472 1.395 1_654 S
C474 C477 1.403 . S
C475 C472 1.403 . S
C475 C476 1.524 . S
C475 C479 1.400 . S
C476 H461 0.960 . S
C476 H462 0.960 . S
C476 H463 0.960 . S
C476 C475 1.524 . S
C477 C474 1.403 . S
C477 C478 1.392 1_554 S
C477 C481 1.495 . S
C478 C477 1.392 1_556 S
C478 C479 1.385 1_655 S
C478 C480 1.478 . S
C479 H473 0.930 . S
C479 C475 1.400 . S
C479 C478 1.385 1_455 S
C480 C478 1.478 . S
C480 C482 1.381 1_556 S
C480 C486 1.383 . S
C481 C477 1.495 . S
C481 H487 0.959 . S
C481 H488 0.961 . S
C481 H489 0.960 . S
C482 C480 1.381 1_554 S
C482 C483 1.394 . S
C482 H490 0.930 . S
C483 C482 1.394 . S
C483 C484 1.383 1_554 S
C483 H491 0.929 . S
C484 C483 1.383 1_556 S
C484 C485 1.377 . S
C485 H469 0.930 . S
C485 C484 1.377 . S
C485 C486 1.379 . S
C486 H470 0.931 . S
C486 C480 1.383 . S
C486 C485 1.379 . S
H487 C481 0.959 . S
H488 C481 0.961 . S
H489 C481 0.960 . S
H490 C482 0.930 . S
H491 C483 0.929 . S
H492 C500 0.929 . S
H493 C502 0.930 . S
H494 C504 0.930 . S
H495 C507 0.929 . S
H496 C510 0.930 . S
H497 C512 0.960 . S
H498 C512 0.960 . S
H499 C512 0.960 . S
C500 H492 0.929 . S
C500 C501 1.377 . S
C500 C502 1.384 . S
C501 C500 1.377 . S
C501 C507 1.390 1_655 S
C502 H493 0.930 . S
C502 C500 1.384 . S
C502 C503 1.372 . S
C503 C502 1.372 . S
C503 C504 1.400 1_655 S
C503 C508 1.490 . S
C504 H494 0.930 . S
C504 C503 1.400 1_455 S
C504 C507 1.386 . S
H505 C521 0.930 . S
H506 C522 0.931 . S
C507 H495 0.929 . S
C507 C501 1.390 1_455 S
C507 C504 1.386 . S
C508 C503 1.490 . S
C508 C510 1.395 . S
C508 C511 1.403 1_655 S
H509 C515 0.930 . S
C510 H496 0.930 . S
C510 C508 1.395 . S
C510 C513 1.403 . S
C511 C508 1.403 1_455 S
C511 C512 1.524 . S
C511 C515 1.400 . S
C512 H497 0.960 . S
C512 H498 0.960 . S
C512 H499 0.960 . S
C512 C511 1.524 . S
C513 C510 1.403 . S
C513 C514 1.392 1_655 S
C513 C517 1.495 . S
C514 C513 1.392 1_455 S
C514 C515 1.385 . S
C514 C516 1.478 . S
C515 H509 0.930 . S
C515 C511 1.400 . S
C515 C514 1.385 . S
C516 C514 1.478 . S
C516 C518 1.381 1_455 S
C516 C522 1.383 . S
C517 C513 1.495 . S
C517 H523 0.959 . S
C517 H524 0.961 . S
C517 H525 0.960 . S
C518 C516 1.381 1_655 S
C518 C519 1.394 . S
C518 H526 0.930 . S
C519 C518 1.394 . S
C519 C520 1.383 1_655 S
C519 H527 0.929 . S
C520 C519 1.383 1_455 S
C520 C521 1.377 . S
C521 H505 0.930 . S
C521 C520 1.377 . S
C521 C522 1.379 . S
C522 H506 0.931 . S
C522 C516 1.383 . S
C522 C521 1.379 . S
H523 C517 0.959 . S
H524 C517 0.961 . S
H525 C517 0.960 . S
H526 C518 0.930 . S
H527 C519 0.929 . S
H528 C536 0.929 . S
H529 C538 0.930 . S
H530 C540 0.930 . S
H531 C543 0.929 . S
H532 C546 0.930 . S
H533 C548 0.960 . S
H534 C548 0.960 . S
H535 C548 0.960 . S
C536 H528 0.929 . S
C536 C537 1.377 1_565 S
C536 C538 1.384 . S
C537 C536 1.377 1_545 S
C537 C543 1.390 . S
C538 H529 0.930 . S
C538 C536 1.384 . S
C538 C539 1.372 1_565 S
C539 C538 1.372 1_545 S
C539 C540 1.400 . S
C539 C544 1.490 . S
C540 H530 0.930 . S
C540 C539 1.400 . S
C540 C543 1.386 . S
H541 C557 0.930 1_545 S
H542 C558 0.931 . S
C543 H531 0.929 . S
C543 C537 1.390 . S
C543 C540 1.386 . S
C544 C539 1.490 . S
C544 C546 1.395 1_545 S
C544 C547 1.403 . S
H545 C551 0.930 . S
C546 H532 0.930 . S
C546 C544 1.395 1_565 S
C546 C549 1.403 . S
C547 C544 1.403 . S
C547 C548 1.524 . S
C547 C551 1.400 . S
C548 H533 0.960 . S
C548 H534 0.960 . S
C548 H535 0.960 . S
C548 C547 1.524 . S
C549 C546 1.403 . S
C549 C550 1.392 . S
C549 C553 1.495 . S
C550 C549 1.392 . S
C550 C551 1.385 1_565 S
C550 C552 1.478 . S
C551 H545 0.930 . S
C551 C547 1.400 . S
C551 C550 1.385 1_545 S
C552 C550 1.478 . S
C552 C554 1.381 . S
C552 C558 1.383 1_565 S
C553 C549 1.495 . S
C553 H559 0.959 . S
C553 H560 0.961 . S
C553 H561 0.960 . S
C554 C552 1.381 . S
C554 C555 1.394 . S
C554 H562 0.930 . S
C555 C554 1.394 . S
C555 C556 1.383 . S
C555 H563 0.929 . S
C556 C555 1.383 . S
C556 C557 1.377 . S
C557 H541 0.930 1_565 S
C557 C556 1.377 . S
C557 C558 1.379 1_565 S
C558 H542 0.931 . S
C558 C552 1.383 1_545 S
C558 C557 1.379 1_545 S
H559 C553 0.959 . S
H560 C553 0.961 . S
H561 C553 0.960 . S
H562 C554 0.930 . S
H563 C555 0.929 . S
H564 C572 0.929 . S
H565 C574 0.930 . S
H566 C576 0.930 . S
H567 C579 0.929 . S
H568 C582 0.930 . S
H569 C584 0.960 . S
H570 C584 0.960 . S
H571 C584 0.960 . S
C572 H564 0.929 . S
C572 C573 1.377 . S
C572 C574 1.384 . S
C573 C572 1.377 . S
C573 C579 1.390 . S
C574 H565 0.930 . S
C574 C572 1.384 . S
C574 C575 1.372 . S
C575 C574 1.372 . S
C575 C576 1.400 . S
C575 C580 1.490 . S
C576 H566 0.930 . S
C576 C575 1.400 . S
C576 C579 1.386 . S
H577 C593 0.930 . S
H578 C594 0.931 . S
C579 H567 0.929 . S
C579 C573 1.390 . S
C579 C576 1.386 . S
C580 C575 1.490 . S
C580 C582 1.395 . S
C580 C583 1.403 1_554 S
H581 C587 0.930 . S
C582 H568 0.930 . S
C582 C580 1.395 . S
C582 C585 1.403 . S
C583 C580 1.403 1_556 S
C583 C584 1.524 . S
C583 C587 1.400 . S
C584 H569 0.960 . S
C584 H570 0.960 . S
C584 H571 0.960 . S
C584 C583 1.524 . S
C585 C582 1.403 . S
C585 C586 1.392 . S
C585 C589 1.495 . S
C586 C585 1.392 . S
C586 C587 1.385 1_554 S
C586 C588 1.478 . S
C587 H581 0.930 . S
C587 C583 1.400 . S
C587 C586 1.385 1_556 S
C588 C586 1.478 . S
C588 C590 1.381 . S
C588 C594 1.383 . S
C589 C585 1.495 . S
C589 H595 0.959 . S
C589 H596 0.961 . S
C589 H597 0.960 . S
C590 C588 1.381 . S
C590 C591 1.394 . S
C590 H598 0.930 . S
C591 C590 1.394 . S
C591 C592 1.383 . S
C591 H599 0.929 . S
C592 C591 1.383 . S
C592 C593 1.377 . S
C593 H577 0.930 . S
C593 C592 1.377 . S
C593 C594 1.379 . S
C594 H578 0.931 . S
C594 C588 1.383 . S
C594 C593 1.379 . S
H595 C589 0.959 . S
H596 C589 0.961 . S
H597 C589 0.960 . S
H598 C590 0.930 . S
H599 C591 0.929 . S
H600 C608 0.929 . S
H601 C610 0.930 . S
H602 C612 0.930 . S
H603 C615 0.929 . S
H604 C618 0.930 . S
H605 C620 0.960 . S
H606 C620 0.960 . S
H607 C620 0.960 . S
C608 H600 0.929 . S
C608 C609 1.377 . S
C608 C610 1.384 . S
C609 C608 1.377 . S
C609 C615 1.390 . S
C610 H601 0.930 . S
C610 C608 1.384 . S
C610 C611 1.372 . S
C611 C610 1.372 . S
C611 C612 1.400 . S
C611 C616 1.490 . S
C612 H602 0.930 . S
C612 C611 1.400 . S
C612 C615 1.386 . S
H613 C629 0.930 . S
H614 C630 0.931 . S
C615 H603 0.929 . S
C615 C609 1.390 . S
C615 C612 1.386 . S
C616 C611 1.490 . S
C616 C618 1.395 . S
C616 C619 1.403 . S
H617 C623 0.930 . S
C618 H604 0.930 . S
C618 C616 1.395 . S
C618 C621 1.403 . S
C619 C616 1.403 . S
C619 C620 1.524 . S
C619 C623 1.400 . S
C620 H605 0.960 . S
C620 H606 0.960 . S
C620 H607 0.960 . S
C620 C619 1.524 . S
C621 C618 1.403 . S
C621 C622 1.392 . S
C621 C625 1.495 . S
C622 C621 1.392 . S
C622 C623 1.385 . S
C622 C624 1.478 . S
C623 H617 0.930 . S
C623 C619 1.400 . S
C623 C622 1.385 . S
C624 C622 1.478 . S
C624 C626 1.381 . S
C624 C630 1.383 . S
C625 C621 1.495 . S
C625 H631 0.959 . S
C625 H632 0.961 . S
C625 H633 0.960 . S
C626 C624 1.381 . S
C626 C627 1.394 . S
C626 H634 0.930 . S
C627 C626 1.394 . S
C627 C628 1.383 . S
C627 H635 0.929 . S
C628 C627 1.383 . S
C628 C629 1.377 . S
C629 H613 0.930 . S
C629 C628 1.377 . S
C629 C630 1.379 . S
C630 H614 0.931 . S
C630 C624 1.383 . S
C630 C629 1.379 . S
H631 C625 0.959 . S
H632 C625 0.961 . S
H633 C625 0.960 . S
H634 C626 0.930 . S
H635 C627 0.929 . S
H636 C644 0.929 . S
H637 C646 0.930 . S
H638 C648 0.930 . S
H639 C651 0.929 . S
H640 C654 0.930 . S
H641 C656 0.960 . S
H642 C656 0.960 . S
H643 C656 0.960 . S
C644 H636 0.929 . S
C644 C645 1.377 . S
C644 C646 1.384 . S
C645 C644 1.377 . S
C645 C651 1.390 . S
C646 H637 0.930 . S
C646 C644 1.384 . S
C646 C647 1.372 . S
C647 C646 1.372 . S
C647 C648 1.400 . S
C647 C652 1.490 . S
C648 H638 0.930 . S
C648 C647 1.400 . S
C648 C651 1.386 . S
H649 C665 0.930 . S
H650 C666 0.931 . S
C651 H639 0.929 . S
C651 C645 1.390 . S
C651 C648 1.386 . S
C652 C647 1.490 . S
C652 C654 1.395 . S
C652 C655 1.403 . S
H653 C659 0.930 . S
C654 H640 0.930 . S
C654 C652 1.395 . S
C654 C657 1.403 . S
C655 C652 1.403 . S
C655 C656 1.524 . S
C655 C659 1.400 . S
C656 H641 0.960 . S
C656 H642 0.960 . S
C656 H643 0.960 . S
C656 C655 1.524 . S
C657 C654 1.403 . S
C657 C658 1.392 . S
C657 C661 1.495 . S
C658 C657 1.392 . S
C658 C659 1.385 . S
C658 C660 1.478 . S
C659 H653 0.930 . S
C659 C655 1.400 . S
C659 C658 1.385 . S
C660 C658 1.478 . S
C660 C662 1.381 . S
C660 C666 1.383 . S
C661 C657 1.495 . S
C661 H667 0.959 . S
C661 H668 0.961 . S
C661 H669 0.960 . S
C662 C660 1.381 . S
C662 C663 1.394 . S
C662 H670 0.930 . S
C663 C662 1.394 . S
C663 C664 1.383 . S
C663 H671 0.929 . S
C664 C663 1.383 . S
C664 C665 1.377 . S
C665 H649 0.930 . S
C665 C664 1.377 . S
C665 C666 1.379 . S
C666 H650 0.931 . S
C666 C660 1.383 . S
C666 C665 1.379 . S
H667 C661 0.959 . S
H668 C661 0.961 . S
H669 C661 0.960 . S
H670 C662 0.930 . S
H671 C663 0.929 . S
H672 C680 0.929 . S
H673 C682 0.930 . S
H674 C684 0.930 . S
H675 C687 0.929 . S
H676 C690 0.930 . S
H677 C692 0.960 . S
H678 C692 0.960 . S
H679 C692 0.960 . S
C680 H672 0.929 . S
C680 C681 1.377 . S
C680 C682 1.384 . S
C681 C680 1.377 . S
C681 C687 1.390 . S
C682 H673 0.930 . S
C682 C680 1.384 . S
C682 C683 1.372 . S
C683 C682 1.372 . S
C683 C684 1.400 . S
C683 C688 1.490 . S
C684 H674 0.930 . S
C684 C683 1.400 . S
C684 C687 1.386 . S
H685 C701 0.930 . S
H686 C702 0.931 . S
C687 H675 0.929 . S
C687 C681 1.390 . S
C687 C684 1.386 . S
C688 C683 1.490 . S
C688 C690 1.395 . S
C688 C691 1.403 1_554 S
H689 C695 0.930 . S
C690 H676 0.930 . S
C690 C688 1.395 . S
C690 C693 1.403 . S
C691 C688 1.403 1_556 S
C691 C692 1.524 . S
C691 C695 1.400 . S
C692 H677 0.960 . S
C692 H678 0.960 . S
C692 H679 0.960 . S
C692 C691 1.524 . S
C693 C690 1.403 . S
C693 C694 1.392 . S
C693 C697 1.495 . S
C694 C693 1.392 . S
C694 C695 1.385 1_554 S
C694 C696 1.478 . S
C695 H689 0.930 . S
C695 C691 1.400 . S
C695 C694 1.385 1_556 S
C696 C694 1.478 . S
C696 C698 1.381 1_554 S
C696 C702 1.383 . S
C697 C693 1.495 . S
C697 H703 0.959 . S
C697 H704 0.961 . S
C697 H705 0.960 . S
C698 C696 1.381 1_556 S
C698 C699 1.394 . S
C698 H706 0.930 . S
C699 C698 1.394 . S
C699 C700 1.383 . S
C699 H707 0.929 . S
C700 C699 1.383 . S
C700 C701 1.377 1_556 S
C701 H685 0.930 . S
C701 C700 1.377 1_554 S
C701 C702 1.379 . S
C702 H686 0.931 . S
C702 C696 1.383 . S
C702 C701 1.379 . S
H703 C697 0.959 . S
H704 C697 0.961 . S
H705 C697 0.960 . S
H706 C698 0.930 . S
H707 C699 0.929 . S
H708 C716 0.929 . S
H709 C718 0.930 . S
H710 C720 0.930 . S
H711 C723 0.929 . S
H712 C726 0.930 . S
H713 C728 0.960 . S
H714 C728 0.960 . S
H715 C728 0.960 . S
C716 H708 0.929 . S
C716 C717 1.377 . S
C716 C718 1.384 . S
C717 C716 1.377 . S
C717 C723 1.390 . S
C718 H709 0.930 . S
C718 C716 1.384 . S
C718 C719 1.372 . S
C719 C718 1.372 . S
C719 C720 1.400 . S
C719 C724 1.490 . S
C720 H710 0.930 . S
C720 C719 1.400 . S
C720 C723 1.386 . S
H721 C737 0.930 . S
H722 C738 0.931 . S
C723 H711 0.929 . S
C723 C717 1.390 . S
C723 C720 1.386 . S
C724 C719 1.490 . S
C724 C726 1.395 . S
C724 C727 1.403 . S
H725 C731 0.930 . S
C726 H712 0.930 . S
C726 C724 1.395 . S
C726 C729 1.403 . S
C727 C724 1.403 . S
C727 C728 1.524 . S
C727 C731 1.400 . S
C728 H713 0.960 . S
C728 H714 0.960 . S
C728 H715 0.960 . S
C728 C727 1.524 . S
C729 C726 1.403 . S
C729 C730 1.392 . S
C729 C733 1.495 . S
C730 C729 1.392 . S
C730 C731 1.385 . S
C730 C732 1.478 . S
C731 H725 0.930 . S
C731 C727 1.400 . S
C731 C730 1.385 . S
C732 C730 1.478 . S
C732 C734 1.381 . S
C732 C738 1.383 . S
C733 C729 1.495 . S
C733 H739 0.959 . S
C733 H740 0.961 . S
C733 H741 0.960 . S
C734 C732 1.381 . S
C734 C735 1.394 . S
C734 H742 0.930 . S
C735 C734 1.394 . S
C735 C736 1.383 . S
C735 H743 0.929 . S
C736 C735 1.383 . S
C736 C737 1.377 . S
C737 H721 0.930 . S
C737 C736 1.377 . S
C737 C738 1.379 . S
C738 H722 0.931 . S
C738 C732 1.383 . S
C738 C737 1.379 . S
H739 C733 0.959 . S
H740 C733 0.961 . S
H741 C733 0.960 . S
H742 C734 0.930 . S
H743 C735 0.929 . S
H744 C752 0.929 . S
H745 C754 0.930 . S
H746 C756 0.930 . S
H747 C759 0.929 . S
H748 C762 0.930 . S
H749 C764 0.960 . S
H750 C764 0.960 . S
H751 C764 0.960 . S
C752 H744 0.929 . S
C752 C753 1.377 . S
C752 C754 1.384 . S
C753 C752 1.377 . S
C753 C759 1.390 . S
C754 H745 0.930 . S
C754 C752 1.384 . S
C754 C755 1.372 . S
C755 C754 1.372 . S
C755 C756 1.400 . S
C755 C760 1.490 . S
C756 H746 0.930 . S
C756 C755 1.400 . S
C756 C759 1.386 . S
H757 C773 0.930 . S
H758 C774 0.931 . S
C759 H747 0.929 . S
C759 C753 1.390 . S
C759 C756 1.386 . S
C760 C755 1.490 . S
C760 C762 1.395 . S
C760 C763 1.403 . S
H761 C767 0.930 . S
C762 H748 0.930 . S
C762 C760 1.395 . S
C762 C765 1.403 . S
C763 C760 1.403 . S
C763 C764 1.524 . S
C763 C767 1.400 . S
C764 H749 0.960 . S
C764 H750 0.960 . S
C764 H751 0.960 . S
C764 C763 1.524 . S
C765 C762 1.403 . S
C765 C766 1.392 . S
C765 C769 1.495 . S
C766 C765 1.392 . S
C766 C767 1.385 . S
C766 C768 1.478 . S
C767 H761 0.930 . S
C767 C763 1.400 . S
C767 C766 1.385 . S
C768 C766 1.478 . S
C768 C770 1.381 . S
C768 C774 1.383 . S
C769 C765 1.495 . S
C769 H775 0.959 . S
C769 H776 0.961 . S
C769 H777 0.960 . S
C770 C768 1.381 . S
C770 C771 1.394 . S
C770 H778 0.930 . S
C771 C770 1.394 . S
C771 C772 1.383 . S
C771 H779 0.929 . S
C772 C771 1.383 . S
C772 C773 1.377 . S
C773 H757 0.930 . S
C773 C772 1.377 . S
C773 C774 1.379 . S
C774 H758 0.931 . S
C774 C768 1.383 . S
C774 C773 1.379 . S
H775 C769 0.959 . S
H776 C769 0.961 . S
H777 C769 0.960 . S
H778 C770 0.930 . S
H779 C771 0.929 . S
H780 C788 0.929 . S
H781 C790 0.930 . S
H782 C792 0.930 . S
H783 C795 0.929 . S
H784 C798 0.930 . S
H785 C800 0.960 . S
H786 C800 0.960 . S
H787 C800 0.960 . S
C788 H780 0.929 . S
C788 C789 1.377 . S
C788 C790 1.384 . S
C789 C788 1.377 . S
C789 C795 1.390 . S
C790 H781 0.930 . S
C790 C788 1.384 . S
C790 C791 1.372 . S
C791 C790 1.372 . S
C791 C792 1.400 . S
C791 C796 1.490 . S
C792 H782 0.930 . S
C792 C791 1.400 . S
C792 C795 1.386 . S
H793 C809 0.930 . S
H794 C810 0.931 . S
C795 H783 0.929 . S
C795 C789 1.390 . S
C795 C792 1.386 . S
C796 C791 1.490 . S
C796 C798 1.395 . S
C796 C799 1.403 1_554 S
H797 C803 0.930 . S
C798 H784 0.930 . S
C798 C796 1.395 . S
C798 C801 1.403 . S
C799 C796 1.403 1_556 S
C799 C800 1.524 . S
C799 C803 1.400 . S
C800 H785 0.960 . S
C800 H786 0.960 . S
C800 H787 0.960 . S
C800 C799 1.524 . S
C801 C798 1.403 . S
C801 C802 1.392 . S
C801 C805 1.495 . S
C802 C801 1.392 . S
C802 C803 1.385 1_554 S
C802 C804 1.478 . S
C803 H797 0.930 . S
C803 C799 1.400 . S
C803 C802 1.385 1_556 S
C804 C802 1.478 . S
C804 C806 1.381 . S
C804 C810 1.382 . S
C805 C801 1.495 . S
C805 H811 0.959 . S
C805 H812 0.961 . S
C805 H813 0.960 . S
C806 C804 1.381 . S
C806 C807 1.394 1_554 S
C806 H814 0.930 . S
C807 C806 1.394 1_556 S
C807 C808 1.383 . S
C807 H815 0.929 . S
C808 C807 1.383 . S
C808 C809 1.377 . S
C809 H793 0.930 . S
C809 C808 1.377 . S
C809 C810 1.380 1_556 S
C810 H794 0.931 . S
C810 C804 1.382 . S
C810 C809 1.380 1_554 S
H811 C805 0.959 . S
H812 C805 0.961 . S
H813 C805 0.960 . S
H814 C806 0.930 . S
H815 C807 0.929 . S
H816 C824 0.929 . S
H817 C826 0.930 . S
H818 C828 0.932 1_565 S
H819 C831 0.929 . S
H820 C834 0.930 . S
H821 C836 0.960 . S
H822 C836 0.960 . S
H823 C836 0.960 . S
C824 H816 0.929 . S
C824 C825 1.377 . S
C824 C826 1.384 . S
C825 C824 1.377 . S
C825 C831 1.390 . S
C826 H817 0.930 . S
C826 C824 1.384 . S
C826 C827 1.372 . S
C827 C826 1.372 . S
C827 C828 1.400 . S
C827 C832 1.490 . S
C828 H818 0.932 1_545 S
C828 C827 1.400 . S
C828 C831 1.386 . S
H829 C845 0.930 . S
H830 C846 0.931 . S
C831 H819 0.929 . S
C831 C825 1.390 . S
C831 C828 1.386 . S
C832 C827 1.490 . S
C832 C834 1.395 . S
C832 C835 1.403 1_545 S
H833 C839 0.930 . S
C834 H820 0.930 . S
C834 C832 1.395 . S
C834 C837 1.403 . S
C835 C832 1.403 1_565 S
C835 C836 1.524 . S
C835 C839 1.400 . S
C836 H821 0.960 . S
C836 H822 0.960 . S
C836 H823 0.960 . S
C836 C835 1.524 . S
C837 C834 1.403 . S
C837 C838 1.403 . S
C837 C841 1.495 . S
C838 C837 1.403 . S
C838 C839 1.376 1_545 S
C838 C840 1.476 1_545 S
C839 H833 0.930 . S
C839 C835 1.400 . S
C839 C838 1.376 1_565 S
C840 C838 1.476 1_565 S
C840 C842 1.381 . S
C840 C846 1.383 . S
C841 C837 1.495 . S
C841 H847 0.959 . S
C841 H848 0.961 . S
C841 H849 0.960 . S
C842 C840 1.381 . S
C842 C843 1.394 . S
C842 H850 0.932 1_565 S
C843 C842 1.394 . S
C843 C844 1.383 . S
C843 H851 0.929 . S
C844 C843 1.383 . S
C844 C845 1.377 . S
C845 H829 0.930 . S
C845 C844 1.377 . S
C845 C846 1.379 . S
C846 H830 0.931 . S
C846 C840 1.383 . S
C846 C845 1.379 . S
H847 C841 0.959 . S
H848 C841 0.961 . S
H849 C841 0.960 . S
H850 C842 0.932 1_545 S
H851 C843 0.929 . S
H852 C860 0.929 . S
H853 C862 0.930 . S
H854 C864 0.930 . S
H855 C867 0.929 . S
H856 C870 0.930 . S
H857 C872 0.960 . S
H858 C872 0.960 . S
H859 C872 0.960 . S
C860 H852 0.929 . S
C860 C861 1.377 . S
C860 C862 1.384 . S
C861 C860 1.377 . S
C861 C867 1.390 . S
C862 H853 0.930 . S
C862 C860 1.384 . S
C862 C863 1.372 . S
C863 C862 1.372 . S
C863 C864 1.400 . S
C863 C868 1.490 . S
C864 H854 0.930 . S
C864 C863 1.400 . S
C864 C867 1.386 . S
H865 C881 0.930 . S
H866 C882 0.931 . S
C867 H855 0.929 . S
C867 C861 1.390 . S
C867 C864 1.386 . S
C868 C863 1.490 . S
C868 C870 1.395 . S
C868 C871 1.403 . S
H869 C875 0.930 . S
C870 H856 0.930 . S
C870 C868 1.395 . S
C870 C873 1.403 . S
C871 C868 1.403 . S
C871 C872 1.524 . S
C871 C875 1.400 . S
C872 H857 0.960 . S
C872 H858 0.960 . S
C872 H859 0.960 . S
C872 C871 1.524 . S
C873 C870 1.403 . S
C873 C874 1.392 . S
C873 C877 1.495 . S
C874 C873 1.392 . S
C874 C875 1.385 . S
C874 C876 1.478 . S
C875 H869 0.930 . S
C875 C871 1.400 . S
C875 C874 1.385 . S
C876 C874 1.478 . S
C876 C878 1.381 . S
C876 C882 1.383 . S
C877 C873 1.495 . S
C877 H883 0.959 . S
C877 H884 0.961 . S
C877 H885 0.960 . S
C878 C876 1.381 . S
C878 C879 1.394 . S
C878 H886 0.930 . S
C879 C878 1.394 . S
C879 C880 1.383 . S
C879 H887 0.929 . S
C880 C879 1.383 . S
C880 C881 1.377 . S
C881 H865 0.930 . S
C881 C880 1.377 . S
C881 C882 1.379 . S
C882 H866 0.931 . S
C882 C876 1.383 . S
C882 C881 1.379 . S
H883 C877 0.959 . S
H884 C877 0.961 . S
H885 C877 0.960 . S
H886 C878 0.930 . S
H887 C879 0.929 . S
H888 C896 0.929 . S
H889 C898 0.930 . S
H890 C900 0.930 . S
H891 C903 0.929 . S
H892 C906 0.930 . S
H893 C908 0.960 . S
H894 C908 0.960 . S
H895 C908 0.960 . S
C896 H888 0.929 . S
C896 C897 1.377 . S
C896 C898 1.384 . S
C897 C896 1.377 . S
C897 C903 1.390 1_455 S
C898 H889 0.930 . S
C898 C896 1.384 . S
C898 C899 1.372 . S
C899 C898 1.372 . S
C899 C900 1.400 1_455 S
C899 C904 1.490 . S
C900 H890 0.930 . S
C900 C899 1.400 1_655 S
C900 C903 1.386 . S
H901 C917 0.930 . S
H902 C918 0.931 . S
C903 H891 0.929 . S
C903 C897 1.390 1_655 S
C903 C900 1.386 . S
C904 C899 1.490 . S
C904 C906 1.395 . S
C904 C907 1.403 1_455 S
H905 C911 0.930 . S
C906 H892 0.930 . S
C906 C904 1.395 . S
C906 C909 1.403 . S
C907 C904 1.403 1_655 S
C907 C908 1.524 . S
C907 C911 1.400 . S
C908 H893 0.960 . S
C908 H894 0.960 . S
C908 H895 0.960 . S
C908 C907 1.524 . S
C909 C906 1.403 . S
C909 C910 1.392 1_455 S
C909 C913 1.495 . S
C910 C909 1.392 1_655 S
C910 C911 1.385 . S
C910 C912 1.478 . S
C911 H905 0.930 . S
C911 C907 1.400 . S
C911 C910 1.385 . S
C912 C910 1.478 . S
C912 C914 1.381 1_655 S
C912 C918 1.383 . S
C913 C909 1.495 . S
C913 H919 0.959 . S
C913 H920 0.961 . S
C913 H921 0.960 . S
C914 C912 1.381 1_455 S
C914 C915 1.394 . S
C914 H922 0.930 . S
C915 C914 1.394 . S
C915 C916 1.383 1_455 S
C915 H923 0.929 . S
C916 C915 1.383 1_655 S
C916 C917 1.377 . S
C917 H901 0.930 . S
C917 C916 1.377 . S
C917 C918 1.379 . S
C918 H902 0.931 . S
C918 C912 1.383 . S
C918 C917 1.379 . S
H919 C913 0.959 . S
H920 C913 0.961 . S
H921 C913 0.960 . S
H922 C914 0.930 . S
H923 C915 0.929 . S
H924 C932 0.929 1_545 S
H925 C934 0.931 . S
H926 C936 0.930 . S
H927 C939 0.929 . S
H928 C942 0.930 . S
H929 C944 0.960 . S
H930 C944 0.960 . S
H931 C944 0.960 . S
C932 H924 0.929 1_565 S
C932 C933 1.377 . S
C932 C934 1.382 1_565 S
C933 C932 1.377 . S
C933 C939 1.390 . S
C934 H925 0.931 . S
C934 C932 1.382 1_545 S
C934 C935 1.373 1_545 S
C935 C934 1.373 1_565 S
C935 C936 1.400 . S
C935 C940 1.490 . S
C936 H926 0.930 . S
C936 C935 1.400 . S
C936 C939 1.386 . S
H937 C953 0.930 . S
H938 C954 0.933 1_565 S
C939 H927 0.929 . S
C939 C933 1.390 . S
C939 C936 1.386 . S
C940 C935 1.490 . S
C940 C942 1.395 1_565 S
C940 C943 1.403 . S
H941 C947 0.930 . S
C942 H928 0.930 . S
C942 C940 1.395 1_545 S
C942 C945 1.403 . S
C943 C940 1.403 . S
C943 C944 1.524 . S
C943 C947 1.400 . S
C944 H929 0.960 . S
C944 H930 0.960 . S
C944 H931 0.960 . S
C944 C943 1.524 . S
C945 C942 1.403 . S
C945 C946 1.392 . S
C945 C949 1.495 . S
C946 C945 1.392 . S
C946 C947 1.385 1_545 S
C946 C948 1.478 . S
C947 H941 0.930 . S
C947 C943 1.400 . S
C947 C946 1.385 1_565 S
C948 C946 1.478 . S
C948 C950 1.381 . S
C948 C954 1.383 . S
C949 C945 1.495 . S
C949 H955 0.959 . S
C949 H956 0.961 . S
C949 H957 0.960 . S
C950 C948 1.381 . S
C950 C951 1.394 . S
C950 H958 0.930 . S
C951 C950 1.394 . S
C951 C952 1.383 . S
C951 H959 0.929 . S
C952 C951 1.383 . S
C952 C953 1.377 . S
C953 H937 0.930 . S
C953 C952 1.377 . S
C953 C954 1.379 . S
C954 H938 0.933 1_545 S
C954 C948 1.383 . S
C954 C953 1.379 . S
H955 C949 0.959 . S
H956 C949 0.961 . S
H957 C949 0.960 . S
H958 C950 0.930 . S
H959 C951 0.929 . S
H960 C968 0.929 . S
H961 C970 0.930 . S
H962 C972 0.930 . S
H963 C975 0.929 . S
H964 C978 0.930 . S
H965 C980 0.960 . S
H966 C980 0.960 . S
H967 C980 0.960 . S
C968 H960 0.929 . S
C968 C969 1.377 . S
C968 C970 1.384 . S
C969 C968 1.377 . S
C969 C975 1.390 . S
C970 H961 0.930 . S
C970 C968 1.384 . S
C970 C971 1.372 . S
C971 C970 1.372 . S
C971 C972 1.400 . S
C971 C976 1.490 . S
C972 H962 0.930 . S
C972 C971 1.400 . S
C972 C975 1.386 . S
H973 C989 0.930 . S
H974 C990 0.931 . S
C975 H963 0.929 . S
C975 C969 1.390 . S
C975 C972 1.386 . S
C976 C971 1.490 . S
C976 C978 1.395 . S
C976 C979 1.403 . S
H977 C983 0.930 . S
C978 H964 0.930 . S
C978 C976 1.395 . S
C978 C981 1.403 . S
C979 C976 1.403 . S
C979 C980 1.524 . S
C979 C983 1.400 . S
C980 H965 0.960 . S
C980 H966 0.960 . S
C980 H967 0.960 . S
C980 C979 1.524 . S
C981 C978 1.403 . S
C981 C982 1.392 . S
C981 C985 1.495 . S
C982 C981 1.392 . S
C982 C983 1.385 . S
C982 C984 1.478 . S
C983 H977 0.930 . S
C983 C979 1.400 . S
C983 C982 1.385 . S
C984 C982 1.478 . S
C984 C986 1.381 . S
C984 C990 1.383 . S
C985 C981 1.495 . S
C985 H991 0.959 . S
C985 H992 0.961 . S
C985 H993 0.960 . S
C986 C984 1.381 . S
C986 C987 1.394 . S
C986 H994 0.930 . S
C987 C986 1.394 . S
C987 C988 1.383 . S
C987 H995 0.929 . S
C988 C987 1.383 . S
C988 C989 1.377 . S
C989 H973 0.930 . S
C989 C988 1.377 . S
C989 C990 1.379 . S
C990 H974 0.931 . S
C990 C984 1.383 . S
C990 C989 1.379 . S
H991 C985 0.959 . S
H992 C985 0.961 . S
H993 C985 0.960 . S
H994 C986 0.930 . S
H995 C987 0.929 . S
H996 C1004 0.929 . S
H997 C1006 0.930 . S
H998 C1008 0.930 . S
H999 C1011 0.929 . S
H1000 C1014 0.930 . S
H1001 C1016 0.960 . S
H1002 C1016 0.960 . S
H1003 C1016 0.960 1_455 S
C1004 H996 0.929 . S
C1004 C1005 1.377 . S
C1004 C1006 1.384 . S
C1005 C1004 1.377 . S
C1005 C1011 1.390 1_655 S
C1006 H997 0.930 . S
C1006 C1004 1.384 . S
C1006 C1007 1.372 . S
C1007 C1006 1.372 . S
C1007 C1008 1.400 1_655 S
C1007 C1012 1.490 . S
C1008 H998 0.930 . S
C1008 C1007 1.400 1_455 S
C1008 C1011 1.386 . S
H1009 C1025 0.930 . S
H1010 C1026 0.931 . S
C1011 H999 0.929 . S
C1011 C1005 1.390 1_455 S
C1011 C1008 1.386 . S
C1012 C1007 1.490 . S
C1012 C1014 1.395 . S
C1012 C1015 1.403 . S
H1013 C1019 0.930 . S
C1014 H1000 0.930 . S
C1014 C1012 1.395 . S
C1014 C1017 1.405 . S
C1015 C1012 1.403 . S
C1015 C1016 1.524 . S
C1015 C1019 1.400 1_655 S
C1016 H1001 0.960 . S
C1016 H1002 0.960 . S
C1016 H1003 0.960 1_655 S
C1016 C1015 1.524 . S
C1017 C1014 1.405 . S
C1017 C1018 1.387 1_655 S
C1017 C1021 1.500 1_655 S
C1018 C1017 1.387 1_455 S
C1018 C1019 1.385 . S
C1018 C1020 1.478 . S
C1019 H1013 0.930 . S
C1019 C1015 1.400 1_455 S
C1019 C1018 1.385 . S
C1020 C1018 1.478 . S
C1020 C1022 1.381 1_455 S
C1020 C1026 1.383 . S
C1021 C1017 1.500 1_455 S
C1021 H1027 0.959 1_455 S
C1021 H1028 0.961 . S
C1021 H1029 0.960 1_455 S
C1022 C1020 1.381 1_655 S
C1022 C1023 1.394 . S
C1022 H1030 0.930 . S
C1023 C1022 1.394 . S
C1023 C1024 1.383 1_655 S
C1023 H1031 0.929 . S
C1024 C1023 1.383 1_455 S
C1024 C1025 1.377 . S
C1025 H1009 0.930 . S
C1025 C1024 1.377 . S
C1025 C1026 1.379 . S
C1026 H1010 0.931 . S
C1026 C1020 1.383 . S
C1026 C1025 1.379 . S
H1027 C1021 0.959 1_655 S
H1028 C1021 0.961 . S
H1029 C1021 0.960 1_655 S
H1030 C1022 0.930 . S
H1031 C1023 0.929 . S
C177 C6 1.730 . S
C196 C118 1.735 . S
C213 C20 1.729 . S
C232 C132 1.711 . S
C249 C146 1.730 . S
C268 C34 1.736 . S
C285 C160 1.731 . S
C304 C48 1.732 . S
C321 C90 1.731 . S
C340 C62 1.731 . S
C357 C104 1.730 . S
C376 C76 1.713 . S
C393 C7 1.798 . S
C412 C49 1.818 . S
C429 C63 1.796 . S
C448 C21 1.770 . S
C465 C77 1.800 . S
C484 C35 1.815 . S
C501 C91 1.800 . S
C520 C133 1.774 . S
C537 C147 1.796 . S
C556 C105 1.816 . S
C573 C119 1.793 . S
C592 C161 1.804 . S
C609 C92 1.084 . S
C628 C8 1.088 . S
C645 C22 1.083 . S
C664 C106 1.072 . S
C681 C120 1.083 . S
C700 C36 1.073 . S
C717 C134 1.085 . S
C736 C50 1.079 . S
C753 C64 1.084 . S
C772 C148 1.075 . S
C789 C162 1.083 . S
C808 C78 1.075 . S
C825 C9 0.934 . S
C844 C107 0.909 . S
C861 C121 0.935 . S
C880 C23 0.920 . S
C897 C135 0.941 . S
C916 C37 0.952 . S
C933 C51 0.949 . S
C952 C149 0.965 . S
C969 C163 0.938 . S
C988 C65 0.909 . S
C1005 C93 0.945 . S
C1024 C79 0.968 . S
