# Generated by pormake.
# Topology nfc, (4)-cn, num edge types: 1
# Building blocks:
#     Node 0, Type 0, BuildingBlock: NAWXER_clean_sbu_0, # of connection points: 4
#     Node 1, Type 0, BuildingBlock: NAWXER_clean_sbu_0, # of connection points: 4
#     Node 2, Type 0, BuildingBlock: NAWXER_clean_sbu_0, # of connection points: 4
#     Node 3, Type 0, BuildingBlock: NAWXER_clean_sbu_0, # of connection points: 4
#     Node 4, Type 0, BuildingBlock: NAWXER_clean_sbu_0, # of connection points: 4
#     Node 5, Type 0, BuildingBlock: NAWXER_clean_sbu_0, # of connection points: 4
#     Node 6, Type 0, BuildingBlock: NAWXER_clean_sbu_0, # of connection points: 4
#     Node 7, Type 0, BuildingBlock: NAWXER_clean_sbu_0, # of connection points: 4
#     Node 8, Type 0, BuildingBlock: NAWXER_clean_sbu_0, # of connection points: 4
#     Node 9, Type 0, BuildingBlock: NAWXER_clean_sbu_0, # of connection points: 4
#     Node 10, Type 0, BuildingBlock: NAWXER_clean_sbu_0, # of connection points: 4
#     Node 11, Type 0, BuildingBlock: NAWXER_clean_sbu_0, # of connection points: 4
#     Node 12, Type 0, BuildingBlock: NAWXER_clean_sbu_0, # of connection points: 4
#     Node 13, Type 0, BuildingBlock: NAWXER_clean_sbu_0, # of connection points: 4
#     Node 14, Type 0, BuildingBlock: NAWXER_clean_sbu_0, # of connection points: 4
#     Node 15, Type 0, BuildingBlock: NAWXER_clean_sbu_0, # of connection points: 4
#     Edge 16, Type (0, 0), BuildingBlock: TEMPAE_clean_linker_10, # of connection points: 2
#     Edge 17, Type (0, 0), BuildingBlock: TEMPAE_clean_linker_10, # of connection points: 2
#     Edge 18, Type (0, 0), BuildingBlock: TEMPAE_clean_linker_10, # of connection points: 2
#     Edge 19, Type (0, 0), BuildingBlock: TEMPAE_clean_linker_10, # of connection points: 2
#     Edge 20, Type (0, 0), BuildingBlock: TEMPAE_clean_linker_10, # of connection points: 2
#     Edge 21, Type (0, 0), BuildingBlock: TEMPAE_clean_linker_10, # of connection points: 2
#     Edge 22, Type (0, 0), BuildingBlock: TEMPAE_clean_linker_10, # of connection points: 2
#     Edge 23, Type (0, 0), BuildingBlock: TEMPAE_clean_linker_10, # of connection points: 2
#     Edge 24, Type (0, 0), BuildingBlock: TEMPAE_clean_linker_10, # of connection points: 2
#     Edge 25, Type (0, 0), BuildingBlock: TEMPAE_clean_linker_10, # of connection points: 2
#     Edge 26, Type (0, 0), BuildingBlock: TEMPAE_clean_linker_10, # of connection points: 2
#     Edge 27, Type (0, 0), BuildingBlock: TEMPAE_clean_linker_10, # of connection points: 2
#     Edge 28, Type (0, 0), BuildingBlock: TEMPAE_clean_linker_10, # of connection points: 2
#     Edge 29, Type (0, 0), BuildingBlock: TEMPAE_clean_linker_10, # of connection points: 2
#     Edge 30, Type (0, 0), BuildingBlock: TEMPAE_clean_linker_10, # of connection points: 2
#     Edge 31, Type (0, 0), BuildingBlock: TEMPAE_clean_linker_10, # of connection points: 2
#     Edge 32, Type (0, 0), BuildingBlock: TEMPAE_clean_linker_10, # of connection points: 2
#     Edge 33, Type (0, 0), BuildingBlock: TEMPAE_clean_linker_10, # of connection points: 2
#     Edge 34, Type (0, 0), BuildingBlock: TEMPAE_clean_linker_10, # of connection points: 2
#     Edge 35, Type (0, 0), BuildingBlock: TEMPAE_clean_linker_10, # of connection points: 2
#     Edge 36, Type (0, 0), BuildingBlock: TEMPAE_clean_linker_10, # of connection points: 2
#     Edge 37, Type (0, 0), BuildingBlock: TEMPAE_clean_linker_10, # of connection points: 2
#     Edge 38, Type (0, 0), BuildingBlock: TEMPAE_clean_linker_10, # of connection points: 2
#     Edge 39, Type (0, 0), BuildingBlock: TEMPAE_clean_linker_10, # of connection points: 2
#     Edge 40, Type (0, 0), BuildingBlock: TEMPAE_clean_linker_10, # of connection points: 2
#     Edge 41, Type (0, 0), BuildingBlock: TEMPAE_clean_linker_10, # of connection points: 2
#     Edge 42, Type (0, 0), BuildingBlock: TEMPAE_clean_linker_10, # of connection points: 2
#     Edge 43, Type (0, 0), BuildingBlock: TEMPAE_clean_linker_10, # of connection points: 2
#     Edge 44, Type (0, 0), BuildingBlock: TEMPAE_clean_linker_10, # of connection points: 2
#     Edge 45, Type (0, 0), BuildingBlock: TEMPAE_clean_linker_10, # of connection points: 2
#     Edge 46, Type (0, 0), BuildingBlock: TEMPAE_clean_linker_10, # of connection points: 2
#     Edge 47, Type (0, 0), BuildingBlock: TEMPAE_clean_linker_10, # of connection points: 2
# Relax obj value: 0.157
# Max RMSD: 0.167
# Mean RMSD: 0.167
data_MOF--net-nfc--node1-NAWXER_clean_sbu_0--edge1-TEMPAE_clean_linker_10
_symmetry_space_group_name_H-M    P1
_symmetry_Int_Tables_number       1
_symmetry_cell_setting            triclinic
loop_
_symmetry_equiv_pos_as_xyz
'x, y, z'
_cell_length_a     37.186518
_cell_length_b     37.279258
_cell_length_c     27.643213
_cell_angle_alpha  90.12237
_cell_angle_beta   89.992211
_cell_angle_gamma 90.196915
loop_
_atom_site_label
_atom_site_type_symbol
_atom_site_fract_x
_atom_site_fract_y
_atom_site_fract_z
_atom_type_partial_charge
C0 C 1.00474 0.02157 0.03803 0.0
C1 C 0.91219 0.93192 -0.00446 0.0
O2 O 0.97079 0.02588 0.03873 0.0
Zn3 Zn 0.9578 0.97742 0.018 0.0
O4 O 0.01781 0.99123 0.02523 0.0
Zn5 Zn 0.99834 0.9386 0.00486 0.0
O6 O 0.01921 0.93276 0.94185 0.0
O7 O 0.97798 0.97521 0.94535 0.0
O8 O 0.94426 0.91939 0.99342 0.0
O9 O 0.90751 0.96409 0.00946 0.0
O10 O 0.9761 0.94913 0.08025 0.0
O11 O 0.01778 0.91069 0.05738 0.0
C12 C 1.00101 0.95704 0.92102 0.0
C13 C 0.99972 0.92549 0.09085 0.0
C14 C 0.16866 0.78447 0.27629 0.0
C15 C 0.26304 0.70589 0.21695 0.0
O16 O 0.16654 0.75359 0.25746 0.0
Zn17 Zn 0.21728 0.74551 0.24676 0.0
O18 O 0.19946 0.79966 0.28073 0.0
Zn19 Zn 0.25417 0.78524 0.26368 0.0
O20 O 0.27063 0.81973 0.21792 0.0
O21 O 0.23431 0.77927 0.18614 0.0
O22 O 0.27601 0.73567 0.23282 0.0
O23 O 0.22941 0.69999 0.21969 0.0
O24 O 0.24117 0.74141 0.31899 0.0
O25 O 0.27761 0.78807 0.32414 0.0
C26 C 0.25597 0.80594 0.18087 0.0
C27 C 0.26409 0.7602 0.34307 0.0
C28 C 0.60282 0.99097 0.51737 0.0
C29 C 0.54109 0.98302 0.36368 0.0
O30 O 0.58216 0.01777 0.50939 0.0
Zn31 Zn 0.54719 0.03704 0.45407 0.0
O32 O 0.6064 0.96686 0.48521 0.0
Zn33 Zn 0.57348 0.98785 0.43937 0.0
O34 O 0.60199 0.03463 0.41405 0.0
O35 O 0.57006 0.08183 0.43498 0.0
O36 O 0.56436 0.96183 0.38111 0.0
O37 O 0.53248 1.01161 0.38685 0.0
O38 O 0.50197 0.03816 0.48941 0.0
O39 O 0.52281 0.98345 0.47772 0.0
C40 C 0.5979 0.06879 0.415 0.0
C41 C 0.49866 1.00443 0.49501 0.0
C42 C 0.34736 0.24039 0.7714 0.0
C43 C 0.26525 0.3349 0.71698 0.0
O44 O 0.35473 0.26934 0.74936 0.0
Zn45 Zn 0.30596 0.28755 0.74248 0.0
O46 O 0.3143 0.23225 0.77909 0.0
Zn47 Zn 0.26261 0.25571 0.76414 0.0
O48 O 0.23888 0.22363 0.72047 0.0
O49 O 0.28181 0.25534 0.68593 0.0
O50 O 0.24871 0.30784 0.73516 0.0
O51 O 0.29938 0.33454 0.71408 0.0
O52 O 0.28749 0.29577 0.81704 0.0
O53 O 0.24189 0.25828 0.82599 0.0
C54 C 0.25588 0.23265 0.68266 0.0
C55 C 0.26232 0.28235 0.84343 0.0
C56 C 0.90304 0.03537 0.49236 0.0
C57 C 0.98656 0.93988 0.44113 0.0
O58 O 0.89514 1.00472 0.47509 0.0
Zn59 Zn 0.94398 0.98653 0.46689 0.0
O60 O 0.93619 0.04448 0.49632 0.0
Zn61 Zn 0.98777 0.02148 0.48147 0.0
O62 O 1.0091 0.04994 0.43124 0.0
O63 O 0.96492 0.01498 0.40587 0.0
O64 O 1.00191 0.96882 0.45559 0.0
O65 O 0.95237 0.93757 0.44282 0.0
O66 O 0.96554 0.98419 0.53954 0.0
O67 O 1.01079 0.02269 0.54282 0.0
C68 C 0.99061 0.03692 0.39677 0.0
C69 C 0.99114 0.99934 0.56334 0.0
C70 C 0.34304 0.81687 0.84253 0.0
C71 C 0.32066 0.75979 0.68564 0.0
O72 O 0.31686 0.83026 0.81855 0.0
Zn73 Zn 0.28992 0.82345 0.75131 0.0
O74 O 0.36295 0.79312 0.82298 0.0
Zn75 Zn 0.33666 0.7896 0.76216 0.0
O76 O 0.34796 0.83899 0.72662 0.0
O77 O 0.29727 0.86865 0.71672 0.0
O78 O 0.34778 0.75351 0.71237 0.0
O79 O 0.29877 0.78475 0.69718 0.0
O80 O 0.24282 0.80755 0.77536 0.0
O81 O 0.28726 0.77008 0.79127 0.0
C82 C 0.33113 0.86649 0.71071 0.0
C83 C 0.25411 0.77877 0.79504 0.0
C84 C 0.62353 0.99477 0.98891 0.0
C85 C 0.53437 0.07173 0.90815 0.0
O86 O 0.62558 0.0286 0.98311 0.0
Zn87 Zn 0.58001 0.03404 0.94898 0.0
O88 O 0.5959 0.97771 0.97305 0.0
Zn89 Zn 0.54584 0.98895 0.93659 0.0
O90 O 0.55023 0.96044 0.87934 0.0
O91 O 0.5899 1.00475 0.88323 0.0
O92 O 0.52514 0.03857 0.90905 0.0
O93 O 0.56386 0.08126 0.92767 0.0
O94 O 0.54366 0.02139 0.00595 0.0
O95 O 0.51092 0.9745 0.98474 0.0
C96 C 0.57683 0.97724 0.86137 0.0
C97 C 0.51916 0.99829 0.01583 0.0
C98 C 0.28661 0.23217 0.30294 0.0
C99 C 0.19029 0.17462 0.20819 0.0
O100 O 0.25815 0.25118 0.29832 0.0
Zn101 Zn 0.20619 0.24848 0.2643 0.0
O102 O 0.28868 0.20191 0.28164 0.0
Zn103 Zn 0.24003 0.20261 0.25465 0.0
O104 O 0.24513 0.24325 0.20104 0.0
O105 O 0.20832 0.28778 0.2184 0.0
O106 O 0.22085 0.16175 0.21914 0.0
O107 O 0.18201 0.20617 0.22289 0.0
O108 O 0.17602 0.25219 0.32112 0.0
O109 O 0.20926 0.20325 0.31973 0.0
C110 C 0.2322 0.27419 0.19109 0.0
C111 C 0.18667 0.22354 0.34149 0.0
C112 C 0.65543 0.2984 0.72836 0.0
C113 C 0.73122 0.2131 0.63915 0.0
O114 O 0.64559 0.26896 0.70906 0.0
Zn115 Zn 0.69255 0.25527 0.68354 0.0
O116 O 0.6881 0.30889 0.72377 0.0
Zn117 Zn 0.73664 0.29078 0.68978 0.0
O118 O 0.74538 0.32772 0.64377 0.0
O119 O 0.69969 0.29246 0.62444 0.0
O120 O 0.74781 0.24222 0.65011 0.0
O121 O 0.69885 0.20863 0.65273 0.0
O122 O 0.72403 0.24995 0.7487 0.0
O123 O 0.76903 0.28842 0.74303 0.0
C124 C 0.72059 0.31894 0.61448 0.0
C125 C 0.75249 0.26431 0.76665 0.0
C126 C 0.85564 0.74737 0.27618 0.0
C127 C 0.7785 0.833 0.19117 0.0
O128 O 0.86547 0.77638 0.25583 0.0
Zn129 Zn 0.81804 0.78978 0.23196 0.0
O130 O 0.82293 0.73685 0.27227 0.0
Zn131 Zn 0.77367 0.75491 0.24005 0.0
O132 O 0.764 0.71806 0.19311 0.0
O133 O 0.80995 0.75269 0.17323 0.0
O134 O 0.76139 0.80467 0.20423 0.0
O135 O 0.81187 0.83578 0.20032 0.0
O136 O 0.78884 0.7942 0.29996 0.0
O137 O 0.74344 0.75601 0.29562 0.0
C138 C 0.78872 0.72646 0.1636 0.0
C139 C 0.76139 0.77903 0.31957 0.0
C140 C 0.77842 0.34186 0.27939 0.0
C141 C 0.77611 0.28571 0.12159 0.0
O142 O 0.75861 0.34984 0.24361 0.0
Zn143 Zn 0.77759 0.3141 0.20026 0.0
O144 O 0.8018 0.31685 0.27507 0.0
Zn145 Zn 0.82001 0.27964 0.22158 0.0
O146 O 0.86986 0.29454 0.21195 0.0
O147 O 0.83065 0.33363 0.18403 0.0
O148 O 0.80046 0.27187 0.14865 0.0
O149 O 0.75647 0.31073 0.13799 0.0
O150 O 0.7605 0.26484 0.23378 0.0
O151 O 0.80894 0.23429 0.2537 0.0
C152 C 0.86335 0.32392 0.19039 0.0
C153 C 0.77485 0.23707 0.25297 0.0
C154 C 0.67884 0.67218 0.73045 0.0
C155 C 0.74562 0.77175 0.80771 0.0
O156 O 0.66557 0.69888 0.75291 0.0
Zn157 Zn 0.71075 0.72313 0.76889 0.0
O158 O 0.71311 0.66938 0.72689 0.0
Zn159 Zn 0.76042 0.69834 0.74906 0.0
O160 O 0.78418 0.66585 0.79387 0.0
O161 O 0.73327 0.68829 0.8212 0.0
O162 O 0.7658 0.74842 0.78722 0.0
O163 O 0.7116 0.76795 0.80615 0.0
O164 O 0.73166 0.73823 0.69924 0.0
O165 O 0.78252 0.70891 0.68794 0.0
C166 C 0.76095 0.66852 0.82745 0.0
C167 C 0.75897 0.7308 0.67267 0.0
C168 C 0.45343 0.38648 0.491 0.0
C169 C 0.52249 0.48539 0.56459 0.0
O170 O 0.43798 0.41709 0.48905 0.0
Zn171 Zn 0.44657 0.47137 0.51217 0.0
O172 O 0.4831 0.38323 0.51357 0.0
Zn173 Zn 0.48832 0.43434 0.52945 0.0
O174 O 0.44816 0.44088 0.58363 0.0
O175 O 0.40718 0.47872 0.55719 0.0
O176 O 0.53125 0.4525 0.5619 0.0
O177 O 0.49224 0.49549 0.54707 0.0
O178 O 0.44518 0.49463 0.4502 0.0
O179 O 0.49024 0.45658 0.45752 0.0
C180 C 0.41874 0.45802 0.59011 0.0
C181 C 0.4718 0.4783 0.43154 0.0
C182 C 0.06849 0.6104 0.13529 0.0
C183 C 1.01081 0.59145 0.9785 0.0
O184 O 0.03924 0.62422 0.12067 0.0
Zn185 Zn 0.03641 0.59942 0.05928 0.0
O186 O 0.08437 0.58669 0.10933 0.0
Zn187 Zn 0.07626 0.56025 0.04118 0.0
O188 O 0.11909 0.5741 0.00524 0.0
O189 O 0.08291 0.61938 0.02194 0.0
O190 O 0.03769 0.57095 0.98649 0.0
O191 O 0.99978 0.61237 0.01176 0.0
O192 O 0.02283 0.54573 0.08005 0.0
O193 O 0.06699 0.5102 0.05723 0.0
C194 C 0.11174 0.60739 0.00245 0.0
C195 C 0.03651 0.51426 0.07732 0.0
C196 C 0.41406 0.53532 0.02189 0.0
C197 C 0.49064 0.45093 0.93375 0.0
O198 O 0.40365 0.50257 0.02493 0.0
Zn199 Zn 0.41908 0.4505 -0.00132 0.0
O200 O 0.44119 0.54346 -0.00401 0.0
Zn201 Zn 0.45279 0.4946 0.97744 0.0
O202 O 0.40956 0.48276 0.93047 0.0
O203 O 0.37841 0.43655 0.95774 0.0
O204 O 0.49431 0.48476 0.93698 0.0
O205 O 0.46444 0.43548 0.9556 0.0
O206 O 0.42743 0.42675 0.05963 0.0
O207 O 0.46477 0.4719 0.0466 0.0
C208 C 0.3832 0.46083 0.92611 0.0
C209 C 0.45285 0.447 0.07429 0.0
C210 C 0.106 0.52639 0.57328 0.0
C211 C 0.01711 0.60511 0.49741 0.0
O212 O 0.11414 0.55976 0.57704 0.0
Zn213 Zn 0.0916 0.61061 0.55676 0.0
O214 O 0.0769 0.51735 0.55237 0.0
Zn215 Zn 0.05966 0.56505 0.53729 0.0
O216 O 0.09697 0.58269 0.48431 0.0
O217 O 0.12646 0.6303 0.5108 0.0
O218 O 0.01581 0.57106 0.50029 0.0
O219 O 0.04289 0.6223 0.51788 0.0
O220 O 0.08405 0.63347 0.61879 0.0
O221 O 0.04682 0.58808 0.60623 0.0
C222 C 0.12012 0.60762 0.47736 0.0
C223 C 0.05816 0.61382 0.63311 0.0
C224 C 0.04443 0.95134 0.14454 0.0
C225 C 0.01486 0.92831 0.13954 0.0
C226 C 0.0494 0.97136 0.1869 0.0
C227 C 0.02583 0.96595 0.22639 0.0
C228 C 1.00011 0.93775 0.22422 0.0
C229 C 0.99379 0.92028 0.17995 0.0
C230 C 0.07789 1.00018 0.18647 0.0
C231 C 0.97709 0.92817 0.26729 0.0
C232 C 0.03883 0.01356 0.34632 0.0
C233 C 1.00687 0.03328 0.34884 0.0
C234 C 0.04681 0.99275 0.30549 0.0
C235 C 0.02302 0.99318 0.26559 0.0
C236 C 0.99378 0.01758 0.26535 0.0
C237 C 0.98537 0.03655 0.30769 0.0
C238 C 0.07796 0.96712 0.30802 0.0
C239 C 0.96924 0.02139 0.22218 0.0
H240 H 0.06067 0.95762 0.113 0.0
H241 H 0.9709 0.90241 0.17611 0.0
H242 H 0.07547 0.01984 0.21638 0.0
H243 H 0.10469 0.98728 0.18873 0.0
H244 H 0.07698 0.01481 0.15163 0.0
H245 H 0.9678 0.89984 0.26519 0.0
H246 H 0.99205 0.93209 0.30168 0.0
H247 H 0.95298 0.94559 0.26806 0.0
H248 H 0.05507 1.01046 0.37865 0.0
H249 H 0.9605 0.05158 0.30981 0.0
H250 H 0.0928 0.96592 0.27335 0.0
H251 H 0.06718 0.94002 0.31554 0.0
H252 H 0.09711 0.97434 0.33734 0.0
H253 H 0.95765 0.04879 0.22057 0.0
H254 H 0.9466 1.00211 0.22545 0.0
H255 H 0.98353 0.01588 0.18776 0.0
C256 C 0.28807 0.77712 0.42372 0.0
C257 C 0.27458 0.75043 0.39288 0.0
C258 C 0.29764 0.76938 0.47146 0.0
C259 C 0.29455 0.73373 0.48871 0.0
C260 C 0.28232 0.70625 0.45717 0.0
C261 C 0.27182 0.71507 0.40973 0.0
C262 C 0.30974 0.79982 0.50396 0.0
C263 C 0.27938 0.66775 0.47345 0.0
C264 C 0.34251 0.73119 0.60884 0.0
C265 C 0.31416 0.74095 0.63944 0.0
C266 C 0.33597 0.72389 0.5596 0.0
C267 C 0.30054 0.72705 0.54113 0.0
C268 C 0.27153 0.73224 0.57341 0.0
C269 C 0.27873 0.73895 0.62223 0.0
C270 C 0.3673 0.71635 0.52654 0.0
C271 C 0.23326 0.73524 0.55561 0.0
H272 H 0.29019 0.80452 0.41091 0.0
H273 H 0.26178 0.69425 0.38579 0.0
H274 H 0.29103 0.80244 0.53505 0.0
H275 H 0.33684 0.79418 0.51876 0.0
H276 H 0.31079 0.82594 0.48472 0.0
H277 H 0.28274 0.64902 0.44247 0.0
H278 H 0.29967 0.66123 0.5015 0.0
H279 H 0.25227 0.66303 0.48897 0.0
H280 H 0.36991 0.73223 0.62218 0.0
H281 H 0.25665 0.74559 0.64625 0.0
H282 H 0.37504 0.74133 0.50736 0.0
H283 H 0.35985 0.69605 0.49882 0.0
H284 H 0.39106 0.70667 0.54702 0.0
H285 H 0.23012 0.76064 0.53516 0.0
H286 H 0.21355 0.73514 0.58582 0.0
H287 H 0.22668 0.71283 0.53071 0.0
C288 C 0.62702 0.97431 0.80193 0.0
C289 C 0.59098 0.96737 0.81356 0.0
C290 C 0.63918 0.97138 0.75409 0.0
C291 C 0.61424 0.96285 0.71719 0.0
C292 C 0.57859 0.95276 0.72951 0.0
C293 C 0.56753 0.95468 0.77784 0.0
C294 C 0.67788 0.9803 0.74276 0.0
C295 C 0.55098 0.94368 0.69126 0.0
C296 C 0.6127 0.01376 0.60043 0.0
C297 C 0.61691 0.98595 0.56677 0.0
C298 C 0.6148 1.00711 0.65001 0.0
C299 C 0.62239 0.97194 0.6662 0.0
C300 C 0.63164 0.94495 0.63238 0.0
C301 C 0.62841 0.95217 0.5827 0.0
C302 C 0.60503 0.0369 0.68479 0.0
C303 C 0.64187 0.9077 0.64838 0.0
H304 H 0.64539 0.98336 0.82992 0.0
H305 H 0.5397 0.94912 0.78698 0.0
H306 H 0.6879 0.96413 0.71185 0.0
H307 H 0.68011 1.00903 0.7328 0.0
H308 H 0.69547 0.97563 0.7746 0.0
H309 H 0.544 0.96831 0.67084 0.0
H310 H 0.5619 0.92398 0.66507 0.0
H311 H 0.52595 0.93247 0.70718 0.0
H312 H 0.60476 0.0402 0.58824 0.0
H313 H 0.63236 0.93068 0.55679 0.0
H314 H 0.6259 0.03981 0.71315 0.0
H315 H 0.57929 0.03026 0.70312 0.0
H316 H 0.60191 0.06315 0.66633 0.0
H317 H 0.65726 0.90841 0.68277 0.0
H318 H 0.65817 0.89384 0.62035 0.0
H319 H 0.61714 0.89162 0.65449 0.0
C320 C 0.23441 0.2733 0.92407 0.0
C321 C 0.25785 0.29306 0.89461 0.0
C322 C 0.23197 0.28001 0.97367 0.0
C323 C 0.25305 0.30773 0.9945 0.0
C324 C 0.27499 0.32949 0.96454 0.0
C325 C 0.2775 0.3216 0.91484 0.0
C326 C 0.20834 0.25585 0.00414 0.0
C327 C 0.29705 0.36003 0.98489 0.0
C328 C 0.22151 0.31742 0.12311 0.0
C329 C 0.24319 0.29157 0.14539 0.0
C330 C 0.22735 0.327 0.07455 0.0
C331 C 0.25506 0.30989 0.04808 0.0
C332 C 0.27966 0.28737 0.07235 0.0
C333 C 0.27347 0.27858 0.12079 0.0
C334 C 0.20173 0.35259 0.05038 0.0
C335 C 0.30999 0.26901 0.04581 0.0
H336 H 0.21887 0.2514 0.90876 0.0
H337 H 0.29531 0.33734 0.89215 0.0
H338 H 0.22517 0.24062 0.03007 0.0
H339 H 0.18907 0.27206 0.02551 0.0
H340 H 0.19281 0.23633 0.98196 0.0
H341 H 0.30201 0.38094 0.95707 0.0
H342 H 0.28372 0.37258 0.01657 0.0
H343 H 0.32355 0.34971 -0.00322 0.0
H344 H 0.19848 0.32817 0.14226 0.0
H345 H 0.29101 0.25942 0.13834 0.0
H346 H 0.18099 0.3371 0.03034 0.0
H347 H 0.21611 0.36983 0.02395 0.0
H348 H 0.18788 0.36992 0.07724 0.0
H349 H 0.29875 0.24794 0.02167 0.0
H350 H 0.32933 0.2562 0.071 0.0
H351 H 0.3248 0.28843 0.02287 0.0
C352 C 0.02486 1.007 0.64091 0.0
C353 C 0.99707 0.99037 0.61475 0.0
C354 C 0.02932 1.00049 0.69046 0.0
C355 C 1.00536 0.97686 0.71429 0.0
C356 C 0.97808 0.95901 0.68778 0.0
C357 C 0.97427 0.96597 0.63826 0.0
C358 C 0.05876 0.01992 0.71764 0.0
C359 C 0.95203 0.93362 0.71208 0.0
C360 C 0.02607 0.94113 0.83963 0.0
C361 C 1.00473 0.96352 0.86856 0.0
C362 C 0.0273 0.94564 0.78925 0.0
C363 C 1.00673 0.97314 0.76761 0.0
C364 C 0.98604 0.99647 0.79678 0.0
C365 C 0.9853 0.99138 0.84688 0.0
C366 C 0.04976 0.9204 0.7591 0.0
C367 C 0.96384 0.02622 0.77496 0.0
H368 H 0.04275 0.02572 0.62293 0.0
H369 H 0.95286 0.95286 0.61825 0.0
H370 H 0.04666 0.03926 0.74345 0.0
H371 H 0.07486 1.00067 0.73912 0.0
H372 H 0.07709 0.03484 0.69307 0.0
H373 H 0.93406 0.91992 0.68572 0.0
H374 H 0.96685 0.91297 0.73283 0.0
H375 H 0.93513 0.94868 0.73819 0.0
H376 H 0.04117 0.91958 0.85617 0.0
H377 H 0.96891 1.00895 0.86898 0.0
H378 H 0.06817 0.93583 0.7353 0.0
H379 H 0.032 0.90417 0.7353 0.0
H380 H 0.06598 0.90191 0.78171 0.0
H381 H 0.98108 0.04388 0.75244 0.0
H382 H 0.9504 0.04291 0.80292 0.0
H383 H 0.94291 0.01463 0.75092 0.0
C384 C 0.79317 0.34616 0.36657 0.0
C385 C 0.77116 0.35659 0.32799 0.0
C386 C 0.78174 0.35015 0.41437 0.0
C387 C 0.74783 0.36586 0.42375 0.0
C388 C 0.72779 0.38092 0.38537 0.0
C389 C 0.73954 0.37578 0.33758 0.0
C390 C 0.80419 0.33387 0.45423 0.0
C391 C 0.69247 0.39958 0.39426 0.0
C392 C 0.70577 0.31615 0.52717 0.0
C393 C 0.71907 0.33584 0.56647 0.0
C394 C 0.71204 0.32755 0.47975 0.0
C395 C 0.73121 0.35994 0.47176 0.0
C396 C 0.74058 0.38212 0.51137 0.0
C397 C 0.73499 0.36947 0.55853 0.0
C398 C 0.70166 0.30291 0.43851 0.0
C399 C 0.75929 0.41769 0.50423 0.0
H400 H 0.81812 0.33214 0.35942 0.0
H401 H 0.7227 0.38457 0.30791 0.0
H402 H 0.80822 0.35341 0.48402 0.0
H403 H 0.78997 0.31022 0.46947 0.0
H404 H 0.83101 0.32505 0.44117 0.0
H405 H 0.68608 0.41853 0.36453 0.0
H406 H 0.67058 0.37934 0.39601 0.0
H407 H 0.6928 0.41448 0.42906 0.0
H408 H 0.6932 0.29025 0.53323 0.0
H409 H 0.7446 0.38513 0.58902 0.0
H410 H 0.7263 0.29137 0.42208 0.0
H411 H 0.6874 0.31801 0.40989 0.0
H412 H 0.68412 0.28045 0.45056 0.0
H413 H 0.78865 0.41328 0.50072 0.0
H414 H 0.75481 0.43583 0.53558 0.0
H415 H 0.74984 0.43117 0.47082 0.0
C416 C 0.51574 0.0235 0.09866 0.0
C417 C 0.50562 0.99648 0.06599 0.0
C418 C 0.51295 0.01827 0.14851 0.0
C419 C 0.49868 0.98557 0.16613 0.0
C420 C 0.48419 0.96009 0.13338 0.0
C421 C 0.48817 0.96568 0.08339 0.0
C422 C 0.52871 0.04629 0.18208 0.0
C423 C 0.46715 0.92571 0.15089 0.0
C424 C 0.54762 0.95986 0.27991 0.0
C425 C 0.52641 0.97675 0.31495 0.0
C426 C 0.53735 0.95994 0.23119 0.0
C427 C 0.50456 0.97641 0.21768 0.0
C428 C 0.48124 0.98998 0.25371 0.0
C429 C 0.4928 0.99066 0.302 0.0
C430 C 0.56326 0.94549 0.19385 0.0
C431 C 0.44532 1.00612 0.24097 0.0
H432 H 0.5285 0.04777 0.08543 0.0
H433 H 0.47978 0.94488 0.05831 0.0
H434 H 0.5091 0.05356 0.21062 0.0
H435 H 0.55286 0.03526 0.2003 0.0
H436 H 0.53671 0.07112 0.16264 0.0
H437 H 0.44875 0.91416 0.12325 0.0
H438 H 0.48848 0.90574 0.15833 0.0
H439 H 0.45192 0.93009 0.18491 0.0
H440 H 0.57356 0.94897 0.28998 0.0
H441 H 0.47604 1.00312 0.32936 0.0
H442 H 0.57431 0.96803 0.1722 0.0
H443 H 0.54921 0.92708 0.16856 0.0
H444 H 0.58609 0.93089 0.21056 0.0
H445 H 0.44928 0.03414 0.22862 0.0
H446 H 0.42697 1.00657 0.27269 0.0
H447 H 0.43222 0.99099 0.21114 0.0
C448 C 0.79492 0.72881 0.07467 0.0
C449 C 0.79114 0.70824 0.11654 0.0
C450 C 0.79314 0.7128 0.02889 0.0
C451 C 0.7892 0.67503 0.02505 0.0
C452 C 0.78792 0.65386 0.0675 0.0
C453 C 0.78791 0.67088 0.11292 0.0
C454 C 0.79336 0.73666 0.98474 0.0
C455 C 0.78523 0.6135 0.06536 0.0
C456 C 0.7396 0.65523 0.9102 0.0
C457 C 0.76807 0.65554 0.87694 0.0
C458 C 0.74612 0.65753 0.95992 0.0
C459 C 0.78204 0.65915 0.97664 0.0
C460 C 0.81069 0.65339 0.94379 0.0
C461 C 0.80341 0.65199 0.8939 0.0
C462 C 0.71466 0.66313 0.99364 0.0
C463 C 0.8492 0.65257 0.96081 0.0
H464 H 0.79725 0.75774 0.07772 0.0
H465 H 0.78537 0.65499 0.14557 0.0
H466 H 0.81614 0.72953 0.96075 0.0
H467 H 0.76817 0.73283 0.96377 0.0
H468 H 0.79571 0.76546 0.99444 0.0
H469 H 0.79813 0.60115 0.09749 0.0
H470 H 0.7565 0.60542 0.0655 0.0
H471 H 0.79795 0.6025 0.0322 0.0
H472 H 0.71214 0.65699 0.89719 0.0
H473 H 0.82555 0.65159 0.86839 0.0
H474 H 0.71463 0.69134 0.00661 0.0
H475 H 0.71698 0.64557 0.02575 0.0
H476 H 0.68849 0.65759 0.97569 0.0
H477 H 0.85898 0.68042 0.96645 0.0
H478 H 0.86698 0.63943 0.93381 0.0
H479 H 0.85141 0.63819 -0.0042 0.0
C480 C 0.42026 0.44452 0.67772 0.0
C481 C 0.40032 0.45513 0.63729 0.0
C482 C 0.405 0.4441 0.72388 0.0
C483 C 0.3684 0.45373 0.7298 0.0
C484 C 0.34745 0.46261 0.68878 0.0
C485 C 0.36381 0.46359 0.64284 0.0
C486 C 0.42882 0.43508 0.76655 0.0
C487 C 0.30803 0.47132 0.6935 0.0
C488 C 0.35063 0.42994 0.85861 0.0
C489 C 0.36293 0.46168 0.8803 0.0
C490 C 0.34575 0.42834 0.80819 0.0
C491 C 0.35452 0.45872 0.77974 0.0
C492 C 0.36065 0.49216 0.80263 0.0
C493 C 0.3642 0.49327 0.85292 0.0
C494 C 0.33596 0.39306 0.78501 0.0
C495 C 0.3698 0.52551 0.77414 0.0
H496 H 0.44848 0.43791 0.67366 0.0
H497 H 0.34814 0.47109 0.6114 0.0
H498 H 0.42973 0.45799 0.79223 0.0
H499 H 0.41777 0.41163 0.78624 0.0
H500 H 0.45683 0.42872 0.75553 0.0
H501 H 0.2965 0.48109 0.65895 0.0
H502 H 0.29319 0.44694 0.70493 0.0
H503 H 0.30349 0.4919 0.72183 0.0
H504 H 0.34858 0.4056 0.87985 0.0
H505 H 0.37244 0.51819 0.87005 0.0
H506 H 0.36085 0.37859 0.77469 0.0
H507 H 0.31992 0.39749 0.75175 0.0
H508 H 0.32043 0.37578 0.81025 0.0
H509 H 0.39802 0.52366 0.76124 0.0
H510 H 0.36728 0.55015 0.79654 0.0
H511 H 0.35229 0.52822 0.74196 0.0
C512 C 0.7895 0.27723 0.83984 0.0
C513 C 0.76282 0.25656 0.81713 0.0
C514 C 0.79418 0.27594 0.89006 0.0
C515 C 0.77185 0.25319 0.91799 0.0
C516 C 0.7473 0.22975 0.89481 0.0
C517 C 0.74297 0.23179 0.84452 0.0
C518 C 0.8208 0.30126 0.9135 0.0
C519 C 0.72355 0.20462 0.92338 0.0
C520 C 0.79484 0.24755 0.05138 0.0
C521 C 0.77251 0.27432 0.07061 0.0
C522 C 0.79394 0.23912 0.00189 0.0
C523 C 0.77039 0.25814 0.97114 0.0
C524 C 0.74678 0.28412 0.99069 0.0
C525 C 0.74805 0.29178 0.04022 0.0
C526 C 0.8191 0.21091 0.9823 0.0
C527 C 0.72118 0.30496 0.95899 0.0
H528 H 0.80523 0.29617 0.81887 0.0
H529 H 0.72263 0.21534 0.82713 0.0
H530 H 0.80602 0.32289 0.9326 0.0
H531 H 0.83723 0.287 0.9408 0.0
H532 H 0.83912 0.31382 0.88663 0.0
H533 H 0.711 0.1838 0.89996 0.0
H534 H 0.73906 0.19118 0.95239 0.0
H535 H 0.70177 0.22019 0.94097 0.0
H536 H 0.81367 0.23377 0.07473 0.0
H537 H 0.73056 0.31234 0.05481 0.0
H538 H 0.84038 0.22394 0.96029 0.0
H539 H 0.80442 0.19205 0.95822 0.0
H540 H 0.8322 0.19538 0.01162 0.0
H541 H 0.73667 0.32138 0.93275 0.0
H542 H 0.70351 0.32308 0.98023 0.0
H543 H 0.70398 0.2863 0.93784 0.0
C544 C 0.06094 0.62576 0.2225 0.0
C545 C 0.08368 0.61986 0.18296 0.0
C546 C 0.07498 0.62876 0.26948 0.0
C547 C 0.11273 0.62706 0.27667 0.0
C548 C 0.1359 0.62445 0.23625 0.0
C549 C 0.12106 0.62009 0.18989 0.0
C550 C 0.04929 0.63159 0.31167 0.0
C551 C 0.17623 0.62461 0.24222 0.0
C552 C 0.13498 0.64747 0.40758 0.0
C553 C 0.13265 0.6129 0.42722 0.0
C554 C 0.1324 0.65265 0.35728 0.0
C555 C 0.12698 0.62261 0.3266 0.0
C556 C 0.12926 0.58757 0.346 0.0
C557 C 0.13248 0.5832 0.39605 0.0
C558 C 0.13213 0.69045 0.33811 0.0
C559 C 0.12381 0.55465 0.31483 0.0
H560 H 0.03206 0.62573 0.21708 0.0
H561 H 0.1387 0.61619 0.15909 0.0
H562 H 0.05345 0.6089 0.33698 0.0
H563 H 0.05456 0.65676 0.33199 0.0
H564 H 0.02074 0.63132 0.29996 0.0
H565 H 0.19029 0.62882 0.20722 0.0
H566 H 0.18461 0.64597 0.26794 0.0
H567 H 0.1851 0.5986 0.25742 0.0
H568 H 0.13529 0.67058 0.43146 0.0
H569 H 0.13119 0.55641 0.4112 0.0
H570 H 0.10497 0.70212 0.34332 0.0
H571 H 0.13895 0.69161 0.29908 0.0
H572 H 0.15158 0.70735 0.35849 0.0
H573 H 0.09538 0.55342 0.30264 0.0
H574 H 0.13 0.52949 0.33459 0.0
H575 H 0.14096 0.5559 0.28209 0.0
C576 C 0.78428 0.73029 0.58887 0.0
C577 C 0.76133 0.74578 0.62324 0.0
C578 C 0.78347 0.74128 0.54038 0.0
C579 C 0.75945 0.76873 0.52611 0.0
C580 C 0.73773 0.78589 0.56116 0.0
C581 C 0.73872 0.77401 0.60927 0.0
C582 C 0.80705 0.72224 0.50399 0.0
C583 C 0.71239 0.81578 0.54751 0.0
C584 C 0.778 0.80464 0.40034 0.0
C585 C 0.75516 0.78294 0.37224 0.0
C586 C 0.77811 0.80209 0.45101 0.0
C587 C 0.75507 0.77707 0.47391 0.0
C588 C 0.73006 0.75717 0.446 0.0
C589 C 0.73024 0.76053 0.39552 0.0
C590 C 0.8046 0.82436 0.47965 0.0
C591 C 0.70495 0.73024 0.46907 0.0
H592 H 0.80182 0.7085 0.5994 0.0
H593 H 0.72118 0.78638 0.63577 0.0
H594 H 0.82326 0.74196 0.48328 0.0
H595 H 0.8256 0.70284 0.52133 0.0
H596 H 0.78997 0.7075 0.47763 0.0
H597 H 0.70094 0.82939 0.57979 0.0
H598 H 0.72644 0.83602 0.52494 0.0
H599 H 0.6899 0.80474 0.52566 0.0
H600 H 0.7972 0.82223 0.38273 0.0
H601 H 0.71234 0.74381 0.3742 0.0
H602 H 0.82696 0.80705 0.49211 0.0
H603 H 0.79161 0.83589 0.51228 0.0
H604 H 0.81615 0.84655 0.45776 0.0
H605 H 0.72082 0.70766 0.48399 0.0
H606 H 0.68509 0.71921 0.4429 0.0
H607 H 0.69017 0.74268 0.49961 0.0
C608 C 0.44636 0.4255 0.15966 0.0
C609 C 0.46444 0.4467 0.12555 0.0
C610 C 0.45191 0.43072 0.20944 0.0
C611 C 0.47601 0.45782 0.22532 0.0
C612 C 0.49602 0.47767 0.19108 0.0
C613 C 0.49011 0.47177 0.14163 0.0
C614 C 0.43051 0.40859 0.24501 0.0
C615 C 0.52208 0.50666 0.20657 0.0
C616 C 0.45404 0.49763 0.3482 0.0
C617 C 0.47741 0.47858 0.37847 0.0
C618 C 0.45428 0.49213 0.29794 0.0
C619 C 0.47841 0.46692 0.27758 0.0
C620 C 0.50348 0.44923 0.30756 0.0
C621 C 0.50279 0.45538 0.35761 0.0
C622 C 0.42748 0.51195 0.26691 0.0
C623 C 0.52971 0.42229 0.28718 0.0
H624 H 0.42653 0.40606 0.14764 0.0
H625 H 0.50441 0.48819 0.11559 0.0
H626 H 0.44856 0.39678 0.27263 0.0
H627 H 0.41111 0.42608 0.2643 0.0
H628 H 0.41531 0.38657 0.22707 0.0
H629 H 0.53827 0.517 0.17579 0.0
H630 H 0.50697 0.52936 0.22265 0.0
H631 H 0.54063 0.49647 0.23475 0.0
H632 H 0.43439 0.51562 0.36392 0.0
H633 H 0.52103 0.44052 0.3806 0.0
H634 H 0.40789 0.49263 0.25129 0.0
H635 H 0.44135 0.52529 0.23626 0.0
H636 H 0.41242 0.53254 0.28771 0.0
H637 H 0.5148 0.39827 0.27432 0.0
H638 H 0.54982 0.41363 0.31444 0.0
H639 H 0.54415 0.43367 0.25559 0.0
C640 C 0.30194 0.83466 0.12736 0.0
C641 C 0.26945 0.81559 0.13208 0.0
C642 C 0.31898 0.83823 0.0823 0.0
C643 C 0.30284 0.82297 0.04075 0.0
C644 C 0.26924 0.80514 0.04486 0.0
C645 C 0.25308 0.80145 0.09052 0.0
C646 C 0.355 0.85697 0.07952 0.0
C647 C 0.25076 0.78919 0.00113 0.0
C648 C 0.32486 0.85329 0.9136 0.0
C649 C 0.34334 0.82341 0.89533 0.0
C650 C 0.31333 0.85453 0.96183 0.0
C651 C 0.3209 0.82537 0.99278 0.0
C652 C 0.34271 0.79681 0.97592 0.0
C653 C 0.3537 0.79615 0.92723 0.0
C654 C 0.2902 0.88549 0.97822 0.0
C655 C 0.35187 0.76545 0.00809 0.0
H656 H 0.31509 0.84535 0.1593 0.0
H657 H 0.22807 0.78662 0.09383 0.0
H658 H 0.37591 0.83749 0.06829 0.0
H659 H 0.35439 0.87843 0.0518 0.0
H660 H 0.36308 0.86901 0.11469 0.0
H661 H 0.22476 0.77625 0.01051 0.0
H662 H 0.24574 0.8104 0.97388 0.0
H663 H 0.26836 0.76887 0.98393 0.0
H664 H 0.31692 0.87455 0.88914 0.0
H665 H 0.36772 0.77285 0.91335 0.0
H666 H 0.29921 0.89568 0.01394 0.0
H667 H 0.26201 0.87612 0.98238 0.0
H668 H 0.29059 0.90801 0.95196 0.0
H669 H 0.37342 0.7485 0.9923 0.0
H670 H 0.32759 0.74849 0.01326 0.0
H671 H 0.36061 0.77492 0.04432 0.0
C672 C 1.00577 0.56676 0.8957 0.0
C673 C 0.99906 0.59517 0.92772 0.0
C674 C 1.00842 0.5726 0.84582 0.0
C675 C 1.00363 0.60767 0.82743 0.0
C676 C 0.99244 0.63552 0.85893 0.0
C677 C 0.99037 0.62897 0.90899 0.0
C678 C 0.02039 0.54202 0.81373 0.0
C679 C 0.98583 0.67296 0.84048 0.0
C680 C 0.06496 0.62716 0.72103 0.0
C681 C 0.0427 0.6183 0.68193 0.0
C682 C 0.05206 0.62527 0.7687 0.0
C683 C 0.01563 0.6157 0.7772 0.0
C684 C 0.99238 0.60951 0.73752 0.0
C685 C 1.00639 0.61016 0.69034 0.0
C686 C 0.078 0.63147 0.81001 0.0
C687 C 0.95319 0.6004 0.74492 0.0
H688 H 1.01218 0.5405 0.91007 0.0
H689 H 0.98519 0.65107 0.93356 0.0
H690 H 1.00332 0.54023 0.78095 0.0
H691 H 0.04844 0.54695 0.8016 0.0
H692 H 0.01946 0.5158 0.83272 0.0
H693 H 0.9697 0.68899 0.8665 0.0
H694 H 1.01199 0.68677 0.83505 0.0
H695 H 0.97171 0.6723 0.80512 0.0
H696 H 0.09307 0.63331 0.71453 0.0
H697 H 0.98907 0.6036 0.66 0.0
H698 H 0.07817 0.60794 0.83454 0.0
H699 H 0.06933 0.65502 0.83159 0.0
H700 H 0.10593 0.63616 0.79722 0.0
H701 H 0.95066 0.57227 0.7575 0.0
H702 H 0.93747 0.60322 0.71097 0.0
H703 H 0.94117 0.61788 0.77311 0.0
C704 C 0.17247 0.24621 0.42424 0.0
C705 C 0.18064 0.21735 0.39365 0.0
C706 C 0.17929 0.24412 0.47409 0.0
C707 C 0.19449 0.21243 0.49342 0.0
C708 C 0.19858 0.18186 0.46363 0.0
C709 C 0.19142 0.18464 0.41404 0.0
C710 C 0.17383 0.27709 0.505 0.0
C711 C 0.21421 0.1474 0.4829 0.0
C712 C 0.26238 0.22963 0.59292 0.0
C713 C 0.24232 0.22178 0.6345 0.0
C714 C 0.24742 0.22538 0.54673 0.0
C715 C 0.21141 0.21328 0.54206 0.0
C716 C 0.1916 0.20363 0.58372 0.0
C717 C 0.20737 0.20784 0.62952 0.0
C718 C 0.26973 0.23522 0.50297 0.0
C719 C 0.15318 0.19068 0.58016 0.0
H720 H 0.16395 0.27151 0.40882 0.0
H721 H 0.19726 0.16201 0.39065 0.0
H722 H 0.16148 0.26987 0.5402 0.0
H723 H 0.20031 0.28971 0.51267 0.0
H724 H 0.15655 0.29723 0.4868 0.0
H725 H 0.20937 0.12451 0.4579 0.0
H726 H 0.24368 0.15071 0.4875 0.0
H727 H 0.20273 0.14074 0.51882 0.0
H728 H 0.28944 0.24023 0.5965 0.0
H729 H 0.19159 0.20189 0.66151 0.0
H730 H 0.25684 0.25768 0.48333 0.0
H731 H 0.27113 0.21215 0.47763 0.0
H732 H 0.29757 0.24335 0.51275 0.0
H733 H 0.13567 0.21333 0.56936 0.0
H734 H 0.14317 0.17981 0.61506 0.0
H735 H 0.1505 0.16962 0.55197 0.0
C736 C 0.06138 0.05754 0.03261 0.0
C737 C 0.02951 0.04927 0.05729 0.0
C738 C 0.08775 0.0798 0.05366 0.0
C739 C 0.08307 0.09241 0.10166 0.0
C740 C 0.05076 0.08412 0.12667 0.0
C741 C 0.02396 0.06348 0.10362 0.0
C742 C 0.12118 0.08877 0.02516 0.0
C743 C 0.04531 0.09525 0.17871 0.0
C744 C 0.16726 0.11639 0.17446 0.0
C745 C 0.1641 0.15366 0.17886 0.0
C746 C 0.14176 0.09611 0.14855 0.0
C747 C 0.11218 0.11354 0.12619 0.0
C748 C 0.10995 0.15145 0.1285 0.0
C749 C 0.13554 0.17095 0.15538 0.0
C750 C 0.14692 0.05602 0.14692 0.0
C751 C 0.08078 0.17154 0.10202 0.0
H752 H 0.06581 0.04627 -0.00309 0.0
H753 H 0.9996 0.05658 0.123 0.0
H754 H 0.12695 0.11797 0.02728 0.0
H755 H 0.14454 0.07449 0.04091 0.0
H756 H 0.1187 0.08091 0.98651 0.0
H757 H 0.0209 0.08287 0.19482 0.0
H758 H 0.06899 0.0875 0.20075 0.0
H759 H 0.04269 0.1248 0.18112 0.0
H760 H 0.18934 0.10277 0.19221 0.0
H761 H 0.13331 0.19989 0.15767 0.0
H762 H 0.12984 0.0423 0.11978 0.0
H763 H 0.14101 0.04489 0.18326 0.0
H764 H 0.17547 0.04968 0.13885 0.0
H765 H 0.0794 0.16245 0.06379 0.0
H766 H 0.08529 0.20101 0.10263 0.0
H767 H 0.05429 0.16584 0.11876 0.0
C768 C 0.04679 0.91546 0.41901 0.0
C769 C 1.00921 0.91151 0.41851 0.0
C770 C 0.06923 0.89176 0.39382 0.0
C771 C 0.05399 0.86287 0.3675 0.0
C772 C 0.01614 0.85803 0.36762 0.0
C773 C 0.99413 0.88248 0.39303 0.0
C774 C 0.10935 0.89842 0.39415 0.0
C775 C 0.99893 0.82763 0.33985 0.0
C776 C 0.11779 0.82771 0.27089 0.0
C777 C 0.13637 0.80148 0.29676 0.0
C778 C 0.08858 0.84593 0.29179 0.0
C779 C 0.07833 0.83817 0.34022 0.0
C780 C 0.09572 0.80989 0.36509 0.0
C781 C 0.12469 0.79205 0.34314 0.0
C782 C 0.07016 0.87417 0.26179 0.0
C783 C 0.08482 0.79953 0.41579 0.0
H784 H 0.05888 0.93778 0.43831 0.0
H785 H 0.96516 0.87935 0.39193 0.0
H786 H 0.12333 0.87539 0.41105 0.0
H787 H 0.11945 0.90083 0.3565 0.0
H788 H 0.11677 0.92319 0.41425 0.0
H789 H 0.96944 0.82603 0.34601 0.0
H790 H 1.00388 0.83133 0.30058 0.0
H791 H 1.01124 0.80171 0.35039 0.0
H792 H 0.12652 0.8345 0.23459 0.0
H793 H 0.13905 0.77154 0.36293 0.0
H794 H 0.0891 0.89674 0.25546 0.0
H795 H 0.04526 0.88457 0.27858 0.0
H796 H 0.06324 0.86296 0.22569 0.0
H797 H 0.09367 0.82066 0.44153 0.0
H798 H 0.09693 0.77365 0.42704 0.0
H799 H 0.05512 0.79732 0.41857 0.0
C800 C 0.38844 0.8983 0.6913 0.0
C801 C 0.35148 0.89388 0.68291 0.0
C802 C 0.40962 0.92028 0.66145 0.0
C803 C 0.39369 0.93779 0.62145 0.0
C804 C 0.35608 0.93462 0.61392 0.0
C805 C 0.33533 0.91293 0.64505 0.0
C806 C 0.44944 0.9234 0.67154 0.0
C807 C 0.3381 0.95248 0.57143 0.0
C808 C 0.45112 1.00927 0.55944 0.0
C809 C 0.4686 0.98899 0.5237 0.0
C810 C 0.42571 0.99336 0.59064 0.0
C811 C 0.41715 0.95647 0.58541 0.0
C812 C 0.43344 0.9364 0.54779 0.0
C813 C 0.45915 0.95279 0.51779 0.0
C814 C 0.40941 0.01558 0.63067 0.0
C815 C 0.42476 0.89716 0.54034 0.0
H816 H 0.40104 0.88387 0.72075 0.0
H817 H 0.30684 0.9094 0.63817 0.0
H818 H 0.46478 0.9098 0.64241 0.0
H819 H 0.45786 0.95198 0.67183 0.0
H820 H 0.45696 0.91114 0.70669 0.0
H821 H 0.30832 0.95061 0.57344 0.0
H822 H 0.34598 0.98116 0.5694 0.0
H823 H 0.34712 0.93947 0.5374 0.0
H824 H 0.45845 0.0372 0.56444 0.0
H825 H 0.47233 0.93699 0.49004 0.0
H826 H 0.41963 1.00609 0.6661 0.0
H827 H 0.37975 0.01235 0.63112 0.0
H828 H 0.416 0.04454 0.62701 0.0
H829 H 0.43715 0.88626 0.50685 0.0
H830 H 0.39523 0.89309 0.53835 0.0
H831 H 0.43474 0.88145 0.57159 0.0
C832 C 0.41108 0.21776 0.76972 0.0
C833 C 0.37645 0.21681 0.78991 0.0
C834 C 0.43858 0.19528 0.78712 0.0
C835 C 0.43159 0.17195 0.8265 0.0
C836 C 0.39685 0.17147 0.84758 0.0
C837 C 0.36967 0.19351 0.82868 0.0
C838 C 0.47493 0.19606 0.76285 0.0
C839 C 0.38836 0.14768 0.89027 0.0
C840 C 0.4866 0.08745 0.84817 0.0
C841 C 0.51016 0.09833 0.88507 0.0
C842 C 0.46201 0.11152 0.82747 0.0
C843 C 0.4601 0.14722 0.84497 0.0
C844 C 0.48418 0.15852 0.88182 0.0
C845 C 0.50925 0.13408 0.90097 0.0
C846 C 0.43759 0.09851 0.78741 0.0
C847 C 0.48258 0.19606 0.90228 0.0
H848 H 0.41651 0.23563 0.7397 0.0
H849 H 0.34313 0.1929 0.84489 0.0
H850 H 0.49609 0.20307 0.78955 0.0
H851 H 0.4814 0.16903 0.74845 0.0
H852 H 0.47609 0.21566 0.73267 0.0
H853 H 0.36064 0.15185 0.90415 0.0
H854 H 0.39127 0.11911 0.87977 0.0
H855 H 0.40768 0.15296 0.92005 0.0
H856 H 0.48739 0.05995 0.83537 0.0
H857 H 0.52724 0.1426 0.92966 0.0
H858 H 0.43916 0.11695 0.75601 0.0
H859 H 0.4093 0.09842 0.80013 0.0
H860 H 0.44451 0.07101 0.77506 0.0
H861 H 0.48539 0.21609 0.8729 0.0
H862 H 0.50391 0.20108 0.92963 0.0
H863 H 0.45599 0.20048 0.91949 0.0
C864 C 0.85051 0.9264 0.95872 0.0
C865 C 0.8817 0.91 0.9767 0.0
C866 C 0.82422 0.90639 0.93356 0.0
C867 C 0.82892 0.86898 0.9269 0.0
C868 C 0.85926 0.85202 0.94775 0.0
C869 C 0.88537 0.87273 0.97183 0.0
C870 C 0.79266 0.92572 0.91149 0.0
C871 C 0.86534 0.81218 0.94252 0.0
C872 C 0.75234 0.80811 0.88364 0.0
C873 C 0.76289 0.80096 0.83589 0.0
C874 C 0.77301 0.83089 0.91359 0.0
C875 C 0.80419 0.8479 0.89473 0.0
C876 C 0.81358 0.84228 0.8456 0.0
C877 C 0.79327 0.81839 0.81715 0.0
C878 C 0.76219 0.83576 0.96577 0.0
C879 C 0.84596 0.86048 0.82346 0.0
H880 H 0.84749 0.95521 0.96207 0.0
H881 H 0.90925 0.85975 0.98581 0.0
H882 H 0.79542 0.92565 0.87151 0.0
H883 H 0.76713 0.91176 0.9203 0.0
H884 H 0.79081 0.95396 0.92412 0.0
H885 H 0.88453 0.80199 0.97001 0.0
H886 H 0.83974 0.7971 0.94583 0.0
H887 H 0.87661 0.80651 0.90616 0.0
H888 H 0.72914 0.79425 0.89842 0.0
H889 H 0.80153 0.81279 0.78028 0.0
H890 H 0.75227 0.86346 0.97113 0.0
H891 H 0.78564 0.83214 0.99009 0.0
H892 H 0.74061 0.81677 0.97674 0.0
H893 H 0.84561 0.88965 0.83153 0.0
H894 H 0.84712 0.85673 0.78361 0.0
H895 H 0.87089 0.84934 0.83943 0.0
C896 C 0.74873 0.149 0.62604 0.0
C897 C 0.75045 0.18497 0.61166 0.0
C898 C 0.77084 0.12298 0.60417 0.0
C899 C 0.79427 0.13305 0.56601 0.0
C900 C 0.79407 0.16894 0.54921 0.0
C901 C 0.77277 0.1946 0.57293 0.0
C902 C 0.77053 0.0852 0.62362 0.0
C903 C 0.81719 0.18048 0.5071 0.0
C904 C 0.88274 0.0838 0.54835 0.0
C905 C 0.8747 0.05992 0.51059 0.0
C906 C 0.85656 0.10698 0.56724 0.0
C907 C 0.82158 0.10723 0.54695 0.0
C908 C 0.81336 0.0835 0.50826 0.0
C909 C 0.83983 0.0596 0.49119 0.0
C910 C 0.86639 0.13113 0.6092 0.0
C911 C 0.77669 0.08316 0.48488 0.0
H912 H 0.73155 0.14159 0.65611 0.0
H913 H 0.77376 0.22238 0.5614 0.0
H914 H 0.76532 0.06581 0.59395 0.0
H915 H 0.7973 0.07877 0.63902 0.0
H916 H 0.74986 0.08131 0.65218 0.0
H917 H 0.81049 0.20794 0.49451 0.0
H918 H 0.84592 0.18005 0.51787 0.0
H919 H 0.81388 0.16151 0.4764 0.0
H920 H 0.90951 0.08389 0.56392 0.0
H921 H 0.83344 0.0412 0.462 0.0
H922 H 0.8472 0.12706 0.63947 0.0
H923 H 0.86447 0.15962 0.59804 0.0
H924 H 0.89407 0.12617 0.62269 0.0
H925 H 0.75777 0.06767 0.50784 0.0
H926 H 0.77733 0.07041 0.44852 0.0
H927 H 0.76588 0.11072 0.48126 0.0
C928 C 0.71574 0.20544 0.25962 0.0
C929 C 0.75128 0.20964 0.27572 0.0
C930 C 0.69193 0.18155 0.28249 0.0
C931 C 0.70358 0.16187 0.32334 0.0
C932 C 0.73955 0.16581 0.33966 0.0
C933 C 0.7631 0.18936 0.31531 0.0
C934 C 0.65414 0.17762 0.26312 0.0
C935 C 0.75284 0.14602 0.38371 0.0
C936 C 0.62854 0.12868 0.40628 0.0
C937 C 0.62551 0.09251 0.39269 0.0
C938 C 0.65468 0.15122 0.38529 0.0
C939 C 0.67782 0.13752 0.34894 0.0
C940 C 0.67495 0.10098 0.33526 0.0
C941 C 0.64915 0.07888 0.35762 0.0
C942 C 0.65733 0.18979 0.40172 0.0
C943 C 0.69859 0.08541 0.29613 0.0
H944 H 0.70646 0.22094 0.22894 0.0
H945 H 0.79039 0.19284 0.32832 0.0
H946 H 0.6483 0.14902 0.25504 0.0
H947 H 0.63451 0.1865 0.29085 0.0
H948 H 0.64979 0.19356 0.22973 0.0
H949 H 0.73794 0.15537 0.41613 0.0
H950 H 0.74762 0.11684 0.37995 0.0
H951 H 0.78205 0.15023 0.39004 0.0
H952 H 0.61065 0.13934 0.4337 0.0
H953 H 0.64695 0.05099 0.34679 0.0
H954 H 0.65053 0.20792 0.37132 0.0
H955 H 0.68532 0.19612 0.41286 0.0
H956 H 0.63903 0.19571 0.43246 0.0
H957 H 0.69383 0.09973 0.26158 0.0
H958 H 0.6935 0.05634 0.29028 0.0
H959 H 0.72733 0.08923 0.3056 0.0
C960 C 0.72306 0.86812 0.17322 0.0
C961 C 0.75943 0.86129 0.16384 0.0
C962 C 0.70369 0.89298 0.14548 0.0
C963 C 0.72075 0.91059 0.10626 0.0
C964 C 0.75763 0.90393 0.0968 0.0
C965 C 0.77672 0.8799 0.12637 0.0
C966 C 0.66459 0.89954 0.15726 0.0
C967 C 0.77661 0.92114 0.05445 0.0
C968 C 0.65545 0.93768 0.00726 0.0
C969 C 0.65165 0.97462 0.01542 0.0
C970 C 0.67908 0.91693 0.03503 0.0
C971 C 0.69899 0.9333 0.07286 0.0
C972 C 0.69601 0.97081 0.0805 0.0
C973 C 0.67265 0.99113 0.0513 0.0
C974 C 0.6809 0.87713 0.02501 0.0
C975 C 0.716 0.98913 0.12117 0.0
H976 H 0.70966 0.85386 0.20227 0.0
H977 H 0.80477 0.87441 0.11876 0.0
H978 H 0.65907 0.92876 0.15895 0.0
H979 H 0.64745 0.88803 0.12824 0.0
H980 H 0.65656 0.88721 0.1922 0.0
H981 H 0.80356 0.90928 0.04794 0.0
H982 H 0.76033 0.91825 0.02103 0.0
H983 H 0.78004 0.95026 0.06138 0.0
H984 H 0.63943 0.9247 0.97947 0.0
H985 H 0.66958 0.01961 0.05807 0.0
H986 H 0.6591 0.86344 0.04532 0.0
H987 H 0.70686 0.86526 0.03625 0.0
H988 H 0.6767 0.87142 0.98594 0.0
H989 H 0.7065 0.97839 0.15636 0.0
H990 H 0.71211 0.01867 0.12105 0.0
H991 H 0.74518 0.98341 0.1186 0.0
C992 C 0.56907 0.50184 0.62676 0.0
C993 C 0.54617 0.51206 0.58894 0.0
C994 C 0.59 0.52744 0.65177 0.0
C995 C 0.58879 0.564 0.63773 0.0
C996 C 0.56608 0.57429 0.59904 0.0
C997 C 0.54473 0.54833 0.57564 0.0
C998 C 0.61309 0.51541 0.69357 0.0
C999 C 0.56458 0.61272 0.58201 0.0
C1000 C 0.62013 0.63856 0.72327 0.0
C1001 C 0.65544 0.64461 0.70729 0.0
C1002 C 0.59839 0.61189 0.70174 0.0
C1003 C 0.61193 0.5914 0.66249 0.0
C1004 C 0.64743 0.59774 0.64595 0.0
C1005 C 0.66881 0.62388 0.66886 0.0
C1006 C 0.56097 0.60552 0.72113 0.0
C1007 C 0.66271 0.57723 0.60354 0.0
H1008 H 0.56993 0.47394 0.63766 0.0
H1009 H 0.52714 0.55639 0.54636 0.0
H1010 H 0.64175 0.52152 0.68604 0.0
H1011 H 0.60555 0.53036 0.7268 0.0
H1012 H 0.61037 0.48621 0.70077 0.0
H1013 H 0.546 0.61625 0.55093 0.0
H1014 H 0.55564 0.63041 0.61197 0.0
H1015 H 0.59182 0.62184 0.57105 0.0
H1016 H 0.6097 0.65428 0.75313 0.0
H1017 H 0.69597 0.62854 0.656 0.0
H1018 H 0.5577 0.57694 0.73146 0.0
H1019 H 0.54081 0.61121 0.69262 0.0
H1020 H 0.55497 0.62256 0.75313 0.0
H1021 H 0.66264 0.54807 0.61143 0.0
H1022 H 0.69064 0.58562 0.59473 0.0
H1023 H 0.64562 0.58135 0.57113 0.0
C1024 C 0.53189 0.444 0.86258 0.0
C1025 C 0.51524 0.4292 0.90349 0.0
C1026 C 0.55347 0.42282 0.83207 0.0
C1027 C 0.5593 0.38624 0.84353 0.0
C1028 C 0.54285 0.37134 0.88514 0.0
C1029 C 0.52067 0.39287 0.9142 0.0
C1030 C 0.56982 0.43951 0.78741 0.0
C1031 C 0.54904 0.33275 0.89934 0.0
C1032 C 0.59325 0.3203 0.74824 0.0
C1033 C 0.6303 0.32035 0.75753 0.0
C1034 C 0.56983 0.34222 0.77522 0.0
C1035 C 0.58373 0.36383 0.8132 0.0
C1036 C 0.62106 0.36343 0.82313 0.0
C1037 C 0.64389 0.3421 0.79482 0.0
C1038 C 0.53028 0.34247 0.76289 0.0
C1039 C 0.63691 0.38524 0.86409 0.0
H1040 H 0.5273 0.47193 0.85375 0.0
H1041 H 0.50785 0.38133 0.94581 0.0
H1042 H 0.59958 0.43866 0.78972 0.0
H1043 H 0.56186 0.42393 0.75485 0.0
H1044 H 0.56142 0.46784 0.78244 0.0
H1045 H 0.53453 0.32536 0.93303 0.0
H1046 H 0.54005 0.31458 0.86988 0.0
H1047 H 0.5782 0.32803 0.90485 0.0
H1048 H 0.58269 0.30371 0.71925 0.0
H1049 H 0.67249 0.34198 0.80246 0.0
H1050 H 0.52144 0.37029 0.75522 0.0
H1051 H 0.51434 0.33277 0.79419 0.0
H1052 H 0.52396 0.32535 0.73105 0.0
H1053 H 0.63169 0.41417 0.85815 0.0
H1054 H 0.66638 0.38129 0.86776 0.0
H1055 H 0.62384 0.37772 0.89872 0.0
C1056 C 0.92651 0.34816 0.19522 0.0
C1057 C 0.89279 0.34737 0.17253 0.0
C1058 C 0.95316 0.37291 0.1808 0.0
C1059 C 0.94614 0.39679 0.14208 0.0
C1060 C 0.9127 0.39483 0.11769 0.0
C1061 C 0.88636 0.37051 0.13355 0.0
C1062 C 0.98818 0.37454 0.2083 0.0
C1063 C 0.90428 0.41918 0.0756 0.0
C1064 C 0.99022 0.48861 0.13296 0.0
C1065 C 0.01612 0.48318 0.0968 0.0
C1066 C 0.96863 0.46028 0.14971 0.0
C1067 C 0.97236 0.42568 0.12907 0.0
C1068 C 0.99912 0.41977 0.09342 0.0
C1069 C 0.02097 0.44853 0.07806 0.0
C1070 C 0.94099 0.4677 0.18847 0.0
C1071 C 1.00356 0.38348 0.06989 0.0
H1072 H 0.93155 0.33043 0.22548 0.0
H1073 H 0.86049 0.36974 0.11547 0.0
H1074 H 1.01127 0.37312 0.18298 0.0
H1075 H 0.99017 0.40056 0.22772 0.0
H1076 H 0.99057 0.35251 0.23508 0.0
H1077 H 0.87842 0.41208 0.05781 0.0
H1078 H 0.90268 0.44736 0.08837 0.0
H1079 H 0.92608 0.41786 0.04824 0.0
H1080 H 0.9866 0.51524 0.148 0.0
H1081 H 0.04085 0.44419 0.04999 0.0
H1082 H 0.94334 0.4478 0.21809 0.0
H1083 H 0.91358 0.46504 0.17303 0.0
H1084 H 0.94387 0.49505 0.20409 0.0
H1085 H 1.00624 0.36231 0.09778 0.0
H1086 H 0.02739 0.38248 0.04569 0.0
H1087 H 0.97923 0.37705 0.04826 0.0
C1088 C 0.9842 0.66123 0.47685 0.0
C1089 C 0.99166 0.62516 0.4666 0.0
C1090 C 0.96292 0.68188 0.44562 0.0
C1091 C 0.94949 0.66633 0.40246 0.0
C1092 C 0.95733 0.63002 0.39161 0.0
C1093 C 0.9779 0.60969 0.42419 0.0
C1094 C 0.95504 0.72043 0.45858 0.0
C1095 C 0.94429 0.61278 0.34535 0.0
C1096 C 0.8659 0.70528 0.34447 0.0
C1097 C 0.88032 0.72692 0.30775 0.0
C1098 C 0.88817 0.68596 0.37583 0.0
C1099 C 0.92592 0.68762 0.3698 0.0
C1100 C 0.94077 0.70968 0.33299 0.0
C1101 C 0.91773 0.72925 0.30253 0.0
C1102 C 0.87122 0.66414 0.41587 0.0
C1103 C 0.98081 0.71198 0.32449 0.0
H1104 H 0.9951 0.67337 0.5094 0.0
H1105 H 0.9843 0.58205 0.41559 0.0
H1106 H 0.96604 0.73847 0.43029 0.0
H1107 H 0.92554 0.72476 0.45994 0.0
H1108 H 0.96678 0.72826 0.49402 0.0
H1109 H 0.95567 0.58555 0.33993 0.0
H1110 H 0.91454 0.61061 0.34597 0.0
H1111 H 0.95167 0.62971 0.31387 0.0
H1112 H 0.83699 0.7039 0.34937 0.0
H1113 H 0.92899 0.74592 0.2742 0.0
H1114 H 0.8819 0.67304 0.45143 0.0
H1115 H 0.87825 0.63543 0.41148 0.0
H1116 H 0.84145 0.66657 0.41651 0.0
H1117 H 0.99628 0.71028 0.3587 0.0
H1118 H 0.98833 0.73723 0.30569 0.0
H1119 H 0.98901 0.68921 0.30114 0.0
C1120 C 0.35199 0.23898 0.32514 0.0
C1121 C 0.31564 0.24576 0.33477 0.0
C1122 C 0.37923 0.2562 0.35214 0.0
C1123 C 0.3697 0.28026 0.38982 0.0
C1124 C 0.33299 0.28506 0.40168 0.0
C1125 C 0.3065 0.26791 0.37393 0.0
C1126 C 0.41802 0.25037 0.3384 0.0
C1127 C 0.32152 0.31012 0.44182 0.0
C1128 C 0.4342 0.32198 0.4815 0.0
C1129 C 0.43745 0.35674 0.46283 0.0
C1130 C 0.41382 0.29572 0.45677 0.0
C1131 C 0.397 0.30452 0.41227 0.0
C1132 C 0.40253 0.33892 0.39194 0.0
C1133 C 0.42244 0.36458 0.41759 0.0
C1134 C 0.40847 0.25941 0.47967 0.0
C1135 C 0.38556 0.34948 0.34441 0.0
H1136 H 0.35912 0.22173 0.29503 0.0
H1137 H 0.27839 0.2726 0.38219 0.0
H1138 H 0.4283 0.27444 0.31925 0.0
H1139 H 0.43486 0.24661 0.37112 0.0
H1140 H 0.42133 0.22675 0.31425 0.0
H1141 H 0.29201 0.30951 0.44801 0.0
H1142 H 0.33528 0.30292 0.47603 0.0
H1143 H 0.32944 0.33804 0.43277 0.0
H1144 H 0.44583 0.31594 0.51649 0.0
H1145 H 0.42548 0.39134 0.40276 0.0
H1146 H 0.4116 0.23777 0.4524 0.0
H1147 H 0.38074 0.25748 0.49428 0.0
H1148 H 0.4277 0.25475 0.50975 0.0
H1149 H 0.39283 0.32991 0.31579 0.0
H1150 H 0.394 0.37668 0.33255 0.0
H1151 H 0.35583 0.34918 0.34791 0.0
C1152 C 0.38252 0.55256 0.09722 0.0
C1153 C 0.39544 0.56241 0.05149 0.0
C1154 C 0.363 0.57669 0.12572 0.0
C1155 C 0.35538 0.61125 0.10747 0.0
C1156 C 0.36892 0.62165 0.06159 0.0
C1157 C 0.38931 0.59715 0.0343 0.0
C1158 C 0.34992 0.56486 0.17494 0.0
C1159 C 0.36084 0.65815 0.04071 0.0
C1160 C 0.27187 0.65552 0.15862 0.0
C1161 C 0.28665 0.6804 0.19117 0.0
C1162 C 0.294 0.63337 0.13047 0.0
C1163 C 0.33182 0.63571 0.13567 0.0
C1164 C 0.34691 0.66036 0.16905 0.0
C1165 C 0.32413 0.68267 0.19611 0.0
C1166 C 0.27691 0.60772 0.09483 0.0
C1167 C 0.38707 0.66307 0.17626 0.0
H1168 H 0.38775 0.5258 0.11082 0.0
H1169 H 0.39927 0.60465 -0.00114 0.0
H1170 H 0.35804 0.58468 0.20292 0.0
H1171 H 0.32011 0.56348 0.17509 0.0
H1172 H 0.36059 0.53816 0.1853 0.0
H1173 H 0.37462 0.66266 0.00558 0.0
H1174 H 0.33142 0.6609 0.03514 0.0
H1175 H 0.36917 0.67955 0.06634 0.0
H1176 H 0.24295 0.65401 0.15409 0.0
H1177 H 0.33568 0.70191 0.22117 0.0
H1178 H 0.284 0.57971 0.10425 0.0
H1179 H 0.28743 0.61292 0.05792 0.0
H1180 H 0.24713 0.61003 0.09407 0.0
H1181 H 0.3945 0.68348 0.20388 0.0
H1182 H 0.40036 0.67015 0.14163 0.0
H1183 H 0.39789 0.63671 0.1877 0.0
C1184 C 0.24656 0.73868 0.86562 0.0
C1185 C 0.23094 0.7561 0.82591 0.0
C1186 C 0.2267 0.71495 0.89436 0.0
C1187 C 0.19028 0.708 0.88287 0.0
C1188 C 0.174 0.72616 0.84345 0.0
C1189 C 0.19457 0.75023 0.81547 0.0
C1190 C 0.24481 0.69722 0.93699 0.0
C1191 C 0.13542 0.71922 0.82929 0.0
C1192 C 0.15311 0.62033 0.93302 0.0
C1193 C 0.13395 0.63238 0.97353 0.0
C1194 C 0.17062 0.64478 0.90221 0.0
C1195 C 0.16958 0.68197 0.91286 0.0
C1196 C 0.15055 0.69415 0.95401 0.0
C1197 C 0.13275 0.66927 0.98357 0.0
C1198 C 0.18985 0.63092 0.85792 0.0
C1199 C 0.1486 0.73355 0.96646 0.0
H1200 H 0.27458 0.74367 0.87435 0.0
H1201 H 0.18255 0.76349 0.78461 0.0
H1202 H 0.23012 0.70379 0.97079 0.0
H1203 H 0.24407 0.66764 0.93264 0.0
H1204 H 0.27329 0.70578 0.94122 0.0
H1205 H 0.12417 0.74188 0.80817 0.0
H1206 H 0.13437 0.69489 0.80619 0.0
H1207 H 0.11806 0.71444 0.86127 0.0
H1208 H 0.15341 0.59193 0.92451 0.0
H1209 H 0.11767 0.67875 0.01462 0.0
H1210 H 0.21888 0.6377 0.8601 0.0
H1211 H 0.17899 0.64413 0.8251 0.0
H1212 H 0.18702 0.6014 0.85367 0.0
H1213 H 0.17604 0.74517 0.96858 0.0
H1214 H 0.13463 0.73847 0.00136 0.0
H1215 H 0.13406 0.74802 0.93743 0.0
C1216 C 0.12931 0.46331 0.57745 0.0
C1217 C 0.13041 0.49894 0.59382 0.0
C1218 C 0.15266 0.43732 0.59659 0.0
C1219 C 0.1771 0.447 0.63379 0.0
C1220 C 0.17811 0.48288 0.65064 0.0
C1221 C 0.15511 0.50847 0.63006 0.0
C1222 C 0.15109 0.39947 0.57714 0.0
C1223 C 0.20336 0.49425 0.69063 0.0
C1224 C 0.20943 0.37184 0.7156 0.0
C1225 C 0.24407 0.36528 0.6977 0.0
C1226 C 0.18773 0.39881 0.69577 0.0
C1227 C 0.20066 0.41931 0.65632 0.0
C1228 C 0.23581 0.41306 0.63836 0.0
C1229 C 0.25723 0.38629 0.65956 0.0
C1230 C 0.15079 0.40512 0.71677 0.0
C1231 C 0.25036 0.43372 0.5957 0.0
H1232 H 0.11049 0.45582 0.54921 0.0
H1233 H 0.15603 0.53592 0.64304 0.0
H1234 H 0.1781 0.39115 0.56436 0.0
H1235 H 0.14309 0.38072 0.60636 0.0
H1236 H 0.13172 0.39663 0.54677 0.0
H1237 H 0.19924 0.52259 0.70177 0.0
H1238 H 0.19971 0.47678 0.72273 0.0
H1239 H 0.23154 0.49115 0.67834 0.0
H1240 H 0.19919 0.35578 0.74525 0.0
H1241 H 0.28387 0.3811 0.64529 0.0
H1242 H 0.12997 0.39964 0.68895 0.0
H1243 H 0.14799 0.43362 0.72778 0.0
H1244 H 0.14531 0.38788 0.74868 0.0
H1245 H 0.23581 0.42535 0.56248 0.0
H1246 H 0.27957 0.42903 0.59014 0.0
H1247 H 0.24586 0.46291 0.60046 0.0
loop_
_geom_bond_atom_site_label_1
_geom_bond_atom_site_label_2
_geom_bond_distance
_geom_bond_site_symmetry_2
_ccdc_geom_bond_type
C0 O2 1.247 . S
C0 O4 1.258 . S
C1 O8 1.247 . S
C1 O9 1.258 . S
O2 C0 1.247 . S
O2 Zn3 2.030 1_455 S
Zn3 O2 2.030 1_655 S
Zn3 O7 2.027 1_554 S
Zn3 O9 2.033 1_544 S
Zn3 O10 2.036 . S
O4 C0 1.258 . S
O4 Zn5 2.034 1_544 S
Zn5 O4 2.034 1_566 S
Zn5 O6 2.031 . S
Zn5 O8 2.029 1_455 S
Zn5 O11 2.032 1_556 S
O6 Zn5 2.031 . S
O6 C12 1.247 1_565 S
O7 Zn3 2.027 1_556 S
O7 C12 1.258 1_655 S
O8 C1 1.247 . S
O8 Zn5 2.029 1_655 S
O9 C1 1.258 . S
O9 Zn3 2.033 1_566 S
O10 Zn3 2.036 . S
O10 C13 1.247 1_545 S
O11 Zn5 2.032 1_554 S
O11 C13 1.258 1_455 S
C12 O6 1.247 1_545 S
C12 O7 1.258 1_455 S
C13 O10 1.247 1_565 S
C13 O11 1.258 1_655 S
C14 O16 1.247 . S
C14 O18 1.258 . S
C15 O22 1.247 . S
C15 O23 1.258 . S
O16 C14 1.247 . S
O16 Zn17 2.028 . S
Zn17 O16 2.028 . S
Zn17 O21 2.035 . S
Zn17 O23 2.035 . S
Zn17 O24 2.028 . S
O18 C14 1.258 . S
O18 Zn19 2.035 . S
Zn19 O18 2.035 . S
Zn19 O20 2.028 . S
Zn19 O22 2.028 . S
Zn19 O25 2.035 . S
O20 Zn19 2.028 . S
O20 C26 1.247 . S
O21 Zn17 2.035 . S
O21 C26 1.258 . S
O22 C15 1.247 . S
O22 Zn19 2.028 . S
O23 C15 1.258 . S
O23 Zn17 2.035 . S
O24 Zn17 2.028 . S
O24 C27 1.247 . S
O25 Zn19 2.035 . S
O25 C27 1.258 . S
C26 O20 1.247 . S
C26 O21 1.258 . S
C27 O24 1.247 . S
C27 O25 1.258 . S
C28 O30 1.247 . S
C28 O32 1.258 1_545 S
C29 O36 1.247 . S
C29 O37 1.258 1_565 S
O30 C28 1.247 . S
O30 Zn31 2.028 . S
Zn31 O30 2.028 . S
Zn31 O35 2.035 . S
Zn31 O37 2.035 . S
Zn31 O38 2.028 1_545 S
O32 C28 1.258 1_565 S
O32 Zn33 2.035 . S
Zn33 O32 2.035 . S
Zn33 O34 2.028 1_565 S
Zn33 O36 2.028 . S
Zn33 O39 2.035 . S
O34 Zn33 2.028 1_545 S
O34 C40 1.247 . S
O35 Zn31 2.035 . S
O35 C40 1.258 . S
O36 C29 1.247 . S
O36 Zn33 2.028 . S
O37 C29 1.258 1_545 S
O37 Zn31 2.035 . S
O38 Zn31 2.028 1_565 S
O38 C41 1.247 . S
O39 Zn33 2.035 . S
O39 C41 1.258 . S
C40 O34 1.247 . S
C40 O35 1.258 . S
C41 O38 1.247 . S
C41 O39 1.258 . S
C42 O44 1.247 . S
C42 O46 1.258 . S
C43 O50 1.247 . S
C43 O51 1.258 . S
O44 C42 1.247 . S
O44 Zn45 2.028 . S
Zn45 O44 2.028 . S
Zn45 O49 2.035 . S
Zn45 O51 2.035 . S
Zn45 O52 2.028 . S
O46 C42 1.258 . S
O46 Zn47 2.035 . S
Zn47 O46 2.035 . S
Zn47 O48 2.028 . S
Zn47 O50 2.028 . S
Zn47 O53 2.035 . S
O48 Zn47 2.028 . S
O48 C54 1.247 . S
O49 Zn45 2.035 . S
O49 C54 1.258 . S
O50 C43 1.247 . S
O50 Zn47 2.028 . S
O51 C43 1.258 . S
O51 Zn45 2.035 . S
O52 Zn45 2.028 . S
O52 C55 1.247 . S
O53 Zn47 2.035 . S
O53 C55 1.258 . S
C54 O48 1.247 . S
C54 O49 1.258 . S
C55 O52 1.247 . S
C55 O53 1.258 . S
C56 O58 1.247 . S
C56 O60 1.258 . S
C57 O64 1.247 . S
C57 O65 1.258 . S
O58 C56 1.247 . S
O58 Zn59 2.028 1_545 S
Zn59 O58 2.028 1_565 S
Zn59 O63 2.035 . S
Zn59 O65 2.035 1_655 S
Zn59 O66 2.028 . S
O60 C56 1.258 . S
O60 Zn61 2.035 1_655 S
Zn61 O60 2.035 1_455 S
Zn61 O62 2.028 . S
Zn61 O64 2.028 1_545 S
Zn61 O67 2.035 . S
O62 Zn61 2.028 . S
O62 C68 1.247 1_455 S
O63 Zn59 2.035 . S
O63 C68 1.258 1_565 S
O64 C57 1.247 . S
O64 Zn61 2.028 1_565 S
O65 C57 1.258 . S
O65 Zn59 2.035 1_455 S
O66 Zn59 2.028 . S
O66 C69 1.247 1_655 S
O67 Zn61 2.035 . S
O67 C69 1.258 1_545 S
C68 O62 1.247 1_655 S
C68 O63 1.258 1_545 S
C69 O66 1.247 1_455 S
C69 O67 1.258 1_565 S
C70 O72 1.247 . S
C70 O74 1.258 . S
C71 O78 1.247 . S
C71 O79 1.258 . S
O72 C70 1.247 . S
O72 Zn73 2.028 . S
Zn73 O72 2.028 . S
Zn73 O77 2.035 . S
Zn73 O79 2.035 . S
Zn73 O80 2.028 . S
O74 C70 1.258 . S
O74 Zn75 2.035 . S
Zn75 O74 2.035 . S
Zn75 O76 2.028 . S
Zn75 O78 2.028 . S
Zn75 O81 2.035 . S
O76 Zn75 2.028 . S
O76 C82 1.247 . S
O77 Zn73 2.035 . S
O77 C82 1.258 . S
O78 C71 1.247 . S
O78 Zn75 2.028 . S
O79 C71 1.258 . S
O79 Zn73 2.035 . S
O80 Zn73 2.028 . S
O80 C83 1.247 . S
O81 Zn75 2.035 . S
O81 C83 1.258 . S
C82 O76 1.247 . S
C82 O77 1.258 . S
C83 O80 1.247 . S
C83 O81 1.258 . S
C84 O86 1.247 . S
C84 O88 1.258 . S
C85 O92 1.247 . S
C85 O93 1.258 . S
O86 C84 1.247 . S
O86 Zn87 2.030 1_565 S
Zn87 O86 2.030 1_545 S
Zn87 O91 2.027 1_554 S
Zn87 O93 2.033 1_554 S
Zn87 O94 2.036 . S
O88 C84 1.258 . S
O88 Zn89 2.034 1_554 S
Zn89 O88 2.034 1_556 S
Zn89 O90 2.031 . S
Zn89 O92 2.029 1_565 S
Zn89 O95 2.032 1_556 S
O90 Zn89 2.031 . S
O90 C96 1.247 . S
O91 Zn87 2.027 1_556 S
O91 C96 1.258 1_545 S
O92 C85 1.247 . S
O92 Zn89 2.029 1_545 S
O93 C85 1.258 . S
O93 Zn87 2.033 1_556 S
O94 Zn87 2.036 . S
O94 C97 1.247 . S
O95 Zn89 2.032 1_554 S
O95 C97 1.258 1_565 S
C96 O90 1.247 . S
C96 O91 1.258 1_565 S
C97 O94 1.247 . S
C97 O95 1.258 1_545 S
C98 O100 1.247 . S
C98 O102 1.258 . S
C99 O106 1.247 . S
C99 O107 1.258 . S
O100 C98 1.247 . S
O100 Zn101 2.028 . S
Zn101 O100 2.028 . S
Zn101 O105 2.035 . S
Zn101 O107 2.035 . S
Zn101 O108 2.028 . S
O102 C98 1.258 . S
O102 Zn103 2.035 . S
Zn103 O102 2.035 . S
Zn103 O104 2.028 . S
Zn103 O106 2.028 . S
Zn103 O109 2.035 . S
O104 Zn103 2.028 . S
O104 C110 1.247 . S
O105 Zn101 2.035 . S
O105 C110 1.258 . S
O106 C99 1.247 . S
O106 Zn103 2.028 . S
O107 C99 1.258 . S
O107 Zn101 2.035 . S
O108 Zn101 2.028 . S
O108 C111 1.247 . S
O109 Zn103 2.035 . S
O109 C111 1.258 . S
C110 O104 1.247 . S
C110 O105 1.258 . S
C111 O108 1.247 . S
C111 O109 1.258 . S
C112 O114 1.247 . S
C112 O116 1.258 . S
C113 O120 1.247 . S
C113 O121 1.258 . S
O114 C112 1.247 . S
O114 Zn115 2.028 . S
Zn115 O114 2.028 . S
Zn115 O119 2.035 . S
Zn115 O121 2.035 . S
Zn115 O122 2.028 . S
O116 C112 1.258 . S
O116 Zn117 2.035 . S
Zn117 O116 2.035 . S
Zn117 O118 2.028 . S
Zn117 O120 2.028 . S
Zn117 O123 2.035 . S
O118 Zn117 2.028 . S
O118 C124 1.247 . S
O119 Zn115 2.035 . S
O119 C124 1.258 . S
O120 C113 1.247 . S
O120 Zn117 2.028 . S
O121 C113 1.258 . S
O121 Zn115 2.035 . S
O122 Zn115 2.028 . S
O122 C125 1.247 . S
O123 Zn117 2.035 . S
O123 C125 1.258 . S
C124 O118 1.247 . S
C124 O119 1.258 . S
C125 O122 1.247 . S
C125 O123 1.258 . S
C126 O128 1.247 . S
C126 O130 1.258 . S
C127 O134 1.247 . S
C127 O135 1.258 . S
O128 C126 1.247 . S
O128 Zn129 2.028 . S
Zn129 O128 2.028 . S
Zn129 O133 2.035 . S
Zn129 O135 2.035 . S
Zn129 O136 2.028 . S
O130 C126 1.258 . S
O130 Zn131 2.035 . S
Zn131 O130 2.035 . S
Zn131 O132 2.028 . S
Zn131 O134 2.028 . S
Zn131 O137 2.035 . S
O132 Zn131 2.028 . S
O132 C138 1.247 . S
O133 Zn129 2.035 . S
O133 C138 1.258 . S
O134 C127 1.247 . S
O134 Zn131 2.028 . S
O135 C127 1.258 . S
O135 Zn129 2.035 . S
O136 Zn129 2.028 . S
O136 C139 1.247 . S
O137 Zn131 2.035 . S
O137 C139 1.258 . S
C138 O132 1.247 . S
C138 O133 1.258 . S
C139 O136 1.247 . S
C139 O137 1.258 . S
C140 O142 1.247 . S
C140 O144 1.258 . S
C141 O148 1.247 . S
C141 O149 1.258 . S
O142 C140 1.247 . S
O142 Zn143 2.028 . S
Zn143 O142 2.028 . S
Zn143 O147 2.035 . S
Zn143 O149 2.035 . S
Zn143 O150 2.028 . S
O144 C140 1.258 . S
O144 Zn145 2.035 . S
Zn145 O144 2.035 . S
Zn145 O146 2.028 . S
Zn145 O148 2.028 . S
Zn145 O151 2.035 . S
O146 Zn145 2.028 . S
O146 C152 1.247 . S
O147 Zn143 2.035 . S
O147 C152 1.258 . S
O148 C141 1.247 . S
O148 Zn145 2.028 . S
O149 C141 1.258 . S
O149 Zn143 2.035 . S
O150 Zn143 2.028 . S
O150 C153 1.247 . S
O151 Zn145 2.035 . S
O151 C153 1.258 . S
C152 O146 1.247 . S
C152 O147 1.258 . S
C153 O150 1.247 . S
C153 O151 1.258 . S
C154 O156 1.247 . S
C154 O158 1.258 . S
C155 O162 1.247 . S
C155 O163 1.258 . S
O156 C154 1.247 . S
O156 Zn157 2.028 . S
Zn157 O156 2.028 . S
Zn157 O161 2.035 . S
Zn157 O163 2.035 . S
Zn157 O164 2.028 . S
O158 C154 1.258 . S
O158 Zn159 2.035 . S
Zn159 O158 2.035 . S
Zn159 O160 2.028 . S
Zn159 O162 2.028 . S
Zn159 O165 2.035 . S
O160 Zn159 2.028 . S
O160 C166 1.247 . S
O161 Zn157 2.035 . S
O161 C166 1.258 . S
O162 C155 1.247 . S
O162 Zn159 2.028 . S
O163 C155 1.258 . S
O163 Zn157 2.035 . S
O164 Zn157 2.028 . S
O164 C167 1.247 . S
O165 Zn159 2.035 . S
O165 C167 1.258 . S
C166 O160 1.247 . S
C166 O161 1.258 . S
C167 O164 1.247 . S
C167 O165 1.258 . S
C168 O170 1.247 . S
C168 O172 1.258 . S
C169 O176 1.247 . S
C169 O177 1.258 . S
O170 C168 1.247 . S
O170 Zn171 2.028 . S
Zn171 O170 2.028 . S
Zn171 O175 2.035 . S
Zn171 O177 2.035 . S
Zn171 O178 2.028 . S
O172 C168 1.258 . S
O172 Zn173 2.035 . S
Zn173 O172 2.035 . S
Zn173 O174 2.028 . S
Zn173 O176 2.028 . S
Zn173 O179 2.035 . S
O174 Zn173 2.028 . S
O174 C180 1.247 . S
O175 Zn171 2.035 . S
O175 C180 1.258 . S
O176 C169 1.247 . S
O176 Zn173 2.028 . S
O177 C169 1.258 . S
O177 Zn171 2.035 . S
O178 Zn171 2.028 . S
O178 C181 1.247 . S
O179 Zn173 2.035 . S
O179 C181 1.258 . S
C180 O174 1.247 . S
C180 O175 1.258 . S
C181 O178 1.247 . S
C181 O179 1.258 . S
C182 O184 1.247 1_455 S
C182 O186 1.258 . S
C183 O190 1.247 1_655 S
C183 O191 1.258 . S
O184 C182 1.247 1_655 S
O184 Zn185 2.036 . S
Zn185 O184 2.036 . S
Zn185 O189 2.033 1_654 S
Zn185 O191 2.027 1_554 S
Zn185 O192 2.030 . S
O186 C182 1.258 . S
O186 Zn187 2.032 1_554 S
Zn187 O186 2.032 1_556 S
Zn187 O188 2.029 . S
Zn187 O190 2.031 . S
Zn187 O193 2.034 1_456 S
O188 Zn187 2.029 . S
O188 C194 1.247 . S
O189 Zn185 2.033 1_456 S
O189 C194 1.258 . S
O190 C183 1.247 1_455 S
O190 Zn187 2.031 . S
O191 C183 1.258 . S
O191 Zn185 2.027 1_556 S
O192 Zn185 2.030 . S
O192 C195 1.247 . S
O193 Zn187 2.034 1_654 S
O193 C195 1.258 . S
C194 O188 1.247 . S
C194 O189 1.258 . S
C195 O192 1.247 . S
C195 O193 1.258 . S
C196 O198 1.247 . S
C196 O200 1.258 . S
C197 O204 1.247 . S
C197 O205 1.258 . S
O198 C196 1.247 . S
O198 Zn199 2.030 . S
Zn199 O198 2.030 . S
Zn199 O203 2.027 1_554 S
Zn199 O205 2.033 1_554 S
Zn199 O206 2.036 . S
O200 C196 1.258 . S
O200 Zn201 2.034 1_554 S
Zn201 O200 2.034 1_556 S
Zn201 O202 2.031 . S
Zn201 O204 2.029 . S
Zn201 O207 2.032 1_556 S
O202 Zn201 2.031 . S
O202 C208 1.247 . S
O203 Zn199 2.027 1_556 S
O203 C208 1.258 . S
O204 C197 1.247 . S
O204 Zn201 2.029 . S
O205 C197 1.258 . S
O205 Zn199 2.033 1_556 S
O206 Zn199 2.036 . S
O206 C209 1.247 . S
O207 Zn201 2.032 1_554 S
O207 C209 1.258 . S
C208 O202 1.247 . S
C208 O203 1.258 . S
C209 O206 1.247 . S
C209 O207 1.258 . S
C210 O212 1.247 . S
C210 O214 1.258 . S
C211 O218 1.247 . S
C211 O219 1.258 . S
O212 C210 1.247 . S
O212 Zn213 2.028 . S
Zn213 O212 2.028 . S
Zn213 O217 2.035 . S
Zn213 O219 2.035 1_455 S
Zn213 O220 2.028 . S
O214 C210 1.258 . S
O214 Zn215 2.035 1_455 S
Zn215 O214 2.035 1_655 S
Zn215 O216 2.028 . S
Zn215 O218 2.028 . S
Zn215 O221 2.035 . S
O216 Zn215 2.028 . S
O216 C222 1.247 1_655 S
O217 Zn213 2.035 . S
O217 C222 1.258 . S
O218 C211 1.247 . S
O218 Zn215 2.028 . S
O219 C211 1.258 . S
O219 Zn213 2.035 1_655 S
O220 Zn213 2.028 . S
O220 C223 1.247 1_455 S
O221 Zn215 2.035 . S
O221 C223 1.258 . S
C222 O216 1.247 1_455 S
C222 O217 1.258 . S
C223 O220 1.247 1_655 S
C223 O221 1.258 . S
C224 C225 1.391 1_445 S
C224 C226 1.394 . S
C224 H240 0.931 . S
C225 C224 1.391 1_665 S
C225 C229 1.376 . S
C226 C224 1.394 . S
C226 C227 1.369 1_455 S
C226 C230 1.531 . S
C227 C226 1.369 1_655 S
C227 C228 1.410 1_545 S
C227 C235 1.503 . S
C228 C227 1.410 1_565 S
C228 C229 1.392 . S
C228 C231 1.511 . S
C229 C225 1.376 . S
C229 C228 1.392 . S
C229 H241 0.929 . S
C230 C226 1.531 . S
C230 H242 0.960 . S
C230 H243 0.962 . S
C230 H244 0.960 . S
C231 C228 1.511 . S
C231 H245 0.961 . S
C231 H246 0.961 . S
C231 H247 0.961 . S
C232 C233 1.370 1_465 S
C232 C234 1.363 . S
C232 H248 0.931 . S
C233 C232 1.370 1_645 S
C233 C237 1.408 . S
C234 C232 1.363 . S
C234 C235 1.370 1_465 S
C234 C238 1.524 . S
C235 C227 1.503 . S
C235 C234 1.370 1_645 S
C235 C236 1.403 . S
C236 C235 1.403 . S
C236 C237 1.404 . S
C236 C239 1.539 . S
C237 C233 1.408 . S
C237 C236 1.404 . S
C237 H249 0.930 . S
C238 C234 1.524 . S
C238 H250 0.956 . S
C238 H251 0.961 . S
C238 H252 0.961 . S
C239 C236 1.539 . S
C239 H253 0.958 . S
C239 H254 0.961 . S
C239 H255 0.960 . S
H240 C224 0.931 . S
H241 C229 0.929 . S
H242 C230 0.960 . S
H243 C230 0.962 . S
H244 C230 0.960 . S
H245 C231 0.961 . S
H246 C231 0.961 . S
H247 C231 0.961 . S
H248 C232 0.931 . S
H249 C237 0.930 . S
H250 C238 0.956 . S
H251 C238 0.961 . S
H252 C238 0.961 . S
H253 C239 0.958 . S
H254 C239 0.961 . S
H255 C239 0.960 . S
C256 C257 1.391 . S
C256 C258 1.394 . S
C256 H272 0.931 . S
C257 C256 1.391 . S
C257 C261 1.376 . S
C258 C256 1.394 . S
C258 C259 1.369 . S
C258 C262 1.531 . S
C259 C258 1.369 . S
C259 C260 1.410 . S
C259 C267 1.503 . S
C260 C259 1.410 . S
C260 C261 1.392 . S
C260 C263 1.511 . S
C261 C257 1.376 . S
C261 C260 1.392 . S
C261 H273 0.929 . S
C262 C258 1.531 . S
C262 H274 0.960 . S
C262 H275 0.962 . S
C262 H276 0.960 . S
C263 C260 1.511 . S
C263 H277 0.961 . S
C263 H278 0.961 . S
C263 H279 0.961 . S
C264 C265 1.370 . S
C264 C266 1.363 . S
C264 H280 0.931 . S
C265 C264 1.370 . S
C265 C269 1.408 . S
C266 C264 1.363 . S
C266 C267 1.370 . S
C266 C270 1.524 . S
C267 C259 1.503 . S
C267 C266 1.370 . S
C267 C268 1.403 . S
C268 C267 1.403 . S
C268 C269 1.404 . S
C268 C271 1.539 . S
C269 C265 1.408 . S
C269 C268 1.404 . S
C269 H281 0.930 . S
C270 C266 1.524 . S
C270 H282 0.956 . S
C270 H283 0.961 . S
C270 H284 0.961 . S
C271 C268 1.539 . S
C271 H285 0.958 . S
C271 H286 0.961 . S
C271 H287 0.960 . S
H272 C256 0.931 . S
H273 C261 0.929 . S
H274 C262 0.960 . S
H275 C262 0.962 . S
H276 C262 0.960 . S
H277 C263 0.961 . S
H278 C263 0.961 . S
H279 C263 0.961 . S
H280 C264 0.931 . S
H281 C269 0.930 . S
H282 C270 0.956 . S
H283 C270 0.961 . S
H284 C270 0.961 . S
H285 C271 0.958 . S
H286 C271 0.961 . S
H287 C271 0.960 . S
C288 C289 1.391 . S
C288 C290 1.394 . S
C288 H304 0.931 . S
C289 C288 1.391 . S
C289 C293 1.376 . S
C290 C288 1.394 . S
C290 C291 1.369 . S
C290 C294 1.531 . S
C291 C290 1.369 . S
C291 C292 1.410 . S
C291 C299 1.503 . S
C292 C291 1.410 . S
C292 C293 1.392 . S
C292 C295 1.511 . S
C293 C289 1.376 . S
C293 C292 1.392 . S
C293 H305 0.929 . S
C294 C290 1.531 . S
C294 H306 0.960 . S
C294 H307 0.962 1_565 S
C294 H308 0.960 . S
C295 C292 1.511 . S
C295 H309 0.961 1_565 S
C295 H310 0.961 1_565 S
C295 H311 0.961 . S
C296 C297 1.370 . S
C296 C298 1.363 . S
C296 H312 0.931 . S
C297 C296 1.370 . S
C297 C301 1.408 1_545 S
C298 C296 1.363 . S
C298 C299 1.370 1_545 S
C298 C302 1.524 . S
C299 C291 1.503 . S
C299 C298 1.370 1_565 S
C299 C300 1.403 . S
C300 C299 1.403 . S
C300 C301 1.404 . S
C300 C303 1.539 . S
C301 C297 1.408 1_565 S
C301 C300 1.404 . S
C301 H313 0.930 . S
C302 C298 1.524 . S
C302 H314 0.956 . S
C302 H315 0.961 . S
C302 H316 0.961 . S
C303 C300 1.539 . S
C303 H317 0.958 . S
C303 H318 0.961 . S
C303 H319 0.960 . S
H304 C288 0.931 . S
H305 C293 0.929 . S
H306 C294 0.960 . S
H307 C294 0.962 1_545 S
H308 C294 0.960 . S
H309 C295 0.961 1_545 S
H310 C295 0.961 1_545 S
H311 C295 0.961 . S
H312 C296 0.931 . S
H313 C301 0.930 . S
H314 C302 0.956 . S
H315 C302 0.961 . S
H316 C302 0.961 . S
H317 C303 0.958 . S
H318 C303 0.961 . S
H319 C303 0.960 . S
C320 C321 1.391 . S
C320 C322 1.394 . S
C320 H336 0.931 . S
C321 C320 1.391 . S
C321 C325 1.376 . S
C322 C320 1.394 . S
C322 C323 1.369 . S
C322 C326 1.531 . S
C323 C322 1.369 . S
C323 C324 1.410 . S
C323 C331 1.503 1_556 S
C324 C323 1.410 . S
C324 C325 1.392 . S
C324 C327 1.511 . S
C325 C321 1.376 . S
C325 C324 1.392 . S
C325 H337 0.929 . S
C326 C322 1.531 . S
C326 H338 0.960 1_556 S
C326 H339 0.962 . S
C326 H340 0.960 . S
C327 C324 1.511 . S
C327 H341 0.961 . S
C327 H342 0.961 . S
C327 H343 0.961 . S
C328 C329 1.370 . S
C328 C330 1.363 . S
C328 H344 0.931 . S
C329 C328 1.370 . S
C329 C333 1.408 . S
C330 C328 1.363 . S
C330 C331 1.370 . S
C330 C334 1.524 . S
C331 C323 1.503 1_554 S
C331 C330 1.370 . S
C331 C332 1.403 . S
C332 C331 1.403 . S
C332 C333 1.404 . S
C332 C335 1.539 . S
C333 C329 1.408 . S
C333 C332 1.404 . S
C333 H345 0.930 . S
C334 C330 1.524 . S
C334 H346 0.956 . S
C334 H347 0.971 . S
C334 H348 0.961 . S
C335 C332 1.539 . S
C335 H349 0.958 . S
C335 H350 0.961 . S
C335 H351 0.960 1_554 S
H336 C320 0.931 . S
H337 C325 0.929 . S
H338 C326 0.960 1_554 S
H339 C326 0.962 . S
H340 C326 0.960 . S
H341 C327 0.961 . S
H342 C327 0.961 . S
H343 C327 0.961 . S
H344 C328 0.931 . S
H345 C333 0.930 . S
H346 C334 0.956 . S
H347 C334 0.971 . S
H348 C334 0.961 . S
H349 C335 0.958 . S
H350 C335 0.961 . S
H351 C335 0.960 1_556 S
C352 C353 1.391 1_545 S
C352 C354 1.394 . S
C352 H368 0.931 . S
C353 C352 1.391 1_565 S
C353 C357 1.376 1_455 S
C354 C352 1.394 . S
C354 C355 1.369 . S
C354 C358 1.531 . S
C355 C354 1.369 . S
C355 C356 1.410 1_445 S
C355 C363 1.503 . S
C356 C355 1.410 1_665 S
C356 C357 1.392 . S
C356 C359 1.511 . S
C357 C353 1.376 1_655 S
C357 C356 1.392 . S
C357 H369 0.929 . S
C358 C354 1.531 . S
C358 H370 0.960 . S
C358 H371 0.962 . S
C358 H372 0.960 . S
C359 C356 1.511 . S
C359 H373 0.961 . S
C359 H374 0.961 . S
C359 H375 0.961 . S
C360 C361 1.370 1_565 S
C360 C362 1.363 . S
C360 H376 0.931 . S
C361 C360 1.370 1_545 S
C361 C365 1.408 1_455 S
C362 C360 1.363 . S
C362 C363 1.370 1_565 S
C362 C366 1.524 . S
C363 C355 1.503 . S
C363 C362 1.370 1_545 S
C363 C364 1.403 1_455 S
C364 C363 1.403 1_655 S
C364 C365 1.404 . S
C364 C367 1.539 . S
C365 C361 1.408 1_655 S
C365 C364 1.404 . S
C365 H377 0.930 . S
C366 C362 1.524 . S
C366 H378 0.956 . S
C366 H379 0.961 . S
C366 H380 0.961 . S
C367 C364 1.539 . S
C367 H381 0.958 . S
C367 H382 0.961 . S
C367 H383 0.960 . S
H368 C352 0.931 . S
H369 C357 0.929 . S
H370 C358 0.960 . S
H371 C358 0.962 . S
H372 C358 0.960 . S
H373 C359 0.961 . S
H374 C359 0.961 . S
H375 C359 0.961 . S
H376 C360 0.931 . S
H377 C365 0.930 . S
H378 C366 0.956 . S
H379 C366 0.961 . S
H380 C366 0.961 . S
H381 C367 0.958 . S
H382 C367 0.961 . S
H383 C367 0.960 . S
C384 C385 1.391 . S
C384 C386 1.394 . S
C384 H400 0.931 . S
C385 C384 1.391 . S
C385 C389 1.376 . S
C386 C384 1.394 . S
C386 C387 1.369 . S
C386 C390 1.531 . S
C387 C386 1.369 . S
C387 C388 1.410 . S
C387 C395 1.503 . S
C388 C387 1.410 . S
C388 C389 1.392 . S
C388 C391 1.511 . S
C389 C385 1.376 . S
C389 C388 1.392 . S
C389 H401 0.929 . S
C390 C386 1.531 . S
C390 H402 0.960 . S
C390 H403 0.962 . S
C390 H404 0.960 . S
C391 C388 1.511 . S
C391 H405 0.961 . S
C391 H406 0.961 . S
C391 H407 0.961 . S
C392 C393 1.370 . S
C392 C394 1.363 . S
C392 H408 0.931 . S
C393 C392 1.370 . S
C393 C397 1.408 . S
C394 C392 1.363 . S
C394 C395 1.370 . S
C394 C398 1.524 . S
C395 C387 1.503 . S
C395 C394 1.370 . S
C395 C396 1.403 . S
C396 C395 1.403 . S
C396 C397 1.404 . S
C396 C399 1.539 . S
C397 C393 1.408 . S
C397 C396 1.404 . S
C397 H409 0.930 . S
C398 C394 1.524 . S
C398 H410 0.956 . S
C398 H411 0.961 . S
C398 H412 0.961 . S
C399 C396 1.539 . S
C399 H413 0.958 . S
C399 H414 0.961 . S
C399 H415 0.960 . S
H400 C384 0.931 . S
H401 C389 0.929 . S
H402 C390 0.960 . S
H403 C390 0.962 . S
H404 C390 0.960 . S
H405 C391 0.961 . S
H406 C391 0.961 . S
H407 C391 0.961 . S
H408 C392 0.931 . S
H409 C397 0.930 . S
H410 C398 0.956 . S
H411 C398 0.961 . S
H412 C398 0.961 . S
H413 C399 0.958 . S
H414 C399 0.961 . S
H415 C399 0.960 . S
C416 C417 1.391 . S
C416 C418 1.394 . S
C416 H432 0.931 . S
C417 C416 1.391 . S
C417 C421 1.376 1_545 S
C418 C416 1.394 . S
C418 C419 1.360 1_545 S
C418 C422 1.531 . S
C419 C418 1.360 1_565 S
C419 C420 1.417 . S
C419 C427 1.504 . S
C420 C419 1.417 . S
C420 C421 1.392 . S
C420 C423 1.511 . S
C421 C417 1.376 1_565 S
C421 C420 1.392 . S
C421 H433 0.929 . S
C422 C418 1.531 . S
C422 H434 0.960 . S
C422 H435 0.962 . S
C422 H436 0.960 . S
C423 C420 1.511 . S
C423 H437 0.961 . S
C423 H438 0.961 . S
C423 H439 0.961 . S
C424 C425 1.370 1_545 S
C424 C426 1.363 . S
C424 H440 0.931 . S
C425 C424 1.370 1_565 S
C425 C429 1.408 . S
C426 C424 1.363 . S
C426 C427 1.370 1_545 S
C426 C430 1.524 . S
C427 C419 1.504 . S
C427 C426 1.370 1_565 S
C427 C428 1.403 . S
C428 C427 1.403 . S
C428 C429 1.404 . S
C428 C431 1.539 . S
C429 C425 1.408 . S
C429 C428 1.404 . S
C429 H441 0.930 . S
C430 C426 1.524 . S
C430 H442 0.956 . S
C430 H443 0.961 . S
C430 H444 0.961 . S
C431 C428 1.539 . S
C431 H445 0.958 . S
C431 H446 0.961 . S
C431 H447 0.960 . S
H432 C416 0.931 . S
H433 C421 0.929 . S
H434 C422 0.960 . S
H435 C422 0.962 . S
H436 C422 0.960 . S
H437 C423 0.961 . S
H438 C423 0.961 . S
H439 C423 0.961 . S
H440 C424 0.931 . S
H441 C429 0.930 . S
H442 C430 0.956 . S
H443 C430 0.961 . S
H444 C430 0.961 . S
H445 C431 0.958 . S
H446 C431 0.961 . S
H447 C431 0.960 . S
C448 C449 1.391 . S
C448 C450 1.394 . S
C448 H464 0.931 . S
C449 C448 1.391 . S
C449 C453 1.376 . S
C450 C448 1.394 . S
C450 C451 1.369 . S
C450 C454 1.531 . S
C451 C450 1.369 . S
C451 C452 1.410 . S
C451 C459 1.503 1_554 S
C452 C451 1.410 . S
C452 C453 1.392 . S
C452 C455 1.511 . S
C453 C449 1.376 . S
C453 C452 1.392 . S
C453 H465 0.929 . S
C454 C450 1.531 . S
C454 H466 0.960 1_554 S
C454 H467 0.962 . S
C454 H468 0.960 . S
C455 C452 1.511 . S
C455 H469 0.961 . S
C455 H470 0.961 . S
C455 H471 0.961 . S
C456 C457 1.370 . S
C456 C458 1.363 . S
C456 H472 0.931 . S
C457 C456 1.370 . S
C457 C461 1.408 . S
C458 C456 1.363 . S
C458 C459 1.370 . S
C458 C462 1.524 . S
C459 C451 1.503 1_556 S
C459 C458 1.370 . S
C459 C460 1.403 . S
C460 C459 1.403 . S
C460 C461 1.404 . S
C460 C463 1.539 . S
C461 C457 1.408 . S
C461 C460 1.404 . S
C461 H473 0.930 . S
C462 C458 1.524 . S
C462 H474 0.956 . S
C462 H475 0.961 1_556 S
C462 H476 0.961 . S
C463 C460 1.539 . S
C463 H477 0.958 . S
C463 H478 0.961 . S
C463 H479 0.960 1_556 S
H464 C448 0.931 . S
H465 C453 0.929 . S
H466 C454 0.960 1_556 S
H467 C454 0.962 . S
H468 C454 0.960 . S
H469 C455 0.961 . S
H470 C455 0.961 . S
H471 C455 0.961 . S
H472 C456 0.931 . S
H473 C461 0.930 . S
H474 C462 0.956 . S
H475 C462 0.961 1_554 S
H476 C462 0.961 . S
H477 C463 0.958 . S
H478 C463 0.961 . S
H479 C463 0.960 1_554 S
C480 C481 1.391 . S
C480 C482 1.394 . S
C480 H496 0.931 . S
C481 C480 1.391 . S
C481 C485 1.376 . S
C482 C480 1.394 . S
C482 C483 1.369 . S
C482 C486 1.531 . S
C483 C482 1.369 . S
C483 C484 1.410 . S
C483 C491 1.503 . S
C484 C483 1.410 . S
C484 C485 1.392 . S
C484 C487 1.511 . S
C485 C481 1.376 . S
C485 C484 1.392 . S
C485 H497 0.929 . S
C486 C482 1.531 . S
C486 H498 0.960 . S
C486 H499 0.962 . S
C486 H500 0.960 . S
C487 C484 1.511 . S
C487 H501 0.961 . S
C487 H502 0.961 . S
C487 H503 0.961 . S
C488 C489 1.370 . S
C488 C490 1.363 . S
C488 H504 0.931 . S
C489 C488 1.370 . S
C489 C493 1.408 . S
C490 C488 1.363 . S
C490 C491 1.370 . S
C490 C494 1.524 . S
C491 C483 1.503 . S
C491 C490 1.370 . S
C491 C492 1.403 . S
C492 C491 1.403 . S
C492 C493 1.404 . S
C492 C495 1.539 . S
C493 C489 1.408 . S
C493 C492 1.404 . S
C493 H505 0.930 . S
C494 C490 1.524 . S
C494 H506 0.956 . S
C494 H507 0.961 . S
C494 H508 0.961 . S
C495 C492 1.539 . S
C495 H509 0.958 . S
C495 H510 0.961 . S
C495 H511 0.960 . S
H496 C480 0.931 . S
H497 C485 0.929 . S
H498 C486 0.960 . S
H499 C486 0.962 . S
H500 C486 0.960 . S
H501 C487 0.961 . S
H502 C487 0.961 . S
H503 C487 0.961 . S
H504 C488 0.931 . S
H505 C493 0.930 . S
H506 C494 0.956 . S
H507 C494 0.961 . S
H508 C494 0.961 . S
H509 C495 0.958 . S
H510 C495 0.961 . S
H511 C495 0.960 . S
C512 C513 1.391 . S
C512 C514 1.394 . S
C512 H528 0.931 . S
C513 C512 1.391 . S
C513 C517 1.376 . S
C514 C512 1.394 . S
C514 C515 1.369 . S
C514 C518 1.531 . S
C515 C514 1.369 . S
C515 C516 1.410 . S
C515 C523 1.503 1_556 S
C516 C515 1.410 . S
C516 C517 1.392 . S
C516 C519 1.511 . S
C517 C513 1.376 . S
C517 C516 1.392 . S
C517 H529 0.929 . S
C518 C514 1.531 . S
C518 H530 0.960 1_556 S
C518 H531 0.962 . S
C518 H532 0.960 . S
C519 C516 1.511 . S
C519 H533 0.961 . S
C519 H534 0.961 1_556 S
C519 H535 0.961 . S
C520 C521 1.370 . S
C520 C522 1.363 . S
C520 H536 0.931 . S
C521 C520 1.370 . S
C521 C525 1.408 . S
C522 C520 1.363 . S
C522 C523 1.370 . S
C522 C526 1.524 . S
C523 C515 1.503 1_554 S
C523 C522 1.370 . S
C523 C524 1.403 . S
C524 C523 1.403 . S
C524 C525 1.404 . S
C524 C527 1.539 . S
C525 C521 1.408 . S
C525 C524 1.404 . S
C525 H537 0.930 . S
C526 C522 1.524 . S
C526 H538 0.956 . S
C526 H539 0.961 . S
C526 H540 0.961 . S
C527 C524 1.539 . S
C527 H541 0.958 . S
C527 H542 0.961 . S
C527 H543 0.960 1_554 S
H528 C512 0.931 . S
H529 C517 0.929 . S
H530 C518 0.960 1_554 S
H531 C518 0.962 . S
H532 C518 0.960 . S
H533 C519 0.961 . S
H534 C519 0.961 1_554 S
H535 C519 0.961 . S
H536 C520 0.931 . S
H537 C525 0.930 . S
H538 C526 0.956 . S
H539 C526 0.961 . S
H540 C526 0.961 . S
H541 C527 0.958 . S
H542 C527 0.961 . S
H543 C527 0.960 1_556 S
C544 C545 1.391 1_655 S
C544 C546 1.394 . S
C544 H560 0.931 . S
C545 C544 1.391 1_455 S
C545 C549 1.376 . S
C546 C544 1.394 . S
C546 C547 1.369 1_655 S
C546 C550 1.531 . S
C547 C546 1.369 1_455 S
C547 C548 1.410 . S
C547 C555 1.503 . S
C548 C547 1.410 . S
C548 C549 1.392 . S
C548 C551 1.511 . S
C549 C545 1.376 . S
C549 C548 1.392 . S
C549 H561 0.929 . S
C550 C546 1.531 . S
C550 H562 0.960 . S
C550 H563 0.962 . S
C550 H564 0.960 . S
C551 C548 1.511 . S
C551 H565 0.961 . S
C551 H566 0.961 . S
C551 H567 0.961 . S
C552 C553 1.370 1_655 S
C552 C554 1.363 . S
C552 H568 0.931 . S
C553 C552 1.370 1_455 S
C553 C557 1.408 . S
C554 C552 1.363 . S
C554 C555 1.370 1_655 S
C554 C558 1.524 . S
C555 C547 1.503 . S
C555 C554 1.370 1_455 S
C555 C556 1.403 . S
C556 C555 1.403 . S
C556 C557 1.404 . S
C556 C559 1.539 . S
C557 C553 1.408 . S
C557 C556 1.404 . S
C557 H569 0.930 . S
C558 C554 1.524 . S
C558 H570 0.956 . S
C558 H571 0.961 . S
C558 H572 0.961 . S
C559 C556 1.539 . S
C559 H573 0.958 . S
C559 H574 0.961 . S
C559 H575 0.960 . S
H560 C544 0.931 . S
H561 C549 0.929 . S
H562 C550 0.960 . S
H563 C550 0.962 . S
H564 C550 0.960 . S
H565 C551 0.961 . S
H566 C551 0.961 . S
H567 C551 0.961 . S
H568 C552 0.931 . S
H569 C557 0.930 . S
H570 C558 0.956 . S
H571 C558 0.961 . S
H572 C558 0.961 . S
H573 C559 0.958 . S
H574 C559 0.961 . S
H575 C559 0.960 . S
C576 C577 1.391 . S
C576 C578 1.394 . S
C576 H592 0.931 . S
C577 C576 1.391 . S
C577 C581 1.376 . S
C578 C576 1.394 . S
C578 C579 1.369 . S
C578 C582 1.531 . S
C579 C578 1.369 . S
C579 C580 1.410 . S
C579 C587 1.503 . S
C580 C579 1.410 . S
C580 C581 1.392 . S
C580 C583 1.511 . S
C581 C577 1.376 . S
C581 C580 1.392 . S
C581 H593 0.929 . S
C582 C578 1.531 . S
C582 H594 0.960 . S
C582 H595 0.962 . S
C582 H596 0.960 . S
C583 C580 1.511 . S
C583 H597 0.961 . S
C583 H598 0.961 . S
C583 H599 0.961 . S
C584 C585 1.370 . S
C584 C586 1.363 . S
C584 H600 0.931 . S
C585 C584 1.370 . S
C585 C589 1.408 . S
C586 C584 1.363 . S
C586 C587 1.370 . S
C586 C590 1.524 . S
C587 C579 1.503 . S
C587 C586 1.370 . S
C587 C588 1.403 . S
C588 C587 1.403 . S
C588 C589 1.404 . S
C588 C591 1.539 . S
C589 C585 1.408 . S
C589 C588 1.404 . S
C589 H601 0.930 . S
C590 C586 1.524 . S
C590 H602 0.956 . S
C590 H603 0.961 . S
C590 H604 0.961 . S
C591 C588 1.539 . S
C591 H605 0.958 . S
C591 H606 0.961 . S
C591 H607 0.960 . S
H592 C576 0.931 . S
H593 C581 0.929 . S
H594 C582 0.960 . S
H595 C582 0.962 . S
H596 C582 0.960 . S
H597 C583 0.961 . S
H598 C583 0.961 . S
H599 C583 0.961 . S
H600 C584 0.931 . S
H601 C589 0.930 . S
H602 C590 0.956 . S
H603 C590 0.961 . S
H604 C590 0.961 . S
H605 C591 0.958 . S
H606 C591 0.961 . S
H607 C591 0.960 . S
C608 C609 1.391 . S
C608 C610 1.394 . S
C608 H624 0.931 . S
C609 C608 1.391 . S
C609 C613 1.376 . S
C610 C608 1.394 . S
C610 C611 1.369 . S
C610 C614 1.531 . S
C611 C610 1.369 . S
C611 C612 1.410 . S
C611 C619 1.503 . S
C612 C611 1.410 . S
C612 C613 1.392 . S
C612 C615 1.511 . S
C613 C609 1.376 . S
C613 C612 1.392 . S
C613 H625 0.929 . S
C614 C610 1.531 . S
C614 H626 0.960 . S
C614 H627 0.962 . S
C614 H628 0.960 . S
C615 C612 1.511 . S
C615 H629 0.961 . S
C615 H630 0.961 . S
C615 H631 0.961 . S
C616 C617 1.370 . S
C616 C618 1.363 . S
C616 H632 0.931 . S
C617 C616 1.370 . S
C617 C621 1.408 . S
C618 C616 1.363 . S
C618 C619 1.370 . S
C618 C622 1.524 . S
C619 C611 1.503 . S
C619 C618 1.370 . S
C619 C620 1.403 . S
C620 C619 1.403 . S
C620 C621 1.404 . S
C620 C623 1.539 . S
C621 C617 1.408 . S
C621 C620 1.404 . S
C621 H633 0.930 . S
C622 C618 1.524 . S
C622 H634 0.956 . S
C622 H635 0.961 . S
C622 H636 0.961 . S
C623 C620 1.539 . S
C623 H637 0.958 . S
C623 H638 0.961 . S
C623 H639 0.960 . S
H624 C608 0.931 . S
H625 C613 0.929 . S
H626 C614 0.960 . S
H627 C614 0.962 . S
H628 C614 0.960 . S
H629 C615 0.961 . S
H630 C615 0.961 . S
H631 C615 0.961 . S
H632 C616 0.931 . S
H633 C621 0.930 . S
H634 C622 0.956 . S
H635 C622 0.961 . S
H636 C622 0.961 . S
H637 C623 0.958 . S
H638 C623 0.961 . S
H639 C623 0.960 . S
C640 C641 1.391 . S
C640 C642 1.394 . S
C640 H656 0.931 . S
C641 C640 1.391 . S
C641 C645 1.376 . S
C642 C640 1.394 . S
C642 C643 1.369 . S
C642 C646 1.531 . S
C643 C642 1.369 . S
C643 C644 1.410 . S
C643 C651 1.503 1_554 S
C644 C643 1.410 . S
C644 C645 1.392 . S
C644 C647 1.511 . S
C645 C641 1.376 . S
C645 C644 1.392 . S
C645 H657 0.929 . S
C646 C642 1.531 . S
C646 H658 0.960 . S
C646 H659 0.962 . S
C646 H660 0.960 . S
C647 C644 1.511 . S
C647 H661 0.961 . S
C647 H662 0.961 1_554 S
C647 H663 0.961 . S
C648 C649 1.370 . S
C648 C650 1.363 . S
C648 H664 0.931 . S
C649 C648 1.370 . S
C649 C653 1.408 . S
C650 C648 1.363 . S
C650 C651 1.370 . S
C650 C654 1.524 . S
C651 C643 1.503 1_556 S
C651 C650 1.370 . S
C651 C652 1.403 . S
C652 C651 1.403 . S
C652 C653 1.404 . S
C652 C655 1.539 . S
C653 C649 1.408 . S
C653 C652 1.404 . S
C653 H665 0.930 . S
C654 C650 1.524 . S
C654 H666 0.956 1_556 S
C654 H667 0.961 1_556 S
C654 H668 0.961 . S
C655 C652 1.539 . S
C655 H669 0.958 . S
C655 H670 0.961 . S
C655 H671 0.960 . S
H656 C640 0.931 . S
H657 C645 0.929 . S
H658 C646 0.960 . S
H659 C646 0.962 . S
H660 C646 0.960 . S
H661 C647 0.961 . S
H662 C647 0.961 1_556 S
H663 C647 0.961 . S
H664 C648 0.931 . S
H665 C653 0.930 . S
H666 C654 0.956 1_554 S
H667 C654 0.961 1_554 S
H668 C654 0.961 . S
H669 C655 0.958 . S
H670 C655 0.961 . S
H671 C655 0.960 . S
C672 C673 1.391 1_455 S
C672 C674 1.394 . S
C672 H688 0.931 . S
C673 C672 1.391 1_655 S
C673 C677 1.376 . S
C674 C672 1.394 . S
C674 C675 1.369 1_455 S
C674 C678 1.531 . S
C675 C674 1.369 1_655 S
C675 C676 1.410 . S
C675 C683 1.503 . S
C676 C675 1.410 . S
C676 C677 1.392 . S
C676 C679 1.511 . S
C677 C673 1.376 . S
C677 C676 1.392 . S
C677 H689 0.929 . S
C678 C674 1.531 . S
C678 H690 0.960 . S
C678 H691 0.962 . S
C678 H692 0.960 . S
C679 C676 1.511 . S
C679 H693 0.961 . S
C679 H694 0.961 . S
C679 H695 0.961 . S
C680 C681 1.370 1_455 S
C680 C682 1.363 . S
C680 H696 0.931 . S
C681 C680 1.370 1_655 S
C681 C685 1.408 . S
C682 C680 1.363 . S
C682 C683 1.370 1_455 S
C682 C686 1.524 . S
C683 C675 1.503 . S
C683 C682 1.370 1_655 S
C683 C684 1.403 . S
C684 C683 1.403 . S
C684 C685 1.404 . S
C684 C687 1.539 . S
C685 C681 1.408 . S
C685 C684 1.404 . S
C685 H697 0.930 . S
C686 C682 1.524 . S
C686 H698 0.956 . S
C686 H699 0.961 . S
C686 H700 0.961 . S
C687 C684 1.539 . S
C687 H701 0.958 . S
C687 H702 0.961 . S
C687 H703 0.960 . S
H688 C672 0.931 . S
H689 C677 0.929 . S
H690 C678 0.960 . S
H691 C678 0.962 . S
H692 C678 0.960 . S
H693 C679 0.961 . S
H694 C679 0.961 . S
H695 C679 0.961 . S
H696 C680 0.931 . S
H697 C685 0.930 . S
H698 C686 0.956 . S
H699 C686 0.961 . S
H700 C686 0.961 . S
H701 C687 0.958 . S
H702 C687 0.961 . S
H703 C687 0.960 . S
C704 C705 1.391 . S
C704 C706 1.394 . S
C704 H720 0.931 . S
C705 C704 1.391 . S
C705 C709 1.376 . S
C706 C704 1.394 . S
C706 C707 1.369 . S
C706 C710 1.531 . S
C707 C706 1.369 . S
C707 C708 1.410 . S
C707 C715 1.503 . S
C708 C707 1.410 . S
C708 C709 1.392 . S
C708 C711 1.511 . S
C709 C705 1.376 . S
C709 C708 1.392 . S
C709 H721 0.929 . S
C710 C706 1.531 . S
C710 H722 0.960 . S
C710 H723 0.962 . S
C710 H724 0.960 . S
C711 C708 1.511 . S
C711 H725 0.961 . S
C711 H726 0.961 . S
C711 H727 0.961 . S
C712 C713 1.370 . S
C712 C714 1.363 . S
C712 H728 0.931 . S
C713 C712 1.370 . S
C713 C717 1.408 . S
C714 C712 1.363 . S
C714 C715 1.370 . S
C714 C718 1.524 . S
C715 C707 1.503 . S
C715 C714 1.370 . S
C715 C716 1.403 . S
C716 C715 1.403 . S
C716 C717 1.404 . S
C716 C719 1.539 . S
C717 C713 1.408 . S
C717 C716 1.404 . S
C717 H729 0.930 . S
C718 C714 1.524 . S
C718 H730 0.956 . S
C718 H731 0.961 . S
C718 H732 0.961 . S
C719 C716 1.539 . S
C719 H733 0.958 . S
C719 H734 0.961 . S
C719 H735 0.960 . S
H720 C704 0.931 . S
H721 C709 0.929 . S
H722 C710 0.960 . S
H723 C710 0.962 . S
H724 C710 0.960 . S
H725 C711 0.961 . S
H726 C711 0.961 . S
H727 C711 0.961 . S
H728 C712 0.931 . S
H729 C717 0.930 . S
H730 C718 0.956 . S
H731 C718 0.961 . S
H732 C718 0.961 . S
H733 C719 0.958 . S
H734 C719 0.961 . S
H735 C719 0.960 . S
C736 C737 1.391 . S
C736 C738 1.394 . S
C736 H752 0.931 . S
C737 C736 1.391 . S
C737 C741 1.376 . S
C738 C736 1.394 . S
C738 C739 1.369 . S
C738 C742 1.531 . S
C739 C738 1.369 . S
C739 C740 1.410 . S
C739 C747 1.503 . S
C740 C739 1.410 . S
C740 C741 1.392 . S
C740 C743 1.511 . S
C741 C737 1.376 . S
C741 C740 1.392 . S
C741 H753 0.929 . S
C742 C738 1.531 . S
C742 H754 0.960 . S
C742 H755 0.962 . S
C742 H756 0.960 . S
C743 C740 1.511 . S
C743 H757 0.961 . S
C743 H758 0.961 . S
C743 H759 0.961 . S
C744 C745 1.370 . S
C744 C746 1.363 . S
C744 H760 0.931 . S
C745 C744 1.370 . S
C745 C749 1.408 . S
C746 C744 1.363 . S
C746 C747 1.370 . S
C746 C750 1.524 . S
C747 C739 1.503 . S
C747 C746 1.370 . S
C747 C748 1.403 . S
C748 C747 1.403 . S
C748 C749 1.404 . S
C748 C751 1.539 . S
C749 C745 1.408 . S
C749 C748 1.404 . S
C749 H761 0.930 . S
C750 C746 1.524 . S
C750 H762 0.956 . S
C750 H763 0.961 . S
C750 H764 0.961 . S
C751 C748 1.539 . S
C751 H765 0.958 . S
C751 H766 0.961 . S
C751 H767 0.960 . S
H752 C736 0.931 . S
H753 C741 0.929 . S
H754 C742 0.960 . S
H755 C742 0.962 . S
H756 C742 0.960 . S
H757 C743 0.961 . S
H758 C743 0.961 . S
H759 C743 0.961 . S
H760 C744 0.931 . S
H761 C749 0.930 . S
H762 C750 0.956 . S
H763 C750 0.961 . S
H764 C750 0.961 . S
H765 C751 0.958 . S
H766 C751 0.961 . S
H767 C751 0.960 . S
C768 C769 1.391 . S
C768 C770 1.394 . S
C768 H784 0.931 . S
C769 C768 1.391 . S
C769 C773 1.376 . S
C770 C768 1.394 . S
C770 C771 1.369 . S
C770 C774 1.531 . S
C771 C770 1.369 . S
C771 C772 1.410 . S
C771 C779 1.503 . S
C772 C771 1.410 . S
C772 C773 1.392 . S
C772 C775 1.511 . S
C773 C769 1.376 . S
C773 C772 1.392 . S
C773 H785 0.929 . S
C774 C770 1.531 . S
C774 H786 0.960 . S
C774 H787 0.962 . S
C774 H788 0.960 . S
C775 C772 1.511 . S
C775 H789 0.961 . S
C775 H790 0.961 . S
C775 H791 0.961 . S
C776 C777 1.370 . S
C776 C778 1.363 . S
C776 H792 0.931 . S
C777 C776 1.370 . S
C777 C781 1.408 . S
C778 C776 1.363 . S
C778 C779 1.370 . S
C778 C782 1.524 . S
C779 C771 1.503 . S
C779 C778 1.370 . S
C779 C780 1.403 . S
C780 C779 1.403 . S
C780 C781 1.404 . S
C780 C783 1.539 . S
C781 C777 1.408 . S
C781 C780 1.404 . S
C781 H793 0.930 . S
C782 C778 1.524 . S
C782 H794 0.956 . S
C782 H795 0.961 . S
C782 H796 0.961 . S
C783 C780 1.539 . S
C783 H797 0.958 . S
C783 H798 0.961 . S
C783 H799 0.960 . S
H784 C768 0.931 . S
H785 C773 0.929 . S
H786 C774 0.960 . S
H787 C774 0.962 . S
H788 C774 0.960 . S
H789 C775 0.961 . S
H790 C775 0.961 . S
H791 C775 0.961 . S
H792 C776 0.931 . S
H793 C781 0.930 . S
H794 C782 0.956 . S
H795 C782 0.961 . S
H796 C782 0.961 . S
H797 C783 0.958 . S
H798 C783 0.961 . S
H799 C783 0.960 . S
C800 C801 1.391 . S
C800 C802 1.394 . S
C800 H816 0.931 . S
C801 C800 1.391 . S
C801 C805 1.376 . S
C802 C800 1.394 . S
C802 C803 1.369 . S
C802 C806 1.531 . S
C803 C802 1.369 . S
C803 C804 1.410 . S
C803 C811 1.503 . S
C804 C803 1.410 . S
C804 C805 1.392 . S
C804 C807 1.511 . S
C805 C801 1.376 . S
C805 C804 1.392 . S
C805 H817 0.929 . S
C806 C802 1.531 . S
C806 H818 0.960 . S
C806 H819 0.962 . S
C806 H820 0.960 . S
C807 C804 1.511 . S
C807 H821 0.961 . S
C807 H822 0.961 . S
C807 H823 0.961 . S
C808 C809 1.370 . S
C808 C810 1.363 . S
C808 H824 0.931 . S
C809 C808 1.370 . S
C809 C813 1.408 . S
C810 C808 1.363 . S
C810 C811 1.370 . S
C810 C814 1.524 . S
C811 C803 1.503 . S
C811 C810 1.370 . S
C811 C812 1.403 . S
C812 C811 1.403 . S
C812 C813 1.404 . S
C812 C815 1.539 . S
C813 C809 1.408 . S
C813 C812 1.404 . S
C813 H825 0.930 . S
C814 C810 1.524 . S
C814 H826 0.956 . S
C814 H827 0.961 . S
C814 H828 0.961 . S
C815 C812 1.539 . S
C815 H829 0.958 . S
C815 H830 0.961 . S
C815 H831 0.960 . S
H816 C800 0.931 . S
H817 C805 0.929 . S
H818 C806 0.960 . S
H819 C806 0.962 . S
H820 C806 0.960 . S
H821 C807 0.961 . S
H822 C807 0.961 . S
H823 C807 0.961 . S
H824 C808 0.931 . S
H825 C813 0.930 . S
H826 C814 0.956 . S
H827 C814 0.961 . S
H828 C814 0.961 . S
H829 C815 0.958 . S
H830 C815 0.961 . S
H831 C815 0.960 . S
C832 C833 1.391 . S
C832 C834 1.394 . S
C832 H848 0.931 . S
C833 C832 1.391 . S
C833 C837 1.376 . S
C834 C832 1.394 . S
C834 C835 1.369 . S
C834 C838 1.531 . S
C835 C834 1.369 . S
C835 C836 1.410 . S
C835 C843 1.503 . S
C836 C835 1.410 . S
C836 C837 1.392 . S
C836 C839 1.511 . S
C837 C833 1.376 . S
C837 C836 1.392 . S
C837 H849 0.929 . S
C838 C834 1.531 . S
C838 H850 0.960 . S
C838 H851 0.962 . S
C838 H852 0.960 . S
C839 C836 1.511 . S
C839 H853 0.961 . S
C839 H854 0.961 . S
C839 H855 0.961 . S
C840 C841 1.370 . S
C840 C842 1.363 . S
C840 H856 0.931 . S
C841 C840 1.370 . S
C841 C845 1.408 . S
C842 C840 1.363 . S
C842 C843 1.370 . S
C842 C846 1.524 . S
C843 C835 1.503 . S
C843 C842 1.370 . S
C843 C844 1.403 . S
C844 C843 1.403 . S
C844 C845 1.404 . S
C844 C847 1.539 . S
C845 C841 1.408 . S
C845 C844 1.404 . S
C845 H857 0.930 . S
C846 C842 1.524 . S
C846 H858 0.956 . S
C846 H859 0.961 . S
C846 H860 0.961 . S
C847 C844 1.539 . S
C847 H861 0.958 . S
C847 H862 0.961 . S
C847 H863 0.960 . S
H848 C832 0.931 . S
H849 C837 0.929 . S
H850 C838 0.960 . S
H851 C838 0.962 . S
H852 C838 0.960 . S
H853 C839 0.961 . S
H854 C839 0.961 . S
H855 C839 0.961 . S
H856 C840 0.931 . S
H857 C845 0.930 . S
H858 C846 0.956 . S
H859 C846 0.961 . S
H860 C846 0.961 . S
H861 C847 0.958 . S
H862 C847 0.961 . S
H863 C847 0.960 . S
C864 C865 1.391 . S
C864 C866 1.394 . S
C864 H880 0.931 . S
C865 C864 1.391 . S
C865 C869 1.376 . S
C866 C864 1.394 . S
C866 C867 1.369 . S
C866 C870 1.531 . S
C867 C866 1.369 . S
C867 C868 1.410 . S
C867 C875 1.503 . S
C868 C867 1.410 . S
C868 C869 1.392 . S
C868 C871 1.511 . S
C869 C865 1.376 . S
C869 C868 1.392 . S
C869 H881 0.929 . S
C870 C866 1.531 . S
C870 H882 0.960 . S
C870 H883 0.962 . S
C870 H884 0.960 . S
C871 C868 1.511 . S
C871 H885 0.961 . S
C871 H886 0.961 . S
C871 H887 0.961 . S
C872 C873 1.370 . S
C872 C874 1.363 . S
C872 H888 0.931 . S
C873 C872 1.370 . S
C873 C877 1.408 . S
C874 C872 1.363 . S
C874 C875 1.370 . S
C874 C878 1.524 . S
C875 C867 1.503 . S
C875 C874 1.370 . S
C875 C876 1.403 . S
C876 C875 1.403 . S
C876 C877 1.404 . S
C876 C879 1.539 . S
C877 C873 1.408 . S
C877 C876 1.404 . S
C877 H889 0.930 . S
C878 C874 1.524 . S
C878 H890 0.956 . S
C878 H891 0.961 . S
C878 H892 0.961 . S
C879 C876 1.539 . S
C879 H893 0.958 . S
C879 H894 0.961 . S
C879 H895 0.960 . S
H880 C864 0.931 . S
H881 C869 0.929 . S
H882 C870 0.960 . S
H883 C870 0.962 . S
H884 C870 0.960 . S
H885 C871 0.961 . S
H886 C871 0.961 . S
H887 C871 0.961 . S
H888 C872 0.931 . S
H889 C877 0.930 . S
H890 C878 0.956 . S
H891 C878 0.961 . S
H892 C878 0.961 . S
H893 C879 0.958 . S
H894 C879 0.961 . S
H895 C879 0.960 . S
C896 C897 1.391 . S
C896 C898 1.394 . S
C896 H912 0.931 . S
C897 C896 1.391 . S
C897 C901 1.376 . S
C898 C896 1.394 . S
C898 C899 1.369 . S
C898 C902 1.531 . S
C899 C898 1.369 . S
C899 C900 1.410 . S
C899 C907 1.503 . S
C900 C899 1.410 . S
C900 C901 1.392 . S
C900 C903 1.511 . S
C901 C897 1.376 . S
C901 C900 1.392 . S
C901 H913 0.929 . S
C902 C898 1.531 . S
C902 H914 0.960 . S
C902 H915 0.962 . S
C902 H916 0.960 . S
C903 C900 1.511 . S
C903 H917 0.961 . S
C903 H918 0.961 . S
C903 H919 0.961 . S
C904 C905 1.370 . S
C904 C906 1.363 . S
C904 H920 0.931 . S
C905 C904 1.370 . S
C905 C909 1.408 . S
C906 C904 1.363 . S
C906 C907 1.370 . S
C906 C910 1.524 . S
C907 C899 1.503 . S
C907 C906 1.370 . S
C907 C908 1.403 . S
C908 C907 1.403 . S
C908 C909 1.404 . S
C908 C911 1.539 . S
C909 C905 1.408 . S
C909 C908 1.404 . S
C909 H921 0.930 . S
C910 C906 1.524 . S
C910 H922 0.956 . S
C910 H923 0.961 . S
C910 H924 0.961 . S
C911 C908 1.539 . S
C911 H925 0.958 . S
C911 H926 0.961 . S
C911 H927 0.960 . S
H912 C896 0.931 . S
H913 C901 0.929 . S
H914 C902 0.960 . S
H915 C902 0.962 . S
H916 C902 0.960 . S
H917 C903 0.961 . S
H918 C903 0.961 . S
H919 C903 0.961 . S
H920 C904 0.931 . S
H921 C909 0.930 . S
H922 C910 0.956 . S
H923 C910 0.961 . S
H924 C910 0.961 . S
H925 C911 0.958 . S
H926 C911 0.961 . S
H927 C911 0.960 . S
C928 C929 1.391 . S
C928 C930 1.394 . S
C928 H944 0.931 . S
C929 C928 1.391 . S
C929 C933 1.376 . S
C930 C928 1.394 . S
C930 C931 1.369 . S
C930 C934 1.531 . S
C931 C930 1.369 . S
C931 C932 1.410 . S
C931 C939 1.503 . S
C932 C931 1.410 . S
C932 C933 1.392 . S
C932 C935 1.511 . S
C933 C929 1.376 . S
C933 C932 1.392 . S
C933 H945 0.929 . S
C934 C930 1.531 . S
C934 H946 0.960 . S
C934 H947 0.962 . S
C934 H948 0.960 . S
C935 C932 1.511 . S
C935 H949 0.961 . S
C935 H950 0.961 . S
C935 H951 0.961 . S
C936 C937 1.370 . S
C936 C938 1.363 . S
C936 H952 0.931 . S
C937 C936 1.370 . S
C937 C941 1.408 . S
C938 C936 1.363 . S
C938 C939 1.370 . S
C938 C942 1.524 . S
C939 C931 1.503 . S
C939 C938 1.370 . S
C939 C940 1.403 . S
C940 C939 1.403 . S
C940 C941 1.404 . S
C940 C943 1.539 . S
C941 C937 1.408 . S
C941 C940 1.404 . S
C941 H953 0.930 . S
C942 C938 1.524 . S
C942 H954 0.956 . S
C942 H955 0.961 . S
C942 H956 0.961 . S
C943 C940 1.539 . S
C943 H957 0.958 . S
C943 H958 0.961 . S
C943 H959 0.960 . S
H944 C928 0.931 . S
H945 C933 0.929 . S
H946 C934 0.960 . S
H947 C934 0.962 . S
H948 C934 0.960 . S
H949 C935 0.961 . S
H950 C935 0.961 . S
H951 C935 0.961 . S
H952 C936 0.931 . S
H953 C941 0.930 . S
H954 C942 0.956 . S
H955 C942 0.961 . S
H956 C942 0.961 . S
H957 C943 0.958 . S
H958 C943 0.961 . S
H959 C943 0.960 . S
C960 C961 1.391 . S
C960 C962 1.394 . S
C960 H976 0.931 . S
C961 C960 1.391 . S
C961 C965 1.376 . S
C962 C960 1.394 . S
C962 C963 1.369 . S
C962 C966 1.531 . S
C963 C962 1.369 . S
C963 C964 1.410 . S
C963 C971 1.503 . S
C964 C963 1.410 . S
C964 C965 1.392 . S
C964 C967 1.511 . S
C965 C961 1.376 . S
C965 C964 1.392 . S
C965 H977 0.929 . S
C966 C962 1.531 . S
C966 H978 0.960 . S
C966 H979 0.962 . S
C966 H980 0.960 . S
C967 C964 1.511 . S
C967 H981 0.961 . S
C967 H982 0.961 . S
C967 H983 0.961 . S
C968 C969 1.370 . S
C968 C970 1.363 . S
C968 H984 0.931 . S
C969 C968 1.370 . S
C969 C973 1.408 . S
C970 C968 1.363 . S
C970 C971 1.370 . S
C970 C974 1.524 . S
C971 C963 1.503 . S
C971 C970 1.370 . S
C971 C972 1.403 . S
C972 C971 1.403 . S
C972 C973 1.404 . S
C972 C975 1.539 . S
C973 C969 1.408 . S
C973 C972 1.404 . S
C973 H985 0.930 . S
C974 C970 1.524 . S
C974 H986 0.956 . S
C974 H987 0.961 . S
C974 H988 0.961 . S
C975 C972 1.539 . S
C975 H989 0.958 . S
C975 H990 0.961 . S
C975 H991 0.960 . S
H976 C960 0.931 . S
H977 C965 0.929 . S
H978 C966 0.960 . S
H979 C966 0.962 . S
H980 C966 0.960 . S
H981 C967 0.961 . S
H982 C967 0.961 . S
H983 C967 0.961 . S
H984 C968 0.931 . S
H985 C973 0.930 . S
H986 C974 0.956 . S
H987 C974 0.961 . S
H988 C974 0.961 . S
H989 C975 0.958 . S
H990 C975 0.961 . S
H991 C975 0.960 . S
C992 C993 1.391 . S
C992 C994 1.394 . S
C992 H1008 0.931 . S
C993 C992 1.391 . S
C993 C997 1.376 . S
C994 C992 1.394 . S
C994 C995 1.369 . S
C994 C998 1.531 . S
C995 C994 1.369 . S
C995 C996 1.410 . S
C995 C1003 1.503 . S
C996 C995 1.410 . S
C996 C997 1.392 . S
C996 C999 1.511 . S
C997 C993 1.376 . S
C997 C996 1.392 . S
C997 H1009 0.929 . S
C998 C994 1.531 . S
C998 H1010 0.960 . S
C998 H1011 0.962 . S
C998 H1012 0.960 . S
C999 C996 1.511 . S
C999 H1013 0.961 . S
C999 H1014 0.961 . S
C999 H1015 0.961 . S
C1000 C1001 1.370 . S
C1000 C1002 1.363 . S
C1000 H1016 0.931 . S
C1001 C1000 1.370 . S
C1001 C1005 1.408 . S
C1002 C1000 1.363 . S
C1002 C1003 1.370 . S
C1002 C1006 1.524 . S
C1003 C995 1.503 . S
C1003 C1002 1.370 . S
C1003 C1004 1.403 . S
C1004 C1003 1.403 . S
C1004 C1005 1.404 . S
C1004 C1007 1.539 . S
C1005 C1001 1.408 . S
C1005 C1004 1.404 . S
C1005 H1017 0.930 . S
C1006 C1002 1.524 . S
C1006 H1018 0.956 . S
C1006 H1019 0.961 . S
C1006 H1020 0.961 . S
C1007 C1004 1.539 . S
C1007 H1021 0.958 . S
C1007 H1022 0.961 . S
C1007 H1023 0.960 . S
H1008 C992 0.931 . S
H1009 C997 0.929 . S
H1010 C998 0.960 . S
H1011 C998 0.962 . S
H1012 C998 0.960 . S
H1013 C999 0.961 . S
H1014 C999 0.961 . S
H1015 C999 0.961 . S
H1016 C1000 0.931 . S
H1017 C1005 0.930 . S
H1018 C1006 0.956 . S
H1019 C1006 0.961 . S
H1020 C1006 0.961 . S
H1021 C1007 0.958 . S
H1022 C1007 0.961 . S
H1023 C1007 0.960 . S
C1024 C1025 1.391 . S
C1024 C1026 1.394 . S
C1024 H1040 0.931 . S
C1025 C1024 1.391 . S
C1025 C1029 1.376 . S
C1026 C1024 1.394 . S
C1026 C1027 1.369 . S
C1026 C1030 1.531 . S
C1027 C1026 1.369 . S
C1027 C1028 1.410 . S
C1027 C1035 1.503 . S
C1028 C1027 1.410 . S
C1028 C1029 1.392 . S
C1028 C1031 1.511 . S
C1029 C1025 1.376 . S
C1029 C1028 1.392 . S
C1029 H1041 0.929 1_556 S
C1030 C1026 1.531 . S
C1030 H1042 0.960 . S
C1030 H1043 0.962 . S
C1030 H1044 0.960 . S
C1031 C1028 1.511 . S
C1031 H1045 0.961 . S
C1031 H1046 0.961 . S
C1031 H1047 0.961 . S
C1032 C1033 1.370 . S
C1032 C1034 1.363 . S
C1032 H1048 0.931 . S
C1033 C1032 1.370 . S
C1033 C1037 1.408 . S
C1034 C1032 1.363 . S
C1034 C1035 1.370 . S
C1034 C1038 1.524 . S
C1035 C1027 1.503 . S
C1035 C1034 1.370 . S
C1035 C1036 1.403 . S
C1036 C1035 1.403 . S
C1036 C1037 1.404 . S
C1036 C1039 1.539 . S
C1037 C1033 1.408 . S
C1037 C1036 1.404 . S
C1037 H1049 0.930 . S
C1038 C1034 1.524 . S
C1038 H1050 0.956 . S
C1038 H1051 0.961 . S
C1038 H1052 0.961 . S
C1039 C1036 1.539 . S
C1039 H1053 0.958 . S
C1039 H1054 0.961 . S
C1039 H1055 0.960 . S
H1040 C1024 0.931 . S
H1041 C1029 0.929 1_554 S
H1042 C1030 0.960 . S
H1043 C1030 0.962 . S
H1044 C1030 0.960 . S
H1045 C1031 0.961 . S
H1046 C1031 0.961 . S
H1047 C1031 0.961 . S
H1048 C1032 0.931 . S
H1049 C1037 0.930 . S
H1050 C1038 0.956 . S
H1051 C1038 0.961 . S
H1052 C1038 0.961 . S
H1053 C1039 0.958 . S
H1054 C1039 0.961 . S
H1055 C1039 0.960 . S
C1056 C1057 1.391 . S
C1056 C1058 1.394 . S
C1056 H1072 0.931 . S
C1057 C1056 1.391 . S
C1057 C1061 1.376 . S
C1058 C1056 1.394 . S
C1058 C1059 1.369 . S
C1058 C1062 1.531 . S
C1059 C1058 1.369 . S
C1059 C1060 1.410 . S
C1059 C1067 1.503 . S
C1060 C1059 1.410 . S
C1060 C1061 1.392 . S
C1060 C1063 1.511 . S
C1061 C1057 1.376 . S
C1061 C1060 1.392 . S
C1061 H1073 0.929 . S
C1062 C1058 1.531 . S
C1062 H1074 0.960 . S
C1062 H1075 0.962 . S
C1062 H1076 0.960 . S
C1063 C1060 1.511 . S
C1063 H1077 0.961 . S
C1063 H1078 0.961 . S
C1063 H1079 0.961 . S
C1064 C1065 1.370 . S
C1064 C1066 1.363 . S
C1064 H1080 0.931 . S
C1065 C1064 1.370 . S
C1065 C1069 1.408 . S
C1066 C1064 1.363 . S
C1066 C1067 1.370 . S
C1066 C1070 1.524 . S
C1067 C1059 1.503 . S
C1067 C1066 1.370 . S
C1067 C1068 1.403 . S
C1068 C1067 1.403 . S
C1068 C1069 1.404 . S
C1068 C1071 1.539 . S
C1069 C1065 1.408 . S
C1069 C1068 1.404 . S
C1069 H1081 0.930 . S
C1070 C1066 1.524 . S
C1070 H1082 0.956 . S
C1070 H1083 0.961 . S
C1070 H1084 0.961 . S
C1071 C1068 1.539 . S
C1071 H1085 0.958 . S
C1071 H1086 0.961 . S
C1071 H1087 0.960 . S
H1072 C1056 0.931 . S
H1073 C1061 0.929 . S
H1074 C1062 0.960 . S
H1075 C1062 0.962 . S
H1076 C1062 0.960 . S
H1077 C1063 0.961 . S
H1078 C1063 0.961 . S
H1079 C1063 0.961 . S
H1080 C1064 0.931 . S
H1081 C1069 0.930 . S
H1082 C1070 0.956 . S
H1083 C1070 0.961 . S
H1084 C1070 0.961 . S
H1085 C1071 0.958 . S
H1086 C1071 0.961 . S
H1087 C1071 0.960 . S
C1088 C1089 1.391 . S
C1088 C1090 1.394 . S
C1088 H1104 0.931 . S
C1089 C1088 1.391 . S
C1089 C1093 1.376 . S
C1090 C1088 1.394 . S
C1090 C1091 1.369 . S
C1090 C1094 1.531 . S
C1091 C1090 1.369 . S
C1091 C1092 1.410 . S
C1091 C1099 1.503 . S
C1092 C1091 1.410 . S
C1092 C1093 1.392 . S
C1092 C1095 1.511 . S
C1093 C1089 1.376 . S
C1093 C1092 1.392 . S
C1093 H1105 0.929 . S
C1094 C1090 1.531 . S
C1094 H1106 0.960 . S
C1094 H1107 0.962 . S
C1094 H1108 0.960 . S
C1095 C1092 1.511 . S
C1095 H1109 0.961 . S
C1095 H1110 0.961 . S
C1095 H1111 0.961 . S
C1096 C1097 1.370 . S
C1096 C1098 1.363 . S
C1096 H1112 0.931 . S
C1097 C1096 1.370 . S
C1097 C1101 1.408 . S
C1098 C1096 1.363 . S
C1098 C1099 1.370 . S
C1098 C1102 1.524 . S
C1099 C1091 1.503 . S
C1099 C1098 1.370 . S
C1099 C1100 1.403 . S
C1100 C1099 1.403 . S
C1100 C1101 1.404 . S
C1100 C1103 1.539 . S
C1101 C1097 1.408 . S
C1101 C1100 1.404 . S
C1101 H1113 0.930 . S
C1102 C1098 1.524 . S
C1102 H1114 0.956 . S
C1102 H1115 0.961 . S
C1102 H1116 0.961 . S
C1103 C1100 1.539 . S
C1103 H1117 0.958 . S
C1103 H1118 0.961 . S
C1103 H1119 0.960 . S
H1104 C1088 0.931 . S
H1105 C1093 0.929 . S
H1106 C1094 0.960 . S
H1107 C1094 0.962 . S
H1108 C1094 0.960 . S
H1109 C1095 0.961 . S
H1110 C1095 0.961 . S
H1111 C1095 0.961 . S
H1112 C1096 0.931 . S
H1113 C1101 0.930 . S
H1114 C1102 0.956 . S
H1115 C1102 0.961 . S
H1116 C1102 0.961 . S
H1117 C1103 0.958 . S
H1118 C1103 0.961 . S
H1119 C1103 0.960 . S
C1120 C1121 1.391 . S
C1120 C1122 1.394 . S
C1120 H1136 0.931 . S
C1121 C1120 1.391 . S
C1121 C1125 1.376 . S
C1122 C1120 1.394 . S
C1122 C1123 1.369 . S
C1122 C1126 1.531 . S
C1123 C1122 1.369 . S
C1123 C1124 1.410 . S
C1123 C1131 1.503 . S
C1124 C1123 1.410 . S
C1124 C1125 1.392 . S
C1124 C1127 1.511 . S
C1125 C1121 1.376 . S
C1125 C1124 1.392 . S
C1125 H1137 0.929 . S
C1126 C1122 1.531 . S
C1126 H1138 0.960 . S
C1126 H1139 0.962 . S
C1126 H1140 0.960 . S
C1127 C1124 1.511 . S
C1127 H1141 0.961 . S
C1127 H1142 0.961 . S
C1127 H1143 0.961 . S
C1128 C1129 1.370 . S
C1128 C1130 1.363 . S
C1128 H1144 0.931 . S
C1129 C1128 1.370 . S
C1129 C1133 1.408 . S
C1130 C1128 1.363 . S
C1130 C1131 1.370 . S
C1130 C1134 1.524 . S
C1131 C1123 1.503 . S
C1131 C1130 1.370 . S
C1131 C1132 1.403 . S
C1132 C1131 1.403 . S
C1132 C1133 1.404 . S
C1132 C1135 1.539 . S
C1133 C1129 1.408 . S
C1133 C1132 1.404 . S
C1133 H1145 0.930 . S
C1134 C1130 1.524 . S
C1134 H1146 0.956 . S
C1134 H1147 0.961 . S
C1134 H1148 0.961 . S
C1135 C1132 1.539 . S
C1135 H1149 0.958 . S
C1135 H1150 0.961 . S
C1135 H1151 0.960 . S
H1136 C1120 0.931 . S
H1137 C1125 0.929 . S
H1138 C1126 0.960 . S
H1139 C1126 0.962 . S
H1140 C1126 0.960 . S
H1141 C1127 0.961 . S
H1142 C1127 0.961 . S
H1143 C1127 0.961 . S
H1144 C1128 0.931 . S
H1145 C1133 0.930 . S
H1146 C1134 0.956 . S
H1147 C1134 0.961 . S
H1148 C1134 0.961 . S
H1149 C1135 0.958 . S
H1150 C1135 0.961 . S
H1151 C1135 0.960 . S
C1152 C1153 1.391 . S
C1152 C1154 1.394 . S
C1152 H1168 0.931 . S
C1153 C1152 1.391 . S
C1153 C1157 1.376 . S
C1154 C1152 1.394 . S
C1154 C1155 1.369 . S
C1154 C1158 1.531 . S
C1155 C1154 1.369 . S
C1155 C1156 1.410 . S
C1155 C1163 1.503 . S
C1156 C1155 1.410 . S
C1156 C1157 1.392 . S
C1156 C1159 1.511 . S
C1157 C1153 1.376 . S
C1157 C1156 1.392 . S
C1157 H1169 0.929 . S
C1158 C1154 1.531 . S
C1158 H1170 0.960 . S
C1158 H1171 0.962 . S
C1158 H1172 0.960 . S
C1159 C1156 1.511 . S
C1159 H1173 0.961 . S
C1159 H1174 0.961 . S
C1159 H1175 0.961 . S
C1160 C1161 1.370 . S
C1160 C1162 1.363 . S
C1160 H1176 0.931 . S
C1161 C1160 1.370 . S
C1161 C1165 1.408 . S
C1162 C1160 1.363 . S
C1162 C1163 1.370 . S
C1162 C1166 1.524 . S
C1163 C1155 1.503 . S
C1163 C1162 1.370 . S
C1163 C1164 1.403 . S
C1164 C1163 1.403 . S
C1164 C1165 1.404 . S
C1164 C1167 1.539 . S
C1165 C1161 1.408 . S
C1165 C1164 1.404 . S
C1165 H1177 0.930 . S
C1166 C1162 1.524 . S
C1166 H1178 0.956 . S
C1166 H1179 0.961 . S
C1166 H1180 0.961 . S
C1167 C1164 1.539 . S
C1167 H1181 0.958 . S
C1167 H1182 0.961 . S
C1167 H1183 0.960 . S
H1168 C1152 0.931 . S
H1169 C1157 0.929 . S
H1170 C1158 0.960 . S
H1171 C1158 0.962 . S
H1172 C1158 0.960 . S
H1173 C1159 0.961 . S
H1174 C1159 0.961 . S
H1175 C1159 0.961 . S
H1176 C1160 0.931 . S
H1177 C1165 0.930 . S
H1178 C1166 0.956 . S
H1179 C1166 0.961 . S
H1180 C1166 0.961 . S
H1181 C1167 0.958 . S
H1182 C1167 0.961 . S
H1183 C1167 0.960 . S
C1184 C1185 1.391 . S
C1184 C1186 1.394 . S
C1184 H1200 0.931 . S
C1185 C1184 1.391 . S
C1185 C1189 1.376 . S
C1186 C1184 1.394 . S
C1186 C1187 1.369 . S
C1186 C1190 1.531 . S
C1187 C1186 1.369 . S
C1187 C1188 1.410 . S
C1187 C1195 1.503 . S
C1188 C1187 1.410 . S
C1188 C1189 1.392 . S
C1188 C1191 1.511 . S
C1189 C1185 1.376 . S
C1189 C1188 1.392 . S
C1189 H1201 0.929 . S
C1190 C1186 1.531 . S
C1190 H1202 0.960 . S
C1190 H1203 0.962 . S
C1190 H1204 0.960 . S
C1191 C1188 1.511 . S
C1191 H1205 0.961 . S
C1191 H1206 0.961 . S
C1191 H1207 0.961 . S
C1192 C1193 1.370 . S
C1192 C1194 1.363 . S
C1192 H1208 0.931 . S
C1193 C1192 1.370 . S
C1193 C1197 1.408 . S
C1194 C1192 1.363 . S
C1194 C1195 1.370 . S
C1194 C1198 1.524 . S
C1195 C1187 1.503 . S
C1195 C1194 1.370 . S
C1195 C1196 1.403 . S
C1196 C1195 1.403 . S
C1196 C1197 1.404 . S
C1196 C1199 1.539 . S
C1197 C1193 1.408 . S
C1197 C1196 1.404 . S
C1197 H1209 0.930 . S
C1198 C1194 1.524 . S
C1198 H1210 0.956 . S
C1198 H1211 0.961 . S
C1198 H1212 0.961 . S
C1199 C1196 1.539 . S
C1199 H1213 0.958 . S
C1199 H1214 0.961 . S
C1199 H1215 0.960 . S
H1200 C1184 0.931 . S
H1201 C1189 0.929 . S
H1202 C1190 0.960 . S
H1203 C1190 0.962 . S
H1204 C1190 0.960 . S
H1205 C1191 0.961 . S
H1206 C1191 0.961 . S
H1207 C1191 0.961 . S
H1208 C1192 0.931 . S
H1209 C1197 0.930 . S
H1210 C1198 0.956 . S
H1211 C1198 0.961 . S
H1212 C1198 0.961 . S
H1213 C1199 0.958 . S
H1214 C1199 0.961 . S
H1215 C1199 0.960 . S
C1216 C1217 1.391 . S
C1216 C1218 1.394 . S
C1216 H1232 0.931 . S
C1217 C1216 1.391 . S
C1217 C1221 1.376 . S
C1218 C1216 1.394 . S
C1218 C1219 1.369 . S
C1218 C1222 1.531 . S
C1219 C1218 1.369 . S
C1219 C1220 1.410 . S
C1219 C1227 1.503 . S
C1220 C1219 1.410 . S
C1220 C1221 1.392 . S
C1220 C1223 1.511 . S
C1221 C1217 1.376 . S
C1221 C1220 1.392 . S
C1221 H1233 0.929 . S
C1222 C1218 1.531 . S
C1222 H1234 0.960 . S
C1222 H1235 0.962 . S
C1222 H1236 0.960 . S
C1223 C1220 1.511 . S
C1223 H1237 0.961 . S
C1223 H1238 0.961 . S
C1223 H1239 0.961 . S
C1224 C1225 1.370 . S
C1224 C1226 1.363 . S
C1224 H1240 0.931 . S
C1225 C1224 1.370 . S
C1225 C1229 1.408 . S
C1226 C1224 1.363 . S
C1226 C1227 1.370 . S
C1226 C1230 1.524 . S
C1227 C1219 1.503 . S
C1227 C1226 1.370 . S
C1227 C1228 1.403 . S
C1228 C1227 1.403 . S
C1228 C1229 1.404 . S
C1228 C1231 1.539 . S
C1229 C1225 1.408 . S
C1229 C1228 1.404 . S
C1229 H1241 0.930 . S
C1230 C1226 1.524 . S
C1230 H1242 0.956 . S
C1230 H1243 0.961 . S
C1230 H1244 0.961 . S
C1231 C1228 1.539 . S
C1231 H1245 0.958 . S
C1231 H1246 0.961 . S
C1231 H1247 0.960 . S
H1232 C1216 0.931 . S
H1233 C1221 0.929 . S
H1234 C1222 0.960 . S
H1235 C1222 0.962 . S
H1236 C1222 0.960 . S
H1237 C1223 0.961 . S
H1238 C1223 0.961 . S
H1239 C1223 0.961 . S
H1240 C1224 0.931 . S
H1241 C1229 0.930 . S
H1242 C1230 0.956 . S
H1243 C1230 0.961 . S
H1244 C1230 0.961 . S
H1245 C1231 0.958 . S
H1246 C1231 0.961 . S
H1247 C1231 0.960 . S
C225 C13 0.831 . S
C233 C68 0.840 . S
C257 C27 0.818 . S
C265 C71 0.843 . S
C289 C96 0.852 . S
C297 C28 0.833 . S
C321 C55 0.821 . S
C329 C110 0.841 . S
C353 C69 0.822 . S
C361 C12 0.841 . S
C385 C140 0.849 . S
C393 C124 0.829 . S
C417 C97 0.836 . S
C425 C29 0.840 . S
C449 C138 0.835 . S
C457 C166 0.843 . S
C481 C180 0.822 . S
C489 C208 0.847 . S
C513 C125 0.818 . S
C521 C141 0.844 . S
C545 C182 0.826 . S
C553 C222 0.841 . S
C577 C167 0.818 . S
C585 C139 0.844 . S
C609 C209 0.853 . S
C617 C181 0.832 . S
C641 C26 0.836 . S
C649 C70 0.832 . S
C673 C183 0.853 . S
C681 C223 0.838 . S
C705 C111 0.845 . S
C713 C54 0.840 . S
C737 C0 1.578 . S
C745 C99 1.563 . S
C769 C57 1.574 . S
C777 C14 1.570 . S
C801 C82 1.579 . S
C809 C41 1.571 . S
C833 C42 1.566 . S
C841 C85 1.573 . S
C865 C1 1.557 . S
C873 C155 1.583 . S
C897 C113 1.557 . S
C905 C56 1.577 . S
C929 C153 1.570 . S
C937 C40 1.570 . S
C961 C127 1.567 . S
C969 C84 1.575 . S
C993 C169 1.574 . S
C1001 C154 1.571 . S
C1025 C197 1.571 . S
C1033 C112 1.572 . S
C1057 C152 1.562 . S
C1065 C195 1.577 . S
C1089 C211 1.557 . S
C1097 C126 1.579 . S
C1121 C98 1.578 . S
C1129 C168 1.569 . S
C1153 C196 1.579 . S
C1161 C15 1.567 . S
C1185 C83 1.560 . S
C1193 C194 1.575 . S
C1217 C210 1.569 . S
C1225 C43 1.571 . S
