# Generated by pormake.
# Topology unn, (4)-cn, num edge types: 1
# Building blocks:
#     Node 0, Type 0, BuildingBlock: NAWXER_clean_sbu_0, # of connection points: 4
#     Node 1, Type 0, BuildingBlock: NAWXER_clean_sbu_0, # of connection points: 4
#     Node 2, Type 0, BuildingBlock: NAWXER_clean_sbu_0, # of connection points: 4
#     Node 3, Type 0, BuildingBlock: NAWXER_clean_sbu_0, # of connection points: 4
#     Node 4, Type 0, BuildingBlock: NAWXER_clean_sbu_0, # of connection points: 4
#     Node 5, Type 0, BuildingBlock: NAWXER_clean_sbu_0, # of connection points: 4
#     Node 6, Type 0, BuildingBlock: NAWXER_clean_sbu_0, # of connection points: 4
#     Node 7, Type 0, BuildingBlock: NAWXER_clean_sbu_0, # of connection points: 4
#     Node 8, Type 0, BuildingBlock: NAWXER_clean_sbu_0, # of connection points: 4
#     Node 9, Type 0, BuildingBlock: NAWXER_clean_sbu_0, # of connection points: 4
#     Node 10, Type 0, BuildingBlock: NAWXER_clean_sbu_0, # of connection points: 4
#     Node 11, Type 0, BuildingBlock: NAWXER_clean_sbu_0, # of connection points: 4
#     Node 12, Type 0, BuildingBlock: NAWXER_clean_sbu_0, # of connection points: 4
#     Node 13, Type 0, BuildingBlock: NAWXER_clean_sbu_0, # of connection points: 4
#     Node 14, Type 0, BuildingBlock: NAWXER_clean_sbu_0, # of connection points: 4
#     Node 15, Type 0, BuildingBlock: NAWXER_clean_sbu_0, # of connection points: 4
#     Node 16, Type 0, BuildingBlock: NAWXER_clean_sbu_0, # of connection points: 4
#     Node 17, Type 0, BuildingBlock: NAWXER_clean_sbu_0, # of connection points: 4
#     Edge 18, Type (0, 0), BuildingBlock: CIFDUS_clean_linker_0, # of connection points: 2
#     Edge 19, Type (0, 0), BuildingBlock: CIFDUS_clean_linker_0, # of connection points: 2
#     Edge 20, Type (0, 0), BuildingBlock: CIFDUS_clean_linker_0, # of connection points: 2
#     Edge 21, Type (0, 0), BuildingBlock: CIFDUS_clean_linker_0, # of connection points: 2
#     Edge 22, Type (0, 0), BuildingBlock: CIFDUS_clean_linker_0, # of connection points: 2
#     Edge 23, Type (0, 0), BuildingBlock: CIFDUS_clean_linker_0, # of connection points: 2
#     Edge 24, Type (0, 0), BuildingBlock: CIFDUS_clean_linker_0, # of connection points: 2
#     Edge 25, Type (0, 0), BuildingBlock: CIFDUS_clean_linker_0, # of connection points: 2
#     Edge 26, Type (0, 0), BuildingBlock: CIFDUS_clean_linker_0, # of connection points: 2
#     Edge 27, Type (0, 0), BuildingBlock: CIFDUS_clean_linker_0, # of connection points: 2
#     Edge 28, Type (0, 0), BuildingBlock: CIFDUS_clean_linker_0, # of connection points: 2
#     Edge 29, Type (0, 0), BuildingBlock: CIFDUS_clean_linker_0, # of connection points: 2
#     Edge 30, Type (0, 0), BuildingBlock: CIFDUS_clean_linker_0, # of connection points: 2
#     Edge 31, Type (0, 0), BuildingBlock: CIFDUS_clean_linker_0, # of connection points: 2
#     Edge 32, Type (0, 0), BuildingBlock: CIFDUS_clean_linker_0, # of connection points: 2
#     Edge 33, Type (0, 0), BuildingBlock: CIFDUS_clean_linker_0, # of connection points: 2
#     Edge 34, Type (0, 0), BuildingBlock: CIFDUS_clean_linker_0, # of connection points: 2
#     Edge 35, Type (0, 0), BuildingBlock: CIFDUS_clean_linker_0, # of connection points: 2
#     Edge 36, Type (0, 0), BuildingBlock: CIFDUS_clean_linker_0, # of connection points: 2
#     Edge 37, Type (0, 0), BuildingBlock: CIFDUS_clean_linker_0, # of connection points: 2
#     Edge 38, Type (0, 0), BuildingBlock: CIFDUS_clean_linker_0, # of connection points: 2
#     Edge 39, Type (0, 0), BuildingBlock: CIFDUS_clean_linker_0, # of connection points: 2
#     Edge 40, Type (0, 0), BuildingBlock: CIFDUS_clean_linker_0, # of connection points: 2
#     Edge 41, Type (0, 0), BuildingBlock: CIFDUS_clean_linker_0, # of connection points: 2
#     Edge 42, Type (0, 0), BuildingBlock: CIFDUS_clean_linker_0, # of connection points: 2
#     Edge 43, Type (0, 0), BuildingBlock: CIFDUS_clean_linker_0, # of connection points: 2
#     Edge 44, Type (0, 0), BuildingBlock: CIFDUS_clean_linker_0, # of connection points: 2
#     Edge 45, Type (0, 0), BuildingBlock: CIFDUS_clean_linker_0, # of connection points: 2
#     Edge 46, Type (0, 0), BuildingBlock: CIFDUS_clean_linker_0, # of connection points: 2
#     Edge 47, Type (0, 0), BuildingBlock: CIFDUS_clean_linker_0, # of connection points: 2
#     Edge 48, Type (0, 0), BuildingBlock: CIFDUS_clean_linker_0, # of connection points: 2
#     Edge 49, Type (0, 0), BuildingBlock: CIFDUS_clean_linker_0, # of connection points: 2
#     Edge 50, Type (0, 0), BuildingBlock: CIFDUS_clean_linker_0, # of connection points: 2
#     Edge 51, Type (0, 0), BuildingBlock: CIFDUS_clean_linker_0, # of connection points: 2
#     Edge 52, Type (0, 0), BuildingBlock: CIFDUS_clean_linker_0, # of connection points: 2
#     Edge 53, Type (0, 0), BuildingBlock: CIFDUS_clean_linker_0, # of connection points: 2
# Relax obj value: 0.039
# Max RMSD: 0.205
# Mean RMSD: 0.205
data_MOF--net-unn--node1-NAWXER_clean_sbu_0--edge1-CIFDUS_clean_linker_0
_symmetry_space_group_name_H-M    P1
_symmetry_Int_Tables_number       1
_symmetry_cell_setting            triclinic
loop_
_symmetry_equiv_pos_as_xyz
'x, y, z'
_cell_length_a     39.036687
_cell_length_b     39.052557
_cell_length_c     37.172521
_cell_angle_alpha  89.997447
_cell_angle_beta   90.023759
_cell_angle_gamma 120.20208
loop_
_atom_site_label
_atom_site_type_symbol
_atom_site_fract_x
_atom_site_fract_y
_atom_site_fract_z
_atom_type_partial_charge
C0 C 0.96374 0.75224 0.21758 0.0
C1 C 0.10477 0.82202 0.25641 0.0
O2 O 0.9843 0.78929 0.22411 0.0
Zn3 Zn 0.03417 0.79077 0.23733 0.0
O4 O 0.97933 0.73052 0.22203 0.0
Zn5 Zn 0.03394 0.73508 0.23643 0.0
O6 O 1.02085 0.70386 0.27988 0.0
O7 O 1.02109 0.76018 0.28712 0.0
O8 O 0.08886 0.78475 0.25108 0.0
O9 O 0.08437 0.83883 0.25114 0.0
O10 O 0.04741 0.77468 0.1869 0.0
O11 O 0.04737 0.71822 0.19247 0.0
C12 C 1.01757 0.72826 0.30025 0.0
C13 C 0.05106 0.74671 0.173 0.0
C14 C 0.32162 0.23058 0.21924 0.0
C15 C 0.25069 0.29504 0.26831 0.0
O16 O 0.28624 0.21351 0.23116 0.0
Zn17 Zn 0.28469 0.26119 0.24371 0.0
O18 O 0.34288 0.2684 0.22106 0.0
Zn19 Zn 0.3368 0.31754 0.23834 0.0
O20 O 0.37454 0.33958 0.27702 0.0
O21 O 0.32115 0.28262 0.29071 0.0
O22 O 0.28703 0.31944 0.26063 0.0
O23 O 0.23631 0.25842 0.26124 0.0
O24 O 0.29339 0.28768 0.1917 0.0
O25 O 0.34716 0.34689 0.19428 0.0
C26 C 0.35423 0.31279 0.29995 0.0
C27 C 0.31847 0.32008 0.17632 0.0
C28 C 0.7485 0.97822 0.25504 0.0
C29 C 0.82127 0.11673 0.20986 0.0
O30 O 0.78587 0.99845 0.24995 0.0
Zn31 Zn 0.78825 0.04748 0.23276 0.0
O32 O 0.72714 0.99362 0.24766 0.0
Zn33 Zn 0.73289 0.04776 0.22912 0.0
O34 O 0.70301 0.03113 0.18462 0.0
O35 O 0.75956 0.03091 0.1823 0.0
O36 O 0.78379 0.1018 0.21332 0.0
O37 O 0.83705 0.09619 0.21864 0.0
O38 O 0.77011 0.06337 0.28038 0.0
O39 O 0.71417 0.06332 0.27092 0.0
C40 C 0.72805 0.026 0.16702 0.0
C41 C 0.7417 0.06767 0.29213 0.0
C42 C 1.01103 0.28873 0.79747 0.0
C43 C 0.04945 0.30718 0.67127 0.0
O44 O 1.01763 0.26205 0.78499 0.0
Zn45 Zn 0.03447 0.24684 0.73601 0.0
O46 O 1.01245 0.3152 0.77653 0.0
Zn47 Zn 1.02927 0.29932 0.7339 0.0
O48 O 0.97771 0.24667 0.71705 0.0
O49 O 0.98755 0.19608 0.72228 0.0
O50 O 0.04261 0.33015 0.69037 0.0
O51 O 0.04783 0.27647 0.68537 0.0
O52 O 0.08582 0.25317 0.75162 0.0
O53 O 0.08551 0.30946 0.75067 0.0
C54 C 0.96519 0.20968 0.71307 0.0
C55 C 0.10365 0.29048 0.75705 0.0
C56 C 0.73532 0.69838 0.7946 0.0
C57 C 0.73153 0.73935 0.672 0.0
O58 O 0.76679 0.72993 0.78471 0.0
Zn59 Zn 0.79033 0.76705 0.73902 0.0
O60 O 0.70715 0.67932 0.77238 0.0
Zn61 Zn 0.73114 0.71649 0.73314 0.0
O62 O 0.77729 0.70599 0.71676 0.0
O63 O 0.83507 0.76057 0.72441 0.0
O64 O 0.70329 0.71015 0.68832 0.0
O65 O 0.76404 0.76187 0.68841 0.0
O66 O 0.79561 0.81642 0.7585 0.0
O67 O 0.73359 0.76767 0.75601 0.0
C68 C 0.8151 0.72459 0.7141 0.0
C69 C 0.75897 0.8033 0.76485 0.0
C70 C 0.33164 0.11812 0.71643 0.0
C71 C 0.28078 0.98361 0.76693 0.0
O72 O 0.35691 0.10638 0.71752 0.0
Zn73 Zn 0.36063 0.05598 0.7342 0.0
O74 O 0.29704 0.09592 0.72928 0.0
Zn75 Zn 0.30357 0.05081 0.74208 0.0
O76 O 0.34245 0.07237 0.78672 0.0
O77 O 0.39964 0.07717 0.77249 0.0
O78 O 0.26096 1.00112 0.7626 0.0
O79 O 0.31705 1.00091 0.75685 0.0
O80 O 0.37244 0.03989 0.68905 0.0
O81 O 0.31339 0.03486 0.68998 0.0
C82 C 0.3775 0.08068 0.79553 0.0
C83 C 0.3406 0.0324 0.673 0.0
C84 C 0.63226 0.04591 0.53994 0.0
C85 C 0.76442 0.11489 0.59737 0.0
O86 O 0.65097 0.0818 0.55055 0.0
Zn87 Zn 0.69838 0.0824 0.5681 0.0
O88 O 0.64777 0.02406 0.54451 0.0
Zn89 Zn 0.70155 0.0293 0.56529 0.0
O90 O 0.68207 0.99174 0.60446 0.0
O91 O 0.6781 0.04548 0.61446 0.0
O92 O 0.75215 0.07848 0.58995 0.0
O93 O 0.74338 0.12994 0.58816 0.0
O94 O 0.72038 0.07379 0.51897 0.0
O95 O 0.72352 1.019 0.52276 0.0
C96 C 0.67366 1.01234 0.62526 0.0
C97 C 0.72819 0.0487 0.50469 0.0
C98 C 1.02455 0.65234 0.63304 0.0
C99 C 1.00265 0.66903 0.50679 0.0
O100 O 0.04848 0.68075 0.61289 0.0
Zn101 Zn 1.01634 0.66304 0.56974 0.0
O102 O 0.99253 0.62389 0.61991 0.0
Zn103 Zn 0.96071 0.60687 0.57081 0.0
O104 O 0.9623 0.55908 0.55606 0.0
O105 O 1.02094 0.61349 0.55382 0.0
O106 O 0.97529 0.63702 0.52091 0.0
O107 O 1.03164 0.69397 0.52585 0.0
O108 O 0.96674 0.66701 0.58653 0.0
O109 O 0.9128 0.60799 0.58645 0.0
C110 C 0.99926 0.57613 0.54895 0.0
C111 C 0.92962 0.64515 0.59255 0.0
C112 C 0.47059 0.4469 0.54023 0.0
C113 C 0.4196 0.31573 0.59725 0.0
O114 O 0.49032 0.43011 0.54835 0.0
Zn115 Zn 0.44691 0.38122 0.56841 0.0
O116 O 0.43357 0.42949 0.54777 0.0
Zn117 Zn 0.38933 0.37475 0.5711 0.0
O118 O 0.37332 0.39205 0.61299 0.0
O119 O 0.43286 0.3988 0.61815 0.0
O120 O 0.39342 0.32599 0.59295 0.0
O121 O 0.45462 0.3383 0.58553 0.0
O122 O 0.41108 0.3562 0.5219 0.0
O123 O 0.35256 0.35034 0.53174 0.0
C124 C 0.40393 0.40104 0.63181 0.0
C125 C 0.3761 0.34609 0.51107 0.0
C126 C 0.66945 0.66744 0.12862 0.0
C127 C 0.7202 0.69144 0.00711 0.0
O128 O 0.67896 0.64213 0.11806 0.0
Zn129 Zn 0.70135 0.62937 0.07101 0.0
O130 O 0.67196 0.69391 0.10712 0.0
Zn131 Zn 0.69457 0.6802 0.06763 0.0
O132 O 0.64517 0.62672 0.04731 0.0
O133 O 0.65764 0.57815 0.05537 0.0
O134 O 0.71104 0.71301 0.02565 0.0
O135 O 0.71819 0.66041 0.02091 0.0
O136 O 0.75082 0.63555 0.09035 0.0
O137 O 0.75009 0.69163 0.08982 0.0
C138 C 0.63472 0.5901 0.04382 0.0
C139 C 0.76774 0.67241 0.09754 0.0
C140 C 0.41951 0.04338 0.12708 0.0
C141 C 0.39611 0.07597 0.00727 0.0
O142 O 0.44784 0.0767 0.11591 0.0
Zn143 Zn 0.46324 0.11191 0.06817 0.0
O144 O 0.39093 1.02156 0.1062 0.0
Zn145 Zn 0.40757 0.05826 0.06671 0.0
O146 O 0.45542 0.05381 0.04357 0.0
O147 O 0.50998 0.11159 0.0501 0.0
O148 O 0.37266 0.0464 0.02641 0.0
O149 O 0.42998 0.10191 0.01975 0.0
O150 O 0.46633 0.15987 0.08767 0.0
O151 O 0.40642 0.10746 0.09113 0.0
C152 C 0.49279 0.07604 0.03865 0.0
C153 C 0.43039 0.14414 0.09787 0.0
C154 C 1.03119 0.44892 0.04466 0.0
C155 C 0.95457 0.31155 0.09203 0.0
O156 O 0.05089 0.43097 0.04776 0.0
Zn157 Zn 0.04197 0.37472 0.06375 0.0
O158 O 0.99486 0.43131 0.05408 0.0
Zn159 Zn 0.98968 0.38042 0.06837 0.0
O160 O 1.02472 0.39384 0.11542 0.0
O161 O 0.07725 0.38789 0.1048 0.0
O162 O 0.94051 0.3344 0.08671 0.0
O163 O 0.99073 0.32362 0.08386 0.0
O164 O 0.05109 0.35497 0.01903 0.0
O165 O 0.99765 0.3609 0.01767 0.0
C166 C 0.05632 0.39497 0.12649 0.0
C167 C 1.0217 0.3526 0.00195 0.0
C168 C 0.30013 0.38753 0.87809 0.0
C169 C 0.43375 0.47543 0.92916 0.0
O170 O 0.31553 0.42452 0.88417 0.0
Zn171 Zn 0.36663 0.43419 0.90322 0.0
O172 O 0.3196 0.37022 0.88606 0.0
Zn173 Zn 0.376 0.3842 0.90695 0.0
O174 O 0.3616 0.35327 0.9509 0.0
O175 O 0.35213 0.40453 0.9535 0.0
O176 O 0.42424 0.43907 0.92568 0.0
O177 O 0.40978 0.48641 0.91826 0.0
O178 O 0.3897 0.42246 0.8566 0.0
O179 O 0.39881 0.37175 0.86586 0.0
C180 C 0.35179 0.37492 0.96863 0.0
C181 C 0.40022 0.3983 0.84501 0.0
C182 C 0.65613 0.99473 0.83756 0.0
C183 C 0.67251 0.96873 0.96189 0.0
O184 O 0.68382 1.01727 0.85891 0.0
Zn185 Zn 0.66573 0.9819 0.89931 0.0
O186 O 0.62772 0.96142 0.84866 0.0
Zn187 Zn 0.61061 0.92774 0.89736 0.0
O188 O 0.56201 0.92733 0.9113 0.0
O189 O 0.61577 0.98585 0.91748 0.0
O190 O 0.64013 0.94129 0.94823 0.0
O191 O 0.69734 0.99692 0.94216 0.0
O192 O 0.66996 0.93265 0.87934 0.0
O193 O 0.61029 0.87989 0.88176 0.0
C194 C 0.57827 0.96339 0.92127 0.0
C195 C 0.64683 0.89557 0.87367 0.0
C196 C 0.17237 0.78553 0.88529 0.0
C197 C 0.10731 0.64519 0.92589 0.0
O198 O 0.19065 0.76688 0.89221 0.0
Zn199 Zn 0.14375 0.71548 0.90531 0.0
O200 O 0.13475 0.76792 0.8892 0.0
Zn201 Zn 0.08635 0.71186 0.90329 0.0
O202 O 0.06611 0.72373 0.94609 0.0
O203 O 0.12409 0.72759 0.95428 0.0
O204 O 0.08439 0.65902 0.91955 0.0
O205 O 0.1445 0.66715 0.92061 0.0
O206 O 0.11503 0.69992 0.85459 0.0
O207 O 0.05667 0.6961 0.85884 0.0
C208 C 0.09436 0.72912 0.96685 0.0
C209 C 0.08277 0.69394 0.84003 0.0
C210 C 0.35487 1.00127 0.46367 0.0
C211 C 0.39968 0.02982 0.33943 0.0
O212 O 0.35722 0.97325 0.44817 0.0
Zn213 Zn 0.37189 0.95988 0.39717 0.0
O214 O 0.36116 0.03173 0.44584 0.0
Zn215 Zn 0.37571 1.01704 0.40117 0.0
O216 O 0.32058 0.97127 0.38131 0.0
O217 O 0.3218 0.91549 0.3788 0.0
O218 O 0.39528 0.05296 0.36058 0.0
O219 O 0.39229 0.99573 0.35047 0.0
O220 O 0.4184 0.9558 0.41161 0.0
O221 O 0.42743 1.01602 0.41743 0.0
C222 C 0.30353 0.93442 0.37342 0.0
C223 C 0.44043 0.99194 0.42088 0.0
C224 C 0.07744 0.4615 0.42602 0.0
C225 C 0.15511 0.40269 0.37906 0.0
O226 O 0.05727 0.42413 0.42036 0.0
Zn227 Zn 0.06613 0.3773 0.40249 0.0
O228 O 0.11435 0.48034 0.4187 0.0
Zn229 Zn 0.11891 0.43486 0.40277 0.0
O230 O 0.08743 0.41759 0.35309 0.0
O231 O 1.03345 0.3589 0.35992 0.0
O232 O 0.16906 0.43888 0.38784 0.0
O233 O 0.1182 0.37808 0.38394 0.0
O234 O 0.05219 0.34472 0.44532 0.0
O235 O 0.10574 0.40358 0.45204 0.0
C236 C 0.05602 0.3882 0.34 0.0
C237 C 0.07974 0.37026 0.46523 0.0
C238 C 0.66684 0.78038 0.37305 0.0
C239 C 0.59411 0.64299 0.42143 0.0
O240 O 0.68821 0.76527 0.38136 0.0
Zn241 Zn 0.68241 0.71207 0.4018 0.0
O242 O 0.62949 0.76028 0.37821 0.0
Zn243 Zn 0.62672 0.71166 0.39742 0.0
O244 O 0.65502 0.729 0.4482 0.0
O245 O 0.71153 0.7288 0.44622 0.0
O246 O 0.57765 0.66285 0.41231 0.0
O247 O 0.63163 0.6586 0.41802 0.0
O248 O 0.70098 0.69429 0.36181 0.0
O249 O 0.64441 0.69268 0.35123 0.0
C250 C 0.68637 0.73378 0.46377 0.0
C251 C 0.67269 0.68756 0.34056 0.0
H252 H 0.09312 0.72031 0.136 0.0
H253 H 1.02 0.7732 0.12272 0.0
H254 H 1.02654 0.7726 0.05744 0.0
H255 H 0.05253 0.75623 0.00387 0.0
H256 H 0.12951 0.70765 0.0177 0.0
H257 H 0.12229 0.70767 0.08272 0.0
C258 C 0.07869 0.73164 0.11869 0.0
C259 C 0.05608 0.74659 0.13388 0.0
C260 C 0.08339 0.73216 0.08126 0.0
C261 C 0.03779 0.7617 0.11142 0.0
C262 C 0.04141 0.7613 0.07414 0.0
C263 C 0.0678 0.74587 0.02121 0.0
C264 C 0.09145 0.73203 0.00608 0.0
C265 C 0.06411 0.74655 0.05873 0.0
C266 C 0.11137 0.71886 0.02876 0.0
C267 C 0.10711 0.7186 0.06596 0.0
H268 H 0.31599 0.30632 0.00742 0.0
H269 H 0.37323 0.43345 0.01712 0.0
H270 H 0.36667 0.42802 0.08232 0.0
H271 H 0.34755 0.38742 0.13694 0.0
H272 H 0.28647 0.26009 0.12769 0.0
H273 H 0.29108 0.26521 0.06222 0.0
C274 C 0.32676 0.33266 0.02393 0.0
C275 C 0.34518 0.37013 0.00768 0.0
C276 C 0.32212 0.32934 0.06149 0.0
C277 C 0.35871 0.40419 0.02914 0.0
C278 C 0.35512 0.40119 0.06642 0.0
C279 C 0.3349 0.36086 0.12051 0.0
C280 C 0.31691 0.32356 0.137 0.0
C281 C 0.33723 0.36396 0.08292 0.0
C282 C 0.30028 0.28924 0.11552 0.0
C283 C 0.30314 0.2921 0.07809 0.0
H284 H 0.66075 0.97646 0.13025 0.0
H285 H 0.78613 0.05719 0.11755 0.0
H286 H 0.78085 0.04489 0.05291 0.0
H287 H 0.74025 1.01303 -0.0003 0.0
H288 H 0.61538 0.92947 0.01235 0.0
H289 H 0.62092 0.94031 0.07718 0.0
C290 C 0.68673 0.99129 0.11316 0.0
C291 C 0.72359 1.01788 0.12828 0.0
C292 C 0.68371 0.98329 0.07611 0.0
C293 C 0.75738 0.03655 0.10625 0.0
C294 C 0.75444 0.02955 0.06936 0.0
C295 C 0.7144 0.99684 0.01672 0.0
C296 C 0.67755 0.97069 0.00126 0.0
C297 C 0.71774 1.00312 0.05397 0.0
C298 C 0.64425 0.94966 0.02363 0.0
C299 C 0.64726 0.95607 0.0607 0.0
H300 H 0.70624 0.08351 0.45447 0.0
H301 H 0.77052 1.02121 0.46853 0.0
H302 H 0.78294 0.02489 0.40363 0.0
H303 H 0.77263 0.04287 0.34337 0.0
H304 H 0.70308 0.09958 0.32842 0.0
H305 H 0.69561 0.10126 0.39384 0.0
C306 C 0.72343 0.07119 0.44337 0.0
C307 C 0.73787 0.05244 0.46613 0.0
C308 C 0.72928 0.07234 0.40615 0.0
C309 C 0.75928 0.03582 0.45144 0.0
C310 C 0.76633 0.03794 0.41445 0.0
C311 C 0.7563 0.05617 0.35439 0.0
C312 C 0.73878 0.07156 0.33124 0.0
C313 C 0.75111 0.05577 0.39162 0.0
C314 C 0.71692 0.08776 0.34581 0.0
C315 C 0.71265 0.08864 0.3831 0.0
H316 H 1.02934 0.73771 0.46939 0.0
H317 H 0.97346 0.611 0.45686 0.0
H318 H 0.97248 0.61758 0.39171 0.0
H319 H 0.98879 0.65952 0.33796 0.0
H320 H 0.0408 0.7859 0.35065 0.0
H321 H 0.04166 0.77929 0.41575 0.0
C322 C 1.01697 0.71168 0.45228 0.0
C323 C 1.00167 0.67407 0.4677 0.0
C324 C 1.01564 0.71555 0.41483 0.0
C325 C 0.98525 0.64035 0.44546 0.0
C326 C 0.98474 0.64403 0.40822 0.0
C327 C 1.00004 0.68549 0.35506 0.0
C328 C 1.0147 0.72302 0.33958 0.0
C329 C 0.99997 0.68149 0.39257 0.0
C330 C 1.029 0.75653 0.36198 0.0
C331 C 1.02976 0.75288 0.39922 0.0
H332 H 0.42603 0.36283 0.45525 0.0
H333 H 0.30178 0.30072 0.48282 0.0
H334 H 0.28449 0.28187 0.41969 0.0
H335 H 0.30479 0.28613 0.35667 0.0
H336 H 0.42872 0.35349 0.32856 0.0
H337 H 0.44631 0.36709 0.39233 0.0
C338 C 0.39515 0.34476 0.44752 0.0
C339 C 0.36515 0.33289 0.47358 0.0
C340 C 0.38553 0.33513 0.41124 0.0
C341 C 0.3253 0.31015 0.46315 0.0
C342 C 0.31547 0.29939 0.42715 0.0
C343 C 0.3357 0.30327 0.36457 0.0
C344 C 0.36555 0.31849 0.33816 0.0
C345 C 0.34535 0.31208 0.40097 0.0
C346 C 0.40537 0.34142 0.34856 0.0
C347 C 0.41535 0.34921 0.38491 0.0
H348 H 0.99298 0.3377 0.83478 0.0
H349 H 1.02459 0.24726 0.8488 0.0
H350 H 1.03157 0.25938 0.91326 0.0
H351 H 1.03267 0.29849 0.96565 0.0
H352 H 0.99751 0.38616 0.95226 0.0
H353 H 0.98833 0.3726 0.88779 0.0
C354 C 1.00083 0.32028 0.852 0.0
C355 C 1.00849 0.2919 0.83687 0.0
C356 C 1.00477 0.32728 0.88922 0.0
C357 C 1.01844 0.26936 0.85964 0.0
C358 C 1.02277 0.27641 0.89658 0.0
C359 C 1.02305 0.31452 0.94848 0.0
C360 C 1.01617 0.34346 0.96334 0.0
C361 C 1.01681 0.30586 0.91159 0.0
C362 C 1.00301 0.3637 0.94118 0.0
C363 C 0.99773 0.35599 0.90437 0.0
H364 H 0.69708 0.63715 0.95441 0.0
H365 H 0.76156 0.7631 0.97419 0.0
H366 H 0.77371 0.77567 0.90959 0.0
H367 H 0.7641 0.75088 0.84815 0.0
H368 H 0.69414 0.62544 0.82705 0.0
H369 H 0.68568 0.61225 0.89207 0.0
C370 C 0.71417 0.6673 0.94448 0.0
C371 C 0.72898 0.69928 0.9687 0.0
C372 C 0.71975 0.67419 0.90741 0.0
C373 C 0.75016 0.73822 0.95581 0.0
C374 C 0.75704 0.74532 0.91903 0.0
C375 C 0.74739 0.72056 0.85778 0.0
C376 C 0.73027 0.68901 0.83314 0.0
C377 C 0.74175 0.71354 0.8947 0.0
C378 C 0.70772 0.65003 0.84575 0.0
C379 C 0.70296 0.64259 0.88276 0.0
H380 H 0.44766 0.10878 0.95231 0.0
H381 H 0.32294 0.04831 0.9779 0.0
H382 H 0.30694 0.04857 0.91429 0.0
H383 H 0.32811 0.06169 0.85182 0.0
H384 H 0.45222 0.1161 0.82491 0.0
H385 H 0.46904 0.12286 0.88911 0.0
C386 C 0.41702 0.09619 0.94395 0.0
C387 C 0.38642 0.07873 0.96957 0.0
C388 C 0.40809 0.09523 0.90732 0.0
C389 C 0.34685 0.06184 0.95852 0.0
C390 C 0.33776 0.062 0.92226 0.0
C391 C 0.35896 0.07563 0.85989 0.0
C392 C 0.38899 0.08866 0.83371 0.0
C393 C 0.36811 0.07803 0.89647 0.0
C394 C 0.42868 0.10595 0.84463 0.0
C395 C 0.43823 0.10972 0.88124 0.0
H396 H 0.36782 0.99378 0.63177 0.0
H397 H 0.30473 0.05796 0.62693 0.0
H398 H 0.30256 0.05364 0.5614 0.0
H399 H 0.32166 0.03441 0.50507 0.0
H400 H 0.38043 0.96597 0.51035 0.0
H401 H 0.38094 0.96882 0.57581 0.0
C402 C 0.35337 1.00647 0.61625 0.0
C403 C 0.33667 0.02624 0.6339 0.0
C404 C 0.35148 1.00317 0.57864 0.0
C405 C 0.31761 0.04233 0.61376 0.0
C406 C 0.31651 0.04007 0.57631 0.0
C407 C 0.33419 1.01987 0.52068 0.0
C408 C 0.35105 1.00019 0.50306 0.0
C409 C 0.33376 1.02096 0.55841 0.0
C410 C 0.36697 0.98111 0.52342 0.0
C411 C 0.36752 0.98289 0.56085 0.0
H412 H 0.08258 0.37653 0.63439 0.0
H413 H 1.02852 0.25012 0.62073 0.0
H414 H 1.03321 0.25796 0.55549 0.0
H415 H 0.0505 0.30075 0.50201 0.0
H416 H 0.10846 0.42749 0.51607 0.0
H417 H 0.10464 0.41957 0.58117 0.0
C418 C 0.07206 0.35083 0.61704 0.0
C419 C 0.05514 0.31292 0.63217 0.0
C420 C 0.0755 0.35556 0.57958 0.0
C421 C 0.04193 0.27973 0.60958 0.0
C422 C 0.04441 0.28411 0.57228 0.0
C423 C 0.06246 0.32652 0.51942 0.0
C424 C 0.07959 0.36451 0.50436 0.0
C425 C 0.06082 0.32187 0.55694 0.0
C426 C 0.09534 0.39784 0.52709 0.0
C427 C 0.09302 0.3934 0.56434 0.0
H428 H 0.75273 0.76212 0.50476 0.0
H429 H 0.62658 0.71613 0.51079 0.0
H430 H 0.62913 0.71468 0.57618 0.0
H431 H 0.66645 0.72144 0.63167 0.0
H432 H 0.79305 0.77053 0.6256 0.0
H433 H 0.79107 0.77586 0.56048 0.0
C434 C 0.72597 0.75231 0.52047 0.0
C435 C 0.68961 0.73897 0.50305 0.0
C436 C 0.72759 0.75173 0.5581 0.0
C437 C 0.65509 0.72668 0.52363 0.0
C438 C 0.65639 0.72555 0.56104 0.0
C439 C 0.69351 0.73354 0.616 0.0
C440 C 0.72967 0.74522 0.63319 0.0
C441 C 0.69233 0.73716 0.57854 0.0
C442 C 0.76477 0.7614 0.61284 0.0
C443 C 0.76372 0.76436 0.5756 0.0
H444 H 0.37773 0.43023 0.79267 0.0
H445 H 0.44086 0.36731 0.8104 0.0
H446 H 0.45078 0.36622 0.74529 0.0
H447 H 0.43798 0.38 0.68363 0.0
H448 H 0.36917 0.43712 0.66665 0.0
H449 H 0.36519 0.44406 0.73175 0.0
C450 C 0.39417 0.4167 0.78244 0.0
C451 C 0.40889 0.39914 0.80629 0.0
C452 C 0.39858 0.41516 0.74527 0.0
C453 C 0.42937 0.38106 0.79253 0.0
C454 C 0.435 0.38046 0.75539 0.0
C455 C 0.42268 0.39456 0.69424 0.0
C456 C 0.40423 0.40851 0.67059 0.0
C457 C 0.4193 0.39703 0.73156 0.0
C458 C 0.38366 0.42638 0.68448 0.0
C459 C 0.38136 0.43025 0.72159 0.0
H460 H 0.68848 0.06227 0.68035 0.0
H461 H 0.63743 0.93815 0.65522 0.0
H462 H 0.62444 0.92168 0.71931 0.0
H463 H 0.6308 0.94326 0.7823 0.0
H464 H 0.68793 0.06795 0.80718 0.0
H465 H 0.69525 0.08378 0.74289 0.0
C466 C 0.67401 0.03153 0.68883 0.0
C467 C 0.66349 1.00133 0.66323 0.0
C468 C 0.66794 1.02258 0.7255 0.0
C469 C 0.64563 0.96177 0.67456 0.0
C470 C 0.63825 0.95243 0.71109 0.0
C471 C 0.64437 0.97386 0.77356 0.0
C472 C 0.6585 1.00449 0.79917 0.0
C473 C 0.64968 0.98267 0.73677 0.0
C474 C 0.67682 0.04403 0.78777 0.0
C475 C 0.68099 0.05301 0.75113 0.0
H476 H 1.01478 0.65077 0.80213 0.0
H477 H 0.14138 0.72471 0.79045 0.0
H478 H 0.13521 0.71822 0.72513 0.0
H479 H 0.09343 0.69296 0.67099 0.0
H480 H 0.96723 0.61553 0.68325 0.0
H481 H 0.97367 0.62164 0.74834 0.0
C482 C 0.0409 0.66531 0.78518 0.0
C483 C 0.07833 0.68824 0.80086 0.0
C484 C 0.03728 0.66077 0.7477 0.0
C485 C 0.11217 0.70667 0.77883 0.0
C486 C 0.10871 0.70311 0.7415 0.0
C487 C 0.06748 0.67726 0.688 0.0
C488 C 1.03003 0.65395 0.67235 0.0
C489 C 0.07138 0.6804 0.72559 0.0
C490 C 0.99656 0.63348 0.69465 0.0
C491 C 1.0001 0.6371 0.73192 0.0
H492 H 0.63446 0.69899 0.28592 0.0
H493 H 0.7128 0.65404 0.31012 0.0
H494 H 0.71525 0.64025 0.24613 0.0
H495 H 0.69793 0.64454 0.1836 0.0
H496 H 0.62455 0.69517 0.15929 0.0
H497 H 0.61687 0.7029 0.22368 0.0
C498 C 0.65174 0.68573 0.2773 0.0
C499 C 0.67328 0.67728 0.3026 0.0
C500 C 0.65381 0.679 0.24068 0.0
C501 C 0.69605 0.66078 0.29103 0.0
C502 C 0.69738 0.65289 0.25456 0.0
C503 C 0.6797 0.65667 0.19244 0.0
C504 C 0.66144 0.66896 0.16697 0.0
C505 C 0.67672 0.66231 0.22919 0.0
C506 C 0.6387 0.68545 0.17857 0.0
C507 C 0.63442 0.68991 0.21525 0.0
H508 H 0.44673 0.09557 0.18165 0.0
H509 H 0.38562 0.97033 0.15844 0.0
H510 H 0.37666 0.95557 0.22296 0.0
H511 H 0.38292 0.97835 0.28508 0.0
H512 H 0.43848 0.10339 0.30821 0.0
H513 H 0.45294 0.11842 0.24408 0.0
C514 C 0.43207 0.06505 0.19078 0.0
C515 C 0.41727 0.03397 0.16557 0.0
C516 C 0.42575 0.05692 0.22763 0.0
C517 C 0.3974 0.99459 0.17752 0.0
C518 C 0.39222 0.98623 0.21429 0.0
C519 C 0.39861 1.00896 0.27619 0.0
C520 C 0.40992 0.03982 0.30127 0.0
C521 C 0.40578 1.01717 0.23946 0.0
C522 C 0.42951 0.07923 0.28932 0.0
C523 C 0.4378 0.08776 0.25276 0.0
H524 H 0.1117 0.4192 0.28834 0.0
H525 H 0.98509 0.35396 0.30463 0.0
H526 H 0.97461 0.35211 0.23947 0.0
H527 H 1.00155 0.36828 0.17851 0.0
H528 H 0.12796 0.4284 0.16148 0.0
H529 H 0.13872 0.43308 0.22686 0.0
C530 C 0.08181 0.40489 0.27758 0.0
C531 C 0.04909 0.38721 0.30105 0.0
C532 C 0.07616 0.40301 0.24026 0.0
C533 C 1.01057 0.36787 0.28694 0.0
C534 C 1.00465 0.36686 0.24982 0.0
C535 C 1.03152 0.38279 0.18911 0.0
C536 C 0.06405 0.39864 0.16544 0.0
C537 C 0.03724 0.38429 0.22633 0.0
C538 C 0.10261 0.41628 0.17935 0.0
C539 C 0.10867 0.41893 0.21659 0.0
H540 H 0.27174 0.87327 0.3252 0.0
H541 H 0.24759 0.95586 0.38054 0.0
H542 H 0.18567 0.93129 0.34721 0.0
H543 H 0.13753 0.88565 0.30234 0.0
H544 H 0.1624 0.80369 0.24668 0.0
H545 H 0.22473 0.82911 0.27927 0.0
C546 C 0.25263 0.88547 0.33028 0.0
C547 C 0.2641 0.91601 0.35565 0.0
C548 C 0.21735 0.8718 0.31036 0.0
C549 C 0.23938 0.93212 0.36132 0.0
C550 C 0.20401 0.91826 0.34209 0.0
C551 C 0.15702 0.874 0.29685 0.0
C552 C 0.14535 0.84299 0.27191 0.0
C553 C 0.19274 0.88827 0.31631 0.0
C554 C 0.17067 0.82767 0.26565 0.0
C555 C 0.20627 0.84198 0.28448 0.0
H556 H 0.27645 0.36918 0.295 0.0
H557 H 0.17192 0.25335 0.28604 0.0
H558 H 0.13405 0.27633 0.32051 0.0
H559 H 0.13051 0.32889 0.3531 0.0
H560 H 0.23456 0.44499 0.36222 0.0
H561 H 0.27286 0.42205 0.32802 0.0
C562 C 0.2453 0.34895 0.30035 0.0
C563 C 0.22705 0.30952 0.28767 0.0
C564 C 0.22373 0.3623 0.32049 0.0
C565 C 0.18675 0.28379 0.29525 0.0
C566 C 0.16509 0.29691 0.31509 0.0
C567 C 0.16165 0.34928 0.34789 0.0
C568 C 0.17961 0.38871 0.36045 0.0
C569 C 0.1833 0.33601 0.32792 0.0
C570 C 0.21997 0.41452 0.35311 0.0
C571 C 0.24184 0.40143 0.3334 0.0
H572 H 0.78062 0.94661 0.30059 0.0
H573 H 0.67125 0.92087 0.24896 0.0
H574 H 0.63553 0.85881 0.28221 0.0
H575 H 0.63478 0.81164 0.32688 0.0
H576 H 0.7442 0.83752 0.37853 0.0
H577 H 0.77992 0.89938 0.34507 0.0
C578 C 0.74912 0.9271 0.29622 0.0
C579 C 0.72881 0.93836 0.27209 0.0
C580 C 0.72841 0.89156 0.31602 0.0
C581 C 0.68775 0.91296 0.26729 0.0
C582 C 0.66715 0.87747 0.28646 0.0
C583 C 0.6663 0.8311 0.33115 0.0
C584 C 0.68661 0.81994 0.3554 0.0
C585 C 0.68702 0.86659 0.31126 0.0
C586 C 0.72769 0.84531 0.3601 0.0
C587 C 0.74829 0.88071 0.34082 0.0
H588 H 0.88835 0.1454 0.169 0.0
H589 H 0.80442 0.17631 0.21076 0.0
H590 H 0.83642 0.23828 0.17687 0.0
H591 H 0.88796 0.28376 0.13428 0.0
H592 H 0.97079 0.25163 0.09167 0.0
H593 H 0.93936 0.19042 0.12625 0.0
C594 C 0.8775 0.16601 0.17111 0.0
C595 C 0.84429 0.15634 0.19269 0.0
C596 C 0.89548 0.2013 0.15078 0.0
C597 C 0.83009 0.18307 0.19449 0.0
C598 C 0.84824 0.21849 0.17493 0.0
C599 C 0.89876 0.26311 0.13221 0.0
C600 C 0.93165 0.27242 0.11021 0.0
C601 C 0.88071 0.22779 0.1526 0.0
C602 C 0.94552 0.2454 0.10832 0.0
C603 C 0.92768 0.21033 0.12826 0.0
H604 H 0.79927 0.64041 0.14268 0.0
H605 H 0.82161 0.75151 0.09762 0.0
H606 H 0.88252 0.78697 0.1329 0.0
H607 H 0.93066 0.78637 0.17602 0.0
H608 H 0.90685 0.67492 0.22161 0.0
H609 H 0.8454 0.6401 0.1875 0.0
C610 C 0.81768 0.67232 0.14032 0.0
C611 C 0.80611 0.69313 0.11716 0.0
C612 C 0.8523 0.6927 0.16132 0.0
C613 C 0.82993 0.73465 0.11505 0.0
C614 C 0.86473 0.75504 0.13538 0.0
C615 C 0.91159 0.75461 0.179 0.0
C616 C 0.92344 0.7334 0.20145 0.0
C617 C 0.87625 0.73443 0.15874 0.0
C618 C 0.89857 0.69208 0.20454 0.0
C619 C 0.86344 0.672 0.18485 0.0
H620 H 0.39369 0.26009 0.18699 0.0
H621 H 0.28501 0.15042 0.20761 0.0
H622 H 0.30913 0.1145 0.17157 0.0
H623 H 0.36009 0.11445 0.13303 0.0
H624 H 0.46888 0.22395 0.11238 0.0
H625 H 0.44542 0.25979 0.14953 0.0
C626 C 0.37531 0.22825 0.18392 0.0
C627 C 0.33749 0.20802 0.20013 0.0
C628 C 0.3892 0.20784 0.16285 0.0
C629 C 0.3142 0.16678 0.19562 0.0
C630 C 0.32793 0.14624 0.17485 0.0
C631 C 0.37871 0.14622 0.13643 0.0
C632 C 0.41616 0.16651 0.11958 0.0
C633 C 0.36518 0.16653 0.15806 0.0
C634 C 0.43992 0.20759 0.12481 0.0
C635 C 0.42653 0.22807 0.14613 0.0
H636 H 0.81148 0.08861 0.62623 0.0
H637 H 0.80094 0.19314 0.6166 0.0
H638 H 0.86065 0.23048 0.65295 0.0
H639 H 0.91592 0.23383 0.68679 0.0
H640 H 0.92782 0.1301 0.69626 0.0
H641 H 0.86704 0.09191 0.66096 0.0
C642 C 0.82228 0.11962 0.63191 0.0
C643 C 0.80166 0.13803 0.61841 0.0
C644 C 0.85666 0.14095 0.65305 0.0
C645 C 0.81611 0.17818 0.6264 0.0
C646 C 0.85025 0.19955 0.64731 0.0
C647 C 0.90523 0.20276 0.68147 0.0
C648 C 0.92657 0.1849 0.6944 0.0
C649 C 0.8707 0.18124 0.66077 0.0
C650 C 0.91205 0.14463 0.6869 0.0
C651 C 0.87737 0.12284 0.66654 0.0
H652 H 0.86378 0.61118 0.6361 0.0
H653 H 0.95058 0.7225 0.58909 0.0
H654 H 0.92526 0.75741 0.62447 0.0
H655 H 0.87945 0.75712 0.66998 0.0
H656 H 0.79099 0.64611 0.71582 0.0
H657 H 0.81621 0.61067 0.68048 0.0
C658 C 0.8766 0.64294 0.63314 0.0
C659 C 0.90898 0.66406 0.60985 0.0
C660 C 0.86215 0.66318 0.65405 0.0
C661 C 0.92562 0.70539 0.60679 0.0
C662 C 0.91134 0.72554 0.62721 0.0
C663 C 0.86618 0.72527 0.67263 0.0
C664 C 0.83387 0.70439 0.69592 0.0
C665 C 0.88005 0.7049 0.65137 0.0
C666 C 0.81621 0.66294 0.69833 0.0
C667 C 0.83043 0.64259 0.67792 0.0
H668 H 0.40113 0.16726 0.68258 0.0
H669 H 0.28657 0.1534 0.70639 0.0
H670 H 0.30365 0.21286 0.67113 0.0
H671 H 0.35061 0.26794 0.63277 0.0
H672 H 0.46502 0.28138 0.609 0.0
H673 H 0.4482 0.2225 0.6449 0.0
C674 C 0.37985 0.17726 0.68036 0.0
C675 C 0.34254 0.15576 0.69732 0.0
C676 C 0.38972 0.21118 0.65976 0.0
C677 C 0.31548 0.16931 0.69383 0.0
C678 C 0.32521 0.20325 0.67353 0.0
C679 C 0.37189 0.25796 0.63523 0.0
C680 C 0.40905 0.27908 0.61791 0.0
C681 C 0.36212 0.22423 0.65616 0.0
C682 C 0.43623 0.26574 0.62181 0.0
C683 C 0.42664 0.2321 0.64244 0.0
H684 H 0.21856 0.95003 0.81406 0.0
H685 H 0.30685 0.93084 0.76335 0.0
H686 H 0.28402 0.86988 0.79768 0.0
H687 H 0.23794 0.8208 0.8417 0.0
H688 H 0.14987 0.84041 0.89229 0.0
H689 H 0.17403 0.90227 0.85925 0.0
C690 C 0.2325 0.93228 0.81026 0.0
C691 C 0.2641 0.94489 0.78585 0.0
C692 C 0.21966 0.89743 0.83062 0.0
C693 C 0.2823 0.92181 0.78181 0.0
C694 C 0.2694 0.88695 0.80159 0.0
C695 C 0.22464 0.83906 0.84601 0.0
C696 C 0.1923 0.82603 0.86963 0.0
C697 C 0.23819 0.87447 0.82624 0.0
C698 C 0.1749 0.84975 0.87435 0.0
C699 C 0.18851 0.88507 0.85526 0.0
H700 H 0.14018 0.26258 0.80174 0.0
H701 H 0.15605 0.3691 0.75135 0.0
H702 H 0.21665 0.4089 0.78561 0.0
H703 H 0.26465 0.4142 0.8314 0.0
H704 H 0.24974 0.30792 0.8814 0.0
H705 H 0.18949 0.26775 0.84649 0.0
C706 C 0.15733 0.29438 0.7978 0.0
C707 C 0.14356 0.31269 0.77385 0.0
C708 C 0.1921 0.31743 0.81816 0.0
C709 C 0.1659 0.35413 0.76955 0.0
C710 C 0.20052 0.37705 0.78933 0.0
C711 C 0.24791 0.38231 0.83497 0.0
C712 C 0.2615 0.36423 0.85931 0.0
C713 C 0.21362 0.35917 0.81417 0.0
C714 C 0.23985 0.32271 0.86301 0.0
C715 C 0.20545 0.29961 0.84289 0.0
H716 H 0.68491 0.77754 0.79048 0.0
H717 H 0.801 0.88206 0.78456 0.0
H718 H 0.77673 0.91934 0.81868 0.0
H719 H 0.7223 0.92214 0.84977 0.0
H720 H 0.60664 0.81689 0.85566 0.0
H721 H 0.63129 0.77991 0.82214 0.0
C722 C 0.70505 0.80856 0.7964 0.0
C723 C 0.74479 0.82701 0.78461 0.0
C724 C 0.691 0.82959 0.81627 0.0
C725 C 0.7703 0.86712 0.79306 0.0
C726 C 0.75642 0.88841 0.81266 0.0
C727 C 0.70246 0.89103 0.84396 0.0
C728 C 0.66253 0.87237 0.85538 0.0
C729 C 0.71681 0.86992 0.82442 0.0
C730 C 0.63742 0.83206 0.84739 0.0
C731 C 0.65149 0.8109 0.82809 0.0
H732 H 0.5378 0.47975 0.4996 0.0
H733 H 0.44355 0.49901 0.53465 0.0
H734 H 0.47118 0.55986 0.49911 0.0
H735 H 0.52341 0.60888 0.45862 0.0
H736 H 0.61645 0.58776 0.42315 0.0
H737 H 0.58778 0.52658 0.45755 0.0
C738 C 0.52348 0.49741 0.4997 0.0
C739 C 0.48891 0.48498 0.52012 0.0
C740 C 0.5391 0.53204 0.47865 0.0
C741 C 0.47035 0.50795 0.51935 0.0
C742 C 0.48606 0.54274 0.49889 0.0
C743 C 0.53694 0.5905 0.45797 0.0
C744 C 0.5721 0.6031 0.4383 0.0
C745 C 0.52045 0.55515 0.47832 0.0
C746 C 0.58947 0.57902 0.43812 0.0
C747 C 0.5732 0.54398 0.45795 0.0
H748 H 0.60357 0.0865 0.50313 0.0
H749 H 0.5762 0.96815 0.53075 0.0
H750 H 0.51578 0.94036 0.49456 0.0
H751 H 0.46981 0.94969 0.4553 0.0
H752 H 0.49888 0.06854 0.42706 0.0
H753 H 0.55934 0.09575 0.46252 0.0
C754 C 0.58418 0.05465 0.50152 0.0
C755 C 0.59424 0.02954 0.51998 0.0
C756 C 0.54983 0.03879 0.48005 0.0
C757 C 0.5691 0.98825 0.51699 0.0
C758 C 0.53456 0.97227 0.49615 0.0
C759 C 0.48971 0.98147 0.45647 0.0
C760 C 0.47963 1.0069 0.43848 0.0
C761 C 0.52461 0.99723 0.47739 0.0
C762 C 0.50568 0.04813 0.44066 0.0
C763 C 0.54031 0.06386 0.46111 0.0
H764 H 0.1103 0.52446 0.47199 0.0
H765 H 0.99948 0.43966 0.42298 0.0
H766 H 0.96445 0.46498 0.45869 0.0
H767 H 0.96516 0.51156 0.5042 0.0
H768 H 0.07616 0.59554 0.55361 0.0
H769 H 0.11081 0.56979 0.51825 0.0
C770 C 0.0786 0.51199 0.46874 0.0
C771 C 0.05767 0.48061 0.44449 0.0
C772 C 0.0584 0.52603 0.49008 0.0
C773 C 1.01639 0.4641 0.44125 0.0
C774 C 0.99624 0.47837 0.46186 0.0
C775 C 0.99676 0.52362 0.5077 0.0
C776 C 1.01791 0.55525 0.53172 0.0
C777 C 1.01684 0.50912 0.48666 0.0
C778 C 0.05907 0.57107 0.5354 0.0
C779 C 0.07905 0.55657 0.51498 0.0
H780 H 0.48521 0.45714 0.96098 0.0
H781 H 0.46637 0.55541 0.94133 0.0
H782 H 0.52632 0.59908 0.97569 0.0
H783 H 0.58368 0.60911 0.01162 0.0
H784 H 0.60191 0.51044 0.03133 0.0
H785 H 0.54222 0.46706 -0.00323 0.0
C786 C 0.4942 0.48817 0.96395 0.0
C787 C 0.47121 0.50293 0.94833 0.0
C788 C 0.52843 0.51295 0.98401 0.0
C789 C 0.48343 0.54321 0.95284 0.0
C790 C 0.51768 0.56816 0.97261 0.0
C791 C 0.57457 0.57806 0.00857 0.0
C792 C 0.59736 0.5631 0.02429 0.0
C793 C 0.5403 0.5533 -0.01155 0.0
C794 C 0.58503 0.52281 0.01974 0.0
C795 C 0.55091 0.49799 -0.00013 0.0
H796 H 0.6076 0.036 0.95195 0.0
H797 H 0.49808 0.92624 0.9343 0.0
H798 H 0.46232 0.95136 0.96944 0.0
H799 H 0.46246 1.00399 0.00603 0.0
H800 H 0.57234 0.11336 0.02392 0.0
H801 H 0.6077 0.08858 -0.01203 0.0
C802 C 0.57583 1.01753 0.95547 0.0
C803 C 0.55558 0.97921 0.94027 0.0
C804 C 0.55559 0.03197 0.97605 0.0
C805 C 0.51444 0.95582 0.94549 0.0
C806 C 0.49401 0.97014 0.96572 0.0
C807 C 0.49419 1.02244 0.00224 0.0
C808 C 0.5147 0.06054 0.01791 0.0
C809 C 0.51434 1.00806 0.98135 0.0
C810 C 0.55578 0.08395 0.01239 0.0
C811 C 0.57602 0.06982 -0.00828 0.0
H812 H 0.14221 0.61479 0.97006 0.0
H813 H 1.03098 0.58616 0.92042 0.0
H814 H 0.99699 0.5248 0.95462 0.0
H815 H 0.99795 0.47936 -0.00013 0.0
H816 H 0.10896 0.50595 0.04827 0.0
H817 H 0.1435 0.56778 0.01412 0.0
C818 C 0.11071 0.59474 0.96626 0.0
C819 C 0.08933 0.60519 0.94257 0.0
C820 C 0.09097 0.55934 -0.01351 0.0
C821 C 0.04831 0.579 0.93844 0.0
C822 C 1.02867 0.5439 0.95819 0.0
C823 C 1.02957 0.49903 0.00333 0.0
C824 C 0.0507 0.48838 0.02703 0.0
C825 C 0.0495 0.534 0.98274 0.0
C826 C 0.09192 0.51368 0.03046 0.0
C827 C 0.11177 0.54894 0.01073 0.0
loop_
_geom_bond_atom_site_label_1
_geom_bond_atom_site_label_2
_geom_bond_distance
_geom_bond_site_symmetry_2
_ccdc_geom_bond_type
C0 O2 1.247 . S
C0 O4 1.258 . S
C1 O8 1.247 . S
C1 O9 1.258 . S
O2 C0 1.247 . S
O2 Zn3 2.028 1_655 S
Zn3 O2 2.028 1_455 S
Zn3 O7 2.035 1_455 S
Zn3 O9 2.035 . S
Zn3 O10 2.028 . S
O4 C0 1.258 . S
O4 Zn5 2.035 1_655 S
Zn5 O4 2.035 1_455 S
Zn5 O6 2.028 1_455 S
Zn5 O8 2.028 . S
Zn5 O11 2.035 . S
O6 Zn5 2.028 1_655 S
O6 C12 1.247 . S
O7 Zn3 2.035 1_655 S
O7 C12 1.258 . S
O8 C1 1.247 . S
O8 Zn5 2.028 . S
O9 C1 1.258 . S
O9 Zn3 2.035 . S
O10 Zn3 2.028 . S
O10 C13 1.247 . S
O11 Zn5 2.035 . S
O11 C13 1.258 . S
C12 O6 1.247 . S
C12 O7 1.258 . S
C13 O10 1.247 . S
C13 O11 1.258 . S
C14 O16 1.247 . S
C14 O18 1.258 . S
C15 O22 1.247 . S
C15 O23 1.258 . S
O16 C14 1.247 . S
O16 Zn17 2.028 . S
Zn17 O16 2.028 . S
Zn17 O21 2.035 . S
Zn17 O23 2.035 . S
Zn17 O24 2.028 . S
O18 C14 1.258 . S
O18 Zn19 2.035 . S
Zn19 O18 2.035 . S
Zn19 O20 2.028 . S
Zn19 O22 2.028 . S
Zn19 O25 2.035 . S
O20 Zn19 2.028 . S
O20 C26 1.247 . S
O21 Zn17 2.035 . S
O21 C26 1.258 . S
O22 C15 1.247 . S
O22 Zn19 2.028 . S
O23 C15 1.258 . S
O23 Zn17 2.035 . S
O24 Zn17 2.028 . S
O24 C27 1.247 . S
O25 Zn19 2.035 . S
O25 C27 1.258 . S
C26 O20 1.247 . S
C26 O21 1.258 . S
C27 O24 1.247 . S
C27 O25 1.258 . S
C28 O30 1.247 . S
C28 O32 1.258 . S
C29 O36 1.247 . S
C29 O37 1.258 . S
O30 C28 1.247 . S
O30 Zn31 2.028 1_565 S
Zn31 O30 2.028 1_545 S
Zn31 O35 2.035 1_545 S
Zn31 O37 2.035 . S
Zn31 O38 2.028 . S
O32 C28 1.258 . S
O32 Zn33 2.035 1_565 S
Zn33 O32 2.035 1_545 S
Zn33 O34 2.028 1_545 S
Zn33 O36 2.028 . S
Zn33 O39 2.035 . S
O34 Zn33 2.028 1_565 S
O34 C40 1.247 . S
O35 Zn31 2.035 1_565 S
O35 C40 1.258 . S
O36 C29 1.247 . S
O36 Zn33 2.028 . S
O37 C29 1.258 . S
O37 Zn31 2.035 . S
O38 Zn31 2.028 . S
O38 C41 1.247 . S
O39 Zn33 2.035 . S
O39 C41 1.258 . S
C40 O34 1.247 . S
C40 O35 1.258 . S
C41 O38 1.247 . S
C41 O39 1.258 . S
C42 O44 1.247 . S
C42 O46 1.258 . S
C43 O50 1.247 . S
C43 O51 1.258 . S
O44 C42 1.247 . S
O44 Zn45 2.028 1_655 S
Zn45 O44 2.028 1_455 S
Zn45 O49 2.035 1_455 S
Zn45 O51 2.035 . S
Zn45 O52 2.028 . S
O46 C42 1.258 . S
O46 Zn47 2.035 1_655 S
Zn47 O46 2.035 1_455 S
Zn47 O48 2.028 1_455 S
Zn47 O50 2.028 . S
Zn47 O53 2.035 . S
O48 Zn47 2.028 1_655 S
O48 C54 1.247 . S
O49 Zn45 2.035 1_655 S
O49 C54 1.258 . S
O50 C43 1.247 . S
O50 Zn47 2.028 . S
O51 C43 1.258 . S
O51 Zn45 2.035 . S
O52 Zn45 2.028 . S
O52 C55 1.247 . S
O53 Zn47 2.035 . S
O53 C55 1.258 . S
C54 O48 1.247 . S
C54 O49 1.258 . S
C55 O52 1.247 . S
C55 O53 1.258 . S
C56 O58 1.247 . S
C56 O60 1.258 . S
C57 O64 1.247 . S
C57 O65 1.258 . S
O58 C56 1.247 . S
O58 Zn59 2.028 . S
Zn59 O58 2.028 . S
Zn59 O63 2.035 . S
Zn59 O65 2.035 . S
Zn59 O66 2.028 . S
O60 C56 1.258 . S
O60 Zn61 2.035 . S
Zn61 O60 2.035 . S
Zn61 O62 2.028 . S
Zn61 O64 2.028 . S
Zn61 O67 2.035 . S
O62 Zn61 2.028 . S
O62 C68 1.247 . S
O63 Zn59 2.035 . S
O63 C68 1.258 . S
O64 C57 1.247 . S
O64 Zn61 2.028 . S
O65 C57 1.258 . S
O65 Zn59 2.035 . S
O66 Zn59 2.028 . S
O66 C69 1.247 . S
O67 Zn61 2.035 . S
O67 C69 1.258 . S
C68 O62 1.247 . S
C68 O63 1.258 . S
C69 O66 1.247 . S
C69 O67 1.258 . S
C70 O72 1.247 . S
C70 O74 1.258 . S
C71 O78 1.247 . S
C71 O79 1.258 . S
O72 C70 1.247 . S
O72 Zn73 2.028 . S
Zn73 O72 2.028 . S
Zn73 O77 2.035 . S
Zn73 O79 2.035 1_545 S
Zn73 O80 2.028 1_545 S
O74 C70 1.258 . S
O74 Zn75 2.035 . S
Zn75 O74 2.035 . S
Zn75 O76 2.028 . S
Zn75 O78 2.028 1_545 S
Zn75 O81 2.035 1_545 S
O76 Zn75 2.028 . S
O76 C82 1.247 . S
O77 Zn73 2.035 . S
O77 C82 1.258 . S
O78 C71 1.247 . S
O78 Zn75 2.028 1_565 S
O79 C71 1.258 . S
O79 Zn73 2.035 1_565 S
O80 Zn73 2.028 1_565 S
O80 C83 1.247 . S
O81 Zn75 2.035 1_565 S
O81 C83 1.258 . S
C82 O76 1.247 . S
C82 O77 1.258 . S
C83 O80 1.247 . S
C83 O81 1.258 . S
C84 O86 1.247 . S
C84 O88 1.258 . S
C85 O92 1.247 . S
C85 O93 1.258 . S
O86 C84 1.247 . S
O86 Zn87 2.028 . S
Zn87 O86 2.028 . S
Zn87 O91 2.035 . S
Zn87 O93 2.035 . S
Zn87 O94 2.028 . S
O88 C84 1.258 . S
O88 Zn89 2.035 . S
Zn89 O88 2.035 . S
Zn89 O90 2.028 . S
Zn89 O92 2.028 . S
Zn89 O95 2.035 . S
O90 Zn89 2.028 . S
O90 C96 1.247 . S
O91 Zn87 2.035 . S
O91 C96 1.258 . S
O92 C85 1.247 . S
O92 Zn89 2.028 . S
O93 C85 1.258 . S
O93 Zn87 2.035 . S
O94 Zn87 2.028 . S
O94 C97 1.247 . S
O95 Zn89 2.035 . S
O95 C97 1.258 . S
C96 O90 1.247 . S
C96 O91 1.258 . S
C97 O94 1.247 . S
C97 O95 1.258 . S
C98 O100 1.247 . S
C98 O102 1.258 . S
C99 O106 1.247 . S
C99 O107 1.258 . S
O100 C98 1.247 . S
O100 Zn101 2.028 . S
Zn101 O100 2.028 . S
Zn101 O105 2.035 . S
Zn101 O107 2.035 . S
Zn101 O108 2.028 . S
O102 C98 1.258 . S
O102 Zn103 2.035 . S
Zn103 O102 2.035 . S
Zn103 O104 2.028 . S
Zn103 O106 2.028 . S
Zn103 O109 2.035 . S
O104 Zn103 2.028 . S
O104 C110 1.247 . S
O105 Zn101 2.035 . S
O105 C110 1.258 . S
O106 C99 1.247 . S
O106 Zn103 2.028 . S
O107 C99 1.258 . S
O107 Zn101 2.035 . S
O108 Zn101 2.028 . S
O108 C111 1.247 . S
O109 Zn103 2.035 . S
O109 C111 1.258 . S
C110 O104 1.247 . S
C110 O105 1.258 . S
C111 O108 1.247 . S
C111 O109 1.258 . S
C112 O114 1.247 . S
C112 O116 1.258 . S
C113 O120 1.247 . S
C113 O121 1.258 . S
O114 C112 1.247 . S
O114 Zn115 2.028 . S
Zn115 O114 2.028 . S
Zn115 O119 2.035 . S
Zn115 O121 2.035 . S
Zn115 O122 2.028 . S
O116 C112 1.258 . S
O116 Zn117 2.035 . S
Zn117 O116 2.035 . S
Zn117 O118 2.028 . S
Zn117 O120 2.028 . S
Zn117 O123 2.035 . S
O118 Zn117 2.028 . S
O118 C124 1.247 . S
O119 Zn115 2.035 . S
O119 C124 1.258 . S
O120 C113 1.247 . S
O120 Zn117 2.028 . S
O121 C113 1.258 . S
O121 Zn115 2.035 . S
O122 Zn115 2.028 . S
O122 C125 1.247 . S
O123 Zn117 2.035 . S
O123 C125 1.258 . S
C124 O118 1.247 . S
C124 O119 1.258 . S
C125 O122 1.247 . S
C125 O123 1.258 . S
C126 O128 1.247 . S
C126 O130 1.258 . S
C127 O134 1.247 . S
C127 O135 1.258 . S
O128 C126 1.247 . S
O128 Zn129 2.028 . S
Zn129 O128 2.028 . S
Zn129 O133 2.035 . S
Zn129 O135 2.035 . S
Zn129 O136 2.028 . S
O130 C126 1.258 . S
O130 Zn131 2.035 . S
Zn131 O130 2.035 . S
Zn131 O132 2.028 . S
Zn131 O134 2.028 . S
Zn131 O137 2.035 . S
O132 Zn131 2.028 . S
O132 C138 1.247 . S
O133 Zn129 2.035 . S
O133 C138 1.258 . S
O134 C127 1.247 . S
O134 Zn131 2.028 . S
O135 C127 1.258 . S
O135 Zn129 2.035 . S
O136 Zn129 2.028 . S
O136 C139 1.247 . S
O137 Zn131 2.035 . S
O137 C139 1.258 . S
C138 O132 1.247 . S
C138 O133 1.258 . S
C139 O136 1.247 . S
C139 O137 1.258 . S
C140 O142 1.247 . S
C140 O144 1.258 . S
C141 O148 1.247 . S
C141 O149 1.258 . S
O142 C140 1.247 . S
O142 Zn143 2.028 . S
Zn143 O142 2.028 . S
Zn143 O147 2.035 . S
Zn143 O149 2.035 . S
Zn143 O150 2.028 . S
O144 C140 1.258 . S
O144 Zn145 2.035 . S
Zn145 O144 2.035 . S
Zn145 O146 2.028 . S
Zn145 O148 2.028 . S
Zn145 O151 2.035 . S
O146 Zn145 2.028 . S
O146 C152 1.247 . S
O147 Zn143 2.035 . S
O147 C152 1.258 . S
O148 C141 1.247 . S
O148 Zn145 2.028 . S
O149 C141 1.258 . S
O149 Zn143 2.035 . S
O150 Zn143 2.028 . S
O150 C153 1.247 . S
O151 Zn145 2.035 . S
O151 C153 1.258 . S
C152 O146 1.247 . S
C152 O147 1.258 . S
C153 O150 1.247 . S
C153 O151 1.258 . S
C154 O156 1.247 . S
C154 O158 1.258 . S
C155 O162 1.247 . S
C155 O163 1.258 . S
O156 C154 1.247 . S
O156 Zn157 2.028 . S
Zn157 O156 2.028 . S
Zn157 O161 2.035 . S
Zn157 O163 2.035 . S
Zn157 O164 2.028 . S
O158 C154 1.258 . S
O158 Zn159 2.035 . S
Zn159 O158 2.035 . S
Zn159 O160 2.028 . S
Zn159 O162 2.028 . S
Zn159 O165 2.035 . S
O160 Zn159 2.028 . S
O160 C166 1.247 . S
O161 Zn157 2.035 . S
O161 C166 1.258 . S
O162 C155 1.247 . S
O162 Zn159 2.028 . S
O163 C155 1.258 . S
O163 Zn157 2.035 . S
O164 Zn157 2.028 . S
O164 C167 1.247 . S
O165 Zn159 2.035 . S
O165 C167 1.258 . S
C166 O160 1.247 . S
C166 O161 1.258 . S
C167 O164 1.247 . S
C167 O165 1.258 . S
C168 O170 1.247 . S
C168 O172 1.258 . S
C169 O176 1.247 . S
C169 O177 1.258 . S
O170 C168 1.247 . S
O170 Zn171 2.028 . S
Zn171 O170 2.028 . S
Zn171 O175 2.035 . S
Zn171 O177 2.035 . S
Zn171 O178 2.028 . S
O172 C168 1.258 . S
O172 Zn173 2.035 . S
Zn173 O172 2.035 . S
Zn173 O174 2.028 . S
Zn173 O176 2.028 . S
Zn173 O179 2.035 . S
O174 Zn173 2.028 . S
O174 C180 1.247 . S
O175 Zn171 2.035 . S
O175 C180 1.258 . S
O176 C169 1.247 . S
O176 Zn173 2.028 . S
O177 C169 1.258 . S
O177 Zn171 2.035 . S
O178 Zn171 2.028 . S
O178 C181 1.247 . S
O179 Zn173 2.035 . S
O179 C181 1.258 . S
C180 O174 1.247 . S
C180 O175 1.258 . S
C181 O178 1.247 . S
C181 O179 1.258 . S
C182 O184 1.247 . S
C182 O186 1.258 . S
C183 O190 1.247 . S
C183 O191 1.258 . S
O184 C182 1.247 . S
O184 Zn185 2.028 . S
Zn185 O184 2.028 . S
Zn185 O189 2.035 . S
Zn185 O191 2.035 . S
Zn185 O192 2.028 . S
O186 C182 1.258 . S
O186 Zn187 2.035 . S
Zn187 O186 2.035 . S
Zn187 O188 2.028 . S
Zn187 O190 2.028 . S
Zn187 O193 2.035 . S
O188 Zn187 2.028 . S
O188 C194 1.247 . S
O189 Zn185 2.035 . S
O189 C194 1.258 . S
O190 C183 1.247 . S
O190 Zn187 2.028 . S
O191 C183 1.258 . S
O191 Zn185 2.035 . S
O192 Zn185 2.028 . S
O192 C195 1.247 . S
O193 Zn187 2.035 . S
O193 C195 1.258 . S
C194 O188 1.247 . S
C194 O189 1.258 . S
C195 O192 1.247 . S
C195 O193 1.258 . S
C196 O198 1.247 . S
C196 O200 1.258 . S
C197 O204 1.247 . S
C197 O205 1.258 . S
O198 C196 1.247 . S
O198 Zn199 2.028 . S
Zn199 O198 2.028 . S
Zn199 O203 2.035 . S
Zn199 O205 2.035 . S
Zn199 O206 2.028 . S
O200 C196 1.258 . S
O200 Zn201 2.035 . S
Zn201 O200 2.035 . S
Zn201 O202 2.028 . S
Zn201 O204 2.028 . S
Zn201 O207 2.035 . S
O202 Zn201 2.028 . S
O202 C208 1.247 . S
O203 Zn199 2.035 . S
O203 C208 1.258 . S
O204 C197 1.247 . S
O204 Zn201 2.028 . S
O205 C197 1.258 . S
O205 Zn199 2.035 . S
O206 Zn199 2.028 . S
O206 C209 1.247 . S
O207 Zn201 2.035 . S
O207 C209 1.258 . S
C208 O202 1.247 . S
C208 O203 1.258 . S
C209 O206 1.247 . S
C209 O207 1.258 . S
C210 O212 1.247 . S
C210 O214 1.258 . S
C211 O218 1.247 . S
C211 O219 1.258 . S
O212 C210 1.247 . S
O212 Zn213 2.028 . S
Zn213 O212 2.028 . S
Zn213 O217 2.035 . S
Zn213 O219 2.035 . S
Zn213 O220 2.028 . S
O214 C210 1.258 . S
O214 Zn215 2.035 . S
Zn215 O214 2.035 . S
Zn215 O216 2.028 . S
Zn215 O218 2.028 . S
Zn215 O221 2.035 . S
O216 Zn215 2.028 . S
O216 C222 1.247 . S
O217 Zn213 2.035 . S
O217 C222 1.258 . S
O218 C211 1.247 . S
O218 Zn215 2.028 . S
O219 C211 1.258 . S
O219 Zn213 2.035 . S
O220 Zn213 2.028 . S
O220 C223 1.247 . S
O221 Zn215 2.035 . S
O221 C223 1.258 . S
C222 O216 1.247 . S
C222 O217 1.258 . S
C223 O220 1.247 . S
C223 O221 1.258 . S
C224 O226 1.247 . S
C224 O228 1.258 . S
C225 O232 1.247 . S
C225 O233 1.258 . S
O226 C224 1.247 . S
O226 Zn227 2.028 . S
Zn227 O226 2.028 . S
Zn227 O231 2.035 . S
Zn227 O233 2.035 . S
Zn227 O234 2.028 . S
O228 C224 1.258 . S
O228 Zn229 2.035 . S
Zn229 O228 2.035 . S
Zn229 O230 2.028 . S
Zn229 O232 2.028 . S
Zn229 O235 2.035 . S
O230 Zn229 2.028 . S
O230 C236 1.247 . S
O231 Zn227 2.035 . S
O231 C236 1.258 . S
O232 C225 1.247 . S
O232 Zn229 2.028 . S
O233 C225 1.258 . S
O233 Zn227 2.035 . S
O234 Zn227 2.028 . S
O234 C237 1.247 . S
O235 Zn229 2.035 . S
O235 C237 1.258 . S
C236 O230 1.247 . S
C236 O231 1.258 . S
C237 O234 1.247 . S
C237 O235 1.258 . S
C238 O240 1.247 . S
C238 O242 1.258 . S
C239 O246 1.247 . S
C239 O247 1.258 . S
O240 C238 1.247 . S
O240 Zn241 2.028 . S
Zn241 O240 2.028 . S
Zn241 O245 2.035 . S
Zn241 O247 2.035 . S
Zn241 O248 2.028 . S
O242 C238 1.258 . S
O242 Zn243 2.035 . S
Zn243 O242 2.035 . S
Zn243 O244 2.028 . S
Zn243 O246 2.028 . S
Zn243 O249 2.035 . S
O244 Zn243 2.028 . S
O244 C250 1.247 . S
O245 Zn241 2.035 . S
O245 C250 1.258 . S
O246 C239 1.247 . S
O246 Zn243 2.028 . S
O247 C239 1.258 . S
O247 Zn241 2.035 . S
O248 Zn241 2.028 . S
O248 C251 1.247 . S
O249 Zn243 2.035 . S
O249 C251 1.258 . S
C250 O244 1.247 . S
C250 O245 1.258 . S
C251 O248 1.247 . S
C251 O249 1.258 . S
H252 C258 0.930 . S
H253 C261 0.937 . S
H254 C262 0.930 . S
H255 C263 0.930 . S
H256 C266 0.930 . S
H257 C267 0.930 . S
C258 H252 0.930 . S
C258 C259 1.355 . S
C258 C260 1.415 . S
C259 C258 1.355 . S
C259 C261 1.419 . S
C260 C258 1.415 . S
C260 C265 1.425 . S
C260 C267 1.409 . S
C261 H253 0.937 . S
C261 C259 1.419 . S
C261 C262 1.362 . S
C262 H254 0.930 . S
C262 C261 1.362 . S
C262 C265 1.409 . S
C263 H255 0.930 . S
C263 C264 1.355 . S
C263 C265 1.415 . S
C264 C263 1.355 . S
C264 C266 1.419 . S
C265 C260 1.425 . S
C265 C262 1.409 . S
C265 C263 1.415 . S
C266 H256 0.930 . S
C266 C264 1.419 . S
C266 C267 1.362 . S
C267 H257 0.930 . S
C267 C260 1.409 . S
C267 C266 1.362 . S
H268 C274 0.930 . S
H269 C277 0.930 . S
H270 C278 0.930 . S
H271 C279 0.930 . S
H272 C282 0.930 . S
H273 C283 0.930 . S
C274 H268 0.930 . S
C274 C275 1.355 . S
C274 C276 1.415 . S
C275 C274 1.355 . S
C275 C277 1.419 . S
C276 C274 1.415 . S
C276 C281 1.425 . S
C276 C283 1.409 . S
C277 H269 0.930 . S
C277 C275 1.419 . S
C277 C278 1.362 . S
C278 H270 0.930 . S
C278 C277 1.362 . S
C278 C281 1.409 . S
C279 H271 0.930 . S
C279 C280 1.355 . S
C279 C281 1.415 . S
C280 C279 1.355 . S
C280 C282 1.419 . S
C281 C276 1.425 . S
C281 C278 1.409 . S
C281 C279 1.415 . S
C282 H272 0.930 . S
C282 C280 1.419 . S
C282 C283 1.362 . S
C283 H273 0.930 . S
C283 C276 1.409 . S
C283 C282 1.362 . S
H284 C290 0.930 . S
H285 C293 0.930 . S
H286 C294 0.930 . S
H287 C295 0.930 . S
H288 C298 0.930 . S
H289 C299 0.930 . S
C290 H284 0.930 . S
C290 C291 1.355 . S
C290 C292 1.415 . S
C291 C290 1.355 . S
C291 C293 1.419 . S
C292 C290 1.415 . S
C292 C297 1.425 . S
C292 C299 1.409 . S
C293 H285 0.930 . S
C293 C291 1.419 . S
C293 C294 1.362 . S
C294 H286 0.930 . S
C294 C293 1.362 . S
C294 C297 1.409 . S
C295 H287 0.930 . S
C295 C296 1.355 . S
C295 C297 1.415 . S
C296 C295 1.355 . S
C296 C298 1.419 . S
C297 C292 1.425 . S
C297 C294 1.409 . S
C297 C295 1.415 . S
C298 H288 0.930 . S
C298 C296 1.419 . S
C298 C299 1.362 . S
C299 H289 0.930 . S
C299 C292 1.409 . S
C299 C298 1.362 . S
H300 C306 0.930 . S
H301 C309 0.930 . S
H302 C310 0.930 . S
H303 C311 0.930 . S
H304 C314 0.930 . S
H305 C315 0.930 . S
C306 H300 0.930 . S
C306 C307 1.355 . S
C306 C308 1.415 . S
C307 C306 1.355 . S
C307 C309 1.419 . S
C308 C306 1.415 . S
C308 C313 1.425 . S
C308 C315 1.409 . S
C309 H301 0.930 . S
C309 C307 1.419 . S
C309 C310 1.362 . S
C310 H302 0.930 . S
C310 C309 1.362 . S
C310 C313 1.409 . S
C311 H303 0.930 . S
C311 C312 1.355 . S
C311 C313 1.415 . S
C312 C311 1.355 . S
C312 C314 1.419 . S
C313 C308 1.425 . S
C313 C310 1.409 . S
C313 C311 1.415 . S
C314 H304 0.930 . S
C314 C312 1.419 . S
C314 C315 1.362 . S
C315 H305 0.930 . S
C315 C308 1.409 . S
C315 C314 1.362 . S
H316 C322 0.930 . S
H317 C325 0.930 . S
H318 C326 0.930 . S
H319 C327 0.930 . S
H320 C330 0.930 . S
H321 C331 0.930 . S
C322 H316 0.930 . S
C322 C323 1.355 . S
C322 C324 1.415 . S
C323 C322 1.355 . S
C323 C325 1.419 . S
C324 C322 1.415 . S
C324 C329 1.425 . S
C324 C331 1.409 . S
C325 H317 0.930 . S
C325 C323 1.419 . S
C325 C326 1.362 . S
C326 H318 0.930 . S
C326 C325 1.362 . S
C326 C329 1.409 . S
C327 H319 0.930 . S
C327 C328 1.355 . S
C327 C329 1.415 . S
C328 C327 1.355 . S
C328 C330 1.419 . S
C329 C324 1.425 . S
C329 C326 1.409 . S
C329 C327 1.415 . S
C330 H320 0.930 . S
C330 C328 1.419 . S
C330 C331 1.362 . S
C331 H321 0.930 . S
C331 C324 1.409 . S
C331 C330 1.362 . S
H332 C338 0.930 . S
H333 C341 0.930 . S
H334 C342 0.930 . S
H335 C343 0.930 . S
H336 C346 0.930 . S
H337 C347 0.930 . S
C338 H332 0.930 . S
C338 C339 1.355 . S
C338 C340 1.415 . S
C339 C338 1.355 . S
C339 C341 1.419 . S
C340 C338 1.415 . S
C340 C345 1.425 . S
C340 C347 1.409 . S
C341 H333 0.930 . S
C341 C339 1.419 . S
C341 C342 1.362 . S
C342 H334 0.930 . S
C342 C341 1.362 . S
C342 C345 1.409 . S
C343 H335 0.930 . S
C343 C344 1.355 . S
C343 C345 1.415 . S
C344 C343 1.355 . S
C344 C346 1.419 . S
C345 C340 1.425 . S
C345 C342 1.409 . S
C345 C343 1.415 . S
C346 H336 0.930 . S
C346 C344 1.419 . S
C346 C347 1.362 . S
C347 H337 0.930 . S
C347 C340 1.409 . S
C347 C346 1.362 . S
H348 C354 0.930 . S
H349 C357 0.930 1_455 S
H350 C358 0.930 . S
H351 C359 0.930 . S
H352 C362 0.930 . S
H353 C363 0.930 . S
C354 H348 0.930 . S
C354 C355 1.355 . S
C354 C356 1.415 . S
C355 C354 1.355 . S
C355 C357 1.419 . S
C356 C354 1.415 . S
C356 C361 1.425 . S
C356 C363 1.409 . S
C357 H349 0.930 1_655 S
C357 C355 1.419 . S
C357 C358 1.362 . S
C358 H350 0.930 . S
C358 C357 1.362 . S
C358 C361 1.409 . S
C359 H351 0.930 . S
C359 C360 1.355 . S
C359 C361 1.415 . S
C360 C359 1.355 . S
C360 C362 1.419 . S
C361 C356 1.425 . S
C361 C358 1.409 . S
C361 C359 1.415 . S
C362 H352 0.930 . S
C362 C360 1.419 . S
C362 C363 1.362 . S
C363 H353 0.930 . S
C363 C356 1.409 . S
C363 C362 1.362 . S
H364 C370 0.930 . S
H365 C373 0.930 1_554 S
H366 C374 0.930 . S
H367 C375 0.930 . S
H368 C378 0.930 . S
H369 C379 0.930 . S
C370 H364 0.930 . S
C370 C371 1.355 . S
C370 C372 1.415 . S
C371 C370 1.355 . S
C371 C373 1.419 . S
C372 C370 1.415 . S
C372 C377 1.425 . S
C372 C379 1.409 . S
C373 H365 0.930 1_556 S
C373 C371 1.419 . S
C373 C374 1.362 . S
C374 H366 0.930 . S
C374 C373 1.362 . S
C374 C377 1.409 . S
C375 H367 0.930 . S
C375 C376 1.355 . S
C375 C377 1.415 . S
C376 C375 1.355 . S
C376 C378 1.419 . S
C377 C372 1.425 . S
C377 C374 1.409 . S
C377 C375 1.415 . S
C378 H368 0.930 . S
C378 C376 1.419 . S
C378 C379 1.362 . S
C379 H369 0.930 . S
C379 C372 1.409 . S
C379 C378 1.362 . S
H380 C386 0.930 . S
H381 C389 0.930 1_554 S
H382 C390 0.930 . S
H383 C391 0.930 . S
H384 C394 0.930 . S
H385 C395 0.930 . S
C386 H380 0.930 . S
C386 C387 1.355 . S
C386 C388 1.415 . S
C387 C386 1.355 . S
C387 C389 1.419 . S
C388 C386 1.415 . S
C388 C393 1.425 . S
C388 C395 1.409 . S
C389 H381 0.930 1_556 S
C389 C387 1.419 . S
C389 C390 1.362 . S
C390 H382 0.930 . S
C390 C389 1.362 . S
C390 C393 1.409 . S
C391 H383 0.930 . S
C391 C392 1.355 . S
C391 C393 1.415 . S
C392 C391 1.355 . S
C392 C394 1.419 . S
C393 C388 1.425 . S
C393 C390 1.409 . S
C393 C391 1.415 . S
C394 H384 0.930 . S
C394 C392 1.419 . S
C394 C395 1.362 . S
C395 H385 0.930 . S
C395 C388 1.409 . S
C395 C394 1.362 . S
H396 C402 0.930 . S
H397 C405 0.930 . S
H398 C406 0.930 . S
H399 C407 0.930 . S
H400 C410 0.930 . S
H401 C411 0.930 . S
C402 H396 0.930 . S
C402 C403 1.355 . S
C402 C404 1.415 . S
C403 C402 1.355 . S
C403 C405 1.419 . S
C404 C402 1.415 . S
C404 C409 1.425 . S
C404 C411 1.409 . S
C405 H397 0.930 . S
C405 C403 1.419 . S
C405 C406 1.362 . S
C406 H398 0.930 . S
C406 C405 1.362 . S
C406 C409 1.409 . S
C407 H399 0.930 . S
C407 C408 1.355 . S
C407 C409 1.415 . S
C408 C407 1.355 . S
C408 C410 1.419 . S
C409 C404 1.425 . S
C409 C406 1.409 . S
C409 C407 1.415 . S
C410 H400 0.930 . S
C410 C408 1.419 . S
C410 C411 1.362 . S
C411 H401 0.930 . S
C411 C404 1.409 . S
C411 C410 1.362 . S
H412 C418 0.930 . S
H413 C421 0.930 1_655 S
H414 C422 0.930 . S
H415 C423 0.930 . S
H416 C426 0.930 . S
H417 C427 0.930 . S
C418 H412 0.930 . S
C418 C419 1.355 . S
C418 C420 1.415 . S
C419 C418 1.355 . S
C419 C421 1.419 . S
C420 C418 1.415 . S
C420 C425 1.425 . S
C420 C427 1.409 . S
C421 H413 0.930 1_455 S
C421 C419 1.419 . S
C421 C422 1.362 . S
C422 H414 0.930 . S
C422 C421 1.362 . S
C422 C425 1.409 . S
C423 H415 0.930 . S
C423 C424 1.355 . S
C423 C425 1.415 . S
C424 C423 1.355 . S
C424 C426 1.419 . S
C425 C420 1.425 . S
C425 C422 1.409 . S
C425 C423 1.415 . S
C426 H416 0.930 . S
C426 C424 1.419 . S
C426 C427 1.362 . S
C427 H417 0.930 . S
C427 C420 1.409 . S
C427 C426 1.362 . S
H428 C434 0.930 . S
H429 C437 0.930 . S
H430 C438 0.930 . S
H431 C439 0.930 . S
H432 C442 0.930 . S
H433 C443 0.930 . S
C434 H428 0.930 . S
C434 C435 1.355 . S
C434 C436 1.415 . S
C435 C434 1.355 . S
C435 C437 1.419 . S
C436 C434 1.415 . S
C436 C441 1.425 . S
C436 C443 1.409 . S
C437 H429 0.930 . S
C437 C435 1.419 . S
C437 C438 1.362 . S
C438 H430 0.930 . S
C438 C437 1.362 . S
C438 C441 1.409 . S
C439 H431 0.930 . S
C439 C440 1.355 . S
C439 C441 1.415 . S
C440 C439 1.355 . S
C440 C442 1.419 . S
C441 C436 1.425 . S
C441 C438 1.409 . S
C441 C439 1.415 . S
C442 H432 0.930 . S
C442 C440 1.419 . S
C442 C443 1.362 . S
C443 H433 0.930 . S
C443 C436 1.409 . S
C443 C442 1.362 . S
H444 C450 0.930 . S
H445 C453 0.930 . S
H446 C454 0.930 . S
H447 C455 0.930 . S
H448 C458 0.930 . S
H449 C459 0.930 . S
C450 H444 0.930 . S
C450 C451 1.355 . S
C450 C452 1.415 . S
C451 C450 1.355 . S
C451 C453 1.419 . S
C452 C450 1.415 . S
C452 C457 1.425 . S
C452 C459 1.409 . S
C453 H445 0.930 . S
C453 C451 1.419 . S
C453 C454 1.362 . S
C454 H446 0.930 . S
C454 C453 1.362 . S
C454 C457 1.409 . S
C455 H447 0.930 . S
C455 C456 1.355 . S
C455 C457 1.415 . S
C456 C455 1.355 . S
C456 C458 1.419 . S
C457 C452 1.425 . S
C457 C454 1.409 . S
C457 C455 1.415 . S
C458 H448 0.930 . S
C458 C456 1.419 . S
C458 C459 1.362 . S
C459 H449 0.930 . S
C459 C452 1.409 . S
C459 C458 1.362 . S
H460 C466 0.930 . S
H461 C469 0.930 . S
H462 C470 0.930 1_565 S
H463 C471 0.930 . S
H464 C474 0.930 . S
H465 C475 0.930 . S
C466 H460 0.930 . S
C466 C467 1.355 . S
C466 C468 1.415 . S
C467 C466 1.355 . S
C467 C469 1.419 . S
C468 C466 1.415 . S
C468 C473 1.425 1_545 S
C468 C475 1.409 . S
C469 H461 0.930 . S
C469 C467 1.419 . S
C469 C470 1.362 . S
C470 H462 0.930 1_545 S
C470 C469 1.362 . S
C470 C473 1.409 1_545 S
C471 H463 0.930 . S
C471 C472 1.355 . S
C471 C473 1.415 . S
C472 C471 1.355 . S
C472 C474 1.419 . S
C473 C468 1.425 1_565 S
C473 C470 1.409 1_565 S
C473 C471 1.415 . S
C474 H464 0.930 . S
C474 C472 1.419 . S
C474 C475 1.362 1_565 S
C475 H465 0.930 . S
C475 C468 1.409 . S
C475 C474 1.362 1_545 S
H476 C482 0.930 . S
H477 C485 0.930 . S
H478 C486 0.930 . S
H479 C487 0.930 1_455 S
H480 C490 0.930 . S
H481 C491 0.930 . S
C482 H476 0.930 . S
C482 C483 1.355 . S
C482 C484 1.415 1_455 S
C483 C482 1.355 . S
C483 C485 1.419 . S
C484 C482 1.415 1_655 S
C484 C489 1.425 1_655 S
C484 C491 1.409 . S
C485 H477 0.930 . S
C485 C483 1.419 . S
C485 C486 1.362 . S
C486 H478 0.930 . S
C486 C485 1.362 . S
C486 C489 1.409 . S
C487 H479 0.930 1_655 S
C487 C488 1.355 . S
C487 C489 1.415 1_655 S
C488 C487 1.355 . S
C488 C490 1.419 . S
C489 C484 1.425 1_455 S
C489 C486 1.409 . S
C489 C487 1.415 1_455 S
C490 H480 0.930 . S
C490 C488 1.419 . S
C490 C491 1.362 . S
C491 H481 0.930 . S
C491 C484 1.409 . S
C491 C490 1.362 . S
H492 C498 0.930 . S
H493 C501 0.930 . S
H494 C502 0.930 . S
H495 C503 0.930 . S
H496 C506 0.930 . S
H497 C507 0.930 . S
C498 H492 0.930 . S
C498 C499 1.355 . S
C498 C500 1.415 . S
C499 C498 1.355 . S
C499 C501 1.419 . S
C500 C498 1.415 . S
C500 C505 1.425 . S
C500 C507 1.409 . S
C501 H493 0.930 . S
C501 C499 1.419 . S
C501 C502 1.362 . S
C502 H494 0.930 . S
C502 C501 1.362 . S
C502 C505 1.409 . S
C503 H495 0.930 . S
C503 C504 1.355 . S
C503 C505 1.415 . S
C504 C503 1.355 . S
C504 C506 1.419 . S
C505 C500 1.425 . S
C505 C502 1.409 . S
C505 C503 1.415 . S
C506 H496 0.930 . S
C506 C504 1.419 . S
C506 C507 1.362 . S
C507 H497 0.930 . S
C507 C500 1.409 . S
C507 C506 1.362 . S
H508 C514 0.930 . S
H509 C517 0.930 . S
H510 C518 0.930 1_565 S
H511 C519 0.930 . S
H512 C522 0.930 . S
H513 C523 0.930 . S
C514 H508 0.930 . S
C514 C515 1.355 . S
C514 C516 1.415 . S
C515 C514 1.355 . S
C515 C517 1.419 . S
C516 C514 1.415 . S
C516 C521 1.425 1_545 S
C516 C523 1.409 . S
C517 H509 0.930 . S
C517 C515 1.419 . S
C517 C518 1.362 . S
C518 H510 0.930 1_545 S
C518 C517 1.362 . S
C518 C521 1.409 1_545 S
C519 H511 0.930 . S
C519 C520 1.355 . S
C519 C521 1.415 . S
C520 C519 1.355 . S
C520 C522 1.419 . S
C521 C516 1.425 1_565 S
C521 C518 1.409 1_565 S
C521 C519 1.415 . S
C522 H512 0.930 . S
C522 C520 1.419 . S
C522 C523 1.362 1_565 S
C523 H513 0.930 . S
C523 C516 1.409 . S
C523 C522 1.362 1_545 S
H524 C530 0.930 . S
H525 C533 0.930 . S
H526 C534 0.930 1_655 S
H527 C535 0.930 . S
H528 C538 0.930 . S
H529 C539 0.930 . S
C530 H524 0.930 . S
C530 C531 1.355 . S
C530 C532 1.415 . S
C531 C530 1.355 . S
C531 C533 1.419 . S
C532 C530 1.415 . S
C532 C537 1.425 1_455 S
C532 C539 1.409 . S
C533 H525 0.930 . S
C533 C531 1.419 . S
C533 C534 1.362 . S
C534 H526 0.930 1_455 S
C534 C533 1.362 . S
C534 C537 1.409 1_455 S
C535 H527 0.930 . S
C535 C536 1.355 . S
C535 C537 1.415 . S
C536 C535 1.355 . S
C536 C538 1.419 . S
C537 C532 1.425 1_655 S
C537 C534 1.409 1_655 S
C537 C535 1.415 . S
C538 H528 0.930 . S
C538 C536 1.419 . S
C538 C539 1.362 1_655 S
C539 H529 0.930 . S
C539 C532 1.409 . S
C539 C538 1.362 1_455 S
H540 C546 0.930 . S
H541 C549 0.930 . S
H542 C550 0.930 . S
H543 C551 0.930 . S
H544 C554 0.930 . S
H545 C555 0.930 . S
C546 H540 0.930 . S
C546 C547 1.355 . S
C546 C548 1.415 . S
C547 C546 1.355 . S
C547 C549 1.419 . S
C548 C546 1.415 . S
C548 C553 1.425 . S
C548 C555 1.409 . S
C549 H541 0.930 . S
C549 C547 1.419 . S
C549 C550 1.362 . S
C550 H542 0.930 . S
C550 C549 1.362 . S
C550 C553 1.409 . S
C551 H543 0.930 . S
C551 C552 1.355 . S
C551 C553 1.415 . S
C552 C551 1.355 . S
C552 C554 1.419 . S
C553 C548 1.425 . S
C553 C550 1.409 . S
C553 C551 1.415 . S
C554 H544 0.930 . S
C554 C552 1.419 . S
C554 C555 1.362 . S
C555 H545 0.930 . S
C555 C548 1.409 . S
C555 C554 1.362 . S
H556 C562 0.930 . S
H557 C565 0.930 . S
H558 C566 0.930 . S
H559 C567 0.930 . S
H560 C570 0.930 . S
H561 C571 0.930 . S
C562 H556 0.930 . S
C562 C563 1.355 . S
C562 C564 1.415 . S
C563 C562 1.355 . S
C563 C565 1.419 . S
C564 C562 1.415 . S
C564 C569 1.425 . S
C564 C571 1.409 . S
C565 H557 0.930 . S
C565 C563 1.419 . S
C565 C566 1.362 . S
C566 H558 0.930 . S
C566 C565 1.362 . S
C566 C569 1.409 . S
C567 H559 0.930 . S
C567 C568 1.355 . S
C567 C569 1.415 . S
C568 C567 1.355 . S
C568 C570 1.419 . S
C569 C564 1.425 . S
C569 C566 1.409 . S
C569 C567 1.415 . S
C570 H560 0.930 . S
C570 C568 1.419 . S
C570 C571 1.362 . S
C571 H561 0.930 . S
C571 C564 1.409 . S
C571 C570 1.362 . S
H572 C578 0.930 . S
H573 C581 0.930 . S
H574 C582 0.930 . S
H575 C583 0.930 . S
H576 C586 0.930 . S
H577 C587 0.930 . S
C578 H572 0.930 . S
C578 C579 1.355 . S
C578 C580 1.415 . S
C579 C578 1.355 . S
C579 C581 1.419 . S
C580 C578 1.415 . S
C580 C585 1.425 . S
C580 C587 1.409 . S
C581 H573 0.930 . S
C581 C579 1.419 . S
C581 C582 1.362 . S
C582 H574 0.930 . S
C582 C581 1.362 . S
C582 C585 1.409 . S
C583 H575 0.930 . S
C583 C584 1.355 . S
C583 C585 1.415 . S
C584 C583 1.355 . S
C584 C586 1.419 . S
C585 C580 1.425 . S
C585 C582 1.409 . S
C585 C583 1.415 . S
C586 H576 0.930 . S
C586 C584 1.419 . S
C586 C587 1.362 . S
C587 H577 0.930 . S
C587 C580 1.409 . S
C587 C586 1.362 . S
H588 C594 0.930 . S
H589 C597 0.930 . S
H590 C598 0.930 . S
H591 C599 0.930 . S
H592 C602 0.930 . S
H593 C603 0.930 . S
C594 H588 0.930 . S
C594 C595 1.355 . S
C594 C596 1.415 . S
C595 C594 1.355 . S
C595 C597 1.419 . S
C596 C594 1.415 . S
C596 C601 1.425 . S
C596 C603 1.409 . S
C597 H589 0.930 . S
C597 C595 1.419 . S
C597 C598 1.362 . S
C598 H590 0.930 . S
C598 C597 1.362 . S
C598 C601 1.409 . S
C599 H591 0.930 . S
C599 C600 1.355 . S
C599 C601 1.415 . S
C600 C599 1.355 . S
C600 C602 1.419 . S
C601 C596 1.425 . S
C601 C598 1.409 . S
C601 C599 1.415 . S
C602 H592 0.930 . S
C602 C600 1.419 . S
C602 C603 1.362 . S
C603 H593 0.930 . S
C603 C596 1.409 . S
C603 C602 1.362 . S
H604 C610 0.930 . S
H605 C613 0.930 . S
H606 C614 0.930 . S
H607 C615 0.930 . S
H608 C618 0.930 . S
H609 C619 0.930 . S
C610 H604 0.930 . S
C610 C611 1.355 . S
C610 C612 1.415 . S
C611 C610 1.355 . S
C611 C613 1.419 . S
C612 C610 1.415 . S
C612 C617 1.425 . S
C612 C619 1.409 . S
C613 H605 0.930 . S
C613 C611 1.419 . S
C613 C614 1.362 . S
C614 H606 0.930 . S
C614 C613 1.362 . S
C614 C617 1.409 . S
C615 H607 0.930 . S
C615 C616 1.355 . S
C615 C617 1.415 . S
C616 C615 1.355 . S
C616 C618 1.419 . S
C617 C612 1.425 . S
C617 C614 1.409 . S
C617 C615 1.415 . S
C618 H608 0.930 . S
C618 C616 1.419 . S
C618 C619 1.362 . S
C619 H609 0.930 . S
C619 C612 1.409 . S
C619 C618 1.362 . S
H620 C626 0.930 . S
H621 C629 0.930 . S
H622 C630 0.930 . S
H623 C631 0.930 . S
H624 C634 0.930 . S
H625 C635 0.930 . S
C626 H620 0.930 . S
C626 C627 1.355 . S
C626 C628 1.415 . S
C627 C626 1.355 . S
C627 C629 1.419 . S
C628 C626 1.415 . S
C628 C633 1.425 . S
C628 C635 1.409 . S
C629 H621 0.930 . S
C629 C627 1.419 . S
C629 C630 1.362 . S
C630 H622 0.930 . S
C630 C629 1.362 . S
C630 C633 1.409 . S
C631 H623 0.930 . S
C631 C632 1.355 . S
C631 C633 1.415 . S
C632 C631 1.355 . S
C632 C634 1.419 . S
C633 C628 1.425 . S
C633 C630 1.409 . S
C633 C631 1.415 . S
C634 H624 0.930 . S
C634 C632 1.419 . S
C634 C635 1.362 . S
C635 H625 0.930 . S
C635 C628 1.409 . S
C635 C634 1.362 . S
H636 C642 0.930 . S
H637 C645 0.930 . S
H638 C646 0.930 . S
H639 C647 0.930 . S
H640 C650 0.930 . S
H641 C651 0.930 . S
C642 H636 0.930 . S
C642 C643 1.355 . S
C642 C644 1.415 . S
C643 C642 1.355 . S
C643 C645 1.419 . S
C644 C642 1.415 . S
C644 C649 1.425 . S
C644 C651 1.409 . S
C645 H637 0.930 . S
C645 C643 1.419 . S
C645 C646 1.362 . S
C646 H638 0.930 . S
C646 C645 1.362 . S
C646 C649 1.409 . S
C647 H639 0.930 . S
C647 C648 1.355 . S
C647 C649 1.415 . S
C648 C647 1.355 . S
C648 C650 1.419 . S
C649 C644 1.425 . S
C649 C646 1.409 . S
C649 C647 1.415 . S
C650 H640 0.930 . S
C650 C648 1.419 . S
C650 C651 1.362 . S
C651 H641 0.930 . S
C651 C644 1.409 . S
C651 C650 1.362 . S
H652 C658 0.930 . S
H653 C661 0.930 . S
H654 C662 0.930 . S
H655 C663 0.930 . S
H656 C666 0.930 . S
H657 C667 0.930 . S
C658 H652 0.930 . S
C658 C659 1.355 . S
C658 C660 1.415 . S
C659 C658 1.355 . S
C659 C661 1.419 . S
C660 C658 1.415 . S
C660 C665 1.425 . S
C660 C667 1.409 . S
C661 H653 0.930 . S
C661 C659 1.419 . S
C661 C662 1.362 . S
C662 H654 0.930 . S
C662 C661 1.362 . S
C662 C665 1.409 . S
C663 H655 0.930 . S
C663 C664 1.355 . S
C663 C665 1.415 . S
C664 C663 1.355 . S
C664 C666 1.419 . S
C665 C660 1.425 . S
C665 C662 1.409 . S
C665 C663 1.415 . S
C666 H656 0.930 . S
C666 C664 1.419 . S
C666 C667 1.362 . S
C667 H657 0.930 . S
C667 C660 1.409 . S
C667 C666 1.362 . S
H668 C674 0.930 . S
H669 C677 0.930 . S
H670 C678 0.930 . S
H671 C679 0.930 . S
H672 C682 0.930 . S
H673 C683 0.930 . S
C674 H668 0.930 . S
C674 C675 1.355 . S
C674 C676 1.415 . S
C675 C674 1.355 . S
C675 C677 1.419 . S
C676 C674 1.415 . S
C676 C681 1.425 . S
C676 C683 1.409 . S
C677 H669 0.930 . S
C677 C675 1.419 . S
C677 C678 1.362 . S
C678 H670 0.930 . S
C678 C677 1.362 . S
C678 C681 1.409 . S
C679 H671 0.930 . S
C679 C680 1.355 . S
C679 C681 1.415 . S
C680 C679 1.355 . S
C680 C682 1.419 . S
C681 C676 1.425 . S
C681 C678 1.409 . S
C681 C679 1.415 . S
C682 H672 0.930 . S
C682 C680 1.419 . S
C682 C683 1.362 . S
C683 H673 0.930 . S
C683 C676 1.409 . S
C683 C682 1.362 . S
H684 C690 0.930 . S
H685 C693 0.930 . S
H686 C694 0.930 . S
H687 C695 0.930 . S
H688 C698 0.930 . S
H689 C699 0.930 . S
C690 H684 0.930 . S
C690 C691 1.355 . S
C690 C692 1.415 . S
C691 C690 1.355 . S
C691 C693 1.419 . S
C692 C690 1.415 . S
C692 C697 1.425 . S
C692 C699 1.409 . S
C693 H685 0.930 . S
C693 C691 1.419 . S
C693 C694 1.362 . S
C694 H686 0.930 . S
C694 C693 1.362 . S
C694 C697 1.409 . S
C695 H687 0.930 . S
C695 C696 1.355 . S
C695 C697 1.415 . S
C696 C695 1.355 . S
C696 C698 1.419 . S
C697 C692 1.425 . S
C697 C694 1.409 . S
C697 C695 1.415 . S
C698 H688 0.930 . S
C698 C696 1.419 . S
C698 C699 1.362 . S
C699 H689 0.930 . S
C699 C692 1.409 . S
C699 C698 1.362 . S
H700 C706 0.930 . S
H701 C709 0.930 . S
H702 C710 0.930 . S
H703 C711 0.930 . S
H704 C714 0.930 . S
H705 C715 0.930 . S
C706 H700 0.930 . S
C706 C707 1.355 . S
C706 C708 1.415 . S
C707 C706 1.355 . S
C707 C709 1.419 . S
C708 C706 1.415 . S
C708 C713 1.425 . S
C708 C715 1.409 . S
C709 H701 0.930 . S
C709 C707 1.419 . S
C709 C710 1.362 . S
C710 H702 0.930 . S
C710 C709 1.362 . S
C710 C713 1.409 . S
C711 H703 0.930 . S
C711 C712 1.355 . S
C711 C713 1.415 . S
C712 C711 1.355 . S
C712 C714 1.419 . S
C713 C708 1.425 . S
C713 C710 1.409 . S
C713 C711 1.415 . S
C714 H704 0.930 . S
C714 C712 1.419 . S
C714 C715 1.362 . S
C715 H705 0.930 . S
C715 C708 1.409 . S
C715 C714 1.362 . S
H716 C722 0.930 . S
H717 C725 0.930 . S
H718 C726 0.930 . S
H719 C727 0.930 . S
H720 C730 0.930 . S
H721 C731 0.930 . S
C722 H716 0.930 . S
C722 C723 1.355 . S
C722 C724 1.415 . S
C723 C722 1.355 . S
C723 C725 1.419 . S
C724 C722 1.415 . S
C724 C729 1.425 . S
C724 C731 1.409 . S
C725 H717 0.930 . S
C725 C723 1.419 . S
C725 C726 1.362 . S
C726 H718 0.930 . S
C726 C725 1.362 . S
C726 C729 1.409 . S
C727 H719 0.930 . S
C727 C728 1.355 . S
C727 C729 1.415 . S
C728 C727 1.355 . S
C728 C730 1.419 . S
C729 C724 1.425 . S
C729 C726 1.409 . S
C729 C727 1.415 . S
C730 H720 0.930 . S
C730 C728 1.419 . S
C730 C731 1.362 . S
C731 H721 0.930 . S
C731 C724 1.409 . S
C731 C730 1.362 . S
H732 C738 0.930 . S
H733 C741 0.930 . S
H734 C742 0.930 . S
H735 C743 0.930 . S
H736 C746 0.930 . S
H737 C747 0.930 . S
C738 H732 0.930 . S
C738 C739 1.355 . S
C738 C740 1.415 . S
C739 C738 1.355 . S
C739 C741 1.419 . S
C740 C738 1.415 . S
C740 C745 1.425 . S
C740 C747 1.409 . S
C741 H733 0.930 . S
C741 C739 1.419 . S
C741 C742 1.362 . S
C742 H734 0.930 . S
C742 C741 1.362 . S
C742 C745 1.409 . S
C743 H735 0.930 . S
C743 C744 1.355 . S
C743 C745 1.415 . S
C744 C743 1.355 . S
C744 C746 1.419 . S
C745 C740 1.425 . S
C745 C742 1.409 . S
C745 C743 1.415 . S
C746 H736 0.930 . S
C746 C744 1.419 . S
C746 C747 1.362 . S
C747 H737 0.930 . S
C747 C740 1.409 . S
C747 C746 1.362 . S
H748 C754 0.930 . S
H749 C757 0.930 . S
H750 C758 0.930 1_565 S
H751 C759 0.930 . S
H752 C762 0.930 . S
H753 C763 0.930 . S
C754 H748 0.930 . S
C754 C755 1.355 . S
C754 C756 1.415 . S
C755 C754 1.355 . S
C755 C757 1.419 . S
C756 C754 1.415 . S
C756 C761 1.420 1_545 S
C756 C763 1.409 . S
C757 H749 0.930 . S
C757 C755 1.419 . S
C757 C758 1.362 . S
C758 H750 0.930 1_545 S
C758 C757 1.362 . S
C758 C761 1.413 1_545 S
C759 H751 0.930 . S
C759 C760 1.355 . S
C759 C761 1.415 . S
C760 C759 1.355 . S
C760 C762 1.419 . S
C761 C756 1.420 1_565 S
C761 C758 1.413 1_565 S
C761 C759 1.415 . S
C762 H752 0.930 . S
C762 C760 1.419 . S
C762 C763 1.362 1_565 S
C763 H753 0.930 . S
C763 C756 1.409 . S
C763 C762 1.362 1_545 S
H764 C770 0.930 . S
H765 C773 0.930 . S
H766 C774 0.930 . S
H767 C775 0.930 . S
H768 C778 0.930 . S
H769 C779 0.930 . S
C770 H764 0.930 . S
C770 C771 1.355 . S
C770 C772 1.415 . S
C771 C770 1.355 . S
C771 C773 1.419 1_455 S
C772 C770 1.415 . S
C772 C777 1.425 1_455 S
C772 C779 1.409 . S
C773 H765 0.930 . S
C773 C771 1.419 1_655 S
C773 C774 1.362 . S
C774 H766 0.930 . S
C774 C773 1.362 . S
C774 C777 1.409 . S
C775 H767 0.930 . S
C775 C776 1.355 . S
C775 C777 1.415 . S
C776 C775 1.355 . S
C776 C778 1.419 1_655 S
C777 C772 1.425 1_655 S
C777 C774 1.409 . S
C777 C775 1.415 . S
C778 H768 0.930 . S
C778 C776 1.419 1_455 S
C778 C779 1.362 . S
C779 H769 0.930 . S
C779 C772 1.409 . S
C779 C778 1.362 . S
H780 C786 0.930 . S
H781 C789 0.930 . S
H782 C790 0.930 . S
H783 C791 0.930 . S
H784 C794 0.930 . S
H785 C795 0.930 . S
C786 H780 0.930 . S
C786 C787 1.355 . S
C786 C788 1.415 . S
C787 C786 1.355 . S
C787 C789 1.419 . S
C788 C786 1.415 . S
C788 C793 1.425 1_556 S
C788 C795 1.409 . S
C789 H781 0.930 . S
C789 C787 1.419 . S
C789 C790 1.362 1_556 S
C790 H782 0.930 . S
C790 C789 1.362 1_554 S
C790 C793 1.409 . S
C791 H783 0.930 . S
C791 C792 1.355 . S
C791 C793 1.415 . S
C792 C791 1.355 . S
C792 C794 1.419 . S
C793 C788 1.425 1_554 S
C793 C790 1.409 . S
C793 C791 1.415 . S
C794 H784 0.930 . S
C794 C792 1.419 . S
C794 C795 1.362 1_554 S
C795 H785 0.930 . S
C795 C788 1.409 . S
C795 C794 1.362 1_556 S
H796 C802 0.938 1_544 S
H797 C805 0.930 . S
H798 C806 0.930 . S
H799 C807 0.930 1_556 S
H800 C810 0.930 . S
H801 C811 0.930 . S
C802 H796 0.938 1_566 S
C802 C803 1.355 . S
C802 C804 1.415 1_566 S
C803 C802 1.355 . S
C803 C805 1.419 . S
C804 C802 1.415 1_544 S
C804 C809 1.425 1_554 S
C804 C811 1.409 . S
C805 H797 0.930 . S
C805 C803 1.419 . S
C805 C806 1.362 . S
C806 H798 0.930 . S
C806 C805 1.362 . S
C806 C809 1.409 1_565 S
C807 H799 0.930 1_554 S
C807 C808 1.355 . S
C807 C809 1.415 1_554 S
C808 C807 1.355 . S
C808 C810 1.419 . S
C809 C804 1.425 1_556 S
C809 C806 1.409 1_545 S
C809 C807 1.415 1_556 S
C810 H800 0.930 . S
C810 C808 1.419 . S
C810 C811 1.362 . S
C811 H801 0.930 . S
C811 C804 1.409 . S
C811 C810 1.362 . S
H812 C818 0.930 . S
H813 C821 0.930 . S
H814 C822 0.921 1_655 S
H815 C823 0.930 . S
H816 C826 0.930 . S
H817 C827 0.930 . S
C818 H812 0.930 . S
C818 C819 1.355 . S
C818 C820 1.415 . S
C819 C818 1.355 . S
C819 C821 1.419 1_556 S
C820 C818 1.415 . S
C820 C825 1.425 1_556 S
C820 C827 1.409 . S
C821 H813 0.930 . S
C821 C819 1.419 1_554 S
C821 C822 1.362 . S
C822 H814 0.921 1_455 S
C822 C821 1.362 . S
C822 C825 1.409 . S
C823 H815 0.930 . S
C823 C824 1.355 . S
C823 C825 1.415 1_655 S
C824 C823 1.355 . S
C824 C826 1.419 1_554 S
C825 C820 1.425 1_554 S
C825 C822 1.409 . S
C825 C823 1.415 1_455 S
C826 H816 0.930 . S
C826 C824 1.419 1_556 S
C826 C827 1.362 1_655 S
C827 H817 0.930 . S
C827 C820 1.409 . S
C827 C826 1.362 1_455 S
C259 C13 1.907 . S
C264 C208 1.905 1_554 S
C275 C180 1.904 1_554 S
C280 C27 1.908 . S
C291 C40 1.906 . S
C296 C183 1.902 1_554 S
C307 C97 1.846 . S
C312 C41 1.853 . S
C323 C99 1.906 . S
C328 C12 1.905 . S
C339 C125 1.853 . S
C344 C26 1.865 . S
C355 C42 1.899 . S
C360 C167 1.905 1_556 S
C371 C127 1.847 1_556 S
C376 C56 1.846 . S
C387 C141 1.851 1_556 S
C392 C82 1.847 . S
C403 C83 1.901 . S
C408 C210 1.909 . S
C419 C43 1.888 . S
C424 C237 1.902 . S
C435 C250 1.909 . S
C440 C57 1.901 . S
C451 C181 1.887 . S
C456 C124 1.899 . S
C467 C96 1.863 . S
C472 C182 1.882 . S
C483 C209 1.909 . S
C488 C98 1.902 . S
C499 C251 1.850 . S
C504 C126 1.846 . S
C515 C140 1.885 . S
C520 C211 1.863 . S
C531 C236 1.887 . S
C536 C166 1.869 . S
C547 C222 1.549 . S
C552 C1 1.549 . S
C563 C15 1.548 . S
C568 C225 1.547 . S
C579 C28 1.551 . S
C584 C238 1.550 . S
C595 C29 1.550 . S
C600 C155 1.551 . S
C611 C139 1.548 . S
C616 C0 1.548 . S
C627 C14 1.548 . S
C632 C153 1.548 . S
C643 C85 1.548 . S
C648 C54 1.548 . S
C659 C111 1.550 . S
C664 C68 1.550 . S
C675 C70 1.548 . S
C680 C113 1.548 . S
C691 C71 1.550 . S
C696 C196 1.550 . S
C707 C55 1.551 . S
C712 C168 1.551 . S
C723 C69 1.548 . S
C728 C195 1.548 . S
C739 C112 1.550 . S
C744 C239 1.550 . S
C755 C84 1.549 . S
C760 C223 1.549 . S
C771 C224 1.550 . S
C776 C110 1.550 . S
C787 C169 1.547 . S
C792 C138 1.547 . S
C803 C194 1.547 . S
C808 C152 1.548 . S
C819 C197 1.549 . S
C824 C154 1.549 . S
