# Generated by pormake.
# Topology ums, (4)-cn, num edge types: 1
# Building blocks:
#     Node 0, Type 0, BuildingBlock: KUFVIS_clean_sbu_0, # of connection points: 4
#     Node 1, Type 0, BuildingBlock: KUFVIS_clean_sbu_0, # of connection points: 4
#     Node 2, Type 0, BuildingBlock: KUFVIS_clean_sbu_0, # of connection points: 4
#     Node 3, Type 0, BuildingBlock: KUFVIS_clean_sbu_0, # of connection points: 4
#     Node 4, Type 0, BuildingBlock: KUFVIS_clean_sbu_0, # of connection points: 4
#     Node 5, Type 0, BuildingBlock: KUFVIS_clean_sbu_0, # of connection points: 4
#     Node 6, Type 0, BuildingBlock: KUFVIS_clean_sbu_0, # of connection points: 4
#     Node 7, Type 0, BuildingBlock: KUFVIS_clean_sbu_0, # of connection points: 4
#     Node 8, Type 0, BuildingBlock: KUFVIS_clean_sbu_0, # of connection points: 4
#     Node 9, Type 0, BuildingBlock: KUFVIS_clean_sbu_0, # of connection points: 4
#     Node 10, Type 0, BuildingBlock: KUFVIS_clean_sbu_0, # of connection points: 4
#     Node 11, Type 0, BuildingBlock: KUFVIS_clean_sbu_0, # of connection points: 4
#     Node 12, Type 0, BuildingBlock: KUFVIS_clean_sbu_0, # of connection points: 4
#     Node 13, Type 0, BuildingBlock: KUFVIS_clean_sbu_0, # of connection points: 4
#     Node 14, Type 0, BuildingBlock: KUFVIS_clean_sbu_0, # of connection points: 4
#     Node 15, Type 0, BuildingBlock: KUFVIS_clean_sbu_0, # of connection points: 4
#     Node 16, Type 0, BuildingBlock: KUFVIS_clean_sbu_0, # of connection points: 4
#     Node 17, Type 0, BuildingBlock: KUFVIS_clean_sbu_0, # of connection points: 4
#     Node 18, Type 0, BuildingBlock: KUFVIS_clean_sbu_0, # of connection points: 4
#     Node 19, Type 0, BuildingBlock: KUFVIS_clean_sbu_0, # of connection points: 4
#     Node 20, Type 0, BuildingBlock: KUFVIS_clean_sbu_0, # of connection points: 4
#     Node 21, Type 0, BuildingBlock: KUFVIS_clean_sbu_0, # of connection points: 4
#     Node 22, Type 0, BuildingBlock: KUFVIS_clean_sbu_0, # of connection points: 4
#     Node 23, Type 0, BuildingBlock: KUFVIS_clean_sbu_0, # of connection points: 4
#     Node 24, Type 0, BuildingBlock: KUFVIS_clean_sbu_0, # of connection points: 4
#     Node 25, Type 0, BuildingBlock: KUFVIS_clean_sbu_0, # of connection points: 4
#     Node 26, Type 0, BuildingBlock: KUFVIS_clean_sbu_0, # of connection points: 4
#     Node 27, Type 0, BuildingBlock: KUFVIS_clean_sbu_0, # of connection points: 4
#     Node 28, Type 0, BuildingBlock: KUFVIS_clean_sbu_0, # of connection points: 4
#     Node 29, Type 0, BuildingBlock: KUFVIS_clean_sbu_0, # of connection points: 4
#     Node 30, Type 0, BuildingBlock: KUFVIS_clean_sbu_0, # of connection points: 4
#     Node 31, Type 0, BuildingBlock: KUFVIS_clean_sbu_0, # of connection points: 4
#     Node 32, Type 0, BuildingBlock: KUFVIS_clean_sbu_0, # of connection points: 4
#     Node 33, Type 0, BuildingBlock: KUFVIS_clean_sbu_0, # of connection points: 4
#     Node 34, Type 0, BuildingBlock: KUFVIS_clean_sbu_0, # of connection points: 4
#     Node 35, Type 0, BuildingBlock: KUFVIS_clean_sbu_0, # of connection points: 4
#     Edge 36, Type (0, 0), None
#     Edge 37, Type (0, 0), None
#     Edge 38, Type (0, 0), None
#     Edge 39, Type (0, 0), None
#     Edge 40, Type (0, 0), None
#     Edge 41, Type (0, 0), None
#     Edge 42, Type (0, 0), None
#     Edge 43, Type (0, 0), None
#     Edge 44, Type (0, 0), None
#     Edge 45, Type (0, 0), None
#     Edge 46, Type (0, 0), None
#     Edge 47, Type (0, 0), None
#     Edge 48, Type (0, 0), None
#     Edge 49, Type (0, 0), None
#     Edge 50, Type (0, 0), None
#     Edge 51, Type (0, 0), None
#     Edge 52, Type (0, 0), None
#     Edge 53, Type (0, 0), None
#     Edge 54, Type (0, 0), None
#     Edge 55, Type (0, 0), None
#     Edge 56, Type (0, 0), None
#     Edge 57, Type (0, 0), None
#     Edge 58, Type (0, 0), None
#     Edge 59, Type (0, 0), None
#     Edge 60, Type (0, 0), None
#     Edge 61, Type (0, 0), None
#     Edge 62, Type (0, 0), None
#     Edge 63, Type (0, 0), None
#     Edge 64, Type (0, 0), None
#     Edge 65, Type (0, 0), None
#     Edge 66, Type (0, 0), None
#     Edge 67, Type (0, 0), None
#     Edge 68, Type (0, 0), None
#     Edge 69, Type (0, 0), None
#     Edge 70, Type (0, 0), None
#     Edge 71, Type (0, 0), None
#     Edge 72, Type (0, 0), None
#     Edge 73, Type (0, 0), None
#     Edge 74, Type (0, 0), None
#     Edge 75, Type (0, 0), None
#     Edge 76, Type (0, 0), None
#     Edge 77, Type (0, 0), None
#     Edge 78, Type (0, 0), None
#     Edge 79, Type (0, 0), None
#     Edge 80, Type (0, 0), None
#     Edge 81, Type (0, 0), None
#     Edge 82, Type (0, 0), None
#     Edge 83, Type (0, 0), None
#     Edge 84, Type (0, 0), None
#     Edge 85, Type (0, 0), None
#     Edge 86, Type (0, 0), None
#     Edge 87, Type (0, 0), None
#     Edge 88, Type (0, 0), None
#     Edge 89, Type (0, 0), None
#     Edge 90, Type (0, 0), None
#     Edge 91, Type (0, 0), None
#     Edge 92, Type (0, 0), None
#     Edge 93, Type (0, 0), None
#     Edge 94, Type (0, 0), None
#     Edge 95, Type (0, 0), None
#     Edge 96, Type (0, 0), None
#     Edge 97, Type (0, 0), None
#     Edge 98, Type (0, 0), None
#     Edge 99, Type (0, 0), None
#     Edge 100, Type (0, 0), None
#     Edge 101, Type (0, 0), None
#     Edge 102, Type (0, 0), None
#     Edge 103, Type (0, 0), None
#     Edge 104, Type (0, 0), None
#     Edge 105, Type (0, 0), None
#     Edge 106, Type (0, 0), None
#     Edge 107, Type (0, 0), None
# Relax obj value: 0.158
# Max RMSD: 0.139
# Mean RMSD: 0.137
data_MOF--net-ums--node1-KUFVIS_clean_sbu_0--edge1-none
_symmetry_space_group_name_H-M    P1
_symmetry_Int_Tables_number       1
_symmetry_cell_setting            triclinic
loop_
_symmetry_equiv_pos_as_xyz
'x, y, z'
_cell_length_a     46.833086
_cell_length_b     46.83213
_cell_length_c     11.019111
_cell_angle_alpha  90.000858
_cell_angle_beta   89.998621
_cell_angle_gamma 120.0008
loop_
_atom_site_label
_atom_site_type_symbol
_atom_site_fract_x
_atom_site_fract_y
_atom_site_fract_z
_atom_type_partial_charge
Mn0 Mn 0.15349 0.24682 0.12125 0.0
Mn1 Mn 0.20684 0.28812 0.35996 0.0
C2 C 0.20258 0.30158 0.09473 0.0
C3 C 0.10706 0.2376 0.97713 0.0
C4 C 0.20021 0.22536 0.24966 0.0
O5 O 0.1234 0.22668 0.28048 0.0
O6 O 0.16031 0.25882 0.42358 0.0
C7 C 0.17853 0.32792 0.42055 0.0
N8 N 0.20603 0.32623 0.40539 0.0
C9 C 0.23971 0.38522 0.40957 0.0
C10 C 0.21192 0.38699 0.43405 0.0
C11 C 0.18099 0.35823 0.42648 0.0
C12 C 0.23603 0.3538 0.39775 0.0
H13 H 0.15478 0.30642 0.42097 0.0
C14 C 0.13039 0.23795 0.39111 0.0
O15 O 0.11567 0.21552 0.99366 0.0
O16 O 0.12507 0.26324 0.0396 0.0
N17 N 0.25138 0.3191 0.30906 0.0
C18 C 0.27078 0.31443 0.23032 0.0
C19 C 0.30187 0.34144 0.19774 0.0
C20 C 0.31101 0.37309 0.23358 0.0
C21 C 0.28893 0.37796 0.30027 0.0
C22 C 0.26033 0.35012 0.34509 0.0
H23 H 0.26181 0.29036 0.19177 0.0
O24 O 0.18888 0.28044 0.00859 0.0
O25 O 0.18884 0.28909 0.19806 0.0
O26 O 0.17983 0.22195 0.16412 0.0
O27 O 0.21147 0.24933 0.32398 0.0
C28 C 0.29255 0.40938 0.31043 0.0
C29 C 0.26857 0.41326 0.3705 0.0
H30 H 0.21468 0.41097 0.44855 0.0
H31 H 0.15838 0.35854 0.42908 0.0
H32 H 0.31947 0.33912 0.14268 0.0
H33 H 0.33417 0.39362 0.20277 0.0
H34 H 0.31341 0.43067 0.26982 0.0
H35 H 0.27111 0.43755 0.37515 0.0
Mn36 Mn 0.72005 0.90002 0.12126 0.0
Mn37 Mn 0.67876 0.91207 0.35997 0.0
C38 C 0.66529 0.89435 0.09474 0.0
C39 C 0.72928 0.86282 0.97713 0.0
C40 C 0.74151 0.9682 0.24967 0.0
O41 O 0.7402 0.89007 0.28049 0.0
O42 O 0.70805 0.89484 0.42359 0.0
C43 C 0.63896 0.84397 0.42056 0.0
N44 N 0.64065 0.87316 0.4054 0.0
C45 C 0.58165 0.84784 0.40958 0.0
C46 C 0.57989 0.81829 0.43406 0.0
C47 C 0.60865 0.81612 0.42648 0.0
C48 C 0.61307 0.87558 0.39776 0.0
H49 H 0.66045 0.84171 0.42097 0.0
C50 C 0.72892 0.88579 0.39111 0.0
O51 O 0.75135 0.8935 0.99367 0.0
O52 O 0.70363 0.85518 0.0396 0.0
N53 N 0.64778 0.92563 0.30907 0.0
C54 C 0.65244 0.9497 0.23033 0.0
C55 C 0.62543 0.95379 0.19775 0.0
C56 C 0.59379 0.93128 0.23359 0.0
C57 C 0.58892 0.90433 0.30028 0.0
C58 C 0.61676 0.90357 0.3451 0.0
H59 H 0.67652 0.96481 0.19177 0.0
O60 O 0.68643 0.90179 0.0086 0.0
O61 O 0.67778 0.8931 0.19807 0.0
O62 O 0.74492 0.95123 0.16412 0.0
O63 O 0.71754 0.95549 0.32398 0.0
C64 C 0.5575 0.87653 0.31044 0.0
C65 C 0.55362 0.84866 0.37051 0.0
H66 H 0.55591 0.79706 0.44856 0.0
H67 H 0.60833 0.7932 0.42908 0.0
H68 H 0.62776 0.9737 0.14269 0.0
H69 H 0.57325 0.9339 0.20277 0.0
H70 H 0.53621 0.8761 0.26982 0.0
H71 H 0.52933 0.82692 0.37516 0.0
Mn72 Mn 0.06686 0.81339 0.12126 0.0
Mn73 Mn 0.0548 0.76004 0.35997 0.0
C74 C 0.07252 0.76429 0.09474 0.0
C75 C 0.10406 0.85982 0.97713 0.0
C76 C -0.00133 0.76667 0.24966 0.0
O77 O 0.0768 0.84348 0.28049 0.0
O78 O 0.07203 0.80657 0.42359 0.0
C79 C 0.1229 0.78834 0.42055 0.0
N80 N 0.09371 0.76084 0.4054 0.0
C81 C 0.11903 0.72717 0.40956 0.0
C82 C 0.14858 0.75495 0.43404 0.0
C83 C 0.15075 0.78589 0.42647 0.0
C84 C 0.09129 0.73084 0.39775 0.0
H85 H 0.12517 0.8121 0.42096 0.0
C86 C 0.08109 0.83649 0.39111 0.0
O87 O 0.07338 0.85121 0.99367 0.0
O88 O 0.1117 0.84181 0.0396 0.0
N89 N 0.04124 0.7155 0.30906 0.0
C90 C 0.01717 0.69609 0.23033 0.0
C91 C 0.01308 0.665 0.19775 0.0
C92 C 0.03559 0.65586 0.23358 0.0
C93 C 0.06254 0.67794 0.30026 0.0
C94 C 0.06331 0.70655 0.34509 0.0
H95 H 0.00206 0.70506 0.19178 0.0
O96 O 0.06508 0.77799 0.00859 0.0
O97 O 0.07377 0.77804 0.19807 0.0
O98 O 0.01564 0.78705 0.16412 0.0
O99 O 0.01139 0.75541 0.32398 0.0
C100 C 0.09034 0.67432 0.31042 0.0
C101 C 0.11821 0.6983 0.37049 0.0
H102 H 0.1698 0.75219 0.44854 0.0
H103 H 0.17368 0.80849 0.42908 0.0
H104 H -0.00683 0.64741 0.14268 0.0
H105 H 0.03297 0.6327 0.20277 0.0
H106 H 0.09077 0.65346 0.26981 0.0
H107 H 0.13995 0.69576 0.37514 0.0
Mn108 Mn 0.24021 0.1601 0.37627 0.0
Mn109 Mn 0.28151 0.21345 0.13754 0.0
C110 C 0.29497 0.2092 0.40278 0.0
C111 C 0.23099 0.11367 0.5204 0.0
C112 C 0.21875 0.20681 0.24781 0.0
O113 O 0.22007 0.13001 0.21704 0.0
O114 O 0.25221 0.16692 0.07393 0.0
C115 C 0.32131 0.18514 0.07697 0.0
N116 N 0.31962 0.21265 0.09213 0.0
C117 C 0.37862 0.24631 0.08796 0.0
C118 C 0.38038 0.21853 0.06348 0.0
C119 C 0.35162 0.1876 0.07104 0.0
C120 C 0.3472 0.24264 0.09977 0.0
H121 H 0.29981 0.16139 0.07655 0.0
C122 C 0.23134 0.137 0.10641 0.0
O123 O 0.20891 0.12228 0.50386 0.0
O124 O 0.25663 0.13168 0.45793 0.0
N125 N 0.31249 0.25799 0.18844 0.0
C126 C 0.30783 0.2774 0.26716 0.0
C127 C 0.33483 0.30849 0.29973 0.0
C128 C 0.36648 0.31763 0.26393 0.0
C129 C 0.37135 0.29554 0.19726 0.0
C130 C 0.34351 0.26694 0.15243 0.0
H131 H 0.28375 0.26844 0.30569 0.0
O132 O 0.27383 0.1955 0.48893 0.0
O133 O 0.28248 0.19545 0.29946 0.0
O134 O 0.21534 0.18645 0.33339 0.0
O135 O 0.24273 0.21808 0.17352 0.0
C136 C 0.40277 0.29916 0.18711 0.0
C137 C 0.40665 0.27518 0.12704 0.0
H138 H 0.40436 0.22129 0.04897 0.0
H139 H 0.35193 0.16499 0.06844 0.0
H140 H 0.33251 0.32609 0.35479 0.0
H141 H 0.38702 0.34078 0.29474 0.0
H142 H 0.42406 0.32002 0.22773 0.0
H143 H 0.43094 0.27772 0.1224 0.0
Mn144 Mn 0.80677 0.07346 0.37627 0.0
Mn145 Mn 0.75343 0.06142 0.13755 0.0
C146 C 0.75768 0.07913 0.40279 0.0
C147 C 0.8532 0.11066 0.5204 0.0
C148 C 0.76006 0.00529 0.24781 0.0
O149 O 0.83686 0.08341 0.21703 0.0
O150 O 0.79996 0.07865 0.07393 0.0
C151 C 0.78173 0.12952 0.07697 0.0
N152 N 0.75423 0.10033 0.09213 0.0
C153 C 0.72056 0.12566 0.08796 0.0
C154 C 0.74835 0.15521 0.06348 0.0
C155 C 0.77928 0.15737 0.07105 0.0
C156 C 0.72424 0.09791 0.09977 0.0
H157 H 0.80549 0.13178 0.07655 0.0
C158 C 0.82987 0.0877 0.10641 0.0
O159 O 0.84459 0.07998 0.50386 0.0
O160 O 0.83519 0.11831 0.45793 0.0
N161 N 0.70889 0.04786 0.18844 0.0
C162 C 0.68948 0.02378 0.26716 0.0
C163 C 0.65839 0.0197 0.29974 0.0
C164 C 0.64925 0.04221 0.26393 0.0
C165 C 0.67133 0.06917 0.19725 0.0
C166 C 0.69994 0.06993 0.15243 0.0
H167 H 0.69844 0.00867 0.3057 0.0
O168 O 0.77138 0.07169 0.48893 0.0
O169 O 0.77142 0.08038 0.29946 0.0
O170 O 0.78043 0.02225 0.33339 0.0
O171 O 0.7488 0.018 0.17352 0.0
C172 C 0.66772 0.09697 0.1871 0.0
C173 C 0.6917 0.12483 0.12704 0.0
H174 H 0.74559 0.17643 0.04898 0.0
H175 H 0.80189 0.18029 0.06844 0.0
H176 H 0.64079 -0.00022 0.3548 0.0
H177 H 0.62609 0.03959 0.29474 0.0
H178 H 0.64686 0.0974 0.22772 0.0
H179 H 0.68916 0.14657 0.12239 0.0
Mn180 Mn 0.89341 0.72667 0.37627 0.0
Mn181 Mn 0.90546 0.68537 0.13754 0.0
C182 C 0.88774 0.6719 0.40278 0.0
C183 C 0.85621 0.73589 0.5204 0.0
C184 C 0.96158 0.74813 0.24781 0.0
O185 O 0.88347 0.74681 0.21704 0.0
O186 O 0.88823 0.71467 0.07393 0.0
C187 C 0.83736 0.64557 0.07697 0.0
N188 N 0.86655 0.64726 0.09212 0.0
C189 C 0.84122 0.58826 0.08795 0.0
C190 C 0.81167 0.5865 0.06347 0.0
C191 C 0.8095 0.61526 0.07104 0.0
C192 C 0.86896 0.61968 0.09976 0.0
H193 H 0.83509 0.66706 0.07655 0.0
C194 C 0.87918 0.73554 0.10641 0.0
O195 O 0.8869 0.75797 0.50386 0.0
O196 O 0.84857 0.71024 0.45793 0.0
N197 N 0.91902 0.65438 0.18843 0.0
C198 C 0.94309 0.65905 0.26715 0.0
C199 C 0.94717 0.63204 0.29973 0.0
C200 C 0.92466 0.60039 0.26392 0.0
C201 C 0.89771 0.59552 0.19724 0.0
C202 C 0.89695 0.62337 0.15242 0.0
H203 H 0.9582 0.68313 0.30569 0.0
O204 O 0.89518 0.69304 0.48892 0.0
O205 O 0.88649 0.68439 0.29945 0.0
O206 O 0.94463 0.75154 0.33339 0.0
O207 O 0.94887 0.72415 0.17351 0.0
C208 C 0.86991 0.56411 0.1871 0.0
C209 C 0.84204 0.56022 0.12703 0.0
H210 H 0.79045 0.56252 0.04896 0.0
H211 H 0.78658 0.61495 0.06844 0.0
H212 H 0.96709 0.63437 0.35479 0.0
H213 H 0.92728 0.57986 0.29473 0.0
H214 H 0.86947 0.54282 0.22772 0.0
H215 H 0.8203 0.53594 0.12238 0.0
Mn216 Mn 0.80678 0.72667 0.87625 0.0
Mn217 Mn 0.75343 0.68537 0.63754 0.0
C218 C 0.75768 0.6719 0.90278 0.0
C219 C 0.85319 0.73589 0.02041 0.0
C220 C 0.76006 0.74813 0.74785 0.0
O221 O 0.83687 0.74681 0.71703 0.0
O222 O 0.79996 0.71467 0.57391 0.0
C223 C 0.78173 0.64557 0.57696 0.0
N224 N 0.75423 0.64726 0.59212 0.0
C225 C 0.72056 0.58826 0.58796 0.0
C226 C 0.74834 0.5865 0.56347 0.0
C227 C 0.77927 0.61526 0.57103 0.0
C228 C 0.72423 0.61968 0.59977 0.0
H229 H 0.80549 0.66706 0.57653 0.0
C230 C 0.82987 0.73554 0.6064 0.0
O231 O 0.84459 0.75797 0.00385 0.0
O232 O 0.83519 0.71024 0.95791 0.0
N233 N 0.70889 0.65439 0.68845 0.0
C234 C 0.68948 0.65906 0.76718 0.0
C235 C 0.65839 0.63205 0.79976 0.0
C236 C 0.64925 0.6004 0.76394 0.0
C237 C 0.67133 0.59553 0.69726 0.0
C238 C 0.69994 0.62337 0.65243 0.0
H239 H 0.69845 0.68314 0.80571 0.0
O240 O 0.77138 0.69305 0.98892 0.0
O241 O 0.77142 0.6844 0.79945 0.0
O242 O 0.78043 0.75154 0.83338 0.0
O243 O 0.7488 0.72415 0.67353 0.0
C244 C 0.66771 0.56411 0.68711 0.0
C245 C 0.6917 0.56023 0.62704 0.0
H246 H 0.74559 0.56252 0.54897 0.0
H247 H 0.80188 0.61495 0.56842 0.0
H248 H 0.6408 0.63437 0.85483 0.0
H249 H 0.62609 0.57986 0.79476 0.0
H250 H 0.64686 0.54282 0.72773 0.0
H251 H 0.68915 0.53594 0.62239 0.0
Mn252 Mn 0.24021 0.07347 0.87625 0.0
Mn253 Mn 0.28151 0.06141 0.63754 0.0
C254 C 0.29497 0.07913 0.90277 0.0
C255 C 0.23099 0.11066 0.02041 0.0
C256 C 0.21875 0.00528 0.74785 0.0
O257 O 0.22007 0.08341 0.71703 0.0
O258 O 0.25221 0.07864 0.5739 0.0
C259 C 0.32131 0.12951 0.57695 0.0
N260 N 0.31962 0.10032 0.59211 0.0
C261 C 0.37861 0.12565 0.58795 0.0
C262 C 0.38038 0.1552 0.56346 0.0
C263 C 0.35161 0.15737 0.57102 0.0
C264 C 0.34719 0.09791 0.59976 0.0
H265 H 0.29981 0.13178 0.57653 0.0
C266 C 0.23133 0.08768 0.6064 0.0
O267 O 0.20891 0.07998 0.00384 0.0
O268 O 0.25664 0.11831 0.95791 0.0
N269 N 0.31249 0.04785 0.68844 0.0
C270 C 0.30782 0.02378 0.76717 0.0
C271 C 0.33483 0.01969 0.79976 0.0
C272 C 0.36648 0.04221 0.76394 0.0
C273 C 0.37135 0.06916 0.69725 0.0
C274 C 0.3435 0.06992 0.65242 0.0
H275 H 0.28374 0.00867 0.80571 0.0
O276 O 0.27383 0.07169 0.98891 0.0
O277 O 0.28248 0.08038 0.79944 0.0
O278 O 0.21534 0.02225 0.83338 0.0
O279 O 0.24272 0.018 0.67353 0.0
C280 C 0.40277 0.09696 0.6871 0.0
C281 C 0.40665 0.12482 0.62703 0.0
H282 H 0.40436 0.17642 0.54896 0.0
H283 H 0.35193 0.18029 0.56842 0.0
H284 H 0.3325 -0.00022 0.85482 0.0
H285 H 0.38701 0.03959 0.79475 0.0
H286 H 0.42405 0.09739 0.72772 0.0
H287 H 0.43093 0.14657 0.62238 0.0
Mn288 Mn 0.89341 0.1601 0.87625 0.0
Mn289 Mn 0.90547 0.21345 0.63754 0.0
C290 C 0.88775 0.2092 0.90278 0.0
C291 C 0.85621 0.11368 0.02041 0.0
C292 C 0.96159 0.20682 0.74785 0.0
O293 O 0.88346 0.13 0.71703 0.0
O294 O 0.88823 0.16692 0.57391 0.0
C295 C 0.83736 0.18515 0.57696 0.0
N296 N 0.86656 0.21265 0.59212 0.0
C297 C 0.84123 0.24632 0.58797 0.0
C298 C 0.81168 0.21854 0.56348 0.0
C299 C 0.80951 0.1876 0.57103 0.0
C300 C 0.86897 0.24264 0.59977 0.0
H301 H 0.8351 0.16139 0.57654 0.0
C302 C 0.87919 0.137 0.6064 0.0
O303 O 0.88689 0.12228 0.00384 0.0
O304 O 0.84857 0.13168 0.95791 0.0
N305 N 0.91903 0.25799 0.68845 0.0
C306 C 0.9431 0.2774 0.76717 0.0
C307 C 0.94719 0.30849 0.79976 0.0
C308 C 0.92468 0.31763 0.76394 0.0
C309 C 0.89772 0.29555 0.69727 0.0
C310 C 0.89696 0.26694 0.65244 0.0
H311 H 0.95821 0.26843 0.80571 0.0
O312 O 0.89519 0.19549 0.98892 0.0
O313 O 0.88649 0.19545 0.79945 0.0
O314 O 0.94462 0.18644 0.83338 0.0
O315 O 0.94888 0.21808 0.67353 0.0
C316 C 0.86992 0.29916 0.68712 0.0
C317 C 0.84206 0.27518 0.62705 0.0
H318 H 0.79046 0.22129 0.54898 0.0
H319 H 0.78659 0.165 0.56842 0.0
H320 H 0.9671 0.32608 0.85482 0.0
H321 H 0.9273 0.34078 0.79476 0.0
H322 H 0.86949 0.32002 0.72774 0.0
H323 H 0.82032 0.27772 0.62241 0.0
Mn324 Mn 0.72005 0.81339 0.62127 0.0
Mn325 Mn 0.67875 0.76003 0.85998 0.0
C326 C 0.66529 0.76429 0.59474 0.0
C327 C 0.72927 0.85981 0.47712 0.0
C328 C 0.74151 0.76668 0.74971 0.0
O329 O 0.7402 0.84348 0.7805 0.0
O330 O 0.70805 0.80656 0.92361 0.0
C331 C 0.63895 0.78834 0.92057 0.0
N332 N 0.64064 0.76084 0.9054 0.0
C333 C 0.58164 0.72717 0.90956 0.0
C334 C 0.57988 0.75495 0.93405 0.0
C335 C 0.60865 0.78589 0.9265 0.0
C336 C 0.61306 0.73084 0.89775 0.0
H337 H 0.66045 0.8121 0.92099 0.0
C338 C 0.72893 0.83648 0.89112 0.0
O339 O 0.75135 0.8512 0.49368 0.0
O340 O 0.70363 0.8418 0.53961 0.0
N341 N 0.64777 0.71549 0.80907 0.0
C342 C 0.65243 0.69609 0.73034 0.0
C343 C 0.62542 0.66499 0.69777 0.0
C344 C 0.59377 0.65586 0.73359 0.0
C345 C 0.58891 0.67794 0.80026 0.0
C346 C 0.61675 0.70654 0.84509 0.0
H347 H 0.67651 0.70505 0.6918 0.0
O348 O 0.68643 0.77799 0.5086 0.0
O349 O 0.67778 0.77803 0.69807 0.0
O350 O 0.74492 0.78704 0.66414 0.0
O351 O 0.71753 0.7554 0.82399 0.0
C352 C 0.55749 0.67432 0.81042 0.0
C353 C 0.55361 0.69831 0.87049 0.0
H354 H 0.5559 0.7522 0.94856 0.0
H355 H 0.60834 0.80849 0.92911 0.0
H356 H 0.62775 0.6474 0.64271 0.0
H357 H 0.57324 0.6327 0.70278 0.0
H358 H 0.5362 0.65346 0.76981 0.0
H359 H 0.52932 0.69577 0.87514 0.0
Mn360 Mn 0.15349 0.90002 0.62127 0.0
Mn361 Mn 0.20684 0.91207 0.85998 0.0
C362 C 0.20259 0.89435 0.59474 0.0
C363 C 0.10707 0.86283 0.47712 0.0
C364 C 0.2002 0.9682 0.74971 0.0
O365 O 0.1234 0.89007 0.7805 0.0
O366 O 0.16031 0.89484 0.92361 0.0
C367 C 0.17854 0.84397 0.92056 0.0
N368 N 0.20604 0.87316 0.9054 0.0
C369 C 0.2397 0.84783 0.90956 0.0
C370 C 0.21192 0.81828 0.93405 0.0
C371 C 0.18099 0.81611 0.92649 0.0
C372 C 0.23603 0.87558 0.89775 0.0
H373 H 0.15478 0.84171 0.92098 0.0
C374 C 0.1304 0.88581 0.89113 0.0
O375 O 0.11567 0.89351 0.49368 0.0
O376 O 0.12507 0.85518 0.53961 0.0
N377 N 0.25138 0.92563 0.80907 0.0
C378 C 0.27079 0.9497 0.73033 0.0
C379 C 0.30188 0.95378 0.69776 0.0
C380 C 0.31102 0.93127 0.73359 0.0
C381 C 0.28893 0.90432 0.80027 0.0
C382 C 0.26033 0.90356 0.84509 0.0
H383 H 0.26182 0.96481 0.69179 0.0
O384 O 0.18889 0.9018 0.5086 0.0
O385 O 0.18884 0.8931 0.69807 0.0
O386 O 0.17983 0.95124 0.66414 0.0
O387 O 0.21147 0.95549 0.82399 0.0
C388 C 0.29255 0.87652 0.81043 0.0
C389 C 0.26856 0.84865 0.87049 0.0
H390 H 0.21467 0.79706 0.94855 0.0
H391 H 0.15838 0.79319 0.9291 0.0
H392 H 0.31947 0.9737 0.6427 0.0
H393 H 0.33417 0.9339 0.70278 0.0
H394 H 0.31341 0.87609 0.76982 0.0
H395 H 0.27111 0.82691 0.87514 0.0
Mn396 Mn 0.06686 0.24682 0.62127 0.0
Mn397 Mn 0.0548 0.28812 0.85998 0.0
C398 C 0.07252 0.30159 0.59474 0.0
C399 C 0.10405 0.2376 0.47711 0.0
C400 C -0.00132 0.22536 0.74971 0.0
O401 O 0.0768 0.22668 0.7805 0.0
O402 O 0.07203 0.25882 0.92362 0.0
C403 C 0.12291 0.32792 0.92057 0.0
N404 N 0.09372 0.32623 0.90541 0.0
C405 C 0.11905 0.38523 0.90958 0.0
C406 C 0.14859 0.38699 0.93406 0.0
C407 C 0.15076 0.35823 0.9265 0.0
C408 C 0.0913 0.35381 0.89776 0.0
H409 H 0.12517 0.30642 0.92099 0.0
C410 C 0.08107 0.23795 0.89113 0.0
O411 O 0.07337 0.21552 0.49368 0.0
O412 O 0.1117 0.26325 0.53961 0.0
N413 N 0.04125 0.31911 0.80908 0.0
C414 C 0.01718 0.31444 0.73034 0.0
C415 C 0.0131 0.34145 0.69777 0.0
C416 C 0.03561 0.3731 0.7336 0.0
C417 C 0.06256 0.37797 0.80028 0.0
C418 C 0.06332 0.35012 0.8451 0.0
H419 H 0.00207 0.29036 0.6918 0.0
O420 O 0.06508 0.28044 0.50861 0.0
O421 O 0.07377 0.2891 0.69808 0.0
O422 O 0.01564 0.22195 0.66414 0.0
O423 O 0.01139 0.24934 0.824 0.0
C424 C 0.09036 0.40939 0.81044 0.0
C425 C 0.11822 0.41327 0.8705 0.0
H426 H 0.16982 0.41097 0.94856 0.0
H427 H 0.17368 0.35854 0.92911 0.0
H428 H -0.00682 0.33913 0.64271 0.0
H429 H 0.03299 0.39363 0.70279 0.0
H430 H 0.09079 0.43068 0.76982 0.0
H431 H 0.13997 0.43755 0.87515 0.0
Mn432 Mn 0.82009 0.58011 0.45521 0.0
Mn433 Mn 0.87348 0.6214 0.69383 0.0
C434 C 0.86916 0.63486 0.42861 0.0
C435 C 0.77364 0.57085 0.31121 0.0
C436 C 0.86686 0.55867 0.58328 0.0
O437 O 0.79003 0.55994 0.61449 0.0
O438 O 0.82697 0.59207 0.75754 0.0
C439 C 0.84514 0.66115 0.75464 0.0
N440 N 0.87265 0.65948 0.73944 0.0
C441 C 0.90629 0.71848 0.74377 0.0
C442 C 0.87849 0.72022 0.76837 0.0
C443 C 0.84757 0.69144 0.7607 0.0
C444 C 0.90264 0.68707 0.73182 0.0
H445 H 0.82139 0.63965 0.75498 0.0
C446 C 0.79704 0.5712 0.72512 0.0
O447 O 0.78227 0.54879 0.32767 0.0
O448 O 0.79163 0.5965 0.37371 0.0
N449 N 0.91801 0.65242 0.6429 0.0
C450 C 0.93742 0.64779 0.56407 0.0
C451 C 0.9685 0.67482 0.53149 0.0
C452 C 0.97761 0.70646 0.56738 0.0
C453 C 0.95552 0.71129 0.6342 0.0
C454 C 0.92694 0.68342 0.67905 0.0
H455 H 0.92847 0.62372 0.52543 0.0
O456 O 0.85547 0.61372 0.34246 0.0
O457 O 0.85545 0.62238 0.53201 0.0
O458 O 0.84645 0.55525 0.49787 0.0
O459 O 0.87814 0.58264 0.65761 0.0
C460 C 0.9591 0.74269 0.64444 0.0
C461 C 0.93513 0.74654 0.70469 0.0
H462 H 0.88124 0.74418 0.78302 0.0
H463 H 0.82496 0.69175 0.76328 0.0
H464 H -0.0139 0.67253 0.47634 0.0
H465 H 0.00074 0.72701 0.53651 0.0
H466 H 0.97993 0.76399 0.60376 0.0
H467 H 0.93765 0.77081 0.70943 0.0
Mn468 Mn 0.38677 0.23334 0.45521 0.0
Mn469 Mn 0.34548 0.24544 0.69383 0.0
C470 C 0.33202 0.22765 0.42862 0.0
C471 C 0.39602 0.19614 0.31121 0.0
C472 C 0.4082 0.30154 0.58328 0.0
O473 O 0.40694 0.22345 0.61448 0.0
O474 O 0.37481 0.22826 0.75754 0.0
C475 C 0.30573 0.17735 0.75465 0.0
N476 N 0.30739 0.20653 0.73944 0.0
C477 C 0.2484 0.18116 0.74377 0.0
C478 C 0.24666 0.15163 0.76837 0.0
C479 C 0.27543 0.14948 0.7607 0.0
C480 C 0.2798 0.20892 0.73182 0.0
H481 H 0.32723 0.1751 0.75498 0.0
C482 C 0.39568 0.2192 0.72512 0.0
O483 O 0.41808 0.22683 0.32767 0.0
O484 O 0.37037 0.18849 0.3737 0.0
N485 N 0.31446 0.25895 0.64291 0.0
C486 C 0.31909 0.28299 0.56407 0.0
C487 C 0.29206 0.28703 0.53149 0.0
C488 C 0.26042 0.26451 0.56738 0.0
C489 C 0.25559 0.23759 0.6342 0.0
C490 C 0.28346 0.23688 0.67906 0.0
H491 H 0.34315 0.2981 0.52542 0.0
O492 O 0.35316 0.2351 0.34246 0.0
O493 O 0.34449 0.22642 0.53201 0.0
O494 O 0.41162 0.28455 0.49787 0.0
O495 O 0.38423 0.28885 0.65761 0.0
C496 C 0.22419 0.20977 0.64444 0.0
C497 C 0.22034 0.18194 0.70469 0.0
H498 H 0.22269 0.13041 0.78302 0.0
H499 H 0.27513 0.12656 0.76327 0.0
H500 H 0.29434 0.30692 0.47635 0.0
H501 H 0.23987 0.26708 0.53651 0.0
H502 H 0.20289 0.2093 0.60377 0.0
H503 H 0.19607 0.16019 0.70944 0.0
Mn504 Mn 0.73354 0.14678 0.45522 0.0
Mn505 Mn 0.72144 0.09339 0.69384 0.0
C506 C 0.73922 0.09772 0.42862 0.0
C507 C 0.77074 0.19324 0.31122 0.0
C508 C 0.66533 0.10002 0.58328 0.0
O509 O 0.74343 0.17684 0.61449 0.0
O510 O 0.73862 0.13991 0.75755 0.0
C511 C 0.78953 0.12173 0.75465 0.0
N512 N 0.76035 0.09422 0.73944 0.0
C513 C 0.78571 0.06059 0.74377 0.0
C514 C 0.81524 0.08838 0.76837 0.0
C515 C 0.81739 0.1193 0.76071 0.0
C516 C 0.75795 0.06424 0.73182 0.0
H517 H 0.79178 0.14548 0.75498 0.0
C518 C 0.74768 0.16983 0.72513 0.0
O519 O 0.74004 0.18461 0.32768 0.0
O520 O 0.77839 0.17525 0.37372 0.0
N521 N 0.70792 0.04886 0.64291 0.0
C522 C 0.68388 0.02945 0.56408 0.0
C523 C 0.67984 -0.00163 0.5315 0.0
C524 C 0.70236 -0.01074 0.56739 0.0
C525 C 0.72928 0.01135 0.6342 0.0
C526 C 0.72999 0.03993 0.67906 0.0
H527 H 0.66877 0.03841 0.52543 0.0
O528 O 0.73178 0.11141 0.34246 0.0
O529 O 0.74045 0.11143 0.53202 0.0
O530 O 0.68232 0.12043 0.49787 0.0
O531 O 0.67802 0.08874 0.65762 0.0
C532 C 0.7571 0.00777 0.64443 0.0
C533 C 0.78493 0.03175 0.70468 0.0
H534 H 0.83646 0.08563 0.78301 0.0
H535 H 0.84031 0.14192 0.76328 0.0
H536 H 0.65995 0.98077 0.47635 0.0
H537 H 0.69979 0.96613 0.53651 0.0
H538 H 0.75757 -0.01306 0.60376 0.0
H539 H 0.80668 0.02923 0.70943 0.0
Mn540 Mn 0.90686 0.4934 0.70946 0.0
Mn541 Mn 0.94812 0.54676 0.47072 0.0
C542 C 0.96162 0.54251 0.7359 0.0
C543 C 0.89761 0.44697 0.85355 0.0
C544 C 0.88539 0.54012 0.58124 0.0
O545 O 0.8867 0.46331 0.55024 0.0
O546 O 0.91881 0.50023 0.40712 0.0
C547 C -0.01209 0.51845 0.40995 0.0
N548 N -0.01378 0.54595 0.42514 0.0
C549 C 0.04522 0.57962 0.42073 0.0
C550 C 0.04697 0.55183 0.39621 0.0
C551 C 0.01821 0.5209 0.40386 0.0
C552 C 0.0138 0.57594 0.43269 0.0
H553 H 0.96642 0.49469 0.40966 0.0
C554 C 0.89796 0.47031 0.4396 0.0
O555 O 0.87555 0.4556 0.83707 0.0
O556 O 0.92326 0.46496 0.79104 0.0
N557 N 0.97912 0.5913 0.52155 0.0
C558 C 0.97448 0.61071 0.60032 0.0
C559 C 0.0015 0.64181 0.6328 0.0
C560 C 0.03314 0.65095 0.59682 0.0
C561 C 0.03799 0.62886 0.53009 0.0
C562 C 0.01013 0.60025 0.48538 0.0
H563 H 0.95042 0.60175 0.63897 0.0
O564 O 0.94049 0.5288 0.82209 0.0
O565 O 0.94912 0.52876 0.63259 0.0
O566 O 0.88199 0.51975 0.66675 0.0
O567 O 0.90936 0.5514 0.50688 0.0
C568 C 0.0694 0.63248 0.51978 0.0
C569 C 0.07326 0.60848 0.45968 0.0
H570 H 0.07095 0.55459 0.38161 0.0
H571 H 0.01853 0.49829 0.40126 0.0
H572 H -0.0008 0.6594 0.68794 0.0
H573 H 0.05368 0.6741 0.62758 0.0
H574 H 0.0907 0.65334 0.56032 0.0
H575 H 0.09755 0.61103 0.45492 0.0
Mn576 Mn 0.47347 0.40681 0.70946 0.0
Mn577 Mn 0.42012 0.39472 0.47071 0.0
C578 C 0.42437 0.41247 0.7359 0.0
C579 C 0.5199 0.444 0.85355 0.0
C580 C 0.42675 0.33862 0.58124 0.0
O581 O 0.50356 0.41674 0.55023 0.0
O582 O 0.46664 0.41193 0.40712 0.0
C583 C 0.44843 0.46282 0.40995 0.0
N584 N 0.42093 0.43363 0.42514 0.0
C585 C 0.38726 0.45895 0.42073 0.0
C586 C 0.41505 0.4885 0.39621 0.0
C587 C 0.44598 0.49067 0.40386 0.0
C588 C 0.39093 0.43121 0.43268 0.0
H589 H 0.47219 0.46508 0.40966 0.0
C590 C 0.49656 0.421 0.4396 0.0
O591 O 0.51128 0.4133 0.83706 0.0
O592 O 0.50191 0.45165 0.79104 0.0
N593 N 0.37558 0.38118 0.52155 0.0
C594 C 0.35616 0.35712 0.60032 0.0
C595 C 0.32507 0.35305 0.63281 0.0
C596 C 0.31593 0.37555 0.59682 0.0
C597 C 0.33802 0.40248 0.53008 0.0
C598 C 0.36663 0.40324 0.48537 0.0
H599 H 0.36512 0.34202 0.63898 0.0
O600 O 0.43807 0.40504 0.82208 0.0
O601 O 0.43812 0.41372 0.63258 0.0
O602 O 0.44713 0.3556 0.66674 0.0
O603 O 0.41548 0.35131 0.50688 0.0
C604 C 0.3344 0.43028 0.51977 0.0
C605 C 0.35839 0.45813 0.45968 0.0
H606 H 0.41229 0.50972 0.38161 0.0
H607 H 0.46858 0.5136 0.40126 0.0
H608 H 0.30748 0.33315 0.68795 0.0
H609 H 0.29278 0.37294 0.62758 0.0
H610 H 0.31354 0.43072 0.56031 0.0
H611 H 0.35585 0.47987 0.45491 0.0
Mn612 Mn 0.56007 0.06002 0.70946 0.0
Mn613 Mn 0.57215 0.01875 0.47071 0.0
C614 C 0.55441 0.00526 0.73589 0.0
C615 C 0.52288 0.06926 0.85355 0.0
C616 C 0.62825 0.08148 0.58124 0.0
O617 O 0.55014 0.08018 0.55024 0.0
O618 O 0.55494 0.04806 0.40712 0.0
C619 C 0.50406 0.97897 0.40995 0.0
N620 N 0.53325 0.98066 0.42513 0.0
C621 C 0.50792 0.92166 0.42072 0.0
C622 C 0.47838 0.9199 0.3962 0.0
C623 C 0.4762 0.94866 0.40385 0.0
C624 C 0.53566 0.95308 0.43267 0.0
H625 H 0.50179 0.00046 0.40966 0.0
C626 C 0.54588 0.06892 0.4396 0.0
O627 O 0.55357 0.09133 0.83707 0.0
O628 O 0.51522 0.04362 0.79104 0.0
N629 N 0.5857 -0.01225 0.52154 0.0
C630 C 0.60975 -0.0076 0.60031 0.0
C631 C 0.61382 0.96537 0.6328 0.0
C632 C 0.59132 0.93374 0.59682 0.0
C633 C 0.56439 0.92889 0.53007 0.0
C634 C 0.56364 0.95675 0.48537 0.0
H635 H 0.62485 0.01646 0.63897 0.0
O636 O 0.56183 0.02639 0.82208 0.0
O637 O 0.55316 0.01776 0.63258 0.0
O638 O 0.61128 0.08489 0.66675 0.0
O639 O 0.61556 0.05752 0.50688 0.0
C640 C 0.53659 0.89747 0.51977 0.0
C641 C 0.50874 0.89361 0.45967 0.0
H642 H 0.45716 0.89593 0.3816 0.0
H643 H 0.45328 0.94834 0.40125 0.0
H644 H 0.63372 0.96767 0.68794 0.0
H645 H 0.59393 0.91319 0.62758 0.0
H646 H 0.53615 0.87617 0.56031 0.0
H647 H 0.487 0.86933 0.4549 0.0
Mn648 Mn 0.47347 0.06002 0.20945 0.0
Mn649 Mn 0.42012 0.01875 0.97071 0.0
C650 C 0.42437 0.00526 0.23589 0.0
C651 C 0.51989 0.06926 0.35356 0.0
C652 C 0.42674 0.08148 0.08128 0.0
O653 O 0.50356 0.08018 0.05023 0.0
O654 O 0.46664 0.04806 0.90709 0.0
C655 C 0.44843 0.97897 0.90994 0.0
N656 N 0.42093 0.98065 0.92512 0.0
C657 C 0.38726 0.92166 0.92072 0.0
C658 C 0.41505 0.9199 0.8962 0.0
C659 C 0.44598 0.94866 0.90384 0.0
C660 C 0.39093 0.95307 0.93268 0.0
H661 H 0.47219 0.00046 0.90964 0.0
C662 C 0.49656 0.06893 0.93959 0.0
O663 O 0.51127 0.09133 0.33705 0.0
O664 O 0.50191 0.04361 0.29102 0.0
N665 N 0.37557 -0.01225 0.02155 0.0
C666 C 0.35616 -0.00761 0.10032 0.0
C667 C 0.32507 0.96537 0.13281 0.0
C668 C 0.31593 0.93373 0.09683 0.0
C669 C 0.33802 0.92888 0.03008 0.0
C670 C 0.36663 0.95674 0.98538 0.0
H671 H 0.36512 0.01646 0.13898 0.0
O672 O 0.43807 0.02639 0.32207 0.0
O673 O 0.43812 0.01775 0.13258 0.0
O674 O 0.44713 0.08488 0.16674 0.0
O675 O 0.41548 0.05752 0.0069 0.0
C676 C 0.3344 0.89747 0.01977 0.0
C677 C 0.35839 0.89361 0.95967 0.0
H678 H 0.41229 0.89593 0.88161 0.0
H679 H 0.46858 0.94834 0.90124 0.0
H680 H 0.30747 0.96767 0.18796 0.0
H681 H 0.29278 0.91319 0.12758 0.0
H682 H 0.31354 0.87617 0.0603 0.0
H683 H 0.35585 0.86933 0.9549 0.0
Mn684 Mn 0.90686 0.40681 0.20945 0.0
Mn685 Mn 0.94813 0.39472 0.97071 0.0
C686 C 0.96162 0.41247 0.23589 0.0
C687 C 0.89762 0.44399 0.35356 0.0
C688 C 0.8854 0.33862 0.08128 0.0
O689 O 0.8867 0.41674 0.05023 0.0
O690 O 0.91881 0.41193 0.90709 0.0
C691 C -0.01209 0.46282 0.90993 0.0
N692 N -0.01378 0.43363 0.92512 0.0
C693 C 0.04522 0.45896 0.92071 0.0
C694 C 0.04697 0.4885 0.89619 0.0
C695 C 0.01821 0.49067 0.90384 0.0
C696 C 0.0138 0.43121 0.93267 0.0
H697 H 0.96641 0.46508 0.90964 0.0
C698 C 0.89795 0.42098 0.93959 0.0
O699 O 0.87555 0.4133 0.33705 0.0
O700 O 0.92326 0.45165 0.29103 0.0
N701 N 0.97913 0.38118 0.02155 0.0
C702 C 0.97448 0.35712 0.10032 0.0
C703 C 0.00151 0.35305 0.13281 0.0
C704 C 0.03314 0.37555 0.09682 0.0
C705 C 0.03799 0.40249 0.03008 0.0
C706 C 0.01013 0.40324 0.98537 0.0
H707 H 0.95042 0.34202 0.13898 0.0
O708 O 0.94049 0.40504 0.32207 0.0
O709 O 0.94913 0.41372 0.13257 0.0
O710 O 0.88199 0.3556 0.16674 0.0
O711 O 0.90936 0.35131 0.0069 0.0
C712 C 0.0694 0.43029 0.01977 0.0
C713 C 0.07326 0.45814 0.95967 0.0
H714 H 0.07095 0.50972 0.8816 0.0
H715 H 0.01853 0.51359 0.90124 0.0
H716 H -0.00079 0.33316 0.18795 0.0
H717 H 0.05369 0.37294 0.12758 0.0
H718 H 0.0907 0.43073 0.0603 0.0
H719 H 0.09755 0.47988 0.9549 0.0
Mn720 Mn 0.56006 0.4934 0.20944 0.0
Mn721 Mn 0.57216 0.54676 0.97071 0.0
C722 C 0.55441 0.54251 0.23589 0.0
C723 C 0.52288 0.44698 0.35356 0.0
C724 C 0.62826 0.54014 0.08128 0.0
O725 O 0.55013 0.46331 0.05023 0.0
O726 O 0.55495 0.50024 0.90709 0.0
C727 C 0.50406 0.51845 0.90993 0.0
N728 N 0.53325 0.54595 0.92512 0.0
C729 C 0.50792 0.57962 0.92072 0.0
C730 C 0.47838 0.55183 0.8962 0.0
C731 C 0.47621 0.5209 0.90384 0.0
C732 C 0.53567 0.57595 0.93268 0.0
H733 H 0.5018 0.49469 0.90964 0.0
C734 C 0.54589 0.47032 0.93958 0.0
O735 O 0.55357 0.4556 0.33704 0.0
O736 O 0.51522 0.46496 0.29102 0.0
N737 N 0.5857 0.5913 0.02155 0.0
C738 C 0.60975 0.61072 0.10032 0.0
C739 C 0.61383 0.64181 0.13281 0.0
C740 C 0.59133 0.65095 0.09683 0.0
C741 C 0.56439 0.62886 0.03009 0.0
C742 C 0.56364 0.60025 0.98538 0.0
H743 H 0.62486 0.60176 0.13897 0.0
O744 O 0.56183 0.5288 0.32207 0.0
O745 O 0.55315 0.52876 0.13257 0.0
O746 O 0.61127 0.51974 0.16673 0.0
O747 O 0.61556 0.5514 0.0069 0.0
C748 C 0.5366 0.63248 0.01978 0.0
C749 C 0.50874 0.60848 0.95968 0.0
H750 H 0.45716 0.55458 0.88161 0.0
H751 H 0.45329 0.49829 0.90124 0.0
H752 H 0.63372 0.65941 0.18795 0.0
H753 H 0.59394 0.6741 0.12759 0.0
H754 H 0.53616 0.65334 0.06032 0.0
H755 H 0.487 0.61103 0.95492 0.0
Mn756 Mn 0.38677 0.14678 0.95522 0.0
Mn757 Mn 0.34547 0.09338 0.19384 0.0
C758 C 0.33201 0.09771 0.92862 0.0
C759 C 0.39602 0.19323 0.8112 0.0
C760 C 0.4082 0.10002 0.08332 0.0
O761 O 0.40694 0.17684 0.11449 0.0
O762 O 0.3748 0.1399 0.25757 0.0
C763 C 0.30572 0.12173 0.25466 0.0
N764 N 0.30739 0.09422 0.23944 0.0
C765 C 0.24839 0.06059 0.24376 0.0
C766 C 0.24666 0.08838 0.26837 0.0
C767 C 0.27543 0.1193 0.26072 0.0
C768 C 0.27979 0.06423 0.23181 0.0
H769 H 0.32723 0.14548 0.25499 0.0
C770 C 0.39568 0.16982 0.22513 0.0
O771 O 0.41808 0.1846 0.82768 0.0
O772 O 0.37037 0.17524 0.87372 0.0
N773 N 0.31445 0.04886 0.1429 0.0
C774 C 0.31908 0.02944 0.06408 0.0
C775 C 0.29205 -0.00164 0.03151 0.0
C776 C 0.26041 -0.01074 0.06739 0.0
C777 C 0.25558 0.01135 0.13419 0.0
C778 C 0.28345 0.03993 0.17905 0.0
H779 H 0.34314 0.0384 0.02545 0.0
O780 O 0.35315 0.1114 0.84246 0.0
O781 O 0.34449 0.11142 0.03202 0.0
O782 O 0.41162 0.12042 0.99788 0.0
O783 O 0.38422 0.08873 0.15763 0.0
C784 C 0.22418 0.00777 0.14442 0.0
C785 C 0.22033 0.03175 0.20467 0.0
H786 H 0.22269 0.08564 0.28302 0.0
H787 H 0.27513 0.14192 0.2633 0.0
H788 H 0.29433 0.98076 0.97637 0.0
H789 H 0.23985 0.96612 0.03652 0.0
H790 H 0.20288 -0.01306 0.10375 0.0
H791 H 0.19606 0.02923 0.20942 0.0
Mn792 Mn 0.8201 0.23334 0.95523 0.0
Mn793 Mn 0.87349 0.24544 0.19385 0.0
C794 C 0.86916 0.22766 0.92863 0.0
C795 C 0.77365 0.19615 0.81121 0.0
C796 C 0.86686 0.30154 0.08333 0.0
O797 O 0.79004 0.22345 0.11451 0.0
O798 O 0.82698 0.22826 0.25757 0.0
C799 C 0.84515 0.17735 0.25466 0.0
N800 N 0.87266 0.20652 0.23945 0.0
C801 C 0.90629 0.18116 0.24377 0.0
C802 C 0.87849 0.15163 0.26837 0.0
C803 C 0.84757 0.14948 0.26072 0.0
C804 C 0.90264 0.20891 0.23182 0.0
H805 H 0.8214 0.1751 0.255 0.0
C806 C 0.79706 0.21922 0.22515 0.0
O807 O 0.78228 0.22684 0.82769 0.0
O808 O 0.79164 0.18849 0.87372 0.0
N809 N 0.91802 0.25895 0.14291 0.0
C810 C 0.93743 0.28299 0.06409 0.0
C811 C 0.96851 0.28703 0.03151 0.0
C812 C 0.97762 0.2645 0.0674 0.0
C813 C 0.95553 0.23758 0.1342 0.0
C814 C 0.92695 0.23687 0.17906 0.0
H815 H 0.92848 0.2981 0.02545 0.0
O816 O 0.85547 0.2351 0.84247 0.0
O817 O 0.85546 0.22642 0.03202 0.0
O818 O 0.84646 0.28456 0.99789 0.0
O819 O 0.87815 0.28885 0.15763 0.0
C820 C 0.95911 0.20976 0.14444 0.0
C821 C 0.93513 0.18194 0.20468 0.0
H822 H 0.88124 0.1304 0.28302 0.0
H823 H 0.82496 0.12656 0.2633 0.0
H824 H -0.01389 0.30692 0.97637 0.0
H825 H 0.00075 0.26708 0.03653 0.0
H826 H 0.97994 0.20929 0.10377 0.0
H827 H 0.93764 0.16018 0.20943 0.0
Mn828 Mn 0.73353 0.58011 0.95522 0.0
Mn829 Mn 0.72144 0.62141 0.19385 0.0
C830 C 0.73922 0.63486 0.92863 0.0
C831 C 0.77072 0.57085 0.8112 0.0
C832 C 0.66534 0.55867 0.08332 0.0
O833 O 0.74342 0.55994 0.1145 0.0
O834 O 0.73861 0.59207 0.25757 0.0
C835 C 0.78953 0.66115 0.25467 0.0
N836 N 0.76035 0.65949 0.23945 0.0
C837 C 0.78572 0.71849 0.24378 0.0
C838 C 0.81525 0.72022 0.26838 0.0
C839 C 0.81739 0.69145 0.26073 0.0
C840 C 0.75796 0.68708 0.23183 0.0
H841 H 0.79177 0.63965 0.255 0.0
C842 C 0.74766 0.57119 0.22514 0.0
O843 O 0.74003 0.54879 0.82768 0.0
O844 O 0.77838 0.5965 0.87372 0.0
N845 N 0.70793 0.65243 0.14292 0.0
C846 C 0.68389 0.6478 0.06409 0.0
C847 C 0.67985 0.67483 0.03152 0.0
C848 C 0.70238 0.70647 0.0674 0.0
C849 C 0.72929 0.7113 0.13421 0.0
C850 C 0.73 0.68343 0.17907 0.0
H851 H 0.66878 0.62373 0.02545 0.0
O852 O 0.73177 0.61372 0.84247 0.0
O853 O 0.74045 0.62239 0.03202 0.0
O854 O 0.68232 0.55525 0.99789 0.0
O855 O 0.67803 0.58265 0.15764 0.0
C856 C 0.75711 0.7427 0.14444 0.0
C857 C 0.78494 0.74654 0.20469 0.0
H858 H 0.83647 0.74419 0.28303 0.0
H859 H 0.84031 0.69175 0.2633 0.0
H860 H 0.65996 0.67255 0.97637 0.0
H861 H 0.6998 0.72702 0.03653 0.0
H862 H 0.75759 0.764 0.10377 0.0
H863 H 0.8067 0.77082 0.20944 0.0
Mn864 Mn 0.48678 0.91346 0.78811 0.0
Mn865 Mn 0.54014 0.95473 0.02684 0.0
C866 C 0.53584 0.96821 0.76164 0.0
C867 C 0.44034 0.90421 0.64405 0.0
C868 C 0.53352 0.89201 0.91625 0.0
O869 O 0.4567 0.89329 0.94734 0.0
O870 O 0.49362 0.92541 0.09046 0.0
C871 C 0.51182 -0.0055 0.08765 0.0
N872 N 0.53932 -0.00718 0.07245 0.0
C873 C 0.57299 0.05182 0.07688 0.0
C874 C 0.5452 0.05357 0.10142 0.0
C875 C 0.51427 0.02481 0.09376 0.0
C876 C 0.56932 0.0204 0.0649 0.0
H877 H 0.48807 0.97301 0.08793 0.0
C878 C 0.4637 0.90455 0.05798 0.0
O879 O 0.44898 0.88215 0.66052 0.0
O880 O 0.45833 0.92985 0.70657 0.0
N881 N 0.58468 0.98574 0.97598 0.0
C882 C 0.60409 0.9811 0.89719 0.0
C883 C 0.63519 0.00812 0.86471 0.0
C884 C 0.64432 0.03976 0.90073 0.0
C885 C 0.62223 0.0446 0.96749 0.0
C886 C 0.59362 0.01674 0.01219 0.0
H887 H 0.59513 0.95704 0.85852 0.0
O888 O 0.52217 0.94708 0.67544 0.0
O889 O 0.52213 0.95572 0.865 0.0
O890 O 0.51313 0.8886 0.8308 0.0
O891 O 0.54478 0.91596 0.99063 0.0
C892 C 0.62585 0.07601 0.97782 0.0
C893 C 0.60185 0.07987 0.03794 0.0
H894 H 0.54795 0.07754 0.11605 0.0
H895 H 0.49166 0.02512 0.09636 0.0
H896 H 0.65278 0.00583 0.80956 0.0
H897 H 0.66747 0.06031 0.86997 0.0
H898 H 0.64671 0.09732 0.93729 0.0
H899 H 0.60439 0.10415 0.04273 0.0
Mn900 Mn 0.05342 0.56667 0.78812 0.0
Mn901 Mn 0.01215 0.57877 0.02684 0.0
C902 C -0.00134 0.56099 0.76165 0.0
C903 C 0.06267 0.52949 0.64405 0.0
C904 C 0.07487 0.63487 0.91625 0.0
O905 O 0.07358 0.55676 0.94734 0.0
O906 O 0.04146 0.56157 0.09046 0.0
C907 C 0.97237 0.51067 0.08765 0.0
N908 N 0.97405 0.53986 0.07245 0.0
C909 C 0.91506 0.51453 0.07689 0.0
C910 C 0.91331 0.48499 0.10143 0.0
C911 C 0.94207 0.48282 0.09377 0.0
C912 C 0.94647 0.54227 0.06491 0.0
H913 H -0.00613 0.50841 0.08794 0.0
C914 C 0.06232 0.5525 0.05798 0.0
O915 O 0.08473 0.56018 0.66052 0.0
O916 O 0.03702 0.52183 0.70657 0.0
N917 N -0.01886 0.5923 0.97599 0.0
C918 C -0.01422 0.61635 0.8972 0.0
C919 C 0.95875 0.62042 0.86472 0.0
C920 C 0.92712 0.59792 0.90073 0.0
C921 C 0.92228 0.57099 0.9675 0.0
C922 C 0.95014 0.57024 0.0122 0.0
H923 H 0.00984 0.63145 0.85852 0.0
O924 O 0.01979 0.56844 0.67544 0.0
O925 O 0.01115 0.55976 0.86501 0.0
O926 O 0.07828 0.61789 0.8308 0.0
O927 O 0.05091 0.62218 0.99063 0.0
C928 C 0.89087 0.54319 0.97783 0.0
C929 C 0.88701 0.51534 0.03795 0.0
H930 H 0.88933 0.46377 0.11606 0.0
H931 H 0.94175 0.45989 0.09636 0.0
H932 H 0.96105 0.64031 0.80957 0.0
H933 H 0.90657 0.60052 0.86997 0.0
H934 H 0.86956 0.54274 0.9373 0.0
H935 H 0.86273 0.4936 0.04274 0.0
Mn936 Mn 0.4002 0.4801 0.78812 0.0
Mn937 Mn 0.38811 0.42673 0.02684 0.0
C938 C 0.40589 0.43103 0.76165 0.0
C939 C 0.43739 0.52653 0.64405 0.0
C940 C 0.33201 0.43335 0.91625 0.0
O941 O 0.41012 0.51018 0.94735 0.0
O942 O 0.40531 0.47325 0.09046 0.0
C943 C 0.4562 0.45505 0.08765 0.0
N944 N 0.42701 0.42755 0.07245 0.0
C945 C 0.45235 0.39389 0.07688 0.0
C946 C 0.48189 0.42167 0.10142 0.0
C947 C 0.48405 0.4526 0.09376 0.0
C948 C 0.4246 0.39755 0.0649 0.0
H949 H 0.45846 0.47881 0.08793 0.0
C950 C 0.41438 0.50318 0.05799 0.0
O951 O 0.40669 0.5179 0.66053 0.0
O952 O 0.44505 0.50855 0.70658 0.0
N953 N 0.37457 0.38219 0.97599 0.0
C954 C 0.35052 0.36278 0.8972 0.0
C955 C 0.34645 0.33169 0.86472 0.0
C956 C 0.36895 0.32255 0.90073 0.0
C957 C 0.39588 0.34464 0.96749 0.0
C958 C 0.39663 0.37325 0.01219 0.0
H959 H 0.33542 0.37174 0.85852 0.0
O960 O 0.39844 0.44471 0.67545 0.0
O961 O 0.40712 0.44475 0.86501 0.0
O962 O 0.34899 0.45375 0.83081 0.0
O963 O 0.3447 0.42209 0.99063 0.0
C964 C 0.42368 0.34103 0.97781 0.0
C965 C 0.45153 0.36502 0.03793 0.0
H966 H 0.5031 0.41892 0.11605 0.0
H967 H 0.50698 0.47521 0.09636 0.0
H968 H 0.32656 0.31409 0.80957 0.0
H969 H 0.36635 0.2994 0.86997 0.0
H970 H 0.42413 0.32017 0.93728 0.0
H971 H 0.47327 0.36248 0.04272 0.0
Mn972 Mn 0.5735 0.82671 0.04232 0.0
Mn973 Mn 0.61479 0.8801 0.80369 0.0
C974 C 0.62825 0.87577 0.06891 0.0
C975 C 0.56424 0.78025 0.18632 0.0
C976 C 0.55206 0.87347 0.91421 0.0
O977 O 0.55333 0.79665 0.88304 0.0
O978 O 0.58546 0.83358 0.73998 0.0
C979 C 0.65454 0.85176 0.74288 0.0
N980 N 0.65287 0.87927 0.75809 0.0
C981 C 0.71187 0.9129 0.75378 0.0
C982 C 0.71361 0.88511 0.72917 0.0
C983 C 0.68483 0.85418 0.73683 0.0
C984 C 0.68047 0.90925 0.76572 0.0
H985 H 0.63304 0.82801 0.74255 0.0
C986 C 0.56459 0.80366 0.77241 0.0
O987 O 0.54218 0.78889 0.16986 0.0
O988 O 0.58989 0.79825 0.12382 0.0
N989 N 0.64581 0.92463 0.85461 0.0
C990 C 0.64118 0.94404 0.93341 0.0
C991 C 0.66821 0.97512 0.96598 0.0
C992 C 0.69985 0.98423 0.93012 0.0
C993 C 0.70468 0.96214 0.86333 0.0
C994 C 0.67681 0.93356 0.81848 0.0
H995 H 0.61711 0.93509 0.97204 0.0
O996 O 0.60711 0.86208 0.15507 0.0
O997 O 0.61577 0.86207 0.96551 0.0
O998 O 0.54864 0.85307 -0.00034 0.0
O999 O 0.57603 0.88475 0.8399 0.0
C1000 C 0.73608 0.96572 0.85311 0.0
C1001 C 0.73993 0.94174 0.79287 0.0
H1002 H 0.73757 0.88785 0.71453 0.0
H1003 H 0.68514 0.83157 0.73425 0.0
H1004 H 0.66592 -0.00727 0.02111 0.0
H1005 H 0.7204 0.00736 0.96099 0.0
H1006 H 0.75738 0.98655 0.89379 0.0
H1007 H 0.7642 0.94426 0.78813 0.0
Mn1008 Mn 0.14017 0.74014 0.04231 0.0
Mn1009 Mn 0.08678 0.72805 0.80368 0.0
C1010 C 0.0911 0.74583 0.0689 0.0
C1011 C 0.18662 0.77734 0.18631 0.0
C1012 C 0.09341 0.67195 0.91421 0.0
O1013 O 0.17022 0.75003 0.88303 0.0
O1014 O 0.13329 0.74523 0.73998 0.0
C1015 C 0.11512 0.79614 0.74288 0.0
N1016 N 0.08761 0.76696 0.75808 0.0
C1017 C 0.05398 0.79233 0.75377 0.0
C1018 C 0.08177 0.82185 0.72917 0.0
C1019 C 0.11269 0.82401 0.73682 0.0
C1020 C 0.05763 0.76457 0.76571 0.0
H1021 H 0.13887 0.79839 0.74254 0.0
C1022 C 0.16321 0.75428 0.77239 0.0
O1023 O 0.17798 0.74664 0.16985 0.0
O1024 O 0.16863 0.785 0.12381 0.0
N1025 N 0.04225 0.71454 0.85461 0.0
C1026 C 0.02283 0.69049 0.93341 0.0
C1027 C -0.00825 0.68644 0.96598 0.0
C1028 C -0.01735 0.70897 0.93011 0.0
C1029 C 0.00474 0.7359 0.86332 0.0
C1030 C 0.03332 0.73661 0.81847 0.0
H1031 H 0.03178 0.67537 0.97204 0.0
O1032 O 0.10479 0.73838 0.15506 0.0
O1033 O 0.10481 0.74706 0.96551 0.0
O1034 O 0.11381 0.68893 -0.00035 0.0
O1035 O 0.08212 0.68464 0.83989 0.0
C1036 C 0.00116 0.76372 0.8531 0.0
C1037 C 0.02514 0.79154 0.79286 0.0
H1038 H 0.07903 0.84308 0.71452 0.0
H1039 H 0.13531 0.84692 0.73425 0.0
H1040 H 0.97415 0.66655 0.02111 0.0
H1041 H 0.95951 0.7064 0.96098 0.0
H1042 H -0.01967 0.76419 0.89377 0.0
H1043 H 0.02262 0.8133 0.78812 0.0
Mn1044 Mn 0.22673 0.39338 0.04231 0.0
Mn1045 Mn 0.23883 0.35209 0.80368 0.0
C1046 C 0.22104 0.33863 0.0689 0.0
C1047 C 0.18953 0.40264 0.18631 0.0
C1048 C 0.29493 0.41482 0.91421 0.0
O1049 O 0.21684 0.41355 0.88303 0.0
O1050 O 0.22165 0.38142 0.73998 0.0
C1051 C 0.17074 0.31234 0.74287 0.0
N1052 N 0.19991 0.314 0.75808 0.0
C1053 C 0.17455 0.255 0.75376 0.0
C1054 C 0.14502 0.25327 0.72916 0.0
C1055 C 0.14287 0.28204 0.73682 0.0
C1056 C 0.2023 0.28641 0.7657 0.0
H1057 H 0.16849 0.33384 0.74254 0.0
C1058 C 0.21259 0.40229 0.7724 0.0
O1059 O 0.22023 0.4247 0.16986 0.0
O1060 O 0.18188 0.37699 0.12382 0.0
N1061 N 0.25234 0.32107 0.8546 0.0
C1062 C 0.27638 0.3257 0.9334 0.0
C1063 C 0.28043 0.29867 0.96598 0.0
C1064 C 0.2579 0.26703 0.93011 0.0
C1065 C 0.23098 0.2622 0.86332 0.0
C1066 C 0.23027 0.29006 0.81846 0.0
H1067 H 0.2915 0.34976 0.97203 0.0
O1068 O 0.22849 0.35976 0.15506 0.0
O1069 O 0.21981 0.3511 0.96551 0.0
O1070 O 0.27795 0.41823 -0.00034 0.0
O1071 O 0.28224 0.39084 0.83989 0.0
C1072 C 0.20316 0.2308 0.85309 0.0
C1073 C 0.17533 0.22695 0.79285 0.0
H1074 H 0.1238 0.2293 0.71451 0.0
H1075 H 0.11995 0.28174 0.73425 0.0
H1076 H 0.30032 0.30095 0.02111 0.0
H1077 H 0.26047 0.24647 0.96098 0.0
H1078 H 0.20268 0.20949 0.89377 0.0
H1079 H 0.15357 0.20267 0.78811 0.0
Mn1080 Mn 0.14017 0.39338 0.5423 0.0
Mn1081 Mn 0.08678 0.35209 0.30368 0.0
C1082 C 0.09111 0.33863 0.5689 0.0
C1083 C 0.18662 0.40263 0.68632 0.0
C1084 C 0.09341 0.41482 0.41425 0.0
O1085 O 0.17024 0.41355 0.38303 0.0
O1086 O 0.13329 0.38142 0.23996 0.0
C1087 C 0.11512 0.31234 0.24286 0.0
N1088 N 0.08761 0.314 0.25808 0.0
C1089 C 0.05398 0.25501 0.25377 0.0
C1090 C 0.08177 0.25327 0.22916 0.0
C1091 C 0.11269 0.28204 0.23681 0.0
C1092 C 0.05763 0.28641 0.26571 0.0
H1093 H 0.13887 0.33384 0.24253 0.0
C1094 C 0.16321 0.4023 0.27239 0.0
O1095 O 0.17799 0.4247 0.66984 0.0
O1096 O 0.16863 0.37699 0.6238 0.0
N1097 N 0.04225 0.32107 0.35462 0.0
C1098 C 0.02284 0.32571 0.43343 0.0
C1099 C -0.00824 0.29867 0.46601 0.0
C1100 C -0.01735 0.26703 0.43014 0.0
C1101 C 0.00474 0.2622 0.36334 0.0
C1102 C 0.03332 0.29007 0.31848 0.0
H1103 H 0.03179 0.34977 0.47206 0.0
O1104 O 0.1048 0.35977 0.65506 0.0
O1105 O 0.10481 0.3511 0.4655 0.0
O1106 O 0.11382 0.41824 0.49965 0.0
O1107 O 0.08213 0.39085 0.33991 0.0
C1108 C 0.00116 0.2308 0.35311 0.0
C1109 C 0.02514 0.22695 0.29286 0.0
H1110 H 0.07902 0.2293 0.21452 0.0
H1111 H 0.1353 0.28174 0.23423 0.0
H1112 H 0.97416 0.30096 0.52114 0.0
H1113 H 0.95952 0.24648 0.46101 0.0
H1114 H -0.01967 0.2095 0.39378 0.0
H1115 H 0.02262 0.20268 0.28812 0.0
Mn1116 Mn 0.57349 0.74015 0.5423 0.0
Mn1117 Mn 0.61479 0.72804 0.30368 0.0
C1118 C 0.62825 0.74583 0.5689 0.0
C1119 C 0.56424 0.77734 0.68633 0.0
C1120 C 0.55206 0.67194 0.41425 0.0
O1121 O 0.55333 0.75004 0.38303 0.0
O1122 O 0.58545 0.74523 0.23995 0.0
C1123 C 0.65454 0.79614 0.24286 0.0
N1124 N 0.65287 0.76696 0.25807 0.0
C1125 C 0.71187 0.79232 0.25376 0.0
C1126 C 0.7136 0.82185 0.22916 0.0
C1127 C 0.68483 0.824 0.23681 0.0
C1128 C 0.68046 0.76457 0.26571 0.0
H1129 H 0.63303 0.79838 0.24253 0.0
C1130 C 0.56458 0.75427 0.27239 0.0
O1131 O 0.54218 0.74665 0.66984 0.0
O1132 O 0.58989 0.785 0.62381 0.0
N1133 N 0.6458 0.71453 0.35461 0.0
C1134 C 0.64117 0.69049 0.43343 0.0
C1135 C 0.6682 0.68644 0.466 0.0
C1136 C 0.69984 0.70897 0.43013 0.0
C1137 C 0.70467 0.73589 0.36333 0.0
C1138 C 0.67681 0.7366 0.31847 0.0
H1139 H 0.6171 0.67537 0.47206 0.0
O1140 O 0.60711 0.73838 0.65505 0.0
O1141 O 0.61577 0.74706 0.4655 0.0
O1142 O 0.54864 0.68893 0.49965 0.0
O1143 O 0.57603 0.68463 0.33991 0.0
C1144 C 0.73607 0.76371 0.35311 0.0
C1145 C 0.73992 0.79154 0.29286 0.0
H1146 H 0.73757 0.84307 0.21452 0.0
H1147 H 0.68514 0.84692 0.23423 0.0
H1148 H 0.66591 0.66655 0.52114 0.0
H1149 H 0.72039 0.70639 0.46101 0.0
H1150 H 0.75737 0.76419 0.39378 0.0
H1151 H 0.7642 0.81329 0.28812 0.0
Mn1152 Mn 0.22673 0.8267 0.54229 0.0
Mn1153 Mn 0.23883 0.8801 0.30368 0.0
C1154 C 0.22104 0.87577 0.56889 0.0
C1155 C 0.18953 0.78026 0.68631 0.0
C1156 C 0.29493 0.87347 0.41424 0.0
O1157 O 0.21683 0.79664 0.38302 0.0
O1158 O 0.22165 0.83358 0.23995 0.0
C1159 C 0.17074 0.85176 0.24286 0.0
N1160 N 0.19992 0.87927 0.25807 0.0
C1161 C 0.17456 0.9129 0.25377 0.0
C1162 C 0.14503 0.88511 0.22916 0.0
C1163 C 0.14288 0.85419 0.23681 0.0
C1164 C 0.20231 0.90925 0.26571 0.0
H1165 H 0.16849 0.82801 0.24252 0.0
C1166 C 0.2126 0.80366 0.27238 0.0
O1167 O 0.22022 0.78888 0.66983 0.0
O1168 O 0.18187 0.79824 0.62379 0.0
N1169 N 0.25234 0.92463 0.35461 0.0
C1170 C 0.27639 0.94404 0.43342 0.0
C1171 C 0.28044 0.97512 0.466 0.0
C1172 C 0.25791 0.98423 0.43013 0.0
C1173 C 0.23099 0.96214 0.36334 0.0
C1174 C 0.23027 0.93356 0.31847 0.0
H1175 H 0.2915 0.93509 0.47205 0.0
O1176 O 0.22849 0.86208 0.65505 0.0
O1177 O 0.21981 0.86206 0.4655 0.0
O1178 O 0.27794 0.85306 0.49964 0.0
O1179 O 0.28224 0.88475 0.3399 0.0
C1180 C 0.20317 0.96572 0.35311 0.0
C1181 C 0.17534 0.94174 0.29287 0.0
H1182 H 0.12381 0.88785 0.21453 0.0
H1183 H 0.11996 0.83157 0.23423 0.0
H1184 H 0.30033 -0.00728 0.52113 0.0
H1185 H 0.26049 0.00736 0.46101 0.0
H1186 H 0.2027 0.98655 0.39379 0.0
H1187 H 0.15359 0.94426 0.28813 0.0
Mn1188 Mn 0.05342 0.4801 0.28813 0.0
Mn1189 Mn 0.01214 0.42673 0.52685 0.0
C1190 C -0.00134 0.43103 0.26165 0.0
C1191 C 0.06266 0.52652 0.14404 0.0
C1192 C 0.07487 0.43336 0.4163 0.0
O1193 O 0.07358 0.51018 0.44735 0.0
O1194 O 0.04146 0.47325 0.59048 0.0
C1195 C 0.97237 0.45505 0.58766 0.0
N1196 N 0.97405 0.42755 0.57245 0.0
C1197 C 0.91506 0.39388 0.57687 0.0
C1198 C 0.9133 0.42167 0.60143 0.0
C1199 C 0.94207 0.4526 0.59378 0.0
C1200 C 0.94647 0.39755 0.56489 0.0
H1201 H -0.00613 0.47881 0.58795 0.0
C1202 C 0.06233 0.50317 0.558 0.0
O1203 O 0.08473 0.5179 0.16053 0.0
O1204 O 0.03702 0.50854 0.20659 0.0
N1205 N -0.01886 0.38219 0.47598 0.0
C1206 C -0.01422 0.36278 0.3972 0.0
C1207 C 0.95875 0.33168 0.36472 0.0
C1208 C 0.92712 0.32255 0.40072 0.0
C1209 C 0.92228 0.34464 0.46748 0.0
C1210 C 0.95014 0.37325 0.51218 0.0
H1211 H 0.00984 0.37174 0.35853 0.0
O1212 O 0.0198 0.44471 0.17545 0.0
O1213 O 0.01115 0.44475 0.36501 0.0
O1214 O 0.07828 0.45375 0.33082 0.0
O1215 O 0.05091 0.42209 0.49065 0.0
C1216 C 0.89086 0.34103 0.4778 0.0
C1217 C 0.88701 0.36502 0.53792 0.0
H1218 H 0.88933 0.41892 0.61605 0.0
H1219 H 0.94175 0.47521 0.59639 0.0
H1220 H 0.96105 0.31409 0.30957 0.0
H1221 H 0.90657 0.2994 0.36997 0.0
H1222 H 0.86956 0.32017 0.43727 0.0
H1223 H 0.86273 0.36248 0.54271 0.0
Mn1224 Mn 0.48678 0.56668 0.28813 0.0
Mn1225 Mn 0.54014 0.57877 0.52685 0.0
C1226 C 0.53584 0.56099 0.26165 0.0
C1227 C 0.44035 0.5295 0.14404 0.0
C1228 C 0.53351 0.63487 0.4163 0.0
O1229 O 0.4567 0.55676 0.44736 0.0
O1230 O 0.49363 0.56157 0.59049 0.0
C1231 C 0.51182 0.51067 0.58766 0.0
N1232 N 0.53933 0.53986 0.57245 0.0
C1233 C 0.57299 0.51453 0.57688 0.0
C1234 C 0.5452 0.48499 0.60142 0.0
C1235 C 0.51427 0.48282 0.59378 0.0
C1236 C 0.56932 0.54227 0.5649 0.0
H1237 H 0.48807 0.50841 0.58795 0.0
C1238 C 0.46371 0.55251 0.55801 0.0
O1239 O 0.44898 0.56019 0.16054 0.0
O1240 O 0.45833 0.52183 0.20659 0.0
N1241 N 0.58468 0.5923 0.47598 0.0
C1242 C 0.60409 0.61635 0.39719 0.0
C1243 C 0.63519 0.62042 0.36471 0.0
C1244 C 0.64432 0.59792 0.40072 0.0
C1245 C 0.62223 0.57099 0.46748 0.0
C1246 C 0.59363 0.57024 0.51218 0.0
H1247 H 0.59513 0.63145 0.35852 0.0
O1248 O 0.52217 0.56844 0.17545 0.0
O1249 O 0.52213 0.55976 0.36501 0.0
O1250 O 0.51313 0.61789 0.33082 0.0
O1251 O 0.54479 0.62218 0.49065 0.0
C1252 C 0.62585 0.54319 0.47781 0.0
C1253 C 0.60185 0.51534 0.53793 0.0
H1254 H 0.54796 0.46377 0.61605 0.0
H1255 H 0.49167 0.4599 0.59639 0.0
H1256 H 0.65278 0.64031 0.30957 0.0
H1257 H 0.66748 0.60053 0.36997 0.0
H1258 H 0.64671 0.54275 0.43728 0.0
H1259 H 0.6044 0.4936 0.54271 0.0
Mn1260 Mn 0.4002 0.91346 0.28813 0.0
Mn1261 Mn 0.38811 0.95473 0.52685 0.0
C1262 C 0.40589 0.96821 0.26165 0.0
C1263 C 0.43738 0.90421 0.14404 0.0
C1264 C 0.33201 0.892 0.4163 0.0
O1265 O 0.41012 0.89329 0.44735 0.0
O1266 O 0.40531 0.92541 0.59049 0.0
C1267 C 0.4562 -0.0055 0.58766 0.0
N1268 N 0.42702 -0.00718 0.57246 0.0
C1269 C 0.45235 0.05182 0.57688 0.0
C1270 C 0.48189 0.05357 0.60144 0.0
C1271 C 0.48406 0.02481 0.59378 0.0
C1272 C 0.42461 0.0204 0.5649 0.0
H1273 H 0.45846 0.97301 0.58795 0.0
C1274 C 0.41436 0.90455 0.558 0.0
O1275 O 0.40669 0.88214 0.16053 0.0
O1276 O 0.44504 0.92985 0.20659 0.0
N1277 N 0.37458 0.98574 0.47599 0.0
C1278 C 0.35053 0.9811 0.3972 0.0
C1279 C 0.34646 0.00812 0.36472 0.0
C1280 C 0.36896 0.03976 0.40073 0.0
C1281 C 0.39589 0.0446 0.46749 0.0
C1282 C 0.39663 0.01674 0.51219 0.0
H1283 H 0.33543 0.95704 0.35852 0.0
O1284 O 0.39843 0.94708 0.17545 0.0
O1285 O 0.40712 0.95572 0.36501 0.0
O1286 O 0.34899 0.88859 0.33082 0.0
O1287 O 0.3447 0.91597 0.49065 0.0
C1288 C 0.42369 0.07601 0.47781 0.0
C1289 C 0.45154 0.07987 0.53793 0.0
H1290 H 0.50311 0.07754 0.61606 0.0
H1291 H 0.50698 0.02512 0.59639 0.0
H1292 H 0.32657 0.00583 0.30957 0.0
H1293 H 0.36635 0.06031 0.36997 0.0
H1294 H 0.42413 0.09732 0.43728 0.0
H1295 H 0.47328 0.10415 0.54272 0.0
loop_
_geom_bond_atom_site_label_1
_geom_bond_atom_site_label_2
_geom_bond_distance
_geom_bond_site_symmetry_2
_ccdc_geom_bond_type
Mn0 O5 2.095 . S
Mn0 O15 2.162 1_554 S
Mn0 O16 2.297 . S
Mn0 O24 2.385 1_554 S
Mn0 O25 2.209 . S
Mn0 O26 2.094 . S
Mn1 O6 2.121 . S
Mn1 N8 2.257 . S
Mn1 N17 2.282 . S
Mn1 O25 2.215 . S
Mn1 O27 2.117 . S
C2 O24 1.234 1_554 S
C2 O25 1.283 . S
C3 O15 1.281 . S
C3 O16 1.236 1_556 S
C4 O26 1.240 . S
C4 O27 1.264 . S
O5 Mn0 2.095 . S
O5 C14 1.250 . S
O6 Mn1 2.121 . S
O6 C14 1.258 . S
C7 N8 1.326 . S
C7 C11 1.460 . S
C7 H13 0.929 . S
N8 Mn1 2.257 . S
N8 C7 1.326 . S
N8 C12 1.362 . S
C9 C10 1.258 . S
C9 C12 1.431 . S
C9 C29 1.449 . S
C10 C9 1.258 . S
C10 C11 1.477 . S
C10 H30 0.931 . S
C11 C7 1.460 . S
C11 C10 1.477 . S
C11 H31 0.930 . S
C12 N8 1.362 . S
C12 C9 1.431 . S
C12 C22 1.476 . S
H13 C7 0.929 . S
C14 O5 1.250 . S
C14 O6 1.258 . S
O15 Mn0 2.162 1_556 S
O15 C3 1.281 . S
O16 Mn0 2.297 . S
O16 C3 1.236 1_554 S
N17 Mn1 2.282 . S
N17 C18 1.328 . S
N17 C22 1.318 . S
C18 N17 1.328 . S
C18 C19 1.457 . S
C18 H23 0.929 . S
C19 C18 1.457 . S
C19 C20 1.291 . S
C19 H32 0.931 . S
C20 C19 1.291 . S
C20 C21 1.373 . S
C20 H33 0.929 . S
C21 C20 1.373 . S
C21 C22 1.396 . S
C21 C28 1.403 . S
C22 C12 1.476 . S
C22 N17 1.318 . S
C22 C21 1.396 . S
H23 C18 0.929 . S
O24 Mn0 2.385 1_556 S
O24 C2 1.234 1_556 S
O25 Mn0 2.209 . S
O25 Mn1 2.215 . S
O25 C2 1.283 . S
O26 Mn0 2.094 . S
O26 C4 1.240 . S
O27 Mn1 2.117 . S
O27 C4 1.264 . S
C28 C21 1.403 . S
C28 C29 1.399 . S
C28 H34 0.929 . S
C29 C9 1.449 . S
C29 C28 1.399 . S
C29 H35 0.930 . S
H30 C10 0.931 . S
H31 C11 0.930 . S
H32 C19 0.931 . S
H33 C20 0.929 . S
H34 C28 0.929 . S
H35 C29 0.930 . S
Mn36 O41 2.095 . S
Mn36 O51 2.162 1_554 S
Mn36 O52 2.297 . S
Mn36 O60 2.385 1_554 S
Mn36 O61 2.209 . S
Mn36 O62 2.094 . S
Mn37 O42 2.121 . S
Mn37 N44 2.257 . S
Mn37 N53 2.282 . S
Mn37 O61 2.215 . S
Mn37 O63 2.117 . S
C38 O60 1.234 1_554 S
C38 O61 1.283 . S
C39 O51 1.281 . S
C39 O52 1.236 1_556 S
C40 O62 1.240 . S
C40 O63 1.264 . S
O41 Mn36 2.095 . S
O41 C50 1.250 . S
O42 Mn37 2.121 . S
O42 C50 1.258 . S
C43 N44 1.326 . S
C43 C47 1.460 . S
C43 H49 0.929 . S
N44 Mn37 2.257 . S
N44 C43 1.326 . S
N44 C48 1.362 . S
C45 C46 1.258 . S
C45 C48 1.431 . S
C45 C65 1.449 . S
C46 C45 1.258 . S
C46 C47 1.477 . S
C46 H66 0.931 . S
C47 C43 1.460 . S
C47 C46 1.477 . S
C47 H67 0.930 . S
C48 N44 1.362 . S
C48 C45 1.431 . S
C48 C58 1.476 . S
H49 C43 0.929 . S
C50 O41 1.250 . S
C50 O42 1.258 . S
O51 Mn36 2.162 1_556 S
O51 C39 1.281 . S
O52 Mn36 2.297 . S
O52 C39 1.236 1_554 S
N53 Mn37 2.282 . S
N53 C54 1.328 . S
N53 C58 1.318 . S
C54 N53 1.328 . S
C54 C55 1.457 . S
C54 H59 0.929 . S
C55 C54 1.457 . S
C55 C56 1.291 . S
C55 H68 0.946 . S
C56 C55 1.291 . S
C56 C57 1.373 . S
C56 H69 0.929 . S
C57 C56 1.373 . S
C57 C58 1.396 . S
C57 C64 1.403 . S
C58 C48 1.476 . S
C58 N53 1.318 . S
C58 C57 1.396 . S
H59 C54 0.929 . S
O60 Mn36 2.385 1_556 S
O60 C38 1.234 1_556 S
O61 Mn36 2.209 . S
O61 Mn37 2.215 . S
O61 C38 1.283 . S
O62 Mn36 2.094 . S
O62 C40 1.240 . S
O63 Mn37 2.117 . S
O63 C40 1.264 . S
C64 C57 1.403 . S
C64 C65 1.399 . S
C64 H70 0.929 . S
C65 C45 1.449 . S
C65 C64 1.399 . S
C65 H71 0.930 . S
H66 C46 0.931 . S
H67 C47 0.930 . S
H68 C55 0.946 . S
H69 C56 0.929 . S
H70 C64 0.929 . S
H71 C65 0.930 . S
Mn72 O77 2.095 . S
Mn72 O87 2.162 1_554 S
Mn72 O88 2.297 . S
Mn72 O96 2.385 1_554 S
Mn72 O97 2.209 . S
Mn72 O98 2.094 . S
Mn73 O78 2.121 . S
Mn73 N80 2.257 . S
Mn73 N89 2.282 . S
Mn73 O97 2.215 . S
Mn73 O99 2.117 . S
C74 O96 1.234 1_554 S
C74 O97 1.283 . S
C75 O87 1.281 . S
C75 O88 1.236 1_556 S
C76 O98 1.240 . S
C76 O99 1.264 . S
O77 Mn72 2.095 . S
O77 C86 1.250 . S
O78 Mn73 2.121 . S
O78 C86 1.258 . S
C79 N80 1.326 . S
C79 C83 1.460 . S
C79 H85 0.929 . S
N80 Mn73 2.257 . S
N80 C79 1.326 . S
N80 C84 1.362 . S
C81 C82 1.258 . S
C81 C84 1.431 . S
C81 C101 1.449 . S
C82 C81 1.258 . S
C82 C83 1.477 . S
C82 H102 0.931 . S
C83 C79 1.460 . S
C83 C82 1.477 . S
C83 H103 0.930 . S
C84 N80 1.362 . S
C84 C81 1.431 . S
C84 C94 1.476 . S
H85 C79 0.929 . S
C86 O77 1.250 . S
C86 O78 1.258 . S
O87 Mn72 2.162 1_556 S
O87 C75 1.281 . S
O88 Mn72 2.297 . S
O88 C75 1.236 1_554 S
N89 Mn73 2.282 . S
N89 C90 1.328 . S
N89 C94 1.318 . S
C90 N89 1.328 . S
C90 C91 1.457 . S
C90 H95 0.929 . S
C91 C90 1.457 . S
C91 C92 1.291 . S
C91 H104 0.942 . S
C92 C91 1.291 . S
C92 C93 1.373 . S
C92 H105 0.929 . S
C93 C92 1.373 . S
C93 C94 1.396 . S
C93 C100 1.403 . S
C94 C84 1.476 . S
C94 N89 1.318 . S
C94 C93 1.396 . S
H95 C90 0.929 . S
O96 Mn72 2.385 1_556 S
O96 C74 1.234 1_556 S
O97 Mn72 2.209 . S
O97 Mn73 2.215 . S
O97 C74 1.283 . S
O98 Mn72 2.094 . S
O98 C76 1.240 . S
O99 Mn73 2.117 . S
O99 C76 1.264 . S
C100 C93 1.403 . S
C100 C101 1.399 . S
C100 H106 0.929 . S
C101 C81 1.449 . S
C101 C100 1.399 . S
C101 H107 0.930 . S
H102 C82 0.931 . S
H103 C83 0.930 . S
H104 C91 0.942 . S
H105 C92 0.929 . S
H106 C100 0.929 . S
H107 C101 0.930 . S
Mn108 O113 2.095 . S
Mn108 O123 2.162 . S
Mn108 O124 2.297 . S
Mn108 O132 2.385 . S
Mn108 O133 2.209 . S
Mn108 O134 2.094 . S
Mn109 O114 2.121 . S
Mn109 N116 2.257 . S
Mn109 N125 2.282 . S
Mn109 O133 2.215 . S
Mn109 O135 2.117 . S
C110 O132 1.234 . S
C110 O133 1.283 . S
C111 O123 1.281 . S
C111 O124 1.236 . S
C112 O134 1.240 . S
C112 O135 1.264 . S
O113 Mn108 2.095 . S
O113 C122 1.250 . S
O114 Mn109 2.121 . S
O114 C122 1.258 . S
C115 N116 1.326 . S
C115 C119 1.460 1_554 S
C115 H121 0.929 . S
N116 Mn109 2.257 . S
N116 C115 1.326 . S
N116 C120 1.362 . S
C117 C118 1.258 1_554 S
C117 C120 1.431 . S
C117 C137 1.449 . S
C118 C117 1.258 1_556 S
C118 C119 1.477 . S
C118 H138 0.931 . S
C119 C115 1.460 1_556 S
C119 C118 1.477 . S
C119 H139 0.930 . S
C120 N116 1.362 . S
C120 C117 1.431 . S
C120 C130 1.476 . S
H121 C115 0.929 . S
C122 O113 1.250 . S
C122 O114 1.258 . S
O123 Mn108 2.162 . S
O123 C111 1.281 . S
O124 Mn108 2.297 . S
O124 C111 1.236 . S
N125 Mn109 2.282 . S
N125 C126 1.328 . S
N125 C130 1.318 . S
C126 N125 1.328 . S
C126 C127 1.457 . S
C126 H131 0.929 . S
C127 C126 1.457 . S
C127 C128 1.291 . S
C127 H140 0.931 . S
C128 C127 1.291 . S
C128 C129 1.373 . S
C128 H141 0.929 . S
C129 C128 1.373 . S
C129 C130 1.396 . S
C129 C136 1.403 . S
C130 C120 1.476 . S
C130 N125 1.318 . S
C130 C129 1.396 . S
H131 C126 0.929 . S
O132 Mn108 2.385 . S
O132 C110 1.234 . S
O133 Mn108 2.209 . S
O133 Mn109 2.215 . S
O133 C110 1.283 . S
O134 Mn108 2.094 . S
O134 C112 1.240 . S
O135 Mn109 2.117 . S
O135 C112 1.264 . S
C136 C129 1.403 . S
C136 C137 1.399 . S
C136 H142 0.929 . S
C137 C117 1.449 . S
C137 C136 1.399 . S
C137 H143 0.930 . S
H138 C118 0.931 . S
H139 C119 0.930 . S
H140 C127 0.931 . S
H141 C128 0.929 . S
H142 C136 0.929 . S
H143 C137 0.930 . S
Mn144 O149 2.095 . S
Mn144 O159 2.162 . S
Mn144 O160 2.297 . S
Mn144 O168 2.385 . S
Mn144 O169 2.209 . S
Mn144 O170 2.094 . S
Mn145 O150 2.121 . S
Mn145 N152 2.257 . S
Mn145 N161 2.282 . S
Mn145 O169 2.215 . S
Mn145 O171 2.117 . S
C146 O168 1.234 . S
C146 O169 1.283 . S
C147 O159 1.281 . S
C147 O160 1.236 . S
C148 O170 1.240 . S
C148 O171 1.264 . S
O149 Mn144 2.095 . S
O149 C158 1.250 . S
O150 Mn145 2.121 . S
O150 C158 1.258 . S
C151 N152 1.326 . S
C151 C155 1.460 1_554 S
C151 H157 0.929 . S
N152 Mn145 2.257 . S
N152 C151 1.326 . S
N152 C156 1.362 . S
C153 C154 1.258 1_554 S
C153 C156 1.431 . S
C153 C173 1.449 . S
C154 C153 1.258 1_556 S
C154 C155 1.477 . S
C154 H174 0.931 . S
C155 C151 1.460 1_556 S
C155 C154 1.477 . S
C155 H175 0.930 . S
C156 N152 1.362 . S
C156 C153 1.431 . S
C156 C166 1.476 . S
H157 C151 0.929 . S
C158 O149 1.250 . S
C158 O150 1.258 . S
O159 Mn144 2.162 . S
O159 C147 1.281 . S
O160 Mn144 2.297 . S
O160 C147 1.236 . S
N161 Mn145 2.282 . S
N161 C162 1.328 . S
N161 C166 1.318 . S
C162 N161 1.328 . S
C162 C163 1.457 . S
C162 H167 0.929 . S
C163 C162 1.457 . S
C163 C164 1.291 . S
C163 H176 0.945 . S
C164 C163 1.291 . S
C164 C165 1.373 . S
C164 H177 0.929 . S
C165 C164 1.373 . S
C165 C166 1.396 . S
C165 C172 1.403 . S
C166 C156 1.476 . S
C166 N161 1.318 . S
C166 C165 1.396 . S
H167 C162 0.929 . S
O168 Mn144 2.385 . S
O168 C146 1.234 . S
O169 Mn144 2.209 . S
O169 Mn145 2.215 . S
O169 C146 1.283 . S
O170 Mn144 2.094 . S
O170 C148 1.240 . S
O171 Mn145 2.117 . S
O171 C148 1.264 . S
C172 C165 1.403 . S
C172 C173 1.399 . S
C172 H178 0.929 . S
C173 C153 1.449 . S
C173 C172 1.399 . S
C173 H179 0.930 . S
H174 C154 0.931 . S
H175 C155 0.930 . S
H176 C163 0.945 . S
H177 C164 0.929 . S
H178 C172 0.929 . S
H179 C173 0.930 . S
Mn180 O185 2.095 . S
Mn180 O195 2.162 . S
Mn180 O196 2.297 . S
Mn180 O204 2.385 . S
Mn180 O205 2.209 . S
Mn180 O206 2.094 . S
Mn181 O186 2.121 . S
Mn181 N188 2.257 . S
Mn181 N197 2.282 . S
Mn181 O205 2.215 . S
Mn181 O207 2.117 . S
C182 O204 1.234 . S
C182 O205 1.283 . S
C183 O195 1.281 . S
C183 O196 1.236 . S
C184 O206 1.240 . S
C184 O207 1.264 . S
O185 Mn180 2.095 . S
O185 C194 1.250 . S
O186 Mn181 2.121 . S
O186 C194 1.258 . S
C187 N188 1.326 . S
C187 C191 1.460 1_554 S
C187 H193 0.929 . S
N188 Mn181 2.257 . S
N188 C187 1.326 . S
N188 C192 1.362 . S
C189 C190 1.258 1_554 S
C189 C192 1.431 . S
C189 C209 1.449 . S
C190 C189 1.258 1_556 S
C190 C191 1.477 . S
C190 H210 0.931 . S
C191 C187 1.460 1_556 S
C191 C190 1.477 . S
C191 H211 0.930 . S
C192 N188 1.362 . S
C192 C189 1.431 . S
C192 C202 1.476 . S
H193 C187 0.929 . S
C194 O185 1.250 . S
C194 O186 1.258 . S
O195 Mn180 2.162 . S
O195 C183 1.281 . S
O196 Mn180 2.297 . S
O196 C183 1.236 . S
N197 Mn181 2.282 . S
N197 C198 1.328 . S
N197 C202 1.318 . S
C198 N197 1.328 . S
C198 C199 1.457 . S
C198 H203 0.929 . S
C199 C198 1.457 . S
C199 C200 1.291 . S
C199 H212 0.950 . S
C200 C199 1.291 . S
C200 C201 1.373 . S
C200 H213 0.929 . S
C201 C200 1.373 . S
C201 C202 1.396 . S
C201 C208 1.403 . S
C202 C192 1.476 . S
C202 N197 1.318 . S
C202 C201 1.396 . S
H203 C198 0.929 . S
O204 Mn180 2.385 . S
O204 C182 1.234 . S
O205 Mn180 2.209 . S
O205 Mn181 2.215 . S
O205 C182 1.283 . S
O206 Mn180 2.094 . S
O206 C184 1.240 . S
O207 Mn181 2.117 . S
O207 C184 1.264 . S
C208 C201 1.403 . S
C208 C209 1.399 . S
C208 H214 0.929 . S
C209 C189 1.449 . S
C209 C208 1.399 . S
C209 H215 0.930 . S
H210 C190 0.931 . S
H211 C191 0.930 . S
H212 C199 0.950 . S
H213 C200 0.929 . S
H214 C208 0.929 . S
H215 C209 0.930 . S
Mn216 O221 2.095 . S
Mn216 O231 2.162 1_556 S
Mn216 O232 2.297 . S
Mn216 O240 2.385 1_556 S
Mn216 O241 2.209 . S
Mn216 O242 2.094 . S
Mn217 O222 2.121 . S
Mn217 N224 2.257 . S
Mn217 N233 2.282 . S
Mn217 O241 2.215 . S
Mn217 O243 2.117 . S
C218 O240 1.234 1_556 S
C218 O241 1.283 . S
C219 O231 1.281 . S
C219 O232 1.236 1_554 S
C220 O242 1.240 . S
C220 O243 1.264 . S
O221 Mn216 2.095 . S
O221 C230 1.250 . S
O222 Mn217 2.121 . S
O222 C230 1.258 . S
C223 N224 1.326 . S
C223 C227 1.460 . S
C223 H229 0.929 . S
N224 Mn217 2.257 . S
N224 C223 1.326 . S
N224 C228 1.362 . S
C225 C226 1.258 . S
C225 C228 1.431 . S
C225 C245 1.449 . S
C226 C225 1.258 . S
C226 C227 1.477 . S
C226 H246 0.931 . S
C227 C223 1.460 . S
C227 C226 1.477 . S
C227 H247 0.930 . S
C228 N224 1.362 . S
C228 C225 1.431 . S
C228 C238 1.476 . S
H229 C223 0.929 . S
C230 O221 1.250 . S
C230 O222 1.258 . S
O231 Mn216 2.162 1_554 S
O231 C219 1.281 . S
O232 Mn216 2.297 . S
O232 C219 1.236 1_556 S
N233 Mn217 2.282 . S
N233 C234 1.328 . S
N233 C238 1.318 . S
C234 N233 1.328 . S
C234 C235 1.457 . S
C234 H239 0.929 . S
C235 C234 1.457 . S
C235 C236 1.291 . S
C235 H248 0.931 . S
C236 C235 1.291 . S
C236 C237 1.373 . S
C236 H249 0.929 . S
C237 C236 1.373 . S
C237 C238 1.396 . S
C237 C244 1.403 . S
C238 C228 1.476 . S
C238 N233 1.318 . S
C238 C237 1.396 . S
H239 C234 0.929 . S
O240 Mn216 2.385 1_554 S
O240 C218 1.234 1_554 S
O241 Mn216 2.209 . S
O241 Mn217 2.215 . S
O241 C218 1.283 . S
O242 Mn216 2.094 . S
O242 C220 1.240 . S
O243 Mn217 2.117 . S
O243 C220 1.264 . S
C244 C237 1.403 . S
C244 C245 1.399 . S
C244 H250 0.929 . S
C245 C225 1.449 . S
C245 C244 1.399 . S
C245 H251 0.930 . S
H246 C226 0.931 . S
H247 C227 0.930 . S
H248 C235 0.931 . S
H249 C236 0.929 . S
H250 C244 0.929 . S
H251 C245 0.930 . S
Mn252 O257 2.095 . S
Mn252 O267 2.162 1_556 S
Mn252 O268 2.297 . S
Mn252 O276 2.385 1_556 S
Mn252 O277 2.209 . S
Mn252 O278 2.094 . S
Mn253 O258 2.121 . S
Mn253 N260 2.257 . S
Mn253 N269 2.282 . S
Mn253 O277 2.215 . S
Mn253 O279 2.117 . S
C254 O276 1.234 1_556 S
C254 O277 1.283 . S
C255 O267 1.281 . S
C255 O268 1.236 1_554 S
C256 O278 1.240 . S
C256 O279 1.264 . S
O257 Mn252 2.095 . S
O257 C266 1.250 . S
O258 Mn253 2.121 . S
O258 C266 1.258 . S
C259 N260 1.326 . S
C259 C263 1.460 . S
C259 H265 0.929 . S
N260 Mn253 2.257 . S
N260 C259 1.326 . S
N260 C264 1.362 . S
C261 C262 1.258 . S
C261 C264 1.431 . S
C261 C281 1.449 . S
C262 C261 1.258 . S
C262 C263 1.477 . S
C262 H282 0.931 . S
C263 C259 1.460 . S
C263 C262 1.477 . S
C263 H283 0.930 . S
C264 N260 1.362 . S
C264 C261 1.431 . S
C264 C274 1.476 . S
H265 C259 0.929 . S
C266 O257 1.250 . S
C266 O258 1.258 . S
O267 Mn252 2.162 1_554 S
O267 C255 1.281 . S
O268 Mn252 2.297 . S
O268 C255 1.236 1_556 S
N269 Mn253 2.282 . S
N269 C270 1.328 . S
N269 C274 1.318 . S
C270 N269 1.328 . S
C270 C271 1.457 . S
C270 H275 0.929 . S
C271 C270 1.457 . S
C271 C272 1.291 . S
C271 H284 0.946 . S
C272 C271 1.291 . S
C272 C273 1.373 . S
C272 H285 0.929 . S
C273 C272 1.373 . S
C273 C274 1.396 . S
C273 C280 1.403 . S
C274 C264 1.476 . S
C274 N269 1.318 . S
C274 C273 1.396 . S
H275 C270 0.929 . S
O276 Mn252 2.385 1_554 S
O276 C254 1.234 1_554 S
O277 Mn252 2.209 . S
O277 Mn253 2.215 . S
O277 C254 1.283 . S
O278 Mn252 2.094 . S
O278 C256 1.240 . S
O279 Mn253 2.117 . S
O279 C256 1.264 . S
C280 C273 1.403 . S
C280 C281 1.399 . S
C280 H286 0.929 . S
C281 C261 1.449 . S
C281 C280 1.399 . S
C281 H287 0.930 . S
H282 C262 0.931 . S
H283 C263 0.930 . S
H284 C271 0.946 . S
H285 C272 0.929 . S
H286 C280 0.929 . S
H287 C281 0.930 . S
Mn288 O293 2.095 . S
Mn288 O303 2.162 1_556 S
Mn288 O304 2.297 . S
Mn288 O312 2.385 1_556 S
Mn288 O313 2.209 . S
Mn288 O314 2.094 . S
Mn289 O294 2.121 . S
Mn289 N296 2.257 . S
Mn289 N305 2.282 . S
Mn289 O313 2.215 . S
Mn289 O315 2.117 . S
C290 O312 1.234 1_556 S
C290 O313 1.283 . S
C291 O303 1.281 . S
C291 O304 1.236 1_554 S
C292 O314 1.240 . S
C292 O315 1.264 . S
O293 Mn288 2.095 . S
O293 C302 1.250 . S
O294 Mn289 2.121 . S
O294 C302 1.258 . S
C295 N296 1.326 . S
C295 C299 1.460 . S
C295 H301 0.929 . S
N296 Mn289 2.257 . S
N296 C295 1.326 . S
N296 C300 1.362 . S
C297 C298 1.258 . S
C297 C300 1.431 . S
C297 C317 1.449 . S
C298 C297 1.258 . S
C298 C299 1.477 . S
C298 H318 0.931 . S
C299 C295 1.460 . S
C299 C298 1.477 . S
C299 H319 0.930 . S
C300 N296 1.362 . S
C300 C297 1.431 . S
C300 C310 1.476 . S
H301 C295 0.929 . S
C302 O293 1.250 . S
C302 O294 1.258 . S
O303 Mn288 2.162 1_554 S
O303 C291 1.281 . S
O304 Mn288 2.297 . S
O304 C291 1.236 1_556 S
N305 Mn289 2.282 . S
N305 C306 1.328 . S
N305 C310 1.318 . S
C306 N305 1.328 . S
C306 C307 1.457 . S
C306 H311 0.929 . S
C307 C306 1.457 . S
C307 C308 1.291 . S
C307 H320 0.942 . S
C308 C307 1.291 . S
C308 C309 1.373 . S
C308 H321 0.929 . S
C309 C308 1.373 . S
C309 C310 1.396 . S
C309 C316 1.403 . S
C310 C300 1.476 . S
C310 N305 1.318 . S
C310 C309 1.396 . S
H311 C306 0.929 . S
O312 Mn288 2.385 1_554 S
O312 C290 1.234 1_554 S
O313 Mn288 2.209 . S
O313 Mn289 2.215 . S
O313 C290 1.283 . S
O314 Mn288 2.094 . S
O314 C292 1.240 . S
O315 Mn289 2.117 . S
O315 C292 1.264 . S
C316 C309 1.403 . S
C316 C317 1.399 . S
C316 H322 0.929 . S
C317 C297 1.449 . S
C317 C316 1.399 . S
C317 H323 0.930 . S
H318 C298 0.931 . S
H319 C299 0.930 . S
H320 C307 0.942 . S
H321 C308 0.929 . S
H322 C316 0.929 . S
H323 C317 0.930 . S
Mn324 O329 2.095 . S
Mn324 O339 2.162 . S
Mn324 O340 2.297 . S
Mn324 O348 2.385 . S
Mn324 O349 2.209 . S
Mn324 O350 2.094 . S
Mn325 O330 2.121 . S
Mn325 N332 2.257 . S
Mn325 N341 2.282 . S
Mn325 O349 2.215 . S
Mn325 O351 2.117 . S
C326 O348 1.234 . S
C326 O349 1.283 . S
C327 O339 1.281 . S
C327 O340 1.236 . S
C328 O350 1.240 . S
C328 O351 1.264 . S
O329 Mn324 2.095 . S
O329 C338 1.250 . S
O330 Mn325 2.121 . S
O330 C338 1.258 . S
C331 N332 1.326 . S
C331 C335 1.460 1_556 S
C331 H337 0.929 . S
N332 Mn325 2.257 . S
N332 C331 1.326 . S
N332 C336 1.362 . S
C333 C334 1.258 1_556 S
C333 C336 1.431 . S
C333 C353 1.449 . S
C334 C333 1.258 1_554 S
C334 C335 1.477 . S
C334 H354 0.931 . S
C335 C331 1.460 1_554 S
C335 C334 1.477 . S
C335 H355 0.930 . S
C336 N332 1.362 . S
C336 C333 1.431 . S
C336 C346 1.476 . S
H337 C331 0.929 . S
C338 O329 1.250 . S
C338 O330 1.258 . S
O339 Mn324 2.162 . S
O339 C327 1.281 . S
O340 Mn324 2.297 . S
O340 C327 1.236 . S
N341 Mn325 2.282 . S
N341 C342 1.328 . S
N341 C346 1.318 . S
C342 N341 1.328 . S
C342 C343 1.457 . S
C342 H347 0.929 . S
C343 C342 1.457 . S
C343 C344 1.291 . S
C343 H356 0.931 . S
C344 C343 1.291 . S
C344 C345 1.373 . S
C344 H357 0.929 . S
C345 C344 1.373 . S
C345 C346 1.396 . S
C345 C352 1.403 . S
C346 C336 1.476 . S
C346 N341 1.318 . S
C346 C345 1.396 . S
H347 C342 0.929 . S
O348 Mn324 2.385 . S
O348 C326 1.234 . S
O349 Mn324 2.209 . S
O349 Mn325 2.215 . S
O349 C326 1.283 . S
O350 Mn324 2.094 . S
O350 C328 1.240 . S
O351 Mn325 2.117 . S
O351 C328 1.264 . S
C352 C345 1.403 . S
C352 C353 1.399 . S
C352 H358 0.929 . S
C353 C333 1.449 . S
C353 C352 1.399 . S
C353 H359 0.930 . S
H354 C334 0.931 . S
H355 C335 0.930 . S
H356 C343 0.931 . S
H357 C344 0.929 . S
H358 C352 0.929 . S
H359 C353 0.930 . S
Mn360 O365 2.095 . S
Mn360 O375 2.162 . S
Mn360 O376 2.297 . S
Mn360 O384 2.385 . S
Mn360 O385 2.209 . S
Mn360 O386 2.094 . S
Mn361 O366 2.121 . S
Mn361 N368 2.257 . S
Mn361 N377 2.282 . S
Mn361 O385 2.215 . S
Mn361 O387 2.117 . S
C362 O384 1.234 . S
C362 O385 1.283 . S
C363 O375 1.281 . S
C363 O376 1.236 . S
C364 O386 1.240 . S
C364 O387 1.264 . S
O365 Mn360 2.095 . S
O365 C374 1.250 . S
O366 Mn361 2.121 . S
O366 C374 1.258 . S
C367 N368 1.326 . S
C367 C371 1.460 1_556 S
C367 H373 0.929 . S
N368 Mn361 2.257 . S
N368 C367 1.326 . S
N368 C372 1.362 . S
C369 C370 1.258 1_556 S
C369 C372 1.431 . S
C369 C389 1.449 . S
C370 C369 1.258 1_554 S
C370 C371 1.477 . S
C370 H390 0.931 . S
C371 C367 1.460 1_554 S
C371 C370 1.477 . S
C371 H391 0.930 . S
C372 N368 1.362 . S
C372 C369 1.431 . S
C372 C382 1.476 . S
H373 C367 0.929 . S
C374 O365 1.250 . S
C374 O366 1.258 . S
O375 Mn360 2.162 . S
O375 C363 1.281 . S
O376 Mn360 2.297 . S
O376 C363 1.236 . S
N377 Mn361 2.282 . S
N377 C378 1.328 . S
N377 C382 1.318 . S
C378 N377 1.328 . S
C378 C379 1.457 . S
C378 H383 0.929 . S
C379 C378 1.457 . S
C379 C380 1.291 . S
C379 H392 0.945 . S
C380 C379 1.291 . S
C380 C381 1.373 . S
C380 H393 0.929 . S
C381 C380 1.373 . S
C381 C382 1.396 . S
C381 C388 1.403 . S
C382 C372 1.476 . S
C382 N377 1.318 . S
C382 C381 1.396 . S
H383 C378 0.929 . S
O384 Mn360 2.385 . S
O384 C362 1.234 . S
O385 Mn360 2.209 . S
O385 Mn361 2.215 . S
O385 C362 1.283 . S
O386 Mn360 2.094 . S
O386 C364 1.240 . S
O387 Mn361 2.117 . S
O387 C364 1.264 . S
C388 C381 1.403 . S
C388 C389 1.399 . S
C388 H394 0.929 . S
C389 C369 1.449 . S
C389 C388 1.399 . S
C389 H395 0.930 . S
H390 C370 0.931 . S
H391 C371 0.930 . S
H392 C379 0.945 . S
H393 C380 0.929 . S
H394 C388 0.929 . S
H395 C389 0.930 . S
Mn396 O401 2.095 . S
Mn396 O411 2.162 . S
Mn396 O412 2.297 . S
Mn396 O420 2.385 . S
Mn396 O421 2.209 . S
Mn396 O422 2.094 . S
Mn397 O402 2.121 . S
Mn397 N404 2.257 . S
Mn397 N413 2.282 . S
Mn397 O421 2.215 . S
Mn397 O423 2.117 . S
C398 O420 1.234 . S
C398 O421 1.283 . S
C399 O411 1.281 . S
C399 O412 1.236 . S
C400 O422 1.240 . S
C400 O423 1.264 . S
O401 Mn396 2.095 . S
O401 C410 1.250 . S
O402 Mn397 2.121 . S
O402 C410 1.258 . S
C403 N404 1.326 . S
C403 C407 1.460 1_556 S
C403 H409 0.929 . S
N404 Mn397 2.257 . S
N404 C403 1.326 . S
N404 C408 1.362 . S
C405 C406 1.258 1_556 S
C405 C408 1.431 . S
C405 C425 1.449 . S
C406 C405 1.258 1_554 S
C406 C407 1.477 . S
C406 H426 0.931 . S
C407 C403 1.460 1_554 S
C407 C406 1.477 . S
C407 H427 0.930 . S
C408 N404 1.362 . S
C408 C405 1.431 . S
C408 C418 1.476 . S
H409 C403 0.929 . S
C410 O401 1.250 . S
C410 O402 1.258 . S
O411 Mn396 2.162 . S
O411 C399 1.281 . S
O412 Mn396 2.297 . S
O412 C399 1.236 . S
N413 Mn397 2.282 . S
N413 C414 1.328 . S
N413 C418 1.318 . S
C414 N413 1.328 . S
C414 C415 1.457 . S
C414 H419 0.929 . S
C415 C414 1.457 . S
C415 C416 1.291 . S
C415 H428 0.950 . S
C416 C415 1.291 . S
C416 C417 1.373 . S
C416 H429 0.929 . S
C417 C416 1.373 . S
C417 C418 1.396 . S
C417 C424 1.403 . S
C418 C408 1.476 . S
C418 N413 1.318 . S
C418 C417 1.396 . S
H419 C414 0.929 . S
O420 Mn396 2.385 . S
O420 C398 1.234 . S
O421 Mn396 2.209 . S
O421 Mn397 2.215 . S
O421 C398 1.283 . S
O422 Mn396 2.094 . S
O422 C400 1.240 . S
O423 Mn397 2.117 . S
O423 C400 1.264 . S
C424 C417 1.403 . S
C424 C425 1.399 . S
C424 H430 0.929 . S
C425 C405 1.449 . S
C425 C424 1.399 . S
C425 H431 0.930 . S
H426 C406 0.931 . S
H427 C407 0.930 . S
H428 C415 0.950 . S
H429 C416 0.929 . S
H430 C424 0.929 . S
H431 C425 0.930 . S
Mn432 O437 2.095 . S
Mn432 O447 2.162 . S
Mn432 O448 2.297 . S
Mn432 O456 2.385 . S
Mn432 O457 2.209 . S
Mn432 O458 2.094 . S
Mn433 O438 2.121 . S
Mn433 N440 2.257 . S
Mn433 N449 2.282 . S
Mn433 O457 2.215 . S
Mn433 O459 2.117 . S
C434 O456 1.234 . S
C434 O457 1.283 . S
C435 O447 1.281 . S
C435 O448 1.236 . S
C436 O458 1.240 . S
C436 O459 1.264 . S
O437 Mn432 2.095 . S
O437 C446 1.250 . S
O438 Mn433 2.121 . S
O438 C446 1.258 . S
C439 N440 1.326 . S
C439 C443 1.460 . S
C439 H445 0.929 . S
N440 Mn433 2.257 . S
N440 C439 1.326 . S
N440 C444 1.362 . S
C441 C442 1.258 . S
C441 C444 1.431 . S
C441 C461 1.449 . S
C442 C441 1.258 . S
C442 C443 1.477 . S
C442 H462 0.931 . S
C443 C439 1.460 . S
C443 C442 1.477 . S
C443 H463 0.930 . S
C444 N440 1.362 . S
C444 C441 1.431 . S
C444 C454 1.476 . S
H445 C439 0.929 . S
C446 O437 1.250 . S
C446 O438 1.258 . S
O447 Mn432 2.162 . S
O447 C435 1.281 . S
O448 Mn432 2.297 . S
O448 C435 1.236 . S
N449 Mn433 2.282 . S
N449 C450 1.328 . S
N449 C454 1.318 . S
C450 N449 1.328 . S
C450 C451 1.457 . S
C450 H455 0.929 . S
C451 C450 1.457 . S
C451 C452 1.291 1_655 S
C451 H464 0.931 1_655 S
C452 C451 1.291 1_455 S
C452 C453 1.373 1_455 S
C452 H465 0.929 . S
C453 C452 1.373 1_655 S
C453 C454 1.396 . S
C453 C460 1.409 1_655 S
C454 C444 1.476 . S
C454 N449 1.318 . S
C454 C453 1.396 . S
H455 C450 0.929 . S
O456 Mn432 2.385 . S
O456 C434 1.234 . S
O457 Mn432 2.209 . S
O457 Mn433 2.215 . S
O457 C434 1.283 . S
O458 Mn432 2.094 . S
O458 C436 1.240 . S
O459 Mn433 2.117 . S
O459 C436 1.264 . S
C460 C453 1.409 1_455 S
C460 C461 1.369 1_455 S
C460 H466 0.955 . S
C461 C441 1.449 . S
C461 C460 1.369 1_655 S
C461 H467 0.930 . S
H462 C442 0.931 . S
H463 C443 0.930 . S
H464 C451 0.931 1_455 S
H465 C452 0.929 . S
H466 C460 0.955 . S
H467 C461 0.930 . S
Mn468 O473 2.095 . S
Mn468 O483 2.162 . S
Mn468 O484 2.297 . S
Mn468 O492 2.385 . S
Mn468 O493 2.209 . S
Mn468 O494 2.094 . S
Mn469 O474 2.121 . S
Mn469 N476 2.257 . S
Mn469 N485 2.282 . S
Mn469 O493 2.215 . S
Mn469 O495 2.117 . S
C470 O492 1.234 . S
C470 O493 1.283 . S
C471 O483 1.281 . S
C471 O484 1.236 . S
C472 O494 1.240 . S
C472 O495 1.264 . S
O473 Mn468 2.095 . S
O473 C482 1.250 . S
O474 Mn469 2.121 . S
O474 C482 1.258 . S
C475 N476 1.326 . S
C475 C479 1.460 . S
C475 H481 0.929 . S
N476 Mn469 2.257 . S
N476 C475 1.326 . S
N476 C480 1.362 . S
C477 C478 1.258 . S
C477 C480 1.431 . S
C477 C497 1.449 . S
C478 C477 1.258 . S
C478 C479 1.477 . S
C478 H498 0.931 . S
C479 C475 1.460 . S
C479 C478 1.477 . S
C479 H499 0.930 . S
C480 N476 1.362 . S
C480 C477 1.431 . S
C480 C490 1.476 . S
H481 C475 0.929 . S
C482 O473 1.250 . S
C482 O474 1.258 . S
O483 Mn468 2.162 . S
O483 C471 1.281 . S
O484 Mn468 2.297 . S
O484 C471 1.236 . S
N485 Mn469 2.282 . S
N485 C486 1.328 . S
N485 C490 1.318 . S
C486 N485 1.328 . S
C486 C487 1.457 . S
C486 H491 0.929 . S
C487 C486 1.457 . S
C487 C488 1.291 . S
C487 H500 0.931 . S
C488 C487 1.291 . S
C488 C489 1.373 . S
C488 H501 0.929 . S
C489 C488 1.373 . S
C489 C490 1.396 . S
C489 C496 1.403 . S
C490 C480 1.476 . S
C490 N485 1.318 . S
C490 C489 1.396 . S
H491 C486 0.929 . S
O492 Mn468 2.385 . S
O492 C470 1.234 . S
O493 Mn468 2.209 . S
O493 Mn469 2.215 . S
O493 C470 1.283 . S
O494 Mn468 2.094 . S
O494 C472 1.240 . S
O495 Mn469 2.117 . S
O495 C472 1.264 . S
C496 C489 1.403 . S
C496 C497 1.399 . S
C496 H502 0.929 . S
C497 C477 1.449 . S
C497 C496 1.399 . S
C497 H503 0.930 . S
H498 C478 0.931 . S
H499 C479 0.930 . S
H500 C487 0.931 . S
H501 C488 0.929 . S
H502 C496 0.929 . S
H503 C497 0.930 . S
Mn504 O509 2.095 . S
Mn504 O519 2.162 . S
Mn504 O520 2.297 . S
Mn504 O528 2.385 . S
Mn504 O529 2.209 . S
Mn504 O530 2.094 . S
Mn505 O510 2.121 . S
Mn505 N512 2.257 . S
Mn505 N521 2.282 . S
Mn505 O529 2.215 . S
Mn505 O531 2.117 . S
C506 O528 1.234 . S
C506 O529 1.283 . S
C507 O519 1.281 . S
C507 O520 1.236 . S
C508 O530 1.240 . S
C508 O531 1.264 . S
O509 Mn504 2.095 . S
O509 C518 1.250 . S
O510 Mn505 2.121 . S
O510 C518 1.258 . S
C511 N512 1.326 . S
C511 C515 1.460 . S
C511 H517 0.929 . S
N512 Mn505 2.257 . S
N512 C511 1.326 . S
N512 C516 1.362 . S
C513 C514 1.258 . S
C513 C516 1.431 . S
C513 C533 1.449 . S
C514 C513 1.258 . S
C514 C515 1.477 . S
C514 H534 0.931 . S
C515 C511 1.460 . S
C515 C514 1.477 . S
C515 H535 0.930 . S
C516 N512 1.362 . S
C516 C513 1.431 . S
C516 C526 1.476 . S
H517 C511 0.929 . S
C518 O509 1.250 . S
C518 O510 1.258 . S
O519 Mn504 2.162 . S
O519 C507 1.281 . S
O520 Mn504 2.297 . S
O520 C507 1.236 . S
N521 Mn505 2.282 . S
N521 C522 1.328 . S
N521 C526 1.318 . S
C522 N521 1.328 . S
C522 C523 1.457 . S
C522 H527 0.929 . S
C523 C522 1.457 . S
C523 C524 1.291 1_545 S
C523 H536 0.931 1_545 S
C524 C523 1.291 1_565 S
C524 C525 1.373 1_565 S
C524 H537 0.929 . S
C525 C524 1.373 1_545 S
C525 C526 1.396 . S
C525 C532 1.375 1_545 S
C526 C516 1.476 . S
C526 N521 1.318 . S
C526 C525 1.396 . S
H527 C522 0.929 . S
O528 Mn504 2.385 . S
O528 C506 1.234 . S
O529 Mn504 2.209 . S
O529 Mn505 2.215 . S
O529 C506 1.283 . S
O530 Mn504 2.094 . S
O530 C508 1.240 . S
O531 Mn505 2.117 . S
O531 C508 1.264 . S
C532 C525 1.375 1_565 S
C532 C533 1.392 1_565 S
C532 H538 0.966 . S
C533 C513 1.449 . S
C533 C532 1.392 1_545 S
C533 H539 0.930 . S
H534 C514 0.931 . S
H535 C515 0.930 . S
H536 C523 0.931 1_565 S
H537 C524 0.929 . S
H538 C532 0.966 . S
H539 C533 0.930 . S
Mn540 O545 2.095 . S
Mn540 O555 2.162 . S
Mn540 O556 2.297 . S
Mn540 O564 2.385 . S
Mn540 O565 2.209 . S
Mn540 O566 2.094 . S
Mn541 O546 2.121 . S
Mn541 N548 2.257 1_655 S
Mn541 N557 2.282 . S
Mn541 O565 2.215 . S
Mn541 O567 2.117 . S
C542 O564 1.234 . S
C542 O565 1.283 . S
C543 O555 1.281 . S
C543 O556 1.236 . S
C544 O566 1.240 . S
C544 O567 1.264 . S
O545 Mn540 2.095 . S
O545 C554 1.250 . S
O546 Mn541 2.121 . S
O546 C554 1.258 . S
C547 N548 1.326 . S
C547 C551 1.460 . S
C547 H553 0.929 . S
N548 Mn541 2.257 1_455 S
N548 C547 1.326 . S
N548 C552 1.362 . S
C549 C550 1.258 . S
C549 C552 1.431 . S
C549 C569 1.449 . S
C550 C549 1.258 . S
C550 C551 1.477 . S
C550 H570 0.931 . S
C551 C547 1.460 . S
C551 C550 1.477 . S
C551 H571 0.930 . S
C552 N548 1.362 . S
C552 C549 1.431 . S
C552 C562 1.476 . S
H553 C547 0.929 . S
C554 O545 1.250 . S
C554 O546 1.258 . S
O555 Mn540 2.162 . S
O555 C543 1.281 . S
O556 Mn540 2.297 . S
O556 C543 1.236 . S
N557 Mn541 2.282 . S
N557 C558 1.328 . S
N557 C562 1.318 1_655 S
C558 N557 1.328 . S
C558 C559 1.457 1_655 S
C558 H563 0.929 . S
C559 C558 1.457 1_455 S
C559 C560 1.291 . S
C559 H572 0.931 . S
C560 C559 1.291 . S
C560 C561 1.373 . S
C560 H573 0.929 . S
C561 C560 1.373 . S
C561 C562 1.396 . S
C561 C568 1.403 . S
C562 C552 1.476 . S
C562 N557 1.318 1_455 S
C562 C561 1.396 . S
H563 C558 0.929 . S
O564 Mn540 2.385 . S
O564 C542 1.234 . S
O565 Mn540 2.209 . S
O565 Mn541 2.215 . S
O565 C542 1.283 . S
O566 Mn540 2.094 . S
O566 C544 1.240 . S
O567 Mn541 2.117 . S
O567 C544 1.264 . S
C568 C561 1.403 . S
C568 C569 1.399 . S
C568 H574 0.929 . S
C569 C549 1.449 . S
C569 C568 1.399 . S
C569 H575 0.930 . S
H570 C550 0.931 . S
H571 C551 0.930 . S
H572 C559 0.931 . S
H573 C560 0.929 . S
H574 C568 0.929 . S
H575 C569 0.930 . S
Mn576 O581 2.095 . S
Mn576 O591 2.162 . S
Mn576 O592 2.297 . S
Mn576 O600 2.385 . S
Mn576 O601 2.209 . S
Mn576 O602 2.094 . S
Mn577 O582 2.121 . S
Mn577 N584 2.257 . S
Mn577 N593 2.282 . S
Mn577 O601 2.215 . S
Mn577 O603 2.117 . S
C578 O600 1.234 . S
C578 O601 1.283 . S
C579 O591 1.281 . S
C579 O592 1.236 . S
C580 O602 1.240 . S
C580 O603 1.264 . S
O581 Mn576 2.095 . S
O581 C590 1.250 . S
O582 Mn577 2.121 . S
O582 C590 1.258 . S
C583 N584 1.326 . S
C583 C587 1.460 . S
C583 H589 0.929 . S
N584 Mn577 2.257 . S
N584 C583 1.326 . S
N584 C588 1.362 . S
C585 C586 1.258 . S
C585 C588 1.431 . S
C585 C605 1.449 . S
C586 C585 1.258 . S
C586 C587 1.477 . S
C586 H606 0.931 . S
C587 C583 1.460 . S
C587 C586 1.477 . S
C587 H607 0.930 . S
C588 N584 1.362 . S
C588 C585 1.431 . S
C588 C598 1.476 . S
H589 C583 0.929 . S
C590 O581 1.250 . S
C590 O582 1.258 . S
O591 Mn576 2.162 . S
O591 C579 1.281 . S
O592 Mn576 2.297 . S
O592 C579 1.236 . S
N593 Mn577 2.282 . S
N593 C594 1.328 . S
N593 C598 1.318 . S
C594 N593 1.328 . S
C594 C595 1.457 . S
C594 H599 0.929 . S
C595 C594 1.457 . S
C595 C596 1.291 . S
C595 H608 0.931 . S
C596 C595 1.291 . S
C596 C597 1.373 . S
C596 H609 0.929 . S
C597 C596 1.373 . S
C597 C598 1.396 . S
C597 C604 1.403 . S
C598 C588 1.476 . S
C598 N593 1.318 . S
C598 C597 1.396 . S
H599 C594 0.929 . S
O600 Mn576 2.385 . S
O600 C578 1.234 . S
O601 Mn576 2.209 . S
O601 Mn577 2.215 . S
O601 C578 1.283 . S
O602 Mn576 2.094 . S
O602 C580 1.240 . S
O603 Mn577 2.117 . S
O603 C580 1.264 . S
C604 C597 1.403 . S
C604 C605 1.399 . S
C604 H610 0.929 . S
C605 C585 1.449 . S
C605 C604 1.399 . S
C605 H611 0.930 . S
H606 C586 0.931 . S
H607 C587 0.930 . S
H608 C595 0.931 . S
H609 C596 0.929 . S
H610 C604 0.929 . S
H611 C605 0.930 . S
Mn612 O617 2.095 . S
Mn612 O627 2.162 . S
Mn612 O628 2.297 . S
Mn612 O636 2.385 . S
Mn612 O637 2.209 . S
Mn612 O638 2.094 . S
Mn613 O618 2.121 . S
Mn613 N620 2.257 1_545 S
Mn613 N629 2.282 . S
Mn613 O637 2.215 . S
Mn613 O639 2.117 . S
C614 O636 1.234 . S
C614 O637 1.283 . S
C615 O627 1.281 . S
C615 O628 1.236 . S
C616 O638 1.240 . S
C616 O639 1.264 . S
O617 Mn612 2.095 . S
O617 C626 1.250 . S
O618 Mn613 2.121 . S
O618 C626 1.258 . S
C619 N620 1.326 . S
C619 C623 1.460 . S
C619 H625 0.929 . S
N620 Mn613 2.257 1_565 S
N620 C619 1.326 . S
N620 C624 1.362 . S
C621 C622 1.258 . S
C621 C624 1.431 . S
C621 C641 1.449 . S
C622 C621 1.258 . S
C622 C623 1.477 . S
C622 H642 0.931 . S
C623 C619 1.460 . S
C623 C622 1.477 . S
C623 H643 0.930 . S
C624 N620 1.362 . S
C624 C621 1.431 . S
C624 C634 1.476 . S
H625 C619 0.929 . S
C626 O617 1.250 . S
C626 O618 1.258 . S
O627 Mn612 2.162 . S
O627 C615 1.281 . S
O628 Mn612 2.297 . S
O628 C615 1.236 . S
N629 Mn613 2.282 . S
N629 C630 1.328 . S
N629 C634 1.318 1_545 S
C630 N629 1.328 . S
C630 C631 1.457 1_545 S
C630 H635 0.929 . S
C631 C630 1.457 1_565 S
C631 C632 1.291 . S
C631 H644 0.931 . S
C632 C631 1.291 . S
C632 C633 1.373 . S
C632 H645 0.929 . S
C633 C632 1.373 . S
C633 C634 1.396 . S
C633 C640 1.403 . S
C634 C624 1.476 . S
C634 N629 1.318 1_565 S
C634 C633 1.396 . S
H635 C630 0.929 . S
O636 Mn612 2.385 . S
O636 C614 1.234 . S
O637 Mn612 2.209 . S
O637 Mn613 2.215 . S
O637 C614 1.283 . S
O638 Mn612 2.094 . S
O638 C616 1.240 . S
O639 Mn613 2.117 . S
O639 C616 1.264 . S
C640 C633 1.403 . S
C640 C641 1.399 . S
C640 H646 0.929 . S
C641 C621 1.449 . S
C641 C640 1.399 . S
C641 H647 0.930 . S
H642 C622 0.931 . S
H643 C623 0.930 . S
H644 C631 0.931 . S
H645 C632 0.929 . S
H646 C640 0.929 . S
H647 C641 0.930 . S
Mn648 O653 2.095 . S
Mn648 O663 2.162 . S
Mn648 O664 2.297 . S
Mn648 O672 2.385 . S
Mn648 O673 2.209 . S
Mn648 O674 2.094 . S
Mn649 O654 2.121 . S
Mn649 N656 2.257 1_545 S
Mn649 N665 2.282 1_556 S
Mn649 O673 2.215 1_556 S
Mn649 O675 2.117 1_556 S
C650 O672 1.234 . S
C650 O673 1.283 . S
C651 O663 1.281 . S
C651 O664 1.236 . S
C652 O674 1.240 . S
C652 O675 1.264 . S
O653 Mn648 2.095 . S
O653 C662 1.250 1_554 S
O654 Mn649 2.121 . S
O654 C662 1.258 . S
C655 N656 1.326 . S
C655 C659 1.460 . S
C655 H661 0.929 . S
N656 Mn649 2.257 1_565 S
N656 C655 1.326 . S
N656 C660 1.362 . S
C657 C658 1.258 . S
C657 C660 1.431 . S
C657 C677 1.449 . S
C658 C657 1.258 . S
C658 C659 1.477 . S
C658 H678 0.931 . S
C659 C655 1.460 . S
C659 C658 1.477 . S
C659 H679 0.930 . S
C660 N656 1.362 . S
C660 C657 1.431 . S
C660 C670 1.476 . S
H661 C655 0.929 . S
C662 O653 1.250 1_556 S
C662 O654 1.258 . S
O663 Mn648 2.162 . S
O663 C651 1.281 . S
O664 Mn648 2.297 . S
O664 C651 1.236 . S
N665 Mn649 2.282 1_554 S
N665 C666 1.328 . S
N665 C670 1.318 1_544 S
C666 N665 1.328 . S
C666 C667 1.457 1_545 S
C666 H671 0.929 . S
C667 C666 1.457 1_565 S
C667 C668 1.291 . S
C667 H680 0.931 . S
C668 C667 1.291 . S
C668 C669 1.373 . S
C668 H681 0.929 . S
C669 C668 1.373 . S
C669 C670 1.396 1_554 S
C669 C676 1.403 1_554 S
C670 C660 1.476 . S
C670 N665 1.318 1_566 S
C670 C669 1.396 1_556 S
H671 C666 0.929 . S
O672 Mn648 2.385 . S
O672 C650 1.234 . S
O673 Mn648 2.209 . S
O673 Mn649 2.215 1_554 S
O673 C650 1.283 . S
O674 Mn648 2.094 . S
O674 C652 1.240 . S
O675 Mn649 2.117 1_554 S
O675 C652 1.264 . S
C676 C669 1.403 1_556 S
C676 C677 1.399 . S
C676 H682 0.929 . S
C677 C657 1.449 . S
C677 C676 1.399 . S
C677 H683 0.930 . S
H678 C658 0.931 . S
H679 C659 0.930 . S
H680 C667 0.931 . S
H681 C668 0.929 . S
H682 C676 0.929 . S
H683 C677 0.930 . S
Mn684 O689 2.095 . S
Mn684 O699 2.162 . S
Mn684 O700 2.297 . S
Mn684 O708 2.385 . S
Mn684 O709 2.209 . S
Mn684 O710 2.094 . S
Mn685 O690 2.121 . S
Mn685 N692 2.257 1_655 S
Mn685 N701 2.282 1_556 S
Mn685 O709 2.215 1_556 S
Mn685 O711 2.117 1_556 S
C686 O708 1.234 . S
C686 O709 1.283 . S
C687 O699 1.281 . S
C687 O700 1.236 . S
C688 O710 1.240 . S
C688 O711 1.264 . S
O689 Mn684 2.095 . S
O689 C698 1.250 1_554 S
O690 Mn685 2.121 . S
O690 C698 1.258 . S
C691 N692 1.326 . S
C691 C695 1.460 . S
C691 H697 0.929 . S
N692 Mn685 2.257 1_455 S
N692 C691 1.326 . S
N692 C696 1.362 . S
C693 C694 1.258 . S
C693 C696 1.431 . S
C693 C713 1.449 . S
C694 C693 1.258 . S
C694 C695 1.477 . S
C694 H714 0.931 . S
C695 C691 1.460 . S
C695 C694 1.477 . S
C695 H715 0.930 . S
C696 N692 1.362 . S
C696 C693 1.431 . S
C696 C706 1.476 . S
H697 C691 0.929 . S
C698 O689 1.250 1_556 S
C698 O690 1.258 . S
O699 Mn684 2.162 . S
O699 C687 1.281 . S
O700 Mn684 2.297 . S
O700 C687 1.236 . S
N701 Mn685 2.282 1_554 S
N701 C702 1.328 . S
N701 C706 1.318 1_654 S
C702 N701 1.328 . S
C702 C703 1.457 1_655 S
C702 H707 0.929 . S
C703 C702 1.457 1_455 S
C703 C704 1.291 . S
C703 H716 0.931 . S
C704 C703 1.291 . S
C704 C705 1.373 . S
C704 H717 0.929 . S
C705 C704 1.373 . S
C705 C706 1.396 1_554 S
C705 C712 1.403 1_554 S
C706 C696 1.476 . S
C706 N701 1.318 1_456 S
C706 C705 1.396 1_556 S
H707 C702 0.929 . S
O708 Mn684 2.385 . S
O708 C686 1.234 . S
O709 Mn684 2.209 . S
O709 Mn685 2.215 1_554 S
O709 C686 1.283 . S
O710 Mn684 2.094 . S
O710 C688 1.240 . S
O711 Mn685 2.117 1_554 S
O711 C688 1.264 . S
C712 C705 1.403 1_556 S
C712 C713 1.399 . S
C712 H718 0.929 . S
C713 C693 1.449 . S
C713 C712 1.399 . S
C713 H719 0.930 . S
H714 C694 0.931 . S
H715 C695 0.930 . S
H716 C703 0.931 . S
H717 C704 0.929 . S
H718 C712 0.929 . S
H719 C713 0.930 . S
Mn720 O725 2.095 . S
Mn720 O735 2.162 . S
Mn720 O736 2.297 . S
Mn720 O744 2.385 . S
Mn720 O745 2.209 . S
Mn720 O746 2.094 . S
Mn721 O726 2.121 . S
Mn721 N728 2.257 . S
Mn721 N737 2.282 1_556 S
Mn721 O745 2.215 1_556 S
Mn721 O747 2.117 1_556 S
C722 O744 1.234 . S
C722 O745 1.283 . S
C723 O735 1.281 . S
C723 O736 1.236 . S
C724 O746 1.240 . S
C724 O747 1.264 . S
O725 Mn720 2.095 . S
O725 C734 1.250 1_554 S
O726 Mn721 2.121 . S
O726 C734 1.258 . S
C727 N728 1.326 . S
C727 C731 1.460 . S
C727 H733 0.929 . S
N728 Mn721 2.257 . S
N728 C727 1.326 . S
N728 C732 1.362 . S
C729 C730 1.258 . S
C729 C732 1.431 . S
C729 C749 1.449 . S
C730 C729 1.258 . S
C730 C731 1.477 . S
C730 H750 0.931 . S
C731 C727 1.460 . S
C731 C730 1.477 . S
C731 H751 0.930 . S
C732 N728 1.362 . S
C732 C729 1.431 . S
C732 C742 1.476 . S
H733 C727 0.929 . S
C734 O725 1.250 1_556 S
C734 O726 1.258 . S
O735 Mn720 2.162 . S
O735 C723 1.281 . S
O736 Mn720 2.297 . S
O736 C723 1.236 . S
N737 Mn721 2.282 1_554 S
N737 C738 1.328 . S
N737 C742 1.318 1_554 S
C738 N737 1.328 . S
C738 C739 1.457 . S
C738 H743 0.929 . S
C739 C738 1.457 . S
C739 C740 1.291 . S
C739 H752 0.931 . S
C740 C739 1.291 . S
C740 C741 1.373 . S
C740 H753 0.929 . S
C741 C740 1.373 . S
C741 C742 1.396 1_554 S
C741 C748 1.403 1_554 S
C742 C732 1.476 . S
C742 N737 1.318 1_556 S
C742 C741 1.396 1_556 S
H743 C738 0.929 . S
O744 Mn720 2.385 . S
O744 C722 1.234 . S
O745 Mn720 2.209 . S
O745 Mn721 2.215 1_554 S
O745 C722 1.283 . S
O746 Mn720 2.094 . S
O746 C724 1.240 . S
O747 Mn721 2.117 1_554 S
O747 C724 1.264 . S
C748 C741 1.403 1_556 S
C748 C749 1.399 . S
C748 H754 0.929 . S
C749 C729 1.449 . S
C749 C748 1.399 . S
C749 H755 0.930 . S
H750 C730 0.931 . S
H751 C731 0.930 . S
H752 C739 0.931 . S
H753 C740 0.929 . S
H754 C748 0.929 . S
H755 C749 0.930 . S
Mn756 O761 2.095 1_556 S
Mn756 O771 2.162 . S
Mn756 O772 2.297 . S
Mn756 O780 2.385 . S
Mn756 O781 2.209 1_556 S
Mn756 O782 2.094 . S
Mn757 O762 2.121 . S
Mn757 N764 2.257 . S
Mn757 N773 2.282 . S
Mn757 O781 2.215 . S
Mn757 O783 2.117 . S
C758 O780 1.234 . S
C758 O781 1.283 1_556 S
C759 O771 1.281 . S
C759 O772 1.236 . S
C760 O782 1.240 1_554 S
C760 O783 1.264 . S
O761 Mn756 2.095 1_554 S
O761 C770 1.250 . S
O762 Mn757 2.121 . S
O762 C770 1.258 . S
C763 N764 1.326 . S
C763 C767 1.460 . S
C763 H769 0.929 . S
N764 Mn757 2.257 . S
N764 C763 1.326 . S
N764 C768 1.362 . S
C765 C766 1.258 . S
C765 C768 1.431 . S
C765 C785 1.449 . S
C766 C765 1.258 . S
C766 C767 1.477 . S
C766 H786 0.931 . S
C767 C763 1.460 . S
C767 C766 1.477 . S
C767 H787 0.930 . S
C768 N764 1.362 . S
C768 C765 1.431 . S
C768 C778 1.476 . S
H769 C763 0.929 . S
C770 O761 1.250 . S
C770 O762 1.258 . S
O771 Mn756 2.162 . S
O771 C759 1.281 . S
O772 Mn756 2.297 . S
O772 C759 1.236 . S
N773 Mn757 2.282 . S
N773 C774 1.328 . S
N773 C778 1.318 . S
C774 N773 1.328 . S
C774 C775 1.457 . S
C774 H779 0.929 . S
C775 C774 1.457 . S
C775 C776 1.291 1_545 S
C775 H788 0.931 1_545 S
C776 C775 1.291 1_565 S
C776 C777 1.373 1_565 S
C776 H789 0.929 . S
C777 C776 1.373 1_545 S
C777 C778 1.396 . S
C777 C784 1.406 1_545 S
C778 C768 1.476 . S
C778 N773 1.318 . S
C778 C777 1.396 . S
H779 C774 0.929 . S
O780 Mn756 2.385 . S
O780 C758 1.234 . S
O781 Mn756 2.209 1_554 S
O781 Mn757 2.215 . S
O781 C758 1.283 1_554 S
O782 Mn756 2.094 . S
O782 C760 1.240 1_556 S
O783 Mn757 2.117 . S
O783 C760 1.264 . S
C784 C777 1.406 1_565 S
C784 C785 1.381 1_565 S
C784 H790 0.944 . S
C785 C765 1.449 . S
C785 C784 1.381 1_545 S
C785 H791 0.930 . S
H786 C766 0.931 . S
H787 C767 0.930 . S
H788 C775 0.931 1_565 S
H789 C776 0.929 . S
H790 C784 0.944 . S
H791 C785 0.930 . S
Mn792 O797 2.095 1_556 S
Mn792 O807 2.162 . S
Mn792 O808 2.297 . S
Mn792 O816 2.385 . S
Mn792 O817 2.209 1_556 S
Mn792 O818 2.094 . S
Mn793 O798 2.121 . S
Mn793 N800 2.257 . S
Mn793 N809 2.282 . S
Mn793 O817 2.215 . S
Mn793 O819 2.117 . S
C794 O816 1.234 . S
C794 O817 1.283 1_556 S
C795 O807 1.281 . S
C795 O808 1.236 . S
C796 O818 1.240 1_554 S
C796 O819 1.264 . S
O797 Mn792 2.095 1_554 S
O797 C806 1.250 . S
O798 Mn793 2.121 . S
O798 C806 1.258 . S
C799 N800 1.326 . S
C799 C803 1.460 . S
C799 H805 0.929 . S
N800 Mn793 2.257 . S
N800 C799 1.326 . S
N800 C804 1.362 . S
C801 C802 1.258 . S
C801 C804 1.431 . S
C801 C821 1.449 . S
C802 C801 1.258 . S
C802 C803 1.477 . S
C802 H822 0.931 . S
C803 C799 1.460 . S
C803 C802 1.477 . S
C803 H823 0.930 . S
C804 N800 1.362 . S
C804 C801 1.431 . S
C804 C814 1.476 . S
H805 C799 0.929 . S
C806 O797 1.250 . S
C806 O798 1.258 . S
O807 Mn792 2.162 . S
O807 C795 1.281 . S
O808 Mn792 2.297 . S
O808 C795 1.236 . S
N809 Mn793 2.282 . S
N809 C810 1.328 . S
N809 C814 1.318 . S
C810 N809 1.328 . S
C810 C811 1.457 . S
C810 H815 0.929 . S
C811 C810 1.457 . S
C811 C812 1.291 1_655 S
C811 H824 0.931 1_655 S
C812 C811 1.291 1_455 S
C812 C813 1.373 1_455 S
C812 H825 0.929 . S
C813 C812 1.373 1_655 S
C813 C814 1.396 . S
C813 C820 1.387 1_655 S
C814 C804 1.476 . S
C814 N809 1.318 . S
C814 C813 1.396 . S
H815 C810 0.929 . S
O816 Mn792 2.385 . S
O816 C794 1.234 . S
O817 Mn792 2.209 1_554 S
O817 Mn793 2.215 . S
O817 C794 1.283 1_554 S
O818 Mn792 2.094 . S
O818 C796 1.240 1_556 S
O819 Mn793 2.117 . S
O819 C796 1.264 . S
C820 C813 1.387 1_455 S
C820 C821 1.395 1_455 S
C820 H826 0.950 . S
C821 C801 1.449 . S
C821 C820 1.395 1_655 S
C821 H827 0.930 . S
H822 C802 0.931 . S
H823 C803 0.930 . S
H824 C811 0.931 1_455 S
H825 C812 0.929 . S
H826 C820 0.950 . S
H827 C821 0.930 . S
Mn828 O833 2.095 1_556 S
Mn828 O843 2.162 . S
Mn828 O844 2.297 . S
Mn828 O852 2.385 . S
Mn828 O853 2.209 1_556 S
Mn828 O854 2.094 . S
Mn829 O834 2.121 . S
Mn829 N836 2.257 . S
Mn829 N845 2.282 . S
Mn829 O853 2.215 . S
Mn829 O855 2.117 . S
C830 O852 1.234 . S
C830 O853 1.283 1_556 S
C831 O843 1.281 . S
C831 O844 1.236 . S
C832 O854 1.240 1_554 S
C832 O855 1.264 . S
O833 Mn828 2.095 1_554 S
O833 C842 1.250 . S
O834 Mn829 2.121 . S
O834 C842 1.258 . S
C835 N836 1.326 . S
C835 C839 1.460 . S
C835 H841 0.929 . S
N836 Mn829 2.257 . S
N836 C835 1.326 . S
N836 C840 1.362 . S
C837 C838 1.258 . S
C837 C840 1.431 . S
C837 C857 1.449 . S
C838 C837 1.258 . S
C838 C839 1.477 . S
C838 H858 0.931 . S
C839 C835 1.460 . S
C839 C838 1.477 . S
C839 H859 0.930 . S
C840 N836 1.362 . S
C840 C837 1.431 . S
C840 C850 1.476 . S
H841 C835 0.929 . S
C842 O833 1.250 . S
C842 O834 1.258 . S
O843 Mn828 2.162 . S
O843 C831 1.281 . S
O844 Mn828 2.297 . S
O844 C831 1.236 . S
N845 Mn829 2.282 . S
N845 C846 1.328 . S
N845 C850 1.318 . S
C846 N845 1.328 . S
C846 C847 1.457 . S
C846 H851 0.929 . S
C847 C846 1.457 . S
C847 C848 1.291 . S
C847 H860 0.931 . S
C848 C847 1.291 . S
C848 C849 1.373 . S
C848 H861 0.929 . S
C849 C848 1.373 . S
C849 C850 1.396 . S
C849 C856 1.403 . S
C850 C840 1.476 . S
C850 N845 1.318 . S
C850 C849 1.396 . S
H851 C846 0.929 . S
O852 Mn828 2.385 . S
O852 C830 1.234 . S
O853 Mn828 2.209 1_554 S
O853 Mn829 2.215 . S
O853 C830 1.283 1_554 S
O854 Mn828 2.094 . S
O854 C832 1.240 1_556 S
O855 Mn829 2.117 . S
O855 C832 1.264 . S
C856 C849 1.403 . S
C856 C857 1.399 . S
C856 H862 0.929 . S
C857 C837 1.449 . S
C857 C856 1.399 . S
C857 H863 0.930 . S
H858 C838 0.931 . S
H859 C839 0.930 . S
H860 C847 0.931 . S
H861 C848 0.929 . S
H862 C856 0.929 . S
H863 C857 0.930 . S
Mn864 O869 2.095 . S
Mn864 O879 2.162 . S
Mn864 O880 2.297 . S
Mn864 O888 2.385 . S
Mn864 O889 2.209 . S
Mn864 O890 2.094 . S
Mn865 O870 2.121 . S
Mn865 N872 2.257 1_565 S
Mn865 N881 2.282 1_554 S
Mn865 O889 2.215 1_554 S
Mn865 O891 2.117 1_554 S
C866 O888 1.234 . S
C866 O889 1.283 . S
C867 O879 1.281 . S
C867 O880 1.236 . S
C868 O890 1.240 . S
C868 O891 1.264 . S
O869 Mn864 2.095 . S
O869 C878 1.250 1_556 S
O870 Mn865 2.121 . S
O870 C878 1.258 . S
C871 N872 1.326 . S
C871 C875 1.460 . S
C871 H877 0.929 . S
N872 Mn865 2.257 1_545 S
N872 C871 1.326 . S
N872 C876 1.362 . S
C873 C874 1.258 . S
C873 C876 1.431 . S
C873 C893 1.449 . S
C874 C873 1.258 . S
C874 C875 1.477 . S
C874 H894 0.931 . S
C875 C871 1.460 . S
C875 C874 1.477 . S
C875 H895 0.930 . S
C876 N872 1.362 . S
C876 C873 1.431 . S
C876 C886 1.476 . S
H877 C871 0.929 . S
C878 O869 1.250 1_554 S
C878 O870 1.258 . S
O879 Mn864 2.162 . S
O879 C867 1.281 . S
O880 Mn864 2.297 . S
O880 C867 1.236 . S
N881 Mn865 2.282 1_556 S
N881 C882 1.328 . S
N881 C886 1.318 1_566 S
C882 N881 1.328 . S
C882 C883 1.457 1_565 S
C882 H887 0.929 . S
C883 C882 1.457 1_545 S
C883 C884 1.291 . S
C883 H896 0.931 . S
C884 C883 1.291 . S
C884 C885 1.373 . S
C884 H897 0.929 . S
C885 C884 1.373 . S
C885 C886 1.396 1_556 S
C885 C892 1.403 1_556 S
C886 C876 1.476 . S
C886 N881 1.318 1_544 S
C886 C885 1.396 1_554 S
H887 C882 0.929 . S
O888 Mn864 2.385 . S
O888 C866 1.234 . S
O889 Mn864 2.209 . S
O889 Mn865 2.215 1_556 S
O889 C866 1.283 . S
O890 Mn864 2.094 . S
O890 C868 1.240 . S
O891 Mn865 2.117 1_556 S
O891 C868 1.264 . S
C892 C885 1.403 1_554 S
C892 C893 1.399 . S
C892 H898 0.929 . S
C893 C873 1.449 . S
C893 C892 1.399 . S
C893 H899 0.930 . S
H894 C874 0.931 . S
H895 C875 0.930 . S
H896 C883 0.931 . S
H897 C884 0.929 . S
H898 C892 0.929 . S
H899 C893 0.930 . S
Mn900 O905 2.095 . S
Mn900 O915 2.162 . S
Mn900 O916 2.297 . S
Mn900 O924 2.385 . S
Mn900 O925 2.209 . S
Mn900 O926 2.094 . S
Mn901 O906 2.121 . S
Mn901 N908 2.257 1_455 S
Mn901 N917 2.282 1_554 S
Mn901 O925 2.215 1_554 S
Mn901 O927 2.117 1_554 S
C902 O924 1.234 . S
C902 O925 1.283 . S
C903 O915 1.281 . S
C903 O916 1.236 . S
C904 O926 1.240 . S
C904 O927 1.264 . S
O905 Mn900 2.095 . S
O905 C914 1.250 1_556 S
O906 Mn901 2.121 . S
O906 C914 1.258 . S
C907 N908 1.326 . S
C907 C911 1.460 . S
C907 H913 0.929 . S
N908 Mn901 2.257 1_655 S
N908 C907 1.326 . S
N908 C912 1.362 . S
C909 C910 1.258 . S
C909 C912 1.431 . S
C909 C929 1.449 . S
C910 C909 1.258 . S
C910 C911 1.477 . S
C910 H930 0.931 . S
C911 C907 1.460 . S
C911 C910 1.477 . S
C911 H931 0.930 . S
C912 N908 1.362 . S
C912 C909 1.431 . S
C912 C922 1.476 . S
H913 C907 0.929 . S
C914 O905 1.250 1_554 S
C914 O906 1.258 . S
O915 Mn900 2.162 . S
O915 C903 1.281 . S
O916 Mn900 2.297 . S
O916 C903 1.236 . S
N917 Mn901 2.282 1_556 S
N917 C918 1.328 . S
N917 C922 1.318 1_456 S
C918 N917 1.328 . S
C918 C919 1.457 1_455 S
C918 H923 0.929 . S
C919 C918 1.457 1_655 S
C919 C920 1.291 . S
C919 H932 0.931 . S
C920 C919 1.291 . S
C920 C921 1.373 . S
C920 H933 0.929 . S
C921 C920 1.373 . S
C921 C922 1.396 1_556 S
C921 C928 1.403 1_556 S
C922 C912 1.476 . S
C922 N917 1.318 1_654 S
C922 C921 1.396 1_554 S
H923 C918 0.929 . S
O924 Mn900 2.385 . S
O924 C902 1.234 . S
O925 Mn900 2.209 . S
O925 Mn901 2.215 1_556 S
O925 C902 1.283 . S
O926 Mn900 2.094 . S
O926 C904 1.240 . S
O927 Mn901 2.117 1_556 S
O927 C904 1.264 . S
C928 C921 1.403 1_554 S
C928 C929 1.399 . S
C928 H934 0.929 . S
C929 C909 1.449 . S
C929 C928 1.399 . S
C929 H935 0.930 . S
H930 C910 0.931 . S
H931 C911 0.930 . S
H932 C919 0.931 . S
H933 C920 0.929 . S
H934 C928 0.929 . S
H935 C929 0.930 . S
Mn936 O941 2.095 . S
Mn936 O951 2.162 . S
Mn936 O952 2.297 . S
Mn936 O960 2.385 . S
Mn936 O961 2.209 . S
Mn936 O962 2.094 . S
Mn937 O942 2.121 . S
Mn937 N944 2.257 . S
Mn937 N953 2.282 1_554 S
Mn937 O961 2.215 1_554 S
Mn937 O963 2.117 1_554 S
C938 O960 1.234 . S
C938 O961 1.283 . S
C939 O951 1.281 . S
C939 O952 1.236 . S
C940 O962 1.240 . S
C940 O963 1.264 . S
O941 Mn936 2.095 . S
O941 C950 1.250 1_556 S
O942 Mn937 2.121 . S
O942 C950 1.258 . S
C943 N944 1.326 . S
C943 C947 1.460 . S
C943 H949 0.929 . S
N944 Mn937 2.257 . S
N944 C943 1.326 . S
N944 C948 1.362 . S
C945 C946 1.258 . S
C945 C948 1.431 . S
C945 C965 1.449 . S
C946 C945 1.258 . S
C946 C947 1.477 . S
C946 H966 0.931 . S
C947 C943 1.460 . S
C947 C946 1.477 . S
C947 H967 0.930 . S
C948 N944 1.362 . S
C948 C945 1.431 . S
C948 C958 1.476 . S
H949 C943 0.929 . S
C950 O941 1.250 1_554 S
C950 O942 1.258 . S
O951 Mn936 2.162 . S
O951 C939 1.281 . S
O952 Mn936 2.297 . S
O952 C939 1.236 . S
N953 Mn937 2.282 1_556 S
N953 C954 1.328 . S
N953 C958 1.318 1_556 S
C954 N953 1.328 . S
C954 C955 1.457 . S
C954 H959 0.929 . S
C955 C954 1.457 . S
C955 C956 1.291 . S
C955 H968 0.931 . S
C956 C955 1.291 . S
C956 C957 1.373 . S
C956 H969 0.929 . S
C957 C956 1.373 . S
C957 C958 1.396 1_556 S
C957 C964 1.403 1_556 S
C958 C948 1.476 . S
C958 N953 1.318 1_554 S
C958 C957 1.396 1_554 S
H959 C954 0.929 . S
O960 Mn936 2.385 . S
O960 C938 1.234 . S
O961 Mn936 2.209 . S
O961 Mn937 2.215 1_556 S
O961 C938 1.283 . S
O962 Mn936 2.094 . S
O962 C940 1.240 . S
O963 Mn937 2.117 1_556 S
O963 C940 1.264 . S
C964 C957 1.403 1_554 S
C964 C965 1.399 . S
C964 H970 0.929 . S
C965 C945 1.449 . S
C965 C964 1.399 . S
C965 H971 0.930 . S
H966 C946 0.931 . S
H967 C947 0.930 . S
H968 C955 0.931 . S
H969 C956 0.929 . S
H970 C964 0.929 . S
H971 C965 0.930 . S
Mn972 O977 2.095 1_554 S
Mn972 O987 2.162 . S
Mn972 O988 2.297 . S
Mn972 O996 2.385 . S
Mn972 O997 2.209 1_554 S
Mn972 O998 2.094 . S
Mn973 O978 2.121 . S
Mn973 N980 2.257 . S
Mn973 N989 2.282 . S
Mn973 O997 2.215 . S
Mn973 O999 2.117 . S
C974 O996 1.234 . S
C974 O997 1.283 1_554 S
C975 O987 1.281 . S
C975 O988 1.236 . S
C976 O998 1.240 1_556 S
C976 O999 1.264 . S
O977 Mn972 2.095 1_556 S
O977 C986 1.250 . S
O978 Mn973 2.121 . S
O978 C986 1.258 . S
C979 N980 1.326 . S
C979 C983 1.460 . S
C979 H985 0.929 . S
N980 Mn973 2.257 . S
N980 C979 1.326 . S
N980 C984 1.362 . S
C981 C982 1.258 . S
C981 C984 1.431 . S
C981 C1001 1.449 . S
C982 C981 1.258 . S
C982 C983 1.477 . S
C982 H1002 0.931 . S
C983 C979 1.460 . S
C983 C982 1.477 . S
C983 H1003 0.930 . S
C984 N980 1.362 . S
C984 C981 1.431 . S
C984 C994 1.476 . S
H985 C979 0.929 . S
C986 O977 1.250 . S
C986 O978 1.258 . S
O987 Mn972 2.162 . S
O987 C975 1.281 . S
O988 Mn972 2.297 . S
O988 C975 1.236 . S
N989 Mn973 2.282 . S
N989 C990 1.328 . S
N989 C994 1.318 . S
C990 N989 1.328 . S
C990 C991 1.457 . S
C990 H995 0.929 . S
C991 C990 1.457 . S
C991 C992 1.291 1_565 S
C991 H1004 0.931 1_565 S
C992 C991 1.291 1_545 S
C992 C993 1.373 1_545 S
C992 H1005 0.929 . S
C993 C992 1.373 1_565 S
C993 C994 1.396 . S
C993 C1000 1.406 1_565 S
C994 C984 1.476 . S
C994 N989 1.318 . S
C994 C993 1.396 . S
H995 C990 0.929 . S
O996 Mn972 2.385 . S
O996 C974 1.234 . S
O997 Mn972 2.209 1_556 S
O997 Mn973 2.215 . S
O997 C974 1.283 1_556 S
O998 Mn972 2.094 . S
O998 C976 1.240 1_554 S
O999 Mn973 2.117 . S
O999 C976 1.264 . S
C1000 C993 1.406 1_545 S
C1000 C1001 1.382 1_545 S
C1000 H1006 0.944 . S
C1001 C981 1.449 . S
C1001 C1000 1.382 1_565 S
C1001 H1007 0.930 . S
H1002 C982 0.931 . S
H1003 C983 0.930 . S
H1004 C991 0.931 1_545 S
H1005 C992 0.929 . S
H1006 C1000 0.944 . S
H1007 C1001 0.930 . S
Mn1008 O1013 2.095 1_554 S
Mn1008 O1023 2.162 . S
Mn1008 O1024 2.297 . S
Mn1008 O1032 2.385 . S
Mn1008 O1033 2.209 1_554 S
Mn1008 O1034 2.094 . S
Mn1009 O1014 2.121 . S
Mn1009 N1016 2.257 . S
Mn1009 N1025 2.282 . S
Mn1009 O1033 2.215 . S
Mn1009 O1035 2.117 . S
C1010 O1032 1.234 . S
C1010 O1033 1.283 1_554 S
C1011 O1023 1.281 . S
C1011 O1024 1.236 . S
C1012 O1034 1.240 1_556 S
C1012 O1035 1.264 . S
O1013 Mn1008 2.095 1_556 S
O1013 C1022 1.250 . S
O1014 Mn1009 2.121 . S
O1014 C1022 1.258 . S
C1015 N1016 1.326 . S
C1015 C1019 1.460 . S
C1015 H1021 0.929 . S
N1016 Mn1009 2.257 . S
N1016 C1015 1.326 . S
N1016 C1020 1.362 . S
C1017 C1018 1.258 . S
C1017 C1020 1.431 . S
C1017 C1037 1.449 . S
C1018 C1017 1.258 . S
C1018 C1019 1.477 . S
C1018 H1038 0.931 . S
C1019 C1015 1.460 . S
C1019 C1018 1.477 . S
C1019 H1039 0.930 . S
C1020 N1016 1.362 . S
C1020 C1017 1.431 . S
C1020 C1030 1.476 . S
H1021 C1015 0.929 . S
C1022 O1013 1.250 . S
C1022 O1014 1.258 . S
O1023 Mn1008 2.162 . S
O1023 C1011 1.281 . S
O1024 Mn1008 2.297 . S
O1024 C1011 1.236 . S
N1025 Mn1009 2.282 . S
N1025 C1026 1.328 . S
N1025 C1030 1.318 . S
C1026 N1025 1.328 . S
C1026 C1027 1.457 . S
C1026 H1031 0.929 . S
C1027 C1026 1.457 . S
C1027 C1028 1.291 1_455 S
C1027 H1040 0.931 1_455 S
C1028 C1027 1.291 1_655 S
C1028 C1029 1.373 1_655 S
C1028 H1041 0.929 . S
C1029 C1028 1.373 1_455 S
C1029 C1030 1.396 . S
C1029 C1036 1.387 1_455 S
C1030 C1020 1.476 . S
C1030 N1025 1.318 . S
C1030 C1029 1.396 . S
H1031 C1026 0.929 . S
O1032 Mn1008 2.385 . S
O1032 C1010 1.234 . S
O1033 Mn1008 2.209 1_556 S
O1033 Mn1009 2.215 . S
O1033 C1010 1.283 1_556 S
O1034 Mn1008 2.094 . S
O1034 C1012 1.240 1_554 S
O1035 Mn1009 2.117 . S
O1035 C1012 1.264 . S
C1036 C1029 1.387 1_655 S
C1036 C1037 1.395 1_655 S
C1036 H1042 0.950 . S
C1037 C1017 1.449 . S
C1037 C1036 1.395 1_455 S
C1037 H1043 0.930 . S
H1038 C1018 0.931 . S
H1039 C1019 0.930 . S
H1040 C1027 0.931 1_655 S
H1041 C1028 0.929 . S
H1042 C1036 0.950 . S
H1043 C1037 0.930 . S
Mn1044 O1049 2.095 1_554 S
Mn1044 O1059 2.162 . S
Mn1044 O1060 2.297 . S
Mn1044 O1068 2.385 . S
Mn1044 O1069 2.209 1_554 S
Mn1044 O1070 2.094 . S
Mn1045 O1050 2.121 . S
Mn1045 N1052 2.257 . S
Mn1045 N1061 2.282 . S
Mn1045 O1069 2.215 . S
Mn1045 O1071 2.117 . S
C1046 O1068 1.234 . S
C1046 O1069 1.283 1_554 S
C1047 O1059 1.281 . S
C1047 O1060 1.236 . S
C1048 O1070 1.240 1_556 S
C1048 O1071 1.264 . S
O1049 Mn1044 2.095 1_556 S
O1049 C1058 1.250 . S
O1050 Mn1045 2.121 . S
O1050 C1058 1.258 . S
C1051 N1052 1.326 . S
C1051 C1055 1.460 . S
C1051 H1057 0.929 . S
N1052 Mn1045 2.257 . S
N1052 C1051 1.326 . S
N1052 C1056 1.362 . S
C1053 C1054 1.258 . S
C1053 C1056 1.431 . S
C1053 C1073 1.449 . S
C1054 C1053 1.258 . S
C1054 C1055 1.477 . S
C1054 H1074 0.931 . S
C1055 C1051 1.460 . S
C1055 C1054 1.477 . S
C1055 H1075 0.930 . S
C1056 N1052 1.362 . S
C1056 C1053 1.431 . S
C1056 C1066 1.476 . S
H1057 C1051 0.929 . S
C1058 O1049 1.250 . S
C1058 O1050 1.258 . S
O1059 Mn1044 2.162 . S
O1059 C1047 1.281 . S
O1060 Mn1044 2.297 . S
O1060 C1047 1.236 . S
N1061 Mn1045 2.282 . S
N1061 C1062 1.328 . S
N1061 C1066 1.318 . S
C1062 N1061 1.328 . S
C1062 C1063 1.457 . S
C1062 H1067 0.929 . S
C1063 C1062 1.457 . S
C1063 C1064 1.291 . S
C1063 H1076 0.931 . S
C1064 C1063 1.291 . S
C1064 C1065 1.373 . S
C1064 H1077 0.929 . S
C1065 C1064 1.373 . S
C1065 C1066 1.396 . S
C1065 C1072 1.403 . S
C1066 C1056 1.476 . S
C1066 N1061 1.318 . S
C1066 C1065 1.396 . S
H1067 C1062 0.929 . S
O1068 Mn1044 2.385 . S
O1068 C1046 1.234 . S
O1069 Mn1044 2.209 1_556 S
O1069 Mn1045 2.215 . S
O1069 C1046 1.283 1_556 S
O1070 Mn1044 2.094 . S
O1070 C1048 1.240 1_554 S
O1071 Mn1045 2.117 . S
O1071 C1048 1.264 . S
C1072 C1065 1.403 . S
C1072 C1073 1.399 . S
C1072 H1078 0.929 . S
C1073 C1053 1.449 . S
C1073 C1072 1.399 . S
C1073 H1079 0.930 . S
H1074 C1054 0.931 . S
H1075 C1055 0.930 . S
H1076 C1063 0.931 . S
H1077 C1064 0.929 . S
H1078 C1072 0.929 . S
H1079 C1073 0.930 . S
Mn1080 O1085 2.095 . S
Mn1080 O1095 2.162 . S
Mn1080 O1096 2.297 . S
Mn1080 O1104 2.385 . S
Mn1080 O1105 2.209 . S
Mn1080 O1106 2.094 . S
Mn1081 O1086 2.121 . S
Mn1081 N1088 2.257 . S
Mn1081 N1097 2.282 . S
Mn1081 O1105 2.215 . S
Mn1081 O1107 2.117 . S
C1082 O1104 1.234 . S
C1082 O1105 1.283 . S
C1083 O1095 1.281 . S
C1083 O1096 1.236 . S
C1084 O1106 1.240 . S
C1084 O1107 1.264 . S
O1085 Mn1080 2.095 . S
O1085 C1094 1.250 . S
O1086 Mn1081 2.121 . S
O1086 C1094 1.258 . S
C1087 N1088 1.326 . S
C1087 C1091 1.460 . S
C1087 H1093 0.929 . S
N1088 Mn1081 2.257 . S
N1088 C1087 1.326 . S
N1088 C1092 1.362 . S
C1089 C1090 1.258 . S
C1089 C1092 1.431 . S
C1089 C1109 1.449 . S
C1090 C1089 1.258 . S
C1090 C1091 1.477 . S
C1090 H1110 0.931 . S
C1091 C1087 1.460 . S
C1091 C1090 1.477 . S
C1091 H1111 0.930 . S
C1092 N1088 1.362 . S
C1092 C1089 1.431 . S
C1092 C1102 1.476 . S
H1093 C1087 0.929 . S
C1094 O1085 1.250 . S
C1094 O1086 1.258 . S
O1095 Mn1080 2.162 . S
O1095 C1083 1.281 . S
O1096 Mn1080 2.297 . S
O1096 C1083 1.236 . S
N1097 Mn1081 2.282 . S
N1097 C1098 1.328 . S
N1097 C1102 1.318 . S
C1098 N1097 1.328 . S
C1098 C1099 1.457 . S
C1098 H1103 0.929 . S
C1099 C1098 1.457 . S
C1099 C1100 1.291 1_455 S
C1099 H1112 0.931 1_455 S
C1100 C1099 1.291 1_655 S
C1100 C1101 1.373 1_655 S
C1100 H1113 0.929 . S
C1101 C1100 1.373 1_455 S
C1101 C1102 1.396 . S
C1101 C1108 1.409 1_455 S
C1102 C1092 1.476 . S
C1102 N1097 1.318 . S
C1102 C1101 1.396 . S
H1103 C1098 0.929 . S
O1104 Mn1080 2.385 . S
O1104 C1082 1.234 . S
O1105 Mn1080 2.209 . S
O1105 Mn1081 2.215 . S
O1105 C1082 1.283 . S
O1106 Mn1080 2.094 . S
O1106 C1084 1.240 . S
O1107 Mn1081 2.117 . S
O1107 C1084 1.264 . S
C1108 C1101 1.409 1_655 S
C1108 C1109 1.369 1_655 S
C1108 H1114 0.955 . S
C1109 C1089 1.449 . S
C1109 C1108 1.369 1_455 S
C1109 H1115 0.930 . S
H1110 C1090 0.931 . S
H1111 C1091 0.930 . S
H1112 C1099 0.931 1_655 S
H1113 C1100 0.929 . S
H1114 C1108 0.955 . S
H1115 C1109 0.930 . S
Mn1116 O1121 2.095 . S
Mn1116 O1131 2.162 . S
Mn1116 O1132 2.297 . S
Mn1116 O1140 2.385 . S
Mn1116 O1141 2.209 . S
Mn1116 O1142 2.094 . S
Mn1117 O1122 2.121 . S
Mn1117 N1124 2.257 . S
Mn1117 N1133 2.282 . S
Mn1117 O1141 2.215 . S
Mn1117 O1143 2.117 . S
C1118 O1140 1.234 . S
C1118 O1141 1.283 . S
C1119 O1131 1.281 . S
C1119 O1132 1.236 . S
C1120 O1142 1.240 . S
C1120 O1143 1.264 . S
O1121 Mn1116 2.095 . S
O1121 C1130 1.250 . S
O1122 Mn1117 2.121 . S
O1122 C1130 1.258 . S
C1123 N1124 1.326 . S
C1123 C1127 1.460 . S
C1123 H1129 0.929 . S
N1124 Mn1117 2.257 . S
N1124 C1123 1.326 . S
N1124 C1128 1.362 . S
C1125 C1126 1.258 . S
C1125 C1128 1.431 . S
C1125 C1145 1.449 . S
C1126 C1125 1.258 . S
C1126 C1127 1.477 . S
C1126 H1146 0.931 . S
C1127 C1123 1.460 . S
C1127 C1126 1.477 . S
C1127 H1147 0.930 . S
C1128 N1124 1.362 . S
C1128 C1125 1.431 . S
C1128 C1138 1.476 . S
H1129 C1123 0.929 . S
C1130 O1121 1.250 . S
C1130 O1122 1.258 . S
O1131 Mn1116 2.162 . S
O1131 C1119 1.281 . S
O1132 Mn1116 2.297 . S
O1132 C1119 1.236 . S
N1133 Mn1117 2.282 . S
N1133 C1134 1.328 . S
N1133 C1138 1.318 . S
C1134 N1133 1.328 . S
C1134 C1135 1.457 . S
C1134 H1139 0.929 . S
C1135 C1134 1.457 . S
C1135 C1136 1.291 . S
C1135 H1148 0.931 . S
C1136 C1135 1.291 . S
C1136 C1137 1.373 . S
C1136 H1149 0.929 . S
C1137 C1136 1.373 . S
C1137 C1138 1.396 . S
C1137 C1144 1.403 . S
C1138 C1128 1.476 . S
C1138 N1133 1.318 . S
C1138 C1137 1.396 . S
H1139 C1134 0.929 . S
O1140 Mn1116 2.385 . S
O1140 C1118 1.234 . S
O1141 Mn1116 2.209 . S
O1141 Mn1117 2.215 . S
O1141 C1118 1.283 . S
O1142 Mn1116 2.094 . S
O1142 C1120 1.240 . S
O1143 Mn1117 2.117 . S
O1143 C1120 1.264 . S
C1144 C1137 1.403 . S
C1144 C1145 1.399 . S
C1144 H1150 0.929 . S
C1145 C1125 1.449 . S
C1145 C1144 1.399 . S
C1145 H1151 0.930 . S
H1146 C1126 0.931 . S
H1147 C1127 0.930 . S
H1148 C1135 0.931 . S
H1149 C1136 0.929 . S
H1150 C1144 0.929 . S
H1151 C1145 0.930 . S
Mn1152 O1157 2.095 . S
Mn1152 O1167 2.162 . S
Mn1152 O1168 2.297 . S
Mn1152 O1176 2.385 . S
Mn1152 O1177 2.209 . S
Mn1152 O1178 2.094 . S
Mn1153 O1158 2.121 . S
Mn1153 N1160 2.257 . S
Mn1153 N1169 2.282 . S
Mn1153 O1177 2.215 . S
Mn1153 O1179 2.117 . S
C1154 O1176 1.234 . S
C1154 O1177 1.283 . S
C1155 O1167 1.281 . S
C1155 O1168 1.236 . S
C1156 O1178 1.240 . S
C1156 O1179 1.264 . S
O1157 Mn1152 2.095 . S
O1157 C1166 1.250 . S
O1158 Mn1153 2.121 . S
O1158 C1166 1.258 . S
C1159 N1160 1.326 . S
C1159 C1163 1.460 . S
C1159 H1165 0.929 . S
N1160 Mn1153 2.257 . S
N1160 C1159 1.326 . S
N1160 C1164 1.362 . S
C1161 C1162 1.258 . S
C1161 C1164 1.431 . S
C1161 C1181 1.449 . S
C1162 C1161 1.258 . S
C1162 C1163 1.477 . S
C1162 H1182 0.931 . S
C1163 C1159 1.460 . S
C1163 C1162 1.477 . S
C1163 H1183 0.930 . S
C1164 N1160 1.362 . S
C1164 C1161 1.431 . S
C1164 C1174 1.476 . S
H1165 C1159 0.929 . S
C1166 O1157 1.250 . S
C1166 O1158 1.258 . S
O1167 Mn1152 2.162 . S
O1167 C1155 1.281 . S
O1168 Mn1152 2.297 . S
O1168 C1155 1.236 . S
N1169 Mn1153 2.282 . S
N1169 C1170 1.328 . S
N1169 C1174 1.318 . S
C1170 N1169 1.328 . S
C1170 C1171 1.457 . S
C1170 H1175 0.929 . S
C1171 C1170 1.457 . S
C1171 C1172 1.291 1_565 S
C1171 H1184 0.931 1_565 S
C1172 C1171 1.291 1_545 S
C1172 C1173 1.373 1_545 S
C1172 H1185 0.929 . S
C1173 C1172 1.373 1_565 S
C1173 C1174 1.396 . S
C1173 C1180 1.375 1_565 S
C1174 C1164 1.476 . S
C1174 N1169 1.318 . S
C1174 C1173 1.396 . S
H1175 C1170 0.929 . S
O1176 Mn1152 2.385 . S
O1176 C1154 1.234 . S
O1177 Mn1152 2.209 . S
O1177 Mn1153 2.215 . S
O1177 C1154 1.283 . S
O1178 Mn1152 2.094 . S
O1178 C1156 1.240 . S
O1179 Mn1153 2.117 . S
O1179 C1156 1.264 . S
C1180 C1173 1.375 1_545 S
C1180 C1181 1.392 1_545 S
C1180 H1186 0.966 . S
C1181 C1161 1.449 . S
C1181 C1180 1.392 1_565 S
C1181 H1187 0.930 . S
H1182 C1162 0.931 . S
H1183 C1163 0.930 . S
H1184 C1171 0.931 1_545 S
H1185 C1172 0.929 . S
H1186 C1180 0.966 . S
H1187 C1181 0.930 . S
Mn1188 O1193 2.095 . S
Mn1188 O1203 2.162 . S
Mn1188 O1204 2.297 . S
Mn1188 O1212 2.385 . S
Mn1188 O1213 2.209 . S
Mn1188 O1214 2.094 . S
Mn1189 O1194 2.121 . S
Mn1189 N1196 2.257 1_455 S
Mn1189 N1205 2.282 . S
Mn1189 O1213 2.215 . S
Mn1189 O1215 2.117 . S
C1190 O1212 1.234 . S
C1190 O1213 1.283 . S
C1191 O1203 1.281 . S
C1191 O1204 1.236 . S
C1192 O1214 1.240 . S
C1192 O1215 1.264 . S
O1193 Mn1188 2.095 . S
O1193 C1202 1.250 . S
O1194 Mn1189 2.121 . S
O1194 C1202 1.258 . S
C1195 N1196 1.326 . S
C1195 C1199 1.460 . S
C1195 H1201 0.929 . S
N1196 Mn1189 2.257 1_655 S
N1196 C1195 1.326 . S
N1196 C1200 1.362 . S
C1197 C1198 1.258 . S
C1197 C1200 1.431 . S
C1197 C1217 1.449 . S
C1198 C1197 1.258 . S
C1198 C1199 1.477 . S
C1198 H1218 0.931 . S
C1199 C1195 1.460 . S
C1199 C1198 1.477 . S
C1199 H1219 0.930 . S
C1200 N1196 1.362 . S
C1200 C1197 1.431 . S
C1200 C1210 1.476 . S
H1201 C1195 0.929 . S
C1202 O1193 1.250 . S
C1202 O1194 1.258 . S
O1203 Mn1188 2.162 . S
O1203 C1191 1.281 . S
O1204 Mn1188 2.297 . S
O1204 C1191 1.236 . S
N1205 Mn1189 2.282 . S
N1205 C1206 1.328 . S
N1205 C1210 1.318 1_455 S
C1206 N1205 1.328 . S
C1206 C1207 1.457 1_455 S
C1206 H1211 0.929 . S
C1207 C1206 1.457 1_655 S
C1207 C1208 1.291 . S
C1207 H1220 0.931 . S
C1208 C1207 1.291 . S
C1208 C1209 1.373 . S
C1208 H1221 0.929 . S
C1209 C1208 1.373 . S
C1209 C1210 1.396 . S
C1209 C1216 1.403 . S
C1210 C1200 1.476 . S
C1210 N1205 1.318 1_655 S
C1210 C1209 1.396 . S
H1211 C1206 0.929 . S
O1212 Mn1188 2.385 . S
O1212 C1190 1.234 . S
O1213 Mn1188 2.209 . S
O1213 Mn1189 2.215 . S
O1213 C1190 1.283 . S
O1214 Mn1188 2.094 . S
O1214 C1192 1.240 . S
O1215 Mn1189 2.117 . S
O1215 C1192 1.264 . S
C1216 C1209 1.403 . S
C1216 C1217 1.399 . S
C1216 H1222 0.929 . S
C1217 C1197 1.449 . S
C1217 C1216 1.399 . S
C1217 H1223 0.930 . S
H1218 C1198 0.931 . S
H1219 C1199 0.930 . S
H1220 C1207 0.931 . S
H1221 C1208 0.929 . S
H1222 C1216 0.929 . S
H1223 C1217 0.930 . S
Mn1224 O1229 2.095 . S
Mn1224 O1239 2.162 . S
Mn1224 O1240 2.297 . S
Mn1224 O1248 2.385 . S
Mn1224 O1249 2.209 . S
Mn1224 O1250 2.094 . S
Mn1225 O1230 2.121 . S
Mn1225 N1232 2.257 . S
Mn1225 N1241 2.282 . S
Mn1225 O1249 2.215 . S
Mn1225 O1251 2.117 . S
C1226 O1248 1.234 . S
C1226 O1249 1.283 . S
C1227 O1239 1.281 . S
C1227 O1240 1.236 . S
C1228 O1250 1.240 . S
C1228 O1251 1.264 . S
O1229 Mn1224 2.095 . S
O1229 C1238 1.250 . S
O1230 Mn1225 2.121 . S
O1230 C1238 1.258 . S
C1231 N1232 1.326 . S
C1231 C1235 1.460 . S
C1231 H1237 0.929 . S
N1232 Mn1225 2.257 . S
N1232 C1231 1.326 . S
N1232 C1236 1.362 . S
C1233 C1234 1.258 . S
C1233 C1236 1.431 . S
C1233 C1253 1.449 . S
C1234 C1233 1.258 . S
C1234 C1235 1.477 . S
C1234 H1254 0.931 . S
C1235 C1231 1.460 . S
C1235 C1234 1.477 . S
C1235 H1255 0.930 . S
C1236 N1232 1.362 . S
C1236 C1233 1.431 . S
C1236 C1246 1.476 . S
H1237 C1231 0.929 . S
C1238 O1229 1.250 . S
C1238 O1230 1.258 . S
O1239 Mn1224 2.162 . S
O1239 C1227 1.281 . S
O1240 Mn1224 2.297 . S
O1240 C1227 1.236 . S
N1241 Mn1225 2.282 . S
N1241 C1242 1.328 . S
N1241 C1246 1.318 . S
C1242 N1241 1.328 . S
C1242 C1243 1.457 . S
C1242 H1247 0.929 . S
C1243 C1242 1.457 . S
C1243 C1244 1.291 . S
C1243 H1256 0.931 . S
C1244 C1243 1.291 . S
C1244 C1245 1.373 . S
C1244 H1257 0.929 . S
C1245 C1244 1.373 . S
C1245 C1246 1.396 . S
C1245 C1252 1.403 . S
C1246 C1236 1.476 . S
C1246 N1241 1.318 . S
C1246 C1245 1.396 . S
H1247 C1242 0.929 . S
O1248 Mn1224 2.385 . S
O1248 C1226 1.234 . S
O1249 Mn1224 2.209 . S
O1249 Mn1225 2.215 . S
O1249 C1226 1.283 . S
O1250 Mn1224 2.094 . S
O1250 C1228 1.240 . S
O1251 Mn1225 2.117 . S
O1251 C1228 1.264 . S
C1252 C1245 1.403 . S
C1252 C1253 1.399 . S
C1252 H1258 0.929 . S
C1253 C1233 1.449 . S
C1253 C1252 1.399 . S
C1253 H1259 0.930 . S
H1254 C1234 0.931 . S
H1255 C1235 0.930 . S
H1256 C1243 0.931 . S
H1257 C1244 0.929 . S
H1258 C1252 0.929 . S
H1259 C1253 0.930 . S
Mn1260 O1265 2.095 . S
Mn1260 O1275 2.162 . S
Mn1260 O1276 2.297 . S
Mn1260 O1284 2.385 . S
Mn1260 O1285 2.209 . S
Mn1260 O1286 2.094 . S
Mn1261 O1266 2.121 . S
Mn1261 N1268 2.257 1_565 S
Mn1261 N1277 2.282 . S
Mn1261 O1285 2.215 . S
Mn1261 O1287 2.117 . S
C1262 O1284 1.234 . S
C1262 O1285 1.283 . S
C1263 O1275 1.281 . S
C1263 O1276 1.236 . S
C1264 O1286 1.240 . S
C1264 O1287 1.264 . S
O1265 Mn1260 2.095 . S
O1265 C1274 1.250 . S
O1266 Mn1261 2.121 . S
O1266 C1274 1.258 . S
C1267 N1268 1.326 . S
C1267 C1271 1.460 . S
C1267 H1273 0.929 . S
N1268 Mn1261 2.257 1_545 S
N1268 C1267 1.326 . S
N1268 C1272 1.362 . S
C1269 C1270 1.258 . S
C1269 C1272 1.431 . S
C1269 C1289 1.449 . S
C1270 C1269 1.258 . S
C1270 C1271 1.477 . S
C1270 H1290 0.931 . S
C1271 C1267 1.460 . S
C1271 C1270 1.477 . S
C1271 H1291 0.930 . S
C1272 N1268 1.362 . S
C1272 C1269 1.431 . S
C1272 C1282 1.476 . S
H1273 C1267 0.929 . S
C1274 O1265 1.250 . S
C1274 O1266 1.258 . S
O1275 Mn1260 2.162 . S
O1275 C1263 1.281 . S
O1276 Mn1260 2.297 . S
O1276 C1263 1.236 . S
N1277 Mn1261 2.282 . S
N1277 C1278 1.328 . S
N1277 C1282 1.318 1_565 S
C1278 N1277 1.328 . S
C1278 C1279 1.457 1_565 S
C1278 H1283 0.929 . S
C1279 C1278 1.457 1_545 S
C1279 C1280 1.291 . S
C1279 H1292 0.931 . S
C1280 C1279 1.291 . S
C1280 C1281 1.373 . S
C1280 H1293 0.929 . S
C1281 C1280 1.373 . S
C1281 C1282 1.396 . S
C1281 C1288 1.403 . S
C1282 C1272 1.476 . S
C1282 N1277 1.318 1_545 S
C1282 C1281 1.396 . S
H1283 C1278 0.929 . S
O1284 Mn1260 2.385 . S
O1284 C1262 1.234 . S
O1285 Mn1260 2.209 . S
O1285 Mn1261 2.215 . S
O1285 C1262 1.283 . S
O1286 Mn1260 2.094 . S
O1286 C1264 1.240 . S
O1287 Mn1261 2.117 . S
O1287 C1264 1.264 . S
C1288 C1281 1.403 . S
C1288 C1289 1.399 . S
C1288 H1294 0.929 . S
C1289 C1269 1.449 . S
C1289 C1288 1.399 . S
C1289 H1295 0.930 . S
H1290 C1270 0.931 . S
H1291 C1271 0.930 . S
H1292 C1279 0.931 . S
H1293 C1280 0.929 . S
H1294 C1288 0.929 . S
H1295 C1289 0.930 . S
C112 C4 1.213 . S
C148 C40 1.213 1_545 S
C184 C76 1.213 1_655 S
C220 C328 1.213 . S
C256 C364 1.213 1_545 S
C400 C292 1.213 1_455 S
C436 C544 1.188 . S
C472 C580 1.188 . S
C508 C616 1.188 . S
C652 C760 1.184 . S
C796 C688 1.184 . S
C724 C832 1.184 . S
C868 C976 1.184 . S
C904 C1012 1.184 . S
C1048 C940 1.184 . S
C1192 C1084 1.188 . S
C1228 C1120 1.188 . S
C1264 C1156 1.188 . S
C410 C3 1.497 . S
C39 C338 1.497 . S
C75 C374 1.497 . S
C266 C111 1.509 . S
C147 C302 1.509 . S
C230 C183 1.509 . S
C219 C194 1.497 . S
C255 C122 1.497 . S
C158 C291 1.497 . S
C50 C327 1.509 . S
C86 C363 1.509 . S
C399 C14 1.509 . S
C435 C842 1.452 . S
C770 C471 1.452 . S
C806 C507 1.452 . S
C543 C698 1.480 . S
C734 C579 1.480 . S
C615 C662 1.480 . S
C651 C626 1.471 . S
C687 C554 1.471 . S
C590 C723 1.470 . S
C482 C759 1.515 . S
C518 C795 1.515 . S
C831 C446 1.515 . S
C1274 C867 1.471 . S
C903 C1202 1.470 . S
C939 C1238 1.470 . S
C975 C1130 1.515 . S
C1166 C1011 1.515 . S
C1047 C1094 1.515 . S
C1058 C1083 1.452 . S
C986 C1119 1.452 . S
C1022 C1155 1.452 . S
C914 C1191 1.480 . S
C950 C1227 1.480 . S
C878 C1263 1.480 . S
C1046 C2 1.484 . S
C38 C974 1.484 . S
C1010 C74 1.484 . S
C110 C470 1.494 . S
C506 C146 1.494 . S
C182 C434 1.495 . S
C218 C830 1.484 . S
C758 C254 1.484 . S
C290 C794 1.484 . S
C326 C1118 1.495 . S
C362 C1154 1.494 . S
C1082 C398 1.495 . S
C902 C542 1.515 1_455 S
C938 C578 1.515 . S
C866 C614 1.515 1_565 S
C650 C1262 1.515 1_545 S
C1190 C686 1.515 1_455 S
C722 C1226 1.515 . S
