# Generated by pormake.
# Topology smd, (6)-cn, num edge types: 1
# Building blocks:
#     Node 0, Type 0, BuildingBlock: OJICUG_clean_sbu_0, # of connection points: 6
#     Node 1, Type 0, BuildingBlock: OJICUG_clean_sbu_0, # of connection points: 6
#     Node 2, Type 0, BuildingBlock: OJICUG_clean_sbu_0, # of connection points: 6
#     Node 3, Type 0, BuildingBlock: OJICUG_clean_sbu_0, # of connection points: 6
#     Node 4, Type 0, BuildingBlock: OJICUG_clean_sbu_0, # of connection points: 6
#     Node 5, Type 0, BuildingBlock: OJICUG_clean_sbu_0, # of connection points: 6
#     Node 6, Type 0, BuildingBlock: OJICUG_clean_sbu_0, # of connection points: 6
#     Node 7, Type 0, BuildingBlock: OJICUG_clean_sbu_0, # of connection points: 6
#     Node 8, Type 0, BuildingBlock: OJICUG_clean_sbu_0, # of connection points: 6
#     Node 9, Type 0, BuildingBlock: OJICUG_clean_sbu_0, # of connection points: 6
#     Node 10, Type 0, BuildingBlock: OJICUG_clean_sbu_0, # of connection points: 6
#     Node 11, Type 0, BuildingBlock: OJICUG_clean_sbu_0, # of connection points: 6
#     Node 12, Type 0, BuildingBlock: OJICUG_clean_sbu_0, # of connection points: 6
#     Node 13, Type 0, BuildingBlock: OJICUG_clean_sbu_0, # of connection points: 6
#     Node 14, Type 0, BuildingBlock: OJICUG_clean_sbu_0, # of connection points: 6
#     Node 15, Type 0, BuildingBlock: OJICUG_clean_sbu_0, # of connection points: 6
#     Node 16, Type 0, BuildingBlock: OJICUG_clean_sbu_0, # of connection points: 6
#     Node 17, Type 0, BuildingBlock: OJICUG_clean_sbu_0, # of connection points: 6
#     Edge 18, Type (0, 0), None
#     Edge 19, Type (0, 0), None
#     Edge 20, Type (0, 0), None
#     Edge 21, Type (0, 0), None
#     Edge 22, Type (0, 0), None
#     Edge 23, Type (0, 0), None
#     Edge 24, Type (0, 0), None
#     Edge 25, Type (0, 0), None
#     Edge 26, Type (0, 0), None
#     Edge 27, Type (0, 0), None
#     Edge 28, Type (0, 0), None
#     Edge 29, Type (0, 0), None
#     Edge 30, Type (0, 0), None
#     Edge 31, Type (0, 0), None
#     Edge 32, Type (0, 0), None
#     Edge 33, Type (0, 0), None
#     Edge 34, Type (0, 0), None
#     Edge 35, Type (0, 0), None
#     Edge 36, Type (0, 0), None
#     Edge 37, Type (0, 0), None
#     Edge 38, Type (0, 0), None
#     Edge 39, Type (0, 0), None
#     Edge 40, Type (0, 0), None
#     Edge 41, Type (0, 0), None
#     Edge 42, Type (0, 0), None
#     Edge 43, Type (0, 0), None
#     Edge 44, Type (0, 0), None
#     Edge 45, Type (0, 0), None
#     Edge 46, Type (0, 0), None
#     Edge 47, Type (0, 0), None
#     Edge 48, Type (0, 0), None
#     Edge 49, Type (0, 0), None
#     Edge 50, Type (0, 0), None
#     Edge 51, Type (0, 0), None
#     Edge 52, Type (0, 0), None
#     Edge 53, Type (0, 0), None
#     Edge 54, Type (0, 0), None
#     Edge 55, Type (0, 0), None
#     Edge 56, Type (0, 0), None
#     Edge 57, Type (0, 0), None
#     Edge 58, Type (0, 0), None
#     Edge 59, Type (0, 0), None
#     Edge 60, Type (0, 0), None
#     Edge 61, Type (0, 0), None
#     Edge 62, Type (0, 0), None
#     Edge 63, Type (0, 0), None
#     Edge 64, Type (0, 0), None
#     Edge 65, Type (0, 0), None
#     Edge 66, Type (0, 0), None
#     Edge 67, Type (0, 0), None
#     Edge 68, Type (0, 0), None
#     Edge 69, Type (0, 0), None
#     Edge 70, Type (0, 0), None
#     Edge 71, Type (0, 0), None
# Relax obj value: 0.160
# Max RMSD: 0.216
# Mean RMSD: 0.216
data_MOF--net-smd--node1-OJICUG_clean_sbu_0--edge1-none
_symmetry_space_group_name_H-M    P1
_symmetry_Int_Tables_number       1
_symmetry_cell_setting            triclinic
loop_
_symmetry_equiv_pos_as_xyz
'x, y, z'
_cell_length_a     38.38037
_cell_length_b     38.37984
_cell_length_c     7.5637518
_cell_angle_alpha  90.001669
_cell_angle_beta   89.999536
_cell_angle_gamma 119.99819
loop_
_atom_site_label
_atom_site_type_symbol
_atom_site_fract_x
_atom_site_fract_y
_atom_site_fract_z
_atom_type_partial_charge
Sc0 Sc 0.94922 0.22125 0.38094 0.0
Sc1 Sc -0.01171 0.16127 0.52371 0.0
Sc2 Sc 0.02736 0.26031 0.66648 0.0
O3 O -0.01171 0.21343 0.52372 0.0
C4 C 0.03026 0.30922 0.37604 0.0
C5 C -0.01693 0.1838 0.11098 0.0
C6 C 0.08042 0.21997 0.57179 0.0
C7 C 0.89616 0.12784 0.47557 0.0
C8 C 0.94631 0.26725 0.67142 0.0
C9 C -0.00648 0.18903 0.93644 0.0
O10 O -0.00779 0.28724 0.35188 0.0
O11 O -0.01541 0.15842 0.2194 0.0
O12 O 0.0759 0.24594 0.65795 0.0
O13 O 0.90068 0.15832 0.38941 0.0
O14 O -0.01564 0.28331 0.69559 0.0
O15 O -0.00802 0.16211 0.82802 0.0
O16 O 0.92567 0.23258 0.60696 0.0
O17 O 0.92501 0.12709 0.55264 0.0
O18 O 0.00295 0.22412 0.88429 0.0
O19 O -0.02636 0.20946 0.16315 0.0
O20 O 0.0509 0.29519 0.44047 0.0
O21 O 0.05156 0.19036 0.49479 0.0
Sc22 Sc 0.7644 0.73441 0.38084 0.0
Sc23 Sc 0.82437 0.83344 0.52363 0.0
Sc24 Sc 0.72533 0.77348 0.66639 0.0
O25 O 0.77221 0.78129 0.52362 0.0
C26 C 0.67642 0.72747 0.37593 0.0
C27 C 0.80184 0.80569 0.1109 0.0
C28 C 0.76567 0.86688 0.57172 0.0
C29 C 0.8578 0.77474 0.47551 0.0
C30 C 0.7184 0.6855 0.67131 0.0
C31 C 0.79662 0.81092 0.93636 0.0
O32 O 0.69841 0.71141 0.35176 0.0
O33 O 0.82723 0.8326 0.21932 0.0
O34 O 0.73971 0.8364 0.65788 0.0
O35 O 0.82732 0.74878 0.38934 0.0
O36 O 0.70233 0.70749 0.69548 0.0
O37 O 0.82353 0.8363 0.82794 0.0
O38 O 0.75306 0.69952 0.60686 0.0
O39 O 0.85855 0.80435 0.55257 0.0
O40 O 0.76153 0.78527 0.8842 0.0
O41 O 0.77618 0.7706 0.16305 0.0
O42 O 0.69045 0.76214 0.44037 0.0
O43 O 0.79528 0.86763 0.49469 0.0
Sc44 Sc 0.25124 0.03643 0.38071 0.0
Sc45 Sc 0.1522 -0.00264 0.52347 0.0
Sc46 Sc 0.21217 0.9583 0.66624 0.0
O47 O 0.20436 -0.00263 0.52347 0.0
C48 C 0.25817 0.95539 0.37577 0.0
C49 C 0.17996 0.00259 0.11074 0.0
C50 C 0.11877 0.90523 0.57162 0.0
C51 C 0.2109 0.0895 0.47541 0.0
C52 C 0.30015 0.03934 0.67117 0.0
C53 C 0.17473 -0.00786 0.9362 0.0
O54 O 0.27424 -0.00656 0.35161 0.0
O55 O 0.15304 0.00106 0.21916 0.0
O56 O 0.14925 0.90976 0.65777 0.0
O57 O 0.23687 0.08498 0.38925 0.0
O58 O 0.27817 0.00128 0.69532 0.0
O59 O 0.14935 -0.00633 0.82778 0.0
O60 O 0.28612 0.05998 0.60674 0.0
O61 O 0.18129 0.06064 0.55241 0.0
O62 O 0.20039 -0.01729 0.88404 0.0
O63 O 0.21505 0.01203 0.1629 0.0
O64 O 0.22351 0.93475 0.44021 0.0
O65 O 0.11802 0.93409 0.49454 0.0
Sc66 Sc 0.02736 0.7735 0.66639 0.0
Sc67 Sc -0.01172 0.83346 0.52365 0.0
Sc68 Sc 0.94922 0.73442 0.38085 0.0
O69 O -0.01171 0.78131 0.52364 0.0
C70 C 0.03027 0.72749 0.37593 0.0
C71 C 0.08042 0.86689 0.57165 0.0
C72 C -0.01694 0.80571 0.1109 0.0
C73 C -0.00648 0.81094 0.93638 0.0
C74 C 0.94632 0.68552 0.67135 0.0
C75 C 0.89615 0.77474 0.47555 0.0
O76 O 0.0509 0.76216 0.44035 0.0
O77 O 0.05156 0.86765 0.49473 0.0
O78 O -0.02636 0.77062 0.16305 0.0
O79 O 0.00296 0.78529 0.88422 0.0
O80 O 0.92568 0.69954 0.60687 0.0
O81 O 0.925 0.80435 0.55257 0.0
O82 O -0.01563 0.7075 0.6955 0.0
O83 O -0.00803 0.83631 0.82795 0.0
O84 O 0.90068 0.74879 0.38931 0.0
O85 O 0.07591 0.83641 0.65785 0.0
O86 O -0.00779 0.71142 0.35179 0.0
O87 O -0.01541 0.83262 0.21934 0.0
Sc88 Sc 0.21217 0.26031 0.66639 0.0
Sc89 Sc 0.1522 0.16128 0.5236 0.0
Sc90 Sc 0.25124 0.22125 0.38083 0.0
O91 O 0.20436 0.21343 0.5236 0.0
C92 C 0.25817 0.30922 0.37592 0.0
C93 C 0.11877 0.21998 0.5717 0.0
C94 C 0.17996 0.1838 0.11086 0.0
C95 C 0.17472 0.18903 0.93634 0.0
C96 C 0.30015 0.26725 0.67131 0.0
C97 C 0.21091 0.12785 0.4755 0.0
O98 O 0.2235 0.29519 0.44037 0.0
O99 O 0.11802 0.19037 0.49469 0.0
O100 O 0.21504 0.20946 0.16303 0.0
O101 O 0.20038 0.22412 0.88418 0.0
O102 O 0.28612 0.23258 0.60685 0.0
O103 O 0.1813 0.1271 0.55251 0.0
O104 O 0.27816 0.28332 0.69547 0.0
O105 O 0.14935 0.16211 0.82791 0.0
O106 O 0.23687 0.15833 0.38929 0.0
O107 O 0.14925 0.24594 0.65791 0.0
O108 O 0.27424 0.28724 0.35176 0.0
O109 O 0.15304 0.15842 0.21929 0.0
Sc110 Sc 0.72534 0.9583 0.66636 0.0
Sc111 Sc 0.82438 -0.00264 0.52357 0.0
Sc112 Sc 0.76442 0.03644 0.38082 0.0
O113 O 0.77223 -0.00263 0.52358 0.0
C114 C 0.67644 0.95539 0.37586 0.0
C115 C 0.76566 0.90522 0.57166 0.0
C116 C 0.80186 0.0026 0.11084 0.0
C117 C 0.79663 -0.00787 0.93631 0.0
C118 C 0.71841 0.03935 0.67128 0.0
C119 C 0.85781 0.0895 0.47556 0.0
O120 O 0.69047 0.93476 0.44032 0.0
O121 O 0.79527 0.93408 0.49464 0.0
O122 O 0.77621 0.01203 0.163 0.0
O123 O 0.76154 -0.01729 0.88416 0.0
O124 O 0.75308 0.05998 0.60686 0.0
O125 O 0.85856 0.06063 0.5525 0.0
O126 O 0.70234 0.00129 0.69542 0.0
O127 O 0.82354 -0.00634 0.82788 0.0
O128 O 0.82734 0.08498 0.38935 0.0
O129 O 0.73972 0.90975 0.65789 0.0
O130 O 0.69843 -0.00655 0.35172 0.0
O131 O 0.82723 0.00105 0.21927 0.0
Sc132 Sc 0.61588 0.55457 0.71422 0.0
Sc133 Sc 0.65496 0.49461 0.85696 0.0
Sc134 Sc 0.69401 0.59364 0.99976 0.0
O135 O 0.65495 0.54676 0.85698 0.0
C136 C 0.69692 0.64255 0.70928 0.0
C137 C 0.64973 0.51713 0.44424 0.0
C138 C 0.74709 0.55332 0.90511 0.0
C139 C 0.56282 0.46116 0.80887 0.0
C140 C 0.61297 0.60057 1.00467 0.0
C141 C 0.66018 0.52236 0.2697 0.0
O142 O 0.65887 0.62056 0.68512 0.0
O143 O 0.65127 0.49175 0.55266 0.0
O144 O 0.74257 0.57927 0.99128 0.0
O145 O 0.56734 0.49165 0.72273 0.0
O146 O 0.65102 0.61664 0.02883 0.0
O147 O 0.65865 0.49545 0.16127 0.0
O148 O 0.59233 0.5659 0.94024 0.0
O149 O 0.59168 0.46042 0.88587 0.0
O150 O 0.6696 0.55744 0.21755 0.0
O151 O 0.64029 0.54278 0.4964 0.0
O152 O 0.71756 0.62852 0.77375 0.0
O153 O 0.71824 0.52371 0.82806 0.0
Sc154 Sc 0.43108 0.06774 0.71408 0.0
Sc155 Sc 0.49104 0.16678 0.85686 0.0
Sc156 Sc 0.39201 0.10681 0.99964 0.0
O157 O 0.43889 0.11463 0.85686 0.0
C158 C 0.3431 0.06081 0.70913 0.0
C159 C 0.46852 0.13903 0.44413 0.0
C160 C 0.43233 0.20021 0.90501 0.0
C161 C 0.52448 0.10809 0.80876 0.0
C162 C 0.38507 0.01883 1.00452 0.0
C163 C 0.46329 0.14425 0.26959 0.0
O164 O 0.36509 0.04474 0.68497 0.0
O165 O 0.4939 0.16595 0.55255 0.0
O166 O 0.40638 0.16973 0.99118 0.0
O167 O 0.494 0.08212 0.72261 0.0
O168 O 0.369 0.04081 0.02869 0.0
O169 O 0.4902 0.16964 0.16117 0.0
O170 O 0.41974 0.03286 0.94009 0.0
O171 O 0.52523 0.1377 0.88577 0.0
O172 O 0.4282 0.11859 0.21743 0.0
O173 O 0.44287 0.10394 0.49629 0.0
O174 O 0.35712 0.09547 0.77362 0.0
O175 O 0.46194 0.20096 0.82794 0.0
Sc176 Sc 0.9179 0.36976 0.71427 0.0
Sc177 Sc 0.81887 0.33071 0.85705 0.0
Sc178 Sc 0.87883 0.29163 0.9998 0.0
O179 O 0.87102 0.3307 0.85704 0.0
C180 C 0.92484 0.28872 0.70935 0.0
C181 C 0.84661 0.33593 0.44432 0.0
C182 C 0.78543 0.23857 0.9051 0.0
C183 C 0.87757 0.42284 0.80892 0.0
C184 C 0.96681 0.37267 1.00476 0.0
C185 C 0.84139 0.32548 0.26977 0.0
O186 O 0.9409 0.32677 0.6852 0.0
O187 O 0.81971 0.33441 0.55274 0.0
O188 O 0.81591 0.24308 0.99124 0.0
O189 O 0.90353 0.41832 0.72274 0.0
O190 O 0.94482 0.33462 0.02892 0.0
O191 O 0.81601 0.32702 0.16135 0.0
O192 O 0.95278 0.39331 0.94029 0.0
O193 O 0.84797 0.39399 0.88598 0.0
O194 O 0.86704 0.31603 0.21761 0.0
O195 O 0.8817 0.34535 0.49647 0.0
O196 O 0.89017 0.26808 0.77378 0.0
O197 O 0.78468 0.26744 0.82812 0.0
Sc198 Sc 0.69402 0.10682 0.99966 0.0
Sc199 Sc 0.65496 0.16679 0.85689 0.0
Sc200 Sc 0.61589 0.06775 0.71411 0.0
O201 O 0.65496 0.11463 0.85688 0.0
C202 C 0.69694 0.06082 0.70916 0.0
C203 C 0.74709 0.20022 0.90499 0.0
C204 C 0.64972 0.13903 0.44415 0.0
C205 C 0.66019 0.14427 0.26962 0.0
C206 C 0.61299 0.01884 1.00458 0.0
C207 C 0.56282 0.10808 0.80882 0.0
O208 O 0.71757 0.09549 0.77362 0.0
O209 O 0.71823 0.20097 0.82797 0.0
O210 O 0.6403 0.10395 0.49631 0.0
O211 O 0.66961 0.1186 0.21746 0.0
O212 O 0.59235 0.03287 0.94013 0.0
O213 O 0.59168 0.13769 0.88581 0.0
O214 O 0.65104 0.04083 0.02872 0.0
O215 O 0.65865 0.16964 0.1612 0.0
O216 O 0.56735 0.08213 0.7226 0.0
O217 O 0.74257 0.16974 0.9912 0.0
O218 O 0.65888 0.04475 0.68502 0.0
O219 O 0.65126 0.16595 0.55258 0.0
Sc220 Sc 0.87884 0.59366 0.99979 0.0
Sc221 Sc 0.81887 0.49462 0.857 0.0
Sc222 Sc 0.91791 0.55459 0.71424 0.0
O223 O 0.87103 0.54678 0.85701 0.0
C224 C 0.92484 0.64257 0.7093 0.0
C225 C 0.78544 0.55333 0.90507 0.0
C226 C 0.84663 0.51714 0.44427 0.0
C227 C 0.84139 0.52238 0.26975 0.0
C228 C 0.96682 0.60059 1.00472 0.0
C229 C 0.87758 0.46119 0.80895 0.0
O230 O 0.89018 0.62854 0.77377 0.0
O231 O 0.78469 0.52372 0.82807 0.0
O232 O 0.88172 0.5428 0.49643 0.0
O233 O 0.86705 0.55747 0.21759 0.0
O234 O 0.95279 0.56592 0.94028 0.0
O235 O 0.84797 0.46044 0.88594 0.0
O236 O 0.94483 0.61666 0.02887 0.0
O237 O 0.81602 0.49546 0.16131 0.0
O238 O 0.90353 0.49167 0.72274 0.0
O239 O 0.81592 0.57928 0.99129 0.0
O240 O 0.94091 0.62058 0.68516 0.0
O241 O 0.81971 0.49177 0.5527 0.0
Sc242 Sc 0.392 0.29163 0.99973 0.0
Sc243 Sc 0.49104 0.33069 0.85696 0.0
Sc244 Sc 0.43107 0.36976 0.71421 0.0
O245 O 0.43888 0.33069 0.85697 0.0
C246 C 0.3431 0.28872 0.70924 0.0
C247 C 0.43233 0.23855 0.905 0.0
C248 C 0.46852 0.33592 0.44423 0.0
C249 C 0.46328 0.32546 0.26971 0.0
C250 C 0.38507 0.37267 1.00467 0.0
C251 C 0.52447 0.42283 0.80892 0.0
O252 O 0.35712 0.26808 0.7737 0.0
O253 O 0.46194 0.26741 0.82802 0.0
O254 O 0.44286 0.34536 0.49639 0.0
O255 O 0.4282 0.31603 0.21755 0.0
O256 O 0.41974 0.39331 0.94024 0.0
O257 O 0.52522 0.39396 0.8859 0.0
O258 O 0.369 0.33462 0.02882 0.0
O259 O 0.4902 0.32699 0.16127 0.0
O260 O 0.49399 0.41831 0.72272 0.0
O261 O 0.40637 0.24308 0.99124 0.0
O262 O 0.36508 0.32677 0.68511 0.0
O263 O 0.49389 0.33438 0.55266 0.0
Sc264 Sc 0.28256 0.8879 0.04744 0.0
Sc265 Sc 0.32164 0.82794 0.19017 0.0
Sc266 Sc 0.36069 0.92698 0.33298 0.0
O267 O 0.32163 0.88009 0.19019 0.0
C268 C 0.3636 0.97588 0.04247 0.0
C269 C 0.3164 0.85046 0.77745 0.0
C270 C 0.41377 0.88665 0.23833 0.0
C271 C 0.2295 0.7945 0.14214 0.0
C272 C 0.27965 0.93391 0.33787 0.0
C273 C 0.32685 0.85569 0.60291 0.0
O274 O 0.32555 0.95389 1.01831 0.0
O275 O 0.31795 0.82509 0.88586 0.0
O276 O 0.40924 0.91261 0.32453 0.0
O277 O 0.23401 0.82498 0.05601 0.0
O278 O 0.3177 0.94998 0.36203 0.0
O279 O 0.32534 0.82878 0.49448 0.0
O280 O 0.25901 0.89924 0.27346 0.0
O281 O 0.25837 0.79375 0.21908 0.0
O282 O 0.33627 0.89078 0.55076 0.0
O283 O 0.30696 0.87611 0.82961 0.0
O284 O 0.38424 0.96186 0.10696 0.0
O285 O 0.38492 0.85705 0.16124 0.0
Sc286 Sc 0.09773 0.40108 0.04762 0.0
Sc287 Sc 0.1577 0.50011 0.19041 0.0
Sc288 Sc 0.05866 0.44015 0.33317 0.0
O289 O 0.10555 0.44796 0.1904 0.0
C290 C 0.00975 0.39414 0.04271 0.0
C291 C 0.13517 0.47236 0.77768 0.0
C292 C 0.099 0.53355 0.2385 0.0
C293 C 0.19113 0.44141 0.14225 0.0
C294 C 0.05173 0.35217 0.33811 0.0
C295 C 0.12995 0.47759 0.60314 0.0
O296 O 0.03174 0.37808 1.01855 0.0
O297 O 0.16056 0.49927 0.8861 0.0
O298 O 0.07304 0.50307 0.32465 0.0
O299 O 0.16065 0.41545 0.05608 0.0
O300 O 0.03567 0.37416 0.36226 0.0
O301 O 0.15686 0.50297 0.49472 0.0
O302 O 0.0864 0.3662 0.27364 0.0
O303 O 0.19188 0.47101 0.21934 0.0
O304 O 0.09486 0.45194 0.55097 0.0
O305 O 0.10951 0.43728 0.82983 0.0
O306 O 0.02378 0.42881 0.10715 0.0
O307 O 0.12861 0.5343 0.16149 0.0
Sc308 Sc 0.58456 0.70309 0.04751 0.0
Sc309 Sc 0.48553 0.66403 0.19028 0.0
Sc310 Sc 0.54549 0.62496 0.33304 0.0
O311 O 0.53768 0.66403 0.19028 0.0
C312 C 0.59149 0.62205 0.04257 0.0
C313 C 0.51328 0.66925 0.77755 0.0
C314 C 0.45209 0.5719 0.23839 0.0
C315 C 0.54423 0.75617 0.14216 0.0
C316 C 0.63347 0.706 0.33798 0.0
C317 C 0.50805 0.6588 0.60301 0.0
O318 O 0.60756 0.6601 1.01843 0.0
O319 O 0.48637 0.66773 0.88597 0.0
O320 O 0.48257 0.57641 0.32453 0.0
O321 O 0.57019 0.75164 0.056 0.0
O322 O 0.61148 0.66795 0.36214 0.0
O323 O 0.48267 0.66034 0.49459 0.0
O324 O 0.61944 0.72664 0.27353 0.0
O325 O 0.51463 0.72731 0.2192 0.0
O326 O 0.5337 0.64937 0.55085 0.0
O327 O 0.54836 0.67868 0.82971 0.0
O328 O 0.55683 0.60141 0.10701 0.0
O329 O 0.45134 0.60076 0.16137 0.0
Sc330 Sc 0.36068 0.44015 0.33305 0.0
Sc331 Sc 0.32161 0.50012 0.1903 0.0
Sc332 Sc 0.28255 0.40108 0.04752 0.0
O333 O 0.32161 0.44796 0.19029 0.0
C334 C 0.36359 0.39415 0.04257 0.0
C335 C 0.41375 0.53355 0.23835 0.0
C336 C 0.31638 0.47236 0.77756 0.0
C337 C 0.32684 0.4776 0.60304 0.0
C338 C 0.27964 0.35217 0.33801 0.0
C339 C 0.22947 0.4414 0.14226 0.0
O340 O 0.38423 0.42881 0.10702 0.0
O341 O 0.38488 0.5343 0.16137 0.0
O342 O 0.30695 0.43727 0.82971 0.0
O343 O 0.33628 0.45194 0.55087 0.0
O344 O 0.259 0.3662 0.27355 0.0
O345 O 0.25834 0.47102 0.21924 0.0
O346 O 0.31769 0.37416 0.36214 0.0
O347 O 0.3253 0.50297 0.49461 0.0
O348 O 0.234 0.41545 0.05602 0.0
O349 O 0.40923 0.50307 0.32455 0.0
O350 O 0.32554 0.37808 1.01843 0.0
O351 O 0.31792 0.49928 0.88599 0.0
Sc352 Sc 0.54552 0.92699 0.33302 0.0
Sc353 Sc 0.48555 0.82795 0.19023 0.0
Sc354 Sc 0.58458 0.88792 0.04748 0.0
O355 O 0.5377 0.88011 0.19024 0.0
C356 C 0.59151 0.97589 0.04251 0.0
C357 C 0.45212 0.88666 0.2383 0.0
C358 C 0.5133 0.85047 0.77749 0.0
C359 C 0.50807 0.85571 0.60297 0.0
C360 C 0.63349 0.93392 0.33795 0.0
C361 C 0.54425 0.79452 0.1422 0.0
O362 O 0.55685 0.96187 0.10699 0.0
O363 O 0.45137 0.85706 0.16128 0.0
O364 O 0.54839 0.87613 0.82966 0.0
O365 O 0.53373 0.89079 0.55082 0.0
O366 O 0.61946 0.89925 0.27351 0.0
O367 O 0.51463 0.79377 0.21918 0.0
O368 O 0.61151 0.94999 0.36209 0.0
O369 O 0.48269 0.82879 0.49454 0.0
O370 O 0.5702 0.82499 0.05599 0.0
O371 O 0.48259 0.91261 0.32454 0.0
O372 O 0.60758 0.95391 1.01838 0.0
O373 O 0.48638 0.8251 0.88592 0.0
Sc374 Sc 0.05867 0.62497 0.33313 0.0
Sc375 Sc 0.15771 0.66403 0.19036 0.0
Sc376 Sc 0.09775 0.7031 0.0476 0.0
O377 O 0.10556 0.66403 0.19036 0.0
C378 C 0.00977 0.62206 0.04264 0.0
C379 C 0.099 0.57189 0.23843 0.0
C380 C 0.13519 0.66926 0.77762 0.0
C381 C 0.12996 0.6588 0.6031 0.0
C382 C 0.05175 0.70602 0.33807 0.0
C383 C 0.19115 0.75616 0.14226 0.0
O384 O 0.02379 0.60142 0.10711 0.0
O385 O 0.12861 0.60075 0.16143 0.0
O386 O 0.10953 0.67869 0.82979 0.0
O387 O 0.09487 0.64938 0.55094 0.0
O388 O 0.08641 0.72665 0.27363 0.0
O389 O 0.1919 0.7273 0.21928 0.0
O390 O 0.03567 0.66796 0.36221 0.0
O391 O 0.15687 0.66033 0.49467 0.0
O392 O 0.16067 0.75164 0.05607 0.0
O393 O 0.07305 0.57642 0.32465 0.0
O394 O 0.03175 0.66012 1.01851 0.0
O395 O 0.16056 0.66772 0.88605 0.0
loop_
_geom_bond_atom_site_label_1
_geom_bond_atom_site_label_2
_geom_bond_distance
_geom_bond_site_symmetry_2
_ccdc_geom_bond_type
Sc0 O3 2.025 1_655 S
Sc0 O10 2.105 1_655 S
Sc0 O13 2.105 . S
Sc0 O16 2.105 . S
Sc0 O19 2.105 . S
Sc1 O3 2.025 . S
Sc1 O11 2.105 . S
Sc1 O15 2.105 . S
Sc1 O17 2.105 1_455 S
Sc1 O21 2.105 . S
Sc2 O3 2.025 . S
Sc2 O12 2.105 . S
Sc2 O14 2.105 . S
Sc2 O18 2.105 . S
Sc2 O20 2.105 . S
O3 Sc0 2.025 1_455 S
O3 Sc1 2.025 . S
O3 Sc2 2.025 . S
C4 O10 1.268 . S
C4 O20 1.268 . S
C5 O11 1.268 . S
C5 O19 1.268 1_455 S
C6 O12 1.268 . S
C6 O21 1.268 . S
C7 O13 1.268 . S
C7 O17 1.268 . S
C8 O14 1.268 1_655 S
C8 O16 1.268 . S
C9 O15 1.268 . S
C9 O18 1.268 . S
O10 Sc0 2.105 1_455 S
O10 C4 1.268 . S
O11 Sc1 2.105 . S
O11 C5 1.268 . S
O12 Sc2 2.105 . S
O12 C6 1.268 . S
O13 Sc0 2.105 . S
O13 C7 1.268 . S
O14 Sc2 2.105 . S
O14 C8 1.268 1_455 S
O15 Sc1 2.105 . S
O15 C9 1.268 . S
O16 Sc0 2.105 . S
O16 C8 1.268 . S
O17 Sc1 2.105 1_655 S
O17 C7 1.268 . S
O18 Sc2 2.105 . S
O18 C9 1.268 . S
O19 Sc0 2.105 . S
O19 C5 1.268 1_655 S
O20 Sc2 2.105 . S
O20 C4 1.268 . S
O21 Sc1 2.105 . S
O21 C6 1.268 . S
Sc22 O25 2.025 . S
Sc22 O32 2.105 . S
Sc22 O35 2.105 . S
Sc22 O38 2.105 . S
Sc22 O41 2.105 . S
Sc23 O25 2.025 . S
Sc23 O33 2.105 . S
Sc23 O37 2.105 . S
Sc23 O39 2.105 . S
Sc23 O43 2.105 . S
Sc24 O25 2.025 . S
Sc24 O34 2.105 . S
Sc24 O36 2.105 . S
Sc24 O40 2.105 . S
Sc24 O42 2.105 . S
O25 Sc22 2.025 . S
O25 Sc23 2.025 . S
O25 Sc24 2.025 . S
C26 O32 1.268 . S
C26 O42 1.268 . S
C27 O33 1.268 . S
C27 O41 1.268 . S
C28 O34 1.268 . S
C28 O43 1.268 . S
C29 O35 1.268 . S
C29 O39 1.268 . S
C30 O36 1.268 . S
C30 O38 1.268 . S
C31 O37 1.268 . S
C31 O40 1.268 . S
O32 Sc22 2.105 . S
O32 C26 1.268 . S
O33 Sc23 2.105 . S
O33 C27 1.268 . S
O34 Sc24 2.105 . S
O34 C28 1.268 . S
O35 Sc22 2.105 . S
O35 C29 1.268 . S
O36 Sc24 2.105 . S
O36 C30 1.268 . S
O37 Sc23 2.105 . S
O37 C31 1.268 . S
O38 Sc22 2.105 . S
O38 C30 1.268 . S
O39 Sc23 2.105 . S
O39 C29 1.268 . S
O40 Sc24 2.105 . S
O40 C31 1.268 . S
O41 Sc22 2.105 . S
O41 C27 1.268 . S
O42 Sc24 2.105 . S
O42 C26 1.268 . S
O43 Sc23 2.105 . S
O43 C28 1.268 . S
Sc44 O47 2.025 . S
Sc44 O54 2.105 . S
Sc44 O57 2.105 . S
Sc44 O60 2.105 . S
Sc44 O63 2.105 . S
Sc45 O47 2.025 . S
Sc45 O55 2.105 . S
Sc45 O59 2.105 . S
Sc45 O61 2.105 . S
Sc45 O65 2.105 1_545 S
Sc46 O47 2.025 1_565 S
Sc46 O56 2.105 . S
Sc46 O58 2.105 1_565 S
Sc46 O62 2.105 . S
Sc46 O64 2.105 . S
O47 Sc44 2.025 . S
O47 Sc45 2.025 . S
O47 Sc46 2.025 1_545 S
C48 O54 1.268 1_565 S
C48 O64 1.268 . S
C49 O55 1.268 . S
C49 O63 1.268 . S
C50 O56 1.268 . S
C50 O65 1.268 . S
C51 O57 1.268 . S
C51 O61 1.268 . S
C52 O58 1.268 . S
C52 O60 1.268 . S
C53 O59 1.268 . S
C53 O62 1.268 1_545 S
O54 Sc44 2.105 . S
O54 C48 1.268 1_545 S
O55 Sc45 2.105 . S
O55 C49 1.268 . S
O56 Sc46 2.105 . S
O56 C50 1.268 . S
O57 Sc44 2.105 . S
O57 C51 1.268 . S
O58 Sc46 2.105 1_545 S
O58 C52 1.268 . S
O59 Sc45 2.105 . S
O59 C53 1.268 . S
O60 Sc44 2.105 . S
O60 C52 1.268 . S
O61 Sc45 2.105 . S
O61 C51 1.268 . S
O62 Sc46 2.105 . S
O62 C53 1.268 1_565 S
O63 Sc44 2.105 . S
O63 C49 1.268 . S
O64 Sc46 2.105 . S
O64 C48 1.268 . S
O65 Sc45 2.105 1_565 S
O65 C50 1.268 . S
Sc66 O69 2.025 . S
Sc66 O76 2.105 . S
Sc66 O79 2.105 . S
Sc66 O82 2.105 . S
Sc66 O85 2.105 . S
Sc67 O69 2.025 . S
Sc67 O77 2.105 . S
Sc67 O81 2.105 1_455 S
Sc67 O83 2.105 . S
Sc67 O87 2.105 . S
Sc68 O69 2.025 1_655 S
Sc68 O78 2.105 . S
Sc68 O80 2.105 . S
Sc68 O84 2.105 . S
Sc68 O86 2.105 1_655 S
O69 Sc66 2.025 . S
O69 Sc67 2.025 . S
O69 Sc68 2.025 1_455 S
C70 O76 1.268 . S
C70 O86 1.268 . S
C71 O77 1.268 . S
C71 O85 1.268 . S
C72 O78 1.268 1_455 S
C72 O87 1.268 . S
C73 O79 1.268 . S
C73 O83 1.268 . S
C74 O80 1.268 . S
C74 O82 1.268 1_655 S
C75 O81 1.268 . S
C75 O84 1.268 . S
O76 Sc66 2.105 . S
O76 C70 1.268 . S
O77 Sc67 2.105 . S
O77 C71 1.268 . S
O78 Sc68 2.105 . S
O78 C72 1.268 1_655 S
O79 Sc66 2.105 . S
O79 C73 1.268 . S
O80 Sc68 2.105 . S
O80 C74 1.268 . S
O81 Sc67 2.105 1_655 S
O81 C75 1.268 . S
O82 Sc66 2.105 . S
O82 C74 1.268 1_455 S
O83 Sc67 2.105 . S
O83 C73 1.268 . S
O84 Sc68 2.105 . S
O84 C75 1.268 . S
O85 Sc66 2.105 . S
O85 C71 1.268 . S
O86 Sc68 2.105 1_455 S
O86 C70 1.268 . S
O87 Sc67 2.105 . S
O87 C72 1.268 . S
Sc88 O91 2.025 . S
Sc88 O98 2.105 . S
Sc88 O101 2.105 . S
Sc88 O104 2.105 . S
Sc88 O107 2.105 . S
Sc89 O91 2.025 . S
Sc89 O99 2.105 . S
Sc89 O103 2.105 . S
Sc89 O105 2.105 . S
Sc89 O109 2.105 . S
Sc90 O91 2.025 . S
Sc90 O100 2.105 . S
Sc90 O102 2.105 . S
Sc90 O106 2.105 . S
Sc90 O108 2.105 . S
O91 Sc88 2.025 . S
O91 Sc89 2.025 . S
O91 Sc90 2.025 . S
C92 O98 1.268 . S
C92 O108 1.268 . S
C93 O99 1.268 . S
C93 O107 1.268 . S
C94 O100 1.268 . S
C94 O109 1.268 . S
C95 O101 1.268 . S
C95 O105 1.268 . S
C96 O102 1.268 . S
C96 O104 1.268 . S
C97 O103 1.268 . S
C97 O106 1.268 . S
O98 Sc88 2.105 . S
O98 C92 1.268 . S
O99 Sc89 2.105 . S
O99 C93 1.268 . S
O100 Sc90 2.105 . S
O100 C94 1.268 . S
O101 Sc88 2.105 . S
O101 C95 1.268 . S
O102 Sc90 2.105 . S
O102 C96 1.268 . S
O103 Sc89 2.105 . S
O103 C97 1.268 . S
O104 Sc88 2.105 . S
O104 C96 1.268 . S
O105 Sc89 2.105 . S
O105 C95 1.268 . S
O106 Sc90 2.105 . S
O106 C97 1.268 . S
O107 Sc88 2.105 . S
O107 C93 1.268 . S
O108 Sc90 2.105 . S
O108 C92 1.268 . S
O109 Sc89 2.105 . S
O109 C94 1.268 . S
Sc110 O113 2.025 1_565 S
Sc110 O120 2.105 . S
Sc110 O123 2.105 . S
Sc110 O126 2.105 1_565 S
Sc110 O129 2.105 . S
Sc111 O113 2.025 . S
Sc111 O121 2.105 1_545 S
Sc111 O125 2.105 . S
Sc111 O127 2.105 . S
Sc111 O131 2.105 . S
Sc112 O113 2.025 . S
Sc112 O122 2.105 . S
Sc112 O124 2.105 . S
Sc112 O128 2.105 . S
Sc112 O130 2.105 . S
O113 Sc110 2.025 1_545 S
O113 Sc111 2.025 . S
O113 Sc112 2.025 . S
C114 O120 1.268 . S
C114 O130 1.268 1_565 S
C115 O121 1.268 . S
C115 O129 1.268 . S
C116 O122 1.268 . S
C116 O131 1.268 . S
C117 O123 1.268 1_545 S
C117 O127 1.268 . S
C118 O124 1.268 . S
C118 O126 1.268 . S
C119 O125 1.268 . S
C119 O128 1.268 . S
O120 Sc110 2.105 . S
O120 C114 1.268 . S
O121 Sc111 2.105 1_565 S
O121 C115 1.268 . S
O122 Sc112 2.105 . S
O122 C116 1.268 . S
O123 Sc110 2.105 . S
O123 C117 1.268 1_565 S
O124 Sc112 2.105 . S
O124 C118 1.268 . S
O125 Sc111 2.105 . S
O125 C119 1.268 . S
O126 Sc110 2.105 1_545 S
O126 C118 1.268 . S
O127 Sc111 2.105 . S
O127 C117 1.268 . S
O128 Sc112 2.105 . S
O128 C119 1.268 . S
O129 Sc110 2.105 . S
O129 C115 1.268 . S
O130 Sc112 2.105 . S
O130 C114 1.268 1_545 S
O131 Sc111 2.105 . S
O131 C116 1.268 . S
Sc132 O135 2.025 . S
Sc132 O142 2.105 . S
Sc132 O145 2.105 . S
Sc132 O148 2.105 . S
Sc132 O151 2.105 . S
Sc133 O135 2.025 . S
Sc133 O143 2.105 . S
Sc133 O147 2.105 1_556 S
Sc133 O149 2.105 . S
Sc133 O153 2.105 . S
Sc134 O135 2.025 . S
Sc134 O144 2.105 . S
Sc134 O146 2.105 1_556 S
Sc134 O150 2.105 1_556 S
Sc134 O152 2.105 . S
O135 Sc132 2.025 . S
O135 Sc133 2.025 . S
O135 Sc134 2.025 . S
C136 O142 1.268 . S
C136 O152 1.268 . S
C137 O143 1.268 . S
C137 O151 1.268 . S
C138 O144 1.268 . S
C138 O153 1.268 . S
C139 O145 1.268 . S
C139 O149 1.268 . S
C140 O146 1.268 . S
C140 O148 1.268 1_554 S
C141 O147 1.268 . S
C141 O150 1.268 . S
O142 Sc132 2.105 . S
O142 C136 1.268 . S
O143 Sc133 2.105 . S
O143 C137 1.268 . S
O144 Sc134 2.105 . S
O144 C138 1.268 . S
O145 Sc132 2.105 . S
O145 C139 1.268 . S
O146 Sc134 2.105 1_554 S
O146 C140 1.268 . S
O147 Sc133 2.105 1_554 S
O147 C141 1.268 . S
O148 Sc132 2.105 . S
O148 C140 1.268 1_556 S
O149 Sc133 2.105 . S
O149 C139 1.268 . S
O150 Sc134 2.105 1_554 S
O150 C141 1.268 . S
O151 Sc132 2.105 . S
O151 C137 1.268 . S
O152 Sc134 2.105 . S
O152 C136 1.268 . S
O153 Sc133 2.105 . S
O153 C138 1.268 . S
Sc154 O157 2.025 . S
Sc154 O164 2.105 . S
Sc154 O167 2.105 . S
Sc154 O170 2.105 . S
Sc154 O173 2.105 . S
Sc155 O157 2.025 . S
Sc155 O165 2.105 . S
Sc155 O169 2.105 1_556 S
Sc155 O171 2.105 . S
Sc155 O175 2.105 . S
Sc156 O157 2.025 . S
Sc156 O166 2.105 . S
Sc156 O168 2.105 1_556 S
Sc156 O172 2.105 1_556 S
Sc156 O174 2.105 . S
O157 Sc154 2.025 . S
O157 Sc155 2.025 . S
O157 Sc156 2.025 . S
C158 O164 1.268 . S
C158 O174 1.268 . S
C159 O165 1.268 . S
C159 O173 1.268 . S
C160 O166 1.268 . S
C160 O175 1.268 . S
C161 O167 1.268 . S
C161 O171 1.268 . S
C162 O168 1.268 . S
C162 O170 1.268 1_554 S
C163 O169 1.268 . S
C163 O172 1.268 . S
O164 Sc154 2.105 . S
O164 C158 1.268 . S
O165 Sc155 2.105 . S
O165 C159 1.268 . S
O166 Sc156 2.105 . S
O166 C160 1.268 . S
O167 Sc154 2.105 . S
O167 C161 1.268 . S
O168 Sc156 2.105 1_554 S
O168 C162 1.268 . S
O169 Sc155 2.105 1_554 S
O169 C163 1.268 . S
O170 Sc154 2.105 . S
O170 C162 1.268 1_556 S
O171 Sc155 2.105 . S
O171 C161 1.268 . S
O172 Sc156 2.105 1_554 S
O172 C163 1.268 . S
O173 Sc154 2.105 . S
O173 C159 1.268 . S
O174 Sc156 2.105 . S
O174 C158 1.268 . S
O175 Sc155 2.105 . S
O175 C160 1.268 . S
Sc176 O179 2.025 . S
Sc176 O186 2.105 . S
Sc176 O189 2.105 . S
Sc176 O192 2.105 . S
Sc176 O195 2.105 . S
Sc177 O179 2.025 . S
Sc177 O187 2.105 . S
Sc177 O191 2.105 1_556 S
Sc177 O193 2.105 . S
Sc177 O197 2.105 . S
Sc178 O179 2.025 . S
Sc178 O188 2.105 . S
Sc178 O190 2.105 1_556 S
Sc178 O194 2.105 1_556 S
Sc178 O196 2.105 . S
O179 Sc176 2.025 . S
O179 Sc177 2.025 . S
O179 Sc178 2.025 . S
C180 O186 1.268 . S
C180 O196 1.268 . S
C181 O187 1.268 . S
C181 O195 1.268 . S
C182 O188 1.268 . S
C182 O197 1.268 . S
C183 O189 1.268 . S
C183 O193 1.268 . S
C184 O190 1.268 . S
C184 O192 1.268 1_554 S
C185 O191 1.268 . S
C185 O194 1.268 . S
O186 Sc176 2.105 . S
O186 C180 1.268 . S
O187 Sc177 2.105 . S
O187 C181 1.268 . S
O188 Sc178 2.105 . S
O188 C182 1.268 . S
O189 Sc176 2.105 . S
O189 C183 1.268 . S
O190 Sc178 2.105 1_554 S
O190 C184 1.268 . S
O191 Sc177 2.105 1_554 S
O191 C185 1.268 . S
O192 Sc176 2.105 . S
O192 C184 1.268 1_556 S
O193 Sc177 2.105 . S
O193 C183 1.268 . S
O194 Sc178 2.105 1_554 S
O194 C185 1.268 . S
O195 Sc176 2.105 . S
O195 C181 1.268 . S
O196 Sc178 2.105 . S
O196 C180 1.268 . S
O197 Sc177 2.105 . S
O197 C182 1.268 . S
Sc198 O201 2.025 . S
Sc198 O208 2.105 . S
Sc198 O211 2.105 1_556 S
Sc198 O214 2.105 1_556 S
Sc198 O217 2.105 . S
Sc199 O201 2.025 . S
Sc199 O209 2.105 . S
Sc199 O213 2.105 . S
Sc199 O215 2.105 1_556 S
Sc199 O219 2.105 . S
Sc200 O201 2.025 . S
Sc200 O210 2.105 . S
Sc200 O212 2.105 . S
Sc200 O216 2.105 . S
Sc200 O218 2.105 . S
O201 Sc198 2.025 . S
O201 Sc199 2.025 . S
O201 Sc200 2.025 . S
C202 O208 1.268 . S
C202 O218 1.268 . S
C203 O209 1.268 . S
C203 O217 1.268 . S
C204 O210 1.268 . S
C204 O219 1.268 . S
C205 O211 1.268 . S
C205 O215 1.268 . S
C206 O212 1.268 1_554 S
C206 O214 1.268 . S
C207 O213 1.268 . S
C207 O216 1.268 . S
O208 Sc198 2.105 . S
O208 C202 1.268 . S
O209 Sc199 2.105 . S
O209 C203 1.268 . S
O210 Sc200 2.105 . S
O210 C204 1.268 . S
O211 Sc198 2.105 1_554 S
O211 C205 1.268 . S
O212 Sc200 2.105 . S
O212 C206 1.268 1_556 S
O213 Sc199 2.105 . S
O213 C207 1.268 . S
O214 Sc198 2.105 1_554 S
O214 C206 1.268 . S
O215 Sc199 2.105 1_554 S
O215 C205 1.268 . S
O216 Sc200 2.105 . S
O216 C207 1.268 . S
O217 Sc198 2.105 . S
O217 C203 1.268 . S
O218 Sc200 2.105 . S
O218 C202 1.268 . S
O219 Sc199 2.105 . S
O219 C204 1.268 . S
Sc220 O223 2.025 . S
Sc220 O230 2.105 . S
Sc220 O233 2.105 1_556 S
Sc220 O236 2.105 1_556 S
Sc220 O239 2.105 . S
Sc221 O223 2.025 . S
Sc221 O231 2.105 . S
Sc221 O235 2.105 . S
Sc221 O237 2.105 1_556 S
Sc221 O241 2.105 . S
Sc222 O223 2.025 . S
Sc222 O232 2.105 . S
Sc222 O234 2.105 . S
Sc222 O238 2.105 . S
Sc222 O240 2.105 . S
O223 Sc220 2.025 . S
O223 Sc221 2.025 . S
O223 Sc222 2.025 . S
C224 O230 1.268 . S
C224 O240 1.268 . S
C225 O231 1.268 . S
C225 O239 1.268 . S
C226 O232 1.268 . S
C226 O241 1.268 . S
C227 O233 1.268 . S
C227 O237 1.268 . S
C228 O234 1.268 1_554 S
C228 O236 1.268 . S
C229 O235 1.268 . S
C229 O238 1.268 . S
O230 Sc220 2.105 . S
O230 C224 1.268 . S
O231 Sc221 2.105 . S
O231 C225 1.268 . S
O232 Sc222 2.105 . S
O232 C226 1.268 . S
O233 Sc220 2.105 1_554 S
O233 C227 1.268 . S
O234 Sc222 2.105 . S
O234 C228 1.268 1_556 S
O235 Sc221 2.105 . S
O235 C229 1.268 . S
O236 Sc220 2.105 1_554 S
O236 C228 1.268 . S
O237 Sc221 2.105 1_554 S
O237 C227 1.268 . S
O238 Sc222 2.105 . S
O238 C229 1.268 . S
O239 Sc220 2.105 . S
O239 C225 1.268 . S
O240 Sc222 2.105 . S
O240 C224 1.268 . S
O241 Sc221 2.105 . S
O241 C226 1.268 . S
Sc242 O245 2.025 . S
Sc242 O252 2.105 . S
Sc242 O255 2.105 1_556 S
Sc242 O258 2.105 1_556 S
Sc242 O261 2.105 . S
Sc243 O245 2.025 . S
Sc243 O253 2.105 . S
Sc243 O257 2.105 . S
Sc243 O259 2.105 1_556 S
Sc243 O263 2.105 . S
Sc244 O245 2.025 . S
Sc244 O254 2.105 . S
Sc244 O256 2.105 . S
Sc244 O260 2.105 . S
Sc244 O262 2.105 . S
O245 Sc242 2.025 . S
O245 Sc243 2.025 . S
O245 Sc244 2.025 . S
C246 O252 1.268 . S
C246 O262 1.268 . S
C247 O253 1.268 . S
C247 O261 1.268 . S
C248 O254 1.268 . S
C248 O263 1.268 . S
C249 O255 1.268 . S
C249 O259 1.268 . S
C250 O256 1.268 1_554 S
C250 O258 1.268 . S
C251 O257 1.268 . S
C251 O260 1.268 . S
O252 Sc242 2.105 . S
O252 C246 1.268 . S
O253 Sc243 2.105 . S
O253 C247 1.268 . S
O254 Sc244 2.105 . S
O254 C248 1.268 . S
O255 Sc242 2.105 1_554 S
O255 C249 1.268 . S
O256 Sc244 2.105 . S
O256 C250 1.268 1_556 S
O257 Sc243 2.105 . S
O257 C251 1.268 . S
O258 Sc242 2.105 1_554 S
O258 C250 1.268 . S
O259 Sc243 2.105 1_554 S
O259 C249 1.268 . S
O260 Sc244 2.105 . S
O260 C251 1.268 . S
O261 Sc242 2.105 . S
O261 C247 1.268 . S
O262 Sc244 2.105 . S
O262 C246 1.268 . S
O263 Sc243 2.105 . S
O263 C248 1.268 . S
Sc264 O267 2.025 . S
Sc264 O274 2.105 1_554 S
Sc264 O277 2.105 . S
Sc264 O280 2.105 . S
Sc264 O283 2.105 1_554 S
Sc265 O267 2.025 . S
Sc265 O275 2.105 1_554 S
Sc265 O279 2.105 . S
Sc265 O281 2.105 . S
Sc265 O285 2.105 . S
Sc266 O267 2.025 . S
Sc266 O276 2.105 . S
Sc266 O278 2.105 . S
Sc266 O282 2.105 . S
Sc266 O284 2.105 . S
O267 Sc264 2.025 . S
O267 Sc265 2.025 . S
O267 Sc266 2.025 . S
C268 O274 1.268 . S
C268 O284 1.268 1_556 S
C269 O275 1.268 . S
C269 O283 1.268 . S
C270 O276 1.268 . S
C270 O285 1.268 . S
C271 O277 1.268 . S
C271 O281 1.268 . S
C272 O278 1.268 . S
C272 O280 1.268 . S
C273 O279 1.268 . S
C273 O282 1.268 . S
O274 Sc264 2.105 1_556 S
O274 C268 1.268 . S
O275 Sc265 2.105 1_556 S
O275 C269 1.268 . S
O276 Sc266 2.105 . S
O276 C270 1.268 . S
O277 Sc264 2.105 . S
O277 C271 1.268 . S
O278 Sc266 2.105 . S
O278 C272 1.268 . S
O279 Sc265 2.105 . S
O279 C273 1.268 . S
O280 Sc264 2.105 . S
O280 C272 1.268 . S
O281 Sc265 2.105 . S
O281 C271 1.268 . S
O282 Sc266 2.105 . S
O282 C273 1.268 . S
O283 Sc264 2.105 1_556 S
O283 C269 1.268 . S
O284 Sc266 2.105 . S
O284 C268 1.268 1_554 S
O285 Sc265 2.105 . S
O285 C270 1.268 . S
Sc286 O289 2.025 . S
Sc286 O296 2.105 1_554 S
Sc286 O299 2.105 . S
Sc286 O302 2.105 . S
Sc286 O305 2.105 1_554 S
Sc287 O289 2.025 . S
Sc287 O297 2.105 1_554 S
Sc287 O301 2.105 . S
Sc287 O303 2.105 . S
Sc287 O307 2.105 . S
Sc288 O289 2.025 . S
Sc288 O298 2.105 . S
Sc288 O300 2.105 . S
Sc288 O304 2.105 . S
Sc288 O306 2.105 . S
O289 Sc286 2.025 . S
O289 Sc287 2.025 . S
O289 Sc288 2.025 . S
C290 O296 1.268 . S
C290 O306 1.268 1_556 S
C291 O297 1.268 . S
C291 O305 1.268 . S
C292 O298 1.268 . S
C292 O307 1.268 . S
C293 O299 1.268 . S
C293 O303 1.268 . S
C294 O300 1.268 . S
C294 O302 1.268 . S
C295 O301 1.268 . S
C295 O304 1.268 . S
O296 Sc286 2.105 1_556 S
O296 C290 1.268 . S
O297 Sc287 2.105 1_556 S
O297 C291 1.268 . S
O298 Sc288 2.105 . S
O298 C292 1.268 . S
O299 Sc286 2.105 . S
O299 C293 1.268 . S
O300 Sc288 2.105 . S
O300 C294 1.268 . S
O301 Sc287 2.105 . S
O301 C295 1.268 . S
O302 Sc286 2.105 . S
O302 C294 1.268 . S
O303 Sc287 2.105 . S
O303 C293 1.268 . S
O304 Sc288 2.105 . S
O304 C295 1.268 . S
O305 Sc286 2.105 1_556 S
O305 C291 1.268 . S
O306 Sc288 2.105 . S
O306 C290 1.268 1_554 S
O307 Sc287 2.105 . S
O307 C292 1.268 . S
Sc308 O311 2.025 . S
Sc308 O318 2.105 1_554 S
Sc308 O321 2.105 . S
Sc308 O324 2.105 . S
Sc308 O327 2.105 1_554 S
Sc309 O311 2.025 . S
Sc309 O319 2.105 1_554 S
Sc309 O323 2.105 . S
Sc309 O325 2.105 . S
Sc309 O329 2.105 . S
Sc310 O311 2.025 . S
Sc310 O320 2.105 . S
Sc310 O322 2.105 . S
Sc310 O326 2.105 . S
Sc310 O328 2.105 . S
O311 Sc308 2.025 . S
O311 Sc309 2.025 . S
O311 Sc310 2.025 . S
C312 O318 1.268 . S
C312 O328 1.268 1_556 S
C313 O319 1.268 . S
C313 O327 1.268 . S
C314 O320 1.268 . S
C314 O329 1.268 . S
C315 O321 1.268 . S
C315 O325 1.268 . S
C316 O322 1.268 . S
C316 O324 1.268 . S
C317 O323 1.268 . S
C317 O326 1.268 . S
O318 Sc308 2.105 1_556 S
O318 C312 1.268 . S
O319 Sc309 2.105 1_556 S
O319 C313 1.268 . S
O320 Sc310 2.105 . S
O320 C314 1.268 . S
O321 Sc308 2.105 . S
O321 C315 1.268 . S
O322 Sc310 2.105 . S
O322 C316 1.268 . S
O323 Sc309 2.105 . S
O323 C317 1.268 . S
O324 Sc308 2.105 . S
O324 C316 1.268 . S
O325 Sc309 2.105 . S
O325 C315 1.268 . S
O326 Sc310 2.105 . S
O326 C317 1.268 . S
O327 Sc308 2.105 1_556 S
O327 C313 1.268 . S
O328 Sc310 2.105 . S
O328 C312 1.268 1_554 S
O329 Sc309 2.105 . S
O329 C314 1.268 . S
Sc330 O333 2.025 . S
Sc330 O340 2.105 . S
Sc330 O343 2.105 . S
Sc330 O346 2.105 . S
Sc330 O349 2.105 . S
Sc331 O333 2.025 . S
Sc331 O341 2.105 . S
Sc331 O345 2.105 . S
Sc331 O347 2.105 . S
Sc331 O351 2.105 1_554 S
Sc332 O333 2.025 . S
Sc332 O342 2.105 1_554 S
Sc332 O344 2.105 . S
Sc332 O348 2.105 . S
Sc332 O350 2.105 1_554 S
O333 Sc330 2.025 . S
O333 Sc331 2.025 . S
O333 Sc332 2.025 . S
C334 O340 1.268 1_556 S
C334 O350 1.268 . S
C335 O341 1.268 . S
C335 O349 1.268 . S
C336 O342 1.268 . S
C336 O351 1.268 . S
C337 O343 1.268 . S
C337 O347 1.268 . S
C338 O344 1.268 . S
C338 O346 1.268 . S
C339 O345 1.268 . S
C339 O348 1.268 . S
O340 Sc330 2.105 . S
O340 C334 1.268 1_554 S
O341 Sc331 2.105 . S
O341 C335 1.268 . S
O342 Sc332 2.105 1_556 S
O342 C336 1.268 . S
O343 Sc330 2.105 . S
O343 C337 1.268 . S
O344 Sc332 2.105 . S
O344 C338 1.268 . S
O345 Sc331 2.105 . S
O345 C339 1.268 . S
O346 Sc330 2.105 . S
O346 C338 1.268 . S
O347 Sc331 2.105 . S
O347 C337 1.268 . S
O348 Sc332 2.105 . S
O348 C339 1.268 . S
O349 Sc330 2.105 . S
O349 C335 1.268 . S
O350 Sc332 2.105 1_556 S
O350 C334 1.268 . S
O351 Sc331 2.105 1_556 S
O351 C336 1.268 . S
Sc352 O355 2.025 . S
Sc352 O362 2.105 . S
Sc352 O365 2.105 . S
Sc352 O368 2.105 . S
Sc352 O371 2.105 . S
Sc353 O355 2.025 . S
Sc353 O363 2.105 . S
Sc353 O367 2.105 . S
Sc353 O369 2.105 . S
Sc353 O373 2.105 1_554 S
Sc354 O355 2.025 . S
Sc354 O364 2.105 1_554 S
Sc354 O366 2.105 . S
Sc354 O370 2.105 . S
Sc354 O372 2.105 1_554 S
O355 Sc352 2.025 . S
O355 Sc353 2.025 . S
O355 Sc354 2.025 . S
C356 O362 1.268 1_556 S
C356 O372 1.268 . S
C357 O363 1.268 . S
C357 O371 1.268 . S
C358 O364 1.268 . S
C358 O373 1.268 . S
C359 O365 1.268 . S
C359 O369 1.268 . S
C360 O366 1.268 . S
C360 O368 1.268 . S
C361 O367 1.268 . S
C361 O370 1.268 . S
O362 Sc352 2.105 . S
O362 C356 1.268 1_554 S
O363 Sc353 2.105 . S
O363 C357 1.268 . S
O364 Sc354 2.105 1_556 S
O364 C358 1.268 . S
O365 Sc352 2.105 . S
O365 C359 1.268 . S
O366 Sc354 2.105 . S
O366 C360 1.268 . S
O367 Sc353 2.105 . S
O367 C361 1.268 . S
O368 Sc352 2.105 . S
O368 C360 1.268 . S
O369 Sc353 2.105 . S
O369 C359 1.268 . S
O370 Sc354 2.105 . S
O370 C361 1.268 . S
O371 Sc352 2.105 . S
O371 C357 1.268 . S
O372 Sc354 2.105 1_556 S
O372 C356 1.268 . S
O373 Sc353 2.105 1_556 S
O373 C358 1.268 . S
Sc374 O377 2.025 . S
Sc374 O384 2.105 . S
Sc374 O387 2.105 . S
Sc374 O390 2.105 . S
Sc374 O393 2.105 . S
Sc375 O377 2.025 . S
Sc375 O385 2.105 . S
Sc375 O389 2.105 . S
Sc375 O391 2.105 . S
Sc375 O395 2.105 1_554 S
Sc376 O377 2.025 . S
Sc376 O386 2.105 1_554 S
Sc376 O388 2.105 . S
Sc376 O392 2.105 . S
Sc376 O394 2.105 1_554 S
O377 Sc374 2.025 . S
O377 Sc375 2.025 . S
O377 Sc376 2.025 . S
C378 O384 1.268 1_556 S
C378 O394 1.268 . S
C379 O385 1.268 . S
C379 O393 1.268 . S
C380 O386 1.268 . S
C380 O395 1.268 . S
C381 O387 1.268 . S
C381 O391 1.268 . S
C382 O388 1.268 . S
C382 O390 1.268 . S
C383 O389 1.268 . S
C383 O392 1.268 . S
O384 Sc374 2.105 . S
O384 C378 1.268 1_554 S
O385 Sc375 2.105 . S
O385 C379 1.268 . S
O386 Sc376 2.105 1_556 S
O386 C380 1.268 . S
O387 Sc374 2.105 . S
O387 C381 1.268 . S
O388 Sc376 2.105 . S
O388 C382 1.268 . S
O389 Sc375 2.105 . S
O389 C383 1.268 . S
O390 Sc374 2.105 . S
O390 C382 1.268 . S
O391 Sc375 2.105 . S
O391 C381 1.268 . S
O392 Sc376 2.105 . S
O392 C383 1.268 . S
O393 Sc374 2.105 . S
O393 C379 1.268 . S
O394 Sc376 2.105 1_556 S
O394 C378 1.268 . S
O395 Sc375 2.105 1_556 S
O395 C380 1.268 . S
C294 C4 1.221 . S
C26 C316 1.221 . S
C48 C272 1.221 . S
C52 C158 1.221 . S
C180 C8 1.221 . S
C30 C136 1.221 . S
C74 C224 1.221 . S
C96 C246 1.222 . S
C202 C118 1.221 . S
C360 C114 1.221 . S
C70 C382 1.222 . S
C338 C92 1.221 . S
C184 C290 1.221 1_654 S
C140 C312 1.221 1_554 S
C162 C268 1.221 1_544 S
C206 C356 1.221 1_544 S
C378 C228 1.221 1_456 S
C334 C250 1.221 1_556 S
C6 C93 1.566 . S
C115 C28 1.567 . S
C71 C50 1.567 . S
C97 C51 1.567 . S
C119 C7 1.567 . S
C75 C29 1.566 . S
C225 C138 1.567 . S
C247 C160 1.566 . S
C203 C182 1.567 . S
C229 C183 1.566 . S
C251 C139 1.567 . S
C207 C161 1.566 . S
C357 C270 1.567 . S
C379 C292 1.566 . S
C314 C335 1.567 . S
C315 C361 1.567 . S
C271 C383 1.567 . S
C339 C293 1.567 . S
C5 C9 1.844 1_554 S
C27 C31 1.844 1_554 S
C49 C53 1.844 1_554 S
C73 C72 1.844 1_556 S
C94 C95 1.844 1_554 S
C116 C117 1.844 1_554 S
C141 C137 1.844 . S
C159 C163 1.844 . S
C185 C181 1.844 . S
C205 C204 1.844 . S
C227 C226 1.844 . S
C249 C248 1.844 . S
C273 C269 1.844 . S
C291 C295 1.844 . S
C313 C317 1.844 . S
C336 C337 1.844 . S
C358 C359 1.844 . S
C381 C380 1.844 . S
