# Generated by pormake.
# Topology ukr, (4)-cn, num edge types: 1
# Building blocks:
#     Node 0, Type 0, BuildingBlock: CEKHIL_clean_sbu_0, # of connection points: 4
#     Node 1, Type 0, BuildingBlock: CEKHIL_clean_sbu_0, # of connection points: 4
#     Node 2, Type 0, BuildingBlock: CEKHIL_clean_sbu_0, # of connection points: 4
#     Node 3, Type 0, BuildingBlock: CEKHIL_clean_sbu_0, # of connection points: 4
#     Node 4, Type 0, BuildingBlock: CEKHIL_clean_sbu_0, # of connection points: 4
#     Node 5, Type 0, BuildingBlock: CEKHIL_clean_sbu_0, # of connection points: 4
#     Node 6, Type 0, BuildingBlock: CEKHIL_clean_sbu_0, # of connection points: 4
#     Node 7, Type 0, BuildingBlock: CEKHIL_clean_sbu_0, # of connection points: 4
#     Node 8, Type 0, BuildingBlock: CEKHIL_clean_sbu_0, # of connection points: 4
#     Node 9, Type 0, BuildingBlock: CEKHIL_clean_sbu_0, # of connection points: 4
#     Node 10, Type 0, BuildingBlock: CEKHIL_clean_sbu_0, # of connection points: 4
#     Node 11, Type 0, BuildingBlock: CEKHIL_clean_sbu_0, # of connection points: 4
#     Node 12, Type 0, BuildingBlock: CEKHIL_clean_sbu_0, # of connection points: 4
#     Node 13, Type 0, BuildingBlock: CEKHIL_clean_sbu_0, # of connection points: 4
#     Node 14, Type 0, BuildingBlock: CEKHIL_clean_sbu_0, # of connection points: 4
#     Node 15, Type 0, BuildingBlock: CEKHIL_clean_sbu_0, # of connection points: 4
#     Node 16, Type 0, BuildingBlock: CEKHIL_clean_sbu_0, # of connection points: 4
#     Node 17, Type 0, BuildingBlock: CEKHIL_clean_sbu_0, # of connection points: 4
#     Node 18, Type 0, BuildingBlock: CEKHIL_clean_sbu_0, # of connection points: 4
#     Node 19, Type 0, BuildingBlock: CEKHIL_clean_sbu_0, # of connection points: 4
#     Node 20, Type 0, BuildingBlock: CEKHIL_clean_sbu_0, # of connection points: 4
#     Node 21, Type 0, BuildingBlock: CEKHIL_clean_sbu_0, # of connection points: 4
#     Node 22, Type 0, BuildingBlock: CEKHIL_clean_sbu_0, # of connection points: 4
#     Node 23, Type 0, BuildingBlock: CEKHIL_clean_sbu_0, # of connection points: 4
#     Node 24, Type 0, BuildingBlock: CEKHIL_clean_sbu_0, # of connection points: 4
#     Node 25, Type 0, BuildingBlock: CEKHIL_clean_sbu_0, # of connection points: 4
#     Node 26, Type 0, BuildingBlock: CEKHIL_clean_sbu_0, # of connection points: 4
#     Node 27, Type 0, BuildingBlock: CEKHIL_clean_sbu_0, # of connection points: 4
#     Node 28, Type 0, BuildingBlock: CEKHIL_clean_sbu_0, # of connection points: 4
#     Node 29, Type 0, BuildingBlock: CEKHIL_clean_sbu_0, # of connection points: 4
#     Node 30, Type 0, BuildingBlock: CEKHIL_clean_sbu_0, # of connection points: 4
#     Node 31, Type 0, BuildingBlock: CEKHIL_clean_sbu_0, # of connection points: 4
#     Node 32, Type 0, BuildingBlock: CEKHIL_clean_sbu_0, # of connection points: 4
#     Node 33, Type 0, BuildingBlock: CEKHIL_clean_sbu_0, # of connection points: 4
#     Node 34, Type 0, BuildingBlock: CEKHIL_clean_sbu_0, # of connection points: 4
#     Node 35, Type 0, BuildingBlock: CEKHIL_clean_sbu_0, # of connection points: 4
#     Node 36, Type 0, BuildingBlock: CEKHIL_clean_sbu_0, # of connection points: 4
#     Node 37, Type 0, BuildingBlock: CEKHIL_clean_sbu_0, # of connection points: 4
#     Node 38, Type 0, BuildingBlock: CEKHIL_clean_sbu_0, # of connection points: 4
#     Node 39, Type 0, BuildingBlock: CEKHIL_clean_sbu_0, # of connection points: 4
#     Node 40, Type 0, BuildingBlock: CEKHIL_clean_sbu_0, # of connection points: 4
#     Node 41, Type 0, BuildingBlock: CEKHIL_clean_sbu_0, # of connection points: 4
#     Node 42, Type 0, BuildingBlock: CEKHIL_clean_sbu_0, # of connection points: 4
#     Node 43, Type 0, BuildingBlock: CEKHIL_clean_sbu_0, # of connection points: 4
#     Node 44, Type 0, BuildingBlock: CEKHIL_clean_sbu_0, # of connection points: 4
#     Node 45, Type 0, BuildingBlock: CEKHIL_clean_sbu_0, # of connection points: 4
#     Node 46, Type 0, BuildingBlock: CEKHIL_clean_sbu_0, # of connection points: 4
#     Node 47, Type 0, BuildingBlock: CEKHIL_clean_sbu_0, # of connection points: 4
#     Edge 48, Type (0, 0), BuildingBlock: OJICUG_clean_linker_0, # of connection points: 2
#     Edge 49, Type (0, 0), BuildingBlock: OJICUG_clean_linker_0, # of connection points: 2
#     Edge 50, Type (0, 0), BuildingBlock: OJICUG_clean_linker_0, # of connection points: 2
#     Edge 51, Type (0, 0), BuildingBlock: OJICUG_clean_linker_0, # of connection points: 2
#     Edge 52, Type (0, 0), BuildingBlock: OJICUG_clean_linker_0, # of connection points: 2
#     Edge 53, Type (0, 0), BuildingBlock: OJICUG_clean_linker_0, # of connection points: 2
#     Edge 54, Type (0, 0), BuildingBlock: OJICUG_clean_linker_0, # of connection points: 2
#     Edge 55, Type (0, 0), BuildingBlock: OJICUG_clean_linker_0, # of connection points: 2
#     Edge 56, Type (0, 0), BuildingBlock: OJICUG_clean_linker_0, # of connection points: 2
#     Edge 57, Type (0, 0), BuildingBlock: OJICUG_clean_linker_0, # of connection points: 2
#     Edge 58, Type (0, 0), BuildingBlock: OJICUG_clean_linker_0, # of connection points: 2
#     Edge 59, Type (0, 0), BuildingBlock: OJICUG_clean_linker_0, # of connection points: 2
#     Edge 60, Type (0, 0), BuildingBlock: OJICUG_clean_linker_0, # of connection points: 2
#     Edge 61, Type (0, 0), BuildingBlock: OJICUG_clean_linker_0, # of connection points: 2
#     Edge 62, Type (0, 0), BuildingBlock: OJICUG_clean_linker_0, # of connection points: 2
#     Edge 63, Type (0, 0), BuildingBlock: OJICUG_clean_linker_0, # of connection points: 2
#     Edge 64, Type (0, 0), BuildingBlock: OJICUG_clean_linker_0, # of connection points: 2
#     Edge 65, Type (0, 0), BuildingBlock: OJICUG_clean_linker_0, # of connection points: 2
#     Edge 66, Type (0, 0), BuildingBlock: OJICUG_clean_linker_0, # of connection points: 2
#     Edge 67, Type (0, 0), BuildingBlock: OJICUG_clean_linker_0, # of connection points: 2
#     Edge 68, Type (0, 0), BuildingBlock: OJICUG_clean_linker_0, # of connection points: 2
#     Edge 69, Type (0, 0), BuildingBlock: OJICUG_clean_linker_0, # of connection points: 2
#     Edge 70, Type (0, 0), BuildingBlock: OJICUG_clean_linker_0, # of connection points: 2
#     Edge 71, Type (0, 0), BuildingBlock: OJICUG_clean_linker_0, # of connection points: 2
#     Edge 72, Type (0, 0), BuildingBlock: OJICUG_clean_linker_0, # of connection points: 2
#     Edge 73, Type (0, 0), BuildingBlock: OJICUG_clean_linker_0, # of connection points: 2
#     Edge 74, Type (0, 0), BuildingBlock: OJICUG_clean_linker_0, # of connection points: 2
#     Edge 75, Type (0, 0), BuildingBlock: OJICUG_clean_linker_0, # of connection points: 2
#     Edge 76, Type (0, 0), BuildingBlock: OJICUG_clean_linker_0, # of connection points: 2
#     Edge 77, Type (0, 0), BuildingBlock: OJICUG_clean_linker_0, # of connection points: 2
#     Edge 78, Type (0, 0), BuildingBlock: OJICUG_clean_linker_0, # of connection points: 2
#     Edge 79, Type (0, 0), BuildingBlock: OJICUG_clean_linker_0, # of connection points: 2
#     Edge 80, Type (0, 0), BuildingBlock: OJICUG_clean_linker_0, # of connection points: 2
#     Edge 81, Type (0, 0), BuildingBlock: OJICUG_clean_linker_0, # of connection points: 2
#     Edge 82, Type (0, 0), BuildingBlock: OJICUG_clean_linker_0, # of connection points: 2
#     Edge 83, Type (0, 0), BuildingBlock: OJICUG_clean_linker_0, # of connection points: 2
#     Edge 84, Type (0, 0), BuildingBlock: OJICUG_clean_linker_0, # of connection points: 2
#     Edge 85, Type (0, 0), BuildingBlock: OJICUG_clean_linker_0, # of connection points: 2
#     Edge 86, Type (0, 0), BuildingBlock: OJICUG_clean_linker_0, # of connection points: 2
#     Edge 87, Type (0, 0), BuildingBlock: OJICUG_clean_linker_0, # of connection points: 2
#     Edge 88, Type (0, 0), BuildingBlock: OJICUG_clean_linker_0, # of connection points: 2
#     Edge 89, Type (0, 0), BuildingBlock: OJICUG_clean_linker_0, # of connection points: 2
#     Edge 90, Type (0, 0), BuildingBlock: OJICUG_clean_linker_0, # of connection points: 2
#     Edge 91, Type (0, 0), BuildingBlock: OJICUG_clean_linker_0, # of connection points: 2
#     Edge 92, Type (0, 0), BuildingBlock: OJICUG_clean_linker_0, # of connection points: 2
#     Edge 93, Type (0, 0), BuildingBlock: OJICUG_clean_linker_0, # of connection points: 2
#     Edge 94, Type (0, 0), BuildingBlock: OJICUG_clean_linker_0, # of connection points: 2
#     Edge 95, Type (0, 0), BuildingBlock: OJICUG_clean_linker_0, # of connection points: 2
#     Edge 96, Type (0, 0), BuildingBlock: OJICUG_clean_linker_0, # of connection points: 2
#     Edge 97, Type (0, 0), BuildingBlock: OJICUG_clean_linker_0, # of connection points: 2
#     Edge 98, Type (0, 0), BuildingBlock: OJICUG_clean_linker_0, # of connection points: 2
#     Edge 99, Type (0, 0), BuildingBlock: OJICUG_clean_linker_0, # of connection points: 2
#     Edge 100, Type (0, 0), BuildingBlock: OJICUG_clean_linker_0, # of connection points: 2
#     Edge 101, Type (0, 0), BuildingBlock: OJICUG_clean_linker_0, # of connection points: 2
#     Edge 102, Type (0, 0), BuildingBlock: OJICUG_clean_linker_0, # of connection points: 2
#     Edge 103, Type (0, 0), BuildingBlock: OJICUG_clean_linker_0, # of connection points: 2
#     Edge 104, Type (0, 0), BuildingBlock: OJICUG_clean_linker_0, # of connection points: 2
#     Edge 105, Type (0, 0), BuildingBlock: OJICUG_clean_linker_0, # of connection points: 2
#     Edge 106, Type (0, 0), BuildingBlock: OJICUG_clean_linker_0, # of connection points: 2
#     Edge 107, Type (0, 0), BuildingBlock: OJICUG_clean_linker_0, # of connection points: 2
#     Edge 108, Type (0, 0), BuildingBlock: OJICUG_clean_linker_0, # of connection points: 2
#     Edge 109, Type (0, 0), BuildingBlock: OJICUG_clean_linker_0, # of connection points: 2
#     Edge 110, Type (0, 0), BuildingBlock: OJICUG_clean_linker_0, # of connection points: 2
#     Edge 111, Type (0, 0), BuildingBlock: OJICUG_clean_linker_0, # of connection points: 2
#     Edge 112, Type (0, 0), BuildingBlock: OJICUG_clean_linker_0, # of connection points: 2
#     Edge 113, Type (0, 0), BuildingBlock: OJICUG_clean_linker_0, # of connection points: 2
#     Edge 114, Type (0, 0), BuildingBlock: OJICUG_clean_linker_0, # of connection points: 2
#     Edge 115, Type (0, 0), BuildingBlock: OJICUG_clean_linker_0, # of connection points: 2
#     Edge 116, Type (0, 0), BuildingBlock: OJICUG_clean_linker_0, # of connection points: 2
#     Edge 117, Type (0, 0), BuildingBlock: OJICUG_clean_linker_0, # of connection points: 2
#     Edge 118, Type (0, 0), BuildingBlock: OJICUG_clean_linker_0, # of connection points: 2
#     Edge 119, Type (0, 0), BuildingBlock: OJICUG_clean_linker_0, # of connection points: 2
#     Edge 120, Type (0, 0), BuildingBlock: OJICUG_clean_linker_0, # of connection points: 2
#     Edge 121, Type (0, 0), BuildingBlock: OJICUG_clean_linker_0, # of connection points: 2
#     Edge 122, Type (0, 0), BuildingBlock: OJICUG_clean_linker_0, # of connection points: 2
#     Edge 123, Type (0, 0), BuildingBlock: OJICUG_clean_linker_0, # of connection points: 2
#     Edge 124, Type (0, 0), BuildingBlock: OJICUG_clean_linker_0, # of connection points: 2
#     Edge 125, Type (0, 0), BuildingBlock: OJICUG_clean_linker_0, # of connection points: 2
#     Edge 126, Type (0, 0), BuildingBlock: OJICUG_clean_linker_0, # of connection points: 2
#     Edge 127, Type (0, 0), BuildingBlock: OJICUG_clean_linker_0, # of connection points: 2
#     Edge 128, Type (0, 0), BuildingBlock: OJICUG_clean_linker_0, # of connection points: 2
#     Edge 129, Type (0, 0), BuildingBlock: OJICUG_clean_linker_0, # of connection points: 2
#     Edge 130, Type (0, 0), BuildingBlock: OJICUG_clean_linker_0, # of connection points: 2
#     Edge 131, Type (0, 0), BuildingBlock: OJICUG_clean_linker_0, # of connection points: 2
#     Edge 132, Type (0, 0), BuildingBlock: OJICUG_clean_linker_0, # of connection points: 2
#     Edge 133, Type (0, 0), BuildingBlock: OJICUG_clean_linker_0, # of connection points: 2
#     Edge 134, Type (0, 0), BuildingBlock: OJICUG_clean_linker_0, # of connection points: 2
#     Edge 135, Type (0, 0), BuildingBlock: OJICUG_clean_linker_0, # of connection points: 2
#     Edge 136, Type (0, 0), BuildingBlock: OJICUG_clean_linker_0, # of connection points: 2
#     Edge 137, Type (0, 0), BuildingBlock: OJICUG_clean_linker_0, # of connection points: 2
#     Edge 138, Type (0, 0), BuildingBlock: OJICUG_clean_linker_0, # of connection points: 2
#     Edge 139, Type (0, 0), BuildingBlock: OJICUG_clean_linker_0, # of connection points: 2
#     Edge 140, Type (0, 0), BuildingBlock: OJICUG_clean_linker_0, # of connection points: 2
#     Edge 141, Type (0, 0), BuildingBlock: OJICUG_clean_linker_0, # of connection points: 2
#     Edge 142, Type (0, 0), BuildingBlock: OJICUG_clean_linker_0, # of connection points: 2
#     Edge 143, Type (0, 0), BuildingBlock: OJICUG_clean_linker_0, # of connection points: 2
# Relax obj value: 0.463
# Max RMSD: 0.183
# Mean RMSD: 0.183
data_MOF--net-ukr--node1-CEKHIL_clean_sbu_0--edge1-OJICUG_clean_linker_0
_symmetry_space_group_name_H-M    P1
_symmetry_Int_Tables_number       1
_symmetry_cell_setting            triclinic
loop_
_symmetry_equiv_pos_as_xyz
'x, y, z'
_cell_length_a     49.750146
_cell_length_b     49.763872
_cell_length_c     49.763477
_cell_angle_alpha  90.016961
_cell_angle_beta   89.993208
_cell_angle_gamma 89.981137
loop_
_atom_site_label
_atom_site_type_symbol
_atom_site_fract_x
_atom_site_fract_y
_atom_site_fract_z
_atom_type_partial_charge
Co0 Co 0.0929 0.2497 0.24143 0.0
O1 O 0.05981 0.24327 0.25984 0.0
O2 O 0.06339 0.25083 0.21608 0.0
C3 C 0.11768 0.21648 0.2597 0.0
O4 O 0.12417 0.25642 0.21597 0.0
Co5 Co 0.14183 0.26787 0.27602 0.0
O6 O 0.1607 0.26678 0.24078 0.0
C7 C 0.09969 0.3065 0.26376 0.0
C8 C 0.04805 0.24603 0.23673 0.0
C9 C 0.14924 0.26256 0.21821 0.0
O10 O 0.08943 0.28971 0.24702 0.0
O11 O 0.11756 0.29965 0.28094 0.0
O12 O 0.10095 0.21122 0.24034 0.0
O13 O 0.1154 0.24021 0.26994 0.0
Co14 Co 0.23807 0.60268 0.7445 0.0
O15 O 0.24078 0.56989 0.76434 0.0
O16 O 0.23179 0.57247 0.72078 0.0
C17 C 0.27514 0.6235 0.76021 0.0
O18 O 0.23432 0.63338 0.71773 0.0
Co19 Co 0.22818 0.65509 0.77728 0.0
O20 O 0.22963 0.672 0.74108 0.0
C21 C 0.18372 0.61798 0.76875 0.0
C22 C 0.23522 0.55759 0.74203 0.0
C23 C 0.23134 0.65909 0.71897 0.0
O24 O 0.19827 0.60483 0.75193 0.0
O25 O 0.19349 0.6359 0.78441 0.0
O26 O 0.27723 0.60543 0.74145 0.0
O27 O 0.2518 0.62491 0.77145 0.0
Co28 Co 0.89755 0.73703 0.23394 0.0
O29 O 0.93071 0.74113 0.25287 0.0
O30 O 0.92729 0.73581 0.20878 0.0
C31 C 0.87437 0.77067 0.25359 0.0
O32 O 0.86619 0.73296 0.208 0.0
Co33 Co 0.84752 0.7199 0.26748 0.0
O34 O 0.82899 0.72364 0.23226 0.0
C35 C 0.88781 0.67966 0.25368 0.0
C36 C 0.94258 0.73918 0.22974 0.0
C37 C 0.84079 0.72815 0.20992 0.0
O38 O 0.89912 0.69666 0.23784 0.0
O39 O 0.86983 0.68652 0.27076 0.0
O40 O 0.89138 0.77588 0.23448 0.0
O41 O 0.87535 0.74641 0.26274 0.0
Co42 Co 0.75642 0.39557 0.74866 0.0
O43 O 0.75476 0.42835 0.76877 0.0
O44 O 0.76243 0.42571 0.72494 0.0
C45 C 0.71957 0.3751 0.76528 0.0
O46 O 0.75888 0.36518 0.72142 0.0
Co47 Co 0.76635 0.34247 0.78017 0.0
O48 O 0.76364 0.32604 0.74379 0.0
C49 C 0.81098 0.3793 0.77153 0.0
C50 C 0.7598 0.44059 0.74629 0.0
C51 C 0.76146 0.33943 0.72201 0.0
O52 O 0.79638 0.39274 0.75498 0.0
O53 O 0.80117 0.36145 0.78722 0.0
O54 O 0.71715 0.39337 0.74677 0.0
O55 O 0.74321 0.37327 0.77579 0.0
Co56 Co 0.1093 0.74394 0.7579 0.0
O57 O 0.07623 0.74843 0.73902 0.0
O58 O 0.07944 0.74273 0.78306 0.0
C59 C 0.13273 0.77738 0.7384 0.0
O60 O 0.14096 0.73939 0.78351 0.0
Co61 Co 0.15847 0.7262 0.72327 0.0
O62 O 0.17746 0.72969 0.75825 0.0
C63 C 0.11793 0.68657 0.73763 0.0
C64 C 0.06423 0.74624 0.76204 0.0
C65 C 0.16627 0.73427 0.7809 0.0
O66 O 0.10729 0.70366 0.75383 0.0
O67 O 0.13554 0.69325 0.72011 0.0
O68 O 0.11582 0.78271 0.75758 0.0
O69 O 0.13137 0.75324 0.72905 0.0
Co70 Co 0.76714 0.59873 0.24188 0.0
O71 O 0.76319 0.56617 0.22174 0.0
O72 O 0.77066 0.56819 0.26562 0.0
C73 C 0.73172 0.6215 0.22524 0.0
O74 O 0.77145 0.6289 0.26914 0.0
Co75 Co 0.7806 0.65114 0.21046 0.0
O76 O 0.77832 0.66772 0.24678 0.0
C77 C 0.82294 0.61178 0.21984 0.0
C78 C 0.76657 0.55356 0.24432 0.0
C79 C 0.77536 0.65449 0.26855 0.0
O80 O 0.80728 0.59894 0.2359 0.0
O81 O 0.8144 0.63018 0.20403 0.0
O82 O 0.72819 0.60334 0.24366 0.0
O83 O 0.75546 0.62196 0.21474 0.0
Co84 Co 0.88707 0.25261 0.75837 0.0
O85 O 0.91976 0.24961 0.73846 0.0
O86 O 0.91746 0.25372 0.78275 0.0
C87 C 0.86385 0.2193 0.73839 0.0
O88 O 0.85619 0.25541 0.78515 0.0
Co89 Co 0.83623 0.27013 0.7262 0.0
O90 O 0.81853 0.26501 0.76167 0.0
C91 C 0.87663 0.31012 0.73975 0.0
C92 C 0.93224 0.25131 0.76127 0.0
C93 C 0.8307 0.2599 0.78369 0.0
O94 O 0.88793 0.29307 0.75553 0.0
O95 O 0.85875 0.3033 0.72258 0.0
O96 O 0.88145 0.21371 0.75686 0.0
O97 O 0.86436 0.24378 0.72989 0.0
Co98 Co 0.22027 0.38909 0.25518 0.0
O99 O 0.22308 0.42156 0.23499 0.0
O100 O 0.21581 0.41967 0.27891 0.0
C101 C 0.25654 0.36783 0.23829 0.0
O102 O 0.217 0.35852 0.28217 0.0
Co103 Co 0.20859 0.33677 0.22285 0.0
O104 O 0.21173 0.3199 0.25893 0.0
C105 C 0.16494 0.37465 0.23279 0.0
C106 C 0.21936 0.43423 0.25745 0.0
C107 C 0.21413 0.33279 0.28099 0.0
O108 O 0.18018 0.38765 0.24912 0.0
O109 O 0.17396 0.35651 0.21692 0.0
O110 O 0.25941 0.38582 0.25697 0.0
O111 O 0.2328 0.36657 0.22787 0.0
Co112 Co 0.24554 0.10185 0.25983 0.0
O113 O 0.26696 0.07006 0.25635 0.0
O114 O 0.22276 0.07055 0.26226 0.0
C115 C 0.26274 0.1257 0.22543 0.0
O116 O 0.21704 0.13095 0.26343 0.0
Co117 Co 0.27435 0.15511 0.27526 0.0
O118 O 0.2376 0.17051 0.27157 0.0
C119 C 0.26524 0.11458 0.31657 0.0
C120 C 0.24474 0.05669 0.25916 0.0
C121 C 0.21649 0.1565 0.26756 0.0
O122 O 0.25014 0.10159 0.30012 0.0
O123 O 0.28025 0.13409 0.3091 0.0
O124 O 0.24508 0.10701 0.22088 0.0
O125 O 0.27229 0.12614 0.24957 0.0
Co126 Co 0.40333 0.73789 0.74908 0.0
O127 O 0.4361 0.75682 0.74259 0.0
O128 O 0.4333 0.71298 0.74994 0.0
C129 C 0.37829 0.75619 0.7161 0.0
O130 O 0.37231 0.712 0.75575 0.0
Co131 Co 0.35421 0.77202 0.76769 0.0
O132 O 0.33568 0.73662 0.76642 0.0
C133 C 0.39717 0.76077 0.8056 0.0
C134 C 0.44826 0.73391 0.74515 0.0
C135 C 0.34722 0.71412 0.76195 0.0
O136 O 0.40693 0.74346 0.78909 0.0
O137 O 0.37937 0.77796 0.79858 0.0
O138 O 0.39511 0.73696 0.71061 0.0
O139 O 0.38055 0.7662 0.73991 0.0
Co140 Co 0.75119 0.89091 0.26034 0.0
O141 O 0.72984 0.9228 0.25899 0.0
O142 O 0.7741 0.92221 0.26402 0.0
C143 C 0.7331 0.8691 0.225 0.0
O144 O 0.77931 0.86116 0.26198 0.0
Co145 Co 0.72106 0.83767 0.27364 0.0
O146 O 0.75749 0.82195 0.26875 0.0
C147 C 0.73258 0.87549 0.31685 0.0
C148 C 0.752 0.93613 0.26215 0.0
C149 C 0.77902 0.83543 0.26508 0.0
O150 O 0.74745 0.88907 0.30067 0.0
O151 O 0.71672 0.85693 0.30876 0.0
O152 O 0.75092 0.88778 0.22111 0.0
O153 O 0.72399 0.8676 0.24924 0.0
Co154 Co 0.59186 0.25989 0.75645 0.0
O155 O 0.55896 0.24081 0.7512 0.0
O156 O 0.56173 0.28436 0.76012 0.0
C157 C 0.61499 0.24315 0.72123 0.0
O158 O 0.62289 0.28594 0.76228 0.0
Co159 Co 0.64255 0.22579 0.77035 0.0
O160 O 0.66043 0.26155 0.76979 0.0
C161 C 0.60164 0.23424 0.81117 0.0
C162 C 0.54672 0.26344 0.7554 0.0
C163 C 0.6483 0.284 0.76696 0.0
O164 O 0.59085 0.25248 0.79636 0.0
O165 O 0.61908 0.21768 0.80206 0.0
O166 O 0.59778 0.26248 0.71755 0.0
O167 O 0.61428 0.23227 0.74473 0.0
Co168 Co 0.25321 0.89914 0.73185 0.0
O169 O 0.2723 0.9325 0.73391 0.0
O170 O 0.22801 0.92868 0.73068 0.0
C171 C 0.27413 0.87717 0.76549 0.0
O172 O 0.22683 0.86801 0.73019 0.0
Co173 Co 0.28496 0.84771 0.71556 0.0
O174 O 0.24962 0.82986 0.72121 0.0
C175 C 0.27034 0.88656 0.67429 0.0
C176 C 0.24897 0.94416 0.73283 0.0
C177 C 0.22782 0.84245 0.72625 0.0
O178 O 0.25532 0.89894 0.69132 0.0
O179 O 0.28763 0.8689 0.68142 0.0
O180 O 0.25542 0.89459 0.7708 0.0
O181 O 0.28225 0.87698 0.74084 0.0
Co182 Co 0.60581 0.73759 0.23609 0.0
O183 O 0.57248 0.75582 0.24202 0.0
O184 O 0.57638 0.71229 0.23336 0.0
C185 C 0.62929 0.7548 0.27078 0.0
O186 O 0.63722 0.71219 0.22972 0.0
Co187 Co 0.65567 0.77224 0.22091 0.0
O188 O 0.67438 0.7369 0.22169 0.0
C189 C 0.61491 0.76145 0.18023 0.0
C190 C 0.56088 0.73273 0.2385 0.0
C191 C 0.66255 0.71434 0.22472 0.0
O192 O 0.60372 0.74446 0.19617 0.0
O193 O 0.63302 0.77793 0.1881 0.0
O194 O 0.61243 0.73528 0.27475 0.0
O195 O 0.62802 0.76576 0.24729 0.0
Co196 Co 0.74422 0.09663 0.73023 0.0
O197 O 0.72533 0.06312 0.73066 0.0
O198 O 0.76941 0.06738 0.7256 0.0
C199 C 0.72482 0.11603 0.76633 0.0
O200 O 0.77038 0.12796 0.72954 0.0
Co201 Co 0.71141 0.1488 0.71927 0.0
O202 O 0.74696 0.16643 0.72425 0.0
C203 C 0.724 0.11302 0.67466 0.0
C204 C 0.74856 0.05168 0.72735 0.0
C205 C 0.76904 0.15372 0.72735 0.0
O206 O 0.74006 0.09972 0.68996 0.0
O207 O 0.70709 0.13008 0.68388 0.0
O208 O 0.74388 0.09846 0.76954 0.0
O209 O 0.71557 0.11781 0.74216 0.0
Co210 Co 0.38744 0.25599 0.24172 0.0
O211 O 0.42067 0.2373 0.24596 0.0
O212 O 0.41715 0.28126 0.23978 0.0
C213 C 0.3647 0.23685 0.2759 0.0
O214 O 0.35566 0.28145 0.23732 0.0
Co215 Co 0.33801 0.22103 0.22546 0.0
O216 O 0.31902 0.25603 0.22877 0.0
C217 C 0.37726 0.23567 0.18451 0.0
C218 C 0.4325 0.26036 0.2435 0.0
C219 C 0.33028 0.27875 0.23269 0.0
O220 O 0.38874 0.25149 0.20142 0.0
O221 O 0.35957 0.21837 0.19156 0.0
O222 O 0.38159 0.25619 0.28061 0.0
O223 O 0.36565 0.22718 0.25185 0.0
Co224 Co 0.2554 0.24698 0.10364 0.0
O225 O 0.25135 0.2673 0.0713 0.0
O226 O 0.25975 0.22357 0.07286 0.0
C227 C 0.21938 0.26277 0.12608 0.0
O228 O 0.26006 0.21976 0.13381 0.0
Co229 Co 0.26774 0.27909 0.15598 0.0
O230 O 0.26629 0.24271 0.17246 0.0
C231 C 0.31081 0.26981 0.11737 0.0
C232 C 0.25542 0.24498 0.05846 0.0
C233 C 0.26393 0.22074 0.15941 0.0
O234 O 0.2954 0.25374 0.10425 0.0
O235 O 0.302 0.28547 0.13579 0.0
O236 O 0.21642 0.24433 0.10786 0.0
O237 O 0.24287 0.27379 0.12678 0.0
Co238 Co 0.27767 0.7586 0.88966 0.0
O239 O 0.27492 0.7389 0.92243 0.0
O240 O 0.28295 0.78265 0.91987 0.0
C241 C 0.24094 0.74194 0.869 0.0
O242 O 0.28107 0.78517 0.85875 0.0
Co243 Co 0.28824 0.72562 0.83751 0.0
O244 O 0.28577 0.76159 0.82026 0.0
C245 C 0.33217 0.73445 0.87526 0.0
C246 C 0.27934 0.76143 0.93476 0.0
C247 C 0.28376 0.78378 0.83302 0.0
O248 O 0.31762 0.7517 0.88787 0.0
O249 O 0.32246 0.71849 0.85758 0.0
O250 O 0.23851 0.76096 0.88672 0.0
O251 O 0.26453 0.73121 0.86762 0.0
Co252 Co 0.75279 0.75094 0.39028 0.0
O253 O 0.77362 0.74651 0.42231 0.0
O254 O 0.72936 0.7517 0.4213 0.0
C255 C 0.7711 0.71784 0.36543 0.0
O256 O 0.725 0.75535 0.36059 0.0
Co257 Co 0.78312 0.76913 0.33864 0.0
O258 O 0.74681 0.76586 0.32223 0.0
C259 C 0.77136 0.80862 0.38022 0.0
C260 C 0.75115 0.74834 0.43541 0.0
C261 C 0.72528 0.76087 0.33528 0.0
O262 O 0.75646 0.79127 0.39222 0.0
O263 O 0.78749 0.80219 0.36123 0.0
O264 O 0.75315 0.71224 0.38355 0.0
O265 O 0.78027 0.7421 0.36624 0.0
Co266 Co 0.72335 0.23049 0.89525 0.0
O267 O 0.72628 0.24993 0.92817 0.0
O268 O 0.71875 0.20614 0.92543 0.0
C269 C 0.75947 0.24804 0.87417 0.0
O270 O 0.71988 0.20421 0.86401 0.0
Co271 Co 0.71157 0.26432 0.84381 0.0
O272 O 0.71387 0.22854 0.82614 0.0
C273 C 0.66869 0.25487 0.88237 0.0
C274 C 0.72219 0.22733 0.94044 0.0
C275 C 0.71651 0.20612 0.83837 0.0
O276 O 0.68326 0.23694 0.89398 0.0
O277 O 0.67841 0.27166 0.86549 0.0
O278 O 0.7626 0.2288 0.89156 0.0
O279 O 0.73569 0.25829 0.87344 0.0
Co280 Co 0.24374 0.23271 0.398 0.0
O281 O 0.22343 0.23518 0.4305 0.0
O282 O 0.26784 0.23192 0.42856 0.0
C283 C 0.22348 0.26601 0.37497 0.0
O284 O 0.27096 0.23048 0.36754 0.0
Co285 Co 0.21279 0.2154 0.34638 0.0
O286 O 0.24856 0.22065 0.32933 0.0
C287 C 0.22694 0.17489 0.38614 0.0
C288 C 0.24621 0.23411 0.44314 0.0
C289 C 0.27023 0.22591 0.34204 0.0
O290 O 0.24168 0.19221 0.39841 0.0
O291 O 0.20987 0.18162 0.36811 0.0
O292 O 0.24171 0.2716 0.39281 0.0
O293 O 0.21537 0.24137 0.37498 0.0
Co294 Co 0.73479 0.75394 0.09682 0.0
O295 O 0.73791 0.73457 0.06387 0.0
O296 O 0.73105 0.77848 0.0667 0.0
C297 C 0.77037 0.73599 0.11838 0.0
O298 O 0.73123 0.78009 0.12815 0.0
Co299 Co 0.72162 0.71992 0.14778 0.0
O300 O 0.72451 0.75551 0.16573 0.0
C301 C 0.67895 0.73179 0.10956 0.0
C302 C 0.73446 0.75731 0.05165 0.0
C303 C 0.72754 0.778 0.15373 0.0
O304 O 0.69459 0.74844 0.09748 0.0
O305 O 0.68758 0.71483 0.12686 0.0
O306 O 0.77392 0.75506 0.10092 0.0
O307 O 0.7465 0.72587 0.11876 0.0
Co308 Co 0.73816 0.2424 0.60096 0.0
O309 O 0.75911 0.24594 0.56884 0.0
O310 O 0.71484 0.24107 0.56988 0.0
C311 C 0.75661 0.27591 0.62522 0.0
O312 O 0.71016 0.23901 0.6306 0.0
Co313 Co 0.76808 0.22534 0.65324 0.0
O314 O 0.73173 0.22956 0.66938 0.0
C315 C 0.7574 0.1852 0.6121 0.0
C316 C 0.73665 0.24395 0.55572 0.0
C317 C 0.71031 0.23438 0.65608 0.0
O318 O 0.7418 0.20194 0.60006 0.0
O319 O 0.77351 0.19236 0.63082 0.0
O320 O 0.73876 0.2813 0.60691 0.0
O321 O 0.76557 0.25158 0.62488 0.0
Co322 Co 0.25169 0.75956 0.60045 0.0
O323 O 0.23077 0.75634 0.56826 0.0
O324 O 0.27502 0.76157 0.56953 0.0
C325 C 0.23368 0.72539 0.62407 0.0
O326 O 0.27981 0.76265 0.62991 0.0
Co327 Co 0.22249 0.77527 0.65347 0.0
O328 O 0.25893 0.77075 0.66931 0.0
C329 C 0.23257 0.81653 0.61312 0.0
C330 C 0.2533 0.7586 0.55528 0.0
C331 C 0.28014 0.7665 0.6555 0.0
O332 O 0.24767 0.79996 0.60023 0.0
O333 O 0.21717 0.80913 0.63234 0.0
O334 O 0.2515 0.72061 0.60558 0.0
O335 O 0.22446 0.74965 0.62441 0.0
Co336 Co 0.9033 0.73958 0.7564 0.0
O337 O 0.9365 0.74425 0.73774 0.0
O338 O 0.93294 0.73901 0.78181 0.0
C339 C 0.87977 0.77273 0.73634 0.0
O340 O 0.87169 0.73503 0.78199 0.0
Co341 Co 0.85403 0.72149 0.72214 0.0
O342 O 0.83506 0.72489 0.75717 0.0
C343 C 0.89471 0.68202 0.73668 0.0
C344 C 0.94828 0.74271 0.76092 0.0
C345 C 0.84643 0.72968 0.77968 0.0
O346 O 0.90551 0.6992 0.75271 0.0
O347 O 0.87722 0.68871 0.71904 0.0
O348 O 0.89643 0.77834 0.75564 0.0
O349 O 0.88129 0.74846 0.72735 0.0
Co350 Co 0.75816 0.39256 0.24521 0.0
O351 O 0.75558 0.42477 0.22432 0.0
O352 O 0.76337 0.42348 0.26818 0.0
C353 C 0.72171 0.37099 0.22914 0.0
O354 O 0.76141 0.36282 0.27311 0.0
Co355 Co 0.76924 0.33906 0.21471 0.0
O356 O 0.76692 0.32336 0.25142 0.0
C357 C 0.81311 0.377 0.22269 0.0
C358 C 0.76012 0.43774 0.24649 0.0
C359 C 0.76453 0.3371 0.27296 0.0
O360 O 0.79817 0.39055 0.23886 0.0
O361 O 0.80372 0.35857 0.2074 0.0
O362 O 0.71898 0.38957 0.24729 0.0
O363 O 0.74537 0.36935 0.21862 0.0
Co364 Co 0.09332 0.25705 0.75655 0.0
O365 O 0.06055 0.25168 0.73721 0.0
O366 O 0.06313 0.25897 0.78108 0.0
C367 C 0.11736 0.22294 0.73885 0.0
O368 O 0.12406 0.26268 0.78293 0.0
Co369 Co 0.1439 0.27335 0.72342 0.0
O370 O 0.16167 0.27164 0.75919 0.0
C371 C 0.10289 0.31364 0.73457 0.0
C372 C 0.04824 0.25448 0.76003 0.0
C373 C 0.14939 0.26789 0.78141 0.0
O374 O 0.09138 0.29722 0.75089 0.0
O375 O 0.12123 0.3062 0.71813 0.0
O376 O 0.10002 0.2183 0.75782 0.0
O377 O 0.11624 0.24675 0.72864 0.0
Co378 Co 0.23387 0.59452 0.25336 0.0
O379 O 0.23488 0.56136 0.23405 0.0
O380 O 0.22597 0.5651 0.27757 0.0
C381 C 0.27209 0.61283 0.2372 0.0
O382 O 0.23176 0.62571 0.27968 0.0
Co383 Co 0.22756 0.64706 0.21987 0.0
O384 O 0.22938 0.66429 0.25593 0.0
C385 C 0.18125 0.61216 0.22742 0.0
C386 C 0.22879 0.54972 0.25657 0.0
C387 C 0.2302 0.6515 0.27817 0.0
O388 O 0.19428 0.59893 0.24542 0.0
O389 O 0.19276 0.62865 0.2114 0.0
O390 O 0.27323 0.59526 0.25649 0.0
O391 O 0.24882 0.61532 0.22608 0.0
Co392 Co 0.88713 0.25135 0.23768 0.0
O393 O 0.91974 0.24718 0.25745 0.0
O394 O 0.91747 0.25143 0.21316 0.0
C395 C 0.86314 0.21865 0.2577 0.0
O396 O 0.85618 0.25517 0.21109 0.0
Co397 Co 0.83701 0.27027 0.27022 0.0
O398 O 0.81894 0.26566 0.23488 0.0
C399 C 0.8783 0.30923 0.25614 0.0
C400 C 0.93218 0.24823 0.23459 0.0
C401 C 0.83081 0.26033 0.21275 0.0
O402 O 0.88925 0.29175 0.24056 0.0
O403 O 0.86027 0.30299 0.27339 0.0
O404 O 0.88043 0.21267 0.23907 0.0
O405 O 0.86431 0.2431 0.26627 0.0
Co406 Co 0.22281 0.39695 0.74612 0.0
O407 O 0.22605 0.42962 0.76608 0.0
O408 O 0.21976 0.42742 0.72204 0.0
C409 C 0.25814 0.37491 0.76402 0.0
O410 O 0.2194 0.36629 0.71923 0.0
Co411 Co 0.20925 0.34503 0.77843 0.0
O412 O 0.21235 0.32794 0.74243 0.0
C413 C 0.16667 0.38364 0.76715 0.0
C414 C 0.22342 0.44214 0.74338 0.0
C415 C 0.21563 0.34068 0.7204 0.0
O416 O 0.18251 0.39638 0.75116 0.0
O417 O 0.17511 0.36578 0.78362 0.0
O418 O 0.26189 0.3927 0.74531 0.0
O419 O 0.23413 0.37431 0.77387 0.0
Co420 Co 0.1038 0.74189 0.22949 0.0
O421 O 0.07128 0.74497 0.24962 0.0
O422 O 0.07317 0.73995 0.2054 0.0
C423 C 0.12678 0.77582 0.24879 0.0
O424 O 0.13447 0.7388 0.20253 0.0
Co425 Co 0.15508 0.72582 0.26183 0.0
O426 O 0.1723 0.72974 0.22599 0.0
C427 C 0.11459 0.68539 0.25038 0.0
C428 C 0.05858 0.74263 0.22699 0.0
C429 C 0.15995 0.73431 0.20395 0.0
O430 O 0.1035 0.70144 0.23341 0.0
O431 O 0.13198 0.69336 0.26755 0.0
O432 O 0.10918 0.78096 0.23017 0.0
O433 O 0.12647 0.75149 0.25762 0.0
Co434 Co 0.7724 0.60118 0.7467 0.0
O435 O 0.76837 0.56926 0.76778 0.0
O436 O 0.77634 0.56991 0.72394 0.0
C437 C 0.73648 0.62395 0.76232 0.0
O438 O 0.7768 0.63058 0.71862 0.0
Co439 Co 0.78477 0.65465 0.77679 0.0
O440 O 0.78288 0.67012 0.73999 0.0
C441 C 0.82767 0.6154 0.76932 0.0
C442 C 0.77187 0.55596 0.74562 0.0
C443 C 0.7804 0.65623 0.71855 0.0
O444 O 0.81248 0.60195 0.75329 0.0
O445 O 0.81865 0.63421 0.78438 0.0
O446 O 0.73342 0.60536 0.74426 0.0
O447 O 0.76011 0.62502 0.77303 0.0
Co448 Co 0.75457 0.8906 0.72698 0.0
O449 O 0.73268 0.92214 0.72827 0.0
O450 O 0.77702 0.92227 0.7239 0.0
C451 C 0.73635 0.8684 0.762 0.0
O452 O 0.78324 0.86138 0.72564 0.0
Co453 Co 0.72569 0.8368 0.71318 0.0
O454 O 0.76231 0.82173 0.71864 0.0
C455 C 0.73669 0.87513 0.6703 0.0
C456 C 0.7547 0.93584 0.72577 0.0
C457 C 0.78351 0.83564 0.72261 0.0
O458 O 0.75135 0.88884 0.68657 0.0
O459 O 0.72105 0.85633 0.67827 0.0
O460 O 0.75382 0.88734 0.76618 0.0
O461 O 0.72762 0.86677 0.73762 0.0
Co462 Co 0.59357 0.25677 0.24042 0.0
O463 O 0.56071 0.23799 0.24676 0.0
O464 O 0.56352 0.28151 0.23774 0.0
C465 C 0.61765 0.24003 0.27494 0.0
O466 O 0.62469 0.28247 0.2336 0.0
Co467 Co 0.64339 0.22206 0.22489 0.0
O468 O 0.66174 0.25757 0.22524 0.0
C469 C 0.60172 0.23163 0.18508 0.0
C470 C 0.54852 0.26073 0.24309 0.0
C471 C 0.64998 0.28019 0.22833 0.0
O472 O 0.59124 0.24948 0.20056 0.0
O473 O 0.61939 0.21487 0.19336 0.0
O474 O 0.60062 0.25941 0.27906 0.0
O475 O 0.61616 0.22899 0.25153 0.0
Co476 Co 0.24288 0.10501 0.74001 0.0
O477 O 0.26462 0.07347 0.74309 0.0
O478 O 0.22042 0.07338 0.73732 0.0
C479 C 0.26005 0.1288 0.77448 0.0
O480 O 0.21434 0.13419 0.7366 0.0
Co481 Co 0.27228 0.15805 0.72458 0.0
O482 O 0.23552 0.1734 0.7281 0.0
C483 C 0.26221 0.11798 0.68315 0.0
C484 C 0.24264 0.05979 0.74001 0.0
C485 C 0.2142 0.15972 0.7322 0.0
O486 O 0.2472 0.10505 0.69971 0.0
O487 O 0.27773 0.13709 0.69062 0.0
O488 O 0.24253 0.10997 0.77902 0.0
O489 O 0.26955 0.12927 0.75035 0.0
Co490 Co 0.39979 0.72907 0.24073 0.0
O491 O 0.43182 0.74977 0.24489 0.0
O492 O 0.43093 0.70568 0.23863 0.0
C493 C 0.37588 0.7471 0.27476 0.0
O494 O 0.36975 0.70157 0.23642 0.0
Co495 Co 0.34814 0.76078 0.2246 0.0
O496 O 0.33165 0.72446 0.22703 0.0
C497 C 0.38976 0.75158 0.18479 0.0
C498 C 0.44502 0.72748 0.24211 0.0
C499 C 0.34436 0.70257 0.23135 0.0
O500 O 0.40068 0.73412 0.20042 0.0
O501 O 0.37207 0.76829 0.1931 0.0
O502 O 0.39371 0.72865 0.27974 0.0
O503 O 0.37639 0.75648 0.25065 0.0
Co504 Co 0.74276 0.09701 0.26575 0.0
O505 O 0.72359 0.06368 0.26457 0.0
O506 O 0.76775 0.06742 0.26922 0.0
C507 C 0.72322 0.11745 0.23032 0.0
O508 O 0.76913 0.12814 0.26696 0.0
Co509 Co 0.71042 0.14913 0.2784 0.0
O510 O 0.746 0.16664 0.27324 0.0
C511 C 0.72369 0.11241 0.32206 0.0
C512 C 0.74677 0.05195 0.26707 0.0
C513 C 0.76796 0.15386 0.26966 0.0
O514 O 0.73914 0.09912 0.30614 0.0
O515 O 0.70682 0.12987 0.31357 0.0
O516 O 0.74206 0.09977 0.22654 0.0
O517 O 0.71416 0.11876 0.25461 0.0
Co518 Co 0.38562 0.25949 0.76129 0.0
O519 O 0.4185 0.24021 0.75675 0.0
O520 O 0.41574 0.2842 0.76317 0.0
C521 C 0.36234 0.24104 0.72712 0.0
O522 O 0.35444 0.28562 0.76597 0.0
Co523 Co 0.33539 0.22578 0.77756 0.0
O524 O 0.31715 0.26122 0.7746 0.0
C525 C 0.3755 0.23865 0.81821 0.0
C526 C 0.43072 0.26308 0.75921 0.0
C527 C 0.32902 0.28363 0.77069 0.0
O528 O 0.38703 0.25467 0.80153 0.0
O529 O 0.35752 0.22175 0.81095 0.0
O530 O 0.37962 0.26004 0.72246 0.0
O531 O 0.36314 0.23121 0.75111 0.0
Co532 Co 0.24965 0.89569 0.25738 0.0
O533 O 0.26998 0.92835 0.25664 0.0
O534 O 0.22563 0.92601 0.26059 0.0
C535 C 0.26915 0.87459 0.22234 0.0
O536 O 0.22214 0.86552 0.25803 0.0
Co537 Co 0.28004 0.84258 0.27055 0.0
O538 O 0.24392 0.82635 0.26496 0.0
C539 C 0.26795 0.88007 0.3138 0.0
C540 C 0.24715 0.94078 0.25895 0.0
C541 C 0.22245 0.8398 0.26087 0.0
O542 O 0.2526 0.89342 0.29783 0.0
O543 O 0.2845 0.86228 0.30538 0.0
O544 O 0.25097 0.89287 0.21816 0.0
O545 O 0.27768 0.87307 0.24679 0.0
Co546 Co 0.60915 0.73877 0.74995 0.0
O547 O 0.57624 0.75752 0.74359 0.0
O548 O 0.57923 0.7139 0.75208 0.0
C549 C 0.6334 0.75583 0.71575 0.0
O550 O 0.6403 0.71311 0.7567 0.0
Co551 Co 0.65873 0.77345 0.76623 0.0
O552 O 0.67721 0.73801 0.76547 0.0
C553 C 0.6176 0.76199 0.80627 0.0
C554 C 0.56417 0.73464 0.74676 0.0
C555 C 0.66554 0.7154 0.76215 0.0
O556 O 0.60653 0.74533 0.7899 0.0
O557 O 0.63571 0.77867 0.79885 0.0
O558 O 0.61633 0.73656 0.7114 0.0
O559 O 0.63179 0.76675 0.73924 0.0
Co560 Co 0.7376 0.75367 0.89044 0.0
O561 O 0.74029 0.73446 0.92351 0.0
O562 O 0.73276 0.77824 0.9204 0.0
C563 C 0.77397 0.73626 0.86973 0.0
O564 O 0.73429 0.77964 0.85897 0.0
Co565 Co 0.72612 0.71924 0.83933 0.0
O566 O 0.72892 0.7548 0.82134 0.0
C567 C 0.68221 0.73099 0.8763 0.0
C568 C 0.73615 0.75717 0.93558 0.0
C569 C 0.73124 0.77738 0.83332 0.0
O570 O 0.69751 0.74753 0.88895 0.0
O571 O 0.69125 0.71433 0.85889 0.0
O572 O 0.77677 0.75544 0.88722 0.0
O573 O 0.75029 0.72572 0.86885 0.0
Co574 Co 0.72274 0.23187 0.10172 0.0
O575 O 0.72581 0.25091 0.06857 0.0
O576 O 0.71817 0.20717 0.07182 0.0
C577 C 0.75891 0.24946 0.12267 0.0
O578 O 0.7191 0.20597 0.13323 0.0
Co579 Co 0.71091 0.26622 0.15279 0.0
O580 O 0.71322 0.23066 0.17089 0.0
C581 C 0.66778 0.25582 0.11463 0.0
C582 C 0.72173 0.22815 0.05657 0.0
C583 C 0.71574 0.20812 0.15885 0.0
O584 O 0.68267 0.23832 0.10278 0.0
O585 O 0.67714 0.27258 0.13175 0.0
O586 O 0.76193 0.23008 0.10543 0.0
O587 O 0.73517 0.25989 0.12331 0.0
Co588 Co 0.24243 0.23913 0.60412 0.0
O589 O 0.22267 0.24164 0.57129 0.0
O590 O 0.26691 0.23682 0.57396 0.0
C591 C 0.22308 0.2734 0.6265 0.0
O592 O 0.26916 0.23647 0.63495 0.0
Co593 Co 0.21035 0.22351 0.65554 0.0
O594 O 0.24601 0.22803 0.67304 0.0
C595 C 0.22394 0.18188 0.61662 0.0
C596 C 0.24555 0.23914 0.55901 0.0
C597 C 0.26798 0.23237 0.6605 0.0
O598 O 0.23901 0.19876 0.60417 0.0
O599 O 0.2073 0.18906 0.63489 0.0
O600 O 0.24165 0.27814 0.60876 0.0
O601 O 0.21408 0.24907 0.62666 0.0
Co602 Co 0.2706 0.75822 0.09552 0.0
O603 O 0.26876 0.73893 0.06243 0.0
O604 O 0.27791 0.7824 0.06583 0.0
C605 C 0.23271 0.74219 0.11457 0.0
O606 O 0.27344 0.78439 0.12681 0.0
Co607 Co 0.27797 0.72426 0.14765 0.0
O608 O 0.27629 0.7602 0.1651 0.0
C609 C 0.32336 0.73163 0.11158 0.0
C610 C 0.27456 0.76139 0.05057 0.0
C611 C 0.27532 0.78258 0.15258 0.0
O612 O 0.31025 0.75005 0.09902 0.0
O613 O 0.31201 0.71543 0.12801 0.0
O614 O 0.23129 0.76155 0.09709 0.0
O615 O 0.25598 0.73097 0.11653 0.0
Co616 Co 0.75646 0.75105 0.59639 0.0
O617 O 0.7763 0.7466 0.5637 0.0
O618 O 0.73209 0.75182 0.56617 0.0
C619 C 0.77543 0.71797 0.62079 0.0
O620 O 0.72942 0.75544 0.62671 0.0
Co621 Co 0.78764 0.76913 0.64752 0.0
O622 O 0.75171 0.76585 0.66478 0.0
C623 C 0.77523 0.80869 0.60622 0.0
C624 C 0.75338 0.74844 0.55135 0.0
C625 C 0.73001 0.76088 0.65202 0.0
O626 O 0.7601 0.79139 0.59441 0.0
O627 O 0.79168 0.80218 0.62489 0.0
O628 O 0.75703 0.71235 0.60313 0.0
O629 O 0.78455 0.74224 0.61975 0.0
Co630 Co 0.25313 0.24889 0.89738 0.0
O631 O 0.24916 0.26856 0.93016 0.0
O632 O 0.25714 0.22478 0.92762 0.0
C633 C 0.21753 0.2656 0.87494 0.0
O634 O 0.25768 0.22221 0.86671 0.0
Co635 Co 0.26633 0.28167 0.84575 0.0
O636 O 0.26441 0.24566 0.82848 0.0
C637 C 0.30882 0.27158 0.88476 0.0
C638 C 0.25319 0.24594 0.9425 0.0
C639 C 0.26166 0.22352 0.84115 0.0
O640 O 0.29318 0.25525 0.89725 0.0
O641 O 0.30034 0.2876 0.86651 0.0
O642 O 0.21414 0.24683 0.89277 0.0
O643 O 0.24116 0.27632 0.87471 0.0
Co644 Co 0.25212 0.754 0.39414 0.0
O645 O 0.23121 0.75249 0.42643 0.0
O646 O 0.27552 0.7571 0.42497 0.0
C647 C 0.23355 0.71912 0.37202 0.0
O648 O 0.2801 0.75547 0.36437 0.0
Co649 Co 0.22227 0.76785 0.34091 0.0
O650 O 0.25859 0.76245 0.32506 0.0
C651 C 0.2332 0.81051 0.3794 0.0
C652 C 0.25373 0.75513 0.43932 0.0
C653 C 0.27999 0.75845 0.33866 0.0
O654 O 0.24861 0.79445 0.39257 0.0
O655 O 0.21715 0.80232 0.36107 0.0
O656 O 0.25141 0.7148 0.39059 0.0
O657 O 0.22464 0.74345 0.37088 0.0
Co658 Co 0.74092 0.24109 0.39446 0.0
O659 O 0.76112 0.24499 0.42705 0.0
O660 O 0.7169 0.23994 0.42498 0.0
C661 C 0.75969 0.27451 0.37031 0.0
O662 O 0.71351 0.23733 0.36438 0.0
Co663 Co 0.77154 0.22379 0.34269 0.0
O664 O 0.73548 0.22778 0.32587 0.0
C665 C 0.75997 0.18367 0.3837 0.0
C666 C 0.73834 0.24306 0.43963 0.0
C667 C 0.71391 0.23256 0.33893 0.0
O668 O 0.74463 0.20065 0.39576 0.0
O669 O 0.77612 0.19055 0.36491 0.0
O670 O 0.74149 0.27992 0.38825 0.0
O671 O 0.76876 0.2502 0.37093 0.0
C672 C 0.97559 0.23914 0.25735 0.0
C673 C 0.96178 0.2461 0.23376 0.0
H674 H 0.01337 0.2334 0.27659 0.0
C675 C 0.97656 0.25165 0.21033 0.0
H676 H 0.96484 0.23448 0.2757 0.0
C677 C 0.00477 0.25105 0.21086 0.0
C678 C 0.01845 0.24483 0.23481 0.0
H679 H 0.9664 0.25701 0.19185 0.0
H680 H 0.01581 0.256 0.19277 0.0
C681 C 0.00351 0.23848 0.25786 0.0
C682 C 0.2266 0.51402 0.71768 0.0
C683 C 0.23207 0.52807 0.74158 0.0
H684 H 0.21948 0.47554 0.69937 0.0
C685 C 0.23412 0.51369 0.76576 0.0
H686 H 0.22483 0.52462 0.69875 0.0
C687 C 0.2309 0.48593 0.76613 0.0
C688 C 0.22566 0.47172 0.74232 0.0
H689 H 0.23818 0.52386 0.78457 0.0
H690 H 0.23275 0.47561 0.7852 0.0
C691 C 0.22347 0.48599 0.71803 0.0
C692 C 0.01418 0.73845 0.20283 0.0
C693 C 0.02888 0.74245 0.22663 0.0
H694 H 0.97501 0.73425 0.18501 0.0
C695 C 0.01495 0.74577 0.25093 0.0
H696 H 0.02441 0.73581 0.1838 0.0
C697 C 0.98704 0.74485 0.25162 0.0
C698 C 0.9722 0.74059 0.22803 0.0
H699 H 0.02559 0.74893 0.26966 0.0
H700 H 0.97713 0.74736 0.27085 0.0
C701 C 0.98597 0.73753 0.20352 0.0
C702 C 0.76103 0.48487 0.76951 0.0
C703 C 0.76311 0.47007 0.74558 0.0
H704 H 0.76238 0.52338 0.78824 0.0
C705 C 0.76873 0.48367 0.72146 0.0
H706 H 0.75684 0.47501 0.78846 0.0
C707 C 0.77197 0.51165 0.72134 0.0
C708 C 0.76968 0.52638 0.74533 0.0
H709 H 0.77054 0.47275 0.70272 0.0
H710 H 0.77605 0.52171 0.70248 0.0
C711 C 0.76429 0.51265 0.76939 0.0
C712 C 0.99227 0.75221 0.73955 0.0
C713 C 0.97785 0.74499 0.76268 0.0
H714 H 0.03046 0.75853 0.72144 0.0
C715 C 0.99204 0.73948 0.78651 0.0
H716 H 0.98203 0.75686 0.72091 0.0
C717 C 0.02027 0.74043 0.78682 0.0
C718 C 0.03455 0.74694 0.7633 0.0
H719 H 0.9814 0.73392 0.80467 0.0
H720 H 0.03087 0.73554 0.80519 0.0
C721 C 0.02017 0.7532 0.73986 0.0
C722 C 0.7686 0.50992 0.26971 0.0
C723 C 0.7653 0.52394 0.2454 0.0
H724 H 0.76953 0.47146 0.28922 0.0
C725 C 0.76033 0.50938 0.22175 0.0
H726 H 0.77243 0.52064 0.28826 0.0
C727 C 0.75861 0.48147 0.2223 0.0
C728 C 0.76186 0.46736 0.24652 0.0
H729 H 0.75765 0.51955 0.20269 0.0
H730 H 0.75474 0.47096 0.20363 0.0
C731 C 0.76691 0.48182 0.27026 0.0
C732 C 0.0045 0.25692 0.78551 0.0
C733 C 0.01862 0.25287 0.76135 0.0
H734 H 0.96581 0.25953 0.80459 0.0
C735 C 0.00412 0.24753 0.73775 0.0
H736 H 0.01518 0.26103 0.80402 0.0
C737 C 0.97618 0.24669 0.73808 0.0
C738 C 0.96192 0.25113 0.76202 0.0
H739 H 0.01432 0.2442 0.71881 0.0
H740 H 0.96578 0.24274 0.71937 0.0
C741 C 0.9763 0.25603 0.78585 0.0
C742 C 0.21917 0.47843 0.28223 0.0
C743 C 0.22011 0.46388 0.25801 0.0
H744 H 0.22121 0.51735 0.30089 0.0
C745 C 0.2229 0.47788 0.23369 0.0
H746 H 0.21701 0.46812 0.30127 0.0
C747 C 0.22539 0.50569 0.23349 0.0
C748 C 0.22509 0.52032 0.25759 0.0
H749 H 0.22352 0.46735 0.21465 0.0
H750 H 0.22776 0.51568 0.2143 0.0
C751 C 0.22161 0.50652 0.28201 0.0
C752 C 0.26992 0.98524 0.25676 0.0
C753 C 0.24606 0.97041 0.25932 0.0
H754 H 0.28814 0.02398 0.25464 0.0
C755 C 0.22151 0.98416 0.2619 0.0
H756 H 0.28917 0.97526 0.25473 0.0
C757 C 0.22092 0.01229 0.26185 0.0
C758 C 0.24486 0.02705 0.25919 0.0
H759 H 0.2028 0.97323 0.2639 0.0
H760 H 0.20177 0.02245 0.26386 0.0
C761 C 0.26933 0.01321 0.25667 0.0
C762 C 0.5204 0.70954 0.75154 0.0
C763 C 0.53459 0.73302 0.74477 0.0
H764 H 0.48162 0.69124 0.75692 0.0
C765 C 0.52017 0.75588 0.7367 0.0
H766 H 0.53104 0.69159 0.75777 0.0
C767 C 0.49223 0.75566 0.73618 0.0
C768 C 0.47789 0.73259 0.74373 0.0
H769 H 0.53044 0.77424 0.7311 0.0
H770 H 0.48188 0.77387 0.73024 0.0
C771 C 0.49219 0.70932 0.75102 0.0
C772 C 0.72526 0.00699 0.26418 0.0
C773 C 0.74878 0.02234 0.26668 0.0
H774 H 0.70794 0.96801 0.26076 0.0
C775 C 0.77374 0.00912 0.26804 0.0
H776 H 0.7057 0.01649 0.26311 0.0
C777 C 0.77506 0.98099 0.26666 0.0
C778 C 0.75143 0.96576 0.26388 0.0
H779 H 0.79221 0.02048 0.26994 0.0
H780 H 0.79449 0.97123 0.26763 0.0
C781 C 0.72657 0.9791 0.26278 0.0
C782 C 0.5029 0.28822 0.76167 0.0
C783 C 0.51704 0.26453 0.75549 0.0
H784 H 0.46418 0.30651 0.76772 0.0
C785 C 0.50253 0.24099 0.74996 0.0
H786 H 0.51359 0.30667 0.76603 0.0
C787 C 0.47462 0.24088 0.751 0.0
C788 C 0.46035 0.26432 0.75754 0.0
H789 H 0.51272 0.22239 0.74504 0.0
H790 H 0.46424 0.22221 0.74678 0.0
C791 C 0.47469 0.28813 0.76266 0.0
C792 C 0.26844 0.01699 0.74051 0.0
C793 C 0.24354 0.03016 0.73864 0.0
H794 H 0.2896 0.97973 0.73999 0.0
C795 C 0.22014 0.01481 0.73481 0.0
H796 H 0.28688 0.02819 0.74341 0.0
C797 C 0.22172 0.98675 0.73284 0.0
C798 C 0.24674 0.9737 0.73459 0.0
H799 H 0.20068 0.02444 0.73323 0.0
H800 H 0.20343 0.97533 0.7299 0.0
C801 C 0.27002 0.98914 0.73847 0.0
C802 C 0.48816 0.752 0.2472 0.0
C803 C 0.47471 0.72771 0.24216 0.0
H804 H 0.52562 0.7725 0.25002 0.0
C805 C 0.48987 0.70455 0.23647 0.0
H806 H 0.47714 0.77023 0.25172 0.0
C807 C 0.51803 0.70589 0.23546 0.0
C808 C 0.53133 0.7304 0.24013 0.0
H809 H 0.48001 0.68557 0.23249 0.0
H810 H 0.52933 0.68788 0.23078 0.0
C811 C 0.51606 0.75332 0.2462 0.0
C812 C 0.72733 0.00648 0.72723 0.0
C813 C 0.75077 0.02212 0.72604 0.0
H814 H 0.71029 0.96723 0.72799 0.0
C815 C 0.77584 0.00919 0.72412 0.0
H816 H 0.70769 0.01577 0.72862 0.0
C817 C 0.77736 0.98105 0.72377 0.0
C818 C 0.75383 0.96551 0.72532 0.0
H819 H 0.79424 0.02077 0.72315 0.0
H820 H 0.79689 0.97151 0.72252 0.0
C821 C 0.72884 0.97856 0.72686 0.0
C822 C 0.50457 0.23893 0.25184 0.0
C823 C 0.51888 0.26207 0.24444 0.0
H824 H 0.46645 0.22044 0.25748 0.0
C825 C 0.50453 0.28551 0.23775 0.0
H826 H 0.51493 0.22058 0.25732 0.0
C827 C 0.47628 0.28544 0.23788 0.0
C828 C 0.46214 0.26192 0.24464 0.0
H829 H 0.51506 0.30366 0.23201 0.0
H830 H 0.46558 0.30353 0.23221 0.0
C831 C 0.47665 0.23885 0.25192 0.0
C832 C 0.2497 0.26839 0.01474 0.0
C833 C 0.25491 0.24449 0.0288 0.0
H834 H 0.24502 0.28746 0.97671 0.0
C835 C 0.25939 0.22068 0.01426 0.0
H836 H 0.24611 0.28709 0.0253 0.0
C837 C 0.25875 0.2209 0.98609 0.0
C838 C 0.2536 0.24493 0.97214 0.0
H839 H 0.26342 0.20196 0.0246 0.0
H840 H 0.26234 0.20235 0.97528 0.0
C841 C 0.24905 0.2686 0.9868 0.0
C842 C 0.28014 0.78659 0.00694 0.0
C843 C 0.27716 0.76228 0.02104 0.0
H844 H 0.28319 0.80554 0.96821 0.0
C845 C 0.27612 0.73808 0.00658 0.0
H846 H 0.28108 0.80553 0.01761 0.0
C847 C 0.27736 0.73808 0.9787 0.0
C848 C 0.27966 0.76228 0.96442 0.0
H849 H 0.27409 0.71896 0.01678 0.0
H850 H 0.27622 0.71896 0.96835 0.0
C851 C 0.28136 0.78659 0.97874 0.0
C852 C 0.72769 0.75125 0.50794 0.0
C853 C 0.75205 0.74735 0.52173 0.0
H854 H 0.70819 0.7546 0.46959 0.0
C855 C 0.77566 0.74298 0.50692 0.0
H856 H 0.70916 0.75465 0.51886 0.0
C857 C 0.7751 0.74294 0.47895 0.0
C858 C 0.75092 0.74729 0.46506 0.0
H859 H 0.79474 0.73981 0.51691 0.0
H860 H 0.79379 0.73975 0.46823 0.0
C861 C 0.72713 0.75122 0.47978 0.0
C862 C 0.71812 0.20263 0.01279 0.0
C863 C 0.72126 0.22694 0.02688 0.0
H864 H 0.71594 0.1835 0.97404 0.0
C865 C 0.72428 0.25089 0.01231 0.0
H866 H 0.71573 0.18385 0.02352 0.0
C867 C 0.7244 0.25069 0.9844 0.0
C868 C 0.72151 0.22653 0.97013 0.0
H869 H 0.72665 0.27001 0.02244 0.0
H870 H 0.72686 0.26967 0.97403 0.0
C871 C 0.71824 0.20242 0.98454 0.0
C872 C 0.27092 0.23488 0.5154 0.0
C873 C 0.24658 0.2383 0.52938 0.0
H874 H 0.29002 0.23085 0.47687 0.0
C875 C 0.22255 0.24046 0.51476 0.0
H876 H 0.28974 0.23313 0.52618 0.0
C877 C 0.2227 0.23908 0.48686 0.0
C878 C 0.24688 0.23556 0.47276 0.0
H879 H 0.20344 0.24309 0.52486 0.0
H880 H 0.2037 0.24077 0.47637 0.0
C881 C 0.27107 0.23355 0.48724 0.0
C882 C 0.73832 0.7343 0.00763 0.0
C883 C 0.73454 0.7583 0.02197 0.0
H884 H 0.74175 0.71526 0.96954 0.0
C885 C 0.73108 0.78242 0.00765 0.0
H886 H 0.74104 0.71532 0.01794 0.0
C887 C 0.73149 0.78239 0.97941 0.0
C888 C 0.73538 0.75823 0.96525 0.0
H889 H 0.72813 0.80123 0.01821 0.0
H890 H 0.72884 0.80117 0.96874 0.0
C891 C 0.73874 0.73427 0.97973 0.0
C892 C 0.76067 0.24786 0.51198 0.0
C893 C 0.73643 0.24444 0.52602 0.0
H894 H 0.78021 0.25016 0.47388 0.0
C895 C 0.71248 0.24106 0.51142 0.0
H896 H 0.77949 0.25056 0.5226 0.0
C897 C 0.7129 0.24083 0.48325 0.0
C898 C 0.73728 0.24397 0.4693 0.0
H899 H 0.69349 0.23839 0.52171 0.0
H900 H 0.69422 0.23799 0.47245 0.0
C901 C 0.76109 0.24763 0.48398 0.0
C902 C 0.27829 0.75922 0.48324 0.0
C903 C 0.25413 0.756 0.46897 0.0
H904 H 0.29704 0.76261 0.52192 0.0
C905 C 0.22992 0.75367 0.48331 0.0
H906 H 0.29725 0.76108 0.47271 0.0
C907 C 0.2298 0.75455 0.51129 0.0
C908 C 0.25388 0.75778 0.52563 0.0
H909 H 0.21094 0.75117 0.47293 0.0
H910 H 0.21074 0.75269 0.52165 0.0
C911 C 0.27816 0.76011 0.51137 0.0
C912 C 0.11881 0.36067 0.22015 0.0
C913 C 0.13583 0.37334 0.23879 0.0
H914 H 0.09073 0.32887 0.21434 0.0
C915 C 0.12822 0.37315 0.26604 0.0
H916 H 0.12338 0.3614 0.19887 0.0
C917 C 0.10981 0.35393 0.27505 0.0
C918 C 0.09897 0.3354 0.25668 0.0
H919 H 0.14009 0.38367 0.28094 0.0
H920 H 0.10832 0.35028 0.29647 0.0
C921 C 0.09997 0.34188 0.22916 0.0
C922 C 0.11948 0.65219 0.77318 0.0
C923 C 0.11775 0.65791 0.74553 0.0
H924 H 0.14329 0.633 0.80336 0.0
C925 C 0.12799 0.63888 0.72734 0.0
H926 H 0.11079 0.66572 0.78788 0.0
C927 C 0.14624 0.61953 0.73638 0.0
C928 C 0.15451 0.61983 0.76343 0.0
H929 H 0.126 0.64205 0.70589 0.0
H930 H 0.15753 0.60842 0.72143 0.0
C931 C 0.13821 0.63328 0.78218 0.0
C932 C 0.85888 0.61276 0.25389 0.0
C933 C 0.85194 0.6129 0.22647 0.0
H934 H 0.8777 0.63538 0.28519 0.0
C935 C 0.86931 0.62604 0.20847 0.0
H936 H 0.84676 0.60186 0.26833 0.0
C937 C 0.88761 0.645 0.21824 0.0
C938 C 0.88801 0.65093 0.24589 0.0
H939 H 0.86529 0.62559 0.18707 0.0
H940 H 0.89706 0.65836 0.20388 0.0
C941 C 0.87677 0.63209 0.26368 0.0
C942 C 0.86621 0.35775 0.72962 0.0
C943 C 0.87657 0.33875 0.74776 0.0
H944 H 0.83675 0.38832 0.72389 0.0
C945 C 0.87497 0.34444 0.77542 0.0
H946 H 0.86806 0.35454 0.70816 0.0
C947 C 0.85643 0.36348 0.78453 0.0
C948 C 0.8401 0.37705 0.76589 0.0
H949 H 0.88366 0.33086 0.79005 0.0
H950 H 0.8515 0.36385 0.80574 0.0
C951 C 0.84812 0.3772 0.73877 0.0
C952 C 0.26468 0.14299 0.38386 0.0
C953 C 0.23665 0.14679 0.38482 0.0
H954 H 0.29701 0.1282 0.35971 0.0
C955 C 0.22024 0.12758 0.37217 0.0
H956 H 0.27807 0.15655 0.3944 0.0
C957 C 0.23127 0.11077 0.35253 0.0
C958 C 0.25854 0.11362 0.34554 0.0
H959 H 0.19856 0.12913 0.3735 0.0
H960 H 0.21757 0.09987 0.33959 0.0
C961 C 0.27567 0.12664 0.36383 0.0
C962 C 0.3701 0.76616 0.87258 0.0
C963 C 0.36148 0.73925 0.87367 0.0
H964 H 0.39071 0.79512 0.84849 0.0
C965 C 0.37766 0.7196 0.86138 0.0
H966 H 0.35893 0.7818 0.88282 0.0
C967 C 0.39648 0.72733 0.842 0.0
C968 C 0.39833 0.75458 0.83467 0.0
H969 H 0.37233 0.69854 0.86283 0.0
H970 H 0.40494 0.71181 0.82928 0.0
C971 C 0.38852 0.7739 0.85282 0.0
C972 C 0.77952 0.85639 0.36876 0.0
C973 C 0.76283 0.83711 0.3809 0.0
H974 H 0.78193 0.88645 0.33835 0.0
C975 C 0.735 0.84221 0.38168 0.0
H976 H 0.80114 0.85375 0.36879 0.0
C977 C 0.72384 0.86057 0.36359 0.0
C978 C 0.74066 0.87418 0.34544 0.0
H979 H 0.7215 0.82851 0.39189 0.0
H980 H 0.70228 0.8603 0.3605 0.0
C981 C 0.76836 0.87522 0.35115 0.0
C982 C 0.63074 0.22354 0.87703 0.0
C983 C 0.63938 0.25025 0.88039 0.0
H984 H 0.60971 0.19673 0.85087 0.0
C985 C 0.62324 0.27089 0.86981 0.0
H986 H 0.642 0.20708 0.88578 0.0
C987 C 0.60424 0.26487 0.85 0.0
C988 C 0.60195 0.23829 0.84063 0.0
H989 H 0.62869 0.29174 0.87294 0.0
H990 H 0.59575 0.2814 0.83865 0.0
C991 C 0.61209 0.21752 0.85689 0.0
C992 C 0.22228 0.86382 0.62523 0.0
C993 C 0.23958 0.84545 0.6125 0.0
H994 H 0.21941 0.89437 0.65513 0.0
C995 C 0.26695 0.85223 0.61028 0.0
H996 H 0.2009 0.85981 0.62633 0.0
C997 C 0.27771 0.87187 0.62726 0.0
C998 C 0.26098 0.88471 0.64609 0.0
H999 H 0.28079 0.8392 0.59966 0.0
H1000 H 0.29937 0.87312 0.62919 0.0
C1001 C 0.23303 0.88378 0.64183 0.0
C1002 C 0.64339 0.76605 0.1133 0.0
C1003 C 0.65005 0.73861 0.11148 0.0
H1004 H 0.62501 0.79588 0.13817 0.0
C1005 C 0.63261 0.71991 0.12348 0.0
H1006 H 0.65559 0.78109 0.10335 0.0
C1007 C 0.6145 0.72852 0.14318 0.0
C1008 C 0.61441 0.7557 0.15103 0.0
H1009 H 0.63643 0.69856 0.12153 0.0
H1010 H 0.60498 0.71336 0.15557 0.0
C1011 C 0.62571 0.77465 0.13338 0.0
C1012 C 0.7133 0.1298 0.62895 0.0
C1013 C 0.73141 0.11641 0.64603 0.0
H1014 H 0.70818 0.16298 0.60231 0.0
C1015 C 0.75897 0.11754 0.63977 0.0
H1016 H 0.69185 0.12851 0.63253 0.0
C1017 C 0.76844 0.13776 0.62271 0.0
C1018 C 0.75026 0.15633 0.61161 0.0
H1019 H 0.77353 0.10667 0.65176 0.0
H1020 H 0.78985 0.14173 0.62223 0.0
C1021 C 0.72277 0.1497 0.61152 0.0
C1022 C 0.35708 0.28139 0.1319 0.0
C1023 C 0.33985 0.26336 0.11863 0.0
H1024 H 0.3853 0.28589 0.1638 0.0
C1025 C 0.34707 0.23601 0.11809 0.0
H1026 H 0.35278 0.30274 0.1318 0.0
C1027 C 0.36534 0.22618 0.13704 0.0
C1028 C 0.37672 0.24385 0.15591 0.0
H1029 H 0.335 0.22157 0.10715 0.0
H1030 H 0.3666 0.20465 0.14002 0.0
C1031 C 0.37583 0.27159 0.15039 0.0
C1032 C 0.87373 0.62959 0.78202 0.0
C1033 C 0.85687 0.61637 0.7636 0.0
H1034 H 0.90192 0.66144 0.78712 0.0
C1035 C 0.86478 0.61567 0.73645 0.0
H1036 H 0.86889 0.62959 0.80325 0.0
C1037 C 0.88347 0.63444 0.72704 0.0
C1038 C 0.89438 0.65342 0.74492 0.0
H1039 H 0.85299 0.60477 0.72175 0.0
H1040 H 0.8853 0.63732 0.70554 0.0
C1041 C 0.89279 0.64799 0.77264 0.0
C1042 C 0.86822 0.35712 0.26535 0.0
C1043 C 0.87874 0.33774 0.24769 0.0
H1044 H 0.83851 0.38761 0.27023 0.0
C1045 C 0.87747 0.34295 0.21992 0.0
H1046 H 0.86987 0.35436 0.28689 0.0
C1047 C 0.85889 0.3617 0.21028 0.0
C1048 C 0.84225 0.37545 0.22851 0.0
H1049 H 0.88638 0.32915 0.20562 0.0
H1050 H 0.85416 0.36159 0.18902 0.0
C1051 C 0.85008 0.37627 0.25567 0.0
C1052 C 0.10227 0.3497 0.76862 0.0
C1053 C 0.10247 0.34266 0.74122 0.0
H1054 H 0.12374 0.37055 0.79944 0.0
C1055 C 0.11404 0.36083 0.72293 0.0
H1056 H 0.09258 0.33687 0.78329 0.0
C1057 C 0.13159 0.38068 0.7323 0.0
C1058 C 0.13786 0.38179 0.75986 0.0
H1059 H 0.11358 0.35665 0.70156 0.0
H1060 H 0.14397 0.39103 0.71769 0.0
C1061 C 0.12022 0.3692 0.778 0.0
C1062 C 0.1374 0.62891 0.21059 0.0
C1063 C 0.152 0.61614 0.23114 0.0
H1064 H 0.11149 0.66172 0.20107 0.0
C1065 C 0.14235 0.61818 0.25764 0.0
H1066 H 0.14372 0.62698 0.18984 0.0
C1067 C 0.1241 0.63852 0.26419 0.0
C1068 C 0.11523 0.65635 0.24416 0.0
H1069 H 0.15247 0.60789 0.27394 0.0
H1070 H 0.12088 0.6432 0.28522 0.0
C1071 C 0.11878 0.64893 0.21712 0.0
C1072 C 0.77243 0.87502 0.63596 0.0
C1073 C 0.74475 0.87403 0.64168 0.0
H1074 H 0.80513 0.85371 0.61798 0.0
C1075 C 0.72786 0.86062 0.62343 0.0
H1076 H 0.78603 0.88609 0.64887 0.0
C1077 C 0.73894 0.84239 0.60514 0.0
C1078 C 0.76675 0.83722 0.60581 0.0
H1079 H 0.70631 0.86039 0.62657 0.0
H1080 H 0.72537 0.82882 0.59484 0.0
C1081 C 0.78351 0.85637 0.61808 0.0
C1082 C 0.61187 0.21658 0.1387 0.0
C1083 C 0.60145 0.23658 0.15574 0.0
H1084 H 0.64188 0.20768 0.10943 0.0
C1085 C 0.60312 0.26349 0.14722 0.0
H1086 H 0.6099 0.19555 0.14402 0.0
C1087 C 0.622 0.27056 0.12764 0.0
C1088 C 0.63854 0.2506 0.11638 0.0
H1089 H 0.5943 0.27946 0.15911 0.0
H1090 H 0.62703 0.29161 0.12523 0.0
C1091 C 0.63036 0.22364 0.11875 0.0
C1092 C 0.26046 0.14842 0.61702 0.0
C1093 C 0.2326 0.15343 0.61732 0.0
H1094 H 0.29302 0.13132 0.63923 0.0
C1095 C 0.21585 0.13459 0.63004 0.0
H1096 H 0.27401 0.16175 0.6064 0.0
C1097 C 0.22691 0.11649 0.64846 0.0
C1098 C 0.25453 0.1179 0.65443 0.0
H1099 H 0.19422 0.13713 0.62969 0.0
H1100 H 0.21325 0.10571 0.66155 0.0
C1101 C 0.2715 0.13082 0.63592 0.0
C1102 C 0.36731 0.71389 0.12701 0.0
C1103 C 0.35272 0.73495 0.11506 0.0
H1104 H 0.3932 0.70314 0.15943 0.0
C1105 C 0.36258 0.76129 0.11786 0.0
H1106 H 0.36085 0.69326 0.12442 0.0
C1107 C 0.38092 0.76706 0.13835 0.0
C1108 C 0.38961 0.74639 0.15554 0.0
H1109 H 0.35251 0.77799 0.10817 0.0
H1110 H 0.38424 0.7879 0.14373 0.0
C1111 C 0.386 0.71964 0.14718 0.0
C1112 C 0.77001 0.13606 0.3727 0.0
C1113 C 0.75246 0.15488 0.38439 0.0
H1114 H 0.77376 0.10498 0.34345 0.0
C1115 C 0.7249 0.14859 0.3854 0.0
H1116 H 0.79148 0.13973 0.37252 0.0
C1117 C 0.7146 0.12884 0.36825 0.0
C1118 C 0.73196 0.1153 0.35052 0.0
H1119 H 0.7108 0.16202 0.39515 0.0
H1120 H 0.69303 0.12787 0.36537 0.0
C1121 C 0.75972 0.116 0.35594 0.0
C1122 C 0.35532 0.28348 0.87131 0.0
C1123 C 0.33789 0.26524 0.88402 0.0
H1124 H 0.38394 0.28844 0.83984 0.0
C1125 C 0.34519 0.23791 0.88434 0.0
H1126 H 0.35099 0.30482 0.87165 0.0
C1127 C 0.36373 0.22836 0.8655 0.0
C1128 C 0.37521 0.24631 0.84696 0.0
H1129 H 0.333 0.2233 0.89493 0.0
H1130 H 0.36503 0.20687 0.86221 0.0
C1131 C 0.37432 0.27395 0.85293 0.0
C1132 C 0.26795 0.8459 0.37844 0.0
C1133 C 0.24045 0.83933 0.37824 0.0
H1134 H 0.29926 0.86609 0.35704 0.0
C1135 C 0.2225 0.85731 0.36587 0.0
H1136 H 0.28235 0.83307 0.38855 0.0
C1137 C 0.23229 0.87673 0.34808 0.0
C1138 C 0.25997 0.87766 0.34236 0.0
H1139 H 0.20108 0.85336 0.36616 0.0
H1140 H 0.21796 0.887 0.33531 0.0
C1141 C 0.27775 0.86498 0.36029 0.0
C1142 C 0.61775 0.72797 0.84226 0.0
C1143 C 0.6172 0.75538 0.83528 0.0
H1144 H 0.64023 0.69766 0.8628 0.0
C1145 C 0.62834 0.77393 0.85345 0.0
H1146 H 0.60837 0.71308 0.82944 0.0
C1147 C 0.64625 0.76496 0.87317 0.0
C1148 C 0.65326 0.73757 0.87415 0.0
H1149 H 0.62729 0.79528 0.84933 0.0
H1150 H 0.65825 0.77988 0.88354 0.0
C1151 C 0.63611 0.719 0.86155 0.0
C1152 C 0.16322 0.2094 0.27973 0.0
C1153 C 0.14158 0.1995 0.26453 0.0
H1154 H 0.20393 0.20373 0.29231 0.0
C1155 C 0.14413 0.17438 0.25185 0.0
H1156 H 0.16189 0.22856 0.28993 0.0
C1157 C 0.16819 0.15992 0.25351 0.0
C1158 C 0.19029 0.17053 0.26754 0.0
H1159 H 0.12778 0.16622 0.24002 0.0
H1160 H 0.16981 0.14092 0.243 0.0
C1161 C 0.18739 0.1952 0.281 0.0
C1162 C 0.33724 0.66624 0.74935 0.0
C1163 C 0.3305 0.6896 0.76373 0.0
H1164 H 0.3249 0.62687 0.73692 0.0
C1165 C 0.30672 0.68987 0.77901 0.0
H1166 H 0.35544 0.66543 0.73744 0.0
C1167 C 0.28951 0.66774 0.77907 0.0
C1168 C 0.29544 0.64496 0.76348 0.0
H1169 H 0.30113 0.70742 0.79063 0.0
H1170 H 0.27109 0.66894 0.79058 0.0
C1171 C 0.31976 0.64418 0.74907 0.0
C1172 C 0.82703 0.83022 0.25031 0.0
C1173 C 0.80462 0.82032 0.26434 0.0
H1174 H 0.86682 0.82215 0.23587 0.0
C1175 C 0.80642 0.79509 0.27694 0.0
H1176 H 0.82625 0.84962 0.24047 0.0
C1177 C 0.82971 0.77962 0.27471 0.0
C1178 C 0.85157 0.78882 0.25943 0.0
H1179 H 0.78964 0.78706 0.28825 0.0
H1180 H 0.83013 0.76005 0.28418 0.0
C1181 C 0.85024 0.8145 0.24771 0.0
C1182 C 0.65757 0.33211 0.75483 0.0
C1183 C 0.66467 0.30871 0.76895 0.0
H1184 H 0.66951 0.37165 0.74254 0.0
C1185 C 0.68851 0.30854 0.78409 0.0
H1186 H 0.63927 0.33281 0.74305 0.0
C1187 C 0.7055 0.33084 0.78419 0.0
C1188 C 0.6993 0.35363 0.76875 0.0
H1189 H 0.69431 0.29095 0.79553 0.0
H1190 H 0.724 0.32971 0.79559 0.0
C1191 C 0.67486 0.35432 0.75457 0.0
C1192 C 0.157 0.82101 0.74422 0.0
C1193 C 0.15572 0.79527 0.73266 0.0
H1194 H 0.18077 0.85622 0.75117 0.0
C1195 C 0.17771 0.78587 0.71765 0.0
H1196 H 0.14034 0.8288 0.75588 0.0
C1197 C 0.201 0.80134 0.71536 0.0
C1198 C 0.20263 0.82675 0.72763 0.0
H1199 H 0.17734 0.76621 0.70836 0.0
H1200 H 0.21784 0.79327 0.70416 0.0
C1201 C 0.18016 0.83669 0.74157 0.0
C1202 C 0.67059 0.66565 0.23484 0.0
C1203 C 0.67899 0.68967 0.22263 0.0
H1204 H 0.68077 0.62514 0.24519 0.0
C1205 C 0.70377 0.69019 0.20903 0.0
H1206 H 0.65157 0.66461 0.24538 0.0
C1207 C 0.72024 0.66747 0.2085 0.0
C1208 C 0.71252 0.64392 0.22199 0.0
H1209 H 0.71064 0.70828 0.19908 0.0
H1210 H 0.73944 0.66877 0.19836 0.0
C1211 C 0.6873 0.64305 0.23469 0.0
C1212 C 0.81852 0.21072 0.71854 0.0
C1213 C 0.84096 0.20123 0.73282 0.0
H1214 H 0.77812 0.20327 0.70592 0.0
C1215 C 0.84018 0.17526 0.74388 0.0
H1216 H 0.81851 0.23054 0.7096 0.0
C1217 C 0.81707 0.15944 0.74149 0.0
C1218 C 0.79418 0.1695 0.72837 0.0
H1219 H 0.85719 0.16739 0.75497 0.0
H1220 H 0.81682 0.13972 0.7507 0.0
C1221 C 0.79529 0.19513 0.71656 0.0
C1222 C 0.2881 0.30183 0.21832 0.0
C1223 C 0.31286 0.30283 0.23194 0.0
H1224 H 0.25126 0.32183 0.20899 0.0
C1225 C 0.32001 0.32646 0.24559 0.0
H1226 H 0.28215 0.28403 0.2073 0.0
C1227 C 0.30208 0.34812 0.24679 0.0
C1228 C 0.27689 0.34663 0.23403 0.0
H1229 H 0.33896 0.32784 0.25621 0.0
H1230 H 0.30765 0.36571 0.25834 0.0
C1231 C 0.27041 0.32356 0.21918 0.0
C1232 C 0.27931 0.19504 0.19964 0.0
C1233 C 0.26581 0.19541 0.17482 0.0
H1234 H 0.28974 0.17249 0.23462 0.0
C1235 C 0.25354 0.17175 0.16556 0.0
H1236 H 0.28933 0.21284 0.20714 0.0
C1237 C 0.2535 0.14859 0.18154 0.0
C1238 C 0.26609 0.14862 0.20685 0.0
H1239 H 0.24307 0.17141 0.14647 0.0
H1240 H 0.24293 0.13095 0.17442 0.0
C1241 C 0.27965 0.17184 0.21536 0.0
C1242 C 0.30906 0.77879 0.69468 0.0
C1243 C 0.30617 0.76576 0.66979 0.0
H1244 H 0.33441 0.78678 0.72836 0.0
C1245 C 0.32809 0.75146 0.65917 0.0
H1246 H 0.29265 0.79029 0.70322 0.0
C1247 C 0.35199 0.74914 0.67379 0.0
C1248 C 0.35453 0.76145 0.69909 0.0
H1249 H 0.32647 0.74125 0.64001 0.0
H1250 H 0.36822 0.73717 0.66559 0.0
C1251 C 0.33307 0.77687 0.70905 0.0
C1252 C 0.74101 0.84838 0.17973 0.0
C1253 C 0.72877 0.84738 0.2052 0.0
H1254 H 0.75009 0.82722 0.14324 0.0
C1255 C 0.71445 0.82424 0.21257 0.0
H1256 H 0.75217 0.86599 0.17348 0.0
C1257 C 0.71363 0.80201 0.19552 0.0
C1258 C 0.72676 0.80254 0.17049 0.0
H1259 H 0.70462 0.82285 0.23193 0.0
H1260 H 0.70301 0.78421 0.20216 0.0
C1261 C 0.73985 0.82621 0.16243 0.0
C1262 C 0.65886 0.22145 0.71035 0.0
C1263 C 0.63769 0.23846 0.70263 0.0
H1264 H 0.69841 0.20703 0.70178 0.0
C1265 C 0.63969 0.25263 0.67827 0.0
H1266 H 0.65789 0.21005 0.72885 0.0
C1267 C 0.66292 0.2506 0.66248 0.0
C1268 C 0.68465 0.23471 0.67104 0.0
H1269 H 0.62367 0.26586 0.67179 0.0
H1270 H 0.66429 0.26228 0.64417 0.0
C1271 C 0.68216 0.21979 0.69487 0.0
C1272 C 0.29391 0.83201 0.77516 0.0
C1273 C 0.28008 0.85489 0.78421 0.0
H1274 H 0.30568 0.79151 0.78341 0.0
C1275 C 0.26955 0.85507 0.81043 0.0
H1276 H 0.30248 0.83127 0.75518 0.0
C1277 C 0.27168 0.83232 0.82681 0.0
C1278 C 0.28403 0.80887 0.81709 0.0
H1279 H 0.25887 0.87247 0.81799 0.0
H1280 H 0.26264 0.83274 0.84661 0.0
C1281 C 0.29564 0.80915 0.79133 0.0
C1282 C 0.65379 0.74568 0.31378 0.0
C1283 C 0.65233 0.7592 0.28901 0.0
H1284 H 0.67799 0.73573 0.34802 0.0
C1285 C 0.67427 0.77486 0.28066 0.0
H1286 H 0.63716 0.73351 0.32077 0.0
C1287 C 0.69774 0.77574 0.29599 0.0
C1288 C 0.69963 0.76137 0.32025 0.0
H1289 H 0.67375 0.78569 0.26181 0.0
H1290 H 0.71457 0.78741 0.28862 0.0
C1291 C 0.67717 0.74692 0.32937 0.0
C1292 C 0.70358 0.1594 0.77997 0.0
C1293 C 0.71946 0.13705 0.78667 0.0
H1294 H 0.69037 0.19875 0.79102 0.0
C1295 C 0.73233 0.13647 0.81184 0.0
H1296 H 0.69315 0.16041 0.7609 0.0
C1297 C 0.73043 0.15843 0.82936 0.0
C1298 C 0.71597 0.18147 0.8218 0.0
H1299 H 0.74465 0.11947 0.8176 0.0
H1300 H 0.7413 0.15788 0.84822 0.0
C1301 C 0.70206 0.18145 0.79722 0.0
C1302 C 0.34096 0.2435 0.31977 0.0
C1303 C 0.34208 0.23129 0.29431 0.0
H1304 H 0.31739 0.25127 0.35501 0.0
C1305 C 0.32017 0.2158 0.2856 0.0
H1306 H 0.35758 0.25553 0.32705 0.0
C1307 C 0.29707 0.21375 0.30136 0.0
C1308 C 0.2955 0.22677 0.3264 0.0
H1309 H 0.32043 0.20598 0.26619 0.0
H1310 H 0.28026 0.20223 0.29372 0.0
C1311 C 0.31795 0.24111 0.33577 0.0
C1312 C 0.17498 0.25234 0.14726 0.0
C1313 C 0.19986 0.26569 0.14827 0.0
H1314 H 0.1393 0.24099 0.16855 0.0
C1315 C 0.207 0.27958 0.17176 0.0
H1316 H 0.16891 0.2415 0.12938 0.0
C1317 C 0.1903 0.27888 0.19429 0.0
C1318 C 0.16587 0.26469 0.19366 0.0
H1319 H 0.22592 0.2902 0.17316 0.0
H1320 H 0.19677 0.28916 0.21235 0.0
C1321 C 0.15804 0.252 0.16969 0.0
C1322 C 0.22611 0.7212 0.8258 0.0
C1323 C 0.22025 0.7373 0.84821 0.0
H1324 H 0.21365 0.7077 0.78701 0.0
C1325 C 0.19537 0.7507 0.84936 0.0
H1326 H 0.24499 0.71046 0.82436 0.0
C1327 C 0.17718 0.74891 0.82796 0.0
C1328 C 0.18375 0.73398 0.80493 0.0
H1329 H 0.19028 0.76321 0.86644 0.0
H1330 H 0.15852 0.76008 0.829 0.0
C1331 C 0.20816 0.71971 0.80433 0.0
C1332 C 0.78845 0.70993 0.31894 0.0
C1333 C 0.77519 0.70021 0.34188 0.0
H1334 H 0.7986 0.70325 0.27774 0.0
C1335 C 0.76357 0.67447 0.3411 0.0
H1336 H 0.79775 0.72959 0.3189 0.0
C1337 C 0.76431 0.65918 0.31752 0.0
C1338 C 0.77635 0.66953 0.29417 0.0
H1339 H 0.75325 0.66642 0.35849 0.0
H1340 H 0.75463 0.63969 0.31732 0.0
C1341 C 0.78881 0.69487 0.29528 0.0
C1342 C 0.80426 0.23993 0.85234 0.0
C1343 C 0.77947 0.25352 0.8529 0.0
H1344 H 0.84021 0.23146 0.82998 0.0
C1345 C 0.77287 0.27082 0.83162 0.0
H1346 H 0.80991 0.2265 0.8685 0.0
C1347 C 0.78993 0.27334 0.80954 0.0
C1348 C 0.81421 0.25894 0.80839 0.0
H1349 H 0.75407 0.28179 0.83151 0.0
H1350 H 0.78385 0.28629 0.79312 0.0
C1351 C 0.8216 0.24277 0.83032 0.0
C1352 C 0.22832 0.31071 0.35245 0.0
C1353 C 0.21782 0.28448 0.35244 0.0
H1354 H 0.23523 0.34675 0.32988 0.0
C1355 C 0.20417 0.27521 0.32956 0.0
H1356 H 0.23888 0.31844 0.36985 0.0
C1357 C 0.20247 0.29121 0.3066 0.0
C1358 C 0.21398 0.31702 0.30617 0.0
H1359 H 0.19566 0.2552 0.32894 0.0
H1360 H 0.19251 0.28314 0.289 0.0
C1361 C 0.22626 0.32692 0.32958 0.0
C1362 C 0.78251 0.71585 0.16272 0.0
C1363 C 0.78992 0.73113 0.1402 0.0
H1364 H 0.79267 0.70315 0.20245 0.0
C1365 C 0.81518 0.7438 0.13993 0.0
H1366 H 0.7633 0.70568 0.16351 0.0
C1367 C 0.83224 0.74209 0.16222 0.0
C1368 C 0.82415 0.72802 0.18531 0.0
H1369 H 0.82146 0.75566 0.1228 0.0
H1370 H 0.85128 0.75264 0.16175 0.0
C1371 C 0.79933 0.7145 0.18511 0.0
C1372 C 0.74948 0.33456 0.67326 0.0
C1373 C 0.76211 0.32441 0.69638 0.0
H1374 H 0.7378 0.32709 0.63246 0.0
C1375 C 0.77499 0.29931 0.69505 0.0
H1376 H 0.73947 0.35389 0.67367 0.0
C1377 C 0.77452 0.28427 0.67138 0.0
C1378 C 0.76068 0.29373 0.64866 0.0
H1379 H 0.78529 0.29113 0.71241 0.0
H1380 H 0.78427 0.26482 0.67126 0.0
C1381 C 0.74858 0.31925 0.64966 0.0
C1382 C 0.2169 0.69989 0.69354 0.0
C1383 C 0.22976 0.67472 0.69375 0.0
H1384 H 0.20717 0.73516 0.67112 0.0
C1385 C 0.24165 0.66523 0.66997 0.0
H1386 H 0.20718 0.70759 0.71144 0.0
C1387 C 0.24194 0.68125 0.64686 0.0
C1388 C 0.22998 0.70687 0.64701 0.0
H1389 H 0.25162 0.64587 0.6695 0.0
H1390 H 0.25222 0.6739 0.62913 0.0
C1391 C 0.21678 0.71566 0.67036 0.0
C1392 C 0.81197 0.79587 0.71134 0.0
C1393 C 0.80938 0.82106 0.7239 0.0
H1394 H 0.83651 0.76129 0.70468 0.0
C1395 C 0.83124 0.83138 0.73849 0.0
H1396 H 0.79563 0.78754 0.69961 0.0
C1397 C 0.85467 0.81611 0.74167 0.0
C1398 C 0.85678 0.79046 0.72998 0.0
H1399 H 0.82984 0.85075 0.74833 0.0
H1400 H 0.8708 0.82406 0.75393 0.0
C1401 C 0.83548 0.78085 0.71416 0.0
C1402 C 0.69092 0.30391 0.21163 0.0
C1403 C 0.66666 0.30468 0.22611 0.0
H1404 H 0.72688 0.32452 0.20051 0.0
C1405 C 0.65938 0.32851 0.23939 0.0
H1406 H 0.69692 0.28596 0.20085 0.0
C1407 C 0.6768 0.35061 0.23944 0.0
C1408 C 0.70159 0.34937 0.22591 0.0
H1409 H 0.6408 0.32971 0.25066 0.0
H1410 H 0.67122 0.36834 0.25078 0.0
C1411 C 0.70808 0.32608 0.21134 0.0
C1412 C 0.16591 0.16472 0.74609 0.0
C1413 C 0.1883 0.17432 0.73183 0.0
H1414 H 0.12574 0.17268 0.75954 0.0
C1415 C 0.18614 0.19876 0.71783 0.0
H1416 H 0.16696 0.14592 0.75701 0.0
C1417 C 0.1625 0.2138 0.71888 0.0
C1418 C 0.14061 0.20498 0.73435 0.0
H1419 H 0.20291 0.20651 0.7063 0.0
H1420 H 0.16179 0.2328 0.70831 0.0
C1421 C 0.14232 0.18003 0.7475 0.0
C1422 C 0.334 0.656 0.24794 0.0
C1423 C 0.32857 0.67748 0.23044 0.0
H1424 H 0.32015 0.6184 0.26397 0.0
C1425 C 0.30638 0.67579 0.21309 0.0
H1426 H 0.35101 0.65683 0.2615 0.0
C1427 C 0.2891 0.65381 0.21417 0.0
C1428 C 0.29332 0.63318 0.23295 0.0
H1429 H 0.30197 0.69187 0.19908 0.0
H1430 H 0.27177 0.6536 0.20101 0.0
C1431 C 0.31636 0.63405 0.24933 0.0
C1432 C 0.79437 0.19539 0.27983 0.0
C1433 C 0.79316 0.16953 0.2685 0.0
H1434 H 0.81774 0.23085 0.2861 0.0
C1435 C 0.81604 0.15911 0.25563 0.0
H1436 H 0.7772 0.20383 0.29023 0.0
C1437 C 0.83922 0.17475 0.25302 0.0
C1438 C 0.84009 0.20093 0.26357 0.0
H1439 H 0.81575 0.13922 0.24679 0.0
H1440 H 0.85622 0.16656 0.24216 0.0
C1441 C 0.81768 0.21083 0.27759 0.0
C1442 C 0.30322 0.35387 0.75647 0.0
C1443 C 0.27776 0.35313 0.76872 0.0
H1444 H 0.33961 0.33251 0.74763 0.0
C1445 C 0.2703 0.33023 0.7834 0.0
H1446 H 0.30955 0.37131 0.74508 0.0
C1447 C 0.28729 0.30795 0.7845 0.0
C1448 C 0.31231 0.30822 0.77132 0.0
H1449 H 0.25093 0.32907 0.79323 0.0
H1450 H 0.28059 0.29031 0.79534 0.0
C1451 C 0.32044 0.33167 0.75791 0.0
C1452 C 0.17502 0.83457 0.24446 0.0
C1453 C 0.19683 0.82488 0.25957 0.0
H1454 H 0.13554 0.82652 0.22909 0.0
C1455 C 0.19431 0.80021 0.27304 0.0
H1456 H 0.1764 0.85357 0.23394 0.0
C1457 C 0.17087 0.78507 0.2707 0.0
C1458 C 0.14958 0.79398 0.25443 0.0
H1459 H 0.2106 0.79244 0.28523 0.0
H1460 H 0.16984 0.76594 0.28101 0.0
C1461 C 0.15164 0.81913 0.24173 0.0
C1462 C 0.69177 0.64461 0.75212 0.0
C1463 C 0.71675 0.64593 0.76527 0.0
H1464 H 0.65578 0.66554 0.74094 0.0
C1465 C 0.7237 0.6695 0.77912 0.0
H1466 H 0.68583 0.62666 0.74133 0.0
C1467 C 0.70674 0.69182 0.77854 0.0
C1468 C 0.68223 0.69092 0.76447 0.0
H1469 H 0.74269 0.67112 0.78961 0.0
H1470 H 0.71305 0.70995 0.78878 0.0
C1471 C 0.67456 0.66686 0.75187 0.0
C1472 C 0.74269 0.8258 0.82477 0.0
C1473 C 0.73032 0.80183 0.81647 0.0
H1474 H 0.75434 0.86583 0.81391 0.0
C1475 C 0.71777 0.80094 0.79116 0.0
H1476 H 0.75246 0.8271 0.84417 0.0
C1477 C 0.71846 0.82314 0.77408 0.0
C1478 C 0.73209 0.84662 0.78172 0.0
H1479 H 0.70771 0.78289 0.78432 0.0
H1480 H 0.70909 0.82149 0.75451 0.0
C1481 C 0.74373 0.84796 0.80745 0.0
C1482 C 0.66258 0.2197 0.28439 0.0
C1483 C 0.64087 0.23561 0.29292 0.0
H1484 H 0.70275 0.20651 0.29211 0.0
C1485 C 0.64267 0.24915 0.31765 0.0
H1486 H 0.6618 0.20884 0.26555 0.0
C1487 C 0.66612 0.24753 0.3331 0.0
C1488 C 0.68831 0.23269 0.32387 0.0
H1489 H 0.62624 0.26154 0.32475 0.0
H1490 H 0.6672 0.25866 0.35178 0.0
C1491 C 0.68613 0.21845 0.29957 0.0
C1492 C 0.25092 0.15155 0.81849 0.0
C1493 C 0.26334 0.15171 0.7931 0.0
H1494 H 0.24076 0.17414 0.85378 0.0
C1495 C 0.27674 0.17503 0.78458 0.0
H1496 H 0.24047 0.13384 0.82561 0.0
C1497 C 0.27647 0.19816 0.80043 0.0
C1498 C 0.26323 0.19836 0.82539 0.0
H1499 H 0.28667 0.1758 0.76525 0.0
H1500 H 0.2864 0.21601 0.79294 0.0
C1501 C 0.25104 0.17462 0.83459 0.0
C1502 C 0.3082 0.7709 0.29923 0.0
C1503 C 0.30569 0.75732 0.32384 0.0
H1504 H 0.33264 0.77907 0.26499 0.0
C1505 C 0.3275 0.74214 0.33343 0.0
H1506 H 0.29189 0.78311 0.29151 0.0
C1507 C 0.35089 0.73951 0.31796 0.0
C1508 C 0.35295 0.75237 0.29289 0.0
H1509 H 0.32611 0.73151 0.35237 0.0
H1510 H 0.36701 0.72685 0.32527 0.0
C1511 C 0.33164 0.76865 0.28406 0.0
C1512 C 0.72839 0.16004 0.16747 0.0
C1513 C 0.71508 0.18357 0.17559 0.0
H1514 H 0.74143 0.12051 0.17855 0.0
C1515 C 0.70206 0.184 0.20068 0.0
H1516 H 0.73853 0.1591 0.14823 0.0
C1517 C 0.70332 0.16182 0.21779 0.0
C1518 C 0.71802 0.13889 0.21041 0.0
H1519 H 0.69126 0.20171 0.20734 0.0
H1520 H 0.69362 0.16314 0.23722 0.0
C1521 C 0.73002 0.13796 0.18483 0.0
C1522 C 0.33901 0.24803 0.68313 0.0
C1523 C 0.3396 0.23605 0.7087 0.0
H1524 H 0.31593 0.25616 0.64767 0.0
C1525 C 0.31715 0.22138 0.71746 0.0
H1526 H 0.35606 0.25943 0.67582 0.0
C1527 C 0.29407 0.21991 0.70158 0.0
C1528 C 0.2931 0.23268 0.67639 0.0
H1529 H 0.31698 0.21178 0.73697 0.0
H1530 H 0.27686 0.20901 0.70923 0.0
C1531 C 0.31604 0.2462 0.66702 0.0
C1532 C 0.2883 0.82974 0.2106 0.0
C1533 C 0.27402 0.85279 0.20275 0.0
H1534 H 0.29964 0.78944 0.20096 0.0
C1535 C 0.26213 0.85347 0.17712 0.0
H1536 H 0.29795 0.82863 0.23006 0.0
C1537 C 0.26344 0.83102 0.16019 0.0
C1538 C 0.27628 0.80741 0.16883 0.0
H1539 H 0.25105 0.871 0.17049 0.0
H1540 H 0.25341 0.83174 0.14088 0.0
C1541 C 0.28918 0.80721 0.19395 0.0
C1542 C 0.6817 0.74769 0.65763 0.0
C1543 C 0.70446 0.76139 0.6672 0.0
H1544 H 0.64127 0.73525 0.66555 0.0
C1545 C 0.70278 0.77524 0.69178 0.0
H1546 H 0.68234 0.73692 0.63873 0.0
C1547 C 0.67913 0.7747 0.70688 0.0
C1548 C 0.65682 0.75989 0.69796 0.0
H1549 H 0.71985 0.78631 0.69953 0.0
H1550 H 0.67871 0.78515 0.72595 0.0
C1551 C 0.65817 0.74679 0.67297 0.0
C1552 C 0.83665 0.74351 0.82721 0.0
C1553 C 0.82935 0.72921 0.804 0.0
H1554 H 0.82474 0.75697 0.86636 0.0
C1555 C 0.80483 0.71514 0.80373 0.0
H1556 H 0.85544 0.75447 0.82804 0.0
C1557 C 0.78751 0.71621 0.82575 0.0
C1558 C 0.7941 0.73172 0.84838 0.0
H1559 H 0.79878 0.70361 0.78629 0.0
H1560 H 0.76853 0.70564 0.82458 0.0
C1561 C 0.81909 0.74491 0.84914 0.0
C1562 C 0.8214 0.24402 0.16589 0.0
C1563 C 0.8141 0.25975 0.18818 0.0
H1564 H 0.80951 0.22833 0.12755 0.0
C1565 C 0.7897 0.27402 0.18748 0.0
H1566 H 0.84008 0.23283 0.16586 0.0
C1567 C 0.77245 0.27175 0.16551 0.0
C1568 C 0.779 0.25485 0.14388 0.0
H1569 H 0.78367 0.28663 0.20418 0.0
H1570 H 0.75355 0.28254 0.16598 0.0
C1571 C 0.80389 0.24144 0.144 0.0
C1572 C 0.22835 0.33413 0.67202 0.0
C1573 C 0.21521 0.32488 0.69523 0.0
H1574 H 0.24114 0.325 0.63192 0.0
C1575 C 0.20238 0.29971 0.69458 0.0
H1576 H 0.23833 0.35347 0.67189 0.0
C1577 C 0.20359 0.28365 0.67163 0.0
C1578 C 0.21804 0.2922 0.64895 0.0
H1579 H 0.19173 0.29219 0.71201 0.0
H1580 H 0.19402 0.26413 0.67209 0.0
C1581 C 0.22992 0.31784 0.64915 0.0
C1582 C 0.21631 0.71907 0.15574 0.0
C1583 C 0.2117 0.73771 0.13508 0.0
H1584 H 0.20355 0.70353 0.19365 0.0
C1585 C 0.1883 0.75359 0.1359 0.0
H1586 H 0.23395 0.70631 0.1556 0.0
C1587 C 0.17056 0.75171 0.15772 0.0
C1588 C 0.17623 0.73422 0.17915 0.0
H1589 H 0.18423 0.76813 0.12023 0.0
H1590 H 0.15317 0.7648 0.15845 0.0
C1591 C 0.19892 0.71751 0.17761 0.0
C1592 C 0.79439 0.69568 0.6908 0.0
C1593 C 0.7815 0.6706 0.69257 0.0
H1594 H 0.80346 0.72985 0.66648 0.0
C1595 C 0.76894 0.66002 0.6696 0.0
H1596 H 0.80461 0.70419 0.70804 0.0
C1597 C 0.76799 0.67494 0.64579 0.0
C1598 C 0.77993 0.70051 0.6444 0.0
H1599 H 0.75892 0.64071 0.67033 0.0
H1600 H 0.75719 0.66679 0.62874 0.0
C1601 C 0.79383 0.71035 0.66691 0.0
C1602 C 0.18975 0.28376 0.80673 0.0
C1603 C 0.16536 0.26948 0.80641 0.0
H1604 H 0.22488 0.29453 0.82892 0.0
C1605 C 0.15704 0.25611 0.82983 0.0
H1606 H 0.19654 0.29461 0.78912 0.0
C1607 C 0.17351 0.2558 0.85262 0.0
C1608 C 0.19839 0.26919 0.85252 0.0
H1609 H 0.13831 0.24502 0.83022 0.0
H1610 H 0.1671 0.24441 0.87003 0.0
C1611 C 0.20596 0.28382 0.82961 0.0
C1612 C 0.2421 0.67469 0.34974 0.0
C1613 C 0.22964 0.70007 0.34954 0.0
H1614 H 0.25189 0.6392 0.32725 0.0
C1615 C 0.21572 0.70828 0.3264 0.0
H1616 H 0.25294 0.6678 0.36731 0.0
C1617 C 0.21565 0.69226 0.30341 0.0
C1618 C 0.22897 0.66737 0.30322 0.0
H1619 H 0.20565 0.72755 0.32563 0.0
H1620 H 0.20535 0.69951 0.28564 0.0
C1621 C 0.24156 0.65836 0.32683 0.0
C1622 C 0.7527 0.33279 0.32183 0.0
C1623 C 0.76543 0.32248 0.29883 0.0
H1624 H 0.74088 0.32561 0.36263 0.0
C1625 C 0.77848 0.29747 0.30045 0.0
H1626 H 0.74256 0.35205 0.32121 0.0
C1627 C 0.77799 0.28263 0.32423 0.0
C1628 C 0.76396 0.2922 0.3468 0.0
H1629 H 0.78884 0.28917 0.28318 0.0
H1630 H 0.7878 0.26322 0.32455 0.0
C1631 C 0.75179 0.31768 0.34555 0.0
loop_
_geom_bond_atom_site_label_1
_geom_bond_atom_site_label_2
_geom_bond_distance
_geom_bond_site_symmetry_2
_ccdc_geom_bond_type
Co0 O1 2.216 . S
Co0 O2 2.091 . S
Co0 O4 2.004 . S
Co0 O10 2.021 . S
Co0 O12 2.137 . S
Co0 O13 2.244 . S
O1 Co0 2.216 . S
O1 C8 1.247 . S
O2 Co0 2.091 . S
O2 C8 1.261 . S
C3 O12 1.247 . S
C3 O13 1.272 . S
O4 Co0 2.004 . S
O4 C9 1.259 . S
Co5 O6 2.061 . S
Co5 O11 2.052 . S
Co5 O13 2.135 . S
O6 Co5 2.061 . S
O6 C9 1.235 . S
C7 O10 1.238 . S
C7 O11 1.241 . S
C8 O1 1.247 . S
C8 O2 1.261 . S
C9 O4 1.259 . S
C9 O6 1.235 . S
O10 Co0 2.021 . S
O10 C7 1.238 . S
O11 Co5 2.052 . S
O11 C7 1.241 . S
O12 Co0 2.137 . S
O12 C3 1.247 . S
O13 Co0 2.244 . S
O13 C3 1.272 . S
O13 Co5 2.135 . S
Co14 O15 2.216 . S
Co14 O16 2.091 . S
Co14 O18 2.004 . S
Co14 O24 2.021 . S
Co14 O26 2.137 . S
Co14 O27 2.244 . S
O15 Co14 2.216 . S
O15 C22 1.247 . S
O16 Co14 2.091 . S
O16 C22 1.261 . S
C17 O26 1.247 . S
C17 O27 1.272 . S
O18 Co14 2.004 . S
O18 C23 1.259 . S
Co19 O20 2.061 . S
Co19 O25 2.052 . S
Co19 O27 2.135 . S
O20 Co19 2.061 . S
O20 C23 1.235 . S
C21 O24 1.238 . S
C21 O25 1.241 . S
C22 O15 1.247 . S
C22 O16 1.261 . S
C23 O18 1.259 . S
C23 O20 1.235 . S
O24 Co14 2.021 . S
O24 C21 1.238 . S
O25 Co19 2.052 . S
O25 C21 1.241 . S
O26 Co14 2.137 . S
O26 C17 1.247 . S
O27 Co14 2.244 . S
O27 C17 1.272 . S
O27 Co19 2.135 . S
Co28 O29 2.216 . S
Co28 O30 2.091 . S
Co28 O32 2.004 . S
Co28 O38 2.021 . S
Co28 O40 2.137 . S
Co28 O41 2.244 . S
O29 Co28 2.216 . S
O29 C36 1.247 . S
O30 Co28 2.091 . S
O30 C36 1.261 . S
C31 O40 1.247 . S
C31 O41 1.272 . S
O32 Co28 2.004 . S
O32 C37 1.259 . S
Co33 O34 2.061 . S
Co33 O39 2.052 . S
Co33 O41 2.135 . S
O34 Co33 2.061 . S
O34 C37 1.235 . S
C35 O38 1.238 . S
C35 O39 1.241 . S
C36 O29 1.247 . S
C36 O30 1.261 . S
C37 O32 1.259 . S
C37 O34 1.235 . S
O38 Co28 2.021 . S
O38 C35 1.238 . S
O39 Co33 2.052 . S
O39 C35 1.241 . S
O40 Co28 2.137 . S
O40 C31 1.247 . S
O41 Co28 2.244 . S
O41 C31 1.272 . S
O41 Co33 2.135 . S
Co42 O43 2.216 . S
Co42 O44 2.091 . S
Co42 O46 2.004 . S
Co42 O52 2.021 . S
Co42 O54 2.137 . S
Co42 O55 2.244 . S
O43 Co42 2.216 . S
O43 C50 1.247 . S
O44 Co42 2.091 . S
O44 C50 1.261 . S
C45 O54 1.247 . S
C45 O55 1.272 . S
O46 Co42 2.004 . S
O46 C51 1.259 . S
Co47 O48 2.061 . S
Co47 O53 2.052 . S
Co47 O55 2.135 . S
O48 Co47 2.061 . S
O48 C51 1.235 . S
C49 O52 1.238 . S
C49 O53 1.241 . S
C50 O43 1.247 . S
C50 O44 1.261 . S
C51 O46 1.259 . S
C51 O48 1.235 . S
O52 Co42 2.021 . S
O52 C49 1.238 . S
O53 Co47 2.052 . S
O53 C49 1.241 . S
O54 Co42 2.137 . S
O54 C45 1.247 . S
O55 Co42 2.244 . S
O55 C45 1.272 . S
O55 Co47 2.135 . S
Co56 O57 2.216 . S
Co56 O58 2.091 . S
Co56 O60 2.004 . S
Co56 O66 2.021 . S
Co56 O68 2.137 . S
Co56 O69 2.244 . S
O57 Co56 2.216 . S
O57 C64 1.247 . S
O58 Co56 2.091 . S
O58 C64 1.261 . S
C59 O68 1.247 . S
C59 O69 1.272 . S
O60 Co56 2.004 . S
O60 C65 1.259 . S
Co61 O62 2.061 . S
Co61 O67 2.052 . S
Co61 O69 2.135 . S
O62 Co61 2.061 . S
O62 C65 1.235 . S
C63 O66 1.238 . S
C63 O67 1.241 . S
C64 O57 1.247 . S
C64 O58 1.261 . S
C65 O60 1.259 . S
C65 O62 1.235 . S
O66 Co56 2.021 . S
O66 C63 1.238 . S
O67 Co61 2.052 . S
O67 C63 1.241 . S
O68 Co56 2.137 . S
O68 C59 1.247 . S
O69 Co56 2.244 . S
O69 C59 1.272 . S
O69 Co61 2.135 . S
Co70 O71 2.216 . S
Co70 O72 2.091 . S
Co70 O74 2.004 . S
Co70 O80 2.021 . S
Co70 O82 2.137 . S
Co70 O83 2.244 . S
O71 Co70 2.216 . S
O71 C78 1.247 . S
O72 Co70 2.091 . S
O72 C78 1.261 . S
C73 O82 1.247 . S
C73 O83 1.272 . S
O74 Co70 2.004 . S
O74 C79 1.259 . S
Co75 O76 2.061 . S
Co75 O81 2.052 . S
Co75 O83 2.135 . S
O76 Co75 2.061 . S
O76 C79 1.235 . S
C77 O80 1.238 . S
C77 O81 1.241 . S
C78 O71 1.247 . S
C78 O72 1.261 . S
C79 O74 1.259 . S
C79 O76 1.235 . S
O80 Co70 2.021 . S
O80 C77 1.238 . S
O81 Co75 2.052 . S
O81 C77 1.241 . S
O82 Co70 2.137 . S
O82 C73 1.247 . S
O83 Co70 2.244 . S
O83 C73 1.272 . S
O83 Co75 2.135 . S
Co84 O85 2.216 . S
Co84 O86 2.091 . S
Co84 O88 2.004 . S
Co84 O94 2.021 . S
Co84 O96 2.137 . S
Co84 O97 2.244 . S
O85 Co84 2.216 . S
O85 C92 1.247 . S
O86 Co84 2.091 . S
O86 C92 1.261 . S
C87 O96 1.247 . S
C87 O97 1.272 . S
O88 Co84 2.004 . S
O88 C93 1.259 . S
Co89 O90 2.061 . S
Co89 O95 2.052 . S
Co89 O97 2.135 . S
O90 Co89 2.061 . S
O90 C93 1.235 . S
C91 O94 1.238 . S
C91 O95 1.241 . S
C92 O85 1.247 . S
C92 O86 1.261 . S
C93 O88 1.259 . S
C93 O90 1.235 . S
O94 Co84 2.021 . S
O94 C91 1.238 . S
O95 Co89 2.052 . S
O95 C91 1.241 . S
O96 Co84 2.137 . S
O96 C87 1.247 . S
O97 Co84 2.244 . S
O97 C87 1.272 . S
O97 Co89 2.135 . S
Co98 O99 2.216 . S
Co98 O100 2.091 . S
Co98 O102 2.004 . S
Co98 O108 2.021 . S
Co98 O110 2.137 . S
Co98 O111 2.244 . S
O99 Co98 2.216 . S
O99 C106 1.247 . S
O100 Co98 2.091 . S
O100 C106 1.261 . S
C101 O110 1.247 . S
C101 O111 1.272 . S
O102 Co98 2.004 . S
O102 C107 1.259 . S
Co103 O104 2.061 . S
Co103 O109 2.052 . S
Co103 O111 2.135 . S
O104 Co103 2.061 . S
O104 C107 1.235 . S
C105 O108 1.238 . S
C105 O109 1.241 . S
C106 O99 1.247 . S
C106 O100 1.261 . S
C107 O102 1.259 . S
C107 O104 1.235 . S
O108 Co98 2.021 . S
O108 C105 1.238 . S
O109 Co103 2.052 . S
O109 C105 1.241 . S
O110 Co98 2.137 . S
O110 C101 1.247 . S
O111 Co98 2.244 . S
O111 C101 1.272 . S
O111 Co103 2.135 . S
Co112 O113 2.216 . S
Co112 O114 2.091 . S
Co112 O116 2.004 . S
Co112 O122 2.021 . S
Co112 O124 2.137 . S
Co112 O125 2.244 . S
O113 Co112 2.216 . S
O113 C120 1.247 . S
O114 Co112 2.091 . S
O114 C120 1.261 . S
C115 O124 1.247 . S
C115 O125 1.272 . S
O116 Co112 2.004 . S
O116 C121 1.259 . S
Co117 O118 2.061 . S
Co117 O123 2.052 . S
Co117 O125 2.135 . S
O118 Co117 2.061 . S
O118 C121 1.235 . S
C119 O122 1.238 . S
C119 O123 1.241 . S
C120 O113 1.247 . S
C120 O114 1.261 . S
C121 O116 1.259 . S
C121 O118 1.235 . S
O122 Co112 2.021 . S
O122 C119 1.238 . S
O123 Co117 2.052 . S
O123 C119 1.241 . S
O124 Co112 2.137 . S
O124 C115 1.247 . S
O125 Co112 2.244 . S
O125 C115 1.272 . S
O125 Co117 2.135 . S
Co126 O127 2.216 . S
Co126 O128 2.091 . S
Co126 O130 2.004 . S
Co126 O136 2.021 . S
Co126 O138 2.137 . S
Co126 O139 2.244 . S
O127 Co126 2.216 . S
O127 C134 1.247 . S
O128 Co126 2.091 . S
O128 C134 1.261 . S
C129 O138 1.247 . S
C129 O139 1.272 . S
O130 Co126 2.004 . S
O130 C135 1.259 . S
Co131 O132 2.061 . S
Co131 O137 2.052 . S
Co131 O139 2.135 . S
O132 Co131 2.061 . S
O132 C135 1.235 . S
C133 O136 1.238 . S
C133 O137 1.241 . S
C134 O127 1.247 . S
C134 O128 1.261 . S
C135 O130 1.259 . S
C135 O132 1.235 . S
O136 Co126 2.021 . S
O136 C133 1.238 . S
O137 Co131 2.052 . S
O137 C133 1.241 . S
O138 Co126 2.137 . S
O138 C129 1.247 . S
O139 Co126 2.244 . S
O139 C129 1.272 . S
O139 Co131 2.135 . S
Co140 O141 2.216 . S
Co140 O142 2.091 . S
Co140 O144 2.004 . S
Co140 O150 2.021 . S
Co140 O152 2.137 . S
Co140 O153 2.244 . S
O141 Co140 2.216 . S
O141 C148 1.247 . S
O142 Co140 2.091 . S
O142 C148 1.261 . S
C143 O152 1.247 . S
C143 O153 1.272 . S
O144 Co140 2.004 . S
O144 C149 1.259 . S
Co145 O146 2.061 . S
Co145 O151 2.052 . S
Co145 O153 2.135 . S
O146 Co145 2.061 . S
O146 C149 1.235 . S
C147 O150 1.238 . S
C147 O151 1.241 . S
C148 O141 1.247 . S
C148 O142 1.261 . S
C149 O144 1.259 . S
C149 O146 1.235 . S
O150 Co140 2.021 . S
O150 C147 1.238 . S
O151 Co145 2.052 . S
O151 C147 1.241 . S
O152 Co140 2.137 . S
O152 C143 1.247 . S
O153 Co140 2.244 . S
O153 C143 1.272 . S
O153 Co145 2.135 . S
Co154 O155 2.216 . S
Co154 O156 2.091 . S
Co154 O158 2.004 . S
Co154 O164 2.021 . S
Co154 O166 2.137 . S
Co154 O167 2.244 . S
O155 Co154 2.216 . S
O155 C162 1.247 . S
O156 Co154 2.091 . S
O156 C162 1.261 . S
C157 O166 1.247 . S
C157 O167 1.272 . S
O158 Co154 2.004 . S
O158 C163 1.259 . S
Co159 O160 2.061 . S
Co159 O165 2.052 . S
Co159 O167 2.135 . S
O160 Co159 2.061 . S
O160 C163 1.235 . S
C161 O164 1.238 . S
C161 O165 1.241 . S
C162 O155 1.247 . S
C162 O156 1.261 . S
C163 O158 1.259 . S
C163 O160 1.235 . S
O164 Co154 2.021 . S
O164 C161 1.238 . S
O165 Co159 2.052 . S
O165 C161 1.241 . S
O166 Co154 2.137 . S
O166 C157 1.247 . S
O167 Co154 2.244 . S
O167 C157 1.272 . S
O167 Co159 2.135 . S
Co168 O169 2.216 . S
Co168 O170 2.091 . S
Co168 O172 2.004 . S
Co168 O178 2.021 . S
Co168 O180 2.137 . S
Co168 O181 2.244 . S
O169 Co168 2.216 . S
O169 C176 1.247 . S
O170 Co168 2.091 . S
O170 C176 1.261 . S
C171 O180 1.247 . S
C171 O181 1.272 . S
O172 Co168 2.004 . S
O172 C177 1.259 . S
Co173 O174 2.061 . S
Co173 O179 2.052 . S
Co173 O181 2.135 . S
O174 Co173 2.061 . S
O174 C177 1.235 . S
C175 O178 1.238 . S
C175 O179 1.241 . S
C176 O169 1.247 . S
C176 O170 1.261 . S
C177 O172 1.259 . S
C177 O174 1.235 . S
O178 Co168 2.021 . S
O178 C175 1.238 . S
O179 Co173 2.052 . S
O179 C175 1.241 . S
O180 Co168 2.137 . S
O180 C171 1.247 . S
O181 Co168 2.244 . S
O181 C171 1.272 . S
O181 Co173 2.135 . S
Co182 O183 2.216 . S
Co182 O184 2.091 . S
Co182 O186 2.004 . S
Co182 O192 2.021 . S
Co182 O194 2.137 . S
Co182 O195 2.244 . S
O183 Co182 2.216 . S
O183 C190 1.247 . S
O184 Co182 2.091 . S
O184 C190 1.261 . S
C185 O194 1.247 . S
C185 O195 1.272 . S
O186 Co182 2.004 . S
O186 C191 1.259 . S
Co187 O188 2.061 . S
Co187 O193 2.052 . S
Co187 O195 2.135 . S
O188 Co187 2.061 . S
O188 C191 1.235 . S
C189 O192 1.238 . S
C189 O193 1.241 . S
C190 O183 1.247 . S
C190 O184 1.261 . S
C191 O186 1.259 . S
C191 O188 1.235 . S
O192 Co182 2.021 . S
O192 C189 1.238 . S
O193 Co187 2.052 . S
O193 C189 1.241 . S
O194 Co182 2.137 . S
O194 C185 1.247 . S
O195 Co182 2.244 . S
O195 C185 1.272 . S
O195 Co187 2.135 . S
Co196 O197 2.216 . S
Co196 O198 2.091 . S
Co196 O200 2.004 . S
Co196 O206 2.021 . S
Co196 O208 2.137 . S
Co196 O209 2.244 . S
O197 Co196 2.216 . S
O197 C204 1.247 . S
O198 Co196 2.091 . S
O198 C204 1.261 . S
C199 O208 1.247 . S
C199 O209 1.272 . S
O200 Co196 2.004 . S
O200 C205 1.259 . S
Co201 O202 2.061 . S
Co201 O207 2.052 . S
Co201 O209 2.135 . S
O202 Co201 2.061 . S
O202 C205 1.235 . S
C203 O206 1.238 . S
C203 O207 1.241 . S
C204 O197 1.247 . S
C204 O198 1.261 . S
C205 O200 1.259 . S
C205 O202 1.235 . S
O206 Co196 2.021 . S
O206 C203 1.238 . S
O207 Co201 2.052 . S
O207 C203 1.241 . S
O208 Co196 2.137 . S
O208 C199 1.247 . S
O209 Co196 2.244 . S
O209 C199 1.272 . S
O209 Co201 2.135 . S
Co210 O211 2.216 . S
Co210 O212 2.091 . S
Co210 O214 2.004 . S
Co210 O220 2.021 . S
Co210 O222 2.137 . S
Co210 O223 2.244 . S
O211 Co210 2.216 . S
O211 C218 1.247 . S
O212 Co210 2.091 . S
O212 C218 1.261 . S
C213 O222 1.247 . S
C213 O223 1.272 . S
O214 Co210 2.004 . S
O214 C219 1.259 . S
Co215 O216 2.061 . S
Co215 O221 2.052 . S
Co215 O223 2.135 . S
O216 Co215 2.061 . S
O216 C219 1.235 . S
C217 O220 1.238 . S
C217 O221 1.241 . S
C218 O211 1.247 . S
C218 O212 1.261 . S
C219 O214 1.259 . S
C219 O216 1.235 . S
O220 Co210 2.021 . S
O220 C217 1.238 . S
O221 Co215 2.052 . S
O221 C217 1.241 . S
O222 Co210 2.137 . S
O222 C213 1.247 . S
O223 Co210 2.244 . S
O223 C213 1.272 . S
O223 Co215 2.135 . S
Co224 O225 2.216 . S
Co224 O226 2.091 . S
Co224 O228 2.004 . S
Co224 O234 2.021 . S
Co224 O236 2.137 . S
Co224 O237 2.244 . S
O225 Co224 2.216 . S
O225 C232 1.247 . S
O226 Co224 2.091 . S
O226 C232 1.261 . S
C227 O236 1.247 . S
C227 O237 1.272 . S
O228 Co224 2.004 . S
O228 C233 1.259 . S
Co229 O230 2.061 . S
Co229 O235 2.052 . S
Co229 O237 2.135 . S
O230 Co229 2.061 . S
O230 C233 1.235 . S
C231 O234 1.238 . S
C231 O235 1.241 . S
C232 O225 1.247 . S
C232 O226 1.261 . S
C233 O228 1.259 . S
C233 O230 1.235 . S
O234 Co224 2.021 . S
O234 C231 1.238 . S
O235 Co229 2.052 . S
O235 C231 1.241 . S
O236 Co224 2.137 . S
O236 C227 1.247 . S
O237 Co224 2.244 . S
O237 C227 1.272 . S
O237 Co229 2.135 . S
Co238 O239 2.216 . S
Co238 O240 2.091 . S
Co238 O242 2.004 . S
Co238 O248 2.021 . S
Co238 O250 2.137 . S
Co238 O251 2.244 . S
O239 Co238 2.216 . S
O239 C246 1.247 . S
O240 Co238 2.091 . S
O240 C246 1.261 . S
C241 O250 1.247 . S
C241 O251 1.272 . S
O242 Co238 2.004 . S
O242 C247 1.259 . S
Co243 O244 2.061 . S
Co243 O249 2.052 . S
Co243 O251 2.135 . S
O244 Co243 2.061 . S
O244 C247 1.235 . S
C245 O248 1.238 . S
C245 O249 1.241 . S
C246 O239 1.247 . S
C246 O240 1.261 . S
C247 O242 1.259 . S
C247 O244 1.235 . S
O248 Co238 2.021 . S
O248 C245 1.238 . S
O249 Co243 2.052 . S
O249 C245 1.241 . S
O250 Co238 2.137 . S
O250 C241 1.247 . S
O251 Co238 2.244 . S
O251 C241 1.272 . S
O251 Co243 2.135 . S
Co252 O253 2.216 . S
Co252 O254 2.091 . S
Co252 O256 2.004 . S
Co252 O262 2.021 . S
Co252 O264 2.137 . S
Co252 O265 2.244 . S
O253 Co252 2.216 . S
O253 C260 1.247 . S
O254 Co252 2.091 . S
O254 C260 1.261 . S
C255 O264 1.247 . S
C255 O265 1.272 . S
O256 Co252 2.004 . S
O256 C261 1.259 . S
Co257 O258 2.061 . S
Co257 O263 2.052 . S
Co257 O265 2.135 . S
O258 Co257 2.061 . S
O258 C261 1.235 . S
C259 O262 1.238 . S
C259 O263 1.241 . S
C260 O253 1.247 . S
C260 O254 1.261 . S
C261 O256 1.259 . S
C261 O258 1.235 . S
O262 Co252 2.021 . S
O262 C259 1.238 . S
O263 Co257 2.052 . S
O263 C259 1.241 . S
O264 Co252 2.137 . S
O264 C255 1.247 . S
O265 Co252 2.244 . S
O265 C255 1.272 . S
O265 Co257 2.135 . S
Co266 O267 2.216 . S
Co266 O268 2.091 . S
Co266 O270 2.004 . S
Co266 O276 2.021 . S
Co266 O278 2.137 . S
Co266 O279 2.244 . S
O267 Co266 2.216 . S
O267 C274 1.247 . S
O268 Co266 2.091 . S
O268 C274 1.261 . S
C269 O278 1.247 . S
C269 O279 1.272 . S
O270 Co266 2.004 . S
O270 C275 1.259 . S
Co271 O272 2.061 . S
Co271 O277 2.052 . S
Co271 O279 2.135 . S
O272 Co271 2.061 . S
O272 C275 1.235 . S
C273 O276 1.238 . S
C273 O277 1.241 . S
C274 O267 1.247 . S
C274 O268 1.261 . S
C275 O270 1.259 . S
C275 O272 1.235 . S
O276 Co266 2.021 . S
O276 C273 1.238 . S
O277 Co271 2.052 . S
O277 C273 1.241 . S
O278 Co266 2.137 . S
O278 C269 1.247 . S
O279 Co266 2.244 . S
O279 C269 1.272 . S
O279 Co271 2.135 . S
Co280 O281 2.216 . S
Co280 O282 2.091 . S
Co280 O284 2.004 . S
Co280 O290 2.021 . S
Co280 O292 2.137 . S
Co280 O293 2.244 . S
O281 Co280 2.216 . S
O281 C288 1.247 . S
O282 Co280 2.091 . S
O282 C288 1.261 . S
C283 O292 1.247 . S
C283 O293 1.272 . S
O284 Co280 2.004 . S
O284 C289 1.259 . S
Co285 O286 2.061 . S
Co285 O291 2.052 . S
Co285 O293 2.135 . S
O286 Co285 2.061 . S
O286 C289 1.235 . S
C287 O290 1.238 . S
C287 O291 1.241 . S
C288 O281 1.247 . S
C288 O282 1.261 . S
C289 O284 1.259 . S
C289 O286 1.235 . S
O290 Co280 2.021 . S
O290 C287 1.238 . S
O291 Co285 2.052 . S
O291 C287 1.241 . S
O292 Co280 2.137 . S
O292 C283 1.247 . S
O293 Co280 2.244 . S
O293 C283 1.272 . S
O293 Co285 2.135 . S
Co294 O295 2.216 . S
Co294 O296 2.091 . S
Co294 O298 2.004 . S
Co294 O304 2.021 . S
Co294 O306 2.137 . S
Co294 O307 2.244 . S
O295 Co294 2.216 . S
O295 C302 1.247 . S
O296 Co294 2.091 . S
O296 C302 1.261 . S
C297 O306 1.247 . S
C297 O307 1.272 . S
O298 Co294 2.004 . S
O298 C303 1.259 . S
Co299 O300 2.061 . S
Co299 O305 2.052 . S
Co299 O307 2.135 . S
O300 Co299 2.061 . S
O300 C303 1.235 . S
C301 O304 1.238 . S
C301 O305 1.241 . S
C302 O295 1.247 . S
C302 O296 1.261 . S
C303 O298 1.259 . S
C303 O300 1.235 . S
O304 Co294 2.021 . S
O304 C301 1.238 . S
O305 Co299 2.052 . S
O305 C301 1.241 . S
O306 Co294 2.137 . S
O306 C297 1.247 . S
O307 Co294 2.244 . S
O307 C297 1.272 . S
O307 Co299 2.135 . S
Co308 O309 2.216 . S
Co308 O310 2.091 . S
Co308 O312 2.004 . S
Co308 O318 2.021 . S
Co308 O320 2.137 . S
Co308 O321 2.244 . S
O309 Co308 2.216 . S
O309 C316 1.247 . S
O310 Co308 2.091 . S
O310 C316 1.261 . S
C311 O320 1.247 . S
C311 O321 1.272 . S
O312 Co308 2.004 . S
O312 C317 1.259 . S
Co313 O314 2.061 . S
Co313 O319 2.052 . S
Co313 O321 2.135 . S
O314 Co313 2.061 . S
O314 C317 1.235 . S
C315 O318 1.238 . S
C315 O319 1.241 . S
C316 O309 1.247 . S
C316 O310 1.261 . S
C317 O312 1.259 . S
C317 O314 1.235 . S
O318 Co308 2.021 . S
O318 C315 1.238 . S
O319 Co313 2.052 . S
O319 C315 1.241 . S
O320 Co308 2.137 . S
O320 C311 1.247 . S
O321 Co308 2.244 . S
O321 C311 1.272 . S
O321 Co313 2.135 . S
Co322 O323 2.216 . S
Co322 O324 2.091 . S
Co322 O326 2.004 . S
Co322 O332 2.021 . S
Co322 O334 2.137 . S
Co322 O335 2.244 . S
O323 Co322 2.216 . S
O323 C330 1.247 . S
O324 Co322 2.091 . S
O324 C330 1.261 . S
C325 O334 1.247 . S
C325 O335 1.272 . S
O326 Co322 2.004 . S
O326 C331 1.259 . S
Co327 O328 2.061 . S
Co327 O333 2.052 . S
Co327 O335 2.135 . S
O328 Co327 2.061 . S
O328 C331 1.235 . S
C329 O332 1.238 . S
C329 O333 1.241 . S
C330 O323 1.247 . S
C330 O324 1.261 . S
C331 O326 1.259 . S
C331 O328 1.235 . S
O332 Co322 2.021 . S
O332 C329 1.238 . S
O333 Co327 2.052 . S
O333 C329 1.241 . S
O334 Co322 2.137 . S
O334 C325 1.247 . S
O335 Co322 2.244 . S
O335 C325 1.272 . S
O335 Co327 2.135 . S
Co336 O337 2.216 . S
Co336 O338 2.091 . S
Co336 O340 2.004 . S
Co336 O346 2.021 . S
Co336 O348 2.137 . S
Co336 O349 2.244 . S
O337 Co336 2.216 . S
O337 C344 1.247 . S
O338 Co336 2.091 . S
O338 C344 1.261 . S
C339 O348 1.247 . S
C339 O349 1.272 . S
O340 Co336 2.004 . S
O340 C345 1.259 . S
Co341 O342 2.061 . S
Co341 O347 2.052 . S
Co341 O349 2.135 . S
O342 Co341 2.061 . S
O342 C345 1.235 . S
C343 O346 1.238 . S
C343 O347 1.241 . S
C344 O337 1.247 . S
C344 O338 1.261 . S
C345 O340 1.259 . S
C345 O342 1.235 . S
O346 Co336 2.021 . S
O346 C343 1.238 . S
O347 Co341 2.052 . S
O347 C343 1.241 . S
O348 Co336 2.137 . S
O348 C339 1.247 . S
O349 Co336 2.244 . S
O349 C339 1.272 . S
O349 Co341 2.135 . S
Co350 O351 2.216 . S
Co350 O352 2.091 . S
Co350 O354 2.004 . S
Co350 O360 2.021 . S
Co350 O362 2.137 . S
Co350 O363 2.244 . S
O351 Co350 2.216 . S
O351 C358 1.247 . S
O352 Co350 2.091 . S
O352 C358 1.261 . S
C353 O362 1.247 . S
C353 O363 1.272 . S
O354 Co350 2.004 . S
O354 C359 1.259 . S
Co355 O356 2.061 . S
Co355 O361 2.052 . S
Co355 O363 2.135 . S
O356 Co355 2.061 . S
O356 C359 1.235 . S
C357 O360 1.238 . S
C357 O361 1.241 . S
C358 O351 1.247 . S
C358 O352 1.261 . S
C359 O354 1.259 . S
C359 O356 1.235 . S
O360 Co350 2.021 . S
O360 C357 1.238 . S
O361 Co355 2.052 . S
O361 C357 1.241 . S
O362 Co350 2.137 . S
O362 C353 1.247 . S
O363 Co350 2.244 . S
O363 C353 1.272 . S
O363 Co355 2.135 . S
Co364 O365 2.216 . S
Co364 O366 2.091 . S
Co364 O368 2.004 . S
Co364 O374 2.021 . S
Co364 O376 2.137 . S
Co364 O377 2.244 . S
O365 Co364 2.216 . S
O365 C372 1.247 . S
O366 Co364 2.091 . S
O366 C372 1.261 . S
C367 O376 1.247 . S
C367 O377 1.272 . S
O368 Co364 2.004 . S
O368 C373 1.259 . S
Co369 O370 2.061 . S
Co369 O375 2.052 . S
Co369 O377 2.135 . S
O370 Co369 2.061 . S
O370 C373 1.235 . S
C371 O374 1.238 . S
C371 O375 1.241 . S
C372 O365 1.247 . S
C372 O366 1.261 . S
C373 O368 1.259 . S
C373 O370 1.235 . S
O374 Co364 2.021 . S
O374 C371 1.238 . S
O375 Co369 2.052 . S
O375 C371 1.241 . S
O376 Co364 2.137 . S
O376 C367 1.247 . S
O377 Co364 2.244 . S
O377 C367 1.272 . S
O377 Co369 2.135 . S
Co378 O379 2.216 . S
Co378 O380 2.091 . S
Co378 O382 2.004 . S
Co378 O388 2.021 . S
Co378 O390 2.137 . S
Co378 O391 2.244 . S
O379 Co378 2.216 . S
O379 C386 1.247 . S
O380 Co378 2.091 . S
O380 C386 1.261 . S
C381 O390 1.247 . S
C381 O391 1.272 . S
O382 Co378 2.004 . S
O382 C387 1.259 . S
Co383 O384 2.061 . S
Co383 O389 2.052 . S
Co383 O391 2.135 . S
O384 Co383 2.061 . S
O384 C387 1.235 . S
C385 O388 1.238 . S
C385 O389 1.241 . S
C386 O379 1.247 . S
C386 O380 1.261 . S
C387 O382 1.259 . S
C387 O384 1.235 . S
O388 Co378 2.021 . S
O388 C385 1.238 . S
O389 Co383 2.052 . S
O389 C385 1.241 . S
O390 Co378 2.137 . S
O390 C381 1.247 . S
O391 Co378 2.244 . S
O391 C381 1.272 . S
O391 Co383 2.135 . S
Co392 O393 2.216 . S
Co392 O394 2.091 . S
Co392 O396 2.004 . S
Co392 O402 2.021 . S
Co392 O404 2.137 . S
Co392 O405 2.244 . S
O393 Co392 2.216 . S
O393 C400 1.247 . S
O394 Co392 2.091 . S
O394 C400 1.261 . S
C395 O404 1.247 . S
C395 O405 1.272 . S
O396 Co392 2.004 . S
O396 C401 1.259 . S
Co397 O398 2.061 . S
Co397 O403 2.052 . S
Co397 O405 2.135 . S
O398 Co397 2.061 . S
O398 C401 1.235 . S
C399 O402 1.238 . S
C399 O403 1.241 . S
C400 O393 1.247 . S
C400 O394 1.261 . S
C401 O396 1.259 . S
C401 O398 1.235 . S
O402 Co392 2.021 . S
O402 C399 1.238 . S
O403 Co397 2.052 . S
O403 C399 1.241 . S
O404 Co392 2.137 . S
O404 C395 1.247 . S
O405 Co392 2.244 . S
O405 C395 1.272 . S
O405 Co397 2.135 . S
Co406 O407 2.216 . S
Co406 O408 2.091 . S
Co406 O410 2.004 . S
Co406 O416 2.021 . S
Co406 O418 2.137 . S
Co406 O419 2.244 . S
O407 Co406 2.216 . S
O407 C414 1.247 . S
O408 Co406 2.091 . S
O408 C414 1.261 . S
C409 O418 1.247 . S
C409 O419 1.272 . S
O410 Co406 2.004 . S
O410 C415 1.259 . S
Co411 O412 2.061 . S
Co411 O417 2.052 . S
Co411 O419 2.135 . S
O412 Co411 2.061 . S
O412 C415 1.235 . S
C413 O416 1.238 . S
C413 O417 1.241 . S
C414 O407 1.247 . S
C414 O408 1.261 . S
C415 O410 1.259 . S
C415 O412 1.235 . S
O416 Co406 2.021 . S
O416 C413 1.238 . S
O417 Co411 2.052 . S
O417 C413 1.241 . S
O418 Co406 2.137 . S
O418 C409 1.247 . S
O419 Co406 2.244 . S
O419 C409 1.272 . S
O419 Co411 2.135 . S
Co420 O421 2.216 . S
Co420 O422 2.091 . S
Co420 O424 2.004 . S
Co420 O430 2.021 . S
Co420 O432 2.137 . S
Co420 O433 2.244 . S
O421 Co420 2.216 . S
O421 C428 1.247 . S
O422 Co420 2.091 . S
O422 C428 1.261 . S
C423 O432 1.247 . S
C423 O433 1.272 . S
O424 Co420 2.004 . S
O424 C429 1.259 . S
Co425 O426 2.061 . S
Co425 O431 2.052 . S
Co425 O433 2.135 . S
O426 Co425 2.061 . S
O426 C429 1.235 . S
C427 O430 1.238 . S
C427 O431 1.241 . S
C428 O421 1.247 . S
C428 O422 1.261 . S
C429 O424 1.259 . S
C429 O426 1.235 . S
O430 Co420 2.021 . S
O430 C427 1.238 . S
O431 Co425 2.052 . S
O431 C427 1.241 . S
O432 Co420 2.137 . S
O432 C423 1.247 . S
O433 Co420 2.244 . S
O433 C423 1.272 . S
O433 Co425 2.135 . S
Co434 O435 2.216 . S
Co434 O436 2.091 . S
Co434 O438 2.004 . S
Co434 O444 2.021 . S
Co434 O446 2.137 . S
Co434 O447 2.244 . S
O435 Co434 2.216 . S
O435 C442 1.247 . S
O436 Co434 2.091 . S
O436 C442 1.261 . S
C437 O446 1.247 . S
C437 O447 1.272 . S
O438 Co434 2.004 . S
O438 C443 1.259 . S
Co439 O440 2.061 . S
Co439 O445 2.052 . S
Co439 O447 2.135 . S
O440 Co439 2.061 . S
O440 C443 1.235 . S
C441 O444 1.238 . S
C441 O445 1.241 . S
C442 O435 1.247 . S
C442 O436 1.261 . S
C443 O438 1.259 . S
C443 O440 1.235 . S
O444 Co434 2.021 . S
O444 C441 1.238 . S
O445 Co439 2.052 . S
O445 C441 1.241 . S
O446 Co434 2.137 . S
O446 C437 1.247 . S
O447 Co434 2.244 . S
O447 C437 1.272 . S
O447 Co439 2.135 . S
Co448 O449 2.216 . S
Co448 O450 2.091 . S
Co448 O452 2.004 . S
Co448 O458 2.021 . S
Co448 O460 2.137 . S
Co448 O461 2.244 . S
O449 Co448 2.216 . S
O449 C456 1.247 . S
O450 Co448 2.091 . S
O450 C456 1.261 . S
C451 O460 1.247 . S
C451 O461 1.272 . S
O452 Co448 2.004 . S
O452 C457 1.259 . S
Co453 O454 2.061 . S
Co453 O459 2.052 . S
Co453 O461 2.135 . S
O454 Co453 2.061 . S
O454 C457 1.235 . S
C455 O458 1.238 . S
C455 O459 1.241 . S
C456 O449 1.247 . S
C456 O450 1.261 . S
C457 O452 1.259 . S
C457 O454 1.235 . S
O458 Co448 2.021 . S
O458 C455 1.238 . S
O459 Co453 2.052 . S
O459 C455 1.241 . S
O460 Co448 2.137 . S
O460 C451 1.247 . S
O461 Co448 2.244 . S
O461 C451 1.272 . S
O461 Co453 2.135 . S
Co462 O463 2.216 . S
Co462 O464 2.091 . S
Co462 O466 2.004 . S
Co462 O472 2.021 . S
Co462 O474 2.137 . S
Co462 O475 2.244 . S
O463 Co462 2.216 . S
O463 C470 1.247 . S
O464 Co462 2.091 . S
O464 C470 1.261 . S
C465 O474 1.247 . S
C465 O475 1.272 . S
O466 Co462 2.004 . S
O466 C471 1.259 . S
Co467 O468 2.061 . S
Co467 O473 2.052 . S
Co467 O475 2.135 . S
O468 Co467 2.061 . S
O468 C471 1.235 . S
C469 O472 1.238 . S
C469 O473 1.241 . S
C470 O463 1.247 . S
C470 O464 1.261 . S
C471 O466 1.259 . S
C471 O468 1.235 . S
O472 Co462 2.021 . S
O472 C469 1.238 . S
O473 Co467 2.052 . S
O473 C469 1.241 . S
O474 Co462 2.137 . S
O474 C465 1.247 . S
O475 Co462 2.244 . S
O475 C465 1.272 . S
O475 Co467 2.135 . S
Co476 O477 2.216 . S
Co476 O478 2.091 . S
Co476 O480 2.004 . S
Co476 O486 2.021 . S
Co476 O488 2.137 . S
Co476 O489 2.244 . S
O477 Co476 2.216 . S
O477 C484 1.247 . S
O478 Co476 2.091 . S
O478 C484 1.261 . S
C479 O488 1.247 . S
C479 O489 1.272 . S
O480 Co476 2.004 . S
O480 C485 1.259 . S
Co481 O482 2.061 . S
Co481 O487 2.052 . S
Co481 O489 2.135 . S
O482 Co481 2.061 . S
O482 C485 1.235 . S
C483 O486 1.238 . S
C483 O487 1.241 . S
C484 O477 1.247 . S
C484 O478 1.261 . S
C485 O480 1.259 . S
C485 O482 1.235 . S
O486 Co476 2.021 . S
O486 C483 1.238 . S
O487 Co481 2.052 . S
O487 C483 1.241 . S
O488 Co476 2.137 . S
O488 C479 1.247 . S
O489 Co476 2.244 . S
O489 C479 1.272 . S
O489 Co481 2.135 . S
Co490 O491 2.216 . S
Co490 O492 2.091 . S
Co490 O494 2.004 . S
Co490 O500 2.021 . S
Co490 O502 2.137 . S
Co490 O503 2.244 . S
O491 Co490 2.216 . S
O491 C498 1.247 . S
O492 Co490 2.091 . S
O492 C498 1.261 . S
C493 O502 1.247 . S
C493 O503 1.272 . S
O494 Co490 2.004 . S
O494 C499 1.259 . S
Co495 O496 2.061 . S
Co495 O501 2.052 . S
Co495 O503 2.135 . S
O496 Co495 2.061 . S
O496 C499 1.235 . S
C497 O500 1.238 . S
C497 O501 1.241 . S
C498 O491 1.247 . S
C498 O492 1.261 . S
C499 O494 1.259 . S
C499 O496 1.235 . S
O500 Co490 2.021 . S
O500 C497 1.238 . S
O501 Co495 2.052 . S
O501 C497 1.241 . S
O502 Co490 2.137 . S
O502 C493 1.247 . S
O503 Co490 2.244 . S
O503 C493 1.272 . S
O503 Co495 2.135 . S
Co504 O505 2.216 . S
Co504 O506 2.091 . S
Co504 O508 2.004 . S
Co504 O514 2.021 . S
Co504 O516 2.137 . S
Co504 O517 2.244 . S
O505 Co504 2.216 . S
O505 C512 1.247 . S
O506 Co504 2.091 . S
O506 C512 1.261 . S
C507 O516 1.247 . S
C507 O517 1.272 . S
O508 Co504 2.004 . S
O508 C513 1.259 . S
Co509 O510 2.061 . S
Co509 O515 2.052 . S
Co509 O517 2.135 . S
O510 Co509 2.061 . S
O510 C513 1.235 . S
C511 O514 1.238 . S
C511 O515 1.241 . S
C512 O505 1.247 . S
C512 O506 1.261 . S
C513 O508 1.259 . S
C513 O510 1.235 . S
O514 Co504 2.021 . S
O514 C511 1.238 . S
O515 Co509 2.052 . S
O515 C511 1.241 . S
O516 Co504 2.137 . S
O516 C507 1.247 . S
O517 Co504 2.244 . S
O517 C507 1.272 . S
O517 Co509 2.135 . S
Co518 O519 2.216 . S
Co518 O520 2.091 . S
Co518 O522 2.004 . S
Co518 O528 2.021 . S
Co518 O530 2.137 . S
Co518 O531 2.244 . S
O519 Co518 2.216 . S
O519 C526 1.247 . S
O520 Co518 2.091 . S
O520 C526 1.261 . S
C521 O530 1.247 . S
C521 O531 1.272 . S
O522 Co518 2.004 . S
O522 C527 1.259 . S
Co523 O524 2.061 . S
Co523 O529 2.052 . S
Co523 O531 2.135 . S
O524 Co523 2.061 . S
O524 C527 1.235 . S
C525 O528 1.238 . S
C525 O529 1.241 . S
C526 O519 1.247 . S
C526 O520 1.261 . S
C527 O522 1.259 . S
C527 O524 1.235 . S
O528 Co518 2.021 . S
O528 C525 1.238 . S
O529 Co523 2.052 . S
O529 C525 1.241 . S
O530 Co518 2.137 . S
O530 C521 1.247 . S
O531 Co518 2.244 . S
O531 C521 1.272 . S
O531 Co523 2.135 . S
Co532 O533 2.216 . S
Co532 O534 2.091 . S
Co532 O536 2.004 . S
Co532 O542 2.021 . S
Co532 O544 2.137 . S
Co532 O545 2.244 . S
O533 Co532 2.216 . S
O533 C540 1.247 . S
O534 Co532 2.091 . S
O534 C540 1.261 . S
C535 O544 1.247 . S
C535 O545 1.272 . S
O536 Co532 2.004 . S
O536 C541 1.259 . S
Co537 O538 2.061 . S
Co537 O543 2.052 . S
Co537 O545 2.135 . S
O538 Co537 2.061 . S
O538 C541 1.235 . S
C539 O542 1.238 . S
C539 O543 1.241 . S
C540 O533 1.247 . S
C540 O534 1.261 . S
C541 O536 1.259 . S
C541 O538 1.235 . S
O542 Co532 2.021 . S
O542 C539 1.238 . S
O543 Co537 2.052 . S
O543 C539 1.241 . S
O544 Co532 2.137 . S
O544 C535 1.247 . S
O545 Co532 2.244 . S
O545 C535 1.272 . S
O545 Co537 2.135 . S
Co546 O547 2.216 . S
Co546 O548 2.091 . S
Co546 O550 2.004 . S
Co546 O556 2.021 . S
Co546 O558 2.137 . S
Co546 O559 2.244 . S
O547 Co546 2.216 . S
O547 C554 1.247 . S
O548 Co546 2.091 . S
O548 C554 1.261 . S
C549 O558 1.247 . S
C549 O559 1.272 . S
O550 Co546 2.004 . S
O550 C555 1.259 . S
Co551 O552 2.061 . S
Co551 O557 2.052 . S
Co551 O559 2.135 . S
O552 Co551 2.061 . S
O552 C555 1.235 . S
C553 O556 1.238 . S
C553 O557 1.241 . S
C554 O547 1.247 . S
C554 O548 1.261 . S
C555 O550 1.259 . S
C555 O552 1.235 . S
O556 Co546 2.021 . S
O556 C553 1.238 . S
O557 Co551 2.052 . S
O557 C553 1.241 . S
O558 Co546 2.137 . S
O558 C549 1.247 . S
O559 Co546 2.244 . S
O559 C549 1.272 . S
O559 Co551 2.135 . S
Co560 O561 2.216 . S
Co560 O562 2.091 . S
Co560 O564 2.004 . S
Co560 O570 2.021 . S
Co560 O572 2.137 . S
Co560 O573 2.244 . S
O561 Co560 2.216 . S
O561 C568 1.247 . S
O562 Co560 2.091 . S
O562 C568 1.261 . S
C563 O572 1.247 . S
C563 O573 1.272 . S
O564 Co560 2.004 . S
O564 C569 1.259 . S
Co565 O566 2.061 . S
Co565 O571 2.052 . S
Co565 O573 2.135 . S
O566 Co565 2.061 . S
O566 C569 1.235 . S
C567 O570 1.238 . S
C567 O571 1.241 . S
C568 O561 1.247 . S
C568 O562 1.261 . S
C569 O564 1.259 . S
C569 O566 1.235 . S
O570 Co560 2.021 . S
O570 C567 1.238 . S
O571 Co565 2.052 . S
O571 C567 1.241 . S
O572 Co560 2.137 . S
O572 C563 1.247 . S
O573 Co560 2.244 . S
O573 C563 1.272 . S
O573 Co565 2.135 . S
Co574 O575 2.216 . S
Co574 O576 2.091 . S
Co574 O578 2.004 . S
Co574 O584 2.021 . S
Co574 O586 2.137 . S
Co574 O587 2.244 . S
O575 Co574 2.216 . S
O575 C582 1.247 . S
O576 Co574 2.091 . S
O576 C582 1.261 . S
C577 O586 1.247 . S
C577 O587 1.272 . S
O578 Co574 2.004 . S
O578 C583 1.259 . S
Co579 O580 2.061 . S
Co579 O585 2.052 . S
Co579 O587 2.135 . S
O580 Co579 2.061 . S
O580 C583 1.235 . S
C581 O584 1.238 . S
C581 O585 1.241 . S
C582 O575 1.247 . S
C582 O576 1.261 . S
C583 O578 1.259 . S
C583 O580 1.235 . S
O584 Co574 2.021 . S
O584 C581 1.238 . S
O585 Co579 2.052 . S
O585 C581 1.241 . S
O586 Co574 2.137 . S
O586 C577 1.247 . S
O587 Co574 2.244 . S
O587 C577 1.272 . S
O587 Co579 2.135 . S
Co588 O589 2.216 . S
Co588 O590 2.091 . S
Co588 O592 2.004 . S
Co588 O598 2.021 . S
Co588 O600 2.137 . S
Co588 O601 2.244 . S
O589 Co588 2.216 . S
O589 C596 1.247 . S
O590 Co588 2.091 . S
O590 C596 1.261 . S
C591 O600 1.247 . S
C591 O601 1.272 . S
O592 Co588 2.004 . S
O592 C597 1.259 . S
Co593 O594 2.061 . S
Co593 O599 2.052 . S
Co593 O601 2.135 . S
O594 Co593 2.061 . S
O594 C597 1.235 . S
C595 O598 1.238 . S
C595 O599 1.241 . S
C596 O589 1.247 . S
C596 O590 1.261 . S
C597 O592 1.259 . S
C597 O594 1.235 . S
O598 Co588 2.021 . S
O598 C595 1.238 . S
O599 Co593 2.052 . S
O599 C595 1.241 . S
O600 Co588 2.137 . S
O600 C591 1.247 . S
O601 Co588 2.244 . S
O601 C591 1.272 . S
O601 Co593 2.135 . S
Co602 O603 2.216 . S
Co602 O604 2.091 . S
Co602 O606 2.004 . S
Co602 O612 2.021 . S
Co602 O614 2.137 . S
Co602 O615 2.244 . S
O603 Co602 2.216 . S
O603 C610 1.247 . S
O604 Co602 2.091 . S
O604 C610 1.261 . S
C605 O614 1.247 . S
C605 O615 1.272 . S
O606 Co602 2.004 . S
O606 C611 1.259 . S
Co607 O608 2.061 . S
Co607 O613 2.052 . S
Co607 O615 2.135 . S
O608 Co607 2.061 . S
O608 C611 1.235 . S
C609 O612 1.238 . S
C609 O613 1.241 . S
C610 O603 1.247 . S
C610 O604 1.261 . S
C611 O606 1.259 . S
C611 O608 1.235 . S
O612 Co602 2.021 . S
O612 C609 1.238 . S
O613 Co607 2.052 . S
O613 C609 1.241 . S
O614 Co602 2.137 . S
O614 C605 1.247 . S
O615 Co602 2.244 . S
O615 C605 1.272 . S
O615 Co607 2.135 . S
Co616 O617 2.216 . S
Co616 O618 2.091 . S
Co616 O620 2.004 . S
Co616 O626 2.021 . S
Co616 O628 2.137 . S
Co616 O629 2.244 . S
O617 Co616 2.216 . S
O617 C624 1.247 . S
O618 Co616 2.091 . S
O618 C624 1.261 . S
C619 O628 1.247 . S
C619 O629 1.272 . S
O620 Co616 2.004 . S
O620 C625 1.259 . S
Co621 O622 2.061 . S
Co621 O627 2.052 . S
Co621 O629 2.135 . S
O622 Co621 2.061 . S
O622 C625 1.235 . S
C623 O626 1.238 . S
C623 O627 1.241 . S
C624 O617 1.247 . S
C624 O618 1.261 . S
C625 O620 1.259 . S
C625 O622 1.235 . S
O626 Co616 2.021 . S
O626 C623 1.238 . S
O627 Co621 2.052 . S
O627 C623 1.241 . S
O628 Co616 2.137 . S
O628 C619 1.247 . S
O629 Co616 2.244 . S
O629 C619 1.272 . S
O629 Co621 2.135 . S
Co630 O631 2.216 . S
Co630 O632 2.091 . S
Co630 O634 2.004 . S
Co630 O640 2.021 . S
Co630 O642 2.137 . S
Co630 O643 2.244 . S
O631 Co630 2.216 . S
O631 C638 1.247 . S
O632 Co630 2.091 . S
O632 C638 1.261 . S
C633 O642 1.247 . S
C633 O643 1.272 . S
O634 Co630 2.004 . S
O634 C639 1.259 . S
Co635 O636 2.061 . S
Co635 O641 2.052 . S
Co635 O643 2.135 . S
O636 Co635 2.061 . S
O636 C639 1.235 . S
C637 O640 1.238 . S
C637 O641 1.241 . S
C638 O631 1.247 . S
C638 O632 1.261 . S
C639 O634 1.259 . S
C639 O636 1.235 . S
O640 Co630 2.021 . S
O640 C637 1.238 . S
O641 Co635 2.052 . S
O641 C637 1.241 . S
O642 Co630 2.137 . S
O642 C633 1.247 . S
O643 Co630 2.244 . S
O643 C633 1.272 . S
O643 Co635 2.135 . S
Co644 O645 2.216 . S
Co644 O646 2.091 . S
Co644 O648 2.004 . S
Co644 O654 2.021 . S
Co644 O656 2.137 . S
Co644 O657 2.244 . S
O645 Co644 2.216 . S
O645 C652 1.247 . S
O646 Co644 2.091 . S
O646 C652 1.261 . S
C647 O656 1.247 . S
C647 O657 1.272 . S
O648 Co644 2.004 . S
O648 C653 1.259 . S
Co649 O650 2.061 . S
Co649 O655 2.052 . S
Co649 O657 2.135 . S
O650 Co649 2.061 . S
O650 C653 1.235 . S
C651 O654 1.238 . S
C651 O655 1.241 . S
C652 O645 1.247 . S
C652 O646 1.261 . S
C653 O648 1.259 . S
C653 O650 1.235 . S
O654 Co644 2.021 . S
O654 C651 1.238 . S
O655 Co649 2.052 . S
O655 C651 1.241 . S
O656 Co644 2.137 . S
O656 C647 1.247 . S
O657 Co644 2.244 . S
O657 C647 1.272 . S
O657 Co649 2.135 . S
Co658 O659 2.216 . S
Co658 O660 2.091 . S
Co658 O662 2.004 . S
Co658 O668 2.021 . S
Co658 O670 2.137 . S
Co658 O671 2.244 . S
O659 Co658 2.216 . S
O659 C666 1.247 . S
O660 Co658 2.091 . S
O660 C666 1.261 . S
C661 O670 1.247 . S
C661 O671 1.272 . S
O662 Co658 2.004 . S
O662 C667 1.259 . S
Co663 O664 2.061 . S
Co663 O669 2.052 . S
Co663 O671 2.135 . S
O664 Co663 2.061 . S
O664 C667 1.235 . S
C665 O668 1.238 . S
C665 O669 1.241 . S
C666 O659 1.247 . S
C666 O660 1.261 . S
C667 O662 1.259 . S
C667 O664 1.235 . S
O668 Co658 2.021 . S
O668 C665 1.238 . S
O669 Co663 2.052 . S
O669 C665 1.241 . S
O670 Co658 2.137 . S
O670 C661 1.247 . S
O671 Co658 2.244 . S
O671 C661 1.272 . S
O671 Co663 2.135 . S
C672 C673 1.387 . S
C672 H676 0.950 . S
C672 C681 1.390 1_655 S
C673 C672 1.387 . S
C673 C675 1.387 . S
H674 C681 0.950 . S
C675 C673 1.387 . S
C675 C677 1.390 1_655 S
C675 H679 0.950 . S
H676 C672 0.950 . S
C677 C675 1.390 1_455 S
C677 C678 1.387 . S
C677 H680 0.950 . S
C678 C677 1.387 . S
C678 C681 1.387 . S
H679 C675 0.950 . S
H680 C677 0.950 . S
C681 C672 1.390 1_455 S
C681 H674 0.950 . S
C681 C678 1.387 . S
C682 C683 1.387 . S
C682 H686 0.950 . S
C682 C691 1.390 . S
C683 C682 1.387 . S
C683 C685 1.387 . S
H684 C691 0.950 . S
C685 C683 1.387 . S
C685 C687 1.390 . S
C685 H689 0.950 . S
H686 C682 0.950 . S
C687 C685 1.390 . S
C687 C688 1.387 . S
C687 H690 0.950 . S
C688 C687 1.387 . S
C688 C691 1.387 . S
H689 C685 0.950 . S
H690 C687 0.950 . S
C691 C682 1.390 . S
C691 H684 0.950 . S
C691 C688 1.387 . S
C692 C693 1.387 . S
C692 H696 0.950 . S
C692 C701 1.390 1_455 S
C693 C692 1.387 . S
C693 C695 1.387 . S
H694 C701 0.950 . S
C695 C693 1.387 . S
C695 C697 1.390 1_455 S
C695 H699 0.950 . S
H696 C692 0.950 . S
C697 C695 1.390 1_655 S
C697 C698 1.387 . S
C697 H700 0.950 . S
C698 C697 1.387 . S
C698 C701 1.387 . S
H699 C695 0.950 . S
H700 C697 0.950 . S
C701 C692 1.390 1_655 S
C701 H694 0.950 . S
C701 C698 1.387 . S
C702 C703 1.387 . S
C702 H706 0.950 . S
C702 C711 1.390 . S
C703 C702 1.387 . S
C703 C705 1.387 . S
H704 C711 0.950 . S
C705 C703 1.387 . S
C705 C707 1.390 . S
C705 H709 0.950 . S
H706 C702 0.950 . S
C707 C705 1.390 . S
C707 C708 1.387 . S
C707 H710 0.950 . S
C708 C707 1.387 . S
C708 C711 1.387 . S
H709 C705 0.950 . S
H710 C707 0.950 . S
C711 C702 1.390 . S
C711 H704 0.950 . S
C711 C708 1.387 . S
C712 C713 1.387 . S
C712 H716 0.950 . S
C712 C721 1.390 1_655 S
C713 C712 1.387 . S
C713 C715 1.387 . S
H714 C721 0.950 . S
C715 C713 1.387 . S
C715 C717 1.390 1_655 S
C715 H719 0.950 . S
H716 C712 0.950 . S
C717 C715 1.390 1_455 S
C717 C718 1.387 . S
C717 H720 0.950 . S
C718 C717 1.387 . S
C718 C721 1.387 . S
H719 C715 0.950 . S
H720 C717 0.950 . S
C721 C712 1.390 1_455 S
C721 H714 0.950 . S
C721 C718 1.387 . S
C722 C723 1.387 . S
C722 H726 0.950 . S
C722 C731 1.390 . S
C723 C722 1.387 . S
C723 C725 1.387 . S
H724 C731 0.950 . S
C725 C723 1.387 . S
C725 C727 1.390 . S
C725 H729 0.950 . S
H726 C722 0.950 . S
C727 C725 1.390 . S
C727 C728 1.387 . S
C727 H730 0.950 . S
C728 C727 1.387 . S
C728 C731 1.387 . S
H729 C725 0.950 . S
H730 C727 0.950 . S
C731 C722 1.390 . S
C731 H724 0.950 . S
C731 C728 1.387 . S
C732 C733 1.387 . S
C732 H736 0.950 . S
C732 C741 1.390 1_455 S
C733 C732 1.387 . S
C733 C735 1.387 . S
H734 C741 0.950 . S
C735 C733 1.387 . S
C735 C737 1.390 1_455 S
C735 H739 0.950 . S
H736 C732 0.950 . S
C737 C735 1.390 1_655 S
C737 C738 1.387 . S
C737 H740 0.950 . S
C738 C737 1.387 . S
C738 C741 1.387 . S
H739 C735 0.950 . S
H740 C737 0.950 . S
C741 C732 1.390 1_655 S
C741 H734 0.950 . S
C741 C738 1.387 . S
C742 C743 1.387 . S
C742 H746 0.950 . S
C742 C751 1.390 . S
C743 C742 1.387 . S
C743 C745 1.387 . S
H744 C751 0.950 . S
C745 C743 1.387 . S
C745 C747 1.390 . S
C745 H749 0.950 . S
H746 C742 0.950 . S
C747 C745 1.390 . S
C747 C748 1.387 . S
C747 H750 0.950 . S
C748 C747 1.387 . S
C748 C751 1.387 . S
H749 C745 0.950 . S
H750 C747 0.950 . S
C751 C742 1.390 . S
C751 H744 0.950 . S
C751 C748 1.387 . S
C752 C753 1.387 . S
C752 H756 0.950 . S
C752 C761 1.390 1_565 S
C753 C752 1.387 . S
C753 C755 1.387 . S
H754 C761 0.950 . S
C755 C753 1.387 . S
C755 C757 1.390 1_565 S
C755 H759 0.950 . S
H756 C752 0.950 . S
C757 C755 1.390 1_545 S
C757 C758 1.387 . S
C757 H760 0.950 . S
C758 C757 1.387 . S
C758 C761 1.387 . S
H759 C755 0.950 . S
H760 C757 0.950 . S
C761 C752 1.390 1_545 S
C761 H754 0.950 . S
C761 C758 1.387 . S
C762 C763 1.387 . S
C762 H766 0.950 . S
C762 C771 1.390 . S
C763 C762 1.387 . S
C763 C765 1.387 . S
H764 C771 0.950 . S
C765 C763 1.387 . S
C765 C767 1.390 . S
C765 H769 0.950 . S
H766 C762 0.950 . S
C767 C765 1.390 . S
C767 C768 1.387 . S
C767 H770 0.950 . S
C768 C767 1.387 . S
C768 C771 1.387 . S
H769 C765 0.950 . S
H770 C767 0.950 . S
C771 C762 1.390 . S
C771 H764 0.950 . S
C771 C768 1.387 . S
C772 C773 1.387 . S
C772 H776 0.950 . S
C772 C781 1.390 1_545 S
C773 C772 1.387 . S
C773 C775 1.387 . S
H774 C781 0.950 . S
C775 C773 1.387 . S
C775 C777 1.390 1_545 S
C775 H779 0.950 . S
H776 C772 0.950 . S
C777 C775 1.390 1_565 S
C777 C778 1.387 . S
C777 H780 0.950 . S
C778 C777 1.387 . S
C778 C781 1.387 . S
H779 C775 0.950 . S
H780 C777 0.950 . S
C781 C772 1.390 1_565 S
C781 H774 0.950 . S
C781 C778 1.387 . S
C782 C783 1.387 . S
C782 H786 0.950 . S
C782 C791 1.390 . S
C783 C782 1.387 . S
C783 C785 1.387 . S
H784 C791 0.950 . S
C785 C783 1.387 . S
C785 C787 1.390 . S
C785 H789 0.950 . S
H786 C782 0.950 . S
C787 C785 1.390 . S
C787 C788 1.387 . S
C787 H790 0.950 . S
C788 C787 1.387 . S
C788 C791 1.387 . S
H789 C785 0.950 . S
H790 C787 0.950 . S
C791 C782 1.390 . S
C791 H784 0.950 . S
C791 C788 1.387 . S
C792 C793 1.387 . S
C792 H796 0.950 . S
C792 C801 1.390 1_545 S
C793 C792 1.387 . S
C793 C795 1.387 . S
H794 C801 0.950 . S
C795 C793 1.387 . S
C795 C797 1.390 1_545 S
C795 H799 0.950 . S
H796 C792 0.950 . S
C797 C795 1.390 1_565 S
C797 C798 1.387 . S
C797 H800 0.950 . S
C798 C797 1.387 . S
C798 C801 1.387 . S
H799 C795 0.950 . S
H800 C797 0.950 . S
C801 C792 1.390 1_565 S
C801 H794 0.950 . S
C801 C798 1.387 . S
C802 C803 1.387 . S
C802 H806 0.950 . S
C802 C811 1.390 . S
C803 C802 1.387 . S
C803 C805 1.387 . S
H804 C811 0.950 . S
C805 C803 1.387 . S
C805 C807 1.390 . S
C805 H809 0.950 . S
H806 C802 0.950 . S
C807 C805 1.390 . S
C807 C808 1.387 . S
C807 H810 0.950 . S
C808 C807 1.387 . S
C808 C811 1.387 . S
H809 C805 0.950 . S
H810 C807 0.950 . S
C811 C802 1.390 . S
C811 H804 0.950 . S
C811 C808 1.387 . S
C812 C813 1.387 . S
C812 H816 0.950 . S
C812 C821 1.390 1_545 S
C813 C812 1.387 . S
C813 C815 1.387 . S
H814 C821 0.950 . S
C815 C813 1.387 . S
C815 C817 1.390 1_545 S
C815 H819 0.950 . S
H816 C812 0.950 . S
C817 C815 1.390 1_565 S
C817 C818 1.387 . S
C817 H820 0.950 . S
C818 C817 1.387 . S
C818 C821 1.387 . S
H819 C815 0.950 . S
H820 C817 0.950 . S
C821 C812 1.390 1_565 S
C821 H814 0.950 . S
C821 C818 1.387 . S
C822 C823 1.387 . S
C822 H826 0.950 . S
C822 C831 1.390 . S
C823 C822 1.387 . S
C823 C825 1.387 . S
H824 C831 0.950 . S
C825 C823 1.387 . S
C825 C827 1.390 . S
C825 H829 0.950 . S
H826 C822 0.950 . S
C827 C825 1.390 . S
C827 C828 1.387 . S
C827 H830 0.950 . S
C828 C827 1.387 . S
C828 C831 1.387 . S
H829 C825 0.950 . S
H830 C827 0.950 . S
C831 C822 1.390 . S
C831 H824 0.950 . S
C831 C828 1.387 . S
C832 C833 1.387 . S
C832 H836 0.950 . S
C832 C841 1.390 1_554 S
C833 C832 1.387 . S
C833 C835 1.387 . S
H834 C841 0.950 . S
C835 C833 1.387 . S
C835 C837 1.390 1_554 S
C835 H839 0.950 . S
H836 C832 0.950 . S
C837 C835 1.390 1_556 S
C837 C838 1.387 . S
C837 H840 0.950 . S
C838 C837 1.387 . S
C838 C841 1.387 . S
H839 C835 0.950 . S
H840 C837 0.950 . S
C841 C832 1.390 1_556 S
C841 H834 0.950 . S
C841 C838 1.387 . S
C842 C843 1.387 . S
C842 H846 0.950 . S
C842 C851 1.390 1_554 S
C843 C842 1.387 . S
C843 C845 1.387 . S
H844 C851 0.950 . S
C845 C843 1.387 . S
C845 C847 1.390 1_554 S
C845 H849 0.950 . S
H846 C842 0.950 . S
C847 C845 1.390 1_556 S
C847 C848 1.387 . S
C847 H850 0.950 . S
C848 C847 1.387 . S
C848 C851 1.387 . S
H849 C845 0.950 . S
H850 C847 0.950 . S
C851 C842 1.390 1_556 S
C851 H844 0.950 . S
C851 C848 1.387 . S
C852 C853 1.387 . S
C852 H856 0.950 . S
C852 C861 1.390 . S
C853 C852 1.387 . S
C853 C855 1.387 . S
H854 C861 0.950 . S
C855 C853 1.387 . S
C855 C857 1.390 . S
C855 H859 0.950 . S
H856 C852 0.950 . S
C857 C855 1.390 . S
C857 C858 1.387 . S
C857 H860 0.950 . S
C858 C857 1.387 . S
C858 C861 1.387 . S
H859 C855 0.950 . S
H860 C857 0.950 . S
C861 C852 1.390 . S
C861 H854 0.950 . S
C861 C858 1.387 . S
C862 C863 1.387 . S
C862 H866 0.950 . S
C862 C871 1.390 1_554 S
C863 C862 1.387 . S
C863 C865 1.387 . S
H864 C871 0.950 . S
C865 C863 1.387 . S
C865 C867 1.390 1_554 S
C865 H869 0.950 . S
H866 C862 0.950 . S
C867 C865 1.390 1_556 S
C867 C868 1.387 . S
C867 H870 0.950 . S
C868 C867 1.387 . S
C868 C871 1.387 . S
H869 C865 0.950 . S
H870 C867 0.950 . S
C871 C862 1.390 1_556 S
C871 H864 0.950 . S
C871 C868 1.387 . S
C872 C873 1.387 . S
C872 H876 0.950 . S
C872 C881 1.390 . S
C873 C872 1.387 . S
C873 C875 1.387 . S
H874 C881 0.950 . S
C875 C873 1.387 . S
C875 C877 1.390 . S
C875 H879 0.950 . S
H876 C872 0.950 . S
C877 C875 1.390 . S
C877 C878 1.387 . S
C877 H880 0.950 . S
C878 C877 1.387 . S
C878 C881 1.387 . S
H879 C875 0.950 . S
H880 C877 0.950 . S
C881 C872 1.390 . S
C881 H874 0.950 . S
C881 C878 1.387 . S
C882 C883 1.387 . S
C882 H886 0.950 . S
C882 C891 1.390 1_554 S
C883 C882 1.387 . S
C883 C885 1.387 . S
H884 C891 0.950 . S
C885 C883 1.387 . S
C885 C887 1.390 1_554 S
C885 H889 0.950 . S
H886 C882 0.950 . S
C887 C885 1.390 1_556 S
C887 C888 1.387 . S
C887 H890 0.950 . S
C888 C887 1.387 . S
C888 C891 1.387 . S
H889 C885 0.950 . S
H890 C887 0.950 . S
C891 C882 1.390 1_556 S
C891 H884 0.950 . S
C891 C888 1.387 . S
C892 C893 1.387 . S
C892 H896 0.950 . S
C892 C901 1.390 . S
C893 C892 1.387 . S
C893 C895 1.387 . S
H894 C901 0.950 . S
C895 C893 1.387 . S
C895 C897 1.390 . S
C895 H899 0.950 . S
H896 C892 0.950 . S
C897 C895 1.390 . S
C897 C898 1.387 . S
C897 H900 0.950 . S
C898 C897 1.387 . S
C898 C901 1.387 . S
H899 C895 0.950 . S
H900 C897 0.950 . S
C901 C892 1.390 . S
C901 H894 0.950 . S
C901 C898 1.387 . S
C902 C903 1.387 . S
C902 H906 0.950 . S
C902 C911 1.390 . S
C903 C902 1.387 . S
C903 C905 1.387 . S
H904 C911 0.950 . S
C905 C903 1.387 . S
C905 C907 1.390 . S
C905 H909 0.950 . S
H906 C902 0.950 . S
C907 C905 1.390 . S
C907 C908 1.387 . S
C907 H910 0.950 . S
C908 C907 1.387 . S
C908 C911 1.387 . S
H909 C905 0.950 . S
H910 C907 0.950 . S
C911 C902 1.390 . S
C911 H904 0.950 . S
C911 C908 1.387 . S
C912 C913 1.387 . S
C912 H916 0.950 . S
C912 C921 1.390 . S
C913 C912 1.387 . S
C913 C915 1.387 . S
H914 C921 0.950 . S
C915 C913 1.387 . S
C915 C917 1.390 . S
C915 H919 0.950 . S
H916 C912 0.950 . S
C917 C915 1.390 . S
C917 C918 1.387 . S
C917 H920 0.950 . S
C918 C917 1.387 . S
C918 C921 1.387 . S
H919 C915 0.950 . S
H920 C917 0.950 . S
C921 C912 1.390 . S
C921 H914 0.950 . S
C921 C918 1.387 . S
C922 C923 1.387 . S
C922 H926 0.950 . S
C922 C931 1.390 . S
C923 C922 1.387 . S
C923 C925 1.387 . S
H924 C931 0.950 . S
C925 C923 1.387 . S
C925 C927 1.390 . S
C925 H929 0.950 . S
H926 C922 0.950 . S
C927 C925 1.390 . S
C927 C928 1.387 . S
C927 H930 0.950 . S
C928 C927 1.387 . S
C928 C931 1.387 . S
H929 C925 0.950 . S
H930 C927 0.950 . S
C931 C922 1.390 . S
C931 H924 0.950 . S
C931 C928 1.387 . S
C932 C933 1.387 . S
C932 H936 0.950 . S
C932 C941 1.390 . S
C933 C932 1.387 . S
C933 C935 1.387 . S
H934 C941 0.950 . S
C935 C933 1.387 . S
C935 C937 1.390 . S
C935 H939 0.950 . S
H936 C932 0.950 . S
C937 C935 1.390 . S
C937 C938 1.387 . S
C937 H940 0.950 . S
C938 C937 1.387 . S
C938 C941 1.387 . S
H939 C935 0.950 . S
H940 C937 0.950 . S
C941 C932 1.390 . S
C941 H934 0.950 . S
C941 C938 1.387 . S
C942 C943 1.387 . S
C942 H946 0.950 . S
C942 C951 1.390 . S
C943 C942 1.387 . S
C943 C945 1.387 . S
H944 C951 0.950 . S
C945 C943 1.387 . S
C945 C947 1.390 . S
C945 H949 0.950 . S
H946 C942 0.950 . S
C947 C945 1.390 . S
C947 C948 1.387 . S
C947 H950 0.950 . S
C948 C947 1.387 . S
C948 C951 1.387 . S
H949 C945 0.950 . S
H950 C947 0.950 . S
C951 C942 1.390 . S
C951 H944 0.950 . S
C951 C948 1.387 . S
C952 C953 1.387 . S
C952 H956 0.950 . S
C952 C961 1.390 . S
C953 C952 1.387 . S
C953 C955 1.387 . S
H954 C961 0.950 . S
C955 C953 1.387 . S
C955 C957 1.390 . S
C955 H959 0.950 . S
H956 C952 0.950 . S
C957 C955 1.390 . S
C957 C958 1.387 . S
C957 H960 0.950 . S
C958 C957 1.387 . S
C958 C961 1.387 . S
H959 C955 0.950 . S
H960 C957 0.950 . S
C961 C952 1.390 . S
C961 H954 0.950 . S
C961 C958 1.387 . S
C962 C963 1.387 . S
C962 H966 0.950 . S
C962 C971 1.390 . S
C963 C962 1.387 . S
C963 C965 1.387 . S
H964 C971 0.950 . S
C965 C963 1.387 . S
C965 C967 1.390 . S
C965 H969 0.950 . S
H966 C962 0.950 . S
C967 C965 1.390 . S
C967 C968 1.387 . S
C967 H970 0.950 . S
C968 C967 1.387 . S
C968 C971 1.387 . S
H969 C965 0.950 . S
H970 C967 0.950 . S
C971 C962 1.390 . S
C971 H964 0.950 . S
C971 C968 1.387 . S
C972 C973 1.387 . S
C972 H976 0.950 . S
C972 C981 1.390 . S
C973 C972 1.387 . S
C973 C975 1.387 . S
H974 C981 0.950 . S
C975 C973 1.387 . S
C975 C977 1.390 . S
C975 H979 0.950 . S
H976 C972 0.950 . S
C977 C975 1.390 . S
C977 C978 1.387 . S
C977 H980 0.950 . S
C978 C977 1.387 . S
C978 C981 1.387 . S
H979 C975 0.950 . S
H980 C977 0.950 . S
C981 C972 1.390 . S
C981 H974 0.950 . S
C981 C978 1.387 . S
C982 C983 1.387 . S
C982 H986 0.950 . S
C982 C991 1.390 . S
C983 C982 1.387 . S
C983 C985 1.387 . S
H984 C991 0.950 . S
C985 C983 1.387 . S
C985 C987 1.390 . S
C985 H989 0.950 . S
H986 C982 0.950 . S
C987 C985 1.390 . S
C987 C988 1.387 . S
C987 H990 0.950 . S
C988 C987 1.387 . S
C988 C991 1.387 . S
H989 C985 0.950 . S
H990 C987 0.950 . S
C991 C982 1.390 . S
C991 H984 0.950 . S
C991 C988 1.387 . S
C992 C993 1.387 . S
C992 H996 0.950 . S
C992 C1001 1.390 . S
C993 C992 1.387 . S
C993 C995 1.387 . S
H994 C1001 0.950 . S
C995 C993 1.387 . S
C995 C997 1.390 . S
C995 H999 0.950 . S
H996 C992 0.950 . S
C997 C995 1.390 . S
C997 C998 1.387 . S
C997 H1000 0.950 . S
C998 C997 1.387 . S
C998 C1001 1.387 . S
H999 C995 0.950 . S
H1000 C997 0.950 . S
C1001 C992 1.390 . S
C1001 H994 0.950 . S
C1001 C998 1.387 . S
C1002 C1003 1.387 . S
C1002 H1006 0.950 . S
C1002 C1011 1.390 . S
C1003 C1002 1.387 . S
C1003 C1005 1.387 . S
H1004 C1011 0.950 . S
C1005 C1003 1.387 . S
C1005 C1007 1.390 . S
C1005 H1009 0.950 . S
H1006 C1002 0.950 . S
C1007 C1005 1.390 . S
C1007 C1008 1.387 . S
C1007 H1010 0.950 . S
C1008 C1007 1.387 . S
C1008 C1011 1.387 . S
H1009 C1005 0.950 . S
H1010 C1007 0.950 . S
C1011 C1002 1.390 . S
C1011 H1004 0.950 . S
C1011 C1008 1.387 . S
C1012 C1013 1.387 . S
C1012 H1016 0.950 . S
C1012 C1021 1.390 . S
C1013 C1012 1.387 . S
C1013 C1015 1.387 . S
H1014 C1021 0.950 . S
C1015 C1013 1.387 . S
C1015 C1017 1.390 . S
C1015 H1019 0.950 . S
H1016 C1012 0.950 . S
C1017 C1015 1.390 . S
C1017 C1018 1.387 . S
C1017 H1020 0.950 . S
C1018 C1017 1.387 . S
C1018 C1021 1.387 . S
H1019 C1015 0.950 . S
H1020 C1017 0.950 . S
C1021 C1012 1.390 . S
C1021 H1014 0.950 . S
C1021 C1018 1.387 . S
C1022 C1023 1.387 . S
C1022 H1026 0.950 . S
C1022 C1031 1.390 . S
C1023 C1022 1.387 . S
C1023 C1025 1.387 . S
H1024 C1031 0.950 . S
C1025 C1023 1.387 . S
C1025 C1027 1.390 . S
C1025 H1029 0.950 . S
H1026 C1022 0.950 . S
C1027 C1025 1.390 . S
C1027 C1028 1.387 . S
C1027 H1030 0.950 . S
C1028 C1027 1.387 . S
C1028 C1031 1.387 . S
H1029 C1025 0.950 . S
H1030 C1027 0.950 . S
C1031 C1022 1.390 . S
C1031 H1024 0.950 . S
C1031 C1028 1.387 . S
C1032 C1033 1.387 . S
C1032 H1036 0.950 . S
C1032 C1041 1.390 . S
C1033 C1032 1.387 . S
C1033 C1035 1.387 . S
H1034 C1041 0.950 . S
C1035 C1033 1.387 . S
C1035 C1037 1.390 . S
C1035 H1039 0.950 . S
H1036 C1032 0.950 . S
C1037 C1035 1.390 . S
C1037 C1038 1.387 . S
C1037 H1040 0.950 . S
C1038 C1037 1.387 . S
C1038 C1041 1.387 . S
H1039 C1035 0.950 . S
H1040 C1037 0.950 . S
C1041 C1032 1.390 . S
C1041 H1034 0.950 . S
C1041 C1038 1.387 . S
C1042 C1043 1.387 . S
C1042 H1046 0.950 . S
C1042 C1051 1.390 . S
C1043 C1042 1.387 . S
C1043 C1045 1.387 . S
H1044 C1051 0.950 . S
C1045 C1043 1.387 . S
C1045 C1047 1.390 . S
C1045 H1049 0.950 . S
H1046 C1042 0.950 . S
C1047 C1045 1.390 . S
C1047 C1048 1.387 . S
C1047 H1050 0.950 . S
C1048 C1047 1.387 . S
C1048 C1051 1.387 . S
H1049 C1045 0.950 . S
H1050 C1047 0.950 . S
C1051 C1042 1.390 . S
C1051 H1044 0.950 . S
C1051 C1048 1.387 . S
C1052 C1053 1.387 . S
C1052 H1056 0.950 . S
C1052 C1061 1.390 . S
C1053 C1052 1.387 . S
C1053 C1055 1.387 . S
H1054 C1061 0.950 . S
C1055 C1053 1.387 . S
C1055 C1057 1.390 . S
C1055 H1059 0.950 . S
H1056 C1052 0.950 . S
C1057 C1055 1.390 . S
C1057 C1058 1.387 . S
C1057 H1060 0.950 . S
C1058 C1057 1.387 . S
C1058 C1061 1.387 . S
H1059 C1055 0.950 . S
H1060 C1057 0.950 . S
C1061 C1052 1.390 . S
C1061 H1054 0.950 . S
C1061 C1058 1.387 . S
C1062 C1063 1.387 . S
C1062 H1066 0.950 . S
C1062 C1071 1.390 . S
C1063 C1062 1.387 . S
C1063 C1065 1.387 . S
H1064 C1071 0.950 . S
C1065 C1063 1.387 . S
C1065 C1067 1.390 . S
C1065 H1069 0.950 . S
H1066 C1062 0.950 . S
C1067 C1065 1.390 . S
C1067 C1068 1.387 . S
C1067 H1070 0.950 . S
C1068 C1067 1.387 . S
C1068 C1071 1.387 . S
H1069 C1065 0.950 . S
H1070 C1067 0.950 . S
C1071 C1062 1.390 . S
C1071 H1064 0.950 . S
C1071 C1068 1.387 . S
C1072 C1073 1.387 . S
C1072 H1076 0.950 . S
C1072 C1081 1.390 . S
C1073 C1072 1.387 . S
C1073 C1075 1.387 . S
H1074 C1081 0.950 . S
C1075 C1073 1.387 . S
C1075 C1077 1.390 . S
C1075 H1079 0.950 . S
H1076 C1072 0.950 . S
C1077 C1075 1.390 . S
C1077 C1078 1.387 . S
C1077 H1080 0.950 . S
C1078 C1077 1.387 . S
C1078 C1081 1.387 . S
H1079 C1075 0.950 . S
H1080 C1077 0.950 . S
C1081 C1072 1.390 . S
C1081 H1074 0.950 . S
C1081 C1078 1.387 . S
C1082 C1083 1.387 . S
C1082 H1086 0.950 . S
C1082 C1091 1.390 . S
C1083 C1082 1.387 . S
C1083 C1085 1.387 . S
H1084 C1091 0.950 . S
C1085 C1083 1.387 . S
C1085 C1087 1.390 . S
C1085 H1089 0.950 . S
H1086 C1082 0.950 . S
C1087 C1085 1.390 . S
C1087 C1088 1.387 . S
C1087 H1090 0.950 . S
C1088 C1087 1.387 . S
C1088 C1091 1.387 . S
H1089 C1085 0.950 . S
H1090 C1087 0.950 . S
C1091 C1082 1.390 . S
C1091 H1084 0.950 . S
C1091 C1088 1.387 . S
C1092 C1093 1.387 . S
C1092 H1096 0.950 . S
C1092 C1101 1.390 . S
C1093 C1092 1.387 . S
C1093 C1095 1.387 . S
H1094 C1101 0.950 . S
C1095 C1093 1.387 . S
C1095 C1097 1.390 . S
C1095 H1099 0.950 . S
H1096 C1092 0.950 . S
C1097 C1095 1.390 . S
C1097 C1098 1.387 . S
C1097 H1100 0.950 . S
C1098 C1097 1.387 . S
C1098 C1101 1.387 . S
H1099 C1095 0.950 . S
H1100 C1097 0.950 . S
C1101 C1092 1.390 . S
C1101 H1094 0.950 . S
C1101 C1098 1.387 . S
C1102 C1103 1.387 . S
C1102 H1106 0.950 . S
C1102 C1111 1.390 . S
C1103 C1102 1.387 . S
C1103 C1105 1.387 . S
H1104 C1111 0.950 . S
C1105 C1103 1.387 . S
C1105 C1107 1.390 . S
C1105 H1109 0.950 . S
H1106 C1102 0.950 . S
C1107 C1105 1.390 . S
C1107 C1108 1.387 . S
C1107 H1110 0.950 . S
C1108 C1107 1.387 . S
C1108 C1111 1.387 . S
H1109 C1105 0.950 . S
H1110 C1107 0.950 . S
C1111 C1102 1.390 . S
C1111 H1104 0.950 . S
C1111 C1108 1.387 . S
C1112 C1113 1.387 . S
C1112 H1116 0.950 . S
C1112 C1121 1.390 . S
C1113 C1112 1.387 . S
C1113 C1115 1.387 . S
H1114 C1121 0.950 . S
C1115 C1113 1.387 . S
C1115 C1117 1.390 . S
C1115 H1119 0.950 . S
H1116 C1112 0.950 . S
C1117 C1115 1.390 . S
C1117 C1118 1.387 . S
C1117 H1120 0.950 . S
C1118 C1117 1.387 . S
C1118 C1121 1.387 . S
H1119 C1115 0.950 . S
H1120 C1117 0.950 . S
C1121 C1112 1.390 . S
C1121 H1114 0.950 . S
C1121 C1118 1.387 . S
C1122 C1123 1.387 . S
C1122 H1126 0.950 . S
C1122 C1131 1.390 . S
C1123 C1122 1.387 . S
C1123 C1125 1.387 . S
H1124 C1131 0.950 . S
C1125 C1123 1.387 . S
C1125 C1127 1.390 . S
C1125 H1129 0.950 . S
H1126 C1122 0.950 . S
C1127 C1125 1.390 . S
C1127 C1128 1.387 . S
C1127 H1130 0.950 . S
C1128 C1127 1.387 . S
C1128 C1131 1.387 . S
H1129 C1125 0.950 . S
H1130 C1127 0.950 . S
C1131 C1122 1.390 . S
C1131 H1124 0.950 . S
C1131 C1128 1.387 . S
C1132 C1133 1.387 . S
C1132 H1136 0.950 . S
C1132 C1141 1.390 . S
C1133 C1132 1.387 . S
C1133 C1135 1.387 . S
H1134 C1141 0.950 . S
C1135 C1133 1.387 . S
C1135 C1137 1.390 . S
C1135 H1139 0.950 . S
H1136 C1132 0.950 . S
C1137 C1135 1.390 . S
C1137 C1138 1.387 . S
C1137 H1140 0.950 . S
C1138 C1137 1.387 . S
C1138 C1141 1.387 . S
H1139 C1135 0.950 . S
H1140 C1137 0.950 . S
C1141 C1132 1.390 . S
C1141 H1134 0.950 . S
C1141 C1138 1.387 . S
C1142 C1143 1.387 . S
C1142 H1146 0.950 . S
C1142 C1151 1.390 . S
C1143 C1142 1.387 . S
C1143 C1145 1.387 . S
H1144 C1151 0.950 . S
C1145 C1143 1.387 . S
C1145 C1147 1.390 . S
C1145 H1149 0.950 . S
H1146 C1142 0.950 . S
C1147 C1145 1.390 . S
C1147 C1148 1.387 . S
C1147 H1150 0.950 . S
C1148 C1147 1.387 . S
C1148 C1151 1.387 . S
H1149 C1145 0.950 . S
H1150 C1147 0.950 . S
C1151 C1142 1.390 . S
C1151 H1144 0.950 . S
C1151 C1148 1.387 . S
C1152 C1153 1.387 . S
C1152 H1156 0.950 . S
C1152 C1161 1.390 . S
C1153 C1152 1.387 . S
C1153 C1155 1.387 . S
H1154 C1161 0.950 . S
C1155 C1153 1.387 . S
C1155 C1157 1.390 . S
C1155 H1159 0.950 . S
H1156 C1152 0.950 . S
C1157 C1155 1.390 . S
C1157 C1158 1.387 . S
C1157 H1160 0.950 . S
C1158 C1157 1.387 . S
C1158 C1161 1.387 . S
H1159 C1155 0.950 . S
H1160 C1157 0.950 . S
C1161 C1152 1.390 . S
C1161 H1154 0.950 . S
C1161 C1158 1.387 . S
C1162 C1163 1.387 . S
C1162 H1166 0.950 . S
C1162 C1171 1.390 . S
C1163 C1162 1.387 . S
C1163 C1165 1.387 . S
H1164 C1171 0.950 . S
C1165 C1163 1.387 . S
C1165 C1167 1.390 . S
C1165 H1169 0.950 . S
H1166 C1162 0.950 . S
C1167 C1165 1.390 . S
C1167 C1168 1.387 . S
C1167 H1170 0.950 . S
C1168 C1167 1.387 . S
C1168 C1171 1.387 . S
H1169 C1165 0.950 . S
H1170 C1167 0.950 . S
C1171 C1162 1.390 . S
C1171 H1164 0.950 . S
C1171 C1168 1.387 . S
C1172 C1173 1.387 . S
C1172 H1176 0.950 . S
C1172 C1181 1.390 . S
C1173 C1172 1.387 . S
C1173 C1175 1.387 . S
H1174 C1181 0.950 . S
C1175 C1173 1.387 . S
C1175 C1177 1.390 . S
C1175 H1179 0.950 . S
H1176 C1172 0.950 . S
C1177 C1175 1.390 . S
C1177 C1178 1.387 . S
C1177 H1180 0.950 . S
C1178 C1177 1.387 . S
C1178 C1181 1.387 . S
H1179 C1175 0.950 . S
H1180 C1177 0.950 . S
C1181 C1172 1.390 . S
C1181 H1174 0.950 . S
C1181 C1178 1.387 . S
C1182 C1183 1.387 . S
C1182 H1186 0.950 . S
C1182 C1191 1.390 . S
C1183 C1182 1.387 . S
C1183 C1185 1.387 . S
H1184 C1191 0.950 . S
C1185 C1183 1.387 . S
C1185 C1187 1.390 . S
C1185 H1189 0.950 . S
H1186 C1182 0.950 . S
C1187 C1185 1.390 . S
C1187 C1188 1.387 . S
C1187 H1190 0.950 . S
C1188 C1187 1.387 . S
C1188 C1191 1.387 . S
H1189 C1185 0.950 . S
H1190 C1187 0.950 . S
C1191 C1182 1.390 . S
C1191 H1184 0.950 . S
C1191 C1188 1.387 . S
C1192 C1193 1.387 . S
C1192 H1196 0.950 . S
C1192 C1201 1.390 . S
C1193 C1192 1.387 . S
C1193 C1195 1.387 . S
H1194 C1201 0.950 . S
C1195 C1193 1.387 . S
C1195 C1197 1.390 . S
C1195 H1199 0.950 . S
H1196 C1192 0.950 . S
C1197 C1195 1.390 . S
C1197 C1198 1.387 . S
C1197 H1200 0.950 . S
C1198 C1197 1.387 . S
C1198 C1201 1.387 . S
H1199 C1195 0.950 . S
H1200 C1197 0.950 . S
C1201 C1192 1.390 . S
C1201 H1194 0.950 . S
C1201 C1198 1.387 . S
C1202 C1203 1.387 . S
C1202 H1206 0.950 . S
C1202 C1211 1.390 . S
C1203 C1202 1.387 . S
C1203 C1205 1.387 . S
H1204 C1211 0.950 . S
C1205 C1203 1.387 . S
C1205 C1207 1.390 . S
C1205 H1209 0.950 . S
H1206 C1202 0.950 . S
C1207 C1205 1.390 . S
C1207 C1208 1.387 . S
C1207 H1210 0.950 . S
C1208 C1207 1.387 . S
C1208 C1211 1.387 . S
H1209 C1205 0.950 . S
H1210 C1207 0.950 . S
C1211 C1202 1.390 . S
C1211 H1204 0.950 . S
C1211 C1208 1.387 . S
C1212 C1213 1.387 . S
C1212 H1216 0.950 . S
C1212 C1221 1.390 . S
C1213 C1212 1.387 . S
C1213 C1215 1.387 . S
H1214 C1221 0.950 . S
C1215 C1213 1.387 . S
C1215 C1217 1.390 . S
C1215 H1219 0.950 . S
H1216 C1212 0.950 . S
C1217 C1215 1.390 . S
C1217 C1218 1.387 . S
C1217 H1220 0.950 . S
C1218 C1217 1.387 . S
C1218 C1221 1.387 . S
H1219 C1215 0.950 . S
H1220 C1217 0.950 . S
C1221 C1212 1.390 . S
C1221 H1214 0.950 . S
C1221 C1218 1.387 . S
C1222 C1223 1.387 . S
C1222 H1226 0.950 . S
C1222 C1231 1.390 . S
C1223 C1222 1.387 . S
C1223 C1225 1.387 . S
H1224 C1231 0.950 . S
C1225 C1223 1.387 . S
C1225 C1227 1.390 . S
C1225 H1229 0.950 . S
H1226 C1222 0.950 . S
C1227 C1225 1.390 . S
C1227 C1228 1.387 . S
C1227 H1230 0.950 . S
C1228 C1227 1.387 . S
C1228 C1231 1.387 . S
H1229 C1225 0.950 . S
H1230 C1227 0.950 . S
C1231 C1222 1.390 . S
C1231 H1224 0.950 . S
C1231 C1228 1.387 . S
C1232 C1233 1.387 . S
C1232 H1236 0.950 . S
C1232 C1241 1.390 . S
C1233 C1232 1.387 . S
C1233 C1235 1.387 . S
H1234 C1241 0.950 . S
C1235 C1233 1.387 . S
C1235 C1237 1.390 . S
C1235 H1239 0.950 . S
H1236 C1232 0.950 . S
C1237 C1235 1.390 . S
C1237 C1238 1.387 . S
C1237 H1240 0.950 . S
C1238 C1237 1.387 . S
C1238 C1241 1.387 . S
H1239 C1235 0.950 . S
H1240 C1237 0.950 . S
C1241 C1232 1.390 . S
C1241 H1234 0.950 . S
C1241 C1238 1.387 . S
C1242 C1243 1.387 . S
C1242 H1246 0.950 . S
C1242 C1251 1.390 . S
C1243 C1242 1.387 . S
C1243 C1245 1.387 . S
H1244 C1251 0.950 . S
C1245 C1243 1.387 . S
C1245 C1247 1.390 . S
C1245 H1249 0.950 . S
H1246 C1242 0.950 . S
C1247 C1245 1.390 . S
C1247 C1248 1.387 . S
C1247 H1250 0.950 . S
C1248 C1247 1.387 . S
C1248 C1251 1.387 . S
H1249 C1245 0.950 . S
H1250 C1247 0.950 . S
C1251 C1242 1.390 . S
C1251 H1244 0.950 . S
C1251 C1248 1.387 . S
C1252 C1253 1.387 . S
C1252 H1256 0.950 . S
C1252 C1261 1.390 . S
C1253 C1252 1.387 . S
C1253 C1255 1.387 . S
H1254 C1261 0.950 . S
C1255 C1253 1.387 . S
C1255 C1257 1.390 . S
C1255 H1259 0.950 . S
H1256 C1252 0.950 . S
C1257 C1255 1.390 . S
C1257 C1258 1.387 . S
C1257 H1260 0.950 . S
C1258 C1257 1.387 . S
C1258 C1261 1.387 . S
H1259 C1255 0.950 . S
H1260 C1257 0.950 . S
C1261 C1252 1.390 . S
C1261 H1254 0.950 . S
C1261 C1258 1.387 . S
C1262 C1263 1.387 . S
C1262 H1266 0.950 . S
C1262 C1271 1.390 . S
C1263 C1262 1.387 . S
C1263 C1265 1.387 . S
H1264 C1271 0.950 . S
C1265 C1263 1.387 . S
C1265 C1267 1.390 . S
C1265 H1269 0.950 . S
H1266 C1262 0.950 . S
C1267 C1265 1.390 . S
C1267 C1268 1.387 . S
C1267 H1270 0.950 . S
C1268 C1267 1.387 . S
C1268 C1271 1.387 . S
H1269 C1265 0.950 . S
H1270 C1267 0.950 . S
C1271 C1262 1.390 . S
C1271 H1264 0.950 . S
C1271 C1268 1.387 . S
C1272 C1273 1.387 . S
C1272 H1276 0.950 . S
C1272 C1281 1.390 . S
C1273 C1272 1.387 . S
C1273 C1275 1.387 . S
H1274 C1281 0.950 . S
C1275 C1273 1.387 . S
C1275 C1277 1.390 . S
C1275 H1279 0.950 . S
H1276 C1272 0.950 . S
C1277 C1275 1.390 . S
C1277 C1278 1.387 . S
C1277 H1280 0.950 . S
C1278 C1277 1.387 . S
C1278 C1281 1.387 . S
H1279 C1275 0.950 . S
H1280 C1277 0.950 . S
C1281 C1272 1.390 . S
C1281 H1274 0.950 . S
C1281 C1278 1.387 . S
C1282 C1283 1.387 . S
C1282 H1286 0.950 . S
C1282 C1291 1.390 . S
C1283 C1282 1.387 . S
C1283 C1285 1.387 . S
H1284 C1291 0.950 . S
C1285 C1283 1.387 . S
C1285 C1287 1.390 . S
C1285 H1289 0.950 . S
H1286 C1282 0.950 . S
C1287 C1285 1.390 . S
C1287 C1288 1.387 . S
C1287 H1290 0.950 . S
C1288 C1287 1.387 . S
C1288 C1291 1.387 . S
H1289 C1285 0.950 . S
H1290 C1287 0.950 . S
C1291 C1282 1.390 . S
C1291 H1284 0.950 . S
C1291 C1288 1.387 . S
C1292 C1293 1.387 . S
C1292 H1296 0.950 . S
C1292 C1301 1.390 . S
C1293 C1292 1.387 . S
C1293 C1295 1.387 . S
H1294 C1301 0.950 . S
C1295 C1293 1.387 . S
C1295 C1297 1.390 . S
C1295 H1299 0.950 . S
H1296 C1292 0.950 . S
C1297 C1295 1.390 . S
C1297 C1298 1.387 . S
C1297 H1300 0.950 . S
C1298 C1297 1.387 . S
C1298 C1301 1.387 . S
H1299 C1295 0.950 . S
H1300 C1297 0.950 . S
C1301 C1292 1.390 . S
C1301 H1294 0.950 . S
C1301 C1298 1.387 . S
C1302 C1303 1.387 . S
C1302 H1306 0.950 . S
C1302 C1311 1.390 . S
C1303 C1302 1.387 . S
C1303 C1305 1.387 . S
H1304 C1311 0.950 . S
C1305 C1303 1.387 . S
C1305 C1307 1.390 . S
C1305 H1309 0.950 . S
H1306 C1302 0.950 . S
C1307 C1305 1.390 . S
C1307 C1308 1.387 . S
C1307 H1310 0.950 . S
C1308 C1307 1.387 . S
C1308 C1311 1.387 . S
H1309 C1305 0.950 . S
H1310 C1307 0.950 . S
C1311 C1302 1.390 . S
C1311 H1304 0.950 . S
C1311 C1308 1.387 . S
C1312 C1313 1.387 . S
C1312 H1316 0.950 . S
C1312 C1321 1.390 . S
C1313 C1312 1.387 . S
C1313 C1315 1.387 . S
H1314 C1321 0.950 . S
C1315 C1313 1.387 . S
C1315 C1317 1.390 . S
C1315 H1319 0.950 . S
H1316 C1312 0.950 . S
C1317 C1315 1.390 . S
C1317 C1318 1.387 . S
C1317 H1320 0.950 . S
C1318 C1317 1.387 . S
C1318 C1321 1.387 . S
H1319 C1315 0.950 . S
H1320 C1317 0.950 . S
C1321 C1312 1.390 . S
C1321 H1314 0.950 . S
C1321 C1318 1.387 . S
C1322 C1323 1.387 . S
C1322 H1326 0.950 . S
C1322 C1331 1.390 . S
C1323 C1322 1.387 . S
C1323 C1325 1.387 . S
H1324 C1331 0.950 . S
C1325 C1323 1.387 . S
C1325 C1327 1.390 . S
C1325 H1329 0.950 . S
H1326 C1322 0.950 . S
C1327 C1325 1.390 . S
C1327 C1328 1.387 . S
C1327 H1330 0.950 . S
C1328 C1327 1.387 . S
C1328 C1331 1.387 . S
H1329 C1325 0.950 . S
H1330 C1327 0.950 . S
C1331 C1322 1.390 . S
C1331 H1324 0.950 . S
C1331 C1328 1.387 . S
C1332 C1333 1.387 . S
C1332 H1336 0.950 . S
C1332 C1341 1.390 . S
C1333 C1332 1.387 . S
C1333 C1335 1.387 . S
H1334 C1341 0.950 . S
C1335 C1333 1.387 . S
C1335 C1337 1.390 . S
C1335 H1339 0.950 . S
H1336 C1332 0.950 . S
C1337 C1335 1.390 . S
C1337 C1338 1.387 . S
C1337 H1340 0.950 . S
C1338 C1337 1.387 . S
C1338 C1341 1.387 . S
H1339 C1335 0.950 . S
H1340 C1337 0.950 . S
C1341 C1332 1.390 . S
C1341 H1334 0.950 . S
C1341 C1338 1.387 . S
C1342 C1343 1.387 . S
C1342 H1346 0.950 . S
C1342 C1351 1.390 . S
C1343 C1342 1.387 . S
C1343 C1345 1.387 . S
H1344 C1351 0.950 . S
C1345 C1343 1.387 . S
C1345 C1347 1.390 . S
C1345 H1349 0.950 . S
H1346 C1342 0.950 . S
C1347 C1345 1.390 . S
C1347 C1348 1.387 . S
C1347 H1350 0.950 . S
C1348 C1347 1.387 . S
C1348 C1351 1.387 . S
H1349 C1345 0.950 . S
H1350 C1347 0.950 . S
C1351 C1342 1.390 . S
C1351 H1344 0.950 . S
C1351 C1348 1.387 . S
C1352 C1353 1.387 . S
C1352 H1356 0.950 . S
C1352 C1361 1.390 . S
C1353 C1352 1.387 . S
C1353 C1355 1.387 . S
H1354 C1361 0.950 . S
C1355 C1353 1.387 . S
C1355 C1357 1.390 . S
C1355 H1359 0.950 . S
H1356 C1352 0.950 . S
C1357 C1355 1.390 . S
C1357 C1358 1.387 . S
C1357 H1360 0.950 . S
C1358 C1357 1.387 . S
C1358 C1361 1.387 . S
H1359 C1355 0.950 . S
H1360 C1357 0.950 . S
C1361 C1352 1.390 . S
C1361 H1354 0.950 . S
C1361 C1358 1.387 . S
C1362 C1363 1.387 . S
C1362 H1366 0.950 . S
C1362 C1371 1.390 . S
C1363 C1362 1.387 . S
C1363 C1365 1.387 . S
H1364 C1371 0.950 . S
C1365 C1363 1.387 . S
C1365 C1367 1.390 . S
C1365 H1369 0.950 . S
H1366 C1362 0.950 . S
C1367 C1365 1.390 . S
C1367 C1368 1.387 . S
C1367 H1370 0.950 . S
C1368 C1367 1.387 . S
C1368 C1371 1.387 . S
H1369 C1365 0.950 . S
H1370 C1367 0.950 . S
C1371 C1362 1.390 . S
C1371 H1364 0.950 . S
C1371 C1368 1.387 . S
C1372 C1373 1.387 . S
C1372 H1376 0.950 . S
C1372 C1381 1.390 . S
C1373 C1372 1.387 . S
C1373 C1375 1.387 . S
H1374 C1381 0.950 . S
C1375 C1373 1.387 . S
C1375 C1377 1.390 . S
C1375 H1379 0.950 . S
H1376 C1372 0.950 . S
C1377 C1375 1.390 . S
C1377 C1378 1.387 . S
C1377 H1380 0.950 . S
C1378 C1377 1.387 . S
C1378 C1381 1.387 . S
H1379 C1375 0.950 . S
H1380 C1377 0.950 . S
C1381 C1372 1.390 . S
C1381 H1374 0.950 . S
C1381 C1378 1.387 . S
C1382 C1383 1.387 . S
C1382 H1386 0.950 . S
C1382 C1391 1.390 . S
C1383 C1382 1.387 . S
C1383 C1385 1.387 . S
H1384 C1391 0.950 . S
C1385 C1383 1.387 . S
C1385 C1387 1.390 . S
C1385 H1389 0.950 . S
H1386 C1382 0.950 . S
C1387 C1385 1.390 . S
C1387 C1388 1.387 . S
C1387 H1390 0.950 . S
C1388 C1387 1.387 . S
C1388 C1391 1.387 . S
H1389 C1385 0.950 . S
H1390 C1387 0.950 . S
C1391 C1382 1.390 . S
C1391 H1384 0.950 . S
C1391 C1388 1.387 . S
C1392 C1393 1.387 . S
C1392 H1396 0.950 . S
C1392 C1401 1.390 . S
C1393 C1392 1.387 . S
C1393 C1395 1.387 . S
H1394 C1401 0.950 . S
C1395 C1393 1.387 . S
C1395 C1397 1.390 . S
C1395 H1399 0.950 . S
H1396 C1392 0.950 . S
C1397 C1395 1.390 . S
C1397 C1398 1.387 . S
C1397 H1400 0.950 . S
C1398 C1397 1.387 . S
C1398 C1401 1.387 . S
H1399 C1395 0.950 . S
H1400 C1397 0.950 . S
C1401 C1392 1.390 . S
C1401 H1394 0.950 . S
C1401 C1398 1.387 . S
C1402 C1403 1.387 . S
C1402 H1406 0.950 . S
C1402 C1411 1.390 . S
C1403 C1402 1.387 . S
C1403 C1405 1.387 . S
H1404 C1411 0.950 . S
C1405 C1403 1.387 . S
C1405 C1407 1.390 . S
C1405 H1409 0.950 . S
H1406 C1402 0.950 . S
C1407 C1405 1.390 . S
C1407 C1408 1.387 . S
C1407 H1410 0.950 . S
C1408 C1407 1.387 . S
C1408 C1411 1.387 . S
H1409 C1405 0.950 . S
H1410 C1407 0.950 . S
C1411 C1402 1.390 . S
C1411 H1404 0.950 . S
C1411 C1408 1.387 . S
C1412 C1413 1.387 . S
C1412 H1416 0.950 . S
C1412 C1421 1.390 . S
C1413 C1412 1.387 . S
C1413 C1415 1.387 . S
H1414 C1421 0.950 . S
C1415 C1413 1.387 . S
C1415 C1417 1.390 . S
C1415 H1419 0.950 . S
H1416 C1412 0.950 . S
C1417 C1415 1.390 . S
C1417 C1418 1.387 . S
C1417 H1420 0.950 . S
C1418 C1417 1.387 . S
C1418 C1421 1.387 . S
H1419 C1415 0.950 . S
H1420 C1417 0.950 . S
C1421 C1412 1.390 . S
C1421 H1414 0.950 . S
C1421 C1418 1.387 . S
C1422 C1423 1.387 . S
C1422 H1426 0.950 . S
C1422 C1431 1.390 . S
C1423 C1422 1.387 . S
C1423 C1425 1.387 . S
H1424 C1431 0.950 . S
C1425 C1423 1.387 . S
C1425 C1427 1.390 . S
C1425 H1429 0.950 . S
H1426 C1422 0.950 . S
C1427 C1425 1.390 . S
C1427 C1428 1.387 . S
C1427 H1430 0.950 . S
C1428 C1427 1.387 . S
C1428 C1431 1.387 . S
H1429 C1425 0.950 . S
H1430 C1427 0.950 . S
C1431 C1422 1.390 . S
C1431 H1424 0.950 . S
C1431 C1428 1.387 . S
C1432 C1433 1.387 . S
C1432 H1436 0.950 . S
C1432 C1441 1.390 . S
C1433 C1432 1.387 . S
C1433 C1435 1.387 . S
H1434 C1441 0.950 . S
C1435 C1433 1.387 . S
C1435 C1437 1.390 . S
C1435 H1439 0.950 . S
H1436 C1432 0.950 . S
C1437 C1435 1.390 . S
C1437 C1438 1.387 . S
C1437 H1440 0.950 . S
C1438 C1437 1.387 . S
C1438 C1441 1.387 . S
H1439 C1435 0.950 . S
H1440 C1437 0.950 . S
C1441 C1432 1.390 . S
C1441 H1434 0.950 . S
C1441 C1438 1.387 . S
C1442 C1443 1.387 . S
C1442 H1446 0.950 . S
C1442 C1451 1.390 . S
C1443 C1442 1.387 . S
C1443 C1445 1.387 . S
H1444 C1451 0.950 . S
C1445 C1443 1.387 . S
C1445 C1447 1.390 . S
C1445 H1449 0.950 . S
H1446 C1442 0.950 . S
C1447 C1445 1.390 . S
C1447 C1448 1.387 . S
C1447 H1450 0.950 . S
C1448 C1447 1.387 . S
C1448 C1451 1.387 . S
H1449 C1445 0.950 . S
H1450 C1447 0.950 . S
C1451 C1442 1.390 . S
C1451 H1444 0.950 . S
C1451 C1448 1.387 . S
C1452 C1453 1.387 . S
C1452 H1456 0.950 . S
C1452 C1461 1.390 . S
C1453 C1452 1.387 . S
C1453 C1455 1.387 . S
H1454 C1461 0.950 . S
C1455 C1453 1.387 . S
C1455 C1457 1.390 . S
C1455 H1459 0.950 . S
H1456 C1452 0.950 . S
C1457 C1455 1.390 . S
C1457 C1458 1.387 . S
C1457 H1460 0.950 . S
C1458 C1457 1.387 . S
C1458 C1461 1.387 . S
H1459 C1455 0.950 . S
H1460 C1457 0.950 . S
C1461 C1452 1.390 . S
C1461 H1454 0.950 . S
C1461 C1458 1.387 . S
C1462 C1463 1.387 . S
C1462 H1466 0.950 . S
C1462 C1471 1.390 . S
C1463 C1462 1.387 . S
C1463 C1465 1.387 . S
H1464 C1471 0.950 . S
C1465 C1463 1.387 . S
C1465 C1467 1.390 . S
C1465 H1469 0.950 . S
H1466 C1462 0.950 . S
C1467 C1465 1.390 . S
C1467 C1468 1.387 . S
C1467 H1470 0.950 . S
C1468 C1467 1.387 . S
C1468 C1471 1.387 . S
H1469 C1465 0.950 . S
H1470 C1467 0.950 . S
C1471 C1462 1.390 . S
C1471 H1464 0.950 . S
C1471 C1468 1.387 . S
C1472 C1473 1.387 . S
C1472 H1476 0.950 . S
C1472 C1481 1.390 . S
C1473 C1472 1.387 . S
C1473 C1475 1.387 . S
H1474 C1481 0.950 . S
C1475 C1473 1.387 . S
C1475 C1477 1.390 . S
C1475 H1479 0.950 . S
H1476 C1472 0.950 . S
C1477 C1475 1.390 . S
C1477 C1478 1.387 . S
C1477 H1480 0.950 . S
C1478 C1477 1.387 . S
C1478 C1481 1.387 . S
H1479 C1475 0.950 . S
H1480 C1477 0.950 . S
C1481 C1472 1.390 . S
C1481 H1474 0.950 . S
C1481 C1478 1.387 . S
C1482 C1483 1.387 . S
C1482 H1486 0.950 . S
C1482 C1491 1.390 . S
C1483 C1482 1.387 . S
C1483 C1485 1.387 . S
H1484 C1491 0.950 . S
C1485 C1483 1.387 . S
C1485 C1487 1.390 . S
C1485 H1489 0.950 . S
H1486 C1482 0.950 . S
C1487 C1485 1.390 . S
C1487 C1488 1.387 . S
C1487 H1490 0.950 . S
C1488 C1487 1.387 . S
C1488 C1491 1.387 . S
H1489 C1485 0.950 . S
H1490 C1487 0.950 . S
C1491 C1482 1.390 . S
C1491 H1484 0.950 . S
C1491 C1488 1.387 . S
C1492 C1493 1.387 . S
C1492 H1496 0.950 . S
C1492 C1501 1.390 . S
C1493 C1492 1.387 . S
C1493 C1495 1.387 . S
H1494 C1501 0.950 . S
C1495 C1493 1.387 . S
C1495 C1497 1.390 . S
C1495 H1499 0.950 . S
H1496 C1492 0.950 . S
C1497 C1495 1.390 . S
C1497 C1498 1.387 . S
C1497 H1500 0.950 . S
C1498 C1497 1.387 . S
C1498 C1501 1.387 . S
H1499 C1495 0.950 . S
H1500 C1497 0.950 . S
C1501 C1492 1.390 . S
C1501 H1494 0.950 . S
C1501 C1498 1.387 . S
C1502 C1503 1.387 . S
C1502 H1506 0.950 . S
C1502 C1511 1.390 . S
C1503 C1502 1.387 . S
C1503 C1505 1.387 . S
H1504 C1511 0.950 . S
C1505 C1503 1.387 . S
C1505 C1507 1.390 . S
C1505 H1509 0.950 . S
H1506 C1502 0.950 . S
C1507 C1505 1.390 . S
C1507 C1508 1.387 . S
C1507 H1510 0.950 . S
C1508 C1507 1.387 . S
C1508 C1511 1.387 . S
H1509 C1505 0.950 . S
H1510 C1507 0.950 . S
C1511 C1502 1.390 . S
C1511 H1504 0.950 . S
C1511 C1508 1.387 . S
C1512 C1513 1.387 . S
C1512 H1516 0.950 . S
C1512 C1521 1.390 . S
C1513 C1512 1.387 . S
C1513 C1515 1.387 . S
H1514 C1521 0.950 . S
C1515 C1513 1.387 . S
C1515 C1517 1.390 . S
C1515 H1519 0.950 . S
H1516 C1512 0.950 . S
C1517 C1515 1.390 . S
C1517 C1518 1.387 . S
C1517 H1520 0.950 . S
C1518 C1517 1.387 . S
C1518 C1521 1.387 . S
H1519 C1515 0.950 . S
H1520 C1517 0.950 . S
C1521 C1512 1.390 . S
C1521 H1514 0.950 . S
C1521 C1518 1.387 . S
C1522 C1523 1.387 . S
C1522 H1526 0.950 . S
C1522 C1531 1.390 . S
C1523 C1522 1.387 . S
C1523 C1525 1.387 . S
H1524 C1531 0.950 . S
C1525 C1523 1.387 . S
C1525 C1527 1.390 . S
C1525 H1529 0.950 . S
H1526 C1522 0.950 . S
C1527 C1525 1.390 . S
C1527 C1528 1.387 . S
C1527 H1530 0.950 . S
C1528 C1527 1.387 . S
C1528 C1531 1.387 . S
H1529 C1525 0.950 . S
H1530 C1527 0.950 . S
C1531 C1522 1.390 . S
C1531 H1524 0.950 . S
C1531 C1528 1.387 . S
C1532 C1533 1.387 . S
C1532 H1536 0.950 . S
C1532 C1541 1.390 . S
C1533 C1532 1.387 . S
C1533 C1535 1.387 . S
H1534 C1541 0.950 . S
C1535 C1533 1.387 . S
C1535 C1537 1.390 . S
C1535 H1539 0.950 . S
H1536 C1532 0.950 . S
C1537 C1535 1.390 . S
C1537 C1538 1.387 . S
C1537 H1540 0.950 . S
C1538 C1537 1.387 . S
C1538 C1541 1.387 . S
H1539 C1535 0.950 . S
H1540 C1537 0.950 . S
C1541 C1532 1.390 . S
C1541 H1534 0.950 . S
C1541 C1538 1.387 . S
C1542 C1543 1.387 . S
C1542 H1546 0.950 . S
C1542 C1551 1.390 . S
C1543 C1542 1.387 . S
C1543 C1545 1.387 . S
H1544 C1551 0.950 . S
C1545 C1543 1.387 . S
C1545 C1547 1.390 . S
C1545 H1549 0.950 . S
H1546 C1542 0.950 . S
C1547 C1545 1.390 . S
C1547 C1548 1.387 . S
C1547 H1550 0.950 . S
C1548 C1547 1.387 . S
C1548 C1551 1.387 . S
H1549 C1545 0.950 . S
H1550 C1547 0.950 . S
C1551 C1542 1.390 . S
C1551 H1544 0.950 . S
C1551 C1548 1.387 . S
C1552 C1553 1.387 . S
C1552 H1556 0.950 . S
C1552 C1561 1.390 . S
C1553 C1552 1.387 . S
C1553 C1555 1.387 . S
H1554 C1561 0.950 . S
C1555 C1553 1.387 . S
C1555 C1557 1.390 . S
C1555 H1559 0.950 . S
H1556 C1552 0.950 . S
C1557 C1555 1.390 . S
C1557 C1558 1.387 . S
C1557 H1560 0.950 . S
C1558 C1557 1.387 . S
C1558 C1561 1.387 . S
H1559 C1555 0.950 . S
H1560 C1557 0.950 . S
C1561 C1552 1.390 . S
C1561 H1554 0.950 . S
C1561 C1558 1.387 . S
C1562 C1563 1.387 . S
C1562 H1566 0.950 . S
C1562 C1571 1.390 . S
C1563 C1562 1.387 . S
C1563 C1565 1.387 . S
H1564 C1571 0.950 . S
C1565 C1563 1.387 . S
C1565 C1567 1.390 . S
C1565 H1569 0.950 . S
H1566 C1562 0.950 . S
C1567 C1565 1.390 . S
C1567 C1568 1.387 . S
C1567 H1570 0.950 . S
C1568 C1567 1.387 . S
C1568 C1571 1.387 . S
H1569 C1565 0.950 . S
H1570 C1567 0.950 . S
C1571 C1562 1.390 . S
C1571 H1564 0.950 . S
C1571 C1568 1.387 . S
C1572 C1573 1.387 . S
C1572 H1576 0.950 . S
C1572 C1581 1.390 . S
C1573 C1572 1.387 . S
C1573 C1575 1.387 . S
H1574 C1581 0.950 . S
C1575 C1573 1.387 . S
C1575 C1577 1.390 . S
C1575 H1579 0.950 . S
H1576 C1572 0.950 . S
C1577 C1575 1.390 . S
C1577 C1578 1.387 . S
C1577 H1580 0.950 . S
C1578 C1577 1.387 . S
C1578 C1581 1.387 . S
H1579 C1575 0.950 . S
H1580 C1577 0.950 . S
C1581 C1572 1.390 . S
C1581 H1574 0.950 . S
C1581 C1578 1.387 . S
C1582 C1583 1.387 . S
C1582 H1586 0.950 . S
C1582 C1591 1.390 . S
C1583 C1582 1.387 . S
C1583 C1585 1.387 . S
H1584 C1591 0.950 . S
C1585 C1583 1.387 . S
C1585 C1587 1.390 . S
C1585 H1589 0.950 . S
H1586 C1582 0.950 . S
C1587 C1585 1.390 . S
C1587 C1588 1.387 . S
C1587 H1590 0.950 . S
C1588 C1587 1.387 . S
C1588 C1591 1.387 . S
H1589 C1585 0.950 . S
H1590 C1587 0.950 . S
C1591 C1582 1.390 . S
C1591 H1584 0.950 . S
C1591 C1588 1.387 . S
C1592 C1593 1.387 . S
C1592 H1596 0.950 . S
C1592 C1601 1.390 . S
C1593 C1592 1.387 . S
C1593 C1595 1.387 . S
H1594 C1601 0.950 . S
C1595 C1593 1.387 . S
C1595 C1597 1.390 . S
C1595 H1599 0.950 . S
H1596 C1592 0.950 . S
C1597 C1595 1.390 . S
C1597 C1598 1.387 . S
C1597 H1600 0.950 . S
C1598 C1597 1.387 . S
C1598 C1601 1.387 . S
H1599 C1595 0.950 . S
H1600 C1597 0.950 . S
C1601 C1592 1.390 . S
C1601 H1594 0.950 . S
C1601 C1598 1.387 . S
C1602 C1603 1.387 . S
C1602 H1606 0.950 . S
C1602 C1611 1.390 . S
C1603 C1602 1.387 . S
C1603 C1605 1.387 . S
H1604 C1611 0.950 . S
C1605 C1603 1.387 . S
C1605 C1607 1.390 . S
C1605 H1609 0.950 . S
H1606 C1602 0.950 . S
C1607 C1605 1.390 . S
C1607 C1608 1.387 . S
C1607 H1610 0.950 . S
C1608 C1607 1.387 . S
C1608 C1611 1.387 . S
H1609 C1605 0.950 . S
H1610 C1607 0.950 . S
C1611 C1602 1.390 . S
C1611 H1604 0.950 . S
C1611 C1608 1.387 . S
C1612 C1613 1.387 . S
C1612 H1616 0.950 . S
C1612 C1621 1.390 . S
C1613 C1612 1.387 . S
C1613 C1615 1.387 . S
H1614 C1621 0.950 . S
C1615 C1613 1.387 . S
C1615 C1617 1.390 . S
C1615 H1619 0.950 . S
H1616 C1612 0.950 . S
C1617 C1615 1.390 . S
C1617 C1618 1.387 . S
C1617 H1620 0.950 . S
C1618 C1617 1.387 . S
C1618 C1621 1.387 . S
H1619 C1615 0.950 . S
H1620 C1617 0.950 . S
C1621 C1612 1.390 . S
C1621 H1614 0.950 . S
C1621 C1618 1.387 . S
C1622 C1623 1.387 . S
C1622 H1626 0.950 . S
C1622 C1631 1.390 . S
C1623 C1622 1.387 . S
C1623 C1625 1.387 . S
H1624 C1631 0.950 . S
C1625 C1623 1.387 . S
C1625 C1627 1.390 . S
C1625 H1629 0.950 . S
H1626 C1622 0.950 . S
C1627 C1625 1.390 . S
C1627 C1628 1.387 . S
C1627 H1630 0.950 . S
C1628 C1627 1.387 . S
C1628 C1631 1.387 . S
H1629 C1625 0.950 . S
H1630 C1627 0.950 . S
C1631 C1622 1.390 . S
C1631 H1624 0.950 . S
C1631 C1628 1.387 . S
C673 C400 1.197 . S
C678 C8 1.196 . S
C683 C22 1.198 . S
C688 C414 1.196 . S
C693 C428 1.197 . S
C698 C36 1.197 . S
C703 C50 1.196 . S
C708 C442 1.198 . S
C713 C344 1.197 . S
C718 C64 1.197 . S
C723 C78 1.198 . S
C728 C358 1.196 . S
C733 C372 1.197 . S
C738 C92 1.197 . S
C743 C106 1.198 . S
C748 C386 1.196 . S
C753 C540 1.197 . S
C758 C120 1.197 . S
C763 C554 1.197 . S
C768 C134 1.197 . S
C773 C512 1.197 . S
C778 C148 1.197 . S
C783 C162 1.197 . S
C788 C526 1.197 . S
C793 C484 1.197 . S
C798 C176 1.197 . S
C803 C498 1.197 . S
C808 C190 1.196 . S
C813 C204 1.197 . S
C818 C456 1.197 . S
C823 C470 1.197 . S
C828 C218 1.197 . S
C833 C232 1.197 . S
C838 C638 1.197 . S
C843 C610 1.196 . S
C848 C246 1.198 . S
C853 C624 1.197 . S
C858 C260 1.197 . S
C863 C582 1.196 . S
C868 C274 1.198 . S
C873 C596 1.197 . S
C878 C288 1.197 . S
C883 C302 1.196 . S
C888 C568 1.198 . S
C893 C316 1.197 . S
C898 C666 1.197 . S
C903 C652 1.197 . S
C908 C330 1.197 . S
C913 C105 1.446 . S
C918 C7 1.442 . S
C923 C63 1.443 . S
C928 C21 1.445 . S
C933 C77 1.442 . S
C938 C35 1.446 . S
C943 C91 1.443 . S
C948 C49 1.442 . S
C953 C287 1.441 . S
C958 C119 1.445 . S
C963 C245 1.441 . S
C968 C133 1.446 . S
C973 C259 1.445 . S
C978 C147 1.444 . S
C983 C273 1.441 . S
C988 C161 1.444 . S
C993 C329 1.446 . S
C998 C175 1.441 . S
C1003 C301 1.442 . S
C1008 C189 1.443 . S
C1013 C203 1.443 . S
C1018 C315 1.442 . S
C1023 C231 1.446 . S
C1028 C217 1.442 . S
C1033 C441 1.441 . S
C1038 C343 1.445 . S
C1043 C399 1.443 . S
C1048 C357 1.446 . S
C1053 C371 1.445 . S
C1058 C413 1.441 . S
C1063 C385 1.441 . S
C1068 C427 1.444 . S
C1073 C455 1.443 . S
C1078 C623 1.442 . S
C1083 C469 1.442 . S
C1088 C581 1.446 . S
C1093 C595 1.445 . S
C1098 C483 1.444 . S
C1103 C609 1.441 . S
C1108 C497 1.444 . S
C1113 C665 1.444 . S
C1118 C511 1.445 . S
C1123 C637 1.442 . S
C1128 C525 1.446 . S
C1133 C651 1.443 . S
C1138 C539 1.442 . S
C1143 C553 1.446 . S
C1148 C567 1.442 . S
C1153 C3 1.349 . S
C1158 C121 1.259 . S
C1163 C135 1.256 . S
C1168 C17 1.350 . S
C1173 C149 1.254 . S
C1178 C31 1.350 . S
C1183 C163 1.255 . S
C1188 C45 1.350 . S
C1193 C59 1.350 . S
C1198 C177 1.255 . S
C1203 C191 1.257 . S
C1208 C73 1.350 . S
C1213 C87 1.348 . S
C1218 C205 1.257 . S
C1223 C219 1.257 . S
C1228 C101 1.348 . S
C1233 C233 1.258 . S
C1238 C115 1.348 . S
C1243 C331 1.259 . S
C1248 C129 1.348 . S
C1253 C143 1.350 . S
C1258 C303 1.257 . S
C1263 C157 1.348 . S
C1268 C317 1.258 . S
C1273 C171 1.348 . S
C1278 C247 1.256 . S
C1283 C185 1.350 . S
C1288 C261 1.257 . S
C1293 C199 1.348 . S
C1298 C275 1.255 . S
C1303 C213 1.350 . S
C1308 C289 1.254 . S
C1313 C227 1.349 . S
C1318 C9 1.254 . S
C1323 C241 1.348 . S
C1328 C65 1.257 . S
C1333 C255 1.348 . S
C1338 C79 1.255 . S
C1343 C269 1.350 . S
C1348 C93 1.256 . S
C1353 C283 1.350 . S
C1358 C107 1.257 . S
C1363 C297 1.348 . S
C1368 C37 1.255 . S
C1373 C51 1.257 . S
C1378 C311 1.350 . S
C1383 C23 1.256 . S
C1388 C325 1.348 . S
C1393 C457 1.256 . S
C1398 C339 1.350 . S
C1403 C471 1.256 . S
C1408 C353 1.350 . S
C1413 C485 1.258 . S
C1418 C367 1.348 . S
C1423 C499 1.258 . S
C1428 C381 1.348 . S
C1433 C513 1.254 . S
C1438 C395 1.350 . S
C1443 C409 1.348 . S
C1448 C527 1.255 . S
C1453 C541 1.258 . S
C1458 C423 1.348 . S
C1463 C437 1.348 . S
C1468 C555 1.256 . S
C1473 C569 1.255 . S
C1478 C451 1.348 . S
C1483 C465 1.349 . S
C1488 C667 1.254 . S
C1493 C479 1.348 . S
C1498 C639 1.255 . S
C1503 C653 1.254 . S
C1508 C493 1.349 . S
C1513 C583 1.255 . S
C1518 C507 1.348 . S
C1523 C521 1.349 . S
C1528 C597 1.259 . S
C1533 C535 1.348 . S
C1538 C611 1.255 . S
C1543 C625 1.258 . S
C1548 C549 1.348 . S
C1553 C345 1.258 . S
C1558 C563 1.348 . S
C1563 C401 1.256 . S
C1568 C577 1.348 . S
C1573 C415 1.255 . S
C1578 C591 1.348 . S
C1583 C605 1.350 . S
C1588 C429 1.256 . S
C1593 C443 1.254 . S
C1598 C619 1.349 . S
C1603 C373 1.254 . S
C1608 C633 1.350 . S
C1613 C647 1.348 . S
C1618 C387 1.256 . S
C1623 C359 1.255 . S
C1628 C661 1.348 . S
