# Generated by pormake.
# Topology vbj, (5)-cn, num edge types: 1
# Building blocks:
#     Node 0, Type 0, BuildingBlock: BEQFEK_clean_sbu_0, # of connection points: 5
#     Node 1, Type 0, BuildingBlock: BEQFEK_clean_sbu_0, # of connection points: 5
#     Node 2, Type 0, BuildingBlock: BEQFEK_clean_sbu_0, # of connection points: 5
#     Node 3, Type 0, BuildingBlock: BEQFEK_clean_sbu_0, # of connection points: 5
#     Node 4, Type 0, BuildingBlock: BEQFEK_clean_sbu_0, # of connection points: 5
#     Node 5, Type 0, BuildingBlock: BEQFEK_clean_sbu_0, # of connection points: 5
#     Node 6, Type 0, BuildingBlock: BEQFEK_clean_sbu_0, # of connection points: 5
#     Node 7, Type 0, BuildingBlock: BEQFEK_clean_sbu_0, # of connection points: 5
#     Node 8, Type 0, BuildingBlock: BEQFEK_clean_sbu_0, # of connection points: 5
#     Node 9, Type 0, BuildingBlock: BEQFEK_clean_sbu_0, # of connection points: 5
#     Node 10, Type 0, BuildingBlock: BEQFEK_clean_sbu_0, # of connection points: 5
#     Node 11, Type 0, BuildingBlock: BEQFEK_clean_sbu_0, # of connection points: 5
#     Node 12, Type 0, BuildingBlock: BEQFEK_clean_sbu_0, # of connection points: 5
#     Node 13, Type 0, BuildingBlock: BEQFEK_clean_sbu_0, # of connection points: 5
#     Node 14, Type 0, BuildingBlock: BEQFEK_clean_sbu_0, # of connection points: 5
#     Node 15, Type 0, BuildingBlock: BEQFEK_clean_sbu_0, # of connection points: 5
#     Edge 16, Type (0, 0), BuildingBlock: AJUNOK_clean_linker_0, # of connection points: 2
#     Edge 17, Type (0, 0), BuildingBlock: AJUNOK_clean_linker_0, # of connection points: 2
#     Edge 18, Type (0, 0), BuildingBlock: AJUNOK_clean_linker_0, # of connection points: 2
#     Edge 19, Type (0, 0), BuildingBlock: AJUNOK_clean_linker_0, # of connection points: 2
#     Edge 20, Type (0, 0), BuildingBlock: AJUNOK_clean_linker_0, # of connection points: 2
#     Edge 21, Type (0, 0), BuildingBlock: AJUNOK_clean_linker_0, # of connection points: 2
#     Edge 22, Type (0, 0), BuildingBlock: AJUNOK_clean_linker_0, # of connection points: 2
#     Edge 23, Type (0, 0), BuildingBlock: AJUNOK_clean_linker_0, # of connection points: 2
#     Edge 24, Type (0, 0), BuildingBlock: AJUNOK_clean_linker_0, # of connection points: 2
#     Edge 25, Type (0, 0), BuildingBlock: AJUNOK_clean_linker_0, # of connection points: 2
#     Edge 26, Type (0, 0), BuildingBlock: AJUNOK_clean_linker_0, # of connection points: 2
#     Edge 27, Type (0, 0), BuildingBlock: AJUNOK_clean_linker_0, # of connection points: 2
#     Edge 28, Type (0, 0), BuildingBlock: AJUNOK_clean_linker_0, # of connection points: 2
#     Edge 29, Type (0, 0), BuildingBlock: AJUNOK_clean_linker_0, # of connection points: 2
#     Edge 30, Type (0, 0), BuildingBlock: AJUNOK_clean_linker_0, # of connection points: 2
#     Edge 31, Type (0, 0), BuildingBlock: AJUNOK_clean_linker_0, # of connection points: 2
#     Edge 32, Type (0, 0), BuildingBlock: AJUNOK_clean_linker_0, # of connection points: 2
#     Edge 33, Type (0, 0), BuildingBlock: AJUNOK_clean_linker_0, # of connection points: 2
#     Edge 34, Type (0, 0), BuildingBlock: AJUNOK_clean_linker_0, # of connection points: 2
#     Edge 35, Type (0, 0), BuildingBlock: AJUNOK_clean_linker_0, # of connection points: 2
#     Edge 36, Type (0, 0), BuildingBlock: AJUNOK_clean_linker_0, # of connection points: 2
#     Edge 37, Type (0, 0), BuildingBlock: AJUNOK_clean_linker_0, # of connection points: 2
#     Edge 38, Type (0, 0), BuildingBlock: AJUNOK_clean_linker_0, # of connection points: 2
#     Edge 39, Type (0, 0), BuildingBlock: AJUNOK_clean_linker_0, # of connection points: 2
#     Edge 40, Type (0, 0), BuildingBlock: AJUNOK_clean_linker_0, # of connection points: 2
#     Edge 41, Type (0, 0), BuildingBlock: AJUNOK_clean_linker_0, # of connection points: 2
#     Edge 42, Type (0, 0), BuildingBlock: AJUNOK_clean_linker_0, # of connection points: 2
#     Edge 43, Type (0, 0), BuildingBlock: AJUNOK_clean_linker_0, # of connection points: 2
#     Edge 44, Type (0, 0), BuildingBlock: AJUNOK_clean_linker_0, # of connection points: 2
#     Edge 45, Type (0, 0), BuildingBlock: AJUNOK_clean_linker_0, # of connection points: 2
#     Edge 46, Type (0, 0), BuildingBlock: AJUNOK_clean_linker_0, # of connection points: 2
#     Edge 47, Type (0, 0), BuildingBlock: AJUNOK_clean_linker_0, # of connection points: 2
#     Edge 48, Type (0, 0), BuildingBlock: AJUNOK_clean_linker_0, # of connection points: 2
#     Edge 49, Type (0, 0), BuildingBlock: AJUNOK_clean_linker_0, # of connection points: 2
#     Edge 50, Type (0, 0), BuildingBlock: AJUNOK_clean_linker_0, # of connection points: 2
#     Edge 51, Type (0, 0), BuildingBlock: AJUNOK_clean_linker_0, # of connection points: 2
#     Edge 52, Type (0, 0), BuildingBlock: AJUNOK_clean_linker_0, # of connection points: 2
#     Edge 53, Type (0, 0), BuildingBlock: AJUNOK_clean_linker_0, # of connection points: 2
#     Edge 54, Type (0, 0), BuildingBlock: AJUNOK_clean_linker_0, # of connection points: 2
#     Edge 55, Type (0, 0), BuildingBlock: AJUNOK_clean_linker_0, # of connection points: 2
# Relax obj value: 0.103
# Max RMSD: 0.129
# Mean RMSD: 0.129
data_MOF--net-vbj--node1-BEQFEK_clean_sbu_0--edge1-AJUNOK_clean_linker_0
_symmetry_space_group_name_H-M    P1
_symmetry_Int_Tables_number       1
_symmetry_cell_setting            triclinic
loop_
_symmetry_equiv_pos_as_xyz
'x, y, z'
_cell_length_a     19.67386
_cell_length_b     57.792474
_cell_length_c     34.454422
_cell_angle_alpha  89.903741
_cell_angle_beta   90.075446
_cell_angle_gamma 90.044814
loop_
_atom_site_label
_atom_site_type_symbol
_atom_site_fract_x
_atom_site_fract_y
_atom_site_fract_z
_atom_type_partial_charge
Co0 Co 0.05439 0.16737 0.08617 0.0
Co1 Co 0.04889 0.11248 0.0827 0.0
C2 C 0.04179 0.13877 0.15765 0.0
O3 O 0.04654 0.15835 0.14093 0.0
O4 O 0.04251 0.12006 0.13833 0.0
C5 C 0.05627 0.21515 0.11045 0.0
O6 O 0.06545 0.20626 0.14515 0.0
C7 C 0.12016 0.06845 0.09343 0.0
C8 C 0.05986 0.04451 0.05733 0.0
C9 C 0.11864 0.04586 0.07955 0.0
N10 N 0.06543 0.07981 0.07969 0.0
N11 N 0.02874 0.06523 0.05887 0.0
C12 C 0.17639 0.07998 0.11545 0.0
H13 H 0.1743 0.09902 0.11162 0.0
H14 H 0.22663 0.07334 0.10601 0.0
H15 H 0.17022 0.07623 0.14683 0.0
C16 C 0.17988 0.15898 0.04112 0.0
N17 N 0.12619 0.15147 0.06174 0.0
N18 N 0.12047 0.12888 0.05767 0.0
C19 C 0.16859 0.12147 0.03293 0.0
C20 C 0.20845 0.14014 0.02215 0.0
C21 C 0.20202 0.18373 0.0396 0.0
H22 H 0.19557 0.1918 0.06857 0.0
H23 H 0.2558 0.18522 0.03022 0.0
H24 H 0.16916 0.19326 0.01884 0.0
O25 O 0.97083 0.15911 0.05862 0.0
O26 O 0.96238 0.12067 0.05681 0.0
H27 H 0.19202 0.09849 -0.01465 0.0
H28 H 0.20232 0.08626 0.03284 0.0
C29 C 0.17011 0.09786 0.015 0.0
H30 H 0.11809 0.09064 0.01305 0.0
H31 H 0.98452 0.06978 0.04398 0.0
O32 O 0.05675 0.20187 0.08104 0.0
C33 C 0.93965 0.14078 0.04883 0.0
Co34 Co 0.4315 0.8586 0.08307 0.0
Co35 Co 0.41705 0.9133 0.07721 0.0
C36 C 0.44422 0.8899 0.15246 0.0
O37 O 0.44192 0.87013 0.13637 0.0
O38 O 0.43605 0.90837 0.13291 0.0
C39 C 0.47135 0.81425 0.10974 0.0
O40 O 0.5014 0.82722 0.13589 0.0
C41 C 0.34889 0.95809 0.08966 0.0
C42 C 0.38339 0.97802 0.03864 0.0
C43 C 0.33971 0.979 0.07017 0.0
N44 N 0.39459 0.94535 0.06998 0.0
N45 N 0.41638 0.95765 0.04013 0.0
C46 C 0.30897 0.94895 0.12335 0.0
H47 H 0.30923 0.92975 0.12339 0.0
H48 H 0.25585 0.95539 0.1225 0.0
H49 H 0.33302 0.95492 0.15071 0.0
C50 C 0.30368 0.86126 0.03818 0.0
N51 N 0.35273 0.87119 0.05978 0.0
N52 N 0.34538 0.89388 0.05874 0.0
C53 C 0.29066 0.89901 0.03684 0.0
C54 C 0.26336 0.87862 0.02259 0.0
C55 C 0.30122 0.83597 0.02914 0.0
H56 H 0.35122 0.8304 0.01758 0.0
H57 H 0.29209 0.82616 0.05636 0.0
H58 H 0.26076 0.83185 0.00778 0.0
O59 O 0.50978 0.86809 0.05226 0.0
O60 O 0.49946 0.90626 0.04582 0.0
H61 H 0.30558 0.93297 0.01322 0.0
H62 H 0.21851 0.92312 0.01103 0.0
C63 C 0.2657 0.92301 0.02862 0.0
H64 H 0.25371 0.93169 0.05627 0.0
H65 H 0.45078 0.9516 0.01951 0.0
O66 O 0.43448 0.82386 0.08388 0.0
C67 C 0.53026 0.88732 0.03869 0.0
Co68 Co 0.56603 0.85625 0.37794 0.0
Co69 Co 0.57421 0.91085 0.3882 0.0
C70 C 0.53084 0.88856 0.31353 0.0
O71 O 0.54016 0.86847 0.32746 0.0
O72 O 0.54177 0.90662 0.33375 0.0
C73 C 0.50989 0.81423 0.35748 0.0
O74 O 0.46636 0.82923 0.34323 0.0
C75 C 0.64547 0.95518 0.37497 0.0
C76 C 0.60462 0.97702 0.42194 0.0
C77 C 0.65204 0.97686 0.3922 0.0
N78 N 0.59786 0.94302 0.39436 0.0
N79 N 0.57292 0.95635 0.42201 0.0
C80 C 0.68202 0.94617 0.34004 0.0
H81 H 0.64586 0.93673 0.32109 0.0
H82 H 0.72153 0.93363 0.34927 0.0
H83 H 0.70612 0.96044 0.3234 0.0
C84 C 0.70809 0.85994 0.40591 0.0
N85 N 0.64941 0.8694 0.39357 0.0
N86 N 0.65118 0.89192 0.3996 0.0
C87 C 0.70982 0.89728 0.41759 0.0
C88 C 0.74867 0.8774 0.42105 0.0
C89 C 0.72232 0.83453 0.40581 0.0
H90 H 0.70181 0.82663 0.3789 0.0
H91 H 0.7777 0.83112 0.4081 0.0
H92 H 0.69619 0.8264 0.43089 0.0
O93 O 0.49587 0.86437 0.41562 0.0
O94 O 0.50029 0.90244 0.42497 0.0
H95 H 0.67323 0.92675 0.44939 0.0
H96 H 0.75595 0.91703 0.46417 0.0
C97 C 0.72191 0.91955 0.43882 0.0
H98 H 0.74632 0.93212 0.41906 0.0
H99 H 0.53586 0.95107 0.44177 0.0
O100 O 0.56276 0.82169 0.37489 0.0
C101 C 0.47457 0.88261 0.43212 0.0
Co102 Co 0.92742 0.17189 0.38501 0.0
Co103 Co 0.92383 0.11726 0.39403 0.0
C104 C 0.96781 0.14117 0.32039 0.0
O105 O 0.95753 0.16122 0.33424 0.0
O106 O 0.95685 0.12301 0.34043 0.0
C107 C 0.93561 0.21864 0.3559 0.0
O108 O 0.93316 0.20866 0.32172 0.0
C109 C 0.85383 0.07304 0.37921 0.0
C110 C 0.90319 0.04972 0.42146 0.0
C111 C 0.85213 0.0506 0.39371 0.0
N112 N 0.90287 0.08489 0.39794 0.0
N113 N 0.93271 0.07074 0.42282 0.0
C114 C 0.81078 0.08299 0.34746 0.0
H115 H 0.83583 0.09838 0.33453 0.0
H116 H 0.76097 0.08844 0.35931 0.0
H117 H 0.80123 0.06975 0.32478 0.0
C118 C 0.78412 0.16603 0.40993 0.0
N119 N 0.84453 0.15747 0.39869 0.0
N120 N 0.84535 0.13499 0.40511 0.0
C121 C 0.78714 0.12874 0.42261 0.0
C122 C 0.74542 0.14799 0.42501 0.0
C123 C 0.76643 0.19117 0.40879 0.0
H124 H 0.78756 0.19921 0.38213 0.0
H125 H 0.71053 0.1937 0.40973 0.0
H126 H 0.78979 0.19991 0.43419 0.0
O127 O -0.00304 0.16366 0.42326 0.0
O128 O -0.00466 0.12552 0.43189 0.0
H129 H 0.8287 0.09982 0.45431 0.0
H130 H 0.7474 0.10945 0.47151 0.0
C131 C 0.77861 0.10666 0.44513 0.0
H132 H 0.75242 0.09358 0.42705 0.0
H133 H 0.97195 0.0756 0.44151 0.0
O134 O 0.92744 0.20643 0.38629 0.0
C135 C 0.01915 0.14549 0.4397 0.0
Co136 Co 0.92362 0.8565 0.87713 0.0
Co137 Co 0.92832 0.91136 0.88284 0.0
C138 C 0.9428 0.88662 0.80722 0.0
O139 O 0.93648 0.86688 0.82319 0.0
O140 O 0.94016 0.90511 0.82705 0.0
C141 C 0.95205 0.81088 0.85268 0.0
O142 O 0.98185 0.82257 0.82479 0.0
C143 C 0.85912 0.95571 0.87194 0.0
C144 C 0.91408 0.97865 0.91239 0.0
C145 C 0.85857 0.97791 0.8875 0.0
N146 N 0.91177 0.94397 0.88732 0.0
N147 N 0.94542 0.95796 0.91076 0.0
C148 C 0.80597 0.94476 0.8468 0.0
H149 H 0.80768 0.92564 0.84936 0.0
H150 H 0.75458 0.95116 0.85457 0.0
H151 H 0.81614 0.94931 0.81607 0.0
C152 C 0.792 0.86443 0.91712 0.0
N153 N 0.84882 0.87203 0.89948 0.0
N154 N 0.85385 0.89459 0.90429 0.0
C155 C 0.80209 0.90185 0.92666 0.0
C156 C 0.76016 0.88318 0.93452 0.0
C157 C 0.77061 0.83962 0.91841 0.0
H158 H 0.78481 0.83086 0.89096 0.0
H159 H 0.71501 0.83808 0.92324 0.0
H160 H 0.7976 0.83084 0.9426 0.0
O161 O 0.0046 0.86399 0.90804 0.0
O162 O 0.01236 0.90246 0.91072 0.0
H163 H 0.85167 0.93151 0.95163 0.0
H164 H 0.77255 0.92388 0.97445 0.0
C165 C 0.79956 0.92499 0.94625 0.0
H166 H 0.77185 0.93749 0.92767 0.0
H167 H 0.9874 0.953 0.92729 0.0
O168 O 0.91935 0.8218 0.87879 0.0
C169 C 0.03474 0.88233 0.91889 0.0
Co170 Co 0.54525 0.16478 0.88255 0.0
Co171 Co 0.55834 0.11003 0.88618 0.0
C172 C 0.54656 0.13542 0.81107 0.0
O173 O 0.54597 0.15487 0.82822 0.0
O174 O 0.5494 0.1165 0.82992 0.0
C175 C 0.51511 0.21048 0.8567 0.0
O176 O 0.49691 0.19923 0.82529 0.0
C177 C 0.62901 0.06569 0.87382 0.0
C178 C 0.58775 0.0444 0.92156 0.0
C179 C 0.63579 0.0443 0.89211 0.0
N180 N 0.58035 0.07785 0.89221 0.0
N181 N 0.55467 0.06476 0.92003 0.0
C182 C 0.67347 0.07574 0.84282 0.0
H183 H 0.67307 0.09493 0.84428 0.0
H184 H 0.72637 0.06928 0.84561 0.0
H185 H 0.6534 0.07056 0.81402 0.0
C186 C 0.66692 0.1613 0.93239 0.0
N187 N 0.61934 0.15167 0.90945 0.0
N188 N 0.62624 0.12897 0.91 0.0
C189 C 0.67911 0.1235 0.93315 0.0
C190 C 0.70624 0.14373 0.9482 0.0
C191 C 0.66973 0.18656 0.9417 0.0
H192 H 0.61788 0.1929 0.94852 0.0
H193 H 0.68794 0.19618 0.91581 0.0
H194 H 0.70394 0.19013 0.96662 0.0
O195 O 0.46185 0.15443 0.9073 0.0
O196 O 0.47067 0.1162 0.91314 0.0
H197 H 0.66181 0.08888 0.95328 0.0
H198 H 0.74813 0.09865 0.96012 0.0
C199 C 0.7035 0.09933 0.94061 0.0
H200 H 0.71939 0.09149 0.91289 0.0
H201 H 0.51731 0.07023 0.9394 0.0
O202 O 0.54122 0.19937 0.88498 0.0
C203 C 0.43854 0.13508 0.91861 0.0
Co204 Co 0.43049 0.16991 0.58511 0.0
Co205 Co 0.42244 0.11533 0.57626 0.0
C206 C 0.47275 0.13874 0.649 0.0
O207 O 0.46308 0.15881 0.63499 0.0
O208 O 0.45829 0.12053 0.62983 0.0
C209 C 0.43656 0.21677 0.61429 0.0
O210 O 0.43282 0.20698 0.64865 0.0
C211 C 0.34909 0.07155 0.59032 0.0
C212 C 0.39237 0.04871 0.54543 0.0
C213 C 0.34293 0.0496 0.57404 0.0
N214 N 0.39854 0.08314 0.57149 0.0
N215 N 0.42485 0.06924 0.54508 0.0
C216 C 0.3105 0.08133 0.6239 0.0
H217 H 0.27111 0.09346 0.6131 0.0
H218 H 0.28584 0.06741 0.6411 0.0
H219 H 0.34543 0.09141 0.64273 0.0
C220 C 0.28767 0.16586 0.56059 0.0
N221 N 0.34641 0.15633 0.57254 0.0
N222 N 0.34513 0.13394 0.56558 0.0
C223 C 0.28717 0.12875 0.54679 0.0
C224 C 0.24812 0.14863 0.54384 0.0
C225 C 0.27236 0.19115 0.56333 0.0
H226 H 0.30283 0.20065 0.54138 0.0
H227 H 0.28771 0.19765 0.59234 0.0
H228 H 0.21751 0.19461 0.55846 0.0
O229 O 0.49706 0.16148 0.54552 0.0
O230 O 0.49313 0.1233 0.53765 0.0
H231 H 0.32565 0.09929 0.51557 0.0
H232 H 0.24596 0.11005 0.49767 0.0
C233 C 0.27634 0.10687 0.5243 0.0
H234 H 0.24823 0.09433 0.54247 0.0
H235 H 0.46337 0.07403 0.52589 0.0
O236 O 0.43089 0.20433 0.58407 0.0
C237 C 0.51711 0.14313 0.52886 0.0
Co238 Co 0.06697 0.85504 0.58097 0.0
Co239 Co 0.07092 0.90953 0.57224 0.0
C240 C 0.02642 0.88574 0.64574 0.0
O241 O 0.03648 0.86579 0.6315 0.0
O242 O 0.03787 0.90399 0.62607 0.0
C243 C 0.06758 0.80896 0.6127 0.0
O244 O 0.07535 0.8197 0.64597 0.0
C245 C 0.13966 0.95397 0.5867 0.0
C246 C 0.09018 0.97704 0.54412 0.0
C247 C 0.14103 0.97639 0.57203 0.0
N248 N 0.09106 0.94194 0.56794 0.0
N249 N 0.06111 0.95595 0.54286 0.0
C250 C 0.18253 0.94416 0.61865 0.0
H251 H 0.15558 0.92965 0.63313 0.0
H252 H 0.23058 0.93731 0.60651 0.0
H253 H 0.19535 0.95778 0.64014 0.0
C254 C 0.2086 0.86043 0.55381 0.0
N255 N 0.1498 0.86936 0.56684 0.0
N256 N 0.14956 0.89186 0.56063 0.0
C257 C 0.20665 0.89776 0.54155 0.0
C258 C 0.2466 0.87819 0.53726 0.0
C259 C 0.22553 0.83522 0.55547 0.0
H260 H 0.19436 0.82581 0.53375 0.0
H261 H 0.21221 0.82824 0.58451 0.0
H262 H 0.28026 0.8322 0.54958 0.0
O263 O -0.00268 0.86269 0.54227 0.0
O264 O -0.0003 0.90092 0.53428 0.0
H265 H 0.166 0.92766 0.51216 0.0
H266 H 0.24553 0.91768 0.49311 0.0
C267 C 0.21588 0.92019 0.52015 0.0
H268 H 0.24408 0.93259 0.53864 0.0
H269 H 0.02216 0.95093 0.52411 0.0
O270 O 0.06845 0.82062 0.58137 0.0
C271 C 0.97609 0.881 0.52581 0.0
Co272 Co 0.56234 0.67001 0.09229 0.0
Co273 Co 0.56527 0.61512 0.08552 0.0
C274 C 0.54908 0.63971 0.16166 0.0
O275 O 0.5534 0.65953 0.14588 0.0
O276 O 0.55164 0.62122 0.14171 0.0
C277 C 0.52914 0.71555 0.11598 0.0
O278 O 0.50094 0.70386 0.14445 0.0
C279 C 0.63821 0.57071 0.09396 0.0
C280 C 0.57692 0.54766 0.05678 0.0
C281 C 0.63562 0.54828 0.07916 0.0
N282 N 0.58414 0.58261 0.0805 0.0
N283 N 0.54704 0.56855 0.05895 0.0
C284 C 0.69402 0.58152 0.11732 0.0
H285 H 0.69321 0.60062 0.11423 0.0
H286 H 0.74429 0.57465 0.10839 0.0
H287 H 0.68602 0.57742 0.14843 0.0
C288 C 0.6928 0.66457 0.0507 0.0
N289 N 0.63839 0.65572 0.06913 0.0
N290 N 0.63714 0.6331 0.06421 0.0
C291 C 0.68868 0.62704 0.04074 0.0
C292 C 0.72641 0.6466 0.03212 0.0
C293 C 0.71094 0.6897 0.05087 0.0
H294 H 0.70135 0.69708 0.08007 0.0
H295 H 0.76498 0.69237 0.04277 0.0
H296 H 0.6779 0.69899 0.0299 0.0
O297 O 0.48102 0.66136 0.06261 0.0
O298 O 0.48254 0.62305 0.05584 0.0
H299 H 0.71846 0.60571 -0.00782 0.0
H300 H 0.72825 0.59253 0.03896 0.0
C301 C 0.69508 0.60393 0.02133 0.0
H302 H 0.64451 0.59577 0.01789 0.0
H303 H 0.50292 0.57351 0.04434 0.0
O304 O 0.56307 0.70469 0.09033 0.0
C305 C 0.45548 0.64273 0.04951 0.0
Co306 Co 0.92057 0.35447 0.08532 0.0
Co307 Co 0.91041 0.40917 0.07705 0.0
C308 C 0.95365 0.38691 0.15085 0.0
O309 O 0.9458 0.36683 0.13643 0.0
O310 O 0.94181 0.40506 0.13105 0.0
C311 C 0.97834 0.31233 0.10295 0.0
O312 O 0.02287 0.32732 0.11621 0.0
C313 C 0.85151 0.45585 0.08947 0.0
C314 C 0.88163 0.47339 0.03518 0.0
C315 C 0.84325 0.47637 0.06856 0.0
N316 N 0.89127 0.44145 0.06874 0.0
N317 N 0.91057 0.45234 0.03688 0.0
C318 C 0.81651 0.4488 0.1262 0.0
H319 H 0.81526 0.42965 0.12887 0.0
H320 H 0.76405 0.45582 0.12716 0.0
H321 H 0.84532 0.45573 0.15132 0.0
C322 C 0.78308 0.358 0.05082 0.0
N323 N 0.83786 0.36763 0.06783 0.0
N324 N 0.83273 0.39038 0.066 0.0
C325 C 0.77371 0.39585 0.04845 0.0
C326 C 0.74079 0.37562 0.03785 0.0
C327 C 0.77699 0.33269 0.04237 0.0
H328 H 0.82624 0.32604 0.03139 0.0
H329 H 0.7654 0.32336 0.06975 0.0
H330 H 0.73637 0.3291 0.02084 0.0
O331 O 0.99136 0.36215 0.04834 0.0
O332 O 0.98409 0.40025 0.04031 0.0
H333 H 0.78857 0.42876 0.02087 0.0
H334 H 0.70026 0.42056 0.02549 0.0
C335 C 0.75077 0.42003 0.03969 0.0
H336 H 0.74587 0.42969 0.06711 0.0
H337 H 0.94049 0.44493 0.01524 0.0
O338 O 0.92318 0.31989 0.08817 0.0
C339 C 0.01077 0.38075 0.03223 0.0
Co340 Co 0.06209 0.35878 0.38068 0.0
Co341 Co 0.06112 0.41366 0.38721 0.0
C342 C 0.04243 0.38932 0.31148 0.0
O343 O 0.04809 0.36961 0.3275 0.0
O344 O 0.04714 0.40788 0.3311 0.0
C345 C 0.01252 0.31593 0.36158 0.0
O346 O 0.9709 0.33036 0.34413 0.0
C347 C 0.13115 0.45848 0.3786 0.0
C348 C 0.07481 0.48057 0.41962 0.0
C349 C 0.13068 0.48047 0.39508 0.0
N350 N 0.07859 0.44625 0.3931 0.0
N351 N 0.04427 0.45977 0.41695 0.0
C352 C 0.18464 0.44822 0.35301 0.0
H353 H 0.18437 0.42908 0.35522 0.0
H354 H 0.23565 0.45507 0.36066 0.0
H355 H 0.1735 0.45289 0.32242 0.0
C356 C 0.19331 0.3651 0.42093 0.0
N357 N 0.13805 0.37354 0.40282 0.0
N358 N 0.1351 0.39612 0.40804 0.0
C359 C 0.18698 0.40257 0.43114 0.0
C360 C 0.22613 0.38328 0.43949 0.0
C361 C 0.21245 0.34006 0.42092 0.0
H362 H 0.20325 0.3326 0.39172 0.0
H363 H 0.26654 0.33767 0.42919 0.0
H364 H 0.17962 0.33061 0.44178 0.0
O365 O 0.98295 0.3664 0.41245 0.0
O366 O 0.97704 0.40488 0.41551 0.0
H367 H 0.21851 0.4243 0.47898 0.0
H368 H 0.22326 0.4375 0.43194 0.0
C369 C 0.19273 0.42573 0.45041 0.0
H370 H 0.1417 0.43326 0.4551 0.0
H371 H 0.00212 0.45441 0.43293 0.0
O372 O 0.06312 0.32417 0.38018 0.0
C373 C 0.95402 0.38482 0.42372 0.0
Co374 Co 0.4249 0.67138 0.38643 0.0
Co375 Co 0.41985 0.61658 0.39554 0.0
C376 C 0.46597 0.63993 0.32235 0.0
O377 O 0.45597 0.65982 0.33676 0.0
O378 O 0.45267 0.62152 0.34128 0.0
C379 C 0.43112 0.71717 0.35348 0.0
O380 O 0.42888 0.70592 0.32043 0.0
C381 C 0.34971 0.57187 0.38355 0.0
C382 C 0.39455 0.55041 0.43001 0.0
C383 C 0.34507 0.55025 0.4013 0.0
N384 N 0.399 0.58416 0.40132 0.0
N385 N 0.42654 0.571 0.42849 0.0
C386 C 0.30345 0.58177 0.35326 0.0
H387 H 0.30463 0.60095 0.35395 0.0
H388 H 0.25065 0.57545 0.3574 0.0
H389 H 0.32121 0.57618 0.32421 0.0
C390 C 0.28388 0.66658 0.41374 0.0
N391 N 0.34228 0.65733 0.40083 0.0
N392 N 0.34181 0.63484 0.40727 0.0
C393 C 0.28428 0.62928 0.42624 0.0
C394 C 0.24517 0.64906 0.43035 0.0
C395 C 0.268 0.69186 0.41189 0.0
H396 H 0.28162 0.6987 0.38279 0.0
H397 H 0.2134 0.69516 0.41776 0.0
H398 H 0.29954 0.70118 0.43355 0.0
O399 O 0.49412 0.66364 0.42487 0.0
O400 O 0.49303 0.62538 0.43264 0.0
H401 H 0.32228 0.59913 0.45593 0.0
H402 H 0.24181 0.60914 0.47348 0.0
C403 C 0.27311 0.60677 0.44703 0.0
H404 H 0.24591 0.5946 0.42761 0.0
H405 H 0.46474 0.5765 0.44737 0.0
O406 O 0.42451 0.70595 0.38508 0.0
C407 C 0.51676 0.64536 0.44076 0.0
Co408 Co 0.41544 0.35326 0.88248 0.0
Co409 Co 0.41247 0.4081 0.89069 0.0
C410 C 0.452 0.38498 0.81676 0.0
O411 O 0.44339 0.36498 0.83139 0.0
O412 O 0.44093 0.40321 0.83638 0.0
C413 C 0.46003 0.3092 0.86116 0.0
O414 O 0.50289 0.32239 0.84207 0.0
C415 C 0.3451 0.45297 0.87765 0.0
C416 C 0.38659 0.47428 0.92522 0.0
C417 C 0.33913 0.47452 0.89541 0.0
N418 N 0.39214 0.44048 0.89691 0.0
N419 N 0.41761 0.4535 0.92487 0.0
C420 C 0.30827 0.4443 0.84252 0.0
H421 H 0.34413 0.43489 0.82342 0.0
H422 H 0.26847 0.43179 0.85149 0.0
H423 H 0.28465 0.45873 0.82605 0.0
C424 C 0.27476 0.3588 0.91101 0.0
N425 N 0.33383 0.36756 0.89791 0.0
N426 N 0.33448 0.39011 0.90361 0.0
C427 C 0.277 0.39621 0.92204 0.0
C428 C 0.23645 0.37677 0.92625 0.0
C429 C 0.25824 0.33355 0.91161 0.0
H430 H 0.27562 0.32537 0.88426 0.0
H431 H 0.20285 0.33067 0.91539 0.0
H432 H 0.28587 0.32523 0.93602 0.0
O433 O 0.48594 0.36051 0.9208 0.0
O434 O 0.48879 0.39901 0.92505 0.0
H435 H 0.23354 0.41687 0.96828 0.0
H436 H 0.24465 0.4315 0.92287 0.0
C437 C 0.26766 0.41875 0.94286 0.0
H438 H 0.31724 0.42535 0.95328 0.0
H439 H 0.4542 0.44789 0.94468 0.0
O440 O 0.41276 0.31866 0.88077 0.0
C441 C 0.51063 0.37904 0.9347 0.0
Co442 Co 0.06111 0.66974 0.88425 0.0
Co443 Co 0.06669 0.61512 0.89274 0.0
C444 C 0.04486 0.6387 0.81617 0.0
O445 O 0.05043 0.65866 0.83118 0.0
O446 O 0.04915 0.62049 0.83676 0.0
C447 C 0.01187 0.71256 0.86175 0.0
O448 O 0.9728 0.69818 0.84243 0.0
C449 C 0.14108 0.57144 0.88237 0.0
C450 C 0.08381 0.54742 0.91997 0.0
C451 C 0.14008 0.54877 0.89584 0.0
N452 N 0.08846 0.58294 0.89818 0.0
N453 N 0.05407 0.5684 0.92035 0.0
C454 C 0.18993 0.58194 0.85409 0.0
H455 H 0.16662 0.59707 0.8394 0.0
H456 H 0.2359 0.588 0.86969 0.0
H457 H 0.2059 0.56891 0.8323 0.0
C458 C 0.19337 0.66533 0.92516 0.0
N459 N 0.13898 0.6562 0.90703 0.0
N460 N 0.13871 0.6336 0.9123 0.0
C461 C 0.1908 0.6278 0.93563 0.0
C462 C 0.22798 0.64753 0.94387 0.0
C463 C 0.21015 0.69056 0.92497 0.0
H464 H 0.19952 0.69797 0.89586 0.0
H465 H 0.2642 0.69353 0.93281 0.0
H466 H 0.17706 0.69959 0.94615 0.0
O467 O 0.98124 0.66086 0.915 0.0
O468 O 0.98484 0.62264 0.92315 0.0
H469 H 0.14654 0.59711 0.96054 0.0
H470 H 0.2223 0.60685 -0.01541 0.0
C471 C 0.1973 0.6049 0.95589 0.0
H472 H 0.22873 0.59305 0.93818 0.0
H473 H 0.01106 0.5729 0.9363 0.0
O474 O 0.05896 0.70439 0.88321 0.0
C475 C 0.95691 0.64223 0.92891 0.0
Co476 Co 0.9262 0.67113 0.59035 0.0
Co477 Co 0.92036 0.61684 0.58004 0.0
C478 C 0.96185 0.63924 0.65482 0.0
O479 O 0.95189 0.65929 0.64097 0.0
O480 O 0.95198 0.62119 0.63449 0.0
C481 C 0.98476 0.7124 0.60871 0.0
O482 O 0.02918 0.69686 0.62015 0.0
C483 C 0.84906 0.57294 0.59306 0.0
C484 C 0.89764 0.54985 0.55037 0.0
C485 C 0.8466 0.55069 0.57806 0.0
N486 N 0.8985 0.58475 0.5747 0.0
N487 N 0.92791 0.57075 0.54955 0.0
C488 C 0.80637 0.58277 0.62497 0.0
H489 H 0.83309 0.59738 0.63921 0.0
H490 H 0.75794 0.58941 0.61287 0.0
H491 H 0.7941 0.56917 0.64665 0.0
C492 C 0.78492 0.66695 0.56154 0.0
N493 N 0.84339 0.65767 0.57448 0.0
N494 N 0.84288 0.63521 0.56791 0.0
C495 C 0.78556 0.6297 0.54869 0.0
C496 C 0.74625 0.64945 0.54479 0.0
C497 C 0.76884 0.6922 0.56366 0.0
H498 H 0.79942 0.70162 0.54167 0.0
H499 H 0.78357 0.69898 0.5926 0.0
H500 H 0.71399 0.69544 0.55838 0.0
O501 O -0.00311 0.66331 0.55263 0.0
O502 O -0.00626 0.62524 0.54336 0.0
H503 H 0.82486 0.59981 0.5189 0.0
H504 H 0.74582 0.61036 0.4999 0.0
C505 C 0.77533 0.60748 0.52694 0.0
H506 H 0.7465 0.5951 0.54517 0.0
H507 H 0.96742 0.57564 0.53109 0.0
O508 O 0.92913 0.70556 0.59352 0.0
C509 C 0.01867 0.64514 0.53612 0.0
Co510 Co 0.55774 0.3574 0.58633 0.0
Co511 Co 0.56912 0.4121 0.58203 0.0
C512 C 0.54318 0.38744 0.65655 0.0
O513 O 0.54737 0.36785 0.64004 0.0
O514 O 0.55004 0.40613 0.63745 0.0
C515 C 0.50573 0.31466 0.60636 0.0
O516 O 0.4659 0.329 0.62518 0.0
C517 C 0.63403 0.45727 0.5974 0.0
C518 C 0.60077 0.47776 0.5467 0.0
C519 C 0.64262 0.47852 0.57905 0.0
N520 N 0.59087 0.44435 0.57614 0.0
N521 N 0.56999 0.45693 0.54636 0.0
C522 C 0.66611 0.44917 0.63445 0.0
H523 H 0.6962 0.43328 0.62907 0.0
H524 H 0.69877 0.46273 0.64757 0.0
H525 H 0.62553 0.44451 0.65536 0.0
C526 C 0.68503 0.36123 0.54124 0.0
N527 N 0.6355 0.37055 0.56316 0.0
N528 N 0.6413 0.39329 0.56272 0.0
C529 C 0.6954 0.39906 0.5409 0.0
C530 C 0.72403 0.37909 0.52607 0.0
C531 C 0.68933 0.33604 0.53167 0.0
H532 H 0.63913 0.32991 0.52112 0.0
H533 H 0.70142 0.3262 0.55848 0.0
H534 H 0.72864 0.33255 0.50938 0.0
O535 O 0.47852 0.36695 0.55652 0.0
O536 O 0.48648 0.40522 0.5506 0.0
H537 H 0.67992 0.43292 0.51718 0.0
H538 H 0.76804 0.42399 0.51807 0.0
C539 C 0.71902 0.42331 0.53384 0.0
H540 H 0.72676 0.43181 0.56205 0.0
H541 H 0.5371 0.45093 0.52484 0.0
O542 O 0.55476 0.32292 0.58654 0.0
C543 C 0.45626 0.38612 0.54373 0.0
C544 C 0.37099 0.12041 0.97436 0.0
C545 C 0.37649 0.13533 0.94233 0.0
C546 C 0.31697 0.12251 0.00045 0.0
C547 C 0.26626 0.13935 -0.00496 0.0
H548 H 0.40991 0.10759 0.98013 0.0
H549 H 0.31512 0.11098 0.02525 0.0
S550 S 0.25368 0.18091 0.91339 0.0
N551 N 0.32506 0.16669 0.90538 0.0
N552 N 0.22173 0.16986 0.95366 0.0
C553 C 0.26989 0.15385 0.96246 0.0
C554 C 0.32544 0.15198 0.93621 0.0
C555 C 0.09315 0.86616 0.97674 0.0
C556 C 0.09554 0.87992 0.94306 0.0
C557 C 0.14924 0.86478 0.00171 0.0
C558 C 0.20945 0.87672 -0.0069 0.0
H559 H 0.04675 0.85719 -0.0154 0.0
H560 H 0.14464 0.85512 0.02856 0.0
S561 S 0.24461 0.91172 0.90509 0.0
N562 N 0.1643 0.9038 0.90044 0.0
N563 N 0.27133 0.90013 0.94623 0.0
C564 C 0.21395 0.88906 0.95801 0.0
C565 C 0.15636 0.89102 0.93328 0.0
C566 C 0.81528 0.86097 0.47605 0.0
C567 C 0.81223 0.87549 0.44342 0.0
C568 C 0.86973 0.86246 0.50212 0.0
C569 C 0.92192 0.87881 0.49665 0.0
H570 H 0.77382 0.84925 0.48255 0.0
H571 H 0.86946 0.85144 0.52759 0.0
S572 S 0.94188 0.91825 0.41266 0.0
N573 N 0.86931 0.9047 0.40451 0.0
N574 N 0.97095 0.90796 0.45422 0.0
C575 C 0.92104 0.89259 0.46314 0.0
C576 C 0.86633 0.89077 0.43628 0.0
C577 C 0.67458 0.16467 0.47775 0.0
C578 C 0.68125 0.14907 0.44687 0.0
C579 C 0.62004 0.16292 0.50353 0.0
C580 C 0.57124 0.14524 0.49968 0.0
H581 H 0.71343 0.17753 0.48327 0.0
H582 H 0.61775 0.17493 0.52761 0.0
S583 S 0.56218 0.10181 0.42083 0.0
N584 N 0.63137 0.11698 0.41128 0.0
N585 N 0.5299 0.1131 0.46078 0.0
C586 C 0.57585 0.13013 0.46797 0.0
C587 C 0.6306 0.13224 0.44124 0.0
C588 C 0.6941 0.86837 -0.00891 0.0
C589 C 0.69932 0.88354 0.95942 0.0
C590 C 0.63952 0.86996 0.01695 0.0
C591 C 0.58903 0.88701 0.01229 0.0
H592 H 0.73312 0.85554 -0.00358 0.0
H593 H 0.63725 0.8579 0.04103 0.0
S594 S 0.5775 0.92975 0.9322 0.0
N595 N 0.64772 0.9151 0.92318 0.0
N596 N 0.54617 0.91863 0.97257 0.0
C597 C 0.59347 0.90214 0.98049 0.0
C598 C 0.64836 0.90024 0.95381 0.0
C599 C 0.76207 0.1322 0.01018 0.0
C600 C 0.76284 0.14557 0.97602 0.0
C601 C 0.81965 0.13064 0.03389 0.0
C602 C 0.87854 0.14319 0.02489 0.0
H603 H 0.71745 0.12217 0.01778 0.0
H604 H 0.81821 0.11956 0.05928 0.0
S605 S 0.9045 0.18209 0.94052 0.0
N606 N 0.82641 0.17209 0.93507 0.0
N607 N 0.93344 0.17042 0.98108 0.0
C608 C 0.87861 0.15769 -0.00789 0.0
C609 C 0.82078 0.15869 0.96736 0.0
C610 C 0.07861 0.13316 0.50014 0.0
C611 C 0.07502 0.14787 0.46775 0.0
C612 C 0.13285 0.13473 0.52629 0.0
C613 C 0.18572 0.15075 0.52045 0.0
H614 H 0.03959 0.12026 0.50514 0.0
H615 H 0.1349 0.12272 0.55046 0.0
S616 S 0.20092 0.1926 0.43928 0.0
N617 N 0.1282 0.17914 0.43138 0.0
N618 N 0.23203 0.18116 0.47947 0.0
C619 C 0.18227 0.16575 0.48848 0.0
C620 C 0.12639 0.1645 0.46231 0.0
C621 C 0.36089 0.89284 0.51889 0.0
C622 C 0.30812 0.87679 0.51297 0.0
C623 C 0.41475 0.89475 0.49255 0.0
C624 C 0.418 0.88038 0.45979 0.0
H625 H 0.35933 0.9045 0.54347 0.0
H626 H 0.45398 0.90753 0.49784 0.0
S627 S 0.2914 0.83605 0.43052 0.0
N628 N 0.26108 0.84694 0.47123 0.0
N629 N 0.36392 0.84965 0.42267 0.0
C630 C 0.3663 0.86389 0.45402 0.0
C631 C 0.31093 0.86227 0.48044 0.0
C632 C 0.83861 0.63102 0.01283 0.0
C633 C 0.78654 0.64727 0.00674 0.0
C634 C 0.89292 0.62917 -0.01303 0.0
C635 C 0.89752 0.6438 0.95454 0.0
H636 H 0.83683 0.61943 0.03757 0.0
H637 H 0.93204 0.61642 -0.00725 0.0
S638 S 0.77314 0.68869 0.9249 0.0
N639 N 0.74125 0.67756 0.96514 0.0
N640 N 0.84542 0.67491 0.91733 0.0
C641 C 0.84628 0.66035 0.94835 0.0
C642 C 0.79023 0.66193 0.97434 0.0
C643 C 0.68661 0.38631 0.97526 0.0
C644 C 0.68333 0.37406 0.01054 0.0
C645 C 0.62976 0.38821 0.9512 0.0
C646 C 0.56877 0.37715 0.96094 0.0
H647 H 0.73296 0.39511 0.96683 0.0
H648 H 0.63368 0.39822 0.92466 0.0
S649 S 0.53566 0.34129 0.0481 0.0
N650 N 0.61519 0.35 0.05329 0.0
N651 N 0.50891 0.35231 0.0065 0.0
C652 C 0.56573 0.36377 -0.00505 0.0
C653 C 0.62313 0.36242 0.0201 0.0
C654 C 0.33788 0.39904 0.46018 0.0
C655 C 0.28547 0.3828 0.4656 0.0
C656 C 0.39214 0.40055 0.48632 0.0
C657 C 0.39612 0.38561 0.5184 0.0
H658 H 0.33663 0.41077 0.43562 0.0
H659 H 0.4319 0.41313 0.48092 0.0
S660 S 0.2695 0.34114 0.54694 0.0
N661 N 0.23851 0.35257 0.50669 0.0
N662 N 0.3422 0.3546 0.55502 0.0
C663 C 0.34394 0.36932 0.52421 0.0
C664 C 0.28817 0.36807 0.49794 0.0
C665 C 0.13018 0.63512 0.44854 0.0
C666 C 0.18371 0.65085 0.45455 0.0
C667 C 0.07668 0.63332 0.47508 0.0
C668 C 0.07452 0.6475 0.50809 0.0
H669 H 0.13102 0.62356 0.42382 0.0
H670 H 0.03696 0.6207 0.46982 0.0
S671 S 0.20274 0.69125 0.53731 0.0
N672 N 0.23225 0.68039 0.49638 0.0
N673 N 0.12986 0.67791 0.54531 0.0
C674 C 0.12667 0.6638 0.51382 0.0
C675 C 0.18177 0.6653 0.48721 0.0
C676 C 0.17145 0.36115 0.98234 0.0
C677 C 0.174 0.37558 0.94962 0.0
C678 C 0.11774 0.3628 0.00873 0.0
C679 C 0.06568 0.37921 0.00352 0.0
H680 H 0.21256 0.34923 -0.0115 0.0
H681 H 0.11815 0.35165 0.03406 0.0
S682 S 0.04534 0.41893 0.91991 0.0
N683 N 0.11727 0.40515 0.91128 0.0
N684 N 0.0168 0.40865 0.96156 0.0
C685 C 0.06643 0.39312 0.97016 0.0
C686 C 0.1205 0.39117 0.94298 0.0
C687 C 0.33999 0.63214 0.96404 0.0
C688 C 0.28786 0.64843 0.96955 0.0
C689 C 0.39319 0.63003 -0.00933 0.0
C690 C 0.39675 0.64446 0.02332 0.0
H691 H 0.33887 0.62062 0.93927 0.0
H692 H 0.4323 0.61723 -0.01466 0.0
S693 S 0.27248 0.68963 0.05135 0.0
N694 N 0.24175 0.6787 0.01068 0.0
N695 N 0.34416 0.67564 0.05985 0.0
C696 C 0.34576 0.66116 0.02881 0.0
C697 C 0.29071 0.66298 0.00206 0.0
C698 C 0.57701 0.63325 0.50116 0.0
C699 C 0.57327 0.64769 0.46845 0.0
C700 C 0.6313 0.6351 0.52727 0.0
C701 C 0.68401 0.65114 0.52111 0.0
H702 H 0.53795 0.62041 0.50651 0.0
H703 H 0.63335 0.62334 0.55178 0.0
S704 S 0.69923 0.69213 0.43876 0.0
N705 N 0.62658 0.67855 0.43118 0.0
N706 N 0.73026 0.68115 0.47933 0.0
C707 C 0.68056 0.6658 0.48871 0.0
C708 C 0.62474 0.66424 0.46253 0.0
C709 C 0.89558 0.36816 0.48107 0.0
C710 C 0.89349 0.38248 0.44803 0.0
C711 C 0.83907 0.36615 0.50552 0.0
C712 C 0.7787 0.378 0.49701 0.0
H713 H 0.94193 0.35911 0.48873 0.0
H714 H 0.84339 0.35601 0.53188 0.0
S715 S 0.74439 0.41442 0.41046 0.0
N716 N 0.82498 0.40687 0.40607 0.0
N717 N 0.71721 0.40206 0.45083 0.0
C718 C 0.77466 0.39102 0.46257 0.0
C719 C 0.83266 0.3936 0.43839 0.0
C720 C 0.19296 0.01843 0.04359 0.0
C721 C 0.17448 0.02858 0.0791 0.0
C722 C 0.2467 1.00263 0.04126 0.0
C723 C 0.28378 0.99605 0.07443 0.0
H724 H 0.16632 0.02302 0.01713 0.0
H725 H 0.25883 0.99531 0.01318 0.0
S726 S 0.25504 0.01719 0.17463 0.0
N727 N 0.19623 0.0304 0.14849 0.0
N728 N 0.29878 1.00113 0.14391 0.0
C729 C 0.26577 1.00594 0.11022 0.0
C730 C 0.21079 0.02211 0.1126 0.0
C731 C 0.68354 0.01871 0.38726 0.0
C732 C 0.70355 0.99534 0.38574 0.0
C733 C 0.73169 0.03669 0.38736 0.0
C734 C 0.8018 0.03195 0.3865 0.0
H735 H 0.63019 0.02312 0.38966 0.0
H736 H 0.71381 0.0543 0.39043 0.0
S737 S 0.88133 0.97397 0.3819 0.0
N738 N 0.79893 0.96864 0.38288 0.0
N739 N 0.88891 1.00239 0.38289 0.0
C740 C 0.82246 1.00876 0.38393 0.0
C741 C 0.77354 0.99046 0.38352 0.0
C742 C 0.72483 0.01991 0.92327 0.0
C743 C 0.69235 0.02739 0.88909 0.0
C744 C 0.77903 1.00423 0.92214 0.0
C745 C 0.80256 0.99513 0.88681 0.0
H746 H 0.70872 0.02642 0.95126 0.0
H747 H 0.802 0.99892 0.94932 0.0
S748 S 0.7351 1.00907 0.78896 0.0
N749 N 0.687 0.02422 0.81883 0.0
N750 N 0.7904 0.9952 0.81661 0.0
C751 C 0.77083 1.00248 0.85233 0.0
C752 C 0.71539 0.01852 0.85349 0.0
C753 C 0.26122 0.9902 0.58026 0.0
C754 C 0.19122 0.99514 0.5791 0.0
C755 C 0.30982 1.00802 0.58058 0.0
C756 C 0.29041 0.03146 0.58027 0.0
H757 H 0.27891 0.97251 0.57863 0.0
H758 H 0.36318 1.00341 0.57979 0.0
S759 S 0.11321 0.05352 0.57795 0.0
N760 N 0.10481 0.0251 0.57852 0.0
N761 N 0.1958 0.05851 0.57902 0.0
C762 C 0.22048 0.0366 0.58037 0.0
C763 C 0.17105 0.01846 0.57972 0.0
C764 C 0.75366 0.5019 0.04071 0.0
C765 C 0.79141 0.4949 0.07339 0.0
C766 C 0.70364 0.51902 0.04329 0.0
C767 C 0.68928 0.53013 0.07861 0.0
H768 H 0.7622 0.49386 0.01274 0.0
H769 H 0.67637 0.52374 0.01711 0.0
S770 S 0.77345 0.5183 0.17304 0.0
N771 N 0.81213 0.50088 0.14221 0.0
N772 N 0.71559 0.53237 0.14748 0.0
C773 C 0.72633 0.52331 0.1117 0.0
C774 C 0.77791 0.50586 0.10899 0.0
C775 C 0.25939 0.52419 0.43187 0.0
C776 C 0.29043 0.53257 0.39787 0.0
C777 C 0.20751 0.50758 0.43036 0.0
C778 C 0.18508 0.49835 0.39483 0.0
H779 H 0.27483 0.5307 0.46 0.0
H780 H 0.1854 0.50168 0.45741 0.0
S781 S 0.24979 0.51432 0.29732 0.0
N782 N 0.29569 0.53009 0.32754 0.0
N783 N 0.19688 0.49923 0.32464 0.0
C784 C 0.21552 0.50656 0.36053 0.0
C785 C 0.26844 0.52359 0.36207 0.0
C786 C 0.30839 0.51648 0.89257 0.0
C787 C 0.28804 0.49319 0.88942 0.0
C788 C 0.26065 0.53455 0.89263 0.0
C789 C 0.19054 0.53 0.88993 0.0
H790 H 0.36167 0.52074 0.89616 0.0
H791 H 0.27876 0.55204 0.8969 0.0
S792 S 0.11005 0.47229 0.88101 0.0
N793 N 0.19219 0.46676 0.88364 0.0
N794 N 0.10308 0.5007 0.88304 0.0
C795 C 0.16955 0.5069 0.88591 0.0
C796 C 0.21806 0.4885 0.88575 0.0
C797 C 0.72561 0.53761 0.58463 0.0
C798 C 0.79542 0.5323 0.58483 0.0
C799 C 0.67628 0.52003 0.58475 0.0
C800 C 0.69492 0.49656 0.58577 0.0
H801 H 0.70883 0.55537 0.58205 0.0
H802 H 0.62315 0.52482 0.58275 0.0
S803 S 0.87109 0.47361 0.58725 0.0
N804 N 0.88068 0.50199 0.58676 0.0
N805 N 0.78827 0.46902 0.58722 0.0
C806 C 0.76454 0.49107 0.58723 0.0
C807 C 0.81468 0.50894 0.58665 0.0
C808 C 0.03932 0.27909 0.13339 0.0
C809 C -0.00493 0.28731 0.10433 0.0
C810 C 0.05938 0.25584 0.13478 0.0
C811 C 0.03745 0.23993 0.10659 0.0
H812 H 0.05831 0.29071 0.15555 0.0
H813 H 0.09269 0.25031 0.15808 0.0
S814 S 0.9216 0.25264 0.02406 0.0
N815 N 0.92964 0.27767 0.04671 0.0
N816 N 0.96859 0.23402 0.04869 0.0
C817 C -0.00638 0.24792 0.07709 0.0
C818 C 0.97199 0.27157 0.07617 0.0
C819 C 0.4949 0.7776 0.14566 0.0
C820 C 0.48371 0.78895 0.11005 0.0
C821 C 0.51011 0.75392 0.14716 0.0
C822 C 0.51683 0.74078 0.11305 0.0
H823 H 0.49128 0.78707 0.1727 0.0
H824 H 0.51719 0.74587 0.1753 0.0
S825 S 0.49324 0.76224 0.0124 0.0
N826 N 0.47993 0.78521 0.03983 0.0
N827 N 0.5107 0.7408 0.04258 0.0
C828 C 0.50648 0.75192 0.0772 0.0
C829 C 0.48922 0.77597 0.07572 0.0
C830 C 0.50473 0.7747 0.38727 0.0
C831 C 0.49371 0.78928 0.3552 0.0
C832 C 0.4827 0.75155 0.38686 0.0
C833 C 0.45014 0.74204 0.35405 0.0
H834 H 0.52882 0.78138 0.41323 0.0
H835 H 0.49209 0.74097 0.41228 0.0
S836 S 0.41266 0.77292 0.2619 0.0
N837 N 0.44963 0.79258 0.28953 0.0
N838 N 0.41 0.74904 0.28825 0.0
C839 C 0.44026 0.7564 0.32151 0.0
C840 C 0.46155 0.78002 0.32223 0.0
C841 C 0.95849 0.28191 0.32947 0.0
C842 C -0.00296 0.29081 0.36054 0.0
C843 C 0.93862 0.25863 0.32839 0.0
C844 C 0.95502 0.24339 0.35879 0.0
H845 H 0.94358 0.29304 0.3056 0.0
H846 H 0.90954 0.25259 0.30367 0.0
S847 S 0.05623 0.2578 0.44657 0.0
N848 N 0.0522 0.28237 0.42211 0.0
N849 N 0.01361 0.23866 0.42056 0.0
C850 C -0.00634 0.25199 0.39008 0.0
C851 C 0.01512 0.27566 0.39079 0.0
C852 C 0.98095 0.77517 0.89072 0.0
C853 C 0.96316 0.78561 0.85518 0.0
C854 C -0.00089 0.75164 0.89258 0.0
C855 C -0.00171 0.73769 0.85915 0.0
H856 H 0.98265 0.78539 0.91703 0.0
H857 H 0.01259 0.74422 0.92044 0.0
S858 S 0.95398 0.75666 0.75935 0.0
N859 N 0.9461 0.78026 0.78595 0.0
N860 N 0.9774 0.73598 0.78966 0.0
C861 C 0.97956 0.74789 0.82364 0.0
C862 C 0.96276 0.77187 0.8216 0.0
C863 C 0.50895 0.24946 0.82591 0.0
C864 C 0.50173 0.23561 0.85923 0.0
C865 C 0.49449 0.27319 0.82683 0.0
C866 C 0.47007 0.28383 0.86075 0.0
H867 H 0.52681 0.24194 0.79899 0.0
H868 H 0.50218 0.28328 0.80066 0.0
S869 S 0.43984 0.25505 0.95543 0.0
N870 N 0.46797 0.23414 0.92703 0.0
N871 N 0.43844 0.27868 0.92837 0.0
C872 C 0.46123 0.27011 0.89409 0.0
C873 C 0.47779 0.24602 0.89345 0.0
C874 C 0.43758 0.25686 0.64138 0.0
C875 C 0.45378 0.24168 0.61094 0.0
C876 C 0.45514 0.28035 0.63961 0.0
C877 C 0.49102 0.28952 0.60775 0.0
H878 H 0.41055 0.2506 0.66668 0.0
H879 H 0.44078 0.29139 0.66362 0.0
S880 S 0.54763 0.25696 0.52096 0.0
N881 N 0.50866 0.23745 0.54805 0.0
N882 N 0.54287 0.28152 0.54522 0.0
C883 C 0.50853 0.27449 0.57735 0.0
C884 C 0.48948 0.25062 0.57878 0.0
C885 C 0.98342 0.75267 0.58181 0.0
C886 C 0.00286 0.73719 0.61127 0.0
C887 C 0.00618 0.77571 0.58195 0.0
C888 C 0.04795 0.7842 0.61201 0.0
H889 H 0.95192 0.7468 0.55796 0.0
H890 H 0.99003 0.78702 0.55861 0.0
S891 S 0.11108 0.75072 0.69662 0.0
N892 N 0.06552 0.73195 0.67154 0.0
N893 N 0.10668 0.77533 0.67233 0.0
C894 C 0.06661 0.76897 0.64199 0.0
C895 C 0.0445 0.74544 0.64147 0.0
C896 C 0.03177 0.1588 0.22129 0.0
C897 C 0.02991 0.13806 0.20004 0.0
C898 C 0.01325 0.15939 0.26031 0.0
C899 C -0.00793 0.13927 0.27992 0.0
H900 H 0.04617 0.17493 0.20754 0.0
H901 H 0.01458 0.17596 0.27497 0.0
S902 S 0.98342 0.08005 0.23854 0.0
N903 N 0.00929 0.09647 0.20221 0.0
N904 N 0.97418 0.09765 0.27583 0.0
C905 C -0.00729 0.11817 0.25961 0.0
C906 C 0.01172 0.11754 0.21965 0.0
C907 C 0.46133 0.87042 0.21599 0.0
C908 C 0.46084 0.89103 0.19431 0.0
C909 C 0.48309 0.87007 0.25444 0.0
C910 C 0.50533 0.89033 0.2732 0.0
H911 H 0.4458 0.85417 0.20306 0.0
H912 H 0.48298 0.85355 0.26937 0.0
S913 S 0.51015 0.94926 0.23025 0.0
N914 N 0.48153 0.93261 0.19492 0.0
N915 N 0.52253 0.93193 0.26774 0.0
C916 C 0.50297 0.91131 0.25243 0.0
C917 C 0.48066 0.91167 0.21293 0.0
C918 C 0.95775 0.8672 0.74339 0.0
C919 C 0.95827 0.88773 0.76521 0.0
C920 C 0.97862 0.86697 0.70474 0.0
C921 C 0.00091 0.88727 0.68605 0.0
H922 H 0.94231 0.85094 0.75637 0.0
H923 H 0.97795 0.85055 0.68963 0.0
S924 S 0.00797 0.94602 0.7293 0.0
N925 N 0.97973 0.92928 0.76465 0.0
N926 N 0.01918 0.92879 0.69169 0.0
C927 C -0.00054 0.90815 0.70696 0.0
C928 C 0.97807 0.9084 0.74657 0.0
C929 C 0.50653 0.11599 0.75044 0.0
C930 C 0.53775 0.13506 0.76855 0.0
C931 C 0.48789 0.11688 0.71119 0.0
C932 C 0.49996 0.13686 0.68884 0.0
H933 H 0.49339 0.10072 0.76708 0.0
H934 H 0.46127 0.10223 0.69879 0.0
S935 S 0.59139 0.18976 0.721 0.0
N936 N 0.58778 0.17323 0.76003 0.0
N937 N 0.55313 0.17492 0.68641 0.0
C938 C 0.53541 0.15538 0.70601 0.0
C939 C 0.55424 0.15447 0.74583 0.0
C940 C 0.48071 0.61955 0.2588 0.0
C941 C 0.49427 0.63866 0.28278 0.0
C942 C 0.50144 0.61945 0.21986 0.0
C943 C 0.53632 0.63847 0.20379 0.0
H944 H 0.45159 0.60501 0.26969 0.0
H945 H 0.48744 0.60485 0.20187 0.0
S946 S 0.59429 0.69093 0.25636 0.0
N947 N 0.55226 0.67574 0.28905 0.0
N948 N 0.59061 0.67559 0.21607 0.0
C949 C 0.55384 0.657 0.2282 0.0
C950 C 0.53295 0.65708 0.26765 0.0
C951 C 0.0261 0.3695 0.24819 0.0
C952 C 0.02509 0.39017 0.2697 0.0
C953 C 0.00349 0.36883 0.20987 0.0
C954 C 0.97893 0.38879 0.19118 0.0
H955 H 0.04345 0.35347 0.26117 0.0
H956 H 0.00495 0.35234 0.19498 0.0
S957 S 0.96843 0.44766 0.23381 0.0
N958 N -0.00027 0.43142 0.26901 0.0
N959 N 0.95719 0.43014 0.19656 0.0
C960 C 0.9794 0.4098 0.21182 0.0
C961 C 0.00254 0.4105 0.25112 0.0
C962 C 0.4976 0.36646 0.75709 0.0
C963 C 0.47733 0.38672 0.77642 0.0
C964 C 0.52086 0.36711 0.71892 0.0
C965 C 0.52476 0.38805 0.69817 0.0
H966 H 0.49522 0.34977 0.77137 0.0
H967 H 0.53487 0.35087 0.70547 0.0
S968 S 0.48007 0.4463 0.73576 0.0
N969 N 0.46467 0.42859 0.77233 0.0
N970 N 0.50809 0.4298 0.70016 0.0
C971 C 0.50615 0.40861 0.71731 0.0
C972 C 0.48245 0.40795 0.75646 0.0
C973 C 0.03406 0.65731 0.75154 0.0
C974 C 0.02932 0.63716 0.77427 0.0
C975 C 0.01333 0.65748 0.71292 0.0
C976 C 0.98694 0.63751 0.69513 0.0
H977 H 0.05284 0.67335 0.76378 0.0
H978 H 0.01745 0.67364 0.69708 0.0
S979 S 0.96741 0.57976 0.74103 0.0
N980 N -0.00085 0.59626 0.77571 0.0
N981 N 0.95997 0.59664 0.70254 0.0
C982 C 0.98414 0.61693 0.71692 0.0
C983 C 0.00539 0.61674 0.75659 0.0
loop_
_geom_bond_atom_site_label_1
_geom_bond_atom_site_label_2
_geom_bond_distance
_geom_bond_site_symmetry_2
_ccdc_geom_bond_type
Co0 O3 1.970 . S
Co0 N17 1.989 . S
Co0 O25 1.967 1_455 S
Co0 O32 1.920 . S
Co1 O4 1.966 . S
Co1 N10 2.022 . S
Co1 N18 1.993 . S
Co1 O26 1.953 . S
C2 O3 1.258 . S
C2 O4 1.263 . S
O3 Co0 1.970 . S
O3 C2 1.258 . S
O4 Co1 1.966 . S
O4 C2 1.263 . S
C5 O6 1.235 . S
C5 O32 1.289 . S
O6 C5 1.235 . S
C7 C9 1.400 . S
C7 N10 1.351 . S
C7 C12 1.501 . S
C8 C9 1.387 . S
C8 N11 1.341 . S
C9 C7 1.400 . S
C9 C8 1.387 . S
N10 Co1 2.022 . S
N10 C7 1.351 . S
N10 N11 1.365 . S
N11 C8 1.341 . S
N11 N10 1.365 . S
N11 H31 0.862 . S
C12 C7 1.501 . S
C12 H13 0.961 . S
C12 H14 0.961 . S
C12 H15 0.960 . S
H13 C12 0.961 . S
H14 C12 0.961 . S
H15 C12 0.960 . S
C16 N17 1.342 . S
C16 C20 1.401 . S
C16 C21 1.499 . S
N17 Co0 1.989 . S
N17 C16 1.342 . S
N17 N18 1.388 . S
N18 Co1 1.993 . S
N18 N17 1.388 . S
N18 C19 1.346 . S
C19 N18 1.346 . S
C19 C20 1.396 . S
C19 C29 1.510 . S
C20 C16 1.401 . S
C20 C19 1.396 . S
C21 C16 1.499 . S
C21 H22 0.959 . S
C21 H23 0.960 . S
C21 H24 0.961 . S
H22 C21 0.959 . S
H23 C21 0.960 . S
H24 C21 0.961 . S
O25 Co0 1.967 1_655 S
O25 C33 1.258 . S
O26 Co1 1.953 . S
O26 C33 1.259 1_455 S
H27 C29 0.959 . S
H28 C29 0.961 . S
C29 C19 1.510 . S
C29 H27 0.959 . S
C29 H28 0.961 . S
C29 H30 0.960 . S
H30 C29 0.960 . S
H31 N11 0.862 . S
O32 Co0 1.920 . S
O32 C5 1.289 . S
C33 O25 1.258 . S
C33 O26 1.259 1_655 S
Co34 O37 1.970 . S
Co34 N51 1.989 . S
Co34 O59 1.967 . S
Co34 O66 1.920 . S
Co35 O38 1.966 . S
Co35 N44 2.022 . S
Co35 N52 1.993 . S
Co35 O60 1.941 . S
C36 O37 1.258 . S
C36 O38 1.263 . S
O37 Co34 1.970 . S
O37 C36 1.258 . S
O38 Co35 1.966 . S
O38 C36 1.263 . S
C39 O40 1.235 . S
C39 O66 1.289 . S
O40 C39 1.235 . S
C41 C43 1.400 . S
C41 N44 1.351 . S
C41 C46 1.501 . S
C42 C43 1.387 . S
C42 N45 1.341 . S
C43 C41 1.400 . S
C43 C42 1.387 . S
N44 Co35 2.022 . S
N44 C41 1.351 . S
N44 N45 1.365 . S
N45 C42 1.341 . S
N45 N44 1.365 . S
N45 H65 0.862 . S
C46 C41 1.501 . S
C46 H47 0.961 . S
C46 H48 0.961 . S
C46 H49 0.960 . S
H47 C46 0.961 . S
H48 C46 0.961 . S
H49 C46 0.960 . S
C50 N51 1.342 . S
C50 C54 1.401 . S
C50 C55 1.499 . S
N51 Co34 1.989 . S
N51 C50 1.342 . S
N51 N52 1.388 . S
N52 Co35 1.993 . S
N52 N51 1.388 . S
N52 C53 1.346 . S
C53 N52 1.346 . S
C53 C54 1.396 . S
C53 C63 1.510 . S
C54 C50 1.401 . S
C54 C53 1.396 . S
C55 C50 1.499 . S
C55 H56 0.959 . S
C55 H57 0.960 . S
C55 H58 0.961 . S
H56 C55 0.959 . S
H57 C55 0.960 . S
H58 C55 0.961 . S
O59 Co34 1.967 . S
O59 C67 1.258 . S
O60 Co35 1.941 . S
O60 C67 1.266 . S
H61 C63 0.959 . S
H62 C63 0.961 . S
C63 C53 1.510 . S
C63 H61 0.959 . S
C63 H62 0.961 . S
C63 H64 0.960 . S
H64 C63 0.960 . S
H65 N45 0.862 . S
O66 Co34 1.920 . S
O66 C39 1.289 . S
C67 O59 1.258 . S
C67 O60 1.266 . S
Co68 O71 1.970 . S
Co68 N85 1.989 . S
Co68 O93 1.967 . S
Co68 O100 1.920 . S
Co69 O72 1.966 . S
Co69 N78 2.022 . S
Co69 N86 1.993 . S
Co69 O94 1.941 . S
C70 O71 1.258 . S
C70 O72 1.263 . S
O71 Co68 1.970 . S
O71 C70 1.258 . S
O72 Co69 1.966 . S
O72 C70 1.263 . S
C73 O74 1.235 . S
C73 O100 1.289 . S
O74 C73 1.235 . S
C75 C77 1.400 . S
C75 N78 1.351 . S
C75 C80 1.501 . S
C76 C77 1.387 . S
C76 N79 1.341 . S
C77 C75 1.400 . S
C77 C76 1.387 . S
N78 Co69 2.022 . S
N78 C75 1.351 . S
N78 N79 1.365 . S
N79 C76 1.341 . S
N79 N78 1.365 . S
N79 H99 0.862 . S
C80 C75 1.501 . S
C80 H81 0.961 . S
C80 H82 0.961 . S
C80 H83 0.960 . S
H81 C80 0.961 . S
H82 C80 0.961 . S
H83 C80 0.960 . S
C84 N85 1.342 . S
C84 C88 1.401 . S
C84 C89 1.499 . S
N85 Co68 1.989 . S
N85 C84 1.342 . S
N85 N86 1.388 . S
N86 Co69 1.993 . S
N86 N85 1.388 . S
N86 C87 1.346 . S
C87 N86 1.346 . S
C87 C88 1.396 . S
C87 C97 1.510 . S
C88 C84 1.401 . S
C88 C87 1.396 . S
C89 C84 1.499 . S
C89 H90 0.959 . S
C89 H91 0.960 . S
C89 H92 0.961 . S
H90 C89 0.959 . S
H91 C89 0.960 . S
H92 C89 0.961 . S
O93 Co68 1.967 . S
O93 C101 1.258 . S
O94 Co69 1.941 . S
O94 C101 1.266 . S
H95 C97 0.959 . S
H96 C97 0.961 . S
C97 C87 1.510 . S
C97 H95 0.959 . S
C97 H96 0.961 . S
C97 H98 0.960 . S
H98 C97 0.960 . S
H99 N79 0.862 . S
O100 Co68 1.920 . S
O100 C73 1.289 . S
C101 O93 1.258 . S
C101 O94 1.266 . S
Co102 O105 1.970 . S
Co102 N119 1.989 . S
Co102 O127 1.967 1_655 S
Co102 O134 1.920 . S
Co103 O106 1.966 . S
Co103 N112 2.022 . S
Co103 N120 1.993 . S
Co103 O128 1.953 . S
C104 O105 1.258 . S
C104 O106 1.263 . S
O105 Co102 1.970 . S
O105 C104 1.258 . S
O106 Co103 1.966 . S
O106 C104 1.263 . S
C107 O108 1.235 . S
C107 O134 1.289 . S
O108 C107 1.235 . S
C109 C111 1.400 . S
C109 N112 1.351 . S
C109 C114 1.501 . S
C110 C111 1.387 . S
C110 N113 1.341 . S
C111 C109 1.400 . S
C111 C110 1.387 . S
N112 Co103 2.022 . S
N112 C109 1.351 . S
N112 N113 1.365 . S
N113 C110 1.341 . S
N113 N112 1.365 . S
N113 H133 0.862 . S
C114 C109 1.501 . S
C114 H115 0.961 . S
C114 H116 0.961 . S
C114 H117 0.960 . S
H115 C114 0.961 . S
H116 C114 0.961 . S
H117 C114 0.960 . S
C118 N119 1.342 . S
C118 C122 1.401 . S
C118 C123 1.499 . S
N119 Co102 1.989 . S
N119 C118 1.342 . S
N119 N120 1.388 . S
N120 Co103 1.993 . S
N120 N119 1.388 . S
N120 C121 1.346 . S
C121 N120 1.346 . S
C121 C122 1.396 . S
C121 C131 1.510 . S
C122 C118 1.401 . S
C122 C121 1.396 . S
C123 C118 1.499 . S
C123 H124 0.959 . S
C123 H125 0.960 . S
C123 H126 0.961 . S
H124 C123 0.959 . S
H125 C123 0.960 . S
H126 C123 0.961 . S
O127 Co102 1.967 1_455 S
O127 C135 1.258 . S
O128 Co103 1.953 . S
O128 C135 1.259 1_655 S
H129 C131 0.959 . S
H130 C131 0.961 . S
C131 C121 1.510 . S
C131 H129 0.959 . S
C131 H130 0.961 . S
C131 H132 0.960 . S
H132 C131 0.960 . S
H133 N113 0.862 . S
O134 Co102 1.920 . S
O134 C107 1.289 . S
C135 O127 1.258 . S
C135 O128 1.259 1_455 S
Co136 O139 1.970 . S
Co136 N153 1.989 . S
Co136 O161 1.967 1_655 S
Co136 O168 1.920 . S
Co137 O140 1.966 . S
Co137 N146 2.022 . S
Co137 N154 1.993 . S
Co137 O162 1.953 . S
C138 O139 1.258 . S
C138 O140 1.263 . S
O139 Co136 1.970 . S
O139 C138 1.258 . S
O140 Co137 1.966 . S
O140 C138 1.263 . S
C141 O142 1.235 . S
C141 O168 1.289 . S
O142 C141 1.235 . S
C143 C145 1.400 . S
C143 N146 1.351 . S
C143 C148 1.501 . S
C144 C145 1.387 . S
C144 N147 1.341 . S
C145 C143 1.400 . S
C145 C144 1.387 . S
N146 Co137 2.022 . S
N146 C143 1.351 . S
N146 N147 1.365 . S
N147 C144 1.341 . S
N147 N146 1.365 . S
N147 H167 0.862 . S
C148 C143 1.501 . S
C148 H149 0.961 . S
C148 H150 0.961 . S
C148 H151 0.960 . S
H149 C148 0.961 . S
H150 C148 0.961 . S
H151 C148 0.960 . S
C152 N153 1.342 . S
C152 C156 1.401 . S
C152 C157 1.499 . S
N153 Co136 1.989 . S
N153 C152 1.342 . S
N153 N154 1.388 . S
N154 Co137 1.993 . S
N154 N153 1.388 . S
N154 C155 1.346 . S
C155 N154 1.346 . S
C155 C156 1.396 . S
C155 C165 1.510 . S
C156 C152 1.401 . S
C156 C155 1.396 . S
C157 C152 1.499 . S
C157 H158 0.959 . S
C157 H159 0.960 . S
C157 H160 0.961 . S
H158 C157 0.959 . S
H159 C157 0.960 . S
H160 C157 0.961 . S
O161 Co136 1.967 1_455 S
O161 C169 1.258 . S
O162 Co137 1.953 . S
O162 C169 1.259 1_655 S
H163 C165 0.959 . S
H164 C165 0.961 . S
C165 C155 1.510 . S
C165 H163 0.959 . S
C165 H164 0.961 . S
C165 H166 0.960 . S
H166 C165 0.960 . S
H167 N147 0.862 . S
O168 Co136 1.920 . S
O168 C141 1.289 . S
C169 O161 1.258 . S
C169 O162 1.259 1_455 S
Co170 O173 1.970 . S
Co170 N187 1.989 . S
Co170 O195 1.967 . S
Co170 O202 1.920 . S
Co171 O174 1.966 . S
Co171 N180 2.022 . S
Co171 N188 1.993 . S
Co171 O196 1.941 . S
C172 O173 1.258 . S
C172 O174 1.263 . S
O173 Co170 1.970 . S
O173 C172 1.258 . S
O174 Co171 1.966 . S
O174 C172 1.263 . S
C175 O176 1.235 . S
C175 O202 1.289 . S
O176 C175 1.235 . S
C177 C179 1.400 . S
C177 N180 1.351 . S
C177 C182 1.501 . S
C178 C179 1.387 . S
C178 N181 1.341 . S
C179 C177 1.400 . S
C179 C178 1.387 . S
N180 Co171 2.022 . S
N180 C177 1.351 . S
N180 N181 1.365 . S
N181 C178 1.341 . S
N181 N180 1.365 . S
N181 H201 0.862 . S
C182 C177 1.501 . S
C182 H183 0.961 . S
C182 H184 0.961 . S
C182 H185 0.960 . S
H183 C182 0.961 . S
H184 C182 0.961 . S
H185 C182 0.960 . S
C186 N187 1.342 . S
C186 C190 1.401 . S
C186 C191 1.499 . S
N187 Co170 1.989 . S
N187 C186 1.342 . S
N187 N188 1.388 . S
N188 Co171 1.993 . S
N188 N187 1.388 . S
N188 C189 1.346 . S
C189 N188 1.346 . S
C189 C190 1.396 . S
C189 C199 1.510 . S
C190 C186 1.401 . S
C190 C189 1.396 . S
C191 C186 1.499 . S
C191 H192 0.959 . S
C191 H193 0.960 . S
C191 H194 0.961 . S
H192 C191 0.959 . S
H193 C191 0.960 . S
H194 C191 0.961 . S
O195 Co170 1.967 . S
O195 C203 1.258 . S
O196 Co171 1.941 . S
O196 C203 1.266 . S
H197 C199 0.959 . S
H198 C199 0.961 . S
C199 C189 1.510 . S
C199 H197 0.959 . S
C199 H198 0.961 . S
C199 H200 0.960 . S
H200 C199 0.960 . S
H201 N181 0.862 . S
O202 Co170 1.920 . S
O202 C175 1.289 . S
C203 O195 1.258 . S
C203 O196 1.266 . S
Co204 O207 1.970 . S
Co204 N221 1.989 . S
Co204 O229 1.967 . S
Co204 O236 1.920 . S
Co205 O208 1.966 . S
Co205 N214 2.022 . S
Co205 N222 1.993 . S
Co205 O230 1.941 . S
C206 O207 1.258 . S
C206 O208 1.263 . S
O207 Co204 1.970 . S
O207 C206 1.258 . S
O208 Co205 1.966 . S
O208 C206 1.263 . S
C209 O210 1.235 . S
C209 O236 1.289 . S
O210 C209 1.235 . S
C211 C213 1.400 . S
C211 N214 1.351 . S
C211 C216 1.501 . S
C212 C213 1.387 . S
C212 N215 1.341 . S
C213 C211 1.400 . S
C213 C212 1.387 . S
N214 Co205 2.022 . S
N214 C211 1.351 . S
N214 N215 1.365 . S
N215 C212 1.341 . S
N215 N214 1.365 . S
N215 H235 0.862 . S
C216 C211 1.501 . S
C216 H217 0.961 . S
C216 H218 0.961 . S
C216 H219 0.960 . S
H217 C216 0.961 . S
H218 C216 0.961 . S
H219 C216 0.960 . S
C220 N221 1.342 . S
C220 C224 1.401 . S
C220 C225 1.499 . S
N221 Co204 1.989 . S
N221 C220 1.342 . S
N221 N222 1.388 . S
N222 Co205 1.993 . S
N222 N221 1.388 . S
N222 C223 1.346 . S
C223 N222 1.346 . S
C223 C224 1.396 . S
C223 C233 1.510 . S
C224 C220 1.401 . S
C224 C223 1.396 . S
C225 C220 1.499 . S
C225 H226 0.959 . S
C225 H227 0.960 . S
C225 H228 0.961 . S
H226 C225 0.959 . S
H227 C225 0.960 . S
H228 C225 0.961 . S
O229 Co204 1.967 . S
O229 C237 1.258 . S
O230 Co205 1.941 . S
O230 C237 1.266 . S
H231 C233 0.959 . S
H232 C233 0.961 . S
C233 C223 1.510 . S
C233 H231 0.959 . S
C233 H232 0.961 . S
C233 H234 0.960 . S
H234 C233 0.960 . S
H235 N215 0.862 . S
O236 Co204 1.920 . S
O236 C209 1.289 . S
C237 O229 1.258 . S
C237 O230 1.266 . S
Co238 O241 1.970 . S
Co238 N255 1.989 . S
Co238 O263 1.967 1_455 S
Co238 O270 1.920 . S
Co239 O242 1.966 . S
Co239 N248 2.022 . S
Co239 N256 1.993 . S
Co239 O264 1.953 . S
C240 O241 1.258 . S
C240 O242 1.263 . S
O241 Co238 1.970 . S
O241 C240 1.258 . S
O242 Co239 1.966 . S
O242 C240 1.263 . S
C243 O244 1.235 . S
C243 O270 1.289 . S
O244 C243 1.235 . S
C245 C247 1.400 . S
C245 N248 1.351 . S
C245 C250 1.501 . S
C246 C247 1.387 . S
C246 N249 1.341 . S
C247 C245 1.400 . S
C247 C246 1.387 . S
N248 Co239 2.022 . S
N248 C245 1.351 . S
N248 N249 1.365 . S
N249 C246 1.341 . S
N249 N248 1.365 . S
N249 H269 0.862 . S
C250 C245 1.501 . S
C250 H251 0.961 . S
C250 H252 0.961 . S
C250 H253 0.960 . S
H251 C250 0.961 . S
H252 C250 0.961 . S
H253 C250 0.960 . S
C254 N255 1.342 . S
C254 C258 1.401 . S
C254 C259 1.499 . S
N255 Co238 1.989 . S
N255 C254 1.342 . S
N255 N256 1.388 . S
N256 Co239 1.993 . S
N256 N255 1.388 . S
N256 C257 1.346 . S
C257 N256 1.346 . S
C257 C258 1.396 . S
C257 C267 1.510 . S
C258 C254 1.401 . S
C258 C257 1.396 . S
C259 C254 1.499 . S
C259 H260 0.959 . S
C259 H261 0.960 . S
C259 H262 0.961 . S
H260 C259 0.959 . S
H261 C259 0.960 . S
H262 C259 0.961 . S
O263 Co238 1.967 1_655 S
O263 C271 1.258 . S
O264 Co239 1.953 . S
O264 C271 1.259 1_455 S
H265 C267 0.959 . S
H266 C267 0.961 . S
C267 C257 1.510 . S
C267 H265 0.959 . S
C267 H266 0.961 . S
C267 H268 0.960 . S
H268 C267 0.960 . S
H269 N249 0.862 . S
O270 Co238 1.920 . S
O270 C243 1.289 . S
C271 O263 1.258 . S
C271 O264 1.259 1_655 S
Co272 O275 1.970 . S
Co272 N289 1.989 . S
Co272 O297 1.967 . S
Co272 O304 1.920 . S
Co273 O276 1.966 . S
Co273 N282 2.022 . S
Co273 N290 1.993 . S
Co273 O298 1.941 . S
C274 O275 1.258 . S
C274 O276 1.263 . S
O275 Co272 1.970 . S
O275 C274 1.258 . S
O276 Co273 1.966 . S
O276 C274 1.263 . S
C277 O278 1.235 . S
C277 O304 1.289 . S
O278 C277 1.235 . S
C279 C281 1.400 . S
C279 N282 1.351 . S
C279 C284 1.501 . S
C280 C281 1.387 . S
C280 N283 1.341 . S
C281 C279 1.400 . S
C281 C280 1.387 . S
N282 Co273 2.022 . S
N282 C279 1.351 . S
N282 N283 1.365 . S
N283 C280 1.341 . S
N283 N282 1.365 . S
N283 H303 0.862 . S
C284 C279 1.501 . S
C284 H285 0.961 . S
C284 H286 0.961 . S
C284 H287 0.960 . S
H285 C284 0.961 . S
H286 C284 0.961 . S
H287 C284 0.960 . S
C288 N289 1.342 . S
C288 C292 1.401 . S
C288 C293 1.499 . S
N289 Co272 1.989 . S
N289 C288 1.342 . S
N289 N290 1.388 . S
N290 Co273 1.993 . S
N290 N289 1.388 . S
N290 C291 1.346 . S
C291 N290 1.346 . S
C291 C292 1.396 . S
C291 C301 1.510 . S
C292 C288 1.401 . S
C292 C291 1.396 . S
C293 C288 1.499 . S
C293 H294 0.959 . S
C293 H295 0.960 . S
C293 H296 0.961 . S
H294 C293 0.959 . S
H295 C293 0.960 . S
H296 C293 0.961 . S
O297 Co272 1.967 . S
O297 C305 1.258 . S
O298 Co273 1.941 . S
O298 C305 1.266 . S
H299 C301 0.959 . S
H300 C301 0.961 . S
C301 C291 1.510 . S
C301 H299 0.959 . S
C301 H300 0.961 . S
C301 H302 0.960 . S
H302 C301 0.960 . S
H303 N283 0.862 . S
O304 Co272 1.920 . S
O304 C277 1.289 . S
C305 O297 1.258 . S
C305 O298 1.266 . S
Co306 O309 1.970 . S
Co306 N323 1.989 . S
Co306 O331 1.967 1_655 S
Co306 O338 1.920 . S
Co307 O310 1.966 . S
Co307 N316 2.022 . S
Co307 N324 1.993 . S
Co307 O332 1.953 . S
C308 O309 1.258 . S
C308 O310 1.263 . S
O309 Co306 1.970 . S
O309 C308 1.258 . S
O310 Co307 1.966 . S
O310 C308 1.263 . S
C311 O312 1.235 . S
C311 O338 1.289 . S
O312 C311 1.235 . S
C313 C315 1.400 . S
C313 N316 1.351 . S
C313 C318 1.501 . S
C314 C315 1.387 . S
C314 N317 1.341 . S
C315 C313 1.400 . S
C315 C314 1.387 . S
N316 Co307 2.022 . S
N316 C313 1.351 . S
N316 N317 1.365 . S
N317 C314 1.341 . S
N317 N316 1.365 . S
N317 H337 0.862 . S
C318 C313 1.501 . S
C318 H319 0.961 . S
C318 H320 0.961 . S
C318 H321 0.960 . S
H319 C318 0.961 . S
H320 C318 0.961 . S
H321 C318 0.960 . S
C322 N323 1.342 . S
C322 C326 1.401 . S
C322 C327 1.499 . S
N323 Co306 1.989 . S
N323 C322 1.342 . S
N323 N324 1.388 . S
N324 Co307 1.993 . S
N324 N323 1.388 . S
N324 C325 1.346 . S
C325 N324 1.346 . S
C325 C326 1.396 . S
C325 C335 1.510 . S
C326 C322 1.401 . S
C326 C325 1.396 . S
C327 C322 1.499 . S
C327 H328 0.959 . S
C327 H329 0.960 . S
C327 H330 0.961 . S
H328 C327 0.959 . S
H329 C327 0.960 . S
H330 C327 0.961 . S
O331 Co306 1.967 1_455 S
O331 C339 1.258 . S
O332 Co307 1.953 . S
O332 C339 1.259 1_655 S
H333 C335 0.959 . S
H334 C335 0.961 . S
C335 C325 1.510 . S
C335 H333 0.959 . S
C335 H334 0.961 . S
C335 H336 0.960 . S
H336 C335 0.960 . S
H337 N317 0.862 . S
O338 Co306 1.920 . S
O338 C311 1.289 . S
C339 O331 1.258 . S
C339 O332 1.259 1_455 S
Co340 O343 1.970 . S
Co340 N357 1.989 . S
Co340 O365 1.967 1_455 S
Co340 O372 1.920 . S
Co341 O344 1.966 . S
Co341 N350 2.022 . S
Co341 N358 1.993 . S
Co341 O366 1.953 . S
C342 O343 1.258 . S
C342 O344 1.263 . S
O343 Co340 1.970 . S
O343 C342 1.258 . S
O344 Co341 1.966 . S
O344 C342 1.263 . S
C345 O346 1.235 . S
C345 O372 1.289 . S
O346 C345 1.235 . S
C347 C349 1.400 . S
C347 N350 1.351 . S
C347 C352 1.501 . S
C348 C349 1.387 . S
C348 N351 1.341 . S
C349 C347 1.400 . S
C349 C348 1.387 . S
N350 Co341 2.022 . S
N350 C347 1.351 . S
N350 N351 1.365 . S
N351 C348 1.341 . S
N351 N350 1.365 . S
N351 H371 0.862 . S
C352 C347 1.501 . S
C352 H353 0.961 . S
C352 H354 0.961 . S
C352 H355 0.960 . S
H353 C352 0.961 . S
H354 C352 0.961 . S
H355 C352 0.960 . S
C356 N357 1.342 . S
C356 C360 1.401 . S
C356 C361 1.499 . S
N357 Co340 1.989 . S
N357 C356 1.342 . S
N357 N358 1.388 . S
N358 Co341 1.993 . S
N358 N357 1.388 . S
N358 C359 1.346 . S
C359 N358 1.346 . S
C359 C360 1.396 . S
C359 C369 1.510 . S
C360 C356 1.401 . S
C360 C359 1.396 . S
C361 C356 1.499 . S
C361 H362 0.959 . S
C361 H363 0.960 . S
C361 H364 0.961 . S
H362 C361 0.959 . S
H363 C361 0.960 . S
H364 C361 0.961 . S
O365 Co340 1.967 1_655 S
O365 C373 1.258 . S
O366 Co341 1.953 . S
O366 C373 1.259 1_455 S
H367 C369 0.959 . S
H368 C369 0.961 . S
C369 C359 1.510 . S
C369 H367 0.959 . S
C369 H368 0.961 . S
C369 H370 0.960 . S
H370 C369 0.960 . S
H371 N351 0.862 . S
O372 Co340 1.920 . S
O372 C345 1.289 . S
C373 O365 1.258 . S
C373 O366 1.259 1_655 S
Co374 O377 1.970 . S
Co374 N391 1.989 . S
Co374 O399 1.967 . S
Co374 O406 1.920 . S
Co375 O378 1.966 . S
Co375 N384 2.022 . S
Co375 N392 1.993 . S
Co375 O400 1.941 . S
C376 O377 1.258 . S
C376 O378 1.263 . S
O377 Co374 1.970 . S
O377 C376 1.258 . S
O378 Co375 1.966 . S
O378 C376 1.263 . S
C379 O380 1.235 . S
C379 O406 1.289 . S
O380 C379 1.235 . S
C381 C383 1.400 . S
C381 N384 1.351 . S
C381 C386 1.501 . S
C382 C383 1.387 . S
C382 N385 1.341 . S
C383 C381 1.400 . S
C383 C382 1.387 . S
N384 Co375 2.022 . S
N384 C381 1.351 . S
N384 N385 1.365 . S
N385 C382 1.341 . S
N385 N384 1.365 . S
N385 H405 0.862 . S
C386 C381 1.501 . S
C386 H387 0.961 . S
C386 H388 0.961 . S
C386 H389 0.960 . S
H387 C386 0.961 . S
H388 C386 0.961 . S
H389 C386 0.960 . S
C390 N391 1.342 . S
C390 C394 1.401 . S
C390 C395 1.499 . S
N391 Co374 1.989 . S
N391 C390 1.342 . S
N391 N392 1.388 . S
N392 Co375 1.993 . S
N392 N391 1.388 . S
N392 C393 1.346 . S
C393 N392 1.346 . S
C393 C394 1.396 . S
C393 C403 1.510 . S
C394 C390 1.401 . S
C394 C393 1.396 . S
C395 C390 1.499 . S
C395 H396 0.959 . S
C395 H397 0.960 . S
C395 H398 0.961 . S
H396 C395 0.959 . S
H397 C395 0.960 . S
H398 C395 0.961 . S
O399 Co374 1.967 . S
O399 C407 1.258 . S
O400 Co375 1.941 . S
O400 C407 1.266 . S
H401 C403 0.959 . S
H402 C403 0.961 . S
C403 C393 1.510 . S
C403 H401 0.959 . S
C403 H402 0.961 . S
C403 H404 0.960 . S
H404 C403 0.960 . S
H405 N385 0.862 . S
O406 Co374 1.920 . S
O406 C379 1.289 . S
C407 O399 1.258 . S
C407 O400 1.266 . S
Co408 O411 1.970 . S
Co408 N425 1.989 . S
Co408 O433 1.967 . S
Co408 O440 1.920 . S
Co409 O412 1.966 . S
Co409 N418 2.022 . S
Co409 N426 1.993 . S
Co409 O434 1.941 . S
C410 O411 1.258 . S
C410 O412 1.263 . S
O411 Co408 1.970 . S
O411 C410 1.258 . S
O412 Co409 1.966 . S
O412 C410 1.263 . S
C413 O414 1.235 . S
C413 O440 1.289 . S
O414 C413 1.235 . S
C415 C417 1.400 . S
C415 N418 1.351 . S
C415 C420 1.501 . S
C416 C417 1.387 . S
C416 N419 1.341 . S
C417 C415 1.400 . S
C417 C416 1.387 . S
N418 Co409 2.022 . S
N418 C415 1.351 . S
N418 N419 1.365 . S
N419 C416 1.341 . S
N419 N418 1.365 . S
N419 H439 0.862 . S
C420 C415 1.501 . S
C420 H421 0.961 . S
C420 H422 0.961 . S
C420 H423 0.960 . S
H421 C420 0.961 . S
H422 C420 0.961 . S
H423 C420 0.960 . S
C424 N425 1.342 . S
C424 C428 1.401 . S
C424 C429 1.499 . S
N425 Co408 1.989 . S
N425 C424 1.342 . S
N425 N426 1.388 . S
N426 Co409 1.993 . S
N426 N425 1.388 . S
N426 C427 1.346 . S
C427 N426 1.346 . S
C427 C428 1.396 . S
C427 C437 1.510 . S
C428 C424 1.401 . S
C428 C427 1.396 . S
C429 C424 1.499 . S
C429 H430 0.959 . S
C429 H431 0.960 . S
C429 H432 0.961 . S
H430 C429 0.959 . S
H431 C429 0.960 . S
H432 C429 0.961 . S
O433 Co408 1.967 . S
O433 C441 1.258 . S
O434 Co409 1.941 . S
O434 C441 1.266 . S
H435 C437 0.959 . S
H436 C437 0.961 . S
C437 C427 1.510 . S
C437 H435 0.959 . S
C437 H436 0.961 . S
C437 H438 0.960 . S
H438 C437 0.960 . S
H439 N419 0.862 . S
O440 Co408 1.920 . S
O440 C413 1.289 . S
C441 O433 1.258 . S
C441 O434 1.266 . S
Co442 O445 1.970 . S
Co442 N459 1.989 . S
Co442 O467 1.967 1_455 S
Co442 O474 1.920 . S
Co443 O446 1.966 . S
Co443 N452 2.022 . S
Co443 N460 1.993 . S
Co443 O468 1.953 . S
C444 O445 1.258 . S
C444 O446 1.263 . S
O445 Co442 1.970 . S
O445 C444 1.258 . S
O446 Co443 1.966 . S
O446 C444 1.263 . S
C447 O448 1.235 . S
C447 O474 1.289 . S
O448 C447 1.235 . S
C449 C451 1.400 . S
C449 N452 1.351 . S
C449 C454 1.501 . S
C450 C451 1.387 . S
C450 N453 1.341 . S
C451 C449 1.400 . S
C451 C450 1.387 . S
N452 Co443 2.022 . S
N452 C449 1.351 . S
N452 N453 1.365 . S
N453 C450 1.341 . S
N453 N452 1.365 . S
N453 H473 0.862 . S
C454 C449 1.501 . S
C454 H455 0.961 . S
C454 H456 0.961 . S
C454 H457 0.960 . S
H455 C454 0.961 . S
H456 C454 0.961 . S
H457 C454 0.960 . S
C458 N459 1.342 . S
C458 C462 1.401 . S
C458 C463 1.499 . S
N459 Co442 1.989 . S
N459 C458 1.342 . S
N459 N460 1.388 . S
N460 Co443 1.993 . S
N460 N459 1.388 . S
N460 C461 1.346 . S
C461 N460 1.346 . S
C461 C462 1.396 . S
C461 C471 1.510 . S
C462 C458 1.401 . S
C462 C461 1.396 . S
C463 C458 1.499 . S
C463 H464 0.959 . S
C463 H465 0.960 . S
C463 H466 0.961 . S
H464 C463 0.959 . S
H465 C463 0.960 . S
H466 C463 0.961 . S
O467 Co442 1.967 1_655 S
O467 C475 1.258 . S
O468 Co443 1.953 . S
O468 C475 1.259 1_455 S
H469 C471 0.959 . S
H470 C471 0.961 . S
C471 C461 1.510 . S
C471 H469 0.959 . S
C471 H470 0.961 . S
C471 H472 0.960 . S
H472 C471 0.960 . S
H473 N453 0.862 . S
O474 Co442 1.920 . S
O474 C447 1.289 . S
C475 O467 1.258 . S
C475 O468 1.259 1_655 S
Co476 O479 1.970 . S
Co476 N493 1.989 . S
Co476 O501 1.967 1_655 S
Co476 O508 1.920 . S
Co477 O480 1.966 . S
Co477 N486 2.022 . S
Co477 N494 1.993 . S
Co477 O502 1.953 . S
C478 O479 1.258 . S
C478 O480 1.263 . S
O479 Co476 1.970 . S
O479 C478 1.258 . S
O480 Co477 1.966 . S
O480 C478 1.263 . S
C481 O482 1.235 . S
C481 O508 1.289 . S
O482 C481 1.235 . S
C483 C485 1.400 . S
C483 N486 1.351 . S
C483 C488 1.501 . S
C484 C485 1.387 . S
C484 N487 1.341 . S
C485 C483 1.400 . S
C485 C484 1.387 . S
N486 Co477 2.022 . S
N486 C483 1.351 . S
N486 N487 1.365 . S
N487 C484 1.341 . S
N487 N486 1.365 . S
N487 H507 0.862 . S
C488 C483 1.501 . S
C488 H489 0.961 . S
C488 H490 0.961 . S
C488 H491 0.960 . S
H489 C488 0.961 . S
H490 C488 0.961 . S
H491 C488 0.960 . S
C492 N493 1.342 . S
C492 C496 1.401 . S
C492 C497 1.499 . S
N493 Co476 1.989 . S
N493 C492 1.342 . S
N493 N494 1.388 . S
N494 Co477 1.993 . S
N494 N493 1.388 . S
N494 C495 1.346 . S
C495 N494 1.346 . S
C495 C496 1.396 . S
C495 C505 1.510 . S
C496 C492 1.401 . S
C496 C495 1.396 . S
C497 C492 1.499 . S
C497 H498 0.959 . S
C497 H499 0.960 . S
C497 H500 0.961 . S
H498 C497 0.959 . S
H499 C497 0.960 . S
H500 C497 0.961 . S
O501 Co476 1.967 1_455 S
O501 C509 1.258 . S
O502 Co477 1.953 . S
O502 C509 1.259 1_655 S
H503 C505 0.959 . S
H504 C505 0.961 . S
C505 C495 1.510 . S
C505 H503 0.959 . S
C505 H504 0.961 . S
C505 H506 0.960 . S
H506 C505 0.960 . S
H507 N487 0.862 . S
O508 Co476 1.920 . S
O508 C481 1.289 . S
C509 O501 1.258 . S
C509 O502 1.259 1_455 S
Co510 O513 1.970 . S
Co510 N527 1.989 . S
Co510 O535 1.967 . S
Co510 O542 1.920 . S
Co511 O514 1.966 . S
Co511 N520 2.022 . S
Co511 N528 1.993 . S
Co511 O536 1.941 . S
C512 O513 1.258 . S
C512 O514 1.263 . S
O513 Co510 1.970 . S
O513 C512 1.258 . S
O514 Co511 1.966 . S
O514 C512 1.263 . S
C515 O516 1.235 . S
C515 O542 1.289 . S
O516 C515 1.235 . S
C517 C519 1.400 . S
C517 N520 1.351 . S
C517 C522 1.501 . S
C518 C519 1.387 . S
C518 N521 1.341 . S
C519 C517 1.400 . S
C519 C518 1.387 . S
N520 Co511 2.022 . S
N520 C517 1.351 . S
N520 N521 1.365 . S
N521 C518 1.341 . S
N521 N520 1.365 . S
N521 H541 0.862 . S
C522 C517 1.501 . S
C522 H523 0.961 . S
C522 H524 0.961 . S
C522 H525 0.960 . S
H523 C522 0.961 . S
H524 C522 0.961 . S
H525 C522 0.960 . S
C526 N527 1.342 . S
C526 C530 1.401 . S
C526 C531 1.499 . S
N527 Co510 1.989 . S
N527 C526 1.342 . S
N527 N528 1.388 . S
N528 Co511 1.993 . S
N528 N527 1.388 . S
N528 C529 1.346 . S
C529 N528 1.346 . S
C529 C530 1.396 . S
C529 C539 1.510 . S
C530 C526 1.401 . S
C530 C529 1.396 . S
C531 C526 1.499 . S
C531 H532 0.959 . S
C531 H533 0.960 . S
C531 H534 0.961 . S
H532 C531 0.959 . S
H533 C531 0.960 . S
H534 C531 0.961 . S
O535 Co510 1.967 . S
O535 C543 1.258 . S
O536 Co511 1.941 . S
O536 C543 1.266 . S
H537 C539 0.959 . S
H538 C539 0.961 . S
C539 C529 1.510 . S
C539 H537 0.959 . S
C539 H538 0.961 . S
C539 H540 0.960 . S
H540 C539 0.960 . S
H541 N521 0.862 . S
O542 Co510 1.920 . S
O542 C515 1.289 . S
C543 O535 1.258 . S
C543 O536 1.266 . S
C544 C545 1.369 . S
C544 C546 1.419 1_556 S
C544 H548 0.930 . S
C545 C544 1.369 . S
C545 C554 1.429 . S
C546 C544 1.419 1_554 S
C546 C547 1.363 . S
C546 H549 0.929 . S
C547 C546 1.363 . S
C547 C553 1.428 1_554 S
H548 C544 0.930 . S
H549 C546 0.929 . S
S550 N551 1.613 . S
S550 N552 1.610 . S
N551 S550 1.613 . S
N551 C554 1.350 . S
N552 S550 1.610 . S
N552 C553 1.351 . S
C553 C547 1.428 1_556 S
C553 N552 1.351 . S
C553 C554 1.434 . S
C554 C545 1.429 . S
C554 N551 1.350 . S
C554 C553 1.434 . S
C555 C556 1.369 . S
C555 C557 1.419 1_556 S
C555 H559 0.930 . S
C556 C555 1.369 . S
C556 C565 1.429 . S
C557 C555 1.419 1_554 S
C557 C558 1.363 . S
C557 H560 0.929 . S
C558 C557 1.363 . S
C558 C564 1.428 1_554 S
H559 C555 0.930 . S
H560 C557 0.929 . S
S561 N562 1.613 . S
S561 N563 1.610 . S
N562 S561 1.613 . S
N562 C565 1.350 . S
N563 S561 1.610 . S
N563 C564 1.351 . S
C564 C558 1.428 1_556 S
C564 N563 1.351 . S
C564 C565 1.434 . S
C565 C556 1.429 . S
C565 N562 1.350 . S
C565 C564 1.434 . S
C566 C567 1.369 . S
C566 C568 1.419 . S
C566 H570 0.930 . S
C567 C566 1.369 . S
C567 C576 1.429 . S
C568 C566 1.419 . S
C568 C569 1.363 . S
C568 H571 0.929 . S
C569 C568 1.363 . S
C569 C575 1.428 . S
H570 C566 0.930 . S
H571 C568 0.929 . S
S572 N573 1.613 . S
S572 N574 1.610 . S
N573 S572 1.613 . S
N573 C576 1.350 . S
N574 S572 1.610 . S
N574 C575 1.351 . S
C575 C569 1.428 . S
C575 N574 1.351 . S
C575 C576 1.434 . S
C576 C567 1.429 . S
C576 N573 1.350 . S
C576 C575 1.434 . S
C577 C578 1.369 . S
C577 C579 1.419 . S
C577 H581 0.930 . S
C578 C577 1.369 . S
C578 C587 1.429 . S
C579 C577 1.419 . S
C579 C580 1.363 . S
C579 H582 0.929 . S
C580 C579 1.363 . S
C580 C586 1.428 . S
H581 C577 0.930 . S
H582 C579 0.929 . S
S583 N584 1.613 . S
S583 N585 1.610 . S
N584 S583 1.613 . S
N584 C587 1.350 . S
N585 S583 1.610 . S
N585 C586 1.351 . S
C586 C580 1.428 . S
C586 N585 1.351 . S
C586 C587 1.434 . S
C587 C578 1.429 . S
C587 N584 1.350 . S
C587 C586 1.434 . S
C588 C589 1.369 1_554 S
C588 C590 1.419 . S
C588 H592 0.930 . S
C589 C588 1.369 1_556 S
C589 C598 1.429 . S
C590 C588 1.419 . S
C590 C591 1.363 . S
C590 H593 0.929 . S
C591 C590 1.363 . S
C591 C597 1.428 1_554 S
H592 C588 0.930 . S
H593 C590 0.929 . S
S594 N595 1.613 . S
S594 N596 1.610 . S
N595 S594 1.613 . S
N595 C598 1.350 . S
N596 S594 1.610 . S
N596 C597 1.351 . S
C597 C591 1.428 1_556 S
C597 N596 1.351 . S
C597 C598 1.434 . S
C598 C589 1.429 . S
C598 N595 1.350 . S
C598 C597 1.434 . S
C599 C600 1.369 1_554 S
C599 C601 1.419 . S
C599 H603 0.930 . S
C600 C599 1.369 1_556 S
C600 C609 1.429 . S
C601 C599 1.419 . S
C601 C602 1.363 . S
C601 H604 0.929 . S
C602 C601 1.363 . S
C602 C608 1.428 . S
H603 C599 0.930 . S
H604 C601 0.929 . S
S605 N606 1.613 . S
S605 N607 1.610 1_556 S
N606 S605 1.613 . S
N606 C609 1.350 . S
N607 S605 1.610 1_554 S
N607 C608 1.351 . S
C608 C602 1.428 . S
C608 N607 1.351 . S
C608 C609 1.434 1_554 S
C609 C600 1.429 . S
C609 N606 1.350 . S
C609 C608 1.434 1_556 S
C610 C611 1.369 . S
C610 C612 1.419 . S
C610 H614 0.930 . S
C611 C610 1.369 . S
C611 C620 1.429 . S
C612 C610 1.419 . S
C612 C613 1.363 . S
C612 H615 0.929 . S
C613 C612 1.363 . S
C613 C619 1.428 . S
H614 C610 0.930 . S
H615 C612 0.929 . S
S616 N617 1.613 . S
S616 N618 1.610 . S
N617 S616 1.613 . S
N617 C620 1.350 . S
N618 S616 1.610 . S
N618 C619 1.351 . S
C619 C613 1.428 . S
C619 N618 1.351 . S
C619 C620 1.434 . S
C620 C611 1.429 . S
C620 N617 1.350 . S
C620 C619 1.434 . S
C621 C622 1.369 . S
C621 C623 1.419 . S
C621 H625 0.930 . S
C622 C621 1.369 . S
C622 C631 1.429 . S
C623 C621 1.419 . S
C623 C624 1.363 . S
C623 H626 0.929 . S
C624 C623 1.363 . S
C624 C630 1.428 . S
H625 C621 0.930 . S
H626 C623 0.929 . S
S627 N628 1.613 . S
S627 N629 1.610 . S
N628 S627 1.613 . S
N628 C631 1.350 . S
N629 S627 1.610 . S
N629 C630 1.351 . S
C630 C624 1.428 . S
C630 N629 1.351 . S
C630 C631 1.434 . S
C631 C622 1.429 . S
C631 N628 1.350 . S
C631 C630 1.434 . S
C632 C633 1.369 . S
C632 C634 1.419 1_554 S
C632 H636 0.930 . S
C633 C632 1.369 . S
C633 C642 1.429 1_554 S
C634 C632 1.419 1_556 S
C634 C635 1.363 . S
C634 H637 0.927 1_556 S
C635 C634 1.363 . S
C635 C641 1.428 . S
H636 C632 0.930 . S
H637 C634 0.927 1_554 S
S638 N639 1.613 . S
S638 N640 1.610 . S
N639 S638 1.613 . S
N639 C642 1.350 . S
N640 S638 1.610 . S
N640 C641 1.351 . S
C641 C635 1.428 . S
C641 N640 1.351 . S
C641 C642 1.434 . S
C642 C633 1.429 1_556 S
C642 N639 1.350 . S
C642 C641 1.434 . S
C643 C644 1.369 1_556 S
C643 C645 1.419 . S
C643 H647 0.930 . S
C644 C643 1.369 1_554 S
C644 C653 1.429 . S
C645 C643 1.419 . S
C645 C646 1.363 . S
C645 H648 0.929 . S
C646 C645 1.363 . S
C646 C652 1.405 1_556 S
H647 C643 0.930 . S
H648 C645 0.929 . S
S649 N650 1.613 . S
S649 N651 1.610 . S
N650 S649 1.613 . S
N650 C653 1.350 . S
N651 S649 1.610 . S
N651 C652 1.360 . S
C652 C646 1.405 1_554 S
C652 N651 1.360 . S
C652 C653 1.451 . S
C653 C644 1.429 . S
C653 N650 1.350 . S
C653 C652 1.451 . S
C654 C655 1.369 . S
C654 C656 1.419 . S
C654 H658 0.930 . S
C655 C654 1.369 . S
C655 C664 1.429 . S
C656 C654 1.419 . S
C656 C657 1.363 . S
C656 H659 0.929 . S
C657 C656 1.363 . S
C657 C663 1.428 . S
H658 C654 0.930 . S
H659 C656 0.929 . S
S660 N661 1.613 . S
S660 N662 1.610 . S
N661 S660 1.613 . S
N661 C664 1.350 . S
N662 S660 1.610 . S
N662 C663 1.351 . S
C663 C657 1.428 . S
C663 N662 1.351 . S
C663 C664 1.434 . S
C664 C655 1.429 . S
C664 N661 1.350 . S
C664 C663 1.434 . S
C665 C666 1.369 . S
C665 C667 1.419 . S
C665 H669 0.930 . S
C666 C665 1.369 . S
C666 C675 1.429 . S
C667 C665 1.419 . S
C667 C668 1.363 . S
C667 H670 0.929 . S
C668 C667 1.363 . S
C668 C674 1.428 . S
H669 C665 0.930 . S
H670 C667 0.929 . S
S671 N672 1.613 . S
S671 N673 1.610 . S
N672 S671 1.613 . S
N672 C675 1.350 . S
N673 S671 1.610 . S
N673 C674 1.351 . S
C674 C668 1.428 . S
C674 N673 1.351 . S
C674 C675 1.434 . S
C675 C666 1.429 . S
C675 N672 1.350 . S
C675 C674 1.434 . S
C676 C677 1.369 1_554 S
C676 C678 1.419 . S
C676 H680 0.930 . S
C677 C676 1.369 1_556 S
C677 C686 1.429 . S
C678 C676 1.419 . S
C678 C679 1.363 . S
C678 H681 0.929 . S
C679 C678 1.363 . S
C679 C685 1.428 1_554 S
H680 C676 0.930 . S
H681 C678 0.929 . S
S682 N683 1.613 . S
S682 N684 1.610 . S
N683 S682 1.613 . S
N683 C686 1.350 . S
N684 S682 1.610 . S
N684 C685 1.351 . S
C685 C679 1.428 1_556 S
C685 N684 1.351 . S
C685 C686 1.434 . S
C686 C677 1.429 . S
C686 N683 1.350 . S
C686 C685 1.434 . S
C687 C688 1.369 . S
C687 C689 1.419 . S
C687 H691 0.930 . S
C688 C687 1.369 . S
C688 C697 1.429 1_556 S
C689 C687 1.419 . S
C689 C690 1.363 1_556 S
C689 H692 0.929 . S
C690 C689 1.363 1_554 S
C690 C696 1.428 . S
H691 C687 0.930 . S
H692 C689 0.929 . S
S693 N694 1.613 . S
S693 N695 1.610 . S
N694 S693 1.613 . S
N694 C697 1.350 . S
N695 S693 1.610 . S
N695 C696 1.351 . S
C696 C690 1.428 . S
C696 N695 1.351 . S
C696 C697 1.434 . S
C697 C688 1.429 1_554 S
C697 N694 1.350 . S
C697 C696 1.434 . S
C698 C699 1.369 . S
C698 C700 1.419 . S
C698 H702 0.930 . S
C699 C698 1.369 . S
C699 C708 1.429 . S
C700 C698 1.419 . S
C700 C701 1.363 . S
C700 H703 0.929 . S
C701 C700 1.363 . S
C701 C707 1.428 . S
H702 C698 0.930 . S
H703 C700 0.929 . S
S704 N705 1.613 . S
S704 N706 1.610 . S
N705 S704 1.613 . S
N705 C708 1.350 . S
N706 S704 1.610 . S
N706 C707 1.351 . S
C707 C701 1.428 . S
C707 N706 1.351 . S
C707 C708 1.434 . S
C708 C699 1.429 . S
C708 N705 1.350 . S
C708 C707 1.434 . S
C709 C710 1.369 . S
C709 C711 1.419 . S
C709 H713 0.930 . S
C710 C709 1.369 . S
C710 C719 1.429 . S
C711 C709 1.419 . S
C711 C712 1.363 . S
C711 H714 0.929 . S
C712 C711 1.363 . S
C712 C718 1.428 . S
H713 C709 0.930 . S
H714 C711 0.929 . S
S715 N716 1.613 . S
S715 N717 1.610 . S
N716 S715 1.613 . S
N716 C719 1.350 . S
N717 S715 1.610 . S
N717 C718 1.351 . S
C718 C712 1.428 . S
C718 N717 1.351 . S
C718 C719 1.434 . S
C719 C710 1.429 . S
C719 N716 1.350 . S
C719 C718 1.434 . S
C720 C721 1.369 . S
C720 C722 1.419 1_545 S
C720 H724 0.930 . S
C721 C720 1.369 . S
C721 C730 1.429 . S
C722 C720 1.419 1_565 S
C722 C723 1.363 . S
C722 H725 0.929 . S
C723 C722 1.363 . S
C723 C729 1.428 . S
H724 C720 0.930 . S
H725 C722 0.929 . S
S726 N727 1.597 1_565 S
S726 N728 1.626 . S
N727 S726 1.597 1_545 S
N727 C730 1.350 . S
N728 S726 1.626 . S
N728 C729 1.351 . S
C729 C723 1.428 . S
C729 N728 1.351 . S
C729 C730 1.434 1_565 S
C730 C721 1.429 . S
C730 N727 1.350 . S
C730 C729 1.434 1_545 S
C731 C732 1.369 . S
C731 C733 1.419 1_565 S
C731 H735 0.930 . S
C732 C731 1.369 . S
C732 C741 1.429 . S
C733 C731 1.419 1_545 S
C733 C734 1.363 . S
C733 H736 0.929 . S
C734 C733 1.363 . S
C734 C740 1.428 . S
H735 C731 0.930 . S
H736 C733 0.929 . S
S737 N738 1.613 . S
S737 N739 1.610 1_565 S
N738 S737 1.613 . S
N738 C741 1.350 . S
N739 S737 1.610 1_545 S
N739 C740 1.351 . S
C740 C734 1.428 . S
C740 N739 1.351 . S
C740 C741 1.434 1_545 S
C741 C732 1.429 . S
C741 N738 1.350 . S
C741 C740 1.434 1_565 S
C742 C743 1.369 . S
C742 C744 1.419 1_545 S
C742 H746 0.930 . S
C743 C742 1.369 . S
C743 C752 1.429 . S
C744 C742 1.419 1_565 S
C744 C745 1.363 . S
C744 H747 0.929 . S
C745 C744 1.363 . S
C745 C751 1.428 . S
H746 C742 0.930 . S
H747 C744 0.929 . S
S748 N749 1.613 1_565 S
S748 N750 1.610 . S
N749 S748 1.613 1_545 S
N749 C752 1.350 . S
N750 S748 1.610 . S
N750 C751 1.351 . S
C751 C745 1.428 . S
C751 N750 1.351 . S
C751 C752 1.434 1_565 S
C752 C743 1.429 . S
C752 N749 1.350 . S
C752 C751 1.434 1_545 S
C753 C754 1.369 . S
C753 C755 1.419 1_565 S
C753 H757 0.930 . S
C754 C753 1.369 . S
C754 C763 1.429 . S
C755 C753 1.419 1_545 S
C755 C756 1.363 . S
C755 H758 0.929 . S
C756 C755 1.363 . S
C756 C762 1.428 . S
H757 C753 0.930 . S
H758 C755 0.929 . S
S759 N760 1.619 1_545 S
S759 N761 1.610 . S
N760 S759 1.619 1_565 S
N760 C763 1.349 . S
N761 S759 1.610 . S
N761 C762 1.351 . S
C762 C756 1.428 . S
C762 N761 1.351 . S
C762 C763 1.434 1_545 S
C763 C754 1.429 . S
C763 N760 1.349 . S
C763 C762 1.434 1_565 S
C764 C765 1.369 . S
C764 C766 1.419 . S
C764 H768 0.930 . S
C765 C764 1.369 . S
C765 C774 1.429 . S
C766 C764 1.419 . S
C766 C767 1.363 . S
C766 H769 0.929 . S
C767 C766 1.363 . S
C767 C773 1.428 . S
H768 C764 0.930 . S
H769 C766 0.929 . S
S770 N771 1.613 . S
S770 N772 1.610 . S
N771 S770 1.613 . S
N771 C774 1.350 . S
N772 S770 1.610 . S
N772 C773 1.351 . S
C773 C767 1.428 . S
C773 N772 1.351 . S
C773 C774 1.434 . S
C774 C765 1.429 . S
C774 N771 1.350 . S
C774 C773 1.434 . S
C775 C776 1.369 . S
C775 C777 1.419 . S
C775 H779 0.930 . S
C776 C775 1.369 . S
C776 C785 1.429 . S
C777 C775 1.419 . S
C777 C778 1.363 . S
C777 H780 0.929 . S
C778 C777 1.363 . S
C778 C784 1.428 . S
H779 C775 0.930 . S
H780 C777 0.929 . S
S781 N782 1.613 . S
S781 N783 1.610 . S
N782 S781 1.613 . S
N782 C785 1.350 . S
N783 S781 1.610 . S
N783 C784 1.351 . S
C784 C778 1.428 . S
C784 N783 1.351 . S
C784 C785 1.434 . S
C785 C776 1.429 . S
C785 N782 1.350 . S
C785 C784 1.434 . S
C786 C787 1.369 . S
C786 C788 1.419 . S
C786 H790 0.930 . S
C787 C786 1.369 . S
C787 C796 1.429 . S
C788 C786 1.419 . S
C788 C789 1.363 . S
C788 H791 0.929 . S
C789 C788 1.363 . S
C789 C795 1.428 . S
H790 C786 0.930 . S
H791 C788 0.929 . S
S792 N793 1.613 . S
S792 N794 1.610 . S
N793 S792 1.613 . S
N793 C796 1.350 . S
N794 S792 1.610 . S
N794 C795 1.351 . S
C795 C789 1.428 . S
C795 N794 1.351 . S
C795 C796 1.434 . S
C796 C787 1.429 . S
C796 N793 1.350 . S
C796 C795 1.434 . S
C797 C798 1.369 . S
C797 C799 1.419 . S
C797 H801 0.930 . S
C798 C797 1.369 . S
C798 C807 1.429 . S
C799 C797 1.419 . S
C799 C800 1.363 . S
C799 H802 0.929 . S
C800 C799 1.363 . S
C800 C806 1.428 . S
H801 C797 0.930 . S
H802 C799 0.929 . S
S803 N804 1.613 . S
S803 N805 1.610 . S
N804 S803 1.613 . S
N804 C807 1.350 . S
N805 S803 1.610 . S
N805 C806 1.351 . S
C806 C800 1.428 . S
C806 N805 1.351 . S
C806 C807 1.434 . S
C807 C798 1.429 . S
C807 N804 1.350 . S
C807 C806 1.434 . S
C808 C809 1.369 . S
C808 C810 1.419 1_655 S
C808 H812 0.930 . S
C809 C808 1.369 . S
C809 C818 1.429 . S
C810 C808 1.419 1_455 S
C810 C811 1.363 . S
C810 H813 0.929 . S
C811 C810 1.363 . S
C811 C817 1.428 . S
H812 C808 0.930 . S
H813 C810 0.929 . S
S814 N815 1.613 . S
S814 N816 1.610 1_655 S
N815 S814 1.613 . S
N815 C818 1.350 . S
N816 S814 1.610 1_455 S
N816 C817 1.351 . S
C817 C811 1.428 . S
C817 N816 1.351 . S
C817 C818 1.434 1_455 S
C818 C809 1.429 . S
C818 N815 1.350 . S
C818 C817 1.434 1_655 S
C819 C820 1.369 . S
C819 C821 1.419 . S
C819 H823 0.930 . S
C820 C819 1.369 . S
C820 C829 1.429 . S
C821 C819 1.419 . S
C821 C822 1.363 . S
C821 H824 0.929 . S
C822 C821 1.363 . S
C822 C828 1.428 . S
H823 C819 0.930 . S
H824 C821 0.929 . S
S825 N826 1.613 . S
S825 N827 1.610 . S
N826 S825 1.613 . S
N826 C829 1.350 . S
N827 S825 1.610 . S
N827 C828 1.351 . S
C828 C822 1.428 . S
C828 N827 1.351 . S
C828 C829 1.434 . S
C829 C820 1.429 . S
C829 N826 1.350 . S
C829 C828 1.434 . S
C830 C831 1.369 . S
C830 C832 1.419 . S
C830 H834 0.930 . S
C831 C830 1.369 . S
C831 C840 1.429 . S
C832 C830 1.419 . S
C832 C833 1.363 . S
C832 H835 0.929 . S
C833 C832 1.363 . S
C833 C839 1.428 . S
H834 C830 0.930 . S
H835 C832 0.929 . S
S836 N837 1.613 . S
S836 N838 1.610 . S
N837 S836 1.613 . S
N837 C840 1.350 . S
N838 S836 1.610 . S
N838 C839 1.351 . S
C839 C833 1.428 . S
C839 N838 1.351 . S
C839 C840 1.434 . S
C840 C831 1.429 . S
C840 N837 1.350 . S
C840 C839 1.434 . S
C841 C842 1.369 1_655 S
C841 C843 1.419 . S
C841 H845 0.930 . S
C842 C841 1.369 1_455 S
C842 C851 1.429 . S
C843 C841 1.419 . S
C843 C844 1.363 . S
C843 H846 0.929 . S
C844 C843 1.363 . S
C844 C850 1.428 1_655 S
H845 C841 0.930 . S
H846 C843 0.929 . S
S847 N848 1.613 . S
S847 N849 1.610 . S
N848 S847 1.613 . S
N848 C851 1.350 . S
N849 S847 1.610 . S
N849 C850 1.351 . S
C850 C844 1.428 1_455 S
C850 N849 1.351 . S
C850 C851 1.434 . S
C851 C842 1.429 . S
C851 N848 1.350 . S
C851 C850 1.434 . S
C852 C853 1.369 1_455 S
C852 C854 1.419 . S
C852 H856 0.930 . S
C853 C852 1.369 1_655 S
C853 C862 1.429 . S
C854 C852 1.419 . S
C854 C855 1.363 . S
C854 H857 0.929 . S
C855 C854 1.363 . S
C855 C861 1.428 1_455 S
H856 C852 0.930 . S
H857 C854 0.929 . S
S858 N859 1.613 . S
S858 N860 1.610 . S
N859 S858 1.613 . S
N859 C862 1.350 . S
N860 S858 1.610 . S
N860 C861 1.351 . S
C861 C855 1.428 1_655 S
C861 N860 1.351 . S
C861 C862 1.434 . S
C862 C853 1.429 . S
C862 N859 1.350 . S
C862 C861 1.434 . S
C863 C864 1.369 . S
C863 C865 1.419 . S
C863 H867 0.930 . S
C864 C863 1.369 . S
C864 C873 1.429 . S
C865 C863 1.419 . S
C865 C866 1.363 . S
C865 H868 0.929 . S
C866 C865 1.363 . S
C866 C872 1.428 . S
H867 C863 0.930 . S
H868 C865 0.929 . S
S869 N870 1.613 . S
S869 N871 1.610 . S
N870 S869 1.613 . S
N870 C873 1.350 . S
N871 S869 1.610 . S
N871 C872 1.351 . S
C872 C866 1.428 . S
C872 N871 1.351 . S
C872 C873 1.434 . S
C873 C864 1.429 . S
C873 N870 1.350 . S
C873 C872 1.434 . S
C874 C875 1.369 . S
C874 C876 1.419 . S
C874 H878 0.930 . S
C875 C874 1.369 . S
C875 C884 1.429 . S
C876 C874 1.419 . S
C876 C877 1.363 . S
C876 H879 0.929 . S
C877 C876 1.363 . S
C877 C883 1.428 . S
H878 C874 0.930 . S
H879 C876 0.929 . S
S880 N881 1.613 . S
S880 N882 1.610 . S
N881 S880 1.613 . S
N881 C884 1.350 . S
N882 S880 1.610 . S
N882 C883 1.351 . S
C883 C877 1.428 . S
C883 N882 1.351 . S
C883 C884 1.434 . S
C884 C875 1.429 . S
C884 N881 1.350 . S
C884 C883 1.434 . S
C885 C886 1.369 . S
C885 C887 1.419 . S
C885 H889 0.930 . S
C886 C885 1.369 . S
C886 C895 1.429 1_655 S
C887 C885 1.419 . S
C887 C888 1.363 1_655 S
C887 H890 0.929 . S
C888 C887 1.363 1_455 S
C888 C894 1.428 . S
H889 C885 0.930 . S
H890 C887 0.929 . S
S891 N892 1.613 . S
S891 N893 1.610 . S
N892 S891 1.613 . S
N892 C895 1.350 . S
N893 S891 1.610 . S
N893 C894 1.351 . S
C894 C888 1.428 . S
C894 N893 1.351 . S
C894 C895 1.434 . S
C895 C886 1.429 1_455 S
C895 N892 1.350 . S
C895 C894 1.434 . S
C896 C897 1.369 1_655 S
C896 C898 1.419 . S
C896 H900 0.930 . S
C897 C896 1.369 1_455 S
C897 C906 1.429 . S
C898 C896 1.419 . S
C898 C899 1.363 . S
C898 H901 0.929 . S
C899 C898 1.363 . S
C899 C905 1.428 1_655 S
H900 C896 0.930 . S
H901 C898 0.929 . S
S902 N903 1.613 . S
S902 N904 1.610 . S
N903 S902 1.613 . S
N903 C906 1.350 . S
N904 S902 1.610 . S
N904 C905 1.351 . S
C905 C899 1.428 1_455 S
C905 N904 1.351 . S
C905 C906 1.434 . S
C906 C897 1.429 . S
C906 N903 1.350 . S
C906 C905 1.434 . S
C907 C908 1.369 . S
C907 C909 1.419 . S
C907 H911 0.930 . S
C908 C907 1.369 . S
C908 C917 1.429 . S
C909 C907 1.419 . S
C909 C910 1.363 . S
C909 H912 0.929 . S
C910 C909 1.363 . S
C910 C916 1.428 . S
H911 C907 0.930 . S
H912 C909 0.929 . S
S913 N914 1.613 . S
S913 N915 1.610 . S
N914 S913 1.613 . S
N914 C917 1.350 . S
N915 S913 1.610 . S
N915 C916 1.351 . S
C916 C910 1.428 . S
C916 N915 1.351 . S
C916 C917 1.434 . S
C917 C908 1.429 . S
C917 N914 1.350 . S
C917 C916 1.434 . S
C918 C919 1.369 1_455 S
C918 C920 1.419 . S
C918 H922 0.930 . S
C919 C918 1.369 1_655 S
C919 C928 1.429 . S
C920 C918 1.419 . S
C920 C921 1.363 . S
C920 H923 0.929 . S
C921 C920 1.363 . S
C921 C927 1.428 1_455 S
H922 C918 0.930 . S
H923 C920 0.929 . S
S924 N925 1.613 . S
S924 N926 1.610 . S
N925 S924 1.613 . S
N925 C928 1.350 . S
N926 S924 1.610 . S
N926 C927 1.351 . S
C927 C921 1.428 1_655 S
C927 N926 1.351 . S
C927 C928 1.434 . S
C928 C919 1.429 . S
C928 N925 1.350 . S
C928 C927 1.434 . S
C929 C930 1.369 . S
C929 C931 1.419 . S
C929 H933 0.930 . S
C930 C929 1.369 . S
C930 C939 1.429 . S
C931 C929 1.419 . S
C931 C932 1.363 . S
C931 H934 0.929 . S
C932 C931 1.363 . S
C932 C938 1.428 . S
H933 C929 0.930 . S
H934 C931 0.929 . S
S935 N936 1.613 . S
S935 N937 1.610 . S
N936 S935 1.613 . S
N936 C939 1.350 . S
N937 S935 1.610 . S
N937 C938 1.351 . S
C938 C932 1.428 . S
C938 N937 1.351 . S
C938 C939 1.434 . S
C939 C930 1.429 . S
C939 N936 1.350 . S
C939 C938 1.434 . S
C940 C941 1.369 . S
C940 C942 1.419 . S
C940 H944 0.930 . S
C941 C940 1.369 . S
C941 C950 1.429 . S
C942 C940 1.419 . S
C942 C943 1.363 . S
C942 H945 0.929 . S
C943 C942 1.363 . S
C943 C949 1.428 . S
H944 C940 0.930 . S
H945 C942 0.929 . S
S946 N947 1.613 . S
S946 N948 1.610 . S
N947 S946 1.613 . S
N947 C950 1.350 . S
N948 S946 1.610 . S
N948 C949 1.351 . S
C949 C943 1.428 . S
C949 N948 1.351 . S
C949 C950 1.434 . S
C950 C941 1.429 . S
C950 N947 1.350 . S
C950 C949 1.434 . S
C951 C952 1.369 1_655 S
C951 C953 1.419 . S
C951 H955 0.930 . S
C952 C951 1.369 1_455 S
C952 C961 1.429 . S
C953 C951 1.419 . S
C953 C954 1.363 . S
C953 H956 0.929 . S
C954 C953 1.363 . S
C954 C960 1.428 1_655 S
H955 C951 0.930 . S
H956 C953 0.929 . S
S957 N958 1.613 . S
S957 N959 1.610 . S
N958 S957 1.613 . S
N958 C961 1.350 . S
N959 S957 1.610 . S
N959 C960 1.351 . S
C960 C954 1.428 1_455 S
C960 N959 1.351 . S
C960 C961 1.434 . S
C961 C952 1.429 . S
C961 N958 1.350 . S
C961 C960 1.434 . S
C962 C963 1.369 . S
C962 C964 1.419 . S
C962 H966 0.930 . S
C963 C962 1.369 . S
C963 C972 1.429 . S
C964 C962 1.419 . S
C964 C965 1.363 . S
C964 H967 0.929 . S
C965 C964 1.363 . S
C965 C971 1.428 . S
H966 C962 0.930 . S
H967 C964 0.929 . S
S968 N969 1.613 . S
S968 N970 1.610 . S
N969 S968 1.613 . S
N969 C972 1.350 . S
N970 S968 1.610 . S
N970 C971 1.351 . S
C971 C965 1.428 . S
C971 N970 1.351 . S
C971 C972 1.434 . S
C972 C963 1.429 . S
C972 N969 1.350 . S
C972 C971 1.434 . S
C973 C974 1.369 . S
C973 C975 1.419 . S
C973 H977 0.930 . S
C974 C973 1.369 . S
C974 C983 1.429 1_455 S
C975 C973 1.419 . S
C975 C976 1.363 1_455 S
C975 H978 0.929 . S
C976 C975 1.363 1_655 S
C976 C982 1.428 . S
H977 C973 0.930 . S
H978 C975 0.929 . S
S979 N980 1.613 . S
S979 N981 1.610 . S
N980 S979 1.613 . S
N980 C983 1.350 . S
N981 S979 1.610 . S
N981 C982 1.351 . S
C982 C976 1.428 . S
C982 N981 1.351 . S
C982 C983 1.434 . S
C983 C974 1.429 1_655 S
C983 N980 1.350 . S
C983 C982 1.434 . S
C545 C203 1.264 . S
C547 C20 1.266 . S
C556 C169 1.269 . S
C558 C54 1.262 . S
C567 C88 1.265 . S
C569 C271 1.265 . S
C578 C122 1.266 . S
C580 C237 1.265 . S
C589 C156 1.263 . S
C591 C67 1.266 . S
C600 C190 1.266 . S
C602 C33 1.264 . S
C611 C135 1.268 . S
C613 C224 1.262 . S
C622 C258 1.261 . S
C624 C101 1.269 . S
C633 C292 1.265 . S
C635 C475 1.266 . S
C644 C326 1.267 . S
C646 C441 1.264 . S
C655 C360 1.264 . S
C657 C543 1.267 . S
C666 C394 1.262 . S
C668 C509 1.268 . S
C677 C428 1.261 . S
C679 C339 1.268 . S
C688 C462 1.266 . S
C690 C305 1.266 . S
C699 C407 1.270 . S
C701 C496 1.261 . S
C710 C373 1.269 . S
C712 C530 1.261 . S
C721 C9 1.471 . S
C723 C43 1.469 . S
C732 C77 1.469 . S
C734 C111 1.467 . S
C743 C179 1.469 . S
C745 C145 1.470 . S
C754 C247 1.462 . S
C756 C213 1.465 . S
C765 C315 1.471 . S
C767 C281 1.470 . S
C776 C383 1.471 . S
C778 C349 1.469 . S
C787 C417 1.465 . S
C789 C451 1.463 . S
C798 C485 1.462 . S
C800 C519 1.465 . S
C809 C311 1.653 . S
C811 C5 1.650 . S
C820 C39 1.654 . S
C822 C277 1.649 . S
C831 C73 1.648 . S
C833 C379 1.652 . S
C842 C345 1.653 . S
C844 C107 1.649 . S
C853 C141 1.653 . S
C855 C447 1.649 . S
C864 C175 1.649 . S
C866 C413 1.653 . S
C875 C209 1.649 . S
C877 C515 1.653 . S
C886 C481 1.649 . S
C888 C243 1.651 . S
C897 C2 1.429 . S
C899 C104 1.430 . S
C908 C36 1.430 . S
C910 C70 1.430 . S
C919 C138 1.429 . S
C921 C240 1.430 . S
C930 C172 1.428 . S
C932 C206 1.429 . S
C941 C376 1.428 . S
C943 C274 1.428 . S
C952 C342 1.429 . S
C954 C308 1.430 . S
C963 C410 1.430 . S
C965 C512 1.429 . S
C974 C444 1.430 . S
C976 C478 1.429 . S
