# Generated by pormake.
# Topology msp, (4)-cn, num edge types: 1
# Building blocks:
#     Node 0, Type 0, BuildingBlock: MUDLON_clean_sbu_0, # of connection points: 4
#     Node 1, Type 0, BuildingBlock: MUDLON_clean_sbu_0, # of connection points: 4
#     Node 2, Type 0, BuildingBlock: MUDLON_clean_sbu_0, # of connection points: 4
#     Node 3, Type 0, BuildingBlock: MUDLON_clean_sbu_0, # of connection points: 4
#     Node 4, Type 0, BuildingBlock: MUDLON_clean_sbu_0, # of connection points: 4
#     Node 5, Type 0, BuildingBlock: MUDLON_clean_sbu_0, # of connection points: 4
#     Node 6, Type 0, BuildingBlock: MUDLON_clean_sbu_0, # of connection points: 4
#     Node 7, Type 0, BuildingBlock: MUDLON_clean_sbu_0, # of connection points: 4
#     Edge 8, Type (0, 0), BuildingBlock: FUNLAD_clean_linker_0, # of connection points: 2
#     Edge 9, Type (0, 0), BuildingBlock: FUNLAD_clean_linker_0, # of connection points: 2
#     Edge 10, Type (0, 0), BuildingBlock: FUNLAD_clean_linker_0, # of connection points: 2
#     Edge 11, Type (0, 0), BuildingBlock: FUNLAD_clean_linker_0, # of connection points: 2
#     Edge 12, Type (0, 0), BuildingBlock: FUNLAD_clean_linker_0, # of connection points: 2
#     Edge 13, Type (0, 0), BuildingBlock: FUNLAD_clean_linker_0, # of connection points: 2
#     Edge 14, Type (0, 0), BuildingBlock: FUNLAD_clean_linker_0, # of connection points: 2
#     Edge 15, Type (0, 0), BuildingBlock: FUNLAD_clean_linker_0, # of connection points: 2
#     Edge 16, Type (0, 0), BuildingBlock: FUNLAD_clean_linker_0, # of connection points: 2
#     Edge 17, Type (0, 0), BuildingBlock: FUNLAD_clean_linker_0, # of connection points: 2
#     Edge 18, Type (0, 0), BuildingBlock: FUNLAD_clean_linker_0, # of connection points: 2
#     Edge 19, Type (0, 0), BuildingBlock: FUNLAD_clean_linker_0, # of connection points: 2
#     Edge 20, Type (0, 0), BuildingBlock: FUNLAD_clean_linker_0, # of connection points: 2
#     Edge 21, Type (0, 0), BuildingBlock: FUNLAD_clean_linker_0, # of connection points: 2
#     Edge 22, Type (0, 0), BuildingBlock: FUNLAD_clean_linker_0, # of connection points: 2
#     Edge 23, Type (0, 0), BuildingBlock: FUNLAD_clean_linker_0, # of connection points: 2
# Relax obj value: 0.166
# Max RMSD: 0.252
# Mean RMSD: 0.252
data_MOF--net-msp--node1-MUDLON_clean_sbu_0--edge1-FUNLAD_clean_linker_0
_symmetry_space_group_name_H-M    P1
_symmetry_Int_Tables_number       1
_symmetry_cell_setting            triclinic
loop_
_symmetry_equiv_pos_as_xyz
'x, y, z'
_cell_length_a     28.476414
_cell_length_b     28.738585
_cell_length_c     48.16461
_cell_angle_alpha  89.962852
_cell_angle_beta   101.0029
_cell_angle_gamma 90.170516
loop_
_atom_site_label
_atom_site_type_symbol
_atom_site_fract_x
_atom_site_fract_y
_atom_site_fract_z
_atom_type_partial_charge
Mg0 Mg 0.06877 0.28953 0.3771 0.0
C1 C 0.10102 0.29082 0.32025 0.0
O2 O 0.05498 0.28456 0.31101 0.0
C3 C 0.04814 0.34358 0.42545 0.0
O4 O 0.03862 0.30041 0.43156 0.0
C5 C 0.98582 0.23064 0.34456 0.0
O6 O 1.01859 0.198 0.34725 0.0
O7 O 0.99695 0.27046 0.35538 0.0
O8 O 0.11623 0.29706 0.34659 0.0
O9 O 0.10251 0.23875 0.40806 0.0
C10 C 0.13851 0.21532 0.40414 0.0
O11 O 0.15121 0.21713 0.37933 0.0
O12 O 0.06235 0.35154 0.40236 0.0
Mg13 Mg 0.4801 0.27313 0.65775 0.0
C14 C 0.39939 0.23977 0.68478 0.0
O15 O 0.40042 0.2075 0.66561 0.0
C16 C 0.44951 0.35159 0.61677 0.0
O17 O 0.4095 0.32758 0.61358 0.0
C18 C 0.56075 0.26454 0.70773 0.0
O19 O 0.52756 0.28367 0.71952 0.0
O20 O 0.55096 0.25504 0.68145 0.0
O21 O 0.42884 0.27359 0.68649 0.0
O22 O 0.45277 0.22422 0.62405 0.0
C23 C 0.46401 0.22793 0.59984 0.0
O24 O 0.49746 0.25784 0.59645 0.0
O25 O 0.48489 0.33871 0.63549 0.0
Mg26 Mg 0.99887 0.70244 0.65343 0.0
C27 C 0.90479 0.6972 0.67497 0.0
O28 O 0.88725 0.69348 0.64777 0.0
C29 C 0.98101 0.63453 0.60477 0.0
O30 O 0.95213 0.66844 0.59435 0.0
C31 C 0.0912 0.68911 0.69402 0.0
O32 O 0.06939 0.64927 0.69615 0.0
O33 O 0.07003 0.71973 0.67704 0.0
O34 O 0.94996 0.69904 0.68324 0.0
O35 O 0.97098 0.75365 0.62116 0.0
C36 C 0.94058 0.78464 0.62422 0.0
O37 O 0.93015 0.79122 0.64934 0.0
O38 O 1.00388 0.63773 0.63016 0.0
Mg39 Mg 0.56278 0.69621 0.39519 0.0
C40 C 0.65698 0.68935 0.3739 0.0
O41 O 0.6744 0.68695 0.40116 0.0
C42 C 0.52549 0.63739 0.43609 0.0
O43 O 0.50239 0.67689 0.43623 0.0
C44 C 0.47322 0.68768 0.35201 0.0
O45 O 0.49651 0.64976 0.34774 0.0
O46 O 0.49252 0.71564 0.37138 0.0
O47 O 0.61182 0.69073 0.36554 0.0
O48 O 0.59304 0.74612 0.42772 0.0
C49 C 0.62271 0.77776 0.42424 0.0
O50 O 0.6317 0.78503 0.39883 0.0
O51 O 0.55461 0.63318 0.4192 0.0
Mg52 Mg 0.57472 0.78894 0.88055 0.0
C53 C 0.60781 0.79652 0.82396 0.0
O54 O 0.56163 0.79296 0.81414 0.0
C55 C 0.52593 0.84844 0.91633 0.0
O56 O 0.49735 0.81226 0.91086 0.0
C57 C 0.4967 0.72786 0.84424 0.0
O58 O 0.53221 0.69889 0.84395 0.0
O59 O 0.50468 0.76568 0.85804 0.0
O60 O 0.62267 0.79915 0.85057 0.0
O61 O 0.61162 0.7405 0.91196 0.0
C62 C 0.64567 0.71561 0.90658 0.0
O63 O 0.65342 0.71442 0.88057 0.0
O64 O 0.56311 0.8502 0.90527 0.0
Mg65 Mg 0.98702 0.78591 0.16765 0.0
C66 C 0.95443 0.7875 0.22447 0.0
O67 O 1.00059 0.78283 0.2339 0.0
C68 C 0.96679 0.85917 0.1208 0.0
O69 O 0.92821 0.83363 0.11295 0.0
C70 C 0.06892 0.72628 0.20063 0.0
O71 O 0.03572 0.69388 0.19803 0.0
O72 O 0.05838 0.76604 0.18964 0.0
O73 O 0.93926 0.79254 0.19802 0.0
O74 O 0.95213 0.73466 0.13734 0.0
C75 C 0.96153 0.73032 0.11271 0.0
O76 O 0.99789 0.75346 0.10631 0.0
O77 O 0.99551 0.84906 0.14366 0.0
Mg78 Mg 0.49249 0.20308 0.14936 0.0
C79 C 0.39835 0.19496 0.17082 0.0
O80 O 0.38076 0.19129 0.14363 0.0
C81 C 0.47163 0.13339 0.102 0.0
O82 O 0.43646 0.16296 0.09428 0.0
C83 C 0.58135 0.19432 0.19303 0.0
O84 O 0.55711 0.15704 0.19764 0.0
O85 O 0.56293 0.2219 0.17327 0.0
O86 O 0.44348 0.19774 0.17903 0.0
O87 O 0.46323 0.25357 0.11697 0.0
C88 C 0.43207 0.28379 0.12003 0.0
O89 O 0.42149 0.28993 0.14515 0.0
O90 O 0.49981 0.13953 0.12564 0.0
Mg91 Mg 0.05582 0.19391 0.88988 0.0
C92 C 0.15021 0.1872 0.86862 0.0
O93 O 0.16776 0.18458 0.89586 0.0
C94 C 0.07228 0.1242 0.93781 0.0
O95 O 0.10549 0.15498 0.94764 0.0
C96 C 0.94798 0.19492 0.87174 0.0
O97 O 0.9522 0.16588 0.89315 0.0
O98 O 0.98556 0.21351 0.86593 0.0
O99 O 0.10505 0.18893 0.86033 0.0
O100 O 0.08512 0.24422 0.92243 0.0
C101 C 0.11521 0.27561 0.91922 0.0
O102 O 0.12508 0.28258 0.89399 0.0
O103 O 0.04774 0.12972 0.91301 0.0
C104 C 0.02898 0.37077 0.47139 0.0
C105 C 0.04188 0.38155 0.44533 0.0
C106 C 1.02201 0.40594 0.4902 0.0
C107 C 0.02795 0.45299 0.48351 0.0
C108 C 0.04066 0.4638 0.45742 0.0
C109 C 0.04785 0.42851 0.43859 0.0
C110 C 1.01866 0.4915 0.5025 0.0
C111 C 1.02125 0.48655 0.53066 0.0
C112 C 1.01018 0.52467 0.54936 0.0
C113 C 0.0307 0.52378 0.57833 0.0
C114 C 1.0209 0.55898 0.59651 0.0
C115 C 0.98976 0.59557 0.58617 0.0
H116 H 0.96037 0.56192 0.51723 0.0
C117 C 0.96824 0.59574 0.55733 0.0
C118 C 0.97826 0.56077 0.53915 0.0
H119 H 0.94381 0.62318 0.54862 0.0
H120 H 0.02379 0.335 0.47725 0.0
H121 H 1.0108 0.39599 0.5096 0.0
H122 H 0.04503 0.49974 0.45156 0.0
H123 H 0.05758 0.43805 0.41868 0.0
H124 H 1.01077 0.52548 0.49289 0.0
H125 H 0.03366 0.4539 0.54078 0.0
H126 H 0.05492 0.49607 0.58687 0.0
H127 H 0.03799 0.55769 0.61861 0.0
C128 C 0.48635 0.60628 0.47462 0.0
C129 C 0.51943 0.60029 0.45664 0.0
C130 C 0.4818 0.57303 0.49514 0.0
C131 C 0.51005 0.53257 0.49815 0.0
C132 C 0.54311 0.52653 0.48017 0.0
C133 C 0.54761 0.55987 0.45953 0.0
C134 C 0.50731 0.49721 0.52053 0.0
C135 C 0.46819 0.49093 0.53216 0.0
C136 C 0.46483 0.45584 0.55452 0.0
C137 C 0.41947 0.43914 0.55711 0.0
C138 C 0.41451 0.40605 0.57766 0.0
C139 C 0.45479 0.38934 0.59651 0.0
H140 H 0.5406 0.45293 0.573 0.0
C141 C 0.50016 0.40706 0.59454 0.0
C142 C 0.50518 0.43989 0.57374 0.0
H143 H 0.53195 0.39497 0.60874 0.0
H144 H 0.46429 0.63715 0.47319 0.0
H145 H 0.45696 0.57997 0.50903 0.0
H146 H 0.56565 0.49594 0.48212 0.0
H147 H 0.57365 0.55428 0.44616 0.0
H148 H 0.53794 0.47451 0.52674 0.0
H149 H 0.43599 0.51058 0.52402 0.0
H150 H 0.3877 0.45117 0.54286 0.0
H151 H 0.37902 0.39329 0.57861 0.0
C152 C 0.45052 0.09214 0.05546 0.0
C153 C 0.48115 0.097 0.0819 0.0
C154 C 0.46109 0.06079 0.03535 0.0
C155 C 0.50251 0.03308 0.04122 0.0
C156 C 0.53295 0.03769 0.06774 0.0
C157 C 0.52232 0.0691 0.08792 0.0
C158 C 0.51592 0.00057 1.01986 0.0
C159 C 0.48376 0.98196 0.9985 0.0
C160 C 0.49617 0.94878 0.97728 0.0
C161 C 0.46074 0.91786 0.96394 0.0
C162 C 0.47044 0.88592 0.94395 0.0
C163 C 0.51569 0.88454 0.93637 0.0
H164 H 0.5692 0.97227 0.97864 0.0
C165 C 0.55095 0.91635 0.94906 0.0
C166 C 0.54137 0.9481 0.96941 0.0
H167 H 0.58615 0.91622 0.94363 0.0
H168 H 0.41873 0.11337 0.04995 0.0
H169 H 0.43733 0.05955 1.01496 0.0
H170 H 0.56525 0.01708 0.07283 0.0
H171 H 0.5469 0.07216 0.10798 0.0
H172 H 0.55315 -0.00984 0.02265 0.0
H173 H 0.44598 -0.01105 0.9973 0.0
H174 H 0.42547 0.9179 0.9693 0.0
H175 H 0.44233 0.86214 0.93449 0.0
C176 C 0.95225 0.901 0.07415 0.0
C177 C 0.97963 0.89544 0.10153 0.0
C178 C 0.96641 0.93243 0.05507 0.0
C179 C 1.00843 0.95908 0.06292 0.0
C180 C 0.03483 0.95461 0.09058 0.0
C181 C 1.02083 0.923 0.10961 0.0
C182 C 0.02542 -0.00746 0.04324 0.0
C183 C 1.01434 -0.01073 1.01474 0.0
C184 C 0.03147 0.02273 0.99507 0.0
C185 C 1.00627 0.02602 0.96704 0.0
C186 C 1.02017 0.05794 0.94812 0.0
C187 C 0.05995 0.08716 0.95675 0.0
H188 H 0.09408 0.04831 0.02433 0.0
C189 C 0.08627 0.08266 0.98447 0.0
C190 C 0.07238 0.0508 1.00336 0.0
H191 H 0.11741 0.10426 0.99178 0.0
H192 H 0.92016 0.88053 0.06724 0.0
H193 H 0.94405 0.93587 0.03434 0.0
H194 H 0.067 0.97505 0.09738 0.0
H195 H 0.0427 0.91977 0.13054 0.0
H196 H 0.04869 0.02037 0.05294 0.0
H197 H 0.99107 0.96135 1.00511 0.0
H198 H 0.97501 0.00449 0.95988 0.0
H199 H 0.9991 0.06037 0.92693 0.0
C200 C 0.6486 0.17248 0.23243 0.0
C201 C 0.62923 0.20347 0.21066 0.0
C202 C 0.69367 0.18059 0.24918 0.0
C203 C 0.72077 0.21984 0.24444 0.0
C204 C 0.70112 0.25114 0.22293 0.0
C205 C 0.65597 0.243 0.20613 0.0
C206 C 0.76872 0.23003 0.26208 0.0
C207 C 0.79742 0.19709 0.27632 0.0
C208 C 0.84544 0.20691 0.29392 0.0
C209 C 0.87885 0.17058 0.29946 0.0
C210 C 0.92424 0.17813 0.31601 0.0
C211 C 0.93718 0.22218 0.32771 0.0
H212 H 0.83302 0.27945 0.30308 0.0
C213 C 0.90345 0.25838 0.32265 0.0
C214 C 0.85811 0.25087 0.30601 0.0
H215 H 0.91208 0.29269 0.33149 0.0
H216 H 0.62883 0.14191 0.23673 0.0
H217 H 0.70656 0.15638 0.26611 0.0
H218 H 0.7209 0.28192 0.21896 0.0
H219 H 0.64206 0.2677 0.18963 0.0
H220 H 0.78146 0.26568 0.26218 0.0
H221 H 0.78654 0.16084 0.27407 0.0
H222 H 0.86997 0.13623 0.29072 0.0
H223 H 0.94921 0.14941 0.31954 0.0
C224 C 0.61822 0.26417 0.75414 0.0
C225 C 0.60906 0.25572 0.72485 0.0
C226 C 0.66383 0.25718 0.77041 0.0
C227 C 0.70154 0.2413 0.75781 0.0
C228 C 0.69249 0.23321 0.72849 0.0
C229 C 0.64672 0.24004 0.71219 0.0
C230 C 0.75089 0.23446 0.77444 0.0
C231 C 0.76008 0.22488 0.80238 0.0
C232 C 0.809 0.21775 0.81942 0.0
C233 C 0.81392 0.19194 0.84457 0.0
C234 C 0.85892 0.18483 0.86153 0.0
C235 C 0.90024 0.20386 0.85396 0.0
H236 H 0.84789 0.25852 0.79314 0.0
C237 C 0.89538 0.23039 0.82902 0.0
C238 C 0.85026 0.23729 0.81191 0.0
H239 H 0.92644 0.24572 0.82262 0.0
H240 H 0.59019 0.27663 0.76458 0.0
H241 H 0.66947 0.26531 0.79273 0.0
H242 H 0.72091 0.22139 0.71815 0.0
H243 H 0.64101 0.23348 0.68966 0.0
H244 H 0.78015 0.23529 0.76292 0.0
H245 H 0.73037 0.21969 0.81323 0.0
H246 H 0.78281 0.17682 0.85104 0.0
H247 H 0.86124 0.16429 0.8806 0.0
C248 C 0.16196 0.66349 0.73006 0.0
C249 C 0.13933 0.6979 0.71146 0.0
C250 C 0.20704 0.6715 0.74685 0.0
C251 C 0.23085 0.71416 0.74533 0.0
C252 C 0.20803 0.74869 0.72691 0.0
C253 C 0.16291 0.74064 0.71007 0.0
C254 C 0.27843 0.72455 0.76336 0.0
C255 C 0.30992 0.69146 0.77472 0.0
C256 C 0.35742 0.70178 0.79281 0.0
C257 C 0.39389 0.66838 0.79503 0.0
C258 C 0.43895 0.67659 0.81185 0.0
C259 C 0.44846 0.71828 0.82715 0.0
H260 H 0.33919 0.76921 0.8082 0.0
C261 C 0.41165 0.75133 0.82544 0.0
C262 C 0.36667 0.7432 0.80852 0.0
H263 H 0.41757 0.78371 0.8371 0.0
H264 H 0.1447 0.63029 0.73189 0.0
H265 H 0.22245 0.64445 0.76136 0.0
H266 H 0.22523 0.78205 0.72546 0.0
H267 H 0.14645 0.76799 0.69607 0.0
H268 H 0.28843 0.76095 0.76632 0.0
H269 H 0.30184 0.65518 0.7696 0.0
H270 H 0.38769 0.63593 0.78345 0.0
H271 H 0.46636 0.65029 0.81275 0.0
C272 C 0.4054 0.66605 0.31283 0.0
C273 C 0.42542 0.69716 0.33443 0.0
C274 C 0.36042 0.67445 0.2961 0.0
C275 C 0.33404 0.71413 0.30069 0.0
C276 C 0.35435 0.74555 0.32203 0.0
C277 C 0.39942 0.73711 0.3388 0.0
C278 C 0.28619 0.72463 0.28308 0.0
C279 C 0.25692 0.69183 0.26897 0.0
C280 C 0.20899 0.70192 0.25137 0.0
C281 C 0.17514 0.66578 0.24586 0.0
C282 C 0.12984 0.67354 0.2293 0.0
C283 C 0.11744 0.71761 0.21755 0.0
H284 H 0.22227 0.77435 0.24216 0.0
C285 C 0.15159 0.75363 0.22259 0.0
C286 C 0.19684 0.74591 0.23925 0.0
H287 H 0.14338 0.78796 0.21372 0.0
H288 H 0.4246 0.63515 0.30865 0.0
H289 H 0.34704 0.65013 0.27931 0.0
H290 H 0.33515 0.77664 0.32589 0.0
H291 H 0.41385 0.76191 0.35516 0.0
H292 H 0.27404 0.76041 0.28287 0.0
H293 H 0.26723 0.65551 0.27132 0.0
H294 H 0.1836 0.63141 0.25463 0.0
H295 H 0.10454 0.64495 0.22578 0.0
C296 C 0.31615 0.20453 0.18176 0.0
C297 C 0.36593 0.20179 0.19125 0.0
C298 C 0.28576 0.21473 0.2006 0.0
C299 C 0.30449 0.22266 0.22946 0.0
C300 C 0.35405 0.21828 0.23908 0.0
C301 C 0.38446 0.20821 0.22022 0.0
C302 C 0.2736 0.23455 0.25023 0.0
C303 C 0.23022 0.25476 0.24298 0.0
C304 C 0.19858 0.26598 0.26343 0.0
C305 C 0.14928 0.27083 0.2531 0.0
C306 C 0.11785 0.28002 0.27144 0.0
C307 C 0.13501 0.28519 0.30064 0.0
H308 H 0.25388 0.27066 0.30135 0.0
C309 C 0.18456 0.28202 0.31094 0.0
C310 C 0.21604 0.27253 0.29257 0.0
H311 H 0.19903 0.28599 0.3333 0.0
H312 H 0.30057 0.19941 0.15963 0.0
H313 H 0.2477 0.21595 0.19239 0.0
H314 H 0.36949 0.22356 0.26122 0.0
H315 H 0.42259 0.20619 0.22832 0.0
H316 H 0.28779 0.22682 0.27228 0.0
H317 H 0.21628 0.26267 0.22092 0.0
H318 H 0.13479 0.26654 0.23075 0.0
H319 H 0.07995 0.28242 0.26273 0.0
C320 C 0.36962 0.26268 0.72894 0.0
C321 C 0.36534 0.23516 0.70444 0.0
C322 C 0.33842 0.25605 0.74793 0.0
C323 C 0.30219 0.22186 0.74268 0.0
C324 C 0.29734 0.19539 0.71783 0.0
C325 C 0.32865 0.20166 0.69908 0.0
C326 C 0.26801 0.21328 0.76203 0.0
C327 C 0.27801 0.22194 0.79007 0.0
C328 C 0.24434 0.2112 0.80949 0.0
C329 C 0.26281 0.20537 0.83847 0.0
C330 C 0.23243 0.19637 0.85753 0.0
C331 C 0.18264 0.19338 0.8481 0.0
H332 H 0.17844 0.2136 0.77804 0.0
C333 C 0.16406 0.19909 0.81908 0.0
C334 C 0.19446 0.20803 0.80001 0.0
H335 H 0.12586 0.19752 0.81111 0.0
H336 H 0.39738 0.28891 0.73362 0.0
H337 H 0.34249 0.27808 0.76645 0.0
H338 H 0.26955 0.16915 0.71306 0.0
H339 H 0.32406 0.18003 0.68034 0.0
H340 H 0.23456 0.1962 0.75294 0.0
H341 H 0.3132 0.23508 0.79957 0.0
H342 H 0.30097 0.20789 0.84646 0.0
H343 H 0.24801 0.19249 0.87975 0.0
C344 C 0.69141 0.78582 0.81513 0.0
C345 C 0.64218 0.79137 0.80453 0.0
C346 C 0.72305 0.77643 0.79685 0.0
C347 C 0.7061 0.77231 0.76749 0.0
C348 C 0.65721 0.77964 0.7569 0.0
C349 C 0.6256 0.78879 0.77515 0.0
C350 C 0.73784 0.76095 0.7471 0.0
C351 C 0.78041 0.73917 0.75423 0.0
C352 C 0.8112 0.72699 0.73347 0.0
C353 C 0.86056 0.72108 0.74319 0.0
C354 C 0.89086 0.71045 0.72437 0.0
C355 C 0.87239 0.70492 0.69532 0.0
H356 H 0.75454 0.72253 0.69621 0.0
C357 C 0.82278 0.70928 0.6857 0.0
C358 C 0.79251 0.72009 0.70451 0.0
H359 H 0.80724 0.70492 0.6635 0.0
H360 H 0.70546 0.78779 0.83764 0.0
H361 H 0.76062 0.77264 0.8059 0.0
H362 H 0.64313 0.77726 0.73439 0.0
H363 H 0.58797 0.79304 0.76621 0.0
H364 H 0.72462 0.77009 0.72513 0.0
H365 H 0.794 0.73022 0.77617 0.0
H366 H 0.87595 0.72555 0.76541 0.0
H367 H 0.92886 0.70719 0.73256 0.0
C368 C 0.87087 0.7778 0.23374 0.0
C369 C 0.92039 0.78163 0.24407 0.0
C370 C 0.83939 0.76815 0.25212 0.0
C371 C 0.85679 0.76209 0.2813 0.0
C372 C 0.90604 0.76761 0.29166 0.0
C373 C 0.93749 0.77697 0.2733 0.0
C374 C 0.82513 0.75072 0.30177 0.0
C375 C 0.78193 0.72988 0.29458 0.0
C376 C 0.75102 0.71779 0.31535 0.0
C377 C 0.70156 0.71231 0.30563 0.0
C378 C 0.67111 0.70198 0.32446 0.0
C379 C 0.68949 0.6964 0.35351 0.0
H380 H 0.80761 0.71279 0.35262 0.0
C381 C 0.73918 0.70027 0.36312 0.0
C382 C 0.76961 0.71072 0.3443 0.0
H383 H 0.75466 0.69584 0.38531 0.0
H384 H 0.85643 0.78144 0.21136 0.0
H385 H 0.80157 0.76578 0.24331 0.0
H386 H 0.92049 0.76371 0.31403 0.0
H387 H 0.97535 0.77988 0.28205 0.0
H388 H 0.83893 0.75906 0.32378 0.0
H389 H 0.76793 0.7217 0.27256 0.0
H390 H 0.68623 0.71691 0.28342 0.0
H391 H 0.63305 0.69911 0.31628 0.0
C392 C 0.39302 0.17964 0.57786 0.0
C393 C 0.4333 0.20623 0.57485 0.0
C394 C 0.35946 0.16602 0.55408 0.0
C395 C 0.36537 0.17902 0.52676 0.0
C396 C 0.40744 0.20251 0.52374 0.0
C397 C 0.44095 0.21611 0.54749 0.0
C398 C 0.32762 0.1716 0.50109 0.0
C399 C 0.28063 0.16761 0.50188 0.0
C400 C 0.2421 0.17198 0.47632 0.0
C401 C 0.19715 0.18849 0.47969 0.0
C402 C 0.16217 0.19989 0.45616 0.0
C403 C 0.17131 0.19473 0.42866 0.0
H404 H 0.28311 0.14862 0.44522 0.0
C405 C 0.21478 0.17458 0.42522 0.0
C406 C 0.24978 0.16317 0.44878 0.0
H407 H 0.22269 0.16942 0.40432 0.0
H408 H 0.38635 0.17084 0.59864 0.0
H409 H 0.32856 0.14629 0.55733 0.0
H410 H 0.41335 0.21244 0.50297 0.0
H411 H 0.47177 0.2362 0.54436 0.0
H412 H 0.33852 0.17572 0.48083 0.0
H413 H 0.26939 0.16734 0.52218 0.0
H414 H 0.18988 0.19497 0.50063 0.0
H415 H 0.12891 0.21489 0.45962 0.0
C416 C 0.86823 0.82961 0.60098 0.0
C417 C 0.91009 0.80517 0.59878 0.0
C418 C 0.8348 0.84122 0.57671 0.0
C419 C 0.84256 0.8285 0.54972 0.0
C420 C 0.88614 0.80747 0.5475 0.0
C421 C 0.91942 0.79571 0.57172 0.0
C422 C 0.80525 0.83352 0.52364 0.0
C423 C 0.75791 0.83272 0.52383 0.0
C424 C 0.72073 0.82567 0.49787 0.0
C425 C 0.72804 0.83756 0.47064 0.0
C426 C 0.6947 0.82441 0.44663 0.0
C427 C 0.65339 0.79921 0.44934 0.0
H428 H 0.67075 0.79464 0.52123 0.0
C429 C 0.64453 0.79037 0.47658 0.0
C430 C 0.67771 0.80368 0.50054 0.0
H431 H 0.61285 0.77145 0.47947 0.0
H432 H 0.86015 0.83792 0.62149 0.0
H433 H 0.80251 0.85907 0.57928 0.0
H434 H 0.89344 0.79784 0.52699 0.0
H435 H 0.95149 0.7773 0.56921 0.0
H436 H 0.81724 0.83133 0.50359 0.0
H437 H 0.74603 0.8308 0.54392 0.0
H438 H 0.75988 0.85604 0.4677 0.0
H439 H 0.70239 0.83225 0.42596 0.0
C440 C 0.92938 0.7132 0.06155 0.0
C441 C 0.92579 0.70816 0.0901 0.0
C442 C 0.89145 0.70009 0.03998 0.0
C443 C 0.8491 0.68117 0.04649 0.0
C444 C 0.8468 0.67368 0.07502 0.0
C445 C 0.88467 0.68687 0.09657 0.0
C446 C 0.80482 0.6743 0.02467 0.0
C447 C 0.80406 0.67279 0.99661 0.0
C448 C 0.75954 0.67624 0.97463 0.0
C449 C 0.7618 0.66526 0.9465 0.0
C450 C 0.72347 0.67519 0.92449 0.0
C451 C 0.68197 0.69669 0.93009 0.0
H452 H 0.71356 0.70527 1.00156 0.0
C453 C 0.67849 0.70517 0.95837 0.0
C454 C 0.71684 0.69529 0.98038 0.0
H455 H 0.64711 0.7218 0.96346 0.0
H456 H 0.96044 0.72964 0.0558 0.0
H457 H 0.89472 0.70747 1.01842 0.0
H458 H 0.81474 0.65929 0.08074 0.0
H459 H 0.88071 0.68232 0.11833 0.0
H460 H 0.77137 0.67214 0.03227 0.0
H461 H 0.83755 0.67064 0.98907 0.0
H462 H 0.79414 0.65068 0.94136 0.0
H463 H 0.72738 0.66806 0.90298 0.0
C464 C 0.41085 0.29504 0.06755 0.0
C465 C 0.40124 0.304 0.0946 0.0
C466 C 0.37749 0.3066 0.04332 0.0
C467 C 0.33357 0.32691 0.04553 0.0
C468 C 0.32545 0.33908 0.07253 0.0
C469 C 0.35895 0.32768 0.09681 0.0
C470 C 0.29635 0.33183 1.0194 0.0
C471 C 0.24899 0.3304 1.01945 0.0
C472 C 0.21207 0.32336 0.99337 0.0
C473 C 0.16926 0.30072 0.99577 0.0
C474 C 0.13642 0.28746 0.97166 0.0
C475 C 0.14542 0.29699 0.94452 0.0
H476 H 0.25114 0.35491 0.96353 0.0
C477 C 0.18649 0.32279 0.9421 0.0
C478 C 0.21949 0.33591 0.96626 0.0
H479 H 0.19427 0.33118 0.92151 0.0
H480 H 0.44324 0.27721 0.06503 0.0
H481 H 0.38505 0.29739 0.02281 0.0
H482 H 0.29285 0.35637 0.0751 0.0
H483 H 0.35064 0.33558 0.11732 0.0
H484 H 0.30853 0.33016 0.99939 0.0
H485 H 0.23695 0.32796 0.03948 0.0
H486 H 0.16223 0.29114 1.01636 0.0
H487 H 0.10494 0.26801 0.97433 0.0
loop_
_geom_bond_atom_site_label_1
_geom_bond_atom_site_label_2
_geom_bond_distance
_geom_bond_site_symmetry_2
_ccdc_geom_bond_type
Mg0 O7 2.141 1_455 S
Mg0 O8 2.048 . S
Mg0 O9 2.048 . S
Mg0 O12 2.141 . S
C1 O2 1.313 . S
C1 O8 1.195 . S
O2 C1 1.313 . S
C3 O4 1.244 1_455 S
C3 O12 1.295 . S
O4 C3 1.244 1_655 S
C5 O6 1.245 . S
C5 O7 1.289 . S
O6 C5 1.245 . S
O7 Mg0 2.141 1_655 S
O7 C5 1.289 . S
O8 Mg0 2.048 . S
O8 C1 1.195 . S
O9 Mg0 2.048 . S
O9 C10 1.195 . S
C10 O9 1.195 . S
C10 O11 1.313 . S
O11 C10 1.313 . S
O12 Mg0 2.141 . S
O12 C3 1.295 . S
Mg13 O20 2.141 . S
Mg13 O21 2.048 . S
Mg13 O22 2.048 . S
Mg13 O25 2.141 . S
C14 O15 1.313 . S
C14 O21 1.195 . S
O15 C14 1.313 . S
C16 O17 1.245 . S
C16 O25 1.289 . S
O17 C16 1.245 . S
C18 O19 1.245 . S
C18 O20 1.289 . S
O19 C18 1.245 . S
O20 Mg13 2.141 . S
O20 C18 1.289 . S
O21 Mg13 2.048 . S
O21 C14 1.195 . S
O22 Mg13 2.048 . S
O22 C23 1.195 . S
C23 O22 1.195 . S
C23 O24 1.313 . S
O24 C23 1.313 . S
O25 Mg13 2.141 . S
O25 C16 1.289 . S
Mg26 O33 2.141 1_655 S
Mg26 O34 2.048 . S
Mg26 O35 2.048 . S
Mg26 O38 2.141 . S
C27 O28 1.313 . S
C27 O34 1.195 . S
O28 C27 1.313 . S
C29 O30 1.245 . S
C29 O38 1.289 . S
O30 C29 1.245 . S
C31 O32 1.245 . S
C31 O33 1.289 . S
O32 C31 1.245 . S
O33 Mg26 2.141 1_455 S
O33 C31 1.289 . S
O34 Mg26 2.048 . S
O34 C27 1.195 . S
O35 Mg26 2.048 . S
O35 C36 1.195 . S
C36 O35 1.195 . S
C36 O37 1.313 . S
O37 C36 1.313 . S
O38 Mg26 2.141 . S
O38 C29 1.289 . S
Mg39 O46 2.141 . S
Mg39 O47 2.048 . S
Mg39 O48 2.048 . S
Mg39 O51 2.141 . S
C40 O41 1.313 . S
C40 O47 1.195 . S
O41 C40 1.313 . S
C42 O43 1.245 . S
C42 O51 1.289 . S
O43 C42 1.245 . S
C44 O45 1.245 . S
C44 O46 1.289 . S
O45 C44 1.245 . S
O46 Mg39 2.141 . S
O46 C44 1.289 . S
O47 Mg39 2.048 . S
O47 C40 1.195 . S
O48 Mg39 2.048 . S
O48 C49 1.195 . S
C49 O48 1.195 . S
C49 O50 1.313 . S
O50 C49 1.313 . S
O51 Mg39 2.141 . S
O51 C42 1.289 . S
Mg52 O59 2.141 . S
Mg52 O60 2.048 . S
Mg52 O61 2.048 . S
Mg52 O64 2.141 . S
C53 O54 1.313 . S
C53 O60 1.195 . S
O54 C53 1.313 . S
C55 O56 1.245 . S
C55 O64 1.289 . S
O56 C55 1.245 . S
C57 O58 1.245 . S
C57 O59 1.289 . S
O58 C57 1.245 . S
O59 Mg52 2.141 . S
O59 C57 1.289 . S
O60 Mg52 2.048 . S
O60 C53 1.195 . S
O61 Mg52 2.048 . S
O61 C62 1.195 . S
C62 O61 1.195 . S
C62 O63 1.313 . S
O63 C62 1.313 . S
O64 Mg52 2.141 . S
O64 C55 1.289 . S
Mg65 O72 2.141 1_655 S
Mg65 O73 2.048 . S
Mg65 O74 2.048 . S
Mg65 O77 2.141 . S
C66 O67 1.313 . S
C66 O73 1.195 . S
O67 C66 1.313 . S
C68 O69 1.244 1_655 S
C68 O77 1.295 . S
O69 C68 1.244 1_455 S
C70 O71 1.245 . S
C70 O72 1.289 . S
O71 C70 1.245 . S
O72 Mg65 2.141 1_455 S
O72 C70 1.289 . S
O73 Mg65 2.048 . S
O73 C66 1.195 . S
O74 Mg65 2.048 . S
O74 C75 1.195 . S
C75 O74 1.195 . S
C75 O76 1.313 . S
O76 C75 1.313 . S
O77 Mg65 2.141 . S
O77 C68 1.295 . S
Mg78 O85 2.141 . S
Mg78 O86 2.048 . S
Mg78 O87 2.048 . S
Mg78 O90 2.141 . S
C79 O80 1.313 . S
C79 O86 1.195 . S
O80 C79 1.313 . S
C81 O82 1.245 . S
C81 O90 1.289 . S
O82 C81 1.245 . S
C83 O84 1.245 . S
C83 O85 1.289 . S
O84 C83 1.245 . S
O85 Mg78 2.141 . S
O85 C83 1.289 . S
O86 Mg78 2.048 . S
O86 C79 1.195 . S
O87 Mg78 2.048 . S
O87 C88 1.195 . S
C88 O87 1.195 . S
C88 O89 1.313 . S
O89 C88 1.313 . S
O90 Mg78 2.141 . S
O90 C81 1.289 . S
Mg91 O98 2.141 1_455 S
Mg91 O99 2.048 . S
Mg91 O100 2.048 . S
Mg91 O103 2.141 . S
C92 O93 1.313 . S
C92 O99 1.195 . S
O93 C92 1.313 . S
C94 O95 1.245 . S
C94 O103 1.289 . S
O95 C94 1.245 . S
C96 O97 1.245 . S
C96 O98 1.289 . S
O97 C96 1.245 . S
O98 Mg91 2.141 1_655 S
O98 C96 1.289 . S
O99 Mg91 2.048 . S
O99 C92 1.195 . S
O100 Mg91 2.048 . S
O100 C101 1.195 . S
C101 O100 1.195 . S
C101 O102 1.313 . S
O102 C101 1.313 . S
O103 Mg91 2.141 . S
O103 C94 1.289 . S
C104 C105 1.386 1_455 S
C104 C106 1.383 . S
C104 H120 0.951 . S
C105 C104 1.386 1_655 S
C105 C109 1.383 . S
C106 C104 1.383 . S
C106 C107 1.402 1_455 S
C106 H121 0.951 . S
C107 C106 1.402 1_655 S
C107 C108 1.375 . S
C107 C110 1.481 . S
C108 C107 1.375 . S
C108 C109 1.367 . S
C108 H122 0.951 . S
C109 C105 1.383 . S
C109 C108 1.367 . S
C109 H123 0.950 . S
C110 C107 1.481 . S
C110 C111 1.297 1_655 S
C110 H124 0.950 . S
C111 C110 1.297 1_455 S
C111 C112 1.479 . S
C111 H125 0.950 . S
C112 C111 1.479 . S
C112 C113 1.375 . S
C112 C118 1.404 1_455 S
C113 C112 1.375 . S
C113 C114 1.369 . S
C113 H126 0.950 . S
C114 C113 1.369 . S
C114 C115 1.392 . S
C114 H127 0.951 . S
C115 C114 1.392 . S
C115 C117 1.384 1_455 S
H116 C118 0.949 . S
C117 C115 1.384 1_655 S
C117 C118 1.385 . S
C117 H119 0.950 . S
C118 C112 1.404 1_655 S
C118 H116 0.949 . S
C118 C117 1.385 . S
H119 C117 0.950 . S
H120 C104 0.951 . S
H121 C106 0.951 . S
H122 C108 0.951 . S
H123 C109 0.950 . S
H124 C110 0.950 . S
H125 C111 0.950 . S
H126 C113 0.950 . S
H127 C114 0.951 . S
C128 C129 1.386 . S
C128 C130 1.383 . S
C128 H144 0.951 . S
C129 C128 1.386 . S
C129 C133 1.383 . S
C130 C128 1.383 . S
C130 C131 1.402 . S
C130 H145 0.951 . S
C131 C130 1.402 . S
C131 C132 1.375 . S
C131 C134 1.481 . S
C132 C131 1.375 . S
C132 C133 1.367 . S
C132 H146 0.951 . S
C133 C129 1.383 . S
C133 C132 1.367 . S
C133 H147 0.950 . S
C134 C131 1.481 . S
C134 C135 1.297 . S
C134 H148 0.950 . S
C135 C134 1.297 . S
C135 C136 1.479 . S
C135 H149 0.950 . S
C136 C135 1.479 . S
C136 C137 1.375 . S
C136 C142 1.404 . S
C137 C136 1.375 . S
C137 C138 1.369 . S
C137 H150 0.950 . S
C138 C137 1.369 . S
C138 C139 1.392 . S
C138 H151 0.951 . S
C139 C138 1.392 . S
C139 C141 1.384 . S
H140 C142 0.949 . S
C141 C139 1.384 . S
C141 C142 1.385 . S
C141 H143 0.950 . S
C142 C136 1.404 . S
C142 H140 0.949 . S
C142 C141 1.385 . S
H143 C141 0.950 . S
H144 C128 0.951 . S
H145 C130 0.951 . S
H146 C132 0.951 . S
H147 C133 0.950 . S
H148 C134 0.950 . S
H149 C135 0.950 . S
H150 C137 0.950 . S
H151 C138 0.951 . S
C152 C153 1.386 . S
C152 C154 1.383 . S
C152 H168 0.951 . S
C153 C152 1.386 . S
C153 C157 1.383 . S
C154 C152 1.383 . S
C154 C155 1.402 . S
C154 H169 0.951 . S
C155 C154 1.402 . S
C155 C156 1.375 . S
C155 C158 1.481 1_554 S
C156 C155 1.375 . S
C156 C157 1.367 . S
C156 H170 0.951 1_554 S
C157 C153 1.383 . S
C157 C156 1.367 . S
C157 H171 0.950 . S
C158 C155 1.481 1_556 S
C158 C159 1.297 1_545 S
C158 H172 0.950 . S
C159 C158 1.297 1_565 S
C159 C160 1.479 . S
C159 H173 0.950 1_556 S
C160 C159 1.479 . S
C160 C161 1.375 . S
C160 C166 1.404 . S
C161 C160 1.375 . S
C161 C162 1.369 . S
C161 H174 0.950 . S
C162 C161 1.369 . S
C162 C163 1.392 . S
C162 H175 0.951 . S
C163 C162 1.392 . S
C163 C165 1.384 . S
H164 C166 0.949 . S
C165 C163 1.384 . S
C165 C166 1.385 . S
C165 H167 0.950 . S
C166 C160 1.404 . S
C166 H164 0.949 . S
C166 C165 1.385 . S
H167 C165 0.950 . S
H168 C152 0.951 . S
H169 C154 0.951 . S
H170 C156 0.951 1_556 S
H171 C157 0.950 . S
H172 C158 0.950 . S
H173 C159 0.950 1_554 S
H174 C161 0.950 . S
H175 C162 0.951 . S
C176 C177 1.386 1_655 S
C176 C178 1.383 . S
C176 H192 0.951 . S
C177 C176 1.386 1_455 S
C177 C181 1.383 . S
C178 C176 1.383 . S
C178 C179 1.402 1_655 S
C178 H193 0.951 . S
C179 C178 1.402 1_455 S
C179 C180 1.375 . S
C179 C182 1.481 1_565 S
C180 C179 1.375 . S
C180 C181 1.367 . S
C180 H194 0.951 . S
C181 C177 1.383 . S
C181 C180 1.367 . S
C181 H195 0.950 . S
C182 C179 1.481 1_545 S
C182 C183 1.290 1_454 S
C182 H196 0.950 . S
C183 C182 1.290 1_656 S
C183 C184 1.488 . S
C183 H197 0.949 . S
C184 C183 1.488 . S
C184 C185 1.375 . S
C184 C190 1.404 1_655 S
C185 C184 1.375 . S
C185 C186 1.369 . S
C185 H198 0.950 . S
C186 C185 1.369 . S
C186 C187 1.392 . S
C186 H199 0.951 . S
C187 C186 1.392 . S
C187 C189 1.384 1_655 S
H188 C190 0.948 1_554 S
C189 C187 1.384 1_455 S
C189 C190 1.385 . S
C189 H191 0.950 . S
C190 C184 1.404 1_455 S
C190 H188 0.948 1_556 S
C190 C189 1.385 . S
H191 C189 0.950 . S
H192 C176 0.951 . S
H193 C178 0.951 . S
H194 C180 0.951 . S
H195 C181 0.950 . S
H196 C182 0.950 . S
H197 C183 0.949 . S
H198 C185 0.950 . S
H199 C186 0.951 . S
C200 C201 1.386 . S
C200 C202 1.383 . S
C200 H216 0.951 . S
C201 C200 1.386 . S
C201 C205 1.383 . S
C202 C200 1.383 . S
C202 C203 1.402 . S
C202 H217 0.951 . S
C203 C202 1.402 . S
C203 C204 1.375 . S
C203 C206 1.481 . S
C204 C203 1.375 . S
C204 C205 1.367 . S
C204 H218 0.951 . S
C205 C201 1.383 . S
C205 C204 1.367 . S
C205 H219 0.950 . S
C206 C203 1.481 . S
C206 C207 1.297 . S
C206 H220 0.950 . S
C207 C206 1.297 . S
C207 C208 1.479 . S
C207 H221 0.950 . S
C208 C207 1.479 . S
C208 C209 1.375 . S
C208 C214 1.404 . S
C209 C208 1.375 . S
C209 C210 1.369 . S
C209 H222 0.950 . S
C210 C209 1.369 . S
C210 C211 1.392 . S
C210 H223 0.951 . S
C211 C210 1.392 . S
C211 C213 1.384 . S
H212 C214 0.949 . S
C213 C211 1.384 . S
C213 C214 1.385 . S
C213 H215 0.950 . S
C214 C208 1.404 . S
C214 H212 0.949 . S
C214 C213 1.385 . S
H215 C213 0.950 . S
H216 C200 0.951 . S
H217 C202 0.951 . S
H218 C204 0.951 . S
H219 C205 0.950 . S
H220 C206 0.950 . S
H221 C207 0.950 . S
H222 C209 0.950 . S
H223 C210 0.951 . S
C224 C225 1.386 . S
C224 C226 1.383 . S
C224 H240 0.951 . S
C225 C224 1.386 . S
C225 C229 1.383 . S
C226 C224 1.383 . S
C226 C227 1.402 . S
C226 H241 0.951 . S
C227 C226 1.402 . S
C227 C228 1.375 . S
C227 C230 1.481 . S
C228 C227 1.375 . S
C228 C229 1.367 . S
C228 H242 0.951 . S
C229 C225 1.383 . S
C229 C228 1.367 . S
C229 H243 0.950 . S
C230 C227 1.481 . S
C230 C231 1.297 . S
C230 H244 0.950 . S
C231 C230 1.297 . S
C231 C232 1.479 . S
C231 H245 0.950 . S
C232 C231 1.479 . S
C232 C233 1.375 . S
C232 C238 1.404 . S
C233 C232 1.375 . S
C233 C234 1.369 . S
C233 H246 0.950 . S
C234 C233 1.369 . S
C234 C235 1.392 . S
C234 H247 0.951 . S
C235 C234 1.392 . S
C235 C237 1.384 . S
H236 C238 0.949 . S
C237 C235 1.384 . S
C237 C238 1.385 . S
C237 H239 0.950 . S
C238 C232 1.404 . S
C238 H236 0.949 . S
C238 C237 1.385 . S
H239 C237 0.950 . S
H240 C224 0.951 . S
H241 C226 0.951 . S
H242 C228 0.951 . S
H243 C229 0.950 . S
H244 C230 0.950 . S
H245 C231 0.950 . S
H246 C233 0.950 . S
H247 C234 0.951 . S
C248 C249 1.386 . S
C248 C250 1.383 . S
C248 H264 0.951 . S
C249 C248 1.386 . S
C249 C253 1.383 . S
C250 C248 1.383 . S
C250 C251 1.402 . S
C250 H265 0.951 . S
C251 C250 1.402 . S
C251 C252 1.375 . S
C251 C254 1.481 . S
C252 C251 1.375 . S
C252 C253 1.367 . S
C252 H266 0.951 . S
C253 C249 1.383 . S
C253 C252 1.367 . S
C253 H267 0.950 . S
C254 C251 1.481 . S
C254 C255 1.297 . S
C254 H268 0.950 . S
C255 C254 1.297 . S
C255 C256 1.479 . S
C255 H269 0.950 . S
C256 C255 1.479 . S
C256 C257 1.375 . S
C256 C262 1.404 . S
C257 C256 1.375 . S
C257 C258 1.369 . S
C257 H270 0.950 . S
C258 C257 1.369 . S
C258 C259 1.392 . S
C258 H271 0.951 . S
C259 C258 1.392 . S
C259 C261 1.384 . S
H260 C262 0.949 . S
C261 C259 1.384 . S
C261 C262 1.385 . S
C261 H263 0.950 . S
C262 C256 1.404 . S
C262 H260 0.949 . S
C262 C261 1.385 . S
H263 C261 0.950 . S
H264 C248 0.951 . S
H265 C250 0.951 . S
H266 C252 0.951 . S
H267 C253 0.950 . S
H268 C254 0.950 . S
H269 C255 0.950 . S
H270 C257 0.950 . S
H271 C258 0.951 . S
C272 C273 1.386 . S
C272 C274 1.383 . S
C272 H288 0.951 . S
C273 C272 1.386 . S
C273 C277 1.383 . S
C274 C272 1.383 . S
C274 C275 1.402 . S
C274 H289 0.951 . S
C275 C274 1.402 . S
C275 C276 1.375 . S
C275 C278 1.481 . S
C276 C275 1.375 . S
C276 C277 1.367 . S
C276 H290 0.951 . S
C277 C273 1.383 . S
C277 C276 1.367 . S
C277 H291 0.950 . S
C278 C275 1.481 . S
C278 C279 1.297 . S
C278 H292 0.950 . S
C279 C278 1.297 . S
C279 C280 1.479 . S
C279 H293 0.950 . S
C280 C279 1.479 . S
C280 C281 1.375 . S
C280 C286 1.404 . S
C281 C280 1.375 . S
C281 C282 1.369 . S
C281 H294 0.950 . S
C282 C281 1.369 . S
C282 C283 1.392 . S
C282 H295 0.951 . S
C283 C282 1.392 . S
C283 C285 1.384 . S
H284 C286 0.949 . S
C285 C283 1.384 . S
C285 C286 1.385 . S
C285 H287 0.950 . S
C286 C280 1.404 . S
C286 H284 0.949 . S
C286 C285 1.385 . S
H287 C285 0.950 . S
H288 C272 0.951 . S
H289 C274 0.951 . S
H290 C276 0.951 . S
H291 C277 0.950 . S
H292 C278 0.950 . S
H293 C279 0.950 . S
H294 C281 0.950 . S
H295 C282 0.951 . S
C296 C297 1.386 . S
C296 C298 1.383 . S
C296 H312 0.951 . S
C297 C296 1.386 . S
C297 C301 1.383 . S
C298 C296 1.383 . S
C298 C299 1.402 . S
C298 H313 0.951 . S
C299 C298 1.402 . S
C299 C300 1.375 . S
C299 C302 1.481 . S
C300 C299 1.375 . S
C300 C301 1.367 . S
C300 H314 0.951 . S
C301 C297 1.383 . S
C301 C300 1.367 . S
C301 H315 0.950 . S
C302 C299 1.481 . S
C302 C303 1.297 . S
C302 H316 0.950 . S
C303 C302 1.297 . S
C303 C304 1.479 . S
C303 H317 0.950 . S
C304 C303 1.479 . S
C304 C305 1.375 . S
C304 C310 1.404 . S
C305 C304 1.375 . S
C305 C306 1.369 . S
C305 H318 0.950 . S
C306 C305 1.369 . S
C306 C307 1.392 . S
C306 H319 0.951 . S
C307 C306 1.392 . S
C307 C309 1.384 . S
H308 C310 0.949 . S
C309 C307 1.384 . S
C309 C310 1.385 . S
C309 H311 0.950 . S
C310 C304 1.404 . S
C310 H308 0.949 . S
C310 C309 1.385 . S
H311 C309 0.950 . S
H312 C296 0.951 . S
H313 C298 0.951 . S
H314 C300 0.951 . S
H315 C301 0.950 . S
H316 C302 0.950 . S
H317 C303 0.950 . S
H318 C305 0.950 . S
H319 C306 0.951 . S
C320 C321 1.386 . S
C320 C322 1.383 . S
C320 H336 0.951 . S
C321 C320 1.386 . S
C321 C325 1.383 . S
C322 C320 1.383 . S
C322 C323 1.402 . S
C322 H337 0.951 . S
C323 C322 1.402 . S
C323 C324 1.375 . S
C323 C326 1.481 . S
C324 C323 1.375 . S
C324 C325 1.367 . S
C324 H338 0.951 . S
C325 C321 1.383 . S
C325 C324 1.367 . S
C325 H339 0.950 . S
C326 C323 1.481 . S
C326 C327 1.297 . S
C326 H340 0.950 . S
C327 C326 1.297 . S
C327 C328 1.479 . S
C327 H341 0.950 . S
C328 C327 1.479 . S
C328 C329 1.375 . S
C328 C334 1.404 . S
C329 C328 1.375 . S
C329 C330 1.369 . S
C329 H342 0.950 . S
C330 C329 1.369 . S
C330 C331 1.392 . S
C330 H343 0.951 . S
C331 C330 1.392 . S
C331 C333 1.384 . S
H332 C334 0.949 . S
C333 C331 1.384 . S
C333 C334 1.385 . S
C333 H335 0.950 . S
C334 C328 1.404 . S
C334 H332 0.949 . S
C334 C333 1.385 . S
H335 C333 0.950 . S
H336 C320 0.951 . S
H337 C322 0.951 . S
H338 C324 0.951 . S
H339 C325 0.950 . S
H340 C326 0.950 . S
H341 C327 0.950 . S
H342 C329 0.950 . S
H343 C330 0.951 . S
C344 C345 1.386 . S
C344 C346 1.383 . S
C344 H360 0.951 . S
C345 C344 1.386 . S
C345 C349 1.383 . S
C346 C344 1.383 . S
C346 C347 1.402 . S
C346 H361 0.951 . S
C347 C346 1.402 . S
C347 C348 1.375 . S
C347 C350 1.481 . S
C348 C347 1.375 . S
C348 C349 1.367 . S
C348 H362 0.951 . S
C349 C345 1.383 . S
C349 C348 1.367 . S
C349 H363 0.950 . S
C350 C347 1.481 . S
C350 C351 1.297 . S
C350 H364 0.950 . S
C351 C350 1.297 . S
C351 C352 1.479 . S
C351 H365 0.950 . S
C352 C351 1.479 . S
C352 C353 1.375 . S
C352 C358 1.404 . S
C353 C352 1.375 . S
C353 C354 1.369 . S
C353 H366 0.950 . S
C354 C353 1.369 . S
C354 C355 1.392 . S
C354 H367 0.951 . S
C355 C354 1.392 . S
C355 C357 1.384 . S
H356 C358 0.949 . S
C357 C355 1.384 . S
C357 C358 1.385 . S
C357 H359 0.950 . S
C358 C352 1.404 . S
C358 H356 0.949 . S
C358 C357 1.385 . S
H359 C357 0.950 . S
H360 C344 0.951 . S
H361 C346 0.951 . S
H362 C348 0.951 . S
H363 C349 0.950 . S
H364 C350 0.950 . S
H365 C351 0.950 . S
H366 C353 0.950 . S
H367 C354 0.951 . S
C368 C369 1.386 . S
C368 C370 1.383 . S
C368 H384 0.951 . S
C369 C368 1.386 . S
C369 C373 1.383 . S
C370 C368 1.383 . S
C370 C371 1.402 . S
C370 H385 0.951 . S
C371 C370 1.402 . S
C371 C372 1.375 . S
C371 C374 1.481 . S
C372 C371 1.375 . S
C372 C373 1.367 . S
C372 H386 0.951 . S
C373 C369 1.383 . S
C373 C372 1.367 . S
C373 H387 0.950 . S
C374 C371 1.481 . S
C374 C375 1.297 . S
C374 H388 0.950 . S
C375 C374 1.297 . S
C375 C376 1.479 . S
C375 H389 0.950 . S
C376 C375 1.479 . S
C376 C377 1.375 . S
C376 C382 1.404 . S
C377 C376 1.375 . S
C377 C378 1.369 . S
C377 H390 0.950 . S
C378 C377 1.369 . S
C378 C379 1.392 . S
C378 H391 0.951 . S
C379 C378 1.392 . S
C379 C381 1.384 . S
H380 C382 0.949 . S
C381 C379 1.384 . S
C381 C382 1.385 . S
C381 H383 0.950 . S
C382 C376 1.404 . S
C382 H380 0.949 . S
C382 C381 1.385 . S
H383 C381 0.950 . S
H384 C368 0.951 . S
H385 C370 0.951 . S
H386 C372 0.951 . S
H387 C373 0.950 . S
H388 C374 0.950 . S
H389 C375 0.950 . S
H390 C377 0.950 . S
H391 C378 0.951 . S
C392 C393 1.386 . S
C392 C394 1.383 . S
C392 H408 0.951 . S
C393 C392 1.386 . S
C393 C397 1.383 . S
C394 C392 1.383 . S
C394 C395 1.402 . S
C394 H409 0.951 . S
C395 C394 1.402 . S
C395 C396 1.375 . S
C395 C398 1.481 . S
C396 C395 1.375 . S
C396 C397 1.367 . S
C396 H410 0.951 . S
C397 C393 1.383 . S
C397 C396 1.367 . S
C397 H411 0.950 . S
C398 C395 1.481 . S
C398 C399 1.297 . S
C398 H412 0.950 . S
C399 C398 1.297 . S
C399 C400 1.479 . S
C399 H413 0.950 . S
C400 C399 1.479 . S
C400 C401 1.375 . S
C400 C406 1.404 . S
C401 C400 1.375 . S
C401 C402 1.369 . S
C401 H414 0.950 . S
C402 C401 1.369 . S
C402 C403 1.392 . S
C402 H415 0.951 . S
C403 C402 1.392 . S
C403 C405 1.384 . S
H404 C406 0.949 . S
C405 C403 1.384 . S
C405 C406 1.385 . S
C405 H407 0.950 . S
C406 C400 1.404 . S
C406 H404 0.949 . S
C406 C405 1.385 . S
H407 C405 0.950 . S
H408 C392 0.951 . S
H409 C394 0.951 . S
H410 C396 0.951 . S
H411 C397 0.950 . S
H412 C398 0.950 . S
H413 C399 0.950 . S
H414 C401 0.950 . S
H415 C402 0.951 . S
C416 C417 1.386 . S
C416 C418 1.383 . S
C416 H432 0.951 . S
C417 C416 1.386 . S
C417 C421 1.383 . S
C418 C416 1.383 . S
C418 C419 1.402 . S
C418 H433 0.951 . S
C419 C418 1.402 . S
C419 C420 1.375 . S
C419 C422 1.481 . S
C420 C419 1.375 . S
C420 C421 1.367 . S
C420 H434 0.951 . S
C421 C417 1.383 . S
C421 C420 1.367 . S
C421 H435 0.950 . S
C422 C419 1.481 . S
C422 C423 1.297 . S
C422 H436 0.950 . S
C423 C422 1.297 . S
C423 C424 1.479 . S
C423 H437 0.950 . S
C424 C423 1.479 . S
C424 C425 1.375 . S
C424 C430 1.404 . S
C425 C424 1.375 . S
C425 C426 1.369 . S
C425 H438 0.950 . S
C426 C425 1.369 . S
C426 C427 1.392 . S
C426 H439 0.951 . S
C427 C426 1.392 . S
C427 C429 1.384 . S
H428 C430 0.949 . S
C429 C427 1.384 . S
C429 C430 1.385 . S
C429 H431 0.950 . S
C430 C424 1.404 . S
C430 H428 0.949 . S
C430 C429 1.385 . S
H431 C429 0.950 . S
H432 C416 0.951 . S
H433 C418 0.951 . S
H434 C420 0.951 . S
H435 C421 0.950 . S
H436 C422 0.950 . S
H437 C423 0.950 . S
H438 C425 0.950 . S
H439 C426 0.951 . S
C440 C441 1.386 . S
C440 C442 1.383 . S
C440 H456 0.951 . S
C441 C440 1.386 . S
C441 C445 1.383 . S
C442 C440 1.383 . S
C442 C443 1.402 . S
C442 H457 0.951 . S
C443 C442 1.402 . S
C443 C444 1.375 . S
C443 C446 1.481 . S
C444 C443 1.375 . S
C444 C445 1.367 . S
C444 H458 0.951 . S
C445 C441 1.383 . S
C445 C444 1.367 . S
C445 H459 0.950 . S
C446 C443 1.481 . S
C446 C447 1.297 1_554 S
C446 H460 0.950 . S
C447 C446 1.297 1_556 S
C447 C448 1.479 . S
C447 H461 0.950 . S
C448 C447 1.479 . S
C448 C449 1.375 . S
C448 C454 1.404 . S
C449 C448 1.375 . S
C449 C450 1.369 . S
C449 H462 0.950 . S
C450 C449 1.369 . S
C450 C451 1.392 . S
C450 H463 0.951 . S
C451 C450 1.392 . S
C451 C453 1.384 . S
H452 C454 0.949 . S
C453 C451 1.384 . S
C453 C454 1.385 . S
C453 H455 0.950 . S
C454 C448 1.404 . S
C454 H452 0.949 . S
C454 C453 1.385 . S
H455 C453 0.950 . S
H456 C440 0.951 . S
H457 C442 0.951 . S
H458 C444 0.951 . S
H459 C445 0.950 . S
H460 C446 0.950 . S
H461 C447 0.950 . S
H462 C449 0.950 . S
H463 C450 0.951 . S
C464 C465 1.386 . S
C464 C466 1.383 . S
C464 H480 0.951 . S
C465 C464 1.386 . S
C465 C469 1.383 . S
C466 C464 1.383 . S
C466 C467 1.402 . S
C466 H481 0.951 . S
C467 C466 1.402 . S
C467 C468 1.375 . S
C467 C470 1.481 . S
C468 C467 1.375 . S
C468 C469 1.367 . S
C468 H482 0.951 . S
C469 C465 1.383 . S
C469 C468 1.367 . S
C469 H483 0.950 . S
C470 C467 1.481 . S
C470 C471 1.297 1_554 S
C470 H484 0.950 . S
C471 C470 1.297 1_556 S
C471 C472 1.479 . S
C471 H485 0.950 . S
C472 C471 1.479 . S
C472 C473 1.375 . S
C472 C478 1.404 . S
C473 C472 1.375 . S
C473 C474 1.369 . S
C473 H486 0.950 . S
C474 C473 1.369 . S
C474 C475 1.392 . S
C474 H487 0.951 . S
C475 C474 1.392 . S
C475 C477 1.384 . S
H476 C478 0.949 . S
C477 C475 1.384 . S
C477 C478 1.385 . S
C477 H479 0.950 . S
C478 C472 1.404 . S
C478 H476 0.949 . S
C478 C477 1.385 . S
H479 C477 0.950 . S
H480 C464 0.951 . S
H481 C466 0.951 . S
H482 C468 0.951 . S
H483 C469 0.950 . S
H484 C470 0.950 . S
H485 C471 0.950 . S
H486 C473 0.950 . S
H487 C474 0.951 . S
C105 C3 1.906 1_655 S
C115 C29 1.849 1_455 S
C129 C42 1.795 . S
C139 C16 1.934 . S
C153 C81 1.817 . S
C163 C55 1.929 . S
C177 C68 1.913 1_455 S
C187 C94 1.847 1_655 S
C201 C83 2.099 . S
C211 C5 2.047 . S
C225 C18 2.060 . S
C235 C96 2.094 . S
C249 C31 2.099 . S
C259 C57 2.051 . S
C273 C44 2.098 . S
C283 C70 2.046 . S
C297 C79 2.238 . S
C307 C1 2.285 . S
C321 C14 2.296 . S
C331 C92 2.247 . S
C345 C53 2.323 . S
C355 C27 2.171 . S
C369 C66 2.312 . S
C379 C40 2.221 . S
C393 C23 0.315 . S
C403 C10 0.535 . S
C417 C36 0.413 . S
C427 C49 0.282 . S
C441 C75 0.457 . S
C451 C62 0.312 . S
C465 C88 0.315 . S
C475 C101 0.436 . S
