# Generated by pormake.
# Topology sxi, (6)-cn, num edge types: 1
# Building blocks:
#     Node 0, Type 0, BuildingBlock: IZENUY_clean_sbu_0, # of connection points: 6
#     Node 1, Type 0, BuildingBlock: IZENUY_clean_sbu_0, # of connection points: 6
#     Node 2, Type 0, BuildingBlock: IZENUY_clean_sbu_0, # of connection points: 6
#     Node 3, Type 0, BuildingBlock: IZENUY_clean_sbu_0, # of connection points: 6
#     Node 4, Type 0, BuildingBlock: IZENUY_clean_sbu_0, # of connection points: 6
#     Node 5, Type 0, BuildingBlock: IZENUY_clean_sbu_0, # of connection points: 6
#     Node 6, Type 0, BuildingBlock: IZENUY_clean_sbu_0, # of connection points: 6
#     Node 7, Type 0, BuildingBlock: IZENUY_clean_sbu_0, # of connection points: 6
#     Node 8, Type 0, BuildingBlock: IZENUY_clean_sbu_0, # of connection points: 6
#     Node 9, Type 0, BuildingBlock: IZENUY_clean_sbu_0, # of connection points: 6
#     Node 10, Type 0, BuildingBlock: IZENUY_clean_sbu_0, # of connection points: 6
#     Node 11, Type 0, BuildingBlock: IZENUY_clean_sbu_0, # of connection points: 6
#     Node 12, Type 0, BuildingBlock: IZENUY_clean_sbu_0, # of connection points: 6
#     Node 13, Type 0, BuildingBlock: IZENUY_clean_sbu_0, # of connection points: 6
#     Node 14, Type 0, BuildingBlock: IZENUY_clean_sbu_0, # of connection points: 6
#     Node 15, Type 0, BuildingBlock: IZENUY_clean_sbu_0, # of connection points: 6
#     Node 16, Type 0, BuildingBlock: IZENUY_clean_sbu_0, # of connection points: 6
#     Node 17, Type 0, BuildingBlock: IZENUY_clean_sbu_0, # of connection points: 6
#     Node 18, Type 0, BuildingBlock: IZENUY_clean_sbu_0, # of connection points: 6
#     Node 19, Type 0, BuildingBlock: IZENUY_clean_sbu_0, # of connection points: 6
#     Node 20, Type 0, BuildingBlock: IZENUY_clean_sbu_0, # of connection points: 6
#     Node 21, Type 0, BuildingBlock: IZENUY_clean_sbu_0, # of connection points: 6
#     Node 22, Type 0, BuildingBlock: IZENUY_clean_sbu_0, # of connection points: 6
#     Node 23, Type 0, BuildingBlock: IZENUY_clean_sbu_0, # of connection points: 6
#     Edge 24, Type (0, 0), BuildingBlock: XUDNAN_clean_linker_2, # of connection points: 2
#     Edge 25, Type (0, 0), BuildingBlock: XUDNAN_clean_linker_2, # of connection points: 2
#     Edge 26, Type (0, 0), BuildingBlock: XUDNAN_clean_linker_2, # of connection points: 2
#     Edge 27, Type (0, 0), BuildingBlock: XUDNAN_clean_linker_2, # of connection points: 2
#     Edge 28, Type (0, 0), BuildingBlock: XUDNAN_clean_linker_2, # of connection points: 2
#     Edge 29, Type (0, 0), BuildingBlock: XUDNAN_clean_linker_2, # of connection points: 2
#     Edge 30, Type (0, 0), BuildingBlock: XUDNAN_clean_linker_2, # of connection points: 2
#     Edge 31, Type (0, 0), BuildingBlock: XUDNAN_clean_linker_2, # of connection points: 2
#     Edge 32, Type (0, 0), BuildingBlock: XUDNAN_clean_linker_2, # of connection points: 2
#     Edge 33, Type (0, 0), BuildingBlock: XUDNAN_clean_linker_2, # of connection points: 2
#     Edge 34, Type (0, 0), BuildingBlock: XUDNAN_clean_linker_2, # of connection points: 2
#     Edge 35, Type (0, 0), BuildingBlock: XUDNAN_clean_linker_2, # of connection points: 2
#     Edge 36, Type (0, 0), BuildingBlock: XUDNAN_clean_linker_2, # of connection points: 2
#     Edge 37, Type (0, 0), BuildingBlock: XUDNAN_clean_linker_2, # of connection points: 2
#     Edge 38, Type (0, 0), BuildingBlock: XUDNAN_clean_linker_2, # of connection points: 2
#     Edge 39, Type (0, 0), BuildingBlock: XUDNAN_clean_linker_2, # of connection points: 2
#     Edge 40, Type (0, 0), BuildingBlock: XUDNAN_clean_linker_2, # of connection points: 2
#     Edge 41, Type (0, 0), BuildingBlock: XUDNAN_clean_linker_2, # of connection points: 2
#     Edge 42, Type (0, 0), BuildingBlock: XUDNAN_clean_linker_2, # of connection points: 2
#     Edge 43, Type (0, 0), BuildingBlock: XUDNAN_clean_linker_2, # of connection points: 2
#     Edge 44, Type (0, 0), BuildingBlock: XUDNAN_clean_linker_2, # of connection points: 2
#     Edge 45, Type (0, 0), BuildingBlock: XUDNAN_clean_linker_2, # of connection points: 2
#     Edge 46, Type (0, 0), BuildingBlock: XUDNAN_clean_linker_2, # of connection points: 2
#     Edge 47, Type (0, 0), BuildingBlock: XUDNAN_clean_linker_2, # of connection points: 2
#     Edge 48, Type (0, 0), BuildingBlock: XUDNAN_clean_linker_2, # of connection points: 2
#     Edge 49, Type (0, 0), BuildingBlock: XUDNAN_clean_linker_2, # of connection points: 2
#     Edge 50, Type (0, 0), BuildingBlock: XUDNAN_clean_linker_2, # of connection points: 2
#     Edge 51, Type (0, 0), BuildingBlock: XUDNAN_clean_linker_2, # of connection points: 2
#     Edge 52, Type (0, 0), BuildingBlock: XUDNAN_clean_linker_2, # of connection points: 2
#     Edge 53, Type (0, 0), BuildingBlock: XUDNAN_clean_linker_2, # of connection points: 2
#     Edge 54, Type (0, 0), BuildingBlock: XUDNAN_clean_linker_2, # of connection points: 2
#     Edge 55, Type (0, 0), BuildingBlock: XUDNAN_clean_linker_2, # of connection points: 2
#     Edge 56, Type (0, 0), BuildingBlock: XUDNAN_clean_linker_2, # of connection points: 2
#     Edge 57, Type (0, 0), BuildingBlock: XUDNAN_clean_linker_2, # of connection points: 2
#     Edge 58, Type (0, 0), BuildingBlock: XUDNAN_clean_linker_2, # of connection points: 2
#     Edge 59, Type (0, 0), BuildingBlock: XUDNAN_clean_linker_2, # of connection points: 2
#     Edge 60, Type (0, 0), BuildingBlock: XUDNAN_clean_linker_2, # of connection points: 2
#     Edge 61, Type (0, 0), BuildingBlock: XUDNAN_clean_linker_2, # of connection points: 2
#     Edge 62, Type (0, 0), BuildingBlock: XUDNAN_clean_linker_2, # of connection points: 2
#     Edge 63, Type (0, 0), BuildingBlock: XUDNAN_clean_linker_2, # of connection points: 2
#     Edge 64, Type (0, 0), BuildingBlock: XUDNAN_clean_linker_2, # of connection points: 2
#     Edge 65, Type (0, 0), BuildingBlock: XUDNAN_clean_linker_2, # of connection points: 2
#     Edge 66, Type (0, 0), BuildingBlock: XUDNAN_clean_linker_2, # of connection points: 2
#     Edge 67, Type (0, 0), BuildingBlock: XUDNAN_clean_linker_2, # of connection points: 2
#     Edge 68, Type (0, 0), BuildingBlock: XUDNAN_clean_linker_2, # of connection points: 2
#     Edge 69, Type (0, 0), BuildingBlock: XUDNAN_clean_linker_2, # of connection points: 2
#     Edge 70, Type (0, 0), BuildingBlock: XUDNAN_clean_linker_2, # of connection points: 2
#     Edge 71, Type (0, 0), BuildingBlock: XUDNAN_clean_linker_2, # of connection points: 2
#     Edge 72, Type (0, 0), BuildingBlock: XUDNAN_clean_linker_2, # of connection points: 2
#     Edge 73, Type (0, 0), BuildingBlock: XUDNAN_clean_linker_2, # of connection points: 2
#     Edge 74, Type (0, 0), BuildingBlock: XUDNAN_clean_linker_2, # of connection points: 2
#     Edge 75, Type (0, 0), BuildingBlock: XUDNAN_clean_linker_2, # of connection points: 2
#     Edge 76, Type (0, 0), BuildingBlock: XUDNAN_clean_linker_2, # of connection points: 2
#     Edge 77, Type (0, 0), BuildingBlock: XUDNAN_clean_linker_2, # of connection points: 2
#     Edge 78, Type (0, 0), BuildingBlock: XUDNAN_clean_linker_2, # of connection points: 2
#     Edge 79, Type (0, 0), BuildingBlock: XUDNAN_clean_linker_2, # of connection points: 2
#     Edge 80, Type (0, 0), BuildingBlock: XUDNAN_clean_linker_2, # of connection points: 2
#     Edge 81, Type (0, 0), BuildingBlock: XUDNAN_clean_linker_2, # of connection points: 2
#     Edge 82, Type (0, 0), BuildingBlock: XUDNAN_clean_linker_2, # of connection points: 2
#     Edge 83, Type (0, 0), BuildingBlock: XUDNAN_clean_linker_2, # of connection points: 2
#     Edge 84, Type (0, 0), BuildingBlock: XUDNAN_clean_linker_2, # of connection points: 2
#     Edge 85, Type (0, 0), BuildingBlock: XUDNAN_clean_linker_2, # of connection points: 2
#     Edge 86, Type (0, 0), BuildingBlock: XUDNAN_clean_linker_2, # of connection points: 2
#     Edge 87, Type (0, 0), BuildingBlock: XUDNAN_clean_linker_2, # of connection points: 2
#     Edge 88, Type (0, 0), BuildingBlock: XUDNAN_clean_linker_2, # of connection points: 2
#     Edge 89, Type (0, 0), BuildingBlock: XUDNAN_clean_linker_2, # of connection points: 2
#     Edge 90, Type (0, 0), BuildingBlock: XUDNAN_clean_linker_2, # of connection points: 2
#     Edge 91, Type (0, 0), BuildingBlock: XUDNAN_clean_linker_2, # of connection points: 2
#     Edge 92, Type (0, 0), BuildingBlock: XUDNAN_clean_linker_2, # of connection points: 2
#     Edge 93, Type (0, 0), BuildingBlock: XUDNAN_clean_linker_2, # of connection points: 2
#     Edge 94, Type (0, 0), BuildingBlock: XUDNAN_clean_linker_2, # of connection points: 2
#     Edge 95, Type (0, 0), BuildingBlock: XUDNAN_clean_linker_2, # of connection points: 2
# Relax obj value: 0.411
# Max RMSD: 0.249
# Mean RMSD: 0.249
data_MOF--net-sxi--node1-IZENUY_clean_sbu_0--edge1-XUDNAN_clean_linker_2
_symmetry_space_group_name_H-M    P1
_symmetry_Int_Tables_number       1
_symmetry_cell_setting            triclinic
loop_
_symmetry_equiv_pos_as_xyz
'x, y, z'
_cell_length_a     46.757908
_cell_length_b     46.802633
_cell_length_c     46.738418
_cell_angle_alpha  89.950159
_cell_angle_beta   89.977121
_cell_angle_gamma 89.973641
loop_
_atom_site_label
_atom_site_type_symbol
_atom_site_fract_x
_atom_site_fract_y
_atom_site_fract_z
_atom_type_partial_charge
Fe0 Fe 0.01564 0.31942 0.40469 0.0
Fe1 Fe 0.07413 0.3372 0.38084 0.0
O2 O 0.04084 0.34606 0.39654 0.0
Fe3 Fe 0.0326 0.38187 0.40432 0.0
O4 O 0.00918 0.37402 0.43526 0.0
O5 O 0.01582 0.32832 0.44242 0.0
O6 O 0.0426 0.29206 0.41344 0.0
C7 C 0.06857 0.29463 0.42095 0.0
C8 C 0.98259 0.36469 0.382 0.0
O9 O 0.0837 0.31492 0.4114 0.0
C10 C 0.06178 0.3864 0.35118 0.0
O11 O 0.01366 0.30897 0.36771 0.0
O12 O 0.05984 0.30502 0.36106 0.0
O13 O 1.00315 0.38171 0.37962 0.0
O14 O 0.98462 0.34247 0.39745 0.0
C15 C 0.08735 0.38122 0.42157 0.0
O16 O 0.06668 0.35971 0.34919 0.0
O17 O 0.05421 0.39687 0.37502 0.0
C18 C 0.03423 0.29755 0.35486 0.0
O19 O 0.09382 0.36718 0.39896 0.0
O20 O 0.06167 0.38331 0.42918 0.0
C21 C 0.00846 0.35243 0.45168 0.0
Fe22 Fe 0.91948 0.81898 0.63558 0.0
Fe23 Fe 0.87028 0.77873 0.65215 0.0
O24 O 0.90733 0.78663 0.65097 0.0
Fe25 Fe 0.93183 0.76198 0.66588 0.0
O26 O 0.94429 0.7879 0.69169 0.0
O27 O 0.9495 0.82356 0.66117 0.0
O28 O 0.89793 0.83973 0.66121 0.0
C29 C 0.87133 0.83667 0.665 0.0
C30 C 0.9613 0.78112 0.61691 0.0
O31 O 0.85842 0.8157 0.65437 0.0
C32 C 0.89538 0.72648 0.63807 0.0
O33 O 0.89067 0.82002 0.60745 0.0
O34 O 0.86771 0.77935 0.61352 0.0
O35 O 0.96105 0.77042 0.64163 0.0
O36 O 0.94287 0.79988 0.60971 0.0
C37 C 0.88639 0.76066 0.70532 0.0
O38 O 0.87516 0.74025 0.64946 0.0
O39 O 0.92083 0.73498 0.64055 0.0
C40 C 0.87332 0.80092 0.59832 0.0
O41 O 0.87073 0.77768 0.69132 0.0
O42 O 0.90736 0.74847 0.69343 0.0
C43 C 0.95432 0.81219 0.68548 0.0
Fe44 Fe 0.49579 0.68825 0.91049 0.0
Fe45 Fe 0.43678 0.67152 0.88739 0.0
O46 O 0.4701 0.66196 0.90258 0.0
Fe47 Fe 0.47783 0.62593 0.90994 0.0
O48 O 0.50088 0.63333 0.94126 0.0
O49 O 0.49584 0.67937 0.94816 0.0
O50 O 0.46932 0.71603 0.91935 0.0
C51 C 0.44353 0.71372 0.92754 0.0
C52 C 0.52847 0.64238 0.88842 0.0
O53 O 0.42798 0.69357 0.91838 0.0
C54 C 0.44856 0.62277 0.85673 0.0
O55 O 0.49753 0.69862 0.87342 0.0
O56 O 0.45131 0.70357 0.86775 0.0
O57 O 0.50751 0.62595 0.88542 0.0
O58 O 0.52647 0.66485 0.90339 0.0
C59 C 0.42312 0.62719 0.92752 0.0
O60 O 0.44376 0.64949 0.85546 0.0
O61 O 0.45616 0.61151 0.88024 0.0
C62 C 0.47691 0.71042 0.86093 0.0
O63 O 0.41666 0.64165 0.9052 0.0
O64 O 0.4488 0.62442 0.9347 0.0
C65 C 0.50208 0.65498 0.95759 0.0
Fe66 Fe 0.59148 0.19056 0.13185 0.0
Fe67 Fe 0.6364 0.22802 0.1614 0.0
O68 O 0.60065 0.22213 0.15082 0.0
Fe69 Fe 0.57416 0.2474 0.15982 0.0
O70 O 0.54582 0.22067 0.16507 0.0
O71 O 0.56744 0.17909 0.16063 0.0
O72 O 0.62021 0.16823 0.1489 0.0
C73 C 0.63349 0.17188 0.1725 0.0
C74 C 0.55393 0.23369 0.10755 0.0
O75 O 0.63539 0.19644 0.18294 0.0
C76 C 0.62216 0.28092 0.14385 0.0
O77 O 0.61567 0.19997 0.10207 0.0
O78 O 0.65228 0.20953 0.13023 0.0
O79 O 0.56519 0.25276 0.12267 0.0
O80 O 0.56063 0.2075 0.11189 0.0
C81 C 0.60512 0.24885 0.20928 0.0
O82 O 0.63905 0.26029 0.14082 0.0
O83 O 0.59818 0.27801 0.15616 0.0
C84 C 0.64232 0.20441 0.10549 0.0
O85 O 0.62771 0.24781 0.19435 0.0
O86 O 0.58114 0.24436 0.19793 0.0
C87 C 0.54717 0.19412 0.17052 0.0
Fe88 Fe 0.52591 0.19272 0.59609 0.0
Fe89 Fe 0.57364 0.17248 0.63791 0.0
O90 O 0.54514 0.16529 0.61388 0.0
Fe91 Fe 0.53578 0.12917 0.60663 0.0
O92 O 0.51763 0.13515 0.57205 0.0
O93 O 0.53207 0.17748 0.56081 0.0
O94 O 0.55691 0.21557 0.58871 0.0
C95 C 0.58326 0.21282 0.59412 0.0
C96 C 0.4847 0.15293 0.61781 0.0
O97 O 0.59212 0.19506 0.6124 0.0
C98 C 0.55518 0.12324 0.66386 0.0
O99 O 0.51768 0.21152 0.62845 0.0
O100 O 0.55584 0.20394 0.65529 0.0
O101 O 0.50248 0.13393 0.62528 0.0
O102 O 0.4918 0.1737 0.6015 0.0
C103 C 0.59309 0.12913 0.59907 0.0
O104 O 0.55855 0.1499 0.66663 0.0
O105 O 0.55129 0.11323 0.63916 0.0
C106 C 0.53252 0.21724 0.65009 0.0
O107 O 0.59568 0.14259 0.62285 0.0
O108 O 0.5689 0.12457 0.58789 0.0
C109 C 0.52119 0.15421 0.55336 0.0
Fe110 Fe 0.09183 0.32391 0.88517 0.0
Fe111 Fe 0.14099 0.28405 0.86625 0.0
O112 O 0.10385 0.29168 0.86935 0.0
Fe113 Fe 0.07881 0.26695 0.85551 0.0
O114 O 0.06555 0.29277 0.83004 0.0
O115 O 0.06089 0.32841 0.86055 0.0
O116 O 0.11232 0.34504 0.85897 0.0
C117 C 0.13866 0.34216 0.85349 0.0
C118 C 0.051 0.28588 0.90531 0.0
O119 O 0.15237 0.32096 0.8626 0.0
C120 C 0.11627 0.23095 0.88073 0.0
O121 O 0.12127 0.32491 0.91235 0.0
O122 O 0.14637 0.28563 0.90455 0.0
O123 O 0.05039 0.27542 0.88057 0.0
O124 O 0.06957 0.30464 0.91187 0.0
C125 C 0.12235 0.26475 0.81419 0.0
O126 O 0.13637 0.24554 0.87003 0.0
O127 O 0.09088 0.24004 0.8804 0.0
C128 C 0.14026 0.3068 0.92012 0.0
O129 O 0.13847 0.2822 0.82706 0.0
O130 O 0.10194 0.253 0.82724 0.0
C131 C 0.05539 0.31695 0.83645 0.0
Fe132 Fe 0.98397 0.87778 0.1114 0.0
Fe133 Fe 0.98084 0.81376 0.09492 0.0
O134 O 0.96712 0.84387 0.11356 0.0
Fe135 Fe 0.93562 0.83997 0.13434 0.0
O136 O 0.9167 0.86456 0.1099 0.0
O137 O 0.95031 0.89748 0.11178 0.0
O138 O 0.98234 0.87855 0.07239 0.0
C139 C 0.99034 0.85898 0.05558 0.0
C140 C 0.96628 0.88231 0.16663 0.0
O141 O 0.99382 0.83367 0.06408 0.0
C142 C 0.96724 0.79248 0.14941 0.0
O143 O 0.01988 0.86325 0.11024 0.0
O144 O 0.0152 0.81637 0.11231 0.0
O145 O 0.94339 0.86947 0.15975 0.0
O146 O 0.98762 0.88073 0.15018 0.0
C147 C 0.92427 0.80332 0.08744 0.0
O148 O 0.97061 0.78838 0.12288 0.0
O149 O 0.95445 0.81481 0.15856 0.0
C150 C 0.03032 0.83859 0.11355 0.0
O151 O 0.9477 0.80874 0.07542 0.0
O152 O 0.92057 0.81017 0.11338 0.0
C153 C 0.92592 0.88934 0.10345 0.0
Fe154 Fe 0.38012 0.74491 0.36774 0.0
Fe155 Fe 0.44378 0.75214 0.35458 0.0
O156 O 0.41539 0.73119 0.36851 0.0
Fe157 Fe 0.42311 0.69692 0.38284 0.0
O158 O 0.39901 0.67943 0.35731 0.0
O159 O 0.36371 0.7107 0.36017 0.0
O160 O 0.38129 0.75079 0.32891 0.0
C161 C 0.39975 0.76581 0.31623 0.0
C162 C 0.37777 0.71718 0.41964 0.0
O163 O 0.42248 0.77245 0.32897 0.0
C164 C 0.4697 0.72756 0.40213 0.0
O165 O 0.39157 0.78127 0.37576 0.0
O166 O 0.43837 0.77891 0.38185 0.0
O167 O 0.39444 0.69771 0.41053 0.0
O168 O 0.37479 0.74019 0.40595 0.0
C169 C 0.45753 0.70069 0.33221 0.0
O170 O 0.47153 0.73647 0.37685 0.0
O171 O 0.44804 0.71286 0.40952 0.0
C172 C 0.41454 0.79063 0.38675 0.0
O173 O 0.45016 0.72612 0.32695 0.0
O174 O 0.45237 0.68951 0.35664 0.0
C175 C 0.37374 0.68725 0.35131 0.0
Fe176 Fe 0.40452 0.04017 0.38194 0.0
Fe177 Fe 0.41144 0.02855 0.3181 0.0
O178 O 0.3969 0.04968 0.34612 0.0
Fe179 Fe 0.37511 0.07998 0.33921 0.0
O180 O 0.39042 0.10088 0.37021 0.0
O181 O 0.42431 0.07243 0.38679 0.0
O182 O 0.43884 0.02223 0.37459 0.0
C183 C 0.45638 0.02469 0.35418 0.0
C184 C 0.34771 0.06134 0.38768 0.0
O185 O 0.44792 0.03346 0.33024 0.0
C186 C 0.3582 0.03896 0.29562 0.0
O187 O 0.38494 0.00746 0.3779 0.0
O188 O 0.40746 0.99497 0.33836 0.0
O189 O 0.34528 0.06635 0.36115 0.0
O190 O 0.37215 0.05597 0.39789 0.0
C191 C 0.41686 0.08552 0.29715 0.0
O192 O 0.37687 0.02125 0.30322 0.0
O193 O 0.35719 0.06394 0.30679 0.0
C194 C 0.39251 0.98863 0.36023 0.0
O195 O 0.41772 0.05869 0.29346 0.0
O196 O 0.40255 0.09644 0.3173 0.0
C197 C 0.41326 0.09686 0.38494 0.0
Fe198 Fe 0.23618 0.16747 0.57378 0.0
Fe199 Fe 0.18574 0.13011 0.59497 0.0
O200 O 0.21645 0.15123 0.60172 0.0
Fe201 Fe 0.22802 0.15683 0.63746 0.0
O202 O 0.24687 0.19076 0.6307 0.0
O203 O 0.2313 0.20306 0.58868 0.0
O204 O 0.20544 0.17516 0.55051 0.0
C205 C 0.17875 0.17302 0.55427 0.0
C206 C 0.27758 0.144 0.61161 0.0
O207 O 0.16863 0.15773 0.574 0.0
C208 C 0.20493 0.10094 0.64227 0.0
O209 O 0.24298 0.134 0.55664 0.0
O210 O 0.2011 0.11275 0.56189 0.0
O211 O 0.26007 0.1365 0.63078 0.0
O212 O 0.27041 0.16168 0.59215 0.0
C213 C 0.17147 0.16854 0.64077 0.0
O214 O 0.19941 0.09961 0.61584 0.0
O215 O 0.21156 0.12469 0.6531 0.0
C216 C 0.22579 0.11452 0.55005 0.0
O217 O 0.16598 0.14576 0.62644 0.0
O218 O 0.19668 0.17723 0.64446 0.0
C219 C 0.24238 0.20991 0.61216 0.0
Fe220 Fe 0.0946 0.98566 0.81616 0.0
Fe221 Fe 0.1306 0.93708 0.84171 0.0
O222 O 0.11046 0.96876 0.84648 0.0
Fe223 Fe 0.10619 0.9839 0.88089 0.0
O224 O 0.06708 0.98284 0.87813 0.0
O225 O 0.06478 1.00211 0.83554 0.0
O226 O 0.07214 0.95474 0.80945 0.0
C227 C 0.08219 0.92999 0.80528 0.0
C228 C 0.11905 0.02989 0.84481 0.0
O229 O 0.10796 0.92407 0.81195 0.0
C230 C 0.16161 0.96528 0.88704 0.0
O231 O 0.12118 0.97315 0.79054 0.0
O232 O 0.15564 0.95599 0.81717 0.0
O233 O 0.10804 0.02035 0.8676 0.0
O234 O 0.11649 0.01704 0.82128 0.0
C235 C 0.09976 0.92472 0.89083 0.0
O236 O 0.15617 0.94368 0.87149 0.0
O237 O 0.14459 0.98622 0.88731 0.0
C238 C 0.14743 0.96916 0.79478 0.0
O239 O 0.10677 0.91696 0.86576 0.0
O240 O 0.10416 0.94989 0.89943 0.0
C241 C 0.05293 0.99519 0.85874 0.0
Fe242 Fe 0.32318 0.89009 0.09004 0.0
Fe243 Fe 0.27206 0.8686 0.12586 0.0
O244 O 0.29103 0.87016 0.09301 0.0
Fe245 Fe 0.27814 0.85227 0.06199 0.0
O246 O 0.31003 0.83035 0.06013 0.0
O247 O 0.33893 0.86712 0.06179 0.0
O248 O 0.3408 0.86679 0.11659 0.0
C249 C 0.33019 0.85955 0.14072 0.0
C250 C 0.29409 0.9048 0.04049 0.0
O251 O 0.30447 0.86529 0.14722 0.0
C252 C 0.22899 0.87585 0.0832 0.0
O253 O 0.31534 0.91617 0.11847 0.0
O254 O 0.27117 0.9075 0.13067 0.0
O255 O 0.29293 0.87819 0.03699 0.0
O256 O 0.30548 0.91434 0.06343 0.0
C257 C 0.26211 0.81369 0.10565 0.0
O258 O 0.23718 0.87123 0.10867 0.0
O259 O 0.24548 0.8728 0.06204 0.0
C260 C 0.29317 0.92305 0.13231 0.0
O261 O 0.27054 0.82951 0.1258 0.0
O262 O 0.26065 0.82297 0.08048 0.0
C263 C 0.33444 0.84097 0.05592 0.0
Fe264 Fe 0.9138 0.473 0.62735 0.0
Fe265 Fe 0.92299 0.48557 0.69049 0.0
O266 O 0.90609 0.46506 0.66349 0.0
Fe267 Fe 0.88249 0.43653 0.67168 0.0
O268 O 0.89527 0.41414 0.641 0.0
O269 O 0.93137 0.43919 0.62371 0.0
O270 O 0.94915 0.48938 0.63362 0.0
C271 C 0.96726 0.48486 0.65312 0.0
C272 C 0.85559 0.45634 0.62335 0.0
O273 O 0.95874 0.47722 0.67739 0.0
C274 C 0.86947 0.47972 0.71429 0.0
O275 O 0.89625 0.50673 0.63062 0.0
O276 O 0.92024 0.5191 0.66948 0.0
O277 O 0.8531 0.45154 0.64997 0.0
O278 O 0.88017 0.45906 0.61247 0.0
C279 C 0.92542 0.42877 0.71216 0.0
O280 O 0.88937 0.49573 0.70604 0.0
O281 O 0.86682 0.45441 0.70423 0.0
C282 C 0.90339 0.52508 0.64888 0.0
O283 O 0.92789 0.45553 0.71575 0.0
O284 O 0.90945 0.41876 0.69289 0.0
C285 C 0.91839 0.41575 0.62643 0.0
Fe286 Fe 0.75981 0.65414 0.94352 0.0
Fe287 Fe 0.81793 0.62991 0.92518 0.0
O288 O 0.78463 0.64563 0.91653 0.0
Fe289 Fe 0.77598 0.65341 0.88057 0.0
O290 O 0.75242 0.68427 0.88867 0.0
O291 O 0.76042 0.6918 0.93412 0.0
O292 O 0.78677 0.66275 0.97074 0.0
C293 C 0.81278 0.66985 0.96809 0.0
C294 C 0.72663 0.63028 0.89931 0.0
O295 O 0.82769 0.66015 0.94774 0.0
C296 C 0.80609 0.60071 0.87564 0.0
O297 O 0.75749 0.61742 0.95466 0.0
O298 O 0.80369 0.60954 0.95708 0.0
O299 O 0.74654 0.62866 0.88128 0.0
O300 O 0.7287 0.64658 0.92092 0.0
C301 C 0.83071 0.67161 0.88238 0.0
O302 O 0.81056 0.59858 0.90239 0.0
O303 O 0.79782 0.62433 0.86518 0.0
C304 C 0.7781 0.60367 0.96495 0.0
O305 O 0.83746 0.6486 0.8955 0.0
O306 O 0.80495 0.67833 0.87864 0.0
C307 C 0.75301 0.70102 0.90998 0.0
Fe308 Fe 0.59554 0.52667 0.19933 0.0
Fe309 Fe 0.63315 0.57542 0.17729 0.0
O310 O 0.61292 0.54418 0.17039 0.0
Fe311 Fe 0.60992 0.53029 0.13522 0.0
O312 O 0.57074 0.53139 0.13614 0.0
O313 O 0.56633 0.51171 0.17837 0.0
O314 O 0.5732 0.55764 0.20617 0.0
C315 C 0.58341 0.58203 0.21166 0.0
C316 C 0.61894 0.48215 0.17012 0.0
O317 O 0.60954 0.58768 0.20649 0.0
C318 C 0.66568 0.54865 0.13234 0.0
O319 O 0.6209 0.53811 0.22636 0.0
O320 O 0.65702 0.5552 0.2023 0.0
O321 O 0.61043 0.49347 0.14708 0.0
O322 O 0.61722 0.49491 0.19387 0.0
C323 C 0.60261 0.58908 0.12801 0.0
O324 O 0.65982 0.56957 0.14857 0.0
O325 O 0.64852 0.52793 0.13009 0.0
C326 C 0.64743 0.54155 0.22393 0.0
O327 O 0.61015 0.59662 0.15303 0.0
O328 O 0.60927 0.5649 0.11824 0.0
C329 C 0.55556 0.51911 0.15482 0.0
Fe330 Fe 0.73318 0.35452 0.37421 0.0
Fe331 Fe 0.75056 0.34369 0.43596 0.0
O332 O 0.72602 0.35846 0.41119 0.0
Fe333 Fe 0.69503 0.37667 0.42327 0.0
O334 O 0.67141 0.35226 0.40306 0.0
O335 O 0.69618 0.35307 0.36326 0.0
O336 O 0.73267 0.31548 0.3771 0.0
C337 C 0.74993 0.30192 0.39283 0.0
C338 C 0.71415 0.40994 0.37447 0.0
O339 O 0.76297 0.31474 0.41267 0.0
C340 C 0.73402 0.39398 0.46472 0.0
O341 O 0.77166 0.35599 0.37845 0.0
O342 O 0.77838 0.36776 0.42328 0.0
O343 O 0.69537 0.40362 0.3934 0.0
O344 O 0.73416 0.39277 0.36882 0.0
C345 C 0.69982 0.32756 0.45995 0.0
O346 O 0.7433 0.36878 0.46463 0.0
O347 O 0.71658 0.40207 0.44534 0.0
C348 C 0.78562 0.3693 0.39724 0.0
O349 O 0.7236 0.31965 0.44966 0.0
O350 O 0.68951 0.35222 0.45427 0.0
C351 C 0.67447 0.34534 0.37704 0.0
Fe352 Fe 0.34097 0.37778 0.07951 0.0
Fe353 Fe 0.37611 0.39879 0.02764 0.0
O354 O 0.34314 0.39584 0.04625 0.0
Fe355 Fe 0.31138 0.41108 0.03179 0.0
O356 O 0.30781 0.43521 0.06199 0.0
O357 O 0.31195 0.40073 0.09364 0.0
O358 O 0.36629 0.40311 0.09581 0.0
C359 C 0.39004 0.41112 0.08512 0.0
C360 C 0.29187 0.35931 0.05236 0.0
O361 O 0.39711 0.40437 0.05988 0.0
C362 C 0.3346 0.38601 0.98467 0.0
O363 O 0.37022 0.35212 0.07264 0.0
O364 O 0.38347 0.36041 0.02838 0.0
O365 O 0.28723 0.38539 0.04812 0.0
O366 O 0.31531 0.35154 0.0639 0.0
C367 C 0.35273 0.45128 0.01416 0.0
O368 O 0.35944 0.39372 0.99254 0.0
O369 O 0.31324 0.38796 1.00105 0.0
C370 C 0.38443 0.34516 0.05067 0.0
O371 O 0.37336 0.43778 0.02508 0.0
O372 O 0.3286 0.43972 0.01197 0.0
C373 C 0.30458 0.42614 0.08724 0.0
Fe374 Fe 0.83307 0.08883 0.98871 0.0
Fe375 Fe 0.84308 0.13099 0.93949 0.0
O376 O 0.85687 0.10813 0.96637 0.0
Fe377 Fe 0.8945 0.10366 0.97049 0.0
O378 O 0.89243 0.06496 0.96442 0.0
O379 O 0.85649 0.05821 0.99378 0.0
O380 O 0.81752 0.07011 0.95838 0.0
C381 C 0.80708 0.08236 0.93669 0.0
C382 C 0.87388 0.10534 0.02677 0.0
O383 O 0.81162 0.10869 0.93203 0.0
C384 C 0.89328 0.16108 0.95963 0.0
O385 O 0.80474 0.11548 0.98815 0.0
O386 O 0.82255 0.1528 0.96594 0.0
O387 O 0.89263 0.09855 0.00867 0.0
O388 O 0.84761 0.10633 0.02027 0.0
C389 C 0.88783 0.10334 0.91166 0.0
O390 O 0.87294 0.15736 0.94183 0.0
O391 O 0.90007 0.1415 0.97697 0.0
C392 C 0.80436 0.14198 0.98327 0.0
O393 O 0.86146 0.10961 0.91172 0.0
O394 O 0.90308 0.10857 0.93305 0.0
C395 C 0.87696 0.04843 0.97927 0.0
Fe396 Fe 0.13268 0.5933 0.1911 0.0
Fe397 Fe 0.15558 0.64032 0.23031 0.0
O398 O 0.14932 0.60397 0.22343 0.0
Fe399 Fe 0.16013 0.57845 0.24892 0.0
O400 O 0.16838 0.55073 0.22238 0.0
O401 O 0.16407 0.5723 0.18077 0.0
O402 O 0.14788 0.62373 0.16952 0.0
C403 C 0.16933 0.63985 0.17472 0.0
C404 C 0.11036 0.55395 0.23353 0.0
O405 O 0.17847 0.64232 0.19979 0.0
C406 C 0.13852 0.62403 0.28256 0.0
O407 O 0.10027 0.61427 0.19944 0.0
O408 O 0.12419 0.65321 0.21034 0.0
O409 O 0.12381 0.5664 0.25317 0.0
O410 O 0.11515 0.56074 0.20739 0.0
C411 C 0.20584 0.61392 0.2518 0.0
O412 O 0.133 0.63972 0.2615 0.0
O413 O 0.15402 0.60197 0.27979 0.0
C414 C 0.10086 0.64112 0.20375 0.0
O415 O 0.18834 0.63462 0.2515 0.0
O416 O 0.19733 0.58901 0.24635 0.0
C417 C 0.175 0.55285 0.19614 0.0
Fe418 Fe 0.69101 0.91927 0.49157 0.0
Fe419 Fe 0.66681 0.88192 0.44241 0.0
O420 O 0.66199 0.90292 0.47358 0.0
Fe421 Fe 0.62726 0.9085 0.48736 0.0
O422 O 0.63499 0.94284 0.50539 0.0
O423 O 0.67593 0.95471 0.48688 0.0
O424 O 0.71247 0.9265 0.4594 0.0
C425 C 0.70613 0.92545 0.43313 0.0
C426 C 0.65618 0.89559 0.53496 0.0
O427 O 0.68578 0.91023 0.42434 0.0
C428 C 0.62183 0.85227 0.46585 0.0
O429 O 0.70829 0.88588 0.49751 0.0
O430 O 0.70124 0.8651 0.45562 0.0
O431 O 0.63622 0.88825 0.51856 0.0
O432 O 0.67464 0.91403 0.5272 0.0
C433 C 0.61896 0.91925 0.43104 0.0
O434 O 0.64738 0.85103 0.4571 0.0
O435 O 0.61116 0.87603 0.47268 0.0
C436 C 0.71492 0.8673 0.47938 0.0
O437 O 0.63372 0.89692 0.42473 0.0
O438 O 0.61794 0.92846 0.45635 0.0
C439 C 0.65299 0.96188 0.49879 0.0
Fe440 Fe 0.34285 0.44515 0.73695 0.0
Fe441 Fe 0.38251 0.42333 0.68951 0.0
O442 O 0.36152 0.41649 0.72036 0.0
Fe443 Fe 0.35911 0.38135 0.73433 0.0
O444 O 0.32001 0.38111 0.73152 0.0
O445 O 0.3129 0.42365 0.74988 0.0
O446 O 0.32237 0.45223 0.70474 0.0
C447 C 0.33371 0.45822 0.68099 0.0
C448 C 0.36228 0.41669 0.78374 0.0
O449 O 0.35995 0.45293 0.67653 0.0
C450 C 0.41482 0.37879 0.71724 0.0
O451 O 0.36944 0.47218 0.72773 0.0
O452 O 0.40576 0.44799 0.71014 0.0
O453 O 0.35752 0.39306 0.7715 0.0
O454 O 0.36184 0.43995 0.77015 0.0
C455 C 0.35436 0.37367 0.67469 0.0
O456 O 0.40866 0.39422 0.69576 0.0
O457 O 0.39787 0.37787 0.73828 0.0
C458 C 0.39602 0.46929 0.72406 0.0
O459 O 0.35996 0.39936 0.66797 0.0
O460 O 0.36004 0.36417 0.69938 0.0
C461 C 0.30369 0.39933 0.74295 0.0
Fe462 Fe 0.12703 0.60996 0.5286 0.0
Fe463 Fe 0.19028 0.60467 0.51285 0.0
O464 O 0.16357 0.61509 0.53785 0.0
Fe465 Fe 0.17415 0.63 0.57112 0.0
O466 O 0.15384 0.60323 0.59159 0.0
O467 O 0.11546 0.60009 0.56424 0.0
O468 O 0.13245 0.5716 0.52179 0.0
C469 C 0.14982 0.56198 0.50356 0.0
C470 C 0.12331 0.66226 0.5564 0.0
O471 O 0.16913 0.57803 0.49415 0.0
C472 C 0.21574 0.65311 0.53551 0.0
O473 O 0.13292 0.62004 0.49121 0.0
O474 O 0.17848 0.63219 0.48844 0.0
O475 O 0.14409 0.65612 0.57297 0.0
O476 O 0.11746 0.64695 0.53498 0.0
C477 C 0.21117 0.58193 0.56217 0.0
O478 O 0.218 0.62856 0.52524 0.0
O479 O 0.19596 0.65833 0.5534 0.0
C480 C 0.15293 0.63451 0.47988 0.0
O481 O 0.20282 0.57712 0.53684 0.0
O482 O 0.20519 0.6054 0.57484 0.0
C483 C 0.12851 0.59472 0.58719 0.0
Fe484 Fe 0.64861 0.87363 0.78903 0.0
Fe485 Fe 0.66247 0.9354 0.7738 0.0
O486 O 0.64681 0.91043 0.7977 0.0
Fe487 Fe 0.62971 0.92244 0.82941 0.0
O488 O 0.65277 0.89976 0.8523 0.0
O489 O 0.65086 0.86126 0.82543 0.0
O490 O 0.68785 0.87433 0.78825 0.0
C491 C 0.70178 0.89003 0.77127 0.0
C492 C 0.594 0.8757 0.81032 0.0
O493 O 0.68986 0.91126 0.75975 0.0
C494 C 0.61341 0.96495 0.79075 0.0
O495 O 0.64583 0.87945 0.75073 0.0
O496 O 0.63751 0.92534 0.74612 0.0
O497 O 0.60123 0.89451 0.82869 0.0
O498 O 0.61012 0.86978 0.78948 0.0
C499 C 0.68067 0.95632 0.82494 0.0
O500 O 0.6389 0.96503 0.78235 0.0
O501 O 0.60518 0.94632 0.80883 0.0
C502 C 0.63468 0.90004 0.7373 0.0
O503 O 0.68768 0.94662 0.80069 0.0
O504 O 0.65591 0.9517 0.83547 0.0
C505 C 0.65679 0.87316 0.84876 0.0
Fe506 Fe 0.88188 0.08301 0.32301 0.0
Fe507 Fe 0.86242 0.12956 0.27969 0.0
O508 O 0.86662 0.09326 0.28986 0.0
Fe509 Fe 0.85498 0.06633 0.266 0.0
O510 O 0.82741 0.05591 0.29075 0.0
O511 O 0.85655 0.05258 0.32794 0.0
O512 O 0.85568 0.10435 0.34317 0.0
C513 C 0.84777 0.12976 0.33813 0.0
C514 C 0.90293 0.03963 0.28866 0.0
O515 O 0.85383 0.14236 0.31514 0.0
C516 C 0.88419 0.10156 0.23085 0.0
O517 O 0.90867 0.11245 0.32383 0.0
O518 O 0.89994 0.13775 0.28488 0.0
O519 O 0.87795 0.03814 0.27924 0.0
O520 O 0.90953 0.0603 0.305 0.0
C521 C 0.81367 0.10827 0.25527 0.0
O522 O 0.8711 0.12228 0.24245 0.0
O523 O 0.88254 0.07645 0.24078 0.0
C524 C 0.91534 0.13231 0.30637 0.0
O525 O 0.82367 0.12537 0.27358 0.0
O526 O 0.82876 0.08774 0.24693 0.0
C527 C 0.83242 0.04756 0.31603 0.0
H528 H 0.94679 0.38356 0.42163 0.0
H529 H 0.95584 0.37101 0.33048 0.0
H530 H 0.90528 0.38561 0.32344 0.0
H531 H 0.88466 0.35161 0.42998 0.0
H532 H 0.87138 0.37549 0.45718 0.0
H533 H 0.90912 0.37161 0.45175 0.0
H534 H 0.91193 0.42945 0.44178 0.0
H535 H 0.87415 0.42903 0.45015 0.0
H536 H 0.8867 0.44396 0.4169 0.0
H537 H 0.85318 0.38951 0.32793 0.0
H538 H 0.80405 0.37884 0.34288 0.0
H539 H 0.82858 0.38819 0.4319 0.0
C540 C 0.93811 0.38484 0.40018 0.0
C541 C 0.95439 0.37618 0.37657 0.0
C542 C 0.94315 0.37772 0.34867 0.0
C543 C 0.91474 0.3863 0.34456 0.0
C544 C 0.89857 0.39373 0.36859 0.0
C545 C 0.91002 0.39339 0.39587 0.0
C546 C 0.8874 0.3971 0.41855 0.0
C547 C 0.88819 0.37255 0.44065 0.0
C548 C 0.89017 0.42657 0.43276 0.0
C549 C 0.86102 0.39584 0.40016 0.0
C550 C 0.86792 0.39552 0.37131 0.0
C551 C 0.84748 0.39046 0.35035 0.0
C552 C 0.8197 0.38408 0.35914 0.0
C553 C 0.81287 0.38216 0.38864 0.0
C554 C 0.83332 0.38968 0.40926 0.0
H555 H 0.93989 0.56762 0.63519 0.0
H556 H 0.85033 0.54738 0.64684 0.0
H557 H 0.83727 0.59697 0.63366 0.0
H558 H 0.94103 0.63226 0.665 0.0
H559 H 0.96487 0.64927 0.63989 0.0
H560 H 0.96607 0.61133 0.64453 0.0
H561 H 0.95718 0.60381 0.58981 0.0
H562 H 0.95673 0.64209 0.58559 0.0
H563 H 0.92699 0.62092 0.57334 0.0
H564 H 0.83493 0.64905 0.62736 0.0
H565 H 0.84341 0.70063 0.63225 0.0
H566 H 0.93466 0.68666 0.62204 0.0
C567 C 0.91761 0.57377 0.63471 0.0
C568 C 0.89603 0.55446 0.64249 0.0
C569 C 0.86698 0.5625 0.64126 0.0
C570 C 0.85943 0.59029 0.63336 0.0
C571 C 0.88124 0.60911 0.62581 0.0
C572 C 0.90974 0.60114 0.6261 0.0
C573 C 0.92917 0.62613 0.61995 0.0
C574 C 0.95157 0.63001 0.64379 0.0
C575 C 0.94338 0.62306 0.59045 0.0
C576 C 0.90744 0.6499 0.61961 0.0
C577 C 0.87981 0.63952 0.62165 0.0
C578 C 0.85636 0.65748 0.62509 0.0
C579 C 0.86144 0.68671 0.62802 0.0
C580 C 0.88977 0.69741 0.62798 0.0
C581 C 0.91281 0.67899 0.62209 0.0
H582 H 0.68424 0.61935 0.93667 0.0
H583 H 0.70629 0.61413 0.84675 0.0
H584 H 0.6558 0.60467 0.83493 0.0
H585 H 0.61861 0.56809 0.93402 0.0
H586 H 0.60029 0.59074 0.95926 0.0
H587 H 0.6385 0.58616 0.96162 0.0
H588 H 0.64475 0.64107 0.95949 0.0
H589 H 0.60692 0.64587 0.95647 0.0
H590 H 0.63026 0.6606 0.92952 0.0
H591 H 0.60318 0.60955 0.83165 0.0
H592 H 0.55323 0.62659 0.83786 0.0
H593 H 0.56614 0.63087 0.92943 0.0
C594 C 0.67852 0.61502 0.91463 0.0
C595 C 0.69878 0.61773 0.8926 0.0
C596 C 0.6909 0.61206 0.86395 0.0
C597 C 0.66231 0.60652 0.85707 0.0
C598 C 0.64227 0.60622 0.87916 0.0
C599 C 0.65017 0.6097 0.90754 0.0
C600 C 0.62457 0.61405 0.9267 0.0
C601 C 0.62023 0.58821 0.94656 0.0
C602 C 0.62678 0.64206 0.944 0.0
C603 C 0.60143 0.61555 0.90437 0.0
C604 C 0.61169 0.6098 0.8772 0.0
C605 C 0.5947 0.61328 0.85286 0.0
C606 C 0.56664 0.62321 0.85645 0.0
C607 C 0.55663 0.63021 0.88402 0.0
C608 C 0.57381 0.62566 0.90818 0.0
H609 H 0.59522 0.3249 0.11897 0.0
H610 H 0.67236 0.3012 0.16437 0.0
H611 H 0.68275 0.35215 0.17364 0.0
H612 H 0.62371 0.39554 0.08892 0.0
H613 H 0.58892 0.41155 0.0934 0.0
H614 H 0.59192 0.37415 0.08473 0.0
H615 H 0.56084 0.36226 0.12904 0.0
H616 H 0.55874 0.39932 0.13866 0.0
H617 H 0.57249 0.3737 0.16398 0.0
H618 H 0.67799 0.4039 0.18756 0.0
H619 H 0.66359 0.45438 0.19627 0.0
H620 H 0.59036 0.4427 0.14065 0.0
C621 C 0.61504 0.3307 0.12949 0.0
C622 C 0.63319 0.3097 0.14074 0.0
C623 C 0.65862 0.31742 0.15513 0.0
C624 C 0.66453 0.34618 0.16067 0.0
C625 C 0.64507 0.36652 0.15099 0.0
C626 C 0.62136 0.35918 0.13479 0.0
C627 C 0.60226 0.38446 0.12922 0.0
C628 C 0.6017 0.39187 0.09716 0.0
C629 C 0.57181 0.37962 0.14094 0.0
C630 C 0.61801 0.40675 0.14619 0.0
C631 C 0.64269 0.39625 0.15857 0.0
C632 C 0.65918 0.41265 0.17731 0.0
C633 C 0.65069 0.44095 0.18251 0.0
C634 C 0.62614 0.452 0.16888 0.0
C635 C 0.60951 0.43462 0.15093 0.0
H636 H 0.44062 0.17576 0.58819 0.0
H637 H 0.46033 0.11732 0.65768 0.0
H638 H 0.40873 0.10626 0.66274 0.0
H639 H 0.37669 0.20367 0.61697 0.0
H640 H 0.35876 0.20597 0.58292 0.0
H641 H 0.39707 0.20903 0.5847 0.0
H642 H 0.40313 0.16698 0.54899 0.0
H643 H 0.3648 0.16426 0.54636 0.0
H644 H 0.38559 0.13342 0.55633 0.0
H645 H 0.35452 0.10271 0.66016 0.0
H646 H 0.30261 0.10789 0.6509 0.0
H647 H 0.32136 0.16696 0.58161 0.0
C648 C 0.43419 0.16084 0.60471 0.0
C649 C 0.45428 0.14752 0.62269 0.0
C650 C 0.44505 0.12778 0.64374 0.0
C651 C 0.41593 0.12132 0.6467 0.0
C652 C 0.3967 0.1346 0.62821 0.0
C653 C 0.40556 0.15391 0.60765 0.0
C654 C 0.38102 0.16536 0.59031 0.0
C655 C 0.37821 0.19793 0.59395 0.0
C656 C 0.38383 0.157 0.55862 0.0
C657 C 0.35681 0.14968 0.60447 0.0
C658 C 0.36606 0.13201 0.62627 0.0
C659 C 0.34703 0.11633 0.64301 0.0
C660 C 0.31769 0.11936 0.63757 0.0
C661 C 0.30804 0.13782 0.61555 0.0
C662 C 0.32798 0.15254 0.5985 0.0
H663 H 0.08051 0.19021 0.86195 0.0
H664 H 0.16349 0.20348 0.90117 0.0
H665 H 0.17564 0.15261 0.89256 0.0
H666 H 0.06785 0.1178 0.88502 0.0
H667 H 0.05223 0.10793 0.8512 0.0
H668 H 0.04936 0.14414 0.86374 0.0
H669 H 0.07241 0.16181 0.81631 0.0
H670 H 0.07559 0.12549 0.80397 0.0
H671 H 0.10684 0.14792 0.80584 0.0
H672 H 0.17816 0.1005 0.87892 0.0
H673 H 0.16933 0.05026 0.8645 0.0
H674 H 0.08724 0.07449 0.82931 0.0
C675 C 0.10081 0.18217 0.86973 0.0
C676 C 0.12088 0.20027 0.88281 0.0
C677 C 0.14773 0.18947 0.89161 0.0
C678 C 0.15488 0.16086 0.88651 0.0
C679 C 0.1351 0.14394 0.87207 0.0
C680 C 0.10859 0.1542 0.86399 0.0
C681 C 0.09174 0.13247 0.84737 0.0
C682 C 0.06363 0.12517 0.86279 0.0
C683 C 0.08631 0.14255 0.81654 0.0
C684 C 0.11251 0.10794 0.84799 0.0
C685 C 0.13752 0.11493 0.86218 0.0
C686 C 0.15895 0.0949 0.8673 0.0
C687 C 0.15398 0.06666 0.85882 0.0
C688 C 0.12812 0.05934 0.84508 0.0
C689 C 0.10763 0.08022 0.83875 0.0
H690 H 0.07276 0.86495 0.14272 0.0
H691 H 0.05509 0.80958 0.07059 0.0
H692 H 0.10297 0.81981 0.05074 0.0
H693 H 0.11111 0.9177 0.10621 0.0
H694 H 0.13759 0.92333 0.13365 0.0
H695 H 0.10235 0.91101 0.14319 0.0
H696 H 0.12352 0.86639 0.16863 0.0
H697 H 0.15879 0.87944 0.16049 0.0
H698 H 0.14847 0.84396 0.14962 0.0
H699 H 0.15038 0.83959 0.03677 0.0
H700 H 0.20068 0.85518 0.03667 0.0
H701 H 0.18811 0.8959 0.11915 0.0
C702 C 0.07956 0.85413 0.12339 0.0
C703 C 0.0608 0.83619 0.10831 0.0
C704 C 0.06975 0.82279 0.08272 0.0
C705 C 0.09654 0.82897 0.071 0.0
C706 C 0.11399 0.84813 0.08554 0.0
C707 C 0.1064 0.85957 0.11173 0.0
C708 C 0.12971 0.87834 0.12369 0.0
C709 C 0.11956 0.90944 0.12686 0.0
C710 C 0.14079 0.86631 0.15229 0.0
C711 C 0.15165 0.87556 0.10015 0.0
C712 C 0.1418 0.85877 0.07794 0.0
C713 C 0.1585 0.85258 0.0541 0.0
C714 C 0.18691 0.86186 0.05407 0.0
C715 C 0.19815 0.87648 0.07808 0.0
C716 C 0.1799 0.88481 0.10055 0.0
H717 H 0.45198 0.83288 0.37559 0.0
H718 H 0.374 0.813 0.42141 0.0
H719 H 0.36364 0.86439 0.42643 0.0
H720 H 0.46627 0.90748 0.41038 0.0
H721 H 0.47795 0.92081 0.37613 0.0
H722 H 0.485 0.88423 0.386 0.0
H723 H 0.46024 0.86785 0.33928 0.0
H724 H 0.45187 0.90404 0.32982 0.0
H725 H 0.4236 0.87801 0.3327 0.0
H726 H 0.35528 0.91503 0.41554 0.0
H727 H 0.35215 0.96308 0.3936 0.0
H728 H 0.43347 0.94887 0.35115 0.0
C729 C 0.43378 0.83954 0.3883 0.0
C730 C 0.4139 0.81944 0.39846 0.0
C731 C 0.38953 0.82845 0.41386 0.0
C732 C 0.38353 0.85751 0.41679 0.0
C733 C 0.40217 0.87698 0.40415 0.0
C734 C 0.42721 0.86847 0.39071 0.0
C735 C 0.44055 0.89271 0.37399 0.0
C736 C 0.46913 0.90185 0.38744 0.0
C737 C 0.44424 0.88518 0.34208 0.0
C738 C 0.41793 0.91527 0.3782 0.0
C739 C 0.39647 0.90617 0.39636 0.0
C740 C 0.37228 0.92269 0.40182 0.0
C741 C 0.37044 0.94962 0.38898 0.0
C742 C 0.3923 0.95918 0.37041 0.0
C743 C 0.4162 0.94175 0.36488 0.0
H744 H 0.36992 0.36344 0.94423 0.0
H745 H 0.28825 0.4059 0.95619 0.0
H746 H 0.28719 0.41844 0.9051 0.0
H747 H 0.40037 0.41024 0.89993 0.0
H748 H 0.41742 0.38573 0.87557 0.0
H749 H 0.4101 0.37486 0.91176 0.0
H750 H 0.38072 0.33135 0.8942 0.0
H751 H 0.38913 0.34119 0.85786 0.0
H752 H 0.35237 0.33668 0.8686 0.0
H753 H 0.30136 0.43731 0.85786 0.0
H754 H 0.32063 0.44652 0.8096 0.0
H755 H 0.39005 0.38716 0.82569 0.0
C756 C 0.35123 0.37418 0.93571 0.0
C757 C 0.32931 0.3839 0.95394 0.0
C758 C 0.30519 0.39812 0.94242 0.0
C759 C 0.30453 0.40562 0.91353 0.0
C760 C 0.32767 0.39782 0.89657 0.0
C761 C 0.34984 0.38111 0.90673 0.0
C762 C 0.37232 0.37622 0.88395 0.0
C763 C 0.40178 0.38744 0.89339 0.0
C764 C 0.3737 0.34448 0.87565 0.0
C765 C 0.36006 0.39417 0.86005 0.0
C766 C 0.33458 0.40685 0.86805 0.0
C767 C 0.3207 0.42672 0.85084 0.0
C768 C 0.33215 0.43231 0.82383 0.0
C769 C 0.35675 0.41753 0.81432 0.0
C770 C 0.37123 0.39868 0.83275 0.0
H771 H 0.84659 0.13157 0.07135 0.0
H772 H 0.92238 0.08264 0.049 0.0
H773 H 0.9374 0.08234 0.09915 0.0
H774 H 0.88207 0.1746 0.12892 0.0
H775 H 0.85038 0.17398 0.15089 0.0
H776 H 0.84722 0.17361 0.11245 0.0
H777 H 0.81689 0.12724 0.11534 0.0
H778 H 0.81986 0.12758 0.15365 0.0
H779 H 0.83115 0.09655 0.13383 0.0
H780 H 0.9395 0.07918 0.15151 0.0
H781 H 0.92984 0.07722 0.20366 0.0
H782 H 0.85612 0.13219 0.19161 0.0
C783 C 0.86654 0.12127 0.07705 0.0
C784 C 0.88317 0.10706 0.05651 0.0
C785 C 0.90925 0.09373 0.06452 0.0
C786 C 0.91814 0.09355 0.0929 0.0
C787 C 0.9011 0.10741 0.1128 0.0
C788 C 0.8761 0.12142 0.10526 0.0
C789 C 0.86077 0.13289 0.13115 0.0
C790 C 0.86009 0.16572 0.13083 0.0
C791 C 0.8304 0.1203 0.13363 0.0
C792 C 0.88029 0.12175 0.1543 0.0
C793 C 0.90353 0.10721 0.14334 0.0
C794 C 0.92207 0.0914 0.16059 0.0
C795 C 0.91643 0.09023 0.18996 0.0
C796 C 0.89281 0.10516 0.20128 0.0
C797 C 0.87501 0.12156 0.1834 0.0
H798 H 0.18111 0.63335 0.3195 0.0
H799 H 0.08976 0.64313 0.30829 0.0
H800 H 0.0856 0.66103 0.35807 0.0
H801 H 0.18133 0.6047 0.38316 0.0
H802 H 0.21228 0.62268 0.39748 0.0
H803 H 0.20869 0.61841 0.35963 0.0
H804 H 0.21315 0.67333 0.35265 0.0
H805 H 0.21731 0.6773 0.39082 0.0
H806 H 0.18989 0.69699 0.37217 0.0
H807 H 0.08985 0.66503 0.41024 0.0
H808 H 0.10166 0.65401 0.46038 0.0
H809 H 0.19108 0.6453 0.43752 0.0
C810 C 0.16038 0.63993 0.32752 0.0
C811 C 0.13563 0.63657 0.31085 0.0
C812 C 0.1088 0.64549 0.32128 0.0
C813 C 0.10639 0.65598 0.34924 0.0
C814 C 0.13121 0.65825 0.36571 0.0
C815 C 0.15782 0.65095 0.35501 0.0
C816 C 0.18056 0.65138 0.37792 0.0
C817 C 0.19659 0.62258 0.37965 0.0
C818 C 0.20146 0.67625 0.37312 0.0
C819 C 0.16204 0.65664 0.40383 0.0
C820 C 0.13381 0.6617 0.39626 0.0
C821 C 0.11194 0.66209 0.41649 0.0
C822 C 0.1188 0.6556 0.44486 0.0
C823 C 0.14724 0.64871 0.45252 0.0
C824 C 0.16928 0.65102 0.43217 0.0
H825 H 0.65559 0.93455 0.577 0.0
H826 H 0.64423 0.84439 0.5594 0.0
H827 H 0.62883 0.83646 0.60959 0.0
H828 H 0.68207 0.93003 0.64779 0.0
H829 H 0.66265 0.96163 0.65828 0.0
H830 H 0.6732 0.95673 0.62163 0.0
H831 H 0.61652 0.96133 0.60707 0.0
H832 H 0.61081 0.96779 0.64474 0.0
H833 H 0.59171 0.93972 0.62655 0.0
H834 H 0.61874 0.83846 0.662 0.0
H835 H 0.61898 0.84929 0.71362 0.0
H836 H 0.63215 0.93914 0.69463 0.0
C837 C 0.65031 0.9131 0.58396 0.0
C838 C 0.65164 0.8899 0.56508 0.0
C839 C 0.64374 0.86221 0.57419 0.0
C840 C 0.6346 0.85764 0.60232 0.0
C841 C 0.63271 0.88124 0.62034 0.0
C842 C 0.64031 0.90837 0.6115 0.0
C843 C 0.63688 0.93005 0.63498 0.0
C844 C 0.66535 0.94553 0.64102 0.0
C845 C 0.61257 0.95103 0.628 0.0
C846 C 0.6284 0.91061 0.65911 0.0
C847 C 0.6253 0.88261 0.65013 0.0
C848 C 0.62057 0.86034 0.66924 0.0
C849 C 0.62074 0.8667 0.69842 0.0
C850 C 0.62584 0.89501 0.70784 0.0
C851 C 0.62789 0.91739 0.68795 0.0
H852 H 0.11116 0.51868 0.5168 0.0
H853 H 0.18245 0.53941 0.46088 0.0
H854 H 0.1786 0.49239 0.43809 0.0
H855 H 0.12908 0.44206 0.52504 0.0
H856 H 0.09213 0.43112 0.52452 0.0
H857 H 0.10174 0.46575 0.53836 0.0
H858 H 0.06688 0.49 0.50268 0.0
H859 H 0.05696 0.45547 0.48908 0.0
H860 H 0.07018 0.4825 0.46499 0.0
H861 H 0.16435 0.44476 0.41775 0.0
H862 H 0.139 0.40142 0.40098 0.0
H863 H 0.07919 0.41006 0.47151 0.0
C864 C 0.12612 0.51321 0.49998 0.0
C865 C 0.14705 0.53297 0.49075 0.0
C866 C 0.16614 0.52485 0.4685 0.0
C867 C 0.16428 0.49802 0.4554 0.0
C868 C 0.14342 0.4791 0.46485 0.0
C869 C 0.12471 0.48627 0.48668 0.0
C870 C 0.10327 0.46252 0.49164 0.0
C871 C 0.10678 0.4496 0.52167 0.0
C872 C 0.07251 0.47327 0.48679 0.0
C873 C 0.11233 0.44148 0.46863 0.0
C874 C 0.13571 0.45125 0.45355 0.0
C875 C 0.14631 0.43657 0.42973 0.0
C876 C 0.13194 0.41182 0.42043 0.0
C877 C 0.10721 0.40213 0.43492 0.0
C878 C 0.0982 0.41665 0.46002 0.0
H879 H 0.82254 0.86595 0.65396 0.0
H880 H 0.88101 0.84306 0.72192 0.0
H881 H 0.84405 0.85543 0.7579 0.0
H882 H 0.78654 0.92688 0.69369 0.0
H883 H 0.7526 0.91838 0.67753 0.0
H884 H 0.7853 0.912 0.65815 0.0
H885 H 0.77013 0.85928 0.65123 0.0
H886 H 0.73792 0.86515 0.67141 0.0
H887 H 0.76255 0.83753 0.68219 0.0
H888 H 0.79689 0.86139 0.7856 0.0
H889 H 0.74731 0.87005 0.80293 0.0
H890 H 0.72148 0.89222 0.71671 0.0
C891 C 0.82804 0.86513 0.67646 0.0
C892 C 0.8548 0.85428 0.68527 0.0
C893 C 0.86094 0.85224 0.71484 0.0
C894 C 0.8399 0.85883 0.73538 0.0
C895 C 0.8131 0.86805 0.72593 0.0
C896 C 0.80753 0.87221 0.69714 0.0
C897 C 0.77675 0.88107 0.69227 0.0
C898 C 0.77521 0.91139 0.67968 0.0
C899 C 0.76093 0.85946 0.67315 0.0
C900 C 0.76553 0.8803 0.72265 0.0
C901 C 0.78663 0.87251 0.74184 0.0
C902 C 0.78043 0.8682 0.77081 0.0
C903 C 0.75221 0.87283 0.78045 0.0
C904 C 0.73073 0.88201 0.7612 0.0
C905 C 0.73761 0.8856 0.73198 0.0
H906 H 0.43269 0.59665 0.9761 0.0
H907 H 0.36892 0.61068 0.91004 0.0
H908 H 0.34156 0.56915 0.92844 0.0
H909 H 0.43577 0.52414 0.96782 0.0
H910 H 0.44152 0.51566 1.00499 0.0
H911 H 0.45288 0.54964 0.9911 0.0
H912 H 0.42282 0.57608 0.0292 0.0
H913 H 0.41181 0.54217 0.04378 0.0
H914 H 0.3853 0.56798 0.03293 0.0
H915 H 0.32449 0.52292 0.95063 0.0
H916 H 0.31842 0.47637 0.97431 0.0
H917 H 0.39609 0.49059 0.02318 0.0
C918 C 0.41253 0.59163 0.96586 0.0
C919 C 0.40287 0.60714 0.9416 0.0
C920 C 0.37656 0.59948 0.92882 0.0
C921 C 0.361 0.5758 0.93907 0.0
C922 C 0.37212 0.56011 0.96203 0.0
C923 C 0.39724 0.56788 0.97535 0.0
C924 C 0.4065 0.54589 0.99739 0.0
C925 C 0.43589 0.53309 0.98985 0.0
C926 C 0.40659 0.55881 0.02762 0.0
C927 C 0.38291 0.52403 0.99406 0.0
C928 C 0.36306 0.53289 0.97391 0.0
C929 C 0.33974 0.51599 0.96661 0.0
C930 C 0.33654 0.48951 0.98024 0.0
C931 C 0.35677 0.47977 1.00073 0.0
C932 C 0.38028 0.49738 0.00766 0.0
H933 H 0.65736 0.17165 0.22554 0.0
H934 H 0.65938 0.12717 0.14414 0.0
H935 H 0.70448 0.10355 0.15863 0.0
H936 H 0.72796 0.18934 0.22633 0.0
H937 H 0.73355 0.18546 0.2643 0.0
H938 H 0.69854 0.19399 0.25084 0.0
H939 H 0.67717 0.14983 0.27637 0.0
H940 H 0.71203 0.14148 0.29056 0.0
H941 H 0.69263 0.11506 0.27033 0.0
H942 H 0.75244 0.09089 0.17865 0.0
H943 H 0.7981 0.08622 0.20394 0.0
H944 H 0.76666 0.14111 0.27196 0.0
C945 C 0.66665 0.15604 0.21117 0.0
C946 C 0.6546 0.151 0.18374 0.0
C947 C 0.66776 0.13089 0.16541 0.0
C948 C 0.69358 0.11764 0.1734 0.0
C949 C 0.70579 0.12464 0.1998 0.0
C950 C 0.69252 0.14304 0.21863 0.0
C951 C 0.71139 0.14933 0.24438 0.0
C952 C 0.71826 0.18143 0.24656 0.0
C953 C 0.69748 0.13825 0.27205 0.0
C954 C 0.7378 0.13215 0.2368 0.0
C955 C 0.73389 0.11789 0.21112 0.0
C956 C 0.75548 0.10153 0.19898 0.0
C957 C 0.78146 0.09911 0.21361 0.0
C958 C 0.78605 0.11312 0.2402 0.0
C959 C 0.76388 0.13012 0.25178 0.0
H960 H 0.63247 0.97644 0.55132 0.0
H961 H 0.66878 0.01258 0.47408 0.0
H962 H 0.66506 0.06113 0.49517 0.0
H963 H 0.58227 0.03081 0.56821 0.0
H964 H 0.58888 0.02673 0.606 0.0
H965 H 0.59474 0.9973 0.58203 0.0
H966 H 0.64963 0.99616 0.60236 0.0
H967 H 0.63958 0.02572 0.62492 0.0
H968 H 0.66959 0.02871 0.60095 0.0
H969 H 0.65105 0.10606 0.52302 0.0
H970 H 0.62773 0.14202 0.55421 0.0
H971 H 0.60617 0.07577 0.61495 0.0
C972 C 0.63963 0.9946 0.53886 0.0
C973 C 0.65051 0.99093 0.51095 0.0
C974 C 0.66021 0.01507 0.49547 0.0
C975 C 0.65833 0.04264 0.50735 0.0
C976 C 0.64759 0.04553 0.53508 0.0
C977 C 0.63873 0.02205 0.55069 0.0
C978 C 0.62774 0.03069 0.57985 0.0
C979 C 0.59662 0.02078 0.58432 0.0
C980 C 0.64774 0.01966 0.60347 0.0
C981 C 0.62972 0.06279 0.57758 0.0
C982 C 0.64171 0.0711 0.5518 0.0
C983 C 0.64254 0.09979 0.54362 0.0
C984 C 0.6296 0.12015 0.56159 0.0
C985 C 0.61637 0.11168 0.58747 0.0
C986 C 0.61752 0.08288 0.59602 0.0
H987 H 0.28483 0.40285 0.79749 0.0
H988 H 0.25839 0.3771 0.7126 0.0
H989 H 0.20947 0.36713 0.73113 0.0
H990 H 0.24756 0.34814 0.83442 0.0
H991 H 0.23928 0.37025 0.86488 0.0
H992 H 0.27066 0.37749 0.84388 0.0
H993 H 0.25304 0.42948 0.83582 0.0
H994 H 0.2215 0.42206 0.85671 0.0
H995 H 0.21812 0.43558 0.82073 0.0
H996 H 0.16324 0.36003 0.75984 0.0
H997 H 0.12761 0.34686 0.79682 0.0
H998 H 0.18613 0.37413 0.86306 0.0
C999 C 0.26865 0.39528 0.78279 0.0
C1000 C 0.27512 0.39098 0.7536 0.0
C1001 C 0.25372 0.38047 0.73504 0.0
C1002 C 0.22588 0.37509 0.74536 0.0
C1003 C 0.22004 0.38004 0.7743 0.0
C1004 C 0.24112 0.3893 0.79283 0.0
C1005 C 0.23044 0.39043 0.82341 0.0
C1006 C 0.24801 0.37037 0.84277 0.0
C1007 C 0.2308 0.42122 0.83484 0.0
C1008 C 0.20009 0.37986 0.81944 0.0
C1009 C 0.19415 0.3748 0.79088 0.0
C1010 C 0.16763 0.36418 0.78219 0.0
C1011 C 0.14731 0.35719 0.80329 0.0
C1012 C 0.15384 0.36032 0.83268 0.0
C1013 C 0.18025 0.37253 0.8407 0.0
H1014 H 0.93071 0.947 0.10167 0.0
H1015 H 0.8883 0.87613 0.05977 0.0
H1016 H 0.87352 0.90866 0.02036 0.0
H1017 H 0.87995 1.00305 0.08068 0.0
H1018 H 0.9082 0.02891 0.07661 0.0
H1019 H 0.91184 1.00038 0.10218 0.0
H1020 H 0.95973 0.98603 0.07815 0.0
H1021 H 0.95564 0.01386 0.05186 0.0
H1022 H 0.96026 0.97731 0.04059 0.0
H1023 H 0.86536 0.95009 0.98423 0.0
H1024 H 0.86067 0.99633 0.95841 0.0
H1025 H 0.91234 0.03746 0.02303 0.0
C1026 C 0.91767 0.93837 0.08458 0.0
C1027 C 0.91041 0.90904 0.08395 0.0
C1028 C 0.89358 0.89862 0.06103 0.0
C1029 C 0.88548 0.91689 0.03837 0.0
C1030 C 0.89442 0.94543 0.03901 0.0
C1031 C 0.90977 0.95609 0.06188 0.0
C1032 C 0.91762 0.98715 0.05755 0.0
C1033 C 0.90356 1.00598 0.08061 0.0
C1034 C 0.95025 0.9913 0.057 0.0
C1035 C 0.90467 0.99245 0.02842 0.0
C1036 C 0.89118 0.9683 0.01798 0.0
C1037 C 0.87624 0.96892 0.99209 0.0
C1038 C 0.87405 0.99511 0.97728 0.0
C1039 C 0.88727 0.02005 0.9881 0.0
C1040 C 0.90325 0.01839 0.01361 0.0
H1041 H 0.32817 0.70638 0.32174 0.0
H1042 H 0.37528 0.62871 0.34052 0.0
H1043 H 0.33898 0.60081 0.31333 0.0
H1044 H 0.26111 0.67866 0.33257 0.0
H1045 H 0.24374 0.69882 0.30462 0.0
H1046 H 0.27499 0.71296 0.32196 0.0
H1047 H 0.30144 0.71794 0.27375 0.0
H1048 H 0.27011 0.70493 0.25551 0.0
H1049 H 0.30414 0.68759 0.25019 0.0
H1050 H 0.29422 0.58173 0.28682 0.0
H1051 H 0.24693 0.57345 0.26444 0.0
H1052 H 0.23092 0.66479 0.26483 0.0
C1053 C 0.33117 0.68349 0.32008 0.0
C1054 C 0.35442 0.66964 0.3335 0.0
C1055 C 0.3576 0.63973 0.33039 0.0
C1056 C 0.3371 0.6238 0.31501 0.0
C1057 C 0.31396 0.63828 0.30268 0.0
C1058 C 0.31122 0.66755 0.30497 0.0
C1059 C 0.28392 0.67836 0.29157 0.0
C1060 C 0.2648 0.69306 0.314 0.0
C1061 C 0.29029 0.69837 0.26624 0.0
C1062 C 0.27116 0.65053 0.28163 0.0
C1063 C 0.28874 0.62757 0.28792 0.0
C1064 C 0.28051 0.59963 0.28162 0.0
C1065 C 0.2536 0.59515 0.2689 0.0
C1066 C 0.23517 0.61849 0.26288 0.0
C1067 C 0.24444 0.64647 0.26905 0.0
H1068 H 0.41113 0.088 0.44144 0.0
H1069 H 0.44109 0.14854 0.3782 0.0
H1070 H 0.47082 0.17223 0.41544 0.0
H1071 H 0.41207 0.13515 0.50474 0.0
H1072 H 0.42528 0.10716 0.52779 0.0
H1073 H 0.40274 0.09847 0.49778 0.0
H1074 H 0.44085 0.06379 0.47835 0.0
H1075 H 0.46391 0.0719 0.50803 0.0
H1076 H 0.47668 0.07647 0.47192 0.0
H1077 H 0.5018 0.18534 0.45961 0.0
H1078 H 0.52852 0.18785 0.50537 0.0
H1079 H 0.48001 0.11564 0.53745 0.0
C1080 C 0.42293 0.10712 0.43575 0.0
C1081 C 0.42311 0.11708 0.40718 0.0
C1082 C 0.43981 0.14128 0.40017 0.0
C1083 C 0.45705 0.15455 0.42116 0.0
C1084 C 0.45748 0.14313 0.44889 0.0
C1085 C 0.44054 0.12005 0.45613 0.0
C1086 C 0.44671 0.10965 0.48621 0.0
C1087 C 0.42012 0.11281 0.50528 0.0
C1088 C 0.45769 0.07863 0.48609 0.0
C1089 C 0.47005 0.13025 0.49493 0.0
C1090 C 0.47591 0.14961 0.47333 0.0
C1091 C 0.49715 0.17033 0.47662 0.0
C1092 C 0.51236 0.17151 0.50266 0.0
C1093 C 0.50663 0.1518 0.52503 0.0
C1094 C 0.48523 0.13087 0.5208 0.0
H1095 H 0.14298 0.15151 0.68899 0.0
H1096 H 0.15612 0.22284 0.63155 0.0
H1097 H 0.14251 0.25638 0.66982 0.0
H1098 H 0.08059 0.18726 0.72915 0.0
H1099 H 0.09124 0.17227 0.76288 0.0
H1100 H 0.09682 0.15232 0.73037 0.0
H1101 H 0.15045 0.14727 0.74066 0.0
H1102 H 0.14641 0.1664 0.77373 0.0
H1103 H 0.1717 0.17867 0.74735 0.0
H1104 H 0.14042 0.28199 0.71726 0.0
H1105 H 0.13663 0.29783 0.76783 0.0
H1106 H 0.12052 0.21037 0.79378 0.0
C1107 C 0.14088 0.174 0.68395 0.0
C1108 C 0.14987 0.18457 0.65711 0.0
C1109 C 0.14842 0.21432 0.65171 0.0
C1110 C 0.14119 0.23359 0.6735 0.0
C1111 C 0.13467 0.22272 0.70045 0.0
C1112 C 0.13312 0.19357 0.70544 0.0
C1113 C 0.12688 0.18762 0.73673 0.0
C1114 C 0.09714 0.17403 0.73997 0.0
C1115 C 0.15025 0.16889 0.75041 0.0
C1116 C 0.12733 0.2177 0.74878 0.0
C1117 C 0.1319 0.2377 0.72754 0.0
C1118 C 0.13592 0.26661 0.73397 0.0
C1119 C 0.13418 0.2754 0.76272 0.0
C1120 C 0.12816 0.25537 0.78455 0.0
C1121 C 0.12483 0.22619 0.77739 0.0
H1122 H 0.10197 0.92778 0.94856 0.0
H1123 H 0.0631 0.87975 0.87948 0.0
H1124 H 0.0305 0.85657 0.91454 0.0
H1125 H 0.09477 0.87234 1.00529 0.0
H1126 H 0.08742 0.89905 0.03202 0.0
H1127 H 0.1103 0.90745 1.00215 0.0
H1128 H 0.0777 0.95068 0.99006 0.0
H1129 H 0.05423 0.94193 0.01927 0.0
H1130 H 0.04015 0.94487 0.98349 0.0
H1131 H 0.99963 0.84169 0.95775 0.0
H1132 H 0.97532 0.83504 1.00456 0.0
H1133 H 0.0324 0.89677 0.04312 0.0
C1134 C 0.08713 0.91179 0.94081 0.0
C1135 C 0.08514 0.90543 0.91129 0.0
C1136 C 0.06531 0.88456 0.90204 0.0
C1137 C 0.04657 0.87153 0.92179 0.0
C1138 C 0.04814 0.87957 0.95059 0.0
C1139 C 0.0683 0.89894 0.96004 0.0
C1140 C 0.06467 0.90568 0.99152 0.0
C1141 C 0.09083 0.89552 0.00875 0.0
C1142 C 0.05884 0.93768 0.99634 0.0
C1143 C 0.03861 0.88788 0.99828 0.0
C1144 C 0.02964 0.87249 0.97464 0.0
C1145 C 1.00644 0.85381 0.97624 0.0
C1146 C 0.99259 0.85037 1.00275 0.0
C1147 C 1.00145 0.86616 0.027 0.0
C1148 C 0.02456 0.8853 0.02459 0.0
H1149 H 0.30938 0.8282 0.18514 0.0
H1150 H 0.3892 0.85624 0.14691 0.0
H1151 H 0.4158 0.83282 0.18656 0.0
H1152 H 0.32811 0.83963 0.25703 0.0
H1153 H 0.30958 0.80861 0.27041 0.0
H1154 H 0.29733 0.82596 0.2383 0.0
H1155 H 0.30143 0.7782 0.21056 0.0
H1156 H 0.3135 0.76072 0.24272 0.0
H1157 H 0.33488 0.75903 0.21068 0.0
H1158 H 0.43299 0.80926 0.23258 0.0
H1159 H 0.44 0.78646 0.27957 0.0
H1160 H 0.34848 0.7728 0.28697 0.0
C1161 C 0.33252 0.82941 0.1849 0.0
C1162 C 0.34723 0.84435 0.16293 0.0
C1163 C 0.37748 0.84498 0.16341 0.0
C1164 C 0.39269 0.83175 0.18588 0.0
C1165 C 0.37734 0.81766 0.20741 0.0
C1166 C 0.3479 0.8162 0.20687 0.0
C1167 C 0.33623 0.80037 0.23274 0.0
C1168 C 0.31667 0.81981 0.25067 0.0
C1169 C 0.32059 0.77295 0.22361 0.0
C1170 C 0.36372 0.79354 0.24847 0.0
C1171 C 0.38718 0.80366 0.23345 0.0
C1172 C 0.41477 0.80108 0.24429 0.0
C1173 C 0.41849 0.78815 0.27114 0.0
C1174 C 0.39479 0.77776 0.28709 0.0
C1175 C 0.36706 0.78022 0.27528 0.0
H1176 H 0.97148 0.39361 0.47042 0.0
H1177 H 0.01422 0.31585 0.49733 0.0
H1178 H 0.99083 0.31947 0.54481 0.0
H1179 H 0.97741 0.43029 0.53597 0.0
H1180 H 0.94297 0.44732 0.53291 0.0
H1181 H 0.96227 0.43733 0.5012 0.0
H1182 H 0.91858 0.40844 0.4848 0.0
H1183 H 0.89908 0.41721 0.51669 0.0
H1184 H 0.90423 0.38029 0.50689 0.0
H1185 H 0.96559 0.33516 0.59165 0.0
H1186 H 0.94187 0.36166 0.63139 0.0
H1187 H 0.91283 0.42532 0.57087 0.0
C1188 C 0.97589 0.37726 0.48622 0.0
C1189 C 0.99479 0.35454 0.48023 0.0
C1190 C 0.99979 0.33348 0.50149 0.0
C1191 C 0.98653 0.3353 0.52848 0.0
C1192 C 0.96788 0.35799 0.53366 0.0
C1193 C 0.96248 0.37844 0.51293 0.0
C1194 C 0.94252 0.4013 0.52388 0.0
C1195 C 0.95717 0.43078 0.52349 0.0
C1196 C 0.91437 0.40178 0.50708 0.0
C1197 C 0.93767 0.39081 0.55396 0.0
C1198 C 0.95245 0.36589 0.55958 0.0
C1199 C 0.95331 0.35425 0.5872 0.0
C1200 C 0.93953 0.36914 0.60958 0.0
C1201 C 0.92489 0.39494 0.60385 0.0
C1202 C 0.92312 0.40509 0.57556 0.0
H1203 H 0.85809 0.65313 0.83454 0.0
H1204 H 0.84432 0.72718 0.88815 0.0
H1205 H 0.85978 0.75875 0.84871 0.0
H1206 H 0.92066 0.68265 0.79173 0.0
H1207 H 0.90766 0.66605 0.75946 0.0
H1208 H 0.90135 0.64935 0.79364 0.0
H1209 H 0.84665 0.64888 0.78318 0.0
H1210 H 0.85327 0.66546 0.74908 0.0
H1211 H 0.82902 0.68186 0.77416 0.0
H1212 H 0.86601 0.78231 0.8007 0.0
H1213 H 0.87264 0.79598 0.74982 0.0
H1214 H 0.88451 0.70689 0.72762 0.0
C1215 C 0.86027 0.67583 0.83849 0.0
C1216 C 0.85108 0.68774 0.86467 0.0
C1217 C 0.85232 0.7177 0.86857 0.0
C1218 C 0.86066 0.73579 0.84613 0.0
C1219 C 0.86781 0.72356 0.81991 0.0
C1220 C 0.86852 0.69421 0.81618 0.0
C1221 C 0.87439 0.68665 0.78517 0.0
C1222 C 0.90271 0.67021 0.78234 0.0
C1223 C 0.84936 0.66971 0.77214 0.0
C1224 C 0.87644 0.71623 0.77206 0.0
C1225 C 0.87216 0.73725 0.79234 0.0
C1226 C 0.87018 0.76608 0.78476 0.0
C1227 C 0.8736 0.77366 0.75583 0.0
C1228 C 0.8793 0.75253 0.73501 0.0
C1229 C 0.8806 0.72349 0.74328 0.0
H1230 H 0.56626 0.56941 0.08836 0.0
H1231 H 0.59906 0.64868 0.12338 0.0
H1232 H 0.57304 0.6755 0.08523 0.0
H1233 H 0.57647 0.58648 0.01736 0.0
H1234 H 0.54507 0.56801 1.00483 0.0
H1235 H 0.56268 0.55625 0.03693 0.0
H1236 H 0.51533 0.5615 0.06541 0.0
H1237 H 0.49743 0.57295 0.03326 0.0
H1238 H 0.49644 0.59507 0.06479 0.0
H1239 H 0.54621 0.69237 0.03954 0.0
H1240 H 0.52244 0.69774 0.99252 0.0
H1241 H 0.51021 0.60597 0.98833 0.0
C1242 C 0.56784 0.5925 0.08842 0.0
C1243 C 0.58491 0.607 0.10874 0.0
C1244 C 0.58603 0.63719 0.10809 0.0
C1245 C 0.57138 0.65247 0.08646 0.0
C1246 C 0.55563 0.63714 0.06606 0.0
C1247 C 0.55373 0.60775 0.0672 0.0
C1248 C 0.53752 0.59555 0.04204 0.0
C1249 C 0.55658 0.5754 0.02425 0.0
C1250 C 0.51005 0.58038 0.05198 0.0
C1251 C 0.53084 0.62262 0.02591 0.0
C1252 C 0.54105 0.6465 0.04011 0.0
C1253 C 0.538 0.67378 0.0285 0.0
C1254 C 0.52446 0.6766 1.00175 0.0
C1255 C 0.5145 0.65223 0.98668 0.0
C1256 C 0.51758 0.62501 0.99922 0.0
H1257 H 0.68947 0.30006 0.34573 0.0
H1258 H 0.61539 0.3495 0.37087 0.0
H1259 H 0.58657 0.32435 0.33379 0.0
H1260 H 0.6803 0.30691 0.27505 0.0
H1261 H 0.69306 0.27192 0.26518 0.0
H1262 H 0.7054 0.28826 0.29764 0.0
H1263 H 0.68836 0.24452 0.32687 0.0
H1264 H 0.67613 0.22769 0.29445 0.0
H1265 H 0.6518 0.23267 0.32396 0.0
H1266 H 0.5685 0.29837 0.28843 0.0
H1267 H 0.56325 0.27578 0.24079 0.0
H1268 H 0.65104 0.24633 0.24519 0.0
C1269 C 0.66687 0.30481 0.34432 0.0
C1270 C 0.6545 0.32638 0.36146 0.0
C1271 C 0.62507 0.33255 0.35843 0.0
C1272 C 0.60868 0.31846 0.33728 0.0
C1273 C 0.62211 0.29822 0.31969 0.0
C1274 C 0.65059 0.29124 0.3234 0.0
C1275 C 0.66145 0.27179 0.29992 0.0
C1276 C 0.68651 0.28556 0.28349 0.0
C1277 C 0.66992 0.24243 0.31203 0.0
C1278 C 0.63503 0.26969 0.2815 0.0
C1279 C 0.61229 0.28444 0.29344 0.0
C1280 C 0.5861 0.2865 0.27923 0.0
C1281 C 0.58332 0.27358 0.25215 0.0
C1282 C 0.60678 0.25931 0.23924 0.0
C1283 C 0.63272 0.25705 0.25447 0.0
H1284 H 0.53237 0.50377 0.10265 0.0
H1285 H 0.51282 0.51029 0.19312 0.0
H1286 H 0.46675 0.48591 0.18515 0.0
H1287 H 0.45738 0.51188 0.07615 0.0
H1288 H 0.46273 0.48599 0.04815 0.0
H1289 H 0.49225 0.50755 0.06027 0.0
H1290 H 0.52145 0.46159 0.07064 0.0
H1291 H 0.49198 0.43988 0.05888 0.0
H1292 H 0.50679 0.43474 0.09411 0.0
H1293 H 0.42443 0.45658 0.16806 0.0
H1294 H 0.38932 0.426 0.1426 0.0
H1295 H 0.43751 0.43772 0.064 0.0
C1296 C 0.51797 0.50088 0.12058 0.0
C1297 C 0.52611 0.50914 0.14847 0.0
C1298 C 0.50698 0.50422 0.17153 0.0
C1299 C 0.48073 0.49039 0.16724 0.0
C1300 C 0.47375 0.48151 0.13971 0.0
C1301 C 0.4917 0.48679 0.1167 0.0
C1302 C 0.48015 0.47313 0.08971 0.0
C1303 C 0.47269 0.496 0.06725 0.0
C1304 C 0.50135 0.45103 0.07764 0.0
C1305 C 0.45344 0.45884 0.1013 0.0
C1306 C 0.44984 0.46413 0.13009 0.0
C1307 C 0.42693 0.45245 0.14542 0.0
C1308 C 0.40714 0.43501 0.13086 0.0
C1309 C 0.41064 0.42913 0.10137 0.0
C1310 C 0.43415 0.44144 0.08661 0.0
H1311 H 0.03523 0.0504 0.85695 0.0
H1312 H 1.00498 0.96448 0.87314 0.0
H1313 H 0.95542 0.98306 0.87868 0.0
H1314 H 0.9897 0.08313 0.91109 0.0
H1315 H 0.98756 0.11552 0.89028 0.0
H1316 H 0.01825 0.09255 0.88722 0.0
H1317 H 0.00756 0.09194 0.8312 0.0
H1318 H 0.97574 0.11294 0.83685 0.0
H1319 H 0.97344 0.07875 0.81928 0.0
H1320 H 0.90912 0.01213 0.88414 0.0
H1321 H 0.87369 0.04863 0.89878 0.0
H1322 H 0.93518 0.11525 0.88086 0.0
C1323 C 0.01807 0.03551 0.86151 0.0
C1324 C 0.02371 1.00601 0.86441 0.0
C1325 C 1.00098 0.98717 0.8709 0.0
C1326 C 0.97278 0.99753 0.87375 0.0
C1327 C 0.9678 0.02682 0.87035 0.0
C1328 C 0.99005 0.04556 0.86508 0.0
C1329 C 0.9799 0.07629 0.86567 0.0
C1330 C 0.99471 0.09287 0.88997 0.0
C1331 C 0.98445 0.09084 0.83653 0.0
C1332 C 0.9484 0.07212 0.87188 0.0
C1333 C 0.9416 0.04343 0.87405 0.0
C1334 C 0.91418 0.0346 0.88203 0.0
C1335 C 0.89392 0.05551 0.88978 0.0
C1336 C 0.90136 0.08483 0.89001 0.0
C1337 C 0.92849 0.09312 0.87961 0.0
H1338 H 0.17195 0.6954 0.18808 0.0
H1339 H 0.1892 0.63647 0.11875 0.0
H1340 H 0.21455 0.67535 0.09252 0.0
H1341 H 0.16372 0.76105 0.14545 0.0
H1342 H 0.18127 0.7823 0.17236 0.0
H1343 H 0.16115 0.7511 0.18262 0.0
H1344 H 0.20594 0.73138 0.20876 0.0
H1345 H 0.22646 0.76206 0.19795 0.0
H1346 H 0.23879 0.72667 0.1891 0.0
H1347 H 0.24129 0.72066 0.07625 0.0
H1348 H 0.26475 0.76765 0.07014 0.0
H1349 H 0.23261 0.79461 0.15283 0.0
C1350 C 0.18042 0.69081 0.16699 0.0
C1351 C 0.17844 0.66303 0.15522 0.0
C1352 C 0.19002 0.65773 0.12782 0.0
C1353 C 0.20467 0.67964 0.11301 0.0
C1354 C 0.20744 0.70646 0.12606 0.0
C1355 C 0.1953 0.71206 0.15238 0.0
C1356 C 0.20271 0.7417 0.16306 0.0
C1357 C 0.17561 0.76013 0.16604 0.0
C1358 C 0.21947 0.74035 0.19138 0.0
C1359 C 0.22143 0.75208 0.13885 0.0
C1360 C 0.22368 0.73164 0.11753 0.0
C1361 C 0.23959 0.73669 0.09284 0.0
C1362 C 0.25295 0.76339 0.08964 0.0
C1363 C 0.2508 0.78462 0.1112 0.0
C1364 C 0.23512 0.77863 0.13627 0.0
H1365 H 0.49341 0.02754 0.39881 0.0
H1366 H 0.4815 0.98822 0.31587 0.0
H1367 H 0.52443 0.95806 0.32395 0.0
H1368 H 0.57261 0.02843 0.39631 0.0
H1369 H 0.57526 0.02144 0.43415 0.0
H1370 H 0.54511 0.04099 0.42026 0.0
H1371 H 0.51067 1.00454 0.44393 0.0
H1372 H 0.54063 0.98478 0.45767 0.0
H1373 H 0.51434 0.96708 0.43576 0.0
H1374 H 0.56631 0.92764 0.34507 0.0
H1375 H 0.60355 0.90404 0.37509 0.0
H1376 H 0.58865 0.96753 0.44116 0.0
C1377 C 0.50032 0.0131 0.38206 0.0
C1378 C 0.48447 0.0104 0.35664 0.0
C1379 C 0.4938 0.99099 0.33531 0.0
C1380 C 0.51803 0.97364 0.3398 0.0
C1381 C 0.53304 0.97647 0.36545 0.0
C1382 C 0.52474 0.99625 0.3859 0.0
C1383 C 0.54369 0.99495 0.41195 0.0
C1384 C 0.56015 0.02313 0.41588 0.0
C1385 C 0.52629 0.98737 0.4389 0.0
C1386 C 0.56348 0.97088 0.40345 0.0
C1387 C 0.55722 0.96018 0.3767 0.0
C1388 C 0.5717 0.93628 0.36584 0.0
C1389 C 0.59285 0.92299 0.38297 0.0
C1390 C 0.59925 0.93375 0.41055 0.0
C1391 C 0.58461 0.95845 0.42024 0.0
H1392 H 0.35728 0.31604 0.67647 0.0
H1393 H 0.31784 0.38555 0.62949 0.0
H1394 H 0.28605 0.35061 0.60511 0.0
H1395 H 0.35131 0.25972 0.62096 0.0
H1396 H 0.34356 0.23314 0.6478 0.0
H1397 H 0.36618 0.26308 0.65638 0.0
H1398 H 0.33265 0.27501 0.69903 0.0
H1399 H 0.30959 0.2457 0.6899 0.0
H1400 H 0.29519 0.28134 0.69242 0.0
H1401 H 0.25499 0.30708 0.58989 0.0
H1402 H 0.22947 0.26075 0.585 0.0
H1403 H 0.28822 0.2224 0.64566 0.0
C1404 C 0.34254 0.32397 0.66044 0.0
C1405 C 0.34016 0.35353 0.65474 0.0
C1406 C 0.32038 0.36295 0.63382 0.0
C1407 C 0.30211 0.34324 0.62007 0.0
C1408 C 0.30406 0.31431 0.62747 0.0
C1409 C 0.32412 0.30482 0.647 0.0
C1410 C 0.32055 0.27343 0.65367 0.0
C1411 C 0.34698 0.25635 0.64411 0.0
C1412 C 0.31411 0.26862 0.68564 0.0
C1413 C 0.29489 0.2666 0.63537 0.0
C1414 C 0.28579 0.29016 0.61998 0.0
C1415 C 0.26212 0.28856 0.6018 0.0
C1416 C 0.24767 0.26223 0.59924 0.0
C1417 C 0.25661 0.23807 0.61522 0.0
C1418 C 0.28052 0.24053 0.63346 0.0
H1419 H 0.98057 0.53967 0.64155 0.0
H1420 H 0.01922 0.45743 0.65825 0.0
H1421 H 0.06747 0.47857 0.65021 0.0
H1422 H 0.02334 0.56235 0.58638 0.0
H1423 H 0.02427 0.59915 0.5978 0.0
H1424 H 0.99473 0.57672 0.60779 0.0
H1425 H 1.00494 0.58777 0.66277 0.0
H1426 H 0.03299 0.61115 0.65025 0.0
H1427 H 0.04077 0.58322 0.67566 0.0
H1428 H 0.11132 0.50899 0.63468 0.0
H1429 H 0.14437 0.54382 0.61183 0.0
H1430 H 0.07572 0.60567 0.60739 0.0
C1431 C 0.99924 0.52623 0.64377 0.0
C1432 C 0.99633 0.49698 0.65016 0.0
C1433 C 0.02115 0.47995 0.65328 0.0
C1434 C 0.04856 0.49184 0.64888 0.0
C1435 C 0.05069 0.52093 0.64223 0.0
C1436 C 0.02655 0.53789 0.64015 0.0
C1437 C 0.03399 0.56816 0.63173 0.0
C1438 C 0.01818 0.57713 0.60427 0.0
C1439 C 0.0278 0.58884 0.65653 0.0
C1440 C 0.0658 0.56526 0.62699 0.0
C1441 C 0.07543 0.53818 0.634 0.0
C1442 C 0.10401 0.53037 0.62971 0.0
C1443 C 0.12275 0.55034 0.617 0.0
C1444 C 0.11265 0.57755 0.60844 0.0
C1445 C 0.08409 0.58522 0.61437 0.0
H1446 H 0.70356 0.71709 0.88352 0.0
H1447 H 0.77498 0.75047 0.93201 0.0
H1448 H 0.75494 0.79947 0.92775 0.0
H1449 H 0.69589 0.77352 0.83478 0.0
H1450 H 0.65736 0.77235 0.83447 0.0
H1451 H 0.67742 0.7406 0.84255 0.0
H1452 H 0.64964 0.73565 0.89038 0.0
H1453 H 0.62991 0.76779 0.88248 0.0
H1454 H 0.64967 0.76488 0.91547 0.0
H1455 H 0.72902 0.84604 0.91233 0.0
H1456 H 0.69999 0.88361 0.88824 0.0
H1457 H 0.64283 0.81806 0.85651 0.0
C1458 C 0.7149 0.73475 0.89328 0.0
C1459 C 0.74095 0.7302 0.90775 0.0
C1460 C 0.755 0.75367 0.92071 0.0
C1461 C 0.74372 0.7815 0.91848 0.0
C1462 C 0.71787 0.78536 0.90402 0.0
C1463 C 0.70347 0.76242 0.89207 0.0
C1464 C 0.67627 0.77194 0.87745 0.0
C1465 C 0.67679 0.76416 0.84543 0.0
C1466 C 0.64981 0.75932 0.89235 0.0
C1467 C 0.6781 0.80391 0.88197 0.0
C1468 C 0.70216 0.81151 0.89731 0.0
C1469 C 0.70972 0.84027 0.90095 0.0
C1470 C 0.69296 0.86157 0.88752 0.0
C1471 C 0.66894 0.85385 0.87084 0.0
C1472 C 0.66083 0.82474 0.86949 0.0
H1473 H 0.80303 0.27888 0.39776 0.0
H1474 H 0.71634 0.25812 0.3725 0.0
H1475 H 0.73114 0.20783 0.36397 0.0
H1476 H 0.83643 0.23748 0.34381 0.0
H1477 H 0.86647 0.22781 0.36596 0.0
H1478 H 0.84776 0.26074 0.37236 0.0
H1479 H 0.83946 0.24519 0.42501 0.0
H1480 H 0.85749 0.21179 0.41842 0.0
H1481 H 0.82155 0.21188 0.43239 0.0
H1482 H 0.75642 0.1599 0.35713 0.0
H1483 H 0.79077 0.12201 0.34349 0.0
H1484 H 0.86097 0.17545 0.37099 0.0
C1485 C 0.78707 0.26367 0.39071 0.0
C1486 C 0.75845 0.27222 0.38605 0.0
C1487 C 0.73836 0.25193 0.37613 0.0
C1488 C 0.74654 0.2233 0.37159 0.0
C1489 C 0.77494 0.21548 0.37683 0.0
C1490 C 0.79498 0.23532 0.38558 0.0
C1491 C 0.82471 0.22251 0.38679 0.0
C1492 C 0.84502 0.23804 0.36599 0.0
C1493 C 0.83649 0.22287 0.41749 0.0
C1494 C 0.81848 0.19232 0.37705 0.0
C1495 C 0.78955 0.1884 0.37208 0.0
C1496 C 0.779 0.16265 0.36137 0.0
C1497 C 0.79861 0.14103 0.35412 0.0
C1498 C 0.82838 0.14546 0.35724 0.0
C1499 C 0.83826 0.17107 0.36966 0.0
H1500 H 0.08487 0.54188 0.28457 0.0
H1501 H 0.10595 0.50329 0.20306 0.0
H1502 H 0.09375 0.45555 0.22291 0.0
H1503 H 0.11593 0.49022 0.32715 0.0
H1504 H 0.08944 0.4915 0.35514 0.0
H1505 H 0.09581 0.5225 0.3333 0.0
H1506 H 0.04227 0.52433 0.31917 0.0
H1507 H 0.03559 0.4936 0.34143 0.0
H1508 H 0.02552 0.49303 0.30421 0.0
H1509 H 0.08445 0.41035 0.25528 0.0
H1510 H 0.0755 0.37504 0.2941 0.0
H1511 H 0.06101 0.44485 0.35333 0.0
C1512 C 0.086 0.52354 0.2705 0.0
C1513 C 0.09597 0.52659 0.24201 0.0
C1514 C 0.09771 0.50179 0.22467 0.0
C1515 C 0.09113 0.47446 0.23595 0.0
C1516 C 0.08257 0.47217 0.2646 0.0
C1517 C 0.07954 0.49631 0.28139 0.0
C1518 C 0.07159 0.48855 0.31187 0.0
C1519 C 0.09456 0.4988 0.3331 0.0
C1520 C 0.04198 0.50059 0.31962 0.0
C1521 C 0.071 0.45623 0.30998 0.0
C1522 C 0.07734 0.44692 0.28266 0.0
C1523 C 0.07913 0.41763 0.2766 0.0
C1524 C 0.07412 0.39763 0.29885 0.0
C1525 C 0.06737 0.40687 0.32696 0.0
C1526 C 0.06584 0.43671 0.33219 0.0
H1527 H 0.85427 0.85207 0.57498 0.0
H1528 H 0.84833 0.76029 0.56457 0.0
H1529 H 0.81087 0.76678 0.52786 0.0
H1530 H 0.78113 0.86474 0.57167 0.0
H1531 H 0.78361 0.89821 0.55273 0.0
H1532 H 0.81281 0.88645 0.57482 0.0
H1533 H 0.84733 0.89059 0.53163 0.0
H1534 H 0.81815 0.90241 0.50937 0.0
H1535 H 0.83922 0.87188 0.49893 0.0
H1536 H 0.76897 0.78359 0.4955 0.0
H1537 H 0.72796 0.80917 0.47292 0.0
H1538 H 0.76211 0.88929 0.50427 0.0
C1539 C 0.84587 0.83339 0.56422 0.0
C1540 C 0.8548 0.80566 0.57248 0.0
C1541 C 0.84224 0.78179 0.55851 0.0
C1542 C 0.82083 0.78526 0.53755 0.0
C1543 C 0.81188 0.81281 0.53048 0.0
C1544 C 0.82422 0.83648 0.54334 0.0
C1545 C 0.80914 0.86363 0.53398 0.0
C1546 C 0.79589 0.87915 0.55983 0.0
C1547 C 0.82969 0.88329 0.51749 0.0
C1548 C 0.78619 0.85159 0.51436 0.0
C1549 C 0.78807 0.82227 0.51226 0.0
C1550 C 0.76767 0.80664 0.49668 0.0
C1551 C 0.74449 0.8213 0.48365 0.0
C1552 C 0.74179 0.85128 0.48646 0.0
C1553 C 0.76355 0.86636 0.5014 0.0
H1554 H 0.41486 0.47359 0.77887 0.0
H1555 H 0.41353 0.51862 0.69807 0.0
H1556 H 0.42879 0.56305 0.72266 0.0
H1557 H 0.38493 0.52738 0.8192 0.0
H1558 H 0.40579 0.52149 0.85109 0.0
H1559 H 0.39933 0.49244 0.82675 0.0
H1560 H 0.45375 0.48377 0.82156 0.0
H1561 H 0.46043 0.51241 0.84642 0.0
H1562 H 0.47679 0.51299 0.8115 0.0
H1563 H 0.43781 0.60451 0.75804 0.0
H1564 H 0.44466 0.6371 0.79934 0.0
H1565 H 0.44062 0.56445 0.85686 0.0
C1566 C 0.4193 0.49244 0.76616 0.0
C1567 C 0.41429 0.49227 0.73626 0.0
C1568 C 0.41852 0.51789 0.72069 0.0
C1569 C 0.42679 0.54335 0.73463 0.0
C1570 C 0.43067 0.54301 0.76431 0.0
C1571 C 0.42757 0.51798 0.77979 0.0
C1572 C 0.43109 0.52352 0.81164 0.0
C1573 C 0.40366 0.51574 0.82813 0.0
C1574 C 0.45707 0.50721 0.82348 0.0
C1575 C 0.43622 0.55558 0.81183 0.0
C1576 C 0.43581 0.56656 0.78438 0.0
C1577 C 0.43859 0.59595 0.77954 0.0
C1578 C 0.4423 0.6144 0.80319 0.0
C1579 C 0.44342 0.60354 0.8315 0.0
C1580 C 0.44026 0.57362 0.83558 0.0
H1581 H 0.66707 0.15472 0.08609 0.0
H1582 H 0.66719 0.2462 0.07306 0.0
H1583 H 0.70771 0.2414 0.03897 0.0
H1584 H 0.74216 0.14626 0.08628 0.0
H1585 H 0.74197 0.11226 0.06821 0.0
H1586 H 0.7116 0.12297 0.08932 0.0
H1587 H 0.67837 0.11594 0.04551 0.0
H1588 H 0.70866 0.105 0.02434 0.0
H1589 H 0.6864 0.13414 0.01245 0.0
H1590 H 0.75155 0.22562 1.00711 0.0
H1591 H 0.79157 0.20083 0.98204 0.0
H1592 H 0.762 0.12034 0.01746 0.0
C1593 C 0.67508 0.17362 0.07536 0.0
C1594 C 0.66326 0.20077 0.08152 0.0
C1595 C 0.67528 0.22511 0.06801 0.0
C1596 C 0.69849 0.22256 0.04873 0.0
C1597 C 0.70989 0.19547 0.04323 0.0
C1598 C 0.69835 0.17143 0.05618 0.0
C1599 C 0.7151 0.1449 0.04795 0.0
C1600 C 0.72849 0.13078 0.07452 0.0
C1601 C 0.696 0.12375 0.03159 0.0
C1602 C 0.73791 0.1576 0.02854 0.0
C1603 C 0.73474 0.18677 0.02583 0.0
C1604 C 0.75397 0.20271 0.00909 0.0
C1605 C 0.77675 0.18847 0.99484 0.0
C1606 C 0.78035 0.15849 0.99741 0.0
C1607 C 0.76032 0.14324 0.01463 0.0
H1608 H 0.6021 0.97399 0.73459 0.0
H1609 H 0.58606 0.00969 0.81841 0.0
H1610 H 0.56765 0.05413 0.79559 0.0
H1611 H 0.62783 0.03572 0.70275 0.0
H1612 H 0.61188 0.02976 0.66819 0.0
H1613 H 0.62046 0.99983 0.69082 0.0
H1614 H 0.5682 0.98221 0.6884 0.0
H1615 H 0.55964 0.01165 0.66507 0.0
H1616 H 0.53949 1.00629 0.69754 0.0
H1617 H 0.5569 0.09792 0.76196 0.0
H1618 H 0.54982 0.13277 0.72239 0.0
H1619 H 0.57131 0.06677 0.66104 0.0
C1620 C 0.5936 0.9907 0.74818 0.0
C1621 C 0.59473 0.98788 0.7784 0.0
C1622 C 0.58448 0.01081 0.79532 0.0
C1623 C 0.57435 0.03633 0.78242 0.0
C1624 C 0.57437 0.03867 0.75249 0.0
C1625 C 0.58323 0.01605 0.73565 0.0
C1626 C 0.58242 0.02394 0.70409 0.0
C1627 C 0.61245 0.0222 0.6907 0.0
C1628 C 0.56116 1.0049 0.68782 0.0
C1629 C 0.57201 0.05468 0.70556 0.0
C1630 C 0.56769 0.06305 0.7336 0.0
C1631 C 0.55979 0.09124 0.73999 0.0
C1632 C 0.55592 0.11103 0.71733 0.0
C1633 C 0.55958 0.10269 0.68839 0.0
C1634 C 0.56775 0.07397 0.68276 0.0
H1635 H 0.28927 0.32909 1.00242 0.0
H1636 H 0.24064 0.35082 0.07804 0.0
H1637 H 0.19591 0.33756 0.05319 0.0
H1638 H 0.24335 0.35835 0.95408 0.0
H1639 H 0.24686 0.33178 0.9264 0.0
H1640 H 0.27561 0.33743 0.95132 0.0
H1641 H 0.27483 0.28422 0.96607 0.0
H1642 H 0.24667 0.27797 0.9405 0.0
H1643 H 0.24171 0.2681 0.97746 0.0
H1644 H 0.15563 0.33092 0.01668 0.0
H1645 H 0.12423 0.32335 0.97446 0.0
H1646 H 0.19873 0.30346 0.92308 0.0
C1647 C 0.2694 0.32919 0.01435 0.0
C1648 C 0.26872 0.33973 0.04279 0.0
C1649 C 0.24193 0.34154 0.05685 0.0
C1650 C 0.21629 0.33451 0.04264 0.0
C1651 C 0.21757 0.32558 0.01417 0.0
C1652 C 0.24355 0.32213 1.0004 0.0
C1653 C 0.23896 0.31413 0.96916 0.0
C1654 C 0.25196 0.33677 0.94907 0.0
C1655 C 0.25127 0.28433 0.96294 0.0
C1656 C 0.20645 0.3141 0.96739 0.0
C1657 C 0.19445 0.32107 0.99348 0.0
C1658 C 0.16485 0.32473 0.99637 0.0
C1659 C 0.14712 0.32058 0.97224 0.0
C1660 C 0.15887 0.31233 0.94559 0.0
C1661 C 0.18899 0.30912 0.94333 0.0
H1662 H 0.88768 0.98493 0.27778 0.0
H1663 H 0.96137 0.04093 0.27596 0.0
H1664 H 0.98822 1.00395 0.24857 0.0
H1665 H 0.92579 0.91533 0.28068 0.0
H1666 H 0.89988 0.89886 0.2574 0.0
H1667 H 0.88916 0.92738 0.28098 0.0
H1668 H 0.86931 0.95553 0.23759 0.0
H1669 H 0.88023 0.92737 0.21386 0.0
H1670 H 0.89259 0.96335 0.20784 0.0
H1671 H 1.0045 0.96179 0.21533 0.0
H1672 H 0.00827 0.92123 0.18157 0.0
H1673 H 0.92233 0.8948 0.2042 0.0
C1674 C 0.90985 0.98917 0.27254 0.0
C1675 C 0.92251 0.01585 0.2796 0.0
C1676 C 0.95136 0.02053 0.27163 0.0
C1677 C 0.96664 0.99965 0.25574 0.0
C1678 C 0.95286 0.97411 0.24804 0.0
C1679 C 0.92508 0.96887 0.25656 0.0
C1680 C 0.91368 0.94138 0.24359 0.0
C1681 C 0.90672 0.91944 0.26706 0.0
C1682 C 0.88741 0.94728 0.2246 0.0
C1683 C 0.93911 0.93191 0.22583 0.0
C1684 C 0.9617 0.95079 0.22882 0.0
C1685 C 0.98695 0.94687 0.21326 0.0
C1686 C 0.98892 0.9236 0.19407 0.0
C1687 C 0.96571 0.90438 0.19012 0.0
C1688 C 0.94069 0.90865 0.20675 0.0
H1689 H 0.22483 0.67145 0.48147 0.0
H1690 H 0.25939 0.67719 0.56708 0.0
H1691 H 0.30486 0.69623 0.54714 0.0
H1692 H 0.28535 0.64563 0.44916 0.0
H1693 H 0.2814 0.66468 0.41585 0.0
H1694 H 0.25035 0.6563 0.43697 0.0
H1695 H 0.23606 0.70958 0.43861 0.0
H1696 H 0.26667 0.71813 0.4168 0.0
H1697 H 0.26161 0.73576 0.45072 0.0
H1698 H 0.34962 0.7081 0.51603 0.0
H1699 H 0.38609 0.71669 0.47814 0.0
H1700 H 0.32149 0.70344 0.41322 0.0
C1701 C 0.24144 0.67814 0.49616 0.0
C1702 C 0.23804 0.67386 0.52603 0.0
C1703 C 0.26092 0.68143 0.54435 0.0
C1704 C 0.28704 0.69182 0.53305 0.0
C1705 C 0.29005 0.6946 0.50333 0.0
C1706 C 0.26749 0.68851 0.48522 0.0
C1707 C 0.27637 0.6914 0.45404 0.0
C1708 C 0.27318 0.6628 0.43809 0.0
C1709 C 0.25916 0.71514 0.43917 0.0
C1710 C 0.30764 0.69964 0.45722 0.0
C1711 C 0.31529 0.70132 0.48577 0.0
C1712 C 0.34358 0.70721 0.4937 0.0
C1713 C 0.36426 0.71189 0.47207 0.0
C1714 C 0.35665 0.71079 0.44278 0.0
C1715 C 0.32791 0.70458 0.43546 0.0
H1716 H 0.27893 0.09312 0.54106 0.0
H1717 H 0.1954 0.09869 0.5016 0.0
H1718 H 0.21654 0.08288 0.45537 0.0
H1719 H 0.31668 0.12263 0.48547 0.0
H1720 H 0.34808 0.1006 0.48914 0.0
H1721 H 0.32584 0.1075 0.51976 0.0
H1722 H 0.31903 0.05332 0.52825 0.0
H1723 H 0.34199 0.04609 0.49814 0.0
H1724 H 0.30654 0.03099 0.49943 0.0
H1725 H 0.24982 0.07293 0.41103 0.0
H1726 H 0.28937 0.06563 0.3762 0.0
H1727 H 0.35027 0.06674 0.44611 0.0
C1728 C 0.26478 0.08982 0.52301 0.0
C1729 C 0.23525 0.09651 0.52529 0.0
C1730 C 0.21779 0.09284 0.50079 0.0
C1731 C 0.22981 0.08425 0.47428 0.0
C1732 C 0.25935 0.07919 0.47255 0.0
C1733 C 0.27641 0.08135 0.49661 0.0
C1734 C 0.30772 0.07674 0.48928 0.0
C1735 C 0.32561 0.10345 0.49634 0.0
C1736 C 0.31951 0.0502 0.50469 0.0
C1737 C 0.30593 0.07196 0.45723 0.0
C1738 C 0.27796 0.07348 0.44775 0.0
C1739 C 0.27166 0.07127 0.41851 0.0
C1740 C 0.29433 0.06722 0.39877 0.0
C1741 C 0.32312 0.06525 0.40816 0.0
C1742 C 0.32862 0.06763 0.43795 0.0
H1743 H 0.16706 0.02376 0.79113 0.0
H1744 H 0.16743 0.94288 0.7465 0.0
H1745 H 0.18497 0.96718 0.70267 0.0
H1746 H 0.13927 0.06326 0.73563 0.0
H1747 H 0.15953 0.09535 0.74202 0.0
H1748 H 0.15199 0.07134 0.77113 0.0
H1749 H 0.20587 0.06668 0.78238 0.0
H1750 H 0.2137 0.09137 0.75382 0.0
H1751 H 0.23042 0.05665 0.75436 0.0
H1752 H 0.19585 1.00228 0.66133 0.0
H1753 H 0.20328 0.04338 0.62856 0.0
H1754 H 0.19599 0.10128 0.70057 0.0
C1755 C 0.17231 0.01094 0.77258 0.0
C1756 C 0.16712 0.98109 0.77271 0.0
C1757 C 0.17252 0.96544 0.74737 0.0
C1758 C 0.1821 0.97923 0.72221 0.0
C1759 C 0.18606 0.00886 0.72253 0.0
C1760 C 0.18178 0.02444 0.74731 0.0
C1761 C 0.18529 0.05626 0.74164 0.0
C1762 C 0.15736 0.07249 0.74799 0.0
C1763 C 0.21032 0.06845 0.75908 0.0
C1764 C 0.19196 0.0563 0.70977 0.0
C1765 C 0.19221 0.0288 0.69902 0.0
C1766 C 0.19617 0.02381 0.66975 0.0
C1767 C 0.20027 0.04734 0.65118 0.0
C1768 C 0.20063 0.07571 0.66179 0.0
C1769 C 0.19642 0.07994 0.69162 0.0
H1770 H 0.19692 0.91969 0.9009 0.0
H1771 H 0.17954 0.00771 0.924 0.0
H1772 H 0.21422 1.00401 0.9638 0.0
H1773 H 0.20162 0.89339 0.97152 0.0
H1774 H 0.22971 0.86817 0.96385 0.0
H1775 H 0.20531 0.87876 0.93604 0.0
H1776 H 0.24804 0.89455 0.90439 0.0
H1777 H 0.27257 0.88399 0.93218 0.0
H1778 H 0.27353 0.9199 0.91825 0.0
H1779 H 0.24916 0.98848 1.00503 0.0
H1780 H 0.2795 0.96304 0.04075 0.0
H1781 H 0.27438 0.88651 0.98872 0.0
C1782 C 0.20079 0.93845 0.91386 0.0
C1783 C 0.18541 0.9641 0.90884 0.0
C1784 C 0.191 0.98782 0.927 0.0
C1785 C 0.21074 0.98591 0.94984 0.0
C1786 C 0.2251 0.96014 0.95451 0.0
C1787 C 0.22042 0.93691 0.93677 0.0
C1788 C 0.2374 0.91119 0.94687 0.0
C1789 C 0.21731 0.88643 0.95505 0.0
C1790 C 0.25918 0.90187 0.92406 0.0
C1791 C 0.25225 0.92337 0.97307 0.0
C1792 C 0.24503 0.95161 0.97739 0.0
C1793 C 0.25518 0.96644 1.00146 0.0
C1794 C 0.27263 0.9519 0.02166 0.0
C1795 C 0.27989 0.92275 0.01774 0.0
C1796 C 0.26977 0.90884 0.99262 0.0
H1797 H 0.34185 0.94933 0.15225 0.0
H1798 H 0.25001 0.9481 0.16481 0.0
H1799 H 0.25535 0.98203 0.2053 0.0
H1800 H 0.35953 0.94788 0.22513 0.0
H1801 H 0.39067 0.97024 0.2214 0.0
H1802 H 0.37883 0.94883 0.19175 0.0
H1803 H 0.37598 0.99413 0.15997 0.0
H1804 H 0.38776 0.01573 0.18961 0.0
H1805 H 0.35474 0.02412 0.17157 0.0
H1806 H 0.27242 0.01512 0.24788 0.0
H1807 H 0.29896 0.03934 0.2873 0.0
H1808 H 0.37889 0.01663 0.24648 0.0
C1809 C 0.32265 0.95664 0.16295 0.0
C1810 C 0.29537 0.94618 0.15471 0.0
C1811 C 0.27112 0.95591 0.17022 0.0
C1812 C 0.27399 0.97526 0.19337 0.0
C1813 C 0.30132 0.98476 0.20114 0.0
C1814 C 0.32519 0.97556 0.18624 0.0
C1815 C 0.35243 0.98676 0.19983 0.0
C1816 C 0.37147 0.96196 0.21014 0.0
C1817 C 0.36868 1.00635 0.179 0.0
C1818 C 0.34042 1.00359 0.22485 0.0
C1819 C 0.31089 1.00263 0.22531 0.0
C1820 C 0.29554 0.01609 0.24737 0.0
C1821 C 0.31074 0.03008 0.26964 0.0
C1822 C 0.34103 0.03031 0.26991 0.0
C1823 C 0.35573 0.01722 0.2468 0.0
H1824 H 0.749 0.37568 0.51793 0.0
H1825 H 0.74416 0.45285 0.46685 0.0
H1826 H 0.77046 0.47901 0.50505 0.0
H1827 H 0.74291 0.40918 0.58933 0.0
H1828 H 0.76803 0.38442 0.6049 0.0
H1829 H 0.74583 0.3734 0.57538 0.0
H1830 H 0.791 0.35881 0.54684 0.0
H1831 H 0.81332 0.36986 0.57614 0.0
H1832 H 0.8189 0.38475 0.541 0.0
H1833 H 0.80386 0.49455 0.5468 0.0
H1834 H 0.83791 0.49836 0.58725 0.0
H1835 H 0.81973 0.41097 0.61126 0.0
C1836 C 0.75274 0.39833 0.51494 0.0
C1837 C 0.7441 0.41222 0.48924 0.0
C1838 C 0.74991 0.44177 0.48636 0.0
C1839 C 0.7651 0.45671 0.50797 0.0
C1840 C 0.77412 0.44195 0.53256 0.0
C1841 C 0.76773 0.4134 0.53617 0.0
C1842 C 0.78123 0.40159 0.56337 0.0
C1843 C 0.75812 0.39156 0.5845 0.0
C1844 C 0.80236 0.37733 0.55641 0.0
C1845 C 0.79676 0.42777 0.57459 0.0
C1846 C 0.79243 0.45091 0.55656 0.0
C1847 C 0.80667 0.47671 0.56127 0.0
C1848 C 0.82592 0.47876 0.58446 0.0
C1849 C 0.83072 0.45537 0.60318 0.0
C1850 C 0.81558 0.42965 0.59822 0.0
H1851 H 0.85605 0.5353 0.72543 0.0
H1852 H 0.84593 0.4501 0.76026 0.0
H1853 H 0.82771 0.47113 0.80564 0.0
H1854 H 0.88239 0.56656 0.78746 0.0
H1855 H 0.86499 0.60054 0.78285 0.0
H1856 H 0.87378 0.57924 0.75206 0.0
H1857 H 0.82122 0.57926 0.73516 0.0
H1858 H 0.81206 0.60169 0.76509 0.0
H1859 H 0.79338 0.56845 0.75957 0.0
H1860 H 0.81562 0.50346 0.85011 0.0
H1861 H 0.80579 0.54214 0.88526 0.0
H1862 H 0.82312 0.6053 0.81967 0.0
C1863 C 0.84924 0.52091 0.74227 0.0
C1864 C 0.85215 0.49088 0.73896 0.0
C1865 C 0.84339 0.47304 0.76187 0.0
C1866 C 0.83332 0.48491 0.7879 0.0
C1867 C 0.83183 0.51471 0.79074 0.0
C1868 C 0.8391 0.53236 0.76815 0.0
C1869 C 0.83685 0.56363 0.77649 0.0
C1870 C 0.86623 0.57835 0.77459 0.0
C1871 C 0.81454 0.57916 0.75798 0.0
C1872 C 0.827 0.56111 0.80732 0.0
C1873 C 0.82452 0.5328 0.81546 0.0
C1874 C 0.81714 0.52561 0.84362 0.0
C1875 C 0.81175 0.54774 0.86358 0.0
C1876 C 0.81333 0.57688 0.85534 0.0
C1877 C 0.82121 0.58333 0.82673 0.0
H1878 H 0.6639 0.5408 0.07426 0.0
H1879 H 0.72107 0.56561 0.14266 0.0
H1880 H 0.75925 0.57543 0.10703 0.0
H1881 H 0.71699 0.50965 0.02465 0.0
H1882 H 0.69995 0.52484 0.99357 0.0
H1883 H 0.67891 0.51568 0.02457 0.0
H1884 H 0.65942 0.5674 0.02674 0.0
H1885 H 0.68038 0.57675 0.99584 0.0
H1886 H 0.6842 0.59684 0.02848 0.0
H1887 H 0.79068 0.58544 0.06255 0.0
H1888 H 0.80908 0.60046 0.01507 0.0
H1889 H 0.73005 0.57219 0.97597 0.0
C1890 C 0.68477 0.54741 0.08179 0.0
C1891 C 0.68978 0.55153 0.11142 0.0
C1892 C 0.71693 0.56168 0.12021 0.0
C1893 C 0.73876 0.56728 0.10005 0.0
C1894 C 0.73307 0.56324 0.07094 0.0
C1895 C 0.70651 0.55386 0.06187 0.0
C1896 C 0.7045 0.55455 0.02941 0.0
C1897 C 0.69981 0.52438 0.01734 0.0
C1898 C 0.68072 0.5751 0.01955 0.0
C1899 C 0.73395 0.56586 0.02152 0.0
C1900 C 0.7504 0.57027 0.04567 0.0
C1901 C 0.77798 0.58176 0.04356 0.0
C1902 C 0.7885 0.58993 0.01637 0.0
C1903 C 0.77137 0.58704 0.99153 0.0
C1904 C 0.74402 0.57412 0.99435 0.0
H1905 H 0.66534 0.44163 0.36148 0.0
H1906 H 0.7557 0.4349 0.34168 0.0
H1907 H 0.75019 0.47091 0.30353 0.0
H1908 H 0.64185 0.4467 0.29056 0.0
H1909 H 0.61355 0.47191 0.29755 0.0
H1910 H 0.62524 0.44802 0.32536 0.0
H1911 H 0.63523 0.4912 0.35856 0.0
H1912 H 0.62345 0.51522 0.3308 0.0
H1913 H 0.65843 0.51947 0.3464 0.0
H1914 H 0.73336 0.50479 0.26296 0.0
H1915 H 0.70676 0.53303 0.22642 0.0
H1916 H 0.62844 0.51845 0.2741 0.0
C1917 C 0.68414 0.44835 0.34974 0.0
C1918 C 0.71101 0.43537 0.355 0.0
C1919 C 0.73484 0.44443 0.33836 0.0
C1920 C 0.73195 0.46497 0.31649 0.0
C1921 C 0.70506 0.47672 0.31126 0.0
C1922 C 0.68163 0.4689 0.32768 0.0
C1923 C 0.65476 0.48342 0.31669 0.0
C1924 C 0.63255 0.46119 0.30696 0.0
C1925 C 0.64223 0.50352 0.33947 0.0
C1926 C 0.6666 0.50014 0.2914 0.0
C1927 C 0.69566 0.49619 0.28847 0.0
C1928 C 0.71062 0.50834 0.26541 0.0
C1929 C 0.6954 0.52452 0.24472 0.0
C1930 C 0.66547 0.52844 0.24717 0.0
C1931 C 0.65134 0.51634 0.27133 0.0
H1932 H 0.54172 0.28641 0.08454 0.0
H1933 H 0.50544 0.20195 0.09565 0.0
H1934 H 0.45848 0.22024 0.07903 0.0
H1935 H 0.48379 0.32516 0.11013 0.0
H1936 H 0.48674 0.35428 0.08505 0.0
H1937 H 0.51796 0.33389 0.09453 0.0
H1938 H 0.52722 0.32247 0.04119 0.0
H1939 H 0.49616 0.34313 0.03144 0.0
H1940 H 0.49925 0.30647 0.02004 0.0
H1941 H 0.41321 0.25036 0.06786 0.0
H1942 H 0.37633 0.28746 0.0584 0.0
H1943 H 0.44271 0.3515 0.05176 0.0
C1944 C 0.52415 0.27146 0.08262 0.0
C1945 C 0.52764 0.24247 0.09112 0.0
C1946 C 0.50374 0.22397 0.08875 0.0
C1947 C 0.47681 0.23434 0.07957 0.0
C1948 C 0.47396 0.26326 0.07233 0.0
C1949 C 0.49726 0.2814 0.0732 0.0
C1950 C 0.48856 0.31179 0.0654 0.0
C1951 C 0.49462 0.33249 0.09026 0.0
C1952 C 0.5037 0.32154 0.03787 0.0
C1953 C 0.45659 0.30822 0.06057 0.0
C1954 C 0.44846 0.2801 0.06481 0.0
C1955 C 0.41959 0.27222 0.06381 0.0
C1956 C 0.39871 0.29342 0.05838 0.0
C1957 C 0.40662 0.3222 0.05341 0.0
C1958 C 0.43604 0.3295 0.05443 0.0
H1959 H 0.04528 0.23422 0.93114 0.0
H1960 H 1.00165 0.31463 0.91801 0.0
H1961 H 0.95609 0.29239 0.93366 0.0
H1962 H 0.99299 0.19102 0.90378 0.0
H1963 H 0.99719 0.16192 0.9287 0.0
H1964 H 0.02692 0.18509 0.9211 0.0
H1965 H 0.03232 0.19677 0.97496 0.0
H1966 H 1.00293 0.17313 0.98285 0.0
H1967 H 1.00188 0.20973 0.99478 0.0
H1968 H 0.9135 0.25819 0.94224 0.0
H1969 H 0.87989 0.21772 0.9497 0.0
H1970 H 0.95187 0.16042 0.96027 0.0
C1971 C 0.02645 0.24756 0.93319 0.0
C1972 C 0.02737 0.2766 0.92457 0.0
C1973 C 1.00183 0.29282 0.92578 0.0
C1974 C 0.97571 0.28014 0.93423 0.0
C1975 C 0.97537 0.25115 0.94159 0.0
C1976 C 1.00033 0.23526 0.94184 0.0
C1977 C 0.99415 0.20412 0.94886 0.0
C1978 C 1.00336 0.1844 0.92414 0.0
C1979 C 0.00868 0.19543 0.97705 0.0
C1980 C 0.9618 0.20473 0.95201 0.0
C1981 C 0.95123 0.23195 0.94746 0.0
C1982 C 0.92171 0.23702 0.94661 0.0
C1983 C 0.90271 0.21388 0.95078 0.0
C1984 C 0.91313 0.186 0.95633 0.0
C1985 C 0.94315 0.18162 0.95703 0.0
H1986 H 0.02132 0.78919 0.17013 0.0
H1987 H 0.94136 0.74301 0.16645 0.0
H1988 H 0.96616 0.69889 0.18233 0.0
H1989 H 0.0628 0.73627 0.14063 0.0
H1990 H 0.09424 0.74239 0.16207 0.0
H1991 H 0.0696 0.77117 0.15541 0.0
H1992 H 0.06342 0.77927 0.20985 0.0
H1993 H 0.08858 0.75088 0.21667 0.0
H1994 H 0.05344 0.74971 0.23252 0.0
H1995 H 1.0019 0.65783 0.19215 0.0
H1996 H 0.04364 0.62574 0.19935 0.0
H1997 H 0.09994 0.69933 0.19637 0.0
C1998 C 0.00878 0.77017 0.17428 0.0
C1999 C 0.97907 0.76992 0.16842 0.0
C2000 C 0.96379 0.74407 0.17215 0.0
C2001 C 0.97786 0.71878 0.18076 0.0
C2002 C 0.0074 0.71951 0.1854 0.0
C2003 C 0.02257 0.74477 0.18275 0.0
C2004 C 0.05441 0.73962 0.18671 0.0
C2005 C 0.07123 0.74785 0.1596 0.0
C2006 C 0.06562 0.75583 0.21301 0.0
C2007 C 0.05492 0.70753 0.1916 0.0
C2008 C 0.02768 0.69618 0.19074 0.0
C2009 C 0.02325 0.66668 0.19329 0.0
C2010 C 0.04712 0.64852 0.19721 0.0
C2011 C 0.07521 0.6598 0.19869 0.0
C2012 C 0.07884 0.6898 0.19576 0.0
H2013 H 0.52507 0.73711 0.38743 0.0
H2014 H 0.46749 0.74066 0.45998 0.0
H2015 H 0.50413 0.7679 0.48714 0.0
H2016 H 0.59422 0.73401 0.42832 0.0
H2017 H 0.6118 0.7565 0.40239 0.0
H2018 H 0.58352 0.73279 0.39128 0.0
H2019 H 0.55636 0.77568 0.36921 0.0
H2020 H 0.58426 0.79955 0.38048 0.0
H2021 H 0.54785 0.80604 0.39136 0.0
H2022 H 0.5438 0.80223 0.5027 0.0
H2023 H 0.58272 0.83779 0.50623 0.0
H2024 H 0.61478 0.81157 0.42339 0.0
C2025 C 0.52052 0.74261 0.40947 0.0
C2026 C 0.49342 0.73627 0.42172 0.0
C2027 C 0.48821 0.74453 0.45036 0.0
C2028 C 0.50889 0.76027 0.46582 0.0
C2029 C 0.53483 0.76732 0.45247 0.0
C2030 C 0.54081 0.75828 0.42502 0.0
C2031 C 0.56884 0.77083 0.41424 0.0
C2032 C 0.5909 0.74711 0.40874 0.0
C2033 C 0.56402 0.7891 0.38724 0.0
C2034 C 0.57751 0.78919 0.43953 0.0
C2035 C 0.55771 0.78672 0.46148 0.0
C2036 C 0.55968 0.80369 0.48591 0.0
C2037 C 0.58193 0.82387 0.48774 0.0
C2038 C 0.60228 0.82703 0.46543 0.0
C2039 C 0.60026 0.80897 0.44125 0.0
H2040 H 0.50665 0.26491 0.62986 0.0
H2041 H 0.53339 0.22573 0.70948 0.0
H2042 H 0.50882 0.26472 0.73636 0.0
H2043 H 0.51363 0.33935 0.65222 0.0
H2044 H 0.48271 0.35024 0.63194 0.0
H2045 H 0.5041 0.32054 0.61996 0.0
H2046 H 0.45902 0.28831 0.61955 0.0
H2047 H 0.43754 0.31784 0.6316 0.0
H2048 H 0.43787 0.28493 0.65163 0.0
H2049 H 0.47548 0.30685 0.75397 0.0
H2050 H 0.44141 0.34716 0.7599 0.0
H2051 H 0.43939 0.35851 0.6679 0.0
C2052 C 0.5078 0.26462 0.65301 0.0
C2053 C 0.52208 0.2421 0.66752 0.0
C2054 C 0.52294 0.24278 0.69781 0.0
C2055 C 0.50884 0.26483 0.71321 0.0
C2056 C 0.49429 0.2863 0.69803 0.0
C2057 C 0.49418 0.28639 0.66848 0.0
C2058 C 0.47658 0.31097 0.65669 0.0
C2059 C 0.49538 0.33149 0.63917 0.0
C2060 C 0.45127 0.29984 0.63882 0.0
C2061 C 0.46635 0.32486 0.68411 0.0
C2062 C 0.47652 0.31039 0.70787 0.0
C2063 C 0.46797 0.31846 0.73541 0.0
C2064 C 0.44857 0.3415 0.73861 0.0
C2065 C 0.438 0.35663 0.71447 0.0
C2066 C 0.44751 0.34813 0.68696 0.0
H2067 H 0.96948 0.72871 0.5933 0.0
H2068 H 0.00972 0.81128 0.60327 0.0
H2069 H 0.05605 0.79047 0.5877 0.0
H2070 H 0.02506 0.68792 0.62055 0.0
H2071 H 0.02077 0.65834 0.59625 0.0
H2072 H 0.99067 0.68077 0.60474 0.0
H2073 H 0.98284 0.69086 0.55084 0.0
H2074 H 0.01295 0.66838 0.54231 0.0
H2075 H 0.01195 0.70478 0.52969 0.0
H2076 H 0.10004 0.75784 0.5782 0.0
H2077 H 0.13499 0.71896 0.56827 0.0
H2078 H 0.06521 0.65856 0.56157 0.0
C2079 C 0.98773 0.74273 0.59075 0.0
C2080 C 0.98563 0.77198 0.5984 0.0
C2081 C 0.01044 0.78921 0.59635 0.0
C2082 C 0.03699 0.77737 0.58795 0.0
C2083 C 0.03851 0.74819 0.58148 0.0
C2084 C 0.01426 0.73129 0.5821 0.0
C2085 C 0.02157 0.70033 0.57539 0.0
C2086 C 0.01409 0.68068 0.60074 0.0
C2087 C 1.00644 0.69052 0.54791 0.0
C2088 C 0.05375 0.70226 0.57114 0.0
C2089 C 0.0633 0.72993 0.57515 0.0
C2090 C 0.09258 0.73629 0.57443 0.0
C2091 C 0.11237 0.71405 0.56896 0.0
C2092 C 0.10289 0.68581 0.56372 0.0
C2093 C 0.07312 0.68005 0.56492 0.0
H2094 H 0.52305 0.72187 0.82713 0.0
H2095 H 0.4486 0.76183 0.86501 0.0
H2096 H 0.46872 0.80956 0.8537 0.0
H2097 H 0.57308 0.76853 0.85388 0.0
H2098 H 0.59594 0.7689 0.82285 0.0
H2099 H 0.57393 0.73824 0.83009 0.0
H2100 H 0.55062 0.74239 0.77996 0.0
H2101 H 0.57301 0.77278 0.77229 0.0
H2102 H 0.53471 0.77577 0.76908 0.0
H2103 H 0.50208 0.85332 0.84555 0.0
H2104 H 0.54132 0.88769 0.83499 0.0
H2105 H 0.59196 0.81851 0.8 0.0
C2106 C 0.51037 0.74065 0.83191 0.0
C2107 C 0.48388 0.73799 0.84641 0.0
C2108 C 0.46845 0.76318 0.85313 0.0
C2109 C 0.47998 0.79045 0.84712 0.0
C2110 C 0.5068 0.79228 0.83396 0.0
C2111 C 0.52141 0.7679 0.82579 0.0
C2112 C 0.55044 0.77525 0.81327 0.0
C2113 C 0.57476 0.76194 0.83109 0.0
C2114 C 0.55229 0.766 0.78177 0.0
C2115 C 0.55023 0.80753 0.81603 0.0
C2116 C 0.52509 0.81711 0.82828 0.0
C2117 C 0.52148 0.846 0.83525 0.0
C2118 C 0.5439 0.86542 0.82929 0.0
C2119 C 0.56945 0.85602 0.81599 0.0
C2120 C 0.57236 0.82664 0.8093 0.0
H2121 H 0.91833 0.18952 0.29482 0.0
H2122 H 0.96707 0.12066 0.33308 0.0
H2123 H 1.00653 0.15471 0.34355 0.0
H2124 H 0.97708 0.23008 0.26381 0.0
H2125 H 0.96154 0.26411 0.27301 0.0
H2126 H 0.93877 0.23383 0.26613 0.0
H2127 H 0.91485 0.23994 0.31579 0.0
H2128 H 0.9372 0.27046 0.32258 0.0
H2129 H 0.93691 0.24095 0.34738 0.0
H2130 H 0.04068 0.19814 0.35086 0.0
H2131 H 0.0616 0.24582 0.36083 0.0
H2132 H 0.98872 0.28593 0.32018 0.0
C2133 C 0.93752 0.18141 0.30495 0.0
C2134 C 0.93977 0.15215 0.31258 0.0
C2135 C 0.96489 0.14282 0.32674 0.0
C2136 C 0.98749 0.16206 0.33264 0.0
C2137 C 0.98457 0.19078 0.32468 0.0
C2138 C 0.95988 0.2004 0.31154 0.0
C2139 C 0.96049 0.23261 0.30763 0.0
C2140 C 0.95941 0.24062 0.27574 0.0
C2141 C 0.93592 0.24682 0.32434 0.0
C2142 C 0.98939 0.23984 0.32054 0.0
C2143 C 1.0033 0.21546 0.32985 0.0
C2144 C 0.02995 0.21723 0.34339 0.0
C2145 C 0.04198 0.24447 0.34859 0.0
C2146 C 0.02725 0.26976 0.34069 0.0
C2147 C 1.00095 0.26709 0.32581 0.0
H2148 H 0.12471 0.28976 0.43979 0.0
H2149 H 0.04095 0.25012 0.44668 0.0
H2150 H 0.06043 0.21486 0.48046 0.0
H2151 H 0.16572 0.2235 0.44324 0.0
H2152 H 0.19417 0.23883 0.46422 0.0
H2153 H 0.17398 0.26098 0.43999 0.0
H2154 H 0.16153 0.29525 0.48166 0.0
H2155 H 0.18162 0.27317 0.50603 0.0
H2156 H 0.14463 0.28122 0.51337 0.0
H2157 H 0.0878 0.18511 0.51489 0.0
H2158 H 0.12218 0.16114 0.5467 0.0
H2159 H 0.18925 0.21832 0.51739 0.0
C2160 C 0.11051 0.27355 0.44826 0.0
C2161 C 0.08122 0.27281 0.44041 0.0
C2162 C 0.06343 0.25123 0.45215 0.0
C2163 C 0.07429 0.23105 0.47145 0.0
C2164 C 0.10308 0.23247 0.47883 0.0
C2165 C 0.12107 0.253 0.46754 0.0
C2166 C 0.15119 0.24964 0.47935 0.0
C2167 C 0.17252 0.24283 0.45526 0.0
C2168 C 0.16027 0.27641 0.4961 0.0
C2169 C 0.14718 0.22417 0.49915 0.0
C2170 C 0.11918 0.21476 0.49851 0.0
C2171 C 0.10984 0.19215 0.51545 0.0
C2172 C 0.12958 0.17871 0.53355 0.0
C2173 C 0.15852 0.1877 0.53456 0.0
C2174 C 0.16738 0.21073 0.51694 0.0
H2175 H 0.03994 0.93853 0.76481 0.0
H2176 H 0.0853 0.87229 0.81132 0.0
H2177 H 0.05692 0.83543 0.78639 0.0
H2178 H 0.97059 0.904 0.76271 0.0
H2179 H 0.96262 0.91539 0.72674 0.0
H2180 H 0.98556 0.93679 0.74908 0.0
H2181 H 0.02528 0.93467 0.7105 0.0
H2182 H 1.00248 0.91326 0.68805 0.0
H2183 H 0.03751 0.90043 0.69777 0.0
H2184 H 0.02301 0.80585 0.75763 0.0
H2185 H 0.98831 0.78487 0.72404 0.0
H2186 H 0.96678 0.8696 0.69291 0.0
C2187 C 0.04372 0.91626 0.76985 0.0
C2188 C 0.06474 0.90824 0.79015 0.0
C2189 C 0.06939 0.87889 0.79583 0.0
C2190 C 0.05329 0.85781 0.78184 0.0
C2191 C 0.03287 0.86637 0.76187 0.0
C2192 C 0.02821 0.89484 0.75558 0.0
C2193 C 1.00577 0.89805 0.73225 0.0
C2194 C 0.97958 0.91453 0.74337 0.0
C2195 C 0.01853 0.91245 0.70556 0.0
C2196 C 0.99851 0.86693 0.7265 0.0
C2197 C 0.01419 0.84911 0.74414 0.0
C2198 C 0.01075 0.81957 0.74358 0.0
C2199 C 0.99089 0.80786 0.72445 0.0
C2200 C 0.9749 0.82554 0.70569 0.0
C2201 C 0.9789 0.85551 0.70674 0.0
H2202 H 0.39016 0.71534 0.95331 0.0
H2203 H 0.46978 0.76258 0.94586 0.0
H2204 H 0.45116 0.79907 0.97885 0.0
H2205 H 0.34367 0.77682 0.95595 0.0
H2206 H 0.31957 0.76126 0.98172 0.0
H2207 H 0.33917 0.7386 0.95753 0.0
H2208 H 0.3598 0.71051 1.00064 0.0
H2209 H 0.34038 0.73321 0.02496 0.0
H2210 H 0.3786 0.72949 0.02841 0.0
H2211 H 0.42401 0.83091 0.01239 0.0
H2212 H 0.38957 0.85634 0.04328 0.0
H2213 H 0.32761 0.78859 0.0297 0.0
C2214 C 0.40365 0.7334 0.95852 0.0
C2215 C 0.43148 0.73598 0.94684 0.0
C2216 C 0.44842 0.75997 0.95442 0.0
C2217 C 0.43805 0.78088 0.97323 0.0
C2218 C 0.41067 0.77761 0.98447 0.0
C2219 C 0.39365 0.75453 0.9774 0.0
C2220 C 0.36491 0.75633 0.99243 0.0
C2221 C 0.34039 0.75838 0.9706 0.0
C2222 C 0.36069 0.73087 0.01282 0.0
C2223 C 0.36845 0.78407 0.00887 0.0
C2224 C 0.39504 0.79594 1.00401 0.0
C2225 C 0.40313 0.82179 0.01641 0.0
C2226 C 0.3834 0.83608 0.03397 0.0
C2227 C 0.35584 0.82456 0.03903 0.0
C2228 C 0.34853 0.79798 0.02647 0.0
H2229 H 0.54097 0.1377 0.18914 0.0
H2230 H 0.50015 0.22112 0.19186 0.0
H2231 H 0.4623 0.20173 0.22255 0.0
H2232 H 0.4743 0.09605 0.18798 0.0
H2233 H 0.48814 0.06808 0.21062 0.0
H2234 H 0.512 0.08794 0.18775 0.0
H2235 H 0.54298 0.10129 0.23164 0.0
H2236 H 0.51921 0.08152 0.25464 0.0
H2237 H 0.52649 0.11863 0.26188 0.0
H2238 H 0.43027 0.17497 0.25505 0.0
H2239 H 0.40462 0.1414 0.28643 0.0
H2240 H 0.46391 0.07401 0.26272 0.0
C2241 C 0.52391 0.15179 0.19595 0.0
C2242 C 0.52373 0.18105 0.18787 0.0
C2243 C 0.501 0.1987 0.19754 0.0
C2244 C 0.47926 0.18788 0.21507 0.0
C2245 C 0.4802 0.15921 0.22283 0.0
C2246 C 0.50174 0.14126 0.21353 0.0
C2247 C 0.49759 0.11133 0.22568 0.0
C2248 C 0.49271 0.08956 0.20157 0.0
C2249 C 0.52309 0.10269 0.24458 0.0
C2250 C 0.4706 0.11552 0.24344 0.0
C2251 C 0.46107 0.14338 0.24141 0.0
C2252 C 0.43734 0.15301 0.25662 0.0
C2253 C 0.42294 0.13375 0.27449 0.0
C2254 C 0.43205 0.10497 0.27699 0.0
C2255 C 0.45614 0.09574 0.26099 0.0
H2256 H 0.57438 0.25698 0.5551 0.0
H2257 H 0.64122 0.20621 0.59511 0.0
H2258 H 0.67732 0.23069 0.5659 0.0
H2259 H 0.60442 0.25778 0.48482 0.0
H2260 H 0.59471 0.29423 0.47697 0.0
H2261 H 0.57356 0.27358 0.50169 0.0
H2262 H 0.58068 0.31226 0.5406 0.0
H2263 H 0.60175 0.33311 0.51595 0.0
H2264 H 0.6164 0.32311 0.55019 0.0
H2265 H 0.70607 0.25773 0.53081 0.0
H2266 H 0.72672 0.28868 0.4937 0.0
H2267 H 0.64275 0.32457 0.47662 0.0
C2268 C 0.59664 0.25123 0.55793 0.0
C2269 C 0.6048 0.22959 0.57761 0.0
C2270 C 0.63423 0.22272 0.58045 0.0
C2271 C 0.655 0.23648 0.56384 0.0
C2272 C 0.64625 0.25736 0.54453 0.0
C2273 C 0.61788 0.26503 0.54161 0.0
C2274 C 0.61456 0.28822 0.51898 0.0
C2275 C 0.59569 0.27782 0.49414 0.0
C2276 C 0.60264 0.31582 0.53223 0.0
C2277 C 0.64547 0.29204 0.5095 0.0
C2278 C 0.66323 0.27381 0.52452 0.0
C2279 C 0.69244 0.2723 0.51907 0.0
C2280 C 0.70395 0.28993 0.49779 0.0
C2281 C 0.68643 0.30918 0.48221 0.0
C2282 C 0.65674 0.31031 0.48833 0.0
H2283 H 0.96196 0.43959 0.75826 0.0
H2284 H 0.92666 0.37089 0.7066 0.0
H2285 H 0.95519 0.33607 0.73334 0.0
H2286 H 0.03294 0.41098 0.76366 0.0
H2287 H 0.03844 0.42142 0.80036 0.0
H2288 H 0.01459 0.44173 0.77791 0.0
H2289 H 0.97365 0.43447 0.8145 0.0
H2290 H 0.99741 0.41422 0.83713 0.0
H2291 H 0.9641 0.39877 0.82544 0.0
H2292 H 0.98876 0.30859 0.76288 0.0
H2293 H 0.02419 0.28904 0.79627 0.0
H2294 H 0.038 0.37377 0.83158 0.0
C2295 C 0.96005 0.4172 0.75278 0.0
C2296 C 0.94185 0.40818 0.7302 0.0
C2297 C 0.9402 0.37859 0.72374 0.0
C2298 C 0.95642 0.3585 0.73881 0.0
C2299 C 0.97423 0.36804 0.76059 0.0
C2300 C 0.97608 0.39657 0.76788 0.0
C2301 C 0.99726 0.40067 0.79231 0.0
C2302 C 0.02229 0.41984 0.783 0.0
C2303 C 0.9822 0.41275 0.81893 0.0
C2304 C 1.00709 0.37002 0.79726 0.0
C2305 C 0.99349 0.35173 0.7785 0.0
C2306 C 0.99941 0.32262 0.77786 0.0
C2307 C 0.01973 0.31174 0.79692 0.0
C2308 C 0.03392 0.32977 0.81672 0.0
C2309 C 0.02734 0.35938 0.81693 0.0
H2310 H 0.9293 0.77635 0.03513 0.0
H2311 H 0.87101 0.78824 0.10653 0.0
H2312 H 0.83659 0.75545 0.08377 0.0
H2313 H 0.87495 0.77222 0.9796 0.0
H2314 H 0.89373 0.74518 0.95958 0.0
H2315 H 0.91344 0.77039 0.98098 0.0
H2316 H 0.93776 0.72854 0.00793 0.0
H2317 H 0.91798 0.7032 0.98676 0.0
H2318 H 0.91591 0.70192 0.02525 0.0
H2319 H 0.80891 0.72066 0.05402 0.0
H2320 H 0.78914 0.68701 0.01874 0.0
H2321 H 0.8654 0.69686 0.96653 0.0
C2322 C 0.9092 0.77229 0.04589 0.0
C2323 C 0.90291 0.78497 0.0727 0.0
C2324 C 0.87639 0.77885 0.08605 0.0
C2325 C 0.85668 0.76021 0.07329 0.0
C2326 C 0.86373 0.74778 0.04714 0.0
C2327 C 0.88927 0.75361 0.0335 0.0
C2328 C 0.89171 0.73702 1.00569 0.0
C2329 C 0.89356 0.75742 0.97994 0.0
C2330 C 0.91736 0.71645 1.00647 0.0
C2331 C 0.8636 0.72084 1.00592 0.0
C2332 C 0.8478 0.72745 0.03002 0.0
C2333 C 0.82107 0.71536 0.03505 0.0
C2334 C 0.81004 0.6962 0.01483 0.0
C2335 C 0.82569 0.68913 0.98981 0.0
C2336 C 0.85295 0.7016 0.98549 0.0
H2337 H 0.46829 0.64278 0.32424 0.0
H2338 H 0.49163 0.72724 0.29345 0.0
H2339 H 0.5254 0.70581 0.2595 0.0
H2340 H 0.53826 0.61099 0.31887 0.0
H2341 H 0.52562 0.57694 0.30608 0.0
H2342 H 0.50303 0.59862 0.32852 0.0
H2343 H 0.46323 0.59725 0.29003 0.0
H2344 H 0.4857 0.57556 0.26746 0.0
H2345 H 0.47122 0.60866 0.25405 0.0
H2346 H 0.55843 0.67635 0.23071 0.0
H2347 H 0.58672 0.63949 0.20574 0.0
H2348 H 0.54065 0.57322 0.25154 0.0
C2349 C 0.48053 0.65667 0.31032 0.0
C2350 C 0.47726 0.68672 0.31161 0.0
C2351 C 0.49353 0.70418 0.29285 0.0
C2352 C 0.51291 0.69223 0.27349 0.0
C2353 C 0.51565 0.66268 0.27269 0.0
C2354 C 0.49976 0.645 0.29029 0.0
C2355 C 0.50666 0.61382 0.28432 0.0
C2356 C 0.51914 0.59924 0.31104 0.0
C2357 C 0.48012 0.59789 0.27331 0.0
C2358 C 0.5291 0.61694 0.26096 0.0
C2359 C 0.53404 0.64538 0.25485 0.0
C2360 C 0.5546 0.65396 0.23506 0.0
C2361 C 0.57061 0.63291 0.22105 0.0
C2362 C 0.56573 0.60359 0.22656 0.0
C2363 C 0.54452 0.59551 0.24664 0.0
H2364 H 0.27459 0.47645 0.07805 0.0
H2365 H 0.29578 0.41424 0.14376 0.0
H2366 H 0.26529 0.4401 0.17804 0.0
H2367 H 0.27258 0.5387 0.12521 0.0
H2368 H 0.24277 0.55493 0.10693 0.0
H2369 H 0.26716 0.53223 0.08758 0.0
H2370 H 0.22472 0.50068 0.07127 0.0
H2371 H 0.20022 0.52315 0.09072 0.0
H2372 H 0.20128 0.48529 0.09776 0.0
H2373 H 0.23164 0.47117 0.20482 0.0
H2374 H 0.19779 0.50666 0.22343 0.0
H2375 H 0.19739 0.54968 0.14097 0.0
C2376 C 0.27306 0.46842 0.09973 0.0
C2377 C 0.28767 0.44319 0.10814 0.0
C2378 C 0.28485 0.43339 0.1367 0.0
C2379 C 0.26755 0.44795 0.15638 0.0
C2380 C 0.25313 0.47238 0.1473 0.0
C2381 C 0.25575 0.4827 0.11974 0.0
C2382 C 0.23741 0.50925 0.11556 0.0
C2383 C 0.2561 0.53532 0.1084 0.0
C2384 C 0.21455 0.50428 0.09246 0.0
C2385 C 0.22397 0.51206 0.14505 0.0
C2386 C 0.23345 0.49051 0.16292 0.0
C2387 C 0.22413 0.48821 0.19108 0.0
C2388 C 0.20478 0.50856 0.20142 0.0
C2389 C 0.19473 0.53111 0.18374 0.0
C2390 C 0.2045 0.53273 0.15506 0.0
H2391 H 0.77188 0.03586 0.94723 0.0
H2392 H 0.80142 0.09274 0.88002 0.0
H2393 H 0.77219 0.06665 0.84489 0.0
H2394 H 0.76895 0.97139 0.90502 0.0
H2395 H 0.73643 0.95835 0.9211 0.0
H2396 H 0.76012 0.98099 0.94131 0.0
H2397 H 0.71848 0.01626 0.95075 0.0
H2398 H 0.69466 0.99373 0.93056 0.0
H2399 H 0.69882 0.03079 0.92091 0.0
H2400 H 0.74211 0.03384 0.81666 0.0
H2401 H 0.70938 0.99772 0.79686 0.0
H2402 H 0.69531 0.96337 0.88198 0.0
C2403 C 0.77216 0.04271 0.9251 0.0
C2404 C 0.78895 0.06632 0.91631 0.0
C2405 C 0.78859 0.07486 0.88724 0.0
C2406 C 0.77214 0.06011 0.8671 0.0
C2407 C 0.75576 0.03708 0.87637 0.0
C2408 C 0.75528 0.02852 0.90467 0.0
C2409 C 0.73496 1.00348 0.90878 0.0
C2410 C 0.75108 0.97698 0.9197 0.0
C2411 C 0.71026 0.01156 0.92895 0.0
C2412 C 0.7244 0.99921 0.87832 0.0
C2413 C 0.73702 0.01874 0.86005 0.0
C2414 C 0.73187 0.01859 0.83075 0.0
C2415 C 0.71333 0.99794 0.8197 0.0
C2416 C 0.69974 0.97791 0.83791 0.0
C2417 C 0.70516 0.9787 0.86768 0.0
H2418 H 0.8306 0.02785 0.37218 0.0
H2419 H 0.78531 0.02436 0.29101 0.0
H2420 H 0.74937 0.99282 0.31234 0.0
H2421 H 0.81757 0.9544 0.39302 0.0
H2422 H 0.81206 0.96246 0.43032 0.0
H2423 H 0.83504 0.98482 0.40894 0.0
H2424 H 0.80499 0.02918 0.42287 0.0
H2425 H 0.78194 0.00696 0.44432 0.0
H2426 H 0.76696 0.02909 0.41652 0.0
H2427 H 0.71859 0.96159 0.34108 0.0
H2428 H 0.69297 0.93311 0.37692 0.0
H2429 H 0.75622 0.95645 0.44094 0.0
C2430 C 0.81316 0.02036 0.35893 0.0
C2431 C 0.81098 0.02862 0.32982 0.0
C2432 C 0.78763 0.01849 0.31331 0.0
C2433 C 0.76702 1.00045 0.3252 0.0
C2434 C 0.76978 0.99271 0.35377 0.0
C2435 C 0.79206 1.00236 0.37058 0.0
C2436 C 0.78929 0.99093 0.40093 0.0
C2437 C 0.81502 0.97203 0.40875 0.0
C2438 C 0.78557 0.01551 0.42243 0.0
C2439 C 0.76206 0.97337 0.39831 0.0
C2440 C 0.75138 0.97472 0.37081 0.0
C2441 C 0.72668 0.96033 0.36273 0.0
C2442 C 0.71231 0.94412 0.38332 0.0
C2443 C 0.72252 0.9424 0.41184 0.0
C2444 C 0.74781 0.95731 0.41937 0.0
H2445 H 0.28968 0.49664 0.689 0.0
H2446 H 0.34077 0.45551 0.62337 0.0
H2447 H 0.31423 0.48193 0.58609 0.0
H2448 H 0.22273 0.49932 0.64971 0.0
H2449 H 0.21307 0.53425 0.66273 0.0
H2450 H 0.23498 0.51104 0.68433 0.0
H2451 H 0.27377 0.55041 0.68751 0.0
H2452 H 0.252 0.57373 0.6659 0.0
H2453 H 0.28809 0.56557 0.65505 0.0
H2454 H 0.28184 0.51183 0.55597 0.0
H2455 H 0.24793 0.54612 0.5347 0.0
H2456 H 0.21973 0.57101 0.6196 0.0
C2457 C 0.29506 0.49305 0.66675 0.0
C2458 C 0.31716 0.47389 0.659 0.0
C2459 C 0.32395 0.47011 0.62973 0.0
C2460 C 0.30894 0.48495 0.60842 0.0
C2461 C 0.28743 0.50382 0.61673 0.0
C2462 C 0.28064 0.50818 0.64517 0.0
C2463 C 0.25748 0.53075 0.64823 0.0
C2464 C 0.23046 0.51807 0.66207 0.0
C2465 C 0.2685 0.55665 0.66517 0.0
C2466 C 0.25233 0.53833 0.61707 0.0
C2467 C 0.26962 0.52223 0.59931 0.0
C2468 C 0.26832 0.5247 0.56965 0.0
C2469 C 0.24892 0.5442 0.55778 0.0
C2470 C 0.23132 0.56138 0.57548 0.0
C2471 C 0.23316 0.55841 0.60555 0.0
loop_
_geom_bond_atom_site_label_1
_geom_bond_atom_site_label_2
_geom_bond_distance
_geom_bond_site_symmetry_2
_ccdc_geom_bond_type
Fe0 O2 1.918 . S
Fe0 O5 1.997 . S
Fe0 O6 2.002 . S
Fe0 O11 1.976 . S
Fe0 O14 1.996 1_455 S
Fe1 O2 1.918 . S
Fe1 O9 1.997 . S
Fe1 O12 1.996 . S
Fe1 O16 1.976 . S
Fe1 O19 2.002 . S
O2 Fe0 1.918 . S
O2 Fe1 1.918 . S
O2 Fe3 1.918 . S
Fe3 O2 1.918 . S
Fe3 O4 2.002 . S
Fe3 O13 1.976 1_455 S
Fe3 O17 1.996 . S
Fe3 O20 1.997 . S
O4 Fe3 2.002 . S
O4 C21 1.295 . S
O5 Fe0 1.997 . S
O5 C21 1.235 . S
O6 Fe0 2.002 . S
O6 C7 1.295 . S
C7 O6 1.295 . S
C7 O9 1.235 . S
C8 O13 1.287 . S
C8 O14 1.255 . S
O9 Fe1 1.997 . S
O9 C7 1.235 . S
C10 O16 1.287 . S
C10 O17 1.255 . S
O11 Fe0 1.976 . S
O11 C18 1.287 . S
O12 Fe1 1.996 . S
O12 C18 1.255 . S
O13 Fe3 1.976 1_655 S
O13 C8 1.287 . S
O14 Fe0 1.996 1_655 S
O14 C8 1.255 . S
C15 O19 1.295 . S
C15 O20 1.235 . S
O16 Fe1 1.976 . S
O16 C10 1.287 . S
O17 Fe3 1.996 . S
O17 C10 1.255 . S
C18 O11 1.287 . S
C18 O12 1.255 . S
O19 Fe1 2.002 . S
O19 C15 1.295 . S
O20 Fe3 1.997 . S
O20 C15 1.235 . S
C21 O4 1.295 . S
C21 O5 1.235 . S
Fe22 O24 1.918 . S
Fe22 O27 1.997 . S
Fe22 O28 2.002 . S
Fe22 O33 1.976 . S
Fe22 O36 1.996 . S
Fe23 O24 1.918 . S
Fe23 O31 1.997 . S
Fe23 O34 1.996 . S
Fe23 O38 1.976 . S
Fe23 O41 2.002 . S
O24 Fe22 1.918 . S
O24 Fe23 1.918 . S
O24 Fe25 1.918 . S
Fe25 O24 1.918 . S
Fe25 O26 2.002 . S
Fe25 O35 1.976 . S
Fe25 O39 1.996 . S
Fe25 O42 1.997 . S
O26 Fe25 2.002 . S
O26 C43 1.295 . S
O27 Fe22 1.997 . S
O27 C43 1.235 . S
O28 Fe22 2.002 . S
O28 C29 1.295 . S
C29 O28 1.295 . S
C29 O31 1.235 . S
C30 O35 1.287 . S
C30 O36 1.255 . S
O31 Fe23 1.997 . S
O31 C29 1.235 . S
C32 O38 1.287 . S
C32 O39 1.255 . S
O33 Fe22 1.976 . S
O33 C40 1.287 . S
O34 Fe23 1.996 . S
O34 C40 1.255 . S
O35 Fe25 1.976 . S
O35 C30 1.287 . S
O36 Fe22 1.996 . S
O36 C30 1.255 . S
C37 O41 1.295 . S
C37 O42 1.235 . S
O38 Fe23 1.976 . S
O38 C32 1.287 . S
O39 Fe25 1.996 . S
O39 C32 1.255 . S
C40 O33 1.287 . S
C40 O34 1.255 . S
O41 Fe23 2.002 . S
O41 C37 1.295 . S
O42 Fe25 1.997 . S
O42 C37 1.235 . S
C43 O26 1.295 . S
C43 O27 1.235 . S
Fe44 O46 1.918 . S
Fe44 O49 1.997 . S
Fe44 O50 2.002 . S
Fe44 O55 1.976 . S
Fe44 O58 1.996 . S
Fe45 O46 1.918 . S
Fe45 O53 1.997 . S
Fe45 O56 1.996 . S
Fe45 O60 1.976 . S
Fe45 O63 2.002 . S
O46 Fe44 1.918 . S
O46 Fe45 1.918 . S
O46 Fe47 1.918 . S
Fe47 O46 1.918 . S
Fe47 O48 2.002 . S
Fe47 O57 1.976 . S
Fe47 O61 1.996 . S
Fe47 O64 1.997 . S
O48 Fe47 2.002 . S
O48 C65 1.295 . S
O49 Fe44 1.997 . S
O49 C65 1.235 . S
O50 Fe44 2.002 . S
O50 C51 1.295 . S
C51 O50 1.295 . S
C51 O53 1.235 . S
C52 O57 1.287 . S
C52 O58 1.255 . S
O53 Fe45 1.997 . S
O53 C51 1.235 . S
C54 O60 1.287 . S
C54 O61 1.255 . S
O55 Fe44 1.976 . S
O55 C62 1.287 . S
O56 Fe45 1.996 . S
O56 C62 1.255 . S
O57 Fe47 1.976 . S
O57 C52 1.287 . S
O58 Fe44 1.996 . S
O58 C52 1.255 . S
C59 O63 1.295 . S
C59 O64 1.235 . S
O60 Fe45 1.976 . S
O60 C54 1.287 . S
O61 Fe47 1.996 . S
O61 C54 1.255 . S
C62 O55 1.287 . S
C62 O56 1.255 . S
O63 Fe45 2.002 . S
O63 C59 1.295 . S
O64 Fe47 1.997 . S
O64 C59 1.235 . S
C65 O48 1.295 . S
C65 O49 1.235 . S
Fe66 O68 1.918 . S
Fe66 O71 1.997 . S
Fe66 O72 2.002 . S
Fe66 O77 1.976 . S
Fe66 O80 1.996 . S
Fe67 O68 1.918 . S
Fe67 O75 1.997 . S
Fe67 O78 1.996 . S
Fe67 O82 1.976 . S
Fe67 O85 2.002 . S
O68 Fe66 1.918 . S
O68 Fe67 1.918 . S
O68 Fe69 1.918 . S
Fe69 O68 1.918 . S
Fe69 O70 2.002 . S
Fe69 O79 1.976 . S
Fe69 O83 1.996 . S
Fe69 O86 1.997 . S
O70 Fe69 2.002 . S
O70 C87 1.295 . S
O71 Fe66 1.997 . S
O71 C87 1.235 . S
O72 Fe66 2.002 . S
O72 C73 1.295 . S
C73 O72 1.295 . S
C73 O75 1.235 . S
C74 O79 1.287 . S
C74 O80 1.255 . S
O75 Fe67 1.997 . S
O75 C73 1.235 . S
C76 O82 1.287 . S
C76 O83 1.255 . S
O77 Fe66 1.976 . S
O77 C84 1.287 . S
O78 Fe67 1.996 . S
O78 C84 1.255 . S
O79 Fe69 1.976 . S
O79 C74 1.287 . S
O80 Fe66 1.996 . S
O80 C74 1.255 . S
C81 O85 1.295 . S
C81 O86 1.235 . S
O82 Fe67 1.976 . S
O82 C76 1.287 . S
O83 Fe69 1.996 . S
O83 C76 1.255 . S
C84 O77 1.287 . S
C84 O78 1.255 . S
O85 Fe67 2.002 . S
O85 C81 1.295 . S
O86 Fe69 1.997 . S
O86 C81 1.235 . S
C87 O70 1.295 . S
C87 O71 1.235 . S
Fe88 O90 1.918 . S
Fe88 O93 1.997 . S
Fe88 O94 2.002 . S
Fe88 O99 1.976 . S
Fe88 O102 1.996 . S
Fe89 O90 1.918 . S
Fe89 O97 1.997 . S
Fe89 O100 1.996 . S
Fe89 O104 1.976 . S
Fe89 O107 2.002 . S
O90 Fe88 1.918 . S
O90 Fe89 1.918 . S
O90 Fe91 1.918 . S
Fe91 O90 1.918 . S
Fe91 O92 2.002 . S
Fe91 O101 1.976 . S
Fe91 O105 1.996 . S
Fe91 O108 1.997 . S
O92 Fe91 2.002 . S
O92 C109 1.295 . S
O93 Fe88 1.997 . S
O93 C109 1.235 . S
O94 Fe88 2.002 . S
O94 C95 1.295 . S
C95 O94 1.295 . S
C95 O97 1.235 . S
C96 O101 1.287 . S
C96 O102 1.255 . S
O97 Fe89 1.997 . S
O97 C95 1.235 . S
C98 O104 1.287 . S
C98 O105 1.255 . S
O99 Fe88 1.976 . S
O99 C106 1.287 . S
O100 Fe89 1.996 . S
O100 C106 1.255 . S
O101 Fe91 1.976 . S
O101 C96 1.287 . S
O102 Fe88 1.996 . S
O102 C96 1.255 . S
C103 O107 1.295 . S
C103 O108 1.235 . S
O104 Fe89 1.976 . S
O104 C98 1.287 . S
O105 Fe91 1.996 . S
O105 C98 1.255 . S
C106 O99 1.287 . S
C106 O100 1.255 . S
O107 Fe89 2.002 . S
O107 C103 1.295 . S
O108 Fe91 1.997 . S
O108 C103 1.235 . S
C109 O92 1.295 . S
C109 O93 1.235 . S
Fe110 O112 1.918 . S
Fe110 O115 1.997 . S
Fe110 O116 2.002 . S
Fe110 O121 1.976 . S
Fe110 O124 1.996 . S
Fe111 O112 1.918 . S
Fe111 O119 1.997 . S
Fe111 O122 1.996 . S
Fe111 O126 1.976 . S
Fe111 O129 2.002 . S
O112 Fe110 1.918 . S
O112 Fe111 1.918 . S
O112 Fe113 1.918 . S
Fe113 O112 1.918 . S
Fe113 O114 2.002 . S
Fe113 O123 1.976 . S
Fe113 O127 1.996 . S
Fe113 O130 1.997 . S
O114 Fe113 2.002 . S
O114 C131 1.295 . S
O115 Fe110 1.997 . S
O115 C131 1.235 . S
O116 Fe110 2.002 . S
O116 C117 1.295 . S
C117 O116 1.295 . S
C117 O119 1.235 . S
C118 O123 1.287 . S
C118 O124 1.255 . S
O119 Fe111 1.997 . S
O119 C117 1.235 . S
C120 O126 1.287 . S
C120 O127 1.255 . S
O121 Fe110 1.976 . S
O121 C128 1.287 . S
O122 Fe111 1.996 . S
O122 C128 1.255 . S
O123 Fe113 1.976 . S
O123 C118 1.287 . S
O124 Fe110 1.996 . S
O124 C118 1.255 . S
C125 O129 1.295 . S
C125 O130 1.235 . S
O126 Fe111 1.976 . S
O126 C120 1.287 . S
O127 Fe113 1.996 . S
O127 C120 1.255 . S
C128 O121 1.287 . S
C128 O122 1.255 . S
O129 Fe111 2.002 . S
O129 C125 1.295 . S
O130 Fe113 1.997 . S
O130 C125 1.235 . S
C131 O114 1.295 . S
C131 O115 1.235 . S
Fe132 O134 1.918 . S
Fe132 O137 1.997 . S
Fe132 O138 2.002 . S
Fe132 O143 1.976 1_655 S
Fe132 O146 1.996 . S
Fe133 O134 1.918 . S
Fe133 O141 1.997 . S
Fe133 O144 1.996 1_655 S
Fe133 O148 1.976 . S
Fe133 O151 2.002 . S
O134 Fe132 1.918 . S
O134 Fe133 1.918 . S
O134 Fe135 1.918 . S
Fe135 O134 1.918 . S
Fe135 O136 2.002 . S
Fe135 O145 1.976 . S
Fe135 O149 1.996 . S
Fe135 O152 1.997 . S
O136 Fe135 2.002 . S
O136 C153 1.295 . S
O137 Fe132 1.997 . S
O137 C153 1.235 . S
O138 Fe132 2.002 . S
O138 C139 1.295 . S
C139 O138 1.295 . S
C139 O141 1.235 . S
C140 O145 1.287 . S
C140 O146 1.255 . S
O141 Fe133 1.997 . S
O141 C139 1.235 . S
C142 O148 1.287 . S
C142 O149 1.255 . S
O143 Fe132 1.976 1_455 S
O143 C150 1.287 . S
O144 Fe133 1.996 1_455 S
O144 C150 1.255 . S
O145 Fe135 1.976 . S
O145 C140 1.287 . S
O146 Fe132 1.996 . S
O146 C140 1.255 . S
C147 O151 1.295 . S
C147 O152 1.235 . S
O148 Fe133 1.976 . S
O148 C142 1.287 . S
O149 Fe135 1.996 . S
O149 C142 1.255 . S
C150 O143 1.287 . S
C150 O144 1.255 . S
O151 Fe133 2.002 . S
O151 C147 1.295 . S
O152 Fe135 1.997 . S
O152 C147 1.235 . S
C153 O136 1.295 . S
C153 O137 1.235 . S
Fe154 O156 1.918 . S
Fe154 O159 1.997 . S
Fe154 O160 2.002 . S
Fe154 O165 1.976 . S
Fe154 O168 1.996 . S
Fe155 O156 1.918 . S
Fe155 O163 1.997 . S
Fe155 O166 1.996 . S
Fe155 O170 1.976 . S
Fe155 O173 2.002 . S
O156 Fe154 1.918 . S
O156 Fe155 1.918 . S
O156 Fe157 1.918 . S
Fe157 O156 1.918 . S
Fe157 O158 2.002 . S
Fe157 O167 1.976 . S
Fe157 O171 1.996 . S
Fe157 O174 1.997 . S
O158 Fe157 2.002 . S
O158 C175 1.295 . S
O159 Fe154 1.997 . S
O159 C175 1.235 . S
O160 Fe154 2.002 . S
O160 C161 1.295 . S
C161 O160 1.295 . S
C161 O163 1.235 . S
C162 O167 1.287 . S
C162 O168 1.255 . S
O163 Fe155 1.997 . S
O163 C161 1.235 . S
C164 O170 1.287 . S
C164 O171 1.255 . S
O165 Fe154 1.976 . S
O165 C172 1.287 . S
O166 Fe155 1.996 . S
O166 C172 1.255 . S
O167 Fe157 1.976 . S
O167 C162 1.287 . S
O168 Fe154 1.996 . S
O168 C162 1.255 . S
C169 O173 1.295 . S
C169 O174 1.235 . S
O170 Fe155 1.976 . S
O170 C164 1.287 . S
O171 Fe157 1.996 . S
O171 C164 1.255 . S
C172 O165 1.287 . S
C172 O166 1.255 . S
O173 Fe155 2.002 . S
O173 C169 1.295 . S
O174 Fe157 1.997 . S
O174 C169 1.235 . S
C175 O158 1.295 . S
C175 O159 1.235 . S
Fe176 O178 1.918 . S
Fe176 O181 1.997 . S
Fe176 O182 2.002 . S
Fe176 O187 1.976 1_545 S
Fe176 O190 1.996 . S
Fe177 O178 1.918 . S
Fe177 O185 1.997 . S
Fe177 O188 1.996 1_545 S
Fe177 O192 1.976 . S
Fe177 O195 2.002 . S
O178 Fe176 1.918 . S
O178 Fe177 1.918 . S
O178 Fe179 1.918 . S
Fe179 O178 1.918 . S
Fe179 O180 2.002 . S
Fe179 O189 1.976 . S
Fe179 O193 1.996 . S
Fe179 O196 1.997 . S
O180 Fe179 2.002 . S
O180 C197 1.295 . S
O181 Fe176 1.997 . S
O181 C197 1.235 . S
O182 Fe176 2.002 . S
O182 C183 1.295 . S
C183 O182 1.295 . S
C183 O185 1.235 . S
C184 O189 1.287 . S
C184 O190 1.255 . S
O185 Fe177 1.997 . S
O185 C183 1.235 . S
C186 O192 1.287 . S
C186 O193 1.255 . S
O187 Fe176 1.976 1_565 S
O187 C194 1.287 . S
O188 Fe177 1.996 1_565 S
O188 C194 1.255 . S
O189 Fe179 1.976 . S
O189 C184 1.287 . S
O190 Fe176 1.996 . S
O190 C184 1.255 . S
C191 O195 1.295 . S
C191 O196 1.235 . S
O192 Fe177 1.976 . S
O192 C186 1.287 . S
O193 Fe179 1.996 . S
O193 C186 1.255 . S
C194 O187 1.287 . S
C194 O188 1.255 . S
O195 Fe177 2.002 . S
O195 C191 1.295 . S
O196 Fe179 1.997 . S
O196 C191 1.235 . S
C197 O180 1.295 . S
C197 O181 1.235 . S
Fe198 O200 1.918 . S
Fe198 O203 1.997 . S
Fe198 O204 2.002 . S
Fe198 O209 1.976 . S
Fe198 O212 1.996 . S
Fe199 O200 1.918 . S
Fe199 O207 1.997 . S
Fe199 O210 1.996 . S
Fe199 O214 1.976 . S
Fe199 O217 2.002 . S
O200 Fe198 1.918 . S
O200 Fe199 1.918 . S
O200 Fe201 1.918 . S
Fe201 O200 1.918 . S
Fe201 O202 2.002 . S
Fe201 O211 1.976 . S
Fe201 O215 1.996 . S
Fe201 O218 1.997 . S
O202 Fe201 2.002 . S
O202 C219 1.295 . S
O203 Fe198 1.997 . S
O203 C219 1.235 . S
O204 Fe198 2.002 . S
O204 C205 1.295 . S
C205 O204 1.295 . S
C205 O207 1.235 . S
C206 O211 1.287 . S
C206 O212 1.255 . S
O207 Fe199 1.997 . S
O207 C205 1.235 . S
C208 O214 1.287 . S
C208 O215 1.255 . S
O209 Fe198 1.976 . S
O209 C216 1.287 . S
O210 Fe199 1.996 . S
O210 C216 1.255 . S
O211 Fe201 1.976 . S
O211 C206 1.287 . S
O212 Fe198 1.996 . S
O212 C206 1.255 . S
C213 O217 1.295 . S
C213 O218 1.235 . S
O214 Fe199 1.976 . S
O214 C208 1.287 . S
O215 Fe201 1.996 . S
O215 C208 1.255 . S
C216 O209 1.287 . S
C216 O210 1.255 . S
O217 Fe199 2.002 . S
O217 C213 1.295 . S
O218 Fe201 1.997 . S
O218 C213 1.235 . S
C219 O202 1.295 . S
C219 O203 1.235 . S
Fe220 O222 1.918 . S
Fe220 O225 1.997 . S
Fe220 O226 2.002 . S
Fe220 O231 1.976 . S
Fe220 O234 1.996 1_565 S
Fe221 O222 1.918 . S
Fe221 O229 1.997 . S
Fe221 O232 1.996 . S
Fe221 O236 1.976 . S
Fe221 O239 2.002 . S
O222 Fe220 1.918 . S
O222 Fe221 1.918 . S
O222 Fe223 1.918 . S
Fe223 O222 1.918 . S
Fe223 O224 2.002 . S
Fe223 O233 1.976 1_565 S
Fe223 O237 1.996 . S
Fe223 O240 1.997 . S
O224 Fe223 2.002 . S
O224 C241 1.295 . S
O225 Fe220 1.997 . S
O225 C241 1.235 . S
O226 Fe220 2.002 . S
O226 C227 1.295 . S
C227 O226 1.295 . S
C227 O229 1.235 . S
C228 O233 1.287 . S
C228 O234 1.255 . S
O229 Fe221 1.997 . S
O229 C227 1.235 . S
C230 O236 1.287 . S
C230 O237 1.255 . S
O231 Fe220 1.976 . S
O231 C238 1.287 . S
O232 Fe221 1.996 . S
O232 C238 1.255 . S
O233 Fe223 1.976 1_545 S
O233 C228 1.287 . S
O234 Fe220 1.996 1_545 S
O234 C228 1.255 . S
C235 O239 1.295 . S
C235 O240 1.235 . S
O236 Fe221 1.976 . S
O236 C230 1.287 . S
O237 Fe223 1.996 . S
O237 C230 1.255 . S
C238 O231 1.287 . S
C238 O232 1.255 . S
O239 Fe221 2.002 . S
O239 C235 1.295 . S
O240 Fe223 1.997 . S
O240 C235 1.235 . S
C241 O224 1.295 . S
C241 O225 1.235 . S
Fe242 O244 1.918 . S
Fe242 O247 1.997 . S
Fe242 O248 2.002 . S
Fe242 O253 1.976 . S
Fe242 O256 1.996 . S
Fe243 O244 1.918 . S
Fe243 O251 1.997 . S
Fe243 O254 1.996 . S
Fe243 O258 1.976 . S
Fe243 O261 2.002 . S
O244 Fe242 1.918 . S
O244 Fe243 1.918 . S
O244 Fe245 1.918 . S
Fe245 O244 1.918 . S
Fe245 O246 2.002 . S
Fe245 O255 1.976 . S
Fe245 O259 1.996 . S
Fe245 O262 1.997 . S
O246 Fe245 2.002 . S
O246 C263 1.295 . S
O247 Fe242 1.997 . S
O247 C263 1.235 . S
O248 Fe242 2.002 . S
O248 C249 1.295 . S
C249 O248 1.295 . S
C249 O251 1.235 . S
C250 O255 1.287 . S
C250 O256 1.255 . S
O251 Fe243 1.997 . S
O251 C249 1.235 . S
C252 O258 1.287 . S
C252 O259 1.255 . S
O253 Fe242 1.976 . S
O253 C260 1.287 . S
O254 Fe243 1.996 . S
O254 C260 1.255 . S
O255 Fe245 1.976 . S
O255 C250 1.287 . S
O256 Fe242 1.996 . S
O256 C250 1.255 . S
C257 O261 1.295 . S
C257 O262 1.235 . S
O258 Fe243 1.976 . S
O258 C252 1.287 . S
O259 Fe245 1.996 . S
O259 C252 1.255 . S
C260 O253 1.287 . S
C260 O254 1.255 . S
O261 Fe243 2.002 . S
O261 C257 1.295 . S
O262 Fe245 1.997 . S
O262 C257 1.235 . S
C263 O246 1.295 . S
C263 O247 1.235 . S
Fe264 O266 1.918 . S
Fe264 O269 1.997 . S
Fe264 O270 2.002 . S
Fe264 O275 1.976 . S
Fe264 O278 1.996 . S
Fe265 O266 1.918 . S
Fe265 O273 1.997 . S
Fe265 O276 1.996 . S
Fe265 O280 1.976 . S
Fe265 O283 2.002 . S
O266 Fe264 1.918 . S
O266 Fe265 1.918 . S
O266 Fe267 1.918 . S
Fe267 O266 1.918 . S
Fe267 O268 2.002 . S
Fe267 O277 1.976 . S
Fe267 O281 1.996 . S
Fe267 O284 1.997 . S
O268 Fe267 2.002 . S
O268 C285 1.295 . S
O269 Fe264 1.997 . S
O269 C285 1.235 . S
O270 Fe264 2.002 . S
O270 C271 1.295 . S
C271 O270 1.295 . S
C271 O273 1.235 . S
C272 O277 1.287 . S
C272 O278 1.255 . S
O273 Fe265 1.997 . S
O273 C271 1.235 . S
C274 O280 1.287 . S
C274 O281 1.255 . S
O275 Fe264 1.976 . S
O275 C282 1.287 . S
O276 Fe265 1.996 . S
O276 C282 1.255 . S
O277 Fe267 1.976 . S
O277 C272 1.287 . S
O278 Fe264 1.996 . S
O278 C272 1.255 . S
C279 O283 1.295 . S
C279 O284 1.235 . S
O280 Fe265 1.976 . S
O280 C274 1.287 . S
O281 Fe267 1.996 . S
O281 C274 1.255 . S
C282 O275 1.287 . S
C282 O276 1.255 . S
O283 Fe265 2.002 . S
O283 C279 1.295 . S
O284 Fe267 1.997 . S
O284 C279 1.235 . S
C285 O268 1.295 . S
C285 O269 1.235 . S
Fe286 O288 1.918 . S
Fe286 O291 1.997 . S
Fe286 O292 2.002 . S
Fe286 O297 1.976 . S
Fe286 O300 1.996 . S
Fe287 O288 1.918 . S
Fe287 O295 1.997 . S
Fe287 O298 1.996 . S
Fe287 O302 1.976 . S
Fe287 O305 2.002 . S
O288 Fe286 1.918 . S
O288 Fe287 1.918 . S
O288 Fe289 1.918 . S
Fe289 O288 1.918 . S
Fe289 O290 2.002 . S
Fe289 O299 1.976 . S
Fe289 O303 1.996 . S
Fe289 O306 1.997 . S
O290 Fe289 2.002 . S
O290 C307 1.295 . S
O291 Fe286 1.997 . S
O291 C307 1.235 . S
O292 Fe286 2.002 . S
O292 C293 1.295 . S
C293 O292 1.295 . S
C293 O295 1.235 . S
C294 O299 1.287 . S
C294 O300 1.255 . S
O295 Fe287 1.997 . S
O295 C293 1.235 . S
C296 O302 1.287 . S
C296 O303 1.255 . S
O297 Fe286 1.976 . S
O297 C304 1.287 . S
O298 Fe287 1.996 . S
O298 C304 1.255 . S
O299 Fe289 1.976 . S
O299 C294 1.287 . S
O300 Fe286 1.996 . S
O300 C294 1.255 . S
C301 O305 1.295 . S
C301 O306 1.235 . S
O302 Fe287 1.976 . S
O302 C296 1.287 . S
O303 Fe289 1.996 . S
O303 C296 1.255 . S
C304 O297 1.287 . S
C304 O298 1.255 . S
O305 Fe287 2.002 . S
O305 C301 1.295 . S
O306 Fe289 1.997 . S
O306 C301 1.235 . S
C307 O290 1.295 . S
C307 O291 1.235 . S
Fe308 O310 1.918 . S
Fe308 O313 1.997 . S
Fe308 O314 2.002 . S
Fe308 O319 1.976 . S
Fe308 O322 1.996 . S
Fe309 O310 1.918 . S
Fe309 O317 1.997 . S
Fe309 O320 1.996 . S
Fe309 O324 1.976 . S
Fe309 O327 2.002 . S
O310 Fe308 1.918 . S
O310 Fe309 1.918 . S
O310 Fe311 1.918 . S
Fe311 O310 1.918 . S
Fe311 O312 2.002 . S
Fe311 O321 1.976 . S
Fe311 O325 1.996 . S
Fe311 O328 1.997 . S
O312 Fe311 2.002 . S
O312 C329 1.295 . S
O313 Fe308 1.997 . S
O313 C329 1.235 . S
O314 Fe308 2.002 . S
O314 C315 1.295 . S
C315 O314 1.295 . S
C315 O317 1.235 . S
C316 O321 1.287 . S
C316 O322 1.255 . S
O317 Fe309 1.997 . S
O317 C315 1.235 . S
C318 O324 1.287 . S
C318 O325 1.255 . S
O319 Fe308 1.976 . S
O319 C326 1.287 . S
O320 Fe309 1.996 . S
O320 C326 1.255 . S
O321 Fe311 1.976 . S
O321 C316 1.287 . S
O322 Fe308 1.996 . S
O322 C316 1.255 . S
C323 O327 1.295 . S
C323 O328 1.235 . S
O324 Fe309 1.976 . S
O324 C318 1.287 . S
O325 Fe311 1.996 . S
O325 C318 1.255 . S
C326 O319 1.287 . S
C326 O320 1.255 . S
O327 Fe309 2.002 . S
O327 C323 1.295 . S
O328 Fe311 1.997 . S
O328 C323 1.235 . S
C329 O312 1.295 . S
C329 O313 1.235 . S
Fe330 O332 1.918 . S
Fe330 O335 1.997 . S
Fe330 O336 2.002 . S
Fe330 O341 1.976 . S
Fe330 O344 1.996 . S
Fe331 O332 1.918 . S
Fe331 O339 1.997 . S
Fe331 O342 1.996 . S
Fe331 O346 1.976 . S
Fe331 O349 2.002 . S
O332 Fe330 1.918 . S
O332 Fe331 1.918 . S
O332 Fe333 1.918 . S
Fe333 O332 1.918 . S
Fe333 O334 2.002 . S
Fe333 O343 1.976 . S
Fe333 O347 1.996 . S
Fe333 O350 1.997 . S
O334 Fe333 2.002 . S
O334 C351 1.295 . S
O335 Fe330 1.997 . S
O335 C351 1.235 . S
O336 Fe330 2.002 . S
O336 C337 1.295 . S
C337 O336 1.295 . S
C337 O339 1.235 . S
C338 O343 1.287 . S
C338 O344 1.255 . S
O339 Fe331 1.997 . S
O339 C337 1.235 . S
C340 O346 1.287 . S
C340 O347 1.255 . S
O341 Fe330 1.976 . S
O341 C348 1.287 . S
O342 Fe331 1.996 . S
O342 C348 1.255 . S
O343 Fe333 1.976 . S
O343 C338 1.287 . S
O344 Fe330 1.996 . S
O344 C338 1.255 . S
C345 O349 1.295 . S
C345 O350 1.235 . S
O346 Fe331 1.976 . S
O346 C340 1.287 . S
O347 Fe333 1.996 . S
O347 C340 1.255 . S
C348 O341 1.287 . S
C348 O342 1.255 . S
O349 Fe331 2.002 . S
O349 C345 1.295 . S
O350 Fe333 1.997 . S
O350 C345 1.235 . S
C351 O334 1.295 . S
C351 O335 1.235 . S
Fe352 O354 1.918 . S
Fe352 O357 1.997 . S
Fe352 O358 2.002 . S
Fe352 O363 1.976 . S
Fe352 O366 1.996 . S
Fe353 O354 1.918 . S
Fe353 O361 1.997 . S
Fe353 O364 1.996 . S
Fe353 O368 1.976 1_554 S
Fe353 O371 2.002 . S
O354 Fe352 1.918 . S
O354 Fe353 1.918 . S
O354 Fe355 1.918 . S
Fe355 O354 1.918 . S
Fe355 O356 2.002 . S
Fe355 O365 1.976 . S
Fe355 O369 1.996 1_554 S
Fe355 O372 1.997 . S
O356 Fe355 2.002 . S
O356 C373 1.295 . S
O357 Fe352 1.997 . S
O357 C373 1.235 . S
O358 Fe352 2.002 . S
O358 C359 1.295 . S
C359 O358 1.295 . S
C359 O361 1.235 . S
C360 O365 1.287 . S
C360 O366 1.255 . S
O361 Fe353 1.997 . S
O361 C359 1.235 . S
C362 O368 1.287 . S
C362 O369 1.255 . S
O363 Fe352 1.976 . S
O363 C370 1.287 . S
O364 Fe353 1.996 . S
O364 C370 1.255 . S
O365 Fe355 1.976 . S
O365 C360 1.287 . S
O366 Fe352 1.996 . S
O366 C360 1.255 . S
C367 O371 1.295 . S
C367 O372 1.235 . S
O368 Fe353 1.976 1_556 S
O368 C362 1.287 . S
O369 Fe355 1.996 1_556 S
O369 C362 1.255 . S
C370 O363 1.287 . S
C370 O364 1.255 . S
O371 Fe353 2.002 . S
O371 C367 1.295 . S
O372 Fe355 1.997 . S
O372 C367 1.235 . S
C373 O356 1.295 . S
C373 O357 1.235 . S
Fe374 O376 1.918 . S
Fe374 O379 1.997 . S
Fe374 O380 2.002 . S
Fe374 O385 1.976 . S
Fe374 O388 1.996 1_556 S
Fe375 O376 1.918 . S
Fe375 O383 1.997 . S
Fe375 O386 1.996 . S
Fe375 O390 1.976 . S
Fe375 O393 2.002 . S
O376 Fe374 1.918 . S
O376 Fe375 1.918 . S
O376 Fe377 1.918 . S
Fe377 O376 1.918 . S
Fe377 O378 2.002 . S
Fe377 O387 1.976 1_556 S
Fe377 O391 1.996 . S
Fe377 O394 1.997 . S
O378 Fe377 2.002 . S
O378 C395 1.295 . S
O379 Fe374 1.997 . S
O379 C395 1.235 . S
O380 Fe374 2.002 . S
O380 C381 1.295 . S
C381 O380 1.295 . S
C381 O383 1.235 . S
C382 O387 1.287 . S
C382 O388 1.255 . S
O383 Fe375 1.997 . S
O383 C381 1.235 . S
C384 O390 1.287 . S
C384 O391 1.255 . S
O385 Fe374 1.976 . S
O385 C392 1.287 . S
O386 Fe375 1.996 . S
O386 C392 1.255 . S
O387 Fe377 1.976 1_554 S
O387 C382 1.287 . S
O388 Fe374 1.996 1_554 S
O388 C382 1.255 . S
C389 O393 1.295 . S
C389 O394 1.235 . S
O390 Fe375 1.976 . S
O390 C384 1.287 . S
O391 Fe377 1.996 . S
O391 C384 1.255 . S
C392 O385 1.287 . S
C392 O386 1.255 . S
O393 Fe375 2.002 . S
O393 C389 1.295 . S
O394 Fe377 1.997 . S
O394 C389 1.235 . S
C395 O378 1.295 . S
C395 O379 1.235 . S
Fe396 O398 1.918 . S
Fe396 O401 1.997 . S
Fe396 O402 2.002 . S
Fe396 O407 1.976 . S
Fe396 O410 1.996 . S
Fe397 O398 1.918 . S
Fe397 O405 1.997 . S
Fe397 O408 1.996 . S
Fe397 O412 1.976 . S
Fe397 O415 2.002 . S
O398 Fe396 1.918 . S
O398 Fe397 1.918 . S
O398 Fe399 1.918 . S
Fe399 O398 1.918 . S
Fe399 O400 2.002 . S
Fe399 O409 1.976 . S
Fe399 O413 1.996 . S
Fe399 O416 1.997 . S
O400 Fe399 2.002 . S
O400 C417 1.295 . S
O401 Fe396 1.997 . S
O401 C417 1.235 . S
O402 Fe396 2.002 . S
O402 C403 1.295 . S
C403 O402 1.295 . S
C403 O405 1.235 . S
C404 O409 1.287 . S
C404 O410 1.255 . S
O405 Fe397 1.997 . S
O405 C403 1.235 . S
C406 O412 1.287 . S
C406 O413 1.255 . S
O407 Fe396 1.976 . S
O407 C414 1.287 . S
O408 Fe397 1.996 . S
O408 C414 1.255 . S
O409 Fe399 1.976 . S
O409 C404 1.287 . S
O410 Fe396 1.996 . S
O410 C404 1.255 . S
C411 O415 1.295 . S
C411 O416 1.235 . S
O412 Fe397 1.976 . S
O412 C406 1.287 . S
O413 Fe399 1.996 . S
O413 C406 1.255 . S
C414 O407 1.287 . S
C414 O408 1.255 . S
O415 Fe397 2.002 . S
O415 C411 1.295 . S
O416 Fe399 1.997 . S
O416 C411 1.235 . S
C417 O400 1.295 . S
C417 O401 1.235 . S
Fe418 O420 1.918 . S
Fe418 O423 1.997 . S
Fe418 O424 2.002 . S
Fe418 O429 1.976 . S
Fe418 O432 1.996 . S
Fe419 O420 1.918 . S
Fe419 O427 1.997 . S
Fe419 O430 1.996 . S
Fe419 O434 1.976 . S
Fe419 O437 2.002 . S
O420 Fe418 1.918 . S
O420 Fe419 1.918 . S
O420 Fe421 1.918 . S
Fe421 O420 1.918 . S
Fe421 O422 2.002 . S
Fe421 O431 1.976 . S
Fe421 O435 1.996 . S
Fe421 O438 1.997 . S
O422 Fe421 2.002 . S
O422 C439 1.295 . S
O423 Fe418 1.997 . S
O423 C439 1.235 . S
O424 Fe418 2.002 . S
O424 C425 1.295 . S
C425 O424 1.295 . S
C425 O427 1.235 . S
C426 O431 1.287 . S
C426 O432 1.255 . S
O427 Fe419 1.997 . S
O427 C425 1.235 . S
C428 O434 1.287 . S
C428 O435 1.255 . S
O429 Fe418 1.976 . S
O429 C436 1.287 . S
O430 Fe419 1.996 . S
O430 C436 1.255 . S
O431 Fe421 1.976 . S
O431 C426 1.287 . S
O432 Fe418 1.996 . S
O432 C426 1.255 . S
C433 O437 1.295 . S
C433 O438 1.235 . S
O434 Fe419 1.976 . S
O434 C428 1.287 . S
O435 Fe421 1.996 . S
O435 C428 1.255 . S
C436 O429 1.287 . S
C436 O430 1.255 . S
O437 Fe419 2.002 . S
O437 C433 1.295 . S
O438 Fe421 1.997 . S
O438 C433 1.235 . S
C439 O422 1.295 . S
C439 O423 1.235 . S
Fe440 O442 1.918 . S
Fe440 O445 1.997 . S
Fe440 O446 2.002 . S
Fe440 O451 1.976 . S
Fe440 O454 1.996 . S
Fe441 O442 1.918 . S
Fe441 O449 1.997 . S
Fe441 O452 1.996 . S
Fe441 O456 1.976 . S
Fe441 O459 2.002 . S
O442 Fe440 1.918 . S
O442 Fe441 1.918 . S
O442 Fe443 1.918 . S
Fe443 O442 1.918 . S
Fe443 O444 2.002 . S
Fe443 O453 1.976 . S
Fe443 O457 1.996 . S
Fe443 O460 1.997 . S
O444 Fe443 2.002 . S
O444 C461 1.295 . S
O445 Fe440 1.997 . S
O445 C461 1.235 . S
O446 Fe440 2.002 . S
O446 C447 1.295 . S
C447 O446 1.295 . S
C447 O449 1.235 . S
C448 O453 1.287 . S
C448 O454 1.255 . S
O449 Fe441 1.997 . S
O449 C447 1.235 . S
C450 O456 1.287 . S
C450 O457 1.255 . S
O451 Fe440 1.976 . S
O451 C458 1.287 . S
O452 Fe441 1.996 . S
O452 C458 1.255 . S
O453 Fe443 1.976 . S
O453 C448 1.287 . S
O454 Fe440 1.996 . S
O454 C448 1.255 . S
C455 O459 1.295 . S
C455 O460 1.235 . S
O456 Fe441 1.976 . S
O456 C450 1.287 . S
O457 Fe443 1.996 . S
O457 C450 1.255 . S
C458 O451 1.287 . S
C458 O452 1.255 . S
O459 Fe441 2.002 . S
O459 C455 1.295 . S
O460 Fe443 1.997 . S
O460 C455 1.235 . S
C461 O444 1.295 . S
C461 O445 1.235 . S
Fe462 O464 1.918 . S
Fe462 O467 1.997 . S
Fe462 O468 2.002 . S
Fe462 O473 1.976 . S
Fe462 O476 1.996 . S
Fe463 O464 1.918 . S
Fe463 O471 1.997 . S
Fe463 O474 1.996 . S
Fe463 O478 1.976 . S
Fe463 O481 2.002 . S
O464 Fe462 1.918 . S
O464 Fe463 1.918 . S
O464 Fe465 1.918 . S
Fe465 O464 1.918 . S
Fe465 O466 2.002 . S
Fe465 O475 1.976 . S
Fe465 O479 1.996 . S
Fe465 O482 1.997 . S
O466 Fe465 2.002 . S
O466 C483 1.295 . S
O467 Fe462 1.997 . S
O467 C483 1.235 . S
O468 Fe462 2.002 . S
O468 C469 1.295 . S
C469 O468 1.295 . S
C469 O471 1.235 . S
C470 O475 1.287 . S
C470 O476 1.255 . S
O471 Fe463 1.997 . S
O471 C469 1.235 . S
C472 O478 1.287 . S
C472 O479 1.255 . S
O473 Fe462 1.976 . S
O473 C480 1.287 . S
O474 Fe463 1.996 . S
O474 C480 1.255 . S
O475 Fe465 1.976 . S
O475 C470 1.287 . S
O476 Fe462 1.996 . S
O476 C470 1.255 . S
C477 O481 1.295 . S
C477 O482 1.235 . S
O478 Fe463 1.976 . S
O478 C472 1.287 . S
O479 Fe465 1.996 . S
O479 C472 1.255 . S
C480 O473 1.287 . S
C480 O474 1.255 . S
O481 Fe463 2.002 . S
O481 C477 1.295 . S
O482 Fe465 1.997 . S
O482 C477 1.235 . S
C483 O466 1.295 . S
C483 O467 1.235 . S
Fe484 O486 1.918 . S
Fe484 O489 1.997 . S
Fe484 O490 2.002 . S
Fe484 O495 1.976 . S
Fe484 O498 1.996 . S
Fe485 O486 1.918 . S
Fe485 O493 1.997 . S
Fe485 O496 1.996 . S
Fe485 O500 1.976 . S
Fe485 O503 2.002 . S
O486 Fe484 1.918 . S
O486 Fe485 1.918 . S
O486 Fe487 1.918 . S
Fe487 O486 1.918 . S
Fe487 O488 2.002 . S
Fe487 O497 1.976 . S
Fe487 O501 1.996 . S
Fe487 O504 1.997 . S
O488 Fe487 2.002 . S
O488 C505 1.295 . S
O489 Fe484 1.997 . S
O489 C505 1.235 . S
O490 Fe484 2.002 . S
O490 C491 1.295 . S
C491 O490 1.295 . S
C491 O493 1.235 . S
C492 O497 1.287 . S
C492 O498 1.255 . S
O493 Fe485 1.997 . S
O493 C491 1.235 . S
C494 O500 1.287 . S
C494 O501 1.255 . S
O495 Fe484 1.976 . S
O495 C502 1.287 . S
O496 Fe485 1.996 . S
O496 C502 1.255 . S
O497 Fe487 1.976 . S
O497 C492 1.287 . S
O498 Fe484 1.996 . S
O498 C492 1.255 . S
C499 O503 1.295 . S
C499 O504 1.235 . S
O500 Fe485 1.976 . S
O500 C494 1.287 . S
O501 Fe487 1.996 . S
O501 C494 1.255 . S
C502 O495 1.287 . S
C502 O496 1.255 . S
O503 Fe485 2.002 . S
O503 C499 1.295 . S
O504 Fe487 1.997 . S
O504 C499 1.235 . S
C505 O488 1.295 . S
C505 O489 1.235 . S
Fe506 O508 1.918 . S
Fe506 O511 1.997 . S
Fe506 O512 2.002 . S
Fe506 O517 1.976 . S
Fe506 O520 1.996 . S
Fe507 O508 1.918 . S
Fe507 O515 1.997 . S
Fe507 O518 1.996 . S
Fe507 O522 1.976 . S
Fe507 O525 2.002 . S
O508 Fe506 1.918 . S
O508 Fe507 1.918 . S
O508 Fe509 1.918 . S
Fe509 O508 1.918 . S
Fe509 O510 2.002 . S
Fe509 O519 1.976 . S
Fe509 O523 1.996 . S
Fe509 O526 1.997 . S
O510 Fe509 2.002 . S
O510 C527 1.295 . S
O511 Fe506 1.997 . S
O511 C527 1.235 . S
O512 Fe506 2.002 . S
O512 C513 1.295 . S
C513 O512 1.295 . S
C513 O515 1.235 . S
C514 O519 1.287 . S
C514 O520 1.255 . S
O515 Fe507 1.997 . S
O515 C513 1.235 . S
C516 O522 1.287 . S
C516 O523 1.255 . S
O517 Fe506 1.976 . S
O517 C524 1.287 . S
O518 Fe507 1.996 . S
O518 C524 1.255 . S
O519 Fe509 1.976 . S
O519 C514 1.287 . S
O520 Fe506 1.996 . S
O520 C514 1.255 . S
C521 O525 1.295 . S
C521 O526 1.235 . S
O522 Fe507 1.976 . S
O522 C516 1.287 . S
O523 Fe509 1.996 . S
O523 C516 1.255 . S
C524 O517 1.287 . S
C524 O518 1.255 . S
O525 Fe507 2.002 . S
O525 C521 1.295 . S
O526 Fe509 1.997 . S
O526 C521 1.235 . S
C527 O510 1.295 . S
C527 O511 1.235 . S
H528 C540 0.930 . S
H529 C542 0.930 . S
H530 C543 0.930 . S
H531 C547 0.959 . S
H532 C547 0.959 . S
H533 C547 0.961 . S
H534 C548 0.960 . S
H535 C548 0.961 . S
H536 C548 0.959 . S
H537 C551 0.929 . S
H538 C552 0.931 . S
H539 C554 0.930 . S
C540 H528 0.930 . S
C540 C541 1.399 . S
C540 C545 1.399 . S
C541 C540 1.399 . S
C541 C542 1.376 . S
C542 H529 0.930 . S
C542 C541 1.376 . S
C542 C543 1.388 . S
C543 H530 0.930 . S
C543 C542 1.388 . S
C543 C544 1.390 . S
C544 C543 1.390 . S
C544 C545 1.394 . S
C544 C550 1.465 . S
C545 C540 1.399 . S
C545 C544 1.394 . S
C545 C546 1.516 . S
C546 C545 1.516 . S
C546 C547 1.502 . S
C546 C548 1.561 . S
C546 C549 1.526 . S
C547 H531 0.959 . S
C547 H532 0.959 . S
C547 H533 0.961 . S
C547 C546 1.502 . S
C548 H534 0.960 . S
C548 H535 0.961 . S
C548 H536 0.959 . S
C548 C546 1.561 . S
C549 C546 1.526 . S
C549 C550 1.396 . S
C549 C554 1.390 . S
C550 C544 1.465 . S
C550 C549 1.396 . S
C550 C551 1.399 . S
C551 H537 0.929 . S
C551 C550 1.399 . S
C551 C552 1.385 . S
C552 H538 0.931 . S
C552 C551 1.385 . S
C552 C553 1.389 . S
C553 C552 1.389 . S
C553 C554 1.387 . S
C554 H539 0.930 . S
C554 C549 1.390 . S
C554 C553 1.387 . S
H555 C567 0.930 . S
H556 C569 0.930 . S
H557 C570 0.930 . S
H558 C574 0.959 . S
H559 C574 0.959 . S
H560 C574 0.961 . S
H561 C575 0.960 . S
H562 C575 0.961 . S
H563 C575 0.959 . S
H564 C578 0.929 . S
H565 C579 0.931 . S
H566 C581 0.930 . S
C567 H555 0.930 . S
C567 C568 1.399 . S
C567 C572 1.399 . S
C568 C567 1.399 . S
C568 C569 1.376 . S
C569 H556 0.930 . S
C569 C568 1.376 . S
C569 C570 1.388 . S
C570 H557 0.930 . S
C570 C569 1.388 . S
C570 C571 1.390 . S
C571 C570 1.390 . S
C571 C572 1.394 . S
C571 C577 1.465 . S
C572 C567 1.399 . S
C572 C571 1.394 . S
C572 C573 1.516 . S
C573 C572 1.516 . S
C573 C574 1.502 . S
C573 C575 1.561 . S
C573 C576 1.526 . S
C574 H558 0.959 . S
C574 H559 0.959 . S
C574 H560 0.961 . S
C574 C573 1.502 . S
C575 H561 0.960 . S
C575 H562 0.961 . S
C575 H563 0.959 . S
C575 C573 1.561 . S
C576 C573 1.526 . S
C576 C577 1.396 . S
C576 C581 1.390 . S
C577 C571 1.465 . S
C577 C576 1.396 . S
C577 C578 1.399 . S
C578 H564 0.929 . S
C578 C577 1.399 . S
C578 C579 1.385 . S
C579 H565 0.931 . S
C579 C578 1.385 . S
C579 C580 1.389 . S
C580 C579 1.389 . S
C580 C581 1.387 . S
C581 H566 0.930 . S
C581 C576 1.390 . S
C581 C580 1.387 . S
H582 C594 0.930 . S
H583 C596 0.930 . S
H584 C597 0.930 . S
H585 C601 0.959 . S
H586 C601 0.959 . S
H587 C601 0.961 . S
H588 C602 0.960 . S
H589 C602 0.961 . S
H590 C602 0.959 . S
H591 C605 0.929 . S
H592 C606 0.931 . S
H593 C608 0.930 . S
C594 H582 0.930 . S
C594 C595 1.399 . S
C594 C599 1.399 . S
C595 C594 1.399 . S
C595 C596 1.376 . S
C596 H583 0.930 . S
C596 C595 1.376 . S
C596 C597 1.388 . S
C597 H584 0.930 . S
C597 C596 1.388 . S
C597 C598 1.390 . S
C598 C597 1.390 . S
C598 C599 1.394 . S
C598 C604 1.465 . S
C599 C594 1.399 . S
C599 C598 1.394 . S
C599 C600 1.516 . S
C600 C599 1.516 . S
C600 C601 1.502 . S
C600 C602 1.561 . S
C600 C603 1.526 . S
C601 H585 0.959 . S
C601 H586 0.959 . S
C601 H587 0.961 . S
C601 C600 1.502 . S
C602 H588 0.960 . S
C602 H589 0.961 . S
C602 H590 0.959 . S
C602 C600 1.561 . S
C603 C600 1.526 . S
C603 C604 1.396 . S
C603 C608 1.390 . S
C604 C598 1.465 . S
C604 C603 1.396 . S
C604 C605 1.399 . S
C605 H591 0.929 . S
C605 C604 1.399 . S
C605 C606 1.385 . S
C606 H592 0.931 . S
C606 C605 1.385 . S
C606 C607 1.389 . S
C607 C606 1.389 . S
C607 C608 1.387 . S
C608 H593 0.930 . S
C608 C603 1.390 . S
C608 C607 1.387 . S
H609 C621 0.930 . S
H610 C623 0.930 . S
H611 C624 0.930 . S
H612 C628 0.959 . S
H613 C628 0.959 . S
H614 C628 0.961 . S
H615 C629 0.960 . S
H616 C629 0.961 . S
H617 C629 0.959 . S
H618 C632 0.929 . S
H619 C633 0.931 . S
H620 C635 0.930 . S
C621 H609 0.930 . S
C621 C622 1.399 . S
C621 C626 1.399 . S
C622 C621 1.399 . S
C622 C623 1.376 . S
C623 H610 0.930 . S
C623 C622 1.376 . S
C623 C624 1.388 . S
C624 H611 0.930 . S
C624 C623 1.388 . S
C624 C625 1.390 . S
C625 C624 1.390 . S
C625 C626 1.394 . S
C625 C631 1.465 . S
C626 C621 1.399 . S
C626 C625 1.394 . S
C626 C627 1.516 . S
C627 C626 1.516 . S
C627 C628 1.502 . S
C627 C629 1.561 . S
C627 C630 1.526 . S
C628 H612 0.959 . S
C628 H613 0.959 . S
C628 H614 0.961 . S
C628 C627 1.502 . S
C629 H615 0.960 . S
C629 H616 0.961 . S
C629 H617 0.959 . S
C629 C627 1.561 . S
C630 C627 1.526 . S
C630 C631 1.396 . S
C630 C635 1.390 . S
C631 C625 1.465 . S
C631 C630 1.396 . S
C631 C632 1.399 . S
C632 H618 0.929 . S
C632 C631 1.399 . S
C632 C633 1.385 . S
C633 H619 0.931 . S
C633 C632 1.385 . S
C633 C634 1.389 . S
C634 C633 1.389 . S
C634 C635 1.387 . S
C635 H620 0.930 . S
C635 C630 1.390 . S
C635 C634 1.387 . S
H636 C648 0.930 . S
H637 C650 0.930 . S
H638 C651 0.930 . S
H639 C655 0.959 . S
H640 C655 0.959 . S
H641 C655 0.961 . S
H642 C656 0.960 . S
H643 C656 0.961 . S
H644 C656 0.959 . S
H645 C659 0.929 . S
H646 C660 0.931 . S
H647 C662 0.930 . S
C648 H636 0.930 . S
C648 C649 1.399 . S
C648 C653 1.399 . S
C649 C648 1.399 . S
C649 C650 1.376 . S
C650 H637 0.930 . S
C650 C649 1.376 . S
C650 C651 1.388 . S
C651 H638 0.930 . S
C651 C650 1.388 . S
C651 C652 1.390 . S
C652 C651 1.390 . S
C652 C653 1.394 . S
C652 C658 1.465 . S
C653 C648 1.399 . S
C653 C652 1.394 . S
C653 C654 1.516 . S
C654 C653 1.516 . S
C654 C655 1.502 . S
C654 C656 1.561 . S
C654 C657 1.526 . S
C655 H639 0.959 . S
C655 H640 0.959 . S
C655 H641 0.961 . S
C655 C654 1.502 . S
C656 H642 0.960 . S
C656 H643 0.961 . S
C656 H644 0.959 . S
C656 C654 1.561 . S
C657 C654 1.526 . S
C657 C658 1.396 . S
C657 C662 1.390 . S
C658 C652 1.465 . S
C658 C657 1.396 . S
C658 C659 1.399 . S
C659 H645 0.929 . S
C659 C658 1.399 . S
C659 C660 1.385 . S
C660 H646 0.931 . S
C660 C659 1.385 . S
C660 C661 1.389 . S
C661 C660 1.389 . S
C661 C662 1.387 . S
C662 H647 0.930 . S
C662 C657 1.390 . S
C662 C661 1.387 . S
H663 C675 0.930 . S
H664 C677 0.930 . S
H665 C678 0.930 . S
H666 C682 0.959 . S
H667 C682 0.959 . S
H668 C682 0.961 . S
H669 C683 0.960 . S
H670 C683 0.961 . S
H671 C683 0.959 . S
H672 C686 0.929 . S
H673 C687 0.931 . S
H674 C689 0.930 . S
C675 H663 0.930 . S
C675 C676 1.399 . S
C675 C680 1.399 . S
C676 C675 1.399 . S
C676 C677 1.376 . S
C677 H664 0.930 . S
C677 C676 1.376 . S
C677 C678 1.388 . S
C678 H665 0.930 . S
C678 C677 1.388 . S
C678 C679 1.390 . S
C679 C678 1.390 . S
C679 C680 1.394 . S
C679 C685 1.465 . S
C680 C675 1.399 . S
C680 C679 1.394 . S
C680 C681 1.516 . S
C681 C680 1.516 . S
C681 C682 1.502 . S
C681 C683 1.561 . S
C681 C684 1.526 . S
C682 H666 0.959 . S
C682 H667 0.959 . S
C682 H668 0.961 . S
C682 C681 1.502 . S
C683 H669 0.960 . S
C683 H670 0.961 . S
C683 H671 0.959 . S
C683 C681 1.561 . S
C684 C681 1.526 . S
C684 C685 1.396 . S
C684 C689 1.390 . S
C685 C679 1.465 . S
C685 C684 1.396 . S
C685 C686 1.399 . S
C686 H672 0.929 . S
C686 C685 1.399 . S
C686 C687 1.385 . S
C687 H673 0.931 . S
C687 C686 1.385 . S
C687 C688 1.389 . S
C688 C687 1.389 . S
C688 C689 1.387 . S
C689 H674 0.930 . S
C689 C684 1.390 . S
C689 C688 1.387 . S
H690 C702 0.930 . S
H691 C704 0.930 . S
H692 C705 0.930 . S
H693 C709 0.959 . S
H694 C709 0.959 . S
H695 C709 0.961 . S
H696 C710 0.960 . S
H697 C710 0.961 . S
H698 C710 0.959 . S
H699 C713 0.929 . S
H700 C714 0.931 . S
H701 C716 0.930 . S
C702 H690 0.930 . S
C702 C703 1.399 . S
C702 C707 1.399 . S
C703 C702 1.399 . S
C703 C704 1.376 . S
C704 H691 0.930 . S
C704 C703 1.376 . S
C704 C705 1.388 . S
C705 H692 0.930 . S
C705 C704 1.388 . S
C705 C706 1.390 . S
C706 C705 1.390 . S
C706 C707 1.394 . S
C706 C712 1.465 . S
C707 C702 1.399 . S
C707 C706 1.394 . S
C707 C708 1.516 . S
C708 C707 1.516 . S
C708 C709 1.502 . S
C708 C710 1.561 . S
C708 C711 1.526 . S
C709 H693 0.959 . S
C709 H694 0.959 . S
C709 H695 0.961 . S
C709 C708 1.502 . S
C710 H696 0.960 . S
C710 H697 0.961 . S
C710 H698 0.959 . S
C710 C708 1.561 . S
C711 C708 1.526 . S
C711 C712 1.396 . S
C711 C716 1.390 . S
C712 C706 1.465 . S
C712 C711 1.396 . S
C712 C713 1.399 . S
C713 H699 0.929 . S
C713 C712 1.399 . S
C713 C714 1.385 . S
C714 H700 0.931 . S
C714 C713 1.385 . S
C714 C715 1.389 . S
C715 C714 1.389 . S
C715 C716 1.387 . S
C716 H701 0.930 . S
C716 C711 1.390 . S
C716 C715 1.387 . S
H717 C729 0.930 . S
H718 C731 0.930 . S
H719 C732 0.930 . S
H720 C736 0.959 . S
H721 C736 0.959 . S
H722 C736 0.961 . S
H723 C737 0.960 . S
H724 C737 0.961 . S
H725 C737 0.959 . S
H726 C740 0.929 . S
H727 C741 0.931 . S
H728 C743 0.930 . S
C729 H717 0.930 . S
C729 C730 1.399 . S
C729 C734 1.399 . S
C730 C729 1.399 . S
C730 C731 1.376 . S
C731 H718 0.930 . S
C731 C730 1.376 . S
C731 C732 1.388 . S
C732 H719 0.930 . S
C732 C731 1.388 . S
C732 C733 1.390 . S
C733 C732 1.390 . S
C733 C734 1.394 . S
C733 C739 1.465 . S
C734 C729 1.399 . S
C734 C733 1.394 . S
C734 C735 1.516 . S
C735 C734 1.516 . S
C735 C736 1.502 . S
C735 C737 1.561 . S
C735 C738 1.526 . S
C736 H720 0.959 . S
C736 H721 0.959 . S
C736 H722 0.961 . S
C736 C735 1.502 . S
C737 H723 0.960 . S
C737 H724 0.961 . S
C737 H725 0.959 . S
C737 C735 1.561 . S
C738 C735 1.526 . S
C738 C739 1.396 . S
C738 C743 1.390 . S
C739 C733 1.465 . S
C739 C738 1.396 . S
C739 C740 1.399 . S
C740 H726 0.929 . S
C740 C739 1.399 . S
C740 C741 1.385 . S
C741 H727 0.931 . S
C741 C740 1.385 . S
C741 C742 1.389 . S
C742 C741 1.389 . S
C742 C743 1.387 . S
C743 H728 0.930 . S
C743 C738 1.390 . S
C743 C742 1.387 . S
H744 C756 0.930 . S
H745 C758 0.930 . S
H746 C759 0.930 . S
H747 C763 0.959 . S
H748 C763 0.959 . S
H749 C763 0.961 . S
H750 C764 0.960 . S
H751 C764 0.961 . S
H752 C764 0.959 . S
H753 C767 0.929 . S
H754 C768 0.931 . S
H755 C770 0.930 . S
C756 H744 0.930 . S
C756 C757 1.399 . S
C756 C761 1.399 . S
C757 C756 1.399 . S
C757 C758 1.376 . S
C758 H745 0.930 . S
C758 C757 1.376 . S
C758 C759 1.388 . S
C759 H746 0.930 . S
C759 C758 1.388 . S
C759 C760 1.390 . S
C760 C759 1.390 . S
C760 C761 1.394 . S
C760 C766 1.465 . S
C761 C756 1.399 . S
C761 C760 1.394 . S
C761 C762 1.516 . S
C762 C761 1.516 . S
C762 C763 1.502 . S
C762 C764 1.561 . S
C762 C765 1.526 . S
C763 H747 0.959 . S
C763 H748 0.959 . S
C763 H749 0.961 . S
C763 C762 1.502 . S
C764 H750 0.960 . S
C764 H751 0.961 . S
C764 H752 0.959 . S
C764 C762 1.561 . S
C765 C762 1.526 . S
C765 C766 1.396 . S
C765 C770 1.390 . S
C766 C760 1.465 . S
C766 C765 1.396 . S
C766 C767 1.399 . S
C767 H753 0.929 . S
C767 C766 1.399 . S
C767 C768 1.385 . S
C768 H754 0.931 . S
C768 C767 1.385 . S
C768 C769 1.389 . S
C769 C768 1.389 . S
C769 C770 1.387 . S
C770 H755 0.930 . S
C770 C765 1.390 . S
C770 C769 1.387 . S
H771 C783 0.930 . S
H772 C785 0.930 . S
H773 C786 0.930 . S
H774 C790 0.959 . S
H775 C790 0.959 . S
H776 C790 0.961 . S
H777 C791 0.960 . S
H778 C791 0.961 . S
H779 C791 0.959 . S
H780 C794 0.929 . S
H781 C795 0.931 . S
H782 C797 0.930 . S
C783 H771 0.930 . S
C783 C784 1.399 . S
C783 C788 1.399 . S
C784 C783 1.399 . S
C784 C785 1.376 . S
C785 H772 0.930 . S
C785 C784 1.376 . S
C785 C786 1.388 . S
C786 H773 0.930 . S
C786 C785 1.388 . S
C786 C787 1.390 . S
C787 C786 1.390 . S
C787 C788 1.394 . S
C787 C793 1.465 . S
C788 C783 1.399 . S
C788 C787 1.394 . S
C788 C789 1.516 . S
C789 C788 1.516 . S
C789 C790 1.502 . S
C789 C791 1.561 . S
C789 C792 1.526 . S
C790 H774 0.959 . S
C790 H775 0.959 . S
C790 H776 0.961 . S
C790 C789 1.502 . S
C791 H777 0.960 . S
C791 H778 0.961 . S
C791 H779 0.959 . S
C791 C789 1.561 . S
C792 C789 1.526 . S
C792 C793 1.396 . S
C792 C797 1.390 . S
C793 C787 1.465 . S
C793 C792 1.396 . S
C793 C794 1.399 . S
C794 H780 0.929 . S
C794 C793 1.399 . S
C794 C795 1.385 . S
C795 H781 0.931 . S
C795 C794 1.385 . S
C795 C796 1.389 . S
C796 C795 1.389 . S
C796 C797 1.387 . S
C797 H782 0.930 . S
C797 C792 1.390 . S
C797 C796 1.387 . S
H798 C810 0.930 . S
H799 C812 0.930 . S
H800 C813 0.930 . S
H801 C817 0.959 . S
H802 C817 0.959 . S
H803 C817 0.961 . S
H804 C818 0.960 . S
H805 C818 0.961 . S
H806 C818 0.959 . S
H807 C821 0.929 . S
H808 C822 0.931 . S
H809 C824 0.930 . S
C810 H798 0.930 . S
C810 C811 1.399 . S
C810 C815 1.399 . S
C811 C810 1.399 . S
C811 C812 1.376 . S
C812 H799 0.930 . S
C812 C811 1.376 . S
C812 C813 1.388 . S
C813 H800 0.930 . S
C813 C812 1.388 . S
C813 C814 1.390 . S
C814 C813 1.390 . S
C814 C815 1.394 . S
C814 C820 1.465 . S
C815 C810 1.399 . S
C815 C814 1.394 . S
C815 C816 1.516 . S
C816 C815 1.516 . S
C816 C817 1.502 . S
C816 C818 1.561 . S
C816 C819 1.526 . S
C817 H801 0.959 . S
C817 H802 0.959 . S
C817 H803 0.961 . S
C817 C816 1.502 . S
C818 H804 0.960 . S
C818 H805 0.961 . S
C818 H806 0.959 . S
C818 C816 1.561 . S
C819 C816 1.526 . S
C819 C820 1.396 . S
C819 C824 1.390 . S
C820 C814 1.465 . S
C820 C819 1.396 . S
C820 C821 1.399 . S
C821 H807 0.929 . S
C821 C820 1.399 . S
C821 C822 1.385 . S
C822 H808 0.931 . S
C822 C821 1.385 . S
C822 C823 1.389 . S
C823 C822 1.389 . S
C823 C824 1.387 . S
C824 H809 0.930 . S
C824 C819 1.390 . S
C824 C823 1.387 . S
H825 C837 0.930 . S
H826 C839 0.930 . S
H827 C840 0.930 . S
H828 C844 0.959 . S
H829 C844 0.959 . S
H830 C844 0.961 . S
H831 C845 0.960 . S
H832 C845 0.961 . S
H833 C845 0.959 . S
H834 C848 0.929 . S
H835 C849 0.931 . S
H836 C851 0.930 . S
C837 H825 0.930 . S
C837 C838 1.399 . S
C837 C842 1.399 . S
C838 C837 1.399 . S
C838 C839 1.376 . S
C839 H826 0.930 . S
C839 C838 1.376 . S
C839 C840 1.388 . S
C840 H827 0.930 . S
C840 C839 1.388 . S
C840 C841 1.390 . S
C841 C840 1.390 . S
C841 C842 1.394 . S
C841 C847 1.465 . S
C842 C837 1.399 . S
C842 C841 1.394 . S
C842 C843 1.516 . S
C843 C842 1.516 . S
C843 C844 1.502 . S
C843 C845 1.561 . S
C843 C846 1.526 . S
C844 H828 0.959 . S
C844 H829 0.959 . S
C844 H830 0.961 . S
C844 C843 1.502 . S
C845 H831 0.960 . S
C845 H832 0.961 . S
C845 H833 0.959 . S
C845 C843 1.561 . S
C846 C843 1.526 . S
C846 C847 1.396 . S
C846 C851 1.390 . S
C847 C841 1.465 . S
C847 C846 1.396 . S
C847 C848 1.399 . S
C848 H834 0.929 . S
C848 C847 1.399 . S
C848 C849 1.385 . S
C849 H835 0.931 . S
C849 C848 1.385 . S
C849 C850 1.389 . S
C850 C849 1.389 . S
C850 C851 1.387 . S
C851 H836 0.930 . S
C851 C846 1.390 . S
C851 C850 1.387 . S
H852 C864 0.930 . S
H853 C866 0.930 . S
H854 C867 0.930 . S
H855 C871 0.959 . S
H856 C871 0.959 . S
H857 C871 0.961 . S
H858 C872 0.960 . S
H859 C872 0.961 . S
H860 C872 0.959 . S
H861 C875 0.929 . S
H862 C876 0.931 . S
H863 C878 0.930 . S
C864 H852 0.930 . S
C864 C865 1.399 . S
C864 C869 1.399 . S
C865 C864 1.399 . S
C865 C866 1.376 . S
C866 H853 0.930 . S
C866 C865 1.376 . S
C866 C867 1.388 . S
C867 H854 0.930 . S
C867 C866 1.388 . S
C867 C868 1.390 . S
C868 C867 1.390 . S
C868 C869 1.394 . S
C868 C874 1.465 . S
C869 C864 1.399 . S
C869 C868 1.394 . S
C869 C870 1.516 . S
C870 C869 1.516 . S
C870 C871 1.502 . S
C870 C872 1.561 . S
C870 C873 1.526 . S
C871 H855 0.959 . S
C871 H856 0.959 . S
C871 H857 0.961 . S
C871 C870 1.502 . S
C872 H858 0.960 . S
C872 H859 0.961 . S
C872 H860 0.959 . S
C872 C870 1.561 . S
C873 C870 1.526 . S
C873 C874 1.396 . S
C873 C878 1.390 . S
C874 C868 1.465 . S
C874 C873 1.396 . S
C874 C875 1.399 . S
C875 H861 0.929 . S
C875 C874 1.399 . S
C875 C876 1.385 . S
C876 H862 0.931 . S
C876 C875 1.385 . S
C876 C877 1.389 . S
C877 C876 1.389 . S
C877 C878 1.387 . S
C878 H863 0.930 . S
C878 C873 1.390 . S
C878 C877 1.387 . S
H879 C891 0.930 . S
H880 C893 0.930 . S
H881 C894 0.930 . S
H882 C898 0.959 . S
H883 C898 0.959 . S
H884 C898 0.961 . S
H885 C899 0.960 . S
H886 C899 0.961 . S
H887 C899 0.959 . S
H888 C902 0.929 . S
H889 C903 0.931 . S
H890 C905 0.930 . S
C891 H879 0.930 . S
C891 C892 1.399 . S
C891 C896 1.399 . S
C892 C891 1.399 . S
C892 C893 1.376 . S
C893 H880 0.930 . S
C893 C892 1.376 . S
C893 C894 1.388 . S
C894 H881 0.930 . S
C894 C893 1.388 . S
C894 C895 1.390 . S
C895 C894 1.390 . S
C895 C896 1.394 . S
C895 C901 1.465 . S
C896 C891 1.399 . S
C896 C895 1.394 . S
C896 C897 1.516 . S
C897 C896 1.516 . S
C897 C898 1.502 . S
C897 C899 1.561 . S
C897 C900 1.526 . S
C898 H882 0.959 . S
C898 H883 0.959 . S
C898 H884 0.961 . S
C898 C897 1.502 . S
C899 H885 0.960 . S
C899 H886 0.961 . S
C899 H887 0.959 . S
C899 C897 1.561 . S
C900 C897 1.526 . S
C900 C901 1.396 . S
C900 C905 1.390 . S
C901 C895 1.465 . S
C901 C900 1.396 . S
C901 C902 1.399 . S
C902 H888 0.929 . S
C902 C901 1.399 . S
C902 C903 1.385 . S
C903 H889 0.931 . S
C903 C902 1.385 . S
C903 C904 1.389 . S
C904 C903 1.389 . S
C904 C905 1.387 . S
C905 H890 0.930 . S
C905 C900 1.390 . S
C905 C904 1.387 . S
H906 C918 0.930 . S
H907 C920 0.930 . S
H908 C921 0.930 . S
H909 C925 0.959 . S
H910 C925 0.959 1_554 S
H911 C925 0.961 . S
H912 C926 0.960 . S
H913 C926 0.961 . S
H914 C926 0.954 1_556 S
H915 C929 0.929 . S
H916 C930 0.931 . S
H917 C932 0.894 1_554 S
C918 H906 0.930 . S
C918 C919 1.399 . S
C918 C923 1.399 . S
C919 C918 1.399 . S
C919 C920 1.376 . S
C920 H907 0.930 . S
C920 C919 1.376 . S
C920 C921 1.388 . S
C921 H908 0.930 . S
C921 C920 1.388 . S
C921 C922 1.390 . S
C922 C921 1.390 . S
C922 C923 1.394 . S
C922 C928 1.465 . S
C923 C918 1.399 . S
C923 C922 1.394 . S
C923 C924 1.516 . S
C924 C923 1.516 . S
C924 C925 1.502 . S
C924 C926 1.561 1_556 S
C924 C927 1.526 . S
C925 H909 0.959 . S
C925 H910 0.959 1_556 S
C925 H911 0.961 . S
C925 C924 1.502 . S
C926 H912 0.960 . S
C926 H913 0.961 . S
C926 H914 0.954 1_554 S
C926 C924 1.561 1_554 S
C927 C924 1.526 . S
C927 C928 1.396 . S
C927 C932 1.416 . S
C928 C922 1.465 . S
C928 C927 1.396 . S
C928 C929 1.399 . S
C929 H915 0.929 . S
C929 C928 1.399 . S
C929 C930 1.385 . S
C930 H916 0.931 . S
C930 C929 1.385 . S
C930 C931 1.389 . S
C931 C930 1.389 . S
C931 C932 1.397 . S
C932 H917 0.894 1_556 S
C932 C927 1.416 . S
C932 C931 1.397 . S
H933 C945 0.930 . S
H934 C947 0.930 . S
H935 C948 0.930 . S
H936 C952 0.959 . S
H937 C952 0.959 . S
H938 C952 0.961 . S
H939 C953 0.960 . S
H940 C953 0.961 . S
H941 C953 0.959 . S
H942 C956 0.929 . S
H943 C957 0.931 . S
H944 C959 0.930 . S
C945 H933 0.930 . S
C945 C946 1.399 . S
C945 C950 1.399 . S
C946 C945 1.399 . S
C946 C947 1.376 . S
C947 H934 0.930 . S
C947 C946 1.376 . S
C947 C948 1.388 . S
C948 H935 0.930 . S
C948 C947 1.388 . S
C948 C949 1.390 . S
C949 C948 1.390 . S
C949 C950 1.394 . S
C949 C955 1.465 . S
C950 C945 1.399 . S
C950 C949 1.394 . S
C950 C951 1.516 . S
C951 C950 1.516 . S
C951 C952 1.502 . S
C951 C953 1.561 . S
C951 C954 1.526 . S
C952 H936 0.959 . S
C952 H937 0.959 . S
C952 H938 0.961 . S
C952 C951 1.502 . S
C953 H939 0.960 . S
C953 H940 0.961 . S
C953 H941 0.959 . S
C953 C951 1.561 . S
C954 C951 1.526 . S
C954 C955 1.396 . S
C954 C959 1.390 . S
C955 C949 1.465 . S
C955 C954 1.396 . S
C955 C956 1.399 . S
C956 H942 0.929 . S
C956 C955 1.399 . S
C956 C957 1.385 . S
C957 H943 0.931 . S
C957 C956 1.385 . S
C957 C958 1.389 . S
C958 C957 1.389 . S
C958 C959 1.387 . S
C959 H944 0.930 . S
C959 C954 1.390 . S
C959 C958 1.387 . S
H960 C972 0.930 . S
H961 C974 0.930 . S
H962 C975 0.930 . S
H963 C979 0.947 1_545 S
H964 C979 0.948 1_545 S
H965 C979 1.003 . S
H966 C980 0.960 1_565 S
H967 C980 0.961 . S
H968 C980 0.959 . S
H969 C983 0.929 . S
H970 C984 0.931 . S
H971 C986 0.930 . S
C972 H960 0.930 . S
C972 C973 1.399 . S
C972 C977 1.399 1_565 S
C973 C972 1.399 . S
C973 C974 1.376 . S
C974 H961 0.930 . S
C974 C973 1.376 . S
C974 C975 1.388 1_565 S
C975 H962 0.930 . S
C975 C974 1.388 1_545 S
C975 C976 1.390 . S
C976 C975 1.390 . S
C976 C977 1.394 . S
C976 C982 1.465 . S
C977 C972 1.399 1_545 S
C977 C976 1.394 . S
C977 C978 1.516 . S
C978 C977 1.516 . S
C978 C979 1.485 1_545 S
C978 C980 1.561 . S
C978 C981 1.526 . S
C979 H963 0.947 1_565 S
C979 H964 0.948 1_565 S
C979 H965 1.003 . S
C979 C978 1.485 1_565 S
C980 H966 0.960 1_545 S
C980 H967 0.961 . S
C980 H968 0.959 . S
C980 C978 1.561 . S
C981 C978 1.526 . S
C981 C982 1.396 . S
C981 C986 1.390 . S
C982 C976 1.465 . S
C982 C981 1.396 . S
C982 C983 1.399 . S
C983 H969 0.929 . S
C983 C982 1.399 . S
C983 C984 1.385 . S
C984 H970 0.931 . S
C984 C983 1.385 . S
C984 C985 1.389 . S
C985 C984 1.389 . S
C985 C986 1.387 . S
C986 H971 0.930 . S
C986 C981 1.390 . S
C986 C985 1.387 . S
H987 C999 0.930 . S
H988 C1001 0.930 . S
H989 C1002 0.930 . S
H990 C1006 0.959 . S
H991 C1006 0.959 . S
H992 C1006 0.961 . S
H993 C1007 0.960 . S
H994 C1007 0.961 . S
H995 C1007 0.959 . S
H996 C1010 0.929 . S
H997 C1011 0.931 . S
H998 C1013 0.930 . S
C999 H987 0.930 . S
C999 C1000 1.399 . S
C999 C1004 1.399 . S
C1000 C999 1.399 . S
C1000 C1001 1.376 . S
C1001 H988 0.930 . S
C1001 C1000 1.376 . S
C1001 C1002 1.388 . S
C1002 H989 0.930 . S
C1002 C1001 1.388 . S
C1002 C1003 1.390 . S
C1003 C1002 1.390 . S
C1003 C1004 1.394 . S
C1003 C1009 1.465 . S
C1004 C999 1.399 . S
C1004 C1003 1.394 . S
C1004 C1005 1.516 . S
C1005 C1004 1.516 . S
C1005 C1006 1.502 . S
C1005 C1007 1.561 . S
C1005 C1008 1.526 . S
C1006 H990 0.959 . S
C1006 H991 0.959 . S
C1006 H992 0.961 . S
C1006 C1005 1.502 . S
C1007 H993 0.960 . S
C1007 H994 0.961 . S
C1007 H995 0.959 . S
C1007 C1005 1.561 . S
C1008 C1005 1.526 . S
C1008 C1009 1.396 . S
C1008 C1013 1.390 . S
C1009 C1003 1.465 . S
C1009 C1008 1.396 . S
C1009 C1010 1.399 . S
C1010 H996 0.929 . S
C1010 C1009 1.399 . S
C1010 C1011 1.385 . S
C1011 H997 0.931 . S
C1011 C1010 1.385 . S
C1011 C1012 1.389 . S
C1012 C1011 1.389 . S
C1012 C1013 1.387 . S
C1013 H998 0.930 . S
C1013 C1008 1.390 . S
C1013 C1012 1.387 . S
H1014 C1026 0.930 . S
H1015 C1028 0.930 . S
H1016 C1029 0.930 . S
H1017 C1033 0.959 . S
H1018 C1033 0.959 . S
H1019 C1033 0.961 . S
H1020 C1034 0.960 . S
H1021 C1034 0.961 . S
H1022 C1034 0.959 . S
H1023 C1037 0.929 . S
H1024 C1038 0.931 1_556 S
H1025 C1040 0.930 . S
C1026 H1014 0.930 . S
C1026 C1027 1.399 . S
C1026 C1031 1.399 . S
C1027 C1026 1.399 . S
C1027 C1028 1.376 . S
C1028 H1015 0.930 . S
C1028 C1027 1.376 . S
C1028 C1029 1.388 . S
C1029 H1016 0.930 . S
C1029 C1028 1.388 . S
C1029 C1030 1.390 . S
C1030 C1029 1.390 . S
C1030 C1031 1.394 . S
C1030 C1036 1.465 . S
C1031 C1026 1.399 . S
C1031 C1030 1.394 . S
C1031 C1032 1.516 . S
C1032 C1031 1.516 . S
C1032 C1033 1.502 . S
C1032 C1034 1.561 . S
C1032 C1035 1.526 . S
C1033 H1017 0.959 . S
C1033 H1018 0.959 . S
C1033 H1019 0.961 . S
C1033 C1032 1.502 . S
C1034 H1020 0.960 . S
C1034 H1021 0.961 . S
C1034 H1022 0.959 . S
C1034 C1032 1.561 . S
C1035 C1032 1.526 . S
C1035 C1036 1.396 . S
C1035 C1040 1.390 1_565 S
C1036 C1030 1.465 . S
C1036 C1035 1.396 . S
C1036 C1037 1.399 1_565 S
C1037 H1023 0.929 . S
C1037 C1036 1.399 1_545 S
C1037 C1038 1.385 . S
C1038 H1024 0.931 1_554 S
C1038 C1037 1.385 . S
C1038 C1039 1.389 . S
C1039 C1038 1.389 . S
C1039 C1040 1.387 . S
C1040 H1025 0.930 . S
C1040 C1035 1.390 1_545 S
C1040 C1039 1.387 . S
H1041 C1053 0.930 . S
H1042 C1055 0.930 . S
H1043 C1056 0.930 . S
H1044 C1060 0.959 . S
H1045 C1060 0.959 . S
H1046 C1060 0.961 . S
H1047 C1061 0.960 . S
H1048 C1061 0.961 . S
H1049 C1061 0.959 . S
H1050 C1064 0.929 . S
H1051 C1065 0.931 . S
H1052 C1067 0.930 . S
C1053 H1041 0.930 . S
C1053 C1054 1.399 . S
C1053 C1058 1.399 . S
C1054 C1053 1.399 . S
C1054 C1055 1.376 . S
C1055 H1042 0.930 . S
C1055 C1054 1.376 . S
C1055 C1056 1.388 . S
C1056 H1043 0.930 . S
C1056 C1055 1.388 . S
C1056 C1057 1.390 . S
C1057 C1056 1.390 . S
C1057 C1058 1.394 . S
C1057 C1063 1.465 . S
C1058 C1053 1.399 . S
C1058 C1057 1.394 . S
C1058 C1059 1.516 . S
C1059 C1058 1.516 . S
C1059 C1060 1.502 . S
C1059 C1061 1.561 . S
C1059 C1062 1.526 . S
C1060 H1044 0.959 . S
C1060 H1045 0.959 . S
C1060 H1046 0.961 . S
C1060 C1059 1.502 . S
C1061 H1047 0.960 . S
C1061 H1048 0.961 . S
C1061 H1049 0.959 . S
C1061 C1059 1.561 . S
C1062 C1059 1.526 . S
C1062 C1063 1.396 . S
C1062 C1067 1.390 . S
C1063 C1057 1.465 . S
C1063 C1062 1.396 . S
C1063 C1064 1.399 . S
C1064 H1050 0.929 . S
C1064 C1063 1.399 . S
C1064 C1065 1.385 . S
C1065 H1051 0.931 . S
C1065 C1064 1.385 . S
C1065 C1066 1.389 . S
C1066 C1065 1.389 . S
C1066 C1067 1.387 . S
C1067 H1052 0.930 . S
C1067 C1062 1.390 . S
C1067 C1066 1.387 . S
H1068 C1080 0.930 . S
H1069 C1082 0.930 . S
H1070 C1083 0.930 . S
H1071 C1087 0.959 . S
H1072 C1087 0.959 . S
H1073 C1087 0.961 . S
H1074 C1088 0.960 . S
H1075 C1088 0.961 . S
H1076 C1088 0.959 . S
H1077 C1091 0.929 . S
H1078 C1092 0.931 . S
H1079 C1094 0.930 . S
C1080 H1068 0.930 . S
C1080 C1081 1.399 . S
C1080 C1085 1.399 . S
C1081 C1080 1.399 . S
C1081 C1082 1.376 . S
C1082 H1069 0.930 . S
C1082 C1081 1.376 . S
C1082 C1083 1.388 . S
C1083 H1070 0.930 . S
C1083 C1082 1.388 . S
C1083 C1084 1.390 . S
C1084 C1083 1.390 . S
C1084 C1085 1.394 . S
C1084 C1090 1.465 . S
C1085 C1080 1.399 . S
C1085 C1084 1.394 . S
C1085 C1086 1.516 . S
C1086 C1085 1.516 . S
C1086 C1087 1.502 . S
C1086 C1088 1.561 . S
C1086 C1089 1.526 . S
C1087 H1071 0.959 . S
C1087 H1072 0.959 . S
C1087 H1073 0.961 . S
C1087 C1086 1.502 . S
C1088 H1074 0.960 . S
C1088 H1075 0.961 . S
C1088 H1076 0.959 . S
C1088 C1086 1.561 . S
C1089 C1086 1.526 . S
C1089 C1090 1.396 . S
C1089 C1094 1.390 . S
C1090 C1084 1.465 . S
C1090 C1089 1.396 . S
C1090 C1091 1.399 . S
C1091 H1077 0.929 . S
C1091 C1090 1.399 . S
C1091 C1092 1.385 . S
C1092 H1078 0.931 . S
C1092 C1091 1.385 . S
C1092 C1093 1.389 . S
C1093 C1092 1.389 . S
C1093 C1094 1.387 . S
C1094 H1079 0.930 . S
C1094 C1089 1.390 . S
C1094 C1093 1.387 . S
H1095 C1107 0.930 . S
H1096 C1109 0.930 . S
H1097 C1110 0.930 . S
H1098 C1114 0.959 . S
H1099 C1114 0.959 . S
H1100 C1114 0.961 . S
H1101 C1115 0.960 . S
H1102 C1115 0.961 . S
H1103 C1115 0.959 . S
H1104 C1118 0.929 . S
H1105 C1119 0.931 . S
H1106 C1121 0.930 . S
C1107 H1095 0.930 . S
C1107 C1108 1.399 . S
C1107 C1112 1.399 . S
C1108 C1107 1.399 . S
C1108 C1109 1.376 . S
C1109 H1096 0.930 . S
C1109 C1108 1.376 . S
C1109 C1110 1.388 . S
C1110 H1097 0.930 . S
C1110 C1109 1.388 . S
C1110 C1111 1.390 . S
C1111 C1110 1.390 . S
C1111 C1112 1.394 . S
C1111 C1117 1.465 . S
C1112 C1107 1.399 . S
C1112 C1111 1.394 . S
C1112 C1113 1.516 . S
C1113 C1112 1.516 . S
C1113 C1114 1.502 . S
C1113 C1115 1.561 . S
C1113 C1116 1.526 . S
C1114 H1098 0.959 . S
C1114 H1099 0.959 . S
C1114 H1100 0.961 . S
C1114 C1113 1.502 . S
C1115 H1101 0.960 . S
C1115 H1102 0.961 . S
C1115 H1103 0.959 . S
C1115 C1113 1.561 . S
C1116 C1113 1.526 . S
C1116 C1117 1.396 . S
C1116 C1121 1.390 . S
C1117 C1111 1.465 . S
C1117 C1116 1.396 . S
C1117 C1118 1.399 . S
C1118 H1104 0.929 . S
C1118 C1117 1.399 . S
C1118 C1119 1.385 . S
C1119 H1105 0.931 . S
C1119 C1118 1.385 . S
C1119 C1120 1.389 . S
C1120 C1119 1.389 . S
C1120 C1121 1.387 . S
C1121 H1106 0.930 . S
C1121 C1116 1.390 . S
C1121 C1120 1.387 . S
H1122 C1134 0.930 . S
H1123 C1136 0.930 . S
H1124 C1137 0.930 . S
H1125 C1141 0.959 . S
H1126 C1141 0.959 . S
H1127 C1141 0.961 . S
H1128 C1142 0.960 . S
H1129 C1142 0.961 . S
H1130 C1142 0.959 . S
H1131 C1145 0.929 . S
H1132 C1146 0.931 1_655 S
H1133 C1148 0.930 . S
C1134 H1122 0.930 . S
C1134 C1135 1.399 . S
C1134 C1139 1.399 . S
C1135 C1134 1.399 . S
C1135 C1136 1.376 . S
C1136 H1123 0.930 . S
C1136 C1135 1.376 . S
C1136 C1137 1.388 . S
C1137 H1124 0.930 . S
C1137 C1136 1.388 . S
C1137 C1138 1.390 . S
C1138 C1137 1.390 . S
C1138 C1139 1.394 . S
C1138 C1144 1.465 . S
C1139 C1134 1.399 . S
C1139 C1138 1.394 . S
C1139 C1140 1.516 . S
C1140 C1139 1.516 . S
C1140 C1141 1.502 . S
C1140 C1142 1.561 . S
C1140 C1143 1.526 . S
C1141 H1125 0.959 . S
C1141 H1126 0.959 . S
C1141 H1127 0.961 . S
C1141 C1140 1.502 . S
C1142 H1128 0.960 . S
C1142 H1129 0.961 . S
C1142 H1130 0.959 . S
C1142 C1140 1.561 . S
C1143 C1140 1.526 . S
C1143 C1144 1.396 . S
C1143 C1148 1.390 1_556 S
C1144 C1138 1.465 . S
C1144 C1143 1.396 . S
C1144 C1145 1.399 1_556 S
C1145 H1131 0.929 . S
C1145 C1144 1.399 1_554 S
C1145 C1146 1.385 . S
C1146 H1132 0.931 1_455 S
C1146 C1145 1.385 . S
C1146 C1147 1.389 . S
C1147 C1146 1.389 . S
C1147 C1148 1.387 . S
C1148 H1133 0.930 . S
C1148 C1143 1.390 1_554 S
C1148 C1147 1.387 . S
H1149 C1161 0.930 . S
H1150 C1163 0.930 . S
H1151 C1164 0.930 . S
H1152 C1168 0.959 . S
H1153 C1168 0.959 . S
H1154 C1168 0.961 . S
H1155 C1169 0.960 . S
H1156 C1169 0.961 . S
H1157 C1169 0.959 . S
H1158 C1172 0.929 . S
H1159 C1173 0.931 . S
H1160 C1175 0.930 . S
C1161 H1149 0.930 . S
C1161 C1162 1.399 . S
C1161 C1166 1.399 . S
C1162 C1161 1.399 . S
C1162 C1163 1.376 . S
C1163 H1150 0.930 . S
C1163 C1162 1.376 . S
C1163 C1164 1.388 . S
C1164 H1151 0.930 . S
C1164 C1163 1.388 . S
C1164 C1165 1.390 . S
C1165 C1164 1.390 . S
C1165 C1166 1.394 . S
C1165 C1171 1.465 . S
C1166 C1161 1.399 . S
C1166 C1165 1.394 . S
C1166 C1167 1.516 . S
C1167 C1166 1.516 . S
C1167 C1168 1.502 . S
C1167 C1169 1.561 . S
C1167 C1170 1.526 . S
C1168 H1152 0.959 . S
C1168 H1153 0.959 . S
C1168 H1154 0.961 . S
C1168 C1167 1.502 . S
C1169 H1155 0.960 . S
C1169 H1156 0.961 . S
C1169 H1157 0.959 . S
C1169 C1167 1.561 . S
C1170 C1167 1.526 . S
C1170 C1171 1.396 . S
C1170 C1175 1.390 . S
C1171 C1165 1.465 . S
C1171 C1170 1.396 . S
C1171 C1172 1.399 . S
C1172 H1158 0.929 . S
C1172 C1171 1.399 . S
C1172 C1173 1.385 . S
C1173 H1159 0.931 . S
C1173 C1172 1.385 . S
C1173 C1174 1.389 . S
C1174 C1173 1.389 . S
C1174 C1175 1.387 . S
C1175 H1160 0.930 . S
C1175 C1170 1.390 . S
C1175 C1174 1.387 . S
H1176 C1188 0.929 1_455 S
H1177 C1190 0.930 . S
H1178 C1191 0.930 . S
H1179 C1195 0.959 . S
H1180 C1195 0.959 . S
H1181 C1195 0.961 1_455 S
H1182 C1196 0.960 . S
H1183 C1196 0.961 . S
H1184 C1196 0.959 . S
H1185 C1199 0.929 . S
H1186 C1200 0.931 . S
H1187 C1202 0.930 . S
C1188 H1176 0.929 1_655 S
C1188 C1189 1.399 . S
C1188 C1193 1.399 . S
C1189 C1188 1.399 . S
C1189 C1190 1.376 . S
C1190 H1177 0.930 . S
C1190 C1189 1.376 . S
C1190 C1191 1.388 . S
C1191 H1178 0.930 . S
C1191 C1190 1.388 . S
C1191 C1192 1.390 . S
C1192 C1191 1.390 . S
C1192 C1193 1.394 . S
C1192 C1198 1.465 . S
C1193 C1188 1.399 . S
C1193 C1192 1.394 . S
C1193 C1194 1.516 . S
C1194 C1193 1.516 . S
C1194 C1195 1.502 . S
C1194 C1196 1.561 . S
C1194 C1197 1.526 . S
C1195 H1179 0.959 . S
C1195 H1180 0.959 . S
C1195 H1181 0.961 1_655 S
C1195 C1194 1.502 . S
C1196 H1182 0.960 . S
C1196 H1183 0.961 . S
C1196 H1184 0.959 . S
C1196 C1194 1.561 . S
C1197 C1194 1.526 . S
C1197 C1198 1.396 . S
C1197 C1202 1.390 . S
C1198 C1192 1.465 . S
C1198 C1197 1.396 . S
C1198 C1199 1.399 . S
C1199 H1185 0.929 . S
C1199 C1198 1.399 . S
C1199 C1200 1.385 . S
C1200 H1186 0.931 . S
C1200 C1199 1.385 . S
C1200 C1201 1.389 . S
C1201 C1200 1.389 . S
C1201 C1202 1.387 . S
C1202 H1187 0.930 . S
C1202 C1197 1.390 . S
C1202 C1201 1.387 . S
H1203 C1215 0.930 . S
H1204 C1217 0.930 . S
H1205 C1218 0.930 . S
H1206 C1222 0.959 . S
H1207 C1222 0.959 . S
H1208 C1222 0.961 . S
H1209 C1223 0.960 . S
H1210 C1223 0.961 . S
H1211 C1223 0.959 . S
H1212 C1226 0.929 . S
H1213 C1227 0.931 . S
H1214 C1229 0.930 . S
C1215 H1203 0.930 . S
C1215 C1216 1.399 . S
C1215 C1220 1.399 . S
C1216 C1215 1.399 . S
C1216 C1217 1.376 . S
C1217 H1204 0.930 . S
C1217 C1216 1.376 . S
C1217 C1218 1.388 . S
C1218 H1205 0.930 . S
C1218 C1217 1.388 . S
C1218 C1219 1.390 . S
C1219 C1218 1.390 . S
C1219 C1220 1.394 . S
C1219 C1225 1.465 . S
C1220 C1215 1.399 . S
C1220 C1219 1.394 . S
C1220 C1221 1.516 . S
C1221 C1220 1.516 . S
C1221 C1222 1.502 . S
C1221 C1223 1.561 . S
C1221 C1224 1.526 . S
C1222 H1206 0.959 . S
C1222 H1207 0.959 . S
C1222 H1208 0.961 . S
C1222 C1221 1.502 . S
C1223 H1209 0.960 . S
C1223 H1210 0.961 . S
C1223 H1211 0.959 . S
C1223 C1221 1.561 . S
C1224 C1221 1.526 . S
C1224 C1225 1.396 . S
C1224 C1229 1.390 . S
C1225 C1219 1.465 . S
C1225 C1224 1.396 . S
C1225 C1226 1.399 . S
C1226 H1212 0.929 . S
C1226 C1225 1.399 . S
C1226 C1227 1.385 . S
C1227 H1213 0.931 . S
C1227 C1226 1.385 . S
C1227 C1228 1.389 . S
C1228 C1227 1.389 . S
C1228 C1229 1.387 . S
C1229 H1214 0.930 . S
C1229 C1224 1.390 . S
C1229 C1228 1.387 . S
H1230 C1242 0.930 . S
H1231 C1244 0.930 . S
H1232 C1245 0.930 . S
H1233 C1249 0.959 . S
H1234 C1249 0.959 1_556 S
H1235 C1249 0.961 . S
H1236 C1250 0.960 . S
H1237 C1250 0.961 . S
H1238 C1250 0.959 . S
H1239 C1253 0.929 . S
H1240 C1254 0.931 . S
H1241 C1256 0.930 . S
C1242 H1230 0.930 . S
C1242 C1243 1.399 . S
C1242 C1247 1.399 . S
C1243 C1242 1.399 . S
C1243 C1244 1.376 . S
C1244 H1231 0.930 . S
C1244 C1243 1.376 . S
C1244 C1245 1.388 . S
C1245 H1232 0.930 . S
C1245 C1244 1.388 . S
C1245 C1246 1.390 . S
C1246 C1245 1.390 . S
C1246 C1247 1.394 . S
C1246 C1252 1.465 . S
C1247 C1242 1.399 . S
C1247 C1246 1.394 . S
C1247 C1248 1.516 . S
C1248 C1247 1.516 . S
C1248 C1249 1.502 . S
C1248 C1250 1.561 . S
C1248 C1251 1.526 . S
C1249 H1233 0.959 . S
C1249 H1234 0.959 1_554 S
C1249 H1235 0.961 . S
C1249 C1248 1.502 . S
C1250 H1236 0.960 . S
C1250 H1237 0.961 . S
C1250 H1238 0.959 . S
C1250 C1248 1.561 . S
C1251 C1248 1.526 . S
C1251 C1252 1.396 . S
C1251 C1256 1.390 1_554 S
C1252 C1246 1.465 . S
C1252 C1251 1.396 . S
C1252 C1253 1.399 . S
C1253 H1239 0.929 . S
C1253 C1252 1.399 . S
C1253 C1254 1.385 1_554 S
C1254 H1240 0.931 . S
C1254 C1253 1.385 1_556 S
C1254 C1255 1.389 . S
C1255 C1254 1.389 . S
C1255 C1256 1.387 . S
C1256 H1241 0.930 . S
C1256 C1251 1.390 1_556 S
C1256 C1255 1.387 . S
H1257 C1269 0.930 . S
H1258 C1271 0.930 . S
H1259 C1272 0.930 . S
H1260 C1276 0.959 . S
H1261 C1276 0.959 . S
H1262 C1276 0.961 . S
H1263 C1277 0.960 . S
H1264 C1277 0.961 . S
H1265 C1277 0.959 . S
H1266 C1280 0.929 . S
H1267 C1281 0.931 . S
H1268 C1283 0.930 . S
C1269 H1257 0.930 . S
C1269 C1270 1.399 . S
C1269 C1274 1.399 . S
C1270 C1269 1.399 . S
C1270 C1271 1.376 . S
C1271 H1258 0.930 . S
C1271 C1270 1.376 . S
C1271 C1272 1.388 . S
C1272 H1259 0.930 . S
C1272 C1271 1.388 . S
C1272 C1273 1.390 . S
C1273 C1272 1.390 . S
C1273 C1274 1.394 . S
C1273 C1279 1.465 . S
C1274 C1269 1.399 . S
C1274 C1273 1.394 . S
C1274 C1275 1.516 . S
C1275 C1274 1.516 . S
C1275 C1276 1.502 . S
C1275 C1277 1.561 . S
C1275 C1278 1.526 . S
C1276 H1260 0.959 . S
C1276 H1261 0.959 . S
C1276 H1262 0.961 . S
C1276 C1275 1.502 . S
C1277 H1263 0.960 . S
C1277 H1264 0.961 . S
C1277 H1265 0.959 . S
C1277 C1275 1.561 . S
C1278 C1275 1.526 . S
C1278 C1279 1.396 . S
C1278 C1283 1.390 . S
C1279 C1273 1.465 . S
C1279 C1278 1.396 . S
C1279 C1280 1.399 . S
C1280 H1266 0.929 . S
C1280 C1279 1.399 . S
C1280 C1281 1.385 . S
C1281 H1267 0.931 . S
C1281 C1280 1.385 . S
C1281 C1282 1.389 . S
C1282 C1281 1.389 . S
C1282 C1283 1.387 . S
C1283 H1268 0.930 . S
C1283 C1278 1.390 . S
C1283 C1282 1.387 . S
H1284 C1296 0.930 . S
H1285 C1298 0.930 . S
H1286 C1299 0.930 . S
H1287 C1303 0.959 . S
H1288 C1303 0.959 . S
H1289 C1303 0.961 . S
H1290 C1304 0.960 . S
H1291 C1304 0.961 . S
H1292 C1304 0.959 . S
H1293 C1307 0.929 . S
H1294 C1308 0.931 . S
H1295 C1310 0.930 . S
C1296 H1284 0.930 . S
C1296 C1297 1.399 . S
C1296 C1301 1.399 . S
C1297 C1296 1.399 . S
C1297 C1298 1.376 . S
C1298 H1285 0.930 . S
C1298 C1297 1.376 . S
C1298 C1299 1.388 . S
C1299 H1286 0.930 . S
C1299 C1298 1.388 . S
C1299 C1300 1.390 . S
C1300 C1299 1.390 . S
C1300 C1301 1.394 . S
C1300 C1306 1.465 . S
C1301 C1296 1.399 . S
C1301 C1300 1.394 . S
C1301 C1302 1.516 . S
C1302 C1301 1.516 . S
C1302 C1303 1.502 . S
C1302 C1304 1.561 . S
C1302 C1305 1.526 . S
C1303 H1287 0.959 . S
C1303 H1288 0.959 . S
C1303 H1289 0.961 . S
C1303 C1302 1.502 . S
C1304 H1290 0.960 . S
C1304 H1291 0.961 . S
C1304 H1292 0.959 . S
C1304 C1302 1.561 . S
C1305 C1302 1.526 . S
C1305 C1306 1.396 . S
C1305 C1310 1.390 . S
C1306 C1300 1.465 . S
C1306 C1305 1.396 . S
C1306 C1307 1.399 . S
C1307 H1293 0.929 . S
C1307 C1306 1.399 . S
C1307 C1308 1.385 . S
C1308 H1294 0.931 . S
C1308 C1307 1.385 . S
C1308 C1309 1.389 . S
C1309 C1308 1.389 . S
C1309 C1310 1.387 . S
C1310 H1295 0.930 . S
C1310 C1305 1.390 . S
C1310 C1309 1.387 . S
H1311 C1323 0.930 . S
H1312 C1325 0.930 . S
H1313 C1326 0.930 1_565 S
H1314 C1330 0.959 . S
H1315 C1330 0.959 . S
H1316 C1330 0.963 1_455 S
H1317 C1331 0.960 . S
H1318 C1331 0.961 . S
H1319 C1331 0.959 . S
H1320 C1334 0.929 . S
H1321 C1335 0.931 . S
H1322 C1337 0.930 . S
C1323 H1311 0.930 . S
C1323 C1324 1.399 . S
C1323 C1328 1.399 1_455 S
C1324 C1323 1.399 . S
C1324 C1325 1.376 1_545 S
C1325 H1312 0.930 . S
C1325 C1324 1.376 1_565 S
C1325 C1326 1.388 1_465 S
C1326 H1313 0.930 1_545 S
C1326 C1325 1.388 1_645 S
C1326 C1327 1.390 . S
C1327 C1326 1.390 . S
C1327 C1328 1.394 . S
C1327 C1333 1.465 . S
C1328 C1323 1.399 1_655 S
C1328 C1327 1.394 . S
C1328 C1329 1.516 . S
C1329 C1328 1.516 . S
C1329 C1330 1.502 . S
C1329 C1331 1.561 . S
C1329 C1332 1.526 . S
C1330 H1314 0.959 . S
C1330 H1315 0.959 . S
C1330 H1316 0.963 1_655 S
C1330 C1329 1.502 . S
C1331 H1317 0.960 . S
C1331 H1318 0.961 . S
C1331 H1319 0.959 . S
C1331 C1329 1.561 . S
C1332 C1329 1.526 . S
C1332 C1333 1.396 . S
C1332 C1337 1.390 . S
C1333 C1327 1.465 . S
C1333 C1332 1.396 . S
C1333 C1334 1.399 . S
C1334 H1320 0.929 . S
C1334 C1333 1.399 . S
C1334 C1335 1.385 . S
C1335 H1321 0.931 . S
C1335 C1334 1.385 . S
C1335 C1336 1.389 . S
C1336 C1335 1.389 . S
C1336 C1337 1.387 . S
C1337 H1322 0.930 . S
C1337 C1332 1.390 . S
C1337 C1336 1.387 . S
H1338 C1350 0.930 . S
H1339 C1352 0.930 . S
H1340 C1353 0.930 . S
H1341 C1357 0.959 . S
H1342 C1357 0.959 . S
H1343 C1357 0.961 . S
H1344 C1358 0.960 . S
H1345 C1358 0.961 . S
H1346 C1358 0.959 . S
H1347 C1361 0.929 . S
H1348 C1362 0.931 . S
H1349 C1364 0.930 . S
C1350 H1338 0.930 . S
C1350 C1351 1.399 . S
C1350 C1355 1.399 . S
C1351 C1350 1.399 . S
C1351 C1352 1.376 . S
C1352 H1339 0.930 . S
C1352 C1351 1.376 . S
C1352 C1353 1.388 . S
C1353 H1340 0.930 . S
C1353 C1352 1.388 . S
C1353 C1354 1.390 . S
C1354 C1353 1.390 . S
C1354 C1355 1.394 . S
C1354 C1360 1.465 . S
C1355 C1350 1.399 . S
C1355 C1354 1.394 . S
C1355 C1356 1.516 . S
C1356 C1355 1.516 . S
C1356 C1357 1.502 . S
C1356 C1358 1.561 . S
C1356 C1359 1.526 . S
C1357 H1341 0.959 . S
C1357 H1342 0.959 . S
C1357 H1343 0.961 . S
C1357 C1356 1.502 . S
C1358 H1344 0.960 . S
C1358 H1345 0.961 . S
C1358 H1346 0.959 . S
C1358 C1356 1.561 . S
C1359 C1356 1.526 . S
C1359 C1360 1.396 . S
C1359 C1364 1.390 . S
C1360 C1354 1.465 . S
C1360 C1359 1.396 . S
C1360 C1361 1.399 . S
C1361 H1347 0.929 . S
C1361 C1360 1.399 . S
C1361 C1362 1.385 . S
C1362 H1348 0.931 . S
C1362 C1361 1.385 . S
C1362 C1363 1.389 . S
C1363 C1362 1.389 . S
C1363 C1364 1.387 . S
C1364 H1349 0.930 . S
C1364 C1359 1.390 . S
C1364 C1363 1.387 . S
H1365 C1377 0.930 1_545 S
H1366 C1379 0.930 . S
H1367 C1380 0.930 . S
H1368 C1384 0.962 . S
H1369 C1384 0.958 1_565 S
H1370 C1384 0.969 . S
H1371 C1385 0.960 . S
H1372 C1385 0.961 . S
H1373 C1385 0.959 . S
H1374 C1388 0.929 . S
H1375 C1389 0.931 . S
H1376 C1391 0.930 . S
C1377 H1365 0.930 1_565 S
C1377 C1378 1.399 . S
C1377 C1382 1.399 . S
C1378 C1377 1.399 . S
C1378 C1379 1.376 . S
C1379 H1366 0.930 . S
C1379 C1378 1.376 . S
C1379 C1380 1.388 . S
C1380 H1367 0.930 . S
C1380 C1379 1.388 . S
C1380 C1381 1.390 . S
C1381 C1380 1.390 . S
C1381 C1382 1.394 . S
C1381 C1387 1.465 . S
C1382 C1377 1.399 . S
C1382 C1381 1.394 . S
C1382 C1383 1.516 . S
C1383 C1382 1.516 . S
C1383 C1384 1.492 1_565 S
C1383 C1385 1.561 . S
C1383 C1386 1.526 . S
C1384 H1368 0.962 . S
C1384 H1369 0.958 1_545 S
C1384 H1370 0.969 . S
C1384 C1383 1.492 1_545 S
C1385 H1371 0.960 . S
C1385 H1372 0.961 . S
C1385 H1373 0.959 . S
C1385 C1383 1.561 . S
C1386 C1383 1.526 . S
C1386 C1387 1.396 . S
C1386 C1391 1.390 . S
C1387 C1381 1.465 . S
C1387 C1386 1.396 . S
C1387 C1388 1.399 . S
C1388 H1374 0.929 . S
C1388 C1387 1.399 . S
C1388 C1389 1.385 . S
C1389 H1375 0.931 . S
C1389 C1388 1.385 . S
C1389 C1390 1.389 . S
C1390 C1389 1.389 . S
C1390 C1391 1.387 . S
C1391 H1376 0.930 . S
C1391 C1386 1.390 . S
C1391 C1390 1.387 . S
H1392 C1404 0.930 . S
H1393 C1406 0.930 . S
H1394 C1407 0.930 . S
H1395 C1411 0.959 . S
H1396 C1411 0.959 . S
H1397 C1411 0.961 . S
H1398 C1412 0.960 . S
H1399 C1412 0.961 . S
H1400 C1412 0.959 . S
H1401 C1415 0.929 . S
H1402 C1416 0.931 . S
H1403 C1418 0.930 . S
C1404 H1392 0.930 . S
C1404 C1405 1.399 . S
C1404 C1409 1.399 . S
C1405 C1404 1.399 . S
C1405 C1406 1.376 . S
C1406 H1393 0.930 . S
C1406 C1405 1.376 . S
C1406 C1407 1.388 . S
C1407 H1394 0.930 . S
C1407 C1406 1.388 . S
C1407 C1408 1.390 . S
C1408 C1407 1.390 . S
C1408 C1409 1.394 . S
C1408 C1414 1.465 . S
C1409 C1404 1.399 . S
C1409 C1408 1.394 . S
C1409 C1410 1.516 . S
C1410 C1409 1.516 . S
C1410 C1411 1.502 . S
C1410 C1412 1.561 . S
C1410 C1413 1.526 . S
C1411 H1395 0.959 . S
C1411 H1396 0.959 . S
C1411 H1397 0.961 . S
C1411 C1410 1.502 . S
C1412 H1398 0.960 . S
C1412 H1399 0.961 . S
C1412 H1400 0.959 . S
C1412 C1410 1.561 . S
C1413 C1410 1.526 . S
C1413 C1414 1.396 . S
C1413 C1418 1.390 . S
C1414 C1408 1.465 . S
C1414 C1413 1.396 . S
C1414 C1415 1.399 . S
C1415 H1401 0.929 . S
C1415 C1414 1.399 . S
C1415 C1416 1.385 . S
C1416 H1402 0.931 . S
C1416 C1415 1.385 . S
C1416 C1417 1.389 . S
C1417 C1416 1.389 . S
C1417 C1418 1.387 . S
C1418 H1403 0.930 . S
C1418 C1413 1.390 . S
C1418 C1417 1.387 . S
H1419 C1431 0.930 . S
H1420 C1433 0.930 . S
H1421 C1434 0.933 . S
H1422 C1438 0.959 . S
H1423 C1438 0.959 . S
H1424 C1438 0.961 . S
H1425 C1439 0.960 . S
H1426 C1439 0.961 . S
H1427 C1439 0.959 . S
H1428 C1442 0.929 . S
H1429 C1443 0.931 . S
H1430 C1445 0.930 . S
C1431 H1419 0.930 . S
C1431 C1432 1.399 . S
C1431 C1436 1.399 1_655 S
C1432 C1431 1.399 . S
C1432 C1433 1.376 . S
C1433 H1420 0.930 . S
C1433 C1432 1.376 . S
C1433 C1434 1.388 . S
C1434 H1421 0.933 . S
C1434 C1433 1.388 . S
C1434 C1435 1.390 1_655 S
C1435 C1434 1.390 1_455 S
C1435 C1436 1.394 . S
C1435 C1441 1.465 . S
C1436 C1431 1.399 1_455 S
C1436 C1435 1.394 . S
C1436 C1437 1.516 . S
C1437 C1436 1.516 . S
C1437 C1438 1.502 . S
C1437 C1439 1.561 . S
C1437 C1440 1.526 . S
C1438 H1422 0.959 . S
C1438 H1423 0.959 . S
C1438 H1424 0.961 . S
C1438 C1437 1.502 . S
C1439 H1425 0.960 . S
C1439 H1426 0.961 . S
C1439 H1427 0.959 . S
C1439 C1437 1.561 . S
C1440 C1437 1.526 . S
C1440 C1441 1.396 . S
C1440 C1445 1.390 . S
C1441 C1435 1.465 . S
C1441 C1440 1.396 . S
C1441 C1442 1.399 . S
C1442 H1428 0.929 . S
C1442 C1441 1.399 . S
C1442 C1443 1.385 . S
C1443 H1429 0.931 . S
C1443 C1442 1.385 . S
C1443 C1444 1.389 . S
C1444 C1443 1.389 . S
C1444 C1445 1.387 . S
C1445 H1430 0.930 . S
C1445 C1440 1.390 . S
C1445 C1444 1.387 . S
H1446 C1458 0.930 . S
H1447 C1460 0.930 . S
H1448 C1461 0.930 . S
H1449 C1465 0.959 . S
H1450 C1465 0.959 . S
H1451 C1465 0.961 . S
H1452 C1466 0.960 . S
H1453 C1466 0.961 . S
H1454 C1466 0.959 . S
H1455 C1469 0.929 . S
H1456 C1470 0.931 . S
H1457 C1472 0.930 . S
C1458 H1446 0.930 . S
C1458 C1459 1.399 . S
C1458 C1463 1.399 . S
C1459 C1458 1.399 . S
C1459 C1460 1.376 . S
C1460 H1447 0.930 . S
C1460 C1459 1.376 . S
C1460 C1461 1.388 . S
C1461 H1448 0.930 . S
C1461 C1460 1.388 . S
C1461 C1462 1.390 . S
C1462 C1461 1.390 . S
C1462 C1463 1.394 . S
C1462 C1468 1.465 . S
C1463 C1458 1.399 . S
C1463 C1462 1.394 . S
C1463 C1464 1.516 . S
C1464 C1463 1.516 . S
C1464 C1465 1.502 . S
C1464 C1466 1.561 . S
C1464 C1467 1.526 . S
C1465 H1449 0.959 . S
C1465 H1450 0.959 . S
C1465 H1451 0.961 . S
C1465 C1464 1.502 . S
C1466 H1452 0.960 . S
C1466 H1453 0.961 . S
C1466 H1454 0.959 . S
C1466 C1464 1.561 . S
C1467 C1464 1.526 . S
C1467 C1468 1.396 . S
C1467 C1472 1.390 . S
C1468 C1462 1.465 . S
C1468 C1467 1.396 . S
C1468 C1469 1.399 . S
C1469 H1455 0.929 . S
C1469 C1468 1.399 . S
C1469 C1470 1.385 . S
C1470 H1456 0.931 . S
C1470 C1469 1.385 . S
C1470 C1471 1.389 . S
C1471 C1470 1.389 . S
C1471 C1472 1.387 . S
C1472 H1457 0.930 . S
C1472 C1467 1.390 . S
C1472 C1471 1.387 . S
H1473 C1485 0.930 . S
H1474 C1487 0.930 . S
H1475 C1488 0.930 . S
H1476 C1492 0.959 . S
H1477 C1492 0.959 . S
H1478 C1492 0.961 . S
H1479 C1493 0.960 . S
H1480 C1493 0.961 . S
H1481 C1493 0.959 . S
H1482 C1496 0.929 . S
H1483 C1497 0.931 . S
H1484 C1499 0.930 . S
C1485 H1473 0.930 . S
C1485 C1486 1.399 . S
C1485 C1490 1.399 . S
C1486 C1485 1.399 . S
C1486 C1487 1.376 . S
C1487 H1474 0.930 . S
C1487 C1486 1.376 . S
C1487 C1488 1.388 . S
C1488 H1475 0.930 . S
C1488 C1487 1.388 . S
C1488 C1489 1.390 . S
C1489 C1488 1.390 . S
C1489 C1490 1.394 . S
C1489 C1495 1.465 . S
C1490 C1485 1.399 . S
C1490 C1489 1.394 . S
C1490 C1491 1.516 . S
C1491 C1490 1.516 . S
C1491 C1492 1.502 . S
C1491 C1493 1.561 . S
C1491 C1494 1.526 . S
C1492 H1476 0.959 . S
C1492 H1477 0.959 . S
C1492 H1478 0.961 . S
C1492 C1491 1.502 . S
C1493 H1479 0.960 . S
C1493 H1480 0.961 . S
C1493 H1481 0.959 . S
C1493 C1491 1.561 . S
C1494 C1491 1.526 . S
C1494 C1495 1.396 . S
C1494 C1499 1.390 . S
C1495 C1489 1.465 . S
C1495 C1494 1.396 . S
C1495 C1496 1.399 . S
C1496 H1482 0.929 . S
C1496 C1495 1.399 . S
C1496 C1497 1.385 . S
C1497 H1483 0.931 . S
C1497 C1496 1.385 . S
C1497 C1498 1.389 . S
C1498 C1497 1.389 . S
C1498 C1499 1.387 . S
C1499 H1484 0.930 . S
C1499 C1494 1.390 . S
C1499 C1498 1.387 . S
H1500 C1512 0.930 . S
H1501 C1514 0.930 . S
H1502 C1515 0.930 . S
H1503 C1519 0.959 . S
H1504 C1519 0.959 . S
H1505 C1519 0.961 . S
H1506 C1520 0.960 . S
H1507 C1520 0.961 . S
H1508 C1520 0.959 . S
H1509 C1523 0.929 . S
H1510 C1524 0.931 . S
H1511 C1526 0.930 . S
C1512 H1500 0.930 . S
C1512 C1513 1.399 . S
C1512 C1517 1.399 . S
C1513 C1512 1.399 . S
C1513 C1514 1.376 . S
C1514 H1501 0.930 . S
C1514 C1513 1.376 . S
C1514 C1515 1.388 . S
C1515 H1502 0.930 . S
C1515 C1514 1.388 . S
C1515 C1516 1.390 . S
C1516 C1515 1.390 . S
C1516 C1517 1.394 . S
C1516 C1522 1.465 . S
C1517 C1512 1.399 . S
C1517 C1516 1.394 . S
C1517 C1518 1.516 . S
C1518 C1517 1.516 . S
C1518 C1519 1.502 . S
C1518 C1520 1.561 . S
C1518 C1521 1.526 . S
C1519 H1503 0.959 . S
C1519 H1504 0.959 . S
C1519 H1505 0.961 . S
C1519 C1518 1.502 . S
C1520 H1506 0.960 . S
C1520 H1507 0.961 . S
C1520 H1508 0.959 . S
C1520 C1518 1.561 . S
C1521 C1518 1.526 . S
C1521 C1522 1.396 . S
C1521 C1526 1.390 . S
C1522 C1516 1.465 . S
C1522 C1521 1.396 . S
C1522 C1523 1.399 . S
C1523 H1509 0.929 . S
C1523 C1522 1.399 . S
C1523 C1524 1.385 . S
C1524 H1510 0.931 . S
C1524 C1523 1.385 . S
C1524 C1525 1.389 . S
C1525 C1524 1.389 . S
C1525 C1526 1.387 . S
C1526 H1511 0.930 . S
C1526 C1521 1.390 . S
C1526 C1525 1.387 . S
H1527 C1539 0.930 . S
H1528 C1541 0.930 . S
H1529 C1542 0.930 . S
H1530 C1546 0.959 . S
H1531 C1546 0.959 . S
H1532 C1546 0.961 . S
H1533 C1547 0.960 . S
H1534 C1547 0.961 . S
H1535 C1547 0.959 . S
H1536 C1550 0.929 . S
H1537 C1551 0.931 . S
H1538 C1553 0.930 . S
C1539 H1527 0.930 . S
C1539 C1540 1.399 . S
C1539 C1544 1.399 . S
C1540 C1539 1.399 . S
C1540 C1541 1.376 . S
C1541 H1528 0.930 . S
C1541 C1540 1.376 . S
C1541 C1542 1.388 . S
C1542 H1529 0.930 . S
C1542 C1541 1.388 . S
C1542 C1543 1.390 . S
C1543 C1542 1.390 . S
C1543 C1544 1.394 . S
C1543 C1549 1.465 . S
C1544 C1539 1.399 . S
C1544 C1543 1.394 . S
C1544 C1545 1.516 . S
C1545 C1544 1.516 . S
C1545 C1546 1.502 . S
C1545 C1547 1.561 . S
C1545 C1548 1.526 . S
C1546 H1530 0.959 . S
C1546 H1531 0.959 . S
C1546 H1532 0.961 . S
C1546 C1545 1.502 . S
C1547 H1533 0.960 . S
C1547 H1534 0.961 . S
C1547 H1535 0.959 . S
C1547 C1545 1.561 . S
C1548 C1545 1.526 . S
C1548 C1549 1.396 . S
C1548 C1553 1.390 . S
C1549 C1543 1.465 . S
C1549 C1548 1.396 . S
C1549 C1550 1.399 . S
C1550 H1536 0.929 . S
C1550 C1549 1.399 . S
C1550 C1551 1.385 . S
C1551 H1537 0.931 . S
C1551 C1550 1.385 . S
C1551 C1552 1.389 . S
C1552 C1551 1.389 . S
C1552 C1553 1.387 . S
C1553 H1538 0.930 . S
C1553 C1548 1.390 . S
C1553 C1552 1.387 . S
H1554 C1566 0.930 . S
H1555 C1568 0.930 . S
H1556 C1569 0.930 . S
H1557 C1573 0.959 . S
H1558 C1573 0.959 . S
H1559 C1573 0.961 . S
H1560 C1574 0.960 . S
H1561 C1574 0.961 . S
H1562 C1574 0.959 . S
H1563 C1577 0.929 . S
H1564 C1578 0.931 . S
H1565 C1580 0.930 . S
C1566 H1554 0.930 . S
C1566 C1567 1.399 . S
C1566 C1571 1.399 . S
C1567 C1566 1.399 . S
C1567 C1568 1.376 . S
C1568 H1555 0.930 . S
C1568 C1567 1.376 . S
C1568 C1569 1.388 . S
C1569 H1556 0.930 . S
C1569 C1568 1.388 . S
C1569 C1570 1.390 . S
C1570 C1569 1.390 . S
C1570 C1571 1.394 . S
C1570 C1576 1.465 . S
C1571 C1566 1.399 . S
C1571 C1570 1.394 . S
C1571 C1572 1.516 . S
C1572 C1571 1.516 . S
C1572 C1573 1.502 . S
C1572 C1574 1.561 . S
C1572 C1575 1.526 . S
C1573 H1557 0.959 . S
C1573 H1558 0.959 . S
C1573 H1559 0.961 . S
C1573 C1572 1.502 . S
C1574 H1560 0.960 . S
C1574 H1561 0.961 . S
C1574 H1562 0.959 . S
C1574 C1572 1.561 . S
C1575 C1572 1.526 . S
C1575 C1576 1.396 . S
C1575 C1580 1.390 . S
C1576 C1570 1.465 . S
C1576 C1575 1.396 . S
C1576 C1577 1.399 . S
C1577 H1563 0.929 . S
C1577 C1576 1.399 . S
C1577 C1578 1.385 . S
C1578 H1564 0.931 . S
C1578 C1577 1.385 . S
C1578 C1579 1.389 . S
C1579 C1578 1.389 . S
C1579 C1580 1.387 . S
C1580 H1565 0.930 . S
C1580 C1575 1.390 . S
C1580 C1579 1.387 . S
H1581 C1593 0.930 . S
H1582 C1595 0.930 . S
H1583 C1596 0.930 . S
H1584 C1600 0.959 . S
H1585 C1600 0.959 . S
H1586 C1600 0.961 . S
H1587 C1601 0.960 1_554 S
H1588 C1601 0.961 . S
H1589 C1601 0.959 . S
H1590 C1604 0.929 . S
H1591 C1605 0.931 . S
H1592 C1607 0.930 . S
C1593 H1581 0.930 . S
C1593 C1594 1.399 . S
C1593 C1598 1.399 . S
C1594 C1593 1.399 . S
C1594 C1595 1.376 . S
C1595 H1582 0.930 . S
C1595 C1594 1.376 . S
C1595 C1596 1.388 . S
C1596 H1583 0.930 . S
C1596 C1595 1.388 . S
C1596 C1597 1.390 . S
C1597 C1596 1.390 . S
C1597 C1598 1.394 . S
C1597 C1603 1.465 . S
C1598 C1593 1.399 . S
C1598 C1597 1.394 . S
C1598 C1599 1.516 . S
C1599 C1598 1.516 . S
C1599 C1600 1.502 . S
C1599 C1601 1.561 1_554 S
C1599 C1602 1.526 . S
C1600 H1584 0.959 . S
C1600 H1585 0.959 . S
C1600 H1586 0.961 . S
C1600 C1599 1.502 . S
C1601 H1587 0.960 1_556 S
C1601 H1588 0.961 . S
C1601 H1589 0.959 . S
C1601 C1599 1.561 1_556 S
C1602 C1599 1.526 . S
C1602 C1603 1.396 . S
C1602 C1607 1.390 1_554 S
C1603 C1597 1.465 . S
C1603 C1602 1.396 . S
C1603 C1604 1.399 1_554 S
C1604 H1590 0.929 . S
C1604 C1603 1.399 1_556 S
C1604 C1605 1.385 . S
C1605 H1591 0.931 . S
C1605 C1604 1.385 . S
C1605 C1606 1.389 . S
C1606 C1605 1.389 . S
C1606 C1607 1.387 . S
C1607 H1592 0.930 . S
C1607 C1602 1.390 1_556 S
C1607 C1606 1.387 . S
H1608 C1620 0.930 . S
H1609 C1622 0.925 1_565 S
H1610 C1623 0.930 . S
H1611 C1627 0.959 . S
H1612 C1627 0.959 . S
H1613 C1627 0.961 . S
H1614 C1628 0.960 1_565 S
H1615 C1628 0.961 . S
H1616 C1628 0.959 . S
H1617 C1631 0.929 . S
H1618 C1632 0.931 . S
H1619 C1634 0.930 . S
C1620 H1608 0.930 . S
C1620 C1621 1.399 . S
C1620 C1625 1.399 1_565 S
C1621 C1620 1.399 . S
C1621 C1622 1.364 1_565 S
C1622 H1609 0.925 1_545 S
C1622 C1621 1.364 1_545 S
C1622 C1623 1.407 . S
C1623 H1610 0.930 . S
C1623 C1622 1.407 . S
C1623 C1624 1.390 . S
C1624 C1623 1.390 . S
C1624 C1625 1.394 . S
C1624 C1630 1.465 . S
C1625 C1620 1.399 1_545 S
C1625 C1624 1.394 . S
C1625 C1626 1.516 . S
C1626 C1625 1.516 . S
C1626 C1627 1.502 . S
C1626 C1628 1.561 . S
C1626 C1629 1.526 . S
C1627 H1611 0.959 . S
C1627 H1612 0.959 . S
C1627 H1613 0.961 . S
C1627 C1626 1.502 . S
C1628 H1614 0.960 1_545 S
C1628 H1615 0.961 . S
C1628 H1616 0.959 . S
C1628 C1626 1.561 . S
C1629 C1626 1.526 . S
C1629 C1630 1.396 . S
C1629 C1634 1.390 . S
C1630 C1624 1.465 . S
C1630 C1629 1.396 . S
C1630 C1631 1.399 . S
C1631 H1617 0.929 . S
C1631 C1630 1.399 . S
C1631 C1632 1.385 . S
C1632 H1618 0.931 . S
C1632 C1631 1.385 . S
C1632 C1633 1.389 . S
C1633 C1632 1.389 . S
C1633 C1634 1.387 . S
C1634 H1619 0.930 . S
C1634 C1629 1.390 . S
C1634 C1633 1.387 . S
H1635 C1647 0.930 . S
H1636 C1649 0.930 . S
H1637 C1650 0.930 . S
H1638 C1654 0.959 . S
H1639 C1654 0.959 . S
H1640 C1654 0.961 . S
H1641 C1655 0.960 . S
H1642 C1655 0.961 . S
H1643 C1655 0.959 . S
H1644 C1658 0.929 . S
H1645 C1659 0.931 . S
H1646 C1661 0.930 . S
C1647 H1635 0.930 . S
C1647 C1648 1.399 . S
C1647 C1652 1.399 1_554 S
C1648 C1647 1.399 . S
C1648 C1649 1.376 . S
C1649 H1636 0.930 . S
C1649 C1648 1.376 . S
C1649 C1650 1.388 1_554 S
C1650 H1637 0.930 . S
C1650 C1649 1.388 1_556 S
C1650 C1651 1.390 . S
C1651 C1650 1.390 . S
C1651 C1652 1.394 . S
C1651 C1657 1.465 . S
C1652 C1647 1.399 1_556 S
C1652 C1651 1.394 . S
C1652 C1653 1.516 . S
C1653 C1652 1.516 . S
C1653 C1654 1.502 . S
C1653 C1655 1.561 1_556 S
C1653 C1656 1.526 . S
C1654 H1638 0.959 . S
C1654 H1639 0.959 . S
C1654 H1640 0.961 . S
C1654 C1653 1.502 . S
C1655 H1641 0.960 . S
C1655 H1642 0.961 . S
C1655 H1643 0.959 . S
C1655 C1653 1.561 1_554 S
C1656 C1653 1.526 . S
C1656 C1657 1.396 . S
C1656 C1661 1.390 . S
C1657 C1651 1.465 . S
C1657 C1656 1.396 . S
C1657 C1658 1.399 . S
C1658 H1644 0.929 . S
C1658 C1657 1.399 . S
C1658 C1659 1.385 . S
C1659 H1645 0.931 . S
C1659 C1658 1.385 . S
C1659 C1660 1.389 . S
C1660 C1659 1.389 . S
C1660 C1661 1.387 . S
C1661 H1646 0.930 . S
C1661 C1656 1.390 . S
C1661 C1660 1.387 . S
H1662 C1674 0.930 . S
H1663 C1676 0.930 . S
H1664 C1677 0.930 . S
H1665 C1681 0.959 . S
H1666 C1681 0.959 . S
H1667 C1681 0.961 . S
H1668 C1682 0.960 . S
H1669 C1682 0.961 . S
H1670 C1682 0.959 . S
H1671 C1685 0.929 . S
H1672 C1686 0.931 . S
H1673 C1688 0.930 . S
C1674 H1662 0.930 . S
C1674 C1675 1.399 1_565 S
C1674 C1679 1.399 . S
C1675 C1674 1.399 1_545 S
C1675 C1676 1.376 . S
C1676 H1663 0.930 . S
C1676 C1675 1.376 . S
C1676 C1677 1.388 . S
C1677 H1664 0.930 . S
C1677 C1676 1.388 . S
C1677 C1678 1.390 1_545 S
C1678 C1677 1.390 1_565 S
C1678 C1679 1.394 . S
C1678 C1684 1.465 . S
C1679 C1674 1.399 . S
C1679 C1678 1.394 . S
C1679 C1680 1.516 . S
C1680 C1679 1.516 . S
C1680 C1681 1.502 . S
C1680 C1682 1.561 . S
C1680 C1683 1.526 . S
C1681 H1665 0.959 . S
C1681 H1666 0.959 . S
C1681 H1667 0.961 . S
C1681 C1680 1.502 . S
C1682 H1668 0.960 . S
C1682 H1669 0.961 . S
C1682 H1670 0.959 . S
C1682 C1680 1.561 . S
C1683 C1680 1.526 . S
C1683 C1684 1.396 . S
C1683 C1688 1.390 . S
C1684 C1678 1.465 . S
C1684 C1683 1.396 . S
C1684 C1685 1.399 . S
C1685 H1671 0.929 . S
C1685 C1684 1.399 . S
C1685 C1686 1.385 . S
C1686 H1672 0.931 . S
C1686 C1685 1.385 . S
C1686 C1687 1.389 . S
C1687 C1686 1.389 . S
C1687 C1688 1.387 . S
C1688 H1673 0.930 . S
C1688 C1683 1.390 . S
C1688 C1687 1.387 . S
H1689 C1701 0.930 . S
H1690 C1703 0.930 . S
H1691 C1704 0.930 . S
H1692 C1708 0.959 . S
H1693 C1708 0.959 . S
H1694 C1708 0.961 . S
H1695 C1709 0.960 . S
H1696 C1709 0.961 . S
H1697 C1709 0.959 . S
H1698 C1712 0.929 . S
H1699 C1713 0.931 . S
H1700 C1715 0.930 . S
C1701 H1689 0.930 . S
C1701 C1702 1.399 . S
C1701 C1706 1.399 . S
C1702 C1701 1.399 . S
C1702 C1703 1.376 . S
C1703 H1690 0.930 . S
C1703 C1702 1.376 . S
C1703 C1704 1.388 . S
C1704 H1691 0.930 . S
C1704 C1703 1.388 . S
C1704 C1705 1.390 . S
C1705 C1704 1.390 . S
C1705 C1706 1.394 . S
C1705 C1711 1.465 . S
C1706 C1701 1.399 . S
C1706 C1705 1.394 . S
C1706 C1707 1.516 . S
C1707 C1706 1.516 . S
C1707 C1708 1.502 . S
C1707 C1709 1.561 . S
C1707 C1710 1.526 . S
C1708 H1692 0.959 . S
C1708 H1693 0.959 . S
C1708 H1694 0.961 . S
C1708 C1707 1.502 . S
C1709 H1695 0.960 . S
C1709 H1696 0.961 . S
C1709 H1697 0.959 . S
C1709 C1707 1.561 . S
C1710 C1707 1.526 . S
C1710 C1711 1.396 . S
C1710 C1715 1.390 . S
C1711 C1705 1.465 . S
C1711 C1710 1.396 . S
C1711 C1712 1.399 . S
C1712 H1698 0.929 . S
C1712 C1711 1.399 . S
C1712 C1713 1.385 . S
C1713 H1699 0.931 . S
C1713 C1712 1.385 . S
C1713 C1714 1.389 . S
C1714 C1713 1.389 . S
C1714 C1715 1.387 . S
C1715 H1700 0.930 . S
C1715 C1710 1.390 . S
C1715 C1714 1.387 . S
H1716 C1728 0.930 . S
H1717 C1730 0.930 . S
H1718 C1731 0.930 . S
H1719 C1735 0.959 . S
H1720 C1735 0.959 . S
H1721 C1735 0.961 . S
H1722 C1736 0.960 . S
H1723 C1736 0.989 . S
H1724 C1736 0.959 . S
H1725 C1739 0.929 . S
H1726 C1740 0.931 . S
H1727 C1742 0.930 . S
C1728 H1716 0.930 . S
C1728 C1729 1.399 . S
C1728 C1733 1.399 . S
C1729 C1728 1.399 . S
C1729 C1730 1.376 . S
C1730 H1717 0.930 . S
C1730 C1729 1.376 . S
C1730 C1731 1.388 . S
C1731 H1718 0.930 . S
C1731 C1730 1.388 . S
C1731 C1732 1.390 . S
C1732 C1731 1.390 . S
C1732 C1733 1.394 . S
C1732 C1738 1.465 . S
C1733 C1728 1.399 . S
C1733 C1732 1.394 . S
C1733 C1734 1.516 . S
C1734 C1733 1.516 . S
C1734 C1735 1.502 . S
C1734 C1736 1.561 . S
C1734 C1737 1.526 . S
C1735 H1719 0.959 . S
C1735 H1720 0.959 . S
C1735 H1721 0.961 . S
C1735 C1734 1.502 . S
C1736 H1722 0.960 . S
C1736 H1723 0.989 . S
C1736 H1724 0.959 . S
C1736 C1734 1.561 . S
C1737 C1734 1.526 . S
C1737 C1738 1.396 . S
C1737 C1742 1.390 . S
C1738 C1732 1.465 . S
C1738 C1737 1.396 . S
C1738 C1739 1.399 . S
C1739 H1725 0.929 . S
C1739 C1738 1.399 . S
C1739 C1740 1.385 . S
C1740 H1726 0.931 . S
C1740 C1739 1.385 . S
C1740 C1741 1.389 . S
C1741 C1740 1.389 . S
C1741 C1742 1.387 . S
C1742 H1727 0.930 . S
C1742 C1737 1.390 . S
C1742 C1741 1.387 . S
H1743 C1755 0.930 . S
H1744 C1757 0.930 . S
H1745 C1758 0.930 . S
H1746 C1762 0.959 . S
H1747 C1762 0.959 . S
H1748 C1762 0.961 . S
H1749 C1763 0.960 . S
H1750 C1763 0.961 . S
H1751 C1763 0.959 . S
H1752 C1766 0.929 . S
H1753 C1767 0.931 . S
H1754 C1769 0.930 . S
C1755 H1743 0.930 . S
C1755 C1756 1.399 1_545 S
C1755 C1760 1.399 . S
C1756 C1755 1.399 1_565 S
C1756 C1757 1.376 . S
C1757 H1744 0.930 . S
C1757 C1756 1.376 . S
C1757 C1758 1.388 . S
C1758 H1745 0.930 . S
C1758 C1757 1.388 . S
C1758 C1759 1.390 1_565 S
C1759 C1758 1.390 1_545 S
C1759 C1760 1.394 . S
C1759 C1765 1.465 . S
C1760 C1755 1.399 . S
C1760 C1759 1.394 . S
C1760 C1761 1.516 . S
C1761 C1760 1.516 . S
C1761 C1762 1.502 . S
C1761 C1763 1.561 . S
C1761 C1764 1.526 . S
C1762 H1746 0.959 . S
C1762 H1747 0.959 . S
C1762 H1748 0.961 . S
C1762 C1761 1.502 . S
C1763 H1749 0.960 . S
C1763 H1750 0.961 . S
C1763 H1751 0.959 . S
C1763 C1761 1.561 . S
C1764 C1761 1.526 . S
C1764 C1765 1.396 . S
C1764 C1769 1.390 . S
C1765 C1759 1.465 . S
C1765 C1764 1.396 . S
C1765 C1766 1.399 . S
C1766 H1752 0.929 . S
C1766 C1765 1.399 . S
C1766 C1767 1.385 . S
C1767 H1753 0.931 . S
C1767 C1766 1.385 . S
C1767 C1768 1.389 . S
C1768 C1767 1.389 . S
C1768 C1769 1.387 . S
C1769 H1754 0.930 . S
C1769 C1764 1.390 . S
C1769 C1768 1.387 . S
H1770 C1782 0.930 . S
H1771 C1784 0.930 . S
H1772 C1785 0.930 . S
H1773 C1789 0.959 . S
H1774 C1789 0.959 . S
H1775 C1789 0.961 . S
H1776 C1790 0.960 . S
H1777 C1790 0.961 . S
H1778 C1790 0.959 . S
H1779 C1793 0.929 . S
H1780 C1794 0.931 . S
H1781 C1796 0.930 . S
C1782 H1770 0.930 . S
C1782 C1783 1.399 . S
C1782 C1787 1.399 . S
C1783 C1782 1.399 . S
C1783 C1784 1.376 . S
C1784 H1771 0.930 . S
C1784 C1783 1.376 . S
C1784 C1785 1.388 . S
C1785 H1772 0.930 . S
C1785 C1784 1.388 . S
C1785 C1786 1.390 . S
C1786 C1785 1.390 . S
C1786 C1787 1.394 . S
C1786 C1792 1.465 . S
C1787 C1782 1.399 . S
C1787 C1786 1.394 . S
C1787 C1788 1.516 . S
C1788 C1787 1.516 . S
C1788 C1789 1.502 . S
C1788 C1790 1.561 . S
C1788 C1791 1.526 . S
C1789 H1773 0.959 . S
C1789 H1774 0.959 . S
C1789 H1775 0.961 . S
C1789 C1788 1.502 . S
C1790 H1776 0.960 . S
C1790 H1777 0.961 . S
C1790 H1778 0.959 . S
C1790 C1788 1.561 . S
C1791 C1788 1.526 . S
C1791 C1792 1.396 . S
C1791 C1796 1.390 . S
C1792 C1786 1.465 . S
C1792 C1791 1.396 . S
C1792 C1793 1.399 . S
C1793 H1779 0.929 . S
C1793 C1792 1.399 . S
C1793 C1794 1.385 1_556 S
C1794 H1780 0.931 . S
C1794 C1793 1.385 1_554 S
C1794 C1795 1.389 . S
C1795 C1794 1.389 . S
C1795 C1796 1.387 1_554 S
C1796 H1781 0.930 . S
C1796 C1791 1.390 . S
C1796 C1795 1.387 1_556 S
H1797 C1809 0.930 . S
H1798 C1811 0.930 . S
H1799 C1812 0.930 . S
H1800 C1816 0.959 . S
H1801 C1816 0.959 1_545 S
H1802 C1816 0.961 . S
H1803 C1817 0.960 . S
H1804 C1817 0.961 . S
H1805 C1817 0.959 . S
H1806 C1820 0.929 . S
H1807 C1821 0.931 . S
H1808 C1823 0.930 . S
C1809 H1797 0.930 . S
C1809 C1810 1.399 . S
C1809 C1814 1.399 . S
C1810 C1809 1.399 . S
C1810 C1811 1.376 . S
C1811 H1798 0.930 . S
C1811 C1810 1.376 . S
C1811 C1812 1.388 . S
C1812 H1799 0.930 . S
C1812 C1811 1.388 . S
C1812 C1813 1.390 . S
C1813 C1812 1.390 . S
C1813 C1814 1.394 . S
C1813 C1819 1.465 . S
C1814 C1809 1.399 . S
C1814 C1813 1.394 . S
C1814 C1815 1.513 . S
C1815 C1814 1.513 . S
C1815 C1816 1.501 . S
C1815 C1817 1.564 1_565 S
C1815 C1818 1.526 1_565 S
C1816 H1800 0.959 . S
C1816 H1801 0.959 1_565 S
C1816 H1802 0.961 . S
C1816 C1815 1.501 . S
C1817 H1803 0.960 . S
C1817 H1804 0.961 . S
C1817 H1805 0.959 . S
C1817 C1815 1.564 1_545 S
C1818 C1815 1.526 1_545 S
C1818 C1819 1.396 1_545 S
C1818 C1823 1.390 . S
C1819 C1813 1.465 . S
C1819 C1818 1.396 1_565 S
C1819 C1820 1.399 . S
C1820 H1806 0.929 . S
C1820 C1819 1.399 . S
C1820 C1821 1.385 1_565 S
C1821 H1807 0.931 . S
C1821 C1820 1.385 1_545 S
C1821 C1822 1.389 . S
C1822 C1821 1.389 . S
C1822 C1823 1.387 . S
C1823 H1808 0.930 . S
C1823 C1818 1.390 . S
C1823 C1822 1.387 . S
H1824 C1836 0.930 . S
H1825 C1838 0.930 . S
H1826 C1839 0.930 . S
H1827 C1843 0.959 . S
H1828 C1843 0.959 . S
H1829 C1843 0.961 . S
H1830 C1844 0.960 . S
H1831 C1844 0.961 . S
H1832 C1844 0.959 . S
H1833 C1847 0.929 . S
H1834 C1848 0.931 . S
H1835 C1850 0.930 . S
C1836 H1824 0.930 . S
C1836 C1837 1.399 . S
C1836 C1841 1.399 . S
C1837 C1836 1.399 . S
C1837 C1838 1.376 . S
C1838 H1825 0.930 . S
C1838 C1837 1.376 . S
C1838 C1839 1.388 . S
C1839 H1826 0.930 . S
C1839 C1838 1.388 . S
C1839 C1840 1.390 . S
C1840 C1839 1.390 . S
C1840 C1841 1.394 . S
C1840 C1846 1.465 . S
C1841 C1836 1.399 . S
C1841 C1840 1.394 . S
C1841 C1842 1.516 . S
C1842 C1841 1.516 . S
C1842 C1843 1.502 . S
C1842 C1844 1.561 . S
C1842 C1845 1.526 . S
C1843 H1827 0.959 . S
C1843 H1828 0.959 . S
C1843 H1829 0.961 . S
C1843 C1842 1.502 . S
C1844 H1830 0.960 . S
C1844 H1831 0.961 . S
C1844 H1832 0.959 . S
C1844 C1842 1.561 . S
C1845 C1842 1.526 . S
C1845 C1846 1.396 . S
C1845 C1850 1.390 . S
C1846 C1840 1.465 . S
C1846 C1845 1.396 . S
C1846 C1847 1.399 . S
C1847 H1833 0.929 . S
C1847 C1846 1.399 . S
C1847 C1848 1.385 . S
C1848 H1834 0.931 . S
C1848 C1847 1.385 . S
C1848 C1849 1.389 . S
C1849 C1848 1.389 . S
C1849 C1850 1.387 . S
C1850 H1835 0.930 . S
C1850 C1845 1.390 . S
C1850 C1849 1.387 . S
H1851 C1863 0.930 . S
H1852 C1865 0.930 . S
H1853 C1866 0.930 . S
H1854 C1870 0.959 . S
H1855 C1870 0.959 . S
H1856 C1870 0.961 . S
H1857 C1871 0.960 . S
H1858 C1871 0.961 . S
H1859 C1871 0.959 . S
H1860 C1874 0.929 . S
H1861 C1875 0.931 . S
H1862 C1877 0.930 . S
C1863 H1851 0.930 . S
C1863 C1864 1.399 . S
C1863 C1868 1.399 . S
C1864 C1863 1.399 . S
C1864 C1865 1.376 . S
C1865 H1852 0.930 . S
C1865 C1864 1.376 . S
C1865 C1866 1.388 . S
C1866 H1853 0.930 . S
C1866 C1865 1.388 . S
C1866 C1867 1.390 . S
C1867 C1866 1.390 . S
C1867 C1868 1.394 . S
C1867 C1873 1.465 . S
C1868 C1863 1.399 . S
C1868 C1867 1.394 . S
C1868 C1869 1.516 . S
C1869 C1868 1.516 . S
C1869 C1870 1.502 . S
C1869 C1871 1.561 . S
C1869 C1872 1.526 . S
C1870 H1854 0.959 . S
C1870 H1855 0.959 . S
C1870 H1856 0.961 . S
C1870 C1869 1.502 . S
C1871 H1857 0.960 . S
C1871 H1858 0.961 . S
C1871 H1859 0.959 . S
C1871 C1869 1.561 . S
C1872 C1869 1.526 . S
C1872 C1873 1.396 . S
C1872 C1877 1.390 . S
C1873 C1867 1.465 . S
C1873 C1872 1.396 . S
C1873 C1874 1.399 . S
C1874 H1860 0.929 . S
C1874 C1873 1.399 . S
C1874 C1875 1.385 . S
C1875 H1861 0.931 . S
C1875 C1874 1.385 . S
C1875 C1876 1.389 . S
C1876 C1875 1.389 . S
C1876 C1877 1.387 . S
C1877 H1862 0.930 . S
C1877 C1872 1.390 . S
C1877 C1876 1.387 . S
H1878 C1890 0.930 . S
H1879 C1892 0.930 . S
H1880 C1893 0.930 . S
H1881 C1897 0.959 . S
H1882 C1897 0.959 . S
H1883 C1897 0.961 . S
H1884 C1898 0.960 . S
H1885 C1898 0.961 1_556 S
H1886 C1898 0.959 . S
H1887 C1901 0.929 . S
H1888 C1902 0.931 . S
H1889 C1904 0.930 . S
C1890 H1878 0.930 . S
C1890 C1891 1.399 . S
C1890 C1895 1.399 . S
C1891 C1890 1.399 . S
C1891 C1892 1.376 . S
C1892 H1879 0.930 . S
C1892 C1891 1.376 . S
C1892 C1893 1.388 . S
C1893 H1880 0.930 . S
C1893 C1892 1.388 . S
C1893 C1894 1.390 . S
C1894 C1893 1.390 . S
C1894 C1895 1.394 . S
C1894 C1900 1.465 . S
C1895 C1890 1.399 . S
C1895 C1894 1.394 . S
C1895 C1896 1.516 . S
C1896 C1895 1.516 . S
C1896 C1897 1.502 . S
C1896 C1898 1.561 . S
C1896 C1899 1.526 . S
C1897 H1881 0.959 . S
C1897 H1882 0.959 . S
C1897 H1883 0.961 . S
C1897 C1896 1.502 . S
C1898 H1884 0.960 . S
C1898 H1885 0.961 1_554 S
C1898 H1886 0.959 . S
C1898 C1896 1.561 . S
C1899 C1896 1.526 . S
C1899 C1900 1.396 . S
C1899 C1904 1.390 1_554 S
C1900 C1894 1.465 . S
C1900 C1899 1.396 . S
C1900 C1901 1.399 . S
C1901 H1887 0.929 . S
C1901 C1900 1.399 . S
C1901 C1902 1.385 1_554 S
C1902 H1888 0.931 . S
C1902 C1901 1.385 1_556 S
C1902 C1903 1.389 . S
C1903 C1902 1.389 . S
C1903 C1904 1.387 . S
C1904 H1889 0.930 . S
C1904 C1899 1.390 1_556 S
C1904 C1903 1.387 . S
H1905 C1917 0.930 . S
H1906 C1919 0.930 . S
H1907 C1920 0.930 . S
H1908 C1924 0.959 . S
H1909 C1924 0.959 . S
H1910 C1924 0.961 . S
H1911 C1925 0.960 . S
H1912 C1925 0.961 . S
H1913 C1925 0.959 . S
H1914 C1928 0.929 . S
H1915 C1929 0.931 . S
H1916 C1931 0.930 . S
C1917 H1905 0.930 . S
C1917 C1918 1.399 . S
C1917 C1922 1.399 . S
C1918 C1917 1.399 . S
C1918 C1919 1.376 . S
C1919 H1906 0.930 . S
C1919 C1918 1.376 . S
C1919 C1920 1.388 . S
C1920 H1907 0.930 . S
C1920 C1919 1.388 . S
C1920 C1921 1.390 . S
C1921 C1920 1.390 . S
C1921 C1922 1.394 . S
C1921 C1927 1.465 . S
C1922 C1917 1.399 . S
C1922 C1921 1.394 . S
C1922 C1923 1.516 . S
C1923 C1922 1.516 . S
C1923 C1924 1.502 . S
C1923 C1925 1.561 . S
C1923 C1926 1.526 . S
C1924 H1908 0.959 . S
C1924 H1909 0.959 . S
C1924 H1910 0.961 . S
C1924 C1923 1.502 . S
C1925 H1911 0.960 . S
C1925 H1912 0.961 . S
C1925 H1913 0.959 . S
C1925 C1923 1.561 . S
C1926 C1923 1.526 . S
C1926 C1927 1.396 . S
C1926 C1931 1.390 . S
C1927 C1921 1.465 . S
C1927 C1926 1.396 . S
C1927 C1928 1.399 . S
C1928 H1914 0.929 . S
C1928 C1927 1.399 . S
C1928 C1929 1.385 . S
C1929 H1915 0.931 . S
C1929 C1928 1.385 . S
C1929 C1930 1.389 . S
C1930 C1929 1.389 . S
C1930 C1931 1.387 . S
C1931 H1916 0.930 . S
C1931 C1926 1.390 . S
C1931 C1930 1.387 . S
H1932 C1944 0.930 . S
H1933 C1946 0.930 . S
H1934 C1947 0.930 . S
H1935 C1951 0.959 . S
H1936 C1951 0.959 . S
H1937 C1951 0.961 . S
H1938 C1952 0.960 . S
H1939 C1952 0.983 . S
H1940 C1952 0.959 . S
H1941 C1955 0.929 . S
H1942 C1956 0.931 . S
H1943 C1958 0.930 . S
C1944 H1932 0.930 . S
C1944 C1945 1.399 . S
C1944 C1949 1.399 . S
C1945 C1944 1.399 . S
C1945 C1946 1.376 . S
C1946 H1933 0.930 . S
C1946 C1945 1.376 . S
C1946 C1947 1.388 . S
C1947 H1934 0.930 . S
C1947 C1946 1.388 . S
C1947 C1948 1.390 . S
C1948 C1947 1.390 . S
C1948 C1949 1.394 . S
C1948 C1954 1.465 . S
C1949 C1944 1.399 . S
C1949 C1948 1.394 . S
C1949 C1950 1.516 . S
C1950 C1949 1.516 . S
C1950 C1951 1.502 . S
C1950 C1952 1.561 . S
C1950 C1953 1.526 . S
C1951 H1935 0.959 . S
C1951 H1936 0.959 . S
C1951 H1937 0.961 . S
C1951 C1950 1.502 . S
C1952 H1938 0.960 . S
C1952 H1939 0.983 . S
C1952 H1940 0.959 . S
C1952 C1950 1.561 . S
C1953 C1950 1.526 . S
C1953 C1954 1.396 . S
C1953 C1958 1.390 . S
C1954 C1948 1.465 . S
C1954 C1953 1.396 . S
C1954 C1955 1.399 . S
C1955 H1941 0.929 . S
C1955 C1954 1.399 . S
C1955 C1956 1.385 . S
C1956 H1942 0.931 . S
C1956 C1955 1.385 . S
C1956 C1957 1.389 . S
C1957 C1956 1.389 . S
C1957 C1958 1.387 . S
C1958 H1943 0.930 . S
C1958 C1953 1.390 . S
C1958 C1957 1.387 . S
H1959 C1971 0.930 . S
H1960 C1973 0.930 . S
H1961 C1974 0.930 . S
H1962 C1978 0.959 . S
H1963 C1978 0.959 . S
H1964 C1978 0.961 1_455 S
H1965 C1979 0.960 . S
H1966 C1979 0.961 1_554 S
H1967 C1979 0.959 . S
H1968 C1982 0.929 . S
H1969 C1983 0.931 . S
H1970 C1985 0.930 . S
C1971 H1959 0.930 . S
C1971 C1972 1.399 . S
C1971 C1976 1.399 1_455 S
C1972 C1971 1.399 . S
C1972 C1973 1.376 1_455 S
C1973 H1960 0.930 . S
C1973 C1972 1.376 1_655 S
C1973 C1974 1.388 . S
C1974 H1961 0.930 . S
C1974 C1973 1.388 . S
C1974 C1975 1.390 . S
C1975 C1974 1.390 . S
C1975 C1976 1.394 . S
C1975 C1981 1.465 . S
C1976 C1971 1.399 1_655 S
C1976 C1975 1.394 . S
C1976 C1977 1.516 . S
C1977 C1976 1.516 . S
C1977 C1978 1.502 . S
C1977 C1979 1.561 . S
C1977 C1980 1.526 . S
C1978 H1962 0.959 . S
C1978 H1963 0.959 . S
C1978 H1964 0.961 1_655 S
C1978 C1977 1.502 . S
C1979 H1965 0.960 . S
C1979 H1966 0.961 1_556 S
C1979 H1967 0.959 . S
C1979 C1977 1.561 . S
C1980 C1977 1.526 . S
C1980 C1981 1.396 . S
C1980 C1985 1.390 . S
C1981 C1975 1.465 . S
C1981 C1980 1.396 . S
C1981 C1982 1.399 . S
C1982 H1968 0.929 . S
C1982 C1981 1.399 . S
C1982 C1983 1.385 . S
C1983 H1969 0.931 . S
C1983 C1982 1.385 . S
C1983 C1984 1.389 . S
C1984 C1983 1.389 . S
C1984 C1985 1.387 . S
C1985 H1970 0.930 . S
C1985 C1980 1.390 . S
C1985 C1984 1.387 . S
H1986 C1998 0.930 . S
H1987 C2000 0.930 . S
H1988 C2001 0.930 . S
H1989 C2005 0.959 . S
H1990 C2005 0.959 . S
H1991 C2005 0.961 . S
H1992 C2006 0.960 . S
H1993 C2006 0.961 . S
H1994 C2006 0.959 . S
H1995 C2009 0.929 . S
H1996 C2010 0.931 . S
H1997 C2012 0.930 . S
C1998 H1986 0.930 . S
C1998 C1999 1.399 . S
C1998 C2003 1.385 1_655 S
C1999 C1998 1.399 . S
C1999 C2000 1.376 . S
C2000 H1987 0.930 . S
C2000 C1999 1.376 . S
C2000 C2001 1.388 1_655 S
C2001 H1988 0.930 . S
C2001 C2000 1.388 1_455 S
C2001 C2002 1.390 . S
C2002 C2001 1.390 . S
C2002 C2003 1.402 . S
C2002 C2008 1.465 . S
C2003 C1998 1.385 1_455 S
C2003 C2002 1.402 . S
C2003 C2004 1.524 . S
C2004 C2003 1.524 . S
C2004 C2005 1.502 . S
C2004 C2006 1.561 1_455 S
C2004 C2007 1.526 . S
C2005 H1989 0.959 . S
C2005 H1990 0.959 . S
C2005 H1991 0.961 . S
C2005 C2004 1.502 . S
C2006 H1992 0.960 . S
C2006 H1993 0.961 . S
C2006 H1994 0.959 . S
C2006 C2004 1.561 1_655 S
C2007 C2004 1.526 . S
C2007 C2008 1.396 . S
C2007 C2012 1.390 . S
C2008 C2002 1.465 . S
C2008 C2007 1.396 . S
C2008 C2009 1.399 . S
C2009 H1995 0.929 . S
C2009 C2008 1.399 . S
C2009 C2010 1.385 . S
C2010 H1996 0.931 . S
C2010 C2009 1.385 . S
C2010 C2011 1.389 . S
C2011 C2010 1.389 . S
C2011 C2012 1.387 . S
C2012 H1997 0.930 . S
C2012 C2007 1.390 . S
C2012 C2011 1.387 . S
H2013 C2025 0.930 . S
H2014 C2027 0.930 . S
H2015 C2028 0.930 . S
H2016 C2032 0.959 . S
H2017 C2032 0.959 . S
H2018 C2032 0.961 . S
H2019 C2033 0.960 . S
H2020 C2033 0.961 . S
H2021 C2033 0.959 . S
H2022 C2036 0.929 . S
H2023 C2037 0.931 . S
H2024 C2039 0.930 . S
C2025 H2013 0.930 . S
C2025 C2026 1.399 . S
C2025 C2030 1.399 . S
C2026 C2025 1.399 . S
C2026 C2027 1.376 . S
C2027 H2014 0.930 . S
C2027 C2026 1.376 . S
C2027 C2028 1.388 . S
C2028 H2015 0.930 . S
C2028 C2027 1.388 . S
C2028 C2029 1.390 . S
C2029 C2028 1.390 . S
C2029 C2030 1.394 . S
C2029 C2035 1.465 . S
C2030 C2025 1.399 . S
C2030 C2029 1.394 . S
C2030 C2031 1.516 . S
C2031 C2030 1.516 . S
C2031 C2032 1.502 . S
C2031 C2033 1.561 . S
C2031 C2034 1.526 . S
C2032 H2016 0.959 . S
C2032 H2017 0.959 . S
C2032 H2018 0.961 . S
C2032 C2031 1.502 . S
C2033 H2019 0.960 . S
C2033 H2020 0.961 . S
C2033 H2021 0.959 . S
C2033 C2031 1.561 . S
C2034 C2031 1.526 . S
C2034 C2035 1.396 . S
C2034 C2039 1.390 . S
C2035 C2029 1.465 . S
C2035 C2034 1.396 . S
C2035 C2036 1.399 . S
C2036 H2022 0.929 . S
C2036 C2035 1.399 . S
C2036 C2037 1.385 . S
C2037 H2023 0.931 . S
C2037 C2036 1.385 . S
C2037 C2038 1.389 . S
C2038 C2037 1.389 . S
C2038 C2039 1.387 . S
C2039 H2024 0.930 . S
C2039 C2034 1.390 . S
C2039 C2038 1.387 . S
H2040 C2052 0.930 . S
H2041 C2054 0.930 . S
H2042 C2055 0.930 . S
H2043 C2059 0.959 . S
H2044 C2059 0.959 . S
H2045 C2059 0.961 . S
H2046 C2060 0.960 . S
H2047 C2060 0.961 . S
H2048 C2060 0.959 . S
H2049 C2063 0.929 . S
H2050 C2064 0.931 . S
H2051 C2066 0.930 . S
C2052 H2040 0.930 . S
C2052 C2053 1.399 . S
C2052 C2057 1.399 . S
C2053 C2052 1.399 . S
C2053 C2054 1.376 . S
C2054 H2041 0.930 . S
C2054 C2053 1.376 . S
C2054 C2055 1.388 . S
C2055 H2042 0.930 . S
C2055 C2054 1.388 . S
C2055 C2056 1.390 . S
C2056 C2055 1.390 . S
C2056 C2057 1.394 . S
C2056 C2062 1.465 . S
C2057 C2052 1.399 . S
C2057 C2056 1.394 . S
C2057 C2058 1.516 . S
C2058 C2057 1.516 . S
C2058 C2059 1.502 . S
C2058 C2060 1.561 . S
C2058 C2061 1.526 . S
C2059 H2043 0.959 . S
C2059 H2044 0.959 . S
C2059 H2045 0.961 . S
C2059 C2058 1.502 . S
C2060 H2046 0.960 . S
C2060 H2047 0.961 . S
C2060 H2048 0.959 . S
C2060 C2058 1.561 . S
C2061 C2058 1.526 . S
C2061 C2062 1.396 . S
C2061 C2066 1.390 . S
C2062 C2056 1.465 . S
C2062 C2061 1.396 . S
C2062 C2063 1.399 . S
C2063 H2049 0.929 . S
C2063 C2062 1.399 . S
C2063 C2064 1.385 . S
C2064 H2050 0.931 . S
C2064 C2063 1.385 . S
C2064 C2065 1.389 . S
C2065 C2064 1.389 . S
C2065 C2066 1.387 . S
C2066 H2051 0.930 . S
C2066 C2061 1.390 . S
C2066 C2065 1.387 . S
H2067 C2079 0.930 . S
H2068 C2081 0.937 . S
H2069 C2082 0.930 . S
H2070 C2086 0.959 . S
H2071 C2086 0.959 . S
H2072 C2086 0.961 1_655 S
H2073 C2087 0.960 . S
H2074 C2087 0.961 . S
H2075 C2087 0.959 . S
H2076 C2090 0.929 . S
H2077 C2091 0.931 . S
H2078 C2093 0.930 . S
C2079 H2067 0.930 . S
C2079 C2080 1.399 . S
C2079 C2084 1.399 1_655 S
C2080 C2079 1.399 . S
C2080 C2081 1.376 1_655 S
C2081 H2068 0.937 . S
C2081 C2080 1.376 1_455 S
C2081 C2082 1.388 . S
C2082 H2069 0.930 . S
C2082 C2081 1.388 . S
C2082 C2083 1.390 . S
C2083 C2082 1.390 . S
C2083 C2084 1.394 . S
C2083 C2089 1.465 . S
C2084 C2079 1.399 1_455 S
C2084 C2083 1.394 . S
C2084 C2085 1.516 . S
C2085 C2084 1.516 . S
C2085 C2086 1.502 . S
C2085 C2087 1.561 . S
C2085 C2088 1.526 . S
C2086 H2070 0.959 . S
C2086 H2071 0.959 . S
C2086 H2072 0.961 1_455 S
C2086 C2085 1.502 . S
C2087 H2073 0.960 . S
C2087 H2074 0.961 . S
C2087 H2075 0.959 . S
C2087 C2085 1.561 . S
C2088 C2085 1.526 . S
C2088 C2089 1.396 . S
C2088 C2093 1.390 . S
C2089 C2083 1.465 . S
C2089 C2088 1.396 . S
C2089 C2090 1.399 . S
C2090 H2076 0.929 . S
C2090 C2089 1.399 . S
C2090 C2091 1.385 . S
C2091 H2077 0.931 . S
C2091 C2090 1.385 . S
C2091 C2092 1.389 . S
C2092 C2091 1.389 . S
C2092 C2093 1.387 . S
C2093 H2078 0.930 . S
C2093 C2088 1.390 . S
C2093 C2092 1.387 . S
H2094 C2106 0.930 . S
H2095 C2108 0.930 . S
H2096 C2109 0.930 . S
H2097 C2113 0.959 . S
H2098 C2113 0.959 . S
H2099 C2113 0.961 . S
H2100 C2114 0.960 . S
H2101 C2114 0.961 . S
H2102 C2114 0.959 . S
H2103 C2117 0.929 . S
H2104 C2118 0.931 . S
H2105 C2120 0.930 . S
C2106 H2094 0.930 . S
C2106 C2107 1.399 . S
C2106 C2111 1.399 . S
C2107 C2106 1.399 . S
C2107 C2108 1.376 . S
C2108 H2095 0.930 . S
C2108 C2107 1.376 . S
C2108 C2109 1.388 . S
C2109 H2096 0.930 . S
C2109 C2108 1.388 . S
C2109 C2110 1.390 . S
C2110 C2109 1.390 . S
C2110 C2111 1.394 . S
C2110 C2116 1.465 . S
C2111 C2106 1.399 . S
C2111 C2110 1.394 . S
C2111 C2112 1.516 . S
C2112 C2111 1.516 . S
C2112 C2113 1.502 . S
C2112 C2114 1.561 . S
C2112 C2115 1.526 . S
C2113 H2097 0.959 . S
C2113 H2098 0.959 . S
C2113 H2099 0.961 . S
C2113 C2112 1.502 . S
C2114 H2100 0.960 . S
C2114 H2101 0.961 . S
C2114 H2102 0.959 . S
C2114 C2112 1.561 . S
C2115 C2112 1.526 . S
C2115 C2116 1.396 . S
C2115 C2120 1.390 . S
C2116 C2110 1.465 . S
C2116 C2115 1.396 . S
C2116 C2117 1.399 . S
C2117 H2103 0.929 . S
C2117 C2116 1.399 . S
C2117 C2118 1.385 . S
C2118 H2104 0.931 . S
C2118 C2117 1.385 . S
C2118 C2119 1.389 . S
C2119 C2118 1.389 . S
C2119 C2120 1.387 . S
C2120 H2105 0.930 . S
C2120 C2115 1.390 . S
C2120 C2119 1.387 . S
H2121 C2133 0.930 . S
H2122 C2135 0.930 . S
H2123 C2136 0.930 . S
H2124 C2140 0.959 . S
H2125 C2140 0.959 . S
H2126 C2140 0.961 . S
H2127 C2141 0.960 . S
H2128 C2141 0.961 . S
H2129 C2141 0.959 . S
H2130 C2144 0.929 . S
H2131 C2145 0.931 . S
H2132 C2147 0.930 . S
C2133 H2121 0.930 . S
C2133 C2134 1.399 . S
C2133 C2138 1.399 . S
C2134 C2133 1.399 . S
C2134 C2135 1.376 . S
C2135 H2122 0.930 . S
C2135 C2134 1.376 . S
C2135 C2136 1.388 . S
C2136 H2123 0.930 . S
C2136 C2135 1.388 . S
C2136 C2137 1.390 . S
C2137 C2136 1.390 . S
C2137 C2138 1.394 . S
C2137 C2143 1.465 . S
C2138 C2133 1.399 . S
C2138 C2137 1.394 . S
C2138 C2139 1.516 . S
C2139 C2138 1.516 . S
C2139 C2140 1.502 1_655 S
C2139 C2141 1.561 . S
C2139 C2142 1.526 . S
C2140 H2124 0.959 . S
C2140 H2125 0.959 . S
C2140 H2126 0.961 . S
C2140 C2139 1.502 1_455 S
C2141 H2127 0.960 . S
C2141 H2128 0.961 . S
C2141 H2129 0.959 . S
C2141 C2139 1.561 . S
C2142 C2139 1.526 . S
C2142 C2143 1.396 . S
C2142 C2147 1.390 1_655 S
C2143 C2137 1.465 . S
C2143 C2142 1.396 . S
C2143 C2144 1.399 . S
C2144 H2130 0.929 . S
C2144 C2143 1.399 . S
C2144 C2145 1.385 1_655 S
C2145 H2131 0.931 . S
C2145 C2144 1.385 1_455 S
C2145 C2146 1.389 . S
C2146 C2145 1.389 . S
C2146 C2147 1.387 . S
C2147 H2132 0.930 . S
C2147 C2142 1.390 1_455 S
C2147 C2146 1.387 . S
H2148 C2160 0.930 . S
H2149 C2162 0.930 . S
H2150 C2163 0.930 . S
H2151 C2167 0.959 . S
H2152 C2167 0.959 . S
H2153 C2167 0.961 . S
H2154 C2168 0.960 . S
H2155 C2168 0.961 . S
H2156 C2168 0.959 . S
H2157 C2171 0.929 . S
H2158 C2172 0.931 . S
H2159 C2174 0.930 . S
C2160 H2148 0.930 . S
C2160 C2161 1.399 . S
C2160 C2165 1.399 . S
C2161 C2160 1.399 . S
C2161 C2162 1.376 . S
C2162 H2149 0.930 . S
C2162 C2161 1.376 . S
C2162 C2163 1.388 . S
C2163 H2150 0.930 . S
C2163 C2162 1.388 . S
C2163 C2164 1.390 . S
C2164 C2163 1.390 . S
C2164 C2165 1.394 . S
C2164 C2170 1.465 . S
C2165 C2160 1.399 . S
C2165 C2164 1.394 . S
C2165 C2166 1.516 . S
C2166 C2165 1.516 . S
C2166 C2167 1.502 . S
C2166 C2168 1.561 . S
C2166 C2169 1.526 . S
C2167 H2151 0.959 . S
C2167 H2152 0.959 . S
C2167 H2153 0.961 . S
C2167 C2166 1.502 . S
C2168 H2154 0.960 . S
C2168 H2155 0.961 . S
C2168 H2156 0.959 . S
C2168 C2166 1.561 . S
C2169 C2166 1.526 . S
C2169 C2170 1.396 . S
C2169 C2174 1.390 . S
C2170 C2164 1.465 . S
C2170 C2169 1.396 . S
C2170 C2171 1.399 . S
C2171 H2157 0.929 . S
C2171 C2170 1.399 . S
C2171 C2172 1.385 . S
C2172 H2158 0.931 . S
C2172 C2171 1.385 . S
C2172 C2173 1.389 . S
C2173 C2172 1.389 . S
C2173 C2174 1.387 . S
C2174 H2159 0.930 . S
C2174 C2169 1.390 . S
C2174 C2173 1.387 . S
H2175 C2187 0.930 . S
H2176 C2189 0.930 . S
H2177 C2190 0.930 . S
H2178 C2194 0.959 . S
H2179 C2194 0.959 . S
H2180 C2194 0.961 . S
H2181 C2195 0.960 . S
H2182 C2195 0.961 . S
H2183 C2195 0.959 . S
H2184 C2198 0.928 1_455 S
H2185 C2199 0.931 . S
H2186 C2201 0.930 . S
C2187 H2175 0.930 . S
C2187 C2188 1.399 . S
C2187 C2192 1.399 . S
C2188 C2187 1.399 . S
C2188 C2189 1.376 . S
C2189 H2176 0.930 . S
C2189 C2188 1.376 . S
C2189 C2190 1.388 . S
C2190 H2177 0.930 . S
C2190 C2189 1.388 . S
C2190 C2191 1.390 . S
C2191 C2190 1.390 . S
C2191 C2192 1.394 . S
C2191 C2197 1.465 . S
C2192 C2187 1.399 . S
C2192 C2191 1.394 . S
C2192 C2193 1.516 . S
C2193 C2192 1.516 . S
C2193 C2194 1.502 1_455 S
C2193 C2195 1.561 . S
C2193 C2196 1.526 1_455 S
C2194 H2178 0.959 . S
C2194 H2179 0.959 . S
C2194 H2180 0.961 . S
C2194 C2193 1.502 1_655 S
C2195 H2181 0.960 . S
C2195 H2182 0.961 . S
C2195 H2183 0.959 . S
C2195 C2193 1.561 . S
C2196 C2193 1.526 1_655 S
C2196 C2197 1.396 1_655 S
C2196 C2201 1.390 . S
C2197 C2191 1.465 . S
C2197 C2196 1.396 1_455 S
C2197 C2198 1.398 1_455 S
C2198 H2184 0.928 1_655 S
C2198 C2197 1.398 1_655 S
C2198 C2199 1.387 . S
C2199 H2185 0.931 . S
C2199 C2198 1.387 . S
C2199 C2200 1.389 . S
C2200 C2199 1.389 . S
C2200 C2201 1.387 . S
C2201 H2186 0.930 . S
C2201 C2196 1.390 . S
C2201 C2200 1.387 . S
H2202 C2214 0.930 . S
H2203 C2216 0.930 . S
H2204 C2217 0.930 1_554 S
H2205 C2221 0.959 . S
H2206 C2221 0.959 . S
H2207 C2221 0.961 . S
H2208 C2222 0.960 . S
H2209 C2222 0.961 . S
H2210 C2222 0.959 . S
H2211 C2225 0.929 . S
H2212 C2226 0.931 . S
H2213 C2228 0.930 1_556 S
C2214 H2202 0.930 . S
C2214 C2215 1.399 . S
C2214 C2219 1.399 . S
C2215 C2214 1.399 . S
C2215 C2216 1.376 . S
C2216 H2203 0.930 . S
C2216 C2215 1.376 . S
C2216 C2217 1.388 . S
C2217 H2204 0.930 1_556 S
C2217 C2216 1.388 . S
C2217 C2218 1.390 . S
C2218 C2217 1.390 . S
C2218 C2219 1.394 . S
C2218 C2224 1.465 1_556 S
C2219 C2214 1.399 . S
C2219 C2218 1.394 . S
C2219 C2220 1.516 . S
C2220 C2219 1.516 . S
C2220 C2221 1.502 . S
C2220 C2222 1.561 . S
C2220 C2223 1.526 . S
C2221 H2205 0.959 . S
C2221 H2206 0.959 . S
C2221 H2207 0.961 . S
C2221 C2220 1.502 . S
C2222 H2208 0.960 . S
C2222 H2209 0.961 . S
C2222 H2210 0.959 . S
C2222 C2220 1.561 . S
C2223 C2220 1.526 . S
C2223 C2224 1.396 1_556 S
C2223 C2228 1.390 1_556 S
C2224 C2218 1.465 1_554 S
C2224 C2223 1.396 1_554 S
C2224 C2225 1.399 . S
C2225 H2211 0.929 . S
C2225 C2224 1.399 . S
C2225 C2226 1.385 . S
C2226 H2212 0.931 . S
C2226 C2225 1.385 . S
C2226 C2227 1.389 . S
C2227 C2226 1.389 . S
C2227 C2228 1.387 . S
C2228 H2213 0.930 1_554 S
C2228 C2223 1.390 1_554 S
C2228 C2227 1.387 . S
H2229 C2241 0.930 . S
H2230 C2243 0.930 . S
H2231 C2244 0.930 . S
H2232 C2248 0.959 . S
H2233 C2248 0.959 . S
H2234 C2248 0.961 . S
H2235 C2249 0.960 . S
H2236 C2249 0.961 . S
H2237 C2249 0.959 . S
H2238 C2252 0.929 . S
H2239 C2253 0.931 . S
H2240 C2255 0.930 . S
C2241 H2229 0.930 . S
C2241 C2242 1.399 . S
C2241 C2246 1.399 . S
C2242 C2241 1.399 . S
C2242 C2243 1.376 . S
C2243 H2230 0.930 . S
C2243 C2242 1.376 . S
C2243 C2244 1.388 . S
C2244 H2231 0.930 . S
C2244 C2243 1.388 . S
C2244 C2245 1.390 . S
C2245 C2244 1.390 . S
C2245 C2246 1.394 . S
C2245 C2251 1.465 . S
C2246 C2241 1.399 . S
C2246 C2245 1.394 . S
C2246 C2247 1.516 . S
C2247 C2246 1.516 . S
C2247 C2248 1.502 . S
C2247 C2249 1.561 . S
C2247 C2250 1.526 . S
C2248 H2232 0.959 . S
C2248 H2233 0.959 . S
C2248 H2234 0.961 . S
C2248 C2247 1.502 . S
C2249 H2235 0.960 . S
C2249 H2236 0.961 . S
C2249 H2237 0.959 . S
C2249 C2247 1.561 . S
C2250 C2247 1.526 . S
C2250 C2251 1.396 . S
C2250 C2255 1.390 . S
C2251 C2245 1.465 . S
C2251 C2250 1.396 . S
C2251 C2252 1.399 . S
C2252 H2238 0.929 . S
C2252 C2251 1.399 . S
C2252 C2253 1.385 . S
C2253 H2239 0.931 . S
C2253 C2252 1.385 . S
C2253 C2254 1.389 . S
C2254 C2253 1.389 . S
C2254 C2255 1.387 . S
C2255 H2240 0.930 . S
C2255 C2250 1.390 . S
C2255 C2254 1.387 . S
H2256 C2268 0.930 . S
H2257 C2270 0.930 . S
H2258 C2271 0.930 . S
H2259 C2275 0.959 . S
H2260 C2275 0.959 . S
H2261 C2275 0.961 . S
H2262 C2276 0.960 . S
H2263 C2276 0.961 . S
H2264 C2276 0.959 . S
H2265 C2279 0.929 . S
H2266 C2280 0.931 . S
H2267 C2282 0.930 . S
C2268 H2256 0.930 . S
C2268 C2269 1.399 . S
C2268 C2273 1.399 . S
C2269 C2268 1.399 . S
C2269 C2270 1.376 . S
C2270 H2257 0.930 . S
C2270 C2269 1.376 . S
C2270 C2271 1.388 . S
C2271 H2258 0.930 . S
C2271 C2270 1.388 . S
C2271 C2272 1.390 . S
C2272 C2271 1.390 . S
C2272 C2273 1.394 . S
C2272 C2278 1.465 . S
C2273 C2268 1.399 . S
C2273 C2272 1.394 . S
C2273 C2274 1.516 . S
C2274 C2273 1.516 . S
C2274 C2275 1.502 . S
C2274 C2276 1.561 . S
C2274 C2277 1.526 . S
C2275 H2259 0.959 . S
C2275 H2260 0.959 . S
C2275 H2261 0.961 . S
C2275 C2274 1.502 . S
C2276 H2262 0.960 . S
C2276 H2263 0.961 . S
C2276 H2264 0.959 . S
C2276 C2274 1.561 . S
C2277 C2274 1.526 . S
C2277 C2278 1.396 . S
C2277 C2282 1.390 . S
C2278 C2272 1.465 . S
C2278 C2277 1.396 . S
C2278 C2279 1.399 . S
C2279 H2265 0.929 . S
C2279 C2278 1.399 . S
C2279 C2280 1.385 . S
C2280 H2266 0.931 . S
C2280 C2279 1.385 . S
C2280 C2281 1.389 . S
C2281 C2280 1.389 . S
C2281 C2282 1.387 . S
C2282 H2267 0.930 . S
C2282 C2277 1.390 . S
C2282 C2281 1.387 . S
H2283 C2295 0.930 . S
H2284 C2297 0.930 . S
H2285 C2298 0.930 . S
H2286 C2302 0.959 . S
H2287 C2302 0.959 . S
H2288 C2302 0.961 . S
H2289 C2303 0.960 . S
H2290 C2303 0.961 . S
H2291 C2303 0.959 . S
H2292 C2306 0.929 . S
H2293 C2307 0.931 . S
H2294 C2309 0.930 . S
C2295 H2283 0.930 . S
C2295 C2296 1.399 . S
C2295 C2300 1.399 . S
C2296 C2295 1.399 . S
C2296 C2297 1.376 . S
C2297 H2284 0.930 . S
C2297 C2296 1.376 . S
C2297 C2298 1.388 . S
C2298 H2285 0.930 . S
C2298 C2297 1.388 . S
C2298 C2299 1.390 . S
C2299 C2298 1.390 . S
C2299 C2300 1.394 . S
C2299 C2305 1.465 . S
C2300 C2295 1.399 . S
C2300 C2299 1.394 . S
C2300 C2301 1.516 . S
C2301 C2300 1.516 . S
C2301 C2302 1.502 1_655 S
C2301 C2303 1.561 . S
C2301 C2304 1.526 1_655 S
C2302 H2286 0.959 . S
C2302 H2287 0.959 . S
C2302 H2288 0.961 . S
C2302 C2301 1.502 1_455 S
C2303 H2289 0.960 . S
C2303 H2290 0.961 . S
C2303 H2291 0.959 . S
C2303 C2301 1.561 . S
C2304 C2301 1.526 1_455 S
C2304 C2305 1.396 1_455 S
C2304 C2309 1.390 . S
C2305 C2299 1.465 . S
C2305 C2304 1.396 1_655 S
C2305 C2306 1.399 . S
C2306 H2292 0.929 . S
C2306 C2305 1.399 . S
C2306 C2307 1.385 1_655 S
C2307 H2293 0.931 . S
C2307 C2306 1.385 1_455 S
C2307 C2308 1.389 . S
C2308 C2307 1.389 . S
C2308 C2309 1.387 . S
C2309 H2294 0.930 . S
C2309 C2304 1.390 . S
C2309 C2308 1.387 . S
H2310 C2322 0.930 . S
H2311 C2324 0.930 . S
H2312 C2325 0.930 . S
H2313 C2329 0.959 1_556 S
H2314 C2329 0.959 . S
H2315 C2329 0.961 . S
H2316 C2330 0.960 . S
H2317 C2330 0.961 . S
H2318 C2330 0.959 . S
H2319 C2333 0.929 . S
H2320 C2334 0.931 . S
H2321 C2336 0.930 . S
C2322 H2310 0.930 . S
C2322 C2323 1.399 . S
C2322 C2327 1.399 . S
C2323 C2322 1.399 . S
C2323 C2324 1.376 . S
C2324 H2311 0.930 . S
C2324 C2323 1.376 . S
C2324 C2325 1.388 . S
C2325 H2312 0.930 . S
C2325 C2324 1.388 . S
C2325 C2326 1.390 . S
C2326 C2325 1.390 . S
C2326 C2327 1.394 . S
C2326 C2332 1.465 . S
C2327 C2322 1.399 . S
C2327 C2326 1.394 . S
C2327 C2328 1.516 . S
C2328 C2327 1.516 . S
C2328 C2329 1.502 . S
C2328 C2330 1.561 . S
C2328 C2331 1.526 . S
C2329 H2313 0.959 1_554 S
C2329 H2314 0.959 . S
C2329 H2315 0.961 . S
C2329 C2328 1.502 . S
C2330 H2316 0.960 . S
C2330 H2317 0.961 . S
C2330 H2318 0.959 . S
C2330 C2328 1.561 . S
C2331 C2328 1.526 . S
C2331 C2332 1.396 . S
C2331 C2336 1.390 1_554 S
C2332 C2326 1.465 . S
C2332 C2331 1.396 . S
C2332 C2333 1.399 1_554 S
C2333 H2319 0.929 . S
C2333 C2332 1.399 1_556 S
C2333 C2334 1.385 . S
C2334 H2320 0.931 . S
C2334 C2333 1.385 . S
C2334 C2335 1.389 . S
C2335 C2334 1.389 . S
C2335 C2336 1.387 . S
C2336 H2321 0.930 . S
C2336 C2331 1.390 1_556 S
C2336 C2335 1.387 . S
H2337 C2349 0.930 . S
H2338 C2351 0.930 . S
H2339 C2352 0.930 . S
H2340 C2356 0.959 . S
H2341 C2356 0.959 . S
H2342 C2356 0.961 . S
H2343 C2357 0.960 . S
H2344 C2357 0.961 . S
H2345 C2357 0.959 . S
H2346 C2360 0.929 . S
H2347 C2361 0.931 . S
H2348 C2363 0.930 . S
C2349 H2337 0.930 . S
C2349 C2350 1.399 . S
C2349 C2354 1.399 . S
C2350 C2349 1.399 . S
C2350 C2351 1.376 . S
C2351 H2338 0.930 . S
C2351 C2350 1.376 . S
C2351 C2352 1.388 . S
C2352 H2339 0.930 . S
C2352 C2351 1.388 . S
C2352 C2353 1.390 . S
C2353 C2352 1.390 . S
C2353 C2354 1.394 . S
C2353 C2359 1.465 . S
C2354 C2349 1.399 . S
C2354 C2353 1.394 . S
C2354 C2355 1.516 . S
C2355 C2354 1.516 . S
C2355 C2356 1.502 . S
C2355 C2357 1.561 . S
C2355 C2358 1.526 . S
C2356 H2340 0.959 . S
C2356 H2341 0.959 . S
C2356 H2342 0.961 . S
C2356 C2355 1.502 . S
C2357 H2343 0.960 . S
C2357 H2344 0.961 . S
C2357 H2345 0.959 . S
C2357 C2355 1.561 . S
C2358 C2355 1.526 . S
C2358 C2359 1.396 . S
C2358 C2363 1.390 . S
C2359 C2353 1.465 . S
C2359 C2358 1.396 . S
C2359 C2360 1.399 . S
C2360 H2346 0.929 . S
C2360 C2359 1.399 . S
C2360 C2361 1.385 . S
C2361 H2347 0.931 . S
C2361 C2360 1.385 . S
C2361 C2362 1.389 . S
C2362 C2361 1.389 . S
C2362 C2363 1.387 . S
C2363 H2348 0.930 . S
C2363 C2358 1.390 . S
C2363 C2362 1.387 . S
H2364 C2376 0.930 . S
H2365 C2378 0.930 . S
H2366 C2379 0.930 . S
H2367 C2383 0.959 . S
H2368 C2383 0.959 . S
H2369 C2383 0.961 . S
H2370 C2384 0.960 . S
H2371 C2384 0.961 . S
H2372 C2384 0.959 . S
H2373 C2387 0.929 . S
H2374 C2388 0.931 . S
H2375 C2390 0.930 . S
C2376 H2364 0.930 . S
C2376 C2377 1.399 . S
C2376 C2381 1.399 . S
C2377 C2376 1.399 . S
C2377 C2378 1.376 . S
C2378 H2365 0.930 . S
C2378 C2377 1.376 . S
C2378 C2379 1.388 . S
C2379 H2366 0.930 . S
C2379 C2378 1.388 . S
C2379 C2380 1.390 . S
C2380 C2379 1.390 . S
C2380 C2381 1.394 . S
C2380 C2386 1.465 . S
C2381 C2376 1.399 . S
C2381 C2380 1.394 . S
C2381 C2382 1.516 . S
C2382 C2381 1.516 . S
C2382 C2383 1.502 . S
C2382 C2384 1.561 . S
C2382 C2385 1.526 . S
C2383 H2367 0.959 . S
C2383 H2368 0.959 . S
C2383 H2369 0.961 . S
C2383 C2382 1.502 . S
C2384 H2370 0.960 . S
C2384 H2371 0.961 . S
C2384 H2372 0.959 . S
C2384 C2382 1.561 . S
C2385 C2382 1.526 . S
C2385 C2386 1.396 . S
C2385 C2390 1.390 . S
C2386 C2380 1.465 . S
C2386 C2385 1.396 . S
C2386 C2387 1.399 . S
C2387 H2373 0.929 . S
C2387 C2386 1.399 . S
C2387 C2388 1.385 . S
C2388 H2374 0.931 . S
C2388 C2387 1.385 . S
C2388 C2389 1.389 . S
C2389 C2388 1.389 . S
C2389 C2390 1.387 . S
C2390 H2375 0.930 . S
C2390 C2385 1.390 . S
C2390 C2389 1.387 . S
H2391 C2403 0.930 . S
H2392 C2405 0.930 . S
H2393 C2406 0.930 . S
H2394 C2410 0.959 . S
H2395 C2410 0.959 . S
H2396 C2410 0.961 . S
H2397 C2411 0.960 . S
H2398 C2411 0.961 . S
H2399 C2411 0.959 1_545 S
H2400 C2414 0.929 . S
H2401 C2415 0.933 . S
H2402 C2417 0.930 . S
C2403 H2391 0.930 . S
C2403 C2404 1.399 . S
C2403 C2408 1.399 . S
C2404 C2403 1.399 . S
C2404 C2405 1.376 . S
C2405 H2392 0.930 . S
C2405 C2404 1.376 . S
C2405 C2406 1.388 . S
C2406 H2393 0.930 . S
C2406 C2405 1.388 . S
C2406 C2407 1.390 . S
C2407 C2406 1.390 . S
C2407 C2408 1.394 . S
C2407 C2413 1.465 . S
C2408 C2403 1.399 . S
C2408 C2407 1.394 . S
C2408 C2409 1.516 1_545 S
C2409 C2408 1.516 1_565 S
C2409 C2410 1.502 . S
C2409 C2411 1.561 . S
C2409 C2412 1.526 . S
C2410 H2394 0.959 . S
C2410 H2395 0.959 . S
C2410 H2396 0.961 . S
C2410 C2409 1.502 . S
C2411 H2397 0.960 . S
C2411 H2398 0.961 . S
C2411 H2399 0.959 1_565 S
C2411 C2409 1.561 . S
C2412 C2409 1.526 . S
C2412 C2413 1.396 1_565 S
C2412 C2417 1.390 . S
C2413 C2407 1.465 . S
C2413 C2412 1.396 1_545 S
C2413 C2414 1.399 . S
C2414 H2400 0.929 . S
C2414 C2413 1.399 . S
C2414 C2415 1.385 1_545 S
C2415 H2401 0.933 . S
C2415 C2414 1.385 1_565 S
C2415 C2416 1.389 . S
C2416 C2415 1.389 . S
C2416 C2417 1.387 . S
C2417 H2402 0.930 . S
C2417 C2412 1.390 . S
C2417 C2416 1.387 . S
H2418 C2430 0.930 . S
H2419 C2432 0.930 . S
H2420 C2433 0.930 . S
H2421 C2437 0.959 . S
H2422 C2437 0.959 . S
H2423 C2437 0.961 . S
H2424 C2438 0.960 . S
H2425 C2438 0.942 1_565 S
H2426 C2438 0.959 . S
H2427 C2441 0.929 . S
H2428 C2442 0.931 . S
H2429 C2444 0.930 . S
C2430 H2418 0.930 . S
C2430 C2431 1.399 . S
C2430 C2435 1.399 . S
C2431 C2430 1.399 . S
C2431 C2432 1.376 . S
C2432 H2419 0.930 . S
C2432 C2431 1.376 . S
C2432 C2433 1.388 . S
C2433 H2420 0.930 . S
C2433 C2432 1.388 . S
C2433 C2434 1.401 . S
C2434 C2433 1.401 . S
C2434 C2435 1.396 . S
C2434 C2440 1.450 1_545 S
C2435 C2430 1.399 . S
C2435 C2434 1.396 . S
C2435 C2436 1.516 1_545 S
C2436 C2435 1.516 1_565 S
C2436 C2437 1.502 . S
C2436 C2438 1.561 1_565 S
C2436 C2439 1.526 . S
C2437 H2421 0.959 . S
C2437 H2422 0.959 . S
C2437 H2423 0.961 . S
C2437 C2436 1.502 . S
C2438 H2424 0.960 . S
C2438 H2425 0.942 1_545 S
C2438 H2426 0.959 . S
C2438 C2436 1.561 1_545 S
C2439 C2436 1.526 . S
C2439 C2440 1.396 . S
C2439 C2444 1.390 . S
C2440 C2434 1.450 1_565 S
C2440 C2439 1.396 . S
C2440 C2441 1.399 . S
C2441 H2427 0.929 . S
C2441 C2440 1.399 . S
C2441 C2442 1.385 . S
C2442 H2428 0.931 . S
C2442 C2441 1.385 . S
C2442 C2443 1.389 . S
C2443 C2442 1.389 . S
C2443 C2444 1.387 . S
C2444 H2429 0.930 . S
C2444 C2439 1.390 . S
C2444 C2443 1.387 . S
H2445 C2457 0.930 . S
H2446 C2459 0.930 . S
H2447 C2460 0.930 . S
H2448 C2464 0.959 . S
H2449 C2464 0.959 . S
H2450 C2464 0.961 . S
H2451 C2465 0.960 . S
H2452 C2465 0.961 . S
H2453 C2465 0.959 . S
H2454 C2468 0.929 . S
H2455 C2469 0.931 . S
H2456 C2471 0.930 . S
C2457 H2445 0.930 . S
C2457 C2458 1.399 . S
C2457 C2462 1.399 . S
C2458 C2457 1.399 . S
C2458 C2459 1.376 . S
C2459 H2446 0.930 . S
C2459 C2458 1.376 . S
C2459 C2460 1.388 . S
C2460 H2447 0.930 . S
C2460 C2459 1.388 . S
C2460 C2461 1.390 . S
C2461 C2460 1.390 . S
C2461 C2462 1.394 . S
C2461 C2467 1.465 . S
C2462 C2457 1.399 . S
C2462 C2461 1.394 . S
C2462 C2463 1.516 . S
C2463 C2462 1.516 . S
C2463 C2464 1.502 . S
C2463 C2465 1.561 . S
C2463 C2466 1.526 . S
C2464 H2448 0.959 . S
C2464 H2449 0.959 . S
C2464 H2450 0.961 . S
C2464 C2463 1.502 . S
C2465 H2451 0.960 . S
C2465 H2452 0.961 . S
C2465 H2453 0.959 . S
C2465 C2463 1.561 . S
C2466 C2463 1.526 . S
C2466 C2467 1.396 . S
C2466 C2471 1.390 . S
C2467 C2461 1.465 . S
C2467 C2466 1.396 . S
C2467 C2468 1.399 . S
C2468 H2454 0.929 . S
C2468 C2467 1.399 . S
C2468 C2469 1.385 . S
C2469 H2455 0.931 . S
C2469 C2468 1.385 . S
C2469 C2470 1.389 . S
C2470 C2469 1.389 . S
C2470 C2471 1.387 . S
C2471 H2456 0.930 . S
C2471 C2466 1.390 . S
C2471 C2470 1.387 . S
C541 C8 0.916 . S
C553 C348 0.894 . S
C568 C282 0.977 . S
C580 C32 0.936 . S
C595 C294 0.889 . S
C607 C52 0.969 . S
C622 C76 0.882 . S
C634 C316 0.955 . S
C649 C96 0.888 . S
C661 C206 0.968 . S
C676 C120 0.959 . S
C688 C228 0.962 . S
C703 C150 0.938 . S
C715 C252 0.884 . S
C730 C172 0.968 . S
C742 C194 0.952 . S
C757 C362 0.896 . S
C769 C448 0.912 . S
C784 C382 0.889 . S
C796 C516 0.924 . S
C811 C406 0.944 . S
C823 C480 0.883 . S
C838 C426 0.973 . S
C850 C502 0.944 . S
C865 C469 1.260 . S
C877 C15 1.272 . S
C892 C29 1.186 . S
C904 C491 1.252 . S
C919 C59 1.262 . S
C931 C367 1.228 1_556 S
C946 C73 1.266 . S
C958 C521 1.269 . S
C973 C439 1.276 . S
C985 C103 1.256 . S
C1000 C461 1.282 . S
C1012 C117 1.227 . S
C1027 C153 1.187 . S
C1039 C395 1.244 1_554 S
C1054 C175 1.274 . S
C1066 C411 1.255 . S
C1081 C197 1.264 . S
C1093 C109 1.271 . S
C1108 C213 1.202 . S
C1120 C125 1.274 . S
C1135 C235 1.187 . S
C1147 C139 1.246 1_455 S
C1162 C249 1.272 . S
C1174 C161 1.240 . S
C1189 C21 1.232 1_655 S
C1201 C285 1.267 . S
C1216 C301 1.210 . S
C1228 C37 1.278 . S
C1243 C323 1.274 . S
C1255 C65 1.255 . S
C1270 C351 1.253 . S
C1282 C81 1.223 . S
C1297 C329 1.237 . S
C1309 C359 1.270 . S
C1324 C241 1.275 1_545 S
C1336 C389 1.203 . S
C1351 C403 1.229 . S
C1363 C257 1.282 . S
C1378 C183 1.223 1_565 S
C1390 C433 1.256 . S
C1405 C455 1.268 . S
C1417 C219 1.267 . S
C1432 C271 1.261 . S
C1444 C483 1.189 . S
C1459 C307 1.267 . S
C1471 C505 1.194 . S
C1486 C337 1.263 . S
C1498 C513 1.191 . S
C1513 C404 1.399 . S
C1525 C10 1.439 . S
C1540 C40 1.466 . S
C1552 C436 1.452 . S
C1567 C458 1.454 . S
C1579 C54 1.467 . S
C1594 C84 1.457 . S
C1606 C392 1.445 . S
C1621 C494 1.454 . S
C1633 C98 1.467 . S
C1648 C360 1.389 . S
C1660 C128 1.431 . S
C1675 C514 1.373 . S
C1687 C140 1.404 . S
C1702 C472 1.451 . S
C1714 C162 1.471 . S
C1729 C216 1.402 . S
C1741 C184 1.441 . S
C1756 C238 1.451 . S
C1768 C208 1.463 . S
C1783 C230 1.451 . S
C1795 C250 1.439 . S
C1810 C260 1.431 . S
C1822 C186 1.417 . S
C1837 C340 1.373 . S
C1849 C272 1.404 . S
C1864 C274 1.388 . S
C1876 C296 1.430 . S
C1891 C318 1.418 . S
C1903 C304 1.377 . S
C1918 C338 1.417 . S
C1930 C326 1.398 . S
C1945 C74 1.402 . S
C1957 C370 1.441 . S
C1972 C118 1.411 . S
C1984 C384 1.448 . S
C1999 C142 1.391 . S
C2011 C414 1.432 . S
C2026 C164 1.366 . S
C2038 C428 1.403 . S
C2053 C106 1.394 . S
C2065 C450 1.415 . S
C2080 C30 1.409 . S
C2092 C470 1.446 . S
C2107 C62 1.427 . S
C2119 C492 1.459 . S
C2134 C524 1.409 . S
C2146 C18 1.369 . S
C2161 C7 1.610 . S
C2173 C205 1.614 . S
C2188 C227 1.620 . S
C2200 C43 1.615 . S
C2215 C51 1.624 . S
C2227 C263 1.626 . S
C2242 C87 1.624 . S
C2254 C191 1.626 . S
C2269 C95 1.610 . S
C2281 C345 1.609 . S
C2296 C279 1.617 . S
C2308 C131 1.613 . S
C2323 C147 1.624 . S
C2335 C293 1.620 . S
C2350 C169 1.614 . S
C2362 C315 1.620 . S
C2377 C373 1.619 . S
C2389 C417 1.614 . S
C2404 C381 1.612 . S
C2416 C499 1.610 . S
C2431 C527 1.622 . S
C2443 C425 1.626 . S
C2458 C447 1.623 . S
C2470 C477 1.619 . S
