# Generated by pormake.
# Topology utj, (3)-cn, num edge types: 1
# Building blocks:
#     Node 0, Type 0, BuildingBlock: WUSLED_clean_sbu_0, # of connection points: 3
#     Node 1, Type 0, BuildingBlock: WUSLED_clean_sbu_0, # of connection points: 3
#     Node 2, Type 0, BuildingBlock: WUSLED_clean_sbu_0, # of connection points: 3
#     Node 3, Type 0, BuildingBlock: WUSLED_clean_sbu_0, # of connection points: 3
#     Node 4, Type 0, BuildingBlock: WUSLED_clean_sbu_0, # of connection points: 3
#     Node 5, Type 0, BuildingBlock: WUSLED_clean_sbu_0, # of connection points: 3
#     Node 6, Type 0, BuildingBlock: WUSLED_clean_sbu_0, # of connection points: 3
#     Node 7, Type 0, BuildingBlock: WUSLED_clean_sbu_0, # of connection points: 3
#     Node 8, Type 0, BuildingBlock: WUSLED_clean_sbu_0, # of connection points: 3
#     Node 9, Type 0, BuildingBlock: WUSLED_clean_sbu_0, # of connection points: 3
#     Node 10, Type 0, BuildingBlock: WUSLED_clean_sbu_0, # of connection points: 3
#     Node 11, Type 0, BuildingBlock: WUSLED_clean_sbu_0, # of connection points: 3
#     Node 12, Type 0, BuildingBlock: WUSLED_clean_sbu_0, # of connection points: 3
#     Node 13, Type 0, BuildingBlock: WUSLED_clean_sbu_0, # of connection points: 3
#     Node 14, Type 0, BuildingBlock: WUSLED_clean_sbu_0, # of connection points: 3
#     Node 15, Type 0, BuildingBlock: WUSLED_clean_sbu_0, # of connection points: 3
#     Edge 16, Type (0, 0), BuildingBlock: TEMPAE_clean_linker_10, # of connection points: 2
#     Edge 17, Type (0, 0), BuildingBlock: TEMPAE_clean_linker_10, # of connection points: 2
#     Edge 18, Type (0, 0), BuildingBlock: TEMPAE_clean_linker_10, # of connection points: 2
#     Edge 19, Type (0, 0), BuildingBlock: TEMPAE_clean_linker_10, # of connection points: 2
#     Edge 20, Type (0, 0), BuildingBlock: TEMPAE_clean_linker_10, # of connection points: 2
#     Edge 21, Type (0, 0), BuildingBlock: TEMPAE_clean_linker_10, # of connection points: 2
#     Edge 22, Type (0, 0), BuildingBlock: TEMPAE_clean_linker_10, # of connection points: 2
#     Edge 23, Type (0, 0), BuildingBlock: TEMPAE_clean_linker_10, # of connection points: 2
#     Edge 24, Type (0, 0), BuildingBlock: TEMPAE_clean_linker_10, # of connection points: 2
#     Edge 25, Type (0, 0), BuildingBlock: TEMPAE_clean_linker_10, # of connection points: 2
#     Edge 26, Type (0, 0), BuildingBlock: TEMPAE_clean_linker_10, # of connection points: 2
#     Edge 27, Type (0, 0), BuildingBlock: TEMPAE_clean_linker_10, # of connection points: 2
#     Edge 28, Type (0, 0), BuildingBlock: TEMPAE_clean_linker_10, # of connection points: 2
#     Edge 29, Type (0, 0), BuildingBlock: TEMPAE_clean_linker_10, # of connection points: 2
#     Edge 30, Type (0, 0), BuildingBlock: TEMPAE_clean_linker_10, # of connection points: 2
#     Edge 31, Type (0, 0), BuildingBlock: TEMPAE_clean_linker_10, # of connection points: 2
#     Edge 32, Type (0, 0), BuildingBlock: TEMPAE_clean_linker_10, # of connection points: 2
#     Edge 33, Type (0, 0), BuildingBlock: TEMPAE_clean_linker_10, # of connection points: 2
#     Edge 34, Type (0, 0), BuildingBlock: TEMPAE_clean_linker_10, # of connection points: 2
#     Edge 35, Type (0, 0), BuildingBlock: TEMPAE_clean_linker_10, # of connection points: 2
#     Edge 36, Type (0, 0), BuildingBlock: TEMPAE_clean_linker_10, # of connection points: 2
#     Edge 37, Type (0, 0), BuildingBlock: TEMPAE_clean_linker_10, # of connection points: 2
#     Edge 38, Type (0, 0), BuildingBlock: TEMPAE_clean_linker_10, # of connection points: 2
#     Edge 39, Type (0, 0), BuildingBlock: TEMPAE_clean_linker_10, # of connection points: 2
# Relax obj value: 0.003
# Max RMSD: 0.009
# Mean RMSD: 0.009
data_MOF--net-utj--node1-WUSLED_clean_sbu_0--edge1-TEMPAE_clean_linker_10
_symmetry_space_group_name_H-M    P1
_symmetry_Int_Tables_number       1
_symmetry_cell_setting            triclinic
loop_
_symmetry_equiv_pos_as_xyz
'x, y, z'
_cell_length_a     77.869225
_cell_length_b     77.881012
_cell_length_c     65.93022
_cell_angle_alpha  89.968868
_cell_angle_beta   89.978511
_cell_angle_gamma 90.017709
loop_
_atom_site_label
_atom_site_type_symbol
_atom_site_fract_x
_atom_site_fract_y
_atom_site_fract_z
_atom_type_partial_charge
C0 C 0.04246 0.42135 0.05653 0.0
C1 C 0.04334 0.43594 0.06898 0.0
C2 C 0.03135 0.45363 0.04184 0.0
C3 C 0.03782 0.45193 0.06171 0.0
C4 C 0.03049 0.4389 0.02951 0.0
C5 C 0.03599 0.42294 0.03679 0.0
U6 U 0.06117 0.3918 0.09753 0.0
O7 O 0.05404 0.36526 0.10556 0.0
O8 O 0.08004 0.3709 0.09468 0.0
C9 C 0.06889 0.35896 0.09971 0.0
C10 C 0.04825 0.40441 0.06379 0.0
C11 C 0.06807 0.34393 0.08609 0.0
C12 C 0.06366 0.33125 0.05272 0.0
C13 C 0.06411 0.3457 0.06542 0.0
C14 C 0.07097 0.31309 0.08124 0.0
C15 C 0.06716 0.31473 0.06045 0.0
C16 C 0.07143 0.32753 0.09389 0.0
C17 C 0.07234 0.41344 0.1494 0.0
C18 C 0.08258 0.40002 0.18051 0.0
C19 C 0.07906 0.43088 0.17893 0.0
C20 C 0.07347 0.4295 0.15886 0.0
C21 C 0.08372 0.41619 0.19008 0.0
C22 C 0.07695 0.39866 0.16031 0.0
C23 C 0.06604 0.41276 0.12832 0.0
O24 O 0.06482 0.40292 0.06712 0.0
O25 O 0.03884 0.3974 0.07813 0.0
O26 O 0.0516 0.40444 0.12519 0.0
O27 O 0.07758 0.41007 0.11412 0.0
H28 H 0.04834 0.43495 0.08427 0.0
H29 H 0.03884 0.46301 0.07154 0.0
H30 H 0.02536 0.43965 0.01427 0.0
H31 H 0.03516 0.41181 0.02699 0.0
H32 H 0.06086 0.33307 0.03677 0.0
H33 H 0.06147 0.35827 0.05909 0.0
H34 H 0.07346 0.3006 0.08784 0.0
H35 H 0.07443 0.32587 0.10981 0.0
H36 H 0.08616 0.38845 0.18858 0.0
H37 H 0.07941 0.44349 0.18582 0.0
H38 H 0.06988 0.44105 0.15074 0.0
H39 H 0.07616 0.38613 0.15325 0.0
C40 C 0.10007 0.04335 0.55744 0.0
C41 C 0.08726 0.0381 0.5711 0.0
C42 C 0.06782 0.03192 0.54296 0.0
C43 C 0.0713 0.03238 0.56392 0.0
C44 C 0.08069 0.03734 0.52939 0.0
C45 C 0.09664 0.04297 0.53657 0.0
U46 U 0.13015 0.06204 0.59801 0.0
O47 O 0.15678 0.05509 0.60561 0.0
O48 O 0.15098 0.08104 0.59464 0.0
C49 C 0.16299 0.0699 0.59943 0.0
C50 C 0.11708 0.04917 0.56453 0.0
C51 C 0.17794 0.06915 0.58558 0.0
C52 C 0.194 0.05573 0.55809 0.0
C53 C 0.17948 0.05634 0.57069 0.0
C54 C 0.20547 0.0809 0.57483 0.0
C55 C 0.2072 0.06801 0.56001 0.0
C56 C 0.19102 0.08143 0.58747 0.0
C57 C 0.1091 0.07323 0.65031 0.0
C58 C 0.12249 0.0794 0.68291 0.0
C59 C 0.09172 0.08236 0.67899 0.0
C60 C 0.09311 0.07745 0.65868 0.0
C61 C 0.10634 0.08318 0.69148 0.0
C62 C 0.12386 0.0744 0.66248 0.0
C63 C 0.1096 0.06694 0.6292 0.0
O64 O 0.11859 0.06574 0.56781 0.0
O65 O 0.12436 0.03976 0.57868 0.0
O66 O 0.11788 0.0525 0.6259 0.0
O67 O 0.11207 0.07847 0.61493 0.0
H68 H 0.0896 0.0384 0.58729 0.0
H69 H 0.06162 0.02849 0.57479 0.0
H70 H 0.07854 0.03698 0.51317 0.0
H71 H 0.10635 0.04696 0.52579 0.0
H72 H 0.1948 0.04576 0.54669 0.0
H73 H 0.1695 0.04678 0.56883 0.0
H74 H 0.21544 0.09044 0.5769 0.0
H75 H 0.19012 0.09141 0.59887 0.0
H76 H 0.13399 0.07983 0.69213 0.0
H77 H 0.07914 0.08547 0.68495 0.0
H78 H 0.08157 0.07668 0.64953 0.0
H79 H 0.13635 0.07118 0.6563 0.0
C80 C 0.48054 0.10069 0.05644 0.0
C81 C 0.48467 0.08741 0.07 0.0
C82 C 0.49204 0.06856 0.04169 0.0
C83 C 0.49038 0.0715 0.06269 0.0
C84 C 0.48762 0.08189 0.02822 0.0
C85 C 0.48195 0.09777 0.03554 0.0
U86 U 0.46408 0.13108 0.09801 0.0
O87 O 0.47216 0.15755 0.10503 0.0
O88 O 0.44556 0.15235 0.09601 0.0
C89 C 0.45719 0.16411 0.10007 0.0
C90 C 0.4751 0.11774 0.06375 0.0
C91 C 0.45768 0.1791 0.08632 0.0
C92 C 0.45714 0.19171 0.05249 0.0
C93 C 0.45701 0.17721 0.06515 0.0
C94 C 0.45888 0.21012 0.08198 0.0
C95 C 0.45799 0.20839 0.06074 0.0
C96 C 0.45871 0.19565 0.09459 0.0
C97 C 0.45553 0.111 0.15139 0.0
C98 C 0.43811 0.1213 0.1796 0.0
C99 C 0.45776 0.09759 0.18461 0.0
C100 C 0.46279 0.0987 0.1643 0.0
C101 C 0.44529 0.10881 0.19256 0.0
C102 C 0.4432 0.12241 0.15918 0.0
C103 C 0.46055 0.11089 0.12977 0.0
O104 O 0.45873 0.11935 0.06823 0.0
O105 O 0.48526 0.12501 0.07714 0.0
O106 O 0.47503 0.11862 0.12513 0.0
O107 O 0.44832 0.1135 0.11638 0.0
H108 H 0.48366 0.08942 0.08622 0.0
H109 H 0.49381 0.06161 0.07351 0.0
H110 H 0.48843 0.08002 1.01197 0.0
H111 H 0.47875 0.10783 0.02484 0.0
H112 H 0.45626 0.18984 0.03625 0.0
H113 H 0.45625 0.16454 0.05842 0.0
H114 H 0.45987 0.22268 0.08891 0.0
H115 H 0.45935 0.19739 0.11088 0.0
H116 H 0.42861 0.13025 0.18524 0.0
H117 H 0.46337 0.08763 0.19397 0.0
H118 H 0.47222 0.08969 0.15857 0.0
H119 H 0.43741 0.13203 0.14948 0.0
C120 C 0.42271 0.47906 0.55501 0.0
C121 C 0.4354 0.48461 0.56865 0.0
C122 C 0.45509 0.49015 0.54054 0.0
C123 C 0.45142 0.49015 0.56147 0.0
C124 C 0.44235 0.48439 0.52701 0.0
C125 C 0.42634 0.47893 0.53419 0.0
U126 U 0.39195 0.46266 0.59626 0.0
O127 O 0.36536 0.47034 0.60294 0.0
O128 O 0.37089 0.44379 0.59399 0.0
C129 C 0.35899 0.45531 0.59785 0.0
C130 C 0.40558 0.4736 0.56211 0.0
C131 C 0.3441 0.45553 0.58391 0.0
C132 C 0.32825 0.46775 0.55548 0.0
C133 C 0.34283 0.46745 0.56798 0.0
C134 C 0.31617 0.444 0.5744 0.0
C135 C 0.31465 0.45608 0.55859 0.0
C136 C 0.3307 0.44377 0.58691 0.0
C137 C 0.41179 0.45454 0.6499 0.0
C138 C 0.40107 0.43768 0.67837 0.0
C139 C 0.42547 0.45655 0.68297 0.0
C140 C 0.42441 0.46147 0.66262 0.0
C141 C 0.41388 0.44454 0.69116 0.0
C142 C 0.40002 0.44265 0.65792 0.0
C143 C 0.41192 0.45947 0.62826 0.0
O144 O 0.404 0.45725 0.56668 0.0
O145 O 0.39807 0.48377 0.57531 0.0
O146 O 0.40404 0.47383 0.62348 0.0
O147 O 0.4095 0.44714 0.61493 0.0
H148 H 0.43289 0.48471 0.58481 0.0
H149 H 0.461 0.4943 0.57232 0.0
H150 H 0.44465 0.48439 0.51081 0.0
H151 H 0.4167 0.47471 0.52343 0.0
H152 H 0.32751 0.47734 0.54362 0.0
H153 H 0.35303 0.47665 0.56532 0.0
H154 H 0.30617 0.43461 0.57706 0.0
H155 H 0.33143 0.4344 0.59904 0.0
H156 H 0.39183 0.42853 0.6842 0.0
H157 H 0.43568 0.46188 0.69217 0.0
H158 H 0.4337 0.47056 0.65671 0.0
H159 H 0.39015 0.43713 0.64835 0.0
C160 C 0.04109 0.10213 0.97294 0.0
C161 C 0.04355 0.08727 0.96126 0.0
C162 C 0.02941 0.06992 0.98725 0.0
C163 C 0.03779 0.0713 0.96836 0.0
C164 C 0.02698 0.08491 0.99882 0.0
C165 C 0.03277 0.10083 0.99172 0.0
U166 U 0.06059 0.13178 0.93248 0.0
O167 O 0.05359 0.15838 0.92445 0.0
O168 O 0.07943 0.15265 0.93582 0.0
C169 C 0.06835 0.16464 0.93071 0.0
C170 C 0.04708 0.11906 0.96584 0.0
C171 C 0.06734 0.17968 0.94434 0.0
C172 C 0.06713 0.1924 0.97811 0.0
C173 C 0.06756 0.17787 0.96554 0.0
C174 C 0.06592 0.21071 0.94848 0.0
C175 C 0.0664 0.20905 0.96975 0.0
C176 C 0.06641 0.1962 0.93596 0.0
C177 C 0.07258 0.11041 0.8807 0.0
C178 C 0.08126 0.124 0.84901 0.0
C179 C 0.0812 0.09301 0.85183 0.0
C180 C 0.07553 0.09432 0.87188 0.0
C181 C 0.08412 0.1078 0.84005 0.0
C182 C 0.07555 0.1253 0.86919 0.0
C183 C 0.06594 0.11098 0.90165 0.0
O184 O 0.0637 0.12052 0.96289 0.0
O185 O 0.03792 0.12613 0.95134 0.0
O186 O 0.05146 0.1193 0.90454 0.0
O187 O 0.07724 0.11355 0.91613 0.0
H188 H 0.0499 0.08803 0.94666 0.0
H189 H 0.0397 0.06007 0.95895 0.0
H190 H 0.02081 0.08432 1.01353 0.0
H191 H 0.03079 0.11216 1.00097 0.0
H192 H 0.0677 0.19058 0.99438 0.0
H193 H 0.06824 0.16523 0.97237 0.0
H194 H 0.06505 0.22325 0.94145 0.0
H195 H 0.06613 0.19789 0.91964 0.0
H196 H 0.08349 0.13567 0.84047 0.0
H197 H 0.0829 0.08032 0.84542 0.0
H198 H 0.07322 0.08268 0.88046 0.0
H199 H 0.07335 0.13786 0.87574 0.0
C200 C 0.42171 0.04323 0.47261 0.0
C201 C 0.4343 0.03777 0.45878 0.0
C202 C 0.45412 0.03184 0.48663 0.0
C203 C 0.45033 0.03207 0.46573 0.0
C204 C 0.44148 0.03749 0.50035 0.0
C205 C 0.42546 0.0431 0.4934 0.0
U206 U 0.3909 0.06181 0.43263 0.0
O207 O 0.36427 0.05448 0.42549 0.0
O208 O 0.36987 0.08045 0.43645 0.0
C209 C 0.35794 0.06926 0.43154 0.0
C210 C 0.40457 0.04891 0.46579 0.0
C211 C 0.34297 0.06837 0.44525 0.0
C212 C 0.32921 0.05896 0.47653 0.0
C213 C 0.34372 0.0597 0.46391 0.0
C214 C 0.31313 0.07563 0.45204 0.0
C215 C 0.31368 0.06688 0.47073 0.0
C216 C 0.3276 0.07634 0.43947 0.0
C217 C 0.41016 0.07403 0.37979 0.0
C218 C 0.40078 0.07216 0.34456 0.0
C219 C 0.42336 0.092 0.35383 0.0
C220 C 0.42198 0.08675 0.37407 0.0
C221 C 0.41298 0.08459 0.33873 0.0
C222 C 0.39937 0.06694 0.36487 0.0
C223 C 0.41064 0.06737 0.40088 0.0
O224 O 0.40283 0.06548 0.46265 0.0
O225 O 0.39723 0.0395 0.45169 0.0
O226 O 0.40298 0.05262 0.40448 0.0
O227 O 0.4085 0.07864 0.4155 0.0
H228 H 0.43172 0.03788 0.44263 0.0
H229 H 0.45983 0.02801 0.45473 0.0
H230 H 0.44387 0.0373 0.51653 0.0
H231 H 0.41591 0.04724 0.50432 0.0
H232 H 0.33009 0.05198 0.4907 0.0
H233 H 0.35548 0.05346 0.46866 0.0
H234 H 0.30155 0.08214 0.44719 0.0
H235 H 0.32678 0.08317 0.42517 0.0
H236 H 0.39243 0.06632 0.33338 0.0
H237 H 0.43305 0.10142 0.34991 0.0
H238 H 0.43058 0.09229 0.38521 0.0
H239 H 0.39012 0.05709 0.36877 0.0
C240 C 0.4793 0.42172 0.9714 0.0
C241 C 0.48457 0.43444 0.95763 0.0
C242 C 0.49059 0.45411 0.9856 0.0
C243 C 0.49022 0.45047 0.96467 0.0
C244 C 0.4851 0.44135 0.99927 0.0
C245 C 0.47954 0.42533 0.99223 0.0
U246 U 0.46089 0.39092 0.93132 0.0
O247 O 0.4685 0.36437 0.92405 0.0
O248 O 0.44248 0.3697 0.93506 0.0
C249 C 0.45379 0.35789 0.93014 0.0
C250 C 0.47372 0.40458 0.96449 0.0
C251 C 0.45488 0.34296 0.94391 0.0
C252 C 0.45958 0.33049 0.97733 0.0
C253 C 0.45897 0.34488 0.96452 0.0
C254 C 0.45217 0.31214 0.94903 0.0
C255 C 0.4561 0.31391 0.96977 0.0
C256 C 0.45156 0.3265 0.93628 0.0
C257 C 0.44841 0.41025 0.87862 0.0
C258 C 0.44981 0.40038 0.84355 0.0
C259 C 0.4308 0.42374 0.85255 0.0
C260 C 0.43608 0.42243 0.87278 0.0
C261 C 0.43778 0.41292 0.83758 0.0
C262 C 0.45506 0.39904 0.86385 0.0
C263 C 0.45509 0.41071 0.89967 0.0
O264 O 0.45716 0.40271 0.9614 0.0
O265 O 0.48318 0.39739 0.95032 0.0
O266 O 0.46991 0.40317 0.90318 0.0
O267 O 0.44386 0.40841 0.91432 0.0
H268 H 0.48438 0.43196 0.94147 0.0
H269 H 0.49416 0.46006 0.95372 0.0
H270 H 0.4854 0.44362 0.01547 0.0
H271 H 0.47555 0.41568 1.0031 0.0
H272 H 0.46248 0.33239 0.99324 0.0
H273 H 0.46156 0.3575 0.97071 0.0
H274 H 0.4497 0.2996 0.94256 0.0
H275 H 0.44845 0.32475 0.92039 0.0
H276 H 0.4553 0.39171 0.83248 0.0
H277 H 0.42171 0.4337 0.84853 0.0
H278 H 0.43088 0.43133 0.88381 0.0
H279 H 0.46459 0.3895 0.86787 0.0
C280 C 0.10136 0.47993 0.47273 0.0
C281 C 0.0874 0.48163 0.45942 0.0
C282 C 0.06907 0.4911 0.48734 0.0
C283 C 0.07141 0.4872 0.46665 0.0
C284 C 0.08315 0.48933 0.50056 0.0
C285 C 0.09912 0.48381 0.49331 0.0
U286 U 0.1311 0.46114 0.43192 0.0
O287 O 0.15769 0.46811 0.42409 0.0
O288 O 0.15192 0.44216 0.43507 0.0
C289 C 0.16392 0.45325 0.43006 0.0
C290 C 0.11832 0.47412 0.46552 0.0
C291 C 0.17894 0.454 0.44372 0.0
C292 C 0.19304 0.46404 0.4745 0.0
C293 C 0.17857 0.46349 0.46183 0.0
C294 C 0.20834 0.44552 0.45119 0.0
C295 C 0.20812 0.45502 0.46936 0.0
C296 C 0.19391 0.44504 0.43854 0.0
C297 C 0.10985 0.4497 0.37987 0.0
C298 C 0.12275 0.44498 0.34665 0.0
C299 C 0.09255 0.43907 0.35186 0.0
C300 C 0.09409 0.44399 0.37215 0.0
C301 C 0.10678 0.43974 0.33872 0.0
C302 C 0.12428 0.44998 0.36705 0.0
C303 C 0.11038 0.45611 0.40095 0.0
O304 O 0.1198 0.45755 0.46226 0.0
O305 O 0.12541 0.48349 0.4512 0.0
O306 O 0.11864 0.47059 0.40413 0.0
O307 O 0.11287 0.44465 0.41529 0.0
H308 H 0.08887 0.47862 0.44347 0.0
H309 H 0.06081 0.48824 0.45609 0.0
H310 H 0.08191 0.49243 0.51651 0.0
H311 H 0.10975 0.48261 0.50381 0.0
H312 H 0.19234 0.47132 0.48846 0.0
H313 H 0.16709 0.47044 0.46616 0.0
H314 H 0.21977 0.43862 0.44659 0.0
H315 H 0.19447 0.43767 0.42462 0.0
H316 H 0.13395 0.44572 0.33693 0.0
H317 H 0.08014 0.43482 0.3464 0.0
H318 H 0.08281 0.44364 0.38179 0.0
H319 H 0.13658 0.45436 0.3727 0.0
C320 C 0.97885 0.60074 0.97305 0.0
C321 C 0.97648 0.58586 0.96138 0.0
C322 C 0.99036 0.56855 0.98758 0.0
C323 C 0.98215 0.5699 0.9686 0.0
C324 C 0.99268 0.58356 0.99915 0.0
C325 C 0.98697 0.59947 0.99195 0.0
U326 U 0.9609 0.63035 0.93167 0.0
O327 O 0.94207 0.65134 0.93398 0.0
O328 O 0.96831 0.65683 0.92379 0.0
C329 C 0.95338 0.66322 0.92922 0.0
C330 C 0.97307 0.61767 0.96575 0.0
C331 C 0.95404 0.67828 0.9428 0.0
C332 C 0.95809 0.69105 0.97617 0.0
C333 C 0.95758 0.67654 0.96358 0.0
C334 C 0.95164 0.7092 0.94734 0.0
C335 C 0.95515 0.70759 0.96821 0.0
C336 C 0.95109 0.6947 0.9348 0.0
C337 C 0.95133 0.60902 0.87924 0.0
C338 C 0.94011 0.62246 0.84862 0.0
C339 C 0.94793 0.59237 0.84833 0.0
C340 C 0.95269 0.59346 0.86872 0.0
C341 C 0.9417 0.60685 0.83793 0.0
C342 C 0.94494 0.62355 0.86913 0.0
C343 C 0.95688 0.60949 0.90062 0.0
O344 O 0.98278 0.62483 0.9518 0.0
O345 O 0.95658 0.61909 0.96188 0.0
O346 O 0.9449 0.61223 0.9143 0.0
O347 O 0.97127 0.61767 0.90445 0.0
H348 H 0.9703 0.5866 0.94668 0.0
H349 H 0.98032 0.55865 0.95919 0.0
H350 H 0.99873 0.58299 1.01393 0.0
H351 H 0.98889 0.61082 1.00118 0.0
H352 H 0.96101 0.68934 0.99211 0.0
H353 H 0.95997 0.66397 0.97003 0.0
H354 H 0.94908 0.72166 0.94071 0.0
H355 H 0.9483 0.69631 0.91881 0.0
H356 H 0.93545 0.63388 0.84104 0.0
H357 H 0.94904 0.58009 0.84075 0.0
H358 H 0.9575 0.58209 0.87629 0.0
H359 H 0.94382 0.63569 0.87702 0.0
C360 C 0.92182 0.97712 0.47333 0.0
C361 C 0.93532 0.9808 0.4599 0.0
C362 C 0.95386 0.98867 0.48831 0.0
C363 C 0.95119 0.98653 0.46732 0.0
C364 C 0.94029 0.98473 0.50166 0.0
C365 C 0.92445 0.97904 0.49422 0.0
U366 U 0.89194 0.9602 0.43154 0.0
O367 O 0.87091 0.94134 0.43349 0.0
O368 O 0.86543 0.9678 0.42418 0.0
C369 C 0.85903 0.95276 0.42917 0.0
C370 C 0.90486 0.97151 0.46588 0.0
C371 C 0.84404 0.95313 0.4429 0.0
C372 C 0.83107 0.95898 0.47579 0.0
C373 C 0.84552 0.9587 0.46307 0.0
C374 C 0.81353 0.94814 0.44831 0.0
C375 C 0.81486 0.95368 0.46859 0.0
C376 C 0.82796 0.94788 0.43564 0.0
C377 C 0.91281 0.9516 0.37857 0.0
C378 C 0.90207 0.93506 0.34988 0.0
C379 C 0.92771 0.95237 0.34616 0.0
C380 C 0.92623 0.95765 0.36633 0.0
C381 C 0.91578 0.94085 0.33768 0.0
C382 C 0.90061 0.94036 0.37019 0.0
C383 C 0.91251 0.95678 0.40011 0.0
O384 O 0.89762 0.98154 0.45232 0.0
O385 O 0.90344 0.95511 0.46149 0.0
O386 O 0.9099 0.94458 0.41355 0.0
O387 O 0.90446 0.97115 0.40444 0.0
H388 H 0.93353 0.97939 0.44369 0.0
H389 H 0.96127 0.98959 0.45658 0.0
H390 H 0.94194 0.98593 0.51791 0.0
H391 H 0.91421 0.97618 0.50483 0.0
H392 H 0.83264 0.96314 0.49135 0.0
H393 H 0.85784 0.96278 0.46897 0.0
H394 H 0.80127 0.94422 0.44212 0.0
H395 H 0.82655 0.94361 0.42009 0.0
H396 H 0.89269 0.92614 0.34387 0.0
H397 H 0.93822 0.95738 0.33716 0.0
H398 H 0.93575 0.96637 0.37248 0.0
H399 H 0.89015 0.93552 0.37939 0.0
C400 C 0.54597 0.92204 0.9728 0.0
C401 C 0.54035 0.93473 0.9592 0.0
C402 C 0.53507 0.95445 0.9873 0.0
C403 C 0.5349 0.95077 0.96638 0.0
C404 C 0.54094 0.94174 1.0008 0.0
C405 C 0.5463 0.9257 0.99361 0.0
U406 U 0.56215 0.89133 0.93149 0.0
O407 O 0.58047 0.86988 0.93358 0.0
O408 O 0.55385 0.86494 0.92443 0.0
C409 C 0.56874 0.85824 0.92946 0.0
C410 C 0.5512 0.90486 0.96568 0.0
C411 C 0.56803 0.84329 0.94325 0.0
C412 C 0.56693 0.83088 0.97716 0.0
C413 C 0.56743 0.84531 0.96441 0.0
C414 C 0.56744 0.81228 0.94776 0.0
C415 C 0.56693 0.81416 0.96899 0.0
C416 C 0.568 0.82669 0.93506 0.0
C417 C 0.57095 0.91184 0.87824 0.0
C418 C 0.5882 0.90189 0.8497 0.0
C419 C 0.56944 0.92643 0.84567 0.0
C420 C 0.56415 0.92477 0.86582 0.0
C421 C 0.58171 0.91518 0.83738 0.0
C422 C 0.58291 0.90026 0.87001 0.0
C423 C 0.56591 0.9116 0.89984 0.0
O424 O 0.541 0.8976 0.95231 0.0
O425 O 0.56756 0.90301 0.96128 0.0
O426 O 0.57812 0.90877 0.9132 0.0
O427 O 0.55137 0.9039 0.90434 0.0
H428 H 0.54009 0.93221 0.94304 0.0
H429 H 0.53067 0.96033 0.95555 0.0
H430 H 0.54108 0.94406 0.017 0.0
H431 H 0.55058 0.91607 1.00435 0.0
H432 H 0.56635 0.83282 0.99341 0.0
H433 H 0.56734 0.85803 0.97105 0.0
H434 H 0.56768 0.79964 0.94093 0.0
H435 H 0.56848 0.82485 0.91878 0.0
H436 H 0.5977 0.89304 0.84382 0.0
H437 H 0.5639 0.93659 0.83655 0.0
H438 H 0.55489 0.93382 0.87185 0.0
H439 H 0.58835 0.89018 0.87934 0.0
C440 C 0.60139 0.54543 0.47206 0.0
C441 C 0.58817 0.54143 0.45838 0.0
C442 C 0.5693 0.53342 0.48647 0.0
C443 C 0.57228 0.53547 0.46551 0.0
C444 C 0.58258 0.53766 0.50006 0.0
C445 C 0.59844 0.54358 0.49292 0.0
U446 U 0.6317 0.56444 0.43174 0.0
O447 O 0.65242 0.58347 0.43548 0.0
O448 O 0.65843 0.55757 0.42455 0.0
C449 C 0.66452 0.57243 0.43071 0.0
C450 C 0.61835 0.55139 0.46502 0.0
C451 C 0.6794 0.57176 0.44461 0.0
C452 C 0.69452 0.55962 0.47362 0.0
C453 C 0.68007 0.56016 0.46091 0.0
C454 C 0.70767 0.58242 0.45407 0.0
C455 C 0.70852 0.57076 0.47036 0.0
C456 C 0.69329 0.58289 0.44135 0.0
C457 C 0.61222 0.57625 0.37897 0.0
C458 C 0.62357 0.57624 0.34449 0.0
C459 C 0.59776 0.59225 0.35223 0.0
C460 C 0.59889 0.58705 0.37249 0.0
C461 C 0.60993 0.58673 0.33786 0.0
C462 C 0.62472 0.57106 0.36485 0.0
C463 C 0.61182 0.56962 0.40004 0.0
O464 O 0.62572 0.54206 0.45087 0.0
O465 O 0.61978 0.56798 0.46177 0.0
O466 O 0.6138 0.58095 0.41462 0.0
O467 O 0.61976 0.55502 0.40362 0.0
H468 H 0.59019 0.54281 0.44219 0.0
H469 H 0.56243 0.53219 0.45459 0.0
H470 H 0.58069 0.53655 0.51628 0.0
H471 H 0.60845 0.54669 0.50372 0.0
H472 H 0.69464 0.55062 0.48615 0.0
H473 H 0.66945 0.55151 0.4638 0.0
H474 H 0.71827 0.59104 0.45093 0.0
H475 H 0.69305 0.59192 0.42884 0.0
H476 H 0.63328 0.57191 0.33391 0.0
H477 H 0.58695 0.60011 0.34768 0.0
H478 H 0.58902 0.5911 0.38305 0.0
H479 H 0.63517 0.56274 0.36941 0.0
C480 C 0.97799 0.9221 0.05528 0.0
C481 C 0.97691 0.93658 0.06788 0.0
C482 C 0.98867 0.95465 0.04094 0.0
C483 C 0.98221 0.95271 0.06079 0.0
C484 C 0.98974 0.94003 0.02845 0.0
C485 C 0.98445 0.92395 0.03556 0.0
U486 U 0.95964 0.8914 0.09556 0.0
O487 O 0.9414 0.87004 0.09196 0.0
O488 O 0.96751 0.86488 0.10289 0.0
C489 C 0.9529 0.85831 0.0966 0.0
C490 C 0.97252 0.90499 0.06232 0.0
C491 C 0.95419 0.84342 0.0827 0.0
C492 C 0.95086 0.83031 0.04936 0.0
C493 C 0.95025 0.84481 0.06196 0.0
C494 C 0.95975 0.8129 0.07791 0.0
C495 C 0.95555 0.81414 0.05719 0.0
C496 C 0.95904 0.82737 0.0905 0.0
C497 C 0.94699 0.91105 0.14811 0.0
C498 C 0.94792 0.90106 0.18316 0.0
C499 C 0.93027 0.92548 0.17425 0.0
C500 C 0.93536 0.92387 0.15399 0.0
C501 C 0.93674 0.91433 0.1892 0.0
C502 C 0.95303 0.89945 0.16282 0.0
C503 C 0.95368 0.91128 0.12706 0.0
O504 O 0.98198 0.89805 0.07665 0.0
O505 O 0.95596 0.90304 0.06543 0.0
O506 O 0.94247 0.90883 0.11244 0.0
O507 O 0.96852 0.90373 0.12368 0.0
H508 H 0.97192 0.93539 0.08317 0.0
H509 H 0.98105 0.9637 0.07074 0.0
H510 H 0.99487 0.94097 1.01322 0.0
H511 H 0.98545 0.91291 0.02564 0.0
H512 H 0.94775 0.83177 0.03344 0.0
H513 H 0.94659 0.85706 0.0555 0.0
H514 H 0.96324 0.80065 0.0845 0.0
H515 H 0.96209 0.82597 0.10645 0.0
H516 H 0.95325 0.89231 0.19428 0.0
H517 H 0.92142 0.93566 0.17825 0.0
H518 H 0.93054 0.93299 0.14296 0.0
H519 H 0.96206 0.88945 0.15875 0.0
C520 C 0.60075 0.97709 0.55448 0.0
C521 C 0.58741 0.98093 0.56807 0.0
C522 C 0.56851 0.98841 0.53984 0.0
C523 C 0.57145 0.98655 0.56082 0.0
C524 C 0.5819 0.98428 0.52633 0.0
C525 C 0.59784 0.9787 0.53359 0.0
U526 U 0.63134 0.96082 0.59596 0.0
O527 O 0.65274 0.94245 0.59394 0.0
O528 O 0.65778 0.9691 0.60292 0.0
C529 C 0.66442 0.95418 0.59792 0.0
C530 C 0.61786 0.97176 0.56173 0.0
C531 C 0.67942 0.95477 0.58415 0.0
C532 C 0.69226 0.95255 0.55054 0.0
C533 C 0.67772 0.95239 0.56313 0.0
C534 C 0.71032 0.95781 0.57975 0.0
C535 C 0.70879 0.95518 0.55869 0.0
C536 C 0.69581 0.95758 0.5923 0.0
C537 C 0.61115 0.95218 0.64939 0.0
C538 C 0.61987 0.93366 0.67739 0.0
C539 C 0.59781 0.95511 0.68257 0.0
C540 C 0.59948 0.96033 0.66239 0.0
C541 C 0.60776 0.94153 0.69029 0.0
C542 C 0.62151 0.9389 0.65707 0.0
C543 C 0.6112 0.95717 0.62774 0.0
O544 O 0.62508 0.98196 0.57511 0.0
O545 O 0.61959 0.9554 0.56621 0.0
O546 O 0.61389 0.94495 0.61436 0.0
O547 O 0.61886 0.9717 0.62312 0.0
H548 H 0.58942 0.97976 0.58427 0.0
H549 H 0.56152 0.98976 0.57168 0.0
H550 H 0.58004 0.98527 0.5101 0.0
H551 H 0.60795 0.97572 0.52286 0.0
H552 H 0.69056 0.95031 0.53446 0.0
H553 H 0.66519 0.95024 0.55647 0.0
H554 H 0.72274 0.96019 0.58657 0.0
H555 H 0.69741 0.95956 0.60846 0.0
H556 H 0.62771 0.92314 0.68282 0.0
H557 H 0.58862 0.96169 0.69213 0.0
H558 H 0.59137 0.97061 0.6568 0.0
H559 H 0.63061 0.93239 0.64732 0.0
C560 C 0.54541 0.60039 0.0543 0.0
C561 C 0.54171 0.58695 0.0678 0.0
C562 C 0.53404 0.56824 0.03947 0.0
C563 C 0.53607 0.57102 0.06046 0.0
C564 C 0.53803 0.58174 0.02605 0.0
C565 C 0.54363 0.59764 0.03341 0.0
U566 U 0.56168 0.63073 0.096 0.0
O567 O 0.58003 0.65217 0.0941 0.0
O568 O 0.55339 0.65711 0.1032 0.0
C569 C 0.56829 0.66381 0.09819 0.0
C570 C 0.55075 0.61746 0.06167 0.0
C571 C 0.56762 0.6788 0.08444 0.0
C572 C 0.56846 0.69142 0.05062 0.0
C573 C 0.56886 0.67694 0.06329 0.0
C574 C 0.5653 0.70975 0.08003 0.0
C575 C 0.56668 0.70803 0.05884 0.0
C576 C 0.56579 0.6953 0.09266 0.0
C577 C 0.57029 0.61031 0.14918 0.0
C578 C 0.58532 0.62232 0.17832 0.0
C579 C 0.56983 0.59551 0.18166 0.0
C580 C 0.56502 0.59649 0.16128 0.0
C581 C 0.58004 0.60839 0.19051 0.0
C582 C 0.58046 0.62329 0.15782 0.0
C583 C 0.56532 0.61035 0.12758 0.0
O584 O 0.54054 0.6246 0.07511 0.0
O585 O 0.5671 0.61917 0.06615 0.0
O586 O 0.57758 0.61322 0.11428 0.0
O587 O 0.55081 0.61805 0.12302 0.0
H588 H 0.543 0.58883 0.08401 0.0
H589 H 0.53297 0.561 0.07125 0.0
H590 H 0.53692 0.58 1.00981 0.0
H591 H 0.5465 0.60784 0.02275 0.0
H592 H 0.56934 0.6896 0.03438 0.0
H593 H 0.57016 0.66431 0.05658 0.0
H594 H 0.56413 0.72232 0.08692 0.0
H595 H 0.56483 0.69702 0.10893 0.0
H596 H 0.59308 0.63253 0.18467 0.0
H597 H 0.56577 0.58445 0.1904 0.0
H598 H 0.55727 0.58628 0.15487 0.0
H599 H 0.58467 0.63409 0.14873 0.0
C600 C 0.92218 0.54454 0.55587 0.0
C601 C 0.93654 0.54444 0.56872 0.0
C602 C 0.95432 0.53277 0.54147 0.0
C603 C 0.95248 0.53862 0.56158 0.0
C604 C 0.93983 0.53298 0.5287 0.0
C605 C 0.92395 0.5388 0.53584 0.0
U606 U 0.89246 0.56392 0.59637 0.0
O607 O 0.87175 0.58298 0.59285 0.0
O608 O 0.86581 0.55717 0.60418 0.0
C609 C 0.85968 0.57202 0.59803 0.0
C610 C 0.90528 0.55057 0.56299 0.0
C611 C 0.8446 0.57127 0.58446 0.0
C612 C 0.82996 0.56047 0.55441 0.0
C613 C 0.84457 0.56113 0.56686 0.0
C614 C 0.81536 0.58022 0.57691 0.0
C615 C 0.81511 0.56997 0.55932 0.0
C616 C 0.82993 0.58083 0.58933 0.0
C617 C 0.91283 0.57582 0.64855 0.0
C618 C 0.89971 0.57921 0.68188 0.0
C619 C 0.92889 0.5888 0.67624 0.0
C620 C 0.92784 0.58347 0.65603 0.0
C621 C 0.91492 0.58659 0.68953 0.0
C622 C 0.89866 0.57388 0.66156 0.0
C623 C 0.91288 0.56914 0.62757 0.0
O624 O 0.89808 0.54136 0.57738 0.0
O625 O 0.90394 0.56718 0.56608 0.0
O626 O 0.91067 0.58044 0.61299 0.0
O627 O 0.90472 0.55461 0.62434 0.0
H628 H 0.93541 0.54882 0.58426 0.0
H629 H 0.96329 0.53847 0.5719 0.0
H630 H 0.94081 0.52884 0.51306 0.0
H631 H 0.91302 0.53886 0.52567 0.0
H632 H 0.83021 0.55232 0.54112 0.0
H633 H 0.85579 0.55365 0.56281 0.0
H634 H 0.80434 0.58796 0.58102 0.0
H635 H 0.82973 0.58881 0.60278 0.0
H636 H 0.88863 0.57747 0.69161 0.0
H637 H 0.9409 0.59415 0.6816 0.0
H638 H 0.93896 0.58499 0.6463 0.0
H639 H 0.88691 0.56804 0.65612 0.0
C640 C 0.09975 0.43176 0.21767 0.0
C641 C 0.08931 0.41793 0.21169 0.0
C642 C 0.10377 0.43462 0.23818 0.0
C643 C 0.09733 0.42333 0.25321 0.0
C644 C 0.08741 0.40893 0.24723 0.0
C645 C 0.0835 0.40642 0.22659 0.0
C646 C 0.11441 0.45011 0.24381 0.0
C647 C 0.08035 0.39652 0.26274 0.0
C648 C 0.11671 0.4254 0.30643 0.0
C649 C 0.10463 0.43552 0.31676 0.0
C650 C 0.11447 0.42118 0.28581 0.0
C651 C 0.09989 0.42734 0.2752 0.0
C652 C 0.08774 0.43767 0.28553 0.0
C653 C 0.09025 0.4416 0.30611 0.0
C654 C 0.12767 0.41006 0.27539 0.0
C655 C 0.07211 0.44469 0.27481 0.0
H656 H 0.10462 0.44054 0.20628 0.0
H657 H 0.07533 0.39577 0.22222 0.0
H658 H 0.10652 0.45914 0.25289 0.0
H659 H 0.12546 0.4462 0.25336 0.0
H660 H 0.11936 0.45703 0.23027 0.0
H661 H 0.07419 0.38518 0.25558 0.0
H662 H 0.09075 0.39202 0.27293 0.0
H663 H 0.07068 0.40313 0.27232 0.0
H664 H 0.12778 0.42053 0.31456 0.0
H665 H 0.08099 0.44967 0.31384 0.0
H666 H 0.13325 0.41702 0.26226 0.0
H667 H 0.12146 0.39829 0.26939 0.0
H668 H 0.13825 0.40623 0.28574 0.0
H669 H 0.07613 0.45285 0.26185 0.0
H670 H 0.06383 0.45244 0.28502 0.0
H671 H 0.06435 0.43398 0.26854 0.0
C672 C 0.09105 0.0802 0.72482 0.0
C673 C 0.10445 0.08748 0.71345 0.0
C674 C 0.08868 0.0843 0.74538 0.0
C675 C 0.09996 0.09604 0.75495 0.0
C676 C 0.11361 0.10337 0.74364 0.0
C677 C 0.11574 0.09895 0.72306 0.0
C678 C 0.07407 0.07602 0.75687 0.0
C679 C 0.12586 0.11599 0.75323 0.0
C680 C 0.08239 0.11653 0.80323 0.0
C681 C 0.08958 0.10608 0.81837 0.0
C682 C 0.08621 0.11388 0.78259 0.0
C683 C 0.09743 0.1004 0.77686 0.0
C684 C 0.10524 0.09024 0.7921 0.0
C685 C 0.10128 0.09324 0.81261 0.0
C686 C 0.07768 0.12508 0.76685 0.0
C687 C 0.11729 0.07576 0.78673 0.0
H688 H 0.08244 0.0711 0.71765 0.0
H689 H 0.12604 0.10474 0.71436 0.0
H690 H 0.07917 0.06871 0.77 0.0
H691 H 0.06536 0.08604 0.76295 0.0
H692 H 0.06645 0.06714 0.74723 0.0
H693 H 0.13586 0.12048 0.74244 0.0
H694 H 0.11865 0.1273 0.75891 0.0
H695 H 0.13228 0.11001 0.76649 0.0
H696 H 0.07324 0.12639 0.80743 0.0
H697 H 0.1072 0.08531 0.82416 0.0
H698 H 0.06853 0.11727 0.75782 0.0
H699 H 0.08739 0.1303 0.75618 0.0
H700 H 0.07055 0.13595 0.77377 0.0
H701 H 0.11018 0.0657 0.77827 0.0
H702 H 0.12319 0.06979 0.80036 0.0
H703 H 0.12769 0.08048 0.77666 0.0
C704 C 0.41578 0.07633 0.30197 0.0
C705 C 0.4156 0.08917 0.31692 0.0
C706 C 0.41963 0.0802 0.28163 0.0
C707 C 0.42339 0.09736 0.27598 0.0
C708 C 0.42272 0.11046 0.29085 0.0
C709 C 0.41886 0.10622 0.3111 0.0
C710 C 0.42024 0.06582 0.2663 0.0
C711 C 0.4265 0.12892 0.28547 0.0
C712 C 0.45173 0.10342 0.22942 0.0
C713 C 0.43969 0.10709 0.21417 0.0
C714 C 0.44662 0.10051 0.24958 0.0
C715 C 0.42899 0.10137 0.25478 0.0
C716 C 0.41678 0.10553 0.23962 0.0
C717 C 0.42226 0.10832 0.21952 0.0
C718 C 0.46009 0.0962 0.26525 0.0
C719 C 0.39788 0.10662 0.24452 0.0
H720 H 0.41351 0.06309 0.30629 0.0
H721 H 0.41852 0.11627 0.32245 0.0
H722 H 0.41194 0.06891 0.25312 0.0
H723 H 0.43355 0.06435 0.26052 0.0
H724 H 0.41603 0.05336 0.27283 0.0
H725 H 0.42443 0.13774 0.29849 0.0
H726 H 0.44004 0.13014 0.2804 0.0
H727 H 0.41825 0.13311 0.27269 0.0
H728 H 0.46525 0.10274 0.22557 0.0
H729 H 0.41282 0.11097 0.20786 0.0
H730 H 0.45761 0.08323 0.27157 0.0
H731 H 0.45942 0.10544 0.27803 0.0
H732 H 0.47329 0.09645 0.25887 0.0
H733 H 0.39313 0.09385 0.24944 0.0
H734 H 0.39014 0.11094 0.23133 0.0
H735 H 0.39574 0.11565 0.25729 0.0
C736 C 0.44592 0.41496 0.8007 0.0
C737 C 0.43317 0.41543 0.81576 0.0
C738 C 0.44206 0.41871 0.78033 0.0
C739 C 0.42503 0.42303 0.77477 0.0
C740 C 0.41199 0.423 0.78977 0.0
C741 C 0.41622 0.41923 0.81004 0.0
C742 C 0.45637 0.41863 0.76487 0.0
C743 C 0.39365 0.4274 0.78449 0.0
C744 C 0.41972 0.45112 0.72788 0.0
C745 C 0.41552 0.43907 0.71283 0.0
C746 C 0.42257 0.44609 0.74807 0.0
C747 C 0.4211 0.42856 0.75353 0.0
C748 C 0.41639 0.41637 0.73857 0.0
C749 C 0.41368 0.42176 0.71842 0.0
C750 C 0.42748 0.45954 0.76351 0.0
C751 C 0.41463 0.39758 0.74376 0.0
H752 H 0.45909 0.41227 0.80495 0.0
H753 H 0.40622 0.41938 0.82148 0.0
H754 H 0.45289 0.41033 0.75183 0.0
H755 H 0.45832 0.43181 0.75889 0.0
H756 H 0.4687 0.41401 0.77135 0.0
H757 H 0.38484 0.42576 0.79761 0.0
H758 H 0.3929 0.44091 0.77925 0.0
H759 H 0.38909 0.41918 0.77185 0.0
H760 H 0.42086 0.46456 0.72384 0.0
H761 H 0.41061 0.41231 0.70693 0.0
H762 H 0.44039 0.45664 0.76976 0.0
H763 H 0.4183 0.45935 0.77638 0.0
H764 H 0.4277 0.47268 0.75695 0.0
H765 H 0.42724 0.39241 0.74863 0.0
H766 H 0.40994 0.38987 0.73071 0.0
H767 H 0.40561 0.39589 0.75663 0.0
C768 C 0.94759 0.5961 0.80269 0.0
C769 C 0.93709 0.6055 0.81598 0.0
C770 C 0.94315 0.59389 0.78221 0.0
C771 C 0.92782 0.60128 0.77466 0.0
C772 C 0.91728 0.61104 0.78787 0.0
C773 C 0.92206 0.61307 0.80835 0.0
C774 C 0.95485 0.58351 0.76868 0.0
C775 C 0.90082 0.61911 0.78044 0.0
C776 C 0.92563 0.60617 0.71721 0.0
C777 C 0.91665 0.5913 0.71143 0.0
C778 C 0.92882 0.6099 0.73774 0.0
C779 C 0.92285 0.59855 0.75298 0.0
C780 C 0.91319 0.58389 0.74732 0.0
C781 C 0.91022 0.58044 0.72666 0.0
C782 C 0.93909 0.62571 0.74307 0.0
C783 C 0.90656 0.57145 0.76305 0.0
H784 H 0.95938 0.59046 0.80833 0.0
H785 H 0.91379 0.62023 0.81851 0.0
H786 H 0.94779 0.57228 0.76252 0.0
H787 H 0.95907 0.59139 0.75557 0.0
H788 H 0.96642 0.57879 0.77681 0.0
H789 H 0.89433 0.62677 0.79241 0.0
H790 H 0.90348 0.62759 0.76727 0.0
H791 H 0.89188 0.60896 0.77517 0.0
H792 H 0.93038 0.61482 0.70562 0.0
H793 H 0.90343 0.56884 0.72242 0.0
H794 H 0.95152 0.62184 0.74993 0.0
H795 H 0.93215 0.63351 0.75451 0.0
H796 H 0.94177 0.63387 0.72961 0.0
H797 H 0.91754 0.565 0.7706 0.0
H798 H 0.89811 0.56146 0.75636 0.0
H799 H 0.89929 0.57841 0.77495 0.0
C800 C 0.93233 0.93389 0.21905 0.0
C801 C 0.93252 0.91718 0.21107 0.0
C802 C 0.92883 0.93692 0.23965 0.0
C803 C 0.92541 0.92291 0.25275 0.0
C804 C 0.92538 0.90601 0.24479 0.0
C805 C 0.92898 0.90334 0.22408 0.0
C806 C 0.92913 0.95514 0.24747 0.0
C807 C 0.92172 0.89073 0.2582 0.0
C808 C 0.93429 0.93096 0.30872 0.0
C809 C 0.9179 0.93496 0.31625 0.0
C810 C 0.93681 0.92654 0.28827 0.0
C811 C 0.9226 0.92603 0.27489 0.0
C812 C 0.90593 0.92949 0.28251 0.0
C813 C 0.90377 0.9339 0.30308 0.0
C814 C 0.9548 0.92287 0.28087 0.0
C815 C 0.89043 0.92907 0.26879 0.0
H816 H 0.93533 0.94466 0.20925 0.0
H817 H 0.92892 0.8904 0.21804 0.0
H818 H 0.91677 0.95824 0.25499 0.0
H819 H 0.9394 0.95654 0.25902 0.0
H820 H 0.93143 0.96466 0.23521 0.0
H821 H 0.92158 0.87848 0.24959 0.0
H822 H 0.9316 0.88983 0.27027 0.0
H823 H 0.90912 0.89235 0.26583 0.0
H824 H 0.94525 0.93139 0.31884 0.0
H825 H 0.89108 0.93705 0.3087 0.0
H826 H 0.95862 0.93265 0.26948 0.0
H827 H 0.95526 0.91018 0.27327 0.0
H828 H 0.96435 0.92297 0.29338 0.0
H829 H 0.89148 0.9394 0.25727 0.0
H830 H 0.87823 0.93082 0.27728 0.0
H831 H 0.88986 0.91668 0.26051 0.0
C832 C 0.58843 0.93405 0.71948 0.0
C833 C 0.60512 0.93553 0.7116 0.0
C834 C 0.58556 0.9295 0.73982 0.0
C835 C 0.59972 0.92629 0.75275 0.0
C836 C 0.61661 0.9272 0.74476 0.0
C837 C 0.61911 0.93179 0.72429 0.0
C838 C 0.56734 0.92858 0.7476 0.0
C839 C 0.63205 0.92387 0.75801 0.0
C840 C 0.59107 0.93428 0.80874 0.0
C841 C 0.58773 0.91768 0.81606 0.0
C842 C 0.59554 0.93716 0.78838 0.0
C843 C 0.59675 0.92309 0.77485 0.0
C844 C 0.59399 0.90622 0.78227 0.0
C845 C 0.58954 0.90371 0.80278 0.0
C846 C 0.59847 0.95535 0.78122 0.0
C847 C 0.59516 0.89087 0.76837 0.0
H848 H 0.57752 0.93657 0.70971 0.0
H849 H 0.63205 0.93296 0.71838 0.0
H850 H 0.56495 0.91593 0.75481 0.0
H851 H 0.56534 0.93854 0.75939 0.0
H852 H 0.55773 0.93054 0.73537 0.0
H853 H 0.64422 0.92379 0.7492 0.0
H854 H 0.63294 0.93395 0.76985 0.0
H855 H 0.63068 0.91137 0.76592 0.0
H856 H 0.59005 0.94513 0.81897 0.0
H857 H 0.58692 0.89085 0.80825 0.0
H858 H 0.58851 0.95888 0.76993 0.0
H859 H 0.61112 0.9564 0.77357 0.0
H860 H 0.59802 0.96476 0.79386 0.0
H861 H 0.58474 0.89148 0.75692 0.0
H862 H 0.59405 0.87854 0.77675 0.0
H863 H 0.60753 0.891 0.76002 0.0
C864 C 0.6104 0.5788 0.30085 0.0
C865 C 0.60778 0.59123 0.31595 0.0
C866 C 0.60695 0.58237 0.28033 0.0
C867 C 0.60072 0.59878 0.27467 0.0
C868 C 0.59862 0.61157 0.28974 0.0
C869 C 0.60216 0.60765 0.31015 0.0
C870 C 0.60936 0.56834 0.26479 0.0
C871 C 0.59213 0.62927 0.28438 0.0
C872 C 0.602 0.61093 0.21853 0.0
C873 C 0.5852 0.607 0.2123 0.0
C874 C 0.60719 0.60859 0.23882 0.0
C875 C 0.59533 0.60216 0.25326 0.0
C876 C 0.57827 0.59854 0.24715 0.0
C877 C 0.57343 0.60105 0.22683 0.0
C878 C 0.62548 0.61264 0.2447 0.0
C879 C 0.56516 0.59176 0.26202 0.0
H880 H 0.61454 0.56602 0.30514 0.0
H881 H 0.60035 0.61743 0.32163 0.0
H882 H 0.59673 0.56471 0.25831 0.0
H883 H 0.61748 0.573 0.25209 0.0
H884 H 0.61541 0.55668 0.27137 0.0
H885 H 0.5923 0.63811 0.29759 0.0
H886 H 0.60006 0.63491 0.27208 0.0
H887 H 0.57877 0.62837 0.27864 0.0
H888 H 0.61125 0.61538 0.20742 0.0
H889 H 0.56034 0.59828 0.2223 0.0
H890 H 0.63205 0.60074 0.24972 0.0
H891 H 0.62567 0.62171 0.25767 0.0
H892 H 0.63289 0.61834 0.23197 0.0
H893 H 0.56956 0.57929 0.26828 0.0
H894 H 0.55235 0.58989 0.25496 0.0
H895 H 0.5638 0.60077 0.27495 0.0
C896 C 0.07931 0.28628 0.04922 0.0
C897 C 0.06695 0.29928 0.04695 0.0
C898 C 0.07921 0.27158 0.03682 0.0
C899 C 0.06647 0.26976 0.02164 0.0
C900 C 0.05398 0.28284 0.01919 0.0
C901 C 0.05437 0.2974 0.03185 0.0
C902 C 0.09279 0.258 0.03993 0.0
C903 C 0.04018 0.28143 1.00321 0.0
C904 C 0.07561 0.23939 0.97754 0.0
C905 C 0.06633 0.22463 0.98307 0.0
C906 C 0.07567 0.25415 0.98984 0.0
C907 C 0.06629 0.25423 1.00826 0.0
C908 C 0.05692 0.2394 1.01397 0.0
C909 C 0.05702 0.22483 1.00133 0.0
C910 C 0.08585 0.26966 0.98316 0.0
C911 C 0.04676 0.23891 0.03347 0.0
H912 H 0.08927 0.28768 0.06058 0.0
H913 H 0.04462 0.30721 0.03009 0.0
H914 H 0.08664 0.24547 0.04332 0.0
H915 H 0.10038 0.25635 0.02583 0.0
H916 H 0.10171 0.26124 0.05251 0.0
H917 H 0.03146 0.29272 1.00315 0.0
H918 H 0.04612 0.28021 0.98798 0.0
H919 H 0.03241 0.26969 1.00581 0.0
H920 H 0.08308 0.23935 0.96368 0.0
H921 H 0.04961 0.21363 1.00566 0.0
H922 H 0.09583 0.2727 0.99462 0.0
H923 H 0.0773 0.28101 0.98202 0.0
H924 H 0.09222 0.26767 0.96827 0.0
H925 H 0.05541 0.24125 0.04656 0.0
H926 H 0.04015 0.22642 0.03578 0.0
H927 H 0.037 0.24928 0.03347 0.0
C928 C 0.29952 0.06797 0.50515 0.0
C929 C 0.2981 0.06614 0.48403 0.0
C930 C 0.28488 0.06784 0.51771 0.0
C931 C 0.26836 0.06588 0.50899 0.0
C932 C 0.26685 0.06381 0.48772 0.0
C933 C 0.28169 0.06393 0.47555 0.0
C934 C 0.28708 0.07007 0.5403 0.0
C935 C 0.24953 0.06163 0.47778 0.0
C936 C 0.23094 0.05172 0.54254 0.0
C937 C 0.22275 0.06739 0.54672 0.0
C938 C 0.2458 0.05103 0.53037 0.0
C939 C 0.25263 0.06636 0.52204 0.0
C940 C 0.24435 0.0822 0.52609 0.0
C941 C 0.22958 0.08252 0.53838 0.0
C942 C 0.25426 0.0339 0.52655 0.0
C943 C 0.25107 0.09883 0.51738 0.0
H944 H 0.31207 0.06988 0.51188 0.0
H945 H 0.28043 0.0622 0.45931 0.0
H946 H 0.2805 0.08197 0.54532 0.0
H947 H 0.28103 0.05919 0.54848 0.0
H948 H 0.30081 0.07085 0.54481 0.0
H949 H 0.25054 0.05994 0.46109 0.0
H950 H 0.24283 0.05032 0.48426 0.0
H951 H 0.2414 0.07303 0.4809 0.0
H952 H 0.22591 0.03999 0.54909 0.0
H953 H 0.22323 0.09465 0.54128 0.0
H954 H 0.26768 0.03415 0.53219 0.0
H955 H 0.25481 0.03132 0.51002 0.0
H956 H 0.24735 0.02315 0.53406 0.0
H957 H 0.26448 0.10098 0.52247 0.0
H958 H 0.24318 0.11006 0.52196 0.0
H959 H 0.25127 0.0981 0.50058 0.0
C960 C 0.46917 0.29669 0.9983 0.0
C961 C 0.45643 0.29852 0.98337 0.0
C962 C 0.46969 0.28215 1.01099 0.0
C963 C 0.4572 0.26905 1.00876 0.0
C964 C 0.44429 0.27084 0.99378 0.0
C965 C 0.44405 0.28551 0.98133 0.0
C966 C 0.48368 0.28077 0.02676 0.0
C967 C 0.43068 0.25724 0.9909 0.0
C968 C 0.4669 0.22413 0.02894 0.0
C969 C 0.45782 0.22393 0.04736 0.0
C970 C 0.46685 0.2387 0.01629 0.0
C971 C 0.45754 0.25352 0.02215 0.0
C972 C 0.44838 0.25343 0.04071 0.0
C973 C 0.4486 0.23868 0.05303 0.0
C974 C 0.47678 0.23823 0.99662 0.0
C975 C 0.43826 0.26892 0.04754 0.0
H976 H 0.47892 0.30653 0.99988 0.0
H977 H 0.43398 0.28688 0.9701 0.0
H978 H 0.47791 0.27953 0.04208 0.0
H979 H 0.49144 0.26905 0.02404 0.0
H980 H 0.49238 0.29208 0.02667 0.0
H981 H 0.4216 0.26048 0.97849 0.0
H982 H 0.4368 0.24473 0.9874 0.0
H983 H 0.42327 0.25556 1.00514 0.0
H984 H 0.47426 0.21294 0.0245 0.0
H985 H 0.44131 0.23863 0.06703 0.0
H986 H 0.48654 0.24861 0.99646 0.0
H987 H 0.46798 0.24057 0.98368 0.0
H988 H 0.48336 0.22574 0.99422 0.0
H989 H 0.44682 0.28028 0.04856 0.0
H990 H 0.43205 0.26692 0.06253 0.0
H991 H 0.42817 0.27197 0.03623 0.0
C992 C 0.28257 0.45371 0.55403 0.0
C993 C 0.2989 0.45652 0.54555 0.0
C994 C 0.26768 0.45372 0.54196 0.0
C995 C 0.26902 0.45671 0.52082 0.0
C996 C 0.2854 0.45977 0.51218 0.0
C997 C 0.30011 0.4596 0.5246 0.0
C998 C 0.25049 0.45041 0.55182 0.0
C999 C 0.28743 0.46304 0.48973 0.0
C1000 C 0.23317 0.44049 0.48637 0.0
C1001 C 0.22359 0.45547 0.4828 0.0
C1002 C 0.24791 0.44072 0.4987 0.0
C1003 C 0.25332 0.45632 0.50772 0.0
C1004 C 0.24369 0.47148 0.50426 0.0
C1005 C 0.22895 0.47087 0.4919 0.0
C1006 C 0.25769 0.42423 0.5021 0.0
C1007 C 0.24903 0.48839 0.51349 0.0
H1008 H 0.28139 0.45163 0.57022 0.0
H1009 H 0.31262 0.46157 0.51779 0.0
H1010 H 0.24174 0.4614 0.54902 0.0
H1011 H 0.24444 0.43888 0.54501 0.0
H1012 H 0.25159 0.44841 0.56846 0.0
H1013 H 0.30096 0.46571 0.48544 0.0
H1014 H 0.2829 0.45171 0.48105 0.0
H1015 H 0.27938 0.47411 0.48509 0.0
H1016 H 0.22902 0.42848 0.47968 0.0
H1017 H 0.22178 0.48255 0.48906 0.0
H1018 H 0.25815 0.42123 0.51855 0.0
H1019 H 0.27115 0.42572 0.49684 0.0
H1020 H 0.25183 0.41318 0.49401 0.0
H1021 H 0.24952 0.48724 0.53025 0.0
H1022 H 0.24013 0.49899 0.50945 0.0
H1023 H 0.26213 0.49184 0.50827 0.0
C1024 C 0.94249 0.79552 0.03005 0.0
C1025 C 0.95581 0.79858 0.04394 0.0
C1026 C 0.94238 0.78072 0.0178 0.0
C1027 C 0.95596 0.76868 0.01933 0.0
C1028 C 0.9695 0.77175 0.03321 0.0
C1029 C 0.96924 0.7866 0.04536 0.0
C1030 C 0.92763 0.77792 1.00331 0.0
C1031 C 0.9843 0.75935 0.03521 0.0
C1032 C 0.94816 0.72287 1.0009 0.0
C1033 C 0.95566 0.72313 0.98152 0.0
C1034 C 0.94821 0.73755 1.01336 0.0
C1035 C 0.956 0.7529 1.00637 0.0
C1036 C 0.96372 0.75321 0.98691 0.0
C1037 C 0.96345 0.73837 0.97475 0.0
C1038 C 0.93977 0.73667 0.03395 0.0
C1039 C 0.97227 0.76924 0.9789 0.0
H1040 H 0.93195 0.80456 0.02902 0.0
H1041 H 0.97969 0.78894 0.05586 0.0
H1042 H 0.93253 0.77686 0.98756 0.0
H1043 H 0.92104 0.76566 1.00694 0.0
H1044 H 0.91806 0.78848 1.00392 0.0
H1045 H 0.99388 0.76362 0.04663 0.0
H1046 H 0.97945 0.74649 0.03966 0.0
H1047 H 0.99086 0.75788 0.02037 0.0
H1048 H 0.94193 0.71126 1.00619 0.0
H1049 H 0.9695 0.73866 0.95995 0.0
H1050 H 0.9292 0.7462 0.03481 0.0
H1051 H 0.94919 0.74001 0.04593 0.0
H1052 H 0.93444 0.72373 0.03727 0.0
H1053 H 0.96281 0.77987 0.97816 0.0
H1054 H 0.97785 0.76735 0.96356 0.0
H1055 H 0.98264 0.77334 0.98937 0.0
C1056 C 0.73972 0.94735 0.55211 0.0
C1057 C 0.7244 0.95503 0.54541 0.0
C1058 C 0.75454 0.94718 0.5399 0.0
C1059 C 0.75411 0.95478 0.52038 0.0
C1060 C 0.73871 0.9625 0.51347 0.0
C1061 C 0.72409 0.96256 0.52605 0.0
C1062 C 0.77066 0.93879 0.54787 0.0
C1063 C 0.73767 0.97073 0.49277 0.0
C1064 C 0.79651 0.96759 0.49551 0.0
C1065 C 0.79939 0.95391 0.48206 0.0
C1066 C 0.78187 0.96805 0.50803 0.0
C1067 C 0.76974 0.9545 0.50715 0.0
C1068 C 0.77258 0.94063 0.49367 0.0
C1069 C 0.78734 0.94049 0.48135 0.0
C1070 C 0.77934 0.98308 0.52216 0.0
C1071 C 0.76003 0.9259 0.49228 0.0
H1072 H 0.74009 0.94124 0.56687 0.0
H1073 H 0.71244 0.96873 0.52078 0.0
H1074 H 0.77451 0.92809 0.53774 0.0
H1075 H 0.78137 0.94819 0.54797 0.0
H1076 H 0.76898 0.93366 0.56347 0.0
H1077 H 0.72476 0.97615 0.4896 0.0
H1078 H 0.74731 0.98118 0.49155 0.0
H1079 H 0.74076 0.96113 0.48089 0.0
H1080 H 0.80559 0.97813 0.49602 0.0
H1081 H 0.78953 0.92973 0.47127 0.0
H1082 H 0.77839 0.97848 0.53805 0.0
H1083 H 0.76711 0.98971 0.51854 0.0
H1084 H 0.78999 0.99254 0.52115 0.0
H1085 H 0.75877 0.91956 0.50728 0.0
H1086 H 0.76404 0.91612 0.48095 0.0
H1087 H 0.74714 0.93077 0.48804 0.0
C1088 C 0.55477 0.73697 0.04915 0.0
C1089 C 0.56639 0.72353 0.04545 0.0
C1090 C 0.55455 0.75178 0.03691 0.0
C1091 C 0.56626 0.75329 0.02055 0.0
C1092 C 0.57798 0.73976 0.01669 0.0
C1093 C 0.57788 0.72506 0.02913 0.0
C1094 C 0.54174 0.76581 0.04147 0.0
C1095 C 0.59075 0.74087 0.9995 0.0
C1096 C 0.55622 0.78449 0.97752 0.0
C1097 C 0.5665 0.79871 0.98246 0.0
C1098 C 0.55595 0.76971 0.9898 0.0
C1099 C 0.56625 0.76902 1.00749 0.0
C1100 C 0.57659 0.78335 1.01264 0.0
C1101 C 0.57656 0.798 1.00012 0.0
C1102 C 0.54464 0.7548 0.98381 0.0
C1103 C 0.58782 0.78315 0.03129 0.0
H1104 H 0.5457 0.73584 0.06154 0.0
H1105 H 0.58704 0.71487 0.02629 0.0
H1106 H 0.54859 0.778 0.04469 0.0
H1107 H 0.53345 0.76808 0.02806 0.0
H1108 H 0.53343 0.76264 0.05466 0.0
H1109 H 0.59897 0.72925 0.99844 0.0
H1110 H 0.58389 0.74256 0.98489 0.0
H1111 H 0.59913 0.75226 1.00158 0.0
H1112 H 0.54822 0.78498 0.96409 0.0
H1113 H 0.58471 0.80881 1.00395 0.0
H1114 H 0.53544 0.75189 0.9962 0.0
H1115 H 0.55259 0.74315 0.98146 0.0
H1116 H 0.53729 0.75739 0.96971 0.0
H1117 H 0.57986 0.78089 0.045 0.0
H1118 H 0.59501 0.79536 0.0333 0.0
H1119 H 0.59718 0.77244 0.03028 0.0
C1120 C 0.73108 0.5545 0.48992 0.0
C1121 C 0.72399 0.57024 0.48376 0.0
C1122 C 0.74589 0.55387 0.50215 0.0
C1123 C 0.75382 0.56935 0.50849 0.0
C1124 C 0.74664 0.58527 0.50246 0.0
C1125 C 0.73188 0.58552 0.49018 0.0
C1126 C 0.75315 0.53663 0.50814 0.0
C1127 C 0.75456 0.60207 0.50901 0.0
C1128 C 0.78296 0.56903 0.55497 0.0
C1129 C 0.79942 0.56928 0.54623 0.0
C1130 C 0.76807 0.5689 0.54291 0.0
C1131 C 0.76956 0.56894 0.5215 0.0
C1132 C 0.78611 0.56894 0.51255 0.0
C1133 C 0.80081 0.56913 0.52498 0.0
C1134 C 0.7507 0.56887 0.5531 0.0
C1135 C 0.7883 0.56897 0.4898 0.0
H1136 H 0.72523 0.54263 0.48486 0.0
H1137 H 0.72638 0.59774 0.48575 0.0
H1138 H 0.76651 0.53541 0.50245 0.0
H1139 H 0.75367 0.53554 0.5249 0.0
H1140 H 0.74544 0.52578 0.50208 0.0
H1141 H 0.74743 0.61335 0.50306 0.0
H1142 H 0.75483 0.60284 0.52581 0.0
H1143 H 0.76805 0.60282 0.50365 0.0
H1144 H 0.7817 0.56884 0.57134 0.0
H1145 H 0.81341 0.56953 0.51802 0.0
H1146 H 0.74318 0.55752 0.54814 0.0
H1147 H 0.74337 0.58046 0.54855 0.0
H1148 H 0.75171 0.56865 0.56991 0.0
H1149 H 0.78146 0.55785 0.48306 0.0
H1150 H 0.80201 0.5684 0.48519 0.0
H1151 H 0.78251 0.58077 0.4833 0.0
C1152 C 0.01247 0.55024 1.00507 0.0
C1153 C 0.9965 0.55161 0.99533 0.0
C1154 C 0.01834 0.53444 1.01271 0.0
C1155 C 1.008 0.51958 1.0106 0.0
C1156 C 0.99189 0.52085 1.00073 0.0
C1157 C 0.98635 0.53682 0.9932 0.0
C1158 C 0.03564 0.53364 0.02302 0.0
C1159 C 0.98046 0.50534 0.99821 0.0
C1160 C 0.02939 0.47566 1.014 0.0
C1161 C 0.02552 0.47064 0.03395 0.0
C1162 C 0.02379 0.49152 1.00623 0.0
C1163 C 0.01407 0.5027 0.01868 0.0
C1164 C 1.01018 0.49776 0.03885 0.0
C1165 C 0.01595 0.48182 0.04624 0.0
C1166 C 0.02829 0.49631 0.98468 0.0
C1167 C 0.99983 0.50929 0.05262 0.0
H1168 H 0.02052 0.56153 1.00654 0.0
H1169 H 0.97391 0.53778 0.98593 0.0
H1170 H 0.03412 0.52891 0.03879 0.0
H1171 H 0.04409 0.52441 0.01498 0.0
H1172 H 0.04212 0.54634 0.02344 0.0
H1173 H 0.96834 0.50844 0.9901 0.0
H1174 H 0.98733 0.49519 0.98964 0.0
H1175 H 0.97719 0.49993 1.0133 0.0
H1176 H 0.03698 0.46725 1.00447 0.0
H1177 H 0.01271 0.47799 0.06157 0.0
H1178 H 0.03576 0.50844 0.98451 0.0
H1179 H 0.01639 0.49859 0.97582 0.0
H1180 H 0.03592 0.48619 0.97695 0.0
H1181 H 1.00634 0.52188 0.05427 0.0
H1182 H 0.99798 0.50364 0.06794 0.0
H1183 H 0.98704 0.51176 0.04582 0.0
C1184 C 0.04315 1.01103 0.54348 0.0
C1185 C 0.05092 0.02572 0.5352 0.0
C1186 C 0.0274 1.00486 0.536 0.0
C1187 C 0.01913 0.01359 0.51988 0.0
C1188 C 0.02684 0.02849 0.51154 0.0
C1189 C 0.04262 0.03434 0.51927 0.0
C1190 C 0.01966 0.9889 0.54526 0.0
C1191 C 0.01841 0.03826 0.49445 0.0
C1192 C 0.98622 0.9894 0.48798 0.0
C1193 C 0.97063 0.99509 0.49631 0.0
C1194 C 1.00207 0.9953 0.49549 0.0
C1195 C 1.0024 1.00718 0.51175 0.0
C1196 C 0.98673 0.013 0.5202 0.0
C1197 C 0.97107 1.00691 0.51238 0.0
C1198 C 0.01848 0.98876 0.48606 0.0
C1199 C 0.98648 0.02571 0.53749 0.0
H1200 H 0.04956 1.00417 0.55562 0.0
H1201 H 0.0484 0.04582 0.51295 0.0
H1202 H 1.00668 0.99178 0.55129 0.0
H1203 H 0.01814 0.97885 0.53347 0.0
H1204 H 0.02765 0.98363 0.55776 0.0
H1205 H 0.02603 0.04963 0.48968 0.0
H1206 H 0.01668 0.02971 0.48115 0.0
H1207 H 1.00546 0.04264 0.49918 0.0
H1208 H 0.98605 0.98012 0.47575 0.0
H1209 H 0.95912 1.01161 0.51873 0.0
H1210 H 0.02642 0.98226 0.49774 0.0
H1211 H 0.02612 0.99967 0.48009 0.0
H1212 H 0.01605 0.97959 0.47348 0.0
H1213 H 0.99364 0.02043 0.55064 0.0
H1214 H 0.97323 0.02889 0.54246 0.0
H1215 H 0.99304 0.03774 0.53286 0.0
C1216 C 0.50993 0.05126 0.01732 0.0
C1217 C 0.49849 0.05177 0.0338 0.0
C1218 C 0.51602 0.03559 1.00959 0.0
C1219 C 0.51062 0.01996 0.01853 0.0
C1220 C 0.49915 0.02035 0.03521 0.0
C1221 C 0.49323 0.03622 0.04263 0.0
C1222 C 0.52828 0.03576 0.99183 0.0
C1223 C 0.49305 1.00399 0.04517 0.0
C1224 C 0.51397 0.97892 0.98728 0.0
C1225 C 0.52896 0.97138 0.99508 0.0
C1226 C 0.50786 0.99468 0.99477 0.0
C1227 C 0.51696 1.0032 1.01042 0.0
C1228 C 0.53215 0.99572 0.01827 0.0
C1229 C 0.53794 0.97992 1.01054 0.0
C1230 C 0.49158 1.00217 0.98604 0.0
C1231 C 0.54231 1.00442 0.03484 0.0
H1232 H 0.51431 0.06318 1.01058 0.0
H1233 H 0.48424 0.03643 0.05518 0.0
H1234 H 0.54048 0.02936 0.99611 0.0
H1235 H 0.52273 0.02842 0.97899 0.0
H1236 H 0.53122 0.04899 0.98656 0.0
H1237 H 0.48423 1.00647 0.05809 0.0
H1238 H 0.4863 0.99585 0.03391 0.0
H1239 H 0.50421 0.99653 0.0508 0.0
H1240 H 0.50682 0.97232 0.97553 0.0
H1241 H 0.54964 0.97431 0.01649 0.0
H1242 H 0.49418 0.01511 0.9797 0.0
H1243 H 0.48185 1.00373 0.9982 0.0
H1244 H 0.48604 0.994 0.97388 0.0
H1245 H 0.54644 0.01736 0.02974 0.0
H1246 H 0.55388 0.99696 0.03926 0.0
H1247 H 0.53412 1.00622 0.04844 0.0
C1248 C 0.53696 0.53224 0.48548 0.0
C1249 C 0.5525 0.52683 0.49419 0.0
C1250 C 0.52107 0.52629 0.49284 0.0
C1251 C 0.52064 0.51464 0.50935 0.0
C1252 C 0.53626 0.50907 0.51816 0.0
C1253 C 0.55196 0.5152 0.51047 0.0
C1254 C 0.50472 0.53256 0.48302 0.0
C1255 C 0.53641 0.49663 0.53573 0.0
C1256 C 0.47965 0.51116 0.54074 0.0
C1257 C 0.47203 0.49628 0.53277 0.0
C1258 C 0.49543 0.51728 0.53325 0.0
C1259 C 0.50387 0.5083 0.51745 0.0
C1260 C 0.4963 0.49322 0.50943 0.0
C1261 C 0.48049 0.48742 0.51715 0.0
C1262 C 0.50302 0.53343 0.54218 0.0
C1263 C 0.50491 0.48319 0.49268 0.0
H1264 H 0.53719 0.54138 0.47308 0.0
H1265 H 0.56386 0.5107 0.51712 0.0
H1266 H 0.49717 0.52149 0.4773 0.0
H1267 H 0.49665 0.53926 0.49441 0.0
H1268 H 0.50722 0.54147 0.4702 0.0
H1269 H 0.54963 0.49355 0.54089 0.0
H1270 H 0.52914 0.50209 0.54869 0.0
H1271 H 0.52991 0.48451 0.53131 0.0
H1272 H 0.47312 0.51822 0.55261 0.0
H1273 H 0.47482 0.4758 0.51108 0.0
H1274 H 0.5046 0.54327 0.53015 0.0
H1275 H 0.51596 0.53071 0.54843 0.0
H1276 H 0.4949 0.53888 0.55445 0.0
H1277 H 0.50673 0.49152 0.47919 0.0
H1278 H 0.49737 0.47172 0.48811 0.0
H1279 H 0.51783 0.47894 0.49766 0.0
C1280 C 1.00723 0.05154 1.00461 0.0
C1281 C 0.02324 0.05295 0.99493 0.0
C1282 C 1.00136 0.03572 1.01222 0.0
C1283 C 1.01172 0.02088 1.01014 0.0
C1284 C 0.02786 0.02219 1.00032 0.0
C1285 C 0.03341 0.03818 0.99283 0.0
C1286 C 0.98404 0.03488 0.02247 0.0
C1287 C 0.03933 1.0067 0.99782 0.0
C1288 C 1.00379 0.98299 0.0456 0.0
C1289 C 0.99432 0.97179 0.03322 0.0
C1290 C 1.0095 0.99899 0.03832 0.0
C1291 C 1.00565 1.00398 0.01815 0.0
C1292 C 0.996 0.9928 1.00562 0.0
C1293 C 0.99046 0.97688 1.01329 0.0
C1294 C 0.01977 1.01051 0.05216 0.0
C1295 C 0.99154 0.99764 0.98408 0.0
H1296 H 0.99917 0.06281 1.00606 0.0
H1297 H 0.04588 0.03916 0.98562 0.0
H1298 H 0.97562 0.02566 0.01438 0.0
H1299 H 0.98552 0.03013 0.03824 0.0
H1300 H 0.97755 0.04758 0.02291 0.0
H1301 H 0.05146 1.00983 0.98976 0.0
H1302 H 0.04254 1.00127 1.01291 0.0
H1303 H 0.03249 0.99656 0.98921 0.0
H1304 H 1.00703 0.97911 0.06091 0.0
H1305 H 0.98294 0.96846 1.00369 0.0
H1306 H 0.01325 0.0231 0.05379 0.0
H1307 H 0.0326 0.013 0.04545 0.0
H1308 H 0.02154 1.00485 0.06749 0.0
H1309 H 0.98408 1.00977 0.98394 0.0
H1310 H 0.98391 0.98754 0.97632 0.0
H1311 H 1.00345 0.99993 0.97526 0.0
C1312 C 0.47967 0.03432 0.50979 0.0
C1313 C 0.47109 0.0256 0.49416 0.0
C1314 C 0.4955 0.02843 0.51732 0.0
C1315 C 0.50298 0.01338 0.50908 0.0
C1316 C 0.49442 1.00454 0.49325 0.0
C1317 C 0.47862 1.01077 0.48597 0.0
C1318 C 0.50424 0.03831 0.53409 0.0
C1319 C 0.5019 0.98843 0.48411 0.0
C1320 C 0.55109 1.00646 0.51576 0.0
C1321 C 0.55167 0.99481 0.53202 0.0
C1322 C 0.53537 0.01256 0.50813 0.0
C1323 C 0.51977 1.00694 0.51698 0.0
C1324 C 0.52025 0.99523 0.53343 0.0
C1325 C 0.53616 0.98932 0.54074 0.0
C1326 C 0.53546 0.02507 0.49064 0.0
C1327 C 0.50392 0.9889 0.54328 0.0
H1328 H 0.47407 0.04591 0.51604 0.0
H1329 H 0.472 1.00382 0.47407 0.0
H1330 H 0.50609 0.02989 0.54749 0.0
H1331 H 0.51716 0.04255 0.52904 0.0
H1332 H 0.49677 0.04978 0.53882 0.0
H1333 H 0.4937 0.98309 0.47185 0.0
H1334 H 0.51482 0.99115 0.47778 0.0
H1335 H 0.50351 0.9785 0.49603 0.0
H1336 H 0.56298 1.01101 0.50911 0.0
H1337 H 0.53643 0.98017 0.55313 0.0
H1338 H 0.52908 0.0372 0.4952 0.0
H1339 H 0.52808 0.01971 0.47772 0.0
H1340 H 0.54867 0.0281 0.48535 0.0
H1341 H 0.49645 0.99993 0.54923 0.0
H1342 H 0.50646 0.97984 0.55595 0.0
H1343 H 0.49577 0.98235 0.53186 0.0
C1344 C 0.53324 0.53589 0.04004 0.0
C1345 C 0.52762 0.55145 0.03156 0.0
C1346 C 0.52731 0.52001 0.03264 0.0
C1347 C 0.51546 0.51963 0.01634 0.0
C1348 C 0.50972 0.53527 1.00773 0.0
C1349 C 0.51584 0.55095 0.01544 0.0
C1350 C 0.53378 0.50364 0.04223 0.0
C1351 C 0.49706 0.53545 0.9904 0.0
C1352 C 0.51155 0.47871 0.98493 0.0
C1353 C 0.49681 0.47105 0.99322 0.0
C1354 C 0.51776 0.49448 0.99231 0.0
C1355 C 0.50902 0.50287 1.00833 0.0
C1356 C 0.49407 0.49526 0.01667 0.0
C1357 C 0.48817 0.47947 1.00905 0.0
C1358 C 0.53378 0.50211 0.98304 0.0
C1359 C 0.48429 0.50383 0.03366 0.0
H1360 H 0.54249 0.5361 0.05231 0.0
H1361 H 0.51119 0.56287 1.00898 0.0
H1362 H 0.52282 0.49607 0.04823 0.0
H1363 H 0.54027 0.49561 0.03065 0.0
H1364 H 0.54293 0.50611 0.05482 0.0
H1365 H 0.49394 0.54868 0.9853 0.0
H1366 H 0.50234 0.5282 0.97733 0.0
H1367 H 0.48499 0.52897 0.99504 0.0
H1368 H 0.51843 0.47221 0.97288 0.0
H1369 H 0.47666 0.47377 0.01538 0.0
H1370 H 0.5438 0.50366 0.99486 0.0
H1371 H 0.53096 0.51507 0.9769 0.0
H1372 H 0.53904 0.49403 0.97063 0.0
H1373 H 0.49281 0.5056 0.04698 0.0
H1374 H 0.47288 0.49627 0.03845 0.0
H1375 H 0.47996 0.51676 0.02881 0.0
C1376 C 0.9721 0.51198 0.52114 0.0
C1377 C 0.97123 0.52648 0.53376 0.0
C1378 C 0.98787 0.50605 0.51347 0.0
C1379 C 1.00323 0.5148 0.51852 0.0
C1380 C 1.00248 0.52938 0.53133 0.0
C1381 C 0.98652 0.53504 0.53878 0.0
C1382 C 0.98808 0.49041 0.49995 0.0
C1383 C 0.01855 0.53909 0.53706 0.0
C1384 C 0.04572 0.49087 0.51374 0.0
C1385 C 0.05208 0.49702 0.49516 0.0
C1386 C 0.02988 0.49652 0.52148 0.0
C1387 C 0.02008 0.50865 0.51044 0.0
C1388 C 0.02637 0.51487 0.49165 0.0
C1389 C 0.04225 0.50898 0.48424 0.0
C1390 C 0.02361 0.48947 0.54151 0.0
C1391 C 0.01636 0.52785 0.47942 0.0
H1392 H 0.96041 0.50511 0.5174 0.0
H1393 H 0.986 0.54637 0.54829 0.0
H1394 H 0.99378 0.49372 0.48502 0.0
H1395 H 0.99625 0.48028 0.50678 0.0
H1396 H 0.97503 0.48507 0.49742 0.0
H1397 H 0.01582 0.55011 0.54726 0.0
H1398 H 0.02772 0.53036 0.54476 0.0
H1399 H 0.02499 0.54398 0.5232 0.0
H1400 H 0.05308 0.48145 0.52216 0.0
H1401 H 0.04713 0.51397 0.47001 0.0
H1402 H 1.01102 0.48305 0.53942 0.0
H1403 H 0.02166 0.50012 0.55243 0.0
H1404 H 0.03274 0.48011 0.54823 0.0
H1405 H 1.00347 0.52265 0.4757 0.0
H1406 H 0.02296 0.53136 0.46506 0.0
H1407 H 0.01437 0.53968 0.48849 0.0
loop_
_geom_bond_atom_site_label_1
_geom_bond_atom_site_label_2
_geom_bond_distance
_geom_bond_site_symmetry_2
_ccdc_geom_bond_type
C0 C1 1.264 . S
C0 C5 1.479 . S
C0 C10 1.465 . S
C1 C0 1.264 . S
C1 C3 1.339 . S
C1 H28 0.931 . S
C2 C3 1.395 . S
C2 C4 1.320 . S
C3 C1 1.339 . S
C3 C2 1.395 . S
C3 H29 0.929 . S
C4 C2 1.320 . S
C4 C5 1.405 . S
C4 H30 0.984 . S
C5 C0 1.479 . S
C5 C4 1.405 . S
C5 H31 0.931 . S
U6 O7 2.454 . S
U6 O8 2.458 . S
U6 C9 2.984 . S
U6 C10 2.847 . S
U6 C23 2.882 . S
U6 O24 2.441 . S
U6 O25 2.420 . S
U6 O26 2.455 . S
U6 O27 2.449 . S
O7 U6 2.454 . S
O7 C9 1.353 . S
O8 U6 2.458 . S
O8 C9 1.286 . S
C9 U6 2.984 . S
C9 O7 1.353 . S
C9 O8 1.286 . S
C9 C11 1.363 . S
C10 C0 1.465 . S
C10 U6 2.847 . S
C10 O24 1.249 . S
C10 O25 1.202 . S
C11 C9 1.363 . S
C11 C13 1.408 . S
C11 C16 1.342 . S
C12 C13 1.310 . S
C12 C15 1.461 . S
C12 H32 0.932 . S
C13 C11 1.408 . S
C13 C12 1.310 . S
C13 H33 0.930 . S
C14 C15 1.474 . S
C14 C16 1.285 . S
C14 H34 0.929 . S
C15 C12 1.461 . S
C15 C14 1.474 . S
C16 C11 1.342 . S
C16 C14 1.285 . S
C16 H35 0.930 . S
C17 C20 1.424 . S
C17 C22 1.245 . S
C17 C23 1.428 . S
C18 C21 1.260 . S
C18 C22 1.477 . S
C18 H36 0.932 . S
C19 C20 1.384 . S
C19 C21 1.479 . S
C19 H37 0.929 . S
C20 C17 1.424 . S
C20 C19 1.384 . S
C20 H38 0.928 . S
C21 C18 1.260 . S
C21 C19 1.479 . S
C22 C17 1.245 . S
C22 C18 1.477 . S
C22 H39 0.932 . S
C23 U6 2.882 . S
C23 C17 1.428 . S
C23 O26 1.301 . S
C23 O27 1.282 . S
O24 U6 2.441 . S
O24 C10 1.249 . S
O25 U6 2.420 . S
O25 C10 1.202 . S
O26 U6 2.455 . S
O26 C23 1.301 . S
O27 U6 2.449 . S
O27 C23 1.282 . S
H28 C1 0.931 . S
H29 C3 0.929 . S
H30 C4 0.984 . S
H31 C5 0.931 . S
H32 C12 0.932 . S
H33 C13 0.930 . S
H34 C14 0.929 . S
H35 C16 0.930 . S
H36 C18 0.932 . S
H37 C19 0.929 . S
H38 C20 0.928 . S
H39 C22 0.932 . S
C40 C41 1.264 . S
C40 C45 1.479 . S
C40 C50 1.465 . S
C41 C40 1.264 . S
C41 C43 1.339 . S
C41 H68 0.931 . S
C42 C43 1.395 . S
C42 C44 1.320 . S
C43 C41 1.339 . S
C43 C42 1.395 . S
C43 H69 0.929 . S
C44 C42 1.320 . S
C44 C45 1.405 . S
C44 H70 0.930 . S
C45 C40 1.479 . S
C45 C44 1.405 . S
C45 H71 0.931 . S
U46 O47 2.454 . S
U46 O48 2.458 . S
U46 C49 2.984 . S
U46 C50 2.847 . S
U46 C63 2.882 . S
U46 O64 2.441 . S
U46 O65 2.420 . S
U46 O66 2.455 . S
U46 O67 2.449 . S
O47 U46 2.454 . S
O47 C49 1.353 . S
O48 U46 2.458 . S
O48 C49 1.286 . S
C49 U46 2.984 . S
C49 O47 1.353 . S
C49 O48 1.286 . S
C49 C51 1.363 . S
C50 C40 1.465 . S
C50 U46 2.847 . S
C50 O64 1.249 . S
C50 O65 1.202 . S
C51 C49 1.363 . S
C51 C53 1.408 . S
C51 C56 1.342 . S
C52 C53 1.310 . S
C52 C55 1.461 . S
C52 H72 0.932 . S
C53 C51 1.408 . S
C53 C52 1.310 . S
C53 H73 0.930 . S
C54 C55 1.474 . S
C54 C56 1.285 . S
C54 H74 0.929 . S
C55 C52 1.461 . S
C55 C54 1.474 . S
C56 C51 1.342 . S
C56 C54 1.285 . S
C56 H75 0.930 . S
C57 C60 1.424 . S
C57 C62 1.245 . S
C57 C63 1.428 . S
C58 C61 1.260 . S
C58 C62 1.477 . S
C58 H76 0.932 . S
C59 C60 1.384 . S
C59 C61 1.479 . S
C59 H77 0.929 . S
C60 C57 1.424 . S
C60 C59 1.384 . S
C60 H78 0.928 . S
C61 C58 1.260 . S
C61 C59 1.479 . S
C62 C57 1.245 . S
C62 C58 1.477 . S
C62 H79 0.932 . S
C63 U46 2.882 . S
C63 C57 1.428 . S
C63 O66 1.301 . S
C63 O67 1.282 . S
O64 U46 2.441 . S
O64 C50 1.249 . S
O65 U46 2.420 . S
O65 C50 1.202 . S
O66 U46 2.455 . S
O66 C63 1.301 . S
O67 U46 2.449 . S
O67 C63 1.282 . S
H68 C41 0.931 . S
H69 C43 0.929 . S
H70 C44 0.930 . S
H71 C45 0.931 . S
H72 C52 0.932 . S
H73 C53 0.930 . S
H74 C54 0.929 . S
H75 C56 0.930 . S
H76 C58 0.932 . S
H77 C59 0.929 . S
H78 C60 0.928 . S
H79 C62 0.932 . S
C80 C81 1.264 . S
C80 C85 1.479 . S
C80 C90 1.465 . S
C81 C80 1.264 . S
C81 C83 1.339 . S
C81 H108 0.931 . S
C82 C83 1.395 . S
C82 C84 1.320 . S
C83 C81 1.339 . S
C83 C82 1.395 . S
C83 H109 0.929 . S
C84 C82 1.320 . S
C84 C85 1.405 . S
C84 H110 0.984 . S
C85 C80 1.479 . S
C85 C84 1.405 . S
C85 H111 0.931 . S
U86 O87 2.454 . S
U86 O88 2.458 . S
U86 C89 2.984 . S
U86 C90 2.847 . S
U86 C103 2.882 . S
U86 O104 2.441 . S
U86 O105 2.420 . S
U86 O106 2.455 . S
U86 O107 2.449 . S
O87 U86 2.454 . S
O87 C89 1.353 . S
O88 U86 2.458 . S
O88 C89 1.286 . S
C89 U86 2.984 . S
C89 O87 1.353 . S
C89 O88 1.286 . S
C89 C91 1.363 . S
C90 C80 1.465 . S
C90 U86 2.847 . S
C90 O104 1.249 . S
C90 O105 1.202 . S
C91 C89 1.363 . S
C91 C93 1.408 . S
C91 C96 1.342 . S
C92 C93 1.310 . S
C92 C95 1.461 . S
C92 H112 0.932 . S
C93 C91 1.408 . S
C93 C92 1.310 . S
C93 H113 0.930 . S
C94 C95 1.474 . S
C94 C96 1.285 . S
C94 H114 0.929 . S
C95 C92 1.461 . S
C95 C94 1.474 . S
C96 C91 1.342 . S
C96 C94 1.285 . S
C96 H115 0.930 . S
C97 C100 1.424 . S
C97 C102 1.245 . S
C97 C103 1.428 . S
C98 C101 1.260 . S
C98 C102 1.477 . S
C98 H116 0.932 . S
C99 C100 1.384 . S
C99 C101 1.479 . S
C99 H117 0.929 . S
C100 C97 1.424 . S
C100 C99 1.384 . S
C100 H118 0.928 . S
C101 C98 1.260 . S
C101 C99 1.479 . S
C102 C97 1.245 . S
C102 C98 1.477 . S
C102 H119 0.932 . S
C103 U86 2.882 . S
C103 C97 1.428 . S
C103 O106 1.301 . S
C103 O107 1.282 . S
O104 U86 2.441 . S
O104 C90 1.249 . S
O105 U86 2.420 . S
O105 C90 1.202 . S
O106 U86 2.455 . S
O106 C103 1.301 . S
O107 U86 2.449 . S
O107 C103 1.282 . S
H108 C81 0.931 . S
H109 C83 0.929 . S
H110 C84 0.984 . S
H111 C85 0.931 . S
H112 C92 0.932 . S
H113 C93 0.930 . S
H114 C94 0.929 . S
H115 C96 0.930 . S
H116 C98 0.932 . S
H117 C99 0.929 . S
H118 C100 0.928 . S
H119 C102 0.932 . S
C120 C121 1.264 . S
C120 C125 1.479 . S
C120 C130 1.465 . S
C121 C120 1.264 . S
C121 C123 1.339 . S
C121 H148 0.931 . S
C122 C123 1.395 . S
C122 C124 1.320 . S
C123 C121 1.339 . S
C123 C122 1.395 . S
C123 H149 0.929 . S
C124 C122 1.320 . S
C124 C125 1.405 . S
C124 H150 0.930 . S
C125 C120 1.479 . S
C125 C124 1.405 . S
C125 H151 0.931 . S
U126 O127 2.454 . S
U126 O128 2.458 . S
U126 C129 2.984 . S
U126 C130 2.847 . S
U126 C143 2.882 . S
U126 O144 2.441 . S
U126 O145 2.420 . S
U126 O146 2.455 . S
U126 O147 2.449 . S
O127 U126 2.454 . S
O127 C129 1.353 . S
O128 U126 2.458 . S
O128 C129 1.286 . S
C129 U126 2.984 . S
C129 O127 1.353 . S
C129 O128 1.286 . S
C129 C131 1.363 . S
C130 C120 1.465 . S
C130 U126 2.847 . S
C130 O144 1.249 . S
C130 O145 1.202 . S
C131 C129 1.363 . S
C131 C133 1.408 . S
C131 C136 1.342 . S
C132 C133 1.310 . S
C132 C135 1.461 . S
C132 H152 0.932 . S
C133 C131 1.408 . S
C133 C132 1.310 . S
C133 H153 0.930 . S
C134 C135 1.474 . S
C134 C136 1.285 . S
C134 H154 0.929 . S
C135 C132 1.461 . S
C135 C134 1.474 . S
C136 C131 1.342 . S
C136 C134 1.285 . S
C136 H155 0.930 . S
C137 C140 1.424 . S
C137 C142 1.245 . S
C137 C143 1.428 . S
C138 C141 1.260 . S
C138 C142 1.477 . S
C138 H156 0.932 . S
C139 C140 1.384 . S
C139 C141 1.479 . S
C139 H157 0.929 . S
C140 C137 1.424 . S
C140 C139 1.384 . S
C140 H158 0.928 . S
C141 C138 1.260 . S
C141 C139 1.479 . S
C142 C137 1.245 . S
C142 C138 1.477 . S
C142 H159 0.932 . S
C143 U126 2.882 . S
C143 C137 1.428 . S
C143 O146 1.301 . S
C143 O147 1.282 . S
O144 U126 2.441 . S
O144 C130 1.249 . S
O145 U126 2.420 . S
O145 C130 1.202 . S
O146 U126 2.455 . S
O146 C143 1.301 . S
O147 U126 2.449 . S
O147 C143 1.282 . S
H148 C121 0.931 . S
H149 C123 0.929 . S
H150 C124 0.930 . S
H151 C125 0.931 . S
H152 C132 0.932 . S
H153 C133 0.930 . S
H154 C134 0.929 . S
H155 C136 0.930 . S
H156 C138 0.932 . S
H157 C139 0.929 . S
H158 C140 0.928 . S
H159 C142 0.932 . S
C160 C161 1.264 . S
C160 C165 1.479 . S
C160 C170 1.465 . S
C161 C160 1.264 . S
C161 C163 1.339 . S
C161 H188 0.931 . S
C162 C163 1.395 . S
C162 C164 1.320 . S
C163 C161 1.339 . S
C163 C162 1.395 . S
C163 H189 0.929 . S
C164 C162 1.320 . S
C164 C165 1.405 . S
C164 H190 0.984 . S
C165 C160 1.479 . S
C165 C164 1.405 . S
C165 H191 0.931 . S
U166 O167 2.454 . S
U166 O168 2.458 . S
U166 C169 2.984 . S
U166 C170 2.847 . S
U166 C183 2.882 . S
U166 O184 2.441 . S
U166 O185 2.420 . S
U166 O186 2.455 . S
U166 O187 2.449 . S
O167 U166 2.454 . S
O167 C169 1.353 . S
O168 U166 2.458 . S
O168 C169 1.286 . S
C169 U166 2.984 . S
C169 O167 1.353 . S
C169 O168 1.286 . S
C169 C171 1.363 . S
C170 C160 1.465 . S
C170 U166 2.847 . S
C170 O184 1.249 . S
C170 O185 1.202 . S
C171 C169 1.363 . S
C171 C173 1.408 . S
C171 C176 1.342 . S
C172 C173 1.310 . S
C172 C175 1.461 . S
C172 H192 0.932 . S
C173 C171 1.408 . S
C173 C172 1.310 . S
C173 H193 0.930 . S
C174 C175 1.474 . S
C174 C176 1.285 . S
C174 H194 0.929 . S
C175 C172 1.461 . S
C175 C174 1.474 . S
C176 C171 1.342 . S
C176 C174 1.285 . S
C176 H195 0.930 . S
C177 C180 1.424 . S
C177 C182 1.245 . S
C177 C183 1.428 . S
C178 C181 1.260 . S
C178 C182 1.477 . S
C178 H196 0.932 . S
C179 C180 1.384 . S
C179 C181 1.479 . S
C179 H197 0.929 . S
C180 C177 1.424 . S
C180 C179 1.384 . S
C180 H198 0.928 . S
C181 C178 1.260 . S
C181 C179 1.479 . S
C182 C177 1.245 . S
C182 C178 1.477 . S
C182 H199 0.932 . S
C183 U166 2.882 . S
C183 C177 1.428 . S
C183 O186 1.301 . S
C183 O187 1.282 . S
O184 U166 2.441 . S
O184 C170 1.249 . S
O185 U166 2.420 . S
O185 C170 1.202 . S
O186 U166 2.455 . S
O186 C183 1.301 . S
O187 U166 2.449 . S
O187 C183 1.282 . S
H188 C161 0.931 . S
H189 C163 0.929 . S
H190 C164 0.984 . S
H191 C165 0.931 . S
H192 C172 0.932 . S
H193 C173 0.930 . S
H194 C174 0.929 . S
H195 C176 0.930 . S
H196 C178 0.932 . S
H197 C179 0.929 . S
H198 C180 0.928 . S
H199 C182 0.932 . S
C200 C201 1.264 . S
C200 C205 1.479 . S
C200 C210 1.465 . S
C201 C200 1.264 . S
C201 C203 1.339 . S
C201 H228 0.931 . S
C202 C203 1.395 . S
C202 C204 1.320 . S
C203 C201 1.339 . S
C203 C202 1.395 . S
C203 H229 0.929 . S
C204 C202 1.320 . S
C204 C205 1.405 . S
C204 H230 0.930 . S
C205 C200 1.479 . S
C205 C204 1.405 . S
C205 H231 0.931 . S
U206 O207 2.454 . S
U206 O208 2.458 . S
U206 C209 2.984 . S
U206 C210 2.847 . S
U206 C223 2.882 . S
U206 O224 2.441 . S
U206 O225 2.420 . S
U206 O226 2.455 . S
U206 O227 2.449 . S
O207 U206 2.454 . S
O207 C209 1.353 . S
O208 U206 2.458 . S
O208 C209 1.286 . S
C209 U206 2.984 . S
C209 O207 1.353 . S
C209 O208 1.286 . S
C209 C211 1.363 . S
C210 C200 1.465 . S
C210 U206 2.847 . S
C210 O224 1.249 . S
C210 O225 1.202 . S
C211 C209 1.363 . S
C211 C213 1.408 . S
C211 C216 1.342 . S
C212 C213 1.310 . S
C212 C215 1.461 . S
C212 H232 0.932 . S
C213 C211 1.408 . S
C213 C212 1.310 . S
C213 H233 0.930 . S
C214 C215 1.474 . S
C214 C216 1.285 . S
C214 H234 0.929 . S
C215 C212 1.461 . S
C215 C214 1.474 . S
C216 C211 1.342 . S
C216 C214 1.285 . S
C216 H235 0.930 . S
C217 C220 1.424 . S
C217 C222 1.245 . S
C217 C223 1.428 . S
C218 C221 1.260 . S
C218 C222 1.477 . S
C218 H236 0.932 . S
C219 C220 1.384 . S
C219 C221 1.479 . S
C219 H237 0.929 . S
C220 C217 1.424 . S
C220 C219 1.384 . S
C220 H238 0.928 . S
C221 C218 1.260 . S
C221 C219 1.479 . S
C222 C217 1.245 . S
C222 C218 1.477 . S
C222 H239 0.932 . S
C223 U206 2.882 . S
C223 C217 1.428 . S
C223 O226 1.301 . S
C223 O227 1.282 . S
O224 U206 2.441 . S
O224 C210 1.249 . S
O225 U206 2.420 . S
O225 C210 1.202 . S
O226 U206 2.455 . S
O226 C223 1.301 . S
O227 U206 2.449 . S
O227 C223 1.282 . S
H228 C201 0.931 . S
H229 C203 0.929 . S
H230 C204 0.930 . S
H231 C205 0.931 . S
H232 C212 0.932 . S
H233 C213 0.930 . S
H234 C214 0.929 . S
H235 C216 0.930 . S
H236 C218 0.932 . S
H237 C219 0.929 . S
H238 C220 0.928 . S
H239 C222 0.932 . S
C240 C241 1.264 . S
C240 C245 1.479 . S
C240 C250 1.465 . S
C241 C240 1.264 . S
C241 C243 1.339 . S
C241 H268 0.931 . S
C242 C243 1.395 . S
C242 C244 1.320 . S
C243 C241 1.339 . S
C243 C242 1.395 . S
C243 H269 0.929 . S
C244 C242 1.320 . S
C244 C245 1.405 . S
C244 H270 0.984 . S
C245 C240 1.479 . S
C245 C244 1.405 . S
C245 H271 0.931 . S
U246 O247 2.454 . S
U246 O248 2.458 . S
U246 C249 2.984 . S
U246 C250 2.847 . S
U246 C263 2.882 . S
U246 O264 2.441 . S
U246 O265 2.420 . S
U246 O266 2.455 . S
U246 O267 2.449 . S
O247 U246 2.454 . S
O247 C249 1.353 . S
O248 U246 2.458 . S
O248 C249 1.286 . S
C249 U246 2.984 . S
C249 O247 1.353 . S
C249 O248 1.286 . S
C249 C251 1.363 . S
C250 C240 1.465 . S
C250 U246 2.847 . S
C250 O264 1.249 . S
C250 O265 1.202 . S
C251 C249 1.363 . S
C251 C253 1.408 . S
C251 C256 1.342 . S
C252 C253 1.310 . S
C252 C255 1.461 . S
C252 H272 0.932 . S
C253 C251 1.408 . S
C253 C252 1.310 . S
C253 H273 0.930 . S
C254 C255 1.474 . S
C254 C256 1.285 . S
C254 H274 0.929 . S
C255 C252 1.461 . S
C255 C254 1.474 . S
C256 C251 1.342 . S
C256 C254 1.285 . S
C256 H275 0.930 . S
C257 C260 1.424 . S
C257 C262 1.245 . S
C257 C263 1.428 . S
C258 C261 1.260 . S
C258 C262 1.477 . S
C258 H276 0.932 . S
C259 C260 1.384 . S
C259 C261 1.479 . S
C259 H277 0.929 . S
C260 C257 1.424 . S
C260 C259 1.384 . S
C260 H278 0.928 . S
C261 C258 1.260 . S
C261 C259 1.479 . S
C262 C257 1.245 . S
C262 C258 1.477 . S
C262 H279 0.932 . S
C263 U246 2.882 . S
C263 C257 1.428 . S
C263 O266 1.301 . S
C263 O267 1.282 . S
O264 U246 2.441 . S
O264 C250 1.249 . S
O265 U246 2.420 . S
O265 C250 1.202 . S
O266 U246 2.455 . S
O266 C263 1.301 . S
O267 U246 2.449 . S
O267 C263 1.282 . S
H268 C241 0.931 . S
H269 C243 0.929 . S
H270 C244 0.984 . S
H271 C245 0.931 . S
H272 C252 0.932 . S
H273 C253 0.930 . S
H274 C254 0.929 . S
H275 C256 0.930 . S
H276 C258 0.932 . S
H277 C259 0.929 . S
H278 C260 0.928 . S
H279 C262 0.932 . S
C280 C281 1.264 . S
C280 C285 1.479 . S
C280 C290 1.465 . S
C281 C280 1.264 . S
C281 C283 1.339 . S
C281 H308 0.931 . S
C282 C283 1.395 . S
C282 C284 1.320 . S
C283 C281 1.339 . S
C283 C282 1.395 . S
C283 H309 0.929 . S
C284 C282 1.320 . S
C284 C285 1.405 . S
C284 H310 0.930 . S
C285 C280 1.479 . S
C285 C284 1.405 . S
C285 H311 0.931 . S
U286 O287 2.454 . S
U286 O288 2.458 . S
U286 C289 2.984 . S
U286 C290 2.847 . S
U286 C303 2.882 . S
U286 O304 2.441 . S
U286 O305 2.420 . S
U286 O306 2.455 . S
U286 O307 2.449 . S
O287 U286 2.454 . S
O287 C289 1.353 . S
O288 U286 2.458 . S
O288 C289 1.286 . S
C289 U286 2.984 . S
C289 O287 1.353 . S
C289 O288 1.286 . S
C289 C291 1.363 . S
C290 C280 1.465 . S
C290 U286 2.847 . S
C290 O304 1.249 . S
C290 O305 1.202 . S
C291 C289 1.363 . S
C291 C293 1.408 . S
C291 C296 1.342 . S
C292 C293 1.310 . S
C292 C295 1.461 . S
C292 H312 0.932 . S
C293 C291 1.408 . S
C293 C292 1.310 . S
C293 H313 0.930 . S
C294 C295 1.474 . S
C294 C296 1.285 . S
C294 H314 0.929 . S
C295 C292 1.461 . S
C295 C294 1.474 . S
C296 C291 1.342 . S
C296 C294 1.285 . S
C296 H315 0.930 . S
C297 C300 1.424 . S
C297 C302 1.245 . S
C297 C303 1.428 . S
C298 C301 1.260 . S
C298 C302 1.477 . S
C298 H316 0.932 . S
C299 C300 1.384 . S
C299 C301 1.479 . S
C299 H317 0.929 . S
C300 C297 1.424 . S
C300 C299 1.384 . S
C300 H318 0.928 . S
C301 C298 1.260 . S
C301 C299 1.479 . S
C302 C297 1.245 . S
C302 C298 1.477 . S
C302 H319 0.932 . S
C303 U286 2.882 . S
C303 C297 1.428 . S
C303 O306 1.301 . S
C303 O307 1.282 . S
O304 U286 2.441 . S
O304 C290 1.249 . S
O305 U286 2.420 . S
O305 C290 1.202 . S
O306 U286 2.455 . S
O306 C303 1.301 . S
O307 U286 2.449 . S
O307 C303 1.282 . S
H308 C281 0.931 . S
H309 C283 0.929 . S
H310 C284 0.930 . S
H311 C285 0.931 . S
H312 C292 0.932 . S
H313 C293 0.930 . S
H314 C294 0.929 . S
H315 C296 0.930 . S
H316 C298 0.932 . S
H317 C299 0.929 . S
H318 C300 0.928 . S
H319 C302 0.932 . S
C320 C321 1.264 . S
C320 C325 1.479 . S
C320 C330 1.465 . S
C321 C320 1.264 . S
C321 C323 1.339 . S
C321 H348 0.931 . S
C322 C323 1.395 . S
C322 C324 1.320 . S
C323 C321 1.339 . S
C323 C322 1.395 . S
C323 H349 0.929 . S
C324 C322 1.320 . S
C324 C325 1.405 . S
C324 H350 0.930 . S
C325 C320 1.479 . S
C325 C324 1.405 . S
C325 H351 0.931 . S
U326 O327 2.454 . S
U326 O328 2.458 . S
U326 C329 2.984 . S
U326 C330 2.847 . S
U326 C343 2.882 . S
U326 O344 2.441 . S
U326 O345 2.420 . S
U326 O346 2.455 . S
U326 O347 2.449 . S
O327 U326 2.454 . S
O327 C329 1.353 . S
O328 U326 2.458 . S
O328 C329 1.286 . S
C329 U326 2.984 . S
C329 O327 1.353 . S
C329 O328 1.286 . S
C329 C331 1.363 . S
C330 C320 1.465 . S
C330 U326 2.847 . S
C330 O344 1.249 . S
C330 O345 1.202 . S
C331 C329 1.363 . S
C331 C333 1.408 . S
C331 C336 1.342 . S
C332 C333 1.310 . S
C332 C335 1.461 . S
C332 H352 0.932 . S
C333 C331 1.408 . S
C333 C332 1.310 . S
C333 H353 0.930 . S
C334 C335 1.474 . S
C334 C336 1.285 . S
C334 H354 0.929 . S
C335 C332 1.461 . S
C335 C334 1.474 . S
C336 C331 1.342 . S
C336 C334 1.285 . S
C336 H355 0.930 . S
C337 C340 1.424 . S
C337 C342 1.245 . S
C337 C343 1.428 . S
C338 C341 1.260 . S
C338 C342 1.477 . S
C338 H356 0.932 . S
C339 C340 1.384 . S
C339 C341 1.479 . S
C339 H357 0.929 . S
C340 C337 1.424 . S
C340 C339 1.384 . S
C340 H358 0.928 . S
C341 C338 1.260 . S
C341 C339 1.479 . S
C342 C337 1.245 . S
C342 C338 1.477 . S
C342 H359 0.932 . S
C343 U326 2.882 . S
C343 C337 1.428 . S
C343 O346 1.301 . S
C343 O347 1.282 . S
O344 U326 2.441 . S
O344 C330 1.249 . S
O345 U326 2.420 . S
O345 C330 1.202 . S
O346 U326 2.455 . S
O346 C343 1.301 . S
O347 U326 2.449 . S
O347 C343 1.282 . S
H348 C321 0.931 . S
H349 C323 0.929 . S
H350 C324 0.930 . S
H351 C325 0.931 . S
H352 C332 0.932 . S
H353 C333 0.930 . S
H354 C334 0.929 . S
H355 C336 0.930 . S
H356 C338 0.932 . S
H357 C339 0.929 . S
H358 C340 0.928 . S
H359 C342 0.932 . S
C360 C361 1.264 . S
C360 C365 1.479 . S
C360 C370 1.465 . S
C361 C360 1.264 . S
C361 C363 1.339 . S
C361 H388 0.931 . S
C362 C363 1.395 . S
C362 C364 1.320 . S
C363 C361 1.339 . S
C363 C362 1.395 . S
C363 H389 0.929 . S
C364 C362 1.320 . S
C364 C365 1.405 . S
C364 H390 0.930 . S
C365 C360 1.479 . S
C365 C364 1.405 . S
C365 H391 0.931 . S
U366 O367 2.454 . S
U366 O368 2.458 . S
U366 C369 2.984 . S
U366 C370 2.847 . S
U366 C383 2.882 . S
U366 O384 2.441 . S
U366 O385 2.420 . S
U366 O386 2.455 . S
U366 O387 2.449 . S
O367 U366 2.454 . S
O367 C369 1.353 . S
O368 U366 2.458 . S
O368 C369 1.286 . S
C369 U366 2.984 . S
C369 O367 1.353 . S
C369 O368 1.286 . S
C369 C371 1.363 . S
C370 C360 1.465 . S
C370 U366 2.847 . S
C370 O384 1.249 . S
C370 O385 1.202 . S
C371 C369 1.363 . S
C371 C373 1.408 . S
C371 C376 1.342 . S
C372 C373 1.310 . S
C372 C375 1.461 . S
C372 H392 0.932 . S
C373 C371 1.408 . S
C373 C372 1.310 . S
C373 H393 0.930 . S
C374 C375 1.474 . S
C374 C376 1.285 . S
C374 H394 0.929 . S
C375 C372 1.461 . S
C375 C374 1.474 . S
C376 C371 1.342 . S
C376 C374 1.285 . S
C376 H395 0.930 . S
C377 C380 1.424 . S
C377 C382 1.245 . S
C377 C383 1.428 . S
C378 C381 1.260 . S
C378 C382 1.477 . S
C378 H396 0.932 . S
C379 C380 1.384 . S
C379 C381 1.479 . S
C379 H397 0.929 . S
C380 C377 1.424 . S
C380 C379 1.384 . S
C380 H398 0.928 . S
C381 C378 1.260 . S
C381 C379 1.479 . S
C382 C377 1.245 . S
C382 C378 1.477 . S
C382 H399 0.932 . S
C383 U366 2.882 . S
C383 C377 1.428 . S
C383 O386 1.301 . S
C383 O387 1.282 . S
O384 U366 2.441 . S
O384 C370 1.249 . S
O385 U366 2.420 . S
O385 C370 1.202 . S
O386 U366 2.455 . S
O386 C383 1.301 . S
O387 U366 2.449 . S
O387 C383 1.282 . S
H388 C361 0.931 . S
H389 C363 0.929 . S
H390 C364 0.930 . S
H391 C365 0.931 . S
H392 C372 0.932 . S
H393 C373 0.930 . S
H394 C374 0.929 . S
H395 C376 0.930 . S
H396 C378 0.932 . S
H397 C379 0.929 . S
H398 C380 0.928 . S
H399 C382 0.932 . S
C400 C401 1.264 . S
C400 C405 1.479 . S
C400 C410 1.465 . S
C401 C400 1.264 . S
C401 C403 1.339 . S
C401 H428 0.931 . S
C402 C403 1.395 . S
C402 C404 1.320 . S
C403 C401 1.339 . S
C403 C402 1.395 . S
C403 H429 0.929 . S
C404 C402 1.320 . S
C404 C405 1.405 . S
C404 H430 0.930 . S
C405 C400 1.479 . S
C405 C404 1.405 . S
C405 H431 0.931 . S
U406 O407 2.454 . S
U406 O408 2.458 . S
U406 C409 2.984 . S
U406 C410 2.847 . S
U406 C423 2.882 . S
U406 O424 2.441 . S
U406 O425 2.420 . S
U406 O426 2.455 . S
U406 O427 2.449 . S
O407 U406 2.454 . S
O407 C409 1.353 . S
O408 U406 2.458 . S
O408 C409 1.286 . S
C409 U406 2.984 . S
C409 O407 1.353 . S
C409 O408 1.286 . S
C409 C411 1.363 . S
C410 C400 1.465 . S
C410 U406 2.847 . S
C410 O424 1.249 . S
C410 O425 1.202 . S
C411 C409 1.363 . S
C411 C413 1.408 . S
C411 C416 1.342 . S
C412 C413 1.310 . S
C412 C415 1.461 . S
C412 H432 0.932 . S
C413 C411 1.408 . S
C413 C412 1.310 . S
C413 H433 0.930 . S
C414 C415 1.474 . S
C414 C416 1.285 . S
C414 H434 0.929 . S
C415 C412 1.461 . S
C415 C414 1.474 . S
C416 C411 1.342 . S
C416 C414 1.285 . S
C416 H435 0.930 . S
C417 C420 1.424 . S
C417 C422 1.245 . S
C417 C423 1.428 . S
C418 C421 1.260 . S
C418 C422 1.477 . S
C418 H436 0.932 . S
C419 C420 1.384 . S
C419 C421 1.479 . S
C419 H437 0.929 . S
C420 C417 1.424 . S
C420 C419 1.384 . S
C420 H438 0.928 . S
C421 C418 1.260 . S
C421 C419 1.479 . S
C422 C417 1.245 . S
C422 C418 1.477 . S
C422 H439 0.932 . S
C423 U406 2.882 . S
C423 C417 1.428 . S
C423 O426 1.301 . S
C423 O427 1.282 . S
O424 U406 2.441 . S
O424 C410 1.249 . S
O425 U406 2.420 . S
O425 C410 1.202 . S
O426 U406 2.455 . S
O426 C423 1.301 . S
O427 U406 2.449 . S
O427 C423 1.282 . S
H428 C401 0.931 . S
H429 C403 0.929 . S
H430 C404 0.930 . S
H431 C405 0.931 . S
H432 C412 0.932 . S
H433 C413 0.930 . S
H434 C414 0.929 . S
H435 C416 0.930 . S
H436 C418 0.932 . S
H437 C419 0.929 . S
H438 C420 0.928 . S
H439 C422 0.932 . S
C440 C441 1.264 . S
C440 C445 1.479 . S
C440 C450 1.465 . S
C441 C440 1.264 . S
C441 C443 1.339 . S
C441 H468 0.931 . S
C442 C443 1.395 . S
C442 C444 1.320 . S
C443 C441 1.339 . S
C443 C442 1.395 . S
C443 H469 0.929 . S
C444 C442 1.320 . S
C444 C445 1.405 . S
C444 H470 0.930 . S
C445 C440 1.479 . S
C445 C444 1.405 . S
C445 H471 0.931 . S
U446 O447 2.454 . S
U446 O448 2.458 . S
U446 C449 2.984 . S
U446 C450 2.847 . S
U446 C463 2.882 . S
U446 O464 2.441 . S
U446 O465 2.420 . S
U446 O466 2.455 . S
U446 O467 2.449 . S
O447 U446 2.454 . S
O447 C449 1.353 . S
O448 U446 2.458 . S
O448 C449 1.286 . S
C449 U446 2.984 . S
C449 O447 1.353 . S
C449 O448 1.286 . S
C449 C451 1.363 . S
C450 C440 1.465 . S
C450 U446 2.847 . S
C450 O464 1.249 . S
C450 O465 1.202 . S
C451 C449 1.363 . S
C451 C453 1.408 . S
C451 C456 1.342 . S
C452 C453 1.310 . S
C452 C455 1.461 . S
C452 H472 0.932 . S
C453 C451 1.408 . S
C453 C452 1.310 . S
C453 H473 0.930 . S
C454 C455 1.474 . S
C454 C456 1.285 . S
C454 H474 0.929 . S
C455 C452 1.461 . S
C455 C454 1.474 . S
C456 C451 1.342 . S
C456 C454 1.285 . S
C456 H475 0.930 . S
C457 C460 1.424 . S
C457 C462 1.245 . S
C457 C463 1.428 . S
C458 C461 1.260 . S
C458 C462 1.477 . S
C458 H476 0.932 . S
C459 C460 1.384 . S
C459 C461 1.479 . S
C459 H477 0.929 . S
C460 C457 1.424 . S
C460 C459 1.384 . S
C460 H478 0.928 . S
C461 C458 1.260 . S
C461 C459 1.479 . S
C462 C457 1.245 . S
C462 C458 1.477 . S
C462 H479 0.932 . S
C463 U446 2.882 . S
C463 C457 1.428 . S
C463 O466 1.301 . S
C463 O467 1.282 . S
O464 U446 2.441 . S
O464 C450 1.249 . S
O465 U446 2.420 . S
O465 C450 1.202 . S
O466 U446 2.455 . S
O466 C463 1.301 . S
O467 U446 2.449 . S
O467 C463 1.282 . S
H468 C441 0.931 . S
H469 C443 0.929 . S
H470 C444 0.930 . S
H471 C445 0.931 . S
H472 C452 0.932 . S
H473 C453 0.930 . S
H474 C454 0.929 . S
H475 C456 0.930 . S
H476 C458 0.932 . S
H477 C459 0.929 . S
H478 C460 0.928 . S
H479 C462 0.932 . S
C480 C481 1.264 . S
C480 C485 1.479 . S
C480 C490 1.465 . S
C481 C480 1.264 . S
C481 C483 1.339 . S
C481 H508 0.931 . S
C482 C483 1.395 . S
C482 C484 1.320 . S
C483 C481 1.339 . S
C483 C482 1.395 . S
C483 H509 0.929 . S
C484 C482 1.320 . S
C484 C485 1.405 . S
C484 H510 0.930 . S
C485 C480 1.479 . S
C485 C484 1.405 . S
C485 H511 0.931 . S
U486 O487 2.454 . S
U486 O488 2.458 . S
U486 C489 2.984 . S
U486 C490 2.847 . S
U486 C503 2.882 . S
U486 O504 2.441 . S
U486 O505 2.420 . S
U486 O506 2.455 . S
U486 O507 2.449 . S
O487 U486 2.454 . S
O487 C489 1.353 . S
O488 U486 2.458 . S
O488 C489 1.286 . S
C489 U486 2.984 . S
C489 O487 1.353 . S
C489 O488 1.286 . S
C489 C491 1.363 . S
C490 C480 1.465 . S
C490 U486 2.847 . S
C490 O504 1.249 . S
C490 O505 1.202 . S
C491 C489 1.363 . S
C491 C493 1.408 . S
C491 C496 1.342 . S
C492 C493 1.310 . S
C492 C495 1.461 . S
C492 H512 0.932 . S
C493 C491 1.408 . S
C493 C492 1.310 . S
C493 H513 0.930 . S
C494 C495 1.474 . S
C494 C496 1.285 . S
C494 H514 0.929 . S
C495 C492 1.461 . S
C495 C494 1.474 . S
C496 C491 1.342 . S
C496 C494 1.285 . S
C496 H515 0.930 . S
C497 C500 1.424 . S
C497 C502 1.245 . S
C497 C503 1.428 . S
C498 C501 1.260 . S
C498 C502 1.477 . S
C498 H516 0.932 . S
C499 C500 1.384 . S
C499 C501 1.479 . S
C499 H517 0.929 . S
C500 C497 1.424 . S
C500 C499 1.384 . S
C500 H518 0.928 . S
C501 C498 1.260 . S
C501 C499 1.479 . S
C502 C497 1.245 . S
C502 C498 1.477 . S
C502 H519 0.932 . S
C503 U486 2.882 . S
C503 C497 1.428 . S
C503 O506 1.301 . S
C503 O507 1.282 . S
O504 U486 2.441 . S
O504 C490 1.249 . S
O505 U486 2.420 . S
O505 C490 1.202 . S
O506 U486 2.455 . S
O506 C503 1.301 . S
O507 U486 2.449 . S
O507 C503 1.282 . S
H508 C481 0.931 . S
H509 C483 0.929 . S
H510 C484 0.930 . S
H511 C485 0.931 . S
H512 C492 0.932 . S
H513 C493 0.930 . S
H514 C494 0.929 . S
H515 C496 0.930 . S
H516 C498 0.932 . S
H517 C499 0.929 . S
H518 C500 0.928 . S
H519 C502 0.932 . S
C520 C521 1.264 . S
C520 C525 1.479 . S
C520 C530 1.465 . S
C521 C520 1.264 . S
C521 C523 1.339 . S
C521 H548 0.931 . S
C522 C523 1.395 . S
C522 C524 1.320 . S
C523 C521 1.339 . S
C523 C522 1.395 . S
C523 H549 0.929 . S
C524 C522 1.320 . S
C524 C525 1.405 . S
C524 H550 0.930 . S
C525 C520 1.479 . S
C525 C524 1.405 . S
C525 H551 0.931 . S
U526 O527 2.454 . S
U526 O528 2.458 . S
U526 C529 2.984 . S
U526 C530 2.847 . S
U526 C543 2.882 . S
U526 O544 2.441 . S
U526 O545 2.420 . S
U526 O546 2.455 . S
U526 O547 2.449 . S
O527 U526 2.454 . S
O527 C529 1.353 . S
O528 U526 2.458 . S
O528 C529 1.286 . S
C529 U526 2.984 . S
C529 O527 1.353 . S
C529 O528 1.286 . S
C529 C531 1.363 . S
C530 C520 1.465 . S
C530 U526 2.847 . S
C530 O544 1.249 . S
C530 O545 1.202 . S
C531 C529 1.363 . S
C531 C533 1.408 . S
C531 C536 1.342 . S
C532 C533 1.310 . S
C532 C535 1.461 . S
C532 H552 0.932 . S
C533 C531 1.408 . S
C533 C532 1.310 . S
C533 H553 0.930 . S
C534 C535 1.474 . S
C534 C536 1.285 . S
C534 H554 0.929 . S
C535 C532 1.461 . S
C535 C534 1.474 . S
C536 C531 1.342 . S
C536 C534 1.285 . S
C536 H555 0.930 . S
C537 C540 1.424 . S
C537 C542 1.245 . S
C537 C543 1.428 . S
C538 C541 1.260 . S
C538 C542 1.477 . S
C538 H556 0.932 . S
C539 C540 1.384 . S
C539 C541 1.479 . S
C539 H557 0.929 . S
C540 C537 1.424 . S
C540 C539 1.384 . S
C540 H558 0.928 . S
C541 C538 1.260 . S
C541 C539 1.479 . S
C542 C537 1.245 . S
C542 C538 1.477 . S
C542 H559 0.932 . S
C543 U526 2.882 . S
C543 C537 1.428 . S
C543 O546 1.301 . S
C543 O547 1.282 . S
O544 U526 2.441 . S
O544 C530 1.249 . S
O545 U526 2.420 . S
O545 C530 1.202 . S
O546 U526 2.455 . S
O546 C543 1.301 . S
O547 U526 2.449 . S
O547 C543 1.282 . S
H548 C521 0.931 . S
H549 C523 0.929 . S
H550 C524 0.930 . S
H551 C525 0.931 . S
H552 C532 0.932 . S
H553 C533 0.930 . S
H554 C534 0.929 . S
H555 C536 0.930 . S
H556 C538 0.932 . S
H557 C539 0.929 . S
H558 C540 0.928 . S
H559 C542 0.932 . S
C560 C561 1.264 . S
C560 C565 1.479 . S
C560 C570 1.465 . S
C561 C560 1.264 . S
C561 C563 1.339 . S
C561 H588 0.931 . S
C562 C563 1.395 . S
C562 C564 1.320 . S
C563 C561 1.339 . S
C563 C562 1.395 . S
C563 H589 0.929 . S
C564 C562 1.320 . S
C564 C565 1.405 . S
C564 H590 0.930 . S
C565 C560 1.479 . S
C565 C564 1.405 . S
C565 H591 0.931 . S
U566 O567 2.454 . S
U566 O568 2.458 . S
U566 C569 2.984 . S
U566 C570 2.847 . S
U566 C583 2.882 . S
U566 O584 2.441 . S
U566 O585 2.420 . S
U566 O586 2.455 . S
U566 O587 2.449 . S
O567 U566 2.454 . S
O567 C569 1.353 . S
O568 U566 2.458 . S
O568 C569 1.286 . S
C569 U566 2.984 . S
C569 O567 1.353 . S
C569 O568 1.286 . S
C569 C571 1.363 . S
C570 C560 1.465 . S
C570 U566 2.847 . S
C570 O584 1.249 . S
C570 O585 1.202 . S
C571 C569 1.363 . S
C571 C573 1.408 . S
C571 C576 1.342 . S
C572 C573 1.310 . S
C572 C575 1.461 . S
C572 H592 0.932 . S
C573 C571 1.408 . S
C573 C572 1.310 . S
C573 H593 0.930 . S
C574 C575 1.474 . S
C574 C576 1.285 . S
C574 H594 0.929 . S
C575 C572 1.461 . S
C575 C574 1.474 . S
C576 C571 1.342 . S
C576 C574 1.285 . S
C576 H595 0.930 . S
C577 C580 1.424 . S
C577 C582 1.245 . S
C577 C583 1.428 . S
C578 C581 1.260 . S
C578 C582 1.477 . S
C578 H596 0.932 . S
C579 C580 1.384 . S
C579 C581 1.479 . S
C579 H597 0.929 . S
C580 C577 1.424 . S
C580 C579 1.384 . S
C580 H598 0.928 . S
C581 C578 1.260 . S
C581 C579 1.479 . S
C582 C577 1.245 . S
C582 C578 1.477 . S
C582 H599 0.932 . S
C583 U566 2.882 . S
C583 C577 1.428 . S
C583 O586 1.301 . S
C583 O587 1.282 . S
O584 U566 2.441 . S
O584 C570 1.249 . S
O585 U566 2.420 . S
O585 C570 1.202 . S
O586 U566 2.455 . S
O586 C583 1.301 . S
O587 U566 2.449 . S
O587 C583 1.282 . S
H588 C561 0.931 . S
H589 C563 0.929 . S
H590 C564 0.930 . S
H591 C565 0.931 . S
H592 C572 0.932 . S
H593 C573 0.930 . S
H594 C574 0.929 . S
H595 C576 0.930 . S
H596 C578 0.932 . S
H597 C579 0.929 . S
H598 C580 0.928 . S
H599 C582 0.932 . S
C600 C601 1.264 . S
C600 C605 1.479 . S
C600 C610 1.465 . S
C601 C600 1.264 . S
C601 C603 1.339 . S
C601 H628 0.931 . S
C602 C603 1.395 . S
C602 C604 1.320 . S
C603 C601 1.339 . S
C603 C602 1.395 . S
C603 H629 0.929 . S
C604 C602 1.320 . S
C604 C605 1.405 . S
C604 H630 0.930 . S
C605 C600 1.479 . S
C605 C604 1.405 . S
C605 H631 0.931 . S
U606 O607 2.454 . S
U606 O608 2.458 . S
U606 C609 2.984 . S
U606 C610 2.847 . S
U606 C623 2.882 . S
U606 O624 2.441 . S
U606 O625 2.420 . S
U606 O626 2.455 . S
U606 O627 2.449 . S
O607 U606 2.454 . S
O607 C609 1.353 . S
O608 U606 2.458 . S
O608 C609 1.286 . S
C609 U606 2.984 . S
C609 O607 1.353 . S
C609 O608 1.286 . S
C609 C611 1.363 . S
C610 C600 1.465 . S
C610 U606 2.847 . S
C610 O624 1.249 . S
C610 O625 1.202 . S
C611 C609 1.363 . S
C611 C613 1.408 . S
C611 C616 1.342 . S
C612 C613 1.310 . S
C612 C615 1.461 . S
C612 H632 0.932 . S
C613 C611 1.408 . S
C613 C612 1.310 . S
C613 H633 0.930 . S
C614 C615 1.474 . S
C614 C616 1.285 . S
C614 H634 0.929 . S
C615 C612 1.461 . S
C615 C614 1.474 . S
C616 C611 1.342 . S
C616 C614 1.285 . S
C616 H635 0.930 . S
C617 C620 1.424 . S
C617 C622 1.245 . S
C617 C623 1.428 . S
C618 C621 1.260 . S
C618 C622 1.477 . S
C618 H636 0.932 . S
C619 C620 1.384 . S
C619 C621 1.479 . S
C619 H637 0.929 . S
C620 C617 1.424 . S
C620 C619 1.384 . S
C620 H638 0.928 . S
C621 C618 1.260 . S
C621 C619 1.479 . S
C622 C617 1.245 . S
C622 C618 1.477 . S
C622 H639 0.932 . S
C623 U606 2.882 . S
C623 C617 1.428 . S
C623 O626 1.301 . S
C623 O627 1.282 . S
O624 U606 2.441 . S
O624 C610 1.249 . S
O625 U606 2.420 . S
O625 C610 1.202 . S
O626 U606 2.455 . S
O626 C623 1.301 . S
O627 U606 2.449 . S
O627 C623 1.282 . S
H628 C601 0.931 . S
H629 C603 0.929 . S
H630 C604 0.930 . S
H631 C605 0.931 . S
H632 C612 0.932 . S
H633 C613 0.930 . S
H634 C614 0.929 . S
H635 C616 0.930 . S
H636 C618 0.932 . S
H637 C619 0.929 . S
H638 C620 0.928 . S
H639 C622 0.932 . S
C640 C641 1.391 . S
C640 C642 1.394 . S
C640 H656 0.931 . S
C641 C640 1.391 . S
C641 C645 1.376 . S
C642 C640 1.394 . S
C642 C643 1.369 . S
C642 C646 1.531 . S
C643 C642 1.369 . S
C643 C644 1.410 . S
C643 C651 1.503 . S
C644 C643 1.410 . S
C644 C645 1.392 . S
C644 C647 1.511 . S
C645 C641 1.376 . S
C645 C644 1.392 . S
C645 H657 0.929 . S
C646 C642 1.531 . S
C646 H658 0.960 . S
C646 H659 0.962 . S
C646 H660 0.960 . S
C647 C644 1.511 . S
C647 H661 0.961 . S
C647 H662 0.961 . S
C647 H663 0.961 . S
C648 C649 1.370 . S
C648 C650 1.363 . S
C648 H664 0.931 . S
C649 C648 1.370 . S
C649 C653 1.408 . S
C650 C648 1.363 . S
C650 C651 1.370 . S
C650 C654 1.524 . S
C651 C643 1.503 . S
C651 C650 1.370 . S
C651 C652 1.403 . S
C652 C651 1.403 . S
C652 C653 1.404 . S
C652 C655 1.539 . S
C653 C649 1.408 . S
C653 C652 1.404 . S
C653 H665 0.930 . S
C654 C650 1.524 . S
C654 H666 0.956 . S
C654 H667 0.961 . S
C654 H668 0.961 . S
C655 C652 1.539 . S
C655 H669 0.958 . S
C655 H670 0.961 . S
C655 H671 0.960 . S
H656 C640 0.931 . S
H657 C645 0.929 . S
H658 C646 0.960 . S
H659 C646 0.962 . S
H660 C646 0.960 . S
H661 C647 0.961 . S
H662 C647 0.961 . S
H663 C647 0.961 . S
H664 C648 0.931 . S
H665 C653 0.930 . S
H666 C654 0.956 . S
H667 C654 0.961 . S
H668 C654 0.961 . S
H669 C655 0.958 . S
H670 C655 0.961 . S
H671 C655 0.960 . S
C672 C673 1.391 . S
C672 C674 1.394 . S
C672 H688 0.931 . S
C673 C672 1.391 . S
C673 C677 1.376 . S
C674 C672 1.394 . S
C674 C675 1.369 . S
C674 C678 1.531 . S
C675 C674 1.369 . S
C675 C676 1.410 . S
C675 C683 1.503 . S
C676 C675 1.410 . S
C676 C677 1.392 . S
C676 C679 1.511 . S
C677 C673 1.376 . S
C677 C676 1.392 . S
C677 H689 0.929 . S
C678 C674 1.531 . S
C678 H690 0.960 . S
C678 H691 0.962 . S
C678 H692 0.960 . S
C679 C676 1.511 . S
C679 H693 0.961 . S
C679 H694 0.961 . S
C679 H695 0.961 . S
C680 C681 1.370 . S
C680 C682 1.363 . S
C680 H696 0.931 . S
C681 C680 1.370 . S
C681 C685 1.408 . S
C682 C680 1.363 . S
C682 C683 1.370 . S
C682 C686 1.524 . S
C683 C675 1.503 . S
C683 C682 1.370 . S
C683 C684 1.403 . S
C684 C683 1.403 . S
C684 C685 1.404 . S
C684 C687 1.539 . S
C685 C681 1.408 . S
C685 C684 1.404 . S
C685 H697 0.930 . S
C686 C682 1.524 . S
C686 H698 0.956 . S
C686 H699 0.961 . S
C686 H700 0.961 . S
C687 C684 1.539 . S
C687 H701 0.958 . S
C687 H702 0.961 . S
C687 H703 0.960 . S
H688 C672 0.931 . S
H689 C677 0.929 . S
H690 C678 0.960 . S
H691 C678 0.962 . S
H692 C678 0.960 . S
H693 C679 0.961 . S
H694 C679 0.961 . S
H695 C679 0.961 . S
H696 C680 0.931 . S
H697 C685 0.930 . S
H698 C686 0.956 . S
H699 C686 0.961 . S
H700 C686 0.961 . S
H701 C687 0.958 . S
H702 C687 0.961 . S
H703 C687 0.960 . S
C704 C705 1.391 . S
C704 C706 1.394 . S
C704 H720 0.931 . S
C705 C704 1.391 . S
C705 C709 1.376 . S
C706 C704 1.394 . S
C706 C707 1.369 . S
C706 C710 1.531 . S
C707 C706 1.369 . S
C707 C708 1.410 . S
C707 C715 1.503 . S
C708 C707 1.410 . S
C708 C709 1.392 . S
C708 C711 1.511 . S
C709 C705 1.376 . S
C709 C708 1.392 . S
C709 H721 0.929 . S
C710 C706 1.531 . S
C710 H722 0.960 . S
C710 H723 0.962 . S
C710 H724 0.960 . S
C711 C708 1.511 . S
C711 H725 0.961 . S
C711 H726 0.961 . S
C711 H727 0.961 . S
C712 C713 1.370 . S
C712 C714 1.363 . S
C712 H728 0.931 . S
C713 C712 1.370 . S
C713 C717 1.408 . S
C714 C712 1.363 . S
C714 C715 1.370 . S
C714 C718 1.524 . S
C715 C707 1.503 . S
C715 C714 1.370 . S
C715 C716 1.403 . S
C716 C715 1.403 . S
C716 C717 1.404 . S
C716 C719 1.539 . S
C717 C713 1.408 . S
C717 C716 1.404 . S
C717 H729 0.930 . S
C718 C714 1.524 . S
C718 H730 0.956 . S
C718 H731 0.961 . S
C718 H732 0.961 . S
C719 C716 1.539 . S
C719 H733 0.958 . S
C719 H734 0.961 . S
C719 H735 0.960 . S
H720 C704 0.931 . S
H721 C709 0.929 . S
H722 C710 0.960 . S
H723 C710 0.962 . S
H724 C710 0.960 . S
H725 C711 0.961 . S
H726 C711 0.961 . S
H727 C711 0.961 . S
H728 C712 0.931 . S
H729 C717 0.930 . S
H730 C718 0.956 . S
H731 C718 0.961 . S
H732 C718 0.961 . S
H733 C719 0.958 . S
H734 C719 0.961 . S
H735 C719 0.960 . S
C736 C737 1.391 . S
C736 C738 1.394 . S
C736 H752 0.931 . S
C737 C736 1.391 . S
C737 C741 1.376 . S
C738 C736 1.394 . S
C738 C739 1.369 . S
C738 C742 1.531 . S
C739 C738 1.369 . S
C739 C740 1.410 . S
C739 C747 1.503 . S
C740 C739 1.410 . S
C740 C741 1.392 . S
C740 C743 1.511 . S
C741 C737 1.376 . S
C741 C740 1.392 . S
C741 H753 0.929 . S
C742 C738 1.531 . S
C742 H754 0.960 . S
C742 H755 0.962 . S
C742 H756 0.960 . S
C743 C740 1.511 . S
C743 H757 0.961 . S
C743 H758 0.961 . S
C743 H759 0.961 . S
C744 C745 1.370 . S
C744 C746 1.363 . S
C744 H760 0.931 . S
C745 C744 1.370 . S
C745 C749 1.408 . S
C746 C744 1.363 . S
C746 C747 1.370 . S
C746 C750 1.524 . S
C747 C739 1.503 . S
C747 C746 1.370 . S
C747 C748 1.403 . S
C748 C747 1.403 . S
C748 C749 1.404 . S
C748 C751 1.539 . S
C749 C745 1.408 . S
C749 C748 1.404 . S
C749 H761 0.930 . S
C750 C746 1.524 . S
C750 H762 0.956 . S
C750 H763 0.961 . S
C750 H764 0.961 . S
C751 C748 1.539 . S
C751 H765 0.958 . S
C751 H766 0.961 . S
C751 H767 0.960 . S
H752 C736 0.931 . S
H753 C741 0.929 . S
H754 C742 0.960 . S
H755 C742 0.962 . S
H756 C742 0.960 . S
H757 C743 0.961 . S
H758 C743 0.961 . S
H759 C743 0.961 . S
H760 C744 0.931 . S
H761 C749 0.930 . S
H762 C750 0.956 . S
H763 C750 0.961 . S
H764 C750 0.961 . S
H765 C751 0.958 . S
H766 C751 0.961 . S
H767 C751 0.960 . S
C768 C769 1.391 . S
C768 C770 1.394 . S
C768 H784 0.931 . S
C769 C768 1.391 . S
C769 C773 1.376 . S
C770 C768 1.394 . S
C770 C771 1.369 . S
C770 C774 1.531 . S
C771 C770 1.369 . S
C771 C772 1.410 . S
C771 C779 1.503 . S
C772 C771 1.410 . S
C772 C773 1.392 . S
C772 C775 1.511 . S
C773 C769 1.376 . S
C773 C772 1.392 . S
C773 H785 0.929 . S
C774 C770 1.531 . S
C774 H786 0.960 . S
C774 H787 0.962 . S
C774 H788 0.960 . S
C775 C772 1.511 . S
C775 H789 0.961 . S
C775 H790 0.961 . S
C775 H791 0.961 . S
C776 C777 1.370 . S
C776 C778 1.363 . S
C776 H792 0.931 . S
C777 C776 1.370 . S
C777 C781 1.408 . S
C778 C776 1.363 . S
C778 C779 1.370 . S
C778 C782 1.524 . S
C779 C771 1.503 . S
C779 C778 1.370 . S
C779 C780 1.403 . S
C780 C779 1.403 . S
C780 C781 1.404 . S
C780 C783 1.539 . S
C781 C777 1.408 . S
C781 C780 1.404 . S
C781 H793 0.930 . S
C782 C778 1.524 . S
C782 H794 0.956 . S
C782 H795 0.961 . S
C782 H796 0.961 . S
C783 C780 1.539 . S
C783 H797 0.958 . S
C783 H798 0.961 . S
C783 H799 0.960 . S
H784 C768 0.931 . S
H785 C773 0.929 . S
H786 C774 0.960 . S
H787 C774 0.962 . S
H788 C774 0.960 . S
H789 C775 0.961 . S
H790 C775 0.961 . S
H791 C775 0.961 . S
H792 C776 0.931 . S
H793 C781 0.930 . S
H794 C782 0.956 . S
H795 C782 0.961 . S
H796 C782 0.961 . S
H797 C783 0.958 . S
H798 C783 0.961 . S
H799 C783 0.960 . S
C800 C801 1.391 . S
C800 C802 1.394 . S
C800 H816 0.931 . S
C801 C800 1.391 . S
C801 C805 1.376 . S
C802 C800 1.394 . S
C802 C803 1.369 . S
C802 C806 1.531 . S
C803 C802 1.369 . S
C803 C804 1.410 . S
C803 C811 1.503 . S
C804 C803 1.410 . S
C804 C805 1.392 . S
C804 C807 1.511 . S
C805 C801 1.376 . S
C805 C804 1.392 . S
C805 H817 0.929 . S
C806 C802 1.531 . S
C806 H818 0.960 . S
C806 H819 0.962 . S
C806 H820 0.960 . S
C807 C804 1.511 . S
C807 H821 0.961 . S
C807 H822 0.961 . S
C807 H823 0.961 . S
C808 C809 1.370 . S
C808 C810 1.363 . S
C808 H824 0.931 . S
C809 C808 1.370 . S
C809 C813 1.408 . S
C810 C808 1.363 . S
C810 C811 1.370 . S
C810 C814 1.524 . S
C811 C803 1.503 . S
C811 C810 1.370 . S
C811 C812 1.403 . S
C812 C811 1.403 . S
C812 C813 1.404 . S
C812 C815 1.539 . S
C813 C809 1.408 . S
C813 C812 1.404 . S
C813 H825 0.930 . S
C814 C810 1.524 . S
C814 H826 0.956 . S
C814 H827 0.961 . S
C814 H828 0.961 . S
C815 C812 1.539 . S
C815 H829 0.958 . S
C815 H830 0.961 . S
C815 H831 0.960 . S
H816 C800 0.931 . S
H817 C805 0.929 . S
H818 C806 0.960 . S
H819 C806 0.962 . S
H820 C806 0.960 . S
H821 C807 0.961 . S
H822 C807 0.961 . S
H823 C807 0.961 . S
H824 C808 0.931 . S
H825 C813 0.930 . S
H826 C814 0.956 . S
H827 C814 0.961 . S
H828 C814 0.961 . S
H829 C815 0.958 . S
H830 C815 0.961 . S
H831 C815 0.960 . S
C832 C833 1.391 . S
C832 C834 1.394 . S
C832 H848 0.931 . S
C833 C832 1.391 . S
C833 C837 1.376 . S
C834 C832 1.394 . S
C834 C835 1.369 . S
C834 C838 1.531 . S
C835 C834 1.369 . S
C835 C836 1.410 . S
C835 C843 1.503 . S
C836 C835 1.410 . S
C836 C837 1.392 . S
C836 C839 1.511 . S
C837 C833 1.376 . S
C837 C836 1.392 . S
C837 H849 0.929 . S
C838 C834 1.531 . S
C838 H850 0.960 . S
C838 H851 0.962 . S
C838 H852 0.960 . S
C839 C836 1.511 . S
C839 H853 0.961 . S
C839 H854 0.961 . S
C839 H855 0.961 . S
C840 C841 1.370 . S
C840 C842 1.363 . S
C840 H856 0.931 . S
C841 C840 1.370 . S
C841 C845 1.408 . S
C842 C840 1.363 . S
C842 C843 1.370 . S
C842 C846 1.524 . S
C843 C835 1.503 . S
C843 C842 1.370 . S
C843 C844 1.403 . S
C844 C843 1.403 . S
C844 C845 1.404 . S
C844 C847 1.539 . S
C845 C841 1.408 . S
C845 C844 1.404 . S
C845 H857 0.930 . S
C846 C842 1.524 . S
C846 H858 0.956 . S
C846 H859 0.961 . S
C846 H860 0.961 . S
C847 C844 1.539 . S
C847 H861 0.958 . S
C847 H862 0.961 . S
C847 H863 0.960 . S
H848 C832 0.931 . S
H849 C837 0.929 . S
H850 C838 0.960 . S
H851 C838 0.962 . S
H852 C838 0.960 . S
H853 C839 0.961 . S
H854 C839 0.961 . S
H855 C839 0.961 . S
H856 C840 0.931 . S
H857 C845 0.930 . S
H858 C846 0.956 . S
H859 C846 0.961 . S
H860 C846 0.961 . S
H861 C847 0.958 . S
H862 C847 0.961 . S
H863 C847 0.960 . S
C864 C865 1.391 . S
C864 C866 1.394 . S
C864 H880 0.931 . S
C865 C864 1.391 . S
C865 C869 1.376 . S
C866 C864 1.394 . S
C866 C867 1.369 . S
C866 C870 1.531 . S
C867 C866 1.369 . S
C867 C868 1.410 . S
C867 C875 1.503 . S
C868 C867 1.410 . S
C868 C869 1.392 . S
C868 C871 1.511 . S
C869 C865 1.376 . S
C869 C868 1.392 . S
C869 H881 0.929 . S
C870 C866 1.531 . S
C870 H882 0.960 . S
C870 H883 0.962 . S
C870 H884 0.960 . S
C871 C868 1.511 . S
C871 H885 0.961 . S
C871 H886 0.961 . S
C871 H887 0.961 . S
C872 C873 1.370 . S
C872 C874 1.363 . S
C872 H888 0.931 . S
C873 C872 1.370 . S
C873 C877 1.408 . S
C874 C872 1.363 . S
C874 C875 1.370 . S
C874 C878 1.524 . S
C875 C867 1.503 . S
C875 C874 1.370 . S
C875 C876 1.403 . S
C876 C875 1.403 . S
C876 C877 1.404 . S
C876 C879 1.539 . S
C877 C873 1.408 . S
C877 C876 1.404 . S
C877 H889 0.930 . S
C878 C874 1.524 . S
C878 H890 0.956 . S
C878 H891 0.961 . S
C878 H892 0.961 . S
C879 C876 1.539 . S
C879 H893 0.958 . S
C879 H894 0.961 . S
C879 H895 0.960 . S
H880 C864 0.931 . S
H881 C869 0.929 . S
H882 C870 0.960 . S
H883 C870 0.962 . S
H884 C870 0.960 . S
H885 C871 0.961 . S
H886 C871 0.961 . S
H887 C871 0.961 . S
H888 C872 0.931 . S
H889 C877 0.930 . S
H890 C878 0.956 . S
H891 C878 0.961 . S
H892 C878 0.961 . S
H893 C879 0.958 . S
H894 C879 0.961 . S
H895 C879 0.960 . S
C896 C897 1.391 . S
C896 C898 1.394 . S
C896 H912 0.931 . S
C897 C896 1.391 . S
C897 C901 1.376 . S
C898 C896 1.394 . S
C898 C899 1.369 . S
C898 C902 1.531 . S
C899 C898 1.369 . S
C899 C900 1.410 . S
C899 C907 1.503 1_554 S
C900 C899 1.410 . S
C900 C901 1.392 . S
C900 C903 1.511 1_554 S
C901 C897 1.376 . S
C901 C900 1.392 . S
C901 H913 0.929 . S
C902 C898 1.531 . S
C902 H914 0.960 . S
C902 H915 0.962 . S
C902 H916 0.960 . S
C903 C900 1.511 1_556 S
C903 H917 0.961 . S
C903 H918 0.961 . S
C903 H919 0.961 . S
C904 C905 1.370 . S
C904 C906 1.363 . S
C904 H920 0.931 . S
C905 C904 1.370 . S
C905 C909 1.376 1_556 S
C906 C904 1.363 . S
C906 C907 1.370 . S
C906 C910 1.524 . S
C907 C899 1.503 1_556 S
C907 C906 1.370 . S
C907 C908 1.403 1_556 S
C908 C907 1.403 1_554 S
C908 C909 1.419 . S
C908 C911 1.539 . S
C909 C905 1.376 1_554 S
C909 C908 1.419 . S
C909 H921 0.947 . S
C910 C906 1.524 . S
C910 H922 0.956 . S
C910 H923 0.961 . S
C910 H924 0.961 . S
C911 C908 1.539 . S
C911 H925 0.958 . S
C911 H926 0.961 . S
C911 H927 0.960 . S
H912 C896 0.931 . S
H913 C901 0.929 . S
H914 C902 0.960 . S
H915 C902 0.962 . S
H916 C902 0.960 . S
H917 C903 0.961 . S
H918 C903 0.961 . S
H919 C903 0.961 . S
H920 C904 0.931 . S
H921 C909 0.947 . S
H922 C910 0.956 . S
H923 C910 0.961 . S
H924 C910 0.961 . S
H925 C911 0.958 . S
H926 C911 0.961 . S
H927 C911 0.960 . S
C928 C929 1.391 . S
C928 C930 1.394 . S
C928 H944 0.931 . S
C929 C928 1.391 . S
C929 C933 1.376 . S
C930 C928 1.394 . S
C930 C931 1.369 . S
C930 C934 1.531 . S
C931 C930 1.369 . S
C931 C932 1.410 . S
C931 C939 1.503 . S
C932 C931 1.410 . S
C932 C933 1.392 . S
C932 C935 1.511 . S
C933 C929 1.376 . S
C933 C932 1.392 . S
C933 H945 0.929 . S
C934 C930 1.531 . S
C934 H946 0.960 . S
C934 H947 0.962 . S
C934 H948 0.960 . S
C935 C932 1.511 . S
C935 H949 0.961 . S
C935 H950 0.961 . S
C935 H951 0.961 . S
C936 C937 1.370 . S
C936 C938 1.363 . S
C936 H952 0.931 . S
C937 C936 1.370 . S
C937 C941 1.408 . S
C938 C936 1.363 . S
C938 C939 1.370 . S
C938 C942 1.524 . S
C939 C931 1.503 . S
C939 C938 1.370 . S
C939 C940 1.403 . S
C940 C939 1.403 . S
C940 C941 1.404 . S
C940 C943 1.539 . S
C941 C937 1.408 . S
C941 C940 1.404 . S
C941 H953 0.930 . S
C942 C938 1.524 . S
C942 H954 0.956 . S
C942 H955 0.961 . S
C942 H956 0.961 . S
C943 C940 1.539 . S
C943 H957 0.958 . S
C943 H958 0.961 . S
C943 H959 0.960 . S
H944 C928 0.931 . S
H945 C933 0.929 . S
H946 C934 0.960 . S
H947 C934 0.962 . S
H948 C934 0.960 . S
H949 C935 0.961 . S
H950 C935 0.961 . S
H951 C935 0.961 . S
H952 C936 0.931 . S
H953 C941 0.930 . S
H954 C942 0.956 . S
H955 C942 0.961 . S
H956 C942 0.961 . S
H957 C943 0.958 . S
H958 C943 0.961 . S
H959 C943 0.960 . S
C960 C961 1.391 . S
C960 C962 1.394 1_556 S
C960 H976 0.920 1_556 S
C961 C960 1.391 . S
C961 C965 1.376 . S
C962 C960 1.394 1_554 S
C962 C963 1.367 . S
C962 C966 1.531 . S
C963 C962 1.367 . S
C963 C964 1.413 1_554 S
C963 C971 1.502 . S
C964 C963 1.413 1_556 S
C964 C965 1.392 . S
C964 C967 1.511 . S
C965 C961 1.376 . S
C965 C964 1.392 . S
C965 H977 0.929 . S
C966 C962 1.531 . S
C966 H978 0.960 . S
C966 H979 0.962 . S
C966 H980 0.960 . S
C967 C964 1.511 . S
C967 H981 0.961 . S
C967 H982 0.961 . S
C967 H983 0.961 . S
C968 C969 1.370 . S
C968 C970 1.363 1_554 S
C968 H984 0.931 1_554 S
C969 C968 1.370 . S
C969 C973 1.408 . S
C970 C968 1.363 1_556 S
C970 C971 1.370 1_556 S
C970 C974 1.524 . S
C971 C963 1.502 . S
C971 C970 1.370 1_554 S
C971 C972 1.403 . S
C972 C971 1.403 . S
C972 C973 1.404 . S
C972 C975 1.539 . S
C973 C969 1.408 . S
C973 C972 1.404 . S
C973 H985 0.930 . S
C974 C970 1.524 . S
C974 H986 0.956 . S
C974 H987 0.961 . S
C974 H988 0.961 . S
C975 C972 1.539 . S
C975 H989 0.958 . S
C975 H990 0.961 . S
C975 H991 0.960 . S
H976 C960 0.920 1_554 S
H977 C965 0.929 . S
H978 C966 0.960 . S
H979 C966 0.962 . S
H980 C966 0.960 . S
H981 C967 0.961 . S
H982 C967 0.961 . S
H983 C967 0.961 . S
H984 C968 0.931 1_556 S
H985 C973 0.930 . S
H986 C974 0.956 . S
H987 C974 0.961 . S
H988 C974 0.961 . S
H989 C975 0.958 . S
H990 C975 0.961 . S
H991 C975 0.960 . S
C992 C993 1.391 . S
C992 C994 1.394 . S
C992 H1008 0.931 . S
C993 C992 1.391 . S
C993 C997 1.376 . S
C994 C992 1.394 . S
C994 C995 1.369 . S
C994 C998 1.531 . S
C995 C994 1.369 . S
C995 C996 1.410 . S
C995 C1003 1.503 . S
C996 C995 1.410 . S
C996 C997 1.392 . S
C996 C999 1.511 . S
C997 C993 1.376 . S
C997 C996 1.392 . S
C997 H1009 0.929 . S
C998 C994 1.531 . S
C998 H1010 0.960 . S
C998 H1011 0.962 . S
C998 H1012 0.960 . S
C999 C996 1.511 . S
C999 H1013 0.961 . S
C999 H1014 0.961 . S
C999 H1015 0.961 . S
C1000 C1001 1.370 . S
C1000 C1002 1.363 . S
C1000 H1016 0.931 . S
C1001 C1000 1.370 . S
C1001 C1005 1.408 . S
C1002 C1000 1.363 . S
C1002 C1003 1.370 . S
C1002 C1006 1.524 . S
C1003 C995 1.503 . S
C1003 C1002 1.370 . S
C1003 C1004 1.403 . S
C1004 C1003 1.403 . S
C1004 C1005 1.404 . S
C1004 C1007 1.539 . S
C1005 C1001 1.408 . S
C1005 C1004 1.404 . S
C1005 H1017 0.930 . S
C1006 C1002 1.524 . S
C1006 H1018 0.956 . S
C1006 H1019 0.961 . S
C1006 H1020 0.961 . S
C1007 C1004 1.539 . S
C1007 H1021 0.958 . S
C1007 H1022 0.961 . S
C1007 H1023 0.960 . S
H1008 C992 0.931 . S
H1009 C997 0.929 . S
H1010 C998 0.960 . S
H1011 C998 0.962 . S
H1012 C998 0.960 . S
H1013 C999 0.961 . S
H1014 C999 0.961 . S
H1015 C999 0.961 . S
H1016 C1000 0.931 . S
H1017 C1005 0.930 . S
H1018 C1006 0.956 . S
H1019 C1006 0.961 . S
H1020 C1006 0.961 . S
H1021 C1007 0.958 . S
H1022 C1007 0.961 . S
H1023 C1007 0.960 . S
C1024 C1025 1.391 . S
C1024 C1026 1.394 1_554 S
C1024 H1040 0.931 . S
C1025 C1024 1.391 . S
C1025 C1029 1.376 . S
C1026 C1024 1.394 1_556 S
C1026 C1027 1.371 . S
C1026 C1030 1.531 . S
C1027 C1026 1.371 . S
C1027 C1028 1.402 1_556 S
C1027 C1035 1.508 . S
C1028 C1027 1.402 1_554 S
C1028 C1029 1.392 . S
C1028 C1031 1.511 . S
C1029 C1025 1.376 . S
C1029 C1028 1.392 . S
C1029 H1041 0.929 . S
C1030 C1026 1.531 . S
C1030 H1042 0.960 . S
C1030 H1043 0.962 . S
C1030 H1044 0.960 . S
C1031 C1028 1.511 . S
C1031 H1045 0.961 . S
C1031 H1046 0.961 . S
C1031 H1047 0.961 . S
C1032 C1033 1.381 . S
C1032 C1034 1.360 1_556 S
C1032 H1048 0.924 1_556 S
C1033 C1032 1.381 . S
C1033 C1037 1.408 . S
C1034 C1032 1.360 1_554 S
C1034 C1035 1.370 1_554 S
C1034 C1038 1.524 . S
C1035 C1027 1.508 . S
C1035 C1034 1.370 1_556 S
C1035 C1036 1.403 . S
C1036 C1035 1.403 . S
C1036 C1037 1.404 . S
C1036 C1039 1.539 . S
C1037 C1033 1.408 . S
C1037 C1036 1.404 . S
C1037 H1049 0.930 . S
C1038 C1034 1.524 . S
C1038 H1050 0.956 . S
C1038 H1051 0.961 . S
C1038 H1052 0.961 . S
C1039 C1036 1.539 . S
C1039 H1053 0.958 . S
C1039 H1054 0.961 . S
C1039 H1055 0.960 . S
H1040 C1024 0.931 . S
H1041 C1029 0.929 . S
H1042 C1030 0.960 . S
H1043 C1030 0.962 . S
H1044 C1030 0.960 . S
H1045 C1031 0.961 . S
H1046 C1031 0.961 . S
H1047 C1031 0.961 . S
H1048 C1032 0.924 1_554 S
H1049 C1037 0.930 . S
H1050 C1038 0.956 . S
H1051 C1038 0.961 . S
H1052 C1038 0.961 . S
H1053 C1039 0.958 . S
H1054 C1039 0.961 . S
H1055 C1039 0.960 . S
C1056 C1057 1.391 . S
C1056 C1058 1.394 . S
C1056 H1072 0.931 . S
C1057 C1056 1.391 . S
C1057 C1061 1.376 . S
C1058 C1056 1.394 . S
C1058 C1059 1.369 . S
C1058 C1062 1.531 . S
C1059 C1058 1.369 . S
C1059 C1060 1.410 . S
C1059 C1067 1.503 . S
C1060 C1059 1.410 . S
C1060 C1061 1.392 . S
C1060 C1063 1.511 . S
C1061 C1057 1.376 . S
C1061 C1060 1.392 . S
C1061 H1073 0.929 . S
C1062 C1058 1.531 . S
C1062 H1074 0.960 . S
C1062 H1075 0.962 . S
C1062 H1076 0.960 . S
C1063 C1060 1.511 . S
C1063 H1077 0.961 . S
C1063 H1078 0.961 . S
C1063 H1079 0.961 . S
C1064 C1065 1.370 . S
C1064 C1066 1.363 . S
C1064 H1080 0.931 . S
C1065 C1064 1.370 . S
C1065 C1069 1.408 . S
C1066 C1064 1.363 . S
C1066 C1067 1.370 . S
C1066 C1070 1.524 . S
C1067 C1059 1.503 . S
C1067 C1066 1.370 . S
C1067 C1068 1.403 . S
C1068 C1067 1.403 . S
C1068 C1069 1.404 . S
C1068 C1071 1.539 . S
C1069 C1065 1.408 . S
C1069 C1068 1.404 . S
C1069 H1081 0.930 . S
C1070 C1066 1.524 . S
C1070 H1082 0.956 . S
C1070 H1083 0.961 . S
C1070 H1084 0.961 . S
C1071 C1068 1.539 . S
C1071 H1085 0.958 . S
C1071 H1086 0.961 . S
C1071 H1087 0.960 . S
H1072 C1056 0.931 . S
H1073 C1061 0.929 . S
H1074 C1062 0.960 . S
H1075 C1062 0.962 . S
H1076 C1062 0.960 . S
H1077 C1063 0.961 . S
H1078 C1063 0.961 . S
H1079 C1063 0.961 . S
H1080 C1064 0.931 . S
H1081 C1069 0.930 . S
H1082 C1070 0.956 . S
H1083 C1070 0.961 . S
H1084 C1070 0.961 . S
H1085 C1071 0.958 . S
H1086 C1071 0.961 . S
H1087 C1071 0.960 . S
C1088 C1089 1.391 . S
C1088 C1090 1.394 . S
C1088 H1104 0.931 . S
C1089 C1088 1.391 . S
C1089 C1093 1.376 . S
C1090 C1088 1.394 . S
C1090 C1091 1.369 . S
C1090 C1094 1.531 . S
C1091 C1090 1.369 . S
C1091 C1092 1.411 . S
C1091 C1099 1.503 1_554 S
C1092 C1091 1.411 . S
C1092 C1093 1.393 . S
C1092 C1095 1.509 1_554 S
C1093 C1089 1.376 . S
C1093 C1092 1.393 . S
C1093 H1105 0.929 . S
C1094 C1090 1.531 . S
C1094 H1106 0.960 . S
C1094 H1107 0.962 . S
C1094 H1108 0.960 . S
C1095 C1092 1.509 1_556 S
C1095 H1109 0.961 . S
C1095 H1110 0.961 . S
C1095 H1111 0.961 . S
C1096 C1097 1.370 . S
C1096 C1098 1.363 . S
C1096 H1112 0.931 . S
C1097 C1096 1.370 . S
C1097 C1101 1.412 . S
C1098 C1096 1.363 . S
C1098 C1099 1.370 . S
C1098 C1102 1.524 . S
C1099 C1091 1.503 1_556 S
C1099 C1098 1.370 . S
C1099 C1100 1.403 1_556 S
C1100 C1099 1.403 1_554 S
C1100 C1101 1.402 1_554 S
C1100 C1103 1.539 . S
C1101 C1097 1.412 . S
C1101 C1100 1.402 1_556 S
C1101 H1113 0.928 1_556 S
C1102 C1098 1.524 . S
C1102 H1114 0.956 . S
C1102 H1115 0.961 . S
C1102 H1116 0.961 . S
C1103 C1100 1.539 . S
C1103 H1117 0.958 . S
C1103 H1118 0.961 . S
C1103 H1119 0.960 . S
H1104 C1088 0.931 . S
H1105 C1093 0.929 . S
H1106 C1094 0.960 . S
H1107 C1094 0.962 . S
H1108 C1094 0.960 . S
H1109 C1095 0.961 . S
H1110 C1095 0.961 . S
H1111 C1095 0.961 . S
H1112 C1096 0.931 . S
H1113 C1101 0.928 1_554 S
H1114 C1102 0.956 . S
H1115 C1102 0.961 . S
H1116 C1102 0.961 . S
H1117 C1103 0.958 . S
H1118 C1103 0.961 . S
H1119 C1103 0.960 . S
C1120 C1121 1.391 . S
C1120 C1122 1.394 . S
C1120 H1136 0.931 . S
C1121 C1120 1.391 . S
C1121 C1125 1.376 . S
C1122 C1120 1.394 . S
C1122 C1123 1.369 . S
C1122 C1126 1.531 . S
C1123 C1122 1.369 . S
C1123 C1124 1.410 . S
C1123 C1131 1.503 . S
C1124 C1123 1.410 . S
C1124 C1125 1.392 . S
C1124 C1127 1.511 . S
C1125 C1121 1.376 . S
C1125 C1124 1.392 . S
C1125 H1137 0.929 . S
C1126 C1122 1.531 . S
C1126 H1138 0.960 . S
C1126 H1139 0.962 . S
C1126 H1140 0.960 . S
C1127 C1124 1.511 . S
C1127 H1141 0.961 . S
C1127 H1142 0.961 . S
C1127 H1143 0.961 . S
C1128 C1129 1.370 . S
C1128 C1130 1.363 . S
C1128 H1144 0.931 . S
C1129 C1128 1.370 . S
C1129 C1133 1.408 . S
C1130 C1128 1.363 . S
C1130 C1131 1.370 . S
C1130 C1134 1.524 . S
C1131 C1123 1.503 . S
C1131 C1130 1.370 . S
C1131 C1132 1.403 . S
C1132 C1131 1.403 . S
C1132 C1133 1.404 . S
C1132 C1135 1.539 . S
C1133 C1129 1.408 . S
C1133 C1132 1.404 . S
C1133 H1145 0.930 . S
C1134 C1130 1.524 . S
C1134 H1146 0.956 . S
C1134 H1147 0.961 . S
C1134 H1148 0.961 . S
C1135 C1132 1.539 . S
C1135 H1149 0.958 . S
C1135 H1150 0.961 . S
C1135 H1151 0.960 . S
H1136 C1120 0.931 . S
H1137 C1125 0.929 . S
H1138 C1126 0.960 . S
H1139 C1126 0.962 . S
H1140 C1126 0.960 . S
H1141 C1127 0.961 . S
H1142 C1127 0.961 . S
H1143 C1127 0.961 . S
H1144 C1128 0.931 . S
H1145 C1133 0.930 . S
H1146 C1134 0.956 . S
H1147 C1134 0.961 . S
H1148 C1134 0.961 . S
H1149 C1135 0.958 . S
H1150 C1135 0.961 . S
H1151 C1135 0.960 . S
C1152 C1153 1.391 . S
C1152 C1154 1.394 . S
C1152 H1168 0.931 . S
C1153 C1152 1.391 . S
C1153 C1157 1.376 . S
C1154 C1152 1.394 . S
C1154 C1155 1.369 1_556 S
C1154 C1158 1.531 1_655 S
C1155 C1154 1.369 1_554 S
C1155 C1156 1.407 1_554 S
C1155 C1163 1.503 1_655 S
C1156 C1155 1.407 1_556 S
C1156 C1157 1.407 . S
C1156 C1159 1.502 1_556 S
C1157 C1153 1.376 . S
C1157 C1156 1.407 . S
C1157 H1169 0.929 . S
C1158 C1154 1.531 1_455 S
C1158 H1170 0.960 1_556 S
C1158 H1171 0.962 . S
C1158 H1172 0.960 1_556 S
C1159 C1156 1.502 1_554 S
C1159 H1173 0.961 1_554 S
C1159 H1174 0.961 . S
C1159 H1175 0.961 . S
C1160 C1161 1.370 1_556 S
C1160 C1162 1.363 . S
C1160 H1176 0.931 . S
C1161 C1160 1.370 1_554 S
C1161 C1165 1.408 . S
C1162 C1160 1.363 . S
C1162 C1163 1.370 1_556 S
C1162 C1166 1.524 . S
C1163 C1155 1.503 1_455 S
C1163 C1162 1.370 1_554 S
C1163 C1164 1.403 . S
C1164 C1163 1.403 . S
C1164 C1165 1.404 . S
C1164 C1167 1.539 . S
C1165 C1161 1.408 . S
C1165 C1164 1.404 . S
C1165 H1177 0.930 . S
C1166 C1162 1.524 . S
C1166 H1178 0.956 . S
C1166 H1179 0.961 1_455 S
C1166 H1180 0.961 . S
C1167 C1164 1.539 . S
C1167 H1181 0.958 . S
C1167 H1182 0.961 . S
C1167 H1183 0.960 1_455 S
H1168 C1152 0.931 . S
H1169 C1157 0.929 . S
H1170 C1158 0.960 1_554 S
H1171 C1158 0.962 . S
H1172 C1158 0.960 1_554 S
H1173 C1159 0.961 1_556 S
H1174 C1159 0.961 . S
H1175 C1159 0.961 . S
H1176 C1160 0.931 . S
H1177 C1165 0.930 . S
H1178 C1166 0.956 . S
H1179 C1166 0.961 1_655 S
H1180 C1166 0.961 . S
H1181 C1167 0.958 . S
H1182 C1167 0.961 . S
H1183 C1167 0.960 1_655 S
C1184 C1185 1.391 . S
C1184 C1186 1.394 . S
C1184 H1200 0.931 . S
C1185 C1184 1.391 . S
C1185 C1189 1.376 . S
C1186 C1184 1.394 . S
C1186 C1187 1.369 . S
C1186 C1190 1.531 1_545 S
C1187 C1186 1.369 . S
C1187 C1188 1.410 . S
C1187 C1195 1.503 1_445 S
C1188 C1187 1.410 . S
C1188 C1189 1.392 . S
C1188 C1191 1.511 1_455 S
C1189 C1185 1.376 . S
C1189 C1188 1.392 . S
C1189 H1201 0.929 . S
C1190 C1186 1.531 1_565 S
C1190 H1202 0.960 . S
C1190 H1203 0.962 . S
C1190 H1204 0.960 . S
C1191 C1188 1.511 1_655 S
C1191 H1205 0.961 . S
C1191 H1206 0.961 . S
C1191 H1207 0.961 . S
C1192 C1193 1.370 . S
C1192 C1194 1.363 . S
C1192 H1208 0.931 . S
C1193 C1192 1.370 . S
C1193 C1197 1.408 . S
C1194 C1192 1.363 . S
C1194 C1195 1.370 . S
C1194 C1198 1.524 1_655 S
C1195 C1187 1.503 1_665 S
C1195 C1194 1.370 . S
C1195 C1196 1.403 . S
C1196 C1195 1.403 . S
C1196 C1197 1.404 . S
C1196 C1199 1.539 1_565 S
C1197 C1193 1.408 . S
C1197 C1196 1.404 . S
C1197 H1209 0.930 . S
C1198 C1194 1.524 1_455 S
C1198 H1210 0.956 . S
C1198 H1211 0.961 . S
C1198 H1212 0.961 . S
C1199 C1196 1.539 1_545 S
C1199 H1213 0.950 1_545 S
C1199 H1214 0.961 . S
C1199 H1215 0.960 . S
H1200 C1184 0.931 . S
H1201 C1189 0.929 . S
H1202 C1190 0.960 . S
H1203 C1190 0.962 . S
H1204 C1190 0.960 . S
H1205 C1191 0.961 . S
H1206 C1191 0.961 . S
H1207 C1191 0.961 . S
H1208 C1192 0.931 . S
H1209 C1197 0.930 . S
H1210 C1198 0.956 . S
H1211 C1198 0.961 . S
H1212 C1198 0.961 . S
H1213 C1199 0.950 1_565 S
H1214 C1199 0.961 . S
H1215 C1199 0.960 . S
C1216 C1217 1.411 . S
C1216 C1218 1.387 1_554 S
C1216 H1232 0.918 1_554 S
C1217 C1216 1.411 . S
C1217 C1221 1.376 . S
C1218 C1216 1.387 1_556 S
C1218 C1219 1.369 1_556 S
C1218 C1222 1.531 . S
C1219 C1218 1.369 1_554 S
C1219 C1220 1.410 . S
C1219 C1227 1.503 1_544 S
C1220 C1219 1.410 . S
C1220 C1221 1.392 . S
C1220 C1223 1.511 1_545 S
C1221 C1217 1.376 . S
C1221 C1220 1.392 . S
C1221 H1233 0.929 . S
C1222 C1218 1.531 . S
C1222 H1234 0.960 . S
C1222 H1235 0.962 . S
C1222 H1236 0.960 . S
C1223 C1220 1.511 1_565 S
C1223 H1237 0.961 . S
C1223 H1238 0.961 . S
C1223 H1239 0.961 . S
C1224 C1225 1.370 . S
C1224 C1226 1.363 . S
C1224 H1240 0.931 . S
C1225 C1224 1.370 . S
C1225 C1229 1.408 . S
C1226 C1224 1.363 . S
C1226 C1227 1.370 . S
C1226 C1230 1.524 . S
C1227 C1219 1.503 1_566 S
C1227 C1226 1.370 . S
C1227 C1228 1.403 1_556 S
C1228 C1227 1.403 1_554 S
C1228 C1229 1.404 1_554 S
C1228 C1231 1.539 1_565 S
C1229 C1225 1.408 . S
C1229 C1228 1.404 1_556 S
C1229 H1241 0.930 1_556 S
C1230 C1226 1.524 . S
C1230 H1242 0.956 . S
C1230 H1243 0.961 . S
C1230 H1244 0.961 . S
C1231 C1228 1.539 1_545 S
C1231 H1245 0.958 . S
C1231 H1246 0.961 . S
C1231 H1247 0.960 . S
H1232 C1216 0.918 1_556 S
H1233 C1221 0.929 . S
H1234 C1222 0.960 . S
H1235 C1222 0.962 . S
H1236 C1222 0.960 . S
H1237 C1223 0.961 . S
H1238 C1223 0.961 . S
H1239 C1223 0.961 . S
H1240 C1224 0.931 . S
H1241 C1229 0.930 1_554 S
H1242 C1230 0.956 . S
H1243 C1230 0.961 . S
H1244 C1230 0.961 . S
H1245 C1231 0.958 . S
H1246 C1231 0.961 . S
H1247 C1231 0.960 . S
C1248 C1249 1.391 . S
C1248 C1250 1.394 . S
C1248 H1264 0.931 . S
C1249 C1248 1.391 . S
C1249 C1253 1.376 . S
C1250 C1248 1.394 . S
C1250 C1251 1.369 . S
C1250 C1254 1.531 . S
C1251 C1250 1.369 . S
C1251 C1252 1.410 . S
C1251 C1259 1.503 . S
C1252 C1251 1.410 . S
C1252 C1253 1.392 . S
C1252 C1255 1.511 . S
C1253 C1249 1.376 . S
C1253 C1252 1.392 . S
C1253 H1265 0.929 . S
C1254 C1250 1.531 . S
C1254 H1266 0.960 . S
C1254 H1267 0.962 . S
C1254 H1268 0.960 . S
C1255 C1252 1.511 . S
C1255 H1269 0.961 . S
C1255 H1270 0.961 . S
C1255 H1271 0.961 . S
C1256 C1257 1.370 . S
C1256 C1258 1.363 . S
C1256 H1272 0.931 . S
C1257 C1256 1.370 . S
C1257 C1261 1.408 . S
C1258 C1256 1.363 . S
C1258 C1259 1.370 . S
C1258 C1262 1.524 . S
C1259 C1251 1.503 . S
C1259 C1258 1.370 . S
C1259 C1260 1.403 . S
C1260 C1259 1.403 . S
C1260 C1261 1.404 . S
C1260 C1263 1.539 . S
C1261 C1257 1.408 . S
C1261 C1260 1.404 . S
C1261 H1273 0.930 . S
C1262 C1258 1.524 . S
C1262 H1274 0.956 . S
C1262 H1275 0.961 . S
C1262 H1276 0.961 . S
C1263 C1260 1.539 . S
C1263 H1277 0.958 . S
C1263 H1278 0.961 . S
C1263 H1279 0.960 . S
H1264 C1248 0.931 . S
H1265 C1253 0.929 . S
H1266 C1254 0.960 . S
H1267 C1254 0.962 . S
H1268 C1254 0.960 . S
H1269 C1255 0.961 . S
H1270 C1255 0.961 . S
H1271 C1255 0.961 . S
H1272 C1256 0.931 . S
H1273 C1261 0.930 . S
H1274 C1262 0.956 . S
H1275 C1262 0.961 . S
H1276 C1262 0.961 . S
H1277 C1263 0.958 . S
H1278 C1263 0.961 . S
H1279 C1263 0.960 . S
C1280 C1281 1.391 . S
C1280 C1282 1.394 . S
C1280 H1296 0.931 . S
C1281 C1280 1.391 . S
C1281 C1285 1.376 . S
C1282 C1280 1.394 . S
C1282 C1283 1.369 . S
C1282 C1286 1.531 1_455 S
C1283 C1282 1.369 . S
C1283 C1284 1.410 1_545 S
C1283 C1291 1.504 1_446 S
C1284 C1283 1.410 1_565 S
C1284 C1285 1.392 1_565 S
C1284 C1287 1.511 . S
C1285 C1281 1.376 . S
C1285 C1284 1.392 1_545 S
C1285 H1297 0.929 . S
C1286 C1282 1.531 1_655 S
C1286 H1298 0.960 . S
C1286 H1299 0.962 1_556 S
C1286 H1300 0.960 . S
C1287 C1284 1.511 . S
C1287 H1301 0.961 . S
C1287 H1302 0.961 1_556 S
C1287 H1303 0.961 . S
C1288 C1289 1.370 . S
C1288 C1290 1.363 . S
C1288 H1304 0.931 . S
C1289 C1288 1.370 . S
C1289 C1293 1.408 1_554 S
C1290 C1288 1.363 . S
C1290 C1291 1.368 . S
C1290 C1294 1.495 1_665 S
C1291 C1283 1.504 1_664 S
C1291 C1290 1.368 . S
C1291 C1292 1.404 1_554 S
C1292 C1291 1.404 1_556 S
C1292 C1293 1.404 . S
C1292 C1295 1.539 . S
C1293 C1289 1.408 1_556 S
C1293 C1292 1.404 . S
C1293 H1305 0.930 . S
C1294 C1290 1.495 1_445 S
C1294 H1306 0.946 1_455 S
C1294 H1307 1.005 1_545 S
C1294 H1308 0.934 1_445 S
C1295 C1292 1.539 . S
C1295 H1309 0.958 . S
C1295 H1310 0.961 . S
C1295 H1311 0.960 . S
H1296 C1280 0.931 . S
H1297 C1285 0.929 . S
H1298 C1286 0.960 . S
H1299 C1286 0.962 1_554 S
H1300 C1286 0.960 . S
H1301 C1287 0.961 . S
H1302 C1287 0.961 1_554 S
H1303 C1287 0.961 . S
H1304 C1288 0.931 . S
H1305 C1293 0.930 . S
H1306 C1294 0.946 1_655 S
H1307 C1294 1.005 1_565 S
H1308 C1294 0.934 1_665 S
H1309 C1295 0.958 . S
H1310 C1295 0.961 . S
H1311 C1295 0.960 . S
C1312 C1313 1.391 . S
C1312 C1314 1.394 . S
C1312 H1328 0.931 . S
C1313 C1312 1.391 . S
C1313 C1317 1.376 . S
C1314 C1312 1.394 . S
C1314 C1315 1.369 . S
C1314 C1318 1.531 . S
C1315 C1314 1.369 . S
C1315 C1316 1.410 . S
C1315 C1323 1.503 1_545 S
C1316 C1315 1.410 . S
C1316 C1317 1.392 . S
C1316 C1319 1.511 1_545 S
C1317 C1313 1.376 . S
C1317 C1316 1.392 . S
C1317 H1329 0.929 . S
C1318 C1314 1.531 . S
C1318 H1330 0.960 . S
C1318 H1331 0.962 . S
C1318 H1332 0.960 . S
C1319 C1316 1.511 1_565 S
C1319 H1333 0.961 . S
C1319 H1334 0.961 . S
C1319 H1335 0.961 . S
C1320 C1321 1.370 . S
C1320 C1322 1.363 . S
C1320 H1336 0.931 . S
C1321 C1320 1.370 . S
C1321 C1325 1.408 . S
C1322 C1320 1.363 . S
C1322 C1323 1.370 . S
C1322 C1326 1.524 1_565 S
C1323 C1315 1.503 1_565 S
C1323 C1322 1.370 . S
C1323 C1324 1.403 . S
C1324 C1323 1.403 . S
C1324 C1325 1.404 . S
C1324 C1327 1.539 . S
C1325 C1321 1.408 . S
C1325 C1324 1.404 . S
C1325 H1337 0.930 . S
C1326 C1322 1.524 1_545 S
C1326 H1338 0.956 . S
C1326 H1339 0.961 . S
C1326 H1340 0.979 . S
C1327 C1324 1.539 . S
C1327 H1341 0.958 . S
C1327 H1342 0.961 . S
C1327 H1343 0.960 . S
H1328 C1312 0.931 . S
H1329 C1317 0.929 . S
H1330 C1318 0.960 . S
H1331 C1318 0.962 . S
H1332 C1318 0.960 . S
H1333 C1319 0.961 . S
H1334 C1319 0.961 . S
H1335 C1319 0.961 . S
H1336 C1320 0.931 . S
H1337 C1325 0.930 . S
H1338 C1326 0.956 . S
H1339 C1326 0.961 . S
H1340 C1326 0.979 . S
H1341 C1327 0.958 . S
H1342 C1327 0.961 . S
H1343 C1327 0.960 . S
C1344 C1345 1.391 . S
C1344 C1346 1.394 . S
C1344 H1360 0.931 . S
C1345 C1344 1.391 . S
C1345 C1349 1.376 . S
C1346 C1344 1.394 . S
C1346 C1347 1.369 . S
C1346 C1350 1.531 . S
C1347 C1346 1.369 . S
C1347 C1348 1.410 1_554 S
C1347 C1355 1.488 1_554 S
C1348 C1347 1.410 1_556 S
C1348 C1349 1.392 1_556 S
C1348 C1351 1.511 . S
C1349 C1345 1.376 . S
C1349 C1348 1.392 1_554 S
C1349 H1361 0.929 1_554 S
C1350 C1346 1.531 . S
C1350 H1362 0.960 . S
C1350 H1363 0.962 . S
C1350 H1364 0.960 . S
C1351 C1348 1.511 . S
C1351 H1365 0.961 . S
C1351 H1366 0.961 . S
C1351 H1367 0.961 . S
C1352 C1353 1.370 . S
C1352 C1354 1.363 . S
C1352 H1368 0.931 . S
C1353 C1352 1.370 . S
C1353 C1357 1.408 1_556 S
C1354 C1352 1.363 . S
C1354 C1355 1.406 . S
C1354 C1358 1.524 . S
C1355 C1347 1.488 1_556 S
C1355 C1354 1.406 . S
C1355 C1356 1.383 1_556 S
C1356 C1355 1.383 1_554 S
C1356 C1357 1.404 . S
C1356 C1359 1.539 . S
C1357 C1353 1.408 1_554 S
C1357 C1356 1.404 . S
C1357 H1369 0.930 . S
C1358 C1354 1.524 . S
C1358 H1370 0.956 . S
C1358 H1371 0.961 . S
C1358 H1372 0.961 . S
C1359 C1356 1.539 . S
C1359 H1373 0.958 . S
C1359 H1374 0.961 . S
C1359 H1375 0.960 . S
H1360 C1344 0.931 . S
H1361 C1349 0.929 1_556 S
H1362 C1350 0.960 . S
H1363 C1350 0.962 . S
H1364 C1350 0.960 . S
H1365 C1351 0.961 . S
H1366 C1351 0.961 . S
H1367 C1351 0.961 . S
H1368 C1352 0.931 . S
H1369 C1357 0.930 . S
H1370 C1358 0.956 . S
H1371 C1358 0.961 . S
H1372 C1358 0.961 . S
H1373 C1359 0.958 . S
H1374 C1359 0.961 . S
H1375 C1359 0.960 . S
C1376 C1377 1.391 . S
C1376 C1378 1.394 . S
C1376 H1392 0.931 . S
C1377 C1376 1.391 . S
C1377 C1381 1.376 . S
C1378 C1376 1.394 . S
C1378 C1379 1.369 . S
C1378 C1382 1.531 . S
C1379 C1378 1.369 . S
C1379 C1380 1.410 1_655 S
C1379 C1387 1.503 1_655 S
C1380 C1379 1.410 1_455 S
C1380 C1381 1.392 1_455 S
C1380 C1383 1.511 . S
C1381 C1377 1.376 . S
C1381 C1380 1.392 1_655 S
C1381 H1393 0.929 . S
C1382 C1378 1.531 . S
C1382 H1394 0.960 . S
C1382 H1395 0.962 . S
C1382 H1396 0.960 . S
C1383 C1380 1.511 . S
C1383 H1397 0.961 . S
C1383 H1398 0.961 . S
C1383 H1399 0.961 . S
C1384 C1385 1.370 . S
C1384 C1386 1.363 . S
C1384 H1400 0.931 . S
C1385 C1384 1.370 . S
C1385 C1389 1.408 . S
C1386 C1384 1.363 . S
C1386 C1387 1.370 . S
C1386 C1390 1.524 . S
C1387 C1379 1.503 1_455 S
C1387 C1386 1.370 . S
C1387 C1388 1.403 . S
C1388 C1387 1.403 . S
C1388 C1389 1.404 . S
C1388 C1391 1.539 . S
C1389 C1385 1.408 . S
C1389 C1388 1.404 . S
C1389 H1401 0.930 . S
C1390 C1386 1.524 . S
C1390 H1402 0.956 1_455 S
C1390 H1403 0.961 . S
C1390 H1404 0.961 . S
C1391 C1388 1.539 . S
C1391 H1405 0.958 1_455 S
C1391 H1406 0.961 . S
C1391 H1407 0.960 . S
H1392 C1376 0.931 . S
H1393 C1381 0.929 . S
H1394 C1382 0.960 . S
H1395 C1382 0.962 . S
H1396 C1382 0.960 . S
H1397 C1383 0.961 . S
H1398 C1383 0.961 . S
H1399 C1383 0.961 . S
H1400 C1384 0.931 . S
H1401 C1389 0.930 . S
H1402 C1390 0.956 1_655 S
H1403 C1390 0.961 . S
H1404 C1390 0.961 . S
H1405 C1391 0.958 1_655 S
H1406 C1391 0.961 . S
H1407 C1391 0.960 . S
C641 C21 1.698 . S
C649 C301 1.721 . S
C673 C61 1.686 . S
C681 C181 1.731 . S
C705 C221 1.721 . S
C713 C101 1.727 . S
C737 C261 1.724 . S
C745 C141 1.725 . S
C769 C341 1.801 . S
C777 C621 1.797 . S
C801 C501 1.801 . S
C809 C381 1.797 . S
C833 C541 1.800 . S
C841 C421 1.798 . S
C865 C461 1.795 . S
C873 C581 1.798 . S
C897 C15 1.683 . S
C905 C175 1.698 . S
C929 C215 1.700 . S
C937 C55 1.703 . S
C961 C255 1.705 . S
C969 C95 1.699 . S
C993 C135 1.683 . S
C1001 C295 1.695 . S
C1025 C495 1.700 . S
C1033 C335 1.698 . S
C1057 C535 1.707 . S
C1065 C375 1.703 . S
C1089 C575 1.697 . S
C1097 C415 1.706 . S
C1121 C455 1.693 . S
C1129 C615 1.705 . S
C1153 C322 1.847 . S
C1161 C2 1.758 . S
C1185 C42 1.776 . S
C1193 C362 1.848 . S
C1217 C82 1.729 . S
C1225 C402 1.855 . S
C1249 C442 1.839 . S
C1257 C122 1.776 . S
C1281 C162 1.751 . S
C1289 C482 1.851 . S
C1313 C202 1.742 . S
C1321 C522 1.856 . S
C1345 C562 1.840 . S
C1353 C242 1.776 . S
C1377 C602 1.850 . S
C1385 C282 1.755 . S
