# Generated by pormake.
# Topology uod, (4)-cn, num edge types: 1
# Building blocks:
#     Node 0, Type 0, BuildingBlock: GALJAG_clean_sbu_0, # of connection points: 4
#     Node 1, Type 0, BuildingBlock: GALJAG_clean_sbu_0, # of connection points: 4
#     Node 2, Type 0, BuildingBlock: GALJAG_clean_sbu_0, # of connection points: 4
#     Node 3, Type 0, BuildingBlock: GALJAG_clean_sbu_0, # of connection points: 4
#     Node 4, Type 0, BuildingBlock: GALJAG_clean_sbu_0, # of connection points: 4
#     Node 5, Type 0, BuildingBlock: GALJAG_clean_sbu_0, # of connection points: 4
#     Node 6, Type 0, BuildingBlock: GALJAG_clean_sbu_0, # of connection points: 4
#     Node 7, Type 0, BuildingBlock: GALJAG_clean_sbu_0, # of connection points: 4
#     Node 8, Type 0, BuildingBlock: GALJAG_clean_sbu_0, # of connection points: 4
#     Node 9, Type 0, BuildingBlock: GALJAG_clean_sbu_0, # of connection points: 4
#     Node 10, Type 0, BuildingBlock: GALJAG_clean_sbu_0, # of connection points: 4
#     Node 11, Type 0, BuildingBlock: GALJAG_clean_sbu_0, # of connection points: 4
#     Node 12, Type 0, BuildingBlock: GALJAG_clean_sbu_0, # of connection points: 4
#     Node 13, Type 0, BuildingBlock: GALJAG_clean_sbu_0, # of connection points: 4
#     Node 14, Type 0, BuildingBlock: GALJAG_clean_sbu_0, # of connection points: 4
#     Node 15, Type 0, BuildingBlock: GALJAG_clean_sbu_0, # of connection points: 4
#     Node 16, Type 0, BuildingBlock: GALJAG_clean_sbu_0, # of connection points: 4
#     Node 17, Type 0, BuildingBlock: GALJAG_clean_sbu_0, # of connection points: 4
#     Node 18, Type 0, BuildingBlock: GALJAG_clean_sbu_0, # of connection points: 4
#     Node 19, Type 0, BuildingBlock: GALJAG_clean_sbu_0, # of connection points: 4
#     Node 20, Type 0, BuildingBlock: GALJAG_clean_sbu_0, # of connection points: 4
#     Node 21, Type 0, BuildingBlock: GALJAG_clean_sbu_0, # of connection points: 4
#     Node 22, Type 0, BuildingBlock: GALJAG_clean_sbu_0, # of connection points: 4
#     Node 23, Type 0, BuildingBlock: GALJAG_clean_sbu_0, # of connection points: 4
#     Node 24, Type 0, BuildingBlock: GALJAG_clean_sbu_0, # of connection points: 4
#     Node 25, Type 0, BuildingBlock: GALJAG_clean_sbu_0, # of connection points: 4
#     Node 26, Type 0, BuildingBlock: GALJAG_clean_sbu_0, # of connection points: 4
#     Node 27, Type 0, BuildingBlock: GALJAG_clean_sbu_0, # of connection points: 4
#     Node 28, Type 0, BuildingBlock: GALJAG_clean_sbu_0, # of connection points: 4
#     Node 29, Type 0, BuildingBlock: GALJAG_clean_sbu_0, # of connection points: 4
#     Node 30, Type 0, BuildingBlock: GALJAG_clean_sbu_0, # of connection points: 4
#     Node 31, Type 0, BuildingBlock: GALJAG_clean_sbu_0, # of connection points: 4
#     Edge 32, Type (0, 0), BuildingBlock: XUDNAN_clean_linker_2, # of connection points: 2
#     Edge 33, Type (0, 0), BuildingBlock: XUDNAN_clean_linker_2, # of connection points: 2
#     Edge 34, Type (0, 0), BuildingBlock: XUDNAN_clean_linker_2, # of connection points: 2
#     Edge 35, Type (0, 0), BuildingBlock: XUDNAN_clean_linker_2, # of connection points: 2
#     Edge 36, Type (0, 0), BuildingBlock: XUDNAN_clean_linker_2, # of connection points: 2
#     Edge 37, Type (0, 0), BuildingBlock: XUDNAN_clean_linker_2, # of connection points: 2
#     Edge 38, Type (0, 0), BuildingBlock: XUDNAN_clean_linker_2, # of connection points: 2
#     Edge 39, Type (0, 0), BuildingBlock: XUDNAN_clean_linker_2, # of connection points: 2
#     Edge 40, Type (0, 0), BuildingBlock: XUDNAN_clean_linker_2, # of connection points: 2
#     Edge 41, Type (0, 0), BuildingBlock: XUDNAN_clean_linker_2, # of connection points: 2
#     Edge 42, Type (0, 0), BuildingBlock: XUDNAN_clean_linker_2, # of connection points: 2
#     Edge 43, Type (0, 0), BuildingBlock: XUDNAN_clean_linker_2, # of connection points: 2
#     Edge 44, Type (0, 0), BuildingBlock: XUDNAN_clean_linker_2, # of connection points: 2
#     Edge 45, Type (0, 0), BuildingBlock: XUDNAN_clean_linker_2, # of connection points: 2
#     Edge 46, Type (0, 0), BuildingBlock: XUDNAN_clean_linker_2, # of connection points: 2
#     Edge 47, Type (0, 0), BuildingBlock: XUDNAN_clean_linker_2, # of connection points: 2
#     Edge 48, Type (0, 0), BuildingBlock: XUDNAN_clean_linker_2, # of connection points: 2
#     Edge 49, Type (0, 0), BuildingBlock: XUDNAN_clean_linker_2, # of connection points: 2
#     Edge 50, Type (0, 0), BuildingBlock: XUDNAN_clean_linker_2, # of connection points: 2
#     Edge 51, Type (0, 0), BuildingBlock: XUDNAN_clean_linker_2, # of connection points: 2
#     Edge 52, Type (0, 0), BuildingBlock: XUDNAN_clean_linker_2, # of connection points: 2
#     Edge 53, Type (0, 0), BuildingBlock: XUDNAN_clean_linker_2, # of connection points: 2
#     Edge 54, Type (0, 0), BuildingBlock: XUDNAN_clean_linker_2, # of connection points: 2
#     Edge 55, Type (0, 0), BuildingBlock: XUDNAN_clean_linker_2, # of connection points: 2
#     Edge 56, Type (0, 0), BuildingBlock: XUDNAN_clean_linker_2, # of connection points: 2
#     Edge 57, Type (0, 0), BuildingBlock: XUDNAN_clean_linker_2, # of connection points: 2
#     Edge 58, Type (0, 0), BuildingBlock: XUDNAN_clean_linker_2, # of connection points: 2
#     Edge 59, Type (0, 0), BuildingBlock: XUDNAN_clean_linker_2, # of connection points: 2
#     Edge 60, Type (0, 0), BuildingBlock: XUDNAN_clean_linker_2, # of connection points: 2
#     Edge 61, Type (0, 0), BuildingBlock: XUDNAN_clean_linker_2, # of connection points: 2
#     Edge 62, Type (0, 0), BuildingBlock: XUDNAN_clean_linker_2, # of connection points: 2
#     Edge 63, Type (0, 0), BuildingBlock: XUDNAN_clean_linker_2, # of connection points: 2
#     Edge 64, Type (0, 0), BuildingBlock: XUDNAN_clean_linker_2, # of connection points: 2
#     Edge 65, Type (0, 0), BuildingBlock: XUDNAN_clean_linker_2, # of connection points: 2
#     Edge 66, Type (0, 0), BuildingBlock: XUDNAN_clean_linker_2, # of connection points: 2
#     Edge 67, Type (0, 0), BuildingBlock: XUDNAN_clean_linker_2, # of connection points: 2
#     Edge 68, Type (0, 0), BuildingBlock: XUDNAN_clean_linker_2, # of connection points: 2
#     Edge 69, Type (0, 0), BuildingBlock: XUDNAN_clean_linker_2, # of connection points: 2
#     Edge 70, Type (0, 0), BuildingBlock: XUDNAN_clean_linker_2, # of connection points: 2
#     Edge 71, Type (0, 0), BuildingBlock: XUDNAN_clean_linker_2, # of connection points: 2
#     Edge 72, Type (0, 0), BuildingBlock: XUDNAN_clean_linker_2, # of connection points: 2
#     Edge 73, Type (0, 0), BuildingBlock: XUDNAN_clean_linker_2, # of connection points: 2
#     Edge 74, Type (0, 0), BuildingBlock: XUDNAN_clean_linker_2, # of connection points: 2
#     Edge 75, Type (0, 0), BuildingBlock: XUDNAN_clean_linker_2, # of connection points: 2
#     Edge 76, Type (0, 0), BuildingBlock: XUDNAN_clean_linker_2, # of connection points: 2
#     Edge 77, Type (0, 0), BuildingBlock: XUDNAN_clean_linker_2, # of connection points: 2
#     Edge 78, Type (0, 0), BuildingBlock: XUDNAN_clean_linker_2, # of connection points: 2
#     Edge 79, Type (0, 0), BuildingBlock: XUDNAN_clean_linker_2, # of connection points: 2
#     Edge 80, Type (0, 0), BuildingBlock: XUDNAN_clean_linker_2, # of connection points: 2
#     Edge 81, Type (0, 0), BuildingBlock: XUDNAN_clean_linker_2, # of connection points: 2
#     Edge 82, Type (0, 0), BuildingBlock: XUDNAN_clean_linker_2, # of connection points: 2
#     Edge 83, Type (0, 0), BuildingBlock: XUDNAN_clean_linker_2, # of connection points: 2
#     Edge 84, Type (0, 0), BuildingBlock: XUDNAN_clean_linker_2, # of connection points: 2
#     Edge 85, Type (0, 0), BuildingBlock: XUDNAN_clean_linker_2, # of connection points: 2
#     Edge 86, Type (0, 0), BuildingBlock: XUDNAN_clean_linker_2, # of connection points: 2
#     Edge 87, Type (0, 0), BuildingBlock: XUDNAN_clean_linker_2, # of connection points: 2
#     Edge 88, Type (0, 0), BuildingBlock: XUDNAN_clean_linker_2, # of connection points: 2
#     Edge 89, Type (0, 0), BuildingBlock: XUDNAN_clean_linker_2, # of connection points: 2
#     Edge 90, Type (0, 0), BuildingBlock: XUDNAN_clean_linker_2, # of connection points: 2
#     Edge 91, Type (0, 0), BuildingBlock: XUDNAN_clean_linker_2, # of connection points: 2
#     Edge 92, Type (0, 0), BuildingBlock: XUDNAN_clean_linker_2, # of connection points: 2
#     Edge 93, Type (0, 0), BuildingBlock: XUDNAN_clean_linker_2, # of connection points: 2
#     Edge 94, Type (0, 0), BuildingBlock: XUDNAN_clean_linker_2, # of connection points: 2
#     Edge 95, Type (0, 0), BuildingBlock: XUDNAN_clean_linker_2, # of connection points: 2
# Relax obj value: 0.120
# Max RMSD: 0.152
# Mean RMSD: 0.152
data_MOF--net-uod--node1-GALJAG_clean_sbu_0--edge1-XUDNAN_clean_linker_2
_symmetry_space_group_name_H-M    P1
_symmetry_Int_Tables_number       1
_symmetry_cell_setting            triclinic
loop_
_symmetry_equiv_pos_as_xyz
'x, y, z'
_cell_length_a     95.540883
_cell_length_b     27.925273
_cell_length_c     52.473788
_cell_angle_alpha  89.894359
_cell_angle_beta   89.975534
_cell_angle_gamma 89.993548
loop_
_atom_site_label
_atom_site_type_symbol
_atom_site_fract_x
_atom_site_fract_y
_atom_site_fract_z
_atom_type_partial_charge
In0 In 0.05368 0.37978 0.08175 0.0
O1 O 0.04563 0.38378 0.04046 0.0
O2 O 0.03101 0.37972 0.07142 0.0
C3 C 0.08074 0.37668 0.0956 0.0
C4 C 0.05077 0.47319 0.0874 0.0
C5 C 0.04709 0.29768 0.10437 0.0
O6 O 0.07718 0.36599 0.07287 0.0
O7 O 0.07078 0.38899 0.11001 0.0
O8 O 0.04462 0.33796 0.11457 0.0
O9 O 0.05257 0.29909 0.08232 0.0
C10 C 0.0329 0.38519 0.04775 0.0
O11 O 0.04652 0.44386 0.10426 0.0
O12 O 0.05691 0.45507 0.06834 0.0
In13 In 0.20821 0.83517 0.10774 0.0
O14 O 0.22346 0.78293 0.12717 0.0
O15 O 0.20537 0.75618 0.108 0.0
C16 C 0.2169 0.92272 0.12036 0.0
C17 C 0.21922 0.81748 0.06154 0.0
C18 C 0.18218 0.84163 0.12769 0.0
O19 O 0.21974 0.88642 0.13395 0.0
O20 O 0.20997 0.91431 0.10031 0.0
O21 O 0.18447 0.84797 0.10409 0.0
O22 O 0.19293 0.83169 0.14069 0.0
C23 C 0.21679 0.74685 0.11897 0.0
O24 O 0.20622 0.81298 0.06596 0.0
O25 O 0.22613 0.83622 0.07941 0.0
In26 In 0.0545 0.87575 0.17466 0.0
O27 O 0.04571 0.843 0.21176 0.0
O28 O 0.03147 0.86733 0.18328 0.0
C29 C 0.08284 0.87431 0.17524 0.0
C30 C 0.05044 0.8008 0.14446 0.0
C31 C 0.04922 0.96895 0.16762 0.0
O32 O 0.07577 0.8712 0.19566 0.0
O33 O 0.07561 0.87894 0.15532 0.0
O34 O 0.04859 0.93865 0.14981 0.0
O35 O 0.05244 0.95215 0.18926 0.0
C36 C 0.03309 0.84627 0.20438 0.0
O37 O 0.04881 0.84302 0.13617 0.0
O38 O 0.05447 0.79727 0.16726 0.0
In39 In 0.20947 0.36165 0.14417 0.0
O40 O 0.21013 0.43184 0.1665 0.0
O41 O 0.22344 0.3754 0.17869 0.0
C42 C 0.18114 0.36281 0.14018 0.0
C43 C 0.2244 0.41355 0.11069 0.0
C44 C 0.21542 0.26759 0.14545 0.0
O45 O 0.18746 0.36695 0.16124 0.0
O46 O 0.18909 0.35778 0.12118 0.0
O47 O 0.2152 0.29132 0.12496 0.0
O48 O 0.21256 0.29124 0.16524 0.0
C49 C 0.21993 0.41875 0.18107 0.0
O50 O 0.23007 0.38502 0.12619 0.0
O51 O 0.21123 0.41059 0.10989 0.0
In52 In 0.95486 0.60349 0.90376 0.0
O53 O 0.95497 0.58588 0.94652 0.0
O54 O 0.97443 0.5915 0.92651 0.0
C55 C 0.92939 0.61841 0.88309 0.0
C56 C 0.95993 0.51262 0.89339 0.0
C57 C 0.96675 0.6872 0.89328 0.0
O58 O 0.93126 0.62068 0.90705 0.0
O59 O 0.94021 0.60839 0.87033 0.0
O60 O 0.96747 0.65223 0.878 0.0
O61 O 0.95998 0.67995 0.91367 0.0
C62 C 0.9682 0.58024 0.94691 0.0
O63 O 0.95005 0.52593 0.90772 0.0
O64 O 0.96634 0.54569 0.88157 0.0
In65 In 0.81401 0.12165 0.91447 0.0
O66 O 0.81201 0.15077 0.95511 0.0
O67 O 0.79327 0.13642 0.93479 0.0
C68 C 0.84204 0.10712 0.91017 0.0
C69 C 0.8108 0.2032 0.88815 0.0
C70 C 0.8028 0.03711 0.9005 0.0
O71 O 0.83569 0.1042 0.93128 0.0
O72 O 0.83425 0.11667 0.89147 0.0
O73 O 0.80086 0.07559 0.88839 0.0
O74 O 0.81033 0.04109 0.92019 0.0
C75 C 0.79879 0.15341 0.95463 0.0
O76 O 0.80779 0.16294 0.87869 0.0
O77 O 0.81578 0.2019 0.91036 0.0
In78 In 0.968 0.1077 0.84139 0.0
O79 O 0.96618 0.14011 0.80141 0.0
O80 O 0.98641 0.1204 0.81478 0.0
C81 C 0.94149 0.10092 0.85989 0.0
C82 C 0.9765 0.18624 0.86551 0.0
C83 C 0.97759 0.01831 0.84756 0.0
O84 O 0.95227 0.10447 0.87356 0.0
O85 O 0.94391 0.10062 0.83614 0.0
O86 O 0.98194 0.05328 0.86053 0.0
O87 O 0.96862 0.02869 0.83069 0.0
C88 C 0.97929 0.14086 0.79767 0.0
O89 O 0.96891 0.18702 0.84591 0.0
O90 O 0.97953 0.14517 0.87405 0.0
In91 In 0.80383 0.62698 0.81959 0.0
O92 O 0.79583 0.61736 0.77876 0.0
O93 O 0.78106 0.61814 0.80951 0.0
C94 C 0.83172 0.63752 0.82441 0.0
C95 C 0.80267 0.53438 0.831 0.0
C96 C 0.79603 0.71259 0.83703 0.0
O97 O 0.82572 0.64128 0.80288 0.0
O98 O 0.82361 0.62919 0.8429 0.0
O99 O 0.79624 0.67604 0.85142 0.0
O100 O 0.79965 0.70558 0.81414 0.0
C101 C 0.78316 0.61283 0.78587 0.0
O102 O 0.79886 0.56575 0.84709 0.0
O103 O 0.80733 0.55025 0.81012 0.0
In104 In 0.05834 0.89104 0.57553 0.0
O105 O 0.04914 0.89703 0.53513 0.0
O106 O 0.03546 0.88264 0.56639 0.0
C107 C 0.08659 0.88818 0.57648 0.0
C108 C 0.05314 0.98279 0.5851 0.0
C109 C 0.05357 0.81047 0.60148 0.0
O110 O 0.07979 0.87695 0.55658 0.0
O111 O 0.07914 0.90114 0.59507 0.0
O112 O 0.05274 0.85136 0.61178 0.0
O113 O 0.05664 0.81048 0.57799 0.0
C114 C 0.03663 0.8922 0.54297 0.0
O115 O 0.0514 0.95088 0.60201 0.0
O116 O 0.05819 0.96845 0.56426 0.0
In117 In 0.21249 0.38084 0.59278 0.0
O118 O 0.21132 0.3173 0.56526 0.0
O119 O 0.22798 0.36677 0.56054 0.0
C120 C 0.18426 0.38341 0.59783 0.0
C121 C 0.22574 0.32408 0.62639 0.0
C122 C 0.21908 0.47434 0.59456 0.0
O123 O 0.19025 0.3828 0.57631 0.0
O124 O 0.19249 0.38292 0.61661 0.0
O125 O 0.21895 0.44801 0.61411 0.0
O126 O 0.21585 0.45359 0.57407 0.0
C127 C 0.22253 0.32771 0.55374 0.0
O128 O 0.23227 0.35195 0.61171 0.0
O129 O 0.21261 0.32813 0.62551 0.0
In130 In 0.05808 0.38697 0.66587 0.0
O131 O 0.04693 0.35109 0.63262 0.0
O132 O 0.05748 0.30802 0.66056 0.0
C133 C 0.05324 0.48071 0.6625 0.0
C134 C 0.04041 0.36093 0.70319 0.0
C135 C 0.08481 0.38693 0.64923 0.0
O136 O 0.04917 0.45135 0.6457 0.0
O137 O 0.05959 0.46252 0.68139 0.0
O138 O 0.08212 0.38364 0.67293 0.0
O139 O 0.07419 0.3903 0.63509 0.0
C140 C 0.05008 0.30959 0.64063 0.0
O141 O 0.05351 0.35361 0.70524 0.0
O142 O 0.03677 0.38441 0.68369 0.0
In143 In 0.21187 0.90054 0.64745 0.0
O144 O 0.22631 0.95429 0.62761 0.0
O145 O 0.20896 0.97972 0.64941 0.0
C146 C 0.22077 0.81448 0.63245 0.0
C147 C 0.22346 0.9122 0.69373 0.0
C148 C 0.18586 0.89552 0.62729 0.0
O149 O 0.2236 0.85222 0.62008 0.0
O150 O 0.21372 0.82056 0.65261 0.0
O151 O 0.18794 0.89132 0.65107 0.0
O152 O 0.19677 0.90272 0.61425 0.0
C153 C 0.21986 0.98981 0.63694 0.0
O154 O 0.21028 0.91222 0.69064 0.0
O155 O 0.23043 0.90193 0.67405 0.0
In156 In 0.95026 0.12543 0.41963 0.0
O157 O 0.95228 0.08716 0.45816 0.0
O158 O 0.97089 0.11024 0.43955 0.0
C159 C 0.92207 0.12936 0.41351 0.0
C160 C 0.95884 0.05209 0.39148 0.0
C161 C 0.95811 0.21713 0.4142 0.0
O162 O 0.92785 0.13234 0.43515 0.0
O163 O 0.93048 0.12462 0.39519 0.0
O164 O 0.95753 0.18835 0.39571 0.0
O165 O 0.95473 0.19965 0.43556 0.0
C166 C 0.96554 0.0871 0.4578 0.0
O167 O 0.96206 0.09452 0.38538 0.0
O168 O 0.95062 0.04781 0.41012 0.0
In169 In 0.80206 0.61684 0.42979 0.0
O170 O 0.79826 0.66438 0.46444 0.0
O171 O 0.78842 0.59628 0.46409 0.0
C172 C 0.83043 0.6139 0.42559 0.0
C173 C 0.79175 0.69374 0.40542 0.0
C174 C 0.79371 0.5343 0.40843 0.0
O175 O 0.82437 0.61625 0.44702 0.0
O176 O 0.82222 0.61216 0.40688 0.0
O177 O 0.7919 0.57452 0.39797 0.0
O178 O 0.79957 0.53564 0.43 0.0
C179 C 0.78964 0.63635 0.47497 0.0
O180 O 0.7839 0.66328 0.41591 0.0
O181 O 0.80463 0.68434 0.40638 0.0
In182 In 0.95429 0.63622 0.34597 0.0
O183 O 0.96699 0.69249 0.36734 0.0
O184 O 0.95291 0.71434 0.33766 0.0
C185 C 0.96289 0.55116 0.36314 0.0
C186 C 0.9675 0.64613 0.30115 0.0
C187 C 0.9283 0.63566 0.3665 0.0
O188 O 0.9662 0.58993 0.37405 0.0
O189 O 0.95556 0.55565 0.34318 0.0
O190 O 0.93028 0.62512 0.34324 0.0
O191 O 0.93923 0.64713 0.37852 0.0
C192 C 0.96229 0.72597 0.3534 0.0
O193 O 0.95421 0.64632 0.30259 0.0
O194 O 0.97369 0.63511 0.32161 0.0
In195 In 0.79703 0.11448 0.34009 0.0
O196 O 0.79317 0.09136 0.29851 0.0
O197 O 0.77593 0.11435 0.3216 0.0
C198 C 0.82333 0.12124 0.35817 0.0
C199 C 0.79098 0.02862 0.35882 0.0
C200 C 0.79079 0.20598 0.34763 0.0
O201 O 0.82108 0.11868 0.33428 0.0
O202 O 0.81248 0.12012 0.3719 0.0
O203 O 0.78763 0.17382 0.36375 0.0
O204 O 0.79698 0.19169 0.32767 0.0
C205 C 0.78002 0.09771 0.30051 0.0
O206 O 0.7852 0.06599 0.36769 0.0
O207 O 0.7999 0.0355 0.34141 0.0
In208 In 0.55694 0.37617 0.5684 0.0
O209 O 0.54634 0.37978 0.52909 0.0
O210 O 0.53357 0.3775 0.56248 0.0
C211 C 0.5851 0.37072 0.56646 0.0
C212 C 0.55545 0.46954 0.57847 0.0
C213 C 0.55204 0.29515 0.59427 0.0
O214 O 0.57765 0.36236 0.5469 0.0
O215 O 0.57828 0.38089 0.58631 0.0
O216 O 0.551 0.3361 0.60444 0.0
O217 O 0.55534 0.29528 0.57087 0.0
C218 C 0.53411 0.38177 0.53854 0.0
O219 O 0.55328 0.43837 0.59563 0.0
O220 O 0.55855 0.45329 0.55678 0.0
In221 In 0.71519 0.87658 0.61319 0.0
O222 O 0.71228 0.80673 0.59078 0.0
O223 O 0.72481 0.86146 0.57443 0.0
C224 C 0.68885 0.87684 0.63235 0.0
C225 C 0.73428 0.82295 0.63779 0.0
C226 C 0.72013 0.97093 0.60726 0.0
O227 O 0.69967 0.88115 0.64594 0.0
O228 O 0.69124 0.87233 0.60873 0.0
O229 O 0.72292 0.94909 0.62776 0.0
O230 O 0.71488 0.94528 0.58996 0.0
C231 C 0.72076 0.81852 0.57337 0.0
O232 O 0.73773 0.85462 0.62183 0.0
O233 O 0.72158 0.8248 0.64434 0.0
In234 In 0.56002 0.87582 0.67074 0.0
O235 O 0.55007 0.84601 0.70769 0.0
O236 O 0.53693 0.86355 0.6762 0.0
C237 C 0.58823 0.87941 0.67333 0.0
C238 C 0.55846 0.79758 0.64195 0.0
C239 C 0.55435 0.96858 0.66209 0.0
O240 O 0.58081 0.87616 0.69335 0.0
O241 O 0.58138 0.88147 0.65285 0.0
O242 O 0.55415 0.93745 0.64462 0.0
O243 O 0.55724 0.95273 0.68408 0.0
C244 C 0.53782 0.84584 0.69828 0.0
O245 O 0.55564 0.83861 0.63296 0.0
O246 O 0.56231 0.79682 0.66496 0.0
In247 In 0.71175 0.4105 0.62382 0.0
O248 O 0.70923 0.43344 0.66556 0.0
O249 O 0.72966 0.41744 0.6516 0.0
C250 C 0.68545 0.40309 0.60526 0.0
C251 C 0.72135 0.49642 0.60961 0.0
C252 C 0.72003 0.3202 0.6149 0.0
O253 O 0.68801 0.40164 0.62895 0.0
O254 O 0.69607 0.4092 0.59128 0.0
O255 O 0.7224 0.35386 0.59927 0.0
O256 O 0.71383 0.33254 0.63514 0.0
C257 C 0.72232 0.43369 0.66963 0.0
O258 O 0.7276 0.45853 0.60275 0.0
O259 O 0.70971 0.48992 0.6204 0.0
In260 In 0.45186 0.61685 0.40515 0.0
O261 O 0.45225 0.57399 0.44289 0.0
O262 O 0.47154 0.59313 0.42562 0.0
C263 C 0.42394 0.60829 0.39798 0.0
C264 C 0.46277 0.55983 0.36891 0.0
C265 C 0.45629 0.712 0.40627 0.0
O266 O 0.43024 0.58842 0.4164 0.0
O267 O 0.43164 0.63357 0.38375 0.0
O268 O 0.45789 0.68679 0.3866 0.0
O269 O 0.45242 0.68919 0.42585 0.0
C270 C 0.46546 0.57059 0.4432 0.0
O271 O 0.46998 0.59083 0.38031 0.0
O272 O 0.44996 0.56029 0.37445 0.0
In273 In 0.30211 0.12567 0.4059 0.0
O274 O 0.28831 0.16963 0.37881 0.0
O275 O 0.30207 0.20542 0.40472 0.0
C276 C 0.29734 0.03215 0.40048 0.0
C277 C 0.28655 0.14024 0.44766 0.0
C278 C 0.32848 0.12574 0.38754 0.0
O279 O 0.29343 0.06232 0.38382 0.0
O280 O 0.30361 0.04938 0.41964 0.0
O281 O 0.32612 0.12789 0.41136 0.0
O282 O 0.31766 0.12409 0.37375 0.0
C283 C 0.29261 0.20899 0.38803 0.0
O284 O 0.29954 0.15022 0.44745 0.0
O285 O 0.28193 0.12079 0.42764 0.0
In286 In 0.45639 0.13297 0.33625 0.0
O287 O 0.46357 0.14061 0.29449 0.0
O288 O 0.47877 0.12568 0.32314 0.0
C289 C 0.4282 0.1292 0.33859 0.0
C290 C 0.46172 0.22421 0.34735 0.0
C291 C 0.46085 0.04985 0.36012 0.0
O292 O 0.43482 0.1202 0.31816 0.0
O293 O 0.43582 0.14033 0.35733 0.0
O294 O 0.46162 0.08949 0.37175 0.0
O295 O 0.45808 0.05266 0.33658 0.0
C296 C 0.4764 0.13547 0.30007 0.0
O297 O 0.46674 0.19056 0.36074 0.0
O298 O 0.45353 0.21144 0.32979 0.0
In299 In 0.29912 0.60892 0.32917 0.0
O300 O 0.29828 0.5684 0.29121 0.0
O301 O 0.28579 0.63075 0.29508 0.0
C302 C 0.32691 0.59014 0.33556 0.0
C303 C 0.28324 0.54223 0.35261 0.0
C304 C 0.29438 0.69534 0.3505 0.0
O305 O 0.31728 0.56132 0.34118 0.0
O306 O 0.32268 0.62801 0.32488 0.0
O307 O 0.29184 0.65655 0.36194 0.0
O308 O 0.29914 0.69057 0.32825 0.0
C309 C 0.28894 0.59496 0.28164 0.0
O310 O 0.27963 0.56207 0.33208 0.0
O311 O 0.29424 0.55911 0.36244 0.0
In312 In 0.54571 0.87389 0.10009 0.0
O313 O 0.52509 0.91265 0.10797 0.0
O314 O 0.54322 0.93502 0.128 0.0
C315 C 0.53847 0.78199 0.10878 0.0
C316 C 0.5398 0.91611 0.05501 0.0
C317 C 0.57236 0.87305 0.11775 0.0
O318 O 0.53447 0.81618 0.12265 0.0
O319 O 0.54583 0.79423 0.08986 0.0
O320 O 0.56969 0.86873 0.09419 0.0
O321 O 0.56172 0.87819 0.13172 0.0
C322 C 0.53052 0.94271 0.12285 0.0
O323 O 0.55045 0.92725 0.06801 0.0
O324 O 0.53335 0.87968 0.06307 0.0
In325 In 0.71227 0.33954 0.09447 0.0
O326 O 0.72274 0.28066 0.1177 0.0
O327 O 0.70887 0.26173 0.08718 0.0
C328 C 0.71752 0.42578 0.11376 0.0
C329 C 0.73147 0.33477 0.05732 0.0
C330 C 0.68518 0.34289 0.10814 0.0
O331 O 0.72052 0.3876 0.12573 0.0
O332 O 0.71231 0.42005 0.09174 0.0
O333 O 0.68876 0.34941 0.08499 0.0
O334 O 0.69514 0.33372 0.12323 0.0
C335 C 0.71726 0.24783 0.10429 0.0
O336 O 0.71849 0.33068 0.05224 0.0
O337 O 0.73424 0.34491 0.08021 0.0
In338 In 0.55631 0.35051 0.15303 0.0
O339 O 0.5418 0.31255 0.12457 0.0
O340 O 0.5589 0.27447 0.14083 0.0
C341 C 0.54783 0.44139 0.14603 0.0
C342 C 0.54276 0.31263 0.19351 0.0
C343 C 0.58447 0.3582 0.14922 0.0
O344 O 0.55027 0.41373 0.12751 0.0
O345 O 0.54976 0.42329 0.16779 0.0
O346 O 0.57805 0.35969 0.17031 0.0
O347 O 0.57665 0.35359 0.12997 0.0
C348 C 0.54783 0.27273 0.12785 0.0
O349 O 0.55599 0.31467 0.19244 0.0
O350 O 0.53656 0.33331 0.17537 0.0
In351 In 0.70094 0.8559 0.16469 0.0
O352 O 0.72015 0.8827 0.14323 0.0
O353 O 0.7003 0.91013 0.13252 0.0
C354 C 0.70684 0.76171 0.16166 0.0
C355 C 0.71272 0.90833 0.20244 0.0
C356 C 0.67259 0.8563 0.16246 0.0
O357 O 0.70644 0.78881 0.14243 0.0
O358 O 0.70417 0.782 0.18258 0.0
O359 O 0.67919 0.85683 0.18337 0.0
O360 O 0.68028 0.85504 0.14292 0.0
C361 C 0.7134 0.91205 0.12976 0.0
O362 O 0.70097 0.91852 0.19285 0.0
O363 O 0.71791 0.86956 0.19457 0.0
In364 In 0.45902 0.14916 0.92075 0.0
O365 O 0.46342 0.11702 0.9604 0.0
O366 O 0.48023 0.1487 0.93931 0.0
C367 C 0.43237 0.14687 0.90346 0.0
C368 C 0.46737 0.07154 0.896 0.0
C369 C 0.46345 0.24327 0.91795 0.0
O370 O 0.43494 0.14296 0.92718 0.0
O371 O 0.44304 0.1523 0.88963 0.0
O372 O 0.46792 0.21444 0.90121 0.0
O373 O 0.45684 0.22438 0.93636 0.0
C374 C 0.47647 0.12571 0.95891 0.0
O375 O 0.47005 0.11299 0.88733 0.0
O376 O 0.46043 0.07014 0.91646 0.0
In377 In 0.2976 0.61751 0.91383 0.0
O378 O 0.2958 0.66816 0.94826 0.0
O379 O 0.28692 0.59886 0.95114 0.0
C380 C 0.32464 0.61097 0.89827 0.0
C381 C 0.28529 0.69093 0.88963 0.0
C382 C 0.28846 0.53053 0.90077 0.0
O383 O 0.32169 0.6231 0.92095 0.0
O384 O 0.31415 0.60228 0.88455 0.0
O385 O 0.28475 0.56791 0.88893 0.0
O386 O 0.29651 0.53739 0.91952 0.0
C387 C 0.28799 0.64007 0.96071 0.0
O388 O 0.27827 0.66056 0.90195 0.0
O389 O 0.29822 0.68254 0.88847 0.0
In390 In 0.4508 0.65295 0.83657 0.0
O391 O 0.45931 0.7129 0.86148 0.0
O392 O 0.448 0.73092 0.82763 0.0
C393 C 0.45966 0.57433 0.86113 0.0
C394 C 0.46808 0.66367 0.79637 0.0
C395 C 0.42282 0.64082 0.84205 0.0
O396 O 0.459 0.61476 0.87187 0.0
O397 O 0.45618 0.57399 0.8379 0.0
O398 O 0.42927 0.62839 0.82203 0.0
O399 O 0.43042 0.66009 0.85878 0.0
C400 C 0.45516 0.74524 0.84631 0.0
O401 O 0.45497 0.65874 0.79366 0.0
O402 O 0.47241 0.65858 0.81895 0.0
In403 In 0.30552 0.10781 0.84519 0.0
O404 O 0.29903 0.08108 0.80521 0.0
O405 O 0.28327 0.10028 0.83218 0.0
C406 C 0.33356 0.1173 0.84987 0.0
C407 C 0.30031 0.02389 0.86696 0.0
C408 C 0.29752 0.19765 0.85362 0.0
O409 O 0.32758 0.11574 0.82828 0.0
O410 O 0.32539 0.11403 0.86873 0.0
O411 O 0.29811 0.16704 0.87145 0.0
O412 O 0.3013 0.18303 0.83189 0.0
C413 C 0.28606 0.08329 0.8105 0.0
O414 O 0.2959 0.06241 0.87689 0.0
O415 O 0.30824 0.02899 0.8479 0.0
H416 H 0.04296 0.71469 0.16276 0.0
H417 H 0.05201 0.79053 0.09251 0.0
H418 H 0.05036 0.71402 0.06866 0.0
H419 H 0.06317 0.61715 0.15177 0.0
H420 H 0.05151 0.57383 0.16587 0.0
H421 H 0.0511 0.63496 0.17641 0.0
H422 H 0.02461 0.6401 0.16611 0.0
H423 H 0.02486 0.57858 0.15578 0.0
H424 H 0.0185 0.6247 0.13467 0.0
H425 H 0.0515 0.62808 0.05435 0.0
H426 H 0.05379 0.54033 0.04994 0.0
H427 H 0.04325 0.52254 0.12982 0.0
C428 C 0.0443 0.71531 0.14225 0.0
C429 C 0.04768 0.75795 0.12932 0.0
C430 C 0.04934 0.75789 0.10257 0.0
C431 C 0.04842 0.71476 0.08897 0.0
C432 C 0.04552 0.67282 0.10251 0.0
C433 C 0.04323 0.67304 0.12851 0.0
C434 C 0.04134 0.62315 0.13906 0.0
C435 C 0.05244 0.61163 0.15946 0.0
C436 C 0.02644 0.61624 0.14951 0.0
C437 C 0.04362 0.59441 0.11515 0.0
C438 C 0.04587 0.62358 0.09418 0.0
C439 C 0.04946 0.60491 0.07048 0.0
C440 C 0.05085 0.55517 0.06823 0.0
C441 C 0.04866 0.525 0.08959 0.0
C442 C 0.04479 0.54487 0.11315 0.0
H443 H 0.20779 0.67567 0.08862 0.0
H444 H 0.23938 0.70897 0.1452 0.0
H445 H 0.24904 0.62675 0.1406 0.0
H446 H 0.20018 0.56277 0.10903 0.0
H447 H 0.19732 0.53894 0.07755 0.0
H448 H 0.19476 0.60154 0.08335 0.0
H449 H 0.21217 0.6203 0.04694 0.0
H450 H 0.21544 0.55751 0.04175 0.0
H451 H 0.22981 0.59741 0.04835 0.0
H452 H 0.25279 0.53803 0.13394 0.0
H453 H 0.24839 0.45147 0.13054 0.0
H454 H 0.21503 0.4787 0.07657 0.0
C455 C 0.21681 0.66595 0.1 0.0
C456 C 0.22275 0.69828 0.11754 0.0
C457 C 0.23463 0.6844 0.1318 0.0
C458 C 0.24027 0.6381 0.12904 0.0
C459 C 0.2341 0.60702 0.11144 0.0
C460 C 0.22262 0.62064 0.09718 0.0
C461 C 0.21685 0.57979 0.08161 0.0
C462 C 0.20138 0.57019 0.08832 0.0
C463 C 0.21869 0.58934 0.05296 0.0
C464 C 0.2263 0.53981 0.09049 0.0
C465 C 0.23647 0.55634 0.10713 0.0
C466 C 0.24513 0.5249 0.12047 0.0
C467 C 0.24263 0.47558 0.1182 0.0
C468 C 0.23134 0.45854 0.10321 0.0
C469 C 0.22387 0.49083 0.08775 0.0
H470 H 0.98536 0.26533 0.84161 0.0
H471 H 0.97564 0.2075 0.91609 0.0
H472 H 0.97482 0.28955 0.93367 0.0
H473 H 1.00516 0.37936 0.86645 0.0
H474 H 0.99801 0.41339 0.8403 0.0
H475 H 1.00253 0.35121 0.83594 0.0
H476 H 0.97739 0.33511 0.81987 0.0
H477 H 0.97254 0.39633 0.82503 0.0
H478 H 0.96272 0.34911 0.84021 0.0
H479 H 0.9678 0.37335 0.93926 0.0
H480 H 0.95864 0.45525 0.93473 0.0
H481 H 0.9737 0.46094 0.85682 0.0
C482 C 0.98385 0.27019 0.86191 0.0
C483 C 0.98063 0.23091 0.87769 0.0
C484 C 0.97837 0.23756 0.90399 0.0
C485 C 0.97786 0.28397 0.91403 0.0
C486 C 0.98002 0.32256 0.89751 0.0
C487 C 0.98348 0.31613 0.87214 0.0
C488 C 0.98324 0.36297 0.85755 0.0
C489 C 0.99812 0.37761 0.8496 0.0
C490 C 0.97338 0.36068 0.83433 0.0
C491 C 0.97763 0.39584 0.87794 0.0
C492 C 0.97616 0.37206 0.90099 0.0
C493 C 0.96935 0.3928 0.92163 0.0
C494 C 0.96396 0.43894 0.91869 0.0
C495 C 0.96542 0.46383 0.89531 0.0
C496 C 0.9726 0.44252 0.87489 0.0
H497 H 0.80396 0.48636 0.87656 0.0
H498 H 0.79943 0.46616 0.79503 0.0
H499 H 0.79954 0.37857 0.80105 0.0
H500 H 0.8282 0.39347 0.88545 0.0
H501 H 0.82159 0.37457 0.91604 0.0
H502 H 0.81941 0.43571 0.9059 0.0
H503 H 0.79259 0.42886 0.91245 0.0
H504 H 0.7947 0.36771 0.9228 0.0
H505 H 0.78307 0.38158 0.89677 0.0
H506 H 0.80135 0.29373 0.81542 0.0
H507 H 0.8055 0.21657 0.83745 0.0
H508 H 0.81012 0.29209 0.90918 0.0
C509 C 0.8027 0.46335 0.86013 0.0
C510 C 0.80161 0.48264 0.8354 0.0
C511 C 0.80029 0.45176 0.81416 0.0
C512 C 0.80028 0.40208 0.81737 0.0
C513 C 0.8017 0.38397 0.84193 0.0
C514 C 0.80291 0.41354 0.86296 0.0
C515 C 0.80539 0.38479 0.88699 0.0
C516 C 0.81949 0.39792 0.8993 0.0
C517 C 0.79321 0.39111 0.90586 0.0
C518 C 0.80565 0.33471 0.87606 0.0
C519 C 0.80328 0.33494 0.8501 0.0
C520 C 0.80317 0.29296 0.83577 0.0
C521 C 0.80555 0.24944 0.84837 0.0
C522 C 0.80821 0.24865 0.87487 0.0
C523 C 0.80822 0.2918 0.88883 0.0
H524 H 0.04965 0.0298 0.63012 0.0
H525 H 0.04794 0.04863 0.54812 0.0
H526 H 0.0427 0.13446 0.55386 0.0
H527 H 0.02257 0.12207 0.64705 0.0
H528 H 0.03241 0.14104 0.67454 0.0
H529 H 0.03323 0.07958 0.66417 0.0
H530 H 0.06029 0.08538 0.66132 0.0
H531 H 0.05952 0.14653 0.67172 0.0
H532 H 0.0681 0.13191 0.64214 0.0
H533 H 0.04061 0.21932 0.56821 0.0
H534 H 0.04369 0.29713 0.59016 0.0
H535 H 0.04748 0.22262 0.6624 0.0
C536 C 0.04781 0.05187 0.61345 0.0
C537 C 0.04916 0.03298 0.58875 0.0
C538 C 0.04701 0.06279 0.56726 0.0
C539 C 0.04387 0.11138 0.57031 0.0
C540 C 0.04292 0.12936 0.59497 0.0
C541 C 0.04485 0.10052 0.61618 0.0
C542 C 0.04514 0.1296 0.6404 0.0
C543 C 0.03258 0.11734 0.65755 0.0
C544 C 0.05909 0.12297 0.65471 0.0
C545 C 0.04379 0.17937 0.62936 0.0
C546 C 0.0421 0.17856 0.60322 0.0
C547 C 0.04169 0.2205 0.58872 0.0
C548 C 0.04344 0.26441 0.60127 0.0
C549 C 0.04587 0.2654 0.62781 0.0
C550 C 0.04562 0.22258 0.64203 0.0
H551 H 0.20913 0.06595 0.66186 0.0
H552 H 0.24308 0.02432 0.61167 0.0
H553 H 0.25216 0.10752 0.61281 0.0
H554 H 0.20172 0.17251 0.63389 0.0
H555 H 0.19752 0.20324 0.6631 0.0
H556 H 0.19556 0.13953 0.66126 0.0
H557 H 0.21186 0.13044 0.70061 0.0
H558 H 0.21414 0.19449 0.702 0.0
H559 H 0.2292 0.15582 0.6998 0.0
H560 H 0.25536 0.19667 0.61474 0.0
H561 H 0.25041 0.28308 0.61188 0.0
H562 H 0.21477 0.2651 0.66201 0.0
C563 C 0.21858 0.07408 0.65129 0.0
C564 C 0.22538 0.03897 0.63653 0.0
C565 C 0.2377 0.05096 0.623 0.0
C566 C 0.24302 0.09786 0.62384 0.0
C567 C 0.23602 0.13173 0.63871 0.0
C568 C 0.22404 0.12021 0.65213 0.0
C569 C 0.2174 0.16369 0.66416 0.0
C570 C 0.20217 0.17012 0.65503 0.0
C571 C 0.2182 0.16093 0.69338 0.0
C572 C 0.22694 0.20229 0.65391 0.0
C573 C 0.23793 0.18313 0.64003 0.0
C574 C 0.24701 0.21206 0.62603 0.0
C575 C 0.24419 0.26127 0.62468 0.0
C576 C 0.2322 0.28047 0.6368 0.0
C577 C 0.22412 0.25124 0.65297 0.0
H578 H 0.96722 0.97435 0.41692 0.0
H579 H 0.9645 0.03482 0.34106 0.0
H580 H 0.97118 0.95624 0.32275 0.0
H581 H 0.99644 0.88255 0.40174 0.0
H582 H 0.9884 0.84003 0.42308 0.0
H583 H 0.9876 0.90322 0.43 0.0
H584 H 0.96061 0.8977 0.43293 0.0
H585 H 0.96123 0.83508 0.42573 0.0
H586 H 0.95086 0.87466 0.4062 0.0
H587 H 0.97136 0.87 0.3132 0.0
H588 H 0.96622 0.78353 0.31273 0.0
H589 H 0.96987 0.7782 0.39493 0.0
C590 C 0.96853 0.97122 0.39647 0.0
C591 C 0.96529 0.00977 0.3802 0.0
C592 C 0.96704 0.00528 0.35365 0.0
C593 C 0.97089 0.96098 0.34321 0.0
C594 C 0.97332 0.92258 0.35978 0.0
C595 C 0.97252 0.92765 0.38594 0.0
C596 C 0.97351 0.87997 0.39954 0.0
C597 C 0.98731 0.87623 0.41446 0.0
C598 C 0.96079 0.87139 0.41709 0.0
C599 C 0.97349 0.84666 0.3769 0.0
C600 C 0.97382 0.872 0.35413 0.0
C601 C 0.9716 0.84971 0.33078 0.0
C602 C 0.96853 0.8008 0.33073 0.0
C603 C 0.96774 0.77486 0.35385 0.0
C604 C 0.9708 0.79745 0.37707 0.0
H605 H 0.80433 0.75091 0.37071 0.0
H606 H 0.76828 0.74171 0.42062 0.0
H607 H 0.76279 0.82684 0.41185 0.0
H608 H 0.81565 0.86019 0.38952 0.0
H609 H 0.82117 0.88119 0.35861 0.0
H610 H 0.82087 0.81807 0.36531 0.0
H611 H 0.80457 0.8034 0.32659 0.0
H612 H 0.80507 0.86649 0.31938 0.0
H613 H 0.78849 0.83681 0.3238 0.0
H614 H 0.7637 0.91625 0.40271 0.0
H615 H 0.76945 -0.00022 0.39027 0.0
H616 H 0.80461 0.94743 0.34596 0.0
C617 C 0.79502 0.76645 0.3791 0.0
C618 C 0.78667 0.74011 0.39615 0.0
C619 C 0.77466 0.76142 0.40714 0.0
C620 C 0.77152 0.80972 0.40238 0.0
C621 C 0.78036 0.83545 0.38623 0.0
C622 C 0.79168 0.81414 0.37431 0.0
C623 C 0.80012 0.84988 0.35918 0.0
C624 C 0.81534 0.85247 0.36875 0.0
C625 C 0.79952 0.83846 0.33054 0.0
C626 C 0.79217 0.89503 0.3653 0.0
C627 C 0.78075 0.88626 0.38078 0.0
C628 C 0.77245 0.92341 0.39018 0.0
C629 C 0.77585 0.97063 0.38322 0.0
C630 C 0.78743 0.97983 0.36713 0.0
C631 C 0.79561 0.94146 0.35812 0.0
H632 H 0.5583 0.70717 0.66078 0.0
H633 H 0.55521 0.78793 0.59027 0.0
H634 H 0.55317 0.71196 0.56618 0.0
H635 H 0.57891 0.61183 0.63733 0.0
H636 H 0.57017 0.56653 0.65596 0.0
H637 H 0.57097 0.62718 0.6674 0.0
H638 H 0.54391 0.62911 0.67118 0.0
H639 H 0.54302 0.56841 0.65973 0.0
H640 H 0.53336 0.61504 0.64371 0.0
H641 H 0.55282 0.62724 0.55002 0.0
H642 H 0.55335 0.53992 0.54277 0.0
H643 H 0.55574 0.5156 0.62436 0.0
C644 C 0.55718 0.70894 0.64026 0.0
C645 C 0.557 0.75317 0.62726 0.0
C646 C 0.55539 0.75419 0.60048 0.0
C647 C 0.55422 0.71136 0.58671 0.0
C648 C 0.55451 0.66824 0.60017 0.0
C649 C 0.55585 0.6668 0.62636 0.0
C650 C 0.55597 0.616 0.63635 0.0
C651 C 0.56983 0.60474 0.65006 0.0
C652 C 0.54331 0.6066 0.65376 0.0
C653 C 0.55475 0.58885 0.61161 0.0
C654 C 0.55392 0.61961 0.59096 0.0
C655 C 0.55333 0.60282 0.56604 0.0
C656 C 0.55369 0.55327 0.56213 0.0
C657 C 0.55454 0.52129 0.58306 0.0
C658 C 0.55493 0.53934 0.60808 0.0
H659 H 0.72932 0.7498 0.67038 0.0
H660 H 0.75443 0.7901 0.60507 0.0
H661 H 0.75735 0.70517 0.59391 0.0
H662 H 0.74633 0.62559 0.68243 0.0
H663 H 0.72941 0.60082 0.68997 0.0
H664 H 0.73344 0.66187 0.69835 0.0
H665 H 0.71158 0.69079 0.67393 0.0
H666 H 0.70741 0.63064 0.66489 0.0
H667 H 0.70962 0.67591 0.64068 0.0
H668 H 0.75208 0.61833 0.58333 0.0
H669 H 0.74088 0.53854 0.5774 0.0
H670 H 0.71817 0.55819 0.6481 0.0
C671 C 0.73622 0.74051 0.65478 0.0
C672 C 0.74166 0.77646 0.63873 0.0
C673 C 0.75033 0.76318 0.61797 0.0
C674 C 0.75195 0.71482 0.6113 0.0
C675 C 0.7451 0.68028 0.62593 0.0
C676 C 0.73774 0.69254 0.64777 0.0
C677 C 0.7293 0.65073 0.65775 0.0
C678 C 0.73496 0.63373 0.68366 0.0
C679 C 0.71357 0.66278 0.65937 0.0
C680 C 0.7322 0.61437 0.63718 0.0
C681 C 0.74162 0.63115 0.61931 0.0
C682 C 0.74492 0.6045 0.59754 0.0
C683 C 0.73844 0.55958 0.59414 0.0
C684 C 0.72848 0.54296 0.61201 0.0
C685 C 0.72556 0.57051 0.63386 0.0
H686 H 0.45075 0.50157 0.33422 0.0
H687 H 0.48814 0.5207 0.37969 0.0
H688 H 0.49387 0.43522 0.37451 0.0
H689 H 0.44 0.40368 0.36045 0.0
H690 H 0.4335 0.37244 0.33286 0.0
H691 H 0.43442 0.43658 0.33264 0.0
H692 H 0.44994 0.43594 0.29217 0.0
H693 H 0.44859 0.37155 0.29144 0.0
H694 H 0.46556 0.39975 0.29148 0.0
H695 H 0.49169 0.34576 0.37492 0.0
H696 H 0.48426 0.26073 0.37338 0.0
H697 H 0.44858 0.30098 0.32698 0.0
C698 C 0.46059 0.48825 0.34167 0.0
C699 C 0.46905 0.51738 0.35714 0.0
C700 C 0.48167 0.49896 0.36732 0.0
C701 C 0.48494 0.45031 0.36466 0.0
C702 C 0.47567 0.42132 0.35117 0.0
C703 C 0.46402 0.43999 0.33897 0.0
C704 C 0.45479 0.40082 0.32842 0.0
C705 C 0.43981 0.40358 0.33926 0.0
C706 C 0.45472 0.40209 0.29914 0.0
C707 C 0.46247 0.35737 0.33827 0.0
C708 C 0.47457 0.36964 0.35109 0.0
C709 C 0.48249 0.33557 0.3642 0.0
C710 C 0.4781 0.28759 0.36357 0.0
C711 C 0.46589 0.27456 0.35001 0.0
C712 C 0.45805 0.30995 0.33725 0.0
H713 H 0.29056 0.48986 0.3942 0.0
H714 H 0.26401 0.48764 0.32723 0.0
H715 H 0.26062 0.40068 0.33257 0.0
H716 H 0.30894 0.39421 0.38003 0.0
H717 H 0.31088 0.36965 0.41162 0.0
H718 H 0.30803 0.4327 0.40754 0.0
H719 H 0.28608 0.42941 0.43662 0.0
H720 H 0.2892 0.36641 0.44156 0.0
H721 H 0.27244 0.38658 0.43 0.0
H722 H 0.26449 0.31217 0.33955 0.0
H723 H 0.27372 0.2314 0.35003 0.0
H724 H 0.29801 0.29295 0.41164 0.0
C725 C 0.28345 0.4715 0.38145 0.0
C726 C 0.2775 0.49543 0.36043 0.0
C727 C 0.26854 0.47007 0.34371 0.0
C728 C 0.26658 0.42056 0.34653 0.0
C729 C 0.27346 0.39726 0.36643 0.0
C730 C 0.28144 0.42219 0.38401 0.0
C731 C 0.28927 0.38857 0.40153 0.0
C732 C 0.30521 0.39679 0.40006 0.0
C733 C 0.28392 0.39301 0.42905 0.0
C734 C 0.28519 0.34105 0.39005 0.0
C735 C 0.27584 0.34644 0.37018 0.0
C736 C 0.27155 0.30744 0.35547 0.0
C737 C 0.27692 0.26184 0.36138 0.0
C738 C 0.28662 0.25608 0.38152 0.0
C739 C 0.29061 0.2962 0.3961 0.0
H740 H 0.54955 0.19801 0.15955 0.0
H741 H 0.52924 0.24516 0.0901 0.0
H742 H 0.51725 0.16616 0.08699 0.0
H743 H 0.55754 0.08542 0.14218 0.0
H744 H 0.5542 0.05875 0.1729 0.0
H745 H 0.55893 0.12068 0.17082 0.0
H746 H 0.5363 0.1432 0.19554 0.0
H747 H 0.53137 0.08093 0.19716 0.0
H748 H 0.51953 0.12426 0.18358 0.0
H749 H 0.51084 0.07812 0.08842 0.0
H750 H 0.51252 0.99021 0.09151 0.0
H751 H 0.53632 0.00358 0.1613 0.0
C752 C 0.54255 0.19182 0.14366 0.0
C753 C 0.54054 0.22683 0.12465 0.0
C754 C 0.53102 0.2182 0.1046 0.0
C755 C 0.52407 0.17382 0.10294 0.0
C756 C 0.52643 0.13969 0.12203 0.0
C757 C 0.53539 0.14867 0.14211 0.0
C758 C 0.53731 0.10543 0.15901 0.0
C759 C 0.55291 0.09177 0.16132 0.0
C760 C 0.53073 0.11397 0.18538 0.0
C761 C 0.52908 0.06894 0.14404 0.0
C762 C 0.5224 0.08961 0.12329 0.0
C763 C 0.51568 0.06181 0.10495 0.0
C764 C 0.51658 0.01179 0.10697 0.0
C765 C 0.52446 0.99046 0.12684 0.0
C766 C 0.53 0.01926 0.14633 0.0
H767 H 0.70205 0.97222 0.09486 0.0
H768 H 0.73915 0.94845 0.1406 0.0
H769 H 0.74615 0.03251 0.13415 0.0
H770 H 0.71843 0.0684 0.05052 0.0
H771 H 0.70198 0.10003 0.04991 0.0
H772 H 0.7022 0.03556 0.05191 0.0
H773 H 0.68677 0.04046 0.09241 0.0
H774 H 0.68691 0.10466 0.09124 0.0
H775 H 0.6929 0.07413 0.1195 0.0
H776 H 0.7455 0.12213 0.1329 0.0
H777 H 0.73943 0.20828 0.13013 0.0
H778 H 0.70313 0.17274 0.08432 0.0
C779 C 0.71204 0.98411 0.10225 0.0
C780 C 0.72008 0.9541 0.1181 0.0
C781 C 0.73295 0.97081 0.12804 0.0
C782 C 0.73697 0.01864 0.12462 0.0
C783 C 0.72818 0.0486 0.11063 0.0
C784 C 0.71623 0.03156 0.09879 0.0
C785 C 0.70769 0.07187 0.08745 0.0
C786 C 0.70757 0.06878 0.05821 0.0
C787 C 0.6927 0.0728 0.09832 0.0
C788 C 0.71611 0.11432 0.09643 0.0
C789 C 0.72799 0.10038 0.10949 0.0
C790 C 0.73649 0.13353 0.12199 0.0
C791 C 0.73287 0.18221 0.12063 0.0
C792 C 0.72087 0.19691 0.10694 0.0
C793 C 0.71248 0.16248 0.09464 0.0
H794 H 0.46363 0.7927 0.88911 0.0
H795 H 0.45654 0.81038 0.808 0.0
H796 H 0.46386 0.89486 0.81085 0.0
H797 H 0.44874 0.89994 0.90649 0.0
H798 H 0.46066 0.91237 0.93227 0.0
H799 H 0.45746 0.85158 0.92286 0.0
H800 H 0.48414 0.83929 0.91617 0.0
H801 H 0.48733 0.90057 0.92525 0.0
H802 H 0.49357 0.87868 0.89501 0.0
H803 H 0.46938 0.97872 0.82299 0.0
H804 H 0.46953 0.05745 0.84462 0.0
H805 H 0.47223 0.98579 0.91778 0.0
C806 C 0.46389 0.81426 0.87193 0.0
C807 C 0.45956 0.79537 0.84839 0.0
C808 C 0.45975 0.82455 0.8263 0.0
C809 C 0.46408 0.87231 0.82764 0.0
C810 C 0.46817 0.89023 0.85121 0.0
C811 C 0.46799 0.86224 0.87303 0.0
C812 C 0.47094 0.89174 0.89651 0.0
C813 C 0.45872 0.88875 0.91564 0.0
C814 C 0.48483 0.87666 0.90896 0.0
C815 C 0.47209 0.94093 0.88462 0.0
C816 C 0.47095 0.93918 0.85838 0.0
C817 C 0.47054 0.98061 0.84347 0.0
C818 C 0.47068 0.02508 0.85584 0.0
C819 C 0.4709 0.02716 0.88271 0.0
C820 C 0.47216 0.98479 0.89714 0.0
H821 H 0.29369 0.74567 0.85037 0.0
H822 H 0.26619 0.74357 0.91592 0.0
H823 H 0.2648 0.83191 0.9148 0.0
H824 H 0.31397 0.83119 0.86936 0.0
H825 H 0.31696 0.86139 0.83946 0.0
H826 H 0.31241 0.79909 0.83969 0.0
H827 H 0.29097 0.81478 0.81061 0.0
H828 H 0.29577 0.87715 0.80922 0.0
H829 H 0.27844 0.86019 0.81929 0.0
H830 H 0.27112 0.91991 0.9126 0.0
H831 H 0.2819 -0.00025 0.90545 0.0
H832 H 0.30581 0.9412 0.84247 0.0
C833 C 0.28671 0.76383 0.86346 0.0
C834 C 0.27993 0.73836 0.88297 0.0
C835 C 0.27119 0.76275 0.90042 0.0
C836 C 0.27045 0.81293 0.90006 0.0
C837 C 0.27826 0.83751 0.88177 0.0
C838 C 0.28586 0.81359 0.86324 0.0
C839 C 0.29482 0.84747 0.84785 0.0
C840 C 0.31045 0.83395 0.84921 0.0
C841 C 0.28969 0.85006 0.8201 0.0
C842 C 0.29189 0.8935 0.86178 0.0
C843 C 0.28213 0.88763 0.88093 0.0
C844 C 0.27854 0.92512 0.89727 0.0
C845 C 0.28485 0.97005 0.89334 0.0
C846 C 0.29475 0.9764 0.87357 0.0
C847 C 0.29832 0.93745 0.85784 0.0
H848 H 0.99637 0.56495 0.95063 0.0
H849 H 0.95685 0.5298 0.98689 0.0
H850 H 0.96903 0.47076 0.01429 0.0
H851 H 0.00983 0.44683 0.94868 0.0
H852 H 0.02767 0.46377 0.95524 0.0
H853 H 0.01611 0.50519 0.93941 0.0
H854 H 0.02075 0.56922 0.97411 0.0
H855 H 0.03265 0.52855 0.98964 0.0
H856 H 0.01823 0.55389 0.00719 0.0
H857 H 0.98545 0.41346 0.03648 0.0
H858 H 1.00521 0.36983 0.05593 0.0
H859 H 0.03404 0.44148 0.00466 0.0
C860 C 0.99029 0.5456 0.96471 0.0
C861 C 0.97564 0.55236 0.9668 0.0
C862 C 0.96808 0.5258 0.98522 0.0
C863 C 0.9749 0.49178 0.00064 0.0
C864 C 0.98926 0.48481 0.99739 0.0
C865 C 0.99691 0.51156 0.98017 0.0
C866 C 0.01224 0.49728 0.98038 0.0
C867 C 0.01672 0.47707 0.95438 0.0
C868 C 0.02151 0.53975 0.98831 0.0
C869 C 0.01209 0.45847 0.0006 0.0
C870 C 0.99869 0.45153 0.00996 0.0
C871 C 0.99595 0.41859 0.02926 0.0
C872 C 0.00724 0.3937 0.04005 0.0
C873 C 0.02114 0.40178 0.0316 0.0
C874 C 0.02351 0.43362 0.01108 0.0
H875 H 0.28625 0.72935 0.98335 0.0
H876 H 0.26558 0.59108 0.97924 0.0
H877 H 0.24501 0.6246 0.00105 0.0
H878 H 0.27265 0.75891 0.04759 0.0
H879 H 0.27107 0.82173 0.04016 0.0
H880 H 0.28434 0.78617 0.02481 0.0
H881 H 0.27472 0.81298 0.98087 0.0
H882 H 0.26113 0.84737 0.99608 0.0
H883 H 0.25663 0.80194 0.97314 0.0
H884 H 0.22558 0.67501 0.01813 0.0
H885 H 0.21084 0.73278 0.04145 0.0
H886 H 0.24452 0.83685 0.03872 0.0
C887 C 0.27755 0.70584 0.98766 0.0
C888 C 0.27756 0.65756 0.97947 0.0
C889 C 0.2659 0.62809 0.98536 0.0
C890 C 0.25406 0.64693 0.99748 0.0
C891 C 0.25409 0.69515 0.00411 0.0
C892 C 0.2657 0.72382 0.00033 0.0
C893 C 0.26312 0.77401 0.01041 0.0
C894 C 0.2734 0.78589 0.03203 0.0
C895 C 0.26395 0.81126 0.98884 0.0
C896 C 0.24824 0.76894 0.02027 0.0
C897 C 0.24314 0.72349 0.01575 0.0
C898 C 0.22952 0.71046 0.02226 0.0
C899 C 0.22113 0.74384 0.03508 0.0
C900 C 0.22649 0.78942 0.04169 0.0
C901 C 0.24012 0.80242 0.03366 0.0
H902 H 0.03383 0.78279 0.24481 0.0
H903 H 1.0055 0.85212 0.19166 0.0
H904 H 0.98596 0.8034 0.20813 0.0
H905 H 0.01892 0.66567 0.24061 0.0
H906 H 0.02101 0.65185 0.27397 0.0
H907 H 0.03288 0.69292 0.25859 0.0
H908 H 0.02699 0.75842 0.29191 0.0
H909 H 0.0154 0.71711 0.30771 0.0
H910 H 0.00896 0.77458 0.29732 0.0
H911 H 0.96942 0.746 0.22991 0.0
H912 H 0.95678 0.6908 0.25877 0.0
H913 H 0.99583 0.65802 0.29725 0.0
C914 C 0.02347 0.78822 0.23693 0.0
C915 C 0.02121 0.82146 0.217 0.0
C916 C 0.00751 0.82705 0.207 0.0
C917 C 0.99634 0.79929 0.21611 0.0
C918 C 0.99898 0.76593 0.23526 0.0
C919 C 0.01216 0.76071 0.24581 0.0
C920 C 0.01211 0.72272 0.26648 0.0
C921 C 0.02181 0.68081 0.25948 0.0
C922 C 0.0161 0.74452 0.29239 0.0
C923 C 0.99686 0.7076 0.26594 0.0
C924 C 0.98947 0.73268 0.24767 0.0
C925 C 0.97512 0.72597 0.24422 0.0
C926 C 0.96803 0.69418 0.26054 0.0
C927 C 0.9753 0.66962 0.28011 0.0
C928 C 0.98997 0.6756 0.28224 0.0
H929 H 0.24265 0.39969 0.21136 0.0
H930 H 0.21685 0.51609 0.18304 0.0
H931 H 0.23297 0.5746 0.20262 0.0
H932 H 0.25167 0.45466 0.2718 0.0
H933 H 0.26921 0.43099 0.27163 0.0
H934 H 0.25536 0.39895 0.25584 0.0
H935 H 0.26986 0.39985 0.21403 0.0
H936 H 0.28361 0.43293 0.22957 0.0
H937 H 0.27564 0.45626 0.20099 0.0
H938 H 0.2519 0.62045 0.22567 0.0
H939 H 0.27113 0.64964 0.25311 0.0
H940 H 0.28502 0.50342 0.26486 0.0
C941 C 0.24026 0.43747 0.20963 0.0
C942 C 0.22839 0.4533 0.1959 0.0
C943 C 0.22576 0.50308 0.19377 0.0
C944 C 0.23493 0.53661 0.20463 0.0
C945 C 0.2467 0.51981 0.21755 0.0
C946 C 0.24931 0.47139 0.22032 0.0
C947 C 0.26264 0.46267 0.23527 0.0
C948 C 0.25953 0.43521 0.2601 0.0
C949 C 0.27358 0.43637 0.21898 0.0
C950 C 0.2671 0.51373 0.2406 0.0
C951 C 0.2578 0.54619 0.23015 0.0
C952 C 0.25932 0.59538 0.23373 0.0
C953 C 0.27032 0.61167 0.24919 0.0
C954 C 0.27971 0.57891 0.26071 0.0
C955 C 0.27827 0.52944 0.25572 0.0
H956 H 0.77013 0.16032 0.95934 0.0
H957 H 0.80912 0.21274 0.9913 0.0
H958 H 0.79592 0.26991 0.01785 0.0
H959 H 0.75213 0.27234 0.95671 0.0
H960 H 0.73538 0.24862 0.96626 0.0
H961 H 0.7477 0.211 0.9497 0.0
H962 H 0.74681 0.14881 0.98639 0.0
H963 H 0.73423 0.18571 0.00274 0.0
H964 H 0.75015 0.16803 0.0186 0.0
H965 H 0.77883 0.32331 0.03955 0.0
H966 H 0.75865 0.36113 0.06067 0.0
H967 H 0.73033 0.2734 0.01608 0.0
C968 C 0.77587 0.18339 0.9722 0.0
C969 C 0.79068 0.18202 0.97327 0.0
C970 C 0.79779 0.21286 0.99028 0.0
C971 C 0.79039 0.2458 0.00526 0.0
C972 C 0.77585 0.24723 0.0032 0.0
C973 C 0.76861 0.2162 0.98756 0.0
C974 C 0.75292 0.22418 0.98974 0.0
C975 C 0.74667 0.23997 0.96407 0.0
C976 C 0.7456 0.179 -2e-05 0.0
C977 C 0.75249 0.26462 0.00903 0.0
C978 C 0.76588 0.27766 0.01621 0.0
C979 C 0.7683 0.31337 0.03412 0.0
C980 C 0.75675 0.33488 0.04589 0.0
C981 C 0.74292 0.32054 0.03988 0.0
C982 C 0.74076 0.28586 0.02066 0.0
H983 H 0.00726 0.14836 0.78609 0.0
H984 H 0.96656 0.20838 0.76791 0.0
H985 H 0.97804 0.27336 0.74375 0.0
H986 H 0.02499 0.25684 0.79571 0.0
H987 H 0.04119 0.23873 0.78096 0.0
H988 H 0.02994 0.19454 0.79537 0.0
H989 H 0.02888 0.14722 0.75297 0.0
H990 H 0.04043 0.19056 0.7386 0.0
H991 H 0.02375 0.17768 0.72413 0.0
H992 H 0.99384 0.3351 0.72464 0.0
H993 H 0.01281 0.38326 0.70577 0.0
H994 H 0.04351 0.28303 0.73534 0.0
C995 C 1.00075 0.17449 0.77648 0.0
C996 C 0.98598 0.1731 0.77877 0.0
C997 C 0.97785 0.20831 0.76618 0.0
C998 C 0.9843 0.24566 0.75262 0.0
C999 C 0.99887 0.24703 0.7516 0.0
C1000 C 0.00701 0.21182 0.76265 0.0
C1001 C 0.02249 0.22181 0.75861 0.0
C1002 C 0.03009 0.22836 0.78419 0.0
C1003 C 0.02928 0.18196 0.74262 0.0
C1004 C 0.02178 0.26856 0.74389 0.0
C1005 C 0.00804 0.28251 0.74024 0.0
C1006 C 1.00463 0.32435 0.72721 0.0
C1007 C 0.01551 0.35166 0.71672 0.0
C1008 C 0.02966 0.33712 0.71919 0.0
C1009 C 0.03283 0.29552 0.73348 0.0
H1010 H 0.75023 0.44777 0.67789 0.0
H1011 H 0.70926 0.48078 0.70898 0.0
H1012 H 0.72035 0.53414 0.74077 0.0
H1013 H 0.76911 0.44796 0.738 0.0
H1014 H 0.78453 0.47454 0.72413 0.0
H1015 H 0.77326 0.43757 0.70495 0.0
H1016 H 0.77077 0.50696 0.67246 0.0
H1017 H 0.78177 0.5446 0.69181 0.0
H1018 H 0.76448 0.56436 0.68305 0.0
H1019 H 0.73604 0.58443 0.76887 0.0
H1020 H 0.7551 0.62387 0.79277 0.0
H1021 H 0.78567 0.56062 0.74186 0.0
C1022 C 0.74357 0.4655 0.69167 0.0
C1023 C 0.72887 0.45964 0.69116 0.0
C1024 C 0.72055 0.48418 0.70925 0.0
C1025 C 0.72675 0.51486 0.72722 0.0
C1026 C 0.74126 0.52077 0.72672 0.0
C1027 C 0.74957 0.49643 0.70953 0.0
C1028 C 0.76489 0.50911 0.71282 0.0
C1029 C 0.77345 0.46466 0.72043 0.0
C1030 C 0.77082 0.53267 0.6886 0.0
C1031 C 0.76395 0.54459 0.73455 0.0
C1032 C 0.75022 0.55077 0.74231 0.0
C1033 C 0.74679 0.58007 0.76284 0.0
C1034 C 0.75768 0.60246 0.77623 0.0
C1035 C 0.77183 0.59585 0.76893 0.0
C1036 C 0.77494 0.56729 0.74748 0.0
H1037 H 0.99408 0.07686 0.45762 0.0
H1038 H 0.95634 0.02329 0.49384 0.0
H1039 H 0.97035 0.9619 0.51631 0.0
H1040 H 0.01047 0.963 0.44798 0.0
H1041 H 0.0279 0.98414 0.45476 0.0
H1042 H 0.01504 0.02454 0.44173 0.0
H1043 H 0.01864 0.08281 0.47962 0.0
H1044 H 0.03176 0.0432 0.49238 0.0
H1045 H 0.01704 0.06054 0.51176 0.0
H1046 H 0.98845 0.90629 0.53469 0.0
H1047 H 0.0096 0.8664 0.55146 0.0
H1048 H 0.03558 0.95512 0.50276 0.0
C1049 C 0.98877 0.05266 0.47056 0.0
C1050 C 0.9741 0.05511 0.47412 0.0
C1051 C 0.96756 0.02244 0.49101 0.0
C1052 C 0.97542 0.98714 0.50366 0.0
C1053 C 0.9898 0.98494 0.49918 0.0
C1054 C 0.99645 0.01723 0.48331 0.0
C1055 C 0.01207 0.00774 0.48218 0.0
C1056 C 0.01663 0.99404 0.45505 0.0
C1057 C 0.02036 0.05114 0.49208 0.0
C1058 C 0.01323 0.96539 0.50017 0.0
C1059 C 1.00023 0.95251 0.50954 0.0
C1060 C 0.99866 0.91587 0.52736 0.0
C1061 C 0.01073 0.89319 0.53664 0.0
C1062 C 0.02421 0.90713 0.52813 0.0
C1063 C 0.02541 0.94275 0.50908 0.0
H1064 H 0.28759 0.22307 0.47553 0.0
H1065 H 0.26276 0.09549 0.46272 0.0
H1066 H 0.24367 0.12936 0.48884 0.0
H1067 H 0.27527 0.24814 0.54142 0.0
H1068 H 0.2751 0.31192 0.53606 0.0
H1069 H 0.28744 0.27476 0.51925 0.0
H1070 H 0.27828 0.30874 0.47642 0.0
H1071 H 0.2657 0.3452 0.49302 0.0
H1072 H 0.25994 0.30385 0.46887 0.0
H1073 H 0.22658 0.17941 0.51344 0.0
H1074 H 0.21322 0.2404 0.53734 0.0
H1075 H 0.24869 0.33712 0.53273 0.0
C1076 C 0.27835 0.20163 0.47909 0.0
C1077 C 0.27673 0.15624 0.46763 0.0
C1078 C 0.26425 0.13 0.47173 0.0
C1079 C 0.25334 0.14905 0.4864 0.0
C1080 C 0.255 0.19467 0.49665 0.0
C1081 C 0.26723 0.22051 0.4934 0.0
C1082 C 0.26593 0.27 0.50504 0.0
C1083 C 0.27656 0.27657 0.52674 0.0
C1084 C 0.26756 0.30925 0.48462 0.0
C1085 C 0.25106 0.26797 0.51514 0.0
C1086 C 0.24496 0.22415 0.51016 0.0
C1087 C 0.23127 0.21381 0.51756 0.0
C1088 C 0.22372 0.24878 0.53097 0.0
C1089 C 0.22985 0.29362 0.53674 0.0
C1090 C 0.24365 0.30337 0.52839 0.0
H1091 H 0.2516 0.91709 0.70329 0.0
H1092 H 0.21113 0.95549 0.73482 0.0
H1093 H 0.22294 0.0035 0.76799 0.0
H1094 H 0.27055 0.91083 0.76512 0.0
H1095 H 0.28631 0.93535 0.75146 0.0
H1096 H 0.27466 0.90007 0.73209 0.0
H1097 H 0.27315 0.97006 0.69969 0.0
H1098 H 0.2845 0.00601 0.71926 0.0
H1099 H 0.26746 0.02821 0.7104 0.0
H1100 H 0.23893 0.05332 0.79488 0.0
H1101 H 0.25808 0.09466 0.81715 0.0
H1102 H 0.28843 0.02415 0.76838 0.0
C1103 C 0.24522 0.93451 0.7176 0.0
C1104 C 0.23041 0.93227 0.71657 0.0
C1105 C 0.22246 0.95619 0.73541 0.0
C1106 C 0.22908 0.98384 0.7542 0.0
C1107 C 0.24366 0.98685 0.75401 0.0
C1108 C 0.25166 0.96211 0.73652 0.0
C1109 C 0.26714 0.97264 0.74 0.0
C1110 C 0.27514 0.92701 0.74763 0.0
C1111 C 0.27342 0.9956 0.7159 0.0
C1112 C 0.26659 0.00809 0.76182 0.0
C1113 C 0.25292 0.01565 0.76958 0.0
C1114 C 0.24966 0.04731 0.78913 0.0
C1115 C 0.26064 0.07085 0.80156 0.0
C1116 C 0.27478 0.0628 0.79448 0.0
C1117 C 0.27775 0.03141 0.77407 0.0
H1118 H 0.7848 0.7285 0.48962 0.0
H1119 H 0.77094 0.58266 0.50275 0.0
H1120 H 0.75123 0.61303 0.52886 0.0
H1121 H 0.77492 0.77721 0.55218 0.0
H1122 H 0.76953 0.83347 0.53846 0.0
H1123 H 0.78321 0.79909 0.52356 0.0
H1124 H 0.76919 0.80041 0.4812 0.0
H1125 H 0.7553 0.83358 0.4962 0.0
H1126 H 0.75156 0.77746 0.48071 0.0
H1127 H 0.73215 0.66085 0.5518 0.0
H1128 H 0.71663 0.72107 0.57182 0.0
H1129 H 0.74255 0.83475 0.5409 0.0
C1130 C 0.77787 0.70279 0.49857 0.0
C1131 C 0.77952 0.65314 0.49444 0.0
C1132 C 0.76997 0.62083 0.50593 0.0
C1133 C 0.75869 0.63778 0.52064 0.0
C1134 C 0.75706 0.68715 0.52347 0.0
C1135 C 0.76649 0.7191 0.51293 0.0
C1136 C 0.76212 0.7704 0.51767 0.0
C1137 C 0.7731 0.79657 0.53394 0.0
C1138 C 0.75938 0.79701 0.49244 0.0
C1139 C 0.74869 0.76252 0.53237 0.0
C1140 C 0.74593 0.71433 0.53567 0.0
C1141 C 0.73421 0.69865 0.54922 0.0
C1142 C 0.72536 0.73313 0.56029 0.0
C1143 C 0.72821 0.78269 0.55756 0.0
C1144 C 0.7399 0.79724 0.54296 0.0
H1145 H 0.74006 0.901 0.21833 0.0
H1146 H 0.70369 0.99397 0.22148 0.0
H1147 H 0.71775 0.0554 0.24357 0.0
H1148 H 0.75411 0.93217 0.28013 0.0
H1149 H 0.77206 0.92954 0.26965 0.0
H1150 H 0.75902 0.89298 0.25436 0.0
H1151 H 0.76595 0.92954 0.21072 0.0
H1152 H 0.77882 0.96695 0.22596 0.0
H1153 H 0.76539 0.99358 0.20642 0.0
H1154 H 0.73552 0.10613 0.26571 0.0
H1155 H 0.7554 0.14062 0.28945 0.0
H1156 H 0.78068 0.01659 0.2709 0.0
C1157 C 0.735 0.93404 0.22396 0.0
C1158 C 0.72072 0.94255 0.21835 0.0
C1159 C 0.71456 0.9865 0.22575 0.0
C1160 C 0.7225 0.02175 0.23814 0.0
C1161 C 0.73661 0.01266 0.24288 0.0
C1162 C 0.7428 0.96976 0.23625 0.0
C1163 C 0.75814 0.96894 0.24387 0.0
C1164 C 0.76099 0.92852 0.26315 0.0
C1165 C 0.76763 0.96449 0.22034 0.0
C1166 C 0.75956 0.01789 0.25612 0.0
C1167 C 0.74701 0.04255 0.25516 0.0
C1168 C 0.74543 0.08739 0.26636 0.0
C1169 C 0.75679 0.10681 0.27966 0.0
C1170 C 0.76963 0.08172 0.28152 0.0
C1171 C 0.77113 0.03721 0.26905 0.0
H1172 H 0.49334 0.54976 0.44156 0.0
H1173 H 0.45531 0.51758 0.48345 0.0
H1174 H 0.46847 0.45959 0.51008 0.0
H1175 H 0.50701 0.42933 0.44086 0.0
H1176 H 0.52494 0.44817 0.44451 0.0
H1177 H 0.51252 0.48676 0.42877 0.0
H1178 H 0.51825 0.55516 0.46047 0.0
H1179 H 0.53083 0.51705 0.47601 0.0
H1180 H 0.51693 0.54406 0.49424 0.0
H1181 H 0.48609 0.4072 0.53292 0.0
H1182 H 0.50685 0.36807 0.55176 0.0
H1183 H 0.53315 0.43251 0.49374 0.0
C1184 C 0.48777 0.53079 0.45645 0.0
C1185 C 0.4733 0.53845 0.46059 0.0
C1186 C 0.4664 0.51251 0.48008 0.0
C1187 C 0.47377 0.47931 0.49516 0.0
C1188 C 0.488 0.4722 0.4903 0.0
C1189 C 0.49492 0.49738 0.47147 0.0
C1190 C 0.51027 0.48386 0.47031 0.0
C1191 C 0.51389 0.46065 0.44459 0.0
C1192 C 0.51962 0.52763 0.47558 0.0
C1193 C 0.51103 0.44771 0.49182 0.0
C1194 C 0.49804 0.44123 0.50299 0.0
C1195 C 0.49626 0.41163 0.52414 0.0
C1196 C 0.50811 0.3894 0.53464 0.0
C1197 C 0.52157 0.39666 0.52398 0.0
C1198 C 0.52295 0.42524 0.50188 0.0
H1199 H 0.53642 0.79755 0.74449 0.0
H1200 H 0.51165 0.83796 0.6785 0.0
H1201 H 0.49184 0.79078 0.69488 0.0
H1202 H 0.52358 0.67713 0.75022 0.0
H1203 H 0.52305 0.67725 0.78456 0.0
H1204 H 0.5355 0.71439 0.76795 0.0
H1205 H 0.52606 0.7896 0.79119 0.0
H1206 H 0.51377 0.75252 0.80819 0.0
H1207 H 0.50761 0.80297 0.7899 0.0
H1208 H 0.47475 0.73796 0.71763 0.0
H1209 H 0.46063 0.6906 0.74804 0.0
H1210 H 0.49606 0.68487 0.79972 0.0
C1211 C 0.52678 0.79684 0.73366 0.0
C1212 C 0.52562 0.82154 0.71019 0.0
C1213 C 0.51282 0.81951 0.69655 0.0
C1214 C 0.5015 0.79252 0.7056 0.0
C1215 C 0.50305 0.76778 0.72845 0.0
C1216 C 0.51526 0.77019 0.74254 0.0
C1217 C 0.51395 0.74114 0.76689 0.0
C1218 C 0.52466 0.70004 0.76742 0.0
C1219 C 0.51543 0.77349 0.79043 0.0
C1220 C 0.49913 0.72219 0.76422 0.0
C1221 C 0.49308 0.73762 0.74178 0.0
C1222 C 0.47937 0.72558 0.73528 0.0
C1223 C 0.47145 0.69836 0.75259 0.0
C1224 C 0.47724 0.68369 0.77617 0.0
C1225 C 0.49137 0.695 0.78171 0.0
H1226 H 0.4754 0.1912 0.25683 0.0
H1227 H 0.50383 0.1115 0.30539 0.0
H1228 H 0.52398 0.14652 0.28262 0.0
H1229 H 0.49749 0.18567 0.19772 0.0
H1230 H 0.49262 0.24559 0.1885 0.0
H1231 H 0.48051 0.2089 0.20622 0.0
H1232 H 0.47864 0.27559 0.24037 0.0
H1233 H 0.49099 0.31195 0.22312 0.0
H1234 H 0.4943 0.29654 0.25594 0.0
H1235 H 0.54106 0.19694 0.25793 0.0
H1236 H 0.55383 0.25387 0.23023 0.0
H1237 H 0.51438 0.30153 0.198 0.0
C1238 C 0.48585 0.17981 0.26201 0.0
C1239 C 0.48805 0.14821 0.2827 0.0
C1240 C 0.50191 0.13531 0.28945 0.0
C1241 C 0.51343 0.15515 0.27669 0.0
C1242 C 0.51095 0.18782 0.25713 0.0
C1243 C 0.49751 0.19952 0.24951 0.0
C1244 C 0.49776 0.23777 0.22896 0.0
C1245 C 0.49174 0.21831 0.20386 0.0
C1246 C 0.48996 0.28313 0.23763 0.0
C1247 C 0.51337 0.24664 0.22679 0.0
C1248 C 0.52081 0.21728 0.24308 0.0
C1249 C 0.53535 0.21983 0.24492 0.0
C1250 C 0.54251 0.25258 0.22929 0.0
C1251 C 0.53512 0.28241 0.21211 0.0
C1252 C 0.52034 0.27945 0.21106 0.0
H1253 H 0.4749 0.04111 0.9857 0.0
H1254 H 0.50243 0.1605 0.96889 0.0
H1255 H 0.52195 0.11855 0.99024 0.0
H1256 H 0.49025 0.00966 0.04822 0.0
H1257 H 0.48814 0.94634 0.04288 0.0
H1258 H 0.47613 0.98815 0.02851 0.0
H1259 H 0.48176 0.95194 0.98416 0.0
H1260 H 0.49406 0.91096 0.99836 0.0
H1261 H 0.49964 0.9506 0.97319 0.0
H1262 H 0.5388 0.06209 0.01168 0.0
H1263 H 0.55127 -0.00241 0.0347 0.0
H1264 H 0.51313 0.91323 0.03584 0.0
C1265 C 0.48492 0.05898 0.98726 0.0
C1266 C 0.48711 0.10443 0.97604 0.0
C1267 C 0.5005 0.12596 0.97765 0.0
C1268 C 0.51167 0.10228 0.9896 0.0
C1269 C 0.50934 0.05679 0.99965 0.0
C1270 C 0.49627 0.03549 0.99885 0.0
C1271 C 0.49674 0.98554 0.01025 0.0
C1272 C 0.48725 0.98225 0.03387 0.0
C1273 C 0.49282 0.94753 0.9903 0.0
C1274 C 0.51209 0.98211 0.01748 0.0
C1275 C 0.51917 0.02361 0.01123 0.0
C1276 C 0.53337 0.02936 0.01662 0.0
C1277 C 0.54041 0.99236 0.0295 0.0
C1278 C 0.53327 0.95003 0.03675 0.0
C1279 C 0.51899 0.94465 0.0301 0.0
H1280 H 0.16496 0.35357 0.0968 0.0
H1281 H 0.16232 0.37644 0.1785 0.0
H1282 H 0.13662 0.38125 0.17532 0.0
H1283 H 0.1371 0.43397 0.07926 0.0
H1284 H 0.13044 0.39668 0.05402 0.0
H1285 H 0.14871 0.39411 0.06244 0.0
H1286 H 0.14668 0.30265 0.06975 0.0
H1287 H 0.12841 0.30491 0.06133 0.0
H1288 H 0.13368 0.27991 0.09153 0.0
H1289 H 0.11166 0.38537 0.16379 0.0
H1290 H 0.08825 0.3875 0.14488 0.0
H1291 H 0.10607 0.36103 0.07 0.0
C1292 C 0.15895 0.35942 0.11402 0.0
C1293 C 0.16567 0.36462 0.13796 0.0
C1294 C 0.15744 0.3723 0.16001 0.0
C1295 C 0.14283 0.3751 0.15838 0.0
C1296 C 0.13655 0.37001 0.13458 0.0
C1297 C 0.14427 0.36221 0.11275 0.0
C1298 C 0.13475 0.35826 0.08958 0.0
C1299 C 0.13794 0.39813 0.07018 0.0
C1300 C 0.13596 0.30847 0.07732 0.0
C1301 C 0.12048 0.36535 0.10184 0.0
C1302 C 0.12188 0.37207 0.12782 0.0
C1303 C 0.11041 0.38002 0.1435 0.0
C1304 C 0.09712 0.38123 0.13245 0.0
C1305 C 0.09524 0.37444 0.10587 0.0
C1306 C 0.10713 0.36619 0.09035 0.0
H1307 H 0.09925 0.88072 0.13275 0.0
H1308 H 0.10142 0.85916 0.21456 0.0
H1309 H 0.12716 0.84948 0.21132 0.0
H1310 H 0.12503 0.79455 0.11576 0.0
H1311 H 0.13213 0.82956 0.08992 0.0
H1312 H 0.11405 0.83646 0.09889 0.0
H1313 H 0.11786 0.92751 0.10524 0.0
H1314 H 0.13595 0.92095 0.09619 0.0
H1315 H 0.13151 0.94789 0.12631 0.0
H1316 H 0.15262 0.83977 0.19866 0.0
H1317 H 0.17575 0.83242 0.17812 0.0
H1318 H 0.15685 0.86057 0.10441 0.0
C1319 C 0.10513 0.87431 0.15007 0.0
C1320 C 0.09832 0.87079 0.17398 0.0
C1321 C 0.10641 0.86215 0.1961 0.0
C1322 C 0.12103 0.85655 0.1944 0.0
C1323 C 0.12737 0.8598 0.17046 0.0
C1324 C 0.11966 0.86867 0.14871 0.0
C1325 C 0.12892 0.86987 0.12522 0.0
C1326 C 0.12478 0.83024 0.10634 0.0
C1327 C 0.12853 0.91951 0.1125 0.0
C1328 C 0.14309 0.85997 0.13707 0.0
C1329 C 0.14196 0.8543 0.16319 0.0
C1330 C 0.1536 0.84432 0.17825 0.0
C1331 C 0.16671 0.84014 0.16637 0.0
C1332 C 0.16814 0.84594 0.13963 0.0
C1333 C 0.15612 0.85602 0.12486 0.0
H1334 H 0.84603 0.63245 0.86946 0.0
H1335 H 0.85214 0.64868 0.78794 0.0
H1336 H 0.87781 0.64915 0.79455 0.0
H1337 H 0.87516 0.70823 0.88934 0.0
H1338 H 0.87951 0.67059 0.91614 0.0
H1339 H 0.86169 0.67396 0.90505 0.0
H1340 H 0.86117 0.58176 0.89982 0.0
H1341 H 0.87898 0.57808 0.91081 0.0
H1342 H 0.87425 0.55297 0.88039 0.0
H1343 H 0.9027 0.64311 0.80987 0.0
H1344 H 0.92509 0.63285 0.83249 0.0
H1345 H 0.90288 0.62179 0.90443 0.0
C1346 C 0.85275 0.63659 0.85298 0.0
C1347 C 0.84708 0.64062 0.82813 0.0
C1348 C 0.85625 0.64571 0.80711 0.0
C1349 C 0.87083 0.646 0.81071 0.0
C1350 C 0.87606 0.64142 0.83545 0.0
C1351 C 0.8673 0.63707 0.85624 0.0
C1352 C 0.87556 0.63139 0.88077 0.0
C1353 C 0.87282 0.67356 0.89889 0.0
C1354 C 0.87229 0.58318 0.8937 0.0
C1355 C 0.8904 0.63254 0.87052 0.0
C1356 C 0.89042 0.63845 0.84433 0.0
C1357 C 0.9028 0.63887 0.83037 0.0
C1358 C 0.91547 0.63288 0.84344 0.0
C1359 C 0.91576 0.62666 0.87027 0.0
C1360 C 0.90302 0.62693 0.88397 0.0
H1361 H 0.91555 0.10372 0.83606 0.0
H1362 H 0.9354 0.0918 0.91021 0.0
H1363 H 0.91226 0.08908 0.93078 0.0
H1364 H 0.88769 0.18073 0.85592 0.0
H1365 H 0.87464 0.1535 0.83584 0.0
H1366 H 0.89278 0.15219 0.82655 0.0
H1367 H 0.89173 0.05971 0.82314 0.0
H1368 H 0.87357 0.06078 0.83243 0.0
H1369 H 0.88591 0.02504 0.85015 0.0
H1370 H 0.88707 0.08943 0.94378 0.0
H1371 H 0.86135 0.09478 0.94815 0.0
H1372 H 0.85751 0.10773 0.86601 0.0
C1373 C 0.915 0.10014 0.85658 0.0
C1374 C 0.92733 0.09782 0.87148 0.0
C1375 C 0.92614 0.09358 0.89834 0.0
C1376 C 0.91303 0.09192 0.91025 0.0
C1377 C 0.9011 0.09457 0.89513 0.0
C1378 C 0.90192 0.09863 0.86889 0.0
C1379 C 0.8874 0.10223 0.85729 0.0
C1380 C 0.88552 0.15001 0.84307 0.0
C1381 C 0.88448 0.05939 0.83971 0.0
C1382 C 0.87837 0.10016 0.88111 0.0
C1383 C 0.8865 0.09534 0.90271 0.0
C1384 C 0.88058 0.09306 0.92699 0.0
C1385 C 0.86596 0.09608 0.9293 0.0
C1386 C 0.85741 0.10162 0.90747 0.0
C1387 C 0.86376 0.10342 0.88308 0.0
H1388 H 0.15983 0.89814 0.65019 0.0
H1389 H 0.1803 0.88485 0.57672 0.0
H1390 H 0.15728 0.87938 0.55565 0.0
H1391 H 0.13096 0.81741 0.63736 0.0
H1392 H 0.11831 0.85333 0.65421 0.0
H1393 H 0.13644 0.85439 0.66366 0.0
H1394 H 0.13687 0.94664 0.65826 0.0
H1395 H 0.11875 0.94585 0.64879 0.0
H1396 H 0.13169 0.97272 0.62825 0.0
H1397 H 0.13182 0.8751 0.54236 0.0
H1398 H 0.10596 0.87625 0.53812 0.0
H1399 H 0.1022 0.89545 0.61987 0.0
C1400 C 0.15945 0.89379 0.6297 0.0
C1401 C 0.17188 0.89175 0.61513 0.0
C1402 C 0.17093 0.88655 0.5883 0.0
C1403 C 0.15789 0.88328 0.57613 0.0
C1404 C 0.14583 0.88561 0.59098 0.0
C1405 C 0.14648 0.89102 0.61717 0.0
C1406 C 0.13194 0.89417 0.62857 0.0
C1407 C 0.12926 0.85233 0.64704 0.0
C1408 C 0.12968 0.94273 0.64174 0.0
C1409 C 0.12304 0.88978 0.60475 0.0
C1410 C 0.13123 0.88446 0.58326 0.0
C1411 C 0.1253 0.87936 0.55908 0.0
C1412 C 0.11062 0.88 0.55682 0.0
C1413 C 0.10207 0.88616 0.57859 0.0
C1414 C 0.10844 0.89096 0.60281 0.0
H1415 H 0.11087 0.38297 0.6733 0.0
H1416 H 0.09099 0.39013 0.59894 0.0
H1417 H 0.114 0.38986 0.57828 0.0
H1418 H 0.14012 0.46025 0.65752 0.0
H1419 H 0.15275 0.42644 0.67565 0.0
H1420 H 0.13463 0.42677 0.68518 0.0
H1421 H 0.13411 0.33411 0.68328 0.0
H1422 H 0.15223 0.33352 0.67376 0.0
H1423 H 0.13926 0.30422 0.65433 0.0
H1424 H 0.13887 0.38877 0.56501 0.0
H1425 H 0.16456 0.38735 0.5602 0.0
H1426 H 0.16906 0.38143 0.64248 0.0
C1427 C 0.1114 0.38445 0.6527 0.0
C1428 C 0.09906 0.38658 0.63782 0.0
C1429 C 0.10022 0.38852 0.61087 0.0
C1430 C 0.11328 0.38836 0.59885 0.0
C1431 C 0.12521 0.3863 0.61392 0.0
C1432 C 0.12447 0.38441 0.64023 0.0
C1433 C 0.13908 0.3826 0.65168 0.0
C1434 C 0.1418 0.42664 0.6685 0.0
C1435 C 0.1413 0.33582 0.66665 0.0
C1436 C 0.14801 0.38382 0.62768 0.0
C1437 C 0.13975 0.38588 0.60615 0.0
C1438 C 0.14548 0.38719 0.58172 0.0
C1439 C 0.16009 0.38637 0.57916 0.0
C1440 C 0.16883 0.38435 0.6009 0.0
C1441 C 0.16266 0.38307 0.62548 0.0
H1442 H 0.84971 0.11662 0.33544 0.0
H1443 H 0.82877 0.13495 0.40827 0.0
H1444 H 0.85151 0.14019 0.42977 0.0
H1445 H 0.87783 0.04303 0.35918 0.0
H1446 H 0.89105 0.06921 0.33898 0.0
H1447 H 0.87306 0.06807 0.3287 0.0
H1448 H 0.87356 0.16008 0.32242 0.0
H1449 H 0.89156 0.16146 0.33267 0.0
H1450 H 0.8787 0.19796 0.34859 0.0
H1451 H 0.87628 0.14205 0.44407 0.0
H1452 H 0.90192 0.14059 0.45 0.0
H1453 H 0.90741 0.12111 0.36854 0.0
C1454 C 0.84994 0.12197 0.35587 0.0
C1455 C 0.83739 0.12535 0.3701 0.0
C1456 C 0.83818 0.13215 0.39686 0.0
C1457 C 0.85108 0.13524 0.40933 0.0
C1458 C 0.86323 0.13151 0.39491 0.0
C1459 C 0.86284 0.12508 0.36878 0.0
C1460 C 0.87759 0.12154 0.35807 0.0
C1461 C 0.88002 0.07255 0.34549 0.0
C1462 C 0.88052 0.16272 0.33933 0.0
C1463 C 0.8862 0.12676 0.38228 0.0
C1464 C 0.87767 0.13257 0.40327 0.0
C1465 C 0.8831 0.13766 0.42778 0.0
C1466 C 0.89768 0.13677 0.43097 0.0
C1467 C 0.90668 0.13081 0.40979 0.0
C1468 C 0.90081 0.12584 0.38513 0.0
H1469 H 0.90205 0.61824 0.34575 0.0
H1470 H 0.92334 0.64794 0.41707 0.0
H1471 H 0.90091 0.6432 0.43999 0.0
H1472 H 0.87113 0.68783 0.3598 0.0
H1473 H 0.85928 0.64659 0.3446 0.0
H1474 H 0.8771 0.65128 0.33367 0.0
H1475 H 0.88041 0.56007 0.34051 0.0
H1476 H 0.86261 0.55516 0.35156 0.0
H1477 H 0.87678 0.53431 0.37134 0.0
H1478 H 0.87616 0.63503 0.45561 0.0
H1479 H 0.85058 0.6276 0.46213 0.0
H1480 H 0.84511 0.60472 0.38097 0.0
C1481 C 0.90197 0.62371 0.36617 0.0
C1482 C 0.9145 0.6334 0.37957 0.0
C1483 C 0.91392 0.64051 0.40631 0.0
C1484 C 0.90121 0.63778 0.41958 0.0
C1485 C 0.88907 0.62806 0.40592 0.0
C1486 C 0.88929 0.62139 0.3798 0.0
C1487 C 0.87464 0.61245 0.36973 0.0
C1488 C 0.87028 0.65189 0.35083 0.0
C1489 C 0.87355 0.56253 0.35757 0.0
C1490 C 0.86621 0.61523 0.39423 0.0
C1491 C 0.87474 0.62398 0.41491 0.0
C1492 C 0.86935 0.62817 0.43954 0.0
C1493 C 0.85483 0.62378 0.4431 0.0
C1494 C 0.84585 0.61555 0.42213 0.0
C1495 C 0.85169 0.61095 0.39743 0.0
H1496 H 0.60217 0.37776 0.60788 0.0
H1497 H 0.60311 0.36478 0.52552 0.0
H1498 H 0.62902 0.37072 0.52645 0.0
H1499 H 0.6293 0.46343 0.61363 0.0
H1500 H 0.6364 0.43825 0.64252 0.0
H1501 H 0.6181 0.4311 0.63532 0.0
H1502 H 0.62058 0.33898 0.6392 0.0
H1503 H 0.63888 0.34583 0.64659 0.0
H1504 H 0.63357 0.30835 0.62038 0.0
H1505 H 0.65483 0.38224 0.53665 0.0
H1506 H 0.67838 0.39406 0.55504 0.0
H1507 H 0.66034 0.39784 0.63091 0.0
C1508 C 0.60781 0.37578 0.59 0.0
C1509 C 0.60062 0.37082 0.56657 0.0
C1510 C 0.6084 0.36838 0.54366 0.0
C1511 C 0.6231 0.37186 0.54404 0.0
C1512 C 0.62983 0.3774 0.56749 0.0
C1513 C 0.62241 0.37891 0.59006 0.0
C1514 C 0.63204 0.38544 0.61275 0.0
C1515 C 0.62877 0.43235 0.62688 0.0
C1516 C 0.63122 0.34206 0.63079 0.0
C1517 C 0.64609 0.38791 0.59947 0.0
C1518 C 0.6446 0.3833 0.57336 0.0
C1519 C 0.6561 0.38557 0.55706 0.0
C1520 C 0.66944 0.39244 0.5677 0.0
C1521 C 0.67122 0.3968 0.59443 0.0
C1522 C 0.65934 0.39445 0.61043 0.0
H1523 H 0.60524 0.87836 0.63163 0.0
H1524 H 0.60634 0.88045 0.71428 0.0
H1525 H 0.63231 0.88007 0.71285 0.0
H1526 H 0.6343 0.79891 0.62289 0.0
H1527 H 0.64055 0.82912 0.59472 0.0
H1528 H 0.62219 0.83026 0.60246 0.0
H1529 H 0.62247 0.92302 0.60132 0.0
H1530 H 0.64083 0.9222 0.59355 0.0
H1531 H 0.63477 0.95512 0.62094 0.0
H1532 H 0.65826 0.87999 0.70192 0.0
H1533 H 0.6819 0.87904 0.68284 0.0
H1534 H 0.66354 0.87554 0.60726 0.0
C1535 C 0.61091 0.87888 0.6495 0.0
C1536 C 0.60376 0.87961 0.67312 0.0
C1537 C 0.6116 0.87998 0.696 0.0
C1538 C 0.62633 0.87976 0.69533 0.0
C1539 C 0.63303 0.87899 0.67165 0.0
C1540 C 0.62554 0.87844 0.64916 0.0
C1541 C 0.63515 0.87716 0.62618 0.0
C1542 C 0.63291 0.83112 0.61066 0.0
C1543 C 0.63319 0.92205 0.60952 0.0
C1544 C 0.64929 0.87718 0.63917 0.0
C1545 C 0.64786 0.87835 0.6654 0.0
C1546 C 0.65948 0.87899 0.68142 0.0
C1547 C 0.67287 0.87847 0.67038 0.0
C1548 C 0.67458 0.87714 0.64354 0.0
C1549 C 0.66259 0.8764 0.62782 0.0
H1550 H 0.40662 0.65986 0.3663 0.0
H1551 H 0.40771 0.53503 0.41563 0.0
H1552 H 0.38354 0.51484 0.40286 0.0
H1553 H 0.37048 0.69112 0.38001 0.0
H1554 H 0.36692 0.71143 0.34804 0.0
H1555 H 0.38439 0.71549 0.36072 0.0
H1556 H 0.3937 0.66676 0.32233 0.0
H1557 H 0.37622 0.66202 0.3097 0.0
H1558 H 0.38634 0.60867 0.31564 0.0
H1559 H 0.35975 0.50633 0.38363 0.0
H1560 H 0.3366 0.51528 0.36363 0.0
H1561 H 0.35009 0.64817 0.32824 0.0
C1562 C 0.40172 0.62842 0.37449 0.0
C1563 C 0.40905 0.59889 0.39193 0.0
C1564 C 0.40228 0.55825 0.40236 0.0
C1565 C 0.38859 0.54632 0.39508 0.0
C1566 C 0.38173 0.57574 0.37758 0.0
C1567 C 0.38795 0.61642 0.36775 0.0
C1568 C 0.37801 0.64288 0.35004 0.0
C1569 C 0.37476 0.69321 0.36032 0.0
C1570 C 0.38393 0.6452 0.32281 0.0
C1571 C 0.36526 0.61058 0.35139 0.0
C1572 C 0.36774 0.57175 0.36714 0.0
C1573 C 0.35765 0.5367 0.37137 0.0
C1574 C 0.34454 0.54204 0.35979 0.0
C1575 C 0.3415 0.58243 0.34433 0.0
C1576 C 0.35211 0.6168 0.33983 0.0
H1577 H 0.41236 0.13998 0.3818 0.0
H1578 H 0.40909 0.11277 0.30062 0.0
H1579 H 0.3833 0.10898 0.30461 0.0
H1580 H 0.3845 0.06076 0.40117 0.0
H1581 H 0.3784 0.09944 0.42628 0.0
H1582 H 0.39655 0.10043 0.41703 0.0
H1583 H 0.39495 0.19177 0.40885 0.0
H1584 H 0.37679 0.19108 0.41808 0.0
H1585 H 0.3818 0.21458 0.38739 0.0
H1586 H 0.358 0.10913 0.31731 0.0
H1587 H 0.3348 0.11147 0.33764 0.0
H1588 H 0.35428 0.13716 0.41109 0.0
C1589 C 0.40622 0.13327 0.36483 0.0
C1590 C 0.41274 0.12677 0.34083 0.0
C1591 C 0.40433 0.11787 0.31915 0.0
C1592 C 0.38968 0.11569 0.32126 0.0
C1593 C 0.38361 0.12228 0.34519 0.0
C1594 C 0.3916 0.13075 0.36663 0.0
C1595 C 0.38245 0.13623 0.39013 0.0
C1596 C 0.38567 0.09686 0.40981 0.0
C1597 C 0.3841 0.1864 0.40179 0.0
C1598 C 0.36803 0.12965 0.37858 0.0
C1599 C 0.36898 0.12177 0.35261 0.0
C1600 C 0.35714 0.11516 0.33762 0.0
C1601 C 0.34398 0.11663 0.3494 0.0
C1602 C 0.34268 0.12446 0.376 0.0
C1603 C 0.35492 0.13096 0.39076 0.0
H1604 H 0.65627 0.85363 0.11932 0.0
H1605 H 0.65386 0.86388 0.20173 0.0
H1606 H 0.62809 0.86939 0.19894 0.0
H1607 H 0.62854 0.93653 0.1054 0.0
H1608 H 0.62194 0.90313 0.07861 0.0
H1609 H 0.6402 0.89944 0.08698 0.0
H1610 H 0.63824 0.80714 0.09036 0.0
H1611 H 0.61999 0.81051 0.08193 0.0
H1612 H 0.62521 0.78107 0.11101 0.0
H1613 H 0.60274 0.87507 0.1873 0.0
H1614 H 0.57931 0.87863 0.16789 0.0
H1615 H 0.59781 0.86392 0.09273 0.0
C1616 C 0.65032 0.85688 0.13679 0.0
C1617 C 0.65709 0.8583 0.16079 0.0
C1618 C 0.64892 0.86264 0.18317 0.0
C1619 C 0.63427 0.86584 0.18176 0.0
C1620 C 0.62794 0.86455 0.15783 0.0
C1621 C 0.63567 0.86 0.13573 0.0
C1622 C 0.62623 0.85949 0.11243 0.0
C1623 C 0.62942 0.90219 0.09482 0.0
C1624 C 0.6275 0.81171 0.09809 0.0
C1625 C 0.61197 0.86459 0.12488 0.0
C1626 C 0.61324 0.86753 0.15109 0.0
C1627 C 0.60161 0.87269 0.16682 0.0
C1628 C 0.58833 0.87472 0.15556 0.0
C1629 C 0.58668 0.87152 0.12876 0.0
C1630 C 0.59871 0.86643 0.11325 0.0
H1631 H 0.66 0.34719 0.08127 0.0
H1632 H 0.67753 0.34879 0.15763 0.0
H1633 H 0.65395 0.35577 0.17576 0.0
H1634 H 0.63158 0.43154 0.09369 0.0
H1635 H 0.61903 0.40002 0.07434 0.0
H1636 H 0.6374 0.39688 0.06673 0.0
H1637 H 0.63638 0.30428 0.06887 0.0
H1638 H 0.61801 0.30715 0.07644 0.0
H1639 H 0.62984 0.2756 0.0973 0.0
H1640 H 0.62881 0.36166 0.18628 0.0
H1641 H 0.60305 0.36309 0.18849 0.0
H1642 H 0.60093 0.35596 0.10592 0.0
C1643 C 0.65883 0.34927 0.10177 0.0
C1644 C 0.67067 0.34746 0.11799 0.0
C1645 C 0.66868 0.34992 0.14475 0.0
C1646 C 0.65531 0.35407 0.15531 0.0
C1647 C 0.64388 0.35554 0.13895 0.0
C1648 C 0.64542 0.35302 0.11277 0.0
C1649 C 0.6312 0.35385 0.09979 0.0
C1650 C 0.62972 0.39822 0.08262 0.0
C1651 C 0.62871 0.30746 0.08471 0.0
C1652 C 0.62154 0.35695 0.1228 0.0
C1653 C 0.62915 0.35823 0.14514 0.0
C1654 C 0.62271 0.36074 0.16892 0.0
C1655 C 0.60806 0.36158 0.16999 0.0
C1656 C 0.59996 0.35967 0.14743 0.0
C1657 C 0.60684 0.35758 0.12351 0.0
H1658 H 0.4063 0.13435 0.92675 0.0
H1659 H 0.42637 0.15355 0.85314 0.0
H1660 H 0.40357 0.14808 0.8319 0.0
H1661 H 0.38034 0.04906 0.90559 0.0
H1662 H 0.36649 0.07263 0.92524 0.0
H1663 H 0.38445 0.07843 0.93523 0.0
H1664 H 0.38136 0.17031 0.93888 0.0
H1665 H 0.36338 0.16476 0.92894 0.0
H1666 H 0.3751 0.20376 0.91176 0.0
H1667 H 0.37881 0.13947 0.81793 0.0
H1668 H 0.35327 0.12982 0.81258 0.0
H1669 H 0.34862 0.11697 0.89461 0.0
C1670 C 0.40586 0.13753 0.9062 0.0
C1671 C 0.4182 0.1444 0.8917 0.0
C1672 C 0.41714 0.14832 0.86479 0.0
C1673 C 0.4042 0.14523 0.85244 0.0
C1674 C 0.39226 0.13829 0.86713 0.0
C1675 C 0.3929 0.13463 0.89341 0.0
C1676 C 0.37835 0.12727 0.90445 0.0
C1677 C 0.37735 0.07897 0.91845 0.0
C1678 C 0.37431 0.16902 0.92205 0.0
C1679 C 0.36955 0.12729 0.88028 0.0
C1680 C 0.37783 0.13363 0.85899 0.0
C1681 C 0.37219 0.13458 0.83447 0.0
C1682 C 0.35767 0.12903 0.83159 0.0
C1683 C 0.34892 0.12271 0.8531 0.0
C1684 C 0.35501 0.12184 0.87776 0.0
H1685 H 0.40695 0.66489 0.88388 0.0
H1686 H 0.40446 0.59654 0.80979 0.0
H1687 H 0.3794 0.57952 0.8172 0.0
H1688 H 0.38376 0.58371 0.91694 0.0
H1689 H 0.37579 0.62968 0.93616 0.0
H1690 H 0.39356 0.63659 0.92525 0.0
H1691 H 0.38715 0.7178 0.90439 0.0
H1692 H 0.36938 0.71129 0.91536 0.0
H1693 H 0.37288 0.72055 0.88195 0.0
H1694 H 0.35487 0.56999 0.83233 0.0
H1695 H 0.33189 0.57077 0.8533 0.0
H1696 H 0.34975 0.64534 0.91815 0.0
C1697 C 0.40112 0.64641 0.86919 0.0
C1698 C 0.40767 0.63202 0.84619 0.0
C1699 C 0.39968 0.60795 0.82748 0.0
C1700 C 0.38545 0.59802 0.83157 0.0
C1701 C 0.37935 0.61239 0.85448 0.0
C1702 C 0.38688 0.63624 0.87296 0.0
C1703 C 0.37769 0.64821 0.89575 0.0
C1704 C 0.38302 0.62304 0.91996 0.0
C1705 C 0.37672 0.7027 0.89958 0.0
C1706 C 0.36378 0.62749 0.88714 0.0
C1707 C 0.36507 0.60689 0.86329 0.0
C1708 C 0.35375 0.58596 0.85099 0.0
C1709 C 0.34071 0.58662 0.86314 0.0
C1710 C 0.33898 0.60807 0.88743 0.0
C1711 C 0.35075 0.62834 0.89971 0.0
H1712 H 0.04952 0.01537 0.122 0.0
H1713 H 0.04389 0.03837 0.2031 0.0
H1714 H 0.04067 0.12514 0.19522 0.0
H1715 H 0.07 0.1182 0.11136 0.0
H1716 H 0.06288 0.13054 0.08023 0.0
H1717 H 0.06328 0.07005 0.09207 0.0
H1718 H 0.03651 0.06289 0.08495 0.0
H1719 H 0.03602 0.12347 0.07311 0.0
H1720 H 0.02494 0.10609 0.09935 0.0
H1721 H 0.03895 0.20954 0.17846 0.0
H1722 H 0.04062 0.28582 0.1547 0.0
H1723 H 0.04848 0.20712 0.0849 0.0
C1724 C 0.04739 0.03857 0.13806 0.0
C1725 C 0.04681 0.02034 0.16313 0.0
C1726 C 0.04431 0.05181 0.18374 0.0
C1727 C 0.04242 0.10099 0.17943 0.0
C1728 C 0.04316 0.11791 0.15444 0.0
C1729 C 0.04569 0.08766 0.13414 0.0
C1730 C 0.04707 0.11511 0.10939 0.0
C1731 C 0.06167 0.10806 0.09758 0.0
C1732 C 0.03544 0.10105 0.0906 0.0
C1733 C 0.0451 0.16568 0.11896 0.0
C1734 C 0.04264 0.16653 0.14492 0.0
C1735 C 0.04081 0.20931 0.15812 0.0
C1736 C 0.04174 0.2524 0.14446 0.0
C1737 C 0.04467 0.25224 0.118 0.0
C1738 C 0.04619 0.20827 0.10511 0.0
H1739 H 0.21549 0.00316 0.0911 0.0
H1740 H 0.22564 0.95338 0.16724 0.0
H1741 H 0.22831 0.03734 0.18143 0.0
H1742 H 0.23946 0.10793 0.09112 0.0
H1743 H 0.22724 0.14398 0.07328 0.0
H1744 H 0.22774 0.08005 0.06868 0.0
H1745 H 0.20124 0.07516 0.07899 0.0
H1746 H 0.20068 0.13885 0.08386 0.0
H1747 H 0.19488 0.09894 0.10875 0.0
H1748 H 0.22667 0.12634 0.18842 0.0
H1749 H 0.22267 0.21383 0.18693 0.0
H1750 H 0.21459 0.20485 0.10575 0.0
C1751 C 0.21857 0.0099 0.11063 0.0
C1752 C 0.22037 0.97196 0.12811 0.0
C1753 C 0.22431 0.98206 0.15354 0.0
C1754 C 0.22583 0.02957 0.16175 0.0
C1755 C 0.22359 0.06627 0.14416 0.0
C1756 C 0.22027 0.05692 0.11903 0.0
C1757 C 0.2177 0.1026 0.10421 0.0
C1758 C 0.22869 0.10901 0.08308 0.0
C1759 C 0.20274 0.10394 0.09333 0.0
C1760 C 0.21961 0.13911 0.12514 0.0
C1761 C 0.22305 0.11753 0.14804 0.0
C1762 C 0.22427 0.14373 0.1705 0.0
C1763 C 0.22191 0.19327 0.16951 0.0
C1764 C 0.21846 0.21593 0.14619 0.0
C1765 C 0.21746 0.1885 0.12374 0.0
H1766 H 0.96356 0.73958 0.8501 0.0
H1767 H 0.98318 0.74002 0.92446 0.0
H1768 H 0.99195 0.82216 0.91668 0.0
H1769 H 0.98911 0.81922 0.81582 0.0
H1770 H 0.97529 0.84963 0.7989 0.0
H1771 H 0.97329 0.78755 0.80769 0.0
H1772 H 0.95018 0.80783 0.83121 0.0
H1773 H 0.9521 0.86973 0.82249 0.0
H1774 H 0.95023 0.8533 0.85556 0.0
H1775 H 0.99631 0.90575 0.9031 0.0
H1776 H 0.99365 0.98837 0.88736 0.0
H1777 H 0.96948 0.93627 0.82311 0.0
C1778 C 0.97012 0.75662 0.86426 0.0
C1779 C 0.97304 0.73373 0.88759 0.0
C1780 C 0.98107 0.75726 0.90635 0.0
C1781 C 0.98614 0.80359 0.902 0.0
C1782 C 0.98288 0.82587 0.87896 0.0
C1783 C 0.97491 0.80341 0.86049 0.0
C1784 C 0.97093 0.83781 0.83936 0.0
C1785 C 0.97756 0.82264 0.81393 0.0
C1786 C 0.95492 0.84244 0.83704 0.0
C1787 C 0.97749 0.88346 0.84927 0.0
C1788 C 0.98469 0.87539 0.87173 0.0
C1789 C 0.99087 0.91248 0.88537 0.0
C1790 C 0.98929 0.95928 0.87627 0.0
C1791 C 0.98136 0.9686 0.85402 0.0
C1792 C 0.97572 0.93006 0.84002 0.0
H1793 H 0.80834 0.94675 0.91894 0.0
H1794 H 0.78544 0.02317 0.86014 0.0
H1795 H 0.7786 0.94648 0.84073 0.0
H1796 H 0.8225 0.86048 0.87976 0.0
H1797 H 0.82114 0.81127 0.9019 0.0
H1798 H 0.82253 0.87156 0.9136 0.0
H1799 H 0.79957 0.86055 0.93926 0.0
H1800 H 0.79813 0.8 0.92768 0.0
H1801 H 0.7839 0.84149 0.92307 0.0
H1802 H 0.77748 0.86415 0.82377 0.0
H1803 H 0.78114 0.77969 0.81154 0.0
H1804 H 0.80359 0.75441 0.88203 0.0
C1805 C 0.80157 0.9472 0.90239 0.0
C1806 C 0.79739 0.99087 0.89107 0.0
C1807 C 0.78875 0.99013 0.86916 0.0
C1808 C 0.78476 0.94674 0.85803 0.0
C1809 C 0.78936 0.90432 0.8692 0.0
C1810 C 0.79744 0.90403 0.89106 0.0
C1811 C 0.80191 0.8535 0.89793 0.0
C1812 C 0.81797 0.84896 0.8983 0.0
C1813 C 0.79549 0.83797 0.92351 0.0
C1814 C 0.79556 0.82582 0.87595 0.0
C1815 C 0.78829 0.85592 0.85971 0.0
C1816 C 0.78281 0.83993 0.83665 0.0
C1817 C 0.78497 0.79207 0.82981 0.0
C1818 C 0.79238 0.76073 0.84611 0.0
C1819 C 0.79749 0.7775 0.86969 0.0
H1820 H 0.04935 0.72096 0.58235 0.0
H1821 H 0.05372 0.79923 0.65324 0.0
H1822 H 0.05247 0.72308 0.67731 0.0
H1823 H 0.0248 0.63032 0.60695 0.0
H1824 H 0.03241 0.58338 0.58791 0.0
H1825 H 0.03267 0.64435 0.57661 0.0
H1826 H 0.05964 0.63982 0.57165 0.0
H1827 H 0.05947 0.57899 0.58299 0.0
H1828 H 0.07021 0.62304 0.5987 0.0
H1829 H 0.05339 0.63766 0.69302 0.0
H1830 H 0.05476 0.54984 0.69932 0.0
H1831 H 0.04839 0.5287 0.61829 0.0
C1832 C 0.04986 0.72211 0.60296 0.0
C1833 C 0.05166 0.76578 0.61599 0.0
C1834 C 0.05228 0.76601 0.64295 0.0
C1835 C 0.05159 0.72301 0.65675 0.0
C1836 C 0.05004 0.68038 0.64328 0.0
C1837 C 0.04898 0.67971 0.617 0.0
C1838 C 0.04776 0.62916 0.60699 0.0
C1839 C 0.03356 0.62136 0.59384 0.0
C1840 C 0.06 0.61706 0.58903 0.0
C1841 C 0.04869 0.60137 0.63167 0.0
C1842 C 0.05001 0.63146 0.65242 0.0
C1843 C 0.05209 0.61375 0.67699 0.0
C1844 C 0.0529 0.56396 0.68038 0.0
C1845 C 0.0515 0.53274 0.65933 0.0
C1846 C 0.0492 0.55179 0.63479 0.0
H1847 H 0.21836 0.53138 0.6365 0.0
H1848 H 0.22661 0.5332 0.55523 0.0
H1849 H 0.23082 0.62058 0.55715 0.0
H1850 H 0.19879 0.63654 0.6372 0.0
H1851 H 0.20493 0.65654 0.66786 0.0
H1852 H 0.20456 0.59363 0.66066 0.0
H1853 H 0.231 0.5873 0.67127 0.0
H1854 H 0.23145 0.65037 0.67847 0.0
H1855 H 0.24329 0.62585 0.65512 0.0
H1856 H 0.23258 0.70823 0.56754 0.0
H1857 H 0.22979 0.79005 0.58476 0.0
H1858 H 0.21927 0.73045 0.65874 0.0
C1859 C 0.22134 0.55004 0.61922 0.0
C1860 C 0.22232 0.52576 0.59577 0.0
C1861 C 0.22588 0.55137 0.5734 0.0
C1862 C 0.22836 0.60083 0.57434 0.0
C1863 C 0.22715 0.62392 0.59777 0.0
C1864 C 0.22363 0.59938 0.61977 0.0
C1865 C 0.22159 0.63306 0.64199 0.0
C1866 C 0.20658 0.62974 0.65253 0.0
C1867 C 0.23249 0.62357 0.66295 0.0
C1868 C 0.22418 0.68052 0.62893 0.0
C1869 C 0.22766 0.6745 0.60356 0.0
C1870 C 0.22998 0.71338 0.58742 0.0
C1871 C 0.2284 0.75966 0.59736 0.0
C1872 C 0.22432 0.76638 0.62304 0.0
C1873 C 0.22245 0.72629 0.63906 0.0
H1874 H 0.96022 0.46417 0.34014 0.0
H1875 H 0.97244 0.53165 0.41113 0.0
H1876 H 0.97463 0.45197 0.43134 0.0
H1877 H 0.93914 0.37681 0.36597 0.0
H1878 H 0.94403 0.32997 0.34411 0.0
H1879 H 0.94517 0.3916 0.33436 0.0
H1880 H 0.97139 0.38036 0.32313 0.0
H1881 H 0.9703 0.31841 0.33263 0.0
H1882 H 0.98322 0.35704 0.34685 0.0
H1883 H 0.97203 0.3662 0.44526 0.0
H1884 H 0.96684 0.27994 0.45081 0.0
H1885 H 0.95752 0.26865 0.37016 0.0
C1886 C 0.96367 0.4621 0.35977 0.0
C1887 C 0.96617 0.50389 0.37411 0.0
C1888 C 0.97057 0.49993 0.39978 0.0
C1889 C 0.97182 0.45488 0.41142 0.0
C1890 C 0.96887 0.41433 0.39694 0.0
C1891 C 0.96513 0.4175 0.37154 0.0
C1892 C 0.9618 0.3688 0.36055 0.0
C1893 C 0.94664 0.3667 0.35068 0.0
C1894 C 0.97231 0.35536 0.33955 0.0
C1895 C 0.96373 0.33791 0.38397 0.0
C1896 C 0.96785 0.36474 0.40477 0.0
C1897 C 0.96911 0.34462 0.429 0.0
C1898 C 0.96608 0.29577 0.432 0.0
C1899 C 0.96194 0.26779 0.41086 0.0
C1900 C 0.96093 0.28909 0.38655 0.0
H1901 H 0.79045 0.25148 0.39342 0.0
H1902 H 0.78592 0.27522 0.31218 0.0
H1903 H 0.78342 0.36223 0.31973 0.0
H1904 H 0.76712 0.34861 0.41583 0.0
H1905 H 0.77858 0.36378 0.44187 0.0
H1906 H 0.77778 0.30297 0.43049 0.0
H1907 H 0.80462 0.30355 0.42329 0.0
H1908 H 0.8055 0.36427 0.43456 0.0
H1909 H 0.81229 0.34943 0.4035 0.0
H1910 H 0.78298 0.44633 0.33575 0.0
H1911 H 0.7866 0.52255 0.35856 0.0
H1912 H 0.79311 0.44427 0.42909 0.0
C1913 C 0.78855 0.27499 0.37735 0.0
C1914 C 0.78813 0.25699 0.35228 0.0
C1915 C 0.78614 0.28863 0.33153 0.0
C1916 C 0.78465 0.33792 0.33566 0.0
C1917 C 0.78535 0.35478 0.3606 0.0
C1918 C 0.78736 0.32434 0.38109 0.0
C1919 C 0.78936 0.35199 0.40561 0.0
C1920 C 0.7775 0.34119 0.42457 0.0
C1921 C 0.8038 0.3417 0.41742 0.0
C1922 C 0.78842 0.40274 0.39563 0.0
C1923 C 0.78581 0.40353 0.36972 0.0
C1924 C 0.78493 0.44622 0.35607 0.0
C1925 C 0.78699 0.48928 0.36918 0.0
C1926 C 0.79014 0.48914 0.39554 0.0
C1927 C 0.79068 0.44534 0.40894 0.0
H1928 H 0.55347 0.01292 0.61568 0.0
H1929 H 0.55035 0.04021 0.69685 0.0
H1930 H 0.54771 0.12684 0.68812 0.0
H1931 H 0.57433 0.11329 0.60134 0.0
H1932 H 0.56627 0.12509 0.57092 0.0
H1933 H 0.56656 0.06508 0.58345 0.0
H1934 H 0.53956 0.06029 0.57947 0.0
H1935 H 0.53918 0.12036 0.56688 0.0
H1936 H 0.52887 0.10531 0.59453 0.0
H1937 H 0.54654 0.21077 0.67052 0.0
H1938 H 0.54784 0.28583 0.6456 0.0
H1939 H 0.55243 0.20335 0.57608 0.0
C1940 C 0.55201 0.03704 0.6316 0.0
C1941 C 0.552 0.01994 0.65694 0.0
C1942 C 0.55033 0.05265 0.67729 0.0
C1943 C 0.54879 0.10183 0.67251 0.0
C1944 C 0.549 0.11761 0.64729 0.0
C1945 C 0.5506 0.08618 0.62718 0.0
C1946 C 0.55136 0.11249 0.60197 0.0
C1947 C 0.56547 0.10345 0.58865 0.0
C1948 C 0.539 0.09879 0.5847 0.0
C1949 C 0.55015 0.16372 0.61105 0.0
C1950 C 0.54863 0.16592 0.63721 0.0
C1951 C 0.54765 0.20947 0.65001 0.0
C1952 C 0.54839 0.25189 0.6357 0.0
C1953 C 0.55023 0.25037 0.60893 0.0
C1954 C 0.55098 0.20564 0.59651 0.0
H1955 H 0.72009 0.24491 0.64825 0.0
H1956 H 0.72658 0.28107 0.56868 0.0
H1957 H 0.72895 0.19504 0.5584 0.0
H1958 H 0.74474 0.14242 0.64972 0.0
H1959 H 0.73376 0.10862 0.67114 0.0
H1960 H 0.73379 0.17312 0.67242 0.0
H1961 H 0.70689 0.17365 0.66606 0.0
H1962 H 0.70678 0.1093 0.66456 0.0
H1963 H 0.69947 0.14387 0.63877 0.0
H1964 H 0.72752 0.10526 0.55612 0.0
H1965 H 0.72461 0.01806 0.56253 0.0
H1966 H 0.72058 0.04035 0.64396 0.0
C1967 C 0.72227 0.23475 0.62874 0.0
C1968 C 0.72316 0.26954 0.60923 0.0
C1969 C 0.72596 0.25495 0.58392 0.0
C1970 C 0.72729 0.2062 0.57791 0.0
C1971 C 0.72603 0.1727 0.59752 0.0
C1972 C 0.72383 0.18637 0.6225 0.0
C1973 C 0.72243 0.14325 0.63988 0.0
C1974 C 0.73439 0.14177 0.65944 0.0
C1975 C 0.70804 0.1425 0.65308 0.0
C1976 C 0.72376 0.10314 0.62067 0.0
C1977 C 0.72581 0.12089 0.59633 0.0
C1978 C 0.72622 0.09091 0.57514 0.0
C1979 C 0.7245 0.04153 0.57894 0.0
C1980 C 0.72256 0.02266 0.60374 0.0
C1981 C 0.72235 0.05385 0.62486 0.0
H1982 H 0.46132 0.76696 0.3646 0.0
H1983 H 0.45564 0.77506 0.4465 0.0
H1984 H 0.45822 0.86338 0.44436 0.0
H1985 H 0.48668 0.86383 0.35832 0.0
H1986 H 0.47928 0.88425 0.32865 0.0
H1987 H 0.47826 0.82186 0.33725 0.0
H1988 H 0.45127 0.82426 0.33201 0.0
H1989 H 0.45221 0.88652 0.32337 0.0
H1990 H 0.44126 0.86788 0.34956 0.0
H1991 H 0.46034 0.95169 0.43238 0.0
H1992 H 0.46046 0.03145 0.41154 0.0
H1993 H 0.46406 0.96304 0.33769 0.0
C1994 C 0.46081 0.78715 0.38218 0.0
C1995 C 0.45837 0.76431 0.40574 0.0
C1996 C 0.45756 0.79203 0.42826 0.0
C1997 C 0.45906 0.84208 0.42722 0.0
C1998 C 0.46135 0.86353 0.40354 0.0
C1999 C 0.46218 0.83679 0.38144 0.0
C2000 C 0.46375 0.86815 0.35815 0.0
C2001 C 0.47783 0.85897 0.34481 0.0
C2002 C 0.45139 0.86129 0.3397 0.0
C2003 C 0.46343 0.91694 0.37045 0.0
C2004 C 0.46224 0.91376 0.39666 0.0
C2005 C 0.46136 0.95454 0.41189 0.0
C2006 C 0.46146 -0.00039 0.39993 0.0
C2007 C 0.46226 0.00323 0.37305 0.0
C2008 C 0.46346 0.96133 0.35829 0.0
H2009 H 0.29429 0.78309 0.32724 0.0
H2010 H 0.29078 0.71401 0.40111 0.0
H2011 H 0.28981 0.79333 0.42187 0.0
H2012 H 0.31616 0.87765 0.34586 0.0
H2013 H 0.30795 0.92225 0.326 0.0
H2014 H 0.30748 0.86022 0.31682 0.0
H2015 H 0.2804 0.86343 0.31446 0.0
H2016 H 0.28078 0.92562 0.32354 0.0
H2017 H 0.27058 0.88343 0.34177 0.0
H2018 H 0.29179 0.87939 0.43474 0.0
H2019 H 0.29462 0.96706 0.43873 0.0
H2020 H 0.29521 0.98054 0.35639 0.0
C2021 C 0.29314 0.78471 0.34776 0.0
C2022 C 0.29263 0.74255 0.36263 0.0
C2023 C 0.29113 0.74597 0.3894 0.0
C2024 C 0.29059 0.7908 0.40134 0.0
C2025 C 0.29132 0.83173 0.38616 0.0
C2026 C 0.29236 0.82915 0.35993 0.0
C2027 C 0.29323 0.87856 0.34808 0.0
C2028 C 0.30703 0.88503 0.33333 0.0
C2029 C 0.28049 0.88833 0.33095 0.0
C2030 C 0.29288 0.90932 0.37179 0.0
C2031 C 0.29183 0.88157 0.39356 0.0
C2032 C 0.29235 0.90158 0.41784 0.0
C2033 C 0.29402 0.95127 0.41992 0.0
C2034 C 0.29495 0.98033 0.39786 0.0
C2035 C 0.29422 0.95911 0.37352 0.0
H2036 H 0.55249 0.50084 0.10528 0.0
H2037 H 0.53302 0.49456 0.1799 0.0
H2038 H 0.52614 0.57948 0.17596 0.0
H2039 H 0.56746 0.6144 0.11381 0.0
H2040 H 0.56514 0.63395 0.08133 0.0
H2041 H 0.56686 0.57115 0.08837 0.0
H2042 H 0.5433 0.55444 0.06562 0.0
H2043 H 0.54149 0.61733 0.05855 0.0
H2044 H 0.52779 0.58626 0.07547 0.0
H2045 H 0.52268 0.66545 0.16539 0.0
H2046 H 0.52444 0.74895 0.15044 0.0
H2047 H 0.54713 0.70121 0.08344 0.0
C2048 C 0.54652 0.51721 0.1205 0.0
C2049 C 0.54313 0.49125 0.14277 0.0
C2050 C 0.53566 0.51396 0.16265 0.0
C2051 C 0.53164 0.56202 0.16053 0.0
C2052 C 0.53528 0.58692 0.13848 0.0
C2053 C 0.54264 0.5655 0.11887 0.0
C2054 C 0.54644 0.60162 0.09841 0.0
C2055 C 0.56242 0.6055 0.09532 0.0
C2056 C 0.53933 0.58916 0.07301 0.0
C2057 C 0.54031 0.6468 0.10984 0.0
C2058 C 0.5337 0.63726 0.13273 0.0
C2059 C 0.52772 0.67336 0.1474 0.0
C2060 C 0.52877 0.72068 0.13874 0.0
C2061 C 0.53589 0.73151 0.11576 0.0
C2062 C 0.54151 0.69393 0.10095 0.0
H2063 H 0.7142 0.51233 0.09031 0.0
H2064 H 0.72331 0.44706 0.16355 0.0
H2065 H 0.72268 0.52693 0.18383 0.0
H2066 H 0.73467 0.62235 0.10058 0.0
H2067 H 0.72211 0.65894 0.08387 0.0
H2068 H 0.72444 0.59712 0.07506 0.0
H2069 H 0.69791 0.58224 0.08178 0.0
H2070 H 0.69552 0.6438 0.09085 0.0
H2071 H 0.69006 0.59655 0.11208 0.0
H2072 H 0.71865 0.61306 0.19662 0.0
H2073 H 0.7133 0.69954 0.20034 0.0
H2074 H 0.70763 0.70787 0.11842 0.0
C2075 C 0.71631 0.51491 0.11054 0.0
C2076 C 0.71882 0.47362 0.12539 0.0
C2077 C 0.72145 0.47837 0.15182 0.0
C2078 C 0.72107 0.52352 0.1635 0.0
C2079 C 0.71823 0.56346 0.14839 0.0
C2080 C 0.71609 0.55962 0.12242 0.0
C2081 C 0.71278 0.6077 0.11056 0.0
C2082 C 0.72418 0.62239 0.09139 0.0
C2083 C 0.6982 0.60753 0.09809 0.0
C2084 C 0.71308 0.63909 0.13399 0.0
C2085 C 0.71623 0.613 0.15565 0.0
C2086 C 0.71637 0.63398 0.17974 0.0
C2087 C 0.71326 0.68298 0.18169 0.0
C2088 C 0.71015 0.71029 0.15965 0.0
C2089 C 0.71013 0.68796 0.13556 0.0
H2090 H 0.4684 0.29334 0.87437 0.0
H2091 H 0.46172 0.31066 0.95557 0.0
H2092 H 0.46292 0.39872 0.95045 0.0
H2093 H 0.49164 0.39747 0.86439 0.0
H2094 H 0.48368 0.41194 0.8342 0.0
H2095 H 0.48437 0.3506 0.84487 0.0
H2096 H 0.45744 0.34388 0.83986 0.0
H2097 H 0.45668 0.40505 0.8292 0.0
H2098 H 0.44631 0.38612 0.8561 0.0
H2099 H 0.46325 0.4847 0.93589 0.0
H2100 H 0.46068 0.56145 0.91276 0.0
H2101 H 0.46582 0.48696 0.84089 0.0
C2102 C 0.46753 0.31568 0.89115 0.0
C2103 C 0.46515 0.29545 0.91541 0.0
C2104 C 0.46364 0.32567 0.93685 0.0
C2105 C 0.46437 0.37561 0.93413 0.0
C2106 C 0.46653 0.39453 0.90983 0.0
C2107 C 0.46799 0.36545 0.88869 0.0
C2108 C 0.46869 0.3945 0.86437 0.0
C2109 C 0.48295 0.38825 0.85119 0.0
C2110 C 0.45656 0.38162 0.84634 0.0
C2111 C 0.46707 0.44445 0.87504 0.0
C2112 C 0.46613 0.44386 0.90133 0.0
C2113 C 0.46408 0.48565 0.91533 0.0
C2114 C 0.46266 0.52903 0.90205 0.0
C2115 C 0.46306 0.52998 0.87508 0.0
C2116 C 0.46553 0.48725 0.86152 0.0
H2117 H 0.29885 0.24995 0.8974 0.0
H2118 H 0.28553 0.2562 0.81848 0.0
H2119 H 0.27827 0.34039 0.82427 0.0
H2120 H 0.27215 0.33273 0.92423 0.0
H2121 H 0.2846 0.35987 0.94559 0.0
H2122 H 0.28654 0.29796 0.93658 0.0
H2123 H 0.31175 0.31517 0.92066 0.0
H2124 H 0.30989 0.3769 0.92971 0.0
H2125 H 0.31456 0.36183 0.89742 0.0
H2126 H 0.27438 0.42493 0.83738 0.0
H2127 H 0.27637 0.50617 0.8555 0.0
H2128 H 0.29338 0.44597 0.92521 0.0
C2129 C 0.2941 0.26884 0.88157 0.0
C2130 C 0.29259 0.24683 0.8576 0.0
C2131 C 0.28672 0.27271 0.83702 0.0
C2132 C 0.28246 0.32029 0.84019 0.0
C2133 C 0.28426 0.34137 0.86399 0.0
C2134 C 0.29005 0.31664 0.88428 0.0
C2135 C 0.29247 0.34921 0.90685 0.0
C2136 C 0.28339 0.33403 0.92966 0.0
C2137 C 0.30809 0.35088 0.91406 0.0
C2138 C 0.28756 0.39635 0.89579 0.0
C2139 C 0.28253 0.39083 0.87129 0.0
C2140 C 0.27813 0.4297 0.85666 0.0
C2141 C 0.27929 0.47565 0.8671 0.0
C2142 C 0.28502 0.48215 0.89172 0.0
C2143 C 0.28886 0.44191 0.90641 0.0
loop_
_geom_bond_atom_site_label_1
_geom_bond_atom_site_label_2
_geom_bond_distance
_geom_bond_site_symmetry_2
_ccdc_geom_bond_type
In0 O1 2.294 . S
In0 O2 2.326 . S
In0 O6 2.266 . S
In0 O7 2.326 . S
In0 O8 2.266 . S
In0 O9 2.326 . S
In0 O11 2.294 . S
In0 O12 2.326 . S
O1 In0 2.294 . S
O1 C10 1.240 . S
O2 In0 2.326 . S
O2 C10 1.252 . S
C3 O6 1.252 . S
C3 O7 1.260 . S
C4 O11 1.240 . S
C4 O12 1.252 . S
C5 O8 1.252 . S
C5 O9 1.260 . S
O6 In0 2.266 . S
O6 C3 1.252 . S
O7 In0 2.326 . S
O7 C3 1.260 . S
O8 In0 2.266 . S
O8 C5 1.252 . S
O9 In0 2.326 . S
O9 C5 1.260 . S
C10 O1 1.240 . S
C10 O2 1.252 . S
O11 In0 2.294 . S
O11 C4 1.240 . S
O12 In0 2.326 . S
O12 C4 1.252 . S
In13 O14 2.294 . S
In13 O15 2.326 . S
In13 O19 2.266 . S
In13 O20 2.326 . S
In13 O21 2.266 . S
In13 O22 2.326 . S
In13 O24 2.294 . S
In13 O25 2.326 . S
O14 In13 2.294 . S
O14 C23 1.240 . S
O15 In13 2.326 . S
O15 C23 1.252 . S
C16 O19 1.252 . S
C16 O20 1.260 . S
C17 O24 1.240 . S
C17 O25 1.252 . S
C18 O21 1.252 . S
C18 O22 1.260 . S
O19 In13 2.266 . S
O19 C16 1.252 . S
O20 In13 2.326 . S
O20 C16 1.260 . S
O21 In13 2.266 . S
O21 C18 1.252 . S
O22 In13 2.326 . S
O22 C18 1.260 . S
C23 O14 1.240 . S
C23 O15 1.252 . S
O24 In13 2.294 . S
O24 C17 1.240 . S
O25 In13 2.326 . S
O25 C17 1.252 . S
In26 O27 2.294 . S
In26 O28 2.326 . S
In26 O32 2.266 . S
In26 O33 2.326 . S
In26 O34 2.266 . S
In26 O35 2.326 . S
In26 O37 2.294 . S
In26 O38 2.326 . S
O27 In26 2.294 . S
O27 C36 1.240 . S
O28 In26 2.326 . S
O28 C36 1.252 . S
C29 O32 1.252 . S
C29 O33 1.260 . S
C30 O37 1.240 . S
C30 O38 1.252 . S
C31 O34 1.252 . S
C31 O35 1.260 . S
O32 In26 2.266 . S
O32 C29 1.252 . S
O33 In26 2.326 . S
O33 C29 1.260 . S
O34 In26 2.266 . S
O34 C31 1.252 . S
O35 In26 2.326 . S
O35 C31 1.260 . S
C36 O27 1.240 . S
C36 O28 1.252 . S
O37 In26 2.294 . S
O37 C30 1.240 . S
O38 In26 2.326 . S
O38 C30 1.252 . S
In39 O40 2.294 . S
In39 O41 2.326 . S
In39 O45 2.266 . S
In39 O46 2.326 . S
In39 O47 2.266 . S
In39 O48 2.326 . S
In39 O50 2.294 . S
In39 O51 2.326 . S
O40 In39 2.294 . S
O40 C49 1.240 . S
O41 In39 2.326 . S
O41 C49 1.252 . S
C42 O45 1.252 . S
C42 O46 1.260 . S
C43 O50 1.240 . S
C43 O51 1.252 . S
C44 O47 1.252 . S
C44 O48 1.260 . S
O45 In39 2.266 . S
O45 C42 1.252 . S
O46 In39 2.326 . S
O46 C42 1.260 . S
O47 In39 2.266 . S
O47 C44 1.252 . S
O48 In39 2.326 . S
O48 C44 1.260 . S
C49 O40 1.240 . S
C49 O41 1.252 . S
O50 In39 2.294 . S
O50 C43 1.240 . S
O51 In39 2.326 . S
O51 C43 1.252 . S
In52 O53 2.294 . S
In52 O54 2.326 . S
In52 O58 2.266 . S
In52 O59 2.326 . S
In52 O60 2.266 . S
In52 O61 2.326 . S
In52 O63 2.294 . S
In52 O64 2.326 . S
O53 In52 2.294 . S
O53 C62 1.240 . S
O54 In52 2.326 . S
O54 C62 1.252 . S
C55 O58 1.252 . S
C55 O59 1.260 . S
C56 O63 1.240 . S
C56 O64 1.252 . S
C57 O60 1.252 . S
C57 O61 1.260 . S
O58 In52 2.266 . S
O58 C55 1.252 . S
O59 In52 2.326 . S
O59 C55 1.260 . S
O60 In52 2.266 . S
O60 C57 1.252 . S
O61 In52 2.326 . S
O61 C57 1.260 . S
C62 O53 1.240 . S
C62 O54 1.252 . S
O63 In52 2.294 . S
O63 C56 1.240 . S
O64 In52 2.326 . S
O64 C56 1.252 . S
In65 O66 2.294 . S
In65 O67 2.326 . S
In65 O71 2.266 . S
In65 O72 2.326 . S
In65 O73 2.266 . S
In65 O74 2.326 . S
In65 O76 2.294 . S
In65 O77 2.326 . S
O66 In65 2.294 . S
O66 C75 1.240 . S
O67 In65 2.326 . S
O67 C75 1.252 . S
C68 O71 1.252 . S
C68 O72 1.260 . S
C69 O76 1.240 . S
C69 O77 1.252 . S
C70 O73 1.252 . S
C70 O74 1.260 . S
O71 In65 2.266 . S
O71 C68 1.252 . S
O72 In65 2.326 . S
O72 C68 1.260 . S
O73 In65 2.266 . S
O73 C70 1.252 . S
O74 In65 2.326 . S
O74 C70 1.260 . S
C75 O66 1.240 . S
C75 O67 1.252 . S
O76 In65 2.294 . S
O76 C69 1.240 . S
O77 In65 2.326 . S
O77 C69 1.252 . S
In78 O79 2.294 . S
In78 O80 2.326 . S
In78 O84 2.266 . S
In78 O85 2.326 . S
In78 O86 2.266 . S
In78 O87 2.326 . S
In78 O89 2.294 . S
In78 O90 2.326 . S
O79 In78 2.294 . S
O79 C88 1.240 . S
O80 In78 2.326 . S
O80 C88 1.252 . S
C81 O84 1.252 . S
C81 O85 1.260 . S
C82 O89 1.240 . S
C82 O90 1.252 . S
C83 O86 1.252 . S
C83 O87 1.260 . S
O84 In78 2.266 . S
O84 C81 1.252 . S
O85 In78 2.326 . S
O85 C81 1.260 . S
O86 In78 2.266 . S
O86 C83 1.252 . S
O87 In78 2.326 . S
O87 C83 1.260 . S
C88 O79 1.240 . S
C88 O80 1.252 . S
O89 In78 2.294 . S
O89 C82 1.240 . S
O90 In78 2.326 . S
O90 C82 1.252 . S
In91 O92 2.294 . S
In91 O93 2.326 . S
In91 O97 2.266 . S
In91 O98 2.326 . S
In91 O99 2.266 . S
In91 O100 2.326 . S
In91 O102 2.294 . S
In91 O103 2.326 . S
O92 In91 2.294 . S
O92 C101 1.240 . S
O93 In91 2.326 . S
O93 C101 1.252 . S
C94 O97 1.252 . S
C94 O98 1.260 . S
C95 O102 1.240 . S
C95 O103 1.252 . S
C96 O99 1.252 . S
C96 O100 1.260 . S
O97 In91 2.266 . S
O97 C94 1.252 . S
O98 In91 2.326 . S
O98 C94 1.260 . S
O99 In91 2.266 . S
O99 C96 1.252 . S
O100 In91 2.326 . S
O100 C96 1.260 . S
C101 O92 1.240 . S
C101 O93 1.252 . S
O102 In91 2.294 . S
O102 C95 1.240 . S
O103 In91 2.326 . S
O103 C95 1.252 . S
In104 O105 2.294 . S
In104 O106 2.326 . S
In104 O110 2.266 . S
In104 O111 2.326 . S
In104 O112 2.266 . S
In104 O113 2.326 . S
In104 O115 2.294 . S
In104 O116 2.326 . S
O105 In104 2.294 . S
O105 C114 1.240 . S
O106 In104 2.326 . S
O106 C114 1.252 . S
C107 O110 1.252 . S
C107 O111 1.260 . S
C108 O115 1.240 . S
C108 O116 1.252 . S
C109 O112 1.252 . S
C109 O113 1.260 . S
O110 In104 2.266 . S
O110 C107 1.252 . S
O111 In104 2.326 . S
O111 C107 1.260 . S
O112 In104 2.266 . S
O112 C109 1.252 . S
O113 In104 2.326 . S
O113 C109 1.260 . S
C114 O105 1.240 . S
C114 O106 1.252 . S
O115 In104 2.294 . S
O115 C108 1.240 . S
O116 In104 2.326 . S
O116 C108 1.252 . S
In117 O118 2.294 . S
In117 O119 2.326 . S
In117 O123 2.266 . S
In117 O124 2.326 . S
In117 O125 2.266 . S
In117 O126 2.326 . S
In117 O128 2.294 . S
In117 O129 2.326 . S
O118 In117 2.294 . S
O118 C127 1.240 . S
O119 In117 2.326 . S
O119 C127 1.252 . S
C120 O123 1.252 . S
C120 O124 1.260 . S
C121 O128 1.240 . S
C121 O129 1.252 . S
C122 O125 1.252 . S
C122 O126 1.260 . S
O123 In117 2.266 . S
O123 C120 1.252 . S
O124 In117 2.326 . S
O124 C120 1.260 . S
O125 In117 2.266 . S
O125 C122 1.252 . S
O126 In117 2.326 . S
O126 C122 1.260 . S
C127 O118 1.240 . S
C127 O119 1.252 . S
O128 In117 2.294 . S
O128 C121 1.240 . S
O129 In117 2.326 . S
O129 C121 1.252 . S
In130 O131 2.294 . S
In130 O132 2.326 . S
In130 O136 2.266 . S
In130 O137 2.326 . S
In130 O138 2.266 . S
In130 O139 2.326 . S
In130 O141 2.294 . S
In130 O142 2.326 . S
O131 In130 2.294 . S
O131 C140 1.240 . S
O132 In130 2.326 . S
O132 C140 1.252 . S
C133 O136 1.252 . S
C133 O137 1.260 . S
C134 O141 1.240 . S
C134 O142 1.252 . S
C135 O138 1.252 . S
C135 O139 1.260 . S
O136 In130 2.266 . S
O136 C133 1.252 . S
O137 In130 2.326 . S
O137 C133 1.260 . S
O138 In130 2.266 . S
O138 C135 1.252 . S
O139 In130 2.326 . S
O139 C135 1.260 . S
C140 O131 1.240 . S
C140 O132 1.252 . S
O141 In130 2.294 . S
O141 C134 1.240 . S
O142 In130 2.326 . S
O142 C134 1.252 . S
In143 O144 2.294 . S
In143 O145 2.326 . S
In143 O149 2.266 . S
In143 O150 2.326 . S
In143 O151 2.266 . S
In143 O152 2.326 . S
In143 O154 2.294 . S
In143 O155 2.326 . S
O144 In143 2.294 . S
O144 C153 1.240 . S
O145 In143 2.326 . S
O145 C153 1.252 . S
C146 O149 1.252 . S
C146 O150 1.260 . S
C147 O154 1.240 . S
C147 O155 1.252 . S
C148 O151 1.252 . S
C148 O152 1.260 . S
O149 In143 2.266 . S
O149 C146 1.252 . S
O150 In143 2.326 . S
O150 C146 1.260 . S
O151 In143 2.266 . S
O151 C148 1.252 . S
O152 In143 2.326 . S
O152 C148 1.260 . S
C153 O144 1.240 . S
C153 O145 1.252 . S
O154 In143 2.294 . S
O154 C147 1.240 . S
O155 In143 2.326 . S
O155 C147 1.252 . S
In156 O157 2.294 . S
In156 O158 2.326 . S
In156 O162 2.266 . S
In156 O163 2.326 . S
In156 O164 2.266 . S
In156 O165 2.326 . S
In156 O167 2.294 . S
In156 O168 2.326 . S
O157 In156 2.294 . S
O157 C166 1.240 . S
O158 In156 2.326 . S
O158 C166 1.252 . S
C159 O162 1.252 . S
C159 O163 1.260 . S
C160 O167 1.240 . S
C160 O168 1.252 . S
C161 O164 1.252 . S
C161 O165 1.260 . S
O162 In156 2.266 . S
O162 C159 1.252 . S
O163 In156 2.326 . S
O163 C159 1.260 . S
O164 In156 2.266 . S
O164 C161 1.252 . S
O165 In156 2.326 . S
O165 C161 1.260 . S
C166 O157 1.240 . S
C166 O158 1.252 . S
O167 In156 2.294 . S
O167 C160 1.240 . S
O168 In156 2.326 . S
O168 C160 1.252 . S
In169 O170 2.294 . S
In169 O171 2.326 . S
In169 O175 2.266 . S
In169 O176 2.326 . S
In169 O177 2.266 . S
In169 O178 2.326 . S
In169 O180 2.294 . S
In169 O181 2.326 . S
O170 In169 2.294 . S
O170 C179 1.240 . S
O171 In169 2.326 . S
O171 C179 1.252 . S
C172 O175 1.252 . S
C172 O176 1.260 . S
C173 O180 1.240 . S
C173 O181 1.252 . S
C174 O177 1.252 . S
C174 O178 1.260 . S
O175 In169 2.266 . S
O175 C172 1.252 . S
O176 In169 2.326 . S
O176 C172 1.260 . S
O177 In169 2.266 . S
O177 C174 1.252 . S
O178 In169 2.326 . S
O178 C174 1.260 . S
C179 O170 1.240 . S
C179 O171 1.252 . S
O180 In169 2.294 . S
O180 C173 1.240 . S
O181 In169 2.326 . S
O181 C173 1.252 . S
In182 O183 2.294 . S
In182 O184 2.326 . S
In182 O188 2.266 . S
In182 O189 2.326 . S
In182 O190 2.266 . S
In182 O191 2.326 . S
In182 O193 2.294 . S
In182 O194 2.326 . S
O183 In182 2.294 . S
O183 C192 1.240 . S
O184 In182 2.326 . S
O184 C192 1.252 . S
C185 O188 1.252 . S
C185 O189 1.260 . S
C186 O193 1.240 . S
C186 O194 1.252 . S
C187 O190 1.252 . S
C187 O191 1.260 . S
O188 In182 2.266 . S
O188 C185 1.252 . S
O189 In182 2.326 . S
O189 C185 1.260 . S
O190 In182 2.266 . S
O190 C187 1.252 . S
O191 In182 2.326 . S
O191 C187 1.260 . S
C192 O183 1.240 . S
C192 O184 1.252 . S
O193 In182 2.294 . S
O193 C186 1.240 . S
O194 In182 2.326 . S
O194 C186 1.252 . S
In195 O196 2.294 . S
In195 O197 2.326 . S
In195 O201 2.266 . S
In195 O202 2.326 . S
In195 O203 2.266 . S
In195 O204 2.326 . S
In195 O206 2.294 . S
In195 O207 2.326 . S
O196 In195 2.294 . S
O196 C205 1.240 . S
O197 In195 2.326 . S
O197 C205 1.252 . S
C198 O201 1.252 . S
C198 O202 1.260 . S
C199 O206 1.240 . S
C199 O207 1.252 . S
C200 O203 1.252 . S
C200 O204 1.260 . S
O201 In195 2.266 . S
O201 C198 1.252 . S
O202 In195 2.326 . S
O202 C198 1.260 . S
O203 In195 2.266 . S
O203 C200 1.252 . S
O204 In195 2.326 . S
O204 C200 1.260 . S
C205 O196 1.240 . S
C205 O197 1.252 . S
O206 In195 2.294 . S
O206 C199 1.240 . S
O207 In195 2.326 . S
O207 C199 1.252 . S
In208 O209 2.294 . S
In208 O210 2.326 . S
In208 O214 2.266 . S
In208 O215 2.326 . S
In208 O216 2.266 . S
In208 O217 2.326 . S
In208 O219 2.294 . S
In208 O220 2.326 . S
O209 In208 2.294 . S
O209 C218 1.240 . S
O210 In208 2.326 . S
O210 C218 1.252 . S
C211 O214 1.252 . S
C211 O215 1.260 . S
C212 O219 1.240 . S
C212 O220 1.252 . S
C213 O216 1.252 . S
C213 O217 1.260 . S
O214 In208 2.266 . S
O214 C211 1.252 . S
O215 In208 2.326 . S
O215 C211 1.260 . S
O216 In208 2.266 . S
O216 C213 1.252 . S
O217 In208 2.326 . S
O217 C213 1.260 . S
C218 O209 1.240 . S
C218 O210 1.252 . S
O219 In208 2.294 . S
O219 C212 1.240 . S
O220 In208 2.326 . S
O220 C212 1.252 . S
In221 O222 2.294 . S
In221 O223 2.326 . S
In221 O227 2.266 . S
In221 O228 2.326 . S
In221 O229 2.266 . S
In221 O230 2.326 . S
In221 O232 2.294 . S
In221 O233 2.326 . S
O222 In221 2.294 . S
O222 C231 1.240 . S
O223 In221 2.326 . S
O223 C231 1.252 . S
C224 O227 1.252 . S
C224 O228 1.260 . S
C225 O232 1.240 . S
C225 O233 1.252 . S
C226 O229 1.252 . S
C226 O230 1.260 . S
O227 In221 2.266 . S
O227 C224 1.252 . S
O228 In221 2.326 . S
O228 C224 1.260 . S
O229 In221 2.266 . S
O229 C226 1.252 . S
O230 In221 2.326 . S
O230 C226 1.260 . S
C231 O222 1.240 . S
C231 O223 1.252 . S
O232 In221 2.294 . S
O232 C225 1.240 . S
O233 In221 2.326 . S
O233 C225 1.252 . S
In234 O235 2.294 . S
In234 O236 2.326 . S
In234 O240 2.266 . S
In234 O241 2.326 . S
In234 O242 2.266 . S
In234 O243 2.326 . S
In234 O245 2.294 . S
In234 O246 2.326 . S
O235 In234 2.294 . S
O235 C244 1.240 . S
O236 In234 2.326 . S
O236 C244 1.252 . S
C237 O240 1.252 . S
C237 O241 1.260 . S
C238 O245 1.240 . S
C238 O246 1.252 . S
C239 O242 1.252 . S
C239 O243 1.260 . S
O240 In234 2.266 . S
O240 C237 1.252 . S
O241 In234 2.326 . S
O241 C237 1.260 . S
O242 In234 2.266 . S
O242 C239 1.252 . S
O243 In234 2.326 . S
O243 C239 1.260 . S
C244 O235 1.240 . S
C244 O236 1.252 . S
O245 In234 2.294 . S
O245 C238 1.240 . S
O246 In234 2.326 . S
O246 C238 1.252 . S
In247 O248 2.294 . S
In247 O249 2.326 . S
In247 O253 2.266 . S
In247 O254 2.326 . S
In247 O255 2.266 . S
In247 O256 2.326 . S
In247 O258 2.294 . S
In247 O259 2.326 . S
O248 In247 2.294 . S
O248 C257 1.240 . S
O249 In247 2.326 . S
O249 C257 1.252 . S
C250 O253 1.252 . S
C250 O254 1.260 . S
C251 O258 1.240 . S
C251 O259 1.252 . S
C252 O255 1.252 . S
C252 O256 1.260 . S
O253 In247 2.266 . S
O253 C250 1.252 . S
O254 In247 2.326 . S
O254 C250 1.260 . S
O255 In247 2.266 . S
O255 C252 1.252 . S
O256 In247 2.326 . S
O256 C252 1.260 . S
C257 O248 1.240 . S
C257 O249 1.252 . S
O258 In247 2.294 . S
O258 C251 1.240 . S
O259 In247 2.326 . S
O259 C251 1.252 . S
In260 O261 2.294 . S
In260 O262 2.326 . S
In260 O266 2.266 . S
In260 O267 2.326 . S
In260 O268 2.266 . S
In260 O269 2.326 . S
In260 O271 2.294 . S
In260 O272 2.326 . S
O261 In260 2.294 . S
O261 C270 1.240 . S
O262 In260 2.326 . S
O262 C270 1.252 . S
C263 O266 1.252 . S
C263 O267 1.260 . S
C264 O271 1.240 . S
C264 O272 1.252 . S
C265 O268 1.252 . S
C265 O269 1.260 . S
O266 In260 2.266 . S
O266 C263 1.252 . S
O267 In260 2.326 . S
O267 C263 1.260 . S
O268 In260 2.266 . S
O268 C265 1.252 . S
O269 In260 2.326 . S
O269 C265 1.260 . S
C270 O261 1.240 . S
C270 O262 1.252 . S
O271 In260 2.294 . S
O271 C264 1.240 . S
O272 In260 2.326 . S
O272 C264 1.252 . S
In273 O274 2.294 . S
In273 O275 2.326 . S
In273 O279 2.266 . S
In273 O280 2.326 . S
In273 O281 2.266 . S
In273 O282 2.326 . S
In273 O284 2.294 . S
In273 O285 2.326 . S
O274 In273 2.294 . S
O274 C283 1.240 . S
O275 In273 2.326 . S
O275 C283 1.252 . S
C276 O279 1.252 . S
C276 O280 1.260 . S
C277 O284 1.240 . S
C277 O285 1.252 . S
C278 O281 1.252 . S
C278 O282 1.260 . S
O279 In273 2.266 . S
O279 C276 1.252 . S
O280 In273 2.326 . S
O280 C276 1.260 . S
O281 In273 2.266 . S
O281 C278 1.252 . S
O282 In273 2.326 . S
O282 C278 1.260 . S
C283 O274 1.240 . S
C283 O275 1.252 . S
O284 In273 2.294 . S
O284 C277 1.240 . S
O285 In273 2.326 . S
O285 C277 1.252 . S
In286 O287 2.294 . S
In286 O288 2.326 . S
In286 O292 2.266 . S
In286 O293 2.326 . S
In286 O294 2.266 . S
In286 O295 2.326 . S
In286 O297 2.294 . S
In286 O298 2.326 . S
O287 In286 2.294 . S
O287 C296 1.240 . S
O288 In286 2.326 . S
O288 C296 1.252 . S
C289 O292 1.252 . S
C289 O293 1.260 . S
C290 O297 1.240 . S
C290 O298 1.252 . S
C291 O294 1.252 . S
C291 O295 1.260 . S
O292 In286 2.266 . S
O292 C289 1.252 . S
O293 In286 2.326 . S
O293 C289 1.260 . S
O294 In286 2.266 . S
O294 C291 1.252 . S
O295 In286 2.326 . S
O295 C291 1.260 . S
C296 O287 1.240 . S
C296 O288 1.252 . S
O297 In286 2.294 . S
O297 C290 1.240 . S
O298 In286 2.326 . S
O298 C290 1.252 . S
In299 O300 2.294 . S
In299 O301 2.326 . S
In299 O305 2.266 . S
In299 O306 2.326 . S
In299 O307 2.266 . S
In299 O308 2.326 . S
In299 O310 2.294 . S
In299 O311 2.326 . S
O300 In299 2.294 . S
O300 C309 1.240 . S
O301 In299 2.326 . S
O301 C309 1.252 . S
C302 O305 1.252 . S
C302 O306 1.260 . S
C303 O310 1.240 . S
C303 O311 1.252 . S
C304 O307 1.252 . S
C304 O308 1.260 . S
O305 In299 2.266 . S
O305 C302 1.252 . S
O306 In299 2.326 . S
O306 C302 1.260 . S
O307 In299 2.266 . S
O307 C304 1.252 . S
O308 In299 2.326 . S
O308 C304 1.260 . S
C309 O300 1.240 . S
C309 O301 1.252 . S
O310 In299 2.294 . S
O310 C303 1.240 . S
O311 In299 2.326 . S
O311 C303 1.252 . S
In312 O313 2.294 . S
In312 O314 2.326 . S
In312 O318 2.266 . S
In312 O319 2.326 . S
In312 O320 2.266 . S
In312 O321 2.326 . S
In312 O323 2.294 . S
In312 O324 2.326 . S
O313 In312 2.294 . S
O313 C322 1.240 . S
O314 In312 2.326 . S
O314 C322 1.252 . S
C315 O318 1.252 . S
C315 O319 1.260 . S
C316 O323 1.240 . S
C316 O324 1.252 . S
C317 O320 1.252 . S
C317 O321 1.260 . S
O318 In312 2.266 . S
O318 C315 1.252 . S
O319 In312 2.326 . S
O319 C315 1.260 . S
O320 In312 2.266 . S
O320 C317 1.252 . S
O321 In312 2.326 . S
O321 C317 1.260 . S
C322 O313 1.240 . S
C322 O314 1.252 . S
O323 In312 2.294 . S
O323 C316 1.240 . S
O324 In312 2.326 . S
O324 C316 1.252 . S
In325 O326 2.294 . S
In325 O327 2.326 . S
In325 O331 2.266 . S
In325 O332 2.326 . S
In325 O333 2.266 . S
In325 O334 2.326 . S
In325 O336 2.294 . S
In325 O337 2.326 . S
O326 In325 2.294 . S
O326 C335 1.240 . S
O327 In325 2.326 . S
O327 C335 1.252 . S
C328 O331 1.252 . S
C328 O332 1.260 . S
C329 O336 1.240 . S
C329 O337 1.252 . S
C330 O333 1.252 . S
C330 O334 1.260 . S
O331 In325 2.266 . S
O331 C328 1.252 . S
O332 In325 2.326 . S
O332 C328 1.260 . S
O333 In325 2.266 . S
O333 C330 1.252 . S
O334 In325 2.326 . S
O334 C330 1.260 . S
C335 O326 1.240 . S
C335 O327 1.252 . S
O336 In325 2.294 . S
O336 C329 1.240 . S
O337 In325 2.326 . S
O337 C329 1.252 . S
In338 O339 2.294 . S
In338 O340 2.326 . S
In338 O344 2.266 . S
In338 O345 2.326 . S
In338 O346 2.266 . S
In338 O347 2.326 . S
In338 O349 2.294 . S
In338 O350 2.326 . S
O339 In338 2.294 . S
O339 C348 1.240 . S
O340 In338 2.326 . S
O340 C348 1.252 . S
C341 O344 1.252 . S
C341 O345 1.260 . S
C342 O349 1.240 . S
C342 O350 1.252 . S
C343 O346 1.252 . S
C343 O347 1.260 . S
O344 In338 2.266 . S
O344 C341 1.252 . S
O345 In338 2.326 . S
O345 C341 1.260 . S
O346 In338 2.266 . S
O346 C343 1.252 . S
O347 In338 2.326 . S
O347 C343 1.260 . S
C348 O339 1.240 . S
C348 O340 1.252 . S
O349 In338 2.294 . S
O349 C342 1.240 . S
O350 In338 2.326 . S
O350 C342 1.252 . S
In351 O352 2.294 . S
In351 O353 2.326 . S
In351 O357 2.266 . S
In351 O358 2.326 . S
In351 O359 2.266 . S
In351 O360 2.326 . S
In351 O362 2.294 . S
In351 O363 2.326 . S
O352 In351 2.294 . S
O352 C361 1.240 . S
O353 In351 2.326 . S
O353 C361 1.252 . S
C354 O357 1.252 . S
C354 O358 1.260 . S
C355 O362 1.240 . S
C355 O363 1.252 . S
C356 O359 1.252 . S
C356 O360 1.260 . S
O357 In351 2.266 . S
O357 C354 1.252 . S
O358 In351 2.326 . S
O358 C354 1.260 . S
O359 In351 2.266 . S
O359 C356 1.252 . S
O360 In351 2.326 . S
O360 C356 1.260 . S
C361 O352 1.240 . S
C361 O353 1.252 . S
O362 In351 2.294 . S
O362 C355 1.240 . S
O363 In351 2.326 . S
O363 C355 1.252 . S
In364 O365 2.294 . S
In364 O366 2.326 . S
In364 O370 2.266 . S
In364 O371 2.326 . S
In364 O372 2.266 . S
In364 O373 2.326 . S
In364 O375 2.294 . S
In364 O376 2.326 . S
O365 In364 2.294 . S
O365 C374 1.240 . S
O366 In364 2.326 . S
O366 C374 1.252 . S
C367 O370 1.252 . S
C367 O371 1.260 . S
C368 O375 1.240 . S
C368 O376 1.252 . S
C369 O372 1.252 . S
C369 O373 1.260 . S
O370 In364 2.266 . S
O370 C367 1.252 . S
O371 In364 2.326 . S
O371 C367 1.260 . S
O372 In364 2.266 . S
O372 C369 1.252 . S
O373 In364 2.326 . S
O373 C369 1.260 . S
C374 O365 1.240 . S
C374 O366 1.252 . S
O375 In364 2.294 . S
O375 C368 1.240 . S
O376 In364 2.326 . S
O376 C368 1.252 . S
In377 O378 2.294 . S
In377 O379 2.326 . S
In377 O383 2.266 . S
In377 O384 2.326 . S
In377 O385 2.266 . S
In377 O386 2.326 . S
In377 O388 2.294 . S
In377 O389 2.326 . S
O378 In377 2.294 . S
O378 C387 1.240 . S
O379 In377 2.326 . S
O379 C387 1.252 . S
C380 O383 1.252 . S
C380 O384 1.260 . S
C381 O388 1.240 . S
C381 O389 1.252 . S
C382 O385 1.252 . S
C382 O386 1.260 . S
O383 In377 2.266 . S
O383 C380 1.252 . S
O384 In377 2.326 . S
O384 C380 1.260 . S
O385 In377 2.266 . S
O385 C382 1.252 . S
O386 In377 2.326 . S
O386 C382 1.260 . S
C387 O378 1.240 . S
C387 O379 1.252 . S
O388 In377 2.294 . S
O388 C381 1.240 . S
O389 In377 2.326 . S
O389 C381 1.252 . S
In390 O391 2.294 . S
In390 O392 2.326 . S
In390 O396 2.266 . S
In390 O397 2.326 . S
In390 O398 2.266 . S
In390 O399 2.326 . S
In390 O401 2.294 . S
In390 O402 2.326 . S
O391 In390 2.294 . S
O391 C400 1.240 . S
O392 In390 2.326 . S
O392 C400 1.252 . S
C393 O396 1.252 . S
C393 O397 1.260 . S
C394 O401 1.240 . S
C394 O402 1.252 . S
C395 O398 1.252 . S
C395 O399 1.260 . S
O396 In390 2.266 . S
O396 C393 1.252 . S
O397 In390 2.326 . S
O397 C393 1.260 . S
O398 In390 2.266 . S
O398 C395 1.252 . S
O399 In390 2.326 . S
O399 C395 1.260 . S
C400 O391 1.240 . S
C400 O392 1.252 . S
O401 In390 2.294 . S
O401 C394 1.240 . S
O402 In390 2.326 . S
O402 C394 1.252 . S
In403 O404 2.294 . S
In403 O405 2.326 . S
In403 O409 2.266 . S
In403 O410 2.326 . S
In403 O411 2.266 . S
In403 O412 2.326 . S
In403 O414 2.294 . S
In403 O415 2.326 . S
O404 In403 2.294 . S
O404 C413 1.240 . S
O405 In403 2.326 . S
O405 C413 1.252 . S
C406 O409 1.252 . S
C406 O410 1.260 . S
C407 O414 1.240 . S
C407 O415 1.252 . S
C408 O411 1.252 . S
C408 O412 1.260 . S
O409 In403 2.266 . S
O409 C406 1.252 . S
O410 In403 2.326 . S
O410 C406 1.260 . S
O411 In403 2.266 . S
O411 C408 1.252 . S
O412 In403 2.326 . S
O412 C408 1.260 . S
C413 O404 1.240 . S
C413 O405 1.252 . S
O414 In403 2.294 . S
O414 C407 1.240 . S
O415 In403 2.326 . S
O415 C407 1.252 . S
H416 C428 0.930 . S
H417 C430 0.930 . S
H418 C431 0.930 . S
H419 C435 0.959 . S
H420 C435 0.959 . S
H421 C435 0.961 . S
H422 C436 0.960 . S
H423 C436 0.961 . S
H424 C436 0.959 . S
H425 C439 0.929 . S
H426 C440 0.931 . S
H427 C442 0.930 . S
C428 H416 0.930 . S
C428 C429 1.399 . S
C428 C433 1.399 . S
C429 C428 1.399 . S
C429 C430 1.376 . S
C430 H417 0.930 . S
C430 C429 1.376 . S
C430 C431 1.388 . S
C431 H418 0.930 . S
C431 C430 1.388 . S
C431 C432 1.390 . S
C432 C431 1.390 . S
C432 C433 1.394 . S
C432 C438 1.465 . S
C433 C428 1.399 . S
C433 C432 1.394 . S
C433 C434 1.516 . S
C434 C433 1.516 . S
C434 C435 1.502 . S
C434 C436 1.561 . S
C434 C437 1.526 . S
C435 H419 0.959 . S
C435 H420 0.959 . S
C435 H421 0.961 . S
C435 C434 1.502 . S
C436 H422 0.960 . S
C436 H423 0.961 . S
C436 H424 0.959 . S
C436 C434 1.561 . S
C437 C434 1.526 . S
C437 C438 1.396 . S
C437 C442 1.390 . S
C438 C432 1.465 . S
C438 C437 1.396 . S
C438 C439 1.399 . S
C439 H425 0.929 . S
C439 C438 1.399 . S
C439 C440 1.385 . S
C440 H426 0.931 . S
C440 C439 1.385 . S
C440 C441 1.389 . S
C441 C440 1.389 . S
C441 C442 1.387 . S
C442 H427 0.930 . S
C442 C437 1.390 . S
C442 C441 1.387 . S
H443 C455 0.930 . S
H444 C457 0.930 . S
H445 C458 0.930 . S
H446 C462 0.959 . S
H447 C462 0.959 . S
H448 C462 0.961 . S
H449 C463 0.960 . S
H450 C463 0.961 . S
H451 C463 0.959 . S
H452 C466 0.929 . S
H453 C467 0.931 . S
H454 C469 0.930 . S
C455 H443 0.930 . S
C455 C456 1.399 . S
C455 C460 1.399 . S
C456 C455 1.399 . S
C456 C457 1.376 . S
C457 H444 0.930 . S
C457 C456 1.376 . S
C457 C458 1.388 . S
C458 H445 0.930 . S
C458 C457 1.388 . S
C458 C459 1.390 . S
C459 C458 1.390 . S
C459 C460 1.394 . S
C459 C465 1.465 . S
C460 C455 1.399 . S
C460 C459 1.394 . S
C460 C461 1.516 . S
C461 C460 1.516 . S
C461 C462 1.502 . S
C461 C463 1.561 . S
C461 C464 1.526 . S
C462 H446 0.959 . S
C462 H447 0.959 . S
C462 H448 0.961 . S
C462 C461 1.502 . S
C463 H449 0.960 . S
C463 H450 0.961 . S
C463 H451 0.959 . S
C463 C461 1.561 . S
C464 C461 1.526 . S
C464 C465 1.396 . S
C464 C469 1.390 . S
C465 C459 1.465 . S
C465 C464 1.396 . S
C465 C466 1.399 . S
C466 H452 0.929 . S
C466 C465 1.399 . S
C466 C467 1.385 . S
C467 H453 0.931 . S
C467 C466 1.385 . S
C467 C468 1.389 . S
C468 C467 1.389 . S
C468 C469 1.387 . S
C469 H454 0.930 . S
C469 C464 1.390 . S
C469 C468 1.387 . S
H470 C482 0.930 . S
H471 C484 0.930 . S
H472 C485 0.930 . S
H473 C489 0.959 . S
H474 C489 0.959 . S
H475 C489 0.961 . S
H476 C490 0.960 . S
H477 C490 0.961 . S
H478 C490 0.959 . S
H479 C493 0.929 . S
H480 C494 0.931 . S
H481 C496 0.930 . S
C482 H470 0.930 . S
C482 C483 1.399 . S
C482 C487 1.399 . S
C483 C482 1.399 . S
C483 C484 1.376 . S
C484 H471 0.930 . S
C484 C483 1.376 . S
C484 C485 1.388 . S
C485 H472 0.930 . S
C485 C484 1.388 . S
C485 C486 1.390 . S
C486 C485 1.390 . S
C486 C487 1.394 . S
C486 C492 1.465 . S
C487 C482 1.399 . S
C487 C486 1.394 . S
C487 C488 1.516 . S
C488 C487 1.516 . S
C488 C489 1.502 . S
C488 C490 1.561 . S
C488 C491 1.526 . S
C489 H473 0.959 . S
C489 H474 0.959 . S
C489 H475 0.961 . S
C489 C488 1.502 . S
C490 H476 0.960 . S
C490 H477 0.961 . S
C490 H478 0.959 . S
C490 C488 1.561 . S
C491 C488 1.526 . S
C491 C492 1.396 . S
C491 C496 1.390 . S
C492 C486 1.465 . S
C492 C491 1.396 . S
C492 C493 1.399 . S
C493 H479 0.929 . S
C493 C492 1.399 . S
C493 C494 1.385 . S
C494 H480 0.931 . S
C494 C493 1.385 . S
C494 C495 1.389 . S
C495 C494 1.389 . S
C495 C496 1.387 . S
C496 H481 0.930 . S
C496 C491 1.390 . S
C496 C495 1.387 . S
H497 C509 0.930 . S
H498 C511 0.930 . S
H499 C512 0.930 . S
H500 C516 0.959 . S
H501 C516 0.959 . S
H502 C516 0.961 . S
H503 C517 0.960 . S
H504 C517 0.961 . S
H505 C517 0.959 . S
H506 C520 0.929 . S
H507 C521 0.931 . S
H508 C523 0.930 . S
C509 H497 0.930 . S
C509 C510 1.399 . S
C509 C514 1.399 . S
C510 C509 1.399 . S
C510 C511 1.376 . S
C511 H498 0.930 . S
C511 C510 1.376 . S
C511 C512 1.388 . S
C512 H499 0.930 . S
C512 C511 1.388 . S
C512 C513 1.390 . S
C513 C512 1.390 . S
C513 C514 1.394 . S
C513 C519 1.465 . S
C514 C509 1.399 . S
C514 C513 1.394 . S
C514 C515 1.516 . S
C515 C514 1.516 . S
C515 C516 1.502 . S
C515 C517 1.561 . S
C515 C518 1.526 . S
C516 H500 0.959 . S
C516 H501 0.959 . S
C516 H502 0.961 . S
C516 C515 1.502 . S
C517 H503 0.960 . S
C517 H504 0.961 . S
C517 H505 0.959 . S
C517 C515 1.561 . S
C518 C515 1.526 . S
C518 C519 1.396 . S
C518 C523 1.390 . S
C519 C513 1.465 . S
C519 C518 1.396 . S
C519 C520 1.399 . S
C520 H506 0.929 . S
C520 C519 1.399 . S
C520 C521 1.385 . S
C521 H507 0.931 . S
C521 C520 1.385 . S
C521 C522 1.389 . S
C522 C521 1.389 . S
C522 C523 1.387 . S
C523 H508 0.930 . S
C523 C518 1.390 . S
C523 C522 1.387 . S
H524 C536 0.930 . S
H525 C538 0.930 1_565 S
H526 C539 0.930 . S
H527 C543 0.959 . S
H528 C543 0.959 . S
H529 C543 0.961 . S
H530 C544 0.960 . S
H531 C544 0.961 . S
H532 C544 0.959 . S
H533 C547 0.929 . S
H534 C548 0.931 . S
H535 C550 0.930 . S
C536 H524 0.930 . S
C536 C537 1.405 . S
C536 C541 1.399 . S
C537 C536 1.405 . S
C537 C538 1.380 . S
C538 H525 0.930 1_545 S
C538 C537 1.380 . S
C538 C539 1.388 . S
C539 H526 0.930 . S
C539 C538 1.388 . S
C539 C540 1.390 . S
C540 C539 1.390 . S
C540 C541 1.394 . S
C540 C546 1.465 . S
C541 C536 1.399 . S
C541 C540 1.394 . S
C541 C542 1.516 . S
C542 C541 1.516 . S
C542 C543 1.502 . S
C542 C544 1.561 . S
C542 C545 1.526 . S
C543 H527 0.959 . S
C543 H528 0.959 . S
C543 H529 0.961 . S
C543 C542 1.502 . S
C544 H530 0.960 . S
C544 H531 0.961 . S
C544 H532 0.959 . S
C544 C542 1.561 . S
C545 C542 1.526 . S
C545 C546 1.396 . S
C545 C550 1.390 . S
C546 C540 1.465 . S
C546 C545 1.396 . S
C546 C547 1.399 . S
C547 H533 0.929 . S
C547 C546 1.399 . S
C547 C548 1.385 . S
C548 H534 0.931 . S
C548 C547 1.385 . S
C548 C549 1.389 . S
C549 C548 1.389 . S
C549 C550 1.387 . S
C550 H535 0.930 . S
C550 C545 1.390 . S
C550 C549 1.387 . S
H551 C563 0.930 . S
H552 C565 0.930 1_565 S
H553 C566 0.930 . S
H554 C570 0.959 . S
H555 C570 0.959 . S
H556 C570 0.961 . S
H557 C571 0.960 . S
H558 C571 0.961 . S
H559 C571 0.959 . S
H560 C574 0.929 . S
H561 C575 0.931 . S
H562 C577 0.930 . S
C563 H551 0.930 . S
C563 C564 1.405 . S
C563 C568 1.399 . S
C564 C563 1.405 . S
C564 C565 1.379 . S
C565 H552 0.930 1_545 S
C565 C564 1.379 . S
C565 C566 1.388 . S
C566 H553 0.930 . S
C566 C565 1.388 . S
C566 C567 1.390 . S
C567 C566 1.390 . S
C567 C568 1.394 . S
C567 C573 1.465 . S
C568 C563 1.399 . S
C568 C567 1.394 . S
C568 C569 1.516 . S
C569 C568 1.516 . S
C569 C570 1.502 . S
C569 C571 1.561 . S
C569 C572 1.526 . S
C570 H554 0.959 . S
C570 H555 0.959 . S
C570 H556 0.961 . S
C570 C569 1.502 . S
C571 H557 0.960 . S
C571 H558 0.961 . S
C571 H559 0.959 . S
C571 C569 1.561 . S
C572 C569 1.526 . S
C572 C573 1.396 . S
C572 C577 1.390 . S
C573 C567 1.465 . S
C573 C572 1.396 . S
C573 C574 1.399 . S
C574 H560 0.929 . S
C574 C573 1.399 . S
C574 C575 1.385 . S
C575 H561 0.931 . S
C575 C574 1.385 . S
C575 C576 1.389 . S
C576 C575 1.389 . S
C576 C577 1.387 . S
C577 H562 0.930 . S
C577 C572 1.390 . S
C577 C576 1.387 . S
H578 C590 0.930 . S
H579 C592 0.930 1_545 S
H580 C593 0.930 . S
H581 C597 0.959 . S
H582 C597 0.959 . S
H583 C597 0.961 . S
H584 C598 0.960 . S
H585 C598 0.961 . S
H586 C598 0.959 . S
H587 C601 0.929 . S
H588 C602 0.931 . S
H589 C604 0.930 . S
C590 H578 0.930 . S
C590 C591 1.405 . S
C590 C595 1.399 . S
C591 C590 1.405 . S
C591 C592 1.379 . S
C592 H579 0.930 1_565 S
C592 C591 1.379 . S
C592 C593 1.388 . S
C593 H580 0.930 . S
C593 C592 1.388 . S
C593 C594 1.390 . S
C594 C593 1.390 . S
C594 C595 1.394 . S
C594 C600 1.465 . S
C595 C590 1.399 . S
C595 C594 1.394 . S
C595 C596 1.516 . S
C596 C595 1.516 . S
C596 C597 1.502 . S
C596 C598 1.561 . S
C596 C599 1.526 . S
C597 H581 0.959 . S
C597 H582 0.959 . S
C597 H583 0.961 . S
C597 C596 1.502 . S
C598 H584 0.960 . S
C598 H585 0.961 . S
C598 H586 0.959 . S
C598 C596 1.561 . S
C599 C596 1.526 . S
C599 C600 1.396 . S
C599 C604 1.390 . S
C600 C594 1.465 . S
C600 C599 1.396 . S
C600 C601 1.399 . S
C601 H587 0.929 . S
C601 C600 1.399 . S
C601 C602 1.385 . S
C602 H588 0.931 . S
C602 C601 1.385 . S
C602 C603 1.389 . S
C603 C602 1.389 . S
C603 C604 1.387 . S
C604 H589 0.930 . S
C604 C599 1.390 . S
C604 C603 1.387 . S
H605 C617 0.930 . S
H606 C619 0.930 . S
H607 C620 0.930 . S
H608 C624 0.959 . S
H609 C624 0.959 . S
H610 C624 0.961 . S
H611 C625 0.960 . S
H612 C625 0.961 . S
H613 C625 0.959 . S
H614 C628 0.929 . S
H615 C629 0.931 1_545 S
H616 C631 0.930 . S
C617 H605 0.930 . S
C617 C618 1.399 . S
C617 C622 1.399 . S
C618 C617 1.399 . S
C618 C619 1.376 . S
C619 H606 0.930 . S
C619 C618 1.376 . S
C619 C620 1.388 . S
C620 H607 0.930 . S
C620 C619 1.388 . S
C620 C621 1.390 . S
C621 C620 1.390 . S
C621 C622 1.394 . S
C621 C627 1.465 . S
C622 C617 1.399 . S
C622 C621 1.394 . S
C622 C623 1.516 . S
C623 C622 1.516 . S
C623 C624 1.502 . S
C623 C625 1.561 . S
C623 C626 1.526 . S
C624 H608 0.959 . S
C624 H609 0.959 . S
C624 H610 0.961 . S
C624 C623 1.502 . S
C625 H611 0.960 . S
C625 H612 0.961 . S
C625 H613 0.959 . S
C625 C623 1.561 . S
C626 C623 1.526 . S
C626 C627 1.396 . S
C626 C631 1.390 . S
C627 C621 1.465 . S
C627 C626 1.396 . S
C627 C628 1.399 . S
C628 H614 0.929 . S
C628 C627 1.399 . S
C628 C629 1.385 . S
C629 H615 0.931 1_565 S
C629 C628 1.385 . S
C629 C630 1.393 . S
C630 C629 1.393 . S
C630 C631 1.393 . S
C631 H616 0.930 . S
C631 C626 1.390 . S
C631 C630 1.393 . S
H632 C644 0.930 . S
H633 C646 0.930 . S
H634 C647 0.930 . S
H635 C651 0.959 . S
H636 C651 0.959 . S
H637 C651 0.961 . S
H638 C652 0.960 . S
H639 C652 0.961 . S
H640 C652 0.959 . S
H641 C655 0.929 . S
H642 C656 0.931 . S
H643 C658 0.930 . S
C644 H632 0.930 . S
C644 C645 1.399 . S
C644 C649 1.399 . S
C645 C644 1.399 . S
C645 C646 1.376 . S
C646 H633 0.930 . S
C646 C645 1.376 . S
C646 C647 1.388 . S
C647 H634 0.930 . S
C647 C646 1.388 . S
C647 C648 1.390 . S
C648 C647 1.390 . S
C648 C649 1.394 . S
C648 C654 1.465 . S
C649 C644 1.399 . S
C649 C648 1.394 . S
C649 C650 1.516 . S
C650 C649 1.516 . S
C650 C651 1.502 . S
C650 C652 1.561 . S
C650 C653 1.526 . S
C651 H635 0.959 . S
C651 H636 0.959 . S
C651 H637 0.961 . S
C651 C650 1.502 . S
C652 H638 0.960 . S
C652 H639 0.961 . S
C652 H640 0.959 . S
C652 C650 1.561 . S
C653 C650 1.526 . S
C653 C654 1.396 . S
C653 C658 1.390 . S
C654 C648 1.465 . S
C654 C653 1.396 . S
C654 C655 1.399 . S
C655 H641 0.929 . S
C655 C654 1.399 . S
C655 C656 1.385 . S
C656 H642 0.931 . S
C656 C655 1.385 . S
C656 C657 1.389 . S
C657 C656 1.389 . S
C657 C658 1.387 . S
C658 H643 0.930 . S
C658 C653 1.390 . S
C658 C657 1.387 . S
H659 C671 0.930 . S
H660 C673 0.930 . S
H661 C674 0.930 . S
H662 C678 0.959 . S
H663 C678 0.959 . S
H664 C678 0.961 . S
H665 C679 0.960 . S
H666 C679 0.961 . S
H667 C679 0.959 . S
H668 C682 0.929 . S
H669 C683 0.931 . S
H670 C685 0.930 . S
C671 H659 0.930 . S
C671 C672 1.399 . S
C671 C676 1.399 . S
C672 C671 1.399 . S
C672 C673 1.376 . S
C673 H660 0.930 . S
C673 C672 1.376 . S
C673 C674 1.388 . S
C674 H661 0.930 . S
C674 C673 1.388 . S
C674 C675 1.390 . S
C675 C674 1.390 . S
C675 C676 1.394 . S
C675 C681 1.465 . S
C676 C671 1.399 . S
C676 C675 1.394 . S
C676 C677 1.516 . S
C677 C676 1.516 . S
C677 C678 1.502 . S
C677 C679 1.561 . S
C677 C680 1.526 . S
C678 H662 0.959 . S
C678 H663 0.959 . S
C678 H664 0.961 . S
C678 C677 1.502 . S
C679 H665 0.960 . S
C679 H666 0.961 . S
C679 H667 0.959 . S
C679 C677 1.561 . S
C680 C677 1.526 . S
C680 C681 1.396 . S
C680 C685 1.390 . S
C681 C675 1.465 . S
C681 C680 1.396 . S
C681 C682 1.399 . S
C682 H668 0.929 . S
C682 C681 1.399 . S
C682 C683 1.385 . S
C683 H669 0.931 . S
C683 C682 1.385 . S
C683 C684 1.389 . S
C684 C683 1.389 . S
C684 C685 1.387 . S
C685 H670 0.930 . S
C685 C680 1.390 . S
C685 C684 1.387 . S
H686 C698 0.930 . S
H687 C700 0.930 . S
H688 C701 0.930 . S
H689 C705 0.959 . S
H690 C705 0.959 . S
H691 C705 0.961 . S
H692 C706 0.960 . S
H693 C706 0.961 . S
H694 C706 0.959 . S
H695 C709 0.929 . S
H696 C710 0.931 . S
H697 C712 0.930 . S
C698 H686 0.930 . S
C698 C699 1.399 . S
C698 C703 1.399 . S
C699 C698 1.399 . S
C699 C700 1.376 . S
C700 H687 0.930 . S
C700 C699 1.376 . S
C700 C701 1.388 . S
C701 H688 0.930 . S
C701 C700 1.388 . S
C701 C702 1.390 . S
C702 C701 1.390 . S
C702 C703 1.394 . S
C702 C708 1.465 . S
C703 C698 1.399 . S
C703 C702 1.394 . S
C703 C704 1.516 . S
C704 C703 1.516 . S
C704 C705 1.502 . S
C704 C706 1.561 . S
C704 C707 1.526 . S
C705 H689 0.959 . S
C705 H690 0.959 . S
C705 H691 0.961 . S
C705 C704 1.502 . S
C706 H692 0.960 . S
C706 H693 0.961 . S
C706 H694 0.959 . S
C706 C704 1.561 . S
C707 C704 1.526 . S
C707 C708 1.396 . S
C707 C712 1.390 . S
C708 C702 1.465 . S
C708 C707 1.396 . S
C708 C709 1.399 . S
C709 H695 0.929 . S
C709 C708 1.399 . S
C709 C710 1.385 . S
C710 H696 0.931 . S
C710 C709 1.385 . S
C710 C711 1.389 . S
C711 C710 1.389 . S
C711 C712 1.387 . S
C712 H697 0.930 . S
C712 C707 1.390 . S
C712 C711 1.387 . S
H713 C725 0.930 . S
H714 C727 0.930 . S
H715 C728 0.930 . S
H716 C732 0.959 . S
H717 C732 0.959 . S
H718 C732 0.961 . S
H719 C733 0.960 . S
H720 C733 0.961 . S
H721 C733 0.959 . S
H722 C736 0.929 . S
H723 C737 0.931 . S
H724 C739 0.930 . S
C725 H713 0.930 . S
C725 C726 1.399 . S
C725 C730 1.399 . S
C726 C725 1.399 . S
C726 C727 1.376 . S
C727 H714 0.930 . S
C727 C726 1.376 . S
C727 C728 1.388 . S
C728 H715 0.930 . S
C728 C727 1.388 . S
C728 C729 1.390 . S
C729 C728 1.390 . S
C729 C730 1.394 . S
C729 C735 1.465 . S
C730 C725 1.399 . S
C730 C729 1.394 . S
C730 C731 1.516 . S
C731 C730 1.516 . S
C731 C732 1.502 . S
C731 C733 1.561 . S
C731 C734 1.526 . S
C732 H716 0.959 . S
C732 H717 0.959 . S
C732 H718 0.961 . S
C732 C731 1.502 . S
C733 H719 0.960 . S
C733 H720 0.961 . S
C733 H721 0.959 . S
C733 C731 1.561 . S
C734 C731 1.526 . S
C734 C735 1.396 . S
C734 C739 1.390 . S
C735 C729 1.465 . S
C735 C734 1.396 . S
C735 C736 1.399 . S
C736 H722 0.929 . S
C736 C735 1.399 . S
C736 C737 1.385 . S
C737 H723 0.931 . S
C737 C736 1.385 . S
C737 C738 1.389 . S
C738 C737 1.389 . S
C738 C739 1.387 . S
C739 H724 0.930 . S
C739 C734 1.390 . S
C739 C738 1.387 . S
H740 C752 0.930 . S
H741 C754 0.930 . S
H742 C755 0.930 . S
H743 C759 0.959 . S
H744 C759 0.959 . S
H745 C759 0.961 . S
H746 C760 0.960 . S
H747 C760 0.961 . S
H748 C760 0.959 . S
H749 C763 0.929 . S
H750 C764 0.931 1_565 S
H751 C766 0.930 . S
C752 H740 0.930 . S
C752 C753 1.399 . S
C752 C757 1.399 . S
C753 C752 1.399 . S
C753 C754 1.376 . S
C754 H741 0.930 . S
C754 C753 1.376 . S
C754 C755 1.388 . S
C755 H742 0.930 . S
C755 C754 1.388 . S
C755 C756 1.390 . S
C756 C755 1.390 . S
C756 C757 1.394 . S
C756 C762 1.465 . S
C757 C752 1.399 . S
C757 C756 1.394 . S
C757 C758 1.516 . S
C758 C757 1.516 . S
C758 C759 1.502 . S
C758 C760 1.561 . S
C758 C761 1.526 . S
C759 H743 0.959 . S
C759 H744 0.959 . S
C759 H745 0.961 . S
C759 C758 1.502 . S
C760 H746 0.960 . S
C760 H747 0.961 . S
C760 H748 0.959 . S
C760 C758 1.561 . S
C761 C758 1.526 . S
C761 C762 1.396 . S
C761 C766 1.390 . S
C762 C756 1.465 . S
C762 C761 1.396 . S
C762 C763 1.399 . S
C763 H749 0.929 . S
C763 C762 1.399 . S
C763 C764 1.385 . S
C764 H750 0.931 1_545 S
C764 C763 1.385 . S
C764 C765 1.393 . S
C765 C764 1.393 . S
C765 C766 1.393 . S
C766 H751 0.930 . S
C766 C761 1.390 . S
C766 C765 1.393 . S
H767 C779 0.930 . S
H768 C781 0.930 1_565 S
H769 C782 0.930 . S
H770 C786 0.959 . S
H771 C786 0.959 . S
H772 C786 0.961 . S
H773 C787 0.960 . S
H774 C787 0.961 . S
H775 C787 0.959 . S
H776 C790 0.929 . S
H777 C791 0.931 . S
H778 C793 0.930 . S
C779 H767 0.930 . S
C779 C780 1.405 . S
C779 C784 1.399 . S
C780 C779 1.405 . S
C780 C781 1.380 . S
C781 H768 0.930 1_545 S
C781 C780 1.380 . S
C781 C782 1.388 . S
C782 H769 0.930 . S
C782 C781 1.388 . S
C782 C783 1.390 . S
C783 C782 1.390 . S
C783 C784 1.394 . S
C783 C789 1.465 . S
C784 C779 1.399 . S
C784 C783 1.394 . S
C784 C785 1.516 . S
C785 C784 1.516 . S
C785 C786 1.502 . S
C785 C787 1.561 . S
C785 C788 1.526 . S
C786 H770 0.959 . S
C786 H771 0.959 . S
C786 H772 0.961 . S
C786 C785 1.502 . S
C787 H773 0.960 . S
C787 H774 0.961 . S
C787 H775 0.959 . S
C787 C785 1.561 . S
C788 C785 1.526 . S
C788 C789 1.396 . S
C788 C793 1.390 . S
C789 C783 1.465 . S
C789 C788 1.396 . S
C789 C790 1.399 . S
C790 H776 0.929 . S
C790 C789 1.399 . S
C790 C791 1.385 . S
C791 H777 0.931 . S
C791 C790 1.385 . S
C791 C792 1.389 . S
C792 C791 1.389 . S
C792 C793 1.387 . S
C793 H778 0.930 . S
C793 C788 1.390 . S
C793 C792 1.387 . S
H794 C806 0.930 . S
H795 C808 0.930 . S
H796 C809 0.930 . S
H797 C813 0.959 . S
H798 C813 0.959 . S
H799 C813 0.961 . S
H800 C814 0.960 . S
H801 C814 0.961 . S
H802 C814 0.959 . S
H803 C817 0.929 . S
H804 C818 0.931 1_545 S
H805 C820 0.930 . S
C806 H794 0.930 . S
C806 C807 1.399 . S
C806 C811 1.399 . S
C807 C806 1.399 . S
C807 C808 1.376 . S
C808 H795 0.930 . S
C808 C807 1.376 . S
C808 C809 1.388 . S
C809 H796 0.930 . S
C809 C808 1.388 . S
C809 C810 1.390 . S
C810 C809 1.390 . S
C810 C811 1.394 . S
C810 C816 1.465 . S
C811 C806 1.399 . S
C811 C810 1.394 . S
C811 C812 1.516 . S
C812 C811 1.516 . S
C812 C813 1.502 . S
C812 C814 1.561 . S
C812 C815 1.526 . S
C813 H797 0.959 . S
C813 H798 0.959 . S
C813 H799 0.961 . S
C813 C812 1.502 . S
C814 H800 0.960 . S
C814 H801 0.961 . S
C814 H802 0.959 . S
C814 C812 1.561 . S
C815 C812 1.526 . S
C815 C816 1.396 . S
C815 C820 1.390 . S
C816 C810 1.465 . S
C816 C815 1.396 . S
C816 C817 1.399 . S
C817 H803 0.929 . S
C817 C816 1.399 . S
C817 C818 1.385 . S
C818 H804 0.931 1_565 S
C818 C817 1.385 . S
C818 C819 1.393 . S
C819 C818 1.393 . S
C819 C820 1.393 . S
C820 H805 0.930 . S
C820 C815 1.390 . S
C820 C819 1.393 . S
H821 C833 0.930 . S
H822 C835 0.930 . S
H823 C836 0.930 . S
H824 C840 0.959 . S
H825 C840 0.959 . S
H826 C840 0.961 . S
H827 C841 0.960 . S
H828 C841 0.961 . S
H829 C841 0.959 . S
H830 C844 0.929 . S
H831 C845 0.931 1_545 S
H832 C847 0.930 . S
C833 H821 0.930 . S
C833 C834 1.399 . S
C833 C838 1.399 . S
C834 C833 1.399 . S
C834 C835 1.376 . S
C835 H822 0.930 . S
C835 C834 1.376 . S
C835 C836 1.388 . S
C836 H823 0.930 . S
C836 C835 1.388 . S
C836 C837 1.390 . S
C837 C836 1.390 . S
C837 C838 1.394 . S
C837 C843 1.465 . S
C838 C833 1.399 . S
C838 C837 1.394 . S
C838 C839 1.516 . S
C839 C838 1.516 . S
C839 C840 1.502 . S
C839 C841 1.561 . S
C839 C842 1.526 . S
C840 H824 0.959 . S
C840 H825 0.959 . S
C840 H826 0.961 . S
C840 C839 1.502 . S
C841 H827 0.960 . S
C841 H828 0.961 . S
C841 H829 0.959 . S
C841 C839 1.561 . S
C842 C839 1.526 . S
C842 C843 1.396 . S
C842 C847 1.390 . S
C843 C837 1.465 . S
C843 C842 1.396 . S
C843 C844 1.399 . S
C844 H830 0.929 . S
C844 C843 1.399 . S
C844 C845 1.385 . S
C845 H831 0.931 1_565 S
C845 C844 1.385 . S
C845 C846 1.393 . S
C846 C845 1.393 . S
C846 C847 1.393 . S
C847 H832 0.930 . S
C847 C842 1.390 . S
C847 C846 1.393 . S
H848 C860 0.930 . S
H849 C862 0.930 . S
H850 C863 0.930 . S
H851 C867 0.959 . S
H852 C867 0.959 . S
H853 C867 0.961 . S
H854 C868 0.960 . S
H855 C868 0.961 . S
H856 C868 0.959 . S
H857 C871 0.929 . S
H858 C872 0.931 . S
H859 C874 0.930 . S
C860 H848 0.930 . S
C860 C861 1.399 . S
C860 C865 1.399 . S
C861 C860 1.399 . S
C861 C862 1.376 . S
C862 H849 0.930 . S
C862 C861 1.376 . S
C862 C863 1.388 . S
C863 H850 0.930 . S
C863 C862 1.388 . S
C863 C864 1.390 . S
C864 C863 1.390 . S
C864 C865 1.394 . S
C864 C870 1.465 1_556 S
C865 C860 1.399 . S
C865 C864 1.394 . S
C865 C866 1.516 1_655 S
C866 C865 1.516 1_455 S
C866 C867 1.502 . S
C866 C868 1.561 1_556 S
C866 C869 1.526 1_556 S
C867 H851 0.959 . S
C867 H852 0.959 . S
C867 H853 0.961 . S
C867 C866 1.502 . S
C868 H854 0.960 . S
C868 H855 0.961 . S
C868 H856 0.959 . S
C868 C866 1.561 1_554 S
C869 C866 1.526 1_554 S
C869 C870 1.396 1_455 S
C869 C874 1.390 . S
C870 C864 1.465 1_554 S
C870 C869 1.396 1_655 S
C870 C871 1.399 . S
C871 H857 0.929 . S
C871 C870 1.399 . S
C871 C872 1.385 1_655 S
C872 H858 0.931 . S
C872 C871 1.385 1_455 S
C872 C873 1.389 . S
C873 C872 1.389 . S
C873 C874 1.387 . S
C874 H859 0.930 . S
C874 C869 1.390 . S
C874 C873 1.387 . S
H875 C887 0.930 . S
H876 C889 0.930 . S
H877 C890 0.930 . S
H878 C894 0.959 . S
H879 C894 0.959 . S
H880 C894 0.949 1_556 S
H881 C895 0.960 . S
H882 C895 0.961 . S
H883 C895 0.959 . S
H884 C898 0.929 . S
H885 C899 0.931 . S
H886 C901 0.930 . S
C887 H875 0.930 . S
C887 C888 1.399 . S
C887 C892 1.399 . S
C888 C887 1.399 . S
C888 C889 1.376 . S
C889 H876 0.930 . S
C889 C888 1.376 . S
C889 C890 1.388 . S
C890 H877 0.930 . S
C890 C889 1.388 . S
C890 C891 1.390 . S
C891 C890 1.390 . S
C891 C892 1.394 . S
C891 C897 1.465 1_556 S
C892 C887 1.399 . S
C892 C891 1.394 . S
C892 C893 1.516 . S
C893 C892 1.516 . S
C893 C894 1.502 1_556 S
C893 C895 1.561 . S
C893 C896 1.526 1_556 S
C894 H878 0.959 . S
C894 H879 0.959 . S
C894 H880 0.949 1_554 S
C894 C893 1.502 1_554 S
C895 H881 0.960 . S
C895 H882 0.961 . S
C895 H883 0.959 . S
C895 C893 1.561 . S
C896 C893 1.526 1_554 S
C896 C897 1.396 . S
C896 C901 1.390 . S
C897 C891 1.465 1_554 S
C897 C896 1.396 . S
C897 C898 1.399 . S
C898 H884 0.929 . S
C898 C897 1.399 . S
C898 C899 1.385 . S
C899 H885 0.931 . S
C899 C898 1.385 . S
C899 C900 1.389 . S
C900 C899 1.389 . S
C900 C901 1.387 . S
C901 H886 0.930 . S
C901 C896 1.390 . S
C901 C900 1.387 . S
H902 C914 0.930 . S
H903 C916 0.930 . S
H904 C917 0.930 . S
H905 C921 0.959 . S
H906 C921 0.959 . S
H907 C921 0.961 . S
H908 C922 0.960 . S
H909 C922 0.961 . S
H910 C922 0.959 . S
H911 C925 0.929 . S
H912 C926 0.931 . S
H913 C928 0.930 . S
C914 H902 0.930 . S
C914 C915 1.399 . S
C914 C919 1.399 . S
C915 C914 1.399 . S
C915 C916 1.376 . S
C916 H903 0.930 . S
C916 C915 1.376 . S
C916 C917 1.388 1_455 S
C917 H904 0.930 . S
C917 C916 1.388 1_655 S
C917 C918 1.390 . S
C918 C917 1.390 . S
C918 C919 1.394 1_655 S
C918 C924 1.465 . S
C919 C914 1.399 . S
C919 C918 1.394 1_455 S
C919 C920 1.516 . S
C920 C919 1.516 . S
C920 C921 1.502 . S
C920 C922 1.561 . S
C920 C923 1.526 1_455 S
C921 H905 0.959 . S
C921 H906 0.959 . S
C921 H907 0.961 . S
C921 C920 1.502 . S
C922 H908 0.960 . S
C922 H909 0.961 . S
C922 H910 0.959 . S
C922 C920 1.561 . S
C923 C920 1.526 1_655 S
C923 C924 1.396 . S
C923 C928 1.390 . S
C924 C918 1.465 . S
C924 C923 1.396 . S
C924 C925 1.399 . S
C925 H911 0.929 . S
C925 C924 1.399 . S
C925 C926 1.385 . S
C926 H912 0.931 . S
C926 C925 1.385 . S
C926 C927 1.389 . S
C927 C926 1.389 . S
C927 C928 1.387 . S
C928 H913 0.930 . S
C928 C923 1.390 . S
C928 C927 1.387 . S
H929 C941 0.930 . S
H930 C943 0.930 . S
H931 C944 0.930 . S
H932 C948 0.959 . S
H933 C948 0.959 . S
H934 C948 0.961 . S
H935 C949 0.960 . S
H936 C949 0.961 . S
H937 C949 0.959 . S
H938 C952 0.929 . S
H939 C953 0.931 . S
H940 C955 0.930 . S
C941 H929 0.930 . S
C941 C942 1.399 . S
C941 C946 1.399 . S
C942 C941 1.399 . S
C942 C943 1.376 . S
C943 H930 0.930 . S
C943 C942 1.376 . S
C943 C944 1.388 . S
C944 H931 0.930 . S
C944 C943 1.388 . S
C944 C945 1.390 . S
C945 C944 1.390 . S
C945 C946 1.394 . S
C945 C951 1.465 . S
C946 C941 1.399 . S
C946 C945 1.394 . S
C946 C947 1.516 . S
C947 C946 1.516 . S
C947 C948 1.502 . S
C947 C949 1.561 . S
C947 C950 1.526 . S
C948 H932 0.959 . S
C948 H933 0.959 . S
C948 H934 0.961 . S
C948 C947 1.502 . S
C949 H935 0.960 . S
C949 H936 0.961 . S
C949 H937 0.959 . S
C949 C947 1.561 . S
C950 C947 1.526 . S
C950 C951 1.396 . S
C950 C955 1.390 . S
C951 C945 1.465 . S
C951 C950 1.396 . S
C951 C952 1.399 . S
C952 H938 0.929 . S
C952 C951 1.399 . S
C952 C953 1.385 . S
C953 H939 0.931 . S
C953 C952 1.385 . S
C953 C954 1.389 . S
C954 C953 1.389 . S
C954 C955 1.387 . S
C955 H940 0.930 . S
C955 C950 1.390 . S
C955 C954 1.387 . S
H956 C968 0.930 . S
H957 C970 0.930 . S
H958 C971 0.930 . S
H959 C975 0.959 . S
H960 C975 0.959 . S
H961 C975 0.961 . S
H962 C976 0.960 . S
H963 C976 0.961 . S
H964 C976 0.959 . S
H965 C979 0.929 . S
H966 C980 0.931 . S
H967 C982 0.930 . S
C968 H956 0.930 . S
C968 C969 1.399 . S
C968 C973 1.399 . S
C969 C968 1.399 . S
C969 C970 1.376 . S
C970 H957 0.930 . S
C970 C969 1.376 . S
C970 C971 1.388 1_556 S
C971 H958 0.930 . S
C971 C970 1.388 1_554 S
C971 C972 1.399 . S
C972 C971 1.399 . S
C972 C973 1.351 1_554 S
C972 C978 1.495 . S
C973 C968 1.399 . S
C973 C972 1.351 1_556 S
C973 C974 1.516 . S
C974 C973 1.516 . S
C974 C975 1.502 . S
C974 C976 1.561 . S
C974 C977 1.526 1_556 S
C975 H959 0.959 . S
C975 H960 0.959 . S
C975 H961 0.961 . S
C975 C974 1.502 . S
C976 H962 0.960 . S
C976 H963 0.961 . S
C976 H964 0.959 . S
C976 C974 1.561 . S
C977 C974 1.526 1_554 S
C977 C978 1.396 . S
C977 C982 1.390 . S
C978 C972 1.495 . S
C978 C977 1.396 . S
C978 C979 1.399 . S
C979 H965 0.929 . S
C979 C978 1.399 . S
C979 C980 1.385 . S
C980 H966 0.931 . S
C980 C979 1.385 . S
C980 C981 1.389 . S
C981 C980 1.389 . S
C981 C982 1.387 . S
C982 H967 0.930 . S
C982 C977 1.390 . S
C982 C981 1.387 . S
H983 C995 0.930 . S
H984 C997 0.930 . S
H985 C998 0.930 . S
H986 C1002 0.959 . S
H987 C1002 0.959 . S
H988 C1002 0.961 . S
H989 C1003 0.960 . S
H990 C1003 0.961 . S
H991 C1003 0.959 . S
H992 C1006 0.929 . S
H993 C1007 0.931 . S
H994 C1009 0.930 . S
C995 H983 0.930 . S
C995 C996 1.399 . S
C995 C1000 1.399 . S
C996 C995 1.399 . S
C996 C997 1.376 . S
C997 H984 0.930 . S
C997 C996 1.376 . S
C997 C998 1.388 . S
C998 H985 0.930 . S
C998 C997 1.388 . S
C998 C999 1.390 . S
C999 C998 1.390 . S
C999 C1000 1.394 . S
C999 C1005 1.465 1_655 S
C1000 C995 1.399 . S
C1000 C999 1.394 . S
C1000 C1001 1.512 1_655 S
C1001 C1000 1.512 1_455 S
C1001 C1002 1.496 1_455 S
C1001 C1003 1.567 . S
C1001 C1004 1.530 . S
C1002 H986 0.959 . S
C1002 H987 0.959 . S
C1002 H988 0.961 . S
C1002 C1001 1.496 1_655 S
C1003 H989 0.960 . S
C1003 H990 0.961 . S
C1003 H991 0.959 . S
C1003 C1001 1.567 . S
C1004 C1001 1.530 . S
C1004 C1005 1.396 . S
C1004 C1009 1.390 . S
C1005 C999 1.465 1_455 S
C1005 C1004 1.396 . S
C1005 C1006 1.399 . S
C1006 H992 0.929 . S
C1006 C1005 1.399 . S
C1006 C1007 1.385 . S
C1007 H993 0.931 . S
C1007 C1006 1.385 . S
C1007 C1008 1.389 . S
C1008 C1007 1.389 . S
C1008 C1009 1.387 . S
C1009 H994 0.930 . S
C1009 C1004 1.390 . S
C1009 C1008 1.387 . S
H1010 C1022 0.930 . S
H1011 C1024 0.930 . S
H1012 C1025 0.930 . S
H1013 C1029 0.959 . S
H1014 C1029 0.959 . S
H1015 C1029 0.961 . S
H1016 C1030 0.960 . S
H1017 C1030 0.961 . S
H1018 C1030 0.959 . S
H1019 C1033 0.929 . S
H1020 C1034 0.931 . S
H1021 C1036 0.930 . S
C1022 H1010 0.930 . S
C1022 C1023 1.399 . S
C1022 C1027 1.399 . S
C1023 C1022 1.399 . S
C1023 C1024 1.376 . S
C1024 H1011 0.930 . S
C1024 C1023 1.376 . S
C1024 C1025 1.388 . S
C1025 H1012 0.930 . S
C1025 C1024 1.388 . S
C1025 C1026 1.390 . S
C1026 C1025 1.390 . S
C1026 C1027 1.394 . S
C1026 C1032 1.465 . S
C1027 C1022 1.399 . S
C1027 C1026 1.394 . S
C1027 C1028 1.516 . S
C1028 C1027 1.516 . S
C1028 C1029 1.502 . S
C1028 C1030 1.561 . S
C1028 C1031 1.526 . S
C1029 H1013 0.959 . S
C1029 H1014 0.959 . S
C1029 H1015 0.961 . S
C1029 C1028 1.502 . S
C1030 H1016 0.960 . S
C1030 H1017 0.961 . S
C1030 H1018 0.959 . S
C1030 C1028 1.561 . S
C1031 C1028 1.526 . S
C1031 C1032 1.396 . S
C1031 C1036 1.390 . S
C1032 C1026 1.465 . S
C1032 C1031 1.396 . S
C1032 C1033 1.399 . S
C1033 H1019 0.929 . S
C1033 C1032 1.399 . S
C1033 C1034 1.385 . S
C1034 H1020 0.931 . S
C1034 C1033 1.385 . S
C1034 C1035 1.389 . S
C1035 C1034 1.389 . S
C1035 C1036 1.387 . S
C1036 H1021 0.930 . S
C1036 C1031 1.390 . S
C1036 C1035 1.387 . S
H1037 C1049 0.930 . S
H1038 C1051 0.930 . S
H1039 C1052 0.930 . S
H1040 C1056 0.959 1_565 S
H1041 C1056 0.959 1_565 S
H1042 C1056 0.961 . S
H1043 C1057 0.960 . S
H1044 C1057 0.961 . S
H1045 C1057 0.959 . S
H1046 C1060 0.929 . S
H1047 C1061 0.931 . S
H1048 C1063 0.930 . S
C1049 H1037 0.930 . S
C1049 C1050 1.399 . S
C1049 C1054 1.399 . S
C1050 C1049 1.399 . S
C1050 C1051 1.376 . S
C1051 H1038 0.930 . S
C1051 C1050 1.376 . S
C1051 C1052 1.388 . S
C1052 H1039 0.930 . S
C1052 C1051 1.388 . S
C1052 C1053 1.390 . S
C1053 C1052 1.390 . S
C1053 C1054 1.394 . S
C1053 C1059 1.465 1_545 S
C1054 C1049 1.399 . S
C1054 C1053 1.394 . S
C1054 C1055 1.516 1_655 S
C1055 C1054 1.516 1_455 S
C1055 C1056 1.502 . S
C1055 C1057 1.561 . S
C1055 C1058 1.526 1_545 S
C1056 H1040 0.959 1_545 S
C1056 H1041 0.959 1_545 S
C1056 H1042 0.961 . S
C1056 C1055 1.502 . S
C1057 H1043 0.960 . S
C1057 H1044 0.961 . S
C1057 H1045 0.959 . S
C1057 C1055 1.561 . S
C1058 C1055 1.526 1_565 S
C1058 C1059 1.396 1_455 S
C1058 C1063 1.390 . S
C1059 C1053 1.465 1_565 S
C1059 C1058 1.396 1_655 S
C1059 C1060 1.399 . S
C1060 H1046 0.929 . S
C1060 C1059 1.399 . S
C1060 C1061 1.385 1_655 S
C1061 H1047 0.931 . S
C1061 C1060 1.385 1_455 S
C1061 C1062 1.389 . S
C1062 C1061 1.389 . S
C1062 C1063 1.387 . S
C1063 H1048 0.930 . S
C1063 C1058 1.390 . S
C1063 C1062 1.387 . S
H1064 C1076 0.930 . S
H1065 C1078 0.930 . S
H1066 C1079 0.930 . S
H1067 C1083 0.959 . S
H1068 C1083 0.959 . S
H1069 C1083 0.961 . S
H1070 C1084 0.960 . S
H1071 C1084 0.961 . S
H1072 C1084 0.959 . S
H1073 C1087 0.929 . S
H1074 C1088 0.931 . S
H1075 C1090 0.930 . S
C1076 H1064 0.930 . S
C1076 C1077 1.399 . S
C1076 C1081 1.399 . S
C1077 C1076 1.399 . S
C1077 C1078 1.376 . S
C1078 H1065 0.930 . S
C1078 C1077 1.376 . S
C1078 C1079 1.388 . S
C1079 H1066 0.930 . S
C1079 C1078 1.388 . S
C1079 C1080 1.390 . S
C1080 C1079 1.390 . S
C1080 C1081 1.394 . S
C1080 C1086 1.465 . S
C1081 C1076 1.399 . S
C1081 C1080 1.394 . S
C1081 C1082 1.516 . S
C1082 C1081 1.516 . S
C1082 C1083 1.502 . S
C1082 C1084 1.561 . S
C1082 C1085 1.526 . S
C1083 H1067 0.959 . S
C1083 H1068 0.959 . S
C1083 H1069 0.961 . S
C1083 C1082 1.502 . S
C1084 H1070 0.960 . S
C1084 H1071 0.961 . S
C1084 H1072 0.959 . S
C1084 C1082 1.561 . S
C1085 C1082 1.526 . S
C1085 C1086 1.396 . S
C1085 C1090 1.390 . S
C1086 C1080 1.465 . S
C1086 C1085 1.396 . S
C1086 C1087 1.399 . S
C1087 H1073 0.929 . S
C1087 C1086 1.399 . S
C1087 C1088 1.385 . S
C1088 H1074 0.931 . S
C1088 C1087 1.385 . S
C1088 C1089 1.389 . S
C1089 C1088 1.389 . S
C1089 C1090 1.387 . S
C1090 H1075 0.930 . S
C1090 C1085 1.390 . S
C1090 C1089 1.387 . S
H1091 C1103 0.930 . S
H1092 C1105 0.930 . S
H1093 C1106 0.930 . S
H1094 C1110 0.959 . S
H1095 C1110 0.959 . S
H1096 C1110 0.961 . S
H1097 C1111 0.960 . S
H1098 C1111 0.961 . S
H1099 C1111 0.959 1_545 S
H1100 C1114 0.929 . S
H1101 C1115 0.931 . S
H1102 C1117 0.930 . S
C1103 H1091 0.930 . S
C1103 C1104 1.399 . S
C1103 C1108 1.399 . S
C1104 C1103 1.399 . S
C1104 C1105 1.376 . S
C1105 H1092 0.930 . S
C1105 C1104 1.376 . S
C1105 C1106 1.388 1_565 S
C1106 H1093 0.930 . S
C1106 C1105 1.388 1_545 S
C1106 C1107 1.390 . S
C1107 C1106 1.390 . S
C1107 C1108 1.394 1_545 S
C1107 C1113 1.465 . S
C1108 C1103 1.399 . S
C1108 C1107 1.394 1_565 S
C1108 C1109 1.516 . S
C1109 C1108 1.516 . S
C1109 C1110 1.502 . S
C1109 C1111 1.561 . S
C1109 C1112 1.526 1_565 S
C1110 H1094 0.959 . S
C1110 H1095 0.959 . S
C1110 H1096 0.961 . S
C1110 C1109 1.502 . S
C1111 H1097 0.960 . S
C1111 H1098 0.961 . S
C1111 H1099 0.959 1_565 S
C1111 C1109 1.561 . S
C1112 C1109 1.526 1_545 S
C1112 C1113 1.396 . S
C1112 C1117 1.390 . S
C1113 C1107 1.465 . S
C1113 C1112 1.396 . S
C1113 C1114 1.399 . S
C1114 H1100 0.929 . S
C1114 C1113 1.399 . S
C1114 C1115 1.385 . S
C1115 H1101 0.931 . S
C1115 C1114 1.385 . S
C1115 C1116 1.389 . S
C1116 C1115 1.389 . S
C1116 C1117 1.387 . S
C1117 H1102 0.930 . S
C1117 C1112 1.390 . S
C1117 C1116 1.387 . S
H1118 C1130 0.930 . S
H1119 C1132 0.930 . S
H1120 C1133 0.930 . S
H1121 C1137 0.959 . S
H1122 C1137 0.959 . S
H1123 C1137 0.961 . S
H1124 C1138 0.960 . S
H1125 C1138 0.961 . S
H1126 C1138 0.959 . S
H1127 C1141 0.929 . S
H1128 C1142 0.931 . S
H1129 C1144 0.930 . S
C1130 H1118 0.930 . S
C1130 C1131 1.399 . S
C1130 C1135 1.399 . S
C1131 C1130 1.399 . S
C1131 C1132 1.376 . S
C1132 H1119 0.930 . S
C1132 C1131 1.376 . S
C1132 C1133 1.388 . S
C1133 H1120 0.930 . S
C1133 C1132 1.388 . S
C1133 C1134 1.390 . S
C1134 C1133 1.390 . S
C1134 C1135 1.394 . S
C1134 C1140 1.465 . S
C1135 C1130 1.399 . S
C1135 C1134 1.394 . S
C1135 C1136 1.516 . S
C1136 C1135 1.516 . S
C1136 C1137 1.502 . S
C1136 C1138 1.561 . S
C1136 C1139 1.526 . S
C1137 H1121 0.959 . S
C1137 H1122 0.959 . S
C1137 H1123 0.961 . S
C1137 C1136 1.502 . S
C1138 H1124 0.960 . S
C1138 H1125 0.961 . S
C1138 H1126 0.959 . S
C1138 C1136 1.561 . S
C1139 C1136 1.526 . S
C1139 C1140 1.396 . S
C1139 C1144 1.390 . S
C1140 C1134 1.465 . S
C1140 C1139 1.396 . S
C1140 C1141 1.399 . S
C1141 H1127 0.929 . S
C1141 C1140 1.399 . S
C1141 C1142 1.385 . S
C1142 H1128 0.931 . S
C1142 C1141 1.385 . S
C1142 C1143 1.389 . S
C1143 C1142 1.389 . S
C1143 C1144 1.387 . S
C1144 H1129 0.930 . S
C1144 C1139 1.390 . S
C1144 C1143 1.387 . S
H1145 C1157 0.930 . S
H1146 C1159 0.930 . S
H1147 C1160 0.930 . S
H1148 C1164 0.959 . S
H1149 C1164 0.959 . S
H1150 C1164 0.961 . S
H1151 C1165 0.960 . S
H1152 C1165 0.961 . S
H1153 C1165 0.959 . S
H1154 C1168 0.929 . S
H1155 C1169 0.931 . S
H1156 C1171 0.930 . S
C1157 H1145 0.930 . S
C1157 C1158 1.399 . S
C1157 C1162 1.399 . S
C1158 C1157 1.399 . S
C1158 C1159 1.376 . S
C1159 H1146 0.930 . S
C1159 C1158 1.376 . S
C1159 C1160 1.388 . S
C1160 H1147 0.930 . S
C1160 C1159 1.388 . S
C1160 C1161 1.390 . S
C1161 C1160 1.390 . S
C1161 C1162 1.394 . S
C1161 C1167 1.459 1_565 S
C1162 C1157 1.399 . S
C1162 C1161 1.394 . S
C1162 C1163 1.516 1_565 S
C1163 C1162 1.516 1_545 S
C1163 C1164 1.502 . S
C1163 C1165 1.561 . S
C1163 C1166 1.526 . S
C1164 H1148 0.959 . S
C1164 H1149 0.959 . S
C1164 H1150 0.961 . S
C1164 C1163 1.502 . S
C1165 H1151 0.960 . S
C1165 H1152 0.961 . S
C1165 H1153 0.959 . S
C1165 C1163 1.561 . S
C1166 C1163 1.526 . S
C1166 C1167 1.406 . S
C1166 C1171 1.390 . S
C1167 C1161 1.459 1_545 S
C1167 C1166 1.406 . S
C1167 C1168 1.397 1_545 S
C1168 H1154 0.929 . S
C1168 C1167 1.397 1_565 S
C1168 C1169 1.385 1_565 S
C1169 H1155 0.931 . S
C1169 C1168 1.385 1_545 S
C1169 C1170 1.389 . S
C1170 C1169 1.389 . S
C1170 C1171 1.387 . S
C1171 H1156 0.930 . S
C1171 C1166 1.390 . S
C1171 C1170 1.387 . S
H1172 C1184 0.930 . S
H1173 C1186 0.930 . S
H1174 C1187 0.930 . S
H1175 C1191 0.959 . S
H1176 C1191 0.959 . S
H1177 C1191 0.961 . S
H1178 C1192 0.960 . S
H1179 C1192 0.961 . S
H1180 C1192 0.959 . S
H1181 C1195 0.929 . S
H1182 C1196 0.931 . S
H1183 C1198 0.930 . S
C1184 H1172 0.930 . S
C1184 C1185 1.399 . S
C1184 C1189 1.399 . S
C1185 C1184 1.399 . S
C1185 C1186 1.376 . S
C1186 H1173 0.930 . S
C1186 C1185 1.376 . S
C1186 C1187 1.388 . S
C1187 H1174 0.930 . S
C1187 C1186 1.388 . S
C1187 C1188 1.390 . S
C1188 C1187 1.390 . S
C1188 C1189 1.394 . S
C1188 C1194 1.465 . S
C1189 C1184 1.399 . S
C1189 C1188 1.394 . S
C1189 C1190 1.516 . S
C1190 C1189 1.516 . S
C1190 C1191 1.502 . S
C1190 C1192 1.561 . S
C1190 C1193 1.526 . S
C1191 H1175 0.959 . S
C1191 H1176 0.959 . S
C1191 H1177 0.961 . S
C1191 C1190 1.502 . S
C1192 H1178 0.960 . S
C1192 H1179 0.961 . S
C1192 H1180 0.959 . S
C1192 C1190 1.561 . S
C1193 C1190 1.526 . S
C1193 C1194 1.396 . S
C1193 C1198 1.390 . S
C1194 C1188 1.465 . S
C1194 C1193 1.396 . S
C1194 C1195 1.399 . S
C1195 H1181 0.929 . S
C1195 C1194 1.399 . S
C1195 C1196 1.385 . S
C1196 H1182 0.931 . S
C1196 C1195 1.385 . S
C1196 C1197 1.389 . S
C1197 C1196 1.389 . S
C1197 C1198 1.387 . S
C1198 H1183 0.930 . S
C1198 C1193 1.390 . S
C1198 C1197 1.387 . S
H1199 C1211 0.930 . S
H1200 C1213 0.930 . S
H1201 C1214 0.930 . S
H1202 C1218 0.959 . S
H1203 C1218 0.959 . S
H1204 C1218 0.961 . S
H1205 C1219 0.960 . S
H1206 C1219 0.961 . S
H1207 C1219 0.959 . S
H1208 C1222 0.929 . S
H1209 C1223 0.931 . S
H1210 C1225 0.930 . S
C1211 H1199 0.930 . S
C1211 C1212 1.399 . S
C1211 C1216 1.399 . S
C1212 C1211 1.399 . S
C1212 C1213 1.376 . S
C1213 H1200 0.930 . S
C1213 C1212 1.376 . S
C1213 C1214 1.388 . S
C1214 H1201 0.930 . S
C1214 C1213 1.388 . S
C1214 C1215 1.390 . S
C1215 C1214 1.390 . S
C1215 C1216 1.394 . S
C1215 C1221 1.465 . S
C1216 C1211 1.399 . S
C1216 C1215 1.394 . S
C1216 C1217 1.516 . S
C1217 C1216 1.516 . S
C1217 C1218 1.502 . S
C1217 C1219 1.561 . S
C1217 C1220 1.526 . S
C1218 H1202 0.959 . S
C1218 H1203 0.959 . S
C1218 H1204 0.961 . S
C1218 C1217 1.502 . S
C1219 H1205 0.960 . S
C1219 H1206 0.961 . S
C1219 H1207 0.959 . S
C1219 C1217 1.561 . S
C1220 C1217 1.526 . S
C1220 C1221 1.396 . S
C1220 C1225 1.390 . S
C1221 C1215 1.465 . S
C1221 C1220 1.396 . S
C1221 C1222 1.399 . S
C1222 H1208 0.929 . S
C1222 C1221 1.399 . S
C1222 C1223 1.385 . S
C1223 H1209 0.931 . S
C1223 C1222 1.385 . S
C1223 C1224 1.389 . S
C1224 C1223 1.389 . S
C1224 C1225 1.387 . S
C1225 H1210 0.930 . S
C1225 C1220 1.390 . S
C1225 C1224 1.387 . S
H1226 C1238 0.930 . S
H1227 C1240 0.930 . S
H1228 C1241 0.930 . S
H1229 C1245 0.959 . S
H1230 C1245 0.959 . S
H1231 C1245 0.961 . S
H1232 C1246 0.960 . S
H1233 C1246 0.961 . S
H1234 C1246 0.959 . S
H1235 C1249 0.929 . S
H1236 C1250 0.931 . S
H1237 C1252 0.930 . S
C1238 H1226 0.930 . S
C1238 C1239 1.399 . S
C1238 C1243 1.399 . S
C1239 C1238 1.399 . S
C1239 C1240 1.376 . S
C1240 H1227 0.930 . S
C1240 C1239 1.376 . S
C1240 C1241 1.388 . S
C1241 H1228 0.930 . S
C1241 C1240 1.388 . S
C1241 C1242 1.390 . S
C1242 C1241 1.390 . S
C1242 C1243 1.394 . S
C1242 C1248 1.465 . S
C1243 C1238 1.399 . S
C1243 C1242 1.394 . S
C1243 C1244 1.516 . S
C1244 C1243 1.516 . S
C1244 C1245 1.502 . S
C1244 C1246 1.561 . S
C1244 C1247 1.526 . S
C1245 H1229 0.959 . S
C1245 H1230 0.959 . S
C1245 H1231 0.961 . S
C1245 C1244 1.502 . S
C1246 H1232 0.960 . S
C1246 H1233 0.961 . S
C1246 H1234 0.959 . S
C1246 C1244 1.561 . S
C1247 C1244 1.526 . S
C1247 C1248 1.396 . S
C1247 C1252 1.390 . S
C1248 C1242 1.465 . S
C1248 C1247 1.396 . S
C1248 C1249 1.399 . S
C1249 H1235 0.929 . S
C1249 C1248 1.399 . S
C1249 C1250 1.385 . S
C1250 H1236 0.931 . S
C1250 C1249 1.385 . S
C1250 C1251 1.389 . S
C1251 C1250 1.389 . S
C1251 C1252 1.387 . S
C1252 H1237 0.930 . S
C1252 C1247 1.390 . S
C1252 C1251 1.387 . S
H1253 C1265 0.930 . S
H1254 C1267 0.930 . S
H1255 C1268 0.930 . S
H1256 C1272 0.959 . S
H1257 C1272 0.959 . S
H1258 C1272 0.961 . S
H1259 C1273 0.960 . S
H1260 C1273 0.961 . S
H1261 C1273 0.959 . S
H1262 C1276 0.929 . S
H1263 C1277 0.931 . S
H1264 C1279 0.930 . S
C1265 H1253 0.930 . S
C1265 C1266 1.399 . S
C1265 C1270 1.399 . S
C1266 C1265 1.399 . S
C1266 C1267 1.376 . S
C1267 H1254 0.930 . S
C1267 C1266 1.376 . S
C1267 C1268 1.388 . S
C1268 H1255 0.930 . S
C1268 C1267 1.388 . S
C1268 C1269 1.390 . S
C1269 C1268 1.390 . S
C1269 C1270 1.394 . S
C1269 C1275 1.467 1_556 S
C1270 C1265 1.399 . S
C1270 C1269 1.394 . S
C1270 C1271 1.495 1_546 S
C1271 C1270 1.495 1_564 S
C1271 C1272 1.530 . S
C1271 C1273 1.535 1_554 S
C1271 C1274 1.545 . S
C1272 H1256 0.959 . S
C1272 H1257 0.959 . S
C1272 H1258 0.961 . S
C1272 C1271 1.530 . S
C1273 H1259 0.960 . S
C1273 H1260 0.961 . S
C1273 H1261 0.959 . S
C1273 C1271 1.535 1_556 S
C1274 C1271 1.545 . S
C1274 C1275 1.393 1_565 S
C1274 C1279 1.390 . S
C1275 C1269 1.467 1_554 S
C1275 C1274 1.393 1_545 S
C1275 C1276 1.399 . S
C1276 H1262 0.929 . S
C1276 C1275 1.399 . S
C1276 C1277 1.385 1_545 S
C1277 H1263 0.931 . S
C1277 C1276 1.385 1_565 S
C1277 C1278 1.389 . S
C1278 C1277 1.389 . S
C1278 C1279 1.387 . S
C1279 H1264 0.930 . S
C1279 C1274 1.390 . S
C1279 C1278 1.387 . S
H1280 C1292 0.930 . S
H1281 C1294 0.930 . S
H1282 C1295 0.930 . S
H1283 C1299 0.959 . S
H1284 C1299 0.959 . S
H1285 C1299 0.961 . S
H1286 C1300 0.960 . S
H1287 C1300 0.961 . S
H1288 C1300 0.959 . S
H1289 C1303 0.929 . S
H1290 C1304 0.931 . S
H1291 C1306 0.930 . S
C1292 H1280 0.930 . S
C1292 C1293 1.399 . S
C1292 C1297 1.399 . S
C1293 C1292 1.399 . S
C1293 C1294 1.376 . S
C1294 H1281 0.930 . S
C1294 C1293 1.376 . S
C1294 C1295 1.388 . S
C1295 H1282 0.930 . S
C1295 C1294 1.388 . S
C1295 C1296 1.390 . S
C1296 C1295 1.390 . S
C1296 C1297 1.394 . S
C1296 C1302 1.465 . S
C1297 C1292 1.399 . S
C1297 C1296 1.394 . S
C1297 C1298 1.516 . S
C1298 C1297 1.516 . S
C1298 C1299 1.502 . S
C1298 C1300 1.561 . S
C1298 C1301 1.526 . S
C1299 H1283 0.959 . S
C1299 H1284 0.959 . S
C1299 H1285 0.961 . S
C1299 C1298 1.502 . S
C1300 H1286 0.960 . S
C1300 H1287 0.961 . S
C1300 H1288 0.959 . S
C1300 C1298 1.561 . S
C1301 C1298 1.526 . S
C1301 C1302 1.396 . S
C1301 C1306 1.390 . S
C1302 C1296 1.465 . S
C1302 C1301 1.396 . S
C1302 C1303 1.399 . S
C1303 H1289 0.929 . S
C1303 C1302 1.399 . S
C1303 C1304 1.385 . S
C1304 H1290 0.931 . S
C1304 C1303 1.385 . S
C1304 C1305 1.389 . S
C1305 C1304 1.389 . S
C1305 C1306 1.387 . S
C1306 H1291 0.930 . S
C1306 C1301 1.390 . S
C1306 C1305 1.387 . S
H1307 C1319 0.930 . S
H1308 C1321 0.930 . S
H1309 C1322 0.930 . S
H1310 C1326 0.959 . S
H1311 C1326 0.959 . S
H1312 C1326 0.961 . S
H1313 C1327 0.960 . S
H1314 C1327 0.952 1_545 S
H1315 C1327 0.959 . S
H1316 C1330 0.929 . S
H1317 C1331 0.931 . S
H1318 C1333 0.930 . S
C1319 H1307 0.930 . S
C1319 C1320 1.399 . S
C1319 C1324 1.399 . S
C1320 C1319 1.399 . S
C1320 C1321 1.376 . S
C1321 H1308 0.930 . S
C1321 C1320 1.376 . S
C1321 C1322 1.388 . S
C1322 H1309 0.930 . S
C1322 C1321 1.388 . S
C1322 C1323 1.390 . S
C1323 C1322 1.390 . S
C1323 C1324 1.394 . S
C1323 C1329 1.465 . S
C1324 C1319 1.399 . S
C1324 C1323 1.394 . S
C1324 C1325 1.516 . S
C1325 C1324 1.516 . S
C1325 C1326 1.502 . S
C1325 C1327 1.561 . S
C1325 C1328 1.526 . S
C1326 H1310 0.959 . S
C1326 H1311 0.959 . S
C1326 H1312 0.961 . S
C1326 C1325 1.502 . S
C1327 H1313 0.960 . S
C1327 H1314 0.952 1_565 S
C1327 H1315 0.959 . S
C1327 C1325 1.561 . S
C1328 C1325 1.526 . S
C1328 C1329 1.396 . S
C1328 C1333 1.390 . S
C1329 C1323 1.465 . S
C1329 C1328 1.396 . S
C1329 C1330 1.399 . S
C1330 H1316 0.929 . S
C1330 C1329 1.399 . S
C1330 C1331 1.385 . S
C1331 H1317 0.931 . S
C1331 C1330 1.385 . S
C1331 C1332 1.389 . S
C1332 C1331 1.389 . S
C1332 C1333 1.387 . S
C1333 H1318 0.930 . S
C1333 C1328 1.390 . S
C1333 C1332 1.387 . S
H1334 C1346 0.930 . S
H1335 C1348 0.930 . S
H1336 C1349 0.930 . S
H1337 C1353 0.959 . S
H1338 C1353 0.959 . S
H1339 C1353 0.961 . S
H1340 C1354 0.960 . S
H1341 C1354 0.961 . S
H1342 C1354 0.959 . S
H1343 C1357 0.929 . S
H1344 C1358 0.931 . S
H1345 C1360 0.930 . S
C1346 H1334 0.930 . S
C1346 C1347 1.399 . S
C1346 C1351 1.399 . S
C1347 C1346 1.399 . S
C1347 C1348 1.376 . S
C1348 H1335 0.930 . S
C1348 C1347 1.376 . S
C1348 C1349 1.388 . S
C1349 H1336 0.930 . S
C1349 C1348 1.388 . S
C1349 C1350 1.390 . S
C1350 C1349 1.390 . S
C1350 C1351 1.394 . S
C1350 C1356 1.465 . S
C1351 C1346 1.399 . S
C1351 C1350 1.394 . S
C1351 C1352 1.516 . S
C1352 C1351 1.516 . S
C1352 C1353 1.502 . S
C1352 C1354 1.561 . S
C1352 C1355 1.526 . S
C1353 H1337 0.959 . S
C1353 H1338 0.959 . S
C1353 H1339 0.961 . S
C1353 C1352 1.502 . S
C1354 H1340 0.960 . S
C1354 H1341 0.961 . S
C1354 H1342 0.959 . S
C1354 C1352 1.561 . S
C1355 C1352 1.526 . S
C1355 C1356 1.396 . S
C1355 C1360 1.390 . S
C1356 C1350 1.465 . S
C1356 C1355 1.396 . S
C1356 C1357 1.399 . S
C1357 H1343 0.929 . S
C1357 C1356 1.399 . S
C1357 C1358 1.385 . S
C1358 H1344 0.931 . S
C1358 C1357 1.385 . S
C1358 C1359 1.389 . S
C1359 C1358 1.389 . S
C1359 C1360 1.387 . S
C1360 H1345 0.930 . S
C1360 C1355 1.390 . S
C1360 C1359 1.387 . S
H1361 C1373 0.930 . S
H1362 C1375 0.930 . S
H1363 C1376 0.930 . S
H1364 C1380 0.959 . S
H1365 C1380 0.959 . S
H1366 C1380 0.961 . S
H1367 C1381 0.960 . S
H1368 C1381 0.961 . S
H1369 C1381 0.959 . S
H1370 C1384 0.929 . S
H1371 C1385 0.931 . S
H1372 C1387 0.930 . S
C1373 H1361 0.930 . S
C1373 C1374 1.399 . S
C1373 C1378 1.399 . S
C1374 C1373 1.399 . S
C1374 C1375 1.376 . S
C1375 H1362 0.930 . S
C1375 C1374 1.376 . S
C1375 C1376 1.388 . S
C1376 H1363 0.930 . S
C1376 C1375 1.388 . S
C1376 C1377 1.390 . S
C1377 C1376 1.390 . S
C1377 C1378 1.394 . S
C1377 C1383 1.465 . S
C1378 C1373 1.399 . S
C1378 C1377 1.394 . S
C1378 C1379 1.516 . S
C1379 C1378 1.516 . S
C1379 C1380 1.502 . S
C1379 C1381 1.561 . S
C1379 C1382 1.526 . S
C1380 H1364 0.959 . S
C1380 H1365 0.959 . S
C1380 H1366 0.961 . S
C1380 C1379 1.502 . S
C1381 H1367 0.960 . S
C1381 H1368 0.961 . S
C1381 H1369 0.959 . S
C1381 C1379 1.561 . S
C1382 C1379 1.526 . S
C1382 C1383 1.396 . S
C1382 C1387 1.390 . S
C1383 C1377 1.465 . S
C1383 C1382 1.396 . S
C1383 C1384 1.399 . S
C1384 H1370 0.929 . S
C1384 C1383 1.399 . S
C1384 C1385 1.385 . S
C1385 H1371 0.931 . S
C1385 C1384 1.385 . S
C1385 C1386 1.389 . S
C1386 C1385 1.389 . S
C1386 C1387 1.387 . S
C1387 H1372 0.930 . S
C1387 C1382 1.390 . S
C1387 C1386 1.387 . S
H1388 C1400 0.930 . S
H1389 C1402 0.930 . S
H1390 C1403 0.930 . S
H1391 C1407 0.959 . S
H1392 C1407 0.959 . S
H1393 C1407 0.961 . S
H1394 C1408 0.960 . S
H1395 C1408 0.961 . S
H1396 C1408 0.959 . S
H1397 C1411 0.929 . S
H1398 C1412 0.931 . S
H1399 C1414 0.930 . S
C1400 H1388 0.930 . S
C1400 C1401 1.399 . S
C1400 C1405 1.399 . S
C1401 C1400 1.399 . S
C1401 C1402 1.376 . S
C1402 H1389 0.930 . S
C1402 C1401 1.376 . S
C1402 C1403 1.388 . S
C1403 H1390 0.930 . S
C1403 C1402 1.388 . S
C1403 C1404 1.390 . S
C1404 C1403 1.390 . S
C1404 C1405 1.394 . S
C1404 C1410 1.465 . S
C1405 C1400 1.399 . S
C1405 C1404 1.394 . S
C1405 C1406 1.516 . S
C1406 C1405 1.516 . S
C1406 C1407 1.502 . S
C1406 C1408 1.561 . S
C1406 C1409 1.526 . S
C1407 H1391 0.959 . S
C1407 H1392 0.959 . S
C1407 H1393 0.961 . S
C1407 C1406 1.502 . S
C1408 H1394 0.960 . S
C1408 H1395 0.961 . S
C1408 H1396 0.959 . S
C1408 C1406 1.561 . S
C1409 C1406 1.526 . S
C1409 C1410 1.396 . S
C1409 C1414 1.390 . S
C1410 C1404 1.465 . S
C1410 C1409 1.396 . S
C1410 C1411 1.399 . S
C1411 H1397 0.929 . S
C1411 C1410 1.399 . S
C1411 C1412 1.385 . S
C1412 H1398 0.931 . S
C1412 C1411 1.385 . S
C1412 C1413 1.389 . S
C1413 C1412 1.389 . S
C1413 C1414 1.387 . S
C1414 H1399 0.930 . S
C1414 C1409 1.390 . S
C1414 C1413 1.387 . S
H1415 C1427 0.930 . S
H1416 C1429 0.930 . S
H1417 C1430 0.930 . S
H1418 C1434 0.959 . S
H1419 C1434 0.959 . S
H1420 C1434 0.961 . S
H1421 C1435 0.960 . S
H1422 C1435 0.961 . S
H1423 C1435 0.959 . S
H1424 C1438 0.929 . S
H1425 C1439 0.931 . S
H1426 C1441 0.930 . S
C1427 H1415 0.930 . S
C1427 C1428 1.399 . S
C1427 C1432 1.399 . S
C1428 C1427 1.399 . S
C1428 C1429 1.376 . S
C1429 H1416 0.930 . S
C1429 C1428 1.376 . S
C1429 C1430 1.388 . S
C1430 H1417 0.930 . S
C1430 C1429 1.388 . S
C1430 C1431 1.390 . S
C1431 C1430 1.390 . S
C1431 C1432 1.394 . S
C1431 C1437 1.465 . S
C1432 C1427 1.399 . S
C1432 C1431 1.394 . S
C1432 C1433 1.516 . S
C1433 C1432 1.516 . S
C1433 C1434 1.502 . S
C1433 C1435 1.561 . S
C1433 C1436 1.526 . S
C1434 H1418 0.959 . S
C1434 H1419 0.959 . S
C1434 H1420 0.961 . S
C1434 C1433 1.502 . S
C1435 H1421 0.960 . S
C1435 H1422 0.961 . S
C1435 H1423 0.959 . S
C1435 C1433 1.561 . S
C1436 C1433 1.526 . S
C1436 C1437 1.396 . S
C1436 C1441 1.390 . S
C1437 C1431 1.465 . S
C1437 C1436 1.396 . S
C1437 C1438 1.399 . S
C1438 H1424 0.929 . S
C1438 C1437 1.399 . S
C1438 C1439 1.385 . S
C1439 H1425 0.931 . S
C1439 C1438 1.385 . S
C1439 C1440 1.389 . S
C1440 C1439 1.389 . S
C1440 C1441 1.387 . S
C1441 H1426 0.930 . S
C1441 C1436 1.390 . S
C1441 C1440 1.387 . S
H1442 C1454 0.930 . S
H1443 C1456 0.930 . S
H1444 C1457 0.930 . S
H1445 C1461 0.959 . S
H1446 C1461 0.959 . S
H1447 C1461 0.961 . S
H1448 C1462 0.960 . S
H1449 C1462 0.961 . S
H1450 C1462 0.959 . S
H1451 C1465 0.929 . S
H1452 C1466 0.931 . S
H1453 C1468 0.930 . S
C1454 H1442 0.930 . S
C1454 C1455 1.399 . S
C1454 C1459 1.399 . S
C1455 C1454 1.399 . S
C1455 C1456 1.376 . S
C1456 H1443 0.930 . S
C1456 C1455 1.376 . S
C1456 C1457 1.388 . S
C1457 H1444 0.930 . S
C1457 C1456 1.388 . S
C1457 C1458 1.390 . S
C1458 C1457 1.390 . S
C1458 C1459 1.394 . S
C1458 C1464 1.465 . S
C1459 C1454 1.399 . S
C1459 C1458 1.394 . S
C1459 C1460 1.516 . S
C1460 C1459 1.516 . S
C1460 C1461 1.502 . S
C1460 C1462 1.561 . S
C1460 C1463 1.526 . S
C1461 H1445 0.959 . S
C1461 H1446 0.959 . S
C1461 H1447 0.961 . S
C1461 C1460 1.502 . S
C1462 H1448 0.960 . S
C1462 H1449 0.961 . S
C1462 H1450 0.959 . S
C1462 C1460 1.561 . S
C1463 C1460 1.526 . S
C1463 C1464 1.396 . S
C1463 C1468 1.390 . S
C1464 C1458 1.465 . S
C1464 C1463 1.396 . S
C1464 C1465 1.399 . S
C1465 H1451 0.929 . S
C1465 C1464 1.399 . S
C1465 C1466 1.385 . S
C1466 H1452 0.931 . S
C1466 C1465 1.385 . S
C1466 C1467 1.389 . S
C1467 C1466 1.389 . S
C1467 C1468 1.387 . S
C1468 H1453 0.930 . S
C1468 C1463 1.390 . S
C1468 C1467 1.387 . S
H1469 C1481 0.930 . S
H1470 C1483 0.930 . S
H1471 C1484 0.930 . S
H1472 C1488 0.959 . S
H1473 C1488 0.959 . S
H1474 C1488 0.961 . S
H1475 C1489 0.960 . S
H1476 C1489 0.961 . S
H1477 C1489 0.959 . S
H1478 C1492 0.929 . S
H1479 C1493 0.931 . S
H1480 C1495 0.930 . S
C1481 H1469 0.930 . S
C1481 C1482 1.399 . S
C1481 C1486 1.399 . S
C1482 C1481 1.399 . S
C1482 C1483 1.376 . S
C1483 H1470 0.930 . S
C1483 C1482 1.376 . S
C1483 C1484 1.388 . S
C1484 H1471 0.930 . S
C1484 C1483 1.388 . S
C1484 C1485 1.390 . S
C1485 C1484 1.390 . S
C1485 C1486 1.394 . S
C1485 C1491 1.465 . S
C1486 C1481 1.399 . S
C1486 C1485 1.394 . S
C1486 C1487 1.516 . S
C1487 C1486 1.516 . S
C1487 C1488 1.502 . S
C1487 C1489 1.561 . S
C1487 C1490 1.526 . S
C1488 H1472 0.959 . S
C1488 H1473 0.959 . S
C1488 H1474 0.961 . S
C1488 C1487 1.502 . S
C1489 H1475 0.960 . S
C1489 H1476 0.961 . S
C1489 H1477 0.959 . S
C1489 C1487 1.561 . S
C1490 C1487 1.526 . S
C1490 C1491 1.396 . S
C1490 C1495 1.390 . S
C1491 C1485 1.465 . S
C1491 C1490 1.396 . S
C1491 C1492 1.399 . S
C1492 H1478 0.929 . S
C1492 C1491 1.399 . S
C1492 C1493 1.385 . S
C1493 H1479 0.931 . S
C1493 C1492 1.385 . S
C1493 C1494 1.389 . S
C1494 C1493 1.389 . S
C1494 C1495 1.387 . S
C1495 H1480 0.930 . S
C1495 C1490 1.390 . S
C1495 C1494 1.387 . S
H1496 C1508 0.930 . S
H1497 C1510 0.930 . S
H1498 C1511 0.930 . S
H1499 C1515 0.959 . S
H1500 C1515 0.959 . S
H1501 C1515 0.961 . S
H1502 C1516 0.960 . S
H1503 C1516 0.961 . S
H1504 C1516 0.959 . S
H1505 C1519 0.929 . S
H1506 C1520 0.931 . S
H1507 C1522 0.930 . S
C1508 H1496 0.930 . S
C1508 C1509 1.399 . S
C1508 C1513 1.399 . S
C1509 C1508 1.399 . S
C1509 C1510 1.376 . S
C1510 H1497 0.930 . S
C1510 C1509 1.376 . S
C1510 C1511 1.388 . S
C1511 H1498 0.930 . S
C1511 C1510 1.388 . S
C1511 C1512 1.390 . S
C1512 C1511 1.390 . S
C1512 C1513 1.394 . S
C1512 C1518 1.465 . S
C1513 C1508 1.399 . S
C1513 C1512 1.394 . S
C1513 C1514 1.516 . S
C1514 C1513 1.516 . S
C1514 C1515 1.502 . S
C1514 C1516 1.561 . S
C1514 C1517 1.526 . S
C1515 H1499 0.959 . S
C1515 H1500 0.959 . S
C1515 H1501 0.961 . S
C1515 C1514 1.502 . S
C1516 H1502 0.960 . S
C1516 H1503 0.961 . S
C1516 H1504 0.959 . S
C1516 C1514 1.561 . S
C1517 C1514 1.526 . S
C1517 C1518 1.396 . S
C1517 C1522 1.390 . S
C1518 C1512 1.465 . S
C1518 C1517 1.396 . S
C1518 C1519 1.399 . S
C1519 H1505 0.929 . S
C1519 C1518 1.399 . S
C1519 C1520 1.385 . S
C1520 H1506 0.931 . S
C1520 C1519 1.385 . S
C1520 C1521 1.389 . S
C1521 C1520 1.389 . S
C1521 C1522 1.387 . S
C1522 H1507 0.930 . S
C1522 C1517 1.390 . S
C1522 C1521 1.387 . S
H1523 C1535 0.930 . S
H1524 C1537 0.930 . S
H1525 C1538 0.930 . S
H1526 C1542 0.959 . S
H1527 C1542 0.974 . S
H1528 C1542 0.961 . S
H1529 C1543 0.960 . S
H1530 C1543 0.961 . S
H1531 C1543 0.959 . S
H1532 C1546 0.929 . S
H1533 C1547 0.931 . S
H1534 C1549 0.930 . S
C1535 H1523 0.930 . S
C1535 C1536 1.399 . S
C1535 C1540 1.399 . S
C1536 C1535 1.399 . S
C1536 C1537 1.376 . S
C1537 H1524 0.930 . S
C1537 C1536 1.376 . S
C1537 C1538 1.388 . S
C1538 H1525 0.930 . S
C1538 C1537 1.388 . S
C1538 C1539 1.390 . S
C1539 C1538 1.390 . S
C1539 C1540 1.394 . S
C1539 C1545 1.465 . S
C1540 C1535 1.399 . S
C1540 C1539 1.394 . S
C1540 C1541 1.516 . S
C1541 C1540 1.516 . S
C1541 C1542 1.502 . S
C1541 C1543 1.561 . S
C1541 C1544 1.526 . S
C1542 H1526 0.959 . S
C1542 H1527 0.974 . S
C1542 H1528 0.961 . S
C1542 C1541 1.502 . S
C1543 H1529 0.960 . S
C1543 H1530 0.961 . S
C1543 H1531 0.959 . S
C1543 C1541 1.561 . S
C1544 C1541 1.526 . S
C1544 C1545 1.396 . S
C1544 C1549 1.390 . S
C1545 C1539 1.465 . S
C1545 C1544 1.396 . S
C1545 C1546 1.399 . S
C1546 H1532 0.929 . S
C1546 C1545 1.399 . S
C1546 C1547 1.385 . S
C1547 H1533 0.931 . S
C1547 C1546 1.385 . S
C1547 C1548 1.389 . S
C1548 C1547 1.389 . S
C1548 C1549 1.387 . S
C1549 H1534 0.930 . S
C1549 C1544 1.390 . S
C1549 C1548 1.387 . S
H1550 C1562 0.930 . S
H1551 C1564 0.930 . S
H1552 C1565 0.930 . S
H1553 C1569 0.959 . S
H1554 C1569 0.959 . S
H1555 C1569 0.961 . S
H1556 C1570 0.960 . S
H1557 C1570 0.961 . S
H1558 C1570 0.959 . S
H1559 C1573 0.929 . S
H1560 C1574 0.931 . S
H1561 C1576 0.930 . S
C1562 H1550 0.930 . S
C1562 C1563 1.399 . S
C1562 C1567 1.399 . S
C1563 C1562 1.399 . S
C1563 C1564 1.376 . S
C1564 H1551 0.930 . S
C1564 C1563 1.376 . S
C1564 C1565 1.388 . S
C1565 H1552 0.930 . S
C1565 C1564 1.388 . S
C1565 C1566 1.390 . S
C1566 C1565 1.390 . S
C1566 C1567 1.394 . S
C1566 C1572 1.465 . S
C1567 C1562 1.399 . S
C1567 C1566 1.394 . S
C1567 C1568 1.516 . S
C1568 C1567 1.516 . S
C1568 C1569 1.502 . S
C1568 C1570 1.561 . S
C1568 C1571 1.526 . S
C1569 H1553 0.959 . S
C1569 H1554 0.959 . S
C1569 H1555 0.961 . S
C1569 C1568 1.502 . S
C1570 H1556 0.960 . S
C1570 H1557 0.961 . S
C1570 H1558 0.959 . S
C1570 C1568 1.561 . S
C1571 C1568 1.526 . S
C1571 C1572 1.396 . S
C1571 C1576 1.390 . S
C1572 C1566 1.465 . S
C1572 C1571 1.396 . S
C1572 C1573 1.399 . S
C1573 H1559 0.929 . S
C1573 C1572 1.399 . S
C1573 C1574 1.385 . S
C1574 H1560 0.931 . S
C1574 C1573 1.385 . S
C1574 C1575 1.389 . S
C1575 C1574 1.389 . S
C1575 C1576 1.387 . S
C1576 H1561 0.930 . S
C1576 C1571 1.390 . S
C1576 C1575 1.387 . S
H1577 C1589 0.930 . S
H1578 C1591 0.930 . S
H1579 C1592 0.930 . S
H1580 C1596 0.959 . S
H1581 C1596 0.959 . S
H1582 C1596 0.961 . S
H1583 C1597 0.960 . S
H1584 C1597 0.961 . S
H1585 C1597 0.959 . S
H1586 C1600 0.929 . S
H1587 C1601 0.931 . S
H1588 C1603 0.930 . S
C1589 H1577 0.930 . S
C1589 C1590 1.399 . S
C1589 C1594 1.399 . S
C1590 C1589 1.399 . S
C1590 C1591 1.376 . S
C1591 H1578 0.930 . S
C1591 C1590 1.376 . S
C1591 C1592 1.388 . S
C1592 H1579 0.930 . S
C1592 C1591 1.388 . S
C1592 C1593 1.390 . S
C1593 C1592 1.390 . S
C1593 C1594 1.394 . S
C1593 C1599 1.465 . S
C1594 C1589 1.399 . S
C1594 C1593 1.394 . S
C1594 C1595 1.516 . S
C1595 C1594 1.516 . S
C1595 C1596 1.502 . S
C1595 C1597 1.561 . S
C1595 C1598 1.526 . S
C1596 H1580 0.959 . S
C1596 H1581 0.959 . S
C1596 H1582 0.961 . S
C1596 C1595 1.502 . S
C1597 H1583 0.960 . S
C1597 H1584 0.961 . S
C1597 H1585 0.959 . S
C1597 C1595 1.561 . S
C1598 C1595 1.526 . S
C1598 C1599 1.396 . S
C1598 C1603 1.390 . S
C1599 C1593 1.465 . S
C1599 C1598 1.396 . S
C1599 C1600 1.399 . S
C1600 H1586 0.929 . S
C1600 C1599 1.399 . S
C1600 C1601 1.385 . S
C1601 H1587 0.931 . S
C1601 C1600 1.385 . S
C1601 C1602 1.389 . S
C1602 C1601 1.389 . S
C1602 C1603 1.387 . S
C1603 H1588 0.930 . S
C1603 C1598 1.390 . S
C1603 C1602 1.387 . S
H1604 C1616 0.930 . S
H1605 C1618 0.930 . S
H1606 C1619 0.930 . S
H1607 C1623 0.959 . S
H1608 C1623 0.959 . S
H1609 C1623 0.961 . S
H1610 C1624 0.960 . S
H1611 C1624 0.961 . S
H1612 C1624 0.959 . S
H1613 C1627 0.929 . S
H1614 C1628 0.931 . S
H1615 C1630 0.930 . S
C1616 H1604 0.930 . S
C1616 C1617 1.399 . S
C1616 C1621 1.399 . S
C1617 C1616 1.399 . S
C1617 C1618 1.376 . S
C1618 H1605 0.930 . S
C1618 C1617 1.376 . S
C1618 C1619 1.388 . S
C1619 H1606 0.930 . S
C1619 C1618 1.388 . S
C1619 C1620 1.390 . S
C1620 C1619 1.390 . S
C1620 C1621 1.394 . S
C1620 C1626 1.465 . S
C1621 C1616 1.399 . S
C1621 C1620 1.394 . S
C1621 C1622 1.516 . S
C1622 C1621 1.516 . S
C1622 C1623 1.502 . S
C1622 C1624 1.561 . S
C1622 C1625 1.526 . S
C1623 H1607 0.959 . S
C1623 H1608 0.959 . S
C1623 H1609 0.961 . S
C1623 C1622 1.502 . S
C1624 H1610 0.960 . S
C1624 H1611 0.961 . S
C1624 H1612 0.959 . S
C1624 C1622 1.561 . S
C1625 C1622 1.526 . S
C1625 C1626 1.396 . S
C1625 C1630 1.390 . S
C1626 C1620 1.465 . S
C1626 C1625 1.396 . S
C1626 C1627 1.399 . S
C1627 H1613 0.929 . S
C1627 C1626 1.399 . S
C1627 C1628 1.385 . S
C1628 H1614 0.931 . S
C1628 C1627 1.385 . S
C1628 C1629 1.389 . S
C1629 C1628 1.389 . S
C1629 C1630 1.387 . S
C1630 H1615 0.930 . S
C1630 C1625 1.390 . S
C1630 C1629 1.387 . S
H1631 C1643 0.930 . S
H1632 C1645 0.930 . S
H1633 C1646 0.930 . S
H1634 C1650 0.959 . S
H1635 C1650 0.959 . S
H1636 C1650 0.961 . S
H1637 C1651 0.960 . S
H1638 C1651 0.961 . S
H1639 C1651 0.959 . S
H1640 C1654 0.929 . S
H1641 C1655 0.931 . S
H1642 C1657 0.930 . S
C1643 H1631 0.930 . S
C1643 C1644 1.399 . S
C1643 C1648 1.399 . S
C1644 C1643 1.399 . S
C1644 C1645 1.376 . S
C1645 H1632 0.930 . S
C1645 C1644 1.376 . S
C1645 C1646 1.388 . S
C1646 H1633 0.930 . S
C1646 C1645 1.388 . S
C1646 C1647 1.390 . S
C1647 C1646 1.390 . S
C1647 C1648 1.394 . S
C1647 C1653 1.465 . S
C1648 C1643 1.399 . S
C1648 C1647 1.394 . S
C1648 C1649 1.516 . S
C1649 C1648 1.516 . S
C1649 C1650 1.502 . S
C1649 C1651 1.561 . S
C1649 C1652 1.526 . S
C1650 H1634 0.959 . S
C1650 H1635 0.959 . S
C1650 H1636 0.961 . S
C1650 C1649 1.502 . S
C1651 H1637 0.960 . S
C1651 H1638 0.961 . S
C1651 H1639 0.959 . S
C1651 C1649 1.561 . S
C1652 C1649 1.526 . S
C1652 C1653 1.396 . S
C1652 C1657 1.390 . S
C1653 C1647 1.465 . S
C1653 C1652 1.396 . S
C1653 C1654 1.399 . S
C1654 H1640 0.929 . S
C1654 C1653 1.399 . S
C1654 C1655 1.385 . S
C1655 H1641 0.931 . S
C1655 C1654 1.385 . S
C1655 C1656 1.389 . S
C1656 C1655 1.389 . S
C1656 C1657 1.387 . S
C1657 H1642 0.930 . S
C1657 C1652 1.390 . S
C1657 C1656 1.387 . S
H1658 C1670 0.930 . S
H1659 C1672 0.930 . S
H1660 C1673 0.930 . S
H1661 C1677 0.959 . S
H1662 C1677 0.959 . S
H1663 C1677 0.961 . S
H1664 C1678 0.960 . S
H1665 C1678 0.961 . S
H1666 C1678 0.959 . S
H1667 C1681 0.929 . S
H1668 C1682 0.931 . S
H1669 C1684 0.930 . S
C1670 H1658 0.930 . S
C1670 C1671 1.399 . S
C1670 C1675 1.399 . S
C1671 C1670 1.399 . S
C1671 C1672 1.376 . S
C1672 H1659 0.930 . S
C1672 C1671 1.376 . S
C1672 C1673 1.388 . S
C1673 H1660 0.930 . S
C1673 C1672 1.388 . S
C1673 C1674 1.390 . S
C1674 C1673 1.390 . S
C1674 C1675 1.394 . S
C1674 C1680 1.465 . S
C1675 C1670 1.399 . S
C1675 C1674 1.394 . S
C1675 C1676 1.516 . S
C1676 C1675 1.516 . S
C1676 C1677 1.502 . S
C1676 C1678 1.561 . S
C1676 C1679 1.526 . S
C1677 H1661 0.959 . S
C1677 H1662 0.959 . S
C1677 H1663 0.961 . S
C1677 C1676 1.502 . S
C1678 H1664 0.960 . S
C1678 H1665 0.961 . S
C1678 H1666 0.959 . S
C1678 C1676 1.561 . S
C1679 C1676 1.526 . S
C1679 C1680 1.396 . S
C1679 C1684 1.390 . S
C1680 C1674 1.465 . S
C1680 C1679 1.396 . S
C1680 C1681 1.399 . S
C1681 H1667 0.929 . S
C1681 C1680 1.399 . S
C1681 C1682 1.385 . S
C1682 H1668 0.931 . S
C1682 C1681 1.385 . S
C1682 C1683 1.389 . S
C1683 C1682 1.389 . S
C1683 C1684 1.387 . S
C1684 H1669 0.930 . S
C1684 C1679 1.390 . S
C1684 C1683 1.387 . S
H1685 C1697 0.930 . S
H1686 C1699 0.930 . S
H1687 C1700 0.930 . S
H1688 C1704 0.959 . S
H1689 C1704 0.959 . S
H1690 C1704 0.961 . S
H1691 C1705 0.960 . S
H1692 C1705 0.961 . S
H1693 C1705 0.959 . S
H1694 C1708 0.929 . S
H1695 C1709 0.931 . S
H1696 C1711 0.930 . S
C1697 H1685 0.930 . S
C1697 C1698 1.399 . S
C1697 C1702 1.399 . S
C1698 C1697 1.399 . S
C1698 C1699 1.376 . S
C1699 H1686 0.930 . S
C1699 C1698 1.376 . S
C1699 C1700 1.388 . S
C1700 H1687 0.930 . S
C1700 C1699 1.388 . S
C1700 C1701 1.390 . S
C1701 C1700 1.390 . S
C1701 C1702 1.394 . S
C1701 C1707 1.465 . S
C1702 C1697 1.399 . S
C1702 C1701 1.394 . S
C1702 C1703 1.516 . S
C1703 C1702 1.516 . S
C1703 C1704 1.502 . S
C1703 C1705 1.561 . S
C1703 C1706 1.526 . S
C1704 H1688 0.959 . S
C1704 H1689 0.959 . S
C1704 H1690 0.961 . S
C1704 C1703 1.502 . S
C1705 H1691 0.960 . S
C1705 H1692 0.961 . S
C1705 H1693 0.959 . S
C1705 C1703 1.561 . S
C1706 C1703 1.526 . S
C1706 C1707 1.396 . S
C1706 C1711 1.390 . S
C1707 C1701 1.465 . S
C1707 C1706 1.396 . S
C1707 C1708 1.399 . S
C1708 H1694 0.929 . S
C1708 C1707 1.399 . S
C1708 C1709 1.385 . S
C1709 H1695 0.931 . S
C1709 C1708 1.385 . S
C1709 C1710 1.389 . S
C1710 C1709 1.389 . S
C1710 C1711 1.387 . S
C1711 H1696 0.930 . S
C1711 C1706 1.390 . S
C1711 C1710 1.387 . S
H1712 C1724 0.930 . S
H1713 C1726 0.930 . S
H1714 C1727 0.930 . S
H1715 C1731 0.959 . S
H1716 C1731 0.959 . S
H1717 C1731 0.961 . S
H1718 C1732 0.960 . S
H1719 C1732 0.961 . S
H1720 C1732 0.959 . S
H1721 C1735 0.929 . S
H1722 C1736 0.931 . S
H1723 C1738 0.930 . S
C1724 H1712 0.930 . S
C1724 C1725 1.399 . S
C1724 C1729 1.399 . S
C1725 C1724 1.399 . S
C1725 C1726 1.376 . S
C1726 H1713 0.930 . S
C1726 C1725 1.376 . S
C1726 C1727 1.388 . S
C1727 H1714 0.930 . S
C1727 C1726 1.388 . S
C1727 C1728 1.390 . S
C1728 C1727 1.390 . S
C1728 C1729 1.394 . S
C1728 C1734 1.465 . S
C1729 C1724 1.399 . S
C1729 C1728 1.394 . S
C1729 C1730 1.516 . S
C1730 C1729 1.516 . S
C1730 C1731 1.502 . S
C1730 C1732 1.561 . S
C1730 C1733 1.526 . S
C1731 H1715 0.959 . S
C1731 H1716 0.959 . S
C1731 H1717 0.961 . S
C1731 C1730 1.502 . S
C1732 H1718 0.960 . S
C1732 H1719 0.961 . S
C1732 H1720 0.959 . S
C1732 C1730 1.561 . S
C1733 C1730 1.526 . S
C1733 C1734 1.396 . S
C1733 C1738 1.390 . S
C1734 C1728 1.465 . S
C1734 C1733 1.396 . S
C1734 C1735 1.399 . S
C1735 H1721 0.929 . S
C1735 C1734 1.399 . S
C1735 C1736 1.385 . S
C1736 H1722 0.931 . S
C1736 C1735 1.385 . S
C1736 C1737 1.389 . S
C1737 C1736 1.389 . S
C1737 C1738 1.387 . S
C1738 H1723 0.930 . S
C1738 C1733 1.390 . S
C1738 C1737 1.387 . S
H1739 C1751 0.930 . S
H1740 C1753 0.930 1_565 S
H1741 C1754 0.930 . S
H1742 C1758 0.959 . S
H1743 C1758 0.959 . S
H1744 C1758 0.961 . S
H1745 C1759 0.960 . S
H1746 C1759 0.961 . S
H1747 C1759 0.959 . S
H1748 C1762 0.929 . S
H1749 C1763 0.931 . S
H1750 C1765 0.930 . S
C1751 H1739 0.930 . S
C1751 C1752 1.410 . S
C1751 C1756 1.399 . S
C1752 C1751 1.410 . S
C1752 C1753 1.380 . S
C1753 H1740 0.930 1_545 S
C1753 C1752 1.380 . S
C1753 C1754 1.388 . S
C1754 H1741 0.930 . S
C1754 C1753 1.388 . S
C1754 C1755 1.390 . S
C1755 C1754 1.390 . S
C1755 C1756 1.394 . S
C1755 C1761 1.465 . S
C1756 C1751 1.399 . S
C1756 C1755 1.394 . S
C1756 C1757 1.516 . S
C1757 C1756 1.516 . S
C1757 C1758 1.502 . S
C1757 C1759 1.561 . S
C1757 C1760 1.526 . S
C1758 H1742 0.959 . S
C1758 H1743 0.959 . S
C1758 H1744 0.961 . S
C1758 C1757 1.502 . S
C1759 H1745 0.960 . S
C1759 H1746 0.961 . S
C1759 H1747 0.959 . S
C1759 C1757 1.561 . S
C1760 C1757 1.526 . S
C1760 C1761 1.396 . S
C1760 C1765 1.390 . S
C1761 C1755 1.465 . S
C1761 C1760 1.396 . S
C1761 C1762 1.399 . S
C1762 H1748 0.929 . S
C1762 C1761 1.399 . S
C1762 C1763 1.385 . S
C1763 H1749 0.931 . S
C1763 C1762 1.385 . S
C1763 C1764 1.389 . S
C1764 C1763 1.389 . S
C1764 C1765 1.387 . S
C1765 H1750 0.930 . S
C1765 C1760 1.390 . S
C1765 C1764 1.387 . S
H1766 C1778 0.930 . S
H1767 C1780 0.930 . S
H1768 C1781 0.930 . S
H1769 C1785 0.959 . S
H1770 C1785 0.959 . S
H1771 C1785 0.961 . S
H1772 C1786 0.960 . S
H1773 C1786 0.961 . S
H1774 C1786 0.959 . S
H1775 C1789 0.929 . S
H1776 C1790 0.931 1_545 S
H1777 C1792 0.930 . S
C1778 H1766 0.930 . S
C1778 C1779 1.399 . S
C1778 C1783 1.399 . S
C1779 C1778 1.399 . S
C1779 C1780 1.376 . S
C1780 H1767 0.930 . S
C1780 C1779 1.376 . S
C1780 C1781 1.388 . S
C1781 H1768 0.930 . S
C1781 C1780 1.388 . S
C1781 C1782 1.390 . S
C1782 C1781 1.390 . S
C1782 C1783 1.394 . S
C1782 C1788 1.465 . S
C1783 C1778 1.399 . S
C1783 C1782 1.394 . S
C1783 C1784 1.516 . S
C1784 C1783 1.516 . S
C1784 C1785 1.502 . S
C1784 C1786 1.561 . S
C1784 C1787 1.526 . S
C1785 H1769 0.959 . S
C1785 H1770 0.959 . S
C1785 H1771 0.961 . S
C1785 C1784 1.502 . S
C1786 H1772 0.960 . S
C1786 H1773 0.961 . S
C1786 H1774 0.959 . S
C1786 C1784 1.561 . S
C1787 C1784 1.526 . S
C1787 C1788 1.396 . S
C1787 C1792 1.390 . S
C1788 C1782 1.465 . S
C1788 C1787 1.396 . S
C1788 C1789 1.399 . S
C1789 H1775 0.929 . S
C1789 C1788 1.399 . S
C1789 C1790 1.385 . S
C1790 H1776 0.931 1_565 S
C1790 C1789 1.385 . S
C1790 C1791 1.393 . S
C1791 C1790 1.393 . S
C1791 C1792 1.398 . S
C1792 H1777 0.930 . S
C1792 C1787 1.390 . S
C1792 C1791 1.398 . S
H1793 C1805 0.930 . S
H1794 C1807 0.930 1_545 S
H1795 C1808 0.930 . S
H1796 C1812 0.959 . S
H1797 C1812 0.959 . S
H1798 C1812 0.961 . S
H1799 C1813 0.960 . S
H1800 C1813 0.961 . S
H1801 C1813 0.959 . S
H1802 C1816 0.929 . S
H1803 C1817 0.931 . S
H1804 C1819 0.930 . S
C1805 H1793 0.930 . S
C1805 C1806 1.416 . S
C1805 C1810 1.399 . S
C1806 C1805 1.416 . S
C1806 C1807 1.382 . S
C1807 H1794 0.930 1_565 S
C1807 C1806 1.382 . S
C1807 C1808 1.388 . S
C1808 H1795 0.930 . S
C1808 C1807 1.388 . S
C1808 C1809 1.390 . S
C1809 C1808 1.390 . S
C1809 C1810 1.394 . S
C1809 C1815 1.465 . S
C1810 C1805 1.399 . S
C1810 C1809 1.394 . S
C1810 C1811 1.516 . S
C1811 C1810 1.516 . S
C1811 C1812 1.502 . S
C1811 C1813 1.561 . S
C1811 C1814 1.526 . S
C1812 H1796 0.959 . S
C1812 H1797 0.959 . S
C1812 H1798 0.961 . S
C1812 C1811 1.502 . S
C1813 H1799 0.960 . S
C1813 H1800 0.961 . S
C1813 H1801 0.959 . S
C1813 C1811 1.561 . S
C1814 C1811 1.526 . S
C1814 C1815 1.396 . S
C1814 C1819 1.390 . S
C1815 C1809 1.465 . S
C1815 C1814 1.396 . S
C1815 C1816 1.399 . S
C1816 H1802 0.929 . S
C1816 C1815 1.399 . S
C1816 C1817 1.385 . S
C1817 H1803 0.931 . S
C1817 C1816 1.385 . S
C1817 C1818 1.389 . S
C1818 C1817 1.389 . S
C1818 C1819 1.387 . S
C1819 H1804 0.930 . S
C1819 C1814 1.390 . S
C1819 C1818 1.387 . S
H1820 C1832 0.930 . S
H1821 C1834 0.930 . S
H1822 C1835 0.930 . S
H1823 C1839 0.959 . S
H1824 C1839 0.959 . S
H1825 C1839 0.961 . S
H1826 C1840 0.960 . S
H1827 C1840 0.961 . S
H1828 C1840 0.959 . S
H1829 C1843 0.929 . S
H1830 C1844 0.931 . S
H1831 C1846 0.930 . S
C1832 H1820 0.930 . S
C1832 C1833 1.399 . S
C1832 C1837 1.399 . S
C1833 C1832 1.399 . S
C1833 C1834 1.376 . S
C1834 H1821 0.930 . S
C1834 C1833 1.376 . S
C1834 C1835 1.388 . S
C1835 H1822 0.930 . S
C1835 C1834 1.388 . S
C1835 C1836 1.390 . S
C1836 C1835 1.390 . S
C1836 C1837 1.394 . S
C1836 C1842 1.465 . S
C1837 C1832 1.399 . S
C1837 C1836 1.394 . S
C1837 C1838 1.516 . S
C1838 C1837 1.516 . S
C1838 C1839 1.502 . S
C1838 C1840 1.561 . S
C1838 C1841 1.526 . S
C1839 H1823 0.959 . S
C1839 H1824 0.959 . S
C1839 H1825 0.961 . S
C1839 C1838 1.502 . S
C1840 H1826 0.960 . S
C1840 H1827 0.961 . S
C1840 H1828 0.959 . S
C1840 C1838 1.561 . S
C1841 C1838 1.526 . S
C1841 C1842 1.396 . S
C1841 C1846 1.390 . S
C1842 C1836 1.465 . S
C1842 C1841 1.396 . S
C1842 C1843 1.399 . S
C1843 H1829 0.929 . S
C1843 C1842 1.399 . S
C1843 C1844 1.385 . S
C1844 H1830 0.931 . S
C1844 C1843 1.385 . S
C1844 C1845 1.389 . S
C1845 C1844 1.389 . S
C1845 C1846 1.387 . S
C1846 H1831 0.930 . S
C1846 C1841 1.390 . S
C1846 C1845 1.387 . S
H1847 C1859 0.930 . S
H1848 C1861 0.930 . S
H1849 C1862 0.930 . S
H1850 C1866 0.959 . S
H1851 C1866 0.959 . S
H1852 C1866 0.961 . S
H1853 C1867 0.960 . S
H1854 C1867 0.961 . S
H1855 C1867 0.959 . S
H1856 C1870 0.929 . S
H1857 C1871 0.931 . S
H1858 C1873 0.930 . S
C1859 H1847 0.930 . S
C1859 C1860 1.399 . S
C1859 C1864 1.399 . S
C1860 C1859 1.399 . S
C1860 C1861 1.376 . S
C1861 H1848 0.930 . S
C1861 C1860 1.376 . S
C1861 C1862 1.388 . S
C1862 H1849 0.930 . S
C1862 C1861 1.388 . S
C1862 C1863 1.390 . S
C1863 C1862 1.390 . S
C1863 C1864 1.394 . S
C1863 C1869 1.465 . S
C1864 C1859 1.399 . S
C1864 C1863 1.394 . S
C1864 C1865 1.516 . S
C1865 C1864 1.516 . S
C1865 C1866 1.502 . S
C1865 C1867 1.561 . S
C1865 C1868 1.526 . S
C1866 H1850 0.959 . S
C1866 H1851 0.959 . S
C1866 H1852 0.961 . S
C1866 C1865 1.502 . S
C1867 H1853 0.960 . S
C1867 H1854 0.961 . S
C1867 H1855 0.959 . S
C1867 C1865 1.561 . S
C1868 C1865 1.526 . S
C1868 C1869 1.396 . S
C1868 C1873 1.390 . S
C1869 C1863 1.465 . S
C1869 C1868 1.396 . S
C1869 C1870 1.399 . S
C1870 H1856 0.929 . S
C1870 C1869 1.399 . S
C1870 C1871 1.385 . S
C1871 H1857 0.931 . S
C1871 C1870 1.385 . S
C1871 C1872 1.389 . S
C1872 C1871 1.389 . S
C1872 C1873 1.387 . S
C1873 H1858 0.930 . S
C1873 C1868 1.390 . S
C1873 C1872 1.387 . S
H1874 C1886 0.930 . S
H1875 C1888 0.930 . S
H1876 C1889 0.930 . S
H1877 C1893 0.959 . S
H1878 C1893 0.959 . S
H1879 C1893 0.961 . S
H1880 C1894 0.960 . S
H1881 C1894 0.961 . S
H1882 C1894 0.959 . S
H1883 C1897 0.929 . S
H1884 C1898 0.931 . S
H1885 C1900 0.930 . S
C1886 H1874 0.930 . S
C1886 C1887 1.399 . S
C1886 C1891 1.399 . S
C1887 C1886 1.399 . S
C1887 C1888 1.376 . S
C1888 H1875 0.930 . S
C1888 C1887 1.376 . S
C1888 C1889 1.388 . S
C1889 H1876 0.930 . S
C1889 C1888 1.388 . S
C1889 C1890 1.390 . S
C1890 C1889 1.390 . S
C1890 C1891 1.394 . S
C1890 C1896 1.465 . S
C1891 C1886 1.399 . S
C1891 C1890 1.394 . S
C1891 C1892 1.516 . S
C1892 C1891 1.516 . S
C1892 C1893 1.502 . S
C1892 C1894 1.561 . S
C1892 C1895 1.526 . S
C1893 H1877 0.959 . S
C1893 H1878 0.959 . S
C1893 H1879 0.961 . S
C1893 C1892 1.502 . S
C1894 H1880 0.960 . S
C1894 H1881 0.961 . S
C1894 H1882 0.959 . S
C1894 C1892 1.561 . S
C1895 C1892 1.526 . S
C1895 C1896 1.396 . S
C1895 C1900 1.390 . S
C1896 C1890 1.465 . S
C1896 C1895 1.396 . S
C1896 C1897 1.399 . S
C1897 H1883 0.929 . S
C1897 C1896 1.399 . S
C1897 C1898 1.385 . S
C1898 H1884 0.931 . S
C1898 C1897 1.385 . S
C1898 C1899 1.389 . S
C1899 C1898 1.389 . S
C1899 C1900 1.387 . S
C1900 H1885 0.930 . S
C1900 C1895 1.390 . S
C1900 C1899 1.387 . S
H1901 C1913 0.930 . S
H1902 C1915 0.930 . S
H1903 C1916 0.930 . S
H1904 C1920 0.959 . S
H1905 C1920 0.959 . S
H1906 C1920 0.961 . S
H1907 C1921 0.960 . S
H1908 C1921 0.961 . S
H1909 C1921 0.959 . S
H1910 C1924 0.929 . S
H1911 C1925 0.931 . S
H1912 C1927 0.930 . S
C1913 H1901 0.930 . S
C1913 C1914 1.399 . S
C1913 C1918 1.399 . S
C1914 C1913 1.399 . S
C1914 C1915 1.376 . S
C1915 H1902 0.930 . S
C1915 C1914 1.376 . S
C1915 C1916 1.388 . S
C1916 H1903 0.930 . S
C1916 C1915 1.388 . S
C1916 C1917 1.390 . S
C1917 C1916 1.390 . S
C1917 C1918 1.394 . S
C1917 C1923 1.465 . S
C1918 C1913 1.399 . S
C1918 C1917 1.394 . S
C1918 C1919 1.516 . S
C1919 C1918 1.516 . S
C1919 C1920 1.502 . S
C1919 C1921 1.561 . S
C1919 C1922 1.526 . S
C1920 H1904 0.959 . S
C1920 H1905 0.959 . S
C1920 H1906 0.961 . S
C1920 C1919 1.502 . S
C1921 H1907 0.960 . S
C1921 H1908 0.961 . S
C1921 H1909 0.959 . S
C1921 C1919 1.561 . S
C1922 C1919 1.526 . S
C1922 C1923 1.396 . S
C1922 C1927 1.390 . S
C1923 C1917 1.465 . S
C1923 C1922 1.396 . S
C1923 C1924 1.399 . S
C1924 H1910 0.929 . S
C1924 C1923 1.399 . S
C1924 C1925 1.385 . S
C1925 H1911 0.931 . S
C1925 C1924 1.385 . S
C1925 C1926 1.389 . S
C1926 C1925 1.389 . S
C1926 C1927 1.387 . S
C1927 H1912 0.930 . S
C1927 C1922 1.390 . S
C1927 C1926 1.387 . S
H1928 C1940 0.930 . S
H1929 C1942 0.930 . S
H1930 C1943 0.930 . S
H1931 C1947 0.959 . S
H1932 C1947 0.959 . S
H1933 C1947 0.961 . S
H1934 C1948 0.960 . S
H1935 C1948 0.961 . S
H1936 C1948 0.959 . S
H1937 C1951 0.929 . S
H1938 C1952 0.931 . S
H1939 C1954 0.930 . S
C1940 H1928 0.930 . S
C1940 C1941 1.399 . S
C1940 C1945 1.399 . S
C1941 C1940 1.399 . S
C1941 C1942 1.376 . S
C1942 H1929 0.930 . S
C1942 C1941 1.376 . S
C1942 C1943 1.388 . S
C1943 H1930 0.930 . S
C1943 C1942 1.388 . S
C1943 C1944 1.390 . S
C1944 C1943 1.390 . S
C1944 C1945 1.394 . S
C1944 C1950 1.465 . S
C1945 C1940 1.399 . S
C1945 C1944 1.394 . S
C1945 C1946 1.516 . S
C1946 C1945 1.516 . S
C1946 C1947 1.502 . S
C1946 C1948 1.561 . S
C1946 C1949 1.526 . S
C1947 H1931 0.959 . S
C1947 H1932 0.959 . S
C1947 H1933 0.961 . S
C1947 C1946 1.502 . S
C1948 H1934 0.960 . S
C1948 H1935 0.961 . S
C1948 H1936 0.959 . S
C1948 C1946 1.561 . S
C1949 C1946 1.526 . S
C1949 C1950 1.396 . S
C1949 C1954 1.390 . S
C1950 C1944 1.465 . S
C1950 C1949 1.396 . S
C1950 C1951 1.399 . S
C1951 H1937 0.929 . S
C1951 C1950 1.399 . S
C1951 C1952 1.385 . S
C1952 H1938 0.931 . S
C1952 C1951 1.385 . S
C1952 C1953 1.389 . S
C1953 C1952 1.389 . S
C1953 C1954 1.387 . S
C1954 H1939 0.930 . S
C1954 C1949 1.390 . S
C1954 C1953 1.387 . S
H1955 C1967 0.930 . S
H1956 C1969 0.930 . S
H1957 C1970 0.930 . S
H1958 C1974 0.959 . S
H1959 C1974 0.959 . S
H1960 C1974 0.961 . S
H1961 C1975 0.960 . S
H1962 C1975 0.961 . S
H1963 C1975 0.959 . S
H1964 C1978 0.929 . S
H1965 C1979 0.931 . S
H1966 C1981 0.930 . S
C1967 H1955 0.930 . S
C1967 C1968 1.399 . S
C1967 C1972 1.399 . S
C1968 C1967 1.399 . S
C1968 C1969 1.376 . S
C1969 H1956 0.930 . S
C1969 C1968 1.376 . S
C1969 C1970 1.388 . S
C1970 H1957 0.930 . S
C1970 C1969 1.388 . S
C1970 C1971 1.390 . S
C1971 C1970 1.390 . S
C1971 C1972 1.394 . S
C1971 C1977 1.465 . S
C1972 C1967 1.399 . S
C1972 C1971 1.394 . S
C1972 C1973 1.516 . S
C1973 C1972 1.516 . S
C1973 C1974 1.502 . S
C1973 C1975 1.561 . S
C1973 C1976 1.526 . S
C1974 H1958 0.959 . S
C1974 H1959 0.959 . S
C1974 H1960 0.961 . S
C1974 C1973 1.502 . S
C1975 H1961 0.960 . S
C1975 H1962 0.961 . S
C1975 H1963 0.959 . S
C1975 C1973 1.561 . S
C1976 C1973 1.526 . S
C1976 C1977 1.396 . S
C1976 C1981 1.390 . S
C1977 C1971 1.465 . S
C1977 C1976 1.396 . S
C1977 C1978 1.399 . S
C1978 H1964 0.929 . S
C1978 C1977 1.399 . S
C1978 C1979 1.385 . S
C1979 H1965 0.931 . S
C1979 C1978 1.385 . S
C1979 C1980 1.389 . S
C1980 C1979 1.389 . S
C1980 C1981 1.387 . S
C1981 H1966 0.930 . S
C1981 C1976 1.390 . S
C1981 C1980 1.387 . S
H1982 C1994 0.930 . S
H1983 C1996 0.930 . S
H1984 C1997 0.930 . S
H1985 C2001 0.959 . S
H1986 C2001 0.959 . S
H1987 C2001 0.961 . S
H1988 C2002 0.960 . S
H1989 C2002 0.961 . S
H1990 C2002 0.959 . S
H1991 C2005 0.929 . S
H1992 C2006 0.931 1_545 S
H1993 C2008 0.930 . S
C1994 H1982 0.930 . S
C1994 C1995 1.399 . S
C1994 C1999 1.399 . S
C1995 C1994 1.399 . S
C1995 C1996 1.376 . S
C1996 H1983 0.930 . S
C1996 C1995 1.376 . S
C1996 C1997 1.388 . S
C1997 H1984 0.930 . S
C1997 C1996 1.388 . S
C1997 C1998 1.390 . S
C1998 C1997 1.390 . S
C1998 C1999 1.394 . S
C1998 C2004 1.465 . S
C1999 C1994 1.399 . S
C1999 C1998 1.394 . S
C1999 C2000 1.516 . S
C2000 C1999 1.516 . S
C2000 C2001 1.502 . S
C2000 C2002 1.561 . S
C2000 C2003 1.526 . S
C2001 H1985 0.959 . S
C2001 H1986 0.959 . S
C2001 H1987 0.961 . S
C2001 C2000 1.502 . S
C2002 H1988 0.960 . S
C2002 H1989 0.961 . S
C2002 H1990 0.959 . S
C2002 C2000 1.561 . S
C2003 C2000 1.526 . S
C2003 C2004 1.396 . S
C2003 C2008 1.390 . S
C2004 C1998 1.465 . S
C2004 C2003 1.396 . S
C2004 C2005 1.399 . S
C2005 H1991 0.929 . S
C2005 C2004 1.399 . S
C2005 C2006 1.385 . S
C2006 H1992 0.931 1_565 S
C2006 C2005 1.385 . S
C2006 C2007 1.396 . S
C2007 C2006 1.396 . S
C2007 C2008 1.403 . S
C2008 H1993 0.930 . S
C2008 C2003 1.390 . S
C2008 C2007 1.403 . S
H2009 C2021 0.930 . S
H2010 C2023 0.930 . S
H2011 C2024 0.930 . S
H2012 C2028 0.959 . S
H2013 C2028 0.959 . S
H2014 C2028 0.961 . S
H2015 C2029 0.960 . S
H2016 C2029 0.961 . S
H2017 C2029 0.959 . S
H2018 C2032 0.929 . S
H2019 C2033 0.931 . S
H2020 C2035 0.930 . S
C2021 H2009 0.930 . S
C2021 C2022 1.399 . S
C2021 C2026 1.399 . S
C2022 C2021 1.399 . S
C2022 C2023 1.376 . S
C2023 H2010 0.930 . S
C2023 C2022 1.376 . S
C2023 C2024 1.388 . S
C2024 H2011 0.930 . S
C2024 C2023 1.388 . S
C2024 C2025 1.390 . S
C2025 C2024 1.390 . S
C2025 C2026 1.394 . S
C2025 C2031 1.465 . S
C2026 C2021 1.399 . S
C2026 C2025 1.394 . S
C2026 C2027 1.516 . S
C2027 C2026 1.516 . S
C2027 C2028 1.502 . S
C2027 C2029 1.561 . S
C2027 C2030 1.526 . S
C2028 H2012 0.959 . S
C2028 H2013 0.959 . S
C2028 H2014 0.961 . S
C2028 C2027 1.502 . S
C2029 H2015 0.960 . S
C2029 H2016 0.961 . S
C2029 H2017 0.959 . S
C2029 C2027 1.561 . S
C2030 C2027 1.526 . S
C2030 C2031 1.396 . S
C2030 C2035 1.390 . S
C2031 C2025 1.465 . S
C2031 C2030 1.396 . S
C2031 C2032 1.399 . S
C2032 H2018 0.929 . S
C2032 C2031 1.399 . S
C2032 C2033 1.385 . S
C2033 H2019 0.931 . S
C2033 C2032 1.385 . S
C2033 C2034 1.389 . S
C2034 C2033 1.389 . S
C2034 C2035 1.387 . S
C2035 H2020 0.930 . S
C2035 C2030 1.390 . S
C2035 C2034 1.387 . S
H2036 C2048 0.930 . S
H2037 C2050 0.930 . S
H2038 C2051 0.930 . S
H2039 C2055 0.959 . S
H2040 C2055 0.959 . S
H2041 C2055 0.961 . S
H2042 C2056 0.960 . S
H2043 C2056 0.961 . S
H2044 C2056 0.959 . S
H2045 C2059 0.929 . S
H2046 C2060 0.931 . S
H2047 C2062 0.930 . S
C2048 H2036 0.930 . S
C2048 C2049 1.399 . S
C2048 C2053 1.399 . S
C2049 C2048 1.399 . S
C2049 C2050 1.376 . S
C2050 H2037 0.930 . S
C2050 C2049 1.376 . S
C2050 C2051 1.388 . S
C2051 H2038 0.930 . S
C2051 C2050 1.388 . S
C2051 C2052 1.390 . S
C2052 C2051 1.390 . S
C2052 C2053 1.394 . S
C2052 C2058 1.465 . S
C2053 C2048 1.399 . S
C2053 C2052 1.394 . S
C2053 C2054 1.516 . S
C2054 C2053 1.516 . S
C2054 C2055 1.502 . S
C2054 C2056 1.561 . S
C2054 C2057 1.526 . S
C2055 H2039 0.959 . S
C2055 H2040 0.959 . S
C2055 H2041 0.961 . S
C2055 C2054 1.502 . S
C2056 H2042 0.960 . S
C2056 H2043 0.961 . S
C2056 H2044 0.959 . S
C2056 C2054 1.561 . S
C2057 C2054 1.526 . S
C2057 C2058 1.396 . S
C2057 C2062 1.390 . S
C2058 C2052 1.465 . S
C2058 C2057 1.396 . S
C2058 C2059 1.399 . S
C2059 H2045 0.929 . S
C2059 C2058 1.399 . S
C2059 C2060 1.385 . S
C2060 H2046 0.931 . S
C2060 C2059 1.385 . S
C2060 C2061 1.389 . S
C2061 C2060 1.389 . S
C2061 C2062 1.387 . S
C2062 H2047 0.930 . S
C2062 C2057 1.390 . S
C2062 C2061 1.387 . S
H2063 C2075 0.930 . S
H2064 C2077 0.930 . S
H2065 C2078 0.930 . S
H2066 C2082 0.959 . S
H2067 C2082 0.959 . S
H2068 C2082 0.961 . S
H2069 C2083 0.960 . S
H2070 C2083 0.961 . S
H2071 C2083 0.959 . S
H2072 C2086 0.929 . S
H2073 C2087 0.931 . S
H2074 C2089 0.930 . S
C2075 H2063 0.930 . S
C2075 C2076 1.399 . S
C2075 C2080 1.399 . S
C2076 C2075 1.399 . S
C2076 C2077 1.376 . S
C2077 H2064 0.930 . S
C2077 C2076 1.376 . S
C2077 C2078 1.388 . S
C2078 H2065 0.930 . S
C2078 C2077 1.388 . S
C2078 C2079 1.390 . S
C2079 C2078 1.390 . S
C2079 C2080 1.394 . S
C2079 C2085 1.465 . S
C2080 C2075 1.399 . S
C2080 C2079 1.394 . S
C2080 C2081 1.516 . S
C2081 C2080 1.516 . S
C2081 C2082 1.502 . S
C2081 C2083 1.561 . S
C2081 C2084 1.526 . S
C2082 H2066 0.959 . S
C2082 H2067 0.959 . S
C2082 H2068 0.961 . S
C2082 C2081 1.502 . S
C2083 H2069 0.960 . S
C2083 H2070 0.961 . S
C2083 H2071 0.959 . S
C2083 C2081 1.561 . S
C2084 C2081 1.526 . S
C2084 C2085 1.396 . S
C2084 C2089 1.390 . S
C2085 C2079 1.465 . S
C2085 C2084 1.396 . S
C2085 C2086 1.399 . S
C2086 H2072 0.929 . S
C2086 C2085 1.399 . S
C2086 C2087 1.385 . S
C2087 H2073 0.931 . S
C2087 C2086 1.385 . S
C2087 C2088 1.389 . S
C2088 C2087 1.389 . S
C2088 C2089 1.387 . S
C2089 H2074 0.930 . S
C2089 C2084 1.390 . S
C2089 C2088 1.387 . S
H2090 C2102 0.930 . S
H2091 C2104 0.930 . S
H2092 C2105 0.930 . S
H2093 C2109 0.959 . S
H2094 C2109 0.959 . S
H2095 C2109 0.961 . S
H2096 C2110 0.960 . S
H2097 C2110 0.961 . S
H2098 C2110 0.959 . S
H2099 C2113 0.929 . S
H2100 C2114 0.931 . S
H2101 C2116 0.930 . S
C2102 H2090 0.930 . S
C2102 C2103 1.399 . S
C2102 C2107 1.399 . S
C2103 C2102 1.399 . S
C2103 C2104 1.376 . S
C2104 H2091 0.930 . S
C2104 C2103 1.376 . S
C2104 C2105 1.388 . S
C2105 H2092 0.930 . S
C2105 C2104 1.388 . S
C2105 C2106 1.390 . S
C2106 C2105 1.390 . S
C2106 C2107 1.394 . S
C2106 C2112 1.465 . S
C2107 C2102 1.399 . S
C2107 C2106 1.394 . S
C2107 C2108 1.516 . S
C2108 C2107 1.516 . S
C2108 C2109 1.502 . S
C2108 C2110 1.561 . S
C2108 C2111 1.526 . S
C2109 H2093 0.959 . S
C2109 H2094 0.959 . S
C2109 H2095 0.961 . S
C2109 C2108 1.502 . S
C2110 H2096 0.960 . S
C2110 H2097 0.961 . S
C2110 H2098 0.959 . S
C2110 C2108 1.561 . S
C2111 C2108 1.526 . S
C2111 C2112 1.396 . S
C2111 C2116 1.390 . S
C2112 C2106 1.465 . S
C2112 C2111 1.396 . S
C2112 C2113 1.399 . S
C2113 H2099 0.929 . S
C2113 C2112 1.399 . S
C2113 C2114 1.385 . S
C2114 H2100 0.931 . S
C2114 C2113 1.385 . S
C2114 C2115 1.389 . S
C2115 C2114 1.389 . S
C2115 C2116 1.387 . S
C2116 H2101 0.930 . S
C2116 C2111 1.390 . S
C2116 C2115 1.387 . S
H2117 C2129 0.930 . S
H2118 C2131 0.930 . S
H2119 C2132 0.930 . S
H2120 C2136 0.959 . S
H2121 C2136 0.959 . S
H2122 C2136 0.961 . S
H2123 C2137 0.960 . S
H2124 C2137 0.961 . S
H2125 C2137 0.959 . S
H2126 C2140 0.929 . S
H2127 C2141 0.931 . S
H2128 C2143 0.930 . S
C2129 H2117 0.930 . S
C2129 C2130 1.399 . S
C2129 C2134 1.399 . S
C2130 C2129 1.399 . S
C2130 C2131 1.376 . S
C2131 H2118 0.930 . S
C2131 C2130 1.376 . S
C2131 C2132 1.388 . S
C2132 H2119 0.930 . S
C2132 C2131 1.388 . S
C2132 C2133 1.390 . S
C2133 C2132 1.390 . S
C2133 C2134 1.394 . S
C2133 C2139 1.465 . S
C2134 C2129 1.399 . S
C2134 C2133 1.394 . S
C2134 C2135 1.516 . S
C2135 C2134 1.516 . S
C2135 C2136 1.502 . S
C2135 C2137 1.561 . S
C2135 C2138 1.526 . S
C2136 H2120 0.959 . S
C2136 H2121 0.959 . S
C2136 H2122 0.961 . S
C2136 C2135 1.502 . S
C2137 H2123 0.960 . S
C2137 H2124 0.961 . S
C2137 H2125 0.959 . S
C2137 C2135 1.561 . S
C2138 C2135 1.526 . S
C2138 C2139 1.396 . S
C2138 C2143 1.390 . S
C2139 C2133 1.465 . S
C2139 C2138 1.396 . S
C2139 C2140 1.399 . S
C2140 H2126 0.929 . S
C2140 C2139 1.399 . S
C2140 C2141 1.385 . S
C2141 H2127 0.931 . S
C2141 C2140 1.385 . S
C2141 C2142 1.389 . S
C2142 C2141 1.389 . S
C2142 C2143 1.387 . S
C2143 H2128 0.930 . S
C2143 C2138 1.390 . S
C2143 C2142 1.387 . S
C429 C30 0.803 . S
C441 C4 0.701 . S
C456 C23 0.801 . S
C468 C43 0.706 . S
C483 C82 0.752 . S
C495 C56 0.681 . S
C510 C95 0.681 . S
C522 C69 0.798 . S
C537 C108 0.674 1_545 S
C549 C140 0.783 . S
C564 C153 0.789 1_545 S
C576 C121 0.714 . S
C591 C160 0.762 1_565 S
C603 C192 0.676 . S
C618 C173 0.724 . S
C630 C199 0.800 1_565 S
C645 C238 0.805 . S
C657 C212 0.698 . S
C672 C225 0.778 . S
C684 C251 0.738 . S
C699 C264 0.711 . S
C711 C290 0.809 . S
C726 C303 0.729 . S
C738 C283 0.806 . S
C753 C348 0.803 . S
C765 C322 0.694 1_545 S
C780 C361 0.674 1_545 S
C792 C335 0.783 . S
C807 C400 0.708 . S
C819 C368 0.801 1_565 S
C834 C381 0.722 . S
C846 C407 0.800 1_565 S
C861 C62 1.569 . S
C873 C10 1.583 . S
C888 C387 1.585 . S
C900 C17 1.552 . S
C915 C36 1.582 . S
C927 C186 1.570 . S
C942 C49 1.544 . S
C954 C309 1.596 . S
C969 C75 1.598 . S
C981 C329 1.548 . S
C996 C88 1.598 . S
C1008 C134 1.545 . S
C1023 C257 1.581 . S
C1035 C101 1.555 . S
C1050 C166 1.580 . S
C1062 C114 1.573 . S
C1077 C277 1.588 . S
C1089 C127 1.550 . S
C1104 C147 1.549 . S
C1116 C413 1.588 . S
C1131 C179 1.588 . S
C1143 C231 1.550 . S
C1158 C355 1.588 . S
C1170 C205 1.550 . S
C1185 C270 1.599 . S
C1197 C218 1.547 . S
C1212 C244 1.553 . S
C1224 C394 1.595 . S
C1239 C296 1.544 . S
C1251 C342 1.596 . S
C1266 C374 1.579 . S
C1278 C316 1.558 . S
C1293 C42 1.566 . S
C1305 C3 1.539 . S
C1320 C29 1.553 . S
C1332 C18 1.534 . S
C1347 C94 1.566 . S
C1359 C55 1.555 . S
C1374 C81 1.533 . S
C1386 C68 1.545 . S
C1401 C148 1.547 . S
C1413 C107 1.536 . S
C1428 C135 1.543 . S
C1440 C120 1.565 . S
C1455 C198 1.533 . S
C1467 C159 1.545 . S
C1482 C187 1.533 . S
C1494 C172 1.546 . S
C1509 C211 1.552 . S
C1521 C250 1.535 . S
C1536 C237 1.544 . S
C1548 C224 1.539 . S
C1563 C263 1.534 . S
C1575 C302 1.543 . S
C1590 C289 1.565 . S
C1602 C278 1.553 . S
C1617 C356 1.548 . S
C1629 C317 1.536 . S
C1644 C330 1.544 . S
C1656 C343 1.539 . S
C1671 C367 1.533 . S
C1683 C406 1.547 . S
C1698 C395 1.566 . S
C1710 C380 1.550 . S
C1725 C31 1.432 1_545 S
C1737 C5 1.452 . S
C1752 C16 1.426 1_545 S
C1764 C44 1.418 . S
C1779 C57 1.414 . S
C1791 C83 1.428 1_565 S
C1806 C70 1.430 1_565 S
C1818 C96 1.435 . S
C1833 C109 1.422 . S
C1845 C133 1.416 . S
C1860 C122 1.440 . S
C1872 C146 1.453 . S
C1887 C185 1.453 . S
C1899 C161 1.430 . S
C1914 C200 1.414 . S
C1926 C174 1.440 . S
C1941 C239 1.436 1_545 S
C1953 C213 1.453 . S
C1968 C252 1.433 . S
C1980 C226 1.415 1_545 S
C1995 C265 1.418 . S
C2007 C291 1.405 1_565 S
C2022 C304 1.452 . S
C2034 C276 1.420 1_565 S
C2049 C341 1.433 . S
C2061 C315 1.453 . S
C2076 C328 1.434 . S
C2088 C354 1.415 . S
C2103 C369 1.414 . S
C2115 C393 1.441 . S
C2130 C408 1.416 . S
C2142 C382 1.432 . S
