# Generated by pormake.
# Topology uoe, (4)-cn, num edge types: 1
# Building blocks:
#     Node 0, Type 0, BuildingBlock: QUQFOY_clean_sbu_3, # of connection points: 4
#     Node 1, Type 0, BuildingBlock: QUQFOY_clean_sbu_3, # of connection points: 4
#     Node 2, Type 0, BuildingBlock: QUQFOY_clean_sbu_3, # of connection points: 4
#     Node 3, Type 0, BuildingBlock: QUQFOY_clean_sbu_3, # of connection points: 4
#     Node 4, Type 0, BuildingBlock: QUQFOY_clean_sbu_3, # of connection points: 4
#     Node 5, Type 0, BuildingBlock: QUQFOY_clean_sbu_3, # of connection points: 4
#     Node 6, Type 0, BuildingBlock: QUQFOY_clean_sbu_3, # of connection points: 4
#     Node 7, Type 0, BuildingBlock: QUQFOY_clean_sbu_3, # of connection points: 4
#     Node 8, Type 0, BuildingBlock: QUQFOY_clean_sbu_3, # of connection points: 4
#     Node 9, Type 0, BuildingBlock: QUQFOY_clean_sbu_3, # of connection points: 4
#     Node 10, Type 0, BuildingBlock: QUQFOY_clean_sbu_3, # of connection points: 4
#     Node 11, Type 0, BuildingBlock: QUQFOY_clean_sbu_3, # of connection points: 4
#     Node 12, Type 0, BuildingBlock: QUQFOY_clean_sbu_3, # of connection points: 4
#     Node 13, Type 0, BuildingBlock: QUQFOY_clean_sbu_3, # of connection points: 4
#     Node 14, Type 0, BuildingBlock: QUQFOY_clean_sbu_3, # of connection points: 4
#     Node 15, Type 0, BuildingBlock: QUQFOY_clean_sbu_3, # of connection points: 4
#     Node 16, Type 0, BuildingBlock: QUQFOY_clean_sbu_3, # of connection points: 4
#     Node 17, Type 0, BuildingBlock: QUQFOY_clean_sbu_3, # of connection points: 4
#     Node 18, Type 0, BuildingBlock: QUQFOY_clean_sbu_3, # of connection points: 4
#     Node 19, Type 0, BuildingBlock: QUQFOY_clean_sbu_3, # of connection points: 4
#     Node 20, Type 0, BuildingBlock: QUQFOY_clean_sbu_3, # of connection points: 4
#     Node 21, Type 0, BuildingBlock: QUQFOY_clean_sbu_3, # of connection points: 4
#     Node 22, Type 0, BuildingBlock: QUQFOY_clean_sbu_3, # of connection points: 4
#     Node 23, Type 0, BuildingBlock: QUQFOY_clean_sbu_3, # of connection points: 4
#     Node 24, Type 0, BuildingBlock: QUQFOY_clean_sbu_3, # of connection points: 4
#     Node 25, Type 0, BuildingBlock: QUQFOY_clean_sbu_3, # of connection points: 4
#     Node 26, Type 0, BuildingBlock: QUQFOY_clean_sbu_3, # of connection points: 4
#     Node 27, Type 0, BuildingBlock: QUQFOY_clean_sbu_3, # of connection points: 4
#     Node 28, Type 0, BuildingBlock: QUQFOY_clean_sbu_3, # of connection points: 4
#     Node 29, Type 0, BuildingBlock: QUQFOY_clean_sbu_3, # of connection points: 4
#     Node 30, Type 0, BuildingBlock: QUQFOY_clean_sbu_3, # of connection points: 4
#     Node 31, Type 0, BuildingBlock: QUQFOY_clean_sbu_3, # of connection points: 4
#     Edge 32, Type (0, 0), BuildingBlock: ZUJKAS_clean_linker_0, # of connection points: 2
#     Edge 33, Type (0, 0), BuildingBlock: ZUJKAS_clean_linker_0, # of connection points: 2
#     Edge 34, Type (0, 0), BuildingBlock: ZUJKAS_clean_linker_0, # of connection points: 2
#     Edge 35, Type (0, 0), BuildingBlock: ZUJKAS_clean_linker_0, # of connection points: 2
#     Edge 36, Type (0, 0), BuildingBlock: ZUJKAS_clean_linker_0, # of connection points: 2
#     Edge 37, Type (0, 0), BuildingBlock: ZUJKAS_clean_linker_0, # of connection points: 2
#     Edge 38, Type (0, 0), BuildingBlock: ZUJKAS_clean_linker_0, # of connection points: 2
#     Edge 39, Type (0, 0), BuildingBlock: ZUJKAS_clean_linker_0, # of connection points: 2
#     Edge 40, Type (0, 0), BuildingBlock: ZUJKAS_clean_linker_0, # of connection points: 2
#     Edge 41, Type (0, 0), BuildingBlock: ZUJKAS_clean_linker_0, # of connection points: 2
#     Edge 42, Type (0, 0), BuildingBlock: ZUJKAS_clean_linker_0, # of connection points: 2
#     Edge 43, Type (0, 0), BuildingBlock: ZUJKAS_clean_linker_0, # of connection points: 2
#     Edge 44, Type (0, 0), BuildingBlock: ZUJKAS_clean_linker_0, # of connection points: 2
#     Edge 45, Type (0, 0), BuildingBlock: ZUJKAS_clean_linker_0, # of connection points: 2
#     Edge 46, Type (0, 0), BuildingBlock: ZUJKAS_clean_linker_0, # of connection points: 2
#     Edge 47, Type (0, 0), BuildingBlock: ZUJKAS_clean_linker_0, # of connection points: 2
#     Edge 48, Type (0, 0), BuildingBlock: ZUJKAS_clean_linker_0, # of connection points: 2
#     Edge 49, Type (0, 0), BuildingBlock: ZUJKAS_clean_linker_0, # of connection points: 2
#     Edge 50, Type (0, 0), BuildingBlock: ZUJKAS_clean_linker_0, # of connection points: 2
#     Edge 51, Type (0, 0), BuildingBlock: ZUJKAS_clean_linker_0, # of connection points: 2
#     Edge 52, Type (0, 0), BuildingBlock: ZUJKAS_clean_linker_0, # of connection points: 2
#     Edge 53, Type (0, 0), BuildingBlock: ZUJKAS_clean_linker_0, # of connection points: 2
#     Edge 54, Type (0, 0), BuildingBlock: ZUJKAS_clean_linker_0, # of connection points: 2
#     Edge 55, Type (0, 0), BuildingBlock: ZUJKAS_clean_linker_0, # of connection points: 2
#     Edge 56, Type (0, 0), BuildingBlock: ZUJKAS_clean_linker_0, # of connection points: 2
#     Edge 57, Type (0, 0), BuildingBlock: ZUJKAS_clean_linker_0, # of connection points: 2
#     Edge 58, Type (0, 0), BuildingBlock: ZUJKAS_clean_linker_0, # of connection points: 2
#     Edge 59, Type (0, 0), BuildingBlock: ZUJKAS_clean_linker_0, # of connection points: 2
#     Edge 60, Type (0, 0), BuildingBlock: ZUJKAS_clean_linker_0, # of connection points: 2
#     Edge 61, Type (0, 0), BuildingBlock: ZUJKAS_clean_linker_0, # of connection points: 2
#     Edge 62, Type (0, 0), BuildingBlock: ZUJKAS_clean_linker_0, # of connection points: 2
#     Edge 63, Type (0, 0), BuildingBlock: ZUJKAS_clean_linker_0, # of connection points: 2
#     Edge 64, Type (0, 0), BuildingBlock: ZUJKAS_clean_linker_0, # of connection points: 2
#     Edge 65, Type (0, 0), BuildingBlock: ZUJKAS_clean_linker_0, # of connection points: 2
#     Edge 66, Type (0, 0), BuildingBlock: ZUJKAS_clean_linker_0, # of connection points: 2
#     Edge 67, Type (0, 0), BuildingBlock: ZUJKAS_clean_linker_0, # of connection points: 2
#     Edge 68, Type (0, 0), BuildingBlock: ZUJKAS_clean_linker_0, # of connection points: 2
#     Edge 69, Type (0, 0), BuildingBlock: ZUJKAS_clean_linker_0, # of connection points: 2
#     Edge 70, Type (0, 0), BuildingBlock: ZUJKAS_clean_linker_0, # of connection points: 2
#     Edge 71, Type (0, 0), BuildingBlock: ZUJKAS_clean_linker_0, # of connection points: 2
#     Edge 72, Type (0, 0), BuildingBlock: ZUJKAS_clean_linker_0, # of connection points: 2
#     Edge 73, Type (0, 0), BuildingBlock: ZUJKAS_clean_linker_0, # of connection points: 2
#     Edge 74, Type (0, 0), BuildingBlock: ZUJKAS_clean_linker_0, # of connection points: 2
#     Edge 75, Type (0, 0), BuildingBlock: ZUJKAS_clean_linker_0, # of connection points: 2
#     Edge 76, Type (0, 0), BuildingBlock: ZUJKAS_clean_linker_0, # of connection points: 2
#     Edge 77, Type (0, 0), BuildingBlock: ZUJKAS_clean_linker_0, # of connection points: 2
#     Edge 78, Type (0, 0), BuildingBlock: ZUJKAS_clean_linker_0, # of connection points: 2
#     Edge 79, Type (0, 0), BuildingBlock: ZUJKAS_clean_linker_0, # of connection points: 2
#     Edge 80, Type (0, 0), BuildingBlock: ZUJKAS_clean_linker_0, # of connection points: 2
#     Edge 81, Type (0, 0), BuildingBlock: ZUJKAS_clean_linker_0, # of connection points: 2
#     Edge 82, Type (0, 0), BuildingBlock: ZUJKAS_clean_linker_0, # of connection points: 2
#     Edge 83, Type (0, 0), BuildingBlock: ZUJKAS_clean_linker_0, # of connection points: 2
#     Edge 84, Type (0, 0), BuildingBlock: ZUJKAS_clean_linker_0, # of connection points: 2
#     Edge 85, Type (0, 0), BuildingBlock: ZUJKAS_clean_linker_0, # of connection points: 2
#     Edge 86, Type (0, 0), BuildingBlock: ZUJKAS_clean_linker_0, # of connection points: 2
#     Edge 87, Type (0, 0), BuildingBlock: ZUJKAS_clean_linker_0, # of connection points: 2
#     Edge 88, Type (0, 0), BuildingBlock: ZUJKAS_clean_linker_0, # of connection points: 2
#     Edge 89, Type (0, 0), BuildingBlock: ZUJKAS_clean_linker_0, # of connection points: 2
#     Edge 90, Type (0, 0), BuildingBlock: ZUJKAS_clean_linker_0, # of connection points: 2
#     Edge 91, Type (0, 0), BuildingBlock: ZUJKAS_clean_linker_0, # of connection points: 2
#     Edge 92, Type (0, 0), BuildingBlock: ZUJKAS_clean_linker_0, # of connection points: 2
#     Edge 93, Type (0, 0), BuildingBlock: ZUJKAS_clean_linker_0, # of connection points: 2
#     Edge 94, Type (0, 0), BuildingBlock: ZUJKAS_clean_linker_0, # of connection points: 2
#     Edge 95, Type (0, 0), BuildingBlock: ZUJKAS_clean_linker_0, # of connection points: 2
# Relax obj value: 0.181
# Max RMSD: 0.209
# Mean RMSD: 0.209
data_MOF--net-uoe--node1-QUQFOY_clean_sbu_3--edge1-ZUJKAS_clean_linker_0
_symmetry_space_group_name_H-M    P1
_symmetry_Int_Tables_number       1
_symmetry_cell_setting            triclinic
loop_
_symmetry_equiv_pos_as_xyz
'x, y, z'
_cell_length_a     99.312152
_cell_length_b     99.325433
_cell_length_c     35.201147
_cell_angle_alpha  90.003175
_cell_angle_beta   90.052259
_cell_angle_gamma 89.999562
loop_
_atom_site_label
_atom_site_type_symbol
_atom_site_fract_x
_atom_site_fract_y
_atom_site_fract_z
_atom_type_partial_charge
C0 C 0.10766 0.47443 0.97613 0.0
O1 O 0.10881 0.48382 0.00038 0.0
Cd2 Cd 0.10068 0.48359 0.06331 0.0
O3 O 0.10244 0.46312 0.98528 0.0
Cd4 Cd 0.0937 0.45284 0.04574 0.0
C5 C 0.06766 0.4746 0.04391 0.0
O6 O 0.10938 0.46348 0.08923 0.0
O7 O 0.09134 0.45575 0.11461 0.0
O8 O 0.10641 0.43215 0.03546 0.0
C9 C 0.10292 0.46083 0.1192 0.0
O10 O 0.07623 0.48316 0.05586 0.0
C11 C 0.09732 0.42435 0.04804 0.0
O12 O 0.07126 0.46262 0.0356 0.0
O13 O 0.08595 0.42965 0.05507 0.0
C14 C 0.77285 0.85506 0.22164 0.0
O15 O 0.76287 0.85659 0.2437 0.0
Cd16 Cd 0.76153 0.85063 0.30843 0.0
O17 O 0.78401 0.85032 0.23394 0.0
Cd18 Cd 0.79263 0.84317 0.29816 0.0
C19 C 0.77058 0.81719 0.29935 0.0
O20 O 0.78114 0.86055 0.33412 0.0
O21 O 0.78851 0.84388 0.36688 0.0
O22 O 0.81402 0.85484 0.28857 0.0
C23 C 0.78344 0.85557 0.36648 0.0
O24 O 0.76179 0.82603 0.30782 0.0
C25 C 0.82118 0.84588 0.30456 0.0
O26 O 0.78269 0.82061 0.29215 0.0
O27 O 0.81526 0.83498 0.31342 0.0
C28 C 0.39085 0.52278 0.46584 0.0
O29 O 0.38908 0.51332 0.48961 0.0
Cd30 Cd 0.39422 0.51285 0.5553 0.0
O31 O 0.39553 0.53419 0.47628 0.0
Cd32 Cd 0.40242 0.54445 0.53853 0.0
C33 C 0.42784 0.52155 0.54703 0.0
O34 O 0.38527 0.53346 0.57625 0.0
O35 O 0.40078 0.5434 0.60801 0.0
O36 O 0.39117 0.56575 0.52486 0.0
C37 C 0.38977 0.53699 0.60828 0.0
O38 O 0.41879 0.51306 0.55617 0.0
C39 C 0.40047 0.57307 0.53862 0.0
O40 O 0.42472 0.53354 0.53738 0.0
O41 O 0.41135 0.56714 0.54767 0.0
C42 C 0.72683 0.14536 0.7284 0.0
O43 O 0.73638 0.14421 0.75214 0.0
Cd44 Cd 0.73589 0.14984 0.81724 0.0
O45 O 0.71522 0.14952 0.73887 0.0
Cd46 Cd 0.70494 0.15618 0.80144 0.0
C47 C 0.72588 0.18295 0.8078 0.0
O48 O 0.71611 0.13904 0.8388 0.0
O49 O 0.7076 0.15533 0.87092 0.0
O50 O 0.68457 0.14327 0.78925 0.0
C51 C 0.71291 0.14373 0.87088 0.0
O52 O 0.73476 0.17439 0.81769 0.0
C53 C 0.67648 0.15206 0.80211 0.0
O54 O 0.71411 0.17913 0.79807 0.0
O55 O 0.6815 0.16345 0.81047 0.0
C56 C 0.10465 0.52197 0.59682 0.0
O57 O 0.10544 0.5126 0.57242 0.0
Cd58 Cd 0.09742 0.51316 0.50944 0.0
O59 O 0.09979 0.53347 0.58792 0.0
Cd60 Cd 0.09138 0.54407 0.52733 0.0
C61 C 0.06461 0.52318 0.52761 0.0
O62 O 0.10689 0.53305 0.4845 0.0
O63 O 0.08924 0.54126 0.45808 0.0
O64 O 0.1052 0.56398 0.53657 0.0
C65 C 0.10073 0.53591 0.45418 0.0
O66 O 0.073 0.51438 0.51606 0.0
C67 C 0.09635 0.57238 0.52574 0.0
O68 O 0.06852 0.53504 0.53617 0.0
O69 O 0.08458 0.56777 0.52004 0.0
C70 C 0.72994 0.8554 0.83598 0.0
O71 O 0.73897 0.85671 0.81075 0.0
Cd72 Cd 0.73734 0.85081 0.74596 0.0
O73 O 0.7182 0.85105 0.82736 0.0
Cd74 Cd 0.70676 0.84422 0.76651 0.0
C75 C 0.72788 0.81767 0.75913 0.0
O76 O 0.71703 0.86115 0.72652 0.0
O77 O 0.7083 0.84439 0.69684 0.0
O78 O 0.68645 0.85699 0.78045 0.0
C79 C 0.71339 0.85607 0.69527 0.0
O80 O 0.73647 0.82624 0.74738 0.0
C81 C 0.6783 0.84805 0.76877 0.0
O82 O 0.71625 0.82144 0.77016 0.0
O83 O 0.68332 0.83664 0.76056 0.0
C84 C 0.39565 0.47747 0.0824 0.0
O85 O 0.39479 0.48668 0.05748 0.0
Cd86 Cd 0.40123 0.48552 -0.00704 0.0
O87 O 0.39995 0.46572 0.07376 0.0
Cd88 Cd 0.40746 0.45423 0.01377 0.0
C89 C 0.43418 0.47545 0.00783 0.0
O90 O 0.39126 0.46516 0.97328 0.0
O91 O 0.40714 0.45501 0.94368 0.0
O92 O 0.39431 0.43425 0.0281 0.0
C93 C 0.39606 0.46129 0.94197 0.0
O94 O 0.42572 0.48418 -0.00374 0.0
C95 C 0.40315 0.42588 0.01705 0.0
O96 O 0.43031 0.46375 0.0181 0.0
O97 O 0.41467 0.43065 0.00898 0.0
C98 C 0.76915 0.14157 0.34179 0.0
O99 O 0.75974 0.13987 0.31785 0.0
Cd100 Cd 0.76009 0.14542 0.25264 0.0
O101 O 0.78061 0.14614 0.33143 0.0
Cd102 Cd 0.79091 0.1527 0.26892 0.0
C103 C 0.76914 0.17883 0.26242 0.0
O104 O 0.78025 0.13546 0.23061 0.0
O105 O 0.78842 0.15213 0.19951 0.0
O106 O 0.81166 0.14034 0.28099 0.0
C107 C 0.78327 0.14047 0.19879 0.0
O108 O 0.76051 0.17001 0.25243 0.0
C109 C 0.81948 0.14943 0.26845 0.0
O110 O 0.78102 0.17536 0.27216 0.0
O111 O 0.81411 0.16069 0.26036 0.0
C112 C 0.89413 0.524 0.08524 0.0
O113 O 0.89165 0.51455 0.06197 0.0
Cd114 Cd 0.89739 0.51374 -0.00319 0.0
O115 O 0.89956 0.53501 0.07428 0.0
Cd116 Cd 0.90633 0.54474 0.01113 0.0
C117 C 0.93128 0.52155 0.00512 0.0
O118 O 0.88862 0.53426 0.97403 0.0
O119 O 0.90484 0.54267 0.94168 0.0
O120 O 0.89551 0.5662 0.02551 0.0
C121 C 0.89335 0.53716 0.94178 0.0
O122 O 0.92201 0.5132 -0.00342 0.0
C123 C 0.90458 0.57338 0.0101 0.0
O124 O 0.92845 0.5337 0.01367 0.0
O125 O 0.91519 0.56732 -0.00056 0.0
C126 C 0.22717 0.14371 0.84618 0.0
O127 O 0.23707 0.1424 0.82371 0.0
Cd128 Cd 0.23813 0.14879 0.75935 0.0
O129 O 0.21596 0.14853 0.83456 0.0
Cd130 Cd 0.20715 0.15619 0.77094 0.0
C131 C 0.22915 0.18217 0.77042 0.0
O132 O 0.21843 0.1389 0.73424 0.0
O133 O 0.21113 0.15572 0.70199 0.0
O134 O 0.18575 0.14464 0.78162 0.0
C135 C 0.2161 0.14397 0.70203 0.0
O136 O 0.23789 0.17338 0.7611 0.0
C137 C 0.1786 0.15349 0.76514 0.0
O138 O 0.21708 0.17871 0.77797 0.0
O139 O 0.18452 0.16429 0.75548 0.0
C140 C 0.60313 0.47591 0.59532 0.0
O141 O 0.60429 0.48565 0.57223 0.0
Cd142 Cd 0.59817 0.48589 0.50755 0.0
O143 O 0.59869 0.46448 0.58422 0.0
Cd144 Cd 0.59166 0.45489 0.52102 0.0
C145 C 0.565 0.476 0.51738 0.0
O146 O 0.60863 0.46627 0.48368 0.0
O147 O 0.59206 0.45833 0.45163 0.0
O148 O 0.6047 0.43451 0.5315 0.0
C149 C 0.60368 0.46359 0.45155 0.0
O150 O 0.57363 0.48488 0.50808 0.0
C151 C 0.59598 0.42647 0.51801 0.0
O152 O 0.5687 0.46408 0.52595 0.0
O153 O 0.58455 0.43146 0.51002 0.0
C154 C 0.27242 0.85429 0.33785 0.0
O155 O 0.26302 0.85709 0.31471 0.0
Cd156 Cd 0.26244 0.85121 0.24967 0.0
O157 O 0.28334 0.8488 0.32652 0.0
Cd158 Cd 0.29303 0.84254 0.26287 0.0
C159 C 0.27033 0.81734 0.25869 0.0
O160 O 0.28268 0.86038 0.22566 0.0
O161 O 0.28985 0.84336 0.19389 0.0
O162 O 0.31435 0.85375 0.27691 0.0
C163 C 0.28522 0.85525 0.19361 0.0
O164 O 0.26191 0.82653 0.25002 0.0
C165 C 0.32167 0.84489 0.26109 0.0
O166 O 0.28249 0.82029 0.26675 0.0
O167 O 0.31579 0.83422 0.25011 0.0
C168 C 0.89091 0.47596 0.46614 0.0
O169 O 0.8882 0.48536 0.48934 0.0
Cd170 Cd 0.8932 0.48613 0.5552 0.0
O171 O 0.89616 0.46491 0.47742 0.0
Cd172 Cd 0.90228 0.45508 0.54083 0.0
C173 C 0.92713 0.47838 0.55006 0.0
O174 O 0.88437 0.46559 0.5776 0.0
O175 O 0.90025 0.45642 0.60995 0.0
O176 O 0.89145 0.43362 0.52667 0.0
C177 C 0.8889 0.4622 0.60976 0.0
O178 O 0.91778 0.48671 0.55782 0.0
C179 C 0.90067 0.42644 0.54148 0.0
O180 O 0.92439 0.46625 0.54098 0.0
O181 O 0.91137 0.43252 0.55134 0.0
C182 C 0.27054 0.13952 0.23085 0.0
O183 O 0.26147 0.13817 0.25594 0.0
Cd184 Cd 0.26295 0.14473 0.3203 0.0
O185 O 0.28215 0.14416 0.23952 0.0
Cd186 Cd 0.29348 0.15164 0.29983 0.0
C187 C 0.27189 0.1779 0.30472 0.0
O188 O 0.28339 0.13501 0.34119 0.0
O189 O 0.29194 0.15217 0.36944 0.0
O190 O 0.31394 0.13905 0.28619 0.0
C191 C 0.28688 0.14049 0.37203 0.0
O192 O 0.2634 0.16931 0.31691 0.0
C193 C 0.32199 0.14821 0.29703 0.0
O194 O 0.28363 0.17422 0.29431 0.0
O195 O 0.31681 0.15957 0.30493 0.0
C196 C 0.60881 0.51905 0.98062 0.0
O197 O 0.61045 0.50996 0.00552 0.0
Cd198 Cd 0.60427 0.51131 0.07022 0.0
O199 O 0.60413 0.5306 -0.01028 0.0
Cd200 Cd 0.59706 0.54179 0.05046 0.0
C201 C 0.57095 0.52004 0.05667 0.0
O202 O 0.61389 0.53177 0.0914 0.0
O203 O 0.59684 0.54025 0.12014 0.0
O204 O 0.60954 0.56229 0.03653 0.0
C205 C 0.6085 0.53514 0.12245 0.0
O206 O 0.57969 0.51158 0.06817 0.0
C207 C 0.60036 0.57032 0.04737 0.0
O208 O 0.57447 0.53183 0.04622 0.0
O209 O 0.58904 0.56511 0.05549 0.0
C210 C 0.22515 0.85537 0.72028 0.0
O211 O 0.23487 0.85804 0.74247 0.0
Cd212 Cd 0.23628 0.85222 0.80744 0.0
O213 O 0.21429 0.85006 0.7327 0.0
Cd214 Cd 0.20532 0.84413 0.79742 0.0
C215 C 0.22755 0.81848 0.80018 0.0
O216 O 0.21657 0.8617 0.83367 0.0
O217 O 0.20936 0.84483 0.86599 0.0
O218 O 0.18412 0.85593 0.78641 0.0
C219 C 0.21432 0.85658 0.86591 0.0
O220 O 0.23625 0.82754 0.80762 0.0
C221 C 0.17678 0.8471 0.80232 0.0
O222 O 0.21534 0.82163 0.79323 0.0
O223 O 0.18254 0.83619 0.81188 0.0
C224 C 0.6074 0.97781 0.48115 0.0
O225 O 0.6086 0.98691 0.50623 0.0
Cd226 Cd 0.60137 0.98551 0.56999 0.0
O227 O 0.60264 0.96624 0.48963 0.0
Cd228 Cd 0.59488 0.95491 0.54952 0.0
C229 C 0.56834 0.97609 0.55292 0.0
O230 O 0.61091 0.9652 0.59239 0.0
O231 O 0.59341 0.95675 0.61901 0.0
O232 O 0.60827 0.93492 0.5372 0.0
C233 C 0.605 0.9619 0.62275 0.0
O234 O 0.57684 0.98467 0.56515 0.0
C235 C 0.59936 0.92654 0.54763 0.0
O236 O 0.57213 0.96435 0.5428 0.0
O237 O 0.58772 0.93127 0.55454 0.0
C238 C 0.2712 0.35661 0.72768 0.0
O239 O 0.26192 0.35795 0.7522 0.0
Cd240 Cd 0.26262 0.35297 0.81788 0.0
O241 O 0.28295 0.35258 0.73735 0.0
Cd242 Cd 0.29416 0.34618 0.79879 0.0
C243 C 0.27257 0.31977 0.80829 0.0
O244 O 0.28303 0.36291 0.83718 0.0
O245 O 0.29318 0.34747 0.86858 0.0
O246 O 0.3146 0.35875 0.78509 0.0
C247 C 0.28671 0.35846 0.86911 0.0
O248 O 0.26382 0.32844 0.81837 0.0
C249 C 0.32264 0.34963 0.79636 0.0
O250 O 0.28432 0.32341 0.7978 0.0
O251 O 0.31747 0.33827 0.80435 0.0
C252 C 0.88858 0.02174 0.97173 0.0
O253 O 0.88706 0.0121 -0.00496 0.0
Cd254 Cd 0.893 0.01143 0.06024 0.0
O255 O 0.89316 0.03314 0.98263 0.0
Cd256 Cd 0.9002 0.04335 0.04477 0.0
C257 C 0.92631 0.02117 0.04922 0.0
O258 O 0.88397 0.03164 0.08379 0.0
O259 O 0.89979 0.04166 0.11426 0.0
O260 O 0.88738 0.06385 0.03375 0.0
C261 C 0.88893 0.035 0.11545 0.0
O262 O 0.91753 0.01241 0.05845 0.0
C263 C 0.89652 0.07183 0.04523 0.0
O264 O 0.92285 0.03319 0.04082 0.0
O265 O 0.90798 0.06666 0.05219 0.0
C266 C 0.22544 0.64256 0.22662 0.0
O267 O 0.23481 0.6409 0.25072 0.0
Cd268 Cd 0.23461 0.64773 0.3152 0.0
O269 O 0.21404 0.64741 0.23639 0.0
Cd270 Cd 0.20327 0.65421 0.29808 0.0
C271 C 0.22451 0.68085 0.30239 0.0
O272 O 0.21463 0.63809 0.33884 0.0
O273 O 0.20471 0.65438 0.36763 0.0
O274 O 0.18321 0.64082 0.28635 0.0
C275 C 0.21096 0.64329 0.3699 0.0
O276 O 0.23339 0.67227 0.31226 0.0
C277 C 0.17491 0.64972 0.29744 0.0
O278 O 0.21261 0.6771 0.29369 0.0
O279 O 0.1797 0.66134 0.30428 0.0
C280 C 0.60524 0.02326 0.09846 0.0
O281 O 0.60645 0.01369 0.07482 0.0
Cd282 Cd 0.59986 0.01365 0.01044 0.0
O283 O 0.60056 0.03468 0.08812 0.0
Cd284 Cd 0.59309 0.04469 0.02594 0.0
C285 C 0.56664 0.02332 0.0224 0.0
O286 O 0.60952 0.03355 -0.01387 0.0
O287 O 0.59246 0.04168 0.95662 0.0
O288 O 0.60635 0.06492 0.03614 0.0
C289 C 0.60399 0.03626 0.95476 0.0
O290 O 0.57534 0.01458 0.01242 0.0
C291 C 0.59748 0.0731 0.02421 0.0
O292 O 0.57024 0.03523 0.03143 0.0
O293 O 0.58591 0.06822 0.01725 0.0
C294 C 0.22841 0.35013 0.34068 0.0
O295 O 0.23763 0.351 0.31585 0.0
Cd296 Cd 0.23629 0.34717 0.24964 0.0
O297 O 0.21638 0.34689 0.33134 0.0
Cd298 Cd 0.20509 0.34087 0.26971 0.0
C299 C 0.22621 0.31418 0.25654 0.0
O300 O 0.21613 0.35833 0.23311 0.0
O301 O 0.20538 0.34366 0.20029 0.0
O302 O 0.18426 0.35243 0.28726 0.0
C303 C 0.21182 0.35465 0.20102 0.0
O304 O 0.23494 0.32275 0.24573 0.0
C305 C 0.17655 0.34367 0.27241 0.0
O306 O 0.21475 0.318 0.26884 0.0
O307 O 0.18207 0.33289 0.26089 0.0
C308 C 0.89637 0.97615 0.58904 0.0
O309 O 0.89534 0.98516 0.56361 0.0
Cd310 Cd 0.90138 0.98369 0.49888 0.0
O311 O 0.90074 0.96437 0.58096 0.0
Cd312 Cd 0.90817 0.95263 0.52111 0.0
C313 C 0.93455 0.97421 0.51276 0.0
O314 O 0.89146 0.9631 0.48106 0.0
O315 O 0.90726 0.953 0.45106 0.0
O316 O 0.8959 0.9323 0.53898 0.0
C317 C 0.89609 0.95912 0.44965 0.0
O318 O 0.9259 0.9827 0.50084 0.0
C319 C 0.90451 0.92419 0.52523 0.0
O320 O 0.9309 0.96257 0.52416 0.0
O321 O 0.91556 0.92927 0.51408 0.0
C322 C 0.27547 0.64351 0.84877 0.0
O323 O 0.26575 0.64138 0.82611 0.0
Cd324 Cd 0.26426 0.64772 0.76143 0.0
O325 O 0.28648 0.64881 0.8373 0.0
Cd326 Cd 0.29583 0.65574 0.77382 0.0
C327 C 0.27327 0.68134 0.77076 0.0
O328 O 0.28431 0.63883 0.7362 0.0
O329 O 0.29309 0.65502 0.7045 0.0
O330 O 0.31705 0.64405 0.78557 0.0
C331 C 0.287 0.64383 0.70412 0.0
O332 O 0.26458 0.67234 0.76267 0.0
C333 C 0.3244 0.65309 0.77062 0.0
O334 O 0.28545 0.67814 0.77812 0.0
O335 O 0.3186 0.66401 0.76137 0.0
C336 C 0.3937 0.01956 0.58015 0.0
O337 O 0.39241 0.01031 0.55552 0.0
Cd338 Cd 0.39844 0.01142 0.49075 0.0
O339 O 0.39815 0.03117 0.57082 0.0
Cd340 Cd 0.40525 0.04207 0.50952 0.0
C341 C 0.43166 0.02069 0.50321 0.0
O342 O 0.38832 0.03164 0.46968 0.0
O343 O 0.40526 0.03997 0.43995 0.0
O344 O 0.39264 0.06257 0.5226 0.0
C345 C 0.39356 0.03491 0.43833 0.0
O346 O 0.42302 0.01208 0.49197 0.0
C347 C 0.40168 0.07059 0.51082 0.0
O348 O 0.42798 0.03242 0.51371 0.0
O349 O 0.41301 0.06541 0.50265 0.0
C350 C 0.72644 0.64189 0.3433 0.0
O351 O 0.73639 0.64042 0.32105 0.0
Cd352 Cd 0.73783 0.64599 0.25585 0.0
O353 O 0.71514 0.64633 0.33114 0.0
Cd354 Cd 0.70579 0.65302 0.26749 0.0
C355 C 0.72775 0.67928 0.26385 0.0
O356 O 0.718 0.63641 0.23126 0.0
O357 O 0.70875 0.65198 0.19813 0.0
O358 O 0.68506 0.64043 0.27718 0.0
C359 C 0.7153 0.64103 0.19875 0.0
O360 O 0.73671 0.67054 0.25596 0.0
C361 C 0.6773 0.64952 0.26433 0.0
O362 O 0.71568 0.67574 0.27128 0.0
O363 O 0.68265 0.66084 0.25691 0.0
C364 C 0.10058 0.97743 0.09646 0.0
O365 O 0.10139 0.98721 0.07334 0.0
Cd366 Cd 0.09693 0.98763 0.00749 0.0
O367 O 0.09707 0.9657 0.08517 0.0
Cd368 Cd 0.09051 0.95567 0.02212 0.0
C369 C 0.06386 0.97716 0.01447 0.0
O370 O 0.10753 0.96771 -0.01291 0.0
O371 O 0.09272 0.95793 0.95259 0.0
O372 O 0.10262 0.93489 0.03679 0.0
C373 C 0.10359 0.96455 0.95422 0.0
O374 O 0.07249 0.98609 0.00541 0.0
C375 C 0.09413 0.92717 0.02084 0.0
O376 O 0.06758 0.96534 0.0241 0.0
O377 O 0.08324 0.93256 0.00951 0.0
C378 C 0.77175 0.35767 0.84196 0.0
O379 O 0.76235 0.35951 0.81806 0.0
Cd380 Cd 0.76243 0.35336 0.75324 0.0
O381 O 0.78304 0.35267 0.83169 0.0
Cd382 Cd 0.79316 0.34535 0.76961 0.0
C383 C 0.77073 0.3198 0.76542 0.0
O384 O 0.78281 0.36251 0.73012 0.0
O385 O 0.7905 0.3453 0.70046 0.0
O386 O 0.81439 0.35683 0.78302 0.0
C387 C 0.78556 0.35704 0.6987 0.0
O388 O 0.76231 0.32874 0.75492 0.0
C389 C 0.8218 0.34773 0.76869 0.0
O390 O 0.78271 0.32304 0.77479 0.0
O391 O 0.81598 0.33687 0.75895 0.0
C392 C 0.39228 0.97562 0.96545 0.0
O393 O 0.39028 0.98504 -0.01087 0.0
Cd394 Cd 0.39581 0.98517 0.05435 0.0
O395 O 0.39722 0.96435 0.97612 0.0
Cd396 Cd 0.40409 0.95448 0.03911 0.0
C397 C 0.42954 0.97701 0.04563 0.0
O398 O 0.38655 0.96487 0.07722 0.0
O399 O 0.40358 0.95731 0.10815 0.0
O400 O 0.39257 0.93328 0.02613 0.0
C401 C 0.39181 0.96221 0.10904 0.0
O402 O 0.42041 0.98538 0.0551 0.0
C403 C 0.4016 0.92587 0.04087 0.0
O404 O 0.42649 0.96501 0.03596 0.0
O405 O 0.41249 0.93164 0.05047 0.0
C406 C 0.77097 0.64424 0.72783 0.0
O407 O 0.76219 0.64301 0.75381 0.0
Cd408 Cd 0.76435 0.64824 0.81911 0.0
O409 O 0.78287 0.64836 0.7355 0.0
Cd410 Cd 0.795 0.65506 0.79526 0.0
C411 C 0.77354 0.68141 0.8074 0.0
O412 O 0.78499 0.63793 0.83537 0.0
O413 O 0.79568 0.65351 0.86492 0.0
O414 O 0.81563 0.64336 0.77702 0.0
C415 C 0.78964 0.6423 0.86639 0.0
O416 O 0.76509 0.67278 0.81952 0.0
C417 C 0.82349 0.65242 0.78966 0.0
O418 O 0.78501 0.67772 0.79489 0.0
O419 O 0.81806 0.6634 0.80001 0.0
C420 C 0.10783 0.01899 0.48274 0.0
O421 O 0.10884 0.01031 0.50908 0.0
Cd422 Cd 0.10331 0.01283 0.57408 0.0
O423 O 0.1038 0.03096 0.48983 0.0
Cd424 Cd 0.09667 0.04351 0.54837 0.0
C425 C 0.0702 0.02209 0.5598 0.0
O426 O 0.11335 0.03361 0.59009 0.0
O427 O 0.09756 0.04452 0.618 0.0
O428 O 0.10885 0.06381 0.52973 0.0
C429 C 0.10869 0.03837 0.62062 0.0
O430 O 0.0788 0.01375 0.57279 0.0
C431 C 0.09989 0.07191 0.5416 0.0
O432 O 0.07393 0.03351 0.54695 0.0
O433 O 0.08873 0.06676 0.55162 0.0
C434 C 0.72726 0.35411 0.22632 0.0
O435 O 0.7366 0.35513 0.25077 0.0
Cd436 Cd 0.73562 0.34912 0.31551 0.0
O437 O 0.71555 0.34994 0.23583 0.0
Cd438 Cd 0.70474 0.3431 0.29759 0.0
C439 C 0.72539 0.31612 0.30366 0.0
O440 O 0.71577 0.35977 0.33694 0.0
O441 O 0.70722 0.34306 0.36713 0.0
O442 O 0.68469 0.35647 0.28538 0.0
C443 C 0.71256 0.35464 0.36846 0.0
O444 O 0.73424 0.32457 0.31451 0.0
C445 C 0.67637 0.34774 0.2973 0.0
O446 O 0.71371 0.32005 0.29338 0.0
O447 O 0.68111 0.33618 0.30512 0.0
H448 H 0.94079 0.49658 -0.01352 0.0
H449 H 0.96385 0.4883 -0.00893 0.0
H450 H 0.97697 0.52714 0.0314 0.0
H451 H 0.95386 0.53563 0.02651 0.0
H452 H 0.99373 0.51574 0.97489 0.0
H453 H 0.98323 0.47933 0.09092 0.0
H454 H 0.97256 0.4776 0.05 0.0
H455 H 0.97168 0.49263 0.0783 0.0
C456 C 0.94855 0.50341 -0.0037 0.0
C457 C 0.94543 0.51677 0.00639 0.0
C458 C 0.96173 0.49861 -0.0009 0.0
C459 C 0.97206 0.50703 0.01226 0.0
C460 C 0.96909 0.52046 0.02144 0.0
H461 H 0.05696 0.49939 0.05828 0.0
H462 H 0.03382 0.50683 0.04903 0.0
C463 C 0.95589 0.52529 0.01862 0.0
C464 C 0.98596 0.5018 0.01625 0.0
H465 H 0.00494 0.47843 0.06322 0.0
C466 C 0.9962 0.50761 -0.00574 0.0
C467 C 0.98912 0.49115 0.04142 0.0
C468 C 0.97861 0.48487 0.06679 0.0
C469 C 0.00953 0.50296 -0.00347 0.0
C470 C 0.01271 0.49239 0.02195 0.0
C471 C 0.00245 0.4865 0.04368 0.0
C472 C 0.02673 0.4877 0.02756 0.0
C473 C 0.02007 0.50929 0.97136 0.0
C474 C 0.03034 0.47433 0.01958 0.0
C475 C 0.04362 0.46997 0.02503 0.0
C476 C 0.05347 0.47891 0.03884 0.0
C477 C 0.04969 0.49223 0.04739 0.0
C478 C 0.03647 0.49655 0.0419 0.0
H479 H 0.01547 0.5145 0.94661 0.0
H480 H 0.02579 0.51687 -0.01202 0.0
H481 H 0.02729 0.50163 0.96079 0.0
H482 H 0.02292 0.4673 0.00879 0.0
H483 H 0.04617 0.45964 0.01826 0.0
H484 H 0.78589 0.79533 0.2787 0.0
H485 H 0.77842 0.77194 0.27172 0.0
H486 H 0.73845 0.78328 0.3071 0.0
H487 H 0.74571 0.80661 0.3138 0.0
H488 H 0.76687 0.75461 0.32648 0.0
H489 H 0.73183 0.76368 0.20619 0.0
H490 H 0.74445 0.77576 0.22046 0.0
H491 H 0.72899 0.7743 0.24668 0.0
C492 C 0.77551 0.79285 0.28501 0.0
C493 C 0.76639 0.80289 0.29657 0.0
C494 C 0.77126 0.77949 0.28098 0.0
C495 C 0.75782 0.77594 0.28821 0.0
C496 C 0.74879 0.78586 0.30055 0.0
H497 H 0.71224 0.70107 0.28417 0.0
H498 H 0.7195 0.72457 0.29033 0.0
C499 C 0.753 0.79919 0.30458 0.0
C500 C 0.75324 0.76184 0.28351 0.0
H501 H 0.73095 0.74206 0.23495 0.0
C502 C 0.75907 0.75184 0.30633 0.0
C503 C 0.74302 0.75829 0.2573 0.0
C504 C 0.73677 0.76853 0.23099 0.0
C505 C 0.7548 0.73839 0.30412 0.0
C506 C 0.74458 0.73484 0.27791 0.0
C507 C 0.73874 0.74484 0.2551 0.0
C508 C 0.74006 0.72072 0.27318 0.0
C509 C 0.76106 0.72814 0.33039 0.0
C510 C 0.74913 0.71087 0.26066 0.0
C511 C 0.74504 0.69749 0.2571 0.0
C512 C 0.73174 0.69367 0.26579 0.0
C513 C 0.72255 0.70364 0.27736 0.0
C514 C 0.72668 0.71707 0.28092 0.0
H515 H 0.76604 0.73299 0.35514 0.0
H516 H 0.75339 0.72093 0.34099 0.0
H517 H 0.76882 0.72236 0.31463 0.0
H518 H 0.75942 0.71353 0.25374 0.0
H519 H 0.75237 0.69013 0.24781 0.0
H520 H 0.43785 0.49694 0.5672 0.0
H521 H 0.46109 0.48914 0.56375 0.0
H522 H 0.47344 0.52793 0.5212 0.0
H523 H 0.45015 0.53593 0.52493 0.0
H524 H 0.47725 0.48757 0.49926 0.0
H525 H 0.50001 0.52098 0.60827 0.0
H526 H 0.48205 0.51855 0.60407 0.0
H527 H 0.49069 0.52966 0.57201 0.0
C528 C 0.44549 0.50389 0.55737 0.0
C529 C 0.4421 0.5171 0.54641 0.0
C530 C 0.45878 0.49938 0.55538 0.0
C531 C 0.469 0.50798 0.54261 0.0
C532 C 0.46573 0.5212 0.5318 0.0
H533 H 0.5539 0.50024 0.4986 0.0
H534 H 0.53048 0.50723 0.50445 0.0
C535 C 0.4524 0.52574 0.53379 0.0
C536 C 0.483 0.50292 0.53935 0.0
H537 H 0.5151 0.50807 0.57082 0.0
C538 C 0.48553 0.492 0.51505 0.0
C539 C 0.49375 0.50869 0.56007 0.0
C540 C 0.49152 0.52004 0.58785 0.0
C541 C 0.49861 0.4869 0.51016 0.0
C542 C 0.50938 0.49276 0.53061 0.0
C543 C 0.50682 0.5036 0.55516 0.0
C544 C 0.52347 0.48811 0.52608 0.0
C545 C 0.50085 0.47555 0.48239 0.0
C546 C 0.52731 0.47499 0.53631 0.0
C547 C 0.54076 0.4709 0.53291 0.0
C548 C 0.55059 0.47991 0.51946 0.0
C549 C 0.54663 0.49301 0.50908 0.0
C550 C 0.53323 0.49706 0.51244 0.0
H551 H 0.49218 0.47429 0.46275 0.0
H552 H 0.51008 0.47729 0.46533 0.0
H553 H 0.50217 0.466 0.49832 0.0
H554 H 0.51996 0.46799 0.5475 0.0
H555 H 0.54347 0.46077 0.54137 0.0
H556 H 0.74972 0.19438 0.82909 0.0
H557 H 0.75659 0.21781 0.82272 0.0
H558 H 0.71769 0.22781 0.77615 0.0
H559 H 0.7107 0.20423 0.78198 0.0
H560 H 0.73956 0.23765 0.73355 0.0
H561 H 0.74528 0.2504 0.88611 0.0
H562 H 0.75422 0.23549 0.87219 0.0
H563 H 0.73613 0.23576 0.87005 0.0
C564 C 0.74254 0.20154 0.81779 0.0
C565 C 0.72963 0.1974 0.80609 0.0
C566 C 0.74648 0.21497 0.81439 0.0
C567 C 0.7376 0.22458 0.79947 0.0
C568 C 0.72467 0.22055 0.78796 0.0
H569 H 0.74619 0.30946 0.74577 0.0
H570 H 0.73829 0.28636 0.75296 0.0
C571 C 0.72069 0.20708 0.7914 0.0
C572 C 0.74211 0.23868 0.79422 0.0
H573 H 0.75457 0.26594 0.84177 0.0
C574 C 0.74273 0.24389 0.75721 0.0
C575 C 0.74631 0.24675 0.82515 0.0
C576 C 0.74535 0.24188 0.86566 0.0
C577 C 0.74775 0.25687 0.75018 0.0
C578 C 0.75205 0.2649 0.78109 0.0
C579 C 0.75134 0.25972 0.81812 0.0
C580 C 0.75707 0.27882 0.7757 0.0
C581 C 0.74871 0.26176 0.70968 0.0
C582 C 0.77021 0.2823 0.78666 0.0
C583 C 0.77478 0.29555 0.78272 0.0
C584 C 0.76624 0.30558 0.76805 0.0
C585 C 0.75308 0.30201 0.75703 0.0
C586 C 0.74854 0.28878 0.76092 0.0
H587 H 0.74835 0.25329 0.68908 0.0
H588 H 0.74009 0.26853 0.70359 0.0
H589 H 0.75815 0.26751 0.70506 0.0
H590 H 0.77692 0.27475 0.79833 0.0
H591 H 0.78495 0.29796 0.79162 0.0
H592 H 0.04323 0.53886 0.5505 0.0
H593 H 0.01967 0.53186 0.55785 0.0
H594 H 0.03003 0.4918 0.52095 0.0
H595 H 0.05345 0.49857 0.51378 0.0
H596 H 0.00217 0.52075 0.50165 0.0
H597 H 0.01001 0.48536 0.62152 0.0
H598 H 0.02233 0.49788 0.60822 0.0
H599 H 0.02097 0.48243 0.58184 0.0
C600 C 0.0405 0.52855 0.54406 0.0
C601 C 0.05027 0.51927 0.53173 0.0
C602 C 0.02704 0.52458 0.54828 0.0
C603 C 0.02318 0.51125 0.54059 0.0
C604 C 0.03286 0.50205 0.52783 0.0
H605 H 0.95001 0.46417 0.53221 0.0
H606 H 0.97321 0.47256 0.53063 0.0
C607 C 0.04625 0.50599 0.52353 0.0
C608 C 0.00897 0.50694 0.54468 0.0
H609 H 0.98883 0.48412 0.5898 0.0
C610 C 0.99921 0.51285 0.52119 0.0
C611 C 0.00517 0.49658 0.5701 0.0
C612 C 0.01514 0.49026 0.59713 0.0
C613 C 0.98579 0.50838 0.52158 0.0
C614 C 0.98203 0.49789 0.54663 0.0
C615 C 0.99177 0.49211 0.5705 0.0
C616 C 0.96804 0.49276 0.54844 0.0
C617 C 0.97585 0.51464 0.49437 0.0
C618 C 0.95751 0.50126 0.5597 0.0
C619 C 0.94428 0.49652 0.56062 0.0
C620 C 0.9413 0.48313 0.55051 0.0
C621 C 0.95193 0.47454 0.54007 0.0
C622 C 0.96519 0.47931 0.53915 0.0
H623 H 0.98098 0.52009 0.47092 0.0
H624 H 0.96913 0.50687 0.4819 0.0
H625 H 0.96949 0.52198 0.50996 0.0
H626 H 0.95953 0.51159 0.56775 0.0
H627 H 0.93638 0.50342 0.56908 0.0
H628 H 0.78752 0.70267 0.77686 0.0
H629 H 0.77984 0.726 0.77017 0.0
H630 H 0.74264 0.71587 0.82637 0.0
H631 H 0.75023 0.69267 0.83362 0.0
H632 H 0.75662 0.73442 0.73109 0.0
H633 H 0.75466 0.74987 0.8825 0.0
H634 H 0.76375 0.73516 0.86667 0.0
H635 H 0.74577 0.73455 0.8723 0.0
C636 C 0.77779 0.70545 0.78827 0.0
C637 C 0.76951 0.69578 0.80581 0.0
C638 C 0.7734 0.71877 0.78434 0.0
C639 C 0.76074 0.72268 0.79816 0.0
C640 C 0.75255 0.71312 0.81616 0.0
H641 H 0.71366 0.79663 0.79008 0.0
H642 H 0.72119 0.77329 0.79787 0.0
C643 C 0.7569 0.69983 0.82007 0.0
C644 C 0.75572 0.73656 0.7919 0.0
H645 H 0.74439 0.76463 0.83788 0.0
C646 C 0.75403 0.74106 0.75441 0.0
C647 C 0.75224 0.74515 0.82241 0.0
C648 C 0.75429 0.74101 0.86325 0.0
C649 C 0.74877 0.75388 0.74658 0.0
C650 C 0.74532 0.76249 0.77708 0.0
C651 C 0.74698 0.75797 0.81457 0.0
C652 C 0.74047 0.77641 0.77071 0.0
C653 C 0.74672 0.75802 0.70573 0.0
C654 C 0.74883 0.78586 0.75292 0.0
C655 C 0.74458 0.79916 0.7484 0.0
C656 C 0.73188 0.80332 0.76179 0.0
C657 C 0.72346 0.79377 0.77929 0.0
C658 C 0.72775 0.78044 0.78387 0.0
H659 H 0.74634 0.74916 0.68649 0.0
H660 H 0.73728 0.76389 0.70232 0.0
H661 H 0.75526 0.76447 0.69668 0.0
H662 H 0.75877 0.78302 0.74319 0.0
H663 H 0.75136 0.80623 0.73492 0.0
H664 H 0.56007 0.49601 0.07859 0.0
H665 H 0.53694 0.4883 0.07048 0.0
H666 H 0.52631 0.52633 0.01964 0.0
H667 H 0.54949 0.53426 0.02798 0.0
H668 H 0.50765 0.51687 0.07423 0.0
H669 H 0.52012 0.47729 0.96852 0.0
H670 H 0.52962 0.47632 0.01187 0.0
H671 H 0.53171 0.49058 0.98101 0.0
C672 C 0.55284 0.50279 0.06574 0.0
C673 C 0.55669 0.51575 0.05369 0.0
C674 C 0.53963 0.49831 0.06093 0.0
C675 C 0.53 0.50664 0.04376 0.0
C676 C 0.53365 0.51971 0.03267 0.0
H677 H 0.44572 0.49914 -0.01418 0.0
H678 H 0.46896 0.50636 -0.00526 0.0
C679 C 0.54689 0.52423 0.0375 0.0
C680 C 0.51608 0.5017 0.03767 0.0
H681 H 0.49775 0.47746 -0.00787 0.0
C682 C 0.50547 0.5083 0.05616 0.0
C683 C 0.51329 0.49046 0.01419 0.0
C684 C 0.52426 0.4833 -0.00754 0.0
C685 C 0.49212 0.50385 0.05222 0.0
C686 C 0.48933 0.49265 0.02864 0.0
C687 C 0.49995 0.48601 0.01027 0.0
C688 C 0.47538 0.48792 0.02194 0.0
C689 C 0.48115 0.51104 0.07387 0.0
C690 C 0.4714 0.47494 0.03301 0.0
C691 C 0.45808 0.4707 0.02776 0.0
C692 C 0.44854 0.47937 0.01114 0.0
C693 C 0.45273 0.49222 -0.00098 0.0
C694 C 0.46601 0.49642 0.00428 0.0
H695 H 0.48528 0.51696 0.09799 0.0
H696 H 0.47589 0.5181 0.05448 0.0
H697 H 0.47362 0.50378 0.08503 0.0
H698 H 0.47854 0.46819 0.04641 0.0
H699 H 0.45521 0.46074 0.03732 0.0
H700 H 0.71035 0.29501 0.27604 0.0
H701 H 0.71728 0.27141 0.26996 0.0
H702 H 0.75583 0.28105 0.31939 0.0
H703 H 0.74901 0.30449 0.32601 0.0
H704 H 0.73945 0.26153 0.22866 0.0
H705 H 0.74381 0.24838 0.38132 0.0
H706 H 0.73489 0.26312 0.36493 0.0
H707 H 0.75296 0.26327 0.36828 0.0
C708 C 0.72024 0.29208 0.28601 0.0
C709 C 0.7291 0.30166 0.3016 0.0
C710 C 0.72419 0.2786 0.28243 0.0
C711 C 0.737 0.27446 0.29469 0.0
C712 C 0.7458 0.28397 0.31046 0.0
H713 H 0.78359 0.20046 0.28906 0.0
H714 H 0.77593 0.22382 0.29515 0.0
C715 C 0.74189 0.29741 0.314 0.0
C716 C 0.74148 0.26034 0.28946 0.0
H717 H 0.75334 0.23288 0.33731 0.0
C718 C 0.74238 0.25521 0.2524 0.0
C719 C 0.74538 0.25217 0.3205 0.0
C720 C 0.7441 0.25695 0.36104 0.0
C721 C 0.74736 0.24221 0.24548 0.0
C722 C 0.75134 0.23407 0.27651 0.0
C723 C 0.75037 0.23918 0.31357 0.0
C724 C 0.7562 0.22009 0.27123 0.0
C725 C 0.74861 0.2374 0.20497 0.0
C726 C 0.74764 0.21028 0.25586 0.0
C727 C 0.75197 0.19697 0.25233 0.0
C728 C 0.76495 0.19315 0.26429 0.0
C729 C 0.77356 0.20305 0.27942 0.0
C730 C 0.76919 0.21639 0.28302 0.0
H731 H 0.74852 0.24591 0.18451 0.0
H732 H 0.75802 0.23153 0.20089 0.0
H733 H 0.73996 0.23074 0.19817 0.0
H734 H 0.73749 0.21287 0.24724 0.0
H735 H 0.74503 0.18963 0.24068 0.0
H736 H 0.2876 0.29813 0.78421 0.0
H737 H 0.28022 0.27466 0.77834 0.0
H738 H 0.24135 0.28536 0.82357 0.0
H739 H 0.24851 0.30874 0.82935 0.0
H740 H 0.26986 0.25668 0.83534 0.0
H741 H 0.23252 0.26692 0.72137 0.0
H742 H 0.2456 0.27873 0.73398 0.0
H743 H 0.23078 0.27726 0.76294 0.0
C744 C 0.2775 0.29549 0.79306 0.0
C745 C 0.26863 0.30537 0.80696 0.0
C746 C 0.27331 0.28208 0.78966 0.0
C747 C 0.26016 0.27835 0.79986 0.0
C748 C 0.25144 0.28809 0.8148 0.0
H749 H 0.21412 0.20382 0.7942 0.0
H750 H 0.2217 0.22714 0.80217 0.0
C751 C 0.2556 0.30145 0.81825 0.0
C752 C 0.2555 0.2643 0.79491 0.0
H753 H 0.23235 0.24501 0.74807 0.0
C754 C 0.26171 0.25409 0.81614 0.0
C755 C 0.24482 0.26101 0.76996 0.0
C756 C 0.23809 0.27152 0.74547 0.0
C757 C 0.25737 0.24067 0.81355 0.0
C758 C 0.24671 0.23736 0.7885 0.0
C759 C 0.24049 0.24758 0.76731 0.0
C760 C 0.24207 0.2233 0.78327 0.0
C761 C 0.26405 0.23019 0.83824 0.0
C762 C 0.25092 0.21351 0.76924 0.0
C763 C 0.24665 0.20022 0.76467 0.0
C764 C 0.23337 0.19645 0.77378 0.0
C765 C 0.22441 0.20637 0.787 0.0
C766 C 0.22873 0.21969 0.7916 0.0
H767 H 0.26932 0.23482 0.86284 0.0
H768 H 0.25658 0.22281 0.84904 0.0
H769 H 0.27164 0.22465 0.82118 0.0
H770 H 0.26117 0.21615 0.76177 0.0
H771 H 0.25381 0.19289 0.75415 0.0
H772 H 0.28456 0.7951 0.2818 0.0
H773 H 0.27626 0.77199 0.2883 0.0
H774 H 0.23718 0.78449 0.24817 0.0
H775 H 0.24536 0.80752 0.24122 0.0
H776 H 0.25438 0.76341 0.33415 0.0
H777 H 0.24575 0.75152 0.18186 0.0
H778 H 0.25607 0.76547 0.19717 0.0
H779 H 0.23803 0.76685 0.19795 0.0
C780 C 0.27424 0.79292 0.27398 0.0
C781 C 0.26564 0.80318 0.26089 0.0
C782 C 0.26951 0.77971 0.2778 0.0
C783 C 0.25616 0.77652 0.26829 0.0
C784 C 0.24759 0.7867 0.255 0.0
H785 H 0.2092 0.70223 0.27781 0.0
H786 H 0.21629 0.72577 0.27131 0.0
C787 C 0.25228 0.79988 0.25124 0.0
C788 C 0.251 0.76265 0.27377 0.0
H789 H 0.23757 0.73573 0.22677 0.0
C790 C 0.25075 0.75733 0.31068 0.0
C791 C 0.24617 0.75481 0.24312 0.0
C792 C 0.2466 0.75987 0.20272 0.0
C793 C 0.24569 0.74438 0.31783 0.0
C794 C 0.24099 0.73647 0.28713 0.0
C795 C 0.24113 0.74184 0.25026 0.0
C796 C 0.23648 0.72237 0.29243 0.0
C797 C 0.24525 0.73936 0.35827 0.0
C798 C 0.24549 0.71268 0.30623 0.0
C799 C 0.2415 0.69928 0.31002 0.0
C800 C 0.22839 0.69524 0.29981 0.0
C801 C 0.21934 0.705 0.28607 0.0
C802 C 0.22338 0.71844 0.28226 0.0
H803 H 0.24547 0.7478 0.37897 0.0
H804 H 0.23607 0.73325 0.36346 0.0
H805 H 0.25417 0.73292 0.36369 0.0
H806 H 0.25573 0.71544 0.31349 0.0
H807 H 0.24877 0.69206 0.32053 0.0
H808 H 0.28596 0.1989 0.27301 0.0
H809 H 0.27816 0.22204 0.26351 0.0
H810 H 0.24055 0.21232 0.31813 0.0
H811 H 0.24813 0.18919 0.32731 0.0
H812 H 0.23728 0.22584 0.24963 0.0
H813 H 0.27421 0.25204 0.34234 0.0
H814 H 0.2816 0.24124 0.30714 0.0
H815 H 0.27151 0.23408 0.34439 0.0
C816 C 0.27608 0.20171 0.28334 0.0
C817 C 0.26769 0.19217 0.30098 0.0
C818 C 0.27166 0.21496 0.27799 0.0
C819 C 0.25883 0.21893 0.29047 0.0
C820 C 0.2505 0.20947 0.30834 0.0
H821 H 0.21185 0.29292 0.28571 0.0
H822 H 0.21933 0.26953 0.29207 0.0
C823 C 0.25487 0.19625 0.31363 0.0
C824 C 0.25386 0.2328 0.28387 0.0
H825 H 0.26007 0.2658 0.30447 0.0
C826 C 0.24223 0.23459 0.2617 0.0
C827 C 0.26034 0.24418 0.29967 0.0
C828 C 0.27254 0.24284 0.325 0.0
C829 C 0.23701 0.24748 0.25443 0.0
C830 C 0.2435 0.25884 0.27023 0.0
C831 C 0.25514 0.25706 0.29235 0.0
C832 C 0.23847 0.27272 0.26411 0.0
C833 C 0.22477 0.24885 0.2293 0.0
C834 C 0.24675 0.28226 0.24639 0.0
C835 C 0.24254 0.2956 0.24284 0.0
C836 C 0.22997 0.29973 0.25718 0.0
C837 C 0.22155 0.29007 0.27418 0.0
C838 C 0.22579 0.27669 0.27773 0.0
H839 H 0.22303 0.23964 0.21205 0.0
H840 H 0.21576 0.25051 0.2473 0.0
H841 H 0.2258 0.25759 0.20987 0.0
H842 H 0.25657 0.2794 0.23572 0.0
H843 H 0.2493 0.30274 0.22953 0.0
H844 H 0.24827 0.69151 0.75577 0.0
H845 H 0.24082 0.71486 0.76017 0.0
H846 H 0.2807 0.72691 0.79471 0.0
H847 H 0.28835 0.70353 0.78999 0.0
H848 H 0.24112 0.73137 0.8244 0.0
H849 H 0.27192 0.75308 0.70788 0.0
H850 H 0.26935 0.73519 0.71328 0.0
H851 H 0.28131 0.74384 0.74286 0.0
C852 C 0.25552 0.69911 0.76408 0.0
C853 C 0.26894 0.69562 0.77245 0.0
C854 C 0.25122 0.71246 0.76662 0.0
C855 C 0.26023 0.72263 0.77736 0.0
C856 C 0.27364 0.71924 0.7857 0.0
H857 H 0.25261 0.80835 0.81481 0.0
H858 H 0.26009 0.78502 0.81019 0.0
C859 C 0.27798 0.70586 0.78315 0.0
C860 C 0.25541 0.73669 0.78098 0.0
H861 H 0.25976 0.76848 0.7462 0.0
C862 C 0.24515 0.73948 0.80723 0.0
C863 C 0.2607 0.74724 0.75851 0.0
C864 C 0.27135 0.74472 0.72879 0.0
C865 C 0.24018 0.7526 0.8121 0.0
C866 C 0.24547 0.76315 0.78965 0.0
C867 C 0.25573 0.76036 0.76338 0.0
C868 C 0.24066 0.77722 0.7933 0.0
C869 C 0.22954 0.75511 0.84183 0.0
C870 C 0.22723 0.78059 0.7852 0.0
C871 C 0.22287 0.79396 0.78791 0.0
C872 C 0.23191 0.80421 0.79852 0.0
C873 C 0.24535 0.80074 0.80661 0.0
C874 C 0.24968 0.7874 0.80393 0.0
H875 H 0.229 0.74676 0.8628 0.0
H876 H 0.2315 0.76466 0.85727 0.0
H877 H 0.21956 0.75594 0.82778 0.0
H878 H 0.22016 0.77292 0.77625 0.0
H879 H 0.21248 0.79628 0.78124 0.0
H880 H 0.45293 0.03515 0.53206 0.0
H881 H 0.47632 0.02768 0.53906 0.0
H882 H 0.46615 0.98957 0.48791 0.0
H883 H 0.44289 0.99692 0.48042 0.0
H884 H 0.48526 0.005 0.58035 0.0
H885 H 0.49962 0.00123 0.42838 0.0
H886 H 0.48499 0.01045 0.44416 0.0
H887 H 0.48442 0.99241 0.44034 0.0
C888 C 0.4557 0.02524 0.52189 0.0
C889 C 0.44601 0.01666 0.50561 0.0
C890 C 0.46906 0.02098 0.52599 0.0
C891 C 0.47299 0.00814 0.51357 0.0
C892 C 0.46339 -0.00039 0.49702 0.0
H893 H 0.54729 0.9616 0.52279 0.0
H894 H 0.52391 0.96903 0.51467 0.0
C895 C 0.45006 0.00383 0.49297 0.0
C896 C 0.48696 0.00335 0.51956 0.0
H897 H 0.5148 0.99167 0.47313 0.0
C898 C 0.49176 0.00217 0.55693 0.0
C899 C 0.49536 -0.00044 0.48893 0.0
C900 C 0.49091 0.00107 0.44816 0.0
C901 C 0.50468 0.9971 0.56454 0.0
C902 C 0.51309 0.99334 0.53391 0.0
C903 C 0.50829 0.9945 0.49655 0.0
C904 C 0.52709 0.98863 0.53999 0.0
C905 C 0.50912 0.99559 0.60533 0.0
C906 C 0.5366 0.99721 0.5567 0.0
C907 C 0.54991 0.99302 0.5614 0.0
C908 C 0.55403 0.98016 0.54927 0.0
C909 C 0.54445 0.97154 0.5326 0.0
C910 C 0.5311 0.97578 0.52785 0.0
H911 H 0.5004 0.99536 0.62507 0.0
H912 H 0.5151 0.98624 0.60931 0.0
H913 H 0.51555 0.00428 0.61323 0.0
H914 H 0.53378 0.00727 0.56558 0.0
H915 H 0.55699 -4e-05 0.5742 0.0
H916 H 0.94811 0.03598 0.02512 0.0
H917 H 0.97145 0.02826 0.01828 0.0
H918 H 0.96021 0.98922 0.06134 0.0
H919 H 0.93698 0.99671 0.06793 0.0
H920 H 0.98924 0.01775 0.07369 0.0
H921 H 0.97881 0.98025 0.96051 0.0
H922 H 0.96694 0.99324 0.97339 0.0
H923 H 0.96854 0.97836 0.00214 0.0
C924 C 0.95061 0.02576 0.03319 0.0
C925 C 0.94062 0.01695 0.04679 0.0
C926 C 0.96394 0.02137 0.02922 0.0
C927 C 0.96748 0.00808 0.03858 0.0
C928 C 0.95763 -0.0006 0.0531 0.0
H929 H 0.04224 0.96208 0.03866 0.0
H930 H 0.01876 0.96947 0.04465 0.0
C931 C 0.94435 0.00376 0.05705 0.0
C932 C 0.98151 0.00329 0.03373 0.0
H933 H 0.00066 0.97974 -0.01198 0.0
C934 C 0.99176 0.0095 0.0548 0.0
C935 C 0.98474 0.99246 0.0092 0.0
C936 C 0.97421 0.98575 0.98474 0.0
C937 C 0.00515 0.00504 0.05248 0.0
C938 C 0.00838 0.99422 0.02794 0.0
C939 C 0.99813 0.98799 0.00691 0.0
C940 C 0.02242 0.98951 0.02296 0.0
C941 C 0.01569 0.01177 0.07685 0.0
C942 C 0.03214 0.99822 0.00785 0.0
C943 C 0.0455 0.99405 0.00434 0.0
C944 C 0.04944 0.98104 0.01572 0.0
C945 C 0.03957 0.97217 0.02973 0.0
C946 C 0.02616 0.97637 0.03321 0.0
H947 H 0.01111 0.01737 0.10092 0.0
H948 H 0.02292 0.00427 0.08838 0.0
H949 H 0.02142 0.01907 0.05929 0.0
H950 H 0.0294 0.0083 -0.00102 0.0
H951 H 0.05276 0.00114 -0.00688 0.0
H952 H 0.55582 0.999 0.00319 0.0
H953 H 0.53242 0.99186 0.00779 0.0
H954 H 0.52141 0.03094 0.05113 0.0
H955 H 0.54491 0.0383 0.04624 0.0
H956 H 0.51652 0.99076 0.07312 0.0
H957 H 0.49434 0.02478 0.9644 0.0
H958 H 0.51223 0.02183 0.96807 0.0
H959 H 0.50402 0.033 0.00081 0.0
C960 C 0.54845 0.00616 0.01351 0.0
C961 C 0.55227 0.01926 0.02428 0.0
C962 C 0.53506 0.00202 0.01616 0.0
C963 C 0.52516 0.01089 0.02945 0.0
C964 C 0.52887 0.024 0.04019 0.0
H965 H 0.43934 0.0017 0.0658 0.0
H966 H 0.46257 0.00959 0.06314 0.0
C967 C 0.54231 0.02818 0.03752 0.0
C968 C 0.51105 0.00618 0.03295 0.0
H969 H 0.47918 0.01133 -0.00037 0.0
C970 C 0.50834 0.99524 0.05704 0.0
C971 C 0.50043 0.01205 0.01192 0.0
C972 C 0.50286 0.02349 0.98457 0.0
C973 C 0.49525 0.99009 0.06096 0.0
C974 C 0.48465 0.99589 0.03971 0.0
C975 C 0.48734 0.00689 0.01582 0.0
C976 C 0.47064 0.9908 0.04209 0.0
C977 C 0.49285 0.97865 0.08832 0.0
C978 C 0.46745 0.9776 0.03098 0.0
C979 C 0.45414 0.973 0.03253 0.0
C980 C 0.44376 0.98157 0.04499 0.0
C981 C 0.44705 0.9948 0.05609 0.0
C982 C 0.46033 -0.00064 0.05455 0.0
H983 H 0.50119 0.97766 0.10921 0.0
H984 H 0.48326 0.98007 0.10402 0.0
H985 H 0.49216 0.96907 0.0722 0.0
H986 H 0.47523 0.9709 0.02061 0.0
H987 H 0.45196 0.9628 0.02357 0.0
H988 H 0.04902 0.03553 0.52666 0.0
H989 H 0.02577 0.02758 0.51965 0.0
H990 H 0.03586 0.99118 0.58001 0.0
H991 H 0.05894 0.99903 0.58759 0.0
H992 H 0.0175 0.00384 0.48278 0.0
H993 H 0.00165 0.00367 0.63386 0.0
H994 H 0.01636 0.01263 0.61749 0.0
H995 H 0.01706 0.99474 0.62518 0.0
C996 C 0.04624 0.02592 0.5389 0.0
C997 C 0.05587 0.01794 0.55775 0.0
C998 C 0.03297 0.02138 0.53476 0.0
C999 C 0.02906 0.00886 0.54971 0.0
C1000 C 0.03859 0.00098 0.56891 0.0
H1001 H 0.95578 0.96064 0.54526 0.0
H1002 H 0.97903 0.96859 0.55243 0.0
C1003 C 0.05182 0.00548 0.57301 0.0
C1004 C 0.01523 0.00367 0.5436 0.0
H1005 H 0.98723 0.99245 0.59012 0.0
C1006 C 0.01084 0.00144 0.50622 0.0
C1007 C 0.00661 0.00044 0.57425 0.0
C1008 C 0.01059 0.0031 0.61495 0.0
C1009 C 0.99812 0.99587 0.49866 0.0
C1010 C 0.98951 0.99263 0.52931 0.0
C1011 C 0.9939 0.99486 0.56669 0.0
C1012 C 0.97567 0.98746 0.52319 0.0
C1013 C 0.99411 0.99325 0.45796 0.0
C1014 C 0.96612 0.99543 0.50443 0.0
C1015 C 0.95288 0.99095 0.5003 0.0
C1016 C 0.94887 0.97839 0.51503 0.0
C1017 C 0.95853 0.97032 0.53343 0.0
C1018 C 0.9718 0.97486 0.53765 0.0
H1019 H 0.00303 0.99278 0.43894 0.0
H1020 H 0.98841 0.98367 0.45539 0.0
H1021 H 0.98755 0.00156 0.44793 0.0
H1022 H 0.96882 0.00529 0.49369 0.0
H1023 H 0.94573 0.99746 0.48604 0.0
H1024 H 0.10076 0.46036 0.91185 0.0
H1025 H 0.1036 0.46784 0.84595 0.0
H1026 H 0.12502 0.50301 0.88494 0.0
H1027 H 0.12248 0.49556 0.95034 0.0
H1028 H 0.09273 0.49168 0.82036 0.0
H1029 H 0.14778 0.49124 0.79513 0.0
H1030 H 0.14004 0.48219 0.83386 0.0
H1031 H 0.14315 0.49997 0.83778 0.0
C1032 C 0.1064 0.46949 0.90628 0.0
C1033 C 0.1113 0.47742 0.93631 0.0
C1034 C 0.10797 0.47377 0.86868 0.0
C1035 C 0.11459 0.48594 0.86061 0.0
C1036 C 0.12009 0.49348 0.89044 0.0
H1037 H 0.09844 0.53595 0.66193 0.0
H1038 H 0.10196 0.52831 0.72753 0.0
C1039 C 0.11852 0.48924 0.92788 0.0
C1040 C 0.1144 0.4916 0.82177 0.0
H1041 H 0.13448 0.50404 0.7514 0.0
C1042 C 0.10185 0.49429 0.80513 0.0
C1043 C 0.12633 0.49501 0.80211 0.0
C1044 C 0.14009 0.49184 0.81796 0.0
C1045 C 0.10088 0.50042 0.76939 0.0
C1046 C 0.1128 0.50421 0.75019 0.0
C1047 C 0.12537 0.50137 0.7666 0.0
C1048 C 0.11236 0.51001 0.71156 0.0
C1049 C 0.08711 0.50253 0.75215 0.0
C1050 C 0.11767 0.50261 0.68125 0.0
C1051 C 0.11576 0.50696 0.64404 0.0
C1052 C 0.10852 0.51883 0.63638 0.0
C1053 C 0.10399 0.52673 0.66693 0.0
C1054 C 0.10591 0.52234 0.70433 0.0
H1055 H 0.07926 0.49651 0.76686 0.0
H1056 H 0.08432 0.51331 0.75451 0.0
H1057 H 0.0871 0.49977 0.72158 0.0
H1058 H 0.12276 0.49312 0.68627 0.0
H1059 H 0.11954 0.50071 0.62118 0.0
H1060 H 0.75252 0.868 0.86146 0.0
H1061 H 0.7605 0.86975 0.92665 0.0
H1062 H 0.72408 0.85083 0.96655 0.0
H1063 H 0.71602 0.84879 0.90087 0.0
H1064 H 0.75012 0.88184 -0.00865 0.0
H1065 H 0.75429 0.82633 0.00714 0.0
H1066 H 0.7517 0.83437 0.96174 0.0
H1067 H 0.73784 0.83223 -0.00605 0.0
C1068 C 0.74611 0.86428 0.88403 0.0
C1069 C 0.73369 0.85808 0.87593 0.0
C1070 C 0.7507 0.86533 0.9213 0.0
C1071 C 0.743 0.86018 0.95124 0.0
C1072 C 0.73028 0.85462 0.94362 0.0
H1073 H 0.75287 0.87005 0.19026 0.0
H1074 H 0.7473 0.87233 0.12332 0.0
C1075 C 0.72564 0.85356 0.90617 0.0
C1076 C 0.74865 0.86021 -0.0099 0.0
H1077 H 0.75874 0.83946 0.0619 0.0
C1078 C 0.75202 0.87259 0.00681 0.0
C1079 C 0.75144 0.8481 0.00969 0.0
C1080 C 0.74876 0.83449 -0.00783 0.0
C1081 C 0.75779 0.87319 0.04316 0.0
C1082 C 0.76004 0.8611 0.06339 0.0
C1083 C 0.75699 0.84871 0.04628 0.0
C1084 C 0.76454 0.86106 0.10341 0.0
C1085 C 0.76147 0.88674 0.05948 0.0
C1086 C 0.77614 0.85397 0.11448 0.0
C1087 C 0.77936 0.85257 0.15302 0.0
C1088 C 0.77089 0.8581 0.18091 0.0
C1089 C 0.75958 0.86562 0.1695 0.0
C1090 C 0.75642 0.86704 0.13118 0.0
H1091 H 0.76314 0.89431 0.03673 0.0
H1092 H 0.75309 0.89039 0.07758 0.0
H1093 H 0.77069 0.8861 0.07726 0.0
H1094 H 0.78248 0.84921 0.09336 0.0
H1095 H 0.7881 0.84668 0.16095 0.0
H1096 H 0.40104 0.46301 0.14721 0.0
H1097 H 0.39763 0.47041 0.21303 0.0
H1098 H 0.37976 0.50733 0.17279 0.0
H1099 H 0.38291 0.50003 0.10746 0.0
H1100 H 0.40914 0.49372 0.24351 0.0
H1101 H 0.35349 0.49533 0.25531 0.0
H1102 H 0.36206 0.48617 0.21818 0.0
H1103 H 0.35988 0.5041 0.21455 0.0
C1104 C 0.39614 0.47257 0.15244 0.0
C1105 C 0.3923 0.48094 0.12212 0.0
C1106 C 0.39424 0.47679 0.18998 0.0
C1107 C 0.38833 0.48935 0.19766 0.0
C1108 C 0.38411 0.4975 0.16748 0.0
H1109 H 0.39951 0.53694 0.4034 0.0
H1110 H 0.39808 0.52975 0.33679 0.0
C1111 C 0.38603 0.49333 0.13011 0.0
C1112 C 0.3876 0.49453 0.23694 0.0
H1113 H 0.3659 0.50683 0.30357 0.0
C1114 C 0.39969 0.49651 0.25679 0.0
C1115 C 0.37524 0.49814 0.25406 0.0
C1116 C 0.36191 0.49572 0.23459 0.0
C1117 C 0.39977 0.50216 0.29326 0.0
C1118 C 0.38745 0.50615 0.30994 0.0
C1119 C 0.37534 0.50399 0.29033 0.0
C1120 C 0.3869 0.51156 0.34898 0.0
C1121 C 0.41302 0.50359 0.31394 0.0
C1122 C 0.38052 0.50403 0.37737 0.0
C1123 C 0.38126 0.50812 0.41515 0.0
C1124 C 0.38836 0.51985 0.42528 0.0
C1125 C 0.39403 0.52784 0.39649 0.0
C1126 C 0.3933 0.5237 0.35854 0.0
H1127 H 0.42111 0.49751 0.30048 0.0
H1128 H 0.41618 0.5143 0.31351 0.0
H1129 H 0.41201 0.50043 0.34407 0.0
H1130 H 0.37546 0.49468 0.37048 0.0
H1131 H 0.37664 0.5018 0.43658 0.0
H1132 H 0.7116 0.15167 0.66559 0.0
H1133 H 0.718 0.14865 0.59875 0.0
H1134 H 0.75505 0.12968 0.63373 0.0
H1135 H 0.74876 0.13246 0.69998 0.0
H1136 H 0.74121 0.1598 0.56612 0.0
H1137 H 0.74117 0.10424 0.55134 0.0
H1138 H 0.73273 0.11281 0.58982 0.0
H1139 H 0.75063 0.11007 0.59158 0.0
C1140 C 0.72098 0.14663 0.65896 0.0
C1141 C 0.72969 0.14236 0.68807 0.0
C1142 C 0.72464 0.14495 0.62085 0.0
C1143 C 0.73693 0.13882 0.61141 0.0
C1144 C 0.74541 0.1342 0.64039 0.0
H1145 H 0.78347 0.1499 0.40439 0.0
H1146 H 0.77628 0.14852 0.47098 0.0
C1147 C 0.74182 0.13591 0.6783 0.0
C1148 C 0.74154 0.13821 0.57156 0.0
H1149 H 0.75271 0.11663 0.50306 0.0
C1150 C 0.74362 0.15036 0.55216 0.0
C1151 C 0.74465 0.12587 0.55354 0.0
C1152 C 0.74207 0.1125 0.57249 0.0
C1153 C 0.74897 0.15054 0.51534 0.0
C1154 C 0.75254 0.13823 0.49783 0.0
C1155 C 0.7502 0.12605 0.51692 0.0
C1156 C 0.75782 0.13778 0.45863 0.0
C1157 C 0.75057 0.16387 0.49525 0.0
C1158 C 0.75013 0.13164 0.43014 0.0
C1159 C 0.75422 0.13235 0.39236 0.0
C1160 C 0.76612 0.13917 0.38233 0.0
C1161 C 0.77424 0.14463 0.41121 0.0
C1162 C 0.7701 0.14394 0.44916 0.0
H1163 H 0.7447 0.17199 0.50926 0.0
H1164 H 0.76135 0.16682 0.49557 0.0
H1165 H 0.74729 0.16309 0.46516 0.0
H1166 H 0.74068 0.12676 0.43696 0.0
H1167 H 0.7478 0.1279 0.37087 0.0
H1168 H 0.8737 0.50935 0.11478 0.0
H1169 H 0.87112 0.50187 0.18041 0.0
H1170 H 0.90654 0.52444 0.21204 0.0
H1171 H 0.90877 0.53246 0.1465 0.0
H1172 H 0.88793 0.48635 0.21669 0.0
H1173 H 0.8823 0.53361 0.2985 0.0
H1174 H 0.88099 0.53314 0.24741 0.0
H1175 H 0.89726 0.53359 0.27005 0.0
C1176 C 0.88073 0.51299 0.13599 0.0
C1177 C 0.89141 0.5215 0.12573 0.0
C1178 C 0.87928 0.50866 0.17342 0.0
C1179 C 0.88859 0.51261 0.20124 0.0
C1180 C 0.89904 0.5215 0.19131 0.0
H1181 H 0.90609 0.46715 0.40647 0.0
H1182 H 0.90495 0.47524 0.34081 0.0
C1183 C 0.90034 0.52606 0.15387 0.0
C1184 C 0.88796 0.50649 0.23962 0.0
H1185 H 0.88745 0.51382 0.33421 0.0
C1186 C 0.88769 0.49237 0.2424 0.0
C1187 C 0.88753 0.51432 0.27313 0.0
C1188 C 0.88689 0.5295 0.27217 0.0
C1189 C 0.8871 0.48586 0.27771 0.0
C1190 C 0.88726 0.49369 0.31126 0.0
C1191 C 0.88742 0.50781 0.30848 0.0
C1192 C 0.8872 0.48755 0.34967 0.0
C1193 C 0.88603 0.47071 0.27856 0.0
C1194 C 0.87764 0.49175 0.37647 0.0
C1195 C 0.87847 0.48738 0.41402 0.0
C1196 C 0.88878 0.47857 0.4254 0.0
C1197 C 0.89794 0.47378 0.39823 0.0
C1198 C 0.89726 0.47838 0.36071 0.0
H1199 H 0.88167 0.46673 0.25172 0.0
H1200 H 0.89624 0.46633 0.28179 0.0
H1201 H 0.87971 0.46723 0.30263 0.0
H1202 H 0.86977 0.49878 0.36861 0.0
H1203 H 0.87127 0.49121 0.43445 0.0
H1204 H 0.21207 0.1513 0.9081 0.0
H1205 H 0.21803 0.14813 0.97527 0.0
H1206 H 0.2532 0.12553 0.94216 0.0
H1207 H 0.24727 0.12841 0.87561 0.0
H1208 H 0.24008 0.11475 0.00528 0.0
H1209 H 0.24985 0.16968 0.01991 0.0
H1210 H 0.23319 0.16517 0.00452 0.0
H1211 H 0.24736 0.16171 0.97439 0.0
C1212 C 0.22092 0.14545 0.91523 0.0
C1213 C 0.22931 0.14029 0.88659 0.0
C1214 C 0.22436 0.14373 0.95352 0.0
C1215 C 0.2362 0.13683 0.96349 0.0
C1216 C 0.24407 0.13096 0.93501 0.0
H1217 H 0.28469 0.14596 0.16637 0.0
H1218 H 0.27685 0.14393 0.10055 0.0
C1219 C 0.24068 0.13268 0.89696 0.0
C1220 C 0.24105 0.1364 0.00317 0.0
H1221 H 0.25354 0.15624 0.07401 0.0
C1222 C 0.24295 0.12381 0.02047 0.0
C1223 C 0.24507 0.14823 0.02241 0.0
C1224 C 0.24389 0.16197 0.00437 0.0
C1225 C 0.24874 0.12275 0.05672 0.0
C1226 C 0.25252 0.1346 0.07622 0.0
C1227 C 0.25064 0.14718 0.05888 0.0
C1228 C 0.25801 0.1343 0.11524 0.0
C1229 C 0.25101 0.10895 0.07346 0.0
C1230 C 0.2501 0.12937 0.14505 0.0
C1231 C 0.25454 0.13047 0.18247 0.0
C1232 C 0.26695 0.13665 0.19088 0.0
C1233 C 0.27512 0.14112 0.16083 0.0
C1234 C 0.27064 0.14002 0.12328 0.0
H1235 H 0.25119 0.10104 0.05115 0.0
H1236 H 0.26062 0.10855 0.08959 0.0
H1237 H 0.24267 0.10656 0.09331 0.0
H1238 H 0.24023 0.12515 0.13953 0.0
H1239 H 0.248 0.12689 0.2049 0.0
H1240 H 0.62155 0.49676 0.95351 0.0
H1241 H 0.62285 0.48917 0.88788 0.0
H1242 H 0.6031 0.52554 0.85079 0.0
H1243 H 0.60154 0.53321 0.91684 0.0
H1244 H 0.59099 0.50184 0.82475 0.0
H1245 H 0.64605 0.50109 0.79815 0.0
H1246 H 0.64106 0.49242 0.84063 0.0
H1247 H 0.63861 0.51031 0.83705 0.0
C1248 C 0.61766 0.50329 0.93142 0.0
C1249 C 0.61136 0.51558 0.94043 0.0
C1250 C 0.6185 0.49895 0.89386 0.0
C1251 C 0.61317 0.50684 0.86453 0.0
C1252 C 0.60732 0.51934 0.87315 0.0
H1253 H 0.61732 0.49691 0.6242 0.0
H1254 H 0.62027 0.50299 0.69061 0.0
C1255 C 0.60648 0.52373 0.91083 0.0
C1256 C 0.61267 0.50146 0.82542 0.0
H1257 H 0.63223 0.48991 0.75275 0.0
C1258 C 0.6 0.49927 0.8089 0.0
C1259 C 0.62445 0.49811 0.80501 0.0
C1260 C 0.63832 0.5007 0.82092 0.0
C1261 C 0.59877 0.4938 0.77236 0.0
C1262 C 0.61055 0.49023 0.75217 0.0
C1263 C 0.62323 0.49245 0.76866 0.0
C1264 C 0.60991 0.48548 0.71244 0.0
C1265 C 0.58492 0.49224 0.75525 0.0
C1266 C 0.60346 0.47336 0.70279 0.0
C1267 C 0.60171 0.46982 0.66458 0.0
C1268 C 0.60638 0.4784 0.63568 0.0
C1269 C 0.61345 0.49015 0.64573 0.0
C1270 C 0.61521 0.49364 0.6837 0.0
H1271 H 0.57715 0.49783 0.77157 0.0
H1272 H 0.58479 0.49586 0.72541 0.0
H1273 H 0.58211 0.48142 0.75516 0.0
H1274 H 0.59949 0.46684 0.72474 0.0
H1275 H 0.59628 0.46068 0.65772 0.0
H1276 H 0.21631 0.83958 0.66186 0.0
H1277 H 0.22439 0.8402 0.59603 0.0
H1278 H 0.24687 0.87634 0.62075 0.0
H1279 H 0.23932 0.8754 0.68672 0.0
H1280 H 0.22358 0.85719 0.53755 0.0
H1281 H 0.27643 0.85188 0.58532 0.0
H1282 H 0.26236 0.85011 0.61727 0.0
H1283 H 0.26857 0.86658 0.60485 0.0
C1284 C 0.22276 0.84779 0.65295 0.0
C1285 C 0.22733 0.85735 0.67931 0.0
C1286 C 0.22743 0.8481 0.61546 0.0
C1287 C 0.23661 0.85806 0.60389 0.0
C1288 C 0.24021 0.86828 0.62944 0.0
H1289 H 0.25759 0.8742 0.36976 0.0
H1290 H 0.24969 0.87546 0.43535 0.0
C1291 C 0.23577 0.86782 0.66697 0.0
C1292 C 0.24283 0.85751 0.56567 0.0
H1293 H 0.27316 0.85731 0.51999 0.0
C1294 C 0.23441 0.85716 0.53369 0.0
C1295 C 0.25699 0.85712 0.56071 0.0
C1296 C 0.2666 0.85629 0.59388 0.0
C1297 C 0.23976 0.85676 0.49684 0.0
C1298 C 0.25391 0.85721 0.49185 0.0
C1299 C 0.26232 0.85722 0.52384 0.0
C1300 C 0.26015 0.85747 0.45362 0.0
C1301 C 0.23015 0.85554 0.46374 0.0
C1302 C 0.2695 0.84755 0.44292 0.0
C1303 C 0.27437 0.84705 0.40565 0.0
C1304 C 0.26981 0.85639 0.3786 0.0
C1305 C 0.26113 0.86679 0.39003 0.0
C1306 C 0.25649 0.86743 0.42734 0.0
H1307 H 0.22037 0.85111 0.47261 0.0
H1308 H 0.22808 0.86571 0.45208 0.0
H1309 H 0.23445 0.84921 0.44076 0.0
H1310 H 0.27259 0.83985 0.46292 0.0
H1311 H 0.28101 0.8389 0.39747 0.0
H1312 H 0.61916 0.00189 0.1264 0.0
H1313 H 0.62184 0.99532 0.19253 0.0
H1314 H 0.60172 0.03166 0.22819 0.0
H1315 H 0.59875 0.03829 0.1615 0.0
H1316 H 0.63372 0.00739 0.25606 0.0
H1317 H 0.57833 0.00105 0.27191 0.0
H1318 H 0.58627 0.00329 0.22627 0.0
H1319 H 0.58383 0.01748 0.25715 0.0
C1320 C 0.6154 0.00859 0.14821 0.0
C1321 C 0.60854 0.02052 0.13868 0.0
C1322 C 0.617 0.00483 0.18603 0.0
C1323 C 0.61177 0.01288 0.2151 0.0
C1324 C 0.60562 0.0252 0.20598 0.0
H1325 H 0.6212 -0.00027 0.45599 0.0
H1326 H 0.62345 0.00756 0.39077 0.0
C1327 C 0.60401 0.02901 0.16795 0.0
C1328 C 0.61205 0.00779 0.25453 0.0
H1329 H 0.59171 0.99631 0.32553 0.0
C1330 C 0.62455 0.00502 0.27141 0.0
C1331 C 0.60005 0.00446 0.27398 0.0
C1332 C 0.58634 0.00659 0.25641 0.0
C1333 C 0.62538 0.99907 0.30748 0.0
C1334 C 0.61338 0.99595 0.32716 0.0
C1335 C 0.60089 0.99869 0.31023 0.0
C1336 C 0.61347 0.99032 0.36599 0.0
C1337 C 0.63906 0.99591 0.32388 0.0
C1338 C 0.60716 0.97795 0.37364 0.0
C1339 C 0.6058 0.97343 0.41107 0.0
C1340 C 0.61058 0.98132 0.44136 0.0
C1341 C 0.61737 0.99343 0.43333 0.0
C1342 C 0.61875 0.9979 0.39603 0.0
H1343 H 0.64692 0.99548 0.30148 0.0
H1344 H 0.64192 0.00392 0.34431 0.0
H1345 H 0.63894 0.98616 0.33933 0.0
H1346 H 0.60297 0.972 0.35071 0.0
H1347 H 0.60049 0.96409 0.41633 0.0
H1348 H 0.2536 0.35338 0.36956 0.0
H1349 H 0.26017 0.35615 0.43553 0.0
H1350 H 0.21843 0.35529 0.46932 0.0
H1351 H 0.21168 0.35209 0.40283 0.0
H1352 H 0.25463 0.37563 0.48657 0.0
H1353 H 0.23475 0.32635 0.53609 0.0
H1354 H 0.23609 0.33057 0.48641 0.0
H1355 H 0.22239 0.33706 0.51433 0.0
C1356 C 0.24575 0.35378 0.39087 0.0
C1357 C 0.23209 0.35241 0.3809 0.0
C1358 C 0.24955 0.3554 0.42864 0.0
C1359 C 0.23982 0.35574 0.45735 0.0
C1360 C 0.22613 0.35475 0.4476 0.0
H1361 H 0.24758 0.36626 0.69928 0.0
H1362 H 0.24053 0.36717 0.63306 0.0
C1363 C 0.22228 0.353 0.40963 0.0
C1364 C 0.24422 0.35697 0.49737 0.0
H1365 H 0.24411 0.3407 0.58278 0.0
C1366 C 0.25232 0.368 0.50761 0.0
C1367 C 0.24129 0.34692 0.52464 0.0
C1368 C 0.23326 0.33449 0.51485 0.0
C1369 C 0.25754 0.36925 0.54448 0.0
C1370 C 0.25453 0.35926 0.57158 0.0
C1371 C 0.24636 0.34831 0.56161 0.0
C1372 C 0.25952 0.36008 0.6109 0.0
C1373 C 0.26617 0.38122 0.55451 0.0
C1374 C 0.27265 0.356 0.62004 0.0
C1375 C 0.27676 0.35538 0.65805 0.0
C1376 C 0.26775 0.35882 0.68727 0.0
C1377 C 0.25478 0.36345 0.67758 0.0
C1378 C 0.2507 0.364 0.63977 0.0
H1379 H 0.26684 0.38859 0.53086 0.0
H1380 H 0.26203 0.38636 0.57998 0.0
H1381 H 0.27648 0.37774 0.56173 0.0
H1382 H 0.27954 0.35288 0.59788 0.0
H1383 H 0.28679 0.35178 0.66455 0.0
H1384 H 0.89694 0.03647 0.91012 0.0
H1385 H 0.89569 0.02971 0.84319 0.0
H1386 H 0.8738 0.99395 0.87493 0.0
H1387 H 0.87482 0.00064 0.94137 0.0
H1388 H 0.90712 0.0058 0.81677 0.0
H1389 H 0.8526 0.00754 0.78318 0.0
H1390 H 0.8598 0.01614 0.8236 0.0
H1391 H 0.85638 0.99838 0.82583 0.0
C1392 C 0.89157 0.02735 0.90271 0.0
C1393 C 0.88605 0.01905 0.93105 0.0
C1394 C 0.89091 0.02348 0.86453 0.0
C1395 C 0.88458 0.01138 0.85418 0.0
C1396 C 0.87853 0.00343 0.88223 0.0
H1397 H 0.90214 0.96235 0.65486 0.0
H1398 H 0.89863 0.97027 0.7202 0.0
C1399 C 0.87922 0.00724 0.92027 0.0
C1400 C 0.88545 0.00629 0.81481 0.0
H1401 H 0.86653 0.99518 0.74017 0.0
C1402 C 0.89826 0.00358 0.79986 0.0
C1403 C 0.87386 0.0034 0.79294 0.0
C1404 C 0.85988 0.00663 0.80703 0.0
C1405 C 0.89979 0.99786 0.76372 0.0
C1406 C 0.88819 0.99457 0.74234 0.0
C1407 C 0.87538 0.9975 0.75701 0.0
C1408 C 0.88921 0.98901 0.70352 0.0
C1409 C 0.91381 0.99559 0.74846 0.0
C1410 C 0.88458 0.99669 0.67284 0.0
C1411 C 0.8865 0.9922 0.63578 0.0
C1412 C 0.89306 0.9799 0.6286 0.0
C1413 C 0.89712 0.97189 0.65947 0.0
C1414 C 0.8952 0.97643 0.69673 0.0
H1415 H 0.92151 0.00125 0.76491 0.0
H1416 H 0.91629 0.98472 0.75026 0.0
H1417 H 0.91446 0.99867 0.71819 0.0
H1418 H 0.87986 0.00639 0.67754 0.0
H1419 H 0.88311 0.99858 0.6127 0.0
H1420 H 0.2835 0.65844 0.90977 0.0
H1421 H 0.27543 0.6561 0.97518 0.0
H1422 H 0.25433 0.61973 0.94408 0.0
H1423 H 0.26181 0.62245 0.87848 0.0
H1424 H 0.23802 0.63589 0.97869 0.0
H1425 H 0.28481 0.63306 0.06365 0.0
H1426 H 0.28443 0.64784 0.03451 0.0
H1427 H 0.28482 0.63145 0.01262 0.0
C1428 C 0.27746 0.64976 0.91727 0.0
C1429 C 0.27327 0.64062 0.88927 0.0
C1430 C 0.27286 0.64841 0.95465 0.0
C1431 C 0.26433 0.63767 0.96468 0.0
C1432 C 0.26084 0.62811 0.93703 0.0
H1433 H 0.24183 0.62307 0.19907 0.0
H1434 H 0.25003 0.62066 0.13404 0.0
C1435 C 0.26517 0.62963 0.89963 0.0
C1436 C 0.25797 0.63707 0.00277 0.0
H1437 H 0.26457 0.63811 0.09776 0.0
C1438 C 0.24385 0.63621 0.00474 0.0
C1439 C 0.26554 0.63736 0.03677 0.0
C1440 C 0.28074 0.63733 0.03682 0.0
C1441 C 0.2371 0.63581 0.03969 0.0
C1442 C 0.24464 0.63679 0.07367 0.0
C1443 C 0.25876 0.63746 0.07171 0.0
C1444 C 0.23819 0.63716 0.11166 0.0
C1445 C 0.222 0.63409 0.03971 0.0
C1446 C 0.22849 0.64698 0.12055 0.0
C1447 C 0.22352 0.64814 0.15759 0.0
C1448 C 0.22848 0.63975 0.18645 0.0
C1449 C 0.23786 0.62967 0.17728 0.0
C1450 C 0.24259 0.62833 0.1402 0.0
H1451 H 0.21846 0.62906 0.01333 0.0
H1452 H 0.21858 0.62808 0.06449 0.0
H1453 H 0.21716 0.64414 0.04101 0.0
H1454 H 0.22518 0.65414 0.0993 0.0
H1455 H 0.21646 0.65613 0.16411 0.0
H1456 H 0.4009 0.96137 0.90304 0.0
H1457 H 0.39904 0.96829 0.83627 0.0
H1458 H 0.37621 0.00324 0.86989 0.0
H1459 H 0.3778 0.99638 0.93609 0.0
H1460 H 0.3663 0.99093 0.80444 0.0
H1461 H 0.42143 0.00034 0.79676 0.0
H1462 H 0.41671 0.98356 0.81048 0.0
H1463 H 0.41278 0.99749 0.84111 0.0
C1464 C 0.39529 0.9704 0.89609 0.0
C1465 C 0.38966 0.97842 0.92487 0.0
C1466 C 0.39433 0.97438 0.85804 0.0
C1467 C 0.38773 0.98642 0.84838 0.0
C1468 C 0.38143 0.99398 0.87682 0.0
H1469 H 0.39993 0.03418 0.64409 0.0
H1470 H 0.39724 0.02699 0.71036 0.0
C1471 C 0.38239 0.99004 0.91468 0.0
C1472 C 0.38791 0.99165 0.80909 0.0
H1473 H 0.4089 0.00384 0.74058 0.0
C1474 C 0.3756 0.99372 0.79037 0.0
C1475 C 0.40005 0.99558 0.79131 0.0
C1476 C 0.4135 0.99426 0.81097 0.0
C1477 C 0.37513 -0.00054 0.75398 0.0
C1478 C 0.3873 0.00301 0.73577 0.0
C1479 C 0.39959 0.0011 0.75469 0.0
C1480 C 0.38762 0.00808 0.69631 0.0
C1481 C 0.3616 0.00183 0.7356 0.0
C1482 C 0.38299 -0.00012 0.66671 0.0
C1483 C 0.38448 0.00394 0.62909 0.0
C1484 C 0.39075 0.01625 0.62024 0.0
C1485 C 0.39502 0.02467 0.64999 0.0
C1486 C 0.39353 0.02056 0.68779 0.0
H1487 H 0.35342 0.00236 0.75705 0.0
H1488 H 0.36159 0.01129 0.71879 0.0
H1489 H 0.35931 0.99335 0.71611 0.0
H1490 H 0.37864 0.9901 0.67263 0.0
H1491 H 0.38105 0.9972 0.6069 0.0
H1492 H 0.74673 0.62742 0.37514 0.0
H1493 H 0.75252 0.62577 0.44213 0.0
H1494 H 0.71715 0.64873 0.47136 0.0
H1495 H 0.7113 0.65059 0.40378 0.0
H1496 H 0.7412 0.65897 0.50139 0.0
H1497 H 0.73676 0.60434 0.53062 0.0
H1498 H 0.74656 0.608 0.48906 0.0
H1499 H 0.72896 0.61226 0.48997 0.0
C1500 C 0.74002 0.63194 0.39577 0.0
C1501 C 0.72858 0.63921 0.38415 0.0
C1502 C 0.74331 0.63089 0.43411 0.0
C1503 C 0.7352 0.63701 0.46166 0.0
C1504 C 0.72349 0.64387 0.45041 0.0
H1505 H 0.7478 0.63228 0.70398 0.0
H1506 H 0.73943 0.63027 0.63922 0.0
C1507 C 0.72013 0.64488 0.41188 0.0
C1508 C 0.7398 0.63734 0.50158 0.0
H1509 H 0.74969 0.61725 0.5751 0.0
C1510 C 0.74293 0.64987 0.51771 0.0
C1511 C 0.74201 0.62544 0.5227 0.0
C1512 C 0.73828 0.61175 0.50736 0.0
C1513 C 0.74853 0.65081 0.55417 0.0
C1514 C 0.75126 0.63887 0.57467 0.0
C1515 C 0.74781 0.62636 0.55896 0.0
C1516 C 0.75702 0.63924 0.61339 0.0
C1517 C 0.75135 0.66456 0.57061 0.0
C1518 C 0.76988 0.6446 0.62016 0.0
C1519 C 0.77475 0.64579 0.65734 0.0
C1520 C 0.76679 0.64163 0.68818 0.0
C1521 C 0.75416 0.63571 0.68095 0.0
C1522 C 0.74934 0.63452 0.64393 0.0
H1523 H 0.74591 0.67262 0.55499 0.0
H1524 H 0.74841 0.665 0.60101 0.0
H1525 H 0.7623 0.66667 0.56868 0.0
H1526 H 0.77605 0.64807 0.59677 0.0
H1527 H 0.78453 0.65034 0.66196 0.0
H1528 H 0.1156 0.99406 0.45896 0.0
H1529 H 0.11723 0.98585 0.39393 0.0
H1530 H 0.10748 0.02539 0.35169 0.0
H1531 H 0.10568 0.03381 0.41702 0.0
H1532 H 0.09352 0.98903 0.34058 0.0
H1533 H 0.14189 0.01085 0.28983 0.0
H1534 H 0.13853 0.00776 0.33954 0.0
H1535 H 0.13074 0.02175 0.31598 0.0
C1536 C 0.11397 0.00112 0.43596 0.0
C1537 C 0.11041 0.0146 0.44324 0.0
C1538 C 0.11491 0.99637 0.39883 0.0
C1539 C 0.11251 0.00503 0.36827 0.0
C1540 C 0.10948 0.01861 0.37513 0.0
H1541 H 0.10437 0.00185 0.12948 0.0
H1542 H 0.10808 0.00688 0.19607 0.0
C1543 C 0.10843 0.02339 0.41241 0.0
C1544 C 0.11202 -0.00045 0.32939 0.0
H1545 H 0.12816 5e-05 0.24408 0.0
C1546 C 0.10112 0.99131 0.31943 0.0
C1547 C 0.12201 0.00258 0.30228 0.0
C1548 C 0.13403 0.01115 0.31226 0.0
C1549 C 0.09961 0.98645 0.28228 0.0
C1550 C 0.1095 0.98964 0.25482 0.0
C1551 C 0.12063 0.99757 0.26525 0.0
C1552 C 0.10779 0.98608 0.21429 0.0
C1553 C 0.08713 0.9785 0.27241 0.0
C1554 C 0.10653 0.97265 0.20226 0.0
C1555 C 0.10423 0.96969 0.16388 0.0
C1556 C 0.10335 0.98013 0.13703 0.0
C1557 C 0.10498 0.99353 0.14927 0.0
C1558 C 0.10715 0.99645 0.18741 0.0
H1559 H 0.07921 0.97948 0.29453 0.0
H1560 H 0.08287 0.98185 0.24481 0.0
H1561 H 0.08978 0.96768 0.26991 0.0
H1562 H 0.10727 0.96448 0.22251 0.0
H1563 H 0.10313 0.95928 0.15528 0.0
H1564 H 0.71243 0.34837 0.16221 0.0
H1565 H 0.71964 0.35117 0.09596 0.0
H1566 H 0.75679 0.36917 0.13407 0.0
H1567 H 0.74968 0.36666 0.19976 0.0
H1568 H 0.74557 0.38224 0.07163 0.0
H1569 H 0.74911 0.32686 0.0503 0.0
H1570 H 0.73293 0.33293 0.0654 0.0
H1571 H 0.74717 0.33436 0.09666 0.0
C1572 C 0.72204 0.35309 0.1564 0.0
C1573 C 0.73055 0.35713 0.18625 0.0
C1574 C 0.72618 0.3546 0.11862 0.0
C1575 C 0.73885 0.36015 0.11029 0.0
C1576 C 0.74701 0.3648 0.13994 0.0
H1577 H 0.78578 0.34901 0.90461 0.0
H1578 H 0.77873 0.35088 0.97118 0.0
C1579 C 0.74292 0.36329 0.17751 0.0
C1580 C 0.74404 0.36061 0.07099 0.0
H1581 H 0.75419 0.34063 -0.00242 0.0
C1582 C 0.74742 0.37316 0.05533 0.0
C1583 C 0.74671 0.34871 0.05027 0.0
C1584 C 0.74392 0.33493 0.06651 0.0
C1585 C 0.75328 0.37414 0.01919 0.0
C1586 C 0.75564 0.36225 -0.00188 0.0
C1587 C 0.75238 0.34971 0.01392 0.0
C1588 C 0.76087 0.36258 0.95884 0.0
C1589 C 0.75708 0.38784 0.00412 0.0
C1590 C 0.75327 0.36873 0.93016 0.0
C1591 C 0.75726 0.3677 0.89235 0.0
C1592 C 0.76889 0.36041 0.88242 0.0
C1593 C 0.77682 0.35473 0.91137 0.0
C1594 C 0.77277 0.35574 0.94933 0.0
H1595 H 0.75822 0.39531 0.0274 0.0
H1596 H 0.76663 0.38739 -0.01221 0.0
H1597 H 0.74902 0.39147 0.98482 0.0
H1598 H 0.74394 0.37386 0.93683 0.0
H1599 H 0.75093 0.37222 0.87076 0.0
H1600 H 0.08669 0.53517 0.3876 0.0
H1601 H 0.09259 0.52259 0.33036 0.0
H1602 H 0.13057 0.51132 0.38072 0.0
H1603 H 0.12463 0.52366 0.4385 0.0
H1604 H 0.11428 0.52333 0.27963 0.0
H1605 H 0.112 0.47514 0.36033 0.0
H1606 H 0.10593 0.49081 0.37971 0.0
H1607 H 0.12369 0.48752 0.37755 0.0
C1608 C 0.09637 0.53017 0.38631 0.0
C1609 C 0.1051 0.53018 0.41769 0.0
C1610 C 0.09974 0.52302 0.35361 0.0
C1611 C 0.11189 0.51584 0.35179 0.0
C1612 C 0.12103 0.51658 0.38203 0.0
H1613 H 0.12643 0.47378 0.13595 0.0
H1614 H 0.1317 0.48623 0.19413 0.0
C1615 C 0.11764 0.52366 0.41488 0.0
C1616 C 0.11438 0.50685 0.31926 0.0
H1617 H 0.11527 0.47366 0.29452 0.0
C1618 C 0.11472 0.51247 0.28277 0.0
C1619 C 0.11483 0.4927 0.32377 0.0
C1620 C 0.114 0.48612 0.36237 0.0
C1621 C 0.11489 0.50429 0.25038 0.0
C1622 C 0.11501 0.49013 0.25488 0.0
C1623 C 0.11529 0.48452 0.2914 0.0
C1624 C 0.11304 0.48105 0.22225 0.0
C1625 C 0.1141 0.51083 0.21173 0.0
C1626 C 0.10115 0.47348 0.21986 0.0
C1627 C 0.09817 0.46628 0.18696 0.0
C1628 C 0.10703 0.46661 0.15592 0.0
C1629 C 0.11934 0.4735 0.15932 0.0
C1630 C 0.12235 0.48065 0.19238 0.0
H1631 H 0.11171 0.52174 0.2136 0.0
H1632 H 0.12394 0.50976 0.19713 0.0
H1633 H 0.10632 0.50586 0.19393 0.0
H1634 H 0.09388 0.47364 0.2428 0.0
H1635 H 0.08866 0.46097 0.18527 0.0
H1636 H 0.7247 0.88076 0.68429 0.0
H1637 H 0.7349 0.88931 0.62588 0.0
H1638 H 0.72249 0.8533 0.56685 0.0
H1639 H 0.71202 0.84487 0.62468 0.0
H1640 H 0.75563 0.87734 0.5936 0.0
H1641 H 0.7153 0.88111 0.48689 0.0
H1642 H 0.71178 0.88015 0.53717 0.0
H1643 H 0.71435 0.86503 0.50972 0.0
C1644 C 0.72388 0.87482 0.65858 0.0
C1645 C 0.71771 0.86208 0.65905 0.0
C1646 C 0.72966 0.87975 0.62526 0.0
C1647 C 0.72932 0.87203 0.59194 0.0
C1648 C 0.72257 0.8596 0.59195 0.0
H1649 H 0.78425 0.84565 0.43856 0.0
H1650 H 0.77227 0.85423 0.49384 0.0
C1651 C 0.71671 0.85471 0.62515 0.0
C1652 C 0.73774 0.87574 0.55901 0.0
H1653 H 0.73764 0.87473 0.46237 0.0
C1654 C 0.75165 0.87719 0.56489 0.0
C1655 C 0.73256 0.87589 0.52162 0.0
C1656 C 0.71765 0.87562 0.51358 0.0
C1657 C 0.76063 0.87732 0.53427 0.0
C1658 C 0.75553 0.87567 0.4971 0.0
C1659 C 0.74156 0.87571 0.49101 0.0
C1660 C 0.76434 0.87184 0.46515 0.0
C1661 C 0.7755 0.87856 0.54218 0.0
C1662 C 0.76381 0.87885 0.43064 0.0
C1663 C 0.77053 0.87386 0.39881 0.0
C1664 C 0.77777 0.86172 0.40102 0.0
C1665 C 0.77874 0.85502 0.43601 0.0
C1666 C 0.77201 0.86 0.46773 0.0
H1667 H 0.77735 0.88479 0.56788 0.0
H1668 H 0.77974 0.8684 0.5477 0.0
H1669 H 0.78095 0.8831 0.51779 0.0
H1670 H 0.75784 0.88794 0.42805 0.0
H1671 H 0.76965 0.87926 0.37219 0.0
H1672 H 0.37472 0.51419 0.61521 0.0
H1673 H 0.371 0.50132 0.6733 0.0
H1674 H 0.38976 0.53294 0.73878 0.0
H1675 H 0.39404 0.54559 0.68048 0.0
H1676 H 0.40212 0.50974 0.74811 0.0
H1677 H 0.34734 0.50151 0.76591 0.0
H1678 H 0.35318 0.49686 0.71952 0.0
H1679 H 0.35407 0.51417 0.73439 0.0
C1680 C 0.37771 0.51856 0.64213 0.0
C1681 C 0.38484 0.53077 0.64347 0.0
C1682 C 0.37547 0.51124 0.67535 0.0
C1683 C 0.38005 0.5162 0.71036 0.0
C1684 C 0.38617 0.52893 0.71199 0.0
H1685 H 0.37701 0.48071 0.93255 0.0
H1686 H 0.37165 0.49272 0.87399 0.0
C1687 C 0.38863 0.53613 0.67875 0.0
C1688 C 0.3806 0.50728 0.74386 0.0
H1689 H 0.36195 0.48689 0.80143 0.0
C1690 C 0.3933 0.50485 0.75996 0.0
C1691 C 0.3691 0.50089 0.75914 0.0
C1692 C 0.35514 0.50359 0.74407 0.0
C1693 C 0.39485 0.49623 0.79095 0.0
C1694 C 0.38344 0.48944 0.80542 0.0
C1695 C 0.37069 0.49192 0.78965 0.0
C1696 C 0.3846 0.48049 0.83865 0.0
C1697 C 0.40868 0.49474 0.80845 0.0
C1698 C 0.39316 0.46926 0.83765 0.0
C1699 C 0.39644 0.46252 0.87117 0.0
C1700 C 0.391 0.4668 0.90591 0.0
C1701 C 0.38147 0.47728 0.9062 0.0
C1702 C 0.37834 0.48411 0.87278 0.0
H1703 H 0.4155 0.50308 0.80004 0.0
H1704 H 0.40808 0.49449 0.83994 0.0
H1705 H 0.41326 0.48516 0.79864 0.0
H1706 H 0.39786 0.46617 0.81129 0.0
H1707 H 0.40363 0.45432 0.8701 0.0
H1708 H 0.77014 0.11654 0.19009 0.0
H1709 H 0.75888 0.1083 0.13278 0.0
H1710 H 0.77333 0.14289 0.07083 0.0
H1711 H 0.7848 0.15101 0.12754 0.0
H1712 H 0.73877 0.12159 0.09998 0.0
H1713 H 0.77836 0.11374 -0.00697 0.0
H1714 H 0.78208 0.11481 0.0432 0.0
H1715 H 0.78063 0.12988 0.01485 0.0
C1716 C 0.77117 0.12221 0.16398 0.0
C1717 C 0.77822 0.13449 0.16329 0.0
C1718 C 0.76477 0.11747 0.1313 0.0
C1719 C 0.76541 0.12489 0.09748 0.0
C1720 C 0.773 0.13681 0.09635 0.0
H1721 H 0.71219 0.15396 0.94272 0.0
H1722 H 0.72327 0.14483 -0.00113 0.0
C1723 C 0.77943 0.14153 0.12891 0.0
C1724 C 0.75662 0.12148 0.06504 0.0
H1725 H 0.75654 0.12163 0.9684 0.0
C1726 C 0.74265 0.12118 0.07121 0.0
C1727 C 0.76165 0.12058 0.02762 0.0
C1728 C 0.77652 0.11961 0.0194 0.0
C1729 C 0.7336 0.12148 0.04071 0.0
C1730 C 0.73871 0.1224 0.00336 0.0
C1731 C 0.75262 0.1212 -0.00286 0.0
C1732 C 0.73016 0.12661 0.97114 0.0
C1733 C 0.7187 0.12145 0.0489 0.0
C1734 C 0.73037 0.11942 0.93689 0.0
C1735 C 0.72422 0.12474 0.90456 0.0
C1736 C 0.71781 0.13736 0.90601 0.0
C1737 C 0.71704 0.14422 0.94078 0.0
C1738 C 0.72325 0.13893 0.973 0.0
H1739 H 0.71646 0.11549 0.07485 0.0
H1740 H 0.71529 0.13192 0.05417 0.0
H1741 H 0.71284 0.11724 0.02478 0.0
H1742 H 0.73573 0.10994 0.93483 0.0
H1743 H 0.7249 0.11919 0.87814 0.0
H1744 H 0.89186 0.4522 0.68094 0.0
H1745 H 0.88637 0.46362 0.74044 0.0
H1746 H 0.86863 0.4964 0.6773 0.0
H1747 H 0.8735 0.4847 0.61791 0.0
H1748 H 0.89859 0.4862 0.75491 0.0
H1749 H 0.84383 0.49531 0.76698 0.0
H1750 H 0.85079 0.48311 0.73439 0.0
H1751 H 0.85023 0.50068 0.72184 0.0
C1752 C 0.88639 0.46163 0.67992 0.0
C1753 C 0.88323 0.46767 0.64503 0.0
C1754 C 0.88322 0.46813 0.71384 0.0
C1755 C 0.87707 0.48086 0.71333 0.0
C1756 C 0.87309 0.48646 0.67849 0.0
H1757 H 0.90012 0.54302 0.86874 0.0
H1758 H 0.89391 0.53023 0.812 0.0
C1759 C 0.876 0.47982 0.64453 0.0
C1760 C 0.87722 0.48924 0.74802 0.0
H1761 H 0.85826 0.51001 0.80379 0.0
C1762 C 0.8897 0.49122 0.76586 0.0
C1763 C 0.86564 0.49582 0.76229 0.0
C1764 C 0.85185 0.49351 0.74557 0.0
C1765 C 0.89102 0.49979 0.79705 0.0
C1766 C 0.87961 0.50694 0.81003 0.0
C1767 C 0.86702 0.50471 0.79309 0.0
C1768 C 0.88077 0.51647 0.84194 0.0
C1769 C 0.90463 0.50105 0.81593 0.0
C1770 C 0.87473 0.51344 0.87685 0.0
C1771 C 0.87815 0.52082 0.9092 0.0
C1772 C 0.88772 0.53121 0.90693 0.0
C1773 C 0.89288 0.53491 0.87133 0.0
C1774 C 0.88934 0.52764 0.83897 0.0
H1775 H 0.91131 0.49243 0.80885 0.0
H1776 H 0.90962 0.5104 0.80593 0.0
H1777 H 0.90362 0.50163 0.8473 0.0
H1778 H 0.86805 0.50487 0.87954 0.0
H1779 H 0.87393 0.51782 0.93628 0.0
H1780 H 0.21562 0.15424 0.63026 0.0
H1781 H 0.22755 0.14564 0.57484 0.0
H1782 H 0.24116 0.11139 0.63976 0.0
H1783 H 0.22941 0.12005 0.69569 0.0
H1784 H 0.26171 0.12449 0.60603 0.0
H1785 H 0.22184 0.11526 0.50017 0.0
H1786 H 0.21985 0.13164 0.52073 0.0
H1787 H 0.21828 0.1169 0.55029 0.0
C1788 C 0.22093 0.14475 0.63257 0.0
C1789 C 0.22169 0.13788 0.66734 0.0
C1790 C 0.22764 0.13977 0.60078 0.0
C1791 C 0.23507 0.12777 0.60311 0.0
C1792 C 0.23539 0.1206 0.63738 0.0
H1793 H 0.27495 0.11621 0.38503 0.0
H1794 H 0.26434 0.10863 0.44393 0.0
C1795 C 0.22869 0.12559 0.66925 0.0
C1796 C 0.24384 0.12384 0.57117 0.0
H1797 H 0.24381 0.12178 0.47471 0.0
C1798 C 0.2578 0.12351 0.57738 0.0
C1799 C 0.23874 0.12223 0.534 0.0
C1800 C 0.22384 0.12137 0.526 0.0
C1801 C 0.26682 0.12297 0.54687 0.0
C1802 C 0.26169 0.12303 0.50943 0.0
C1803 C 0.24775 0.12197 0.50346 0.0
C1804 C 0.27027 0.12616 0.47637 0.0
C1805 C 0.28173 0.12292 0.55502 0.0
C1806 C 0.27735 0.13839 0.47541 0.0
C1807 C 0.28343 0.14273 0.44192 0.0
C1808 C 0.28235 0.135 0.4087 0.0
C1809 C 0.27586 0.12243 0.41019 0.0
C1810 C 0.26983 0.11806 0.44378 0.0
H1811 H 0.28392 0.11766 0.5822 0.0
H1812 H 0.28749 0.11797 0.53188 0.0
H1813 H 0.28531 0.13345 0.55794 0.0
H1814 H 0.27752 0.14497 0.49994 0.0
H1815 H 0.28837 0.15246 0.44161 0.0
H1816 H 0.59683 0.53688 0.19228 0.0
H1817 H 0.60405 0.52556 0.25017 0.0
H1818 H 0.63972 0.51121 0.19317 0.0
H1819 H 0.6324 0.52231 0.13467 0.0
H1820 H 0.6258 0.49107 0.22374 0.0
H1821 H 0.63183 0.53065 0.33201 0.0
H1822 H 0.61604 0.53275 0.30806 0.0
H1823 H 0.63154 0.53438 0.28177 0.0
C1824 C 0.60636 0.53158 0.19228 0.0
C1825 C 0.61396 0.53033 0.15888 0.0
C1826 C 0.61056 0.52523 0.22552 0.0
C1827 C 0.62251 0.51769 0.22608 0.0
C1828 C 0.63051 0.51706 0.19334 0.0
H1829 H 0.6279 0.47623 0.44455 0.0
H1830 H 0.63667 0.48777 0.38843 0.0
C1831 C 0.62629 0.52337 0.15998 0.0
C1832 C 0.62538 0.50888 0.25887 0.0
H1833 H 0.6242 0.50866 0.35549 0.0
C1834 C 0.62585 0.49493 0.25258 0.0
C1835 C 0.62575 0.51389 0.29641 0.0
C1836 C 0.62642 0.52876 0.30488 0.0
C1837 C 0.62533 0.48584 0.28293 0.0
C1838 C 0.62404 0.49088 0.32025 0.0
C1839 C 0.62493 0.5048 0.32673 0.0
C1840 C 0.61998 0.48217 0.35221 0.0
C1841 C 0.62561 0.47095 0.27458 0.0
C1842 C 0.60779 0.47505 0.35018 0.0
C1843 C 0.60276 0.46844 0.38208 0.0
C1844 C 0.60977 0.46901 0.41666 0.0
C1845 C 0.62225 0.47569 0.41826 0.0
C1846 C 0.62729 0.48226 0.38627 0.0
H1847 H 0.63157 0.46881 0.24858 0.0
H1848 H 0.62993 0.46515 0.29864 0.0
H1849 H 0.61518 0.46737 0.26942 0.0
H1850 H 0.60181 0.47514 0.32442 0.0
H1851 H 0.59312 0.46339 0.38004 0.0
H1852 H 0.21344 0.84636 0.93759 0.0
H1853 H 0.2252 0.85477 -0.00657 0.0
H1854 H 0.23947 0.88893 0.92929 0.0
H1855 H 0.2279 0.88039 0.87277 0.0
H1856 H 0.25968 0.87605 0.96337 0.0
H1857 H 0.21983 0.88456 0.06915 0.0
H1858 H 0.21768 0.86824 0.04833 0.0
H1859 H 0.21622 0.88307 0.019 0.0
C1860 C 0.21886 0.85579 0.9355 0.0
C1861 C 0.21986 0.86265 0.90076 0.0
C1862 C 0.22546 0.86068 0.96758 0.0
C1863 C 0.23303 0.8726 0.96567 0.0
C1864 C 0.23359 0.87978 0.9314 0.0
H1865 H 0.27313 0.87978 0.18554 0.0
H1866 H 0.26235 0.88877 0.12836 0.0
C1867 C 0.227 0.87487 0.89919 0.0
C1868 C 0.24176 0.87633 -0.002 0.0
H1869 H 0.24164 0.87698 0.09465 0.0
C1870 C 0.25573 0.87667 -0.00796 0.0
C1871 C 0.23664 0.87753 0.03528 0.0
C1872 C 0.22175 0.87849 0.0432 0.0
C1873 C 0.26472 0.87667 0.02273 0.0
C1874 C 0.25955 0.87601 0.06006 0.0
C1875 C 0.24562 0.8772 0.06596 0.0
C1876 C 0.26803 0.87198 0.09264 0.0
C1877 C 0.27964 0.87673 0.01478 0.0
C1878 C 0.27496 0.85967 0.0913 0.0
C1879 C 0.28113 0.85453 0.12377 0.0
C1880 C 0.2803 0.86153 0.15832 0.0
C1881 C 0.27387 0.87414 0.15929 0.0
C1882 C 0.26774 0.8793 0.12669 0.0
H1883 H 0.2819 0.88257 -0.01137 0.0
H1884 H 0.28544 0.88108 0.03882 0.0
H1885 H 0.2831 0.86624 0.00994 0.0
H1886 H 0.275 0.85365 0.06564 0.0
H1887 H 0.28601 0.8448 0.12215 0.0
H1888 H 0.59129 0.96234 0.68975 0.0
H1889 H 0.59773 0.97426 0.74756 0.0
H1890 H 0.63599 0.98459 0.69742 0.0
H1891 H 0.62947 0.97296 0.63891 0.0
H1892 H 0.61898 0.97311 0.79872 0.0
H1893 H 0.61869 0.02121 0.71716 0.0
H1894 H 0.61236 0.0057 0.69745 0.0
H1895 H 0.63019 0.00845 0.7012 0.0
C1896 C 0.60116 0.96697 0.6912 0.0
C1897 C 0.60977 0.96699 0.65963 0.0
C1898 C 0.60484 0.97374 0.72427 0.0
C1899 C 0.6172 0.98053 0.72631 0.0
C1900 C 0.62628 0.97966 0.69596 0.0
H1901 H 0.62783 0.02321 0.94353 0.0
H1902 H 0.63462 0.01052 0.88709 0.0
C1903 C 0.62255 0.97298 0.66269 0.0
C1904 C 0.61984 0.9895 0.75886 0.0
H1905 H 0.62071 0.02273 0.78317 0.0
C1906 C 0.61963 0.98395 0.79547 0.0
C1907 C 0.62059 0.00363 0.7542 0.0
C1908 C 0.62038 0.01017 0.71546 0.0
C1909 C 0.61934 0.99221 0.82771 0.0
C1910 C 0.61957 0.00636 0.82298 0.0
C1911 C 0.62061 0.01187 0.78647 0.0
C1912 C 0.61673 0.01552 0.85491 0.0
C1913 C 0.61782 0.98576 0.86632 0.0
C1914 C 0.6048 0.02307 0.85454 0.0
C1915 C 0.60096 0.03043 0.88644 0.0
C1916 C 0.609 0.03027 0.91925 0.0
C1917 C 0.62136 0.02336 0.91873 0.0
C1918 C 0.62523 0.01607 0.88666 0.0
H1919 H 0.61558 0.97482 0.86431 0.0
H1920 H 0.62733 0.98698 0.88254 0.0
H1921 H 0.60963 0.9907 0.88263 0.0
H1922 H 0.59814 0.0228 0.83014 0.0
H1923 H 0.59143 0.03573 0.88593 0.0
H1924 H 0.2337 0.37091 0.1932 0.0
H1925 H 0.24475 0.37713 0.13399 0.0
H1926 H 0.21247 0.35871 0.07033 0.0
H1927 H 0.20165 0.35192 0.12969 0.0
H1928 H 0.23551 0.34802 0.05291 0.0
H1929 H 0.24175 0.40326 0.048 0.0
H1930 H 0.24774 0.39654 0.09215 0.0
H1931 H 0.23015 0.39514 0.08018 0.0
C1932 C 0.22877 0.3685 0.16658 0.0
C1933 C 0.21695 0.36075 0.16587 0.0
C1934 C 0.23504 0.3722 0.13272 0.0
C1935 C 0.22939 0.36848 0.09772 0.0
C1936 C 0.21698 0.36169 0.09708 0.0
H1937 H 0.26648 0.37686 0.87595 0.0
H1938 H 0.25305 0.3813 0.93274 0.0
C1939 C 0.21085 0.35777 0.13092 0.0
C1940 C 0.23754 0.36936 0.06273 0.0
H1941 H 0.25745 0.39024 0.01 0.0
C1942 C 0.24011 0.35732 0.04323 0.0
C1943 C 0.24354 0.38148 0.05009 0.0
C1944 C 0.24053 0.39485 0.06852 0.0
C1945 C 0.2488 0.35695 0.01213 0.0
C1946 C 0.25545 0.36889 0.00095 0.0
C1947 C 0.25255 0.38106 0.01939 0.0
C1948 C 0.26517 0.36871 0.96942 0.0
C1949 C 0.25079 0.34376 -0.00848 0.0
C1950 C 0.27678 0.36073 0.97197 0.0
C1951 C 0.28436 0.35801 0.93956 0.0
C1952 C 0.28049 0.3634 0.90435 0.0
C1953 C 0.26961 0.37246 0.90269 0.0
C1954 C 0.26196 0.37506 0.93507 0.0
H1955 H 0.24249 0.33656 -0.00256 0.0
H1956 H 0.2514 0.34534 0.96033 0.0
H1957 H 0.26034 0.33907 0.00112 0.0
H1958 H 0.27949 0.35593 -0.00145 0.0
H1959 H 0.29282 0.35117 0.94172 0.0
H1960 H 0.90303 0.95162 0.37775 0.0
H1961 H 0.89722 0.96335 0.3188 0.0
H1962 H 0.87197 0.99076 0.38168 0.0
H1963 H 0.87734 0.97885 0.44041 0.0
H1964 H 0.86182 0.98505 0.30975 0.0
H1965 H 0.91581 -0.00033 0.30583 0.0
H1966 H 0.91305 0.98182 0.30489 0.0
H1967 H 0.90835 0.99139 0.3462 0.0
C1968 C 0.89602 0.95997 0.37883 0.0
C1969 C 0.89086 0.96453 0.41365 0.0
C1970 C 0.89273 0.96665 0.34524 0.0
C1971 C 0.88446 0.9781 0.34622 0.0
C1972 C 0.87844 0.98199 0.38048 0.0
H1973 H 0.89442 0.04301 0.18756 0.0
H1974 H 0.89059 0.03017 0.24577 0.0
C1975 C 0.88157 0.9752 0.41399 0.0
C1976 C 0.8834 0.98698 0.3128 0.0
H1977 H 0.90235 0.00662 0.25436 0.0
C1978 C 0.87065 0.98979 0.29751 0.0
C1979 C 0.89493 0.99339 0.29772 0.0
C1980 C 0.90879 0.99155 0.31468 0.0
C1981 C 0.86915 0.99874 0.26694 0.0
C1982 C 0.88076 0.00477 0.25107 0.0
C1983 C 0.89346 0.002 0.26664 0.0
C1984 C 0.88026 0.01374 0.21767 0.0
C1985 C 0.85519 0.00185 0.25248 0.0
C1986 C 0.87526 0.00899 0.18289 0.0
C1987 C 0.87725 0.01642 0.14973 0.0
C1988 C 0.88455 0.02853 0.15087 0.0
C1989 C 0.88887 0.03364 0.18596 0.0
C1990 C 0.88666 0.02633 0.21916 0.0
H1991 H 0.84745 -3e-05 0.27462 0.0
H1992 H 0.85438 0.01247 0.2429 0.0
H1993 H 0.85292 0.9952 0.22797 0.0
H1994 H 0.87056 0.99918 0.18093 0.0
H1995 H 0.87386 0.01224 0.12296 0.0
H1996 H 0.29249 0.65094 0.63116 0.0
H1997 H 0.2787 0.64621 0.57513 0.0
H1998 H 0.2522 0.62165 0.64306 0.0
H1999 H 0.26615 0.62602 0.69905 0.0
H2000 H 0.25588 0.61185 0.56817 0.0
H2001 H 0.24241 0.66602 0.57216 0.0
H2002 H 0.2602 0.66317 0.56852 0.0
H2003 H 0.2513 0.65781 0.61038 0.0
C2004 C 0.28388 0.64431 0.63396 0.0
C2005 C 0.28022 0.63905 0.66948 0.0
C2006 C 0.27602 0.64164 0.60203 0.0
C2007 C 0.26429 0.63387 0.60536 0.0
C2008 C 0.26119 0.62774 0.64011 0.0
H2009 H 0.2014 0.64884 0.44052 0.0
H2010 H 0.21228 0.64367 0.50114 0.0
C2011 C 0.26915 0.63028 0.67202 0.0
C2012 C 0.25456 0.6334 0.57375 0.0
H2013 H 0.23554 0.65381 0.51761 0.0
C2014 C 0.25132 0.62097 0.55716 0.0
C2015 C 0.24835 0.64529 0.56038 0.0
C2016 C 0.25061 0.65881 0.57902 0.0
C2017 C 0.24242 0.62022 0.52622 0.0
C2018 C 0.23691 0.63225 0.51129 0.0
C2019 C 0.23979 0.64458 0.52895 0.0
C2020 C 0.22884 0.63263 0.47599 0.0
C2021 C 0.23899 0.60658 0.51003 0.0
C2022 C 0.2343 0.62775 0.44191 0.0
C2023 C 0.22798 0.63051 0.40738 0.0
C2024 C 0.2163 0.63848 0.40639 0.0
C2025 C 0.21047 0.64278 0.44058 0.0
C2026 C 0.21665 0.6398 0.47515 0.0
H2027 H 0.23984 0.5986 0.53202 0.0
H2028 H 0.22865 0.6064 0.49807 0.0
H2029 H 0.24622 0.60412 0.48703 0.0
H2030 H 0.24386 0.62253 0.4417 0.0
H2031 H 0.23271 0.62712 0.38136 0.0
H2032 H 0.36755 0.97474 0.11859 0.0
H2033 H 0.35988 0.98699 0.17499 0.0
H2034 H 0.39583 0.97485 0.23478 0.0
H2035 H 0.40336 0.96234 0.17918 0.0
H2036 H 0.3731 0.97478 0.28019 0.0
H2037 H 0.37817 0.02278 0.19926 0.0
H2038 H 0.36658 0.01047 0.1811 0.0
H2039 H 0.38432 0.007 0.1809 0.0
C2040 C 0.37369 0.97451 0.14402 0.0
C2041 C 0.38617 0.9678 0.14435 0.0
C2042 C 0.36932 0.98154 0.17608 0.0
C2043 C 0.37744 0.98204 0.20863 0.0
C2044 C 0.38945 0.97461 0.2098 0.0
H2045 H 0.40579 0.03401 0.36912 0.0
H2046 H 0.39773 0.02238 0.31249 0.0
C2047 C 0.39377 0.96751 0.17797 0.0
C2048 C 0.37432 0.99118 0.24047 0.0
H2049 H 0.37569 0.02437 0.26502 0.0
C2050 C 0.37334 0.98564 0.27698 0.0
C2051 C 0.37469 0.00533 0.23586 0.0
C2052 C 0.37607 0.01182 0.19727 0.0
C2053 C 0.37381 0.99383 0.30934 0.0
C2054 C 0.37492 0.00795 0.30477 0.0
C2055 C 0.37481 0.01354 0.26821 0.0
C2056 C 0.37853 0.01674 0.33697 0.0
C2057 C 0.37425 0.98722 0.34796 0.0
C2058 C 0.37018 0.01787 0.36887 0.0
C2059 C 0.37486 0.02435 0.4015 0.0
C2060 C 0.38787 0.02994 0.40237 0.0
C2061 C 0.39577 0.0297 0.36936 0.0
C2062 C 0.39115 0.0231 0.33696 0.0
H2063 H 0.37543 0.97612 0.34601 0.0
H2064 H 0.3827 0.99131 0.36512 0.0
H2065 H 0.36473 0.98935 0.36331 0.0
H2066 H 0.36029 0.01328 0.36904 0.0
H2067 H 0.36847 0.02457 0.42642 0.0
H2068 H 0.73577 0.62273 0.1959 0.0
H2069 H 0.75046 0.61813 0.14167 0.0
H2070 H 0.72579 0.64368 0.07109 0.0
H2071 H 0.71121 0.64858 0.12528 0.0
H2072 H 0.74714 0.60871 0.06486 0.0
H2073 H 0.7632 0.66206 0.07461 0.0
H2074 H 0.75361 0.65386 0.11147 0.0
H2075 H 0.74531 0.66015 0.06961 0.0
C2076 C 0.73333 0.62717 0.16864 0.0
C2077 C 0.72253 0.63625 0.16488 0.0
C2078 C 0.74171 0.62449 0.13775 0.0
C2079 C 0.73932 0.6308 0.10281 0.0
C2080 C 0.72789 0.63893 0.09817 0.0
H2081 H 0.76825 0.62585 0.87937 0.0
H2082 H 0.75856 0.62019 0.94082 0.0
C2083 C 0.71958 0.64171 0.12907 0.0
C2084 C 0.74946 0.63011 0.07239 0.0
H2085 H 0.76951 0.65025 0.01861 0.0
C2086 C 0.75218 0.61773 0.05487 0.0
C2087 C 0.75633 0.64182 0.06048 0.0
C2088 C 0.7546 0.6552 0.08027 0.0
C2089 C 0.76107 0.61693 0.02395 0.0
C2090 C 0.76708 0.62887 0.01003 0.0
C2091 C 0.76488 0.64108 0.0291 0.0
C2092 C 0.77453 0.62944 0.97372 0.0
C2093 C 0.76383 0.60335 0.00646 0.0
C2094 C 0.78681 0.63641 0.97165 0.0
C2095 C 0.79214 0.64004 0.93648 0.0
C2096 C 0.78537 0.63657 0.9029 0.0
C2097 C 0.77369 0.62863 0.90489 0.0
C2098 C 0.76821 0.62525 0.94006 0.0
H2099 H 0.76311 0.59523 0.02808 0.0
H2100 H 0.75615 0.60126 0.98432 0.0
H2101 H 0.77396 0.60295 -0.00683 0.0
H2102 H 0.79184 0.63976 -0.0027 0.0
H2103 H 0.80125 0.64605 0.9356 0.0
H2104 H 0.12207 0.98485 0.95241 0.0
H2105 H 0.12767 0.99906 0.89795 0.0
H2106 H 0.10314 0.97399 0.82562 0.0
H2107 H 0.09723 0.95989 0.88007 0.0
H2108 H 0.13835 0.99527 0.82335 0.0
H2109 H 0.08487 0.01134 0.82384 0.0
H2110 H 0.09231 0.00192 0.86232 0.0
H2111 H 0.08691 0.99344 0.81978 0.0
C2112 C 0.11806 0.98221 0.92477 0.0
C2113 C 0.10898 0.97145 0.92052 0.0
C2114 C 0.12131 0.99032 0.89374 0.0
C2115 C 0.11557 0.98769 0.85816 0.0
C2116 C 0.10744 0.97628 0.85317 0.0
H2117 H 0.12482 0.01685 0.63528 0.0
H2118 H 0.1293 0.00689 0.6972 0.0
C2119 C 0.10409 0.96824 0.88421 0.0
C2120 C 0.11684 0.99762 0.82731 0.0
H2121 H 0.09786 0.01766 0.77011 0.0
C2122 C 0.12956 0.0003 0.8118 0.0
C2123 C 0.10539 0.00446 0.81335 0.0
C2124 C 0.09162 0.00278 0.83092 0.0
C2125 C 0.13101 0.00917 0.78102 0.0
C2126 C 0.11938 0.01522 0.76521 0.0
C2127 C 0.10679 0.013 0.78212 0.0
C2128 C 0.1196 0.02282 0.72913 0.0
C2129 C 0.14492 0.01191 0.76576 0.0
C2130 C 0.11281 0.03519 0.72642 0.0
C2131 C 0.10987 0.04069 0.69093 0.0
C2132 C 0.11386 0.03399 0.65772 0.0
C2133 C 0.12165 0.02223 0.66051 0.0
C2134 C 0.12435 0.0166 0.69596 0.0
H2135 H 0.15262 0.01102 0.78855 0.0
H2136 H 0.14736 0.00432 0.74366 0.0
H2137 H 0.14564 0.02209 0.75293 0.0
H2138 H 0.10904 0.04015 0.75169 0.0
H2139 H 0.10397 0.04985 0.68945 0.0
H2140 H 0.77343 0.38138 0.68712 0.0
H2141 H 0.76141 0.3887 0.62994 0.0
H2142 H 0.77311 0.35204 0.57311 0.0
H2143 H 0.78539 0.34483 0.62949 0.0
H2144 H 0.77353 0.37428 0.52589 0.0
H2145 H 0.72539 0.37077 0.6067 0.0
H2146 H 0.73783 0.38237 0.62411 0.0
H2147 H 0.74107 0.36459 0.62572 0.0
C2148 C 0.77362 0.375 0.66217 0.0
C2149 C 0.78012 0.36242 0.66291 0.0
C2150 C 0.76672 0.37918 0.62966 0.0
C2151 C 0.76614 0.37077 0.59773 0.0
C2152 C 0.77339 0.35864 0.5976 0.0
H2153 H 0.71337 0.34257 0.43795 0.0
H2154 H 0.72537 0.35049 0.49418 0.0
C2155 C 0.78037 0.35451 0.62988 0.0
C2156 C 0.75709 0.37373 0.56555 0.0
H2157 H 0.72389 0.37287 0.5408 0.0
C2158 C 0.76267 0.37429 0.52902 0.0
C2159 C 0.74293 0.37368 0.57005 0.0
C2160 C 0.73638 0.37274 0.60866 0.0
C2161 C 0.75448 0.37375 0.49663 0.0
C2162 C 0.74034 0.37299 0.50115 0.0
C2163 C 0.73473 0.37349 0.53765 0.0
C2164 C 0.73146 0.36944 0.46905 0.0
C2165 C 0.76109 0.3729 0.45808 0.0
C2166 C 0.7305 0.37771 0.43692 0.0
C2167 C 0.72379 0.37312 0.40456 0.0
C2168 C 0.71783 0.36027 0.40416 0.0
C2169 C 0.71796 0.35246 0.43736 0.0
C2170 C 0.72477 0.357 0.46951 0.0
H2171 H 0.77216 0.37145 0.46018 0.0
H2172 H 0.7568 0.36444 0.44135 0.0
H2173 H 0.75921 0.38236 0.44222 0.0
H2174 H 0.73535 0.38748 0.43639 0.0
H2175 H 0.72367 0.37943 0.37947 0.0
H2176 H 0.08349 0.40919 0.09966 0.0
H2177 H 0.09309 0.39143 0.13936 0.0
H2178 H 0.12882 0.39114 0.06988 0.0
H2179 H 0.11949 0.40924 0.03081 0.0
H2180 H 0.10507 0.36578 0.13514 0.0
H2181 H 0.14203 0.40553 0.17222 0.0
H2182 H 0.12717 0.40892 0.1444 0.0
H2183 H 0.1418 0.40158 0.1225 0.0
C2184 C 0.09319 0.40503 0.09195 0.0
C2185 C 0.10086 0.41081 0.06255 0.0
C2186 C 0.09868 0.39488 0.11481 0.0
C2187 C 0.11183 0.39028 0.10828 0.0
C2188 C 0.11878 0.39481 0.07598 0.0
H2189 H 0.16129 0.33146 0.21806 0.0
H2190 H 0.14286 0.34181 0.18312 0.0
C2191 C 0.11339 0.40509 0.05348 0.0
C2192 C 0.11898 0.38238 0.13792 0.0
H2193 H 0.14624 0.3838 0.19668 0.0
C2194 C 0.11405 0.3697 0.14878 0.0
C2195 C 0.13042 0.38771 0.15663 0.0
C2196 C 0.1356 0.40174 0.1487 0.0
C2197 C 0.1206 0.36199 0.17687 0.0
C2198 C 0.13251 0.36702 0.19395 0.0
C2199 C 0.13713 0.37988 0.18374 0.0
C2200 C 0.14099 0.35901 0.22055 0.0
C2201 C 0.11459 0.34863 0.18816 0.0
C2202 C 0.14588 0.36493 0.25415 0.0
C2203 C 0.1567 0.35917 0.27377 0.0
C2204 C 0.16272 0.34729 0.26039 0.0
C2205 C 0.15684 0.34059 0.22929 0.0
C2206 C 0.1462 0.34649 0.20924 0.0
H2207 H 0.1035 0.3486 0.18394 0.0
H2208 H 0.11889 0.3406 0.16992 0.0
H2209 H 0.11679 0.34617 0.2183 0.0
H2210 H 0.142 0.37455 0.26363 0.0
H2211 H 0.16097 0.36455 0.29769 0.0
H2212 H 0.88322 0.90944 0.55146 0.0
H2213 H 0.87254 0.89062 0.5184 0.0
H2214 H 0.90518 0.88992 0.43762 0.0
H2215 H 0.91617 0.90823 0.47155 0.0
H2216 H 0.86342 0.8949 0.45086 0.0
H2217 H 0.89698 0.85073 0.44107 0.0
H2218 H 0.89983 0.86414 0.47476 0.0
H2219 H 0.9055 0.86575 0.42635 0.0
C2220 C 0.88842 0.90485 0.52771 0.0
C2221 C 0.90048 0.9104 0.51395 0.0
C2222 C 0.88227 0.89413 0.50867 0.0
C2223 C 0.88797 0.88885 0.47527 0.0
C2224 C 0.90064 0.89358 0.46361 0.0
H2225 H 0.83715 0.86735 0.28639 0.0
H2226 H 0.85543 0.87643 0.32531 0.0
C2227 C 0.90692 0.90414 0.48307 0.0
C2228 C 0.87964 0.88048 0.4492 0.0
H2229 H 0.8797 0.85245 0.39266 0.0
C2230 C 0.86696 0.88552 0.43864 0.0
C2231 C 0.88417 0.86823 0.43305 0.0
C2232 C 0.89731 0.86184 0.44472 0.0
C2233 C 0.85884 0.87887 0.41208 0.0
C2234 C 0.86367 0.86703 0.39437 0.0
C2235 C 0.87616 0.86171 0.40557 0.0
C2236 C 0.85545 0.85991 0.36537 0.0
C2237 C 0.84504 0.88455 0.40364 0.0
C2238 C 0.85024 0.84707 0.37311 0.0
C2239 C 0.83996 0.84173 0.35045 0.0
C2240 C 0.83466 0.84921 0.31994 0.0
C2241 C 0.84092 0.8614 0.3099 0.0
C2242 C 0.8513 0.86664 0.33228 0.0
H2243 H 0.84155 0.89143 0.4265 0.0
H2244 H 0.84544 0.8904 0.37682 0.0
H2245 H 0.8375 0.87639 0.4002 0.0
H2246 H 0.85338 0.84165 0.39831 0.0
H2247 H 0.83539 0.83229 0.35891 0.0
H2248 H 0.41497 0.588 0.58941 0.0
H2249 H 0.40598 0.6061 0.62894 0.0
H2250 H 0.37015 0.60734 0.55986 0.0
H2251 H 0.37887 0.58895 0.52082 0.0
H2252 H 0.39412 0.6323 0.62451 0.0
H2253 H 0.35744 0.5924 0.66294 0.0
H2254 H 0.37223 0.58903 0.63487 0.0
H2255 H 0.35757 0.59643 0.61324 0.0
C2256 C 0.40539 0.59245 0.58168 0.0
C2257 C 0.39749 0.58683 0.55249 0.0
C2258 C 0.40026 0.6028 0.60443 0.0
C2259 C 0.38724 0.60776 0.59801 0.0
C2260 C 0.38011 0.60342 0.56578 0.0
H2261 H 0.33838 0.66573 0.7144 0.0
H2262 H 0.35639 0.65585 0.6767 0.0
C2263 C 0.38514 0.59296 0.54334 0.0
C2264 C 0.38031 0.61564 0.62802 0.0
H2265 H 0.35368 0.61394 0.68886 0.0
C2266 C 0.38529 0.62832 0.63872 0.0
C2267 C 0.36906 0.61023 0.64739 0.0
C2268 C 0.36382 0.59623 0.63938 0.0
C2269 C 0.379 0.63593 0.66747 0.0
C2270 C 0.36733 0.63077 0.68546 0.0
C2271 C 0.36262 0.61794 0.67524 0.0
C2272 C 0.35921 0.63857 0.71336 0.0
C2273 C 0.38502 0.6493 0.67854 0.0
C2274 C 0.35503 0.63245 0.7474 0.0
C2275 C 0.34448 0.63795 0.76862 0.0
C2276 C 0.33802 0.64976 0.75642 0.0
C2277 C 0.3432 0.65666 0.72472 0.0
C2278 C 0.35359 0.65102 0.70311 0.0
H2279 H 0.39601 0.64955 0.6728 0.0
H2280 H 0.38026 0.65738 0.66135 0.0
H2281 H 0.38332 0.65155 0.70906 0.0
H2282 H 0.35925 0.62286 0.75605 0.0
H2283 H 0.34075 0.63242 0.79296 0.0
H2284 H 0.65713 0.16806 0.83492 0.0
H2285 H 0.63758 0.16022 0.87111 0.0
H2286 H 0.64598 0.1194 0.8366 0.0
H2287 H 0.66501 0.12718 0.79919 0.0
H2288 H 0.61975 0.12295 0.8437 0.0
H2289 H 0.6453 0.14343 0.97213 0.0
H2290 H 0.64046 0.15564 0.93713 0.0
H2291 H 0.65323 0.1434 0.92615 0.0
C2292 C 0.65454 0.15747 0.83408 0.0
C2293 C 0.66278 0.14821 0.81469 0.0
C2294 C 0.64345 0.15298 0.85519 0.0
C2295 C 0.6406 0.13915 0.85781 0.0
C2296 C 0.64804 0.13011 0.83546 0.0
H2297 H 0.6224 0.0845 0.02648 0.0
H2298 H 0.63015 0.10347 -0.01118 0.0
C2299 C 0.65895 0.13459 0.81396 0.0
C2300 C 0.63094 0.13372 0.88628 0.0
H2301 H 0.6266 0.12969 0.98194 0.0
C2302 C 0.62108 0.12458 0.87395 0.0
C2303 C 0.63274 0.13581 0.92582 0.0
C2304 C 0.64355 0.14501 0.94127 0.0
C2305 C 0.61365 0.11679 0.89983 0.0
C2306 C 0.61577 0.11856 0.93937 0.0
C2307 C 0.62494 0.12839 0.9517 0.0
C2308 C 0.61037 0.10888 0.96783 0.0
C2309 C 0.60441 0.10602 0.88439 0.0
C2310 C 0.59654 0.10605 0.97062 0.0
C2311 C 0.59206 0.095 -0.00809 0.0
C2312 C 0.60134 0.08676 0.01126 0.0
C2313 C 0.61498 0.09055 0.01173 0.0
C2314 C 0.61944 0.10143 -0.0099 0.0
H2315 H 0.60594 0.1043 0.8535 0.0
H2316 H 0.60602 0.09633 0.89944 0.0
H2317 H 0.59379 0.10913 0.88866 0.0
H2318 H 0.58928 0.11194 0.95475 0.0
H2319 H 0.58146 0.09243 -0.00876 0.0
H2320 H 0.15543 0.66584 0.32906 0.0
H2321 H 0.13606 0.65815 0.36629 0.0
H2322 H 0.14473 0.61712 0.33453 0.0
H2323 H 0.16362 0.62473 0.2962 0.0
H2324 H 0.11834 0.62069 0.34212 0.0
H2325 H 0.14457 0.64212 0.46821 0.0
H2326 H 0.13958 0.65404 0.43257 0.0
H2327 H 0.15227 0.64168 0.42192 0.0
C2328 C 0.15293 0.65523 0.329 0.0
C2329 C 0.16122 0.64587 0.31019 0.0
C2330 C 0.14195 0.65083 0.35072 0.0
C2331 C 0.13925 0.63701 0.35442 0.0
C2332 C 0.14669 0.62783 0.33255 0.0
H2333 H 0.12146 0.58341 0.52652 0.0
H2334 H 0.12927 0.60207 0.48767 0.0
C2335 C 0.15752 0.63221 0.31052 0.0
C2336 C 0.12975 0.63176 0.38359 0.0
H2337 H 0.12592 0.62845 0.47965 0.0
C2338 C 0.11982 0.62255 0.3722 0.0
C2339 C 0.13177 0.63414 0.42291 0.0
C2340 C 0.14268 0.64344 0.43732 0.0
C2341 C 0.11249 0.615 0.39887 0.0
C2342 C 0.11481 0.61707 0.4382 0.0
C2343 C 0.1241 0.62694 0.44956 0.0
C2344 C 0.10945 0.60767 0.46744 0.0
C2345 C 0.1031 0.60417 0.3845 0.0
C2346 C 0.09559 0.6051 0.47106 0.0
C2347 C 0.09107 0.59424 0.4931 0.0
C2348 C 0.10034 0.58595 0.51229 0.0
C2349 C 0.11404 0.58951 0.51191 0.0
C2350 C 0.11854 0.60021 0.48959 0.0
H2351 H 0.10444 0.60221 0.35365 0.0
H2352 H 0.10475 0.59459 0.40006 0.0
H2353 H 0.09252 0.60737 0.38907 0.0
H2354 H 0.08834 0.611 0.45525 0.0
H2355 H 0.08044 0.59184 0.49305 0.0
H2356 H 0.58327 0.90683 0.57835 0.0
H2357 H 0.59104 0.8872 0.61438 0.0
H2358 H 0.63202 0.8961 0.58248 0.0
H2359 H 0.62432 0.91523 0.54528 0.0
H2360 H 0.62858 0.86975 0.58892 0.0
H2361 H 0.60715 0.89501 0.7165 0.0
H2362 H 0.59524 0.89014 0.6807 0.0
H2363 H 0.60746 0.90301 0.67061 0.0
C2364 C 0.59389 0.90432 0.57799 0.0
C2365 C 0.60321 0.91275 0.55951 0.0
C2366 C 0.59833 0.89319 0.59903 0.0
C2367 C 0.61217 0.89047 0.60239 0.0
C2368 C 0.6213 0.89807 0.58077 0.0
H2369 H 0.66657 0.87281 0.77188 0.0
H2370 H 0.64744 0.88037 0.7344 0.0
C2371 C 0.61687 0.90904 0.55939 0.0
C2372 C 0.6175 0.88082 0.63105 0.0
H2373 H 0.62115 0.87654 0.72688 0.0
C2374 C 0.62679 0.87105 0.61909 0.0
C2375 C 0.6152 0.8826 0.67049 0.0
C2376 C 0.60581 0.8933 0.68553 0.0
C2377 C 0.63454 0.8637 0.6453 0.0
C2378 C 0.63257 0.86582 0.68476 0.0
C2379 C 0.6226 0.87489 0.69669 0.0
C2380 C 0.6422 0.86053 0.71356 0.0
C2381 C 0.64547 0.85457 0.63031 0.0
C2382 C 0.64512 0.84672 0.7165 0.0
C2383 C 0.65625 0.84236 0.7377 0.0
C2384 C 0.66447 0.85173 0.75678 0.0
C2385 C 0.66054 0.86533 0.75733 0.0
C2386 C 0.64957 0.86968 0.73578 0.0
H2387 H 0.64728 0.85608 0.59945 0.0
H2388 H 0.65509 0.85632 0.64563 0.0
H2389 H 0.64247 0.84392 0.63463 0.0
H2390 H 0.6393 0.83941 0.70068 0.0
H2391 H 0.65893 0.8318 0.73701 0.0
H2392 H 0.34192 0.33285 0.82627 0.0
H2393 H 0.36186 0.33989 0.86218 0.0
H2394 H 0.35414 0.38122 0.83145 0.0
H2395 H 0.3347 0.37424 0.79435 0.0
H2396 H 0.38038 0.37697 0.83755 0.0
H2397 H 0.35469 0.35581 0.96479 0.0
H2398 H 0.35916 0.3439 0.92861 0.0
H2399 H 0.34663 0.35652 0.919 0.0
C2400 C 0.34475 0.34338 0.82614 0.0
C2401 C 0.33657 0.35302 0.80803 0.0
C2402 C 0.35606 0.34741 0.8471 0.0
C2403 C 0.3592 0.36114 0.85078 0.0
C2404 C 0.35184 0.37058 0.82949 0.0
H2405 H 0.37821 0.41457 0.02063 0.0
H2406 H 0.37028 0.39558 0.98326 0.0
C2407 C 0.3407 0.36656 0.80815 0.0
C2408 C 0.36905 0.36607 0.87948 0.0
H2409 H 0.37354 0.36926 0.97537 0.0
C2410 C 0.37907 0.37511 0.86769 0.0
C2411 C 0.36726 0.36367 0.91888 0.0
C2412 C 0.35631 0.35454 0.93376 0.0
C2413 C 0.38665 0.38256 0.89404 0.0
C2414 C 0.38452 0.38053 0.93346 0.0
C2415 C 0.3752 0.37075 0.94521 0.0
C2416 C 0.39002 0.38997 0.96241 0.0
C2417 C 0.39606 0.39329 0.87924 0.0
C2418 C 0.40388 0.39262 0.96538 0.0
C2419 C 0.40845 0.40367 -0.01349 0.0
C2420 C 0.39924 0.41208 0.00547 0.0
C2421 C 0.38558 0.40839 0.00612 0.0
C2422 C 0.38101 0.3975 0.98464 0.0
H2423 H 0.39462 0.3952 0.8484 0.0
H2424 H 0.39454 0.40292 0.89468 0.0
H2425 H 0.40663 0.39003 0.88359 0.0
H2426 H 0.41107 0.38666 0.94957 0.0
H2427 H 0.41907 0.40616 -0.01425 0.0
H2428 H 0.83216 0.12517 0.27349 0.0
H2429 H 0.85148 0.1179 0.23663 0.0
H2430 H 0.85759 0.15858 0.19725 0.0
H2431 H 0.83782 0.16587 0.23323 0.0
H2432 H 0.85589 0.14271 0.1394 0.0
H2433 H 0.89126 0.11864 0.23816 0.0
H2434 H 0.87488 0.11176 0.24649 0.0
H2435 H 0.87789 0.12946 0.25475 0.0
C2436 C 0.83786 0.1327 0.25809 0.0
C2437 C 0.83335 0.14609 0.25607 0.0
C2438 C 0.84903 0.12852 0.23709 0.0
C2439 C 0.85612 0.13768 0.2142 0.0
C2440 C 0.8523 0.1513 0.21466 0.0
H2441 H 0.91303 0.09037 0.07945 0.0
H2442 H 0.90581 0.11019 0.1154 0.0
C2443 C 0.84103 0.15548 0.23546 0.0
C2444 C 0.86592 0.13255 0.18565 0.0
H2445 H 0.89023 0.10865 0.17411 0.0
C2446 C 0.86366 0.13554 0.14712 0.0
C2447 C 0.87634 0.12345 0.19534 0.0
C2448 C 0.88031 0.12079 0.23602 0.0
C2449 C 0.87062 0.12876 0.11816 0.0
C2450 C 0.8798 0.11843 0.12789 0.0
C2451 C 0.88299 0.11636 0.16638 0.0
C2452 C 0.88482 0.10851 0.09949 0.0
C2453 C 0.86775 0.13252 0.07744 0.0
C2454 C 0.87556 0.10127 0.07724 0.0
C2455 C 0.87969 0.09007 0.05628 0.0
C2456 C 0.89314 0.08568 0.05768 0.0
C2457 C 0.9026 0.0935 0.07769 0.0
C2458 C 0.89847 0.10479 0.09847 0.0
H2459 H 0.86553 0.14345 0.07497 0.0
H2460 H 0.87634 0.13006 0.05849 0.0
H2461 H 0.8587 0.12699 0.06748 0.0
H2462 H 0.86493 0.10365 0.07816 0.0
H2463 H 0.87211 0.08427 0.04136 0.0
H2464 H 0.9169 0.5873 0.9532 0.0
H2465 H 0.90701 0.60571 0.91708 0.0
H2466 H 0.8752 0.60913 -8e-05 0.0
H2467 H 0.88472 0.59021 0.03525 0.0
H2468 H 0.86519 0.60409 0.93381 0.0
H2469 H 0.90172 0.64543 0.91447 0.0
H2470 H 0.90896 0.62953 0.90178 0.0
H2471 H 0.90391 0.63257 0.95018 0.0
C2472 C 0.9081 0.59232 0.96463 0.0
C2473 C 0.90149 0.58718 -0.00315 0.0
C2474 C 0.90246 0.60294 0.9439 0.0
C2475 C 0.89031 0.60884 0.9556 0.0
C2476 C 0.88454 0.60469 -0.00984 0.0
H2477 H 0.83985 0.66641 0.83803 0.0
H2478 H 0.85826 0.65677 0.87511 0.0
C2479 C 0.89003 0.59391 0.01048 0.0
C2480 C 0.88235 0.61725 0.92871 0.0
H2481 H 0.88381 0.64409 0.86787 0.0
C2482 C 0.86926 0.61294 0.91986 0.0
C2483 C 0.88759 0.6288 0.91029 0.0
C2484 C 0.90127 0.63443 0.91998 0.0
C2485 C 0.86134 0.61965 0.89293 0.0
C2486 C 0.86681 0.63076 0.87305 0.0
C2487 C 0.87977 0.63535 0.88242 0.0
C2488 C 0.85872 0.63799 0.84404 0.0
C2489 C 0.84708 0.61485 0.88651 0.0
C2490 C 0.8536 0.63106 0.81239 0.0
C2491 C 0.84295 0.63647 0.79136 0.0
C2492 C 0.83741 0.649 0.80135 0.0
C2493 C 0.84382 0.65669 0.82971 0.0
C2494 C 0.85435 0.65118 0.85107 0.0
H2495 H 0.8434 0.60857 0.91048 0.0
H2496 H 0.84009 0.62348 0.88282 0.0
H2497 H 0.84672 0.60862 0.86037 0.0
H2498 H 0.85707 0.62097 0.80596 0.0
H2499 H 0.83834 0.63036 0.76944 0.0
H2500 H 0.12223 0.08629 0.52112 0.0
H2501 H 0.13192 0.10501 0.55708 0.0
H2502 H 0.09612 0.10703 0.62599 0.0
H2503 H 0.08617 0.08867 0.58939 0.0
H2504 H 0.10894 0.13221 0.61848 0.0
H2505 H 0.14445 0.09183 0.66152 0.0
H2506 H 0.1444 0.09508 0.61138 0.0
H2507 H 0.12953 0.0885 0.63389 0.0
C2508 C 0.11619 0.09109 0.54287 0.0
C2509 C 0.10355 0.08581 0.55291 0.0
C2510 C 0.12178 0.10172 0.56361 0.0
C2511 C 0.11492 0.10707 0.59506 0.0
C2512 C 0.10165 0.10295 0.60211 0.0
H2513 H 0.16193 0.13315 0.78796 0.0
H2514 H 0.14352 0.12344 0.75091 0.0
C2515 C 0.09597 0.09244 0.58103 0.0
C2516 C 0.12225 0.11521 0.62381 0.0
H2517 H 0.14892 0.11361 0.68474 0.0
C2518 C 0.11768 0.12818 0.63307 0.0
C2519 C 0.13338 0.10976 0.64373 0.0
C2520 C 0.13817 0.09549 0.63749 0.0
C2521 C 0.12421 0.136 0.66095 0.0
C2522 C 0.13575 0.13076 0.67951 0.0
C2523 C 0.14008 0.11768 0.67066 0.0
C2524 C 0.14402 0.13866 0.70687 0.0
C2525 C 0.11857 0.14967 0.67058 0.0
C2526 C 0.14991 0.1509 0.69578 0.0
C2527 C 0.16024 0.15664 0.71746 0.0
C2528 C 0.1651 0.15005 0.75011 0.0
C2529 C 0.15844 0.13844 0.76291 0.0
C2530 C 0.14794 0.13285 0.74161 0.0
H2531 H 0.10759 0.15016 0.66464 0.0
H2532 H 0.12029 0.15224 0.70089 0.0
H2533 H 0.12357 0.15739 0.6527 0.0
H2534 H 0.14732 0.15547 0.66884 0.0
H2535 H 0.16524 0.16554 0.70663 0.0
H2536 H 0.66532 0.37281 0.29484 0.0
H2537 H 0.64616 0.38073 0.33149 0.0
H2538 H 0.6369 0.33991 0.36409 0.0
H2539 H 0.65657 0.33192 0.32865 0.0
H2540 H 0.61983 0.37753 0.33677 0.0
H2541 H 0.64404 0.3562 0.46614 0.0
H2542 H 0.65233 0.35631 0.42068 0.0
H2543 H 0.63933 0.34419 0.43046 0.0
C2544 C 0.65906 0.36544 0.30903 0.0
C2545 C 0.66265 0.35176 0.30943 0.0
C2546 C 0.64807 0.37 0.33009 0.0
C2547 C 0.64033 0.36098 0.35169 0.0
C2548 C 0.643 0.34712 0.34876 0.0
H2549 H 0.58028 0.40741 0.48268 0.0
H2550 H 0.58841 0.38813 0.44581 0.0
C2551 C 0.65415 0.34255 0.32807 0.0
C2552 C 0.63052 0.36643 0.37971 0.0
H2553 H 0.62536 0.37006 0.47518 0.0
C2554 C 0.62087 0.37574 0.36703 0.0
C2555 C 0.63195 0.36415 0.41928 0.0
C2556 C 0.64252 0.35476 0.43513 0.0
C2557 C 0.61329 0.38349 0.39268 0.0
C2558 C 0.61502 0.3815 0.43228 0.0
C2559 C 0.624 0.37153 0.44488 0.0
C2560 C 0.60937 0.39104 0.46074 0.0
C2561 C 0.60429 0.39442 0.37701 0.0
C2562 C 0.61823 0.39832 0.4841 0.0
C2563 C 0.61358 0.40907 0.50594 0.0
C2564 C 0.59995 0.41289 0.50459 0.0
C2565 C 0.59086 0.40481 0.48405 0.0
C2566 C 0.59552 0.39389 0.46255 0.0
H2567 H 0.60616 0.39631 0.34635 0.0
H2568 H 0.59361 0.39136 0.38023 0.0
H2569 H 0.60581 0.40401 0.39266 0.0
H2570 H 0.62895 0.39625 0.48358 0.0
H2571 H 0.62086 0.41501 0.52159 0.0
H2572 H 0.38008 0.91023 0.02086 0.0
H2573 H 0.37071 0.89181 0.05854 0.0
H2574 H 0.40554 0.89268 0.13162 0.0
H2575 H 0.41517 0.91085 0.09352 0.0
H2576 H 0.39354 0.86633 0.12399 0.0
H2577 H 0.35678 0.9063 0.16131 0.0
H2578 H 0.35759 0.9027 0.11139 0.0
H2579 H 0.372 0.90975 0.13518 0.0
C2580 C 0.386 0.90615 0.04403 0.0
C2581 C 0.39825 0.91217 0.05462 0.0
C2582 C 0.3806 0.89567 0.06567 0.0
C2583 C 0.38726 0.89117 0.09851 0.0
C2584 C 0.40019 0.89608 0.10657 0.0
H2585 H 0.33801 0.86509 0.28668 0.0
H2586 H 0.35706 0.87482 0.25241 0.0
C2587 C 0.40569 0.90647 0.08465 0.0
C2588 C 0.37989 0.88313 0.12732 0.0
H2589 H 0.35245 0.88457 0.18527 0.0
C2590 C 0.38457 0.87029 0.13755 0.0
C2591 C 0.36844 0.88849 0.14584 0.0
C2592 C 0.36346 0.90262 0.13823 0.0
C2593 C 0.37778 0.86247 0.16492 0.0
C2594 C 0.36592 0.8676 0.18199 0.0
C2595 C 0.36153 0.88059 0.17234 0.0
C2596 C 0.35731 0.85963 0.20828 0.0
C2597 C 0.38345 0.8489 0.1755 0.0
C2598 C 0.35163 0.84739 0.19628 0.0
C2599 C 0.34091 0.84166 0.21635 0.0
C2600 C 0.33546 0.84824 0.24824 0.0
C2601 C 0.34194 0.85981 0.26215 0.0
C2602 C 0.35281 0.86541 0.24245 0.0
H2603 H 0.39451 0.84853 0.17086 0.0
H2604 H 0.38132 0.84639 0.20564 0.0
H2605 H 0.37879 0.84108 0.15723 0.0
H2606 H 0.35469 0.84284 0.16972 0.0
H2607 H 0.33609 0.83279 0.20473 0.0
H2608 H 0.83633 0.33482 0.71408 0.0
H2609 H 0.85488 0.34444 0.67797 0.0
H2610 H 0.85708 0.37761 0.75688 0.0
H2611 H 0.83805 0.36831 0.79217 0.0
H2612 H 0.85237 0.38638 0.68893 0.0
H2613 H 0.89461 0.35042 0.67779 0.0
H2614 H 0.87894 0.34266 0.6651 0.0
H2615 H 0.88148 0.34863 0.7129 0.0
C2616 C 0.84111 0.34388 0.72469 0.0
C2617 C 0.83561 0.3509 0.75573 0.0
C2618 C 0.8518 0.34936 0.70399 0.0
C2619 C 0.85741 0.36179 0.71453 0.0
C2620 C 0.85288 0.36804 0.74803 0.0
H2621 H 0.91465 0.41187 0.59423 0.0
H2622 H 0.90529 0.39393 0.63364 0.0
C2623 C 0.84203 0.36269 0.76832 0.0
C2624 C 0.86593 0.36944 0.68726 0.0
H2625 H 0.8934 0.36751 0.62886 0.0
C2626 C 0.86144 0.38227 0.67627 0.0
C2627 C 0.87777 0.36414 0.67052 0.0
C2628 C 0.88355 0.35076 0.68249 0.0
C2629 C 0.86824 0.38983 0.64879 0.0
C2630 C 0.87967 0.38427 0.63062 0.0
C2631 C 0.88444 0.3716 0.64215 0.0
C2632 C 0.88695 0.39197 0.60093 0.0
C2633 C 0.86319 0.40382 0.63983 0.0
C2634 C 0.8802 0.39609 0.56784 0.0
C2635 C 0.88546 0.40645 0.54543 0.0
C2636 C 0.89763 0.41272 0.55554 0.0
C2637 C 0.90521 0.40731 0.58574 0.0
C2638 C 0.89986 0.39705 0.60842 0.0
H2639 H 0.85654 0.40778 0.66262 0.0
H2640 H 0.87169 0.41095 0.63592 0.0
H2641 H 0.85727 0.40355 0.61309 0.0
H2642 H 0.87034 0.39208 0.56114 0.0
H2643 H 0.87944 0.41029 0.52215 0.0
H2644 H 0.41789 0.08925 0.47611 0.0
H2645 H 0.41034 0.10924 0.44148 0.0
H2646 H 0.36989 0.10271 0.48205 0.0
H2647 H 0.37741 0.08314 0.51752 0.0
H2648 H 0.39409 0.10777 0.3841 0.0
H2649 H 0.3706 0.14252 0.48558 0.0
H2650 H 0.38159 0.1291 0.50101 0.0
H2651 H 0.36385 0.12606 0.49359 0.0
C2652 C 0.4075 0.09241 0.4789 0.0
C2653 C 0.39823 0.08453 0.49939 0.0
C2654 C 0.40318 0.10381 0.45888 0.0
C2655 C 0.38954 0.10757 0.45913 0.0
C2656 C 0.38052 0.10029 0.48197 0.0
H2657 H 0.33462 0.12396 0.29104 0.0
H2658 H 0.3545 0.11682 0.32583 0.0
C2659 C 0.38483 0.08898 0.50217 0.0
C2660 C 0.38423 0.11753 0.43128 0.0
H2661 H 0.36015 0.14178 0.42204 0.0
C2662 C 0.38695 0.11547 0.39252 0.0
C2663 C 0.37516 0.12786 0.44189 0.0
C2664 C 0.37278 0.13159 0.48286 0.0
C2665 C 0.37992 0.12254 0.36421 0.0
C2666 C 0.36962 0.13162 0.37488 0.0
C2667 C 0.36784 0.13462 0.41359 0.0
C2668 C 0.35941 0.13666 0.34732 0.0
C2669 C 0.38336 0.11987 0.32317 0.0
C2670 C 0.35558 0.15028 0.34699 0.0
C2671 C 0.34401 0.15439 0.32737 0.0
C2672 C 0.33604 0.14492 0.30787 0.0
C2673 C 0.34054 0.13153 0.30562 0.0
C2674 C 0.35201 0.12743 0.32542 0.0
H2675 H 0.39428 0.11773 0.31995 0.0
H2676 H 0.3778 0.11083 0.31328 0.0
H2677 H 0.38068 0.12852 0.30467 0.0
H2678 H 0.3611 0.15761 0.36366 0.0
H2679 H 0.34081 0.16478 0.32973 0.0
H2680 H 0.5837 0.58926 0.07911 0.0
H2681 H 0.59079 0.60964 0.11266 0.0
H2682 H 0.6317 0.60287 0.07609 0.0
H2683 H 0.62463 0.58293 0.04159 0.0
H2684 H 0.60626 0.60884 0.17139 0.0
H2685 H 0.63112 0.64257 0.06992 0.0
H2686 H 0.62036 0.629 0.0543 0.0
H2687 H 0.638 0.62607 0.06374 0.0
C2688 C 0.5941 0.59244 0.07692 0.0
C2689 C 0.60362 0.5844 0.05789 0.0
C2690 C 0.59816 0.60407 0.09632 0.0
C2691 C 0.61179 0.60789 0.09693 0.0
C2692 C 0.62108 0.60042 0.07545 0.0
H2693 H 0.66449 0.62534 0.2696 0.0
H2694 H 0.64513 0.61806 0.23279 0.0
C2695 C 0.61702 0.58889 0.05582 0.0
C2696 C 0.61678 0.6181 0.12453 0.0
H2697 H 0.64089 0.64228 0.13447 0.0
C2698 C 0.61356 0.61642 0.16314 0.0
C2699 C 0.62603 0.62829 0.11412 0.0
C2700 C 0.62892 0.63167 0.07316 0.0
C2701 C 0.62028 0.6237 0.19161 0.0
C2702 C 0.63079 0.63259 0.18134 0.0
C2703 C 0.63306 0.63525 0.14264 0.0
C2704 C 0.64069 0.63777 0.20955 0.0
C2705 C 0.61629 0.62143 0.23245 0.0
C2706 C 0.64464 0.65136 0.20946 0.0
C2707 C 0.65592 0.65554 0.23025 0.0
C2708 C 0.66349 0.64618 0.25138 0.0
C2709 C 0.65888 0.63283 0.25379 0.0
C2710 C 0.64769 0.62865 0.23283 0.0
H2711 H 0.60532 0.61942 0.23471 0.0
H2712 H 0.62163 0.61243 0.24354 0.0
H2713 H 0.61882 0.63022 0.25059 0.0
H2714 H 0.63943 0.65859 0.1917 0.0
H2715 H 0.65922 0.66589 0.22771 0.0
H2716 H 0.16116 0.86864 0.78244 0.0
H2717 H 0.14284 0.87819 0.8202 0.0
H2718 H 0.14404 0.84376 0.89467 0.0
H2719 H 0.1621 0.83395 0.85646 0.0
H2720 H 0.11779 0.85515 0.8871 0.0
H2721 H 0.15682 0.89322 0.92174 0.0
H2722 H 0.15315 0.89203 0.87193 0.0
H2723 H 0.16061 0.87795 0.89622 0.0
C2724 C 0.1572 0.86286 0.80601 0.0
C2725 C 0.16324 0.85066 0.81684 0.0
C2726 C 0.14678 0.86837 0.82771 0.0
C2727 C 0.14239 0.86187 0.86089 0.0
C2728 C 0.14737 0.849 0.86937 0.0
H2729 H 0.11511 0.91185 0.04653 0.0
H2730 H 0.12549 0.89299 0.01294 0.0
C2731 C 0.15769 0.84339 0.84739 0.0
C2732 C 0.13422 0.86928 0.88932 0.0
H2733 H 0.13498 0.89724 0.94546 0.0
C2734 C 0.12152 0.86434 0.90003 0.0
C2735 C 0.13929 0.88103 0.90703 0.0
C2736 C 0.15326 0.88632 0.899 0.0
C2737 C 0.11357 0.87113 0.92705 0.0
C2738 C 0.11838 0.88327 0.94327 0.0
C2739 C 0.13123 0.88795 0.93316 0.0
C2740 C 0.11021 0.89186 0.96913 0.0
C2741 C 0.10019 0.86515 0.93822 0.0
C2742 C 0.09774 0.89701 0.95707 0.0
C2743 C 0.09165 0.90762 0.97675 0.0
C2744 C 0.09807 0.91349 0.00831 0.0
C2745 C 0.10993 0.90757 0.02226 0.0
C2746 C 0.1159 0.89682 0.00294 0.0
H2747 H 0.10015 0.85405 0.93436 0.0
H2748 H 0.09766 0.86748 0.96824 0.0
H2749 H 0.09219 0.8694 0.91973 0.0
H2750 H 0.09324 0.8936 0.93075 0.0
H2751 H 0.08255 0.912 0.9651 0.0
loop_
_geom_bond_atom_site_label_1
_geom_bond_atom_site_label_2
_geom_bond_distance
_geom_bond_site_symmetry_2
_ccdc_geom_bond_type
C0 O1 1.306 1_556 S
C0 O3 1.160 1_556 S
O1 C0 1.306 1_554 S
O1 Cd2 2.228 . S
Cd2 O1 2.228 . S
Cd2 O6 2.273 . S
Cd2 O10 2.277 . S
O3 C0 1.160 1_554 S
O3 Cd4 2.203 . S
Cd4 O3 2.203 . S
Cd4 O6 2.411 . S
Cd4 O7 2.333 . S
Cd4 O8 2.352 . S
Cd4 O12 2.277 . S
Cd4 O13 2.356 . S
C5 O10 1.209 . S
C5 O12 1.226 . S
O6 Cd2 2.273 . S
O6 Cd4 2.411 . S
O6 C9 1.320 . S
O7 Cd4 2.333 . S
O7 C9 1.214 . S
O8 Cd4 2.352 . S
O8 C11 1.258 . S
C9 O6 1.320 . S
C9 O7 1.214 . S
O10 Cd2 2.277 . S
O10 C5 1.209 . S
C11 O8 1.258 . S
C11 O13 1.282 . S
O12 Cd4 2.277 . S
O12 C5 1.226 . S
O13 Cd4 2.356 . S
O13 C11 1.282 . S
C14 O15 1.306 . S
C14 O17 1.160 . S
O15 C14 1.306 . S
O15 Cd16 2.228 . S
Cd16 O15 2.228 . S
Cd16 O20 2.273 . S
Cd16 O24 2.277 . S
O17 C14 1.160 . S
O17 Cd18 2.203 . S
Cd18 O17 2.203 . S
Cd18 O20 2.411 . S
Cd18 O21 2.333 . S
Cd18 O22 2.352 . S
Cd18 O26 2.277 . S
Cd18 O27 2.356 . S
C19 O24 1.209 . S
C19 O26 1.226 . S
O20 Cd16 2.273 . S
O20 Cd18 2.411 . S
O20 C23 1.320 . S
O21 Cd18 2.333 . S
O21 C23 1.214 . S
O22 Cd18 2.352 . S
O22 C25 1.258 . S
C23 O20 1.320 . S
C23 O21 1.214 . S
O24 Cd16 2.277 . S
O24 C19 1.209 . S
C25 O22 1.258 . S
C25 O27 1.282 . S
O26 Cd18 2.277 . S
O26 C19 1.226 . S
O27 Cd18 2.356 . S
O27 C25 1.282 . S
C28 O29 1.306 . S
C28 O31 1.160 . S
O29 C28 1.306 . S
O29 Cd30 2.228 . S
Cd30 O29 2.228 . S
Cd30 O34 2.273 . S
Cd30 O38 2.277 . S
O31 C28 1.160 . S
O31 Cd32 2.203 . S
Cd32 O31 2.203 . S
Cd32 O34 2.411 . S
Cd32 O35 2.333 . S
Cd32 O36 2.352 . S
Cd32 O40 2.277 . S
Cd32 O41 2.356 . S
C33 O38 1.209 . S
C33 O40 1.226 . S
O34 Cd30 2.273 . S
O34 Cd32 2.411 . S
O34 C37 1.320 . S
O35 Cd32 2.333 . S
O35 C37 1.214 . S
O36 Cd32 2.352 . S
O36 C39 1.258 . S
C37 O34 1.320 . S
C37 O35 1.214 . S
O38 Cd30 2.277 . S
O38 C33 1.209 . S
C39 O36 1.258 . S
C39 O41 1.282 . S
O40 Cd32 2.277 . S
O40 C33 1.226 . S
O41 Cd32 2.356 . S
O41 C39 1.282 . S
C42 O43 1.306 . S
C42 O45 1.160 . S
O43 C42 1.306 . S
O43 Cd44 2.228 . S
Cd44 O43 2.228 . S
Cd44 O48 2.273 . S
Cd44 O52 2.277 . S
O45 C42 1.160 . S
O45 Cd46 2.203 . S
Cd46 O45 2.203 . S
Cd46 O48 2.411 . S
Cd46 O49 2.333 . S
Cd46 O50 2.352 . S
Cd46 O54 2.277 . S
Cd46 O55 2.356 . S
C47 O52 1.209 . S
C47 O54 1.226 . S
O48 Cd44 2.273 . S
O48 Cd46 2.411 . S
O48 C51 1.320 . S
O49 Cd46 2.333 . S
O49 C51 1.214 . S
O50 Cd46 2.352 . S
O50 C53 1.258 . S
C51 O48 1.320 . S
C51 O49 1.214 . S
O52 Cd44 2.277 . S
O52 C47 1.209 . S
C53 O50 1.258 . S
C53 O55 1.282 . S
O54 Cd46 2.277 . S
O54 C47 1.226 . S
O55 Cd46 2.356 . S
O55 C53 1.282 . S
C56 O57 1.306 . S
C56 O59 1.160 . S
O57 C56 1.306 . S
O57 Cd58 2.228 . S
Cd58 O57 2.228 . S
Cd58 O62 2.273 . S
Cd58 O66 2.277 . S
O59 C56 1.160 . S
O59 Cd60 2.203 . S
Cd60 O59 2.203 . S
Cd60 O62 2.411 . S
Cd60 O63 2.333 . S
Cd60 O64 2.352 . S
Cd60 O68 2.277 . S
Cd60 O69 2.356 . S
C61 O66 1.209 . S
C61 O68 1.226 . S
O62 Cd58 2.273 . S
O62 Cd60 2.411 . S
O62 C65 1.320 . S
O63 Cd60 2.333 . S
O63 C65 1.214 . S
O64 Cd60 2.352 . S
O64 C67 1.258 . S
C65 O62 1.320 . S
C65 O63 1.214 . S
O66 Cd58 2.277 . S
O66 C61 1.209 . S
C67 O64 1.258 . S
C67 O69 1.282 . S
O68 Cd60 2.277 . S
O68 C61 1.226 . S
O69 Cd60 2.356 . S
O69 C67 1.282 . S
C70 O71 1.306 . S
C70 O73 1.160 . S
O71 C70 1.306 . S
O71 Cd72 2.228 . S
Cd72 O71 2.228 . S
Cd72 O76 2.273 . S
Cd72 O80 2.277 . S
O73 C70 1.160 . S
O73 Cd74 2.203 . S
Cd74 O73 2.203 . S
Cd74 O76 2.411 . S
Cd74 O77 2.333 . S
Cd74 O78 2.352 . S
Cd74 O82 2.277 . S
Cd74 O83 2.356 . S
C75 O80 1.209 . S
C75 O82 1.226 . S
O76 Cd72 2.273 . S
O76 Cd74 2.411 . S
O76 C79 1.320 . S
O77 Cd74 2.333 . S
O77 C79 1.214 . S
O78 Cd74 2.352 . S
O78 C81 1.258 . S
C79 O76 1.320 . S
C79 O77 1.214 . S
O80 Cd72 2.277 . S
O80 C75 1.209 . S
C81 O78 1.258 . S
C81 O83 1.282 . S
O82 Cd74 2.277 . S
O82 C75 1.226 . S
O83 Cd74 2.356 . S
O83 C81 1.282 . S
C84 O85 1.306 . S
C84 O87 1.160 . S
O85 C84 1.306 . S
O85 Cd86 2.228 . S
Cd86 O85 2.228 . S
Cd86 O90 2.273 1_554 S
Cd86 O94 2.277 . S
O87 C84 1.160 . S
O87 Cd88 2.203 . S
Cd88 O87 2.203 . S
Cd88 O90 2.411 1_554 S
Cd88 O91 2.333 1_554 S
Cd88 O92 2.352 . S
Cd88 O96 2.277 . S
Cd88 O97 2.356 . S
C89 O94 1.209 . S
C89 O96 1.226 . S
O90 Cd86 2.273 1_556 S
O90 Cd88 2.411 1_556 S
O90 C93 1.320 . S
O91 Cd88 2.333 1_556 S
O91 C93 1.214 . S
O92 Cd88 2.352 . S
O92 C95 1.258 . S
C93 O90 1.320 . S
C93 O91 1.214 . S
O94 Cd86 2.277 . S
O94 C89 1.209 . S
C95 O92 1.258 . S
C95 O97 1.282 . S
O96 Cd88 2.277 . S
O96 C89 1.226 . S
O97 Cd88 2.356 . S
O97 C95 1.282 . S
C98 O99 1.306 . S
C98 O101 1.160 . S
O99 C98 1.306 . S
O99 Cd100 2.228 . S
Cd100 O99 2.228 . S
Cd100 O104 2.273 . S
Cd100 O108 2.277 . S
O101 C98 1.160 . S
O101 Cd102 2.203 . S
Cd102 O101 2.203 . S
Cd102 O104 2.411 . S
Cd102 O105 2.333 . S
Cd102 O106 2.352 . S
Cd102 O110 2.277 . S
Cd102 O111 2.356 . S
C103 O108 1.209 . S
C103 O110 1.226 . S
O104 Cd100 2.273 . S
O104 Cd102 2.411 . S
O104 C107 1.320 . S
O105 Cd102 2.333 . S
O105 C107 1.214 . S
O106 Cd102 2.352 . S
O106 C109 1.258 . S
C107 O104 1.320 . S
C107 O105 1.214 . S
O108 Cd100 2.277 . S
O108 C103 1.209 . S
C109 O106 1.258 . S
C109 O111 1.282 . S
O110 Cd102 2.277 . S
O110 C103 1.226 . S
O111 Cd102 2.356 . S
O111 C109 1.282 . S
C112 O113 1.306 . S
C112 O115 1.160 . S
O113 C112 1.306 . S
O113 Cd114 2.228 . S
Cd114 O113 2.228 . S
Cd114 O118 2.273 1_554 S
Cd114 O122 2.277 . S
O115 C112 1.160 . S
O115 Cd116 2.203 . S
Cd116 O115 2.203 . S
Cd116 O118 2.411 1_554 S
Cd116 O119 2.333 1_554 S
Cd116 O120 2.352 . S
Cd116 O124 2.277 . S
Cd116 O125 2.356 . S
C117 O122 1.209 . S
C117 O124 1.226 . S
O118 Cd114 2.273 1_556 S
O118 Cd116 2.411 1_556 S
O118 C121 1.320 . S
O119 Cd116 2.333 1_556 S
O119 C121 1.214 . S
O120 Cd116 2.352 . S
O120 C123 1.258 . S
C121 O118 1.320 . S
C121 O119 1.214 . S
O122 Cd114 2.277 . S
O122 C117 1.209 . S
C123 O120 1.258 . S
C123 O125 1.282 . S
O124 Cd116 2.277 . S
O124 C117 1.226 . S
O125 Cd116 2.356 . S
O125 C123 1.282 . S
C126 O127 1.306 . S
C126 O129 1.160 . S
O127 C126 1.306 . S
O127 Cd128 2.228 . S
Cd128 O127 2.228 . S
Cd128 O132 2.273 . S
Cd128 O136 2.277 . S
O129 C126 1.160 . S
O129 Cd130 2.203 . S
Cd130 O129 2.203 . S
Cd130 O132 2.411 . S
Cd130 O133 2.333 . S
Cd130 O134 2.352 . S
Cd130 O138 2.277 . S
Cd130 O139 2.356 . S
C131 O136 1.209 . S
C131 O138 1.226 . S
O132 Cd128 2.273 . S
O132 Cd130 2.411 . S
O132 C135 1.320 . S
O133 Cd130 2.333 . S
O133 C135 1.214 . S
O134 Cd130 2.352 . S
O134 C137 1.258 . S
C135 O132 1.320 . S
C135 O133 1.214 . S
O136 Cd128 2.277 . S
O136 C131 1.209 . S
C137 O134 1.258 . S
C137 O139 1.282 . S
O138 Cd130 2.277 . S
O138 C131 1.226 . S
O139 Cd130 2.356 . S
O139 C137 1.282 . S
C140 O141 1.306 . S
C140 O143 1.160 . S
O141 C140 1.306 . S
O141 Cd142 2.228 . S
Cd142 O141 2.228 . S
Cd142 O146 2.273 . S
Cd142 O150 2.277 . S
O143 C140 1.160 . S
O143 Cd144 2.203 . S
Cd144 O143 2.203 . S
Cd144 O146 2.411 . S
Cd144 O147 2.333 . S
Cd144 O148 2.352 . S
Cd144 O152 2.277 . S
Cd144 O153 2.356 . S
C145 O150 1.209 . S
C145 O152 1.226 . S
O146 Cd142 2.273 . S
O146 Cd144 2.411 . S
O146 C149 1.320 . S
O147 Cd144 2.333 . S
O147 C149 1.214 . S
O148 Cd144 2.352 . S
O148 C151 1.258 . S
C149 O146 1.320 . S
C149 O147 1.214 . S
O150 Cd142 2.277 . S
O150 C145 1.209 . S
C151 O148 1.258 . S
C151 O153 1.282 . S
O152 Cd144 2.277 . S
O152 C145 1.226 . S
O153 Cd144 2.356 . S
O153 C151 1.282 . S
C154 O155 1.306 . S
C154 O157 1.160 . S
O155 C154 1.306 . S
O155 Cd156 2.228 . S
Cd156 O155 2.228 . S
Cd156 O160 2.273 . S
Cd156 O164 2.277 . S
O157 C154 1.160 . S
O157 Cd158 2.203 . S
Cd158 O157 2.203 . S
Cd158 O160 2.411 . S
Cd158 O161 2.333 . S
Cd158 O162 2.352 . S
Cd158 O166 2.277 . S
Cd158 O167 2.356 . S
C159 O164 1.209 . S
C159 O166 1.226 . S
O160 Cd156 2.273 . S
O160 Cd158 2.411 . S
O160 C163 1.320 . S
O161 Cd158 2.333 . S
O161 C163 1.214 . S
O162 Cd158 2.352 . S
O162 C165 1.258 . S
C163 O160 1.320 . S
C163 O161 1.214 . S
O164 Cd156 2.277 . S
O164 C159 1.209 . S
C165 O162 1.258 . S
C165 O167 1.282 . S
O166 Cd158 2.277 . S
O166 C159 1.226 . S
O167 Cd158 2.356 . S
O167 C165 1.282 . S
C168 O169 1.306 . S
C168 O171 1.160 . S
O169 C168 1.306 . S
O169 Cd170 2.228 . S
Cd170 O169 2.228 . S
Cd170 O174 2.273 . S
Cd170 O178 2.277 . S
O171 C168 1.160 . S
O171 Cd172 2.203 . S
Cd172 O171 2.203 . S
Cd172 O174 2.411 . S
Cd172 O175 2.333 . S
Cd172 O176 2.352 . S
Cd172 O180 2.277 . S
Cd172 O181 2.356 . S
C173 O178 1.209 . S
C173 O180 1.226 . S
O174 Cd170 2.273 . S
O174 Cd172 2.411 . S
O174 C177 1.320 . S
O175 Cd172 2.333 . S
O175 C177 1.214 . S
O176 Cd172 2.352 . S
O176 C179 1.258 . S
C177 O174 1.320 . S
C177 O175 1.214 . S
O178 Cd170 2.277 . S
O178 C173 1.209 . S
C179 O176 1.258 . S
C179 O181 1.282 . S
O180 Cd172 2.277 . S
O180 C173 1.226 . S
O181 Cd172 2.356 . S
O181 C179 1.282 . S
C182 O183 1.306 . S
C182 O185 1.160 . S
O183 C182 1.306 . S
O183 Cd184 2.228 . S
Cd184 O183 2.228 . S
Cd184 O188 2.273 . S
Cd184 O192 2.277 . S
O185 C182 1.160 . S
O185 Cd186 2.203 . S
Cd186 O185 2.203 . S
Cd186 O188 2.411 . S
Cd186 O189 2.333 . S
Cd186 O190 2.352 . S
Cd186 O194 2.277 . S
Cd186 O195 2.356 . S
C187 O192 1.209 . S
C187 O194 1.226 . S
O188 Cd184 2.273 . S
O188 Cd186 2.411 . S
O188 C191 1.320 . S
O189 Cd186 2.333 . S
O189 C191 1.214 . S
O190 Cd186 2.352 . S
O190 C193 1.258 . S
C191 O188 1.320 . S
C191 O189 1.214 . S
O192 Cd184 2.277 . S
O192 C187 1.209 . S
C193 O190 1.258 . S
C193 O195 1.282 . S
O194 Cd186 2.277 . S
O194 C187 1.226 . S
O195 Cd186 2.356 . S
O195 C193 1.282 . S
C196 O197 1.306 1_556 S
C196 O199 1.160 1_556 S
O197 C196 1.306 1_554 S
O197 Cd198 2.228 . S
Cd198 O197 2.228 . S
Cd198 O202 2.273 . S
Cd198 O206 2.277 . S
O199 C196 1.160 1_554 S
O199 Cd200 2.203 . S
Cd200 O199 2.203 . S
Cd200 O202 2.411 . S
Cd200 O203 2.333 . S
Cd200 O204 2.352 . S
Cd200 O208 2.277 . S
Cd200 O209 2.356 . S
C201 O206 1.209 . S
C201 O208 1.226 . S
O202 Cd198 2.273 . S
O202 Cd200 2.411 . S
O202 C205 1.320 . S
O203 Cd200 2.333 . S
O203 C205 1.214 . S
O204 Cd200 2.352 . S
O204 C207 1.258 . S
C205 O202 1.320 . S
C205 O203 1.214 . S
O206 Cd198 2.277 . S
O206 C201 1.209 . S
C207 O204 1.258 . S
C207 O209 1.282 . S
O208 Cd200 2.277 . S
O208 C201 1.226 . S
O209 Cd200 2.356 . S
O209 C207 1.282 . S
C210 O211 1.306 . S
C210 O213 1.160 . S
O211 C210 1.306 . S
O211 Cd212 2.228 . S
Cd212 O211 2.228 . S
Cd212 O216 2.273 . S
Cd212 O220 2.277 . S
O213 C210 1.160 . S
O213 Cd214 2.203 . S
Cd214 O213 2.203 . S
Cd214 O216 2.411 . S
Cd214 O217 2.333 . S
Cd214 O218 2.352 . S
Cd214 O222 2.277 . S
Cd214 O223 2.356 . S
C215 O220 1.209 . S
C215 O222 1.226 . S
O216 Cd212 2.273 . S
O216 Cd214 2.411 . S
O216 C219 1.320 . S
O217 Cd214 2.333 . S
O217 C219 1.214 . S
O218 Cd214 2.352 . S
O218 C221 1.258 . S
C219 O216 1.320 . S
C219 O217 1.214 . S
O220 Cd212 2.277 . S
O220 C215 1.209 . S
C221 O218 1.258 . S
C221 O223 1.282 . S
O222 Cd214 2.277 . S
O222 C215 1.226 . S
O223 Cd214 2.356 . S
O223 C221 1.282 . S
C224 O225 1.306 . S
C224 O227 1.160 . S
O225 C224 1.306 . S
O225 Cd226 2.228 1_565 S
Cd226 O225 2.228 1_545 S
Cd226 O230 2.273 1_545 S
Cd226 O234 2.277 1_545 S
O227 C224 1.160 . S
O227 Cd228 2.203 . S
Cd228 O227 2.203 . S
Cd228 O230 2.411 . S
Cd228 O231 2.333 . S
Cd228 O232 2.352 . S
Cd228 O236 2.277 . S
Cd228 O237 2.356 . S
C229 O234 1.209 . S
C229 O236 1.226 . S
O230 Cd226 2.273 1_565 S
O230 Cd228 2.411 . S
O230 C233 1.320 . S
O231 Cd228 2.333 . S
O231 C233 1.214 . S
O232 Cd228 2.352 . S
O232 C235 1.258 . S
C233 O230 1.320 . S
C233 O231 1.214 . S
O234 Cd226 2.277 1_565 S
O234 C229 1.209 . S
C235 O232 1.258 . S
C235 O237 1.282 . S
O236 Cd228 2.277 . S
O236 C229 1.226 . S
O237 Cd228 2.356 . S
O237 C235 1.282 . S
C238 O239 1.306 . S
C238 O241 1.160 . S
O239 C238 1.306 . S
O239 Cd240 2.228 . S
Cd240 O239 2.228 . S
Cd240 O244 2.273 . S
Cd240 O248 2.277 . S
O241 C238 1.160 . S
O241 Cd242 2.203 . S
Cd242 O241 2.203 . S
Cd242 O244 2.411 . S
Cd242 O245 2.333 . S
Cd242 O246 2.352 . S
Cd242 O250 2.277 . S
Cd242 O251 2.356 . S
C243 O248 1.209 . S
C243 O250 1.226 . S
O244 Cd240 2.273 . S
O244 Cd242 2.411 . S
O244 C247 1.320 . S
O245 Cd242 2.333 . S
O245 C247 1.214 . S
O246 Cd242 2.352 . S
O246 C249 1.258 . S
C247 O244 1.320 . S
C247 O245 1.214 . S
O248 Cd240 2.277 . S
O248 C243 1.209 . S
C249 O246 1.258 . S
C249 O251 1.282 . S
O250 Cd242 2.277 . S
O250 C243 1.226 . S
O251 Cd242 2.356 . S
O251 C249 1.282 . S
C252 O253 1.306 1_556 S
C252 O255 1.160 1_556 S
O253 C252 1.306 1_554 S
O253 Cd254 2.228 1_545 S
Cd254 O253 2.228 1_565 S
Cd254 O258 2.273 1_565 S
Cd254 O262 2.277 1_565 S
O255 C252 1.160 1_554 S
O255 Cd256 2.203 . S
Cd256 O255 2.203 . S
Cd256 O258 2.411 . S
Cd256 O259 2.333 . S
Cd256 O260 2.352 . S
Cd256 O264 2.277 . S
Cd256 O265 2.356 . S
C257 O262 1.209 . S
C257 O264 1.226 . S
O258 Cd254 2.273 1_545 S
O258 Cd256 2.411 . S
O258 C261 1.320 . S
O259 Cd256 2.333 . S
O259 C261 1.214 . S
O260 Cd256 2.352 . S
O260 C263 1.258 . S
C261 O258 1.320 . S
C261 O259 1.214 . S
O262 Cd254 2.277 1_545 S
O262 C257 1.209 . S
C263 O260 1.258 . S
C263 O265 1.282 . S
O264 Cd256 2.277 . S
O264 C257 1.226 . S
O265 Cd256 2.356 . S
O265 C263 1.282 . S
C266 O267 1.306 . S
C266 O269 1.160 . S
O267 C266 1.306 . S
O267 Cd268 2.228 . S
Cd268 O267 2.228 . S
Cd268 O272 2.273 . S
Cd268 O276 2.277 . S
O269 C266 1.160 . S
O269 Cd270 2.203 . S
Cd270 O269 2.203 . S
Cd270 O272 2.411 . S
Cd270 O273 2.333 . S
Cd270 O274 2.352 . S
Cd270 O278 2.277 . S
Cd270 O279 2.356 . S
C271 O276 1.209 . S
C271 O278 1.226 . S
O272 Cd268 2.273 . S
O272 Cd270 2.411 . S
O272 C275 1.320 . S
O273 Cd270 2.333 . S
O273 C275 1.214 . S
O274 Cd270 2.352 . S
O274 C277 1.258 . S
C275 O272 1.320 . S
C275 O273 1.214 . S
O276 Cd268 2.277 . S
O276 C271 1.209 . S
C277 O274 1.258 . S
C277 O279 1.282 . S
O278 Cd270 2.277 . S
O278 C271 1.226 . S
O279 Cd270 2.356 . S
O279 C277 1.282 . S
C280 O281 1.306 . S
C280 O283 1.160 . S
O281 C280 1.306 . S
O281 Cd282 2.228 1_545 S
Cd282 O281 2.228 1_565 S
Cd282 O286 2.273 1_564 S
Cd282 O290 2.277 1_565 S
O283 C280 1.160 . S
O283 Cd284 2.203 . S
Cd284 O283 2.203 . S
Cd284 O286 2.411 1_554 S
Cd284 O287 2.333 1_554 S
Cd284 O288 2.352 . S
Cd284 O292 2.277 . S
Cd284 O293 2.356 . S
C285 O290 1.209 . S
C285 O292 1.226 . S
O286 Cd282 2.273 1_546 S
O286 Cd284 2.411 1_556 S
O286 C289 1.320 . S
O287 Cd284 2.333 1_556 S
O287 C289 1.214 . S
O288 Cd284 2.352 . S
O288 C291 1.258 . S
C289 O286 1.320 . S
C289 O287 1.214 . S
O290 Cd282 2.277 1_545 S
O290 C285 1.209 . S
C291 O288 1.258 . S
C291 O293 1.282 . S
O292 Cd284 2.277 . S
O292 C285 1.226 . S
O293 Cd284 2.356 . S
O293 C291 1.282 . S
C294 O295 1.306 . S
C294 O297 1.160 . S
O295 C294 1.306 . S
O295 Cd296 2.228 . S
Cd296 O295 2.228 . S
Cd296 O300 2.273 . S
Cd296 O304 2.277 . S
O297 C294 1.160 . S
O297 Cd298 2.203 . S
Cd298 O297 2.203 . S
Cd298 O300 2.411 . S
Cd298 O301 2.333 . S
Cd298 O302 2.352 . S
Cd298 O306 2.277 . S
Cd298 O307 2.356 . S
C299 O304 1.209 . S
C299 O306 1.226 . S
O300 Cd296 2.273 . S
O300 Cd298 2.411 . S
O300 C303 1.320 . S
O301 Cd298 2.333 . S
O301 C303 1.214 . S
O302 Cd298 2.352 . S
O302 C305 1.258 . S
C303 O300 1.320 . S
C303 O301 1.214 . S
O304 Cd296 2.277 . S
O304 C299 1.209 . S
C305 O302 1.258 . S
C305 O307 1.282 . S
O306 Cd298 2.277 . S
O306 C299 1.226 . S
O307 Cd298 2.356 . S
O307 C305 1.282 . S
C308 O309 1.306 . S
C308 O311 1.160 . S
O309 C308 1.306 . S
O309 Cd310 2.228 1_565 S
Cd310 O309 2.228 1_545 S
Cd310 O314 2.273 1_545 S
Cd310 O318 2.277 1_545 S
O311 C308 1.160 . S
O311 Cd312 2.203 . S
Cd312 O311 2.203 . S
Cd312 O314 2.411 . S
Cd312 O315 2.333 . S
Cd312 O316 2.352 . S
Cd312 O320 2.277 . S
Cd312 O321 2.356 . S
C313 O318 1.209 . S
C313 O320 1.226 . S
O314 Cd310 2.273 1_565 S
O314 Cd312 2.411 . S
O314 C317 1.320 . S
O315 Cd312 2.333 . S
O315 C317 1.214 . S
O316 Cd312 2.352 . S
O316 C319 1.258 . S
C317 O314 1.320 . S
C317 O315 1.214 . S
O318 Cd310 2.277 1_565 S
O318 C313 1.209 . S
C319 O316 1.258 . S
C319 O321 1.282 . S
O320 Cd312 2.277 . S
O320 C313 1.226 . S
O321 Cd312 2.356 . S
O321 C319 1.282 . S
C322 O323 1.306 . S
C322 O325 1.160 . S
O323 C322 1.306 . S
O323 Cd324 2.228 . S
Cd324 O323 2.228 . S
Cd324 O328 2.273 . S
Cd324 O332 2.277 . S
O325 C322 1.160 . S
O325 Cd326 2.203 . S
Cd326 O325 2.203 . S
Cd326 O328 2.411 . S
Cd326 O329 2.333 . S
Cd326 O330 2.352 . S
Cd326 O334 2.277 . S
Cd326 O335 2.356 . S
C327 O332 1.209 . S
C327 O334 1.226 . S
O328 Cd324 2.273 . S
O328 Cd326 2.411 . S
O328 C331 1.320 . S
O329 Cd326 2.333 . S
O329 C331 1.214 . S
O330 Cd326 2.352 . S
O330 C333 1.258 . S
C331 O328 1.320 . S
C331 O329 1.214 . S
O332 Cd324 2.277 . S
O332 C327 1.209 . S
C333 O330 1.258 . S
C333 O335 1.282 . S
O334 Cd326 2.277 . S
O334 C327 1.226 . S
O335 Cd326 2.356 . S
O335 C333 1.282 . S
C336 O337 1.306 . S
C336 O339 1.160 . S
O337 C336 1.306 . S
O337 Cd338 2.228 1_545 S
Cd338 O337 2.228 1_565 S
Cd338 O342 2.273 1_565 S
Cd338 O346 2.277 1_565 S
O339 C336 1.160 . S
O339 Cd340 2.203 . S
Cd340 O339 2.203 . S
Cd340 O342 2.411 . S
Cd340 O343 2.333 . S
Cd340 O344 2.352 . S
Cd340 O348 2.277 . S
Cd340 O349 2.356 . S
C341 O346 1.209 . S
C341 O348 1.226 . S
O342 Cd338 2.273 1_545 S
O342 Cd340 2.411 . S
O342 C345 1.320 . S
O343 Cd340 2.333 . S
O343 C345 1.214 . S
O344 Cd340 2.352 . S
O344 C347 1.258 . S
C345 O342 1.320 . S
C345 O343 1.214 . S
O346 Cd338 2.277 1_545 S
O346 C341 1.209 . S
C347 O344 1.258 . S
C347 O349 1.282 . S
O348 Cd340 2.277 . S
O348 C341 1.226 . S
O349 Cd340 2.356 . S
O349 C347 1.282 . S
C350 O351 1.306 . S
C350 O353 1.160 . S
O351 C350 1.306 . S
O351 Cd352 2.228 . S
Cd352 O351 2.228 . S
Cd352 O356 2.273 . S
Cd352 O360 2.277 . S
O353 C350 1.160 . S
O353 Cd354 2.203 . S
Cd354 O353 2.203 . S
Cd354 O356 2.411 . S
Cd354 O357 2.333 . S
Cd354 O358 2.352 . S
Cd354 O362 2.277 . S
Cd354 O363 2.356 . S
C355 O360 1.209 . S
C355 O362 1.226 . S
O356 Cd352 2.273 . S
O356 Cd354 2.411 . S
O356 C359 1.320 . S
O357 Cd354 2.333 . S
O357 C359 1.214 . S
O358 Cd354 2.352 . S
O358 C361 1.258 . S
C359 O356 1.320 . S
C359 O357 1.214 . S
O360 Cd352 2.277 . S
O360 C355 1.209 . S
C361 O358 1.258 . S
C361 O363 1.282 . S
O362 Cd354 2.277 . S
O362 C355 1.226 . S
O363 Cd354 2.356 . S
O363 C361 1.282 . S
C364 O365 1.306 . S
C364 O367 1.160 . S
O365 C364 1.306 . S
O365 Cd366 2.228 1_565 S
Cd366 O365 2.228 1_545 S
Cd366 O370 2.273 1_544 S
Cd366 O374 2.277 1_545 S
O367 C364 1.160 . S
O367 Cd368 2.203 . S
Cd368 O367 2.203 . S
Cd368 O370 2.411 1_554 S
Cd368 O371 2.333 1_554 S
Cd368 O372 2.352 . S
Cd368 O376 2.277 . S
Cd368 O377 2.356 . S
C369 O374 1.209 . S
C369 O376 1.226 . S
O370 Cd366 2.273 1_566 S
O370 Cd368 2.411 1_556 S
O370 C373 1.320 . S
O371 Cd368 2.333 1_556 S
O371 C373 1.214 . S
O372 Cd368 2.352 . S
O372 C375 1.258 . S
C373 O370 1.320 . S
C373 O371 1.214 . S
O374 Cd366 2.277 1_565 S
O374 C369 1.209 . S
C375 O372 1.258 . S
C375 O377 1.282 . S
O376 Cd368 2.277 . S
O376 C369 1.226 . S
O377 Cd368 2.356 . S
O377 C375 1.282 . S
C378 O379 1.306 . S
C378 O381 1.160 . S
O379 C378 1.306 . S
O379 Cd380 2.228 . S
Cd380 O379 2.228 . S
Cd380 O384 2.273 . S
Cd380 O388 2.277 . S
O381 C378 1.160 . S
O381 Cd382 2.203 . S
Cd382 O381 2.203 . S
Cd382 O384 2.411 . S
Cd382 O385 2.333 . S
Cd382 O386 2.352 . S
Cd382 O390 2.277 . S
Cd382 O391 2.356 . S
C383 O388 1.209 . S
C383 O390 1.226 . S
O384 Cd380 2.273 . S
O384 Cd382 2.411 . S
O384 C387 1.320 . S
O385 Cd382 2.333 . S
O385 C387 1.214 . S
O386 Cd382 2.352 . S
O386 C389 1.258 . S
C387 O384 1.320 . S
C387 O385 1.214 . S
O388 Cd380 2.277 . S
O388 C383 1.209 . S
C389 O386 1.258 . S
C389 O391 1.282 . S
O390 Cd382 2.277 . S
O390 C383 1.226 . S
O391 Cd382 2.356 . S
O391 C389 1.282 . S
C392 O393 1.306 1_556 S
C392 O395 1.160 1_556 S
O393 C392 1.306 1_554 S
O393 Cd394 2.228 1_565 S
Cd394 O393 2.228 1_545 S
Cd394 O398 2.273 1_545 S
Cd394 O402 2.277 1_545 S
O395 C392 1.160 1_554 S
O395 Cd396 2.203 . S
Cd396 O395 2.203 . S
Cd396 O398 2.411 . S
Cd396 O399 2.333 . S
Cd396 O400 2.352 . S
Cd396 O404 2.277 . S
Cd396 O405 2.356 . S
C397 O402 1.209 . S
C397 O404 1.226 . S
O398 Cd394 2.273 1_565 S
O398 Cd396 2.411 . S
O398 C401 1.320 . S
O399 Cd396 2.333 . S
O399 C401 1.214 . S
O400 Cd396 2.352 . S
O400 C403 1.258 . S
C401 O398 1.320 . S
C401 O399 1.214 . S
O402 Cd394 2.277 1_565 S
O402 C397 1.209 . S
C403 O400 1.258 . S
C403 O405 1.282 . S
O404 Cd396 2.277 . S
O404 C397 1.226 . S
O405 Cd396 2.356 . S
O405 C403 1.282 . S
C406 O407 1.306 . S
C406 O409 1.160 . S
O407 C406 1.306 . S
O407 Cd408 2.228 . S
Cd408 O407 2.228 . S
Cd408 O412 2.273 . S
Cd408 O416 2.277 . S
O409 C406 1.160 . S
O409 Cd410 2.203 . S
Cd410 O409 2.203 . S
Cd410 O412 2.411 . S
Cd410 O413 2.333 . S
Cd410 O414 2.352 . S
Cd410 O418 2.277 . S
Cd410 O419 2.356 . S
C411 O416 1.209 . S
C411 O418 1.226 . S
O412 Cd408 2.273 . S
O412 Cd410 2.411 . S
O412 C415 1.320 . S
O413 Cd410 2.333 . S
O413 C415 1.214 . S
O414 Cd410 2.352 . S
O414 C417 1.258 . S
C415 O412 1.320 . S
C415 O413 1.214 . S
O416 Cd408 2.277 . S
O416 C411 1.209 . S
C417 O414 1.258 . S
C417 O419 1.282 . S
O418 Cd410 2.277 . S
O418 C411 1.226 . S
O419 Cd410 2.356 . S
O419 C417 1.282 . S
C420 O421 1.306 . S
C420 O423 1.160 . S
O421 C420 1.306 . S
O421 Cd422 2.228 1_545 S
Cd422 O421 2.228 1_565 S
Cd422 O426 2.273 1_565 S
Cd422 O430 2.277 1_565 S
O423 C420 1.160 . S
O423 Cd424 2.203 . S
Cd424 O423 2.203 . S
Cd424 O426 2.411 . S
Cd424 O427 2.333 . S
Cd424 O428 2.352 . S
Cd424 O432 2.277 . S
Cd424 O433 2.356 . S
C425 O430 1.209 . S
C425 O432 1.226 . S
O426 Cd422 2.273 1_545 S
O426 Cd424 2.411 . S
O426 C429 1.320 . S
O427 Cd424 2.333 . S
O427 C429 1.214 . S
O428 Cd424 2.352 . S
O428 C431 1.258 . S
C429 O426 1.320 . S
C429 O427 1.214 . S
O430 Cd422 2.277 1_545 S
O430 C425 1.209 . S
C431 O428 1.258 . S
C431 O433 1.282 . S
O432 Cd424 2.277 . S
O432 C425 1.226 . S
O433 Cd424 2.356 . S
O433 C431 1.282 . S
C434 O435 1.306 . S
C434 O437 1.160 . S
O435 C434 1.306 . S
O435 Cd436 2.228 . S
Cd436 O435 2.228 . S
Cd436 O440 2.273 . S
Cd436 O444 2.277 . S
O437 C434 1.160 . S
O437 Cd438 2.203 . S
Cd438 O437 2.203 . S
Cd438 O440 2.411 . S
Cd438 O441 2.333 . S
Cd438 O442 2.352 . S
Cd438 O446 2.277 . S
Cd438 O447 2.356 . S
C439 O444 1.209 . S
C439 O446 1.226 . S
O440 Cd436 2.273 . S
O440 Cd438 2.411 . S
O440 C443 1.320 . S
O441 Cd438 2.333 . S
O441 C443 1.214 . S
O442 Cd438 2.352 . S
O442 C445 1.258 . S
C443 O440 1.320 . S
C443 O441 1.214 . S
O444 Cd436 2.277 . S
O444 C439 1.209 . S
C445 O442 1.258 . S
C445 O447 1.282 . S
O446 Cd438 2.277 . S
O446 C439 1.226 . S
O447 Cd438 2.356 . S
O447 C445 1.282 . S
H448 C456 0.929 1_556 S
H449 C458 0.930 1_556 S
H450 C460 0.930 . S
H451 C463 0.929 . S
H452 C466 0.930 . S
H453 C468 0.960 . S
H454 C468 0.960 . S
H455 C468 0.960 . S
C456 H448 0.929 1_554 S
C456 C457 1.377 . S
C456 C458 1.384 . S
C457 C456 1.377 . S
C457 C463 1.390 . S
C458 H449 0.930 1_554 S
C458 C456 1.384 . S
C458 C459 1.372 . S
C459 C458 1.372 . S
C459 C460 1.400 . S
C459 C464 1.490 . S
C460 H450 0.930 . S
C460 C459 1.400 . S
C460 C463 1.386 . S
H461 C477 0.930 . S
H462 C478 0.931 . S
C463 H451 0.929 . S
C463 C457 1.390 . S
C463 C460 1.386 . S
C464 C459 1.490 . S
C464 C466 1.395 . S
C464 C467 1.403 . S
H465 C471 0.930 . S
C466 H452 0.930 . S
C466 C464 1.395 . S
C466 C469 1.403 1_655 S
C467 C464 1.403 . S
C467 C468 1.524 . S
C467 C471 1.400 1_655 S
C468 H453 0.960 . S
C468 H454 0.960 . S
C468 H455 0.960 . S
C468 C467 1.524 . S
C469 C466 1.403 1_455 S
C469 C470 1.392 . S
C469 C473 1.506 . S
C470 C469 1.392 . S
C470 C471 1.385 . S
C470 C472 1.478 . S
C471 H465 0.930 . S
C471 C467 1.400 1_455 S
C471 C470 1.385 . S
C472 C470 1.478 . S
C472 C474 1.381 . S
C472 C478 1.383 . S
C473 C469 1.506 . S
C473 H479 0.950 1_554 S
C473 H480 0.974 . S
C473 H481 0.946 1_554 S
C474 C472 1.381 . S
C474 C475 1.394 . S
C474 H482 0.930 1_554 S
C475 C474 1.394 . S
C475 C476 1.383 . S
C475 H483 0.919 1_554 S
C476 C475 1.383 . S
C476 C477 1.377 . S
C477 H461 0.930 . S
C477 C476 1.377 . S
C477 C478 1.379 . S
C478 H462 0.931 . S
C478 C472 1.383 . S
C478 C477 1.379 . S
H479 C473 0.950 1_556 S
H480 C473 0.974 . S
H481 C473 0.946 1_556 S
H482 C474 0.930 1_556 S
H483 C475 0.919 1_556 S
H484 C492 0.929 . S
H485 C494 0.930 . S
H486 C496 0.930 . S
H487 C499 0.929 . S
H488 C502 0.930 . S
H489 C504 0.960 . S
H490 C504 0.960 . S
H491 C504 0.960 . S
C492 H484 0.929 . S
C492 C493 1.377 . S
C492 C494 1.384 . S
C493 C492 1.377 . S
C493 C499 1.390 . S
C494 H485 0.930 . S
C494 C492 1.384 . S
C494 C495 1.372 . S
C495 C494 1.372 . S
C495 C496 1.400 . S
C495 C500 1.490 . S
C496 H486 0.930 . S
C496 C495 1.400 . S
C496 C499 1.386 . S
H497 C513 0.930 . S
H498 C514 0.931 . S
C499 H487 0.929 . S
C499 C493 1.390 . S
C499 C496 1.386 . S
C500 C495 1.490 . S
C500 C502 1.395 . S
C500 C503 1.403 . S
H501 C507 0.930 . S
C502 H488 0.930 . S
C502 C500 1.395 . S
C502 C505 1.403 . S
C503 C500 1.403 . S
C503 C504 1.524 . S
C503 C507 1.400 . S
C504 H489 0.960 . S
C504 H490 0.960 . S
C504 H491 0.960 . S
C504 C503 1.524 . S
C505 C502 1.403 . S
C505 C506 1.392 . S
C505 C509 1.495 . S
C506 C505 1.392 . S
C506 C507 1.385 . S
C506 C508 1.478 . S
C507 H501 0.930 . S
C507 C503 1.400 . S
C507 C506 1.385 . S
C508 C506 1.478 . S
C508 C510 1.381 . S
C508 C514 1.383 . S
C509 C505 1.495 . S
C509 H515 0.959 . S
C509 H516 0.961 . S
C509 H517 0.960 . S
C510 C508 1.381 . S
C510 C511 1.394 . S
C510 H518 0.930 . S
C511 C510 1.394 . S
C511 C512 1.383 . S
C511 H519 0.929 . S
C512 C511 1.383 . S
C512 C513 1.377 . S
C513 H497 0.930 . S
C513 C512 1.377 . S
C513 C514 1.379 . S
C514 H498 0.931 . S
C514 C508 1.383 . S
C514 C513 1.379 . S
H515 C509 0.959 . S
H516 C509 0.961 . S
H517 C509 0.960 . S
H518 C510 0.930 . S
H519 C511 0.929 . S
H520 C528 0.929 . S
H521 C530 0.930 . S
H522 C532 0.930 . S
H523 C535 0.929 . S
H524 C538 0.930 . S
H525 C540 0.960 . S
H526 C540 0.960 . S
H527 C540 0.960 . S
C528 H520 0.929 . S
C528 C529 1.377 . S
C528 C530 1.384 . S
C529 C528 1.377 . S
C529 C535 1.390 . S
C530 H521 0.930 . S
C530 C528 1.384 . S
C530 C531 1.372 . S
C531 C530 1.372 . S
C531 C532 1.400 . S
C531 C536 1.490 . S
C532 H522 0.930 . S
C532 C531 1.400 . S
C532 C535 1.386 . S
H533 C549 0.930 . S
H534 C550 0.931 . S
C535 H523 0.929 . S
C535 C529 1.390 . S
C535 C532 1.386 . S
C536 C531 1.490 . S
C536 C538 1.395 . S
C536 C539 1.403 . S
H537 C543 0.930 . S
C538 H524 0.930 . S
C538 C536 1.395 . S
C538 C541 1.403 . S
C539 C536 1.403 . S
C539 C540 1.524 . S
C539 C543 1.400 . S
C540 H525 0.960 . S
C540 H526 0.960 . S
C540 H527 0.960 . S
C540 C539 1.524 . S
C541 C538 1.403 . S
C541 C542 1.392 . S
C541 C545 1.495 . S
C542 C541 1.392 . S
C542 C543 1.385 . S
C542 C544 1.478 . S
C543 H537 0.930 . S
C543 C539 1.400 . S
C543 C542 1.385 . S
C544 C542 1.478 . S
C544 C546 1.381 . S
C544 C550 1.383 . S
C545 C541 1.495 . S
C545 H551 0.959 . S
C545 H552 0.961 . S
C545 H553 0.960 . S
C546 C544 1.381 . S
C546 C547 1.394 . S
C546 H554 0.930 . S
C547 C546 1.394 . S
C547 C548 1.383 . S
C547 H555 0.929 . S
C548 C547 1.383 . S
C548 C549 1.377 . S
C549 H533 0.930 . S
C549 C548 1.377 . S
C549 C550 1.379 . S
C550 H534 0.931 . S
C550 C544 1.383 . S
C550 C549 1.379 . S
H551 C545 0.959 . S
H552 C545 0.961 . S
H553 C545 0.960 . S
H554 C546 0.930 . S
H555 C547 0.929 . S
H556 C564 0.929 . S
H557 C566 0.930 . S
H558 C568 0.930 . S
H559 C571 0.929 . S
H560 C574 0.930 . S
H561 C576 0.960 . S
H562 C576 0.960 . S
H563 C576 0.960 . S
C564 H556 0.929 . S
C564 C565 1.377 . S
C564 C566 1.384 . S
C565 C564 1.377 . S
C565 C571 1.390 . S
C566 H557 0.930 . S
C566 C564 1.384 . S
C566 C567 1.372 . S
C567 C566 1.372 . S
C567 C568 1.400 . S
C567 C572 1.490 . S
C568 H558 0.930 . S
C568 C567 1.400 . S
C568 C571 1.386 . S
H569 C585 0.930 . S
H570 C586 0.931 . S
C571 H559 0.929 . S
C571 C565 1.390 . S
C571 C568 1.386 . S
C572 C567 1.490 . S
C572 C574 1.395 . S
C572 C575 1.403 . S
H573 C579 0.930 . S
C574 H560 0.930 . S
C574 C572 1.395 . S
C574 C577 1.403 . S
C575 C572 1.403 . S
C575 C576 1.524 . S
C575 C579 1.400 . S
C576 H561 0.960 . S
C576 H562 0.960 . S
C576 H563 0.960 . S
C576 C575 1.524 . S
C577 C574 1.403 . S
C577 C578 1.392 . S
C577 C581 1.495 . S
C578 C577 1.392 . S
C578 C579 1.385 . S
C578 C580 1.478 . S
C579 H573 0.930 . S
C579 C575 1.400 . S
C579 C578 1.385 . S
C580 C578 1.478 . S
C580 C582 1.381 . S
C580 C586 1.383 . S
C581 C577 1.495 . S
C581 H587 0.959 . S
C581 H588 0.961 . S
C581 H589 0.960 . S
C582 C580 1.381 . S
C582 C583 1.394 . S
C582 H590 0.930 . S
C583 C582 1.394 . S
C583 C584 1.383 . S
C583 H591 0.929 . S
C584 C583 1.383 . S
C584 C585 1.377 . S
C585 H569 0.930 . S
C585 C584 1.377 . S
C585 C586 1.379 . S
C586 H570 0.931 . S
C586 C580 1.383 . S
C586 C585 1.379 . S
H587 C581 0.959 . S
H588 C581 0.961 . S
H589 C581 0.960 . S
H590 C582 0.930 . S
H591 C583 0.929 . S
H592 C600 0.929 . S
H593 C602 0.930 . S
H594 C604 0.930 . S
H595 C607 0.929 . S
H596 C610 0.930 . S
H597 C612 0.960 . S
H598 C612 0.960 . S
H599 C612 0.960 . S
C600 H592 0.929 . S
C600 C601 1.377 . S
C600 C602 1.384 . S
C601 C600 1.377 . S
C601 C607 1.390 . S
C602 H593 0.930 . S
C602 C600 1.384 . S
C602 C603 1.372 . S
C603 C602 1.372 . S
C603 C604 1.400 . S
C603 C608 1.490 . S
C604 H594 0.930 . S
C604 C603 1.400 . S
C604 C607 1.386 . S
H605 C621 0.930 . S
H606 C622 0.931 . S
C607 H595 0.929 . S
C607 C601 1.390 . S
C607 C604 1.386 . S
C608 C603 1.490 . S
C608 C610 1.395 . S
C608 C611 1.403 . S
H609 C615 0.930 . S
C610 H596 0.930 . S
C610 C608 1.395 . S
C610 C613 1.403 1_455 S
C611 C608 1.403 . S
C611 C612 1.524 . S
C611 C615 1.400 1_455 S
C612 H597 0.960 . S
C612 H598 0.960 . S
C612 H599 0.960 . S
C612 C611 1.524 . S
C613 C610 1.403 1_655 S
C613 C614 1.392 . S
C613 C617 1.495 . S
C614 C613 1.392 . S
C614 C615 1.385 . S
C614 C616 1.478 . S
C615 H609 0.930 . S
C615 C611 1.400 1_655 S
C615 C614 1.385 . S
C616 C614 1.478 . S
C616 C618 1.381 . S
C616 C622 1.383 . S
C617 C613 1.495 . S
C617 H623 0.959 . S
C617 H624 0.961 . S
C617 H625 0.960 . S
C618 C616 1.381 . S
C618 C619 1.394 . S
C618 H626 0.930 . S
C619 C618 1.394 . S
C619 C620 1.383 . S
C619 H627 0.929 . S
C620 C619 1.383 . S
C620 C621 1.377 . S
C621 H605 0.930 . S
C621 C620 1.377 . S
C621 C622 1.379 . S
C622 H606 0.931 . S
C622 C616 1.383 . S
C622 C621 1.379 . S
H623 C617 0.959 . S
H624 C617 0.961 . S
H625 C617 0.960 . S
H626 C618 0.930 . S
H627 C619 0.929 . S
H628 C636 0.929 . S
H629 C638 0.930 . S
H630 C640 0.930 . S
H631 C643 0.929 . S
H632 C646 0.930 . S
H633 C648 0.960 . S
H634 C648 0.960 . S
H635 C648 0.960 . S
C636 H628 0.929 . S
C636 C637 1.377 . S
C636 C638 1.384 . S
C637 C636 1.377 . S
C637 C643 1.390 . S
C638 H629 0.930 . S
C638 C636 1.384 . S
C638 C639 1.372 . S
C639 C638 1.372 . S
C639 C640 1.400 . S
C639 C644 1.490 . S
C640 H630 0.930 . S
C640 C639 1.400 . S
C640 C643 1.386 . S
H641 C657 0.930 . S
H642 C658 0.931 . S
C643 H631 0.929 . S
C643 C637 1.390 . S
C643 C640 1.386 . S
C644 C639 1.490 . S
C644 C646 1.395 . S
C644 C647 1.403 . S
H645 C651 0.930 . S
C646 H632 0.930 . S
C646 C644 1.395 . S
C646 C649 1.403 . S
C647 C644 1.403 . S
C647 C648 1.524 . S
C647 C651 1.400 . S
C648 H633 0.960 . S
C648 H634 0.960 . S
C648 H635 0.960 . S
C648 C647 1.524 . S
C649 C646 1.403 . S
C649 C650 1.392 . S
C649 C653 1.495 . S
C650 C649 1.392 . S
C650 C651 1.385 . S
C650 C652 1.478 . S
C651 H645 0.930 . S
C651 C647 1.400 . S
C651 C650 1.385 . S
C652 C650 1.478 . S
C652 C654 1.381 . S
C652 C658 1.383 . S
C653 C649 1.495 . S
C653 H659 0.959 . S
C653 H660 0.961 . S
C653 H661 0.960 . S
C654 C652 1.381 . S
C654 C655 1.394 . S
C654 H662 0.930 . S
C655 C654 1.394 . S
C655 C656 1.383 . S
C655 H663 0.929 . S
C656 C655 1.383 . S
C656 C657 1.377 . S
C657 H641 0.930 . S
C657 C656 1.377 . S
C657 C658 1.379 . S
C658 H642 0.931 . S
C658 C652 1.383 . S
C658 C657 1.379 . S
H659 C653 0.959 . S
H660 C653 0.961 . S
H661 C653 0.960 . S
H662 C654 0.930 . S
H663 C655 0.929 . S
H664 C672 0.929 . S
H665 C674 0.930 . S
H666 C676 0.932 . S
H667 C679 0.929 . S
H668 C682 0.930 . S
H669 C684 0.960 . S
H670 C684 0.960 . S
H671 C684 0.960 . S
C672 H664 0.929 . S
C672 C673 1.377 . S
C672 C674 1.384 . S
C673 C672 1.377 . S
C673 C679 1.390 . S
C674 H665 0.930 . S
C674 C672 1.384 . S
C674 C675 1.372 . S
C675 C674 1.372 . S
C675 C676 1.400 . S
C675 C680 1.490 . S
C676 H666 0.932 . S
C676 C675 1.400 . S
C676 C679 1.386 . S
H677 C693 0.930 1_556 S
H678 C694 0.931 1_556 S
C679 H667 0.929 . S
C679 C673 1.390 . S
C679 C676 1.386 . S
C680 C675 1.490 . S
C680 C682 1.395 . S
C680 C683 1.403 . S
H681 C687 0.930 . S
C682 H668 0.930 . S
C682 C680 1.395 . S
C682 C685 1.403 . S
C683 C680 1.403 . S
C683 C684 1.524 . S
C683 C687 1.400 . S
C684 H669 0.960 . S
C684 H670 0.960 . S
C684 H671 0.960 . S
C684 C683 1.524 . S
C685 C682 1.403 . S
C685 C686 1.392 . S
C685 C689 1.495 . S
C686 C685 1.392 . S
C686 C687 1.385 . S
C686 C688 1.478 . S
C687 H681 0.930 . S
C687 C683 1.400 . S
C687 C686 1.385 . S
C688 C686 1.478 . S
C688 C690 1.381 . S
C688 C694 1.383 . S
C689 C685 1.495 . S
C689 H695 0.959 . S
C689 H696 0.961 . S
C689 H697 0.960 . S
C690 C688 1.381 . S
C690 C691 1.394 . S
C690 H698 0.930 . S
C691 C690 1.394 . S
C691 C692 1.383 . S
C691 H699 0.929 . S
C692 C691 1.383 . S
C692 C693 1.377 . S
C693 H677 0.930 1_554 S
C693 C692 1.377 . S
C693 C694 1.379 . S
C694 H678 0.931 1_554 S
C694 C688 1.383 . S
C694 C693 1.379 . S
H695 C689 0.959 . S
H696 C689 0.961 . S
H697 C689 0.960 . S
H698 C690 0.930 . S
H699 C691 0.929 . S
H700 C708 0.929 . S
H701 C710 0.930 . S
H702 C712 0.930 . S
H703 C715 0.929 . S
H704 C718 0.930 . S
H705 C720 0.960 . S
H706 C720 0.960 . S
H707 C720 0.960 . S
C708 H700 0.929 . S
C708 C709 1.377 . S
C708 C710 1.384 . S
C709 C708 1.377 . S
C709 C715 1.390 . S
C710 H701 0.930 . S
C710 C708 1.384 . S
C710 C711 1.372 . S
C711 C710 1.372 . S
C711 C712 1.400 . S
C711 C716 1.490 . S
C712 H702 0.930 . S
C712 C711 1.400 . S
C712 C715 1.386 . S
H713 C729 0.930 . S
H714 C730 0.931 . S
C715 H703 0.929 . S
C715 C709 1.390 . S
C715 C712 1.386 . S
C716 C711 1.490 . S
C716 C718 1.395 . S
C716 C719 1.403 . S
H717 C723 0.930 . S
C718 H704 0.930 . S
C718 C716 1.395 . S
C718 C721 1.403 . S
C719 C716 1.403 . S
C719 C720 1.524 . S
C719 C723 1.400 . S
C720 H705 0.960 . S
C720 H706 0.960 . S
C720 H707 0.960 . S
C720 C719 1.524 . S
C721 C718 1.403 . S
C721 C722 1.392 . S
C721 C725 1.495 . S
C722 C721 1.392 . S
C722 C723 1.385 . S
C722 C724 1.478 . S
C723 H717 0.930 . S
C723 C719 1.400 . S
C723 C722 1.385 . S
C724 C722 1.478 . S
C724 C726 1.381 . S
C724 C730 1.383 . S
C725 C721 1.495 . S
C725 H731 0.959 . S
C725 H732 0.961 . S
C725 H733 0.960 . S
C726 C724 1.381 . S
C726 C727 1.394 . S
C726 H734 0.930 . S
C727 C726 1.394 . S
C727 C728 1.383 . S
C727 H735 0.929 . S
C728 C727 1.383 . S
C728 C729 1.377 . S
C729 H713 0.930 . S
C729 C728 1.377 . S
C729 C730 1.379 . S
C730 H714 0.931 . S
C730 C724 1.383 . S
C730 C729 1.379 . S
H731 C725 0.959 . S
H732 C725 0.961 . S
H733 C725 0.960 . S
H734 C726 0.930 . S
H735 C727 0.929 . S
H736 C744 0.929 . S
H737 C746 0.930 . S
H738 C748 0.930 . S
H739 C751 0.929 . S
H740 C754 0.930 . S
H741 C756 0.960 . S
H742 C756 0.960 . S
H743 C756 0.960 . S
C744 H736 0.929 . S
C744 C745 1.377 . S
C744 C746 1.384 . S
C745 C744 1.377 . S
C745 C751 1.390 . S
C746 H737 0.930 . S
C746 C744 1.384 . S
C746 C747 1.372 . S
C747 C746 1.372 . S
C747 C748 1.400 . S
C747 C752 1.490 . S
C748 H738 0.930 . S
C748 C747 1.400 . S
C748 C751 1.386 . S
H749 C765 0.930 . S
H750 C766 0.931 . S
C751 H739 0.929 . S
C751 C745 1.390 . S
C751 C748 1.386 . S
C752 C747 1.490 . S
C752 C754 1.395 . S
C752 C755 1.403 . S
H753 C759 0.930 . S
C754 H740 0.930 . S
C754 C752 1.395 . S
C754 C757 1.403 . S
C755 C752 1.403 . S
C755 C756 1.524 . S
C755 C759 1.400 . S
C756 H741 0.960 . S
C756 H742 0.960 . S
C756 H743 0.960 . S
C756 C755 1.524 . S
C757 C754 1.403 . S
C757 C758 1.392 . S
C757 C761 1.495 . S
C758 C757 1.392 . S
C758 C759 1.385 . S
C758 C760 1.478 . S
C759 H753 0.930 . S
C759 C755 1.400 . S
C759 C758 1.385 . S
C760 C758 1.478 . S
C760 C762 1.381 . S
C760 C766 1.383 . S
C761 C757 1.495 . S
C761 H767 0.959 . S
C761 H768 0.961 . S
C761 H769 0.960 . S
C762 C760 1.381 . S
C762 C763 1.394 . S
C762 H770 0.930 . S
C763 C762 1.394 . S
C763 C764 1.383 . S
C763 H771 0.929 . S
C764 C763 1.383 . S
C764 C765 1.377 . S
C765 H749 0.930 . S
C765 C764 1.377 . S
C765 C766 1.379 . S
C766 H750 0.931 . S
C766 C760 1.383 . S
C766 C765 1.379 . S
H767 C761 0.959 . S
H768 C761 0.961 . S
H769 C761 0.960 . S
H770 C762 0.930 . S
H771 C763 0.929 . S
H772 C780 0.929 . S
H773 C782 0.930 . S
H774 C784 0.930 . S
H775 C787 0.929 . S
H776 C790 0.930 . S
H777 C792 0.960 . S
H778 C792 0.960 . S
H779 C792 0.960 . S
C780 H772 0.929 . S
C780 C781 1.377 . S
C780 C782 1.384 . S
C781 C780 1.377 . S
C781 C787 1.390 . S
C782 H773 0.930 . S
C782 C780 1.384 . S
C782 C783 1.372 . S
C783 C782 1.372 . S
C783 C784 1.400 . S
C783 C788 1.490 . S
C784 H774 0.930 . S
C784 C783 1.400 . S
C784 C787 1.386 . S
H785 C801 0.930 . S
H786 C802 0.931 . S
C787 H775 0.929 . S
C787 C781 1.390 . S
C787 C784 1.386 . S
C788 C783 1.490 . S
C788 C790 1.395 . S
C788 C791 1.403 . S
H789 C795 0.930 . S
C790 H776 0.930 . S
C790 C788 1.395 . S
C790 C793 1.403 . S
C791 C788 1.403 . S
C791 C792 1.524 . S
C791 C795 1.400 . S
C792 H777 0.960 . S
C792 H778 0.960 . S
C792 H779 0.960 . S
C792 C791 1.524 . S
C793 C790 1.403 . S
C793 C794 1.392 . S
C793 C797 1.495 . S
C794 C793 1.392 . S
C794 C795 1.385 . S
C794 C796 1.478 . S
C795 H789 0.930 . S
C795 C791 1.400 . S
C795 C794 1.385 . S
C796 C794 1.478 . S
C796 C798 1.381 . S
C796 C802 1.383 . S
C797 C793 1.495 . S
C797 H803 0.959 . S
C797 H804 0.961 . S
C797 H805 0.960 . S
C798 C796 1.381 . S
C798 C799 1.394 . S
C798 H806 0.930 . S
C799 C798 1.394 . S
C799 C800 1.383 . S
C799 H807 0.929 . S
C800 C799 1.383 . S
C800 C801 1.377 . S
C801 H785 0.930 . S
C801 C800 1.377 . S
C801 C802 1.379 . S
C802 H786 0.931 . S
C802 C796 1.383 . S
C802 C801 1.379 . S
H803 C797 0.959 . S
H804 C797 0.961 . S
H805 C797 0.960 . S
H806 C798 0.930 . S
H807 C799 0.929 . S
H808 C816 0.929 . S
H809 C818 0.930 . S
H810 C820 0.930 . S
H811 C823 0.929 . S
H812 C826 0.930 . S
H813 C828 0.960 . S
H814 C828 0.960 . S
H815 C828 0.960 . S
C816 H808 0.929 . S
C816 C817 1.377 . S
C816 C818 1.384 . S
C817 C816 1.377 . S
C817 C823 1.390 . S
C818 H809 0.930 . S
C818 C816 1.384 . S
C818 C819 1.372 . S
C819 C818 1.372 . S
C819 C820 1.400 . S
C819 C824 1.490 . S
C820 H810 0.930 . S
C820 C819 1.400 . S
C820 C823 1.386 . S
H821 C837 0.930 . S
H822 C838 0.931 . S
C823 H811 0.929 . S
C823 C817 1.390 . S
C823 C820 1.386 . S
C824 C819 1.490 . S
C824 C826 1.395 . S
C824 C827 1.403 . S
H825 C831 0.930 . S
C826 H812 0.930 . S
C826 C824 1.395 . S
C826 C829 1.403 . S
C827 C824 1.403 . S
C827 C828 1.524 . S
C827 C831 1.400 . S
C828 H813 0.960 . S
C828 H814 0.960 . S
C828 H815 0.960 . S
C828 C827 1.524 . S
C829 C826 1.403 . S
C829 C830 1.392 . S
C829 C833 1.495 . S
C830 C829 1.392 . S
C830 C831 1.385 . S
C830 C832 1.478 . S
C831 H825 0.930 . S
C831 C827 1.400 . S
C831 C830 1.385 . S
C832 C830 1.478 . S
C832 C834 1.381 . S
C832 C838 1.383 . S
C833 C829 1.495 . S
C833 H839 0.959 . S
C833 H840 0.961 . S
C833 H841 0.960 . S
C834 C832 1.381 . S
C834 C835 1.394 . S
C834 H842 0.930 . S
C835 C834 1.394 . S
C835 C836 1.383 . S
C835 H843 0.929 . S
C836 C835 1.383 . S
C836 C837 1.377 . S
C837 H821 0.930 . S
C837 C836 1.377 . S
C837 C838 1.379 . S
C838 H822 0.931 . S
C838 C832 1.383 . S
C838 C837 1.379 . S
H839 C833 0.959 . S
H840 C833 0.961 . S
H841 C833 0.960 . S
H842 C834 0.930 . S
H843 C835 0.929 . S
H844 C852 0.929 . S
H845 C854 0.930 . S
H846 C856 0.930 . S
H847 C859 0.929 . S
H848 C862 0.930 . S
H849 C864 0.960 . S
H850 C864 0.960 . S
H851 C864 0.960 . S
C852 H844 0.929 . S
C852 C853 1.377 . S
C852 C854 1.384 . S
C853 C852 1.377 . S
C853 C859 1.390 . S
C854 H845 0.930 . S
C854 C852 1.384 . S
C854 C855 1.372 . S
C855 C854 1.372 . S
C855 C856 1.400 . S
C855 C860 1.490 . S
C856 H846 0.930 . S
C856 C855 1.400 . S
C856 C859 1.386 . S
H857 C873 0.930 . S
H858 C874 0.931 . S
C859 H847 0.929 . S
C859 C853 1.390 . S
C859 C856 1.386 . S
C860 C855 1.490 . S
C860 C862 1.395 . S
C860 C863 1.403 . S
H861 C867 0.930 . S
C862 H848 0.930 . S
C862 C860 1.395 . S
C862 C865 1.403 . S
C863 C860 1.403 . S
C863 C864 1.524 . S
C863 C867 1.400 . S
C864 H849 0.960 . S
C864 H850 0.960 . S
C864 H851 0.960 . S
C864 C863 1.524 . S
C865 C862 1.403 . S
C865 C866 1.392 . S
C865 C869 1.495 . S
C866 C865 1.392 . S
C866 C867 1.385 . S
C866 C868 1.478 . S
C867 H861 0.930 . S
C867 C863 1.400 . S
C867 C866 1.385 . S
C868 C866 1.478 . S
C868 C870 1.381 . S
C868 C874 1.383 . S
C869 C865 1.495 . S
C869 H875 0.959 . S
C869 H876 0.961 . S
C869 H877 0.960 . S
C870 C868 1.381 . S
C870 C871 1.394 . S
C870 H878 0.930 . S
C871 C870 1.394 . S
C871 C872 1.383 . S
C871 H879 0.929 . S
C872 C871 1.383 . S
C872 C873 1.377 . S
C873 H857 0.930 . S
C873 C872 1.377 . S
C873 C874 1.379 . S
C874 H858 0.931 . S
C874 C868 1.383 . S
C874 C873 1.379 . S
H875 C869 0.959 . S
H876 C869 0.961 . S
H877 C869 0.960 . S
H878 C870 0.930 . S
H879 C871 0.929 . S
H880 C888 0.929 . S
H881 C890 0.930 . S
H882 C892 0.930 1_565 S
H883 C895 0.913 1_565 S
H884 C898 0.930 . S
H885 C900 0.960 . S
H886 C900 0.960 . S
H887 C900 0.960 . S
C888 H880 0.929 . S
C888 C889 1.377 . S
C888 C890 1.384 . S
C889 C888 1.377 . S
C889 C895 1.390 . S
C890 H881 0.930 . S
C890 C888 1.384 . S
C890 C891 1.372 . S
C891 C890 1.372 . S
C891 C892 1.400 . S
C891 C896 1.490 . S
C892 H882 0.930 1_545 S
C892 C891 1.400 . S
C892 C895 1.386 . S
H893 C909 0.930 . S
H894 C910 0.931 . S
C895 H883 0.913 1_545 S
C895 C889 1.390 . S
C895 C892 1.386 . S
C896 C891 1.490 . S
C896 C898 1.395 . S
C896 C899 1.403 1_545 S
H897 C903 0.930 . S
C898 H884 0.930 . S
C898 C896 1.395 . S
C898 C901 1.403 . S
C899 C896 1.403 1_565 S
C899 C900 1.524 . S
C899 C903 1.400 . S
C900 H885 0.960 . S
C900 H886 0.960 . S
C900 H887 0.960 . S
C900 C899 1.524 . S
C901 C898 1.403 . S
C901 C902 1.392 1_545 S
C901 C905 1.495 . S
C902 C901 1.392 1_565 S
C902 C903 1.385 . S
C902 C904 1.478 . S
C903 H897 0.930 . S
C903 C899 1.400 . S
C903 C902 1.385 . S
C904 C902 1.478 . S
C904 C906 1.386 1_565 S
C904 C910 1.383 . S
C905 C901 1.495 . S
C905 H911 0.959 . S
C905 H912 0.961 . S
C905 H913 0.960 . S
C906 C904 1.386 1_545 S
C906 C907 1.397 1_545 S
C906 H914 0.923 . S
C907 C906 1.397 1_565 S
C907 C908 1.383 . S
C907 H915 0.925 . S
C908 C907 1.383 . S
C908 C909 1.377 . S
C909 H893 0.930 . S
C909 C908 1.377 . S
C909 C910 1.379 . S
C910 H894 0.931 . S
C910 C904 1.383 . S
C910 C909 1.379 . S
H911 C905 0.959 . S
H912 C905 0.961 . S
H913 C905 0.960 . S
H914 C906 0.923 . S
H915 C907 0.925 . S
H916 C924 0.929 . S
H917 C926 0.930 . S
H918 C928 0.930 1_565 S
H919 C931 0.929 . S
H920 C934 0.930 . S
H921 C936 0.960 . S
H922 C936 0.960 . S
H923 C936 0.960 . S
C924 H916 0.929 . S
C924 C925 1.377 . S
C924 C926 1.384 . S
C925 C924 1.377 . S
C925 C931 1.390 . S
C926 H917 0.930 . S
C926 C924 1.384 . S
C926 C927 1.372 . S
C927 C926 1.372 . S
C927 C928 1.400 . S
C927 C932 1.490 . S
C928 H918 0.930 1_545 S
C928 C927 1.400 . S
C928 C931 1.386 . S
H929 C945 0.930 . S
H930 C946 0.931 . S
C931 H919 0.929 . S
C931 C925 1.390 . S
C931 C928 1.386 . S
C932 C927 1.490 . S
C932 C934 1.395 . S
C932 C935 1.403 . S
H933 C939 0.930 1_556 S
C934 H920 0.930 . S
C934 C932 1.395 . S
C934 C937 1.403 1_645 S
C935 C932 1.403 . S
C935 C936 1.524 1_554 S
C935 C939 1.400 1_645 S
C936 H921 0.960 . S
C936 H922 0.960 . S
C936 H923 0.960 . S
C936 C935 1.524 1_556 S
C937 C934 1.403 1_465 S
C937 C938 1.392 . S
C937 C941 1.495 . S
C938 C937 1.392 . S
C938 C939 1.385 . S
C938 C940 1.478 . S
C939 H933 0.930 1_554 S
C939 C935 1.400 1_465 S
C939 C938 1.385 . S
C940 C938 1.478 . S
C940 C942 1.381 . S
C940 C946 1.383 . S
C941 C937 1.495 . S
C941 H947 0.959 . S
C941 H948 0.961 . S
C941 H949 0.960 . S
C942 C940 1.381 . S
C942 C943 1.394 . S
C942 H950 0.930 1_565 S
C943 C942 1.394 . S
C943 C944 1.383 . S
C943 H951 0.929 . S
C944 C943 1.383 . S
C944 C945 1.377 . S
C945 H929 0.930 . S
C945 C944 1.377 . S
C945 C946 1.379 . S
C946 H930 0.931 . S
C946 C940 1.383 . S
C946 C945 1.379 . S
H947 C941 0.959 . S
H948 C941 0.961 . S
H949 C941 0.960 . S
H950 C942 0.930 1_545 S
H951 C943 0.929 . S
H952 C960 0.929 1_556 S
H953 C962 0.925 1_566 S
H954 C964 0.930 . S
H955 C967 0.929 . S
H956 C970 0.930 . S
H957 C972 0.960 . S
H958 C972 0.960 1_556 S
H959 C972 0.960 . S
C960 H952 0.929 1_554 S
C960 C961 1.377 . S
C960 C962 1.384 . S
C961 C960 1.377 . S
C961 C967 1.390 . S
C962 H953 0.925 1_544 S
C962 C960 1.384 . S
C962 C963 1.372 . S
C963 C962 1.372 . S
C963 C964 1.400 . S
C963 C968 1.490 . S
C964 H954 0.930 . S
C964 C963 1.400 . S
C964 C967 1.386 . S
H965 C981 0.930 . S
H966 C982 0.962 . S
C967 H955 0.929 . S
C967 C961 1.390 . S
C967 C964 1.386 . S
C968 C963 1.490 . S
C968 C970 1.395 1_545 S
C968 C971 1.403 . S
H969 C975 0.930 . S
C970 H956 0.930 . S
C970 C968 1.395 1_565 S
C970 C973 1.403 . S
C971 C968 1.403 . S
C971 C972 1.524 . S
C971 C975 1.400 . S
C972 H957 0.960 . S
C972 H958 0.960 1_554 S
C972 H959 0.960 . S
C972 C971 1.524 . S
C973 C970 1.403 . S
C973 C974 1.392 . S
C973 C977 1.495 . S
C974 C973 1.392 . S
C974 C975 1.385 1_565 S
C974 C976 1.478 . S
C975 H969 0.930 . S
C975 C971 1.400 . S
C975 C974 1.385 1_545 S
C976 C974 1.478 . S
C976 C978 1.381 . S
C976 C982 1.383 . S
C977 C973 1.495 . S
C977 H983 0.959 . S
C977 H984 0.961 . S
C977 H985 0.960 . S
C978 C976 1.381 . S
C978 C979 1.394 . S
C978 H986 0.930 . S
C979 C978 1.394 . S
C979 C980 1.383 . S
C979 H987 0.929 . S
C980 C979 1.383 . S
C980 C981 1.377 . S
C981 H965 0.930 . S
C981 C980 1.377 . S
C981 C982 1.379 . S
C982 H966 0.962 . S
C982 C976 1.383 . S
C982 C981 1.379 . S
H983 C977 0.959 . S
H984 C977 0.961 . S
H985 C977 0.960 . S
H986 C978 0.930 . S
H987 C979 0.929 . S
H988 C996 0.929 . S
H989 C998 0.930 . S
H990 C1000 0.930 . S
H991 C1003 0.929 . S
H992 C1006 0.930 . S
H993 C1008 0.960 1_655 S
H994 C1008 0.960 . S
H995 C1008 0.960 . S
C996 H988 0.929 . S
C996 C997 1.377 . S
C996 C998 1.384 . S
C997 C996 1.377 . S
C997 C1003 1.390 . S
C998 H989 0.930 . S
C998 C996 1.384 . S
C998 C999 1.372 . S
C999 C998 1.372 . S
C999 C1000 1.400 . S
C999 C1004 1.490 . S
C1000 H990 0.930 . S
C1000 C999 1.400 . S
C1000 C1003 1.386 . S
H1001 C1017 0.930 . S
H1002 C1018 0.931 . S
C1003 H991 0.929 . S
C1003 C997 1.390 . S
C1003 C1000 1.386 . S
C1004 C999 1.490 . S
C1004 C1006 1.395 1_545 S
C1004 C1007 1.403 . S
H1005 C1011 0.930 . S
C1006 H992 0.930 . S
C1006 C1004 1.395 1_565 S
C1006 C1009 1.403 1_455 S
C1007 C1004 1.403 . S
C1007 C1008 1.524 . S
C1007 C1011 1.400 1_455 S
C1008 H993 0.960 1_455 S
C1008 H994 0.960 . S
C1008 H995 0.960 . S
C1008 C1007 1.524 . S
C1009 C1006 1.403 1_655 S
C1009 C1010 1.392 . S
C1009 C1013 1.495 . S
C1010 C1009 1.392 . S
C1010 C1011 1.385 1_565 S
C1010 C1012 1.478 . S
C1011 H1005 0.930 . S
C1011 C1007 1.400 1_655 S
C1011 C1010 1.385 1_545 S
C1012 C1010 1.478 . S
C1012 C1014 1.381 . S
C1012 C1018 1.383 . S
C1013 C1009 1.495 . S
C1013 H1019 0.959 1_655 S
C1013 H1020 0.961 . S
C1013 H1021 0.960 . S
C1014 C1012 1.381 . S
C1014 C1015 1.394 . S
C1014 H1022 0.930 . S
C1015 C1014 1.394 . S
C1015 C1016 1.383 . S
C1015 H1023 0.929 . S
C1016 C1015 1.383 . S
C1016 C1017 1.377 . S
C1017 H1001 0.930 . S
C1017 C1016 1.377 . S
C1017 C1018 1.379 . S
C1018 H1002 0.931 . S
C1018 C1012 1.383 . S
C1018 C1017 1.379 . S
H1019 C1013 0.959 1_455 S
H1020 C1013 0.961 . S
H1021 C1013 0.960 . S
H1022 C1014 0.930 . S
H1023 C1015 0.929 . S
H1024 C1032 0.929 . S
H1025 C1034 0.930 . S
H1026 C1036 0.930 . S
H1027 C1039 0.929 . S
H1028 C1042 0.930 . S
H1029 C1044 0.960 . S
H1030 C1044 0.960 . S
H1031 C1044 0.960 . S
C1032 H1024 0.929 . S
C1032 C1033 1.377 . S
C1032 C1034 1.384 . S
C1033 C1032 1.377 . S
C1033 C1039 1.390 . S
C1034 H1025 0.930 . S
C1034 C1032 1.384 . S
C1034 C1035 1.372 . S
C1035 C1034 1.372 . S
C1035 C1036 1.400 . S
C1035 C1040 1.490 . S
C1036 H1026 0.930 . S
C1036 C1035 1.400 . S
C1036 C1039 1.386 . S
H1037 C1053 0.930 . S
H1038 C1054 0.931 . S
C1039 H1027 0.929 . S
C1039 C1033 1.390 . S
C1039 C1036 1.386 . S
C1040 C1035 1.490 . S
C1040 C1042 1.395 . S
C1040 C1043 1.403 . S
H1041 C1047 0.930 . S
C1042 H1028 0.930 . S
C1042 C1040 1.395 . S
C1042 C1045 1.403 . S
C1043 C1040 1.403 . S
C1043 C1044 1.524 . S
C1043 C1047 1.400 . S
C1044 H1029 0.960 . S
C1044 H1030 0.960 . S
C1044 H1031 0.960 . S
C1044 C1043 1.524 . S
C1045 C1042 1.403 . S
C1045 C1046 1.392 . S
C1045 C1049 1.495 . S
C1046 C1045 1.392 . S
C1046 C1047 1.385 . S
C1046 C1048 1.478 . S
C1047 H1041 0.930 . S
C1047 C1043 1.400 . S
C1047 C1046 1.385 . S
C1048 C1046 1.478 . S
C1048 C1050 1.381 . S
C1048 C1054 1.383 . S
C1049 C1045 1.495 . S
C1049 H1055 0.959 . S
C1049 H1056 0.961 . S
C1049 H1057 0.960 . S
C1050 C1048 1.381 . S
C1050 C1051 1.394 . S
C1050 H1058 0.930 . S
C1051 C1050 1.394 . S
C1051 C1052 1.383 . S
C1051 H1059 0.929 . S
C1052 C1051 1.383 . S
C1052 C1053 1.377 . S
C1053 H1037 0.930 . S
C1053 C1052 1.377 . S
C1053 C1054 1.379 . S
C1054 H1038 0.931 . S
C1054 C1048 1.383 . S
C1054 C1053 1.379 . S
H1055 C1049 0.959 . S
H1056 C1049 0.961 . S
H1057 C1049 0.960 . S
H1058 C1050 0.930 . S
H1059 C1051 0.929 . S
H1060 C1068 0.929 . S
H1061 C1070 0.930 . S
H1062 C1072 0.930 . S
H1063 C1075 0.929 . S
H1064 C1078 0.924 1_556 S
H1065 C1080 0.960 . S
H1066 C1080 0.960 . S
H1067 C1080 0.960 . S
C1068 H1060 0.929 . S
C1068 C1069 1.377 . S
C1068 C1070 1.384 . S
C1069 C1068 1.377 . S
C1069 C1075 1.390 . S
C1070 H1061 0.930 . S
C1070 C1068 1.384 . S
C1070 C1071 1.372 . S
C1071 C1070 1.372 . S
C1071 C1072 1.400 . S
C1071 C1076 1.490 1_556 S
C1072 H1062 0.930 . S
C1072 C1071 1.400 . S
C1072 C1075 1.386 . S
H1073 C1089 0.930 . S
H1074 C1090 0.931 . S
C1075 H1063 0.929 . S
C1075 C1069 1.390 . S
C1075 C1072 1.386 . S
C1076 C1071 1.490 1_554 S
C1076 C1078 1.395 . S
C1076 C1079 1.403 . S
H1077 C1083 0.930 . S
C1078 H1064 0.924 1_554 S
C1078 C1076 1.395 . S
C1078 C1081 1.403 . S
C1079 C1076 1.403 . S
C1079 C1080 1.524 . S
C1079 C1083 1.400 . S
C1080 H1065 0.960 . S
C1080 H1066 0.960 . S
C1080 H1067 0.960 . S
C1080 C1079 1.524 . S
C1081 C1078 1.403 . S
C1081 C1082 1.392 . S
C1081 C1085 1.495 . S
C1082 C1081 1.392 . S
C1082 C1083 1.385 . S
C1082 C1084 1.478 . S
C1083 H1077 0.930 . S
C1083 C1079 1.400 . S
C1083 C1082 1.385 . S
C1084 C1082 1.478 . S
C1084 C1086 1.381 . S
C1084 C1090 1.383 . S
C1085 C1081 1.495 . S
C1085 H1091 0.959 . S
C1085 H1092 0.961 . S
C1085 H1093 0.960 . S
C1086 C1084 1.381 . S
C1086 C1087 1.394 . S
C1086 H1094 0.930 . S
C1087 C1086 1.394 . S
C1087 C1088 1.383 . S
C1087 H1095 0.929 . S
C1088 C1087 1.383 . S
C1088 C1089 1.377 . S
C1089 H1073 0.930 . S
C1089 C1088 1.377 . S
C1089 C1090 1.379 . S
C1090 H1074 0.931 . S
C1090 C1084 1.383 . S
C1090 C1089 1.379 . S
H1091 C1085 0.959 . S
H1092 C1085 0.961 . S
H1093 C1085 0.960 . S
H1094 C1086 0.930 . S
H1095 C1087 0.929 . S
H1096 C1104 0.929 . S
H1097 C1106 0.930 . S
H1098 C1108 0.930 . S
H1099 C1111 0.929 . S
H1100 C1114 0.930 . S
H1101 C1116 0.960 . S
H1102 C1116 0.960 . S
H1103 C1116 0.960 . S
C1104 H1096 0.929 . S
C1104 C1105 1.377 . S
C1104 C1106 1.384 . S
C1105 C1104 1.377 . S
C1105 C1111 1.390 . S
C1106 H1097 0.930 . S
C1106 C1104 1.384 . S
C1106 C1107 1.372 . S
C1107 C1106 1.372 . S
C1107 C1108 1.400 . S
C1107 C1112 1.490 . S
C1108 H1098 0.930 . S
C1108 C1107 1.400 . S
C1108 C1111 1.386 . S
H1109 C1125 0.930 . S
H1110 C1126 0.931 . S
C1111 H1099 0.929 . S
C1111 C1105 1.390 . S
C1111 C1108 1.386 . S
C1112 C1107 1.490 . S
C1112 C1114 1.395 . S
C1112 C1115 1.403 . S
H1113 C1119 0.930 . S
C1114 H1100 0.930 . S
C1114 C1112 1.395 . S
C1114 C1117 1.403 . S
C1115 C1112 1.403 . S
C1115 C1116 1.524 . S
C1115 C1119 1.400 . S
C1116 H1101 0.960 . S
C1116 H1102 0.960 . S
C1116 H1103 0.960 . S
C1116 C1115 1.524 . S
C1117 C1114 1.403 . S
C1117 C1118 1.392 . S
C1117 C1121 1.495 . S
C1118 C1117 1.392 . S
C1118 C1119 1.385 . S
C1118 C1120 1.478 . S
C1119 H1113 0.930 . S
C1119 C1115 1.400 . S
C1119 C1118 1.385 . S
C1120 C1118 1.478 . S
C1120 C1122 1.381 . S
C1120 C1126 1.383 . S
C1121 C1117 1.495 . S
C1121 H1127 0.959 . S
C1121 H1128 0.961 . S
C1121 H1129 0.960 . S
C1122 C1120 1.381 . S
C1122 C1123 1.394 . S
C1122 H1130 0.930 . S
C1123 C1122 1.394 . S
C1123 C1124 1.383 . S
C1123 H1131 0.929 . S
C1124 C1123 1.383 . S
C1124 C1125 1.377 . S
C1125 H1109 0.930 . S
C1125 C1124 1.377 . S
C1125 C1126 1.379 . S
C1126 H1110 0.931 . S
C1126 C1120 1.383 . S
C1126 C1125 1.379 . S
H1127 C1121 0.959 . S
H1128 C1121 0.961 . S
H1129 C1121 0.960 . S
H1130 C1122 0.930 . S
H1131 C1123 0.929 . S
H1132 C1140 0.929 . S
H1133 C1142 0.930 . S
H1134 C1144 0.930 . S
H1135 C1147 0.929 . S
H1136 C1150 0.930 . S
H1137 C1152 0.960 . S
H1138 C1152 0.960 . S
H1139 C1152 0.960 . S
C1140 H1132 0.929 . S
C1140 C1141 1.377 . S
C1140 C1142 1.384 . S
C1141 C1140 1.377 . S
C1141 C1147 1.390 . S
C1142 H1133 0.930 . S
C1142 C1140 1.384 . S
C1142 C1143 1.372 . S
C1143 C1142 1.372 . S
C1143 C1144 1.400 . S
C1143 C1148 1.490 . S
C1144 H1134 0.930 . S
C1144 C1143 1.400 . S
C1144 C1147 1.386 . S
H1145 C1161 0.930 . S
H1146 C1162 0.931 . S
C1147 H1135 0.929 . S
C1147 C1141 1.390 . S
C1147 C1144 1.386 . S
C1148 C1143 1.490 . S
C1148 C1150 1.395 . S
C1148 C1151 1.403 . S
H1149 C1155 0.930 . S
C1150 H1136 0.930 . S
C1150 C1148 1.395 . S
C1150 C1153 1.403 . S
C1151 C1148 1.403 . S
C1151 C1152 1.524 . S
C1151 C1155 1.400 . S
C1152 H1137 0.960 . S
C1152 H1138 0.960 . S
C1152 H1139 0.960 . S
C1152 C1151 1.524 . S
C1153 C1150 1.403 . S
C1153 C1154 1.392 . S
C1153 C1157 1.495 . S
C1154 C1153 1.392 . S
C1154 C1155 1.385 . S
C1154 C1156 1.478 . S
C1155 H1149 0.930 . S
C1155 C1151 1.400 . S
C1155 C1154 1.385 . S
C1156 C1154 1.478 . S
C1156 C1158 1.381 . S
C1156 C1162 1.383 . S
C1157 C1153 1.495 . S
C1157 H1163 0.959 . S
C1157 H1164 0.961 . S
C1157 H1165 0.960 . S
C1158 C1156 1.381 . S
C1158 C1159 1.394 . S
C1158 H1166 0.930 . S
C1159 C1158 1.394 . S
C1159 C1160 1.383 . S
C1159 H1167 0.929 . S
C1160 C1159 1.383 . S
C1160 C1161 1.377 . S
C1161 H1145 0.930 . S
C1161 C1160 1.377 . S
C1161 C1162 1.379 . S
C1162 H1146 0.931 . S
C1162 C1156 1.383 . S
C1162 C1161 1.379 . S
H1163 C1157 0.959 . S
H1164 C1157 0.961 . S
H1165 C1157 0.960 . S
H1166 C1158 0.930 . S
H1167 C1159 0.929 . S
H1168 C1176 0.929 . S
H1169 C1178 0.930 . S
H1170 C1180 0.930 . S
H1171 C1183 0.929 . S
H1172 C1186 0.930 . S
H1173 C1188 0.960 . S
H1174 C1188 0.960 . S
H1175 C1188 0.960 . S
C1176 H1168 0.929 . S
C1176 C1177 1.377 . S
C1176 C1178 1.384 . S
C1177 C1176 1.377 . S
C1177 C1183 1.390 . S
C1178 H1169 0.930 . S
C1178 C1176 1.384 . S
C1178 C1179 1.372 . S
C1179 C1178 1.372 . S
C1179 C1180 1.400 . S
C1179 C1184 1.490 . S
C1180 H1170 0.930 . S
C1180 C1179 1.400 . S
C1180 C1183 1.386 . S
H1181 C1197 0.930 . S
H1182 C1198 0.931 . S
C1183 H1171 0.929 . S
C1183 C1177 1.390 . S
C1183 C1180 1.386 . S
C1184 C1179 1.490 . S
C1184 C1186 1.395 . S
C1184 C1187 1.403 . S
H1185 C1191 0.930 . S
C1186 H1172 0.930 . S
C1186 C1184 1.395 . S
C1186 C1189 1.403 . S
C1187 C1184 1.403 . S
C1187 C1188 1.524 . S
C1187 C1191 1.400 . S
C1188 H1173 0.960 . S
C1188 H1174 0.960 . S
C1188 H1175 0.960 . S
C1188 C1187 1.524 . S
C1189 C1186 1.403 . S
C1189 C1190 1.392 . S
C1189 C1193 1.495 . S
C1190 C1189 1.392 . S
C1190 C1191 1.385 . S
C1190 C1192 1.478 . S
C1191 H1185 0.930 . S
C1191 C1187 1.400 . S
C1191 C1190 1.385 . S
C1192 C1190 1.478 . S
C1192 C1194 1.381 . S
C1192 C1198 1.383 . S
C1193 C1189 1.495 . S
C1193 H1199 0.959 . S
C1193 H1200 0.961 . S
C1193 H1201 0.960 . S
C1194 C1192 1.381 . S
C1194 C1195 1.394 . S
C1194 H1202 0.930 . S
C1195 C1194 1.394 . S
C1195 C1196 1.383 . S
C1195 H1203 0.929 . S
C1196 C1195 1.383 . S
C1196 C1197 1.377 . S
C1197 H1181 0.930 . S
C1197 C1196 1.377 . S
C1197 C1198 1.379 . S
C1198 H1182 0.931 . S
C1198 C1192 1.383 . S
C1198 C1197 1.379 . S
H1199 C1193 0.959 . S
H1200 C1193 0.961 . S
H1201 C1193 0.960 . S
H1202 C1194 0.930 . S
H1203 C1195 0.929 . S
H1204 C1212 0.929 . S
H1205 C1214 0.930 . S
H1206 C1216 0.930 . S
H1207 C1219 0.929 . S
H1208 C1222 0.930 . S
H1209 C1224 0.960 . S
H1210 C1224 0.960 . S
H1211 C1224 0.948 1_556 S
C1212 H1204 0.929 . S
C1212 C1213 1.377 . S
C1212 C1214 1.384 . S
C1213 C1212 1.377 . S
C1213 C1219 1.390 . S
C1214 H1205 0.930 . S
C1214 C1212 1.384 . S
C1214 C1215 1.372 . S
C1215 C1214 1.372 . S
C1215 C1216 1.400 . S
C1215 C1220 1.490 1_556 S
C1216 H1206 0.930 . S
C1216 C1215 1.400 . S
C1216 C1219 1.386 . S
H1217 C1233 0.930 . S
H1218 C1234 0.931 . S
C1219 H1207 0.929 . S
C1219 C1213 1.390 . S
C1219 C1216 1.386 . S
C1220 C1215 1.490 1_554 S
C1220 C1222 1.395 . S
C1220 C1223 1.403 . S
H1221 C1227 0.930 . S
C1222 H1208 0.930 . S
C1222 C1220 1.395 . S
C1222 C1225 1.403 . S
C1223 C1220 1.403 . S
C1223 C1224 1.524 . S
C1223 C1227 1.400 . S
C1224 H1209 0.960 . S
C1224 H1210 0.960 . S
C1224 H1211 0.948 1_554 S
C1224 C1223 1.524 . S
C1225 C1222 1.403 . S
C1225 C1226 1.392 . S
C1225 C1229 1.495 . S
C1226 C1225 1.392 . S
C1226 C1227 1.385 . S
C1226 C1228 1.478 . S
C1227 H1221 0.930 . S
C1227 C1223 1.400 . S
C1227 C1226 1.385 . S
C1228 C1226 1.478 . S
C1228 C1230 1.381 . S
C1228 C1234 1.383 . S
C1229 C1225 1.495 . S
C1229 H1235 0.959 . S
C1229 H1236 0.961 . S
C1229 H1237 0.960 . S
C1230 C1228 1.381 . S
C1230 C1231 1.394 . S
C1230 H1238 0.930 . S
C1231 C1230 1.394 . S
C1231 C1232 1.383 . S
C1231 H1239 0.929 . S
C1232 C1231 1.383 . S
C1232 C1233 1.377 . S
C1233 H1217 0.930 . S
C1233 C1232 1.377 . S
C1233 C1234 1.379 . S
C1234 H1218 0.931 . S
C1234 C1228 1.383 . S
C1234 C1233 1.379 . S
H1235 C1229 0.959 . S
H1236 C1229 0.961 . S
H1237 C1229 0.960 . S
H1238 C1230 0.930 . S
H1239 C1231 0.929 . S
H1240 C1248 0.929 . S
H1241 C1250 0.930 . S
H1242 C1252 0.930 . S
H1243 C1255 0.929 . S
H1244 C1258 0.930 . S
H1245 C1260 0.960 . S
H1246 C1260 0.960 . S
H1247 C1260 0.960 . S
C1248 H1240 0.929 . S
C1248 C1249 1.377 . S
C1248 C1250 1.384 . S
C1249 C1248 1.377 . S
C1249 C1255 1.390 . S
C1250 H1241 0.930 . S
C1250 C1248 1.384 . S
C1250 C1251 1.372 . S
C1251 C1250 1.372 . S
C1251 C1252 1.400 . S
C1251 C1256 1.490 . S
C1252 H1242 0.930 . S
C1252 C1251 1.400 . S
C1252 C1255 1.386 . S
H1253 C1269 0.930 . S
H1254 C1270 0.931 . S
C1255 H1243 0.929 . S
C1255 C1249 1.390 . S
C1255 C1252 1.386 . S
C1256 C1251 1.490 . S
C1256 C1258 1.395 . S
C1256 C1259 1.403 . S
H1257 C1263 0.930 . S
C1258 H1244 0.930 . S
C1258 C1256 1.395 . S
C1258 C1261 1.403 . S
C1259 C1256 1.403 . S
C1259 C1260 1.524 . S
C1259 C1263 1.400 . S
C1260 H1245 0.960 . S
C1260 H1246 0.960 . S
C1260 H1247 0.960 . S
C1260 C1259 1.524 . S
C1261 C1258 1.403 . S
C1261 C1262 1.392 . S
C1261 C1265 1.495 . S
C1262 C1261 1.392 . S
C1262 C1263 1.385 . S
C1262 C1264 1.478 . S
C1263 H1257 0.930 . S
C1263 C1259 1.400 . S
C1263 C1262 1.385 . S
C1264 C1262 1.478 . S
C1264 C1266 1.381 . S
C1264 C1270 1.383 . S
C1265 C1261 1.495 . S
C1265 H1271 0.959 . S
C1265 H1272 0.961 . S
C1265 H1273 0.960 . S
C1266 C1264 1.381 . S
C1266 C1267 1.394 . S
C1266 H1274 0.930 . S
C1267 C1266 1.394 . S
C1267 C1268 1.383 . S
C1267 H1275 0.929 . S
C1268 C1267 1.383 . S
C1268 C1269 1.377 . S
C1269 H1253 0.930 . S
C1269 C1268 1.377 . S
C1269 C1270 1.379 . S
C1270 H1254 0.931 . S
C1270 C1264 1.383 . S
C1270 C1269 1.379 . S
H1271 C1265 0.959 . S
H1272 C1265 0.961 . S
H1273 C1265 0.960 . S
H1274 C1266 0.930 . S
H1275 C1267 0.929 . S
H1276 C1284 0.929 . S
H1277 C1286 0.930 . S
H1278 C1288 0.930 . S
H1279 C1291 0.929 . S
H1280 C1294 0.930 . S
H1281 C1296 0.960 . S
H1282 C1296 0.960 . S
H1283 C1296 0.960 . S
C1284 H1276 0.929 . S
C1284 C1285 1.377 . S
C1284 C1286 1.384 . S
C1285 C1284 1.377 . S
C1285 C1291 1.390 . S
C1286 H1277 0.930 . S
C1286 C1284 1.384 . S
C1286 C1287 1.372 . S
C1287 C1286 1.372 . S
C1287 C1288 1.400 . S
C1287 C1292 1.490 . S
C1288 H1278 0.930 . S
C1288 C1287 1.400 . S
C1288 C1291 1.386 . S
H1289 C1305 0.930 . S
H1290 C1306 0.931 . S
C1291 H1279 0.929 . S
C1291 C1285 1.390 . S
C1291 C1288 1.386 . S
C1292 C1287 1.490 . S
C1292 C1294 1.395 . S
C1292 C1295 1.403 . S
H1293 C1299 0.930 . S
C1294 H1280 0.930 . S
C1294 C1292 1.395 . S
C1294 C1297 1.403 . S
C1295 C1292 1.403 . S
C1295 C1296 1.524 . S
C1295 C1299 1.400 . S
C1296 H1281 0.960 . S
C1296 H1282 0.960 . S
C1296 H1283 0.960 . S
C1296 C1295 1.524 . S
C1297 C1294 1.403 . S
C1297 C1298 1.392 . S
C1297 C1301 1.495 . S
C1298 C1297 1.392 . S
C1298 C1299 1.385 . S
C1298 C1300 1.478 . S
C1299 H1293 0.930 . S
C1299 C1295 1.400 . S
C1299 C1298 1.385 . S
C1300 C1298 1.478 . S
C1300 C1302 1.381 . S
C1300 C1306 1.383 . S
C1301 C1297 1.495 . S
C1301 H1307 0.959 . S
C1301 H1308 0.961 . S
C1301 H1309 0.960 . S
C1302 C1300 1.381 . S
C1302 C1303 1.394 . S
C1302 H1310 0.930 . S
C1303 C1302 1.394 . S
C1303 C1304 1.383 . S
C1303 H1311 0.929 . S
C1304 C1303 1.383 . S
C1304 C1305 1.377 . S
C1305 H1289 0.930 . S
C1305 C1304 1.377 . S
C1305 C1306 1.379 . S
C1306 H1290 0.931 . S
C1306 C1300 1.383 . S
C1306 C1305 1.379 . S
H1307 C1301 0.959 . S
H1308 C1301 0.961 . S
H1309 C1301 0.960 . S
H1310 C1302 0.930 . S
H1311 C1303 0.929 . S
H1312 C1320 0.929 . S
H1313 C1322 0.930 . S
H1314 C1324 0.930 . S
H1315 C1327 0.929 . S
H1316 C1330 0.930 . S
H1317 C1332 0.960 . S
H1318 C1332 0.960 . S
H1319 C1332 0.960 . S
C1320 H1312 0.929 . S
C1320 C1321 1.377 1_565 S
C1320 C1322 1.384 . S
C1321 C1320 1.377 1_545 S
C1321 C1327 1.390 . S
C1322 H1313 0.930 . S
C1322 C1320 1.384 . S
C1322 C1323 1.372 1_565 S
C1323 C1322 1.372 1_545 S
C1323 C1324 1.400 . S
C1323 C1328 1.490 . S
C1324 H1314 0.930 . S
C1324 C1323 1.400 . S
C1324 C1327 1.386 . S
H1325 C1341 0.930 . S
H1326 C1342 0.931 . S
C1327 H1315 0.929 . S
C1327 C1321 1.390 . S
C1327 C1324 1.386 . S
C1328 C1323 1.490 . S
C1328 C1330 1.395 1_545 S
C1328 C1331 1.403 . S
H1329 C1335 0.943 . S
C1330 H1316 0.930 . S
C1330 C1328 1.395 1_565 S
C1330 C1333 1.403 . S
C1331 C1328 1.403 . S
C1331 C1332 1.524 . S
C1331 C1335 1.416 . S
C1332 H1317 0.960 . S
C1332 H1318 0.960 . S
C1332 H1319 0.960 . S
C1332 C1331 1.524 . S
C1333 C1330 1.403 . S
C1333 C1334 1.392 . S
C1333 C1337 1.495 . S
C1334 C1333 1.392 . S
C1334 C1335 1.362 1_565 S
C1334 C1336 1.478 . S
C1335 H1329 0.943 . S
C1335 C1331 1.416 . S
C1335 C1334 1.362 1_545 S
C1336 C1334 1.478 . S
C1336 C1338 1.381 . S
C1336 C1342 1.383 1_565 S
C1337 C1333 1.495 . S
C1337 H1343 0.959 . S
C1337 H1344 0.961 . S
C1337 H1345 0.960 . S
C1338 C1336 1.381 . S
C1338 C1339 1.394 . S
C1338 H1346 0.930 . S
C1339 C1338 1.394 . S
C1339 C1340 1.383 . S
C1339 H1347 0.929 . S
C1340 C1339 1.383 . S
C1340 C1341 1.377 1_565 S
C1341 H1325 0.930 . S
C1341 C1340 1.377 1_545 S
C1341 C1342 1.379 . S
C1342 H1326 0.931 . S
C1342 C1336 1.383 1_545 S
C1342 C1341 1.379 . S
H1343 C1337 0.959 . S
H1344 C1337 0.961 . S
H1345 C1337 0.960 . S
H1346 C1338 0.930 . S
H1347 C1339 0.929 . S
H1348 C1356 0.929 . S
H1349 C1358 0.930 . S
H1350 C1360 0.930 . S
H1351 C1363 0.929 . S
H1352 C1366 0.930 . S
H1353 C1368 0.960 . S
H1354 C1368 0.960 . S
H1355 C1368 0.960 . S
C1356 H1348 0.929 . S
C1356 C1357 1.377 . S
C1356 C1358 1.384 . S
C1357 C1356 1.377 . S
C1357 C1363 1.390 . S
C1358 H1349 0.930 . S
C1358 C1356 1.384 . S
C1358 C1359 1.372 . S
C1359 C1358 1.372 . S
C1359 C1360 1.400 . S
C1359 C1364 1.490 . S
C1360 H1350 0.930 . S
C1360 C1359 1.400 . S
C1360 C1363 1.386 . S
H1361 C1377 0.930 . S
H1362 C1378 0.931 . S
C1363 H1351 0.929 . S
C1363 C1357 1.390 . S
C1363 C1360 1.386 . S
C1364 C1359 1.490 . S
C1364 C1366 1.395 . S
C1364 C1367 1.403 . S
H1365 C1371 0.930 . S
C1366 H1352 0.930 . S
C1366 C1364 1.395 . S
C1366 C1369 1.403 . S
C1367 C1364 1.403 . S
C1367 C1368 1.524 . S
C1367 C1371 1.400 . S
C1368 H1353 0.960 . S
C1368 H1354 0.960 . S
C1368 H1355 0.960 . S
C1368 C1367 1.524 . S
C1369 C1366 1.403 . S
C1369 C1370 1.392 . S
C1369 C1373 1.495 . S
C1370 C1369 1.392 . S
C1370 C1371 1.385 . S
C1370 C1372 1.478 . S
C1371 H1365 0.930 . S
C1371 C1367 1.400 . S
C1371 C1370 1.385 . S
C1372 C1370 1.478 . S
C1372 C1374 1.381 . S
C1372 C1378 1.383 . S
C1373 C1369 1.495 . S
C1373 H1379 0.959 . S
C1373 H1380 0.961 . S
C1373 H1381 0.960 . S
C1374 C1372 1.381 . S
C1374 C1375 1.394 . S
C1374 H1382 0.930 . S
C1375 C1374 1.394 . S
C1375 C1376 1.383 . S
C1375 H1383 0.929 . S
C1376 C1375 1.383 . S
C1376 C1377 1.377 . S
C1377 H1361 0.930 . S
C1377 C1376 1.377 . S
C1377 C1378 1.379 . S
C1378 H1362 0.931 . S
C1378 C1372 1.383 . S
C1378 C1377 1.379 . S
H1379 C1373 0.959 . S
H1380 C1373 0.961 . S
H1381 C1373 0.960 . S
H1382 C1374 0.930 . S
H1383 C1375 0.929 . S
H1384 C1392 0.929 . S
H1385 C1394 0.930 . S
H1386 C1396 0.992 . S
H1387 C1399 0.929 1_565 S
H1388 C1402 0.930 . S
H1389 C1404 0.960 . S
H1390 C1404 0.960 . S
H1391 C1404 0.960 . S
C1392 H1384 0.929 . S
C1392 C1393 1.377 . S
C1392 C1394 1.384 . S
C1393 C1392 1.377 . S
C1393 C1399 1.390 . S
C1394 H1385 0.930 . S
C1394 C1392 1.384 . S
C1394 C1395 1.372 . S
C1395 C1394 1.372 . S
C1395 C1396 1.359 1_545 S
C1395 C1400 1.490 . S
C1396 H1386 0.992 . S
C1396 C1395 1.359 1_565 S
C1396 C1399 1.372 1_565 S
H1397 C1413 0.930 . S
H1398 C1414 0.931 . S
C1399 H1387 0.929 1_545 S
C1399 C1393 1.390 . S
C1399 C1396 1.372 1_545 S
C1400 C1395 1.490 . S
C1400 C1402 1.395 . S
C1400 C1403 1.403 1_545 S
H1401 C1407 0.930 . S
C1402 H1388 0.930 . S
C1402 C1400 1.395 . S
C1402 C1405 1.403 . S
C1403 C1400 1.403 1_565 S
C1403 C1404 1.524 . S
C1403 C1407 1.400 . S
C1404 H1389 0.960 . S
C1404 H1390 0.960 . S
C1404 H1391 0.960 . S
C1404 C1403 1.524 . S
C1405 C1402 1.403 . S
C1405 C1406 1.384 1_545 S
C1405 C1409 1.495 . S
C1406 C1405 1.384 1_565 S
C1406 C1407 1.392 . S
C1406 C1408 1.480 . S
C1407 H1401 0.930 . S
C1407 C1403 1.400 . S
C1407 C1406 1.392 . S
C1408 C1406 1.480 . S
C1408 C1410 1.381 1_565 S
C1408 C1414 1.383 . S
C1409 C1405 1.495 . S
C1409 H1415 0.959 . S
C1409 H1416 0.961 . S
C1409 H1417 0.960 . S
C1410 C1408 1.381 1_545 S
C1410 C1411 1.394 1_545 S
C1410 H1418 0.930 . S
C1411 C1410 1.394 1_565 S
C1411 C1412 1.383 . S
C1411 H1419 0.929 1_565 S
C1412 C1411 1.383 . S
C1412 C1413 1.377 . S
C1413 H1397 0.930 . S
C1413 C1412 1.377 . S
C1413 C1414 1.379 . S
C1414 H1398 0.931 . S
C1414 C1408 1.383 . S
C1414 C1413 1.379 . S
H1415 C1409 0.959 . S
H1416 C1409 0.961 . S
H1417 C1409 0.960 . S
H1418 C1410 0.930 . S
H1419 C1411 0.929 1_545 S
H1420 C1428 0.929 . S
H1421 C1430 0.930 . S
H1422 C1432 0.930 . S
H1423 C1435 0.929 . S
H1424 C1438 0.934 . S
H1425 C1440 0.960 . S
H1426 C1440 0.960 . S
H1427 C1440 0.960 . S
C1428 H1420 0.929 . S
C1428 C1429 1.377 . S
C1428 C1430 1.384 . S
C1429 C1428 1.377 . S
C1429 C1435 1.390 . S
C1430 H1421 0.930 . S
C1430 C1428 1.384 . S
C1430 C1431 1.372 . S
C1431 C1430 1.372 . S
C1431 C1432 1.400 . S
C1431 C1436 1.490 1_556 S
C1432 H1422 0.930 . S
C1432 C1431 1.400 . S
C1432 C1435 1.386 . S
H1433 C1449 0.930 . S
H1434 C1450 0.931 . S
C1435 H1423 0.929 . S
C1435 C1429 1.390 . S
C1435 C1432 1.386 . S
C1436 C1431 1.490 1_554 S
C1436 C1438 1.395 . S
C1436 C1439 1.403 . S
H1437 C1443 0.930 . S
C1438 H1424 0.934 . S
C1438 C1436 1.395 . S
C1438 C1441 1.403 . S
C1439 C1436 1.403 . S
C1439 C1440 1.524 . S
C1439 C1443 1.400 . S
C1440 H1425 0.960 . S
C1440 H1426 0.960 . S
C1440 H1427 0.960 . S
C1440 C1439 1.524 . S
C1441 C1438 1.403 . S
C1441 C1442 1.392 . S
C1441 C1445 1.495 . S
C1442 C1441 1.392 . S
C1442 C1443 1.385 . S
C1442 C1444 1.478 . S
C1443 H1437 0.930 . S
C1443 C1439 1.400 . S
C1443 C1442 1.385 . S
C1444 C1442 1.478 . S
C1444 C1446 1.381 . S
C1444 C1450 1.383 . S
C1445 C1441 1.495 . S
C1445 H1451 0.959 . S
C1445 H1452 0.961 . S
C1445 H1453 0.960 . S
C1446 C1444 1.381 . S
C1446 C1447 1.394 . S
C1446 H1454 0.930 . S
C1447 C1446 1.394 . S
C1447 C1448 1.383 . S
C1447 H1455 0.929 . S
C1448 C1447 1.383 . S
C1448 C1449 1.377 . S
C1449 H1433 0.930 . S
C1449 C1448 1.377 . S
C1449 C1450 1.379 . S
C1450 H1434 0.931 . S
C1450 C1444 1.383 . S
C1450 C1449 1.379 . S
H1451 C1445 0.959 . S
H1452 C1445 0.961 . S
H1453 C1445 0.960 . S
H1454 C1446 0.930 . S
H1455 C1447 0.929 . S
H1456 C1464 0.929 . S
H1457 C1466 0.930 . S
H1458 C1468 0.930 1_545 S
H1459 C1471 0.929 . S
H1460 C1474 0.930 . S
H1461 C1476 0.960 . S
H1462 C1476 0.960 . S
H1463 C1476 0.960 . S
C1464 H1456 0.929 . S
C1464 C1465 1.377 . S
C1464 C1466 1.384 . S
C1465 C1464 1.377 . S
C1465 C1471 1.390 . S
C1466 H1457 0.930 . S
C1466 C1464 1.384 . S
C1466 C1467 1.372 . S
C1467 C1466 1.372 . S
C1467 C1468 1.400 . S
C1467 C1472 1.490 . S
C1468 H1458 0.930 1_565 S
C1468 C1467 1.400 . S
C1468 C1471 1.386 . S
H1469 C1485 0.930 . S
H1470 C1486 0.931 . S
C1471 H1459 0.929 . S
C1471 C1465 1.390 . S
C1471 C1468 1.386 . S
C1472 C1467 1.490 . S
C1472 C1474 1.395 . S
C1472 C1475 1.403 1_565 S
H1473 C1479 0.930 . S
C1474 H1460 0.930 . S
C1474 C1472 1.395 . S
C1474 C1477 1.403 . S
C1475 C1472 1.403 1_545 S
C1475 C1476 1.524 . S
C1475 C1479 1.400 . S
C1476 H1461 0.960 . S
C1476 H1462 0.960 . S
C1476 H1463 0.960 . S
C1476 C1475 1.524 . S
C1477 C1474 1.403 . S
C1477 C1478 1.375 1_565 S
C1477 C1481 1.495 . S
C1478 C1477 1.375 1_545 S
C1478 C1479 1.400 . S
C1478 C1480 1.481 . S
C1479 H1473 0.930 . S
C1479 C1475 1.400 . S
C1479 C1478 1.400 . S
C1480 C1478 1.481 . S
C1480 C1482 1.381 . S
C1480 C1486 1.383 . S
C1481 C1477 1.495 . S
C1481 H1487 0.959 . S
C1481 H1488 0.961 . S
C1481 H1489 0.960 . S
C1482 C1480 1.381 . S
C1482 C1483 1.394 . S
C1482 H1490 0.930 1_545 S
C1483 C1482 1.394 . S
C1483 C1484 1.383 . S
C1483 H1491 0.929 . S
C1484 C1483 1.383 . S
C1484 C1485 1.377 . S
C1485 H1469 0.930 . S
C1485 C1484 1.377 . S
C1485 C1486 1.379 . S
C1486 H1470 0.931 . S
C1486 C1480 1.383 . S
C1486 C1485 1.379 . S
H1487 C1481 0.959 . S
H1488 C1481 0.961 . S
H1489 C1481 0.960 . S
H1490 C1482 0.930 1_565 S
H1491 C1483 0.929 . S
H1492 C1500 0.929 . S
H1493 C1502 0.930 . S
H1494 C1504 0.930 . S
H1495 C1507 0.929 . S
H1496 C1510 0.930 . S
H1497 C1512 0.960 . S
H1498 C1512 0.960 . S
H1499 C1512 0.960 . S
C1500 H1492 0.929 . S
C1500 C1501 1.377 . S
C1500 C1502 1.384 . S
C1501 C1500 1.377 . S
C1501 C1507 1.390 . S
C1502 H1493 0.930 . S
C1502 C1500 1.384 . S
C1502 C1503 1.372 . S
C1503 C1502 1.372 . S
C1503 C1504 1.400 . S
C1503 C1508 1.490 . S
C1504 H1494 0.930 . S
C1504 C1503 1.400 . S
C1504 C1507 1.386 . S
H1505 C1521 0.930 . S
H1506 C1522 0.931 . S
C1507 H1495 0.929 . S
C1507 C1501 1.390 . S
C1507 C1504 1.386 . S
C1508 C1503 1.490 . S
C1508 C1510 1.395 . S
C1508 C1511 1.403 . S
H1509 C1515 0.930 . S
C1510 H1496 0.930 . S
C1510 C1508 1.395 . S
C1510 C1513 1.403 . S
C1511 C1508 1.403 . S
C1511 C1512 1.524 . S
C1511 C1515 1.400 . S
C1512 H1497 0.960 . S
C1512 H1498 0.960 . S
C1512 H1499 0.960 . S
C1512 C1511 1.524 . S
C1513 C1510 1.403 . S
C1513 C1514 1.392 . S
C1513 C1517 1.495 . S
C1514 C1513 1.392 . S
C1514 C1515 1.385 . S
C1514 C1516 1.478 . S
C1515 H1509 0.930 . S
C1515 C1511 1.400 . S
C1515 C1514 1.385 . S
C1516 C1514 1.478 . S
C1516 C1518 1.381 . S
C1516 C1522 1.383 . S
C1517 C1513 1.495 . S
C1517 H1523 0.959 . S
C1517 H1524 0.961 . S
C1517 H1525 0.960 . S
C1518 C1516 1.381 . S
C1518 C1519 1.394 . S
C1518 H1526 0.930 . S
C1519 C1518 1.394 . S
C1519 C1520 1.383 . S
C1519 H1527 0.929 . S
C1520 C1519 1.383 . S
C1520 C1521 1.377 . S
C1521 H1505 0.930 . S
C1521 C1520 1.377 . S
C1521 C1522 1.379 . S
C1522 H1506 0.931 . S
C1522 C1516 1.383 . S
C1522 C1521 1.379 . S
H1523 C1517 0.959 . S
H1524 C1517 0.961 . S
H1525 C1517 0.960 . S
H1526 C1518 0.930 . S
H1527 C1519 0.929 . S
H1528 C1536 0.929 . S
H1529 C1538 0.904 1_565 S
H1530 C1540 0.930 . S
H1531 C1543 0.929 . S
H1532 C1546 0.930 . S
H1533 C1548 0.960 . S
H1534 C1548 0.960 . S
H1535 C1548 0.960 . S
C1536 H1528 0.929 . S
C1536 C1537 1.377 . S
C1536 C1538 1.384 . S
C1537 C1536 1.377 . S
C1537 C1543 1.390 . S
C1538 H1529 0.904 1_545 S
C1538 C1536 1.384 . S
C1538 C1539 1.372 . S
C1539 C1538 1.372 . S
C1539 C1540 1.400 . S
C1539 C1544 1.490 . S
C1540 H1530 0.930 . S
C1540 C1539 1.400 . S
C1540 C1543 1.386 . S
H1541 C1557 0.930 . S
H1542 C1558 0.931 . S
C1543 H1531 0.929 . S
C1543 C1537 1.390 . S
C1543 C1540 1.386 . S
C1544 C1539 1.490 . S
C1544 C1546 1.395 1_545 S
C1544 C1547 1.403 . S
H1545 C1551 0.930 . S
C1546 H1532 0.930 . S
C1546 C1544 1.395 1_565 S
C1546 C1549 1.403 . S
C1547 C1544 1.403 . S
C1547 C1548 1.524 . S
C1547 C1551 1.400 . S
C1548 H1533 0.960 . S
C1548 H1534 0.960 . S
C1548 H1535 0.960 . S
C1548 C1547 1.524 . S
C1549 C1546 1.403 . S
C1549 C1550 1.392 . S
C1549 C1553 1.495 . S
C1550 C1549 1.392 . S
C1550 C1551 1.385 1_565 S
C1550 C1552 1.478 . S
C1551 H1545 0.930 . S
C1551 C1547 1.400 . S
C1551 C1550 1.385 1_545 S
C1552 C1550 1.478 . S
C1552 C1554 1.381 . S
C1552 C1558 1.383 . S
C1553 C1549 1.495 . S
C1553 H1559 0.959 . S
C1553 H1560 0.961 . S
C1553 H1561 0.960 . S
C1554 C1552 1.381 . S
C1554 C1555 1.394 . S
C1554 H1562 0.930 . S
C1555 C1554 1.394 . S
C1555 C1556 1.383 . S
C1555 H1563 0.929 . S
C1556 C1555 1.383 . S
C1556 C1557 1.377 . S
C1557 H1541 0.930 . S
C1557 C1556 1.377 . S
C1557 C1558 1.379 . S
C1558 H1542 0.931 . S
C1558 C1552 1.383 . S
C1558 C1557 1.379 . S
H1559 C1553 0.959 . S
H1560 C1553 0.961 . S
H1561 C1553 0.960 . S
H1562 C1554 0.930 . S
H1563 C1555 0.929 . S
H1564 C1572 0.929 . S
H1565 C1574 0.930 . S
H1566 C1576 0.930 . S
H1567 C1579 0.929 . S
H1568 C1582 0.930 . S
H1569 C1584 0.960 . S
H1570 C1584 0.960 . S
H1571 C1584 0.960 . S
C1572 H1564 0.929 . S
C1572 C1573 1.377 . S
C1572 C1574 1.384 . S
C1573 C1572 1.377 . S
C1573 C1579 1.390 . S
C1574 H1565 0.930 . S
C1574 C1572 1.384 . S
C1574 C1575 1.372 . S
C1575 C1574 1.372 . S
C1575 C1576 1.400 . S
C1575 C1580 1.490 . S
C1576 H1566 0.930 . S
C1576 C1575 1.400 . S
C1576 C1579 1.386 . S
H1577 C1593 0.930 . S
H1578 C1594 0.931 . S
C1579 H1567 0.929 . S
C1579 C1573 1.390 . S
C1579 C1576 1.386 . S
C1580 C1575 1.490 . S
C1580 C1582 1.395 . S
C1580 C1583 1.403 . S
H1581 C1587 0.930 . S
C1582 H1568 0.930 . S
C1582 C1580 1.395 . S
C1582 C1585 1.403 . S
C1583 C1580 1.403 . S
C1583 C1584 1.524 . S
C1583 C1587 1.400 . S
C1584 H1569 0.960 . S
C1584 H1570 0.960 . S
C1584 H1571 0.960 . S
C1584 C1583 1.524 . S
C1585 C1582 1.403 . S
C1585 C1586 1.392 . S
C1585 C1589 1.495 . S
C1586 C1585 1.392 . S
C1586 C1587 1.385 . S
C1586 C1588 1.478 1_554 S
C1587 H1581 0.930 . S
C1587 C1583 1.400 . S
C1587 C1586 1.385 . S
C1588 C1586 1.478 1_556 S
C1588 C1590 1.381 . S
C1588 C1594 1.383 . S
C1589 C1585 1.495 . S
C1589 H1595 0.959 . S
C1589 H1596 0.961 . S
C1589 H1597 0.960 . S
C1590 C1588 1.381 . S
C1590 C1591 1.394 . S
C1590 H1598 0.930 . S
C1591 C1590 1.394 . S
C1591 C1592 1.383 . S
C1591 H1599 0.929 . S
C1592 C1591 1.383 . S
C1592 C1593 1.377 . S
C1593 H1577 0.930 . S
C1593 C1592 1.377 . S
C1593 C1594 1.379 . S
C1594 H1578 0.931 . S
C1594 C1588 1.383 . S
C1594 C1593 1.379 . S
H1595 C1589 0.959 . S
H1596 C1589 0.961 . S
H1597 C1589 0.960 . S
H1598 C1590 0.930 . S
H1599 C1591 0.929 . S
H1600 C1608 0.929 . S
H1601 C1610 0.930 . S
H1602 C1612 0.930 . S
H1603 C1615 0.929 . S
H1604 C1618 0.930 . S
H1605 C1620 0.960 . S
H1606 C1620 0.960 . S
H1607 C1620 0.960 . S
C1608 H1600 0.929 . S
C1608 C1609 1.377 . S
C1608 C1610 1.384 . S
C1609 C1608 1.377 . S
C1609 C1615 1.390 . S
C1610 H1601 0.930 . S
C1610 C1608 1.384 . S
C1610 C1611 1.372 . S
C1611 C1610 1.372 . S
C1611 C1612 1.400 . S
C1611 C1616 1.490 . S
C1612 H1602 0.930 . S
C1612 C1611 1.400 . S
C1612 C1615 1.386 . S
H1613 C1629 0.930 . S
H1614 C1630 0.931 . S
C1615 H1603 0.929 . S
C1615 C1609 1.390 . S
C1615 C1612 1.386 . S
C1616 C1611 1.490 . S
C1616 C1618 1.395 . S
C1616 C1619 1.403 . S
H1617 C1623 0.930 . S
C1618 H1604 0.930 . S
C1618 C1616 1.395 . S
C1618 C1621 1.403 . S
C1619 C1616 1.403 . S
C1619 C1620 1.524 . S
C1619 C1623 1.400 . S
C1620 H1605 0.960 . S
C1620 H1606 0.960 . S
C1620 H1607 0.960 . S
C1620 C1619 1.524 . S
C1621 C1618 1.403 . S
C1621 C1622 1.392 . S
C1621 C1625 1.495 . S
C1622 C1621 1.392 . S
C1622 C1623 1.385 . S
C1622 C1624 1.478 . S
C1623 H1617 0.930 . S
C1623 C1619 1.400 . S
C1623 C1622 1.385 . S
C1624 C1622 1.478 . S
C1624 C1626 1.381 . S
C1624 C1630 1.383 . S
C1625 C1621 1.495 . S
C1625 H1631 0.959 . S
C1625 H1632 0.961 . S
C1625 H1633 0.960 . S
C1626 C1624 1.381 . S
C1626 C1627 1.394 . S
C1626 H1634 0.930 . S
C1627 C1626 1.394 . S
C1627 C1628 1.383 . S
C1627 H1635 0.929 . S
C1628 C1627 1.383 . S
C1628 C1629 1.377 . S
C1629 H1613 0.930 . S
C1629 C1628 1.377 . S
C1629 C1630 1.379 . S
C1630 H1614 0.931 . S
C1630 C1624 1.383 . S
C1630 C1629 1.379 . S
H1631 C1625 0.959 . S
H1632 C1625 0.961 . S
H1633 C1625 0.960 . S
H1634 C1626 0.930 . S
H1635 C1627 0.929 . S
H1636 C1644 0.929 . S
H1637 C1646 0.930 . S
H1638 C1648 0.930 . S
H1639 C1651 0.929 . S
H1640 C1654 0.930 . S
H1641 C1656 0.960 . S
H1642 C1656 0.960 . S
H1643 C1656 0.960 . S
C1644 H1636 0.929 . S
C1644 C1645 1.377 . S
C1644 C1646 1.384 . S
C1645 C1644 1.377 . S
C1645 C1651 1.390 . S
C1646 H1637 0.930 . S
C1646 C1644 1.384 . S
C1646 C1647 1.372 . S
C1647 C1646 1.372 . S
C1647 C1648 1.400 . S
C1647 C1652 1.490 . S
C1648 H1638 0.930 . S
C1648 C1647 1.400 . S
C1648 C1651 1.386 . S
H1649 C1665 0.930 . S
H1650 C1666 0.931 . S
C1651 H1639 0.929 . S
C1651 C1645 1.390 . S
C1651 C1648 1.386 . S
C1652 C1647 1.490 . S
C1652 C1654 1.395 . S
C1652 C1655 1.403 . S
H1653 C1659 0.930 . S
C1654 H1640 0.930 . S
C1654 C1652 1.395 . S
C1654 C1657 1.403 . S
C1655 C1652 1.403 . S
C1655 C1656 1.524 . S
C1655 C1659 1.400 . S
C1656 H1641 0.960 . S
C1656 H1642 0.960 . S
C1656 H1643 0.960 . S
C1656 C1655 1.524 . S
C1657 C1654 1.403 . S
C1657 C1658 1.392 . S
C1657 C1661 1.495 . S
C1658 C1657 1.392 . S
C1658 C1659 1.385 . S
C1658 C1660 1.478 . S
C1659 H1653 0.930 . S
C1659 C1655 1.400 . S
C1659 C1658 1.385 . S
C1660 C1658 1.478 . S
C1660 C1662 1.381 . S
C1660 C1666 1.383 . S
C1661 C1657 1.495 . S
C1661 H1667 0.959 . S
C1661 H1668 0.961 . S
C1661 H1669 0.960 . S
C1662 C1660 1.381 . S
C1662 C1663 1.394 . S
C1662 H1670 0.930 . S
C1663 C1662 1.394 . S
C1663 C1664 1.383 . S
C1663 H1671 0.929 . S
C1664 C1663 1.383 . S
C1664 C1665 1.377 . S
C1665 H1649 0.930 . S
C1665 C1664 1.377 . S
C1665 C1666 1.379 . S
C1666 H1650 0.931 . S
C1666 C1660 1.383 . S
C1666 C1665 1.379 . S
H1667 C1661 0.959 . S
H1668 C1661 0.961 . S
H1669 C1661 0.960 . S
H1670 C1662 0.930 . S
H1671 C1663 0.929 . S
H1672 C1680 0.929 . S
H1673 C1682 0.930 . S
H1674 C1684 0.930 . S
H1675 C1687 0.929 . S
H1676 C1690 0.930 . S
H1677 C1692 0.960 . S
H1678 C1692 0.960 . S
H1679 C1692 0.960 . S
C1680 H1672 0.929 . S
C1680 C1681 1.377 . S
C1680 C1682 1.384 . S
C1681 C1680 1.377 . S
C1681 C1687 1.390 . S
C1682 H1673 0.930 . S
C1682 C1680 1.384 . S
C1682 C1683 1.372 . S
C1683 C1682 1.372 . S
C1683 C1684 1.400 . S
C1683 C1688 1.490 . S
C1684 H1674 0.930 . S
C1684 C1683 1.400 . S
C1684 C1687 1.386 . S
H1685 C1701 0.930 . S
H1686 C1702 0.931 . S
C1687 H1675 0.929 . S
C1687 C1681 1.390 . S
C1687 C1684 1.386 . S
C1688 C1683 1.490 . S
C1688 C1690 1.395 . S
C1688 C1691 1.403 . S
H1689 C1695 0.930 . S
C1690 H1676 0.930 . S
C1690 C1688 1.395 . S
C1690 C1693 1.403 . S
C1691 C1688 1.403 . S
C1691 C1692 1.524 . S
C1691 C1695 1.400 . S
C1692 H1677 0.960 . S
C1692 H1678 0.960 . S
C1692 H1679 0.960 . S
C1692 C1691 1.524 . S
C1693 C1690 1.403 . S
C1693 C1694 1.392 . S
C1693 C1697 1.495 . S
C1694 C1693 1.392 . S
C1694 C1695 1.385 . S
C1694 C1696 1.478 . S
C1695 H1689 0.930 . S
C1695 C1691 1.400 . S
C1695 C1694 1.385 . S
C1696 C1694 1.478 . S
C1696 C1698 1.381 . S
C1696 C1702 1.383 . S
C1697 C1693 1.495 . S
C1697 H1703 0.959 . S
C1697 H1704 0.961 . S
C1697 H1705 0.960 . S
C1698 C1696 1.381 . S
C1698 C1699 1.394 . S
C1698 H1706 0.930 . S
C1699 C1698 1.394 . S
C1699 C1700 1.383 . S
C1699 H1707 0.929 . S
C1700 C1699 1.383 . S
C1700 C1701 1.377 . S
C1701 H1685 0.930 . S
C1701 C1700 1.377 . S
C1701 C1702 1.379 . S
C1702 H1686 0.931 . S
C1702 C1696 1.383 . S
C1702 C1701 1.379 . S
H1703 C1697 0.959 . S
H1704 C1697 0.961 . S
H1705 C1697 0.960 . S
H1706 C1698 0.930 . S
H1707 C1699 0.929 . S
H1708 C1716 0.929 . S
H1709 C1718 0.930 . S
H1710 C1720 0.930 . S
H1711 C1723 0.929 . S
H1712 C1726 0.930 . S
H1713 C1728 0.960 . S
H1714 C1728 0.960 . S
H1715 C1728 0.960 . S
C1716 H1708 0.929 . S
C1716 C1717 1.377 . S
C1716 C1718 1.384 . S
C1717 C1716 1.377 . S
C1717 C1723 1.390 . S
C1718 H1709 0.930 . S
C1718 C1716 1.384 . S
C1718 C1719 1.372 . S
C1719 C1718 1.372 . S
C1719 C1720 1.400 . S
C1719 C1724 1.490 . S
C1720 H1710 0.930 . S
C1720 C1719 1.400 . S
C1720 C1723 1.386 . S
H1721 C1737 0.930 . S
H1722 C1738 0.931 . S
C1723 H1711 0.929 . S
C1723 C1717 1.390 . S
C1723 C1720 1.386 . S
C1724 C1719 1.490 . S
C1724 C1726 1.395 . S
C1724 C1727 1.403 . S
H1725 C1731 0.930 . S
C1726 H1712 0.930 . S
C1726 C1724 1.395 . S
C1726 C1729 1.403 . S
C1727 C1724 1.403 . S
C1727 C1728 1.524 . S
C1727 C1731 1.400 . S
C1728 H1713 0.960 . S
C1728 H1714 0.960 . S
C1728 H1715 0.960 . S
C1728 C1727 1.524 . S
C1729 C1726 1.403 . S
C1729 C1730 1.392 . S
C1729 C1733 1.495 . S
C1730 C1729 1.392 . S
C1730 C1731 1.385 . S
C1730 C1732 1.478 1_554 S
C1731 H1725 0.930 . S
C1731 C1727 1.400 . S
C1731 C1730 1.385 . S
C1732 C1730 1.478 1_556 S
C1732 C1734 1.381 . S
C1732 C1738 1.383 . S
C1733 C1729 1.495 . S
C1733 H1739 0.959 . S
C1733 H1740 0.961 . S
C1733 H1741 0.960 . S
C1734 C1732 1.381 . S
C1734 C1735 1.394 . S
C1734 H1742 0.930 . S
C1735 C1734 1.394 . S
C1735 C1736 1.383 . S
C1735 H1743 0.929 . S
C1736 C1735 1.383 . S
C1736 C1737 1.377 . S
C1737 H1721 0.930 . S
C1737 C1736 1.377 . S
C1737 C1738 1.379 . S
C1738 H1722 0.931 . S
C1738 C1732 1.383 . S
C1738 C1737 1.379 . S
H1739 C1733 0.959 . S
H1740 C1733 0.961 . S
H1741 C1733 0.960 . S
H1742 C1734 0.930 . S
H1743 C1735 0.929 . S
H1744 C1752 0.929 . S
H1745 C1754 0.930 . S
H1746 C1756 0.930 . S
H1747 C1759 0.929 . S
H1748 C1762 0.930 . S
H1749 C1764 0.960 . S
H1750 C1764 0.960 . S
H1751 C1764 0.960 . S
C1752 H1744 0.929 . S
C1752 C1753 1.377 . S
C1752 C1754 1.384 . S
C1753 C1752 1.377 . S
C1753 C1759 1.390 . S
C1754 H1745 0.930 . S
C1754 C1752 1.384 . S
C1754 C1755 1.372 . S
C1755 C1754 1.372 . S
C1755 C1756 1.400 . S
C1755 C1760 1.490 . S
C1756 H1746 0.930 . S
C1756 C1755 1.400 . S
C1756 C1759 1.386 . S
H1757 C1773 0.930 . S
H1758 C1774 0.931 . S
C1759 H1747 0.929 . S
C1759 C1753 1.390 . S
C1759 C1756 1.386 . S
C1760 C1755 1.490 . S
C1760 C1762 1.395 . S
C1760 C1763 1.403 . S
H1761 C1767 0.930 . S
C1762 H1748 0.930 . S
C1762 C1760 1.395 . S
C1762 C1765 1.403 . S
C1763 C1760 1.403 . S
C1763 C1764 1.524 . S
C1763 C1767 1.400 . S
C1764 H1749 0.960 . S
C1764 H1750 0.960 . S
C1764 H1751 0.960 . S
C1764 C1763 1.524 . S
C1765 C1762 1.403 . S
C1765 C1766 1.392 . S
C1765 C1769 1.495 . S
C1766 C1765 1.392 . S
C1766 C1767 1.385 . S
C1766 C1768 1.478 . S
C1767 H1761 0.930 . S
C1767 C1763 1.400 . S
C1767 C1766 1.385 . S
C1768 C1766 1.478 . S
C1768 C1770 1.381 . S
C1768 C1774 1.383 . S
C1769 C1765 1.495 . S
C1769 H1775 0.959 . S
C1769 H1776 0.961 . S
C1769 H1777 0.960 . S
C1770 C1768 1.381 . S
C1770 C1771 1.394 . S
C1770 H1778 0.930 . S
C1771 C1770 1.394 . S
C1771 C1772 1.383 . S
C1771 H1779 0.929 . S
C1772 C1771 1.383 . S
C1772 C1773 1.377 . S
C1773 H1757 0.930 . S
C1773 C1772 1.377 . S
C1773 C1774 1.379 . S
C1774 H1758 0.931 . S
C1774 C1768 1.383 . S
C1774 C1773 1.379 . S
H1775 C1769 0.959 . S
H1776 C1769 0.961 . S
H1777 C1769 0.960 . S
H1778 C1770 0.930 . S
H1779 C1771 0.929 . S
H1780 C1788 0.929 . S
H1781 C1790 0.930 . S
H1782 C1792 0.930 . S
H1783 C1795 0.929 . S
H1784 C1798 0.930 . S
H1785 C1800 0.960 . S
H1786 C1800 0.960 . S
H1787 C1800 0.960 . S
C1788 H1780 0.929 . S
C1788 C1789 1.377 . S
C1788 C1790 1.384 . S
C1789 C1788 1.377 . S
C1789 C1795 1.390 . S
C1790 H1781 0.930 . S
C1790 C1788 1.384 . S
C1790 C1791 1.372 . S
C1791 C1790 1.372 . S
C1791 C1792 1.400 . S
C1791 C1796 1.490 . S
C1792 H1782 0.930 . S
C1792 C1791 1.400 . S
C1792 C1795 1.386 . S
H1793 C1809 0.930 . S
H1794 C1810 0.931 . S
C1795 H1783 0.929 . S
C1795 C1789 1.390 . S
C1795 C1792 1.386 . S
C1796 C1791 1.490 . S
C1796 C1798 1.395 . S
C1796 C1799 1.403 . S
H1797 C1803 0.930 . S
C1798 H1784 0.930 . S
C1798 C1796 1.395 . S
C1798 C1801 1.403 . S
C1799 C1796 1.403 . S
C1799 C1800 1.524 . S
C1799 C1803 1.400 . S
C1800 H1785 0.960 . S
C1800 H1786 0.960 . S
C1800 H1787 0.960 . S
C1800 C1799 1.524 . S
C1801 C1798 1.403 . S
C1801 C1802 1.392 . S
C1801 C1805 1.495 . S
C1802 C1801 1.392 . S
C1802 C1803 1.385 . S
C1802 C1804 1.478 . S
C1803 H1797 0.930 . S
C1803 C1799 1.400 . S
C1803 C1802 1.385 . S
C1804 C1802 1.478 . S
C1804 C1806 1.381 . S
C1804 C1810 1.383 . S
C1805 C1801 1.495 . S
C1805 H1811 0.959 . S
C1805 H1812 0.961 . S
C1805 H1813 0.960 . S
C1806 C1804 1.381 . S
C1806 C1807 1.394 . S
C1806 H1814 0.930 . S
C1807 C1806 1.394 . S
C1807 C1808 1.383 . S
C1807 H1815 0.929 . S
C1808 C1807 1.383 . S
C1808 C1809 1.377 . S
C1809 H1793 0.930 . S
C1809 C1808 1.377 . S
C1809 C1810 1.379 . S
C1810 H1794 0.931 . S
C1810 C1804 1.383 . S
C1810 C1809 1.379 . S
H1811 C1805 0.959 . S
H1812 C1805 0.961 . S
H1813 C1805 0.960 . S
H1814 C1806 0.930 . S
H1815 C1807 0.929 . S
H1816 C1824 0.929 . S
H1817 C1826 0.930 . S
H1818 C1828 0.930 . S
H1819 C1831 0.929 . S
H1820 C1834 0.930 . S
H1821 C1836 0.960 . S
H1822 C1836 0.960 . S
H1823 C1836 0.960 . S
C1824 H1816 0.929 . S
C1824 C1825 1.377 . S
C1824 C1826 1.384 . S
C1825 C1824 1.377 . S
C1825 C1831 1.390 . S
C1826 H1817 0.930 . S
C1826 C1824 1.384 . S
C1826 C1827 1.372 . S
C1827 C1826 1.372 . S
C1827 C1828 1.400 . S
C1827 C1832 1.490 . S
C1828 H1818 0.930 . S
C1828 C1827 1.400 . S
C1828 C1831 1.386 . S
H1829 C1845 0.930 . S
H1830 C1846 0.931 . S
C1831 H1819 0.929 . S
C1831 C1825 1.390 . S
C1831 C1828 1.386 . S
C1832 C1827 1.490 . S
C1832 C1834 1.395 . S
C1832 C1835 1.403 . S
H1833 C1839 0.930 . S
C1834 H1820 0.930 . S
C1834 C1832 1.395 . S
C1834 C1837 1.403 . S
C1835 C1832 1.403 . S
C1835 C1836 1.524 . S
C1835 C1839 1.400 . S
C1836 H1821 0.960 . S
C1836 H1822 0.960 . S
C1836 H1823 0.960 . S
C1836 C1835 1.524 . S
C1837 C1834 1.403 . S
C1837 C1838 1.392 . S
C1837 C1841 1.495 . S
C1838 C1837 1.392 . S
C1838 C1839 1.385 . S
C1838 C1840 1.478 . S
C1839 H1833 0.930 . S
C1839 C1835 1.400 . S
C1839 C1838 1.385 . S
C1840 C1838 1.478 . S
C1840 C1842 1.381 . S
C1840 C1846 1.383 . S
C1841 C1837 1.495 . S
C1841 H1847 0.959 . S
C1841 H1848 0.961 . S
C1841 H1849 0.960 . S
C1842 C1840 1.381 . S
C1842 C1843 1.394 . S
C1842 H1850 0.930 . S
C1843 C1842 1.394 . S
C1843 C1844 1.383 . S
C1843 H1851 0.929 . S
C1844 C1843 1.383 . S
C1844 C1845 1.377 . S
C1845 H1829 0.930 . S
C1845 C1844 1.377 . S
C1845 C1846 1.379 . S
C1846 H1830 0.931 . S
C1846 C1840 1.383 . S
C1846 C1845 1.379 . S
H1847 C1841 0.959 . S
H1848 C1841 0.961 . S
H1849 C1841 0.960 . S
H1850 C1842 0.930 . S
H1851 C1843 0.929 . S
H1852 C1860 0.929 . S
H1853 C1862 0.930 . S
H1854 C1864 0.930 . S
H1855 C1867 0.929 . S
H1856 C1870 0.930 . S
H1857 C1872 0.960 . S
H1858 C1872 0.960 . S
H1859 C1872 0.960 . S
C1860 H1852 0.929 . S
C1860 C1861 1.377 . S
C1860 C1862 1.384 . S
C1861 C1860 1.377 . S
C1861 C1867 1.390 . S
C1862 H1853 0.930 . S
C1862 C1860 1.384 . S
C1862 C1863 1.372 . S
C1863 C1862 1.372 . S
C1863 C1864 1.400 . S
C1863 C1868 1.490 1_556 S
C1864 H1854 0.930 . S
C1864 C1863 1.400 . S
C1864 C1867 1.386 . S
H1865 C1881 0.930 . S
H1866 C1882 0.931 . S
C1867 H1855 0.929 . S
C1867 C1861 1.390 . S
C1867 C1864 1.386 . S
C1868 C1863 1.490 1_554 S
C1868 C1870 1.395 . S
C1868 C1871 1.403 . S
H1869 C1875 0.930 . S
C1870 H1856 0.930 . S
C1870 C1868 1.395 . S
C1870 C1873 1.403 . S
C1871 C1868 1.403 . S
C1871 C1872 1.524 . S
C1871 C1875 1.400 . S
C1872 H1857 0.960 . S
C1872 H1858 0.960 . S
C1872 H1859 0.960 . S
C1872 C1871 1.524 . S
C1873 C1870 1.403 . S
C1873 C1874 1.392 . S
C1873 C1877 1.495 . S
C1874 C1873 1.392 . S
C1874 C1875 1.385 . S
C1874 C1876 1.478 . S
C1875 H1869 0.930 . S
C1875 C1871 1.400 . S
C1875 C1874 1.385 . S
C1876 C1874 1.478 . S
C1876 C1878 1.381 . S
C1876 C1882 1.383 . S
C1877 C1873 1.495 . S
C1877 H1883 0.959 . S
C1877 H1884 0.961 . S
C1877 H1885 0.960 . S
C1878 C1876 1.381 . S
C1878 C1879 1.394 . S
C1878 H1886 0.930 . S
C1879 C1878 1.394 . S
C1879 C1880 1.383 . S
C1879 H1887 0.929 . S
C1880 C1879 1.383 . S
C1880 C1881 1.377 . S
C1881 H1865 0.930 . S
C1881 C1880 1.377 . S
C1881 C1882 1.379 . S
C1882 H1866 0.931 . S
C1882 C1876 1.383 . S
C1882 C1881 1.379 . S
H1883 C1877 0.959 . S
H1884 C1877 0.961 . S
H1885 C1877 0.960 . S
H1886 C1878 0.930 . S
H1887 C1879 0.929 . S
H1888 C1896 0.929 . S
H1889 C1898 0.930 . S
H1890 C1900 0.917 1_545 S
H1891 C1903 0.929 . S
H1892 C1906 0.930 . S
H1893 C1908 0.960 . S
H1894 C1908 0.960 . S
H1895 C1908 0.960 . S
C1896 H1888 0.929 . S
C1896 C1897 1.377 . S
C1896 C1898 1.384 . S
C1897 C1896 1.377 . S
C1897 C1903 1.390 . S
C1898 H1889 0.930 . S
C1898 C1896 1.384 . S
C1898 C1899 1.372 . S
C1899 C1898 1.372 . S
C1899 C1900 1.409 . S
C1899 C1904 1.490 . S
C1900 H1890 0.917 1_565 S
C1900 C1899 1.409 . S
C1900 C1903 1.391 . S
H1901 C1917 0.930 . S
H1902 C1918 0.931 . S
C1903 H1891 0.929 . S
C1903 C1897 1.390 . S
C1903 C1900 1.391 . S
C1904 C1899 1.490 . S
C1904 C1906 1.395 . S
C1904 C1907 1.403 1_565 S
H1905 C1911 0.930 . S
C1906 H1892 0.930 . S
C1906 C1904 1.395 . S
C1906 C1909 1.403 . S
C1907 C1904 1.403 1_545 S
C1907 C1908 1.524 . S
C1907 C1911 1.400 . S
C1908 H1893 0.960 . S
C1908 H1894 0.960 . S
C1908 H1895 0.960 . S
C1908 C1907 1.524 . S
C1909 C1906 1.403 . S
C1909 C1910 1.451 . S
C1909 C1913 1.495 . S
C1910 C1909 1.451 . S
C1910 C1911 1.332 1_565 S
C1910 C1912 1.471 1_565 S
C1911 H1905 0.930 . S
C1911 C1907 1.400 . S
C1911 C1910 1.332 1_545 S
C1912 C1910 1.471 1_545 S
C1912 C1914 1.378 1_545 S
C1912 C1918 1.383 . S
C1913 C1909 1.495 . S
C1913 H1919 0.959 . S
C1913 H1920 0.961 . S
C1913 H1921 0.960 . S
C1914 C1912 1.378 1_565 S
C1914 C1915 1.388 1_565 S
C1914 H1922 0.940 . S
C1915 C1914 1.388 1_545 S
C1915 C1916 1.383 . S
C1915 H1923 0.929 . S
C1916 C1915 1.383 . S
C1916 C1917 1.377 . S
C1917 H1901 0.930 . S
C1917 C1916 1.377 . S
C1917 C1918 1.379 . S
C1918 H1902 0.931 . S
C1918 C1912 1.383 . S
C1918 C1917 1.379 . S
H1919 C1913 0.959 . S
H1920 C1913 0.961 . S
H1921 C1913 0.960 . S
H1922 C1914 0.940 . S
H1923 C1915 0.929 . S
H1924 C1932 0.929 . S
H1925 C1934 0.930 . S
H1926 C1936 0.930 . S
H1927 C1939 0.929 . S
H1928 C1942 0.930 . S
H1929 C1944 0.960 . S
H1930 C1944 0.960 . S
H1931 C1944 0.960 . S
C1932 H1924 0.929 . S
C1932 C1933 1.377 . S
C1932 C1934 1.384 . S
C1933 C1932 1.377 . S
C1933 C1939 1.390 . S
C1934 H1925 0.930 . S
C1934 C1932 1.384 . S
C1934 C1935 1.372 . S
C1935 C1934 1.372 . S
C1935 C1936 1.400 . S
C1935 C1940 1.490 . S
C1936 H1926 0.930 . S
C1936 C1935 1.400 . S
C1936 C1939 1.386 . S
H1937 C1953 0.930 . S
H1938 C1954 0.931 . S
C1939 H1927 0.929 . S
C1939 C1933 1.390 . S
C1939 C1936 1.386 . S
C1940 C1935 1.490 . S
C1940 C1942 1.395 . S
C1940 C1943 1.403 . S
H1941 C1947 0.930 . S
C1942 H1928 0.930 . S
C1942 C1940 1.395 . S
C1942 C1945 1.403 . S
C1943 C1940 1.403 . S
C1943 C1944 1.524 . S
C1943 C1947 1.400 . S
C1944 H1929 0.960 . S
C1944 H1930 0.960 . S
C1944 H1931 0.960 . S
C1944 C1943 1.524 . S
C1945 C1942 1.403 . S
C1945 C1946 1.392 . S
C1945 C1949 1.495 . S
C1946 C1945 1.392 . S
C1946 C1947 1.385 . S
C1946 C1948 1.478 1_554 S
C1947 H1941 0.930 . S
C1947 C1943 1.400 . S
C1947 C1946 1.385 . S
C1948 C1946 1.478 1_556 S
C1948 C1950 1.381 . S
C1948 C1954 1.383 . S
C1949 C1945 1.495 . S
C1949 H1955 0.959 . S
C1949 H1956 0.961 1_554 S
C1949 H1957 0.960 1_554 S
C1950 C1948 1.381 . S
C1950 C1951 1.394 . S
C1950 H1958 0.930 . S
C1951 C1950 1.394 . S
C1951 C1952 1.383 . S
C1951 H1959 0.929 . S
C1952 C1951 1.383 . S
C1952 C1953 1.377 . S
C1953 H1937 0.930 . S
C1953 C1952 1.377 . S
C1953 C1954 1.379 . S
C1954 H1938 0.931 . S
C1954 C1948 1.383 . S
C1954 C1953 1.379 . S
H1955 C1949 0.959 . S
H1956 C1949 0.961 1_556 S
H1957 C1949 0.960 1_556 S
H1958 C1950 0.930 . S
H1959 C1951 0.929 . S
H1960 C1968 0.929 . S
H1961 C1970 0.930 . S
H1962 C1972 0.930 . S
H1963 C1975 0.929 . S
H1964 C1978 0.930 . S
H1965 C1980 0.960 . S
H1966 C1980 0.960 1_565 S
H1967 C1980 0.960 . S
C1968 H1960 0.929 . S
C1968 C1969 1.377 . S
C1968 C1970 1.384 . S
C1969 C1968 1.377 . S
C1969 C1975 1.390 1_565 S
C1970 H1961 0.930 . S
C1970 C1968 1.384 . S
C1970 C1971 1.372 . S
C1971 C1970 1.372 . S
C1971 C1972 1.400 1_565 S
C1971 C1976 1.490 . S
C1972 H1962 0.930 . S
C1972 C1971 1.400 1_545 S
C1972 C1975 1.386 . S
H1973 C1989 0.930 . S
H1974 C1990 0.931 . S
C1975 H1963 0.929 . S
C1975 C1969 1.390 1_545 S
C1975 C1972 1.386 . S
C1976 C1971 1.490 . S
C1976 C1978 1.395 . S
C1976 C1979 1.384 1_565 S
H1977 C1983 0.930 . S
C1978 H1964 0.930 . S
C1978 C1976 1.395 . S
C1978 C1981 1.403 . S
C1979 C1976 1.384 1_545 S
C1979 C1980 1.534 . S
C1979 C1983 1.413 . S
C1980 H1965 0.960 . S
C1980 H1966 0.960 1_545 S
C1980 H1967 0.960 . S
C1980 C1979 1.534 . S
C1981 C1978 1.403 . S
C1981 C1982 1.374 1_565 S
C1981 C1985 1.495 . S
C1982 C1981 1.374 1_545 S
C1982 C1983 1.397 . S
C1982 C1984 1.491 . S
C1983 H1977 0.930 . S
C1983 C1979 1.413 . S
C1983 C1982 1.397 . S
C1984 C1982 1.491 . S
C1984 C1986 1.381 1_545 S
C1984 C1990 1.383 . S
C1985 C1981 1.495 . S
C1985 H1991 0.959 . S
C1985 H1992 0.961 1_565 S
C1985 H1993 0.960 . S
C1986 C1984 1.381 1_565 S
C1986 C1987 1.394 . S
C1986 H1994 0.930 . S
C1987 C1986 1.394 . S
C1987 C1988 1.383 1_565 S
C1987 H1995 0.929 . S
C1988 C1987 1.383 1_545 S
C1988 C1989 1.377 . S
C1989 H1973 0.930 . S
C1989 C1988 1.377 . S
C1989 C1990 1.379 . S
C1990 H1974 0.931 . S
C1990 C1984 1.383 . S
C1990 C1989 1.379 . S
H1991 C1985 0.959 . S
H1992 C1985 0.961 1_545 S
H1993 C1985 0.960 . S
H1994 C1986 0.930 . S
H1995 C1987 0.929 . S
H1996 C2004 0.929 . S
H1997 C2006 0.930 . S
H1998 C2008 0.930 . S
H1999 C2011 0.929 . S
H2000 C2014 0.930 . S
H2001 C2016 0.960 . S
H2002 C2016 0.960 . S
H2003 C2016 0.960 . S
C2004 H1996 0.929 . S
C2004 C2005 1.377 . S
C2004 C2006 1.384 . S
C2005 C2004 1.377 . S
C2005 C2011 1.390 . S
C2006 H1997 0.930 . S
C2006 C2004 1.384 . S
C2006 C2007 1.372 . S
C2007 C2006 1.372 . S
C2007 C2008 1.400 . S
C2007 C2012 1.490 . S
C2008 H1998 0.930 . S
C2008 C2007 1.400 . S
C2008 C2011 1.386 . S
H2009 C2025 0.930 . S
H2010 C2026 0.931 . S
C2011 H1999 0.929 . S
C2011 C2005 1.390 . S
C2011 C2008 1.386 . S
C2012 C2007 1.490 . S
C2012 C2014 1.395 . S
C2012 C2015 1.403 . S
H2013 C2019 0.930 . S
C2014 H2000 0.930 . S
C2014 C2012 1.395 . S
C2014 C2017 1.403 . S
C2015 C2012 1.403 . S
C2015 C2016 1.524 . S
C2015 C2019 1.400 . S
C2016 H2001 0.960 . S
C2016 H2002 0.960 . S
C2016 H2003 0.960 . S
C2016 C2015 1.524 . S
C2017 C2014 1.403 . S
C2017 C2018 1.392 . S
C2017 C2021 1.495 . S
C2018 C2017 1.392 . S
C2018 C2019 1.385 . S
C2018 C2020 1.478 . S
C2019 H2013 0.930 . S
C2019 C2015 1.400 . S
C2019 C2018 1.385 . S
C2020 C2018 1.478 . S
C2020 C2022 1.381 . S
C2020 C2026 1.383 . S
C2021 C2017 1.495 . S
C2021 H2027 0.959 . S
C2021 H2028 0.961 . S
C2021 H2029 0.960 . S
C2022 C2020 1.381 . S
C2022 C2023 1.394 . S
C2022 H2030 0.930 . S
C2023 C2022 1.394 . S
C2023 C2024 1.383 . S
C2023 H2031 0.929 . S
C2024 C2023 1.383 . S
C2024 C2025 1.377 . S
C2025 H2009 0.930 . S
C2025 C2024 1.377 . S
C2025 C2026 1.379 . S
C2026 H2010 0.931 . S
C2026 C2020 1.383 . S
C2026 C2025 1.379 . S
H2027 C2021 0.959 . S
H2028 C2021 0.961 . S
H2029 C2021 0.960 . S
H2030 C2022 0.930 . S
H2031 C2023 0.929 . S
H2032 C2040 0.929 . S
H2033 C2042 0.930 . S
H2034 C2044 0.971 . S
H2035 C2047 0.908 1_545 S
H2036 C2050 0.930 . S
H2037 C2052 0.960 . S
H2038 C2052 0.960 . S
H2039 C2052 0.960 . S
C2040 H2032 0.929 . S
C2040 C2041 1.377 . S
C2040 C2042 1.384 . S
C2041 C2040 1.377 . S
C2041 C2047 1.424 . S
C2042 H2033 0.930 . S
C2042 C2040 1.384 . S
C2042 C2043 1.372 . S
C2043 C2042 1.372 . S
C2043 C2044 1.374 1_565 S
C2043 C2048 1.490 . S
C2044 H2034 0.971 . S
C2044 C2043 1.374 1_545 S
C2044 C2047 1.375 1_545 S
H2045 C2061 0.930 . S
H2046 C2062 0.931 . S
C2047 H2035 0.908 1_565 S
C2047 C2041 1.424 . S
C2047 C2044 1.375 1_565 S
C2048 C2043 1.490 . S
C2048 C2050 1.395 . S
C2048 C2051 1.403 1_565 S
H2049 C2055 0.930 . S
C2050 H2036 0.930 . S
C2050 C2048 1.395 . S
C2050 C2053 1.403 . S
C2051 C2048 1.403 1_545 S
C2051 C2052 1.524 . S
C2051 C2055 1.400 . S
C2052 H2037 0.960 . S
C2052 H2038 0.960 . S
C2052 H2039 0.960 . S
C2052 C2051 1.524 . S
C2053 C2050 1.403 . S
C2053 C2054 1.460 . S
C2053 C2057 1.495 . S
C2054 C2053 1.460 . S
C2054 C2055 1.324 1_565 S
C2054 C2056 1.466 1_565 S
C2055 H2049 0.930 . S
C2055 C2051 1.400 . S
C2055 C2054 1.324 1_545 S
C2056 C2054 1.466 1_545 S
C2056 C2058 1.365 1_545 S
C2056 C2062 1.420 . S
C2057 C2053 1.495 . S
C2057 H2063 0.959 . S
C2057 H2064 0.961 . S
C2057 H2065 0.960 . S
C2058 C2056 1.365 1_565 S
C2058 C2059 1.383 1_565 S
C2058 H2066 0.930 . S
C2059 C2058 1.383 1_545 S
C2059 C2060 1.412 . S
C2059 H2067 0.918 1_545 S
C2060 C2059 1.412 . S
C2060 C2061 1.377 . S
C2061 H2045 0.930 . S
C2061 C2060 1.377 . S
C2061 C2062 1.379 . S
C2062 H2046 0.931 . S
C2062 C2056 1.420 . S
C2062 C2061 1.379 . S
H2063 C2057 0.959 . S
H2064 C2057 0.961 . S
H2065 C2057 0.960 . S
H2066 C2058 0.930 . S
H2067 C2059 0.918 1_565 S
H2068 C2076 0.929 . S
H2069 C2078 0.930 . S
H2070 C2080 0.930 . S
H2071 C2083 0.929 . S
H2072 C2086 0.930 . S
H2073 C2088 0.960 . S
H2074 C2088 0.960 . S
H2075 C2088 0.960 . S
C2076 H2068 0.929 . S
C2076 C2077 1.377 . S
C2076 C2078 1.384 . S
C2077 C2076 1.377 . S
C2077 C2083 1.390 . S
C2078 H2069 0.930 . S
C2078 C2076 1.384 . S
C2078 C2079 1.372 . S
C2079 C2078 1.372 . S
C2079 C2080 1.400 . S
C2079 C2084 1.490 . S
C2080 H2070 0.930 . S
C2080 C2079 1.400 . S
C2080 C2083 1.386 . S
H2081 C2097 0.930 . S
H2082 C2098 0.931 . S
C2083 H2071 0.929 . S
C2083 C2077 1.390 . S
C2083 C2080 1.386 . S
C2084 C2079 1.490 . S
C2084 C2086 1.395 . S
C2084 C2087 1.403 . S
H2085 C2091 0.930 . S
C2086 H2072 0.930 . S
C2086 C2084 1.395 . S
C2086 C2089 1.403 . S
C2087 C2084 1.403 . S
C2087 C2088 1.524 . S
C2087 C2091 1.400 . S
C2088 H2073 0.960 . S
C2088 H2074 0.960 . S
C2088 H2075 0.960 . S
C2088 C2087 1.524 . S
C2089 C2086 1.403 . S
C2089 C2090 1.392 . S
C2089 C2093 1.495 . S
C2090 C2089 1.392 . S
C2090 C2091 1.385 . S
C2090 C2092 1.478 1_554 S
C2091 H2085 0.930 . S
C2091 C2087 1.400 . S
C2091 C2090 1.385 . S
C2092 C2090 1.478 1_556 S
C2092 C2094 1.381 . S
C2092 C2098 1.383 . S
C2093 C2089 1.495 . S
C2093 H2099 0.959 . S
C2093 H2100 0.961 1_554 S
C2093 H2101 0.960 . S
C2094 C2092 1.381 . S
C2094 C2095 1.394 . S
C2094 H2102 0.930 . S
C2095 C2094 1.394 . S
C2095 C2096 1.383 . S
C2095 H2103 0.929 . S
C2096 C2095 1.383 . S
C2096 C2097 1.377 . S
C2097 H2081 0.930 . S
C2097 C2096 1.377 . S
C2097 C2098 1.379 . S
C2098 H2082 0.931 . S
C2098 C2092 1.383 . S
C2098 C2097 1.379 . S
H2099 C2093 0.959 . S
H2100 C2093 0.961 1_556 S
H2101 C2093 0.960 . S
H2102 C2094 0.930 . S
H2103 C2095 0.929 . S
H2104 C2112 0.929 . S
H2105 C2114 0.930 . S
H2106 C2116 0.930 . S
H2107 C2119 0.929 . S
H2108 C2122 0.930 . S
H2109 C2124 0.960 . S
H2110 C2124 0.960 . S
H2111 C2124 0.960 1_565 S
C2112 H2104 0.929 . S
C2112 C2113 1.377 1_545 S
C2112 C2114 1.384 . S
C2113 C2112 1.377 1_565 S
C2113 C2119 1.390 . S
C2114 H2105 0.930 . S
C2114 C2112 1.384 . S
C2114 C2115 1.372 1_545 S
C2115 C2114 1.372 1_565 S
C2115 C2116 1.400 . S
C2115 C2120 1.490 . S
C2116 H2106 0.930 . S
C2116 C2115 1.400 . S
C2116 C2119 1.386 . S
H2117 C2133 0.930 . S
H2118 C2134 0.931 . S
C2119 H2107 0.929 . S
C2119 C2113 1.390 . S
C2119 C2116 1.386 . S
C2120 C2115 1.490 . S
C2120 C2122 1.395 . S
C2120 C2123 1.403 1_565 S
H2121 C2127 0.930 . S
C2122 H2108 0.930 . S
C2122 C2120 1.395 . S
C2122 C2125 1.405 . S
C2123 C2120 1.403 1_545 S
C2123 C2124 1.524 . S
C2123 C2127 1.400 . S
C2124 H2109 0.960 . S
C2124 H2110 0.960 . S
C2124 H2111 0.960 1_545 S
C2124 C2123 1.524 . S
C2125 C2122 1.405 . S
C2125 C2126 1.390 1_565 S
C2125 C2129 1.496 . S
C2126 C2125 1.390 1_545 S
C2126 C2127 1.385 . S
C2126 C2128 1.478 . S
C2127 H2121 0.930 . S
C2127 C2123 1.400 . S
C2127 C2126 1.385 . S
C2128 C2126 1.478 . S
C2128 C2130 1.381 . S
C2128 C2134 1.383 1_545 S
C2129 C2125 1.496 . S
C2129 H2135 0.959 . S
C2129 H2136 0.961 . S
C2129 H2137 0.960 1_565 S
C2130 C2128 1.381 . S
C2130 C2131 1.394 . S
C2130 H2138 0.930 . S
C2131 C2130 1.394 . S
C2131 C2132 1.383 . S
C2131 H2139 0.929 . S
C2132 C2131 1.383 . S
C2132 C2133 1.377 1_545 S
C2133 H2117 0.930 . S
C2133 C2132 1.377 1_565 S
C2133 C2134 1.379 . S
C2134 H2118 0.931 . S
C2134 C2128 1.383 1_565 S
C2134 C2133 1.379 . S
H2135 C2129 0.959 . S
H2136 C2129 0.961 . S
H2137 C2129 0.960 1_545 S
H2138 C2130 0.930 . S
H2139 C2131 0.929 . S
H2140 C2148 0.929 . S
H2141 C2150 0.930 . S
H2142 C2152 0.930 . S
H2143 C2155 0.929 . S
H2144 C2158 0.930 . S
H2145 C2160 0.960 . S
H2146 C2160 0.960 . S
H2147 C2160 0.960 . S
C2148 H2140 0.929 . S
C2148 C2149 1.377 . S
C2148 C2150 1.384 . S
C2149 C2148 1.377 . S
C2149 C2155 1.390 . S
C2150 H2141 0.930 . S
C2150 C2148 1.384 . S
C2150 C2151 1.372 . S
C2151 C2150 1.372 . S
C2151 C2152 1.400 . S
C2151 C2156 1.490 . S
C2152 H2142 0.930 . S
C2152 C2151 1.400 . S
C2152 C2155 1.386 . S
H2153 C2169 0.930 . S
H2154 C2170 0.931 . S
C2155 H2143 0.929 . S
C2155 C2149 1.390 . S
C2155 C2152 1.386 . S
C2156 C2151 1.490 . S
C2156 C2158 1.395 . S
C2156 C2159 1.403 . S
H2157 C2163 0.930 . S
C2158 H2144 0.930 . S
C2158 C2156 1.395 . S
C2158 C2161 1.403 . S
C2159 C2156 1.403 . S
C2159 C2160 1.524 . S
C2159 C2163 1.400 . S
C2160 H2145 0.960 . S
C2160 H2146 0.960 . S
C2160 H2147 0.960 . S
C2160 C2159 1.524 . S
C2161 C2158 1.403 . S
C2161 C2162 1.392 . S
C2161 C2165 1.495 . S
C2162 C2161 1.392 . S
C2162 C2163 1.385 . S
C2162 C2164 1.478 . S
C2163 H2157 0.930 . S
C2163 C2159 1.400 . S
C2163 C2162 1.385 . S
C2164 C2162 1.478 . S
C2164 C2166 1.381 . S
C2164 C2170 1.383 . S
C2165 C2161 1.495 . S
C2165 H2171 0.959 . S
C2165 H2172 0.961 . S
C2165 H2173 0.960 . S
C2166 C2164 1.381 . S
C2166 C2167 1.394 . S
C2166 H2174 0.930 . S
C2167 C2166 1.394 . S
C2167 C2168 1.383 . S
C2167 H2175 0.929 . S
C2168 C2167 1.383 . S
C2168 C2169 1.377 . S
C2169 H2153 0.930 . S
C2169 C2168 1.377 . S
C2169 C2170 1.379 . S
C2170 H2154 0.931 . S
C2170 C2164 1.383 . S
C2170 C2169 1.379 . S
H2171 C2165 0.959 . S
H2172 C2165 0.961 . S
H2173 C2165 0.960 . S
H2174 C2166 0.930 . S
H2175 C2167 0.929 . S
H2176 C2184 0.929 . S
H2177 C2186 0.930 . S
H2178 C2188 0.930 . S
H2179 C2191 0.929 . S
H2180 C2194 0.930 . S
H2181 C2196 0.960 . S
H2182 C2196 0.960 . S
H2183 C2196 0.960 . S
C2184 H2176 0.929 . S
C2184 C2185 1.377 . S
C2184 C2186 1.384 . S
C2185 C2184 1.377 . S
C2185 C2191 1.390 . S
C2186 H2177 0.930 . S
C2186 C2184 1.384 . S
C2186 C2187 1.372 . S
C2187 C2186 1.372 . S
C2187 C2188 1.400 . S
C2187 C2192 1.490 . S
C2188 H2178 0.930 . S
C2188 C2187 1.400 . S
C2188 C2191 1.386 . S
H2189 C2205 0.930 . S
H2190 C2206 0.931 . S
C2191 H2179 0.929 . S
C2191 C2185 1.390 . S
C2191 C2188 1.386 . S
C2192 C2187 1.490 . S
C2192 C2194 1.395 . S
C2192 C2195 1.403 . S
H2193 C2199 0.930 . S
C2194 H2180 0.930 . S
C2194 C2192 1.395 . S
C2194 C2197 1.403 . S
C2195 C2192 1.403 . S
C2195 C2196 1.524 . S
C2195 C2199 1.400 . S
C2196 H2181 0.960 . S
C2196 H2182 0.960 . S
C2196 H2183 0.960 . S
C2196 C2195 1.524 . S
C2197 C2194 1.403 . S
C2197 C2198 1.392 . S
C2197 C2201 1.495 . S
C2198 C2197 1.392 . S
C2198 C2199 1.385 . S
C2198 C2200 1.478 . S
C2199 H2193 0.930 . S
C2199 C2195 1.400 . S
C2199 C2198 1.385 . S
C2200 C2198 1.478 . S
C2200 C2202 1.381 . S
C2200 C2206 1.383 . S
C2201 C2197 1.495 . S
C2201 H2207 0.959 . S
C2201 H2208 0.961 . S
C2201 H2209 0.960 . S
C2202 C2200 1.381 . S
C2202 C2203 1.394 . S
C2202 H2210 0.930 . S
C2203 C2202 1.394 . S
C2203 C2204 1.383 . S
C2203 H2211 0.929 . S
C2204 C2203 1.383 . S
C2204 C2205 1.377 . S
C2205 H2189 0.930 . S
C2205 C2204 1.377 . S
C2205 C2206 1.379 . S
C2206 H2190 0.931 . S
C2206 C2200 1.383 . S
C2206 C2205 1.379 . S
H2207 C2201 0.959 . S
H2208 C2201 0.961 . S
H2209 C2201 0.960 . S
H2210 C2202 0.930 . S
H2211 C2203 0.929 . S
H2212 C2220 0.929 . S
H2213 C2222 0.930 . S
H2214 C2224 0.930 . S
H2215 C2227 0.929 . S
H2216 C2230 0.930 . S
H2217 C2232 0.960 . S
H2218 C2232 0.960 . S
H2219 C2232 0.960 . S
C2220 H2212 0.929 . S
C2220 C2221 1.377 . S
C2220 C2222 1.384 . S
C2221 C2220 1.377 . S
C2221 C2227 1.390 . S
C2222 H2213 0.930 . S
C2222 C2220 1.384 . S
C2222 C2223 1.372 . S
C2223 C2222 1.372 . S
C2223 C2224 1.400 . S
C2223 C2228 1.490 . S
C2224 H2214 0.930 . S
C2224 C2223 1.400 . S
C2224 C2227 1.386 . S
H2225 C2241 0.930 . S
H2226 C2242 0.931 . S
C2227 H2215 0.929 . S
C2227 C2221 1.390 . S
C2227 C2224 1.386 . S
C2228 C2223 1.490 . S
C2228 C2230 1.395 . S
C2228 C2231 1.403 . S
H2229 C2235 0.930 . S
C2230 H2216 0.930 . S
C2230 C2228 1.395 . S
C2230 C2233 1.403 . S
C2231 C2228 1.403 . S
C2231 C2232 1.524 . S
C2231 C2235 1.400 . S
C2232 H2217 0.960 . S
C2232 H2218 0.960 . S
C2232 H2219 0.960 . S
C2232 C2231 1.524 . S
C2233 C2230 1.403 . S
C2233 C2234 1.392 . S
C2233 C2237 1.495 . S
C2234 C2233 1.392 . S
C2234 C2235 1.385 . S
C2234 C2236 1.478 . S
C2235 H2229 0.930 . S
C2235 C2231 1.400 . S
C2235 C2234 1.385 . S
C2236 C2234 1.478 . S
C2236 C2238 1.381 . S
C2236 C2242 1.383 . S
C2237 C2233 1.495 . S
C2237 H2243 0.959 . S
C2237 H2244 0.961 . S
C2237 H2245 0.960 . S
C2238 C2236 1.381 . S
C2238 C2239 1.394 . S
C2238 H2246 0.930 . S
C2239 C2238 1.394 . S
C2239 C2240 1.383 . S
C2239 H2247 0.929 . S
C2240 C2239 1.383 . S
C2240 C2241 1.377 . S
C2241 H2225 0.930 . S
C2241 C2240 1.377 . S
C2241 C2242 1.379 . S
C2242 H2226 0.931 . S
C2242 C2236 1.383 . S
C2242 C2241 1.379 . S
H2243 C2237 0.959 . S
H2244 C2237 0.961 . S
H2245 C2237 0.960 . S
H2246 C2238 0.930 . S
H2247 C2239 0.929 . S
H2248 C2256 0.929 . S
H2249 C2258 0.930 . S
H2250 C2260 0.930 . S
H2251 C2263 0.929 . S
H2252 C2266 0.930 . S
H2253 C2268 0.960 . S
H2254 C2268 0.960 . S
H2255 C2268 0.960 . S
C2256 H2248 0.929 . S
C2256 C2257 1.377 . S
C2256 C2258 1.384 . S
C2257 C2256 1.377 . S
C2257 C2263 1.390 . S
C2258 H2249 0.930 . S
C2258 C2256 1.384 . S
C2258 C2259 1.372 . S
C2259 C2258 1.372 . S
C2259 C2260 1.400 . S
C2259 C2264 1.490 . S
C2260 H2250 0.930 . S
C2260 C2259 1.400 . S
C2260 C2263 1.386 . S
H2261 C2277 0.930 . S
H2262 C2278 0.931 . S
C2263 H2251 0.929 . S
C2263 C2257 1.390 . S
C2263 C2260 1.386 . S
C2264 C2259 1.490 . S
C2264 C2266 1.395 . S
C2264 C2267 1.403 . S
H2265 C2271 0.930 . S
C2266 H2252 0.930 . S
C2266 C2264 1.395 . S
C2266 C2269 1.403 . S
C2267 C2264 1.403 . S
C2267 C2268 1.524 . S
C2267 C2271 1.400 . S
C2268 H2253 0.960 . S
C2268 H2254 0.960 . S
C2268 H2255 0.960 . S
C2268 C2267 1.524 . S
C2269 C2266 1.403 . S
C2269 C2270 1.392 . S
C2269 C2273 1.495 . S
C2270 C2269 1.392 . S
C2270 C2271 1.385 . S
C2270 C2272 1.478 . S
C2271 H2265 0.930 . S
C2271 C2267 1.400 . S
C2271 C2270 1.385 . S
C2272 C2270 1.478 . S
C2272 C2274 1.381 . S
C2272 C2278 1.383 . S
C2273 C2269 1.495 . S
C2273 H2279 0.959 . S
C2273 H2280 0.961 . S
C2273 H2281 0.960 . S
C2274 C2272 1.381 . S
C2274 C2275 1.394 . S
C2274 H2282 0.930 . S
C2275 C2274 1.394 . S
C2275 C2276 1.383 . S
C2275 H2283 0.929 . S
C2276 C2275 1.383 . S
C2276 C2277 1.377 . S
C2277 H2261 0.930 . S
C2277 C2276 1.377 . S
C2277 C2278 1.379 . S
C2278 H2262 0.931 . S
C2278 C2272 1.383 . S
C2278 C2277 1.379 . S
H2279 C2273 0.959 . S
H2280 C2273 0.961 . S
H2281 C2273 0.960 . S
H2282 C2274 0.930 . S
H2283 C2275 0.929 . S
H2284 C2292 0.929 . S
H2285 C2294 0.930 . S
H2286 C2296 0.930 . S
H2287 C2299 0.929 . S
H2288 C2302 0.930 . S
H2289 C2304 0.960 . S
H2290 C2304 0.960 . S
H2291 C2304 0.960 . S
C2292 H2284 0.929 . S
C2292 C2293 1.377 . S
C2292 C2294 1.384 . S
C2293 C2292 1.377 . S
C2293 C2299 1.390 . S
C2294 H2285 0.930 . S
C2294 C2292 1.384 . S
C2294 C2295 1.372 . S
C2295 C2294 1.372 . S
C2295 C2296 1.400 . S
C2295 C2300 1.490 . S
C2296 H2286 0.930 . S
C2296 C2295 1.400 . S
C2296 C2299 1.386 . S
H2297 C2313 0.930 . S
H2298 C2314 0.931 . S
C2299 H2287 0.929 . S
C2299 C2293 1.390 . S
C2299 C2296 1.386 . S
C2300 C2295 1.490 . S
C2300 C2302 1.395 . S
C2300 C2303 1.403 . S
H2301 C2307 0.930 . S
C2302 H2288 0.930 . S
C2302 C2300 1.395 . S
C2302 C2305 1.403 . S
C2303 C2300 1.403 . S
C2303 C2304 1.524 . S
C2303 C2307 1.400 . S
C2304 H2289 0.960 . S
C2304 H2290 0.960 . S
C2304 H2291 0.960 . S
C2304 C2303 1.524 . S
C2305 C2302 1.403 . S
C2305 C2306 1.392 . S
C2305 C2309 1.495 . S
C2306 C2305 1.392 . S
C2306 C2307 1.385 . S
C2306 C2308 1.478 . S
C2307 H2301 0.930 . S
C2307 C2303 1.400 . S
C2307 C2306 1.385 . S
C2308 C2306 1.478 . S
C2308 C2310 1.381 . S
C2308 C2314 1.383 . S
C2309 C2305 1.495 . S
C2309 H2315 0.959 . S
C2309 H2316 0.961 . S
C2309 H2317 0.960 . S
C2310 C2308 1.381 . S
C2310 C2311 1.394 . S
C2310 H2318 0.930 . S
C2311 C2310 1.394 . S
C2311 C2312 1.367 1_556 S
C2311 H2319 0.929 . S
C2312 C2311 1.367 1_554 S
C2312 C2313 1.382 . S
C2313 H2297 0.930 . S
C2313 C2312 1.382 . S
C2313 C2314 1.379 1_554 S
C2314 H2298 0.931 . S
C2314 C2308 1.383 . S
C2314 C2313 1.379 1_556 S
H2315 C2309 0.959 . S
H2316 C2309 0.961 . S
H2317 C2309 0.960 . S
H2318 C2310 0.930 . S
H2319 C2311 0.929 . S
H2320 C2328 0.929 . S
H2321 C2330 0.930 . S
H2322 C2332 0.930 . S
H2323 C2335 0.929 . S
H2324 C2338 0.930 . S
H2325 C2340 0.960 . S
H2326 C2340 0.960 . S
H2327 C2340 0.960 . S
C2328 H2320 0.929 . S
C2328 C2329 1.377 . S
C2328 C2330 1.384 . S
C2329 C2328 1.377 . S
C2329 C2335 1.390 . S
C2330 H2321 0.930 . S
C2330 C2328 1.384 . S
C2330 C2331 1.372 . S
C2331 C2330 1.372 . S
C2331 C2332 1.400 . S
C2331 C2336 1.490 . S
C2332 H2322 0.930 . S
C2332 C2331 1.400 . S
C2332 C2335 1.386 . S
H2333 C2349 0.930 . S
H2334 C2350 0.931 . S
C2335 H2323 0.929 . S
C2335 C2329 1.390 . S
C2335 C2332 1.386 . S
C2336 C2331 1.490 . S
C2336 C2338 1.395 . S
C2336 C2339 1.403 . S
H2337 C2343 0.930 . S
C2338 H2324 0.930 . S
C2338 C2336 1.395 . S
C2338 C2341 1.403 . S
C2339 C2336 1.403 . S
C2339 C2340 1.524 . S
C2339 C2343 1.400 . S
C2340 H2325 0.960 . S
C2340 H2326 0.960 . S
C2340 H2327 0.960 . S
C2340 C2339 1.524 . S
C2341 C2338 1.403 . S
C2341 C2342 1.392 . S
C2341 C2345 1.495 . S
C2342 C2341 1.392 . S
C2342 C2343 1.385 . S
C2342 C2344 1.478 . S
C2343 H2337 0.930 . S
C2343 C2339 1.400 . S
C2343 C2342 1.385 . S
C2344 C2342 1.478 . S
C2344 C2346 1.381 . S
C2344 C2350 1.383 . S
C2345 C2341 1.495 . S
C2345 H2351 0.959 . S
C2345 H2352 0.961 . S
C2345 H2353 0.960 . S
C2346 C2344 1.381 . S
C2346 C2347 1.394 . S
C2346 H2354 0.930 . S
C2347 C2346 1.394 . S
C2347 C2348 1.383 . S
C2347 H2355 0.929 . S
C2348 C2347 1.383 . S
C2348 C2349 1.377 . S
C2349 H2333 0.930 . S
C2349 C2348 1.377 . S
C2349 C2350 1.379 . S
C2350 H2334 0.931 . S
C2350 C2344 1.383 . S
C2350 C2349 1.379 . S
H2351 C2345 0.959 . S
H2352 C2345 0.961 . S
H2353 C2345 0.960 . S
H2354 C2346 0.930 . S
H2355 C2347 0.929 . S
H2356 C2364 0.929 . S
H2357 C2366 0.930 . S
H2358 C2368 0.930 . S
H2359 C2371 0.929 . S
H2360 C2374 0.930 . S
H2361 C2376 0.960 . S
H2362 C2376 0.960 . S
H2363 C2376 0.960 . S
C2364 H2356 0.929 . S
C2364 C2365 1.377 . S
C2364 C2366 1.384 . S
C2365 C2364 1.377 . S
C2365 C2371 1.390 . S
C2366 H2357 0.930 . S
C2366 C2364 1.384 . S
C2366 C2367 1.372 . S
C2367 C2366 1.372 . S
C2367 C2368 1.400 . S
C2367 C2372 1.490 . S
C2368 H2358 0.930 . S
C2368 C2367 1.400 . S
C2368 C2371 1.386 . S
H2369 C2385 0.930 . S
H2370 C2386 0.931 . S
C2371 H2359 0.929 . S
C2371 C2365 1.390 . S
C2371 C2368 1.386 . S
C2372 C2367 1.490 . S
C2372 C2374 1.395 . S
C2372 C2375 1.403 . S
H2373 C2379 0.930 . S
C2374 H2360 0.930 . S
C2374 C2372 1.395 . S
C2374 C2377 1.403 . S
C2375 C2372 1.403 . S
C2375 C2376 1.524 . S
C2375 C2379 1.400 . S
C2376 H2361 0.960 . S
C2376 H2362 0.960 . S
C2376 H2363 0.960 . S
C2376 C2375 1.524 . S
C2377 C2374 1.403 . S
C2377 C2378 1.392 . S
C2377 C2381 1.495 . S
C2378 C2377 1.392 . S
C2378 C2379 1.385 . S
C2378 C2380 1.478 . S
C2379 H2373 0.930 . S
C2379 C2375 1.400 . S
C2379 C2378 1.385 . S
C2380 C2378 1.478 . S
C2380 C2382 1.381 . S
C2380 C2386 1.383 . S
C2381 C2377 1.495 . S
C2381 H2387 0.959 . S
C2381 H2388 0.961 . S
C2381 H2389 0.960 . S
C2382 C2380 1.381 . S
C2382 C2383 1.394 . S
C2382 H2390 0.930 . S
C2383 C2382 1.394 . S
C2383 C2384 1.383 . S
C2383 H2391 0.929 . S
C2384 C2383 1.383 . S
C2384 C2385 1.377 . S
C2385 H2369 0.930 . S
C2385 C2384 1.377 . S
C2385 C2386 1.379 . S
C2386 H2370 0.931 . S
C2386 C2380 1.383 . S
C2386 C2385 1.379 . S
H2387 C2381 0.959 . S
H2388 C2381 0.961 . S
H2389 C2381 0.960 . S
H2390 C2382 0.930 . S
H2391 C2383 0.929 . S
H2392 C2400 0.929 . S
H2393 C2402 0.930 . S
H2394 C2404 0.930 . S
H2395 C2407 0.929 . S
H2396 C2410 0.930 . S
H2397 C2412 0.960 . S
H2398 C2412 0.960 . S
H2399 C2412 0.960 . S
C2400 H2392 0.929 . S
C2400 C2401 1.377 . S
C2400 C2402 1.384 . S
C2401 C2400 1.377 . S
C2401 C2407 1.390 . S
C2402 H2393 0.930 . S
C2402 C2400 1.384 . S
C2402 C2403 1.372 . S
C2403 C2402 1.372 . S
C2403 C2404 1.400 . S
C2403 C2408 1.490 . S
C2404 H2394 0.930 . S
C2404 C2403 1.400 . S
C2404 C2407 1.386 . S
H2405 C2421 0.930 . S
H2406 C2422 0.931 . S
C2407 H2395 0.929 . S
C2407 C2401 1.390 . S
C2407 C2404 1.386 . S
C2408 C2403 1.490 . S
C2408 C2410 1.395 . S
C2408 C2411 1.403 . S
H2409 C2415 0.930 . S
C2410 H2396 0.930 . S
C2410 C2408 1.395 . S
C2410 C2413 1.403 . S
C2411 C2408 1.403 . S
C2411 C2412 1.524 . S
C2411 C2415 1.400 . S
C2412 H2397 0.960 . S
C2412 H2398 0.960 . S
C2412 H2399 0.960 . S
C2412 C2411 1.524 . S
C2413 C2410 1.403 . S
C2413 C2414 1.392 . S
C2413 C2417 1.495 . S
C2414 C2413 1.392 . S
C2414 C2415 1.385 . S
C2414 C2416 1.478 . S
C2415 H2409 0.930 . S
C2415 C2411 1.400 . S
C2415 C2414 1.385 . S
C2416 C2414 1.478 . S
C2416 C2418 1.381 . S
C2416 C2422 1.383 . S
C2417 C2413 1.495 . S
C2417 H2423 0.959 . S
C2417 H2424 0.961 . S
C2417 H2425 0.960 . S
C2418 C2416 1.381 . S
C2418 C2419 1.394 1_556 S
C2418 H2426 0.930 . S
C2419 C2418 1.394 1_554 S
C2419 C2420 1.383 . S
C2419 H2427 0.929 . S
C2420 C2419 1.383 . S
C2420 C2421 1.377 1_554 S
C2421 H2405 0.930 . S
C2421 C2420 1.377 1_556 S
C2421 C2422 1.379 . S
C2422 H2406 0.931 . S
C2422 C2416 1.383 . S
C2422 C2421 1.379 . S
H2423 C2417 0.959 . S
H2424 C2417 0.961 . S
H2425 C2417 0.960 . S
H2426 C2418 0.930 . S
H2427 C2419 0.929 . S
H2428 C2436 0.929 . S
H2429 C2438 0.930 . S
H2430 C2440 0.930 . S
H2431 C2443 0.929 . S
H2432 C2446 0.930 . S
H2433 C2448 0.960 . S
H2434 C2448 0.960 . S
H2435 C2448 0.960 . S
C2436 H2428 0.929 . S
C2436 C2437 1.377 . S
C2436 C2438 1.384 . S
C2437 C2436 1.377 . S
C2437 C2443 1.390 . S
C2438 H2429 0.930 . S
C2438 C2436 1.384 . S
C2438 C2439 1.372 . S
C2439 C2438 1.372 . S
C2439 C2440 1.400 . S
C2439 C2444 1.490 . S
C2440 H2430 0.930 . S
C2440 C2439 1.400 . S
C2440 C2443 1.386 . S
H2441 C2457 0.930 . S
H2442 C2458 0.931 . S
C2443 H2431 0.929 . S
C2443 C2437 1.390 . S
C2443 C2440 1.386 . S
C2444 C2439 1.490 . S
C2444 C2446 1.395 . S
C2444 C2447 1.403 . S
H2445 C2451 0.930 . S
C2446 H2432 0.930 . S
C2446 C2444 1.395 . S
C2446 C2449 1.403 . S
C2447 C2444 1.403 . S
C2447 C2448 1.524 . S
C2447 C2451 1.400 . S
C2448 H2433 0.960 . S
C2448 H2434 0.960 . S
C2448 H2435 0.960 . S
C2448 C2447 1.524 . S
C2449 C2446 1.403 . S
C2449 C2450 1.392 . S
C2449 C2453 1.495 . S
C2450 C2449 1.392 . S
C2450 C2451 1.385 . S
C2450 C2452 1.478 . S
C2451 H2445 0.930 . S
C2451 C2447 1.400 . S
C2451 C2450 1.385 . S
C2452 C2450 1.478 . S
C2452 C2454 1.381 . S
C2452 C2458 1.383 . S
C2453 C2449 1.495 . S
C2453 H2459 0.959 . S
C2453 H2460 0.961 . S
C2453 H2461 0.960 . S
C2454 C2452 1.381 . S
C2454 C2455 1.394 . S
C2454 H2462 0.930 . S
C2455 C2454 1.394 . S
C2455 C2456 1.383 . S
C2455 H2463 0.929 . S
C2456 C2455 1.383 . S
C2456 C2457 1.377 . S
C2457 H2441 0.930 . S
C2457 C2456 1.377 . S
C2457 C2458 1.379 . S
C2458 H2442 0.931 . S
C2458 C2452 1.383 . S
C2458 C2457 1.379 . S
H2459 C2453 0.959 . S
H2460 C2453 0.961 . S
H2461 C2453 0.960 . S
H2462 C2454 0.930 . S
H2463 C2455 0.929 . S
H2464 C2472 0.929 . S
H2465 C2474 0.930 . S
H2466 C2476 0.930 . S
H2467 C2479 0.929 . S
H2468 C2482 0.930 . S
H2469 C2484 0.960 . S
H2470 C2484 0.960 . S
H2471 C2484 0.970 . S
C2472 H2464 0.929 . S
C2472 C2473 1.377 1_556 S
C2472 C2474 1.384 . S
C2473 C2472 1.377 1_554 S
C2473 C2479 1.390 . S
C2474 H2465 0.930 . S
C2474 C2472 1.384 . S
C2474 C2475 1.372 . S
C2475 C2474 1.372 . S
C2475 C2476 1.400 1_556 S
C2475 C2480 1.490 . S
C2476 H2466 0.930 . S
C2476 C2475 1.400 1_554 S
C2476 C2479 1.386 . S
H2477 C2493 0.930 . S
H2478 C2494 0.931 . S
C2479 H2467 0.929 . S
C2479 C2473 1.390 . S
C2479 C2476 1.386 . S
C2480 C2475 1.490 . S
C2480 C2482 1.395 . S
C2480 C2483 1.403 . S
H2481 C2487 0.930 . S
C2482 H2468 0.930 . S
C2482 C2480 1.395 . S
C2482 C2485 1.403 . S
C2483 C2480 1.403 . S
C2483 C2484 1.524 . S
C2483 C2487 1.400 . S
C2484 H2469 0.960 . S
C2484 H2470 0.960 . S
C2484 H2471 0.970 . S
C2484 C2483 1.524 . S
C2485 C2482 1.403 . S
C2485 C2486 1.392 . S
C2485 C2489 1.495 . S
C2486 C2485 1.392 . S
C2486 C2487 1.385 . S
C2486 C2488 1.478 . S
C2487 H2481 0.930 . S
C2487 C2483 1.400 . S
C2487 C2486 1.385 . S
C2488 C2486 1.478 . S
C2488 C2490 1.381 . S
C2488 C2494 1.383 . S
C2489 C2485 1.495 . S
C2489 H2495 0.959 . S
C2489 H2496 0.961 . S
C2489 H2497 0.960 . S
C2490 C2488 1.381 . S
C2490 C2491 1.394 . S
C2490 H2498 0.930 . S
C2491 C2490 1.394 . S
C2491 C2492 1.383 . S
C2491 H2499 0.929 . S
C2492 C2491 1.383 . S
C2492 C2493 1.377 . S
C2493 H2477 0.930 . S
C2493 C2492 1.377 . S
C2493 C2494 1.379 . S
C2494 H2478 0.931 . S
C2494 C2488 1.383 . S
C2494 C2493 1.379 . S
H2495 C2489 0.959 . S
H2496 C2489 0.961 . S
H2497 C2489 0.960 . S
H2498 C2490 0.930 . S
H2499 C2491 0.929 . S
H2500 C2508 0.929 . S
H2501 C2510 0.930 . S
H2502 C2512 0.930 . S
H2503 C2515 0.929 . S
H2504 C2518 0.930 . S
H2505 C2520 0.960 . S
H2506 C2520 0.960 . S
H2507 C2520 0.960 . S
C2508 H2500 0.929 . S
C2508 C2509 1.377 . S
C2508 C2510 1.384 . S
C2509 C2508 1.377 . S
C2509 C2515 1.390 . S
C2510 H2501 0.930 . S
C2510 C2508 1.384 . S
C2510 C2511 1.372 . S
C2511 C2510 1.372 . S
C2511 C2512 1.400 . S
C2511 C2516 1.490 . S
C2512 H2502 0.930 . S
C2512 C2511 1.400 . S
C2512 C2515 1.386 . S
H2513 C2529 0.930 . S
H2514 C2530 0.931 . S
C2515 H2503 0.929 . S
C2515 C2509 1.390 . S
C2515 C2512 1.386 . S
C2516 C2511 1.490 . S
C2516 C2518 1.395 . S
C2516 C2519 1.403 . S
H2517 C2523 0.930 . S
C2518 H2504 0.930 . S
C2518 C2516 1.395 . S
C2518 C2521 1.403 . S
C2519 C2516 1.403 . S
C2519 C2520 1.524 . S
C2519 C2523 1.400 . S
C2520 H2505 0.960 . S
C2520 H2506 0.960 . S
C2520 H2507 0.960 . S
C2520 C2519 1.524 . S
C2521 C2518 1.403 . S
C2521 C2522 1.392 . S
C2521 C2525 1.495 . S
C2522 C2521 1.392 . S
C2522 C2523 1.385 . S
C2522 C2524 1.478 . S
C2523 H2517 0.930 . S
C2523 C2519 1.400 . S
C2523 C2522 1.385 . S
C2524 C2522 1.478 . S
C2524 C2526 1.381 . S
C2524 C2530 1.383 . S
C2525 C2521 1.495 . S
C2525 H2531 0.959 . S
C2525 H2532 0.961 . S
C2525 H2533 0.960 . S
C2526 C2524 1.381 . S
C2526 C2527 1.394 . S
C2526 H2534 0.930 . S
C2527 C2526 1.394 . S
C2527 C2528 1.383 . S
C2527 H2535 0.929 . S
C2528 C2527 1.383 . S
C2528 C2529 1.377 . S
C2529 H2513 0.930 . S
C2529 C2528 1.377 . S
C2529 C2530 1.379 . S
C2530 H2514 0.931 . S
C2530 C2524 1.383 . S
C2530 C2529 1.379 . S
H2531 C2525 0.959 . S
H2532 C2525 0.961 . S
H2533 C2525 0.960 . S
H2534 C2526 0.930 . S
H2535 C2527 0.929 . S
H2536 C2544 0.929 . S
H2537 C2546 0.930 . S
H2538 C2548 0.930 . S
H2539 C2551 0.929 . S
H2540 C2554 0.930 . S
H2541 C2556 0.960 . S
H2542 C2556 0.960 . S
H2543 C2556 0.960 . S
C2544 H2536 0.929 . S
C2544 C2545 1.377 . S
C2544 C2546 1.384 . S
C2545 C2544 1.377 . S
C2545 C2551 1.390 . S
C2546 H2537 0.930 . S
C2546 C2544 1.384 . S
C2546 C2547 1.372 . S
C2547 C2546 1.372 . S
C2547 C2548 1.400 . S
C2547 C2552 1.490 . S
C2548 H2538 0.930 . S
C2548 C2547 1.400 . S
C2548 C2551 1.386 . S
H2549 C2565 0.930 . S
H2550 C2566 0.931 . S
C2551 H2539 0.929 . S
C2551 C2545 1.390 . S
C2551 C2548 1.386 . S
C2552 C2547 1.490 . S
C2552 C2554 1.395 . S
C2552 C2555 1.403 . S
H2553 C2559 0.930 . S
C2554 H2540 0.930 . S
C2554 C2552 1.395 . S
C2554 C2557 1.403 . S
C2555 C2552 1.403 . S
C2555 C2556 1.524 . S
C2555 C2559 1.400 . S
C2556 H2541 0.960 . S
C2556 H2542 0.960 . S
C2556 H2543 0.960 . S
C2556 C2555 1.524 . S
C2557 C2554 1.403 . S
C2557 C2558 1.392 . S
C2557 C2561 1.495 . S
C2558 C2557 1.392 . S
C2558 C2559 1.385 . S
C2558 C2560 1.478 . S
C2559 H2553 0.930 . S
C2559 C2555 1.400 . S
C2559 C2558 1.385 . S
C2560 C2558 1.478 . S
C2560 C2562 1.381 . S
C2560 C2566 1.383 . S
C2561 C2557 1.495 . S
C2561 H2567 0.959 . S
C2561 H2568 0.961 . S
C2561 H2569 0.960 . S
C2562 C2560 1.381 . S
C2562 C2563 1.394 . S
C2562 H2570 0.930 . S
C2563 C2562 1.394 . S
C2563 C2564 1.383 . S
C2563 H2571 0.929 . S
C2564 C2563 1.383 . S
C2564 C2565 1.377 . S
C2565 H2549 0.930 . S
C2565 C2564 1.377 . S
C2565 C2566 1.379 . S
C2566 H2550 0.931 . S
C2566 C2560 1.383 . S
C2566 C2565 1.379 . S
H2567 C2561 0.959 . S
H2568 C2561 0.961 . S
H2569 C2561 0.960 . S
H2570 C2562 0.930 . S
H2571 C2563 0.929 . S
H2572 C2580 0.929 . S
H2573 C2582 0.930 . S
H2574 C2584 0.930 . S
H2575 C2587 0.929 . S
H2576 C2590 0.930 . S
H2577 C2592 0.960 . S
H2578 C2592 0.960 . S
H2579 C2592 0.960 . S
C2580 H2572 0.929 . S
C2580 C2581 1.377 . S
C2580 C2582 1.384 . S
C2581 C2580 1.377 . S
C2581 C2587 1.390 . S
C2582 H2573 0.930 . S
C2582 C2580 1.384 . S
C2582 C2583 1.372 . S
C2583 C2582 1.372 . S
C2583 C2584 1.400 . S
C2583 C2588 1.490 . S
C2584 H2574 0.930 . S
C2584 C2583 1.400 . S
C2584 C2587 1.386 . S
H2585 C2601 0.930 . S
H2586 C2602 0.931 . S
C2587 H2575 0.929 . S
C2587 C2581 1.390 . S
C2587 C2584 1.386 . S
C2588 C2583 1.490 . S
C2588 C2590 1.395 . S
C2588 C2591 1.403 . S
H2589 C2595 0.930 . S
C2590 H2576 0.930 . S
C2590 C2588 1.395 . S
C2590 C2593 1.403 . S
C2591 C2588 1.403 . S
C2591 C2592 1.524 . S
C2591 C2595 1.400 . S
C2592 H2577 0.960 . S
C2592 H2578 0.960 . S
C2592 H2579 0.960 . S
C2592 C2591 1.524 . S
C2593 C2590 1.403 . S
C2593 C2594 1.392 . S
C2593 C2597 1.495 . S
C2594 C2593 1.392 . S
C2594 C2595 1.385 . S
C2594 C2596 1.478 . S
C2595 H2589 0.930 . S
C2595 C2591 1.400 . S
C2595 C2594 1.385 . S
C2596 C2594 1.478 . S
C2596 C2598 1.381 . S
C2596 C2602 1.383 . S
C2597 C2593 1.495 . S
C2597 H2603 0.959 . S
C2597 H2604 0.961 . S
C2597 H2605 0.960 . S
C2598 C2596 1.381 . S
C2598 C2599 1.394 . S
C2598 H2606 0.930 . S
C2599 C2598 1.394 . S
C2599 C2600 1.383 . S
C2599 H2607 0.929 . S
C2600 C2599 1.383 . S
C2600 C2601 1.377 . S
C2601 H2585 0.930 . S
C2601 C2600 1.377 . S
C2601 C2602 1.379 . S
C2602 H2586 0.931 . S
C2602 C2596 1.383 . S
C2602 C2601 1.379 . S
H2603 C2597 0.959 . S
H2604 C2597 0.961 . S
H2605 C2597 0.960 . S
H2606 C2598 0.930 . S
H2607 C2599 0.929 . S
H2608 C2616 0.929 . S
H2609 C2618 0.930 . S
H2610 C2620 0.930 . S
H2611 C2623 0.929 . S
H2612 C2626 0.930 . S
H2613 C2628 0.960 . S
H2614 C2628 0.960 . S
H2615 C2628 0.960 . S
C2616 H2608 0.929 . S
C2616 C2617 1.377 . S
C2616 C2618 1.384 . S
C2617 C2616 1.377 . S
C2617 C2623 1.390 . S
C2618 H2609 0.930 . S
C2618 C2616 1.384 . S
C2618 C2619 1.372 . S
C2619 C2618 1.372 . S
C2619 C2620 1.400 . S
C2619 C2624 1.490 . S
C2620 H2610 0.930 . S
C2620 C2619 1.400 . S
C2620 C2623 1.386 . S
H2621 C2637 0.930 . S
H2622 C2638 0.931 . S
C2623 H2611 0.929 . S
C2623 C2617 1.390 . S
C2623 C2620 1.386 . S
C2624 C2619 1.490 . S
C2624 C2626 1.395 . S
C2624 C2627 1.403 . S
H2625 C2631 0.930 . S
C2626 H2612 0.930 . S
C2626 C2624 1.395 . S
C2626 C2629 1.403 . S
C2627 C2624 1.403 . S
C2627 C2628 1.524 . S
C2627 C2631 1.400 . S
C2628 H2613 0.960 . S
C2628 H2614 0.960 . S
C2628 H2615 0.960 . S
C2628 C2627 1.524 . S
C2629 C2626 1.403 . S
C2629 C2630 1.392 . S
C2629 C2633 1.495 . S
C2630 C2629 1.392 . S
C2630 C2631 1.385 . S
C2630 C2632 1.478 . S
C2631 H2625 0.930 . S
C2631 C2627 1.400 . S
C2631 C2630 1.385 . S
C2632 C2630 1.478 . S
C2632 C2634 1.381 . S
C2632 C2638 1.383 . S
C2633 C2629 1.495 . S
C2633 H2639 0.959 . S
C2633 H2640 0.961 . S
C2633 H2641 0.960 . S
C2634 C2632 1.381 . S
C2634 C2635 1.394 . S
C2634 H2642 0.930 . S
C2635 C2634 1.394 . S
C2635 C2636 1.383 . S
C2635 H2643 0.929 . S
C2636 C2635 1.383 . S
C2636 C2637 1.377 . S
C2637 H2621 0.930 . S
C2637 C2636 1.377 . S
C2637 C2638 1.379 . S
C2638 H2622 0.931 . S
C2638 C2632 1.383 . S
C2638 C2637 1.379 . S
H2639 C2633 0.959 . S
H2640 C2633 0.961 . S
H2641 C2633 0.960 . S
H2642 C2634 0.930 . S
H2643 C2635 0.929 . S
H2644 C2652 0.929 . S
H2645 C2654 0.930 . S
H2646 C2656 0.930 . S
H2647 C2659 0.929 . S
H2648 C2662 0.930 . S
H2649 C2664 0.960 . S
H2650 C2664 0.960 . S
H2651 C2664 0.960 . S
C2652 H2644 0.929 . S
C2652 C2653 1.377 . S
C2652 C2654 1.384 . S
C2653 C2652 1.377 . S
C2653 C2659 1.390 . S
C2654 H2645 0.930 . S
C2654 C2652 1.384 . S
C2654 C2655 1.372 . S
C2655 C2654 1.372 . S
C2655 C2656 1.400 . S
C2655 C2660 1.490 . S
C2656 H2646 0.930 . S
C2656 C2655 1.400 . S
C2656 C2659 1.386 . S
H2657 C2673 0.930 . S
H2658 C2674 0.931 . S
C2659 H2647 0.929 . S
C2659 C2653 1.390 . S
C2659 C2656 1.386 . S
C2660 C2655 1.490 . S
C2660 C2662 1.395 . S
C2660 C2663 1.403 . S
H2661 C2667 0.930 . S
C2662 H2648 0.930 . S
C2662 C2660 1.395 . S
C2662 C2665 1.403 . S
C2663 C2660 1.403 . S
C2663 C2664 1.524 . S
C2663 C2667 1.400 . S
C2664 H2649 0.960 . S
C2664 H2650 0.960 . S
C2664 H2651 0.960 . S
C2664 C2663 1.524 . S
C2665 C2662 1.403 . S
C2665 C2666 1.392 . S
C2665 C2669 1.495 . S
C2666 C2665 1.392 . S
C2666 C2667 1.385 . S
C2666 C2668 1.478 . S
C2667 H2661 0.930 . S
C2667 C2663 1.400 . S
C2667 C2666 1.385 . S
C2668 C2666 1.478 . S
C2668 C2670 1.381 . S
C2668 C2674 1.383 . S
C2669 C2665 1.495 . S
C2669 H2675 0.959 . S
C2669 H2676 0.961 . S
C2669 H2677 0.960 . S
C2670 C2668 1.381 . S
C2670 C2671 1.394 . S
C2670 H2678 0.930 . S
C2671 C2670 1.394 . S
C2671 C2672 1.383 . S
C2671 H2679 0.929 . S
C2672 C2671 1.383 . S
C2672 C2673 1.377 . S
C2673 H2657 0.930 . S
C2673 C2672 1.377 . S
C2673 C2674 1.379 . S
C2674 H2658 0.931 . S
C2674 C2668 1.383 . S
C2674 C2673 1.379 . S
H2675 C2669 0.959 . S
H2676 C2669 0.961 . S
H2677 C2669 0.960 . S
H2678 C2670 0.930 . S
H2679 C2671 0.929 . S
H2680 C2688 0.929 . S
H2681 C2690 0.930 . S
H2682 C2692 0.930 . S
H2683 C2695 0.929 . S
H2684 C2698 0.930 . S
H2685 C2700 0.960 . S
H2686 C2700 0.960 . S
H2687 C2700 0.960 . S
C2688 H2680 0.929 . S
C2688 C2689 1.377 . S
C2688 C2690 1.384 . S
C2689 C2688 1.377 . S
C2689 C2695 1.390 . S
C2690 H2681 0.930 . S
C2690 C2688 1.384 . S
C2690 C2691 1.372 . S
C2691 C2690 1.372 . S
C2691 C2692 1.400 . S
C2691 C2696 1.490 . S
C2692 H2682 0.930 . S
C2692 C2691 1.400 . S
C2692 C2695 1.386 . S
H2693 C2709 0.930 . S
H2694 C2710 0.931 . S
C2695 H2683 0.929 . S
C2695 C2689 1.390 . S
C2695 C2692 1.386 . S
C2696 C2691 1.490 . S
C2696 C2698 1.395 . S
C2696 C2699 1.403 . S
H2697 C2703 0.930 . S
C2698 H2684 0.930 . S
C2698 C2696 1.395 . S
C2698 C2701 1.403 . S
C2699 C2696 1.403 . S
C2699 C2700 1.524 . S
C2699 C2703 1.400 . S
C2700 H2685 0.960 . S
C2700 H2686 0.960 . S
C2700 H2687 0.960 . S
C2700 C2699 1.524 . S
C2701 C2698 1.403 . S
C2701 C2702 1.392 . S
C2701 C2705 1.495 . S
C2702 C2701 1.392 . S
C2702 C2703 1.385 . S
C2702 C2704 1.478 . S
C2703 H2697 0.930 . S
C2703 C2699 1.400 . S
C2703 C2702 1.385 . S
C2704 C2702 1.478 . S
C2704 C2706 1.381 . S
C2704 C2710 1.383 . S
C2705 C2701 1.495 . S
C2705 H2711 0.959 . S
C2705 H2712 0.961 . S
C2705 H2713 0.960 . S
C2706 C2704 1.381 . S
C2706 C2707 1.394 . S
C2706 H2714 0.930 . S
C2707 C2706 1.394 . S
C2707 C2708 1.383 . S
C2707 H2715 0.929 . S
C2708 C2707 1.383 . S
C2708 C2709 1.377 . S
C2709 H2693 0.930 . S
C2709 C2708 1.377 . S
C2709 C2710 1.379 . S
C2710 H2694 0.931 . S
C2710 C2704 1.383 . S
C2710 C2709 1.379 . S
H2711 C2705 0.959 . S
H2712 C2705 0.961 . S
H2713 C2705 0.960 . S
H2714 C2706 0.930 . S
H2715 C2707 0.929 . S
H2716 C2724 0.929 . S
H2717 C2726 0.930 . S
H2718 C2728 0.930 . S
H2719 C2731 0.929 . S
H2720 C2734 0.930 . S
H2721 C2736 0.960 . S
H2722 C2736 0.960 . S
H2723 C2736 0.960 . S
C2724 H2716 0.929 . S
C2724 C2725 1.377 . S
C2724 C2726 1.384 . S
C2725 C2724 1.377 . S
C2725 C2731 1.390 . S
C2726 H2717 0.930 . S
C2726 C2724 1.384 . S
C2726 C2727 1.372 . S
C2727 C2726 1.372 . S
C2727 C2728 1.400 . S
C2727 C2732 1.490 . S
C2728 H2718 0.930 . S
C2728 C2727 1.400 . S
C2728 C2731 1.386 . S
H2729 C2745 0.930 . S
H2730 C2746 0.931 . S
C2731 H2719 0.929 . S
C2731 C2725 1.390 . S
C2731 C2728 1.386 . S
C2732 C2727 1.490 . S
C2732 C2734 1.395 . S
C2732 C2735 1.403 . S
H2733 C2739 0.930 . S
C2734 H2720 0.930 . S
C2734 C2732 1.395 . S
C2734 C2737 1.403 . S
C2735 C2732 1.403 . S
C2735 C2736 1.524 . S
C2735 C2739 1.400 . S
C2736 H2721 0.960 . S
C2736 H2722 0.960 . S
C2736 H2723 0.960 . S
C2736 C2735 1.524 . S
C2737 C2734 1.403 . S
C2737 C2738 1.392 . S
C2737 C2741 1.495 . S
C2738 C2737 1.392 . S
C2738 C2739 1.385 . S
C2738 C2740 1.478 . S
C2739 H2733 0.930 . S
C2739 C2735 1.400 . S
C2739 C2738 1.385 . S
C2740 C2738 1.478 . S
C2740 C2742 1.381 . S
C2740 C2746 1.383 1_556 S
C2741 C2737 1.495 . S
C2741 H2747 0.959 . S
C2741 H2748 0.961 . S
C2741 H2749 0.960 . S
C2742 C2740 1.381 . S
C2742 C2743 1.394 . S
C2742 H2750 0.930 . S
C2743 C2742 1.394 . S
C2743 C2744 1.383 1_556 S
C2743 H2751 0.929 . S
C2744 C2743 1.383 1_554 S
C2744 C2745 1.377 . S
C2745 H2729 0.930 . S
C2745 C2744 1.377 . S
C2745 C2746 1.379 . S
C2746 H2730 0.931 . S
C2746 C2740 1.383 1_554 S
C2746 C2745 1.379 . S
H2747 C2741 0.959 . S
H2748 C2741 0.961 . S
H2749 C2741 0.960 . S
H2750 C2742 0.930 . S
H2751 C2743 0.929 . S
C457 C117 1.354 . S
C476 C5 1.340 . S
C493 C19 1.359 . S
C512 C355 1.344 . S
C529 C33 1.358 . S
C548 C145 1.370 . S
C565 C47 1.354 . S
C584 C383 1.346 . S
C601 C61 1.360 . S
C620 C173 1.353 . S
C637 C411 1.360 . S
C656 C75 1.369 . S
C673 C201 1.355 . S
C692 C89 1.337 . S
C709 C439 1.359 . S
C728 C103 1.345 . S
C745 C243 1.360 . S
C764 C131 1.357 . S
C781 C159 1.360 . S
C800 C271 1.357 . S
C817 C187 1.360 . S
C836 C299 1.370 . S
C853 C327 1.355 . S
C872 C215 1.361 . S
C889 C341 1.358 . S
C908 C229 1.342 . S
C925 C257 1.361 . S
C944 C369 1.359 . S
C961 C285 1.357 . S
C980 C397 1.370 . S
C997 C425 1.360 . S
C1016 C313 1.367 . S
C1033 C0 1.234 . S
C1052 C56 1.220 . S
C1069 C70 1.231 . S
C1088 C14 1.239 . S
C1105 C84 1.239 . S
C1124 C28 1.218 . S
C1141 C42 1.239 . S
C1160 C98 1.228 . S
C1177 C112 1.239 . S
C1196 C168 1.238 . S
C1213 C126 1.235 . S
C1232 C182 1.251 . S
C1249 C196 1.235 . S
C1268 C140 1.212 . S
C1285 C210 1.232 . S
C1304 C154 1.223 . S
C1321 C280 1.232 . S
C1340 C224 1.253 . S
C1357 C294 1.231 . S
C1376 C238 1.239 . S
C1393 C252 1.239 . S
C1412 C308 1.223 . S
C1429 C322 1.232 . S
C1448 C266 1.231 . S
C1465 C392 1.231 . S
C1484 C336 1.229 . S
C1501 C350 1.239 . S
C1520 C406 1.222 . S
C1537 C420 1.239 . S
C1556 C364 1.236 . S
C1573 C434 1.237 . S
C1592 C378 1.248 . S
C1609 C65 0.409 . S
C1628 C9 0.463 . S
C1645 C79 0.379 . S
C1664 C23 0.309 . S
C1681 C37 0.412 . S
C1700 C93 0.426 . S
C1717 C107 0.396 . S
C1736 C51 0.298 . S
C1753 C177 0.399 . S
C1772 C121 0.480 . S
C1789 C135 0.375 . S
C1808 C191 0.291 . S
C1825 C205 0.370 . S
C1844 C149 0.323 . S
C1861 C219 0.392 . S
C1880 C163 0.336 . S
C1897 C233 0.400 . S
C1916 C289 0.489 . S
C1933 C303 0.412 . S
C1952 C247 0.390 . S
C1969 C317 0.372 . S
C1988 C261 0.434 . S
C2005 C331 0.374 . S
C2024 C275 0.447 . S
C2041 C401 0.404 . S
C2060 C345 0.490 . S
C2077 C359 0.402 . S
C2096 C415 0.384 . S
C2113 C373 0.410 . S
C2132 C429 0.441 . S
C2149 C387 0.411 . S
C2168 C443 0.489 . S
C2185 C11 1.409 . S
C2204 C305 1.413 . S
C2221 C319 1.415 . S
C2240 C25 1.396 . S
C2257 C39 1.409 . S
C2276 C333 1.410 . S
C2293 C53 1.413 . S
C2312 C291 1.397 . S
C2329 C277 1.413 . S
C2348 C67 1.389 . S
C2365 C235 1.411 . S
C2384 C81 1.388 . S
C2401 C249 1.409 . S
C2420 C95 1.399 . S
C2437 C109 1.417 . S
C2456 C263 1.409 . S
C2473 C123 1.411 . S
C2492 C417 1.419 . S
C2509 C431 1.417 . S
C2528 C137 1.413 . S
C2545 C445 1.410 . S
C2564 C151 1.388 . S
C2581 C403 1.417 . S
C2600 C165 1.409 . S
C2617 C389 1.411 . S
C2636 C179 1.418 . S
C2653 C347 1.417 . S
C2672 C193 1.427 . S
C2689 C207 1.417 . S
C2708 C361 1.413 . S
C2725 C221 1.417 . S
C2744 C375 1.411 . S
