# Generated by pormake.
# Topology cds-f, (5)-cn, num edge types: 1
# Building blocks:
#     Node 0, Type 0, BuildingBlock: XOMCOT_clean_sbu_0, # of connection points: 5
#     Node 1, Type 0, BuildingBlock: XOMCOT_clean_sbu_0, # of connection points: 5
#     Node 2, Type 0, BuildingBlock: XOMCOT_clean_sbu_0, # of connection points: 5
#     Node 3, Type 0, BuildingBlock: XOMCOT_clean_sbu_0, # of connection points: 5
#     Node 4, Type 0, BuildingBlock: XOMCOT_clean_sbu_0, # of connection points: 5
#     Node 5, Type 0, BuildingBlock: XOMCOT_clean_sbu_0, # of connection points: 5
#     Node 6, Type 0, BuildingBlock: XOMCOT_clean_sbu_0, # of connection points: 5
#     Node 7, Type 0, BuildingBlock: XOMCOT_clean_sbu_0, # of connection points: 5
#     Node 8, Type 0, BuildingBlock: XOMCOT_clean_sbu_0, # of connection points: 5
#     Node 9, Type 0, BuildingBlock: XOMCOT_clean_sbu_0, # of connection points: 5
#     Node 10, Type 0, BuildingBlock: XOMCOT_clean_sbu_0, # of connection points: 5
#     Node 11, Type 0, BuildingBlock: XOMCOT_clean_sbu_0, # of connection points: 5
#     Node 12, Type 0, BuildingBlock: XOMCOT_clean_sbu_0, # of connection points: 5
#     Node 13, Type 0, BuildingBlock: XOMCOT_clean_sbu_0, # of connection points: 5
#     Node 14, Type 0, BuildingBlock: XOMCOT_clean_sbu_0, # of connection points: 5
#     Node 15, Type 0, BuildingBlock: XOMCOT_clean_sbu_0, # of connection points: 5
#     Edge 16, Type (0, 0), BuildingBlock: XUDNAN_clean_linker_2, # of connection points: 2
#     Edge 17, Type (0, 0), BuildingBlock: XUDNAN_clean_linker_2, # of connection points: 2
#     Edge 18, Type (0, 0), BuildingBlock: XUDNAN_clean_linker_2, # of connection points: 2
#     Edge 19, Type (0, 0), BuildingBlock: XUDNAN_clean_linker_2, # of connection points: 2
#     Edge 20, Type (0, 0), BuildingBlock: XUDNAN_clean_linker_2, # of connection points: 2
#     Edge 21, Type (0, 0), BuildingBlock: XUDNAN_clean_linker_2, # of connection points: 2
#     Edge 22, Type (0, 0), BuildingBlock: XUDNAN_clean_linker_2, # of connection points: 2
#     Edge 23, Type (0, 0), BuildingBlock: XUDNAN_clean_linker_2, # of connection points: 2
#     Edge 24, Type (0, 0), BuildingBlock: XUDNAN_clean_linker_2, # of connection points: 2
#     Edge 25, Type (0, 0), BuildingBlock: XUDNAN_clean_linker_2, # of connection points: 2
#     Edge 26, Type (0, 0), BuildingBlock: XUDNAN_clean_linker_2, # of connection points: 2
#     Edge 27, Type (0, 0), BuildingBlock: XUDNAN_clean_linker_2, # of connection points: 2
#     Edge 28, Type (0, 0), BuildingBlock: XUDNAN_clean_linker_2, # of connection points: 2
#     Edge 29, Type (0, 0), BuildingBlock: XUDNAN_clean_linker_2, # of connection points: 2
#     Edge 30, Type (0, 0), BuildingBlock: XUDNAN_clean_linker_2, # of connection points: 2
#     Edge 31, Type (0, 0), BuildingBlock: XUDNAN_clean_linker_2, # of connection points: 2
#     Edge 32, Type (0, 0), BuildingBlock: XUDNAN_clean_linker_2, # of connection points: 2
#     Edge 33, Type (0, 0), BuildingBlock: XUDNAN_clean_linker_2, # of connection points: 2
#     Edge 34, Type (0, 0), BuildingBlock: XUDNAN_clean_linker_2, # of connection points: 2
#     Edge 35, Type (0, 0), BuildingBlock: XUDNAN_clean_linker_2, # of connection points: 2
#     Edge 36, Type (0, 0), BuildingBlock: XUDNAN_clean_linker_2, # of connection points: 2
#     Edge 37, Type (0, 0), BuildingBlock: XUDNAN_clean_linker_2, # of connection points: 2
#     Edge 38, Type (0, 0), BuildingBlock: XUDNAN_clean_linker_2, # of connection points: 2
#     Edge 39, Type (0, 0), BuildingBlock: XUDNAN_clean_linker_2, # of connection points: 2
#     Edge 40, Type (0, 0), BuildingBlock: XUDNAN_clean_linker_2, # of connection points: 2
#     Edge 41, Type (0, 0), BuildingBlock: XUDNAN_clean_linker_2, # of connection points: 2
#     Edge 42, Type (0, 0), BuildingBlock: XUDNAN_clean_linker_2, # of connection points: 2
#     Edge 43, Type (0, 0), BuildingBlock: XUDNAN_clean_linker_2, # of connection points: 2
#     Edge 44, Type (0, 0), BuildingBlock: XUDNAN_clean_linker_2, # of connection points: 2
#     Edge 45, Type (0, 0), BuildingBlock: XUDNAN_clean_linker_2, # of connection points: 2
#     Edge 46, Type (0, 0), BuildingBlock: XUDNAN_clean_linker_2, # of connection points: 2
#     Edge 47, Type (0, 0), BuildingBlock: XUDNAN_clean_linker_2, # of connection points: 2
#     Edge 48, Type (0, 0), BuildingBlock: XUDNAN_clean_linker_2, # of connection points: 2
#     Edge 49, Type (0, 0), BuildingBlock: XUDNAN_clean_linker_2, # of connection points: 2
#     Edge 50, Type (0, 0), BuildingBlock: XUDNAN_clean_linker_2, # of connection points: 2
#     Edge 51, Type (0, 0), BuildingBlock: XUDNAN_clean_linker_2, # of connection points: 2
#     Edge 52, Type (0, 0), BuildingBlock: XUDNAN_clean_linker_2, # of connection points: 2
#     Edge 53, Type (0, 0), BuildingBlock: XUDNAN_clean_linker_2, # of connection points: 2
#     Edge 54, Type (0, 0), BuildingBlock: XUDNAN_clean_linker_2, # of connection points: 2
#     Edge 55, Type (0, 0), BuildingBlock: XUDNAN_clean_linker_2, # of connection points: 2
# Relax obj value: 0.281
# Max RMSD: 0.216
# Mean RMSD: 0.212
data_MOF--net-cds-f--node1-XOMCOT_clean_sbu_0--edge1-XUDNAN_clean_linker_2
_symmetry_space_group_name_H-M    P1
_symmetry_Int_Tables_number       1
_symmetry_cell_setting            triclinic
loop_
_symmetry_equiv_pos_as_xyz
'x, y, z'
_cell_length_a     35.509365
_cell_length_b     35.617288
_cell_length_c     57.012833
_cell_angle_alpha  89.738084
_cell_angle_beta   90.342663
_cell_angle_gamma 92.733562
loop_
_atom_site_label
_atom_site_type_symbol
_atom_site_fract_x
_atom_site_fract_y
_atom_site_fract_z
_atom_type_partial_charge
Co0 Co 0.24528 0.26512 0.13376 0.0
C1 C 0.16121 0.24936 0.13203 0.0
C2 C 0.18558 0.25581 0.09786 0.0
C3 C 0.14692 0.25358 0.0955 0.0
N4 N 0.19485 0.2532 0.12078 0.0
N5 N 0.13154 0.24975 0.11698 0.0
H6 H 0.15818 0.24911 0.15089 0.0
H7 H 0.20541 0.26153 0.08383 0.0
C8 C 0.26576 0.21293 0.09655 0.0
O9 O 0.24801 0.18625 0.10874 0.0
N10 N 0.2953 0.27803 0.14662 0.0
C11 C 0.30247 0.30721 0.16113 0.0
C12 C 0.34025 0.30963 0.16635 0.0
C13 C 0.3293 0.263 0.14307 0.0
N14 N 0.35739 0.28185 0.15517 0.0
C15 C 0.21468 0.33608 0.12627 0.0
C16 C 0.27737 0.36953 0.10462 0.0
C17 C 0.24901 0.3921 0.11288 0.0
C18 C 0.21633 0.37463 0.12239 0.0
C19 C 0.2742 0.33064 0.10839 0.0
N20 N 0.24404 0.31491 0.12026 0.0
H21 H 0.19094 0.32362 0.13573 0.0
H22 H 0.29747 0.31374 0.10369 0.0
H23 H 0.28162 0.32606 0.16716 0.0
H24 H 0.33335 0.2389 0.13204 0.0
O25 O 0.22386 0.27592 0.16366 0.0
O26 O 0.24248 0.21995 0.15313 0.0
O27 O 0.26853 0.2463 0.10453 0.0
C28 C 0.22847 0.24108 0.16923 0.0
H29 H 0.13131 0.25601 0.07924 0.0
H30 H 0.35415 0.33098 0.17723 0.0
H31 H 0.30307 0.38199 0.09721 0.0
H32 H 0.19348 0.39103 0.12857 0.0
Co33 Co 0.80177 0.25976 0.62166 0.0
C34 C 0.79413 0.34314 0.61662 0.0
C35 C 0.85164 0.32724 0.61607 0.0
C36 C 0.85127 0.36575 0.61431 0.0
N37 N 0.81585 0.31287 0.61739 0.0
N38 N 0.8152 0.37566 0.61485 0.0
H39 H 0.7637 0.34176 0.61753 0.0
H40 H 0.87653 0.31094 0.61701 0.0
C41 C 0.83923 0.24025 0.66707 0.0
O42 O 0.85076 0.20924 0.65768 0.0
N43 N 0.78784 0.20667 0.62662 0.0
C44 C 0.76772 0.19322 0.64511 0.0
C45 C 0.76569 0.1547 0.64439 0.0
C46 C 0.79758 0.17573 0.61474 0.0
N47 N 0.78446 0.14371 0.62536 0.0
C48 C 0.72245 0.25845 0.6182 0.0
C49 C 0.70801 0.2966 0.65909 0.0
C50 C 0.67771 0.28294 0.64514 0.0
C51 C 0.68542 0.2637 0.62449 0.0
C52 C 0.74503 0.29076 0.65208 0.0
N53 N 0.75172 0.2717 0.63186 0.0
H54 H 0.72759 0.24244 0.60261 0.0
H55 H 0.76811 0.30185 0.66279 0.0
H56 H 0.75633 0.21025 0.65876 0.0
H57 H 0.81508 0.17628 0.59928 0.0
O58 O 0.79108 0.25532 0.5887 0.0
O59 O 0.84721 0.24725 0.60467 0.0
O60 O 0.82121 0.26352 0.65476 0.0
C61 C 0.82625 0.24863 0.58582 0.0
H62 H 0.87567 0.38516 0.61376 0.0
H63 H 0.75186 0.13611 0.65709 0.0
H64 H 0.70316 0.31175 0.67513 0.0
H65 H 0.66294 0.25174 0.61353 0.0
Co66 Co 0.79605 0.77763 0.12002 0.0
C67 C 0.88109 0.77148 0.12414 0.0
C68 C 0.86564 0.8213 0.10631 0.0
C69 C 0.9043 0.82237 0.10868 0.0
N70 N 0.85068 0.78862 0.1151 0.0
N71 N 0.91423 0.791 0.11993 0.0
H72 H 0.8792 0.74655 0.13489 0.0
H73 H 0.84947 0.844 0.09961 0.0
C74 C 0.80015 0.8044 0.07107 0.0
O75 O 0.827 0.78046 0.06915 0.0
N76 N 0.74207 0.76834 0.12585 0.0
C77 C 0.72611 0.73694 0.13551 0.0
C78 C 0.68764 0.74034 0.1366 0.0
C79 C 0.71288 0.79064 0.12133 0.0
N80 N 0.67903 0.7741 0.12767 0.0
C81 C 0.81724 0.70311 0.1089 0.0
C82 C 0.76048 0.6877 0.07648 0.0
C83 C 0.78204 0.6583 0.08459 0.0
C84 C 0.81183 0.66686 0.10016 0.0
C85 C 0.7674 0.72401 0.08536 0.0
N86 N 0.79518 0.73131 0.10173 0.0
H87 H 0.83703 0.70729 0.12298 0.0
H88 H 0.74846 0.74557 0.08039 0.0
H89 H 0.74143 0.71304 0.14132 0.0
H90 H 0.7164 0.81819 0.11336 0.0
O91 O 0.80755 0.75582 0.14982 0.0
O92 O 0.798 0.81636 0.14416 0.0
O93 O 0.78369 0.80803 0.09085 0.0
C94 C 0.80658 0.78928 0.15849 0.0
H95 H 0.92336 0.84561 0.1037 0.0
H96 H 0.66767 0.7196 0.14385 0.0
H97 H 0.73675 0.68229 0.06476 0.0
H98 H 0.82938 0.64512 0.10684 0.0
Co99 Co 0.26637 0.76571 0.61969 0.0
C100 C 0.25599 0.68047 0.62324 0.0
C101 C 0.2165 0.70992 0.64365 0.0
C102 C 0.20857 0.67194 0.64612 0.0
N103 N 0.24643 0.71569 0.62945 0.0
N104 N 0.23329 0.65319 0.63331 0.0
H105 H 0.27789 0.67455 0.61098 0.0
H106 H 0.20074 0.73184 0.65138 0.0
C107 C 0.23427 0.80055 0.66382 0.0
O108 O 0.20307 0.8098 0.65326 0.0
N109 N 0.28603 0.8155 0.60984 0.0
C110 C 0.31641 0.82112 0.59605 0.0
C111 C 0.32207 0.8588 0.59169 0.0
C112 C 0.27318 0.85039 0.61345 0.0
N113 N 0.29482 0.87757 0.60235 0.0
C114 C 0.33646 0.73054 0.61308 0.0
C115 C 0.37666 0.7747 0.64521 0.0
C116 C 0.39609 0.75405 0.62893 0.0
C117 C 0.37576 0.73063 0.6133 0.0
C118 C 0.3375 0.77461 0.64401 0.0
N119 N 0.31769 0.75329 0.62779 0.0
H120 H 0.32175 0.71558 0.59916 0.0
H121 H 0.32419 0.79558 0.6541 0.0
H122 H 0.33331 0.79918 0.58933 0.0
H123 H 0.24815 0.85567 0.6234 0.0
O124 O 0.26603 0.74985 0.58766 0.0
O125 O 0.21806 0.77602 0.60487 0.0
O126 O 0.25954 0.7839 0.65264 0.0
C127 C 0.23239 0.76203 0.58595 0.0
H128 H 0.18607 0.65913 0.6566 0.0
H129 H 0.34491 0.87129 0.58138 0.0
H130 H 0.39168 0.79419 0.65689 0.0
H131 H 0.39016 0.71511 0.60004 0.0
Co132 Co 0.25272 0.79675 0.88111 0.0
C133 C 0.33684 0.79919 0.87451 0.0
C134 C 0.3201 0.84048 0.89908 0.0
C135 C 0.35869 0.84223 0.89786 0.0
N136 N 0.30601 0.81295 0.88484 0.0
N137 N 0.36931 0.81618 0.88256 0.0
H138 H 0.33579 0.77661 0.86186 0.0
H139 H 0.30394 0.85838 0.90989 0.0
C140 C 0.2358 0.836 0.8348 0.0
O141 O 0.20685 0.85288 0.84323 0.0
N142 N 0.19953 0.78056 0.87784 0.0
C143 C 0.18482 0.74517 0.88066 0.0
C144 C 0.14616 0.74572 0.88113 0.0
C145 C 0.16922 0.80224 0.87773 0.0
N146 N 0.1362 0.78166 0.8793 0.0
C147 C 0.2855 0.72568 0.8856 0.0
C148 C 0.25714 0.69605 0.84397 0.0
C149 C 0.27384 0.67206 0.8602 0.0
C150 C 0.28974 0.68782 0.88073 0.0
C151 C 0.25429 0.73401 0.84926 0.0
N152 N 0.26693 0.74792 0.87031 0.0
H153 H 0.29592 0.73698 0.9021 0.0
H154 H 0.23874 0.7512 0.83734 0.0
H155 H 0.20088 0.72058 0.88367 0.0
H156 H 0.17139 0.83254 0.87782 0.0
O157 O 0.24873 0.78509 0.9138 0.0
O158 O 0.23797 0.84097 0.89851 0.0
O159 O 0.25582 0.81563 0.84789 0.0
C160 C 0.23892 0.81922 0.91703 0.0
H161 H 0.37759 0.86128 0.90757 0.0
H162 H 0.12708 0.72156 0.88398 0.0
H163 H 0.24401 0.68534 0.82802 0.0
H164 H 0.30407 0.67083 0.89345 0.0
Co165 Co 0.25277 0.24957 0.37181 0.0
C166 C 0.26413 0.16715 0.37344 0.0
C167 C 0.21759 0.18209 0.39471 0.0
C168 C 0.21995 0.14353 0.39531 0.0
N169 N 0.24538 0.19694 0.38109 0.0
N170 N 0.24913 0.13399 0.38183 0.0
H171 H 0.28792 0.16981 0.36169 0.0
H172 H 0.19626 0.19802 0.40305 0.0
C173 C 0.2479 0.28693 0.41814 0.0
O174 O 0.27928 0.30582 0.41248 0.0
N175 N 0.25865 0.30288 0.36163 0.0
C176 C 0.2742 0.31551 0.34127 0.0
C177 C 0.27143 0.35386 0.33953 0.0
C178 C 0.24481 0.3343 0.37126 0.0
N179 N 0.25331 0.3658 0.35854 0.0
C180 C 0.33311 0.26363 0.37155 0.0
C181 C 0.34704 0.23349 0.41536 0.0
C182 C 0.37724 0.24934 0.4024 0.0
C183 C 0.36994 0.26415 0.38013 0.0
C184 C 0.3105 0.23371 0.40613 0.0
N185 N 0.30369 0.24993 0.3848 0.0
H186 H 0.32858 0.27346 0.35397 0.0
H187 H 0.28754 0.22125 0.41633 0.0
H188 H 0.28671 0.29817 0.32821 0.0
H189 H 0.22775 0.33449 0.38684 0.0
O190 O 0.26471 0.23319 0.34094 0.0
O191 O 0.20693 0.24474 0.35297 0.0
O192 O 0.23161 0.2648 0.40318 0.0
C193 C 0.22894 0.23368 0.33634 0.0
H194 H 0.20058 0.12401 0.40422 0.0
H195 H 0.2826 0.3717 0.32555 0.0
H196 H 0.35153 0.22127 0.43252 0.0
H197 H 0.39265 0.27516 0.36909 0.0
Co198 Co 0.77839 0.27087 0.88284 0.0
C199 C 0.69308 0.26325 0.88386 0.0
C200 C 0.71658 0.23544 0.85448 0.0
C201 C 0.67815 0.22908 0.85396 0.0
N202 N 0.72639 0.25709 0.87312 0.0
N203 N 0.66326 0.24659 0.87233 0.0
H204 H 0.69064 0.278 0.90027 0.0
H205 H 0.73576 0.22379 0.84223 0.0
C206 C 0.80958 0.23428 0.83848 0.0
O207 O 0.81363 0.20133 0.84836 0.0
N208 N 0.83002 0.28399 0.8925 0.0
C209 C 0.84222 0.31543 0.90387 0.0
C210 C 0.88066 0.3146 0.90719 0.0
C211 C 0.86109 0.26403 0.88956 0.0
N212 N 0.89249 0.28226 0.89825 0.0
C213 C 0.74576 0.34358 0.88349 0.0
C214 C 0.79484 0.37623 0.85089 0.0
C215 C 0.76721 0.39772 0.86068 0.0
C216 C 0.74268 0.38139 0.87739 0.0
C217 C 0.79757 0.33907 0.85792 0.0
N218 N 0.77248 0.3227 0.8734 0.0
H219 H 0.72758 0.33156 0.89689 0.0
H220 H 0.82121 0.32408 0.85174 0.0
H221 H 0.82438 0.33749 0.90939 0.0
H222 H 0.86079 0.2368 0.88122 0.0
O223 O 0.76286 0.27408 0.91492 0.0
O224 O 0.78181 0.2221 0.89815 0.0
O225 O 0.79619 0.26112 0.85003 0.0
C226 C 0.76998 0.23886 0.91686 0.0
H227 H 0.66227 0.21238 0.84114 0.0
H228 H 0.89843 0.33569 0.91606 0.0
H229 H 0.81531 0.38859 0.83874 0.0
H230 H 0.72178 0.39783 0.88583 0.0
Co231 Co 0.7916 0.77776 0.36726 0.0
C232 C 0.79915 0.86428 0.37028 0.0
C233 C 0.85106 0.83606 0.37136 0.0
C234 C 0.85923 0.874 0.37249 0.0
N235 N 0.81342 0.82942 0.36996 0.0
N236 N 0.82668 0.89196 0.37191 0.0
H237 H 0.76967 0.86989 0.37006 0.0
H238 H 0.87146 0.81446 0.37156 0.0
C239 C 0.81688 0.78625 0.41622 0.0
O240 O 0.79932 0.81786 0.41522 0.0
N241 N 0.77222 0.72579 0.36394 0.0
C242 C 0.73692 0.71427 0.35753 0.0
C243 C 0.73451 0.67555 0.3568 0.0
C244 C 0.79114 0.69376 0.36632 0.0
N245 N 0.76857 0.66262 0.3622 0.0
C246 C 0.72129 0.81195 0.37065 0.0
C247 C 0.69187 0.76484 0.40533 0.0
C248 C 0.6674 0.78519 0.39136 0.0
C249 C 0.6829 0.81115 0.3752 0.0
C250 C 0.73071 0.76751 0.40079 0.0
N251 N 0.74474 0.7895 0.38276 0.0
H252 H 0.73107 0.8273 0.35536 0.0
H253 H 0.74847 0.74809 0.40967 0.0
H254 H 0.71445 0.73273 0.35348 0.0
H255 H 0.82072 0.69326 0.37094 0.0
O256 O 0.77574 0.78818 0.33578 0.0
O257 O 0.83167 0.76756 0.34515 0.0
O258 O 0.81647 0.76469 0.39826 0.0
C259 C 0.8086 0.77869 0.32889 0.0
H260 H 0.88724 0.88728 0.37337 0.0
H261 H 0.70982 0.6582 0.352 0.0
H262 H 0.68086 0.74402 0.41774 0.0
H263 H 0.66486 0.82728 0.364 0.0
Co264 Co 0.75511 0.79643 0.87529 0.0
C265 C 0.83924 0.80411 0.87596 0.0
C266 C 0.81348 0.84734 0.85589 0.0
C267 C 0.85176 0.85502 0.85641 0.0
N268 N 0.8056 0.81555 0.86812 0.0
N269 N 0.86789 0.8279 0.86899 0.0
H270 H 0.84251 0.77991 0.88722 0.0
H271 H 0.7926 0.86444 0.84779 0.0
C272 C 0.72525 0.78184 0.82694 0.0
O273 O 0.70879 0.75069 0.83514 0.0
N274 N 0.70315 0.77931 0.88284 0.0
C275 C 0.69112 0.76386 0.90336 0.0
C276 C 0.65245 0.76265 0.90398 0.0
C277 C 0.67094 0.78886 0.87181 0.0
N278 N 0.63973 0.77827 0.88413 0.0
C279 C 0.76246 0.71831 0.88421 0.0
C280 C 0.79502 0.70042 0.84209 0.0
C281 C 0.7844 0.67144 0.85782 0.0
C282 C 0.76879 0.68105 0.87935 0.0
C283 C 0.78795 0.73763 0.84773 0.0
N284 N 0.76943 0.74578 0.86792 0.0
H285 H 0.75184 0.72485 0.90118 0.0
H286 H 0.79651 0.75977 0.83558 0.0
H287 H 0.70885 0.75646 0.91794 0.0
H288 H 0.67022 0.80538 0.85587 0.0
O289 O 0.76851 0.79555 0.90779 0.0
O290 O 0.74474 0.84458 0.88981 0.0
O291 O 0.74118 0.80551 0.84118 0.0
C292 C 0.75757 0.82961 0.90907 0.0
H293 H 0.86664 0.879 0.84843 0.0
H294 H 0.63505 0.75224 0.91836 0.0
H295 H 0.80838 0.69442 0.82559 0.0
H296 H 0.76039 0.65995 0.89226 0.0
Co297 Co 0.27152 0.75327 0.3711 0.0
C298 C 0.25683 0.66792 0.37546 0.0
C299 C 0.21547 0.6942 0.3545 0.0
C300 C 0.20832 0.65584 0.35374 0.0
N301 N 0.24643 0.70236 0.36786 0.0
N302 N 0.23433 0.63933 0.36695 0.0
H303 H 0.28091 0.66319 0.38655 0.0
H304 H 0.19919 0.7145 0.34529 0.0
C305 C 0.24593 0.73787 0.41986 0.0
O306 O 0.26323 0.70637 0.41804 0.0
N307 N 0.29539 0.80374 0.37327 0.0
C308 C 0.33084 0.81303 0.36629 0.0
C309 C 0.33556 0.85145 0.36495 0.0
C310 C 0.27879 0.83707 0.37578 0.0
N311 N 0.30287 0.86671 0.37072 0.0
C312 C 0.33493 0.70826 0.37222 0.0
C313 C 0.37348 0.74791 0.40711 0.0
C314 C 0.3935 0.72519 0.39194 0.0
C315 C 0.37279 0.70241 0.37603 0.0
C316 C 0.33447 0.75091 0.40384 0.0
N317 N 0.31626 0.73306 0.38548 0.0
H318 H 0.32139 0.69508 0.35715 0.0
H319 H 0.32016 0.77142 0.41398 0.0
H320 H 0.3512 0.79315 0.36096 0.0
H321 H 0.24907 0.83944 0.37927 0.0
O322 O 0.28879 0.75081 0.33946 0.0
O323 O 0.2348 0.7745 0.3495 0.0
O324 O 0.24612 0.76082 0.4025 0.0
C325 C 0.25902 0.76785 0.33301 0.0
H326 H 0.18571 0.64118 0.34418 0.0
H327 H 0.36065 0.867 0.35894 0.0
H328 H 0.38811 0.76597 0.41976 0.0
H329 H 0.38653 0.68313 0.36461 0.0
Co330 Co 0.27754 0.27133 0.89323 0.0
C331 C 0.19092 0.26427 0.89984 0.0
C332 C 0.21714 0.21562 0.8868 0.0
C333 C 0.17933 0.20724 0.88868 0.0
N334 N 0.22498 0.25137 0.89358 0.0
N335 N 0.16257 0.23759 0.89694 0.0
H336 H 0.18647 0.29191 0.90652 0.0
H337 H 0.23786 0.19682 0.88052 0.0
C338 C 0.25428 0.26395 0.84397 0.0
O339 O 0.22315 0.27819 0.85147 0.0
N340 N 0.33062 0.28809 0.89341 0.0
C341 C 0.34567 0.31918 0.90387 0.0
C342 C 0.38442 0.31849 0.90303 0.0
C343 C 0.36049 0.26864 0.88662 0.0
N344 N 0.39395 0.28661 0.89227 0.0
C345 C 0.2438 0.34358 0.89753 0.0
C346 C 0.27856 0.3747 0.85825 0.0
C347 C 0.25497 0.39683 0.87134 0.0
C348 C 0.23765 0.38095 0.8914 0.0
C349 C 0.2836 0.33774 0.86486 0.0
N350 N 0.26507 0.32187 0.88366 0.0
H351 H 0.23281 0.33268 0.91392 0.0
H352 H 0.30372 0.32221 0.85518 0.0
H353 H 0.32959 0.34022 0.91237 0.0
H354 H 0.35759 0.2414 0.87833 0.0
O355 O 0.27636 0.27847 0.92643 0.0
O356 O 0.29106 0.22534 0.90933 0.0
O357 O 0.28058 0.25662 0.85871 0.0
C358 C 0.28644 0.24412 0.92863 0.0
H359 H 0.16514 0.18079 0.88388 0.0
H360 H 0.40396 0.33915 0.91082 0.0
H361 H 0.29433 0.38616 0.84345 0.0
H362 H 0.22015 0.39737 0.90251 0.0
Co363 Co 0.7704 0.27318 0.37479 0.0
C364 C 0.7831 0.35729 0.36583 0.0
C365 C 0.77972 0.34179 0.40221 0.0
C366 C 0.78186 0.38029 0.40068 0.0
N367 N 0.78035 0.32697 0.38047 0.0
N368 N 0.784 0.39017 0.37792 0.0
H369 H 0.78272 0.35557 0.34689 0.0
H370 H 0.7761 0.3257 0.41823 0.0
C371 C 0.80486 0.23397 0.4176 0.0
O372 O 0.7878 0.20176 0.41207 0.0
N373 N 0.7595 0.21963 0.36912 0.0
C374 C 0.72512 0.20202 0.36759 0.0
C375 C 0.72931 0.16415 0.36439 0.0
C376 C 0.7841 0.19233 0.36549 0.0
N377 N 0.76644 0.15783 0.36345 0.0
C378 C 0.6957 0.29621 0.38115 0.0
C379 C 0.67907 0.25672 0.42184 0.0
C380 C 0.64979 0.27377 0.40984 0.0
C381 C 0.65888 0.29479 0.3896 0.0
C382 C 0.71537 0.25824 0.41252 0.0
N383 N 0.72311 0.27658 0.39186 0.0
H384 H 0.70176 0.3119 0.36526 0.0
H385 H 0.73621 0.24329 0.42172 0.0
H386 H 0.69862 0.21546 0.36927 0.0
H387 H 0.81438 0.19744 0.36581 0.0
O388 O 0.75119 0.28272 0.34376 0.0
O389 O 0.81077 0.27198 0.35172 0.0
O390 O 0.80055 0.26325 0.40482 0.0
C391 C 0.78478 0.27758 0.33596 0.0
H392 H 0.78121 0.39971 0.41521 0.0
H393 H 0.70666 0.14273 0.36407 0.0
H394 H 0.67384 0.24118 0.43795 0.0
H395 H 0.63751 0.3085 0.37954 0.0
Co396 Co 0.74373 0.26907 0.12689 0.0
C397 C 0.66055 0.26588 0.13852 0.0
C398 C 0.67653 0.21936 0.11775 0.0
C399 C 0.63803 0.21664 0.12074 0.0
N400 N 0.69086 0.25061 0.1285 0.0
N401 N 0.62786 0.24593 0.13374 0.0
H402 H 0.66202 0.29115 0.14891 0.0
H403 H 0.69283 0.19968 0.10822 0.0
C404 C 0.77195 0.22416 0.08541 0.0
O405 O 0.80385 0.21729 0.09587 0.0
N406 N 0.79702 0.28706 0.12539 0.0
C407 C 0.81093 0.32195 0.11985 0.0
C408 C 0.84972 0.32269 0.12062 0.0
C409 C 0.8281 0.26773 0.13068 0.0
N410 N 0.86058 0.28855 0.12732 0.0
C411 C 0.7128 0.34136 0.12377 0.0
C412 C 0.73463 0.35809 0.0783 0.0
C413 C 0.72158 0.38679 0.09243 0.0
C414 C 0.7085 0.37735 0.11493 0.0
C415 C 0.73766 0.32189 0.08767 0.0
N416 N 0.72847 0.31435 0.11059 0.0
H417 H 0.70587 0.3363 0.14189 0.0
H418 H 0.75086 0.30144 0.07699 0.0
H419 H 0.7945 0.3459 0.1159 0.0
H420 H 0.82713 0.23871 0.13641 0.0
O421 O 0.74191 0.28726 0.15852 0.0
O422 O 0.7578 0.22999 0.14918 0.0
O423 O 0.7469 0.24251 0.09572 0.0
C424 C 0.75292 0.25493 0.16549 0.0
H425 H 0.61901 0.19449 0.11408 0.0
H426 H 0.86852 0.34678 0.11691 0.0
H427 H 0.74522 0.36411 0.06085 0.0
H428 H 0.69727 0.39834 0.12629 0.0
Co429 Co 0.79363 0.75977 0.61172 0.0
C430 C 0.79849 0.84326 0.60946 0.0
C431 C 0.83742 0.82129 0.63443 0.0
C432 C 0.84074 0.85991 0.63507 0.0
N433 N 0.81062 0.8109 0.61865 0.0
N434 N 0.81631 0.87365 0.61939 0.0
H435 H 0.77646 0.84452 0.59631 0.0
H436 H 0.85338 0.80208 0.64481 0.0
C437 C 0.77382 0.73289 0.66029 0.0
O438 O 0.74304 0.71625 0.65158 0.0
N439 N 0.77805 0.70743 0.60435 0.0
C440 C 0.76663 0.69446 0.58304 0.0
C441 C 0.76565 0.65591 0.58305 0.0
C442 C 0.78503 0.67584 0.61676 0.0
N443 N 0.77699 0.64427 0.60425 0.0
C444 C 0.71751 0.76718 0.59746 0.0
C445 C 0.69258 0.80229 0.63722 0.0
C446 C 0.66722 0.79397 0.61887 0.0
C447 C 0.68021 0.77673 0.59872 0.0
C448 C 0.73021 0.79279 0.63501 0.0
N449 N 0.74174 0.7736 0.61578 0.0
H450 H 0.72694 0.75535 0.58139 0.0
H451 H 0.75002 0.80088 0.64875 0.0
H452 H 0.76186 0.71148 0.56769 0.0
H453 H 0.79804 0.6757 0.63395 0.0
O454 O 0.79722 0.7714 0.57905 0.0
O455 O 0.84393 0.74934 0.6003 0.0
O456 O 0.79866 0.74783 0.64645 0.0
C457 C 0.83148 0.76064 0.57996 0.0
H458 H 0.85983 0.87666 0.64612 0.0
H459 H 0.75831 0.63776 0.56837 0.0
H460 H 0.68357 0.81642 0.65285 0.0
H461 H 0.66152 0.77025 0.58404 0.0
Co462 Co 0.2965 0.78795 0.12981 0.0
C463 C 0.38171 0.80207 0.12888 0.0
C464 C 0.35123 0.84608 0.11291 0.0
C465 C 0.38927 0.85509 0.11115 0.0
N466 N 0.34614 0.81274 0.12392 0.0
N467 N 0.4087 0.82749 0.12119 0.0
H468 H 0.3881 0.7768 0.13824 0.0
H469 H 0.3287 0.86277 0.10643 0.0
C470 C 0.251 0.79589 0.08468 0.0
O471 O 0.22824 0.76756 0.09095 0.0
N472 N 0.24681 0.7637 0.13629 0.0
C473 C 0.23988 0.72775 0.14313 0.0
C474 C 0.20193 0.72185 0.14728 0.0
C475 C 0.21266 0.77947 0.13715 0.0
N476 N 0.18463 0.75421 0.14337 0.0
C477 C 0.33498 0.72007 0.13368 0.0
C478 C 0.30281 0.68446 0.0951 0.0
C479 C 0.31789 0.66291 0.11314 0.0
C480 C 0.33737 0.68149 0.13136 0.0
C481 C 0.30232 0.72358 0.09769 0.0
N482 N 0.31473 0.74039 0.11805 0.0
H483 H 0.34613 0.73245 0.14959 0.0
H484 H 0.28974 0.73919 0.08389 0.0
H485 H 0.26085 0.70703 0.14527 0.0
H486 H 0.2084 0.80868 0.13305 0.0
O487 O 0.30928 0.78099 0.16221 0.0
O488 O 0.28146 0.83077 0.14841 0.0
O489 O 0.27961 0.80568 0.09747 0.0
C490 C 0.29391 0.81241 0.1665 0.0
H491 H 0.40157 0.87999 0.10272 0.0
H492 H 0.18802 0.69545 0.15253 0.0
H493 H 0.28855 0.67114 0.08026 0.0
H494 H 0.35052 0.66585 0.14528 0.0
Co495 Co 0.27565 0.26621 0.62334 0.0
C496 C 0.28097 0.18125 0.61654 0.0
C497 C 0.22852 0.19752 0.63069 0.0
C498 C 0.22732 0.15895 0.62888 0.0
N499 N 0.26243 0.21183 0.62348 0.0
N500 N 0.26027 0.14861 0.61998 0.0
H501 H 0.30879 0.18225 0.60912 0.0
H502 H 0.20605 0.21419 0.63702 0.0
C503 C 0.26395 0.24573 0.67302 0.0
O504 O 0.28302 0.21605 0.66815 0.0
N505 N 0.28716 0.32053 0.62256 0.0
C506 C 0.31814 0.3371 0.61275 0.0
C507 C 0.31543 0.37549 0.61329 0.0
C508 C 0.26564 0.3494 0.6287 0.0
N509 N 0.28242 0.38358 0.6233 0.0
C510 C 0.35234 0.24406 0.62033 0.0
C511 C 0.37713 0.27868 0.66131 0.0
C512 C 0.4033 0.26194 0.64699 0.0
C513 C 0.39053 0.24428 0.62631 0.0
C514 C 0.33935 0.27817 0.65455 0.0
N515 N 0.32692 0.25984 0.63469 0.0
H516 H 0.34374 0.23328 0.60339 0.0
H517 H 0.32066 0.29467 0.66466 0.0
H518 H 0.34077 0.32223 0.60499 0.0
H519 H 0.23808 0.34532 0.63655 0.0
O520 O 0.28543 0.26466 0.59041 0.0
O521 O 0.22929 0.27365 0.60583 0.0
O522 O 0.2569 0.26948 0.65674 0.0
C523 C 0.2501 0.27095 0.58719 0.0
H524 H 0.20361 0.14001 0.63321 0.0
H525 H 0.33577 0.39574 0.60592 0.0
H526 H 0.38611 0.29407 0.67687 0.0
H527 H 0.41009 0.23185 0.61444 0.0
H528 H 0.92024 0.3116 0.10042 0.0
H529 H 0.8882 0.23914 0.15892 0.0
H530 H 0.95462 0.22117 0.16316 0.0
H531 H 0.98718 0.25029 0.07548 0.0
H532 H 1.01905 0.28836 0.06628 0.0
H533 H 0.9693 0.29548 0.0683 0.0
H534 H 0.9831 0.35168 0.09626 0.0
H535 H 0.03288 0.3447 0.09435 0.0
H536 H 1.01035 0.34489 0.12259 0.0
H537 H 0.02645 0.21361 0.16172 0.0
H538 H 0.09475 0.21314 0.15271 0.0
H539 H 0.07816 0.28864 0.09416 0.0
C540 C 0.92721 0.2921 0.11422 0.0
C541 C 0.89902 0.277 0.12948 0.0
C542 C 0.90925 0.25095 0.14699 0.0
C543 C 0.94695 0.24076 0.14957 0.0
C544 C 0.97411 0.25646 0.1343 0.0
C545 C 0.96449 0.28127 0.11679 0.0
C546 C 0.99852 0.29353 0.10222 0.0
C547 C 0.99318 0.28117 0.07655 0.0
C548 C 1.00669 0.33623 0.10397 0.0
C549 C 0.029 0.27204 0.11432 0.0
C550 C 1.01456 0.25102 0.13292 0.0
C551 C 0.03786 0.22976 0.14706 0.0
C552 C 0.07665 0.22976 0.1419 0.0
C553 C 0.09183 0.25048 0.1226 0.0
C554 C 0.06743 0.27191 0.10876 0.0
H555 H 0.79842 0.08678 0.65508 0.0
H556 H 0.78472 0.11408 0.58152 0.0
H557 H 0.79081 0.04682 0.57137 0.0
H558 H 0.86824 1.01739 0.647 0.0
H559 H 0.85025 0.988 0.67061 0.0
H560 H 0.84507 0.03802 0.67152 0.0
H561 H 0.77285 0.02693 0.67633 0.0
H562 H 0.77775 0.97689 0.67528 0.0
H563 H 0.74658 0.99903 0.65496 0.0
H564 H 0.79442 0.97482 0.57014 0.0
H565 H 0.80216 0.90677 0.57744 0.0
H566 H 0.81618 0.92887 0.65168 0.0
C567 C 0.7967 0.07858 0.63683 0.0
C568 C 0.79076 0.10541 0.61906 0.0
C569 C 0.78938 0.09383 0.59534 0.0
C570 C 0.79259 0.05574 0.58948 0.0
C571 C 0.79775 0.02983 0.60756 0.0
C572 C 0.80038 0.041 0.63073 0.0
C573 C 0.8067 1.00815 0.64695 0.0
C574 C 0.84483 1.0132 0.65977 0.0
C575 C 0.77402 1.00242 0.6644 0.0
C576 C 0.80688 0.9765 0.62939 0.0
C577 C 0.80132 0.98931 0.60676 0.0
C578 C 0.79916 0.96464 0.58777 0.0
C579 C 0.80333 0.92609 0.59206 0.0
C580 C 0.81009 0.91276 0.61506 0.0
C581 C 0.81166 0.93841 0.63387 0.0
H582 H 0.98139 0.81611 0.10053 0.0
H583 H 0.93398 0.74585 0.15646 0.0
H584 H 0.9981 0.73122 0.16919 0.0
H585 H 0.05794 0.75798 0.08666 0.0
H586 H 0.09112 0.79678 0.08096 0.0
H587 H 0.04146 0.80225 0.07633 0.0
H588 H 0.04404 0.85955 0.10418 0.0
H589 H 0.09371 0.85415 0.10896 0.0
H590 H 0.06211 0.85446 0.13358 0.0
H591 H 0.06756 0.72329 0.17571 0.0
H592 H 0.1369 0.72118 0.17483 0.0
H593 H 0.14065 0.79724 0.11523 0.0
C594 C 0.98436 0.79793 0.11561 0.0
C595 C 0.9521 0.78219 0.12741 0.0
C596 C 0.95773 0.758 0.14683 0.0
C597 C 0.99425 0.74971 0.15434 0.0
C598 C 0.02522 0.76576 0.14236 0.0
C599 C 1.02071 0.78932 0.12336 0.0
C600 C 0.05883 0.80226 0.11329 0.0
C601 C 0.06255 0.78902 0.0878 0.0
C602 C 0.06503 0.84516 0.11512 0.0
C603 C 0.08551 0.78219 0.12954 0.0
C604 C 0.0654 0.76136 0.1462 0.0
C605 C 0.08351 0.73957 0.16277 0.0
C606 C 0.12297 0.73848 0.1621 0.0
C607 C 0.14438 0.75906 0.14503 0.0
C608 C 0.12523 0.78167 0.12873 0.0
H609 H 0.25847 0.92353 0.63305 0.0
H610 H 0.32087 0.92441 0.56772 0.0
H611 H 0.32006 0.993 0.56615 0.0
H612 H 0.19801 1.00013 0.61571 0.0
H613 H 0.19721 1.02004 0.64471 0.0
H614 H 0.20263 0.97035 0.64112 0.0
H615 H 0.26406 0.97524 0.6658 0.0
H616 H 0.25899 0.02499 0.66931 0.0
H617 H 0.30169 1.00806 0.65713 0.0
H618 H 0.31609 0.06209 0.57214 0.0
H619 H 0.30257 0.12699 0.58344 0.0
H620 H 0.23931 0.08368 0.64335 0.0
C621 C 0.27162 0.93809 0.61831 0.0
C622 C 0.29058 0.91799 0.60084 0.0
C623 C 0.30724 0.9386 0.58182 0.0
C624 C 0.30673 0.97786 0.58062 0.0
C625 C 0.2889 0.99679 0.59834 0.0
C626 C 0.27104 0.97773 0.61664 0.0
C627 C 0.25328 1.00543 0.63305 0.0
C628 C 0.21022 0.99858 0.63368 0.0
C629 C 0.27054 1.00329 0.65779 0.0
C630 C 0.26429 0.04274 0.62114 0.0
C631 C 0.28515 0.03699 0.60125 0.0
C632 C 0.29952 0.06696 0.58761 0.0
C633 C 0.29196 0.10381 0.59424 0.0
C634 C 0.26982 0.11062 0.6142 0.0
C635 C 0.25597 0.07946 0.62783 0.0
H636 H 0.91156 0.76731 0.8674 0.0
H637 H 0.91351 0.88643 0.88251 0.0
H638 H 0.9825 0.88691 0.88865 0.0
H639 H 0.98702 0.7427 0.9087 0.0
H640 H 1.00646 0.70956 0.88886 0.0
H641 H 0.9568 0.7178 0.88788 0.0
H642 H 0.9621 0.73431 0.84369 0.0
H643 H 1.01177 0.72632 0.84456 0.0
H644 H 0.99571 0.77078 0.83431 0.0
H645 H 0.05138 0.87526 0.89128 0.0
H646 H 0.11564 0.85256 0.89003 0.0
H647 H 0.06991 0.74136 0.87111 0.0
C648 C 0.92658 0.79319 0.87251 0.0
C649 C 0.90737 0.82682 0.87467 0.0
C650 C 0.92787 0.86046 0.88078 0.0
C651 C 0.96697 0.86095 0.88435 0.0
C652 C 0.98529 0.82757 0.88159 0.0
C653 C 0.96585 0.79427 0.87581 0.0
C654 C 0.99279 0.76295 0.87246 0.0
C655 C 0.98532 0.73139 0.89056 0.0
C656 C 0.99044 0.74771 0.84726 0.0
C657 C 0.03029 0.78395 0.87706 0.0
C658 C 0.02527 0.82109 0.88248 0.0
C659 C 0.05569 0.84618 0.88707 0.0
C660 C 0.09227 0.83301 0.88611 0.0
C661 C 0.09835 0.79504 0.88042 0.0
C662 C 0.06662 0.77037 0.87586 0.0
H663 H 0.26266 0.91093 0.39975 0.0
H664 H 0.3255 0.91156 0.33481 0.0
H665 H 0.31762 0.97963 0.33045 0.0
H666 H 0.19564 0.98175 0.38192 0.0
H667 H 0.19522 1.00344 0.41041 0.0
H668 H 0.20382 0.95417 0.40789 0.0
H669 H 0.26643 0.96473 0.43094 0.0
H670 H 0.25814 1.01405 0.43341 0.0
H671 H 0.30128 0.9993 0.42061 0.0
H672 H 0.30538 0.04799 0.33361 0.0
H673 H 0.2881 0.11206 0.3436 0.0
H674 H 0.23422 0.06916 0.40713 0.0
C675 C 0.27416 0.92543 0.38448 0.0
C676 C 0.2948 0.9059 0.36763 0.0
C677 C 0.30993 0.92595 0.34803 0.0
C678 C 0.3055 0.96464 0.34536 0.0
C679 C 0.28585 0.98329 0.36247 0.0
C680 C 0.27025 0.96446 0.38163 0.0
C681 C 0.25159 0.99184 0.39779 0.0
C682 C 0.20904 0.98222 0.3996 0.0
C683 C 0.2705 0.99251 0.42213 0.0
C684 C 0.25933 0.02879 0.38475 0.0
C685 C 0.27907 0.02309 0.3644 0.0
C686 C 0.2899 0.05281 0.34952 0.0
C687 C 0.28019 0.08932 0.35548 0.0
C688 C 0.25983 0.09619 0.37623 0.0
C689 C 0.24941 0.06519 0.39102 0.0
H690 H 0.95826 0.32422 0.89305 0.0
H691 H 0.91265 0.21096 0.90579 0.0
H692 H 0.97736 0.18867 0.90925 0.0
H693 H 0.03594 0.29684 0.85719 0.0
H694 H 0.06847 0.33317 0.86806 0.0
H695 H 1.01865 0.34056 0.86749 0.0
H696 H 1.02075 0.35521 0.91193 0.0
H697 H 0.07056 0.34754 0.91268 0.0
H698 H 0.03907 0.32134 0.93207 0.0
H699 H 0.04621 0.17891 0.91241 0.0
H700 H 0.1153 0.17991 0.91038 0.0
H701 H 0.11835 0.29883 0.89315 0.0
C702 C 0.96202 0.29478 0.89667 0.0
C703 C 0.9304 0.26925 0.89926 0.0
C704 C 0.9364 0.23085 0.90359 0.0
C705 C 0.97305 0.21805 0.90577 0.0
C706 C 1.00355 0.24392 0.9033 0.0
C707 C 0.99856 0.28138 0.89849 0.0
C708 C 0.0364 0.30278 0.89546 0.0
C709 C 0.04007 0.31931 0.87057 0.0
C710 C 0.04202 0.33354 0.91415 0.0
C711 C 0.06345 0.27146 0.89936 0.0
C712 C 0.04367 0.23792 0.90414 0.0
C713 C 0.06194 0.20491 0.90843 0.0
C714 C 0.10132 0.20578 0.90713 0.0
C715 C 0.12249 0.23928 0.90123 0.0
C716 C 0.10315 0.27282 0.8978 0.0
H717 H 0.73551 0.09025 0.34819 0.0
H718 H 0.83465 0.14197 0.3821 0.0
H719 H 0.86028 0.07952 0.38765 0.0
H720 H 0.72652 1.01004 0.3858 0.0
H721 H 0.71192 0.97759 0.36296 0.0
H722 H 0.70184 0.02653 0.36031 0.0
H723 H 0.73603 0.03039 0.32032 0.0
H724 H 0.74591 0.98136 0.32273 0.0
H725 H 0.78391 1.01603 0.31837 0.0
H726 H 0.87363 1.01155 0.39182 0.0
H727 H 0.87632 0.9428 0.39186 0.0
H728 H 0.76909 0.93352 0.35482 0.0
C729 C 0.7627 0.08854 0.35668 0.0
C730 C 0.78303 0.12143 0.36461 0.0
C731 C 0.81867 0.11763 0.37548 0.0
C732 C 0.83337 0.0821 0.37892 0.0
C733 C 0.81227 0.05039 0.37133 0.0
C734 C 0.77788 0.0532 0.36023 0.0
C735 C 0.76086 1.01448 0.35398 0.0
C736 C 0.72304 1.00671 0.36651 0.0
C737 C 0.75643 1.01033 0.32726 0.0
C738 C 0.79095 0.98946 0.36352 0.0
C739 C 0.82026 1.01091 0.37348 0.0
C740 C 0.85107 0.99451 0.3838 0.0
C741 C 0.85239 0.95525 0.38361 0.0
C742 C 0.82322 0.93235 0.37304 0.0
C743 C 0.79183 0.94995 0.3631 0.0
H744 H 0.27899 0.44444 0.08091 0.0
H745 H 0.23616 0.43211 0.15191 0.0
H746 H 0.24881 0.49941 0.15866 0.0
H747 H 0.35443 0.51203 0.09485 0.0
H748 H 0.34955 0.53955 0.06849 0.0
H749 H 0.33632 0.49008 0.06839 0.0
H750 H 0.26949 0.50473 0.05358 0.0
H751 H 0.28255 0.55425 0.05356 0.0
H752 H 0.24195 0.53685 0.06984 0.0
H753 H 0.2665 0.56582 0.15882 0.0
H754 H 0.2878 0.63138 0.15211 0.0
H755 H 0.32017 0.60433 0.08101 0.0
C756 C 0.27215 0.45611 0.09777 0.0
C757 C 0.25589 0.43316 0.11573 0.0
C758 C 0.24761 0.44928 0.13767 0.0
C759 C 0.25498 0.48744 0.14177 0.0
C760 C 0.27073 0.50929 0.1238 0.0
C761 C 0.27918 0.49458 0.10219 0.0
C762 C 0.29622 0.52502 0.08616 0.0
C763 C 0.33653 0.51613 0.07906 0.0
C764 C 0.27104 0.53053 0.0645 0.0
C765 C 0.29617 0.55883 0.10232 0.0
C766 C 0.28135 0.5487 0.12392 0.0
C767 C 0.27833 0.57422 0.14204 0.0
C768 C 0.29082 0.61133 0.13809 0.0
C769 C 0.30633 0.62275 0.1162 0.0
C770 C 0.30869 0.59622 0.09794 0.0
H771 H 0.45981 0.28344 0.617 0.0
H772 H 0.43845 0.25108 0.6893 0.0
H773 H 0.50673 0.25967 0.69818 0.0
H774 H 0.54419 0.23664 0.61044 0.0
H775 H 0.56639 0.27268 0.59222 0.0
H776 H 0.51586 0.2661 0.59238 0.0
H777 H 0.51032 0.33618 0.60345 0.0
H778 H 0.56095 0.34285 0.60357 0.0
H779 H 0.53443 0.35445 0.62918 0.0
H780 H 0.57821 0.26762 0.69811 0.0
H781 H 0.64629 0.2718 0.68869 0.0
H782 H 0.61923 0.30145 0.61688 0.0
C783 C 0.46951 0.278 0.63468 0.0
C784 C 0.44405 0.2663 0.65244 0.0
C785 C 0.45765 0.26012 0.67548 0.0
C786 C 0.49628 0.26502 0.68067 0.0
C787 C 0.52068 0.2766 0.66269 0.0
C788 C 0.50773 0.28307 0.64018 0.0
C789 C 0.53962 0.29398 0.62374 0.0
C790 C 0.54163 0.26565 0.60352 0.0
C791 C 0.53611 0.33426 0.61445 0.0
C792 C 0.57276 0.29153 0.64032 0.0
C793 C 0.5614 0.28187 0.66278 0.0
C794 C 0.58741 0.2757 0.68066 0.0
C795 C 0.62599 0.27837 0.67521 0.0
C796 C 0.63796 0.2869 0.65207 0.0
C797 C 0.6109 0.29473 0.63471 0.0
H798 H 0.74618 0.44479 0.12018 0.0
H799 H 0.71005 0.41969 0.0489 0.0
H800 H 0.72144 0.48699 0.03826 0.0
H801 H 0.70351 0.53397 0.1246 0.0
H802 H 0.74168 0.55399 0.14219 0.0
H803 H 0.73017 0.50427 0.14351 0.0
H804 H 0.79918 0.49094 0.13284 0.0
H805 H 0.81083 0.54061 0.13125 0.0
H806 H 0.81945 0.51109 0.10645 0.0
H807 H 0.73767 0.55882 0.03616 0.0
H808 H 0.75722 0.62589 0.04279 0.0
H809 H 0.77985 0.60048 0.11587 0.0
C810 C 0.73978 0.45333 0.1024 0.0
C811 C 0.72655 0.42701 0.08548 0.0
C812 C 0.72008 0.4394 0.0622 0.0
C813 C 0.72638 0.47755 0.05603 0.0
C814 C 0.73925 0.50274 0.07335 0.0
C815 C 0.74575 0.49088 0.09606 0.0
C816 C 0.75991 0.52273 0.11159 0.0
C817 C 0.73216 0.52912 0.13165 0.0
C818 C 0.7997 0.51592 0.12107 0.0
C819 C 0.76054 0.55465 0.09414 0.0
C820 C 0.7486 0.54293 0.07213 0.0
C821 C 0.74706 0.56816 0.05335 0.0
C822 C 0.75811 0.60617 0.05726 0.0
C823 C 0.77067 0.61836 0.07974 0.0
C824 C 0.77144 0.59206 0.0983 0.0
H825 H 0.6175 0.77169 0.65314 0.0
H826 H 0.62643 0.8318 0.58696 0.0
H827 H 0.55712 0.8311 0.58387 0.0
H828 H 0.54545 0.71068 0.63761 0.0
H829 H 0.52018 0.70996 0.66494 0.0
H830 H 0.57015 0.72091 0.66473 0.0
H831 H 0.56069 0.78415 0.68559 0.0
H832 H 0.51066 0.77299 0.68651 0.0
H833 H 0.5282 0.81647 0.67338 0.0
H834 H 0.48929 0.81387 0.58406 0.0
H835 H 0.42385 0.78979 0.59074 0.0
H836 H 0.45707 0.74294 0.65763 0.0
C837 C 0.6047 0.78612 0.63859 0.0
C838 C 0.62698 0.80191 0.6203 0.0
C839 C 0.60958 0.81964 0.60111 0.0
C840 C 0.57034 0.81934 0.59921 0.0
C841 C 0.54906 0.80163 0.61682 0.0
C842 C 0.56541 0.78617 0.63647 0.0
C843 C 0.53591 0.7665 0.65192 0.0
C844 C 0.54339 0.72453 0.65496 0.0
C845 C 0.53373 0.78622 0.67577 0.0
C846 C 0.50079 0.77194 0.63734 0.0
C847 C 0.50915 0.79232 0.61717 0.0
C848 C 0.48215 0.79859 0.59999 0.0
C849 C 0.44532 0.78442 0.60376 0.0
C850 C 0.43593 0.76443 0.62455 0.0
C851 C 0.46387 0.75817 0.6416 0.0
H852 H 0.25269 0.45764 0.90082 0.0
H853 H 0.25036 0.42705 0.82714 0.0
H854 H 0.2552 0.49411 0.81616 0.0
H855 H 0.19574 0.54136 0.89341 0.0
H856 H 0.22212 0.56701 0.91575 0.0
H857 H 0.21633 0.51656 0.91757 0.0
H858 H 0.28893 0.51239 0.92001 0.0
H859 H 0.295 0.56273 0.91766 0.0
H860 H 0.31788 0.5332 0.89707 0.0
H861 H 0.26711 0.56408 0.81333 0.0
H862 H 0.27668 0.63254 0.81872 0.0
H863 H 0.26503 0.61717 0.89408 0.0
C864 C 0.2521 0.46493 0.88238 0.0
C865 C 0.25159 0.43698 0.86487 0.0
C866 C 0.25151 0.44794 0.8409 0.0
C867 C 0.2541 0.48595 0.83446 0.0
C868 C 0.25602 0.51271 0.85218 0.0
C869 C 0.25415 0.50275 0.87562 0.0
C870 C 0.25705 0.53704 0.8912 0.0
C871 C 0.22064 0.54071 0.9053 0.0
C872 C 0.29178 0.53627 0.90743 0.0
C873 C 0.26169 0.56771 0.87285 0.0
C874 C 0.26123 0.55313 0.85047 0.0
C875 C 0.26674 0.57594 0.83076 0.0
C876 C 0.27206 0.61485 0.83402 0.0
C877 C 0.27144 0.6306 0.85682 0.0
C878 C 0.2663 0.60638 0.8764 0.0
H879 H 0.59117 0.32171 0.40597 0.0
H880 H 0.61701 0.20921 0.42881 0.0
H881 H 0.54968 0.19442 0.43552 0.0
H882 H 0.50707 0.3332 0.44393 0.0
H883 H 0.48242 0.35675 0.42084 0.0
H884 H 0.53313 0.36146 0.42268 0.0
H885 H 0.53782 0.338 0.37987 0.0
H886 H 0.4873 0.33304 0.37793 0.0
H887 H 0.51534 0.29335 0.37195 0.0
H888 H 0.47937 0.18829 0.43419 0.0
H889 H 0.41187 0.19121 0.42392 0.0
H890 H 0.4315 0.30635 0.40021 0.0
C891 C 0.58287 0.29414 0.41275 0.0
C892 C 0.60977 0.26684 0.41702 0.0
C893 C 0.59737 0.23112 0.42594 0.0
C894 C 0.559 0.22229 0.42972 0.0
C895 C 0.53323 0.24941 0.4245 0.0
C896 C 0.54465 0.28468 0.41628 0.0
C897 C 0.51121 0.30715 0.40931 0.0
C898 C 0.50829 0.34168 0.42514 0.0
C899 C 0.51304 0.31852 0.38323 0.0
C900 C 0.47933 0.27839 0.4139 0.0
C901 C 0.49252 0.24556 0.42317 0.0
C902 C 0.4686 0.21409 0.42735 0.0
C903 C 0.4303 0.21602 0.42152 0.0
C904 C 0.4165 0.24902 0.41132 0.0
C905 C 0.4413 0.28076 0.40798 0.0
H906 H 0.80336 0.6142 0.88718 0.0
H907 H 0.77105 0.63746 0.81517 0.0
H908 H 0.76557 0.56923 0.80733 0.0
H909 H 0.85349 0.52837 0.87691 0.0
H910 H 0.83512 0.50641 0.90328 0.0
H911 H 0.8425 0.55676 0.90183 0.0
H912 H 0.77262 0.56405 0.91316 0.0
H913 H 0.7648 0.51378 0.9142 0.0
H914 H 0.73581 0.5416 0.89553 0.0
H915 H 0.7591 0.49804 0.8084 0.0
H916 H 0.75341 0.43002 0.81826 0.0
H917 H 0.78311 0.45524 0.89047 0.0
C918 C 0.79546 0.60511 0.86966 0.0
C919 C 0.78751 0.63124 0.85182 0.0
C920 C 0.77785 0.61802 0.82905 0.0
C921 C 0.77434 0.5793 0.82449 0.0
C922 C 0.78046 0.55437 0.84289 0.0
C923 C 0.79101 0.56682 0.86499 0.0
C924 C 0.79299 0.53472 0.8823 0.0
C925 C 0.83343 0.53137 0.89162 0.0
C926 C 0.76488 0.5388 0.90248 0.0
C927 C 0.78133 0.50218 0.8666 0.0
C928 C 0.77472 0.51391 0.84384 0.0
C929 C 0.76411 0.48857 0.82616 0.0
C930 C 0.76072 0.45022 0.83189 0.0
C931 C 0.76714 0.438 0.85514 0.0
C932 C 0.7773 0.46425 0.87269 0.0
H933 H 0.44971 0.74012 0.42588 0.0
H934 H 0.43198 0.72482 0.35084 0.0
H935 H 0.49933 0.73408 0.34425 0.0
H936 H 0.51993 0.81532 0.41929 0.0
H937 H 0.5487 0.80162 0.44374 0.0
H938 H 0.49872 0.79022 0.44377 0.0
H939 H 0.51151 0.71987 0.44984 0.0
H940 H 0.56157 0.73106 0.44984 0.0
H941 H 0.54152 0.69685 0.42956 0.0
H942 H 0.56643 0.74632 0.34432 0.0
H943 H 0.63289 0.76485 0.35108 0.0
H944 H 0.61151 0.77682 0.42555 0.0
C945 C 0.46009 0.73835 0.40813 0.0
C946 C 0.43519 0.73013 0.38906 0.0
C947 C 0.45011 0.72902 0.36602 0.0
C948 C 0.48854 0.73472 0.36195 0.0
C949 C 0.51214 0.74225 0.38097 0.0
C950 C 0.49886 0.74446 0.4036 0.0
C951 C 0.53101 0.7553 0.42043 0.0
C952 C 0.52418 0.79285 0.43252 0.0
C953 C 0.53674 0.72389 0.43849 0.0
C954 C 0.56399 0.75913 0.4035 0.0
C955 C 0.55203 0.75108 0.3809 0.0
C956 C 0.57628 0.75289 0.36189 0.0
C957 C 0.61392 0.76372 0.36591 0.0
C958 C 0.62714 0.77302 0.38874 0.0
C959 C 0.602 0.77007 0.40793 0.0
H960 H 0.29519 0.26476 0.06562 0.0
H961 H 0.25977 0.14683 0.07144 0.0
H962 H 0.26986 0.13927 0.0288 0.0
H963 H 0.24684 0.28161 0.01514 0.0
H964 H 0.2816 0.31451 0.00288 0.0
H965 H 0.27844 0.30867 0.03413 0.0
H966 H 0.34894 0.29299 0.03611 0.0
H967 H 0.35244 0.29897 0.00478 0.0
H968 H 0.36569 0.25565 0.01828 0.0
H969 H 0.27683 0.14706 0.98424 0.0
H970 H 0.27742 0.17017 0.94301 0.0
H971 H 0.30591 0.28291 0.96769 0.0
C972 C 0.29052 0.23701 0.05815 0.0
C973 C 0.27689 0.20634 0.07194 0.0
C974 C 0.2705 0.17072 0.06127 0.0
C975 C 0.27622 0.16615 0.03706 0.0
C976 C 0.28851 0.19741 0.02383 0.0
C977 C 0.29574 0.23211 0.03414 0.0
C978 C 0.30466 0.26232 0.01608 0.0
C979 C 0.27618 0.29358 0.01713 0.0
C980 C 0.34536 0.27842 0.01899 0.0
C981 C 0.30008 0.2396 0.99386 0.0
C982 C 0.29154 0.20205 0.99853 0.0
C983 C 0.28403 0.17632 0.98044 0.0
C984 C 0.2845 0.18958 0.95711 0.0
C985 C 0.2917 0.22823 0.95229 0.0
C986 C 0.30037 0.25316 0.9709 0.0
H987 H 0.789 0.18923 0.45539 0.0
H988 H 0.8555 0.28886 0.43439 0.0
H989 H 0.8776 0.2972 0.47552 0.0
H990 H 0.75555 0.22768 0.50615 0.0
H991 H 0.75461 0.18449 0.52279 0.0
H992 H 0.75002 0.18306 0.49141 0.0
H993 H 0.80693 0.14022 0.48926 0.0
H994 H 0.81189 0.14185 0.52073 0.0
H995 H 0.85134 0.15561 0.50234 0.0
H996 H 0.8881 0.29699 0.52008 0.0
H997 H 0.87902 0.29337 0.56321 0.0
H998 H 0.80189 0.19675 0.55421 0.0
C999 C 0.80912 0.21223 0.45921 0.0
C1000 C 0.82117 0.23797 0.44155 0.0
C1001 C 0.84631 0.26851 0.44758 0.0
C1002 C 0.85912 0.27332 0.47088 0.0
C1003 C 0.84623 0.24755 0.48794 0.0
C1004 C 0.82143 0.21782 0.48231 0.0
C1005 C 0.80755 0.19691 0.504 0.0
C1006 C 0.7644 0.19815 0.50621 0.0
C1007 C 0.8202 0.15624 0.50408 0.0
C1008 C 0.82771 0.21991 0.52288 0.0
C1009 C 0.85074 0.24842 0.51337 0.0
C1010 C 0.87058 0.27443 0.52764 0.0
C1011 C 0.86561 0.27199 0.55211 0.0
C1012 C 0.84052 0.24423 0.56187 0.0
C1013 C 0.82206 0.21752 0.54711 0.0
H1014 H 0.8186 0.83852 0.93643 0.0
H1015 H 0.69923 0.8568 0.93412 0.0
H1016 H 0.6992 0.86473 0.97736 0.0
H1017 H 0.81618 0.78063 0.98123 0.0
H1018 H 0.86029 0.79553 0.99487 0.0
H1019 H 0.85351 0.80288 0.96405 0.0
H1020 H 0.86895 0.87424 0.96877 0.0
H1021 H 0.87665 0.86711 0.99973 0.0
H1022 H 0.84348 0.90062 0.98986 0.0
H1023 H 0.71011 0.8557 0.02146 0.0
H1024 H 0.73092 0.83285 0.06045 0.0
H1025 H 0.84297 0.81995 0.0329 0.0
C1026 C 0.79301 0.84651 0.94496 0.0
C1027 C 0.7592 0.84824 0.93206 0.0
C1028 C 0.72568 0.85684 0.94369 0.0
C1029 C 0.72543 0.86102 0.96828 0.0
C1030 C 0.75905 0.85693 0.98077 0.0
C1031 C 0.79244 0.85065 0.96931 0.0
C1032 C 0.82351 0.84165 0.98639 0.0
C1033 C 0.83923 0.80289 0.98133 0.0
C1034 C 0.855 0.87277 0.98618 0.0
C1035 C 0.80202 0.84147 0.00918 0.0
C1036 C 0.7651 0.85114 0.00586 0.0
C1037 C 0.73922 0.84906 0.02429 0.0
C1038 C 0.75123 0.83608 0.0464 0.0
C1039 C 0.78857 0.82475 0.04968 0.0
C1040 C 0.8143 0.82864 0.03096 0.0
H1041 H 0.23783 0.69166 0.45768 0.0
H1042 H 0.2193 0.80565 0.43486 0.0
H1043 H 0.20069 0.82164 0.47539 0.0
H1044 H 0.16278 0.6836 0.50305 0.0
H1045 H 0.1923 0.65712 0.52218 0.0
H1046 H 0.19682 0.65336 0.49081 0.0
H1047 H 0.26816 0.6721 0.49408 0.0
H1048 H 0.26386 0.67555 0.52532 0.0
H1049 H 0.28279 0.7152 0.5087 0.0
H1050 H 0.19302 0.82676 0.52014 0.0
H1051 H 0.20208 0.82161 0.56325 0.0
H1052 H 0.22706 0.70468 0.55554 0.0
C1053 C 0.229 0.71984 0.46095 0.0
C1054 C 0.22991 0.74736 0.44301 0.0
C1055 C 0.21851 0.78396 0.44825 0.0
C1056 C 0.20781 0.79323 0.47123 0.0
C1057 C 0.20829 0.76549 0.48867 0.0
C1058 C 0.21853 0.72946 0.48362 0.0
C1059 C 0.22139 0.70571 0.50554 0.0
C1060 C 0.19153 0.67301 0.50538 0.0
C1061 C 0.26141 0.69134 0.50858 0.0
C1062 C 0.21278 0.73432 0.524 0.0
C1063 C 0.20431 0.76846 0.51407 0.0
C1064 C 0.19875 0.79992 0.52801 0.0
C1065 C 0.20354 0.79671 0.55251 0.0
C1066 C 0.21435 0.76249 0.56262 0.0
C1067 C 0.2177 0.7308 0.54823 0.0
H1068 H 0.20073 0.78009 0.95025 0.0
H1069 H 0.26437 0.88507 0.93836 0.0
H1070 H 0.26925 0.89486 0.98136 0.0
H1071 H 0.15016 0.81123 0.00485 0.0
H1072 H 0.1525 0.76486 0.01742 0.0
H1073 H 0.14834 0.77056 0.98609 0.0
H1074 H 0.20822 0.73275 0.98068 0.0
H1075 H 0.21316 0.72764 0.01187 0.0
H1076 H 0.25152 0.74852 0.99498 0.0
H1077 H 0.27855 0.88514 0.02562 0.0
H1078 H 0.28349 0.86167 0.06652 0.0
H1079 H 0.21011 0.76515 0.04848 0.0
C1080 C 0.21428 0.80595 0.95672 0.0
C1081 C 0.23219 0.83181 0.94115 0.0
C1082 C 0.25021 0.86506 0.95007 0.0
C1083 C 0.25323 0.87073 0.97447 0.0
C1084 C 0.23706 0.84339 0.98948 0.0
C1085 C 0.21686 0.81224 0.98083 0.0
C1086 C 0.20451 0.78544 1.00024 0.0
C1087 C 0.16131 0.78289 0.00227 0.0
C1088 C 0.22032 0.74631 0.99672 0.0
C1089 C 0.22251 0.80525 0.02112 0.0
C1090 C 0.2411 0.8387 0.01475 0.0
C1091 C 0.26313 0.85957 0.03088 0.0
C1092 C 0.266 0.84592 0.05403 0.0
C1093 C 0.24682 0.81183 0.06079 0.0
C1094 C 0.22448 0.79173 0.04408 0.0
H1095 H 0.28411 0.32128 0.45481 0.0
H1096 H 0.18347 0.25307 0.43735 0.0
H1097 H 0.16747 0.24861 0.47958 0.0
H1098 H 0.30975 0.26812 0.50172 0.0
H1099 H 0.32878 0.30691 0.51898 0.0
H1100 H 0.32803 0.31048 0.48755 0.0
H1101 H 0.2906 0.37108 0.49016 0.0
H1102 H 0.29133 0.36779 0.52171 0.0
H1103 H 0.24706 0.37033 0.50629 0.0
H1104 H 0.16651 0.24679 0.52475 0.0
H1105 H 0.18332 0.2441 0.56717 0.0
H1106 H 0.2863 0.31021 0.55326 0.0
C1107 C 0.25808 0.30626 0.45968 0.0
C1108 C 0.23482 0.28787 0.44273 0.0
C1109 C 0.20153 0.26772 0.45003 0.0
C1110 C 0.1922 0.26512 0.47398 0.0
C1111 C 0.21646 0.28281 0.49032 0.0
C1112 C 0.24875 0.30298 0.48334 0.0
C1113 C 0.27276 0.31566 0.50402 0.0
C1114 C 0.31212 0.29929 0.503 0.0
C1115 C 0.27558 0.35878 0.50564 0.0
C1116 C 0.24964 0.2986 0.52383 0.0
C1117 C 0.21677 0.28047 0.51581 0.0
C1118 C 0.19198 0.26127 0.53118 0.0
C1119 C 0.20158 0.25994 0.55519 0.0
C1120 C 0.23601 0.27697 0.56324 0.0
C1121 C 0.25975 0.29705 0.54743 0.0
H1122 H 0.82476 0.22279 0.05051 0.0
H1123 H 0.70511 0.20531 0.06374 0.0
H1124 H 0.6935 0.19574 0.02139 0.0
H1125 H 0.81378 0.27833 0.00127 0.0
H1126 H 0.85332 0.26162 0.98535 0.0
H1127 H 0.85322 0.25986 0.01686 0.0
H1128 H 0.86337 0.18835 0.0156 0.0
H1129 H 0.86333 0.18991 0.98398 0.0
H1130 H 0.83096 0.15792 0.9992 0.0
H1131 H 0.69352 0.19617 0.97763 0.0
H1132 H 0.70481 0.21102 0.93572 0.0
H1133 H 0.82391 0.23008 0.95018 0.0
C1134 C 0.79632 0.21565 0.04453 0.0
C1135 C 0.76589 0.214 0.06045 0.0
C1136 C 0.72886 0.20621 0.05188 0.0
C1137 C 0.72202 0.20058 0.02786 0.0
C1138 C 0.75248 0.20312 0.01251 0.0
C1139 C 0.78893 0.21066 0.02048 0.0
C1140 C 0.81589 0.21688 1.00011 0.0
C1141 C 0.83516 0.25652 0.00095 0.0
C1142 C 0.84512 0.18644 0.9997 0.0
C1143 C 0.78879 0.21273 0.97949 0.0
C1144 C 0.75245 0.20402 0.98704 0.0
C1145 C 0.72196 0.20204 0.97146 0.0
C1146 C 0.72859 0.21025 0.94769 0.0
C1147 C 0.76534 0.22017 0.93976 0.0
C1148 C 0.79586 0.22081 0.95575 0.0
H1149 H 0.83289 0.83214 0.45307 0.0
H1150 H 0.83848 0.71623 0.43104 0.0
H1151 H 0.85847 0.69877 0.47128 0.0
H1152 H 0.91157 0.83281 0.4974 0.0
H1153 H 0.88611 0.86243 0.51666 0.0
H1154 H 0.88046 0.86657 0.48532 0.0
H1155 H 0.80806 0.85536 0.48953 0.0
H1156 H 0.81357 0.85172 0.52072 0.0
H1157 H 0.7898 0.81393 0.50472 0.0
H1158 H 0.86642 0.69281 0.51572 0.0
H1159 H 0.85713 0.69847 0.55861 0.0
H1160 H 0.84643 0.81818 0.55066 0.0
C1161 C 0.83925 0.80317 0.45646 0.0
C1162 C 0.83418 0.77554 0.4389 0.0
C1163 C 0.84252 0.73795 0.44417 0.0
C1164 C 0.85399 0.72784 0.46698 0.0
C1165 C 0.85754 0.75578 0.48415 0.0
C1166 C 0.8506 0.79278 0.47896 0.0
C1167 C 0.85139 0.81688 0.50073 0.0
C1168 C 0.88436 0.84642 0.49998 0.0
C1169 C 0.81347 0.83551 0.50412 0.0
C1170 C 0.85784 0.78743 0.5193 0.0
C1171 C 0.86234 0.75243 0.50949 0.0
C1172 C 0.86411 0.72024 0.52352 0.0
C1173 C 0.85929 0.72369 0.54792 0.0
C1174 C 0.85239 0.75897 0.55786 0.0
C1175 C 0.85327 0.79123 0.54348 0.0
H1176 H 0.56228 0.23096 0.10936 0.0
H1177 H 0.60696 0.27847 0.17427 0.0
H1178 H 0.54213 0.28987 0.18718 0.0
H1179 H 0.48839 0.29649 0.1019 0.0
H1180 H 0.45479 0.26213 0.08988 0.0
H1181 H 0.50454 0.25677 0.08596 0.0
H1182 H 0.49815 0.19043 0.10466 0.0
H1183 H 0.4484 0.19569 0.10877 0.0
H1184 H 0.47793 0.18476 0.13346 0.0
H1185 H 0.47281 0.29459 0.19355 0.0
H1186 H 0.404 0.29829 0.19183 0.0
H1187 H 0.40245 0.25053 0.12191 0.0
C1188 C 0.55838 0.24356 0.12636 0.0
C1189 C 0.58989 0.25366 0.1409 0.0
C1190 C 0.58349 0.27073 0.16279 0.0
C1191 C 0.54669 0.27705 0.17032 0.0
C1192 C 0.51637 0.26653 0.15568 0.0
C1193 C 0.52175 0.25054 0.13403 0.0
C1194 C 0.4842 0.24322 0.12136 0.0
C1195 C 0.48291 0.26602 0.09842 0.0
C1196 C 0.47674 0.20101 0.1168 0.0
C1197 C 0.45681 0.25752 0.13931 0.0
C1198 C 0.47616 0.27047 0.15903 0.0
C1199 C 0.45747 0.2849 0.1781 0.0
C1200 C 0.4182 0.28706 0.17686 0.0
C1201 C 0.39746 0.27532 0.15658 0.0
C1202 C 0.41721 0.25966 0.13769 0.0
H1203 H 0.8359 0.43385 0.58647 0.0
H1204 H 0.76773 0.40284 0.6468 0.0
H1205 H 0.75245 0.46962 0.65203 0.0
H1206 H 0.87389 0.52196 0.60698 0.0
H1207 H 0.87088 0.54549 0.57902 0.0
H1208 H 0.87645 0.49552 0.58019 0.0
H1209 H 0.81627 0.48418 0.55476 0.0
H1210 H 0.81084 0.53415 0.55323 0.0
H1211 H 0.77276 0.50357 0.56391 0.0
H1212 H 0.74883 0.54122 0.65202 0.0
H1213 H 0.74836 0.60956 0.6429 0.0
H1214 H 0.81432 0.59221 0.58067 0.0
C1215 C 0.81749 0.44126 0.60062 0.0
C1216 C 0.80295 0.4135 0.61628 0.0
C1217 C 0.7788 0.42386 0.63456 0.0
C1218 C 0.77029 0.46167 0.63774 0.0
C1219 C 0.78564 0.48859 0.62219 0.0
C1220 C 0.80801 0.47866 0.60365 0.0
C1221 C 0.81967 0.51255 0.58879 0.0
C1222 C 0.86278 0.51926 0.58876 0.0
C1223 C 0.80393 0.50836 0.56369 0.0
C1224 C 0.80078 0.54324 0.60197 0.0
C1225 C 0.7818 0.52906 0.62143 0.0
C1226 C 0.76327 0.5525 0.63669 0.0
C1227 C 0.76336 0.59119 0.63154 0.0
C1228 C 0.7812 0.60579 0.61113 0.0
C1229 C 0.80036 0.58151 0.59633 0.0
H1230 H 0.61042 0.73457 0.12773 0.0
H1231 H 0.66133 0.8477 0.12394 0.0
H1232 H 0.5979 0.87311 0.12239 0.0
H1233 H 0.53235 0.7499 0.08857 0.0
H1234 H 0.49919 0.72045 0.10499 0.0
H1235 H 0.54858 0.71103 0.10561 0.0
H1236 H 0.5486 0.71486 0.15093 0.0
H1237 H 0.49923 0.72444 0.15045 0.0
H1238 H 0.53256 0.75643 0.16493 0.0
H1239 H 0.52852 0.88658 0.12206 0.0
H1240 H 0.45933 0.88726 0.12139 0.0
H1241 H 0.45206 0.76539 0.12522 0.0
C1242 C 0.60848 0.76474 0.12674 0.0
C1243 C 0.64153 0.78902 0.12603 0.0
C1244 C 0.63698 0.82829 0.1243 0.0
C1245 C 0.60086 0.84306 0.12355 0.0
C1246 C 0.56913 0.81836 0.1245 0.0
C1247 C 0.57256 0.77999 0.12595 0.0
C1248 C 0.53382 0.75959 0.12652 0.0
C1249 C 0.52816 0.73371 0.10515 0.0
C1250 C 0.52823 0.73752 0.14958 0.0
C1251 C 0.508 0.79248 0.12522 0.0
C1252 C 0.52908 0.82609 0.12411 0.0
C1253 C 0.51185 0.86037 0.12277 0.0
C1254 C 0.47226 0.86041 0.12227 0.0
C1255 C 0.44964 0.82641 0.12301 0.0
C1256 C 0.46813 0.79196 0.12476 0.0
H1257 H 0.32268 0.45153 0.62277 0.0
H1258 H 0.20916 0.40182 0.62951 0.0
H1259 H 0.18463 0.46537 0.63205 0.0
H1260 H 0.312 0.52879 0.66229 0.0
H1261 H 0.34038 0.5617 0.64501 0.0
H1262 H 0.34909 0.51232 0.6441 0.0
H1263 H 0.34101 0.51301 0.59895 0.0
H1264 H 0.33209 0.56236 0.59972 0.0
H1265 H 0.29829 0.5297 0.58623 0.0
H1266 H 0.17215 0.53481 0.63331 0.0
H1267 H 0.17269 0.60394 0.63458 0.0
H1268 H 0.29418 0.60958 0.62636 0.0
C1269 C 0.29258 0.4537 0.62461 0.0
C1270 C 0.26796 0.42099 0.62583 0.0
C1271 C 0.22885 0.42589 0.62872 0.0
C1272 C 0.21457 0.46208 0.63003 0.0
C1273 C 0.2396 0.49346 0.62843 0.0
C1274 C 0.27782 0.48963 0.62587 0.0
C1275 C 0.29872 0.52797 0.62468 0.0
C1276 C 0.3267 0.53298 0.64525 0.0
C1277 C 0.31871 0.53358 0.60098 0.0
C1278 C 0.26628 0.55409 0.62697 0.0
C1279 C 0.23244 0.53348 0.62911 0.0
C1280 C 0.19853 0.55109 0.63173 0.0
C1281 C 0.19918 0.59055 0.63253 0.0
C1282 C 0.23347 0.61256 0.63073 0.0
C1283 C 0.26745 0.5938 0.62759 0.0
H1284 H 0.58506 0.79644 0.91434 0.0
H1285 H 0.6063 0.77382 0.84116 0.0
H1286 H 0.53822 0.7797 0.83222 0.0
H1287 H 0.49637 0.7461 0.91873 0.0
H1288 H 0.47629 0.77984 0.93788 0.0
H1289 H 0.52641 0.77419 0.93809 0.0
H1290 H 0.5382 0.84528 0.92943 0.0
H1291 H 0.48813 0.85121 0.92937 0.0
H1292 H 0.5159 0.86587 0.9043 0.0
H1293 H 0.46577 0.78498 0.83229 0.0
H1294 H 0.39845 0.79575 0.84065 0.0
H1295 H 0.42716 0.81664 0.91351 0.0
C1296 C 0.57539 0.79267 0.89643 0.0
C1297 C 0.60083 0.78438 0.87845 0.0
C1298 C 0.58722 0.78036 0.85515 0.0
C1299 C 0.54861 0.78341 0.84998 0.0
C1300 C 0.52413 0.79098 0.86828 0.0
C1301 C 0.53726 0.79609 0.89098 0.0
C1302 C 0.50575 0.80481 0.90753 0.0
C1303 C 0.50093 0.77442 0.92668 0.0
C1304 C 0.5124 0.84413 0.91828 0.0
C1305 C 0.47263 0.80356 0.89071 0.0
C1306 C 0.48349 0.79523 0.86816 0.0
C1307 C 0.45714 0.79181 0.84988 0.0
C1308 C 0.41898 0.79772 0.85476 0.0
C1309 C 0.40772 0.80739 0.87765 0.0
C1310 C 0.43502 0.80991 0.89576 0.0
H1311 H 0.23729 0.42362 0.32913 0.0
H1312 H 0.25804 0.39622 0.40204 0.0
H1313 H 0.25534 0.46354 0.41237 0.0
H1314 H 0.29127 0.51025 0.3271 0.0
H1315 H 0.2587 0.53388 0.30844 0.0
H1316 H 0.2614 0.48359 0.30692 0.0
H1317 H 0.18983 0.47529 0.31512 0.0
H1318 H 0.18685 0.52559 0.3165 0.0
H1319 H 0.17065 0.49662 0.34077 0.0
H1320 H 0.25574 0.53535 0.414 0.0
H1321 H 0.25131 0.60398 0.4076 0.0
H1322 H 0.22583 0.58413 0.33421 0.0
C1323 C 0.24097 0.4318 0.34729 0.0
C1324 C 0.24791 0.40457 0.3648 0.0
C1325 C 0.25231 0.41643 0.38839 0.0
C1326 C 0.25109 0.45469 0.39437 0.0
C1327 C 0.2448 0.48088 0.37664 0.0
C1328 C 0.23909 0.4698 0.35363 0.0
C1329 C 0.23217 0.50341 0.33793 0.0
C1330 C 0.26271 0.50804 0.31898 0.0
C1331 C 0.19251 0.50002 0.32694 0.0
C1332 C 0.23539 0.53521 0.3556 0.0
C1333 C 0.24313 0.52172 0.3778 0.0
C1334 C 0.24918 0.54607 0.39674 0.0
C1335 C 0.24682 0.58501 0.39296 0.0
C1336 C 0.23787 0.59936 0.37051 0.0
C1337 C 0.2321 0.57393 0.35165 0.0
H1338 H 0.46086 0.32869 0.89309 0.0
H1339 H 0.41411 0.21448 0.88518 0.0
H1340 H 0.47829 0.19204 0.88132 0.0
H1341 H 0.53612 0.32193 0.85207 0.0
H1342 H 0.56953 0.35035 0.86904 0.0
H1343 H 0.51984 0.35756 0.8714 0.0
H1344 H 0.52387 0.34755 0.91634 0.0
H1345 H 0.57356 0.34006 0.91409 0.0
H1346 H 0.54261 0.30495 0.92776 0.0
H1347 H 0.54749 0.18177 0.87743 0.0
H1348 H 0.61667 0.18481 0.87255 0.0
H1349 H 0.61993 0.30494 0.88437 0.0
C1350 C 0.46392 0.29889 0.89078 0.0
C1351 C 0.43184 0.27348 0.88947 0.0
C1352 C 0.4377 0.23478 0.88598 0.0
C1353 C 0.47425 0.22164 0.88396 0.0
C1354 C 0.50502 0.24738 0.88552 0.0
C1355 C 0.50029 0.28522 0.8888 0.0
C1356 C 0.53822 0.30704 0.88941 0.0
C1357 C 0.54109 0.33592 0.86928 0.0
C1358 C 0.54495 0.32602 0.91333 0.0
C1359 C 0.56504 0.27557 0.88579 0.0
C1360 C 0.54515 0.24139 0.88364 0.0
C1361 C 0.5633 0.20834 0.87925 0.0
C1362 C 0.6026 0.21031 0.87652 0.0
C1363 C 0.62369 0.24498 0.87831 0.0
C1364 C 0.60462 0.27797 0.88341 0.0
H1365 H 0.73533 0.44347 0.38855 0.0
H1366 H 0.83648 0.42402 0.34945 0.0
H1367 H 0.8446 0.49261 0.34114 0.0
H1368 H 0.70169 0.51829 0.34976 0.0
H1369 H 0.68268 0.54375 0.37388 0.0
H1370 H 0.68469 0.49336 0.37548 0.0
H1371 H 0.72232 0.49981 0.41443 0.0
H1372 H 0.72099 0.55022 0.41275 0.0
H1373 H 0.76561 0.52837 0.4152 0.0
H1374 H 0.84451 0.56536 0.34108 0.0
H1375 H 0.83105 0.63307 0.34383 0.0
H1376 H 0.72745 0.60359 0.38058 0.0
C1377 C 0.75871 0.45368 0.37779 0.0
C1378 C 0.78518 0.42853 0.36945 0.0
C1379 C 0.81564 0.4428 0.35564 0.0
C1380 C 0.82058 0.48173 0.35107 0.0
C1381 C 0.79442 0.50596 0.36011 0.0
C1382 C 0.76354 0.49222 0.37271 0.0
C1383 C 0.73922 0.5238 0.38038 0.0
C1384 C 0.69973 0.51954 0.3692 0.0
C1385 C 0.73692 0.52564 0.40728 0.0
C1386 C 0.76141 0.55766 0.37052 0.0
C1387 C 0.79346 0.54699 0.35913 0.0
C1388 C 0.81919 0.57381 0.34967 0.0
C1389 C 0.81155 0.61222 0.35147 0.0
C1390 C 0.77816 0.62355 0.36229 0.0
C1391 C 0.75299 0.59572 0.37198 0.0
H1392 H 0.19439 0.27608 0.30361 0.0
H1393 H 0.23783 0.16639 0.31635 0.0
H1394 H 0.23174 0.15152 0.27417 0.0
H1395 H 0.13016 0.24892 0.25149 0.0
H1396 H 0.14269 0.2927 0.23689 0.0
H1397 H 0.14071 0.29072 0.26848 0.0
H1398 H 0.20941 0.31849 0.2707 0.0
H1399 H 0.21184 0.32007 0.23927 0.0
H1400 H 0.24613 0.29496 0.25576 0.0
H1401 H 0.23298 0.15335 0.23035 0.0
H1402 H 0.24061 0.17174 0.18864 0.0
H1403 H 0.19767 0.28079 0.2043 0.0
C1404 C 0.20047 0.24823 0.29757 0.0
C1405 C 0.21533 0.22183 0.31308 0.0
C1406 C 0.22538 0.18645 0.30462 0.0
C1407 C 0.22206 0.17782 0.28073 0.0
C1408 C 0.20887 0.20504 0.26553 0.0
C1409 C 0.19784 0.23946 0.27364 0.0
C1410 C 0.19029 0.26588 0.25345 0.0
C1411 C 0.14847 0.27508 0.25253 0.0
C1412 C 0.21596 0.30194 0.25489 0.0
C1413 C 0.20056 0.24169 0.23289 0.0
C1414 C 0.21048 0.20643 0.24012 0.0
C1415 C 0.22441 0.18057 0.2244 0.0
C1416 C 0.22878 0.19124 0.20076 0.0
C1417 C 0.2196 0.22757 0.19321 0.0
C1418 C 0.20455 0.25262 0.20946 0.0
H1419 H 0.82852 0.18341 0.8036 0.0
H1420 H 0.80874 0.30128 0.81537 0.0
H1421 H 0.8213 0.31529 0.77432 0.0
H1422 H 0.90246 0.1984 0.75844 0.0
H1423 H 0.88516 0.1595 0.74066 0.0
H1424 H 0.87867 0.15813 0.772 0.0
H1425 H 0.80668 0.14675 0.76602 0.0
H1426 H 0.813 0.14793 0.73471 0.0
H1427 H 0.78126 0.1792 0.74829 0.0
H1428 H 0.83158 0.31761 0.7321 0.0
H1429 H 0.83574 0.30685 0.68965 0.0
H1430 H 0.84739 0.18767 0.70251 0.0
C1431 C 0.82747 0.21221 0.79759 0.0
C1432 C 0.81846 0.24131 0.81323 0.0
C1433 C 0.81645 0.27845 0.80432 0.0
C1434 C 0.82348 0.28686 0.78079 0.0
C1435 C 0.83222 0.25785 0.76594 0.0
C1436 C 0.834 0.22118 0.77376 0.0
C1437 C 0.84116 0.19521 0.75328 0.0
C1438 C 0.87913 0.17672 0.75628 0.0
C1439 C 0.80858 0.16552 0.75041 0.0
C1440 C 0.84234 0.22308 0.73292 0.0
C1441 C 0.83755 0.25908 0.74085 0.0
C1442 C 0.83572 0.28961 0.72562 0.0
C1443 C 0.8381 0.2832 0.70151 0.0
C1444 C 0.8422 0.24652 0.69272 0.0
C1445 C 0.84502 0.21614 0.70872 0.0
H1446 H 0.76617 0.81949 0.19406 0.0
H1447 H 0.8715 0.76891 0.17824 0.0
H1448 H 0.8869 0.76589 0.22047 0.0
H1449 H 0.79994 0.87309 0.2476 0.0
H1450 H 0.756 0.86318 0.26257 0.0
H1451 H 0.7566 0.8677 0.23107 0.0
H1452 H 0.72292 0.8018 0.22748 0.0
H1453 H 0.72269 0.79684 0.25889 0.0
H1454 H 0.7438 0.76192 0.24108 0.0
H1455 H 0.88739 0.76128 0.26454 0.0
H1456 H 0.87292 0.75664 0.307 0.0
H1457 H 0.76639 0.80811 0.29395 0.0
C1458 C 0.79311 0.80932 0.19956 0.0
C1459 C 0.81814 0.79527 0.18305 0.0
C1460 C 0.85237 0.78042 0.19075 0.0
C1461 C 0.86132 0.77855 0.21468 0.0
C1462 C 0.83555 0.79139 0.23072 0.0
C1463 C 0.80223 0.80675 0.2235 0.0
C1464 C 0.77768 0.81482 0.24434 0.0
C1465 C 0.77225 0.85722 0.24652 0.0
C1466 C 0.73953 0.7925 0.24285 0.0
C1467 C 0.80186 0.80065 0.26419 0.0
C1468 C 0.83536 0.7877 0.25607 0.0
C1469 C 0.86142 0.77178 0.27116 0.0
C1470 C 0.85297 0.76911 0.2952 0.0
C1471 C 0.8186 0.78192 0.30378 0.0
C1472 C 0.79299 0.79806 0.28798 0.0
H1473 H 0.18812 0.85285 0.79783 0.0
H1474 H 0.3013 0.8189 0.81405 0.0
H1475 H 0.31325 0.81038 0.7721 0.0
H1476 H 0.16928 0.78739 0.75314 0.0
H1477 H 0.14383 0.81785 0.73405 0.0
H1478 H 0.14461 0.82588 0.76521 0.0
H1479 H 0.17087 0.89411 0.75849 0.0
H1480 H 0.1698 0.88643 0.72725 0.0
H1481 H 0.2131 0.90238 0.74146 0.0
H1482 H 0.31097 0.79732 0.73027 0.0
H1483 H 0.29719 0.78545 0.68906 0.0
H1484 H 0.18642 0.83064 0.69697 0.0
C1485 C 0.21573 0.84465 0.79245 0.0
C1486 C 0.24385 0.83668 0.80929 0.0
C1487 C 0.27933 0.82519 0.80157 0.0
C1488 C 0.28644 0.82029 0.77773 0.0
C1489 C 0.25791 0.82718 0.76168 0.0
C1490 C 0.22341 0.83957 0.7685 0.0
C1491 C 0.19726 0.84286 0.74737 0.0
C1492 C 0.16164 0.81695 0.75012 0.0
C1493 C 0.18717 0.88389 0.74341 0.0
C1494 C 0.22227 0.8294 0.72783 0.0
C1495 C 0.25707 0.82065 0.73672 0.0
C1496 C 0.28426 0.80509 0.72291 0.0
C1497 C 0.27607 0.79862 0.69928 0.0
C1498 C 0.24111 0.80818 0.68923 0.0
C1499 C 0.21374 0.82377 0.70386 0.0
H1500 H 0.69494 0.73804 0.79136 0.0
H1501 H 0.77754 0.8292 0.8051 0.0
H1502 H 0.80046 0.82494 0.76445 0.0
H1503 H 0.75255 0.68359 0.7563 0.0
H1504 H 0.71584 0.66861 0.73596 0.0
H1505 H 0.70411 0.68008 0.76568 0.0
H1506 H 0.65772 0.72902 0.75079 0.0
H1507 H 0.66865 0.71712 0.72101 0.0
H1508 H 0.67412 0.76523 0.73061 0.0
H1509 H 0.81777 0.80724 0.72306 0.0
H1510 H 0.82219 0.78376 0.6826 0.0
H1511 H 0.72719 0.70524 0.69541 0.0
C1512 C 0.71736 0.75765 0.78572 0.0
C1513 C 0.7343 0.78407 0.80151 0.0
C1514 C 0.76377 0.80898 0.79337 0.0
C1515 C 0.77724 0.80655 0.77032 0.0
C1516 C 0.76075 0.77932 0.75549 0.0
C1517 C 0.73094 0.75581 0.76272 0.0
C1518 C 0.71817 0.72897 0.74335 0.0
C1519 C 0.72296 0.68789 0.75077 0.0
C1520 C 0.67724 0.73549 0.736 0.0
C1521 C 0.74563 0.74083 0.72413 0.0
C1522 C 0.77019 0.76967 0.73156 0.0
C1523 C 0.79846 0.78487 0.71701 0.0
C1524 C 0.80093 0.77109 0.69404 0.0
C1525 C 0.77507 0.74259 0.68567 0.0
C1526 C 0.74748 0.72696 0.70118 0.0
H1527 H 0.33603 0.79577 0.20415 0.0
H1528 H 0.23233 0.84689 0.18421 0.0
H1529 H 0.212 0.84522 0.22587 0.0
H1530 H 0.29683 0.73124 0.2416 0.0
H1531 H 0.33493 0.73249 0.26266 0.0
H1532 H 0.34418 0.74457 0.23254 0.0
H1533 H 0.3739 0.80947 0.24487 0.0
H1534 H 0.3657 0.79721 0.27517 0.0
H1535 H 0.3476 0.83975 0.26325 0.0
H1536 H 0.20025 0.82917 0.27013 0.0
H1537 H 0.20087 0.80491 0.3112 0.0
H1538 H 0.31172 0.76271 0.29938 0.0
C1539 C 0.30968 0.808 0.20867 0.0
C1540 C 0.28601 0.822 0.1911 0.0
C1541 C 0.25132 0.83693 0.19755 0.0
C1542 C 0.23941 0.83569 0.22114 0.0
C1543 C 0.26275 0.81975 0.23795 0.0
C1544 C 0.29753 0.80684 0.23189 0.0
C1545 C 0.31634 0.78807 0.25232 0.0
C1546 C 0.32346 0.74666 0.24695 0.0
C1547 C 0.35305 0.80994 0.25932 0.0
C1548 C 0.28642 0.7913 0.27076 0.0
C1549 C 0.25575 0.80993 0.2625 0.0
C1550 C 0.22438 0.81489 0.27674 0.0
C1551 C 0.22481 0.80083 0.29997 0.0
C1552 C 0.25618 0.78167 0.3085 0.0
C1553 C 0.28711 0.77702 0.29352 0.0
H1554 H 0.27261 0.19965 0.71098 0.0
H1555 H 0.24414 0.31294 0.69149 0.0
H1556 H 0.24349 0.33025 0.7334 0.0
H1557 H 0.21486 0.19251 0.76308 0.0
H1558 H 0.2484 0.16591 0.77922 0.0
H1559 H 0.24585 0.1625 0.74774 0.0
H1560 H 0.3171 0.18136 0.74533 0.0
H1561 H 0.31973 0.18557 0.77678 0.0
H1562 H 0.33466 0.22477 0.75842 0.0
H1563 H 0.24703 0.33561 0.77665 0.0
H1564 H 0.24742 0.32751 0.81942 0.0
H1565 H 0.27477 0.21085 0.81165 0.0
C1566 C 0.26588 0.22805 0.7155 0.0
C1567 C 0.25841 0.25502 0.69795 0.0
C1568 C 0.24967 0.29179 0.70462 0.0
C1569 C 0.24958 0.30194 0.72835 0.0
C1570 C 0.2582 0.27496 0.7451 0.0
C1571 C 0.26565 0.23863 0.73906 0.0
C1572 C 0.27334 0.21489 0.7606 0.0
C1573 C 0.24385 0.18202 0.76279 0.0
C1574 C 0.31361 0.20083 0.76025 0.0
C1575 C 0.26894 0.2436 0.7798 0.0
C1576 C 0.26052 0.2781 0.77031 0.0
C1577 C 0.25382 0.30886 0.78427 0.0
C1578 C 0.25441 0.30401 0.80856 0.0
C1579 C 0.26187 0.26876 0.81877 0.0
C1580 C 0.27001 0.23829 0.80425 0.0
H1581 H 0.74346 0.30693 0.30064 0.0
H1582 H 0.8379 0.23688 0.31367 0.0
H1583 H 0.8394 0.22097 0.27132 0.0
H1584 H 0.69619 0.24898 0.25931 0.0
H1585 H 0.68103 0.28695 0.24108 0.0
H1586 H 0.68902 0.29437 0.27196 0.0
H1587 H 0.73652 0.35004 0.26301 0.0
H1588 H 0.72803 0.34335 0.2321 0.0
H1589 H 0.77542 0.34303 0.24358 0.0
H1590 H 0.82622 0.20906 0.22707 0.0
H1591 H 0.80571 0.20968 0.18527 0.0
H1592 H 0.72137 0.28903 0.20238 0.0
C1593 C 0.76495 0.28879 0.29453 0.0
C1594 C 0.79073 0.27331 0.3104 0.0
C1595 C 0.81826 0.24952 0.30174 0.0
C1596 C 0.81903 0.24004 0.27775 0.0
C1597 C 0.79233 0.25493 0.26266 0.0
C1598 C 0.76633 0.27945 0.27075 0.0
C1599 C 0.74066 0.2919 0.25123 0.0
C1600 C 0.69928 0.27981 0.2562 0.0
C1601 C 0.74547 0.33461 0.24724 0.0
C1602 C 0.75585 0.27032 0.23084 0.0
C1603 C 0.78542 0.2488 0.23766 0.0
C1604 C 0.80324 0.22604 0.22161 0.0
C1605 C 0.79119 0.22621 0.19796 0.0
C1606 C 0.76189 0.24926 0.19064 0.0
C1607 C 0.74386 0.27109 0.20746 0.0
loop_
_geom_bond_atom_site_label_1
_geom_bond_atom_site_label_2
_geom_bond_distance
_geom_bond_site_symmetry_2
_ccdc_geom_bond_type
Co0 N4 2.148 . S
Co0 N10 2.128 . S
Co0 N20 2.194 . S
Co0 O25 2.351 . S
Co0 O26 2.155 . S
Co0 O27 2.096 . S
C1 N4 1.301 . S
C1 N5 1.328 . S
C1 H6 0.930 . S
C2 C3 1.333 . S
C2 N4 1.317 . S
C2 H7 0.930 . S
C3 C2 1.333 . S
C3 N5 1.350 . S
C3 H29 0.931 . S
N4 Co0 2.148 . S
N4 C1 1.301 . S
N4 C2 1.317 . S
N5 C1 1.328 . S
N5 C3 1.350 . S
H6 C1 0.930 . S
H7 C2 0.930 . S
C8 O9 1.224 . S
C8 O27 1.247 . S
O9 C8 1.224 . S
N10 Co0 2.128 . S
N10 C11 1.355 . S
N10 C13 1.311 . S
C11 N10 1.355 . S
C11 C12 1.363 . S
C11 H23 0.929 . S
C12 C11 1.363 . S
C12 N14 1.375 . S
C12 H30 0.931 . S
C13 N10 1.311 . S
C13 N14 1.347 . S
C13 H24 0.929 . S
N14 C12 1.375 . S
N14 C13 1.347 . S
C15 C18 1.365 . S
C15 N20 1.328 . S
C15 H21 0.929 . S
C16 C17 1.362 . S
C16 C19 1.378 . S
C16 H31 0.929 . S
C17 C16 1.362 . S
C17 C18 1.366 . S
C18 C15 1.365 . S
C18 C17 1.366 . S
C18 H32 0.930 . S
C19 C16 1.378 . S
C19 N20 1.315 . S
C19 H22 0.930 . S
N20 Co0 2.194 . S
N20 C15 1.328 . S
N20 C19 1.315 . S
H21 C15 0.929 . S
H22 C19 0.930 . S
H23 C11 0.929 . S
H24 C13 0.929 . S
O25 Co0 2.351 . S
O25 C28 1.244 . S
O26 Co0 2.155 . S
O26 C28 1.240 . S
O27 Co0 2.096 . S
O27 C8 1.247 . S
C28 O25 1.244 . S
C28 O26 1.240 . S
H29 C3 0.931 . S
H30 C12 0.931 . S
H31 C16 0.929 . S
H32 C18 0.930 . S
Co33 N37 2.148 . S
Co33 N43 2.128 . S
Co33 N53 2.194 . S
Co33 O58 2.351 . S
Co33 O59 2.155 . S
Co33 O60 2.096 . S
C34 N37 1.301 . S
C34 N38 1.328 . S
C34 H39 0.930 . S
C35 C36 1.333 . S
C35 N37 1.317 . S
C35 H40 0.930 . S
C36 C35 1.333 . S
C36 N38 1.350 . S
C36 H62 0.931 . S
N37 Co33 2.148 . S
N37 C34 1.301 . S
N37 C35 1.317 . S
N38 C34 1.328 . S
N38 C36 1.350 . S
H39 C34 0.930 . S
H40 C35 0.930 . S
C41 O42 1.224 . S
C41 O60 1.247 . S
O42 C41 1.224 . S
N43 Co33 2.128 . S
N43 C44 1.355 . S
N43 C46 1.311 . S
C44 N43 1.355 . S
C44 C45 1.363 . S
C44 H56 0.929 . S
C45 C44 1.363 . S
C45 N47 1.375 . S
C45 H63 0.931 . S
C46 N43 1.311 . S
C46 N47 1.347 . S
C46 H57 0.929 . S
N47 C45 1.375 . S
N47 C46 1.347 . S
C48 C51 1.365 . S
C48 N53 1.328 . S
C48 H54 0.929 . S
C49 C50 1.362 . S
C49 C52 1.378 . S
C49 H64 0.929 . S
C50 C49 1.362 . S
C50 C51 1.366 . S
C51 C48 1.365 . S
C51 C50 1.366 . S
C51 H65 0.930 . S
C52 C49 1.378 . S
C52 N53 1.315 . S
C52 H55 0.930 . S
N53 Co33 2.194 . S
N53 C48 1.328 . S
N53 C52 1.315 . S
H54 C48 0.929 . S
H55 C52 0.930 . S
H56 C44 0.929 . S
H57 C46 0.929 . S
O58 Co33 2.351 . S
O58 C61 1.244 . S
O59 Co33 2.155 . S
O59 C61 1.240 . S
O60 Co33 2.096 . S
O60 C41 1.247 . S
C61 O58 1.244 . S
C61 O59 1.240 . S
H62 C36 0.931 . S
H63 C45 0.931 . S
H64 C49 0.929 . S
H65 C51 0.930 . S
Co66 N70 2.148 . S
Co66 N76 2.128 . S
Co66 N86 2.194 . S
Co66 O91 2.351 . S
Co66 O92 2.155 . S
Co66 O93 2.096 . S
C67 N70 1.301 . S
C67 N71 1.328 . S
C67 H72 0.930 . S
C68 C69 1.333 . S
C68 N70 1.317 . S
C68 H73 0.930 . S
C69 C68 1.333 . S
C69 N71 1.350 . S
C69 H95 0.931 . S
N70 Co66 2.148 . S
N70 C67 1.301 . S
N70 C68 1.317 . S
N71 C67 1.328 . S
N71 C69 1.350 . S
H72 C67 0.930 . S
H73 C68 0.930 . S
C74 O75 1.224 . S
C74 O93 1.247 . S
O75 C74 1.224 . S
N76 Co66 2.128 . S
N76 C77 1.355 . S
N76 C79 1.311 . S
C77 N76 1.355 . S
C77 C78 1.363 . S
C77 H89 0.929 . S
C78 C77 1.363 . S
C78 N80 1.375 . S
C78 H96 0.931 . S
C79 N76 1.311 . S
C79 N80 1.347 . S
C79 H90 0.929 . S
N80 C78 1.375 . S
N80 C79 1.347 . S
C81 C84 1.365 . S
C81 N86 1.328 . S
C81 H87 0.929 . S
C82 C83 1.362 . S
C82 C85 1.378 . S
C82 H97 0.929 . S
C83 C82 1.362 . S
C83 C84 1.366 . S
C84 C81 1.365 . S
C84 C83 1.366 . S
C84 H98 0.930 . S
C85 C82 1.378 . S
C85 N86 1.315 . S
C85 H88 0.930 . S
N86 Co66 2.194 . S
N86 C81 1.328 . S
N86 C85 1.315 . S
H87 C81 0.929 . S
H88 C85 0.930 . S
H89 C77 0.929 . S
H90 C79 0.929 . S
O91 Co66 2.351 . S
O91 C94 1.244 . S
O92 Co66 2.155 . S
O92 C94 1.240 . S
O93 Co66 2.096 . S
O93 C74 1.247 . S
C94 O91 1.244 . S
C94 O92 1.240 . S
H95 C69 0.931 . S
H96 C78 0.931 . S
H97 C82 0.929 . S
H98 C84 0.930 . S
Co99 N103 2.148 . S
Co99 N109 2.128 . S
Co99 N119 2.194 . S
Co99 O124 2.351 . S
Co99 O125 2.155 . S
Co99 O126 2.096 . S
C100 N103 1.301 . S
C100 N104 1.328 . S
C100 H105 0.930 . S
C101 C102 1.333 . S
C101 N103 1.317 . S
C101 H106 0.930 . S
C102 C101 1.333 . S
C102 N104 1.350 . S
C102 H128 0.931 . S
N103 Co99 2.148 . S
N103 C100 1.301 . S
N103 C101 1.317 . S
N104 C100 1.328 . S
N104 C102 1.350 . S
H105 C100 0.930 . S
H106 C101 0.930 . S
C107 O108 1.224 . S
C107 O126 1.247 . S
O108 C107 1.224 . S
N109 Co99 2.128 . S
N109 C110 1.355 . S
N109 C112 1.311 . S
C110 N109 1.355 . S
C110 C111 1.363 . S
C110 H122 0.929 . S
C111 C110 1.363 . S
C111 N113 1.375 . S
C111 H129 0.931 . S
C112 N109 1.311 . S
C112 N113 1.347 . S
C112 H123 0.929 . S
N113 C111 1.375 . S
N113 C112 1.347 . S
C114 C117 1.365 . S
C114 N119 1.328 . S
C114 H120 0.929 . S
C115 C116 1.362 . S
C115 C118 1.378 . S
C115 H130 0.929 . S
C116 C115 1.362 . S
C116 C117 1.366 . S
C117 C114 1.365 . S
C117 C116 1.366 . S
C117 H131 0.930 . S
C118 C115 1.378 . S
C118 N119 1.315 . S
C118 H121 0.930 . S
N119 Co99 2.194 . S
N119 C114 1.328 . S
N119 C118 1.315 . S
H120 C114 0.929 . S
H121 C118 0.930 . S
H122 C110 0.929 . S
H123 C112 0.929 . S
O124 Co99 2.351 . S
O124 C127 1.244 . S
O125 Co99 2.155 . S
O125 C127 1.240 . S
O126 Co99 2.096 . S
O126 C107 1.247 . S
C127 O124 1.244 . S
C127 O125 1.240 . S
H128 C102 0.931 . S
H129 C111 0.931 . S
H130 C115 0.929 . S
H131 C117 0.930 . S
Co132 N136 2.148 . S
Co132 N142 2.128 . S
Co132 N152 2.194 . S
Co132 O157 2.351 . S
Co132 O158 2.155 . S
Co132 O159 2.096 . S
C133 N136 1.301 . S
C133 N137 1.328 . S
C133 H138 0.930 . S
C134 C135 1.333 . S
C134 N136 1.317 . S
C134 H139 0.930 . S
C135 C134 1.333 . S
C135 N137 1.350 . S
C135 H161 0.931 . S
N136 Co132 2.148 . S
N136 C133 1.301 . S
N136 C134 1.317 . S
N137 C133 1.328 . S
N137 C135 1.350 . S
H138 C133 0.930 . S
H139 C134 0.930 . S
C140 O141 1.224 . S
C140 O159 1.247 . S
O141 C140 1.224 . S
N142 Co132 2.128 . S
N142 C143 1.355 . S
N142 C145 1.311 . S
C143 N142 1.355 . S
C143 C144 1.363 . S
C143 H155 0.929 . S
C144 C143 1.363 . S
C144 N146 1.375 . S
C144 H162 0.931 . S
C145 N142 1.311 . S
C145 N146 1.347 . S
C145 H156 0.929 . S
N146 C144 1.375 . S
N146 C145 1.347 . S
C147 C150 1.365 . S
C147 N152 1.328 . S
C147 H153 0.929 . S
C148 C149 1.362 . S
C148 C151 1.378 . S
C148 H163 0.929 . S
C149 C148 1.362 . S
C149 C150 1.366 . S
C150 C147 1.365 . S
C150 C149 1.366 . S
C150 H164 0.930 . S
C151 C148 1.378 . S
C151 N152 1.315 . S
C151 H154 0.930 . S
N152 Co132 2.194 . S
N152 C147 1.328 . S
N152 C151 1.315 . S
H153 C147 0.929 . S
H154 C151 0.930 . S
H155 C143 0.929 . S
H156 C145 0.929 . S
O157 Co132 2.351 . S
O157 C160 1.244 . S
O158 Co132 2.155 . S
O158 C160 1.240 . S
O159 Co132 2.096 . S
O159 C140 1.247 . S
C160 O157 1.244 . S
C160 O158 1.240 . S
H161 C135 0.931 . S
H162 C144 0.931 . S
H163 C148 0.929 . S
H164 C150 0.930 . S
Co165 N169 2.148 . S
Co165 N175 2.128 . S
Co165 N185 2.194 . S
Co165 O190 2.351 . S
Co165 O191 2.155 . S
Co165 O192 2.096 . S
C166 N169 1.301 . S
C166 N170 1.328 . S
C166 H171 0.930 . S
C167 C168 1.333 . S
C167 N169 1.317 . S
C167 H172 0.930 . S
C168 C167 1.333 . S
C168 N170 1.350 . S
C168 H194 0.931 . S
N169 Co165 2.148 . S
N169 C166 1.301 . S
N169 C167 1.317 . S
N170 C166 1.328 . S
N170 C168 1.350 . S
H171 C166 0.930 . S
H172 C167 0.930 . S
C173 O174 1.224 . S
C173 O192 1.247 . S
O174 C173 1.224 . S
N175 Co165 2.128 . S
N175 C176 1.355 . S
N175 C178 1.311 . S
C176 N175 1.355 . S
C176 C177 1.363 . S
C176 H188 0.929 . S
C177 C176 1.363 . S
C177 N179 1.375 . S
C177 H195 0.931 . S
C178 N175 1.311 . S
C178 N179 1.347 . S
C178 H189 0.929 . S
N179 C177 1.375 . S
N179 C178 1.347 . S
C180 C183 1.365 . S
C180 N185 1.328 . S
C180 H186 0.929 . S
C181 C182 1.362 . S
C181 C184 1.378 . S
C181 H196 0.929 . S
C182 C181 1.362 . S
C182 C183 1.366 . S
C183 C180 1.365 . S
C183 C182 1.366 . S
C183 H197 0.930 . S
C184 C181 1.378 . S
C184 N185 1.315 . S
C184 H187 0.930 . S
N185 Co165 2.194 . S
N185 C180 1.328 . S
N185 C184 1.315 . S
H186 C180 0.929 . S
H187 C184 0.930 . S
H188 C176 0.929 . S
H189 C178 0.929 . S
O190 Co165 2.351 . S
O190 C193 1.244 . S
O191 Co165 2.155 . S
O191 C193 1.240 . S
O192 Co165 2.096 . S
O192 C173 1.247 . S
C193 O190 1.244 . S
C193 O191 1.240 . S
H194 C168 0.931 . S
H195 C177 0.931 . S
H196 C181 0.929 . S
H197 C183 0.930 . S
Co198 N202 2.148 . S
Co198 N208 2.128 . S
Co198 N218 2.194 . S
Co198 O223 2.351 . S
Co198 O224 2.155 . S
Co198 O225 2.096 . S
C199 N202 1.301 . S
C199 N203 1.328 . S
C199 H204 0.930 . S
C200 C201 1.333 . S
C200 N202 1.317 . S
C200 H205 0.930 . S
C201 C200 1.333 . S
C201 N203 1.350 . S
C201 H227 0.931 . S
N202 Co198 2.148 . S
N202 C199 1.301 . S
N202 C200 1.317 . S
N203 C199 1.328 . S
N203 C201 1.350 . S
H204 C199 0.930 . S
H205 C200 0.930 . S
C206 O207 1.224 . S
C206 O225 1.247 . S
O207 C206 1.224 . S
N208 Co198 2.128 . S
N208 C209 1.355 . S
N208 C211 1.311 . S
C209 N208 1.355 . S
C209 C210 1.363 . S
C209 H221 0.929 . S
C210 C209 1.363 . S
C210 N212 1.375 . S
C210 H228 0.931 . S
C211 N208 1.311 . S
C211 N212 1.347 . S
C211 H222 0.929 . S
N212 C210 1.375 . S
N212 C211 1.347 . S
C213 C216 1.365 . S
C213 N218 1.328 . S
C213 H219 0.929 . S
C214 C215 1.362 . S
C214 C217 1.378 . S
C214 H229 0.929 . S
C215 C214 1.362 . S
C215 C216 1.366 . S
C216 C213 1.365 . S
C216 C215 1.366 . S
C216 H230 0.930 . S
C217 C214 1.378 . S
C217 N218 1.315 . S
C217 H220 0.930 . S
N218 Co198 2.194 . S
N218 C213 1.328 . S
N218 C217 1.315 . S
H219 C213 0.929 . S
H220 C217 0.930 . S
H221 C209 0.929 . S
H222 C211 0.929 . S
O223 Co198 2.351 . S
O223 C226 1.244 . S
O224 Co198 2.155 . S
O224 C226 1.240 . S
O225 Co198 2.096 . S
O225 C206 1.247 . S
C226 O223 1.244 . S
C226 O224 1.240 . S
H227 C201 0.931 . S
H228 C210 0.931 . S
H229 C214 0.929 . S
H230 C216 0.930 . S
Co231 N235 2.148 . S
Co231 N241 2.128 . S
Co231 N251 2.194 . S
Co231 O256 2.351 . S
Co231 O257 2.155 . S
Co231 O258 2.096 . S
C232 N235 1.301 . S
C232 N236 1.328 . S
C232 H237 0.930 . S
C233 C234 1.333 . S
C233 N235 1.317 . S
C233 H238 0.930 . S
C234 C233 1.333 . S
C234 N236 1.350 . S
C234 H260 0.931 . S
N235 Co231 2.148 . S
N235 C232 1.301 . S
N235 C233 1.317 . S
N236 C232 1.328 . S
N236 C234 1.350 . S
H237 C232 0.930 . S
H238 C233 0.930 . S
C239 O240 1.224 . S
C239 O258 1.247 . S
O240 C239 1.224 . S
N241 Co231 2.128 . S
N241 C242 1.355 . S
N241 C244 1.311 . S
C242 N241 1.355 . S
C242 C243 1.363 . S
C242 H254 0.929 . S
C243 C242 1.363 . S
C243 N245 1.375 . S
C243 H261 0.931 . S
C244 N241 1.311 . S
C244 N245 1.347 . S
C244 H255 0.929 . S
N245 C243 1.375 . S
N245 C244 1.347 . S
C246 C249 1.365 . S
C246 N251 1.328 . S
C246 H252 0.929 . S
C247 C248 1.362 . S
C247 C250 1.378 . S
C247 H262 0.929 . S
C248 C247 1.362 . S
C248 C249 1.366 . S
C249 C246 1.365 . S
C249 C248 1.366 . S
C249 H263 0.930 . S
C250 C247 1.378 . S
C250 N251 1.315 . S
C250 H253 0.930 . S
N251 Co231 2.194 . S
N251 C246 1.328 . S
N251 C250 1.315 . S
H252 C246 0.929 . S
H253 C250 0.930 . S
H254 C242 0.929 . S
H255 C244 0.929 . S
O256 Co231 2.351 . S
O256 C259 1.244 . S
O257 Co231 2.155 . S
O257 C259 1.240 . S
O258 Co231 2.096 . S
O258 C239 1.247 . S
C259 O256 1.244 . S
C259 O257 1.240 . S
H260 C234 0.931 . S
H261 C243 0.931 . S
H262 C247 0.929 . S
H263 C249 0.930 . S
Co264 N268 2.148 . S
Co264 N274 2.128 . S
Co264 N284 2.194 . S
Co264 O289 2.351 . S
Co264 O290 2.155 . S
Co264 O291 2.096 . S
C265 N268 1.301 . S
C265 N269 1.328 . S
C265 H270 0.930 . S
C266 C267 1.333 . S
C266 N268 1.317 . S
C266 H271 0.930 . S
C267 C266 1.333 . S
C267 N269 1.350 . S
C267 H293 0.931 . S
N268 Co264 2.148 . S
N268 C265 1.301 . S
N268 C266 1.317 . S
N269 C265 1.328 . S
N269 C267 1.350 . S
H270 C265 0.930 . S
H271 C266 0.930 . S
C272 O273 1.224 . S
C272 O291 1.247 . S
O273 C272 1.224 . S
N274 Co264 2.128 . S
N274 C275 1.355 . S
N274 C277 1.311 . S
C275 N274 1.355 . S
C275 C276 1.363 . S
C275 H287 0.929 . S
C276 C275 1.363 . S
C276 N278 1.375 . S
C276 H294 0.931 . S
C277 N274 1.311 . S
C277 N278 1.347 . S
C277 H288 0.929 . S
N278 C276 1.375 . S
N278 C277 1.347 . S
C279 C282 1.365 . S
C279 N284 1.328 . S
C279 H285 0.929 . S
C280 C281 1.362 . S
C280 C283 1.378 . S
C280 H295 0.929 . S
C281 C280 1.362 . S
C281 C282 1.366 . S
C282 C279 1.365 . S
C282 C281 1.366 . S
C282 H296 0.930 . S
C283 C280 1.378 . S
C283 N284 1.315 . S
C283 H286 0.930 . S
N284 Co264 2.194 . S
N284 C279 1.328 . S
N284 C283 1.315 . S
H285 C279 0.929 . S
H286 C283 0.930 . S
H287 C275 0.929 . S
H288 C277 0.929 . S
O289 Co264 2.351 . S
O289 C292 1.244 . S
O290 Co264 2.155 . S
O290 C292 1.240 . S
O291 Co264 2.096 . S
O291 C272 1.247 . S
C292 O289 1.244 . S
C292 O290 1.240 . S
H293 C267 0.931 . S
H294 C276 0.931 . S
H295 C280 0.929 . S
H296 C282 0.930 . S
Co297 N301 2.148 . S
Co297 N307 2.128 . S
Co297 N317 2.194 . S
Co297 O322 2.351 . S
Co297 O323 2.155 . S
Co297 O324 2.096 . S
C298 N301 1.301 . S
C298 N302 1.328 . S
C298 H303 0.930 . S
C299 C300 1.333 . S
C299 N301 1.317 . S
C299 H304 0.930 . S
C300 C299 1.333 . S
C300 N302 1.350 . S
C300 H326 0.931 . S
N301 Co297 2.148 . S
N301 C298 1.301 . S
N301 C299 1.317 . S
N302 C298 1.328 . S
N302 C300 1.350 . S
H303 C298 0.930 . S
H304 C299 0.930 . S
C305 O306 1.224 . S
C305 O324 1.247 . S
O306 C305 1.224 . S
N307 Co297 2.128 . S
N307 C308 1.355 . S
N307 C310 1.311 . S
C308 N307 1.355 . S
C308 C309 1.363 . S
C308 H320 0.929 . S
C309 C308 1.363 . S
C309 N311 1.375 . S
C309 H327 0.931 . S
C310 N307 1.311 . S
C310 N311 1.347 . S
C310 H321 0.929 . S
N311 C309 1.375 . S
N311 C310 1.347 . S
C312 C315 1.365 . S
C312 N317 1.328 . S
C312 H318 0.929 . S
C313 C314 1.362 . S
C313 C316 1.378 . S
C313 H328 0.929 . S
C314 C313 1.362 . S
C314 C315 1.366 . S
C315 C312 1.365 . S
C315 C314 1.366 . S
C315 H329 0.930 . S
C316 C313 1.378 . S
C316 N317 1.315 . S
C316 H319 0.930 . S
N317 Co297 2.194 . S
N317 C312 1.328 . S
N317 C316 1.315 . S
H318 C312 0.929 . S
H319 C316 0.930 . S
H320 C308 0.929 . S
H321 C310 0.929 . S
O322 Co297 2.351 . S
O322 C325 1.244 . S
O323 Co297 2.155 . S
O323 C325 1.240 . S
O324 Co297 2.096 . S
O324 C305 1.247 . S
C325 O322 1.244 . S
C325 O323 1.240 . S
H326 C300 0.931 . S
H327 C309 0.931 . S
H328 C313 0.929 . S
H329 C315 0.930 . S
Co330 N334 2.148 . S
Co330 N340 2.128 . S
Co330 N350 2.194 . S
Co330 O355 2.351 . S
Co330 O356 2.155 . S
Co330 O357 2.096 . S
C331 N334 1.301 . S
C331 N335 1.328 . S
C331 H336 0.930 . S
C332 C333 1.333 . S
C332 N334 1.317 . S
C332 H337 0.930 . S
C333 C332 1.333 . S
C333 N335 1.350 . S
C333 H359 0.931 . S
N334 Co330 2.148 . S
N334 C331 1.301 . S
N334 C332 1.317 . S
N335 C331 1.328 . S
N335 C333 1.350 . S
H336 C331 0.930 . S
H337 C332 0.930 . S
C338 O339 1.224 . S
C338 O357 1.247 . S
O339 C338 1.224 . S
N340 Co330 2.128 . S
N340 C341 1.355 . S
N340 C343 1.311 . S
C341 N340 1.355 . S
C341 C342 1.363 . S
C341 H353 0.929 . S
C342 C341 1.363 . S
C342 N344 1.375 . S
C342 H360 0.931 . S
C343 N340 1.311 . S
C343 N344 1.347 . S
C343 H354 0.929 . S
N344 C342 1.375 . S
N344 C343 1.347 . S
C345 C348 1.365 . S
C345 N350 1.328 . S
C345 H351 0.929 . S
C346 C347 1.362 . S
C346 C349 1.378 . S
C346 H361 0.929 . S
C347 C346 1.362 . S
C347 C348 1.366 . S
C348 C345 1.365 . S
C348 C347 1.366 . S
C348 H362 0.930 . S
C349 C346 1.378 . S
C349 N350 1.315 . S
C349 H352 0.930 . S
N350 Co330 2.194 . S
N350 C345 1.328 . S
N350 C349 1.315 . S
H351 C345 0.929 . S
H352 C349 0.930 . S
H353 C341 0.929 . S
H354 C343 0.929 . S
O355 Co330 2.351 . S
O355 C358 1.244 . S
O356 Co330 2.155 . S
O356 C358 1.240 . S
O357 Co330 2.096 . S
O357 C338 1.247 . S
C358 O355 1.244 . S
C358 O356 1.240 . S
H359 C333 0.931 . S
H360 C342 0.931 . S
H361 C346 0.929 . S
H362 C348 0.930 . S
Co363 N367 2.148 . S
Co363 N373 2.128 . S
Co363 N383 2.194 . S
Co363 O388 2.351 . S
Co363 O389 2.155 . S
Co363 O390 2.096 . S
C364 N367 1.301 . S
C364 N368 1.328 . S
C364 H369 0.930 . S
C365 C366 1.333 . S
C365 N367 1.317 . S
C365 H370 0.930 . S
C366 C365 1.333 . S
C366 N368 1.350 . S
C366 H392 0.931 . S
N367 Co363 2.148 . S
N367 C364 1.301 . S
N367 C365 1.317 . S
N368 C364 1.328 . S
N368 C366 1.350 . S
H369 C364 0.930 . S
H370 C365 0.930 . S
C371 O372 1.224 . S
C371 O390 1.247 . S
O372 C371 1.224 . S
N373 Co363 2.128 . S
N373 C374 1.355 . S
N373 C376 1.311 . S
C374 N373 1.355 . S
C374 C375 1.363 . S
C374 H386 0.929 . S
C375 C374 1.363 . S
C375 N377 1.375 . S
C375 H393 0.931 . S
C376 N373 1.311 . S
C376 N377 1.347 . S
C376 H387 0.929 . S
N377 C375 1.375 . S
N377 C376 1.347 . S
C378 C381 1.365 . S
C378 N383 1.328 . S
C378 H384 0.929 . S
C379 C380 1.362 . S
C379 C382 1.378 . S
C379 H394 0.929 . S
C380 C379 1.362 . S
C380 C381 1.366 . S
C381 C378 1.365 . S
C381 C380 1.366 . S
C381 H395 0.930 . S
C382 C379 1.378 . S
C382 N383 1.315 . S
C382 H385 0.930 . S
N383 Co363 2.194 . S
N383 C378 1.328 . S
N383 C382 1.315 . S
H384 C378 0.929 . S
H385 C382 0.930 . S
H386 C374 0.929 . S
H387 C376 0.929 . S
O388 Co363 2.351 . S
O388 C391 1.244 . S
O389 Co363 2.155 . S
O389 C391 1.240 . S
O390 Co363 2.096 . S
O390 C371 1.247 . S
C391 O388 1.244 . S
C391 O389 1.240 . S
H392 C366 0.931 . S
H393 C375 0.931 . S
H394 C379 0.929 . S
H395 C381 0.930 . S
Co396 N400 2.148 . S
Co396 N406 2.128 . S
Co396 N416 2.194 . S
Co396 O421 2.351 . S
Co396 O422 2.155 . S
Co396 O423 2.096 . S
C397 N400 1.301 . S
C397 N401 1.328 . S
C397 H402 0.930 . S
C398 C399 1.333 . S
C398 N400 1.317 . S
C398 H403 0.930 . S
C399 C398 1.333 . S
C399 N401 1.350 . S
C399 H425 0.931 . S
N400 Co396 2.148 . S
N400 C397 1.301 . S
N400 C398 1.317 . S
N401 C397 1.328 . S
N401 C399 1.350 . S
H402 C397 0.930 . S
H403 C398 0.930 . S
C404 O405 1.224 . S
C404 O423 1.247 . S
O405 C404 1.224 . S
N406 Co396 2.128 . S
N406 C407 1.355 . S
N406 C409 1.311 . S
C407 N406 1.355 . S
C407 C408 1.363 . S
C407 H419 0.929 . S
C408 C407 1.363 . S
C408 N410 1.375 . S
C408 H426 0.931 . S
C409 N406 1.311 . S
C409 N410 1.347 . S
C409 H420 0.929 . S
N410 C408 1.375 . S
N410 C409 1.347 . S
C411 C414 1.365 . S
C411 N416 1.328 . S
C411 H417 0.929 . S
C412 C413 1.362 . S
C412 C415 1.378 . S
C412 H427 0.929 . S
C413 C412 1.362 . S
C413 C414 1.366 . S
C414 C411 1.365 . S
C414 C413 1.366 . S
C414 H428 0.930 . S
C415 C412 1.378 . S
C415 N416 1.315 . S
C415 H418 0.930 . S
N416 Co396 2.194 . S
N416 C411 1.328 . S
N416 C415 1.315 . S
H417 C411 0.929 . S
H418 C415 0.930 . S
H419 C407 0.929 . S
H420 C409 0.929 . S
O421 Co396 2.351 . S
O421 C424 1.244 . S
O422 Co396 2.155 . S
O422 C424 1.240 . S
O423 Co396 2.096 . S
O423 C404 1.247 . S
C424 O421 1.244 . S
C424 O422 1.240 . S
H425 C399 0.931 . S
H426 C408 0.931 . S
H427 C412 0.929 . S
H428 C414 0.930 . S
Co429 N433 2.148 . S
Co429 N439 2.128 . S
Co429 N449 2.194 . S
Co429 O454 2.351 . S
Co429 O455 2.155 . S
Co429 O456 2.096 . S
C430 N433 1.301 . S
C430 N434 1.328 . S
C430 H435 0.930 . S
C431 C432 1.333 . S
C431 N433 1.317 . S
C431 H436 0.930 . S
C432 C431 1.333 . S
C432 N434 1.350 . S
C432 H458 0.931 . S
N433 Co429 2.148 . S
N433 C430 1.301 . S
N433 C431 1.317 . S
N434 C430 1.328 . S
N434 C432 1.350 . S
H435 C430 0.930 . S
H436 C431 0.930 . S
C437 O438 1.224 . S
C437 O456 1.247 . S
O438 C437 1.224 . S
N439 Co429 2.128 . S
N439 C440 1.355 . S
N439 C442 1.311 . S
C440 N439 1.355 . S
C440 C441 1.363 . S
C440 H452 0.929 . S
C441 C440 1.363 . S
C441 N443 1.375 . S
C441 H459 0.931 . S
C442 N439 1.311 . S
C442 N443 1.347 . S
C442 H453 0.929 . S
N443 C441 1.375 . S
N443 C442 1.347 . S
C444 C447 1.365 . S
C444 N449 1.328 . S
C444 H450 0.929 . S
C445 C446 1.362 . S
C445 C448 1.378 . S
C445 H460 0.929 . S
C446 C445 1.362 . S
C446 C447 1.366 . S
C447 C444 1.365 . S
C447 C446 1.366 . S
C447 H461 0.930 . S
C448 C445 1.378 . S
C448 N449 1.315 . S
C448 H451 0.930 . S
N449 Co429 2.194 . S
N449 C444 1.328 . S
N449 C448 1.315 . S
H450 C444 0.929 . S
H451 C448 0.930 . S
H452 C440 0.929 . S
H453 C442 0.929 . S
O454 Co429 2.351 . S
O454 C457 1.244 . S
O455 Co429 2.155 . S
O455 C457 1.240 . S
O456 Co429 2.096 . S
O456 C437 1.247 . S
C457 O454 1.244 . S
C457 O455 1.240 . S
H458 C432 0.931 . S
H459 C441 0.931 . S
H460 C445 0.929 . S
H461 C447 0.930 . S
Co462 N466 2.148 . S
Co462 N472 2.128 . S
Co462 N482 2.194 . S
Co462 O487 2.351 . S
Co462 O488 2.155 . S
Co462 O489 2.096 . S
C463 N466 1.301 . S
C463 N467 1.328 . S
C463 H468 0.930 . S
C464 C465 1.333 . S
C464 N466 1.317 . S
C464 H469 0.930 . S
C465 C464 1.333 . S
C465 N467 1.350 . S
C465 H491 0.931 . S
N466 Co462 2.148 . S
N466 C463 1.301 . S
N466 C464 1.317 . S
N467 C463 1.328 . S
N467 C465 1.350 . S
H468 C463 0.930 . S
H469 C464 0.930 . S
C470 O471 1.224 . S
C470 O489 1.247 . S
O471 C470 1.224 . S
N472 Co462 2.128 . S
N472 C473 1.355 . S
N472 C475 1.311 . S
C473 N472 1.355 . S
C473 C474 1.363 . S
C473 H485 0.929 . S
C474 C473 1.363 . S
C474 N476 1.375 . S
C474 H492 0.931 . S
C475 N472 1.311 . S
C475 N476 1.347 . S
C475 H486 0.929 . S
N476 C474 1.375 . S
N476 C475 1.347 . S
C477 C480 1.365 . S
C477 N482 1.328 . S
C477 H483 0.929 . S
C478 C479 1.362 . S
C478 C481 1.378 . S
C478 H493 0.929 . S
C479 C478 1.362 . S
C479 C480 1.366 . S
C480 C477 1.365 . S
C480 C479 1.366 . S
C480 H494 0.930 . S
C481 C478 1.378 . S
C481 N482 1.315 . S
C481 H484 0.930 . S
N482 Co462 2.194 . S
N482 C477 1.328 . S
N482 C481 1.315 . S
H483 C477 0.929 . S
H484 C481 0.930 . S
H485 C473 0.929 . S
H486 C475 0.929 . S
O487 Co462 2.351 . S
O487 C490 1.244 . S
O488 Co462 2.155 . S
O488 C490 1.240 . S
O489 Co462 2.096 . S
O489 C470 1.247 . S
C490 O487 1.244 . S
C490 O488 1.240 . S
H491 C465 0.931 . S
H492 C474 0.931 . S
H493 C478 0.929 . S
H494 C480 0.930 . S
Co495 N499 2.148 . S
Co495 N505 2.128 . S
Co495 N515 2.194 . S
Co495 O520 2.351 . S
Co495 O521 2.155 . S
Co495 O522 2.096 . S
C496 N499 1.301 . S
C496 N500 1.328 . S
C496 H501 0.930 . S
C497 C498 1.333 . S
C497 N499 1.317 . S
C497 H502 0.930 . S
C498 C497 1.333 . S
C498 N500 1.350 . S
C498 H524 0.931 . S
N499 Co495 2.148 . S
N499 C496 1.301 . S
N499 C497 1.317 . S
N500 C496 1.328 . S
N500 C498 1.350 . S
H501 C496 0.930 . S
H502 C497 0.930 . S
C503 O504 1.224 . S
C503 O522 1.247 . S
O504 C503 1.224 . S
N505 Co495 2.128 . S
N505 C506 1.355 . S
N505 C508 1.311 . S
C506 N505 1.355 . S
C506 C507 1.363 . S
C506 H518 0.929 . S
C507 C506 1.363 . S
C507 N509 1.375 . S
C507 H525 0.931 . S
C508 N505 1.311 . S
C508 N509 1.347 . S
C508 H519 0.929 . S
N509 C507 1.375 . S
N509 C508 1.347 . S
C510 C513 1.365 . S
C510 N515 1.328 . S
C510 H516 0.929 . S
C511 C512 1.362 . S
C511 C514 1.378 . S
C511 H526 0.929 . S
C512 C511 1.362 . S
C512 C513 1.366 . S
C513 C510 1.365 . S
C513 C512 1.366 . S
C513 H527 0.930 . S
C514 C511 1.378 . S
C514 N515 1.315 . S
C514 H517 0.930 . S
N515 Co495 2.194 . S
N515 C510 1.328 . S
N515 C514 1.315 . S
H516 C510 0.929 . S
H517 C514 0.930 . S
H518 C506 0.929 . S
H519 C508 0.929 . S
O520 Co495 2.351 . S
O520 C523 1.244 . S
O521 Co495 2.155 . S
O521 C523 1.240 . S
O522 Co495 2.096 . S
O522 C503 1.247 . S
C523 O520 1.244 . S
C523 O521 1.240 . S
H524 C498 0.931 . S
H525 C507 0.931 . S
H526 C511 0.929 . S
H527 C513 0.930 . S
H528 C540 0.930 . S
H529 C542 0.930 . S
H530 C543 0.930 . S
H531 C547 0.959 . S
H532 C547 0.959 1_455 S
H533 C547 0.961 . S
H534 C548 0.962 1_655 S
H535 C548 0.959 . S
H536 C548 0.959 . S
H537 C551 0.929 . S
H538 C552 0.931 . S
H539 C554 0.930 . S
C540 H528 0.930 . S
C540 C541 1.399 . S
C540 C545 1.399 . S
C541 C540 1.399 . S
C541 C542 1.376 . S
C542 H529 0.930 . S
C542 C541 1.376 . S
C542 C543 1.388 . S
C543 H530 0.930 . S
C543 C542 1.388 . S
C543 C544 1.390 . S
C544 C543 1.390 . S
C544 C545 1.394 . S
C544 C550 1.457 1_655 S
C545 C540 1.399 . S
C545 C544 1.394 . S
C545 C546 1.516 . S
C546 C545 1.516 . S
C546 C547 1.502 . S
C546 C548 1.562 1_655 S
C546 C549 1.526 1_655 S
C547 H531 0.959 . S
C547 H532 0.959 1_655 S
C547 H533 0.961 . S
C547 C546 1.502 . S
C548 H534 0.962 1_455 S
C548 H535 0.959 . S
C548 H536 0.959 . S
C548 C546 1.562 1_455 S
C549 C546 1.526 1_455 S
C549 C550 1.400 . S
C549 C554 1.390 . S
C550 C544 1.457 1_455 S
C550 C549 1.400 . S
C550 C551 1.403 . S
C551 H537 0.929 . S
C551 C550 1.403 . S
C551 C552 1.385 . S
C552 H538 0.931 . S
C552 C551 1.385 . S
C552 C553 1.389 . S
C553 C552 1.389 . S
C553 C554 1.387 . S
C554 H539 0.930 . S
C554 C549 1.390 . S
C554 C553 1.387 . S
H555 C567 0.930 . S
H556 C569 0.930 . S
H557 C570 0.930 . S
H558 C574 0.959 . S
H559 C574 0.959 . S
H560 C574 0.961 1_545 S
H561 C575 0.960 1_545 S
H562 C575 0.961 . S
H563 C575 0.959 . S
H564 C578 0.929 . S
H565 C579 0.931 . S
H566 C581 0.930 . S
C567 H555 0.930 . S
C567 C568 1.399 . S
C567 C572 1.399 . S
C568 C567 1.399 . S
C568 C569 1.376 . S
C569 H556 0.930 . S
C569 C568 1.376 . S
C569 C570 1.388 . S
C570 H557 0.930 . S
C570 C569 1.388 . S
C570 C571 1.390 . S
C571 C570 1.390 . S
C571 C572 1.394 . S
C571 C577 1.465 1_545 S
C572 C567 1.399 . S
C572 C571 1.394 . S
C572 C573 1.516 1_545 S
C573 C572 1.516 1_565 S
C573 C574 1.502 . S
C573 C575 1.561 . S
C573 C576 1.526 . S
C574 H558 0.959 . S
C574 H559 0.959 . S
C574 H560 0.961 1_565 S
C574 C573 1.502 . S
C575 H561 0.960 1_565 S
C575 H562 0.961 . S
C575 H563 0.959 . S
C575 C573 1.561 . S
C576 C573 1.526 . S
C576 C577 1.396 . S
C576 C581 1.390 . S
C577 C571 1.465 1_565 S
C577 C576 1.396 . S
C577 C578 1.399 . S
C578 H564 0.929 . S
C578 C577 1.399 . S
C578 C579 1.385 . S
C579 H565 0.931 . S
C579 C578 1.385 . S
C579 C580 1.389 . S
C580 C579 1.389 . S
C580 C581 1.387 . S
C581 H566 0.930 . S
C581 C576 1.390 . S
C581 C580 1.387 . S
H582 C594 0.930 . S
H583 C596 0.930 . S
H584 C597 0.930 . S
H585 C601 0.959 . S
H586 C601 0.959 . S
H587 C601 0.961 1_655 S
H588 C602 0.960 1_655 S
H589 C602 0.961 . S
H590 C602 0.959 . S
H591 C605 0.929 . S
H592 C606 0.931 . S
H593 C608 0.930 . S
C594 H582 0.930 . S
C594 C595 1.399 . S
C594 C599 1.399 . S
C595 C594 1.399 . S
C595 C596 1.376 . S
C596 H583 0.930 . S
C596 C595 1.376 . S
C596 C597 1.388 . S
C597 H584 0.930 . S
C597 C596 1.388 . S
C597 C598 1.391 1_655 S
C598 C597 1.391 1_455 S
C598 C599 1.395 1_455 S
C598 C604 1.462 . S
C599 C594 1.399 . S
C599 C598 1.395 1_655 S
C599 C600 1.516 1_655 S
C600 C599 1.516 1_455 S
C600 C601 1.502 . S
C600 C602 1.561 . S
C600 C603 1.526 . S
C601 H585 0.959 . S
C601 H586 0.959 . S
C601 H587 0.961 1_455 S
C601 C600 1.502 . S
C602 H588 0.960 1_455 S
C602 H589 0.961 . S
C602 H590 0.959 . S
C602 C600 1.561 . S
C603 C600 1.526 . S
C603 C604 1.396 . S
C603 C608 1.390 . S
C604 C598 1.462 . S
C604 C603 1.396 . S
C604 C605 1.399 . S
C605 H591 0.929 . S
C605 C604 1.399 . S
C605 C606 1.385 . S
C606 H592 0.931 . S
C606 C605 1.385 . S
C606 C607 1.389 . S
C607 C606 1.389 . S
C607 C608 1.387 . S
C608 H593 0.930 . S
C608 C603 1.390 . S
C608 C607 1.387 . S
H609 C621 0.930 . S
H610 C623 0.930 . S
H611 C624 0.930 . S
H612 C628 0.959 . S
H613 C628 0.959 . S
H614 C628 0.961 1_565 S
H615 C629 0.960 1_565 S
H616 C629 0.961 . S
H617 C629 0.959 . S
H618 C632 0.929 . S
H619 C633 0.931 . S
H620 C635 0.930 . S
C621 H609 0.930 . S
C621 C622 1.399 . S
C621 C626 1.399 . S
C622 C621 1.399 . S
C622 C623 1.376 . S
C623 H610 0.930 . S
C623 C622 1.376 . S
C623 C624 1.388 . S
C624 H611 0.930 . S
C624 C623 1.388 . S
C624 C625 1.390 . S
C625 C624 1.390 . S
C625 C626 1.394 . S
C625 C631 1.465 1_565 S
C626 C621 1.399 . S
C626 C625 1.394 . S
C626 C627 1.516 1_565 S
C627 C626 1.516 1_545 S
C627 C628 1.502 . S
C627 C629 1.561 . S
C627 C630 1.526 . S
C628 H612 0.959 . S
C628 H613 0.959 . S
C628 H614 0.961 1_545 S
C628 C627 1.502 . S
C629 H615 0.960 1_545 S
C629 H616 0.961 . S
C629 H617 0.959 . S
C629 C627 1.561 . S
C630 C627 1.526 . S
C630 C631 1.396 . S
C630 C635 1.390 . S
C631 C625 1.465 1_545 S
C631 C630 1.396 . S
C631 C632 1.399 . S
C632 H618 0.929 . S
C632 C631 1.399 . S
C632 C633 1.385 . S
C633 H619 0.931 . S
C633 C632 1.385 . S
C633 C634 1.389 . S
C634 C633 1.389 . S
C634 C635 1.387 . S
C635 H620 0.930 . S
C635 C630 1.390 . S
C635 C634 1.387 . S
H636 C648 0.930 . S
H637 C650 0.930 . S
H638 C651 0.930 . S
H639 C655 0.959 . S
H640 C655 0.959 . S
H641 C655 0.961 1_655 S
H642 C656 0.960 . S
H643 C656 0.961 1_455 S
H644 C656 0.959 . S
H645 C659 0.929 . S
H646 C660 0.931 . S
H647 C662 0.930 . S
C648 H636 0.930 . S
C648 C649 1.399 . S
C648 C653 1.399 . S
C649 C648 1.399 . S
C649 C650 1.376 . S
C650 H637 0.930 . S
C650 C649 1.376 . S
C650 C651 1.388 . S
C651 H638 0.930 . S
C651 C650 1.388 . S
C651 C652 1.390 . S
C652 C651 1.390 . S
C652 C653 1.394 . S
C652 C658 1.465 1_655 S
C653 C648 1.399 . S
C653 C652 1.394 . S
C653 C654 1.511 1_655 S
C654 C653 1.511 1_455 S
C654 C655 1.503 . S
C654 C656 1.561 1_455 S
C654 C657 1.530 . S
C655 H639 0.959 . S
C655 H640 0.959 . S
C655 H641 0.961 1_455 S
C655 C654 1.503 . S
C656 H642 0.960 . S
C656 H643 0.961 1_655 S
C656 H644 0.959 . S
C656 C654 1.561 1_655 S
C657 C654 1.530 . S
C657 C658 1.396 . S
C657 C662 1.390 . S
C658 C652 1.465 1_455 S
C658 C657 1.396 . S
C658 C659 1.399 . S
C659 H645 0.929 . S
C659 C658 1.399 . S
C659 C660 1.385 . S
C660 H646 0.931 . S
C660 C659 1.385 . S
C660 C661 1.389 . S
C661 C660 1.389 . S
C661 C662 1.387 . S
C662 H647 0.930 . S
C662 C657 1.390 . S
C662 C661 1.387 . S
H663 C675 0.930 . S
H664 C677 0.930 . S
H665 C678 0.930 . S
H666 C682 0.959 . S
H667 C682 0.959 1_545 S
H668 C682 0.961 . S
H669 C683 0.971 . S
H670 C683 0.949 1_545 S
H671 C683 0.958 1_545 S
H672 C686 0.929 . S
H673 C687 0.931 . S
H674 C689 0.930 . S
C675 H663 0.930 . S
C675 C676 1.399 . S
C675 C680 1.399 . S
C676 C675 1.399 . S
C676 C677 1.376 . S
C677 H664 0.930 . S
C677 C676 1.376 . S
C677 C678 1.388 . S
C678 H665 0.930 . S
C678 C677 1.388 . S
C678 C679 1.390 . S
C679 C678 1.390 . S
C679 C680 1.394 . S
C679 C685 1.439 1_565 S
C680 C675 1.399 . S
C680 C679 1.394 . S
C680 C681 1.516 . S
C681 C680 1.516 . S
C681 C682 1.502 . S
C681 C683 1.564 . S
C681 C684 1.526 1_565 S
C682 H666 0.959 . S
C682 H667 0.959 1_565 S
C682 H668 0.961 . S
C682 C681 1.502 . S
C683 H669 0.971 . S
C683 H670 0.949 1_565 S
C683 H671 0.958 1_565 S
C683 C681 1.564 . S
C684 C681 1.526 1_545 S
C684 C685 1.408 . S
C684 C689 1.390 . S
C685 C679 1.439 1_545 S
C685 C684 1.408 . S
C685 C686 1.413 . S
C686 H672 0.929 . S
C686 C685 1.413 . S
C686 C687 1.385 . S
C687 H673 0.931 . S
C687 C686 1.385 . S
C687 C688 1.389 . S
C688 C687 1.389 . S
C688 C689 1.387 . S
C689 H674 0.930 . S
C689 C684 1.390 . S
C689 C688 1.387 . S
H690 C702 0.930 . S
H691 C704 0.930 . S
H692 C705 0.930 . S
H693 C709 0.968 . S
H694 C709 0.981 . S
H695 C709 0.932 1_655 S
H696 C710 0.960 . S
H697 C710 0.961 1_455 S
H698 C710 0.959 . S
H699 C713 0.929 . S
H700 C714 0.931 . S
H701 C716 0.930 . S
C702 H690 0.930 . S
C702 C703 1.399 . S
C702 C707 1.399 . S
C703 C702 1.399 . S
C703 C704 1.376 . S
C704 H691 0.930 . S
C704 C703 1.376 . S
C704 C705 1.388 . S
C705 H692 0.930 . S
C705 C704 1.388 . S
C705 C706 1.390 . S
C706 C705 1.390 . S
C706 C707 1.394 . S
C706 C712 1.465 1_655 S
C707 C702 1.399 . S
C707 C706 1.394 . S
C707 C708 1.535 . S
C708 C707 1.535 . S
C708 C709 1.502 1_655 S
C708 C710 1.566 . S
C708 C711 1.503 1_655 S
C709 H693 0.968 . S
C709 H694 0.981 . S
C709 H695 0.932 1_455 S
C709 C708 1.502 1_455 S
C710 H696 0.960 . S
C710 H697 0.961 1_655 S
C710 H698 0.959 . S
C710 C708 1.566 . S
C711 C708 1.503 1_455 S
C711 C712 1.396 . S
C711 C716 1.390 . S
C712 C706 1.465 1_455 S
C712 C711 1.396 . S
C712 C713 1.399 . S
C713 H699 0.929 . S
C713 C712 1.399 . S
C713 C714 1.385 . S
C714 H700 0.931 . S
C714 C713 1.385 . S
C714 C715 1.389 . S
C715 C714 1.389 . S
C715 C716 1.387 . S
C716 H701 0.930 . S
C716 C711 1.390 . S
C716 C715 1.387 . S
H717 C729 0.930 . S
H718 C731 0.930 . S
H719 C732 0.930 . S
H720 C736 0.959 . S
H721 C736 0.959 1_565 S
H722 C736 0.961 . S
H723 C737 0.960 . S
H724 C737 0.961 . S
H725 C737 0.959 . S
H726 C740 0.929 . S
H727 C741 0.931 . S
H728 C743 0.930 . S
C729 H717 0.930 . S
C729 C730 1.399 . S
C729 C734 1.399 . S
C730 C729 1.399 . S
C730 C731 1.376 . S
C731 H718 0.930 . S
C731 C730 1.376 . S
C731 C732 1.388 . S
C732 H719 0.930 . S
C732 C731 1.388 . S
C732 C733 1.390 . S
C733 C732 1.390 . S
C733 C734 1.394 . S
C733 C739 1.465 1_545 S
C734 C729 1.399 . S
C734 C733 1.394 . S
C734 C735 1.516 . S
C735 C734 1.516 . S
C735 C736 1.502 . S
C735 C737 1.561 . S
C735 C738 1.526 1_545 S
C736 H720 0.959 . S
C736 H721 0.959 1_545 S
C736 H722 0.961 . S
C736 C735 1.502 . S
C737 H723 0.960 . S
C737 H724 0.961 . S
C737 H725 0.959 . S
C737 C735 1.561 . S
C738 C735 1.526 1_565 S
C738 C739 1.396 . S
C738 C743 1.390 . S
C739 C733 1.465 1_565 S
C739 C738 1.396 . S
C739 C740 1.399 . S
C740 H726 0.929 . S
C740 C739 1.399 . S
C740 C741 1.385 . S
C741 H727 0.931 . S
C741 C740 1.385 . S
C741 C742 1.389 . S
C742 C741 1.389 . S
C742 C743 1.387 . S
C743 H728 0.930 . S
C743 C738 1.390 . S
C743 C742 1.387 . S
H744 C756 0.930 . S
H745 C758 0.930 . S
H746 C759 0.930 . S
H747 C763 0.959 . S
H748 C763 0.959 . S
H749 C763 0.961 . S
H750 C764 0.960 . S
H751 C764 0.961 . S
H752 C764 0.959 . S
H753 C767 0.929 . S
H754 C768 0.931 . S
H755 C770 0.930 . S
C756 H744 0.930 . S
C756 C757 1.399 . S
C756 C761 1.399 . S
C757 C756 1.399 . S
C757 C758 1.376 . S
C758 H745 0.930 . S
C758 C757 1.376 . S
C758 C759 1.388 . S
C759 H746 0.930 . S
C759 C758 1.388 . S
C759 C760 1.390 . S
C760 C759 1.390 . S
C760 C761 1.394 . S
C760 C766 1.465 . S
C761 C756 1.399 . S
C761 C760 1.394 . S
C761 C762 1.516 . S
C762 C761 1.516 . S
C762 C763 1.502 . S
C762 C764 1.561 . S
C762 C765 1.526 . S
C763 H747 0.959 . S
C763 H748 0.959 . S
C763 H749 0.961 . S
C763 C762 1.502 . S
C764 H750 0.960 . S
C764 H751 0.961 . S
C764 H752 0.959 . S
C764 C762 1.561 . S
C765 C762 1.526 . S
C765 C766 1.396 . S
C765 C770 1.390 . S
C766 C760 1.465 . S
C766 C765 1.396 . S
C766 C767 1.399 . S
C767 H753 0.929 . S
C767 C766 1.399 . S
C767 C768 1.385 . S
C768 H754 0.931 . S
C768 C767 1.385 . S
C768 C769 1.389 . S
C769 C768 1.389 . S
C769 C770 1.387 . S
C770 H755 0.930 . S
C770 C765 1.390 . S
C770 C769 1.387 . S
H771 C783 0.930 . S
H772 C785 0.930 . S
H773 C786 0.930 . S
H774 C790 0.959 . S
H775 C790 0.959 . S
H776 C790 0.961 . S
H777 C791 0.960 . S
H778 C791 0.961 . S
H779 C791 0.959 . S
H780 C794 0.929 . S
H781 C795 0.931 . S
H782 C797 0.930 . S
C783 H771 0.930 . S
C783 C784 1.399 . S
C783 C788 1.399 . S
C784 C783 1.399 . S
C784 C785 1.376 . S
C785 H772 0.930 . S
C785 C784 1.376 . S
C785 C786 1.388 . S
C786 H773 0.930 . S
C786 C785 1.388 . S
C786 C787 1.390 . S
C787 C786 1.390 . S
C787 C788 1.394 . S
C787 C793 1.465 . S
C788 C783 1.399 . S
C788 C787 1.394 . S
C788 C789 1.516 . S
C789 C788 1.516 . S
C789 C790 1.502 . S
C789 C791 1.561 . S
C789 C792 1.526 . S
C790 H774 0.959 . S
C790 H775 0.959 . S
C790 H776 0.961 . S
C790 C789 1.502 . S
C791 H777 0.960 . S
C791 H778 0.961 . S
C791 H779 0.959 . S
C791 C789 1.561 . S
C792 C789 1.526 . S
C792 C793 1.396 . S
C792 C797 1.390 . S
C793 C787 1.465 . S
C793 C792 1.396 . S
C793 C794 1.399 . S
C794 H780 0.929 . S
C794 C793 1.399 . S
C794 C795 1.385 . S
C795 H781 0.931 . S
C795 C794 1.385 . S
C795 C796 1.389 . S
C796 C795 1.389 . S
C796 C797 1.387 . S
C797 H782 0.930 . S
C797 C792 1.390 . S
C797 C796 1.387 . S
H798 C810 0.930 . S
H799 C812 0.930 . S
H800 C813 0.930 . S
H801 C817 0.959 . S
H802 C817 0.959 . S
H803 C817 0.961 . S
H804 C818 0.960 . S
H805 C818 0.961 . S
H806 C818 0.959 . S
H807 C821 0.929 . S
H808 C822 0.931 . S
H809 C824 0.930 . S
C810 H798 0.930 . S
C810 C811 1.399 . S
C810 C815 1.399 . S
C811 C810 1.399 . S
C811 C812 1.376 . S
C812 H799 0.930 . S
C812 C811 1.376 . S
C812 C813 1.388 . S
C813 H800 0.930 . S
C813 C812 1.388 . S
C813 C814 1.390 . S
C814 C813 1.390 . S
C814 C815 1.394 . S
C814 C820 1.465 . S
C815 C810 1.399 . S
C815 C814 1.394 . S
C815 C816 1.516 . S
C816 C815 1.516 . S
C816 C817 1.502 . S
C816 C818 1.561 . S
C816 C819 1.526 . S
C817 H801 0.959 . S
C817 H802 0.959 . S
C817 H803 0.961 . S
C817 C816 1.502 . S
C818 H804 0.960 . S
C818 H805 0.961 . S
C818 H806 0.959 . S
C818 C816 1.561 . S
C819 C816 1.526 . S
C819 C820 1.396 . S
C819 C824 1.390 . S
C820 C814 1.465 . S
C820 C819 1.396 . S
C820 C821 1.399 . S
C821 H807 0.929 . S
C821 C820 1.399 . S
C821 C822 1.385 . S
C822 H808 0.931 . S
C822 C821 1.385 . S
C822 C823 1.389 . S
C823 C822 1.389 . S
C823 C824 1.387 . S
C824 H809 0.930 . S
C824 C819 1.390 . S
C824 C823 1.387 . S
H825 C837 0.930 . S
H826 C839 0.930 . S
H827 C840 0.930 . S
H828 C844 0.959 . S
H829 C844 0.959 . S
H830 C844 0.961 . S
H831 C845 0.960 . S
H832 C845 0.961 . S
H833 C845 0.959 . S
H834 C848 0.929 . S
H835 C849 0.931 . S
H836 C851 0.930 . S
C837 H825 0.930 . S
C837 C838 1.399 . S
C837 C842 1.399 . S
C838 C837 1.399 . S
C838 C839 1.376 . S
C839 H826 0.930 . S
C839 C838 1.376 . S
C839 C840 1.388 . S
C840 H827 0.930 . S
C840 C839 1.388 . S
C840 C841 1.390 . S
C841 C840 1.390 . S
C841 C842 1.394 . S
C841 C847 1.465 . S
C842 C837 1.399 . S
C842 C841 1.394 . S
C842 C843 1.516 . S
C843 C842 1.516 . S
C843 C844 1.502 . S
C843 C845 1.561 . S
C843 C846 1.526 . S
C844 H828 0.959 . S
C844 H829 0.959 . S
C844 H830 0.961 . S
C844 C843 1.502 . S
C845 H831 0.960 . S
C845 H832 0.961 . S
C845 H833 0.959 . S
C845 C843 1.561 . S
C846 C843 1.526 . S
C846 C847 1.396 . S
C846 C851 1.390 . S
C847 C841 1.465 . S
C847 C846 1.396 . S
C847 C848 1.399 . S
C848 H834 0.929 . S
C848 C847 1.399 . S
C848 C849 1.385 . S
C849 H835 0.931 . S
C849 C848 1.385 . S
C849 C850 1.389 . S
C850 C849 1.389 . S
C850 C851 1.387 . S
C851 H836 0.930 . S
C851 C846 1.390 . S
C851 C850 1.387 . S
H852 C864 0.930 . S
H853 C866 0.930 . S
H854 C867 0.930 . S
H855 C871 0.959 . S
H856 C871 0.959 . S
H857 C871 0.961 . S
H858 C872 0.960 . S
H859 C872 0.961 . S
H860 C872 0.959 . S
H861 C875 0.929 . S
H862 C876 0.931 . S
H863 C878 0.930 . S
C864 H852 0.930 . S
C864 C865 1.399 . S
C864 C869 1.399 . S
C865 C864 1.399 . S
C865 C866 1.376 . S
C866 H853 0.930 . S
C866 C865 1.376 . S
C866 C867 1.388 . S
C867 H854 0.930 . S
C867 C866 1.388 . S
C867 C868 1.390 . S
C868 C867 1.390 . S
C868 C869 1.394 . S
C868 C874 1.465 . S
C869 C864 1.399 . S
C869 C868 1.394 . S
C869 C870 1.516 . S
C870 C869 1.516 . S
C870 C871 1.502 . S
C870 C872 1.561 . S
C870 C873 1.526 . S
C871 H855 0.959 . S
C871 H856 0.959 . S
C871 H857 0.961 . S
C871 C870 1.502 . S
C872 H858 0.960 . S
C872 H859 0.961 . S
C872 H860 0.959 . S
C872 C870 1.561 . S
C873 C870 1.526 . S
C873 C874 1.396 . S
C873 C878 1.390 . S
C874 C868 1.465 . S
C874 C873 1.396 . S
C874 C875 1.399 . S
C875 H861 0.929 . S
C875 C874 1.399 . S
C875 C876 1.385 . S
C876 H862 0.931 . S
C876 C875 1.385 . S
C876 C877 1.389 . S
C877 C876 1.389 . S
C877 C878 1.387 . S
C878 H863 0.930 . S
C878 C873 1.390 . S
C878 C877 1.387 . S
H879 C891 0.930 . S
H880 C893 0.930 . S
H881 C894 0.930 . S
H882 C898 0.959 . S
H883 C898 0.959 . S
H884 C898 0.961 . S
H885 C899 0.960 . S
H886 C899 0.961 . S
H887 C899 0.959 . S
H888 C902 0.929 . S
H889 C903 0.931 . S
H890 C905 0.930 . S
C891 H879 0.930 . S
C891 C892 1.399 . S
C891 C896 1.399 . S
C892 C891 1.399 . S
C892 C893 1.376 . S
C893 H880 0.930 . S
C893 C892 1.376 . S
C893 C894 1.388 . S
C894 H881 0.930 . S
C894 C893 1.388 . S
C894 C895 1.390 . S
C895 C894 1.390 . S
C895 C896 1.394 . S
C895 C901 1.465 . S
C896 C891 1.399 . S
C896 C895 1.394 . S
C896 C897 1.516 . S
C897 C896 1.516 . S
C897 C898 1.502 . S
C897 C899 1.561 . S
C897 C900 1.526 . S
C898 H882 0.959 . S
C898 H883 0.959 . S
C898 H884 0.961 . S
C898 C897 1.502 . S
C899 H885 0.960 . S
C899 H886 0.961 . S
C899 H887 0.959 . S
C899 C897 1.561 . S
C900 C897 1.526 . S
C900 C901 1.396 . S
C900 C905 1.390 . S
C901 C895 1.465 . S
C901 C900 1.396 . S
C901 C902 1.399 . S
C902 H888 0.929 . S
C902 C901 1.399 . S
C902 C903 1.385 . S
C903 H889 0.931 . S
C903 C902 1.385 . S
C903 C904 1.389 . S
C904 C903 1.389 . S
C904 C905 1.387 . S
C905 H890 0.930 . S
C905 C900 1.390 . S
C905 C904 1.387 . S
H906 C918 0.930 . S
H907 C920 0.930 . S
H908 C921 0.930 . S
H909 C925 0.959 . S
H910 C925 0.959 . S
H911 C925 0.961 . S
H912 C926 0.960 . S
H913 C926 0.961 . S
H914 C926 0.959 . S
H915 C929 0.929 . S
H916 C930 0.931 . S
H917 C932 0.930 . S
C918 H906 0.930 . S
C918 C919 1.399 . S
C918 C923 1.399 . S
C919 C918 1.399 . S
C919 C920 1.376 . S
C920 H907 0.930 . S
C920 C919 1.376 . S
C920 C921 1.388 . S
C921 H908 0.930 . S
C921 C920 1.388 . S
C921 C922 1.390 . S
C922 C921 1.390 . S
C922 C923 1.394 . S
C922 C928 1.465 . S
C923 C918 1.399 . S
C923 C922 1.394 . S
C923 C924 1.516 . S
C924 C923 1.516 . S
C924 C925 1.502 . S
C924 C926 1.561 . S
C924 C927 1.526 . S
C925 H909 0.959 . S
C925 H910 0.959 . S
C925 H911 0.961 . S
C925 C924 1.502 . S
C926 H912 0.960 . S
C926 H913 0.961 . S
C926 H914 0.959 . S
C926 C924 1.561 . S
C927 C924 1.526 . S
C927 C928 1.396 . S
C927 C932 1.390 . S
C928 C922 1.465 . S
C928 C927 1.396 . S
C928 C929 1.399 . S
C929 H915 0.929 . S
C929 C928 1.399 . S
C929 C930 1.385 . S
C930 H916 0.931 . S
C930 C929 1.385 . S
C930 C931 1.389 . S
C931 C930 1.389 . S
C931 C932 1.387 . S
C932 H917 0.930 . S
C932 C927 1.390 . S
C932 C931 1.387 . S
H933 C945 0.930 . S
H934 C947 0.930 . S
H935 C948 0.930 . S
H936 C952 0.959 . S
H937 C952 0.959 . S
H938 C952 0.961 . S
H939 C953 0.960 . S
H940 C953 0.961 . S
H941 C953 0.959 . S
H942 C956 0.929 . S
H943 C957 0.931 . S
H944 C959 0.930 . S
C945 H933 0.930 . S
C945 C946 1.399 . S
C945 C950 1.399 . S
C946 C945 1.399 . S
C946 C947 1.376 . S
C947 H934 0.930 . S
C947 C946 1.376 . S
C947 C948 1.388 . S
C948 H935 0.930 . S
C948 C947 1.388 . S
C948 C949 1.390 . S
C949 C948 1.390 . S
C949 C950 1.394 . S
C949 C955 1.465 . S
C950 C945 1.399 . S
C950 C949 1.394 . S
C950 C951 1.516 . S
C951 C950 1.516 . S
C951 C952 1.502 . S
C951 C953 1.561 . S
C951 C954 1.526 . S
C952 H936 0.959 . S
C952 H937 0.959 . S
C952 H938 0.961 . S
C952 C951 1.502 . S
C953 H939 0.960 . S
C953 H940 0.961 . S
C953 H941 0.959 . S
C953 C951 1.561 . S
C954 C951 1.526 . S
C954 C955 1.396 . S
C954 C959 1.390 . S
C955 C949 1.465 . S
C955 C954 1.396 . S
C955 C956 1.399 . S
C956 H942 0.929 . S
C956 C955 1.399 . S
C956 C957 1.385 . S
C957 H943 0.931 . S
C957 C956 1.385 . S
C957 C958 1.389 . S
C958 C957 1.389 . S
C958 C959 1.387 . S
C959 H944 0.930 . S
C959 C954 1.390 . S
C959 C958 1.387 . S
H960 C972 0.930 . S
H961 C974 0.930 . S
H962 C975 0.930 . S
H963 C979 0.959 . S
H964 C979 0.959 1_556 S
H965 C979 0.961 . S
H966 C980 0.960 . S
H967 C980 0.961 1_556 S
H968 C980 0.956 1_556 S
H969 C983 0.929 . S
H970 C984 0.931 . S
H971 C986 0.930 . S
C972 H960 0.930 . S
C972 C973 1.399 . S
C972 C977 1.399 . S
C973 C972 1.399 . S
C973 C974 1.376 . S
C974 H961 0.930 . S
C974 C973 1.376 . S
C974 C975 1.388 . S
C975 H962 0.930 . S
C975 C974 1.388 . S
C975 C976 1.390 . S
C976 C975 1.390 . S
C976 C977 1.394 . S
C976 C982 1.465 1_554 S
C977 C972 1.399 . S
C977 C976 1.394 . S
C977 C978 1.516 . S
C978 C977 1.516 . S
C978 C979 1.502 . S
C978 C980 1.561 . S
C978 C981 1.526 1_554 S
C979 H963 0.959 . S
C979 H964 0.959 1_554 S
C979 H965 0.961 . S
C979 C978 1.502 . S
C980 H966 0.960 . S
C980 H967 0.961 1_554 S
C980 H968 0.956 1_554 S
C980 C978 1.561 . S
C981 C978 1.526 1_556 S
C981 C982 1.396 . S
C981 C986 1.390 . S
C982 C976 1.465 1_556 S
C982 C981 1.396 . S
C982 C983 1.399 . S
C983 H969 0.929 . S
C983 C982 1.399 . S
C983 C984 1.385 . S
C984 H970 0.931 . S
C984 C983 1.385 . S
C984 C985 1.389 . S
C985 C984 1.389 . S
C985 C986 1.387 . S
C986 H971 0.930 . S
C986 C981 1.390 . S
C986 C985 1.387 . S
H987 C999 0.930 . S
H988 C1001 0.930 . S
H989 C1002 0.930 . S
H990 C1006 0.959 . S
H991 C1006 0.959 . S
H992 C1006 0.961 . S
H993 C1007 0.960 . S
H994 C1007 0.961 . S
H995 C1007 0.959 . S
H996 C1010 0.929 . S
H997 C1011 0.931 . S
H998 C1013 0.930 . S
C999 H987 0.930 . S
C999 C1000 1.399 . S
C999 C1004 1.399 . S
C1000 C999 1.399 . S
C1000 C1001 1.376 . S
C1001 H988 0.930 . S
C1001 C1000 1.376 . S
C1001 C1002 1.388 . S
C1002 H989 0.930 . S
C1002 C1001 1.388 . S
C1002 C1003 1.390 . S
C1003 C1002 1.390 . S
C1003 C1004 1.394 . S
C1003 C1009 1.465 . S
C1004 C999 1.399 . S
C1004 C1003 1.394 . S
C1004 C1005 1.516 . S
C1005 C1004 1.516 . S
C1005 C1006 1.502 . S
C1005 C1007 1.561 . S
C1005 C1008 1.526 . S
C1006 H990 0.959 . S
C1006 H991 0.959 . S
C1006 H992 0.961 . S
C1006 C1005 1.502 . S
C1007 H993 0.960 . S
C1007 H994 0.961 . S
C1007 H995 0.959 . S
C1007 C1005 1.561 . S
C1008 C1005 1.526 . S
C1008 C1009 1.396 . S
C1008 C1013 1.390 . S
C1009 C1003 1.465 . S
C1009 C1008 1.396 . S
C1009 C1010 1.399 . S
C1010 H996 0.929 . S
C1010 C1009 1.399 . S
C1010 C1011 1.385 . S
C1011 H997 0.931 . S
C1011 C1010 1.385 . S
C1011 C1012 1.389 . S
C1012 C1011 1.389 . S
C1012 C1013 1.387 . S
C1013 H998 0.930 . S
C1013 C1008 1.390 . S
C1013 C1012 1.387 . S
H1014 C1026 0.930 . S
H1015 C1028 0.930 . S
H1016 C1029 0.930 . S
H1017 C1033 0.959 . S
H1018 C1033 0.959 1_554 S
H1019 C1033 0.961 . S
H1020 C1034 0.960 . S
H1021 C1034 0.961 1_554 S
H1022 C1034 0.959 . S
H1023 C1037 0.929 . S
H1024 C1038 0.931 . S
H1025 C1040 0.930 . S
C1026 H1014 0.930 . S
C1026 C1027 1.399 . S
C1026 C1031 1.399 . S
C1027 C1026 1.399 . S
C1027 C1028 1.376 . S
C1028 H1015 0.930 . S
C1028 C1027 1.376 . S
C1028 C1029 1.388 . S
C1029 H1016 0.930 . S
C1029 C1028 1.388 . S
C1029 C1030 1.390 . S
C1030 C1029 1.390 . S
C1030 C1031 1.394 . S
C1030 C1036 1.465 1_556 S
C1031 C1026 1.399 . S
C1031 C1030 1.394 . S
C1031 C1032 1.516 . S
C1032 C1031 1.516 . S
C1032 C1033 1.502 . S
C1032 C1034 1.561 . S
C1032 C1035 1.526 1_556 S
C1033 H1017 0.959 . S
C1033 H1018 0.959 1_556 S
C1033 H1019 0.961 . S
C1033 C1032 1.502 . S
C1034 H1020 0.960 . S
C1034 H1021 0.961 1_556 S
C1034 H1022 0.959 . S
C1034 C1032 1.561 . S
C1035 C1032 1.526 1_554 S
C1035 C1036 1.396 . S
C1035 C1040 1.390 . S
C1036 C1030 1.465 1_554 S
C1036 C1035 1.396 . S
C1036 C1037 1.399 . S
C1037 H1023 0.929 . S
C1037 C1036 1.399 . S
C1037 C1038 1.385 . S
C1038 H1024 0.931 . S
C1038 C1037 1.385 . S
C1038 C1039 1.389 . S
C1039 C1038 1.389 . S
C1039 C1040 1.387 . S
C1040 H1025 0.930 . S
C1040 C1035 1.390 . S
C1040 C1039 1.387 . S
H1041 C1053 0.930 . S
H1042 C1055 0.930 . S
H1043 C1056 0.930 . S
H1044 C1060 0.959 . S
H1045 C1060 0.959 . S
H1046 C1060 0.961 . S
H1047 C1061 0.960 . S
H1048 C1061 0.961 . S
H1049 C1061 0.959 . S
H1050 C1064 0.929 . S
H1051 C1065 0.931 . S
H1052 C1067 0.930 . S
C1053 H1041 0.930 . S
C1053 C1054 1.399 . S
C1053 C1058 1.399 . S
C1054 C1053 1.399 . S
C1054 C1055 1.376 . S
C1055 H1042 0.930 . S
C1055 C1054 1.376 . S
C1055 C1056 1.388 . S
C1056 H1043 0.930 . S
C1056 C1055 1.388 . S
C1056 C1057 1.390 . S
C1057 C1056 1.390 . S
C1057 C1058 1.394 . S
C1057 C1063 1.465 . S
C1058 C1053 1.399 . S
C1058 C1057 1.394 . S
C1058 C1059 1.516 . S
C1059 C1058 1.516 . S
C1059 C1060 1.502 . S
C1059 C1061 1.561 . S
C1059 C1062 1.526 . S
C1060 H1044 0.959 . S
C1060 H1045 0.959 . S
C1060 H1046 0.961 . S
C1060 C1059 1.502 . S
C1061 H1047 0.960 . S
C1061 H1048 0.961 . S
C1061 H1049 0.959 . S
C1061 C1059 1.561 . S
C1062 C1059 1.526 . S
C1062 C1063 1.396 . S
C1062 C1067 1.390 . S
C1063 C1057 1.465 . S
C1063 C1062 1.396 . S
C1063 C1064 1.399 . S
C1064 H1050 0.929 . S
C1064 C1063 1.399 . S
C1064 C1065 1.385 . S
C1065 H1051 0.931 . S
C1065 C1064 1.385 . S
C1065 C1066 1.389 . S
C1066 C1065 1.389 . S
C1066 C1067 1.387 . S
C1067 H1052 0.930 . S
C1067 C1062 1.390 . S
C1067 C1066 1.387 . S
H1068 C1080 0.930 . S
H1069 C1082 0.930 . S
H1070 C1083 0.930 . S
H1071 C1087 0.959 . S
H1072 C1087 0.959 . S
H1073 C1087 0.961 1_556 S
H1074 C1088 0.960 . S
H1075 C1088 0.961 1_554 S
H1076 C1088 0.959 . S
H1077 C1091 0.929 . S
H1078 C1092 0.931 . S
H1079 C1094 0.930 . S
C1080 H1068 0.930 . S
C1080 C1081 1.399 . S
C1080 C1085 1.399 . S
C1081 C1080 1.399 . S
C1081 C1082 1.376 . S
C1082 H1069 0.930 . S
C1082 C1081 1.376 . S
C1082 C1083 1.388 . S
C1083 H1070 0.930 . S
C1083 C1082 1.388 . S
C1083 C1084 1.390 . S
C1084 C1083 1.390 . S
C1084 C1085 1.394 . S
C1084 C1090 1.465 1_556 S
C1085 C1080 1.399 . S
C1085 C1084 1.394 . S
C1085 C1086 1.516 1_556 S
C1086 C1085 1.516 1_554 S
C1086 C1087 1.502 . S
C1086 C1088 1.561 1_554 S
C1086 C1089 1.526 . S
C1087 H1071 0.959 . S
C1087 H1072 0.959 . S
C1087 H1073 0.961 1_554 S
C1087 C1086 1.502 . S
C1088 H1074 0.960 . S
C1088 H1075 0.961 1_556 S
C1088 H1076 0.959 . S
C1088 C1086 1.561 1_556 S
C1089 C1086 1.526 . S
C1089 C1090 1.396 . S
C1089 C1094 1.390 . S
C1090 C1084 1.465 1_554 S
C1090 C1089 1.396 . S
C1090 C1091 1.399 . S
C1091 H1077 0.929 . S
C1091 C1090 1.399 . S
C1091 C1092 1.385 . S
C1092 H1078 0.931 . S
C1092 C1091 1.385 . S
C1092 C1093 1.389 . S
C1093 C1092 1.389 . S
C1093 C1094 1.387 . S
C1094 H1079 0.930 . S
C1094 C1089 1.390 . S
C1094 C1093 1.387 . S
H1095 C1107 0.930 . S
H1096 C1109 0.930 . S
H1097 C1110 0.930 . S
H1098 C1114 0.959 . S
H1099 C1114 0.959 . S
H1100 C1114 0.961 . S
H1101 C1115 0.960 . S
H1102 C1115 0.961 . S
H1103 C1115 0.959 . S
H1104 C1118 0.929 . S
H1105 C1119 0.931 . S
H1106 C1121 0.930 . S
C1107 H1095 0.930 . S
C1107 C1108 1.399 . S
C1107 C1112 1.399 . S
C1108 C1107 1.399 . S
C1108 C1109 1.376 . S
C1109 H1096 0.930 . S
C1109 C1108 1.376 . S
C1109 C1110 1.388 . S
C1110 H1097 0.930 . S
C1110 C1109 1.388 . S
C1110 C1111 1.390 . S
C1111 C1110 1.390 . S
C1111 C1112 1.394 . S
C1111 C1117 1.465 . S
C1112 C1107 1.399 . S
C1112 C1111 1.394 . S
C1112 C1113 1.516 . S
C1113 C1112 1.516 . S
C1113 C1114 1.502 . S
C1113 C1115 1.561 . S
C1113 C1116 1.526 . S
C1114 H1098 0.959 . S
C1114 H1099 0.959 . S
C1114 H1100 0.961 . S
C1114 C1113 1.502 . S
C1115 H1101 0.960 . S
C1115 H1102 0.961 . S
C1115 H1103 0.959 . S
C1115 C1113 1.561 . S
C1116 C1113 1.526 . S
C1116 C1117 1.396 . S
C1116 C1121 1.390 . S
C1117 C1111 1.465 . S
C1117 C1116 1.396 . S
C1117 C1118 1.399 . S
C1118 H1104 0.929 . S
C1118 C1117 1.399 . S
C1118 C1119 1.385 . S
C1119 H1105 0.931 . S
C1119 C1118 1.385 . S
C1119 C1120 1.389 . S
C1120 C1119 1.389 . S
C1120 C1121 1.387 . S
C1121 H1106 0.930 . S
C1121 C1116 1.390 . S
C1121 C1120 1.387 . S
H1122 C1134 0.930 . S
H1123 C1136 0.930 . S
H1124 C1137 0.930 . S
H1125 C1141 0.959 . S
H1126 C1141 0.959 1_556 S
H1127 C1141 0.961 . S
H1128 C1142 0.960 . S
H1129 C1142 0.961 1_556 S
H1130 C1142 0.959 . S
H1131 C1145 0.929 . S
H1132 C1146 0.931 . S
H1133 C1148 0.930 . S
C1134 H1122 0.930 . S
C1134 C1135 1.399 . S
C1134 C1139 1.399 . S
C1135 C1134 1.399 . S
C1135 C1136 1.376 . S
C1136 H1123 0.930 . S
C1136 C1135 1.376 . S
C1136 C1137 1.388 . S
C1137 H1124 0.930 . S
C1137 C1136 1.388 . S
C1137 C1138 1.390 . S
C1138 C1137 1.390 . S
C1138 C1139 1.394 . S
C1138 C1144 1.465 1_554 S
C1139 C1134 1.399 . S
C1139 C1138 1.394 . S
C1139 C1140 1.516 . S
C1140 C1139 1.516 . S
C1140 C1141 1.502 . S
C1140 C1142 1.561 . S
C1140 C1143 1.526 1_554 S
C1141 H1125 0.959 . S
C1141 H1126 0.959 1_554 S
C1141 H1127 0.961 . S
C1141 C1140 1.502 . S
C1142 H1128 0.960 . S
C1142 H1129 0.961 1_554 S
C1142 H1130 0.959 . S
C1142 C1140 1.561 . S
C1143 C1140 1.526 1_556 S
C1143 C1144 1.396 . S
C1143 C1148 1.390 . S
C1144 C1138 1.465 1_556 S
C1144 C1143 1.396 . S
C1144 C1145 1.399 . S
C1145 H1131 0.929 . S
C1145 C1144 1.399 . S
C1145 C1146 1.385 . S
C1146 H1132 0.931 . S
C1146 C1145 1.385 . S
C1146 C1147 1.389 . S
C1147 C1146 1.389 . S
C1147 C1148 1.387 . S
C1148 H1133 0.930 . S
C1148 C1143 1.390 . S
C1148 C1147 1.387 . S
H1149 C1161 0.930 . S
H1150 C1163 0.930 . S
H1151 C1164 0.930 . S
H1152 C1168 0.959 . S
H1153 C1168 0.959 . S
H1154 C1168 0.961 . S
H1155 C1169 0.960 . S
H1156 C1169 0.961 . S
H1157 C1169 0.959 . S
H1158 C1172 0.929 . S
H1159 C1173 0.931 . S
H1160 C1175 0.930 . S
C1161 H1149 0.930 . S
C1161 C1162 1.399 . S
C1161 C1166 1.399 . S
C1162 C1161 1.399 . S
C1162 C1163 1.376 . S
C1163 H1150 0.930 . S
C1163 C1162 1.376 . S
C1163 C1164 1.388 . S
C1164 H1151 0.930 . S
C1164 C1163 1.388 . S
C1164 C1165 1.390 . S
C1165 C1164 1.390 . S
C1165 C1166 1.394 . S
C1165 C1171 1.465 . S
C1166 C1161 1.399 . S
C1166 C1165 1.394 . S
C1166 C1167 1.516 . S
C1167 C1166 1.516 . S
C1167 C1168 1.502 . S
C1167 C1169 1.561 . S
C1167 C1170 1.526 . S
C1168 H1152 0.959 . S
C1168 H1153 0.959 . S
C1168 H1154 0.961 . S
C1168 C1167 1.502 . S
C1169 H1155 0.960 . S
C1169 H1156 0.961 . S
C1169 H1157 0.959 . S
C1169 C1167 1.561 . S
C1170 C1167 1.526 . S
C1170 C1171 1.396 . S
C1170 C1175 1.390 . S
C1171 C1165 1.465 . S
C1171 C1170 1.396 . S
C1171 C1172 1.399 . S
C1172 H1158 0.929 . S
C1172 C1171 1.399 . S
C1172 C1173 1.385 . S
C1173 H1159 0.931 . S
C1173 C1172 1.385 . S
C1173 C1174 1.389 . S
C1174 C1173 1.389 . S
C1174 C1175 1.387 . S
C1175 H1160 0.930 . S
C1175 C1170 1.390 . S
C1175 C1174 1.387 . S
H1176 C1188 0.930 . S
H1177 C1190 0.930 . S
H1178 C1191 0.930 . S
H1179 C1195 0.959 . S
H1180 C1195 0.959 . S
H1181 C1195 0.961 . S
H1182 C1196 0.960 . S
H1183 C1196 0.961 . S
H1184 C1196 0.959 . S
H1185 C1199 0.929 . S
H1186 C1200 0.931 . S
H1187 C1202 0.930 . S
C1188 H1176 0.930 . S
C1188 C1189 1.399 . S
C1188 C1193 1.399 . S
C1189 C1188 1.399 . S
C1189 C1190 1.376 . S
C1190 H1177 0.930 . S
C1190 C1189 1.376 . S
C1190 C1191 1.388 . S
C1191 H1178 0.930 . S
C1191 C1190 1.388 . S
C1191 C1192 1.390 . S
C1192 C1191 1.390 . S
C1192 C1193 1.394 . S
C1192 C1198 1.465 . S
C1193 C1188 1.399 . S
C1193 C1192 1.394 . S
C1193 C1194 1.516 . S
C1194 C1193 1.516 . S
C1194 C1195 1.502 . S
C1194 C1196 1.561 . S
C1194 C1197 1.526 . S
C1195 H1179 0.959 . S
C1195 H1180 0.959 . S
C1195 H1181 0.961 . S
C1195 C1194 1.502 . S
C1196 H1182 0.960 . S
C1196 H1183 0.961 . S
C1196 H1184 0.959 . S
C1196 C1194 1.561 . S
C1197 C1194 1.526 . S
C1197 C1198 1.396 . S
C1197 C1202 1.390 . S
C1198 C1192 1.465 . S
C1198 C1197 1.396 . S
C1198 C1199 1.399 . S
C1199 H1185 0.929 . S
C1199 C1198 1.399 . S
C1199 C1200 1.385 . S
C1200 H1186 0.931 . S
C1200 C1199 1.385 . S
C1200 C1201 1.389 . S
C1201 C1200 1.389 . S
C1201 C1202 1.387 . S
C1202 H1187 0.930 . S
C1202 C1197 1.390 . S
C1202 C1201 1.387 . S
H1203 C1215 0.930 . S
H1204 C1217 0.930 . S
H1205 C1218 0.930 . S
H1206 C1222 0.959 . S
H1207 C1222 0.959 . S
H1208 C1222 0.961 . S
H1209 C1223 0.960 . S
H1210 C1223 0.961 . S
H1211 C1223 0.959 . S
H1212 C1226 0.929 . S
H1213 C1227 0.931 . S
H1214 C1229 0.930 . S
C1215 H1203 0.930 . S
C1215 C1216 1.399 . S
C1215 C1220 1.399 . S
C1216 C1215 1.399 . S
C1216 C1217 1.376 . S
C1217 H1204 0.930 . S
C1217 C1216 1.376 . S
C1217 C1218 1.388 . S
C1218 H1205 0.930 . S
C1218 C1217 1.388 . S
C1218 C1219 1.390 . S
C1219 C1218 1.390 . S
C1219 C1220 1.394 . S
C1219 C1225 1.465 . S
C1220 C1215 1.399 . S
C1220 C1219 1.394 . S
C1220 C1221 1.516 . S
C1221 C1220 1.516 . S
C1221 C1222 1.502 . S
C1221 C1223 1.561 . S
C1221 C1224 1.526 . S
C1222 H1206 0.959 . S
C1222 H1207 0.959 . S
C1222 H1208 0.961 . S
C1222 C1221 1.502 . S
C1223 H1209 0.960 . S
C1223 H1210 0.961 . S
C1223 H1211 0.959 . S
C1223 C1221 1.561 . S
C1224 C1221 1.526 . S
C1224 C1225 1.396 . S
C1224 C1229 1.390 . S
C1225 C1219 1.465 . S
C1225 C1224 1.396 . S
C1225 C1226 1.399 . S
C1226 H1212 0.929 . S
C1226 C1225 1.399 . S
C1226 C1227 1.385 . S
C1227 H1213 0.931 . S
C1227 C1226 1.385 . S
C1227 C1228 1.389 . S
C1228 C1227 1.389 . S
C1228 C1229 1.387 . S
C1229 H1214 0.930 . S
C1229 C1224 1.390 . S
C1229 C1228 1.387 . S
H1230 C1242 0.930 . S
H1231 C1244 0.930 . S
H1232 C1245 0.930 . S
H1233 C1249 0.959 . S
H1234 C1249 0.959 . S
H1235 C1249 0.961 . S
H1236 C1250 0.960 . S
H1237 C1250 0.961 . S
H1238 C1250 0.959 . S
H1239 C1253 0.929 . S
H1240 C1254 0.931 . S
H1241 C1256 0.930 . S
C1242 H1230 0.930 . S
C1242 C1243 1.399 . S
C1242 C1247 1.399 . S
C1243 C1242 1.399 . S
C1243 C1244 1.376 . S
C1244 H1231 0.930 . S
C1244 C1243 1.376 . S
C1244 C1245 1.388 . S
C1245 H1232 0.930 . S
C1245 C1244 1.388 . S
C1245 C1246 1.390 . S
C1246 C1245 1.390 . S
C1246 C1247 1.394 . S
C1246 C1252 1.465 . S
C1247 C1242 1.399 . S
C1247 C1246 1.394 . S
C1247 C1248 1.516 . S
C1248 C1247 1.516 . S
C1248 C1249 1.502 . S
C1248 C1250 1.561 . S
C1248 C1251 1.526 . S
C1249 H1233 0.959 . S
C1249 H1234 0.959 . S
C1249 H1235 0.961 . S
C1249 C1248 1.502 . S
C1250 H1236 0.960 . S
C1250 H1237 0.961 . S
C1250 H1238 0.959 . S
C1250 C1248 1.561 . S
C1251 C1248 1.526 . S
C1251 C1252 1.396 . S
C1251 C1256 1.390 . S
C1252 C1246 1.465 . S
C1252 C1251 1.396 . S
C1252 C1253 1.399 . S
C1253 H1239 0.929 . S
C1253 C1252 1.399 . S
C1253 C1254 1.385 . S
C1254 H1240 0.931 . S
C1254 C1253 1.385 . S
C1254 C1255 1.389 . S
C1255 C1254 1.389 . S
C1255 C1256 1.387 . S
C1256 H1241 0.930 . S
C1256 C1251 1.390 . S
C1256 C1255 1.387 . S
H1257 C1269 0.930 . S
H1258 C1271 0.930 . S
H1259 C1272 0.930 . S
H1260 C1276 0.959 . S
H1261 C1276 0.959 . S
H1262 C1276 0.961 . S
H1263 C1277 0.960 . S
H1264 C1277 0.961 . S
H1265 C1277 0.959 . S
H1266 C1280 0.929 . S
H1267 C1281 0.931 . S
H1268 C1283 0.930 . S
C1269 H1257 0.930 . S
C1269 C1270 1.399 . S
C1269 C1274 1.399 . S
C1270 C1269 1.399 . S
C1270 C1271 1.376 . S
C1271 H1258 0.930 . S
C1271 C1270 1.376 . S
C1271 C1272 1.388 . S
C1272 H1259 0.930 . S
C1272 C1271 1.388 . S
C1272 C1273 1.390 . S
C1273 C1272 1.390 . S
C1273 C1274 1.394 . S
C1273 C1279 1.465 . S
C1274 C1269 1.399 . S
C1274 C1273 1.394 . S
C1274 C1275 1.516 . S
C1275 C1274 1.516 . S
C1275 C1276 1.502 . S
C1275 C1277 1.561 . S
C1275 C1278 1.526 . S
C1276 H1260 0.959 . S
C1276 H1261 0.959 . S
C1276 H1262 0.961 . S
C1276 C1275 1.502 . S
C1277 H1263 0.960 . S
C1277 H1264 0.961 . S
C1277 H1265 0.959 . S
C1277 C1275 1.561 . S
C1278 C1275 1.526 . S
C1278 C1279 1.396 . S
C1278 C1283 1.390 . S
C1279 C1273 1.465 . S
C1279 C1278 1.396 . S
C1279 C1280 1.399 . S
C1280 H1266 0.929 . S
C1280 C1279 1.399 . S
C1280 C1281 1.385 . S
C1281 H1267 0.931 . S
C1281 C1280 1.385 . S
C1281 C1282 1.389 . S
C1282 C1281 1.389 . S
C1282 C1283 1.387 . S
C1283 H1268 0.930 . S
C1283 C1278 1.390 . S
C1283 C1282 1.387 . S
H1284 C1296 0.930 . S
H1285 C1298 0.930 . S
H1286 C1299 0.930 . S
H1287 C1303 0.959 . S
H1288 C1303 0.959 . S
H1289 C1303 0.961 . S
H1290 C1304 0.960 . S
H1291 C1304 0.961 . S
H1292 C1304 0.959 . S
H1293 C1307 0.929 . S
H1294 C1308 0.931 . S
H1295 C1310 0.930 . S
C1296 H1284 0.930 . S
C1296 C1297 1.399 . S
C1296 C1301 1.399 . S
C1297 C1296 1.399 . S
C1297 C1298 1.376 . S
C1298 H1285 0.930 . S
C1298 C1297 1.376 . S
C1298 C1299 1.388 . S
C1299 H1286 0.930 . S
C1299 C1298 1.388 . S
C1299 C1300 1.390 . S
C1300 C1299 1.390 . S
C1300 C1301 1.394 . S
C1300 C1306 1.465 . S
C1301 C1296 1.399 . S
C1301 C1300 1.394 . S
C1301 C1302 1.516 . S
C1302 C1301 1.516 . S
C1302 C1303 1.502 . S
C1302 C1304 1.561 . S
C1302 C1305 1.526 . S
C1303 H1287 0.959 . S
C1303 H1288 0.959 . S
C1303 H1289 0.961 . S
C1303 C1302 1.502 . S
C1304 H1290 0.960 . S
C1304 H1291 0.961 . S
C1304 H1292 0.959 . S
C1304 C1302 1.561 . S
C1305 C1302 1.526 . S
C1305 C1306 1.396 . S
C1305 C1310 1.390 . S
C1306 C1300 1.465 . S
C1306 C1305 1.396 . S
C1306 C1307 1.399 . S
C1307 H1293 0.929 . S
C1307 C1306 1.399 . S
C1307 C1308 1.385 . S
C1308 H1294 0.931 . S
C1308 C1307 1.385 . S
C1308 C1309 1.389 . S
C1309 C1308 1.389 . S
C1309 C1310 1.387 . S
C1310 H1295 0.930 . S
C1310 C1305 1.390 . S
C1310 C1309 1.387 . S
H1311 C1323 0.930 . S
H1312 C1325 0.930 . S
H1313 C1326 0.930 . S
H1314 C1330 0.959 . S
H1315 C1330 0.959 . S
H1316 C1330 0.961 . S
H1317 C1331 0.960 . S
H1318 C1331 0.961 . S
H1319 C1331 0.959 . S
H1320 C1334 0.929 . S
H1321 C1335 0.931 . S
H1322 C1337 0.930 . S
C1323 H1311 0.930 . S
C1323 C1324 1.399 . S
C1323 C1328 1.399 . S
C1324 C1323 1.399 . S
C1324 C1325 1.376 . S
C1325 H1312 0.930 . S
C1325 C1324 1.376 . S
C1325 C1326 1.388 . S
C1326 H1313 0.930 . S
C1326 C1325 1.388 . S
C1326 C1327 1.390 . S
C1327 C1326 1.390 . S
C1327 C1328 1.394 . S
C1327 C1333 1.465 . S
C1328 C1323 1.399 . S
C1328 C1327 1.394 . S
C1328 C1329 1.516 . S
C1329 C1328 1.516 . S
C1329 C1330 1.502 . S
C1329 C1331 1.561 . S
C1329 C1332 1.526 . S
C1330 H1314 0.959 . S
C1330 H1315 0.959 . S
C1330 H1316 0.961 . S
C1330 C1329 1.502 . S
C1331 H1317 0.960 . S
C1331 H1318 0.961 . S
C1331 H1319 0.959 . S
C1331 C1329 1.561 . S
C1332 C1329 1.526 . S
C1332 C1333 1.396 . S
C1332 C1337 1.390 . S
C1333 C1327 1.465 . S
C1333 C1332 1.396 . S
C1333 C1334 1.399 . S
C1334 H1320 0.929 . S
C1334 C1333 1.399 . S
C1334 C1335 1.385 . S
C1335 H1321 0.931 . S
C1335 C1334 1.385 . S
C1335 C1336 1.389 . S
C1336 C1335 1.389 . S
C1336 C1337 1.387 . S
C1337 H1322 0.930 . S
C1337 C1332 1.390 . S
C1337 C1336 1.387 . S
H1338 C1350 0.930 . S
H1339 C1352 0.930 . S
H1340 C1353 0.930 . S
H1341 C1357 0.959 . S
H1342 C1357 0.959 . S
H1343 C1357 0.961 . S
H1344 C1358 0.960 . S
H1345 C1358 0.961 . S
H1346 C1358 0.959 . S
H1347 C1361 0.929 . S
H1348 C1362 0.931 . S
H1349 C1364 0.930 . S
C1350 H1338 0.930 . S
C1350 C1351 1.399 . S
C1350 C1355 1.399 . S
C1351 C1350 1.399 . S
C1351 C1352 1.376 . S
C1352 H1339 0.930 . S
C1352 C1351 1.376 . S
C1352 C1353 1.388 . S
C1353 H1340 0.930 . S
C1353 C1352 1.388 . S
C1353 C1354 1.390 . S
C1354 C1353 1.390 . S
C1354 C1355 1.394 . S
C1354 C1360 1.465 . S
C1355 C1350 1.399 . S
C1355 C1354 1.394 . S
C1355 C1356 1.516 . S
C1356 C1355 1.516 . S
C1356 C1357 1.502 . S
C1356 C1358 1.561 . S
C1356 C1359 1.526 . S
C1357 H1341 0.959 . S
C1357 H1342 0.959 . S
C1357 H1343 0.961 . S
C1357 C1356 1.502 . S
C1358 H1344 0.960 . S
C1358 H1345 0.961 . S
C1358 H1346 0.959 . S
C1358 C1356 1.561 . S
C1359 C1356 1.526 . S
C1359 C1360 1.396 . S
C1359 C1364 1.390 . S
C1360 C1354 1.465 . S
C1360 C1359 1.396 . S
C1360 C1361 1.399 . S
C1361 H1347 0.929 . S
C1361 C1360 1.399 . S
C1361 C1362 1.385 . S
C1362 H1348 0.931 . S
C1362 C1361 1.385 . S
C1362 C1363 1.389 . S
C1363 C1362 1.389 . S
C1363 C1364 1.387 . S
C1364 H1349 0.930 . S
C1364 C1359 1.390 . S
C1364 C1363 1.387 . S
H1365 C1377 0.930 . S
H1366 C1379 0.930 . S
H1367 C1380 0.930 . S
H1368 C1384 0.959 . S
H1369 C1384 0.959 . S
H1370 C1384 0.961 . S
H1371 C1385 0.960 . S
H1372 C1385 0.961 . S
H1373 C1385 0.959 . S
H1374 C1388 0.929 . S
H1375 C1389 0.931 . S
H1376 C1391 0.930 . S
C1377 H1365 0.930 . S
C1377 C1378 1.399 . S
C1377 C1382 1.399 . S
C1378 C1377 1.399 . S
C1378 C1379 1.376 . S
C1379 H1366 0.930 . S
C1379 C1378 1.376 . S
C1379 C1380 1.388 . S
C1380 H1367 0.930 . S
C1380 C1379 1.388 . S
C1380 C1381 1.390 . S
C1381 C1380 1.390 . S
C1381 C1382 1.394 . S
C1381 C1387 1.465 . S
C1382 C1377 1.399 . S
C1382 C1381 1.394 . S
C1382 C1383 1.516 . S
C1383 C1382 1.516 . S
C1383 C1384 1.502 . S
C1383 C1385 1.561 . S
C1383 C1386 1.526 . S
C1384 H1368 0.959 . S
C1384 H1369 0.959 . S
C1384 H1370 0.961 . S
C1384 C1383 1.502 . S
C1385 H1371 0.960 . S
C1385 H1372 0.961 . S
C1385 H1373 0.959 . S
C1385 C1383 1.561 . S
C1386 C1383 1.526 . S
C1386 C1387 1.396 . S
C1386 C1391 1.390 . S
C1387 C1381 1.465 . S
C1387 C1386 1.396 . S
C1387 C1388 1.399 . S
C1388 H1374 0.929 . S
C1388 C1387 1.399 . S
C1388 C1389 1.385 . S
C1389 H1375 0.931 . S
C1389 C1388 1.385 . S
C1389 C1390 1.389 . S
C1390 C1389 1.389 . S
C1390 C1391 1.387 . S
C1391 H1376 0.930 . S
C1391 C1386 1.390 . S
C1391 C1390 1.387 . S
H1392 C1404 0.930 . S
H1393 C1406 0.930 . S
H1394 C1407 0.930 . S
H1395 C1411 0.959 . S
H1396 C1411 0.959 . S
H1397 C1411 0.961 . S
H1398 C1412 0.960 . S
H1399 C1412 0.961 . S
H1400 C1412 0.959 . S
H1401 C1415 0.929 . S
H1402 C1416 0.931 . S
H1403 C1418 0.930 . S
C1404 H1392 0.930 . S
C1404 C1405 1.399 . S
C1404 C1409 1.399 . S
C1405 C1404 1.399 . S
C1405 C1406 1.376 . S
C1406 H1393 0.930 . S
C1406 C1405 1.376 . S
C1406 C1407 1.388 . S
C1407 H1394 0.930 . S
C1407 C1406 1.388 . S
C1407 C1408 1.390 . S
C1408 C1407 1.390 . S
C1408 C1409 1.394 . S
C1408 C1414 1.465 . S
C1409 C1404 1.399 . S
C1409 C1408 1.394 . S
C1409 C1410 1.516 . S
C1410 C1409 1.516 . S
C1410 C1411 1.502 . S
C1410 C1412 1.561 . S
C1410 C1413 1.526 . S
C1411 H1395 0.959 . S
C1411 H1396 0.959 . S
C1411 H1397 0.961 . S
C1411 C1410 1.502 . S
C1412 H1398 0.960 . S
C1412 H1399 0.961 . S
C1412 H1400 0.959 . S
C1412 C1410 1.561 . S
C1413 C1410 1.526 . S
C1413 C1414 1.396 . S
C1413 C1418 1.390 . S
C1414 C1408 1.465 . S
C1414 C1413 1.396 . S
C1414 C1415 1.399 . S
C1415 H1401 0.929 . S
C1415 C1414 1.399 . S
C1415 C1416 1.385 . S
C1416 H1402 0.931 . S
C1416 C1415 1.385 . S
C1416 C1417 1.389 . S
C1417 C1416 1.389 . S
C1417 C1418 1.387 . S
C1418 H1403 0.930 . S
C1418 C1413 1.390 . S
C1418 C1417 1.387 . S
H1419 C1431 0.930 . S
H1420 C1433 0.930 . S
H1421 C1434 0.930 . S
H1422 C1438 0.959 . S
H1423 C1438 0.959 . S
H1424 C1438 0.961 . S
H1425 C1439 0.960 . S
H1426 C1439 0.961 . S
H1427 C1439 0.959 . S
H1428 C1442 0.929 . S
H1429 C1443 0.931 . S
H1430 C1445 0.930 . S
C1431 H1419 0.930 . S
C1431 C1432 1.399 . S
C1431 C1436 1.399 . S
C1432 C1431 1.399 . S
C1432 C1433 1.376 . S
C1433 H1420 0.930 . S
C1433 C1432 1.376 . S
C1433 C1434 1.388 . S
C1434 H1421 0.930 . S
C1434 C1433 1.388 . S
C1434 C1435 1.390 . S
C1435 C1434 1.390 . S
C1435 C1436 1.394 . S
C1435 C1441 1.465 . S
C1436 C1431 1.399 . S
C1436 C1435 1.394 . S
C1436 C1437 1.516 . S
C1437 C1436 1.516 . S
C1437 C1438 1.502 . S
C1437 C1439 1.561 . S
C1437 C1440 1.526 . S
C1438 H1422 0.959 . S
C1438 H1423 0.959 . S
C1438 H1424 0.961 . S
C1438 C1437 1.502 . S
C1439 H1425 0.960 . S
C1439 H1426 0.961 . S
C1439 H1427 0.959 . S
C1439 C1437 1.561 . S
C1440 C1437 1.526 . S
C1440 C1441 1.396 . S
C1440 C1445 1.390 . S
C1441 C1435 1.465 . S
C1441 C1440 1.396 . S
C1441 C1442 1.399 . S
C1442 H1428 0.929 . S
C1442 C1441 1.399 . S
C1442 C1443 1.385 . S
C1443 H1429 0.931 . S
C1443 C1442 1.385 . S
C1443 C1444 1.389 . S
C1444 C1443 1.389 . S
C1444 C1445 1.387 . S
C1445 H1430 0.930 . S
C1445 C1440 1.390 . S
C1445 C1444 1.387 . S
H1446 C1458 0.930 . S
H1447 C1460 0.930 . S
H1448 C1461 0.930 . S
H1449 C1465 0.959 . S
H1450 C1465 0.959 . S
H1451 C1465 0.961 . S
H1452 C1466 0.960 . S
H1453 C1466 0.961 . S
H1454 C1466 0.959 . S
H1455 C1469 0.929 . S
H1456 C1470 0.931 . S
H1457 C1472 0.930 . S
C1458 H1446 0.930 . S
C1458 C1459 1.399 . S
C1458 C1463 1.399 . S
C1459 C1458 1.399 . S
C1459 C1460 1.376 . S
C1460 H1447 0.930 . S
C1460 C1459 1.376 . S
C1460 C1461 1.388 . S
C1461 H1448 0.930 . S
C1461 C1460 1.388 . S
C1461 C1462 1.390 . S
C1462 C1461 1.390 . S
C1462 C1463 1.394 . S
C1462 C1468 1.465 . S
C1463 C1458 1.399 . S
C1463 C1462 1.394 . S
C1463 C1464 1.516 . S
C1464 C1463 1.516 . S
C1464 C1465 1.502 . S
C1464 C1466 1.561 . S
C1464 C1467 1.526 . S
C1465 H1449 0.959 . S
C1465 H1450 0.959 . S
C1465 H1451 0.961 . S
C1465 C1464 1.502 . S
C1466 H1452 0.960 . S
C1466 H1453 0.961 . S
C1466 H1454 0.959 . S
C1466 C1464 1.561 . S
C1467 C1464 1.526 . S
C1467 C1468 1.396 . S
C1467 C1472 1.390 . S
C1468 C1462 1.465 . S
C1468 C1467 1.396 . S
C1468 C1469 1.399 . S
C1469 H1455 0.929 . S
C1469 C1468 1.399 . S
C1469 C1470 1.385 . S
C1470 H1456 0.931 . S
C1470 C1469 1.385 . S
C1470 C1471 1.389 . S
C1471 C1470 1.389 . S
C1471 C1472 1.387 . S
C1472 H1457 0.930 . S
C1472 C1467 1.390 . S
C1472 C1471 1.387 . S
H1473 C1485 0.930 . S
H1474 C1487 0.930 . S
H1475 C1488 0.930 . S
H1476 C1492 0.959 . S
H1477 C1492 0.959 . S
H1478 C1492 0.961 . S
H1479 C1493 0.960 . S
H1480 C1493 0.961 . S
H1481 C1493 0.959 . S
H1482 C1496 0.929 . S
H1483 C1497 0.931 . S
H1484 C1499 0.930 . S
C1485 H1473 0.930 . S
C1485 C1486 1.399 . S
C1485 C1490 1.399 . S
C1486 C1485 1.399 . S
C1486 C1487 1.376 . S
C1487 H1474 0.930 . S
C1487 C1486 1.376 . S
C1487 C1488 1.388 . S
C1488 H1475 0.930 . S
C1488 C1487 1.388 . S
C1488 C1489 1.390 . S
C1489 C1488 1.390 . S
C1489 C1490 1.394 . S
C1489 C1495 1.465 . S
C1490 C1485 1.399 . S
C1490 C1489 1.394 . S
C1490 C1491 1.516 . S
C1491 C1490 1.516 . S
C1491 C1492 1.502 . S
C1491 C1493 1.561 . S
C1491 C1494 1.526 . S
C1492 H1476 0.959 . S
C1492 H1477 0.959 . S
C1492 H1478 0.961 . S
C1492 C1491 1.502 . S
C1493 H1479 0.960 . S
C1493 H1480 0.961 . S
C1493 H1481 0.959 . S
C1493 C1491 1.561 . S
C1494 C1491 1.526 . S
C1494 C1495 1.396 . S
C1494 C1499 1.390 . S
C1495 C1489 1.465 . S
C1495 C1494 1.396 . S
C1495 C1496 1.399 . S
C1496 H1482 0.929 . S
C1496 C1495 1.399 . S
C1496 C1497 1.385 . S
C1497 H1483 0.931 . S
C1497 C1496 1.385 . S
C1497 C1498 1.389 . S
C1498 C1497 1.389 . S
C1498 C1499 1.387 . S
C1499 H1484 0.930 . S
C1499 C1494 1.390 . S
C1499 C1498 1.387 . S
H1500 C1512 0.930 . S
H1501 C1514 0.930 . S
H1502 C1515 0.930 . S
H1503 C1519 0.959 . S
H1504 C1519 0.959 . S
H1505 C1519 0.961 . S
H1506 C1520 0.960 . S
H1507 C1520 0.961 . S
H1508 C1520 0.959 . S
H1509 C1523 0.929 . S
H1510 C1524 0.931 . S
H1511 C1526 0.930 . S
C1512 H1500 0.930 . S
C1512 C1513 1.399 . S
C1512 C1517 1.399 . S
C1513 C1512 1.399 . S
C1513 C1514 1.376 . S
C1514 H1501 0.930 . S
C1514 C1513 1.376 . S
C1514 C1515 1.388 . S
C1515 H1502 0.930 . S
C1515 C1514 1.388 . S
C1515 C1516 1.390 . S
C1516 C1515 1.390 . S
C1516 C1517 1.394 . S
C1516 C1522 1.465 . S
C1517 C1512 1.399 . S
C1517 C1516 1.394 . S
C1517 C1518 1.516 . S
C1518 C1517 1.516 . S
C1518 C1519 1.502 . S
C1518 C1520 1.561 . S
C1518 C1521 1.526 . S
C1519 H1503 0.959 . S
C1519 H1504 0.959 . S
C1519 H1505 0.961 . S
C1519 C1518 1.502 . S
C1520 H1506 0.960 . S
C1520 H1507 0.961 . S
C1520 H1508 0.959 . S
C1520 C1518 1.561 . S
C1521 C1518 1.526 . S
C1521 C1522 1.396 . S
C1521 C1526 1.390 . S
C1522 C1516 1.465 . S
C1522 C1521 1.396 . S
C1522 C1523 1.399 . S
C1523 H1509 0.929 . S
C1523 C1522 1.399 . S
C1523 C1524 1.385 . S
C1524 H1510 0.931 . S
C1524 C1523 1.385 . S
C1524 C1525 1.389 . S
C1525 C1524 1.389 . S
C1525 C1526 1.387 . S
C1526 H1511 0.930 . S
C1526 C1521 1.390 . S
C1526 C1525 1.387 . S
H1527 C1539 0.930 . S
H1528 C1541 0.930 . S
H1529 C1542 0.930 . S
H1530 C1546 0.959 . S
H1531 C1546 0.959 . S
H1532 C1546 0.961 . S
H1533 C1547 0.960 . S
H1534 C1547 0.961 . S
H1535 C1547 0.959 . S
H1536 C1550 0.929 . S
H1537 C1551 0.931 . S
H1538 C1553 0.930 . S
C1539 H1527 0.930 . S
C1539 C1540 1.399 . S
C1539 C1544 1.399 . S
C1540 C1539 1.399 . S
C1540 C1541 1.376 . S
C1541 H1528 0.930 . S
C1541 C1540 1.376 . S
C1541 C1542 1.388 . S
C1542 H1529 0.930 . S
C1542 C1541 1.388 . S
C1542 C1543 1.390 . S
C1543 C1542 1.390 . S
C1543 C1544 1.394 . S
C1543 C1549 1.465 . S
C1544 C1539 1.399 . S
C1544 C1543 1.394 . S
C1544 C1545 1.516 . S
C1545 C1544 1.516 . S
C1545 C1546 1.502 . S
C1545 C1547 1.561 . S
C1545 C1548 1.526 . S
C1546 H1530 0.959 . S
C1546 H1531 0.959 . S
C1546 H1532 0.961 . S
C1546 C1545 1.502 . S
C1547 H1533 0.960 . S
C1547 H1534 0.961 . S
C1547 H1535 0.959 . S
C1547 C1545 1.561 . S
C1548 C1545 1.526 . S
C1548 C1549 1.396 . S
C1548 C1553 1.390 . S
C1549 C1543 1.465 . S
C1549 C1548 1.396 . S
C1549 C1550 1.399 . S
C1550 H1536 0.929 . S
C1550 C1549 1.399 . S
C1550 C1551 1.385 . S
C1551 H1537 0.931 . S
C1551 C1550 1.385 . S
C1551 C1552 1.389 . S
C1552 C1551 1.389 . S
C1552 C1553 1.387 . S
C1553 H1538 0.930 . S
C1553 C1548 1.390 . S
C1553 C1552 1.387 . S
H1554 C1566 0.930 . S
H1555 C1568 0.930 . S
H1556 C1569 0.930 . S
H1557 C1573 0.959 . S
H1558 C1573 0.959 . S
H1559 C1573 0.961 . S
H1560 C1574 0.960 . S
H1561 C1574 0.961 . S
H1562 C1574 0.959 . S
H1563 C1577 0.929 . S
H1564 C1578 0.931 . S
H1565 C1580 0.930 . S
C1566 H1554 0.930 . S
C1566 C1567 1.399 . S
C1566 C1571 1.399 . S
C1567 C1566 1.399 . S
C1567 C1568 1.376 . S
C1568 H1555 0.930 . S
C1568 C1567 1.376 . S
C1568 C1569 1.388 . S
C1569 H1556 0.930 . S
C1569 C1568 1.388 . S
C1569 C1570 1.390 . S
C1570 C1569 1.390 . S
C1570 C1571 1.394 . S
C1570 C1576 1.465 . S
C1571 C1566 1.399 . S
C1571 C1570 1.394 . S
C1571 C1572 1.516 . S
C1572 C1571 1.516 . S
C1572 C1573 1.502 . S
C1572 C1574 1.561 . S
C1572 C1575 1.526 . S
C1573 H1557 0.959 . S
C1573 H1558 0.959 . S
C1573 H1559 0.961 . S
C1573 C1572 1.502 . S
C1574 H1560 0.960 . S
C1574 H1561 0.961 . S
C1574 H1562 0.959 . S
C1574 C1572 1.561 . S
C1575 C1572 1.526 . S
C1575 C1576 1.396 . S
C1575 C1580 1.390 . S
C1576 C1570 1.465 . S
C1576 C1575 1.396 . S
C1576 C1577 1.399 . S
C1577 H1563 0.929 . S
C1577 C1576 1.399 . S
C1577 C1578 1.385 . S
C1578 H1564 0.931 . S
C1578 C1577 1.385 . S
C1578 C1579 1.389 . S
C1579 C1578 1.389 . S
C1579 C1580 1.387 . S
C1580 H1565 0.930 . S
C1580 C1575 1.390 . S
C1580 C1579 1.387 . S
H1581 C1593 0.930 . S
H1582 C1595 0.930 . S
H1583 C1596 0.930 . S
H1584 C1600 0.959 . S
H1585 C1600 0.959 . S
H1586 C1600 0.961 . S
H1587 C1601 0.960 . S
H1588 C1601 0.961 . S
H1589 C1601 0.959 . S
H1590 C1604 0.929 . S
H1591 C1605 0.931 . S
H1592 C1607 0.930 . S
C1593 H1581 0.930 . S
C1593 C1594 1.399 . S
C1593 C1598 1.399 . S
C1594 C1593 1.399 . S
C1594 C1595 1.376 . S
C1595 H1582 0.930 . S
C1595 C1594 1.376 . S
C1595 C1596 1.388 . S
C1596 H1583 0.930 . S
C1596 C1595 1.388 . S
C1596 C1597 1.390 . S
C1597 C1596 1.390 . S
C1597 C1598 1.394 . S
C1597 C1603 1.465 . S
C1598 C1593 1.399 . S
C1598 C1597 1.394 . S
C1598 C1599 1.516 . S
C1599 C1598 1.516 . S
C1599 C1600 1.502 . S
C1599 C1601 1.561 . S
C1599 C1602 1.526 . S
C1600 H1584 0.959 . S
C1600 H1585 0.959 . S
C1600 H1586 0.961 . S
C1600 C1599 1.502 . S
C1601 H1587 0.960 . S
C1601 H1588 0.961 . S
C1601 H1589 0.959 . S
C1601 C1599 1.561 . S
C1602 C1599 1.526 . S
C1602 C1603 1.396 . S
C1602 C1607 1.390 . S
C1603 C1597 1.465 . S
C1603 C1602 1.396 . S
C1603 C1604 1.399 . S
C1604 H1590 0.929 . S
C1604 C1603 1.399 . S
C1604 C1605 1.385 . S
C1605 H1591 0.931 . S
C1605 C1604 1.385 . S
C1605 C1606 1.389 . S
C1606 C1605 1.389 . S
C1606 C1607 1.387 . S
C1607 H1592 0.930 . S
C1607 C1602 1.390 . S
C1607 C1606 1.387 . S
C541 N410 1.413 . S
C553 N5 1.485 . S
C568 N47 1.380 . S
C580 N434 1.482 . S
C595 N71 1.479 . S
C607 N476 1.419 . S
C622 N113 1.383 . S
C634 N500 1.483 . S
C649 N269 1.414 . S
C661 N146 1.450 . S
C676 N311 1.412 . S
C688 N170 1.487 . S
C703 N212 1.423 . S
C715 N335 1.438 . S
C730 N377 1.484 . S
C742 N236 1.413 . S
C757 C17 1.084 . S
C769 C479 1.075 . S
C784 C512 1.050 . S
C796 C50 1.082 . S
C811 C413 1.088 . S
C823 C83 1.078 . S
C838 C446 1.050 . S
C850 C116 1.065 . S
C865 C347 1.077 . S
C877 C149 1.060 . S
C892 C380 1.075 . S
C904 C182 1.084 . S
C919 C281 1.078 . S
C931 C215 1.057 . S
C946 C314 1.073 . S
C958 C248 1.085 . S
C973 C8 1.270 . S
C985 C358 1.290 . S
C1000 C371 1.318 . S
C1012 C61 1.306 . S
C1027 C292 1.235 . S
C1039 C74 1.175 . S
C1054 C305 1.271 . S
C1066 C127 1.226 . S
C1081 C160 1.250 . S
C1093 C470 1.273 . S
C1108 C173 1.256 . S
C1120 C523 1.293 . S
C1135 C404 1.258 . S
C1147 C226 1.226 . S
C1162 C239 1.181 . S
C1174 C457 1.238 . S
C1189 N401 1.845 . S
C1201 N14 1.776 . S
C1216 N38 1.816 . S
C1228 N443 1.863 . S
C1243 N80 1.794 . S
C1255 N467 1.825 . S
C1270 N509 1.846 . S
C1282 N104 1.822 . S
C1297 N278 1.856 . S
C1309 N137 1.814 . S
C1324 N179 1.840 . S
C1336 N302 1.801 . S
C1351 N344 1.843 . S
C1363 N203 1.825 . S
C1378 N368 1.830 . S
C1390 N245 1.789 . S
C1405 C193 1.436 . S
C1417 C28 1.504 . S
C1432 C206 1.415 . S
C1444 C41 1.378 . S
C1459 C94 1.432 . S
C1471 C259 1.452 . S
C1486 C140 1.389 . S
C1498 C107 1.398 . S
C1513 C272 1.304 . S
C1525 C437 1.203 . S
C1540 C490 1.242 . S
C1552 C325 1.344 . S
C1567 C503 1.225 . S
C1579 C338 1.208 . S
C1594 C391 1.326 . S
C1606 C424 1.322 . S
