# Generated by pormake.
# Topology ttw, (5)-cn, num edge types: 1
# Building blocks:
#     Node 0, Type 0, BuildingBlock: XOMCOT_clean_sbu_1, # of connection points: 5
#     Node 1, Type 0, BuildingBlock: XOMCOT_clean_sbu_1, # of connection points: 5
#     Node 2, Type 0, BuildingBlock: XOMCOT_clean_sbu_1, # of connection points: 5
#     Node 3, Type 0, BuildingBlock: XOMCOT_clean_sbu_1, # of connection points: 5
#     Node 4, Type 0, BuildingBlock: XOMCOT_clean_sbu_1, # of connection points: 5
#     Node 5, Type 0, BuildingBlock: XOMCOT_clean_sbu_1, # of connection points: 5
#     Edge 6, Type (0, 0), BuildingBlock: XUDNAN_clean_linker_2, # of connection points: 2
#     Edge 7, Type (0, 0), BuildingBlock: XUDNAN_clean_linker_2, # of connection points: 2
#     Edge 8, Type (0, 0), BuildingBlock: XUDNAN_clean_linker_2, # of connection points: 2
#     Edge 9, Type (0, 0), BuildingBlock: XUDNAN_clean_linker_2, # of connection points: 2
#     Edge 10, Type (0, 0), BuildingBlock: XUDNAN_clean_linker_2, # of connection points: 2
#     Edge 11, Type (0, 0), BuildingBlock: XUDNAN_clean_linker_2, # of connection points: 2
#     Edge 12, Type (0, 0), BuildingBlock: XUDNAN_clean_linker_2, # of connection points: 2
#     Edge 13, Type (0, 0), BuildingBlock: XUDNAN_clean_linker_2, # of connection points: 2
#     Edge 14, Type (0, 0), BuildingBlock: XUDNAN_clean_linker_2, # of connection points: 2
#     Edge 15, Type (0, 0), BuildingBlock: XUDNAN_clean_linker_2, # of connection points: 2
#     Edge 16, Type (0, 0), BuildingBlock: XUDNAN_clean_linker_2, # of connection points: 2
#     Edge 17, Type (0, 0), BuildingBlock: XUDNAN_clean_linker_2, # of connection points: 2
#     Edge 18, Type (0, 0), BuildingBlock: XUDNAN_clean_linker_2, # of connection points: 2
#     Edge 19, Type (0, 0), BuildingBlock: XUDNAN_clean_linker_2, # of connection points: 2
#     Edge 20, Type (0, 0), BuildingBlock: XUDNAN_clean_linker_2, # of connection points: 2
# Relax obj value: 0.323
# Max RMSD: 0.299
# Mean RMSD: 0.265
data_MOF--net-ttw--node1-XOMCOT_clean_sbu_1--edge1-XUDNAN_clean_linker_2
_symmetry_space_group_name_H-M    P1
_symmetry_Int_Tables_number       1
_symmetry_cell_setting            triclinic
loop_
_symmetry_equiv_pos_as_xyz
'x, y, z'
_cell_length_a     55.089891
_cell_length_b     55.458051
_cell_length_c     17.63092
_cell_angle_alpha  94.35207
_cell_angle_beta   94.20299
_cell_angle_gamma 120.56794
loop_
_atom_site_label
_atom_site_type_symbol
_atom_site_fract_x
_atom_site_fract_y
_atom_site_fract_z
_atom_type_partial_charge
C0 C 0.1136 0.55433 0.98027 0.0
C1 C 0.10963 0.55649 0.90386 0.0
N2 N 0.13445 0.57669 0.88447 0.0
N3 N 0.1407 0.57339 1.01 0.0
C4 C 0.15308 0.58663 0.94977 0.0
H5 H 0.09765 0.53968 1.0124 0.0
Co6 Co 0.15356 0.57654 0.11393 0.0
C7 C 0.19982 0.63591 0.16212 0.0
O8 O 0.21264 0.62775 0.21049 0.0
N9 N 0.16554 0.57856 0.22115 0.0
C10 C 0.181 0.57026 0.33124 0.0
C11 C 0.17913 0.56641 0.25269 0.0
C12 C 0.15976 0.59 0.28327 0.0
N13 N 0.16857 0.58492 0.35092 0.0
O14 O 0.12303 0.58146 0.14012 0.0
H15 H 0.18674 0.55463 0.22182 0.0
H16 H 0.14878 0.60148 0.27893 0.0
O17 O 0.17714 0.61751 0.11859 0.0
C18 C 0.10237 0.56376 0.17212 0.0
O19 O 0.10244 0.54179 0.1949 0.0
N20 N 0.18208 0.57004 0.08363 0.0
C21 C 0.21949 0.55313 0.0409 0.0
C22 C 0.2266 0.58124 0.04071 0.0
C23 C 0.20749 0.58926 0.0617 0.0
C24 C 0.17382 0.54216 0.0771 0.0
C25 C 0.19249 0.53332 0.05788 0.0
H26 H 0.21326 0.61084 0.05915 0.0
H27 H 0.15302 0.5269 0.09058 0.0
H28 H 0.17509 0.60338 0.9537 0.0
H29 H 0.09006 0.54384 0.86502 0.0
H30 H 0.18959 0.56156 0.37046 0.0
H31 H 0.2471 0.59707 0.02659 0.0
H32 H 0.18603 0.5113 0.05722 0.0
C33 C 0.56866 0.07989 0.78302 0.0
C34 C 0.56521 0.07242 0.70542 0.0
N35 N 0.5466 0.07853 0.67222 0.0
N36 N 0.55262 0.09108 0.7999 0.0
C37 C 0.53884 0.08941 0.73063 0.0
H38 H 0.58218 0.07734 0.8252 0.0
Co39 Co 0.55365 0.10201 0.90503 0.0
C40 C 0.5454 0.14878 0.84232 0.0
O41 O 0.54566 0.14413 0.76842 0.0
N42 N 0.55502 0.11169 1.0108 0.0
C43 C 0.56548 0.13592 0.12682 0.0
C44 C 0.568 0.13788 0.05017 0.0
C45 C 0.54487 0.09418 0.06498 0.0
N46 N 0.55082 0.1084 0.13646 0.0
O47 O 0.51328 0.07774 0.90005 0.0
H48 H 0.5795 0.15724 0.02516 0.0
H49 H 0.53353 0.07141 0.05195 0.0
O50 O 0.54835 0.13335 0.88776 0.0
C51 C 0.4953 0.0532 0.86539 0.0
O52 O 0.50338 0.04028 0.81704 0.0
N53 N 0.59347 0.12623 0.91258 0.0
C54 C 0.65052 0.16887 0.94457 0.0
C55 C 0.6333 0.16827 0.8809 0.0
C56 C 0.60498 0.14659 0.86541 0.0
C57 C 0.61055 0.12453 0.96929 0.0
C58 C 0.63919 0.14586 0.98684 0.0
H59 H 0.59203 0.14692 0.81719 0.0
H60 H 0.60155 0.10759 1.00434 0.0
H61 H 0.52246 0.0946 0.72306 0.0
H62 H 0.5759 0.06353 0.67539 0.0
H63 H 0.57475 0.15354 0.17222 0.0
H64 H 0.6409 0.18532 0.84598 0.0
H65 H 0.65191 0.14497 0.03511 0.0
C66 C 0.48391 0.60286 0.05929 0.0
C67 C 0.48512 0.60748 0.98391 0.0
N68 N 0.46074 0.58698 0.94243 0.0
N69 N 0.45866 0.57983 0.06569 0.0
C70 C 0.44503 0.57029 0.99308 0.0
H71 H 0.50017 0.61585 0.10697 0.0
Co72 Co 0.44813 0.56819 0.16037 0.0
C73 C 0.38571 0.54265 0.14964 0.0
O74 O 0.38884 0.55147 0.22292 0.0
N75 N 0.43856 0.55614 0.25823 0.0
C76 C 0.42074 0.52739 0.34747 0.0
C77 C 0.42368 0.52881 0.27081 0.0
C78 C 0.44479 0.5708 0.32913 0.0
N79 N 0.43396 0.55391 0.38419 0.0
O80 O 0.45038 0.53563 0.13374 0.0
H81 H 0.41486 0.51085 0.22662 0.0
H82 H 0.45729 0.59342 0.34137 0.0
O83 O 0.40754 0.54746 0.11717 0.0
C84 C 0.47499 0.53911 0.14848 0.0
O85 O 0.49637 0.56448 0.17573 0.0
N86 N 0.44787 0.60174 0.1856 0.0
C87 C 0.45385 0.6547 0.21667 0.0
C88 C 0.43138 0.63353 0.16408 0.0
C89 C 0.4291 0.60745 0.14816 0.0
C90 C 0.47106 0.62282 0.23244 0.0
C91 C 0.47405 0.64925 0.25074 0.0
H92 H 0.41289 0.59252 0.10313 0.0
H93 H 0.48742 0.61909 0.25561 0.0
H94 H 0.42378 0.55212 0.97787 0.0
H95 H 0.50246 0.62473 0.96119 0.0
H96 H 0.40922 0.50828 0.37361 0.0
H97 H 0.41573 0.63714 0.13491 0.0
H98 H 0.4923 0.66544 0.28953 0.0
C99 C 0.87733 0.44411 0.14892 0.0
C100 C 0.87678 0.43937 0.22431 0.0
N101 N 0.86206 0.44966 0.25727 0.0
N102 N 0.86271 0.457 0.1339 0.0
C103 C 0.85385 0.46044 0.20145 0.0
H104 H 0.88703 0.43779 0.10675 0.0
Co105 Co 0.8563 0.46396 0.03495 0.0
C106 C 0.80745 0.47222 0.03202 0.0
O107 O 0.79805 0.45744 0.96344 0.0
N108 N 0.85098 0.47151 0.93317 0.0
C109 C 0.85049 0.49524 0.83694 0.0
C110 C 0.85302 0.4957 0.91534 0.0
C111 C 0.84789 0.45705 0.86406 0.0
N112 N 0.8473 0.47086 0.80435 0.0
O113 O 0.88836 0.50135 0.06068 0.0
H114 H 0.8565 0.51286 0.95703 0.0
H115 H 0.84734 0.43734 0.85727 0.0
O116 O 0.83076 0.47667 0.0678 0.0
C117 C 0.91049 0.50631 0.0305 0.0
O118 O 0.90831 0.48784 0.97502 0.0
N119 N 0.82649 0.4259 1.01338 0.0
C120 C 0.79298 0.36746 1.01179 0.0
C121 C 0.7859 0.38557 0.05036 0.0
C122 C 0.80317 0.41467 0.05177 0.0
C123 C 0.83379 0.40846 0.97628 0.0
C124 C 0.81693 0.37912 0.97297 0.0
H125 H 0.79892 0.42787 0.08963 0.0
H126 H 0.85404 0.41738 0.95448 0.0
H127 H 0.84062 0.46943 0.20889 0.0
H128 H 0.88609 0.42875 0.25258 0.0
H129 H 0.85118 0.51179 0.80675 0.0
H130 H 0.7679 0.37737 0.08249 0.0
H131 H 0.82367 0.36584 0.94498 0.0
C132 C 0.42421 0.89914 0.31838 0.0
C133 C 0.42421 0.90224 0.39635 0.0
N134 N 0.39711 0.89045 0.41035 0.0
N135 N 0.3972 0.88533 0.28306 0.0
C136 C 0.381 0.88027 0.34094 0.0
H137 H 0.44267 0.90527 0.28902 0.0
Co138 Co 0.38919 0.87234 0.17779 0.0
C139 C 0.32705 0.83779 0.15061 0.0
O140 O 0.32675 0.85366 0.09933 0.0
N141 N 0.38188 0.85933 0.07191 0.0
C142 C 0.36779 0.83139 0.96039 0.0
C143 C 0.36948 0.83225 0.03892 0.0
C144 C 0.38749 0.87452 1.01215 0.0
N145 N 0.37897 0.85799 0.94364 0.0
O146 O 0.37786 0.89903 0.15663 0.0
H147 H 0.36186 0.81419 0.07006 0.0
H148 H 0.39781 0.89729 0.01865 0.0
O149 O 0.35059 0.84397 0.18831 0.0
C150 C 0.39443 0.92566 0.17272 0.0
O151 O 0.4187 0.93548 0.21647 0.0
N152 N 0.40143 0.84725 0.19758 0.0
C153 C 0.42293 0.8127 0.22795 0.0
C154 C 0.40028 0.81064 0.26414 0.0
C155 C 0.38979 0.82811 0.24811 0.0
C156 C 0.42399 0.85008 0.16341 0.0
C157 C 0.43482 0.83263 0.17684 0.0
H158 H 0.37268 0.82662 0.2776 0.0
H159 H 0.43354 0.86591 0.1253 0.0
H160 H 0.35799 0.86788 0.33287 0.0
H161 H 0.44259 0.9114 0.43973 0.0
H162 H 0.35834 0.81261 0.91872 0.0
H163 H 0.39056 0.79544 0.3039 0.0
H164 H 0.45253 0.83493 0.14845 0.0
C165 C 0.55086 0.35605 0.09633 0.0
C166 C 0.5516 0.35133 0.0193 0.0
N167 N 0.57426 0.37422 0.99988 0.0
N168 N 0.57332 0.38159 0.12605 0.0
C169 C 0.587 0.39248 0.06526 0.0
H170 H 0.53517 0.34147 0.12912 0.0
Co171 Co 0.58111 0.39384 0.23152 0.0
C172 C 0.6428 0.43809 0.26608 0.0
O173 O 0.64326 0.43201 0.33649 0.0
N174 N 0.58737 0.40551 0.33846 0.0
C175 C 0.5957 0.43214 0.44939 0.0
C176 C 0.59292 0.43095 0.37095 0.0
C177 C 0.58634 0.39144 0.39891 0.0
N178 N 0.59154 0.40723 0.46741 0.0
O179 O 0.5666 0.41793 0.21503 0.0
H180 H 0.59549 0.44797 0.33969 0.0
H181 H 0.58158 0.36993 0.3928 0.0
O182 O 0.61965 0.42454 0.21947 0.0
C183 C 0.53968 0.40587 0.21027 0.0
O184 O 0.52486 0.37905 0.21959 0.0
N185 N 0.59329 0.368 0.24347 0.0
C186 C 0.59126 0.32008 0.17535 0.0
C187 C 0.61604 0.34665 0.18003 0.0
C188 C 0.6166 0.37047 0.21383 0.0
C189 C 0.57104 0.34192 0.25106 0.0
C190 C 0.56949 0.3175 0.21684 0.0
H191 H 0.63423 0.39056 0.20554 0.0
H192 H 0.55233 0.34012 0.27234 0.0
H193 H 0.60619 0.41293 0.06886 0.0
H194 H 0.53663 0.33253 0.98032 0.0
H195 H 0.60083 0.45029 0.48961 0.0
H196 H 0.63361 0.3494 0.15012 0.0
H197 H 0.54996 0.29734 0.21468 0.0
H198 H 0.07395 0.57072 0.0526 0.0
H199 H 0.07198 0.55813 0.29179 0.0
H200 H 0.02478 0.55372 0.28656 0.0
H201 H 0.02931 0.60498 0.04161 0.0
H202 H 0.01138 0.58516 0.94877 0.0
H203 H 0.04793 0.59567 0.97666 0.0
H204 H 0.03467 0.54353 0.94951 0.0
H205 H -0.00169 0.53295 0.92132 0.0
H206 H 0.00693 0.51712 0.99629 0.0
H207 H 0.97547 0.54373 0.25069 0.0
H208 H 0.92647 0.52152 0.18473 0.0
H209 H 0.95885 0.5356 0.96566 0.0
C210 C 0.06402 0.56826 0.10454 0.0
C211 C 0.07666 0.56549 0.17313 0.0
C212 C 0.06265 0.56081 0.23922 0.0
C213 C 0.036 0.55848 0.23677 0.0
C214 C 0.02354 0.56043 0.1674 0.0
C215 C 0.03703 0.56492 0.10218 0.0
C216 C 0.01711 0.56044 0.03156 0.0
C217 C 0.02703 0.58822 0.99767 0.0
C218 C 0.01407 0.53712 0.97121 0.0
C219 C 0.98989 0.55129 0.06641 0.0
C220 C 0.99431 0.55262 0.14528 0.0
C221 C 0.97186 0.54309 0.18922 0.0
C222 C 0.94408 0.53067 0.15132 0.0
C223 C 0.93905 0.52718 0.07027 0.0
C224 C 0.96229 0.53856 0.02779 0.0
H225 H 0.42193 0.98292 0.19959 0.0
H226 H 0.36114 0.91148 0.03413 0.0
H227 H 0.37231 0.9427 0.93349 0.0
H228 H 0.41239 0.03953 0.09283 0.0
H229 H 0.44961 0.06484 0.1222 0.0
H230 H 0.42903 0.03991 0.18521 0.0
H231 H 0.46562 0.02385 0.19361 0.0
H232 H 0.48558 0.04797 0.12956 0.0
H233 H 0.47306 0.01094 0.10654 0.0
H234 H 0.40421 0.97429 0.84795 0.0
H235 H 0.44625 0.0073 0.78946 0.0
H236 H 0.48279 0.06117 1.00731 0.0
C237 C 0.40982 0.97422 0.14311 0.0
C238 C 0.39138 0.94478 0.12401 0.0
C239 C 0.37575 0.93396 0.04983 0.0
C240 C 0.38196 0.95156 0.99215 0.0
C241 C 0.40289 0.98003 1.01056 0.0
C242 C 0.41549 0.99168 0.08537 0.0
C243 C 0.44 0.02178 0.08862 0.0
C244 C 0.43228 0.04275 0.1243 0.0
C245 C 0.46765 0.02629 0.13206 0.0
C246 C 0.44188 0.02366 1.00384 0.0
C247 C 0.41987 -0.00035 0.95944 0.0
C248 C 0.42067 0.99386 0.8814 0.0
C249 C 0.44474 0.01258 0.84865 0.0
C250 C 0.46752 0.03694 0.8937 0.0
C251 C 0.46529 0.04314 0.97105 0.0
H252 H 0.56325 0.463 0.20946 0.0
H253 H 0.48271 0.38325 0.17105 0.0
H254 H 0.45766 0.40841 0.142 0.0
H255 H 0.53758 0.50261 0.30454 0.0
H256 H 0.55944 0.5344 0.26333 0.0
H257 H 0.5712 0.50989 0.27608 0.0
H258 H 0.57649 0.50637 0.1314 0.0
H259 H 0.56461 0.5308 0.11814 0.0
H260 H 0.54649 0.49657 0.06102 0.0
H261 H 0.44109 0.44229 0.12117 0.0
H262 H 0.43412 0.48283 0.11688 0.0
H263 H 0.52531 0.5404 0.17066 0.0
C264 C 0.54038 0.45082 0.19426 0.0
C265 C 0.52495 0.42117 0.19229 0.0
C266 C 0.49499 0.406 0.17303 0.0
C267 C 0.48056 0.42008 0.15606 0.0
C268 C 0.49637 0.44932 0.15872 0.0
C269 C 0.52559 0.46455 0.17763 0.0
C270 C 0.53736 0.49595 0.18014 0.0
C271 C 0.55227 0.51162 0.26082 0.0
C272 C 0.55742 0.50813 0.11902 0.0
C273 C 0.51015 0.49599 0.16075 0.0
C274 C 0.48677 0.46888 0.14775 0.0
C275 C 0.45925 0.46364 0.13083 0.0
C276 C 0.45551 0.48678 0.12836 0.0
C277 C 0.47915 0.51476 0.14335 0.0
C278 C 0.5068 0.51927 0.15868 0.0
H279 H 0.19708 0.58767 0.4883 0.0
H280 H 0.12587 0.5931 0.3884 0.0
H281 H 0.11269 0.59681 0.51752 0.0
H282 H 0.1611 0.54346 0.62354 0.0
H283 H 0.19092 0.55954 0.6984 0.0
H284 H 0.1969 0.5608 0.59943 0.0
H285 H 0.22823 0.61536 0.62563 0.0
H286 H 0.22233 0.61427 0.72488 0.0
H287 H 0.21395 0.63535 0.66787 0.0
H288 H 0.10381 0.59431 0.65536 0.0
H289 H 0.1006 0.58683 0.79163 0.0
H290 H 0.17752 0.58338 0.80432 0.0
C291 C 0.17888 0.58995 0.49335 0.0
C292 C 0.16262 0.59017 0.42733 0.0
C293 C 0.13904 0.59333 0.43741 0.0
C294 C 0.13127 0.59532 0.51081 0.0
C295 C 0.14737 0.59437 0.57415 0.0
C296 C 0.17083 0.59197 0.56627 0.0
C297 C 0.18353 0.58975 0.64311 0.0
C298 C 0.18307 0.56172 0.64096 0.0
C299 C 0.21381 0.6152 0.66676 0.0
C300 C 0.16309 0.59048 0.69521 0.0
C301 C 0.1425 0.59334 0.65417 0.0
C302 C 0.12009 0.59254 0.68819 0.0
C303 C 0.1184 0.58826 0.76553 0.0
C304 C 0.13901 0.58495 0.80864 0.0
C305 C 0.16194 0.58661 0.77322 0.0
H306 H 0.54872 0.1348 0.2714 0.0
H307 H 0.53933 0.05644 0.16783 0.0
H308 H 0.53092 0.03813 0.29232 0.0
H309 H 0.5884 0.14004 0.44414 0.0
H310 H 0.57272 0.15478 0.50401 0.0
H311 H 0.57457 0.1604 0.40491 0.0
H312 H 0.52011 0.13923 0.38339 0.0
H313 H 0.51806 0.13335 0.4825 0.0
H314 H 0.49667 0.10436 0.40736 0.0
H315 H 0.52803 0.0299 0.43022 0.0
H316 H 0.53263 0.03309 0.57165 0.0
H317 H 0.54467 0.11685 0.58802 0.0
C318 C 0.54478 0.11372 0.27444 0.0
C319 C 0.54455 0.09707 0.20881 0.0
C320 C 0.53921 0.06956 0.21626 0.0
C321 C 0.53443 0.05894 0.28704 0.0
C322 C 0.5351 0.07605 0.35041 0.0
C323 C 0.54019 0.10288 0.34485 0.0
C324 C 0.54183 0.11772 0.42287 0.0
C325 C 0.57112 0.14483 0.44529 0.0
C326 C 0.51773 0.12403 0.42407 0.0
C327 C 0.53764 0.09532 0.47364 0.0
C328 C 0.53344 0.07131 0.43034 0.0
C329 C 0.53091 0.04843 0.46445 0.0
C330 C 0.53353 0.0504 0.54476 0.0
C331 C 0.53859 0.07502 0.59055 0.0
C332 C 0.53999 0.0975 0.55427 0.0
H333 H 0.44208 0.54187 0.83329 0.0
H334 H 0.46334 0.62886 0.86992 0.0
H335 H 0.45535 0.6286 0.72988 0.0
H336 H 0.47838 0.54919 0.67236 0.0
H337 H 0.45303 0.5148 0.6211 0.0
H338 H 0.45673 0.52042 0.72423 0.0
H339 H 0.40294 0.50222 0.7189 0.0
H340 H 0.39905 0.49639 0.61562 0.0
H341 H 0.38774 0.51831 0.66273 0.0
H342 H 0.44813 0.62006 0.58716 0.0
H343 H 0.44298 0.60431 0.44975 0.0
H344 H 0.429 0.52335 0.50322 0.0
C345 C 0.44426 0.5605 0.81141 0.0
C346 C 0.45292 0.58531 0.8618 0.0
C347 C 0.45651 0.60969 0.83174 0.0
C348 C 0.45199 0.60968 0.75253 0.0
C349 C 0.44409 0.58514 0.70398 0.0
C350 C 0.44025 0.56097 0.73201 0.0
C351 C 0.43396 0.53827 0.66678 0.0
C352 C 0.4569 0.53021 0.67142 0.0
C353 C 0.40415 0.51225 0.66597 0.0
C354 C 0.43532 0.55365 0.59806 0.0
C355 C 0.44086 0.58052 0.62099 0.0
C356 C 0.44376 0.59904 0.56843 0.0
C357 C 0.44107 0.58994 0.49028 0.0
C358 C 0.43583 0.56262 0.46495 0.0
C359 C 0.43271 0.54423 0.52008 0.0
H360 H 0.86028 0.50357 0.68679 0.0
H361 H 0.82906 0.41763 0.73537 0.0
H362 H 0.82752 0.40286 0.59939 0.0
H363 H 0.81641 0.4836 0.50005 0.0
H364 H 0.84379 0.51223 0.45811 0.0
H365 H 0.84181 0.51621 0.5595 0.0
H366 H 0.89405 0.52895 0.58891 0.0
H367 H 0.8962 0.52501 0.48775 0.0
H368 H 0.90437 0.50499 0.54975 0.0
H369 H 0.83237 0.39775 0.46012 0.0
H370 H 0.84167 0.40253 0.32535 0.0
H371 H 0.86666 0.49064 0.36314 0.0
C372 C 0.8527 0.48154 0.66922 0.0
C373 C 0.84509 0.46194 0.72327 0.0
C374 C 0.83561 0.43336 0.69651 0.0
C375 C 0.8344 0.42463 0.61882 0.0
C376 C 0.84234 0.44454 0.56773 0.0
C377 C 0.85105 0.47234 0.59155 0.0
C378 C 0.85885 0.48956 0.52475 0.0
C379 C 0.83903 0.50108 0.50973 0.0
C380 C 0.89023 0.51354 0.53864 0.0
C381 C 0.85369 0.46717 0.45999 0.0
C382 C 0.84416 0.44135 0.4863 0.0
C383 C 0.83945 0.41775 0.43867 0.0
C384 C 0.84485 0.42065 0.36241 0.0
C385 C 0.8546 0.44683 0.33405 0.0
C386 C 0.85868 0.47029 0.38325 0.0
H387 H 0.39942 0.85463 0.50111 0.0
H388 H 0.37653 0.91823 0.48883 0.0
H389 H 0.36873 0.91674 0.62604 0.0
H390 H 0.3478 0.81357 0.63093 0.0
H391 H 0.37193 0.80541 0.68088 0.0
H392 H 0.37382 0.81058 0.58133 0.0
H393 H 0.4271 0.84918 0.61491 0.0
H394 H 0.42531 0.84444 0.71466 0.0
H395 H 0.43747 0.87893 0.68622 0.0
H396 H 0.36804 0.91118 0.76819 0.0
H397 H 0.36887 0.89799 0.89917 0.0
H398 H 0.39043 0.83664 0.81675 0.0
C399 C 0.39206 0.86764 0.52727 0.0
C400 C 0.38809 0.88625 0.48503 0.0
C401 C 0.37908 0.90352 0.52055 0.0
C402 C 0.37485 0.90291 0.5983 0.0
C403 C 0.37949 0.88468 0.63913 0.0
C404 C 0.38739 0.86697 0.60435 0.0
C405 C 0.39138 0.84961 0.66089 0.0
C406 C 0.36995 0.81791 0.63709 0.0
C407 C 0.42214 0.85593 0.66967 0.0
C408 C 0.38494 0.86058 0.73334 0.0
C409 C 0.37836 0.88097 0.71985 0.0
C410 C 0.37287 0.89502 0.779 0.0
C411 C 0.37369 0.88768 0.85334 0.0
C412 C 0.37974 0.86642 0.868 0.0
C413 C 0.38544 0.85277 0.80697 0.0
H414 H 0.59132 0.43477 0.60333 0.0
H415 H 0.59369 0.36151 0.50731 0.0
H416 H 0.5934 0.34734 0.63606 0.0
H417 H 0.63788 0.44929 0.78222 0.0
H418 H 0.61822 0.46016 0.83842 0.0
H419 H 0.61997 0.46544 0.73887 0.0
H420 H 0.56492 0.43752 0.71265 0.0
H421 H 0.56302 0.43222 0.81196 0.0
H422 H 0.5452 0.40224 0.73806 0.0
H423 H 0.58876 0.33879 0.77339 0.0
H424 H 0.58078 0.33719 0.90973 0.0
H425 H 0.58484 0.41736 0.91869 0.0
C426 C 0.59229 0.41599 0.60873 0.0
C427 C 0.5924 0.39931 0.54372 0.0
C428 C 0.59317 0.37462 0.55496 0.0
C429 C 0.59328 0.36645 0.62836 0.0
C430 C 0.59301 0.38333 0.69059 0.0
C431 C 0.59274 0.4077 0.68167 0.0
C432 C 0.59154 0.42161 0.75769 0.0
C433 C 0.61851 0.45086 0.78063 0.0
C434 C 0.56457 0.42349 0.75489 0.0
C435 C 0.59043 0.40085 0.81049 0.0
C436 C 0.59141 0.37895 0.77056 0.0
C437 C 0.58851 0.35607 0.80547 0.0
C438 C 0.58401 0.35531 0.8827 0.0
C439 C 0.58274 0.37738 0.92442 0.0
C440 C 0.58654 0.40068 0.88827 0.0
H441 H 0.23592 0.52594 0.13443 0.0
H442 H 0.25251 0.56393 0.9241 0.0
H443 H 0.29251 0.55576 0.91523 0.0
H444 H 0.30498 0.559 0.21251 0.0
H445 H 0.30224 0.53026 0.26025 0.0
H446 H 0.27145 0.53309 0.24011 0.0
H447 H 0.24413 0.48237 0.16621 0.0
H448 H 0.27505 0.47945 0.18597 0.0
H449 H 0.25893 0.47357 0.08843 0.0
H450 H 0.33446 0.54932 0.93909 0.0
H451 H 0.37689 0.55036 1.00017 0.0
H452 H 0.33369 0.51846 0.19765 0.0
C453 C 0.24731 0.53151 0.08499 0.0
C454 C 0.24091 0.54507 0.02919 0.0
C455 C 0.25699 0.55324 0.96697 0.0
C456 C 0.27958 0.54849 0.96126 0.0
C457 C 0.28582 0.53563 0.01837 0.0
C458 C 0.27013 0.52734 0.07923 0.0
C459 C 0.2836 0.51807 0.13918 0.0
C460 C 0.29101 0.5362 0.21756 0.0
C461 C 0.26427 0.48648 0.14527 0.0
C462 C 0.31003 0.52367 0.10451 0.0
C463 C 0.31055 0.53294 0.03368 0.0
C464 C 0.33404 0.54162 0.99386 0.0
C465 C 0.35803 0.54201 0.02882 0.0
C466 C 0.3585 0.53442 0.10356 0.0
C467 C 0.33376 0.52408 0.14012 0.0
H468 H 0.68988 0.20507 0.8576 0.0
H469 H 0.67344 0.19287 0.09303 0.0
H470 H 0.71364 0.24089 0.1371 0.0
H471 H 0.76952 0.25472 0.89939 0.0
H472 H 0.76895 0.2756 0.82654 0.0
H473 H 0.74358 0.23814 0.8149 0.0
H474 H 0.70246 0.24801 0.79685 0.0
H475 H 0.72756 0.28539 0.80949 0.0
H476 H 0.69983 0.27075 0.87024 0.0
H477 H 0.74869 0.29233 0.15381 0.0
H478 H 0.77826 0.34309 0.14238 0.0
H479 H 0.7712 0.32311 0.89617 0.0
C480 C 0.69518 0.2122 0.91864 0.0
C481 C 0.67844 0.195 0.97173 0.0
C482 C 0.68618 0.20523 0.05113 0.0
C483 C 0.70894 0.23265 0.07682 0.0
C484 C 0.72392 0.24955 0.02255 0.0
C485 C 0.71764 0.23962 0.94513 0.0
C486 C 0.73463 0.26307 0.89796 0.0
C487 C 0.75541 0.25755 0.85731 0.0
C488 C 0.71494 0.26703 0.84029 0.0
C489 C 0.75033 0.28799 0.96064 0.0
C490 C 0.74419 0.27962 0.03218 0.0
C491 C 0.75412 0.29907 0.09833 0.0
C492 C 0.77064 0.32784 0.09118 0.0
C493 C 0.77692 0.33689 0.01838 0.0
C494 C 0.76704 0.31666 0.95256 0.0
H495 H 0.44817 0.68685 0.11507 0.0
H496 H 0.464 0.68436 0.35812 0.0
H497 H 0.46234 0.72781 0.38794 0.0
H498 H 0.48869 0.76474 0.1232 0.0
H499 H 0.46333 0.7641 0.05117 0.0
H500 H 0.46913 0.73489 0.04936 0.0
H501 H 0.41524 0.70046 0.0514 0.0
H502 H 0.40929 0.72951 0.05354 0.0
H503 H 0.39803 0.70664 0.12723 0.0
H504 H 0.45265 0.76754 0.39096 0.0
H505 H 0.43846 0.80236 0.36682 0.0
H506 H 0.43019 0.77937 0.12173 0.0
C507 C 0.45169 0.69571 0.17453 0.0
C508 C 0.45617 0.68234 0.23443 0.0
C509 C 0.46082 0.69452 0.31151 0.0
C510 C 0.45984 0.7191 0.3289 0.0
C511 C 0.45461 0.73135 0.26843 0.0
C512 C 0.45099 0.72026 0.19275 0.0
C513 C 0.44409 0.73643 0.13848 0.0
C514 C 0.46772 0.7509 0.08756 0.0
C515 C 0.41493 0.7171 0.08985 0.0
C516 C 0.44347 0.75783 0.19548 0.0
C517 C 0.44972 0.75466 0.27016 0.0
C518 C 0.44827 0.77059 0.33277 0.0
C519 C 0.44008 0.79016 0.3186 0.0
C520 C 0.43359 0.79363 0.24251 0.0
C521 C 0.43569 0.77752 0.18038 0.0
H522 H 0.75209 0.45449 0.98281 0.0
H523 H 0.81859 0.50213 0.17477 0.0
H524 H 0.78394 0.50588 0.24867 0.0
H525 H 0.71025 0.48995 1.01289 0.0
H526 H 0.67703 0.45698 0.98672 0.0
H527 H 0.70804 0.46298 0.94383 0.0
H528 H 0.70241 0.41717 0.98907 0.0
H529 H 0.6715 0.41114 0.03175 0.0
H530 H 0.70095 0.41297 0.08936 0.0
H531 H 0.74097 0.49798 0.308 0.0
H532 H 0.69333 0.47776 0.34938 0.0
H533 H 0.6549 0.43498 0.1189 0.0
C534 C 0.75966 0.46652 0.03948 0.0
C535 C 0.78816 0.47825 0.07277 0.0
C536 C 0.79694 0.49317 0.14785 0.0
C537 C 0.77742 0.4955 0.19012 0.0
C538 C 0.74926 0.48294 0.1563 0.0
C539 C 0.74044 0.46883 0.08246 0.0
C540 C 0.70845 0.45408 0.06263 0.0
C541 C 0.70048 0.46677 0.99767 0.0
C542 C 0.69506 0.42195 0.04206 0.0
C543 C 0.70048 0.46113 0.13791 0.0
C544 C 0.72435 0.47824 0.19076 0.0
C545 C 0.72219 0.48511 0.26664 0.0
C546 C 0.69503 0.4735 0.28963 0.0
C547 C 0.67037 0.45508 0.2371 0.0
C548 C 0.67322 0.44965 0.15976 0.0
H549 H 0.24937 0.67973 0.24094 0.0
H550 H 0.18002 0.6609 0.06675 0.0
H551 H 0.20281 0.71175 0.05382 0.0
H552 H 0.26088 0.74691 0.33004 0.0
H553 H 0.29895 0.76284 0.34609 0.0
H554 H 0.2761 0.72531 0.34547 0.0
H555 H 0.30175 0.71602 0.23959 0.0
H556 H 0.32473 0.75347 0.24033 0.0
H557 H 0.30416 0.73143 0.15196 0.0
H558 H 0.23501 0.76452 0.05455 0.0
H559 H 0.27465 0.81402 0.06472 0.0
H560 H 0.32206 0.79757 0.23974 0.0
C561 C 0.23875 0.68624 0.20054 0.0
C562 C 0.21285 0.66632 0.15499 0.0
C563 C 0.19985 0.67579 0.1024 0.0
C564 C 0.21258 0.70463 0.09487 0.0
C565 C 0.2382 0.72369 0.14056 0.0
C566 C 0.25113 0.71483 0.19231 0.0
C567 C 0.27935 0.73921 0.23169 0.0
C568 C 0.27876 0.74384 0.31847 0.0
C569 C 0.30394 0.73476 0.21484 0.0
C570 C 0.28058 0.76314 0.19298 0.0
C571 C 0.25658 0.7539 0.14111 0.0
C572 C 0.25376 0.77204 0.09559 0.0
C573 C 0.27638 0.80015 0.10192 0.0
C574 C 0.30152 0.80976 0.15311 0.0
C575 C 0.30316 0.79106 0.20041 0.0
H576 H 0.53672 0.16225 0.98686 0.0
H577 H 0.56243 0.19653 0.77384 0.0
H578 H 0.57563 0.24368 0.83588 0.0
H579 H 0.50882 0.20782 0.04899 0.0
H580 H 0.52162 0.2111 0.14853 0.0
H581 H 0.51138 0.17951 0.08498 0.0
H582 H 0.5606 0.18629 0.12334 0.0
H583 H 0.57197 0.21852 0.18483 0.0
H584 H 0.59226 0.21842 0.10915 0.0
H585 H 0.59047 0.28759 0.92324 0.0
H586 H 0.60202 0.32523 0.02773 0.0
H587 H 0.56709 0.26302 0.18568 0.0
C588 C 0.54481 0.17961 0.95303 0.0
C589 C 0.54875 0.17575 0.87565 0.0
C590 C 0.55906 0.19891 0.83302 0.0
C591 C 0.56677 0.22583 0.86788 0.0
C592 C 0.56371 0.22912 0.94507 0.0
C593 C 0.55253 0.2066 0.9869 0.0
C594 C 0.55232 0.21612 0.0697 0.0
C595 C 0.52171 0.20285 0.08917 0.0
C596 C 0.5704 0.20946 0.125 0.0
C597 C 0.56591 0.24763 0.06836 0.0
C598 C 0.57221 0.25459 0.99575 0.0
C599 C 0.58554 0.28239 0.98025 0.0
C600 C 0.59233 0.30366 0.04031 0.0
C601 C 0.58587 0.2971 0.11521 0.0
C602 C 0.57237 0.26864 0.12915 0.0
loop_
_geom_bond_atom_site_label_1
_geom_bond_atom_site_label_2
_geom_bond_distance
_geom_bond_site_symmetry_2
_ccdc_geom_bond_type
C0 C1 1.351 . S
C0 N3 1.368 . S
C0 H5 0.931 . S
C1 C0 1.351 . S
C1 N2 1.373 . S
C1 H29 0.930 . S
N2 C1 1.373 . S
N2 C4 1.340 . S
N3 C0 1.368 . S
N3 C4 1.321 . S
N3 Co6 2.135 1_556 S
C4 N2 1.340 . S
C4 N3 1.321 . S
C4 H28 0.930 . S
H5 C0 0.931 . S
Co6 N3 2.135 1_554 S
Co6 N9 2.121 . S
Co6 O14 2.055 . S
Co6 O17 2.039 . S
Co6 N20 2.140 . S
C7 O8 1.227 . S
C7 O17 1.265 . S
O8 C7 1.227 . S
N9 Co6 2.121 . S
N9 C11 1.375 . S
N9 C12 1.313 . S
C10 C11 1.338 . S
C10 N13 1.377 . S
C10 H30 0.930 . S
C11 N9 1.375 . S
C11 C10 1.338 . S
C11 H15 0.931 . S
C12 N9 1.313 . S
C12 N13 1.344 . S
C12 H16 0.930 . S
N13 C10 1.377 . S
N13 C12 1.344 . S
O14 Co6 2.055 . S
O14 C18 1.253 . S
H15 C11 0.931 . S
H16 C12 0.930 . S
O17 Co6 2.039 . S
O17 C7 1.265 . S
C18 O14 1.253 . S
C18 O19 1.227 . S
O19 C18 1.227 . S
N20 Co6 2.140 . S
N20 C23 1.346 1_554 S
N20 C24 1.345 . S
C21 C22 1.387 1_554 S
C21 C25 1.391 . S
C22 C21 1.387 1_556 S
C22 C23 1.369 . S
C22 H31 0.929 . S
C23 N20 1.346 1_556 S
C23 C22 1.369 . S
C23 H26 0.928 . S
C24 N20 1.345 . S
C24 C25 1.371 . S
C24 H27 0.931 . S
C25 C21 1.391 . S
C25 C24 1.371 . S
C25 H32 0.930 . S
H26 C23 0.928 . S
H27 C24 0.931 . S
H28 C4 0.930 . S
H29 C1 0.930 . S
H30 C10 0.930 . S
H31 C22 0.929 . S
H32 C25 0.930 . S
C33 C34 1.351 . S
C33 N36 1.368 . S
C33 H38 0.931 . S
C34 C33 1.351 . S
C34 N35 1.373 . S
C34 H62 0.930 . S
N35 C34 1.373 . S
N35 C37 1.340 . S
N36 C33 1.368 . S
N36 C37 1.321 . S
N36 Co39 2.135 1_556 S
C37 N35 1.340 . S
C37 N36 1.321 . S
C37 H61 0.930 . S
H38 C33 0.931 . S
Co39 N36 2.135 1_554 S
Co39 N42 2.121 . S
Co39 O47 2.055 . S
Co39 O50 2.039 . S
Co39 N53 2.140 . S
C40 O41 1.227 . S
C40 O50 1.265 . S
O41 C40 1.227 . S
N42 Co39 2.121 . S
N42 C44 1.375 . S
N42 C45 1.313 . S
C43 C44 1.338 . S
C43 N46 1.377 . S
C43 H63 0.930 . S
C44 N42 1.375 . S
C44 C43 1.338 . S
C44 H48 0.931 . S
C45 N42 1.313 . S
C45 N46 1.344 . S
C45 H49 0.930 . S
N46 C43 1.377 . S
N46 C45 1.344 . S
O47 Co39 2.055 . S
O47 C51 1.253 . S
H48 C44 0.931 . S
H49 C45 0.930 . S
O50 Co39 2.039 . S
O50 C40 1.265 . S
C51 O47 1.253 . S
C51 O52 1.227 . S
O52 C51 1.227 . S
N53 Co39 2.140 . S
N53 C56 1.353 . S
N53 C57 1.345 . S
C54 C55 1.387 . S
C54 C58 1.391 . S
C55 C54 1.387 . S
C55 C56 1.368 . S
C55 H64 0.929 1_554 S
C56 N53 1.353 . S
C56 C55 1.368 . S
C56 H59 0.921 1_554 S
C57 N53 1.345 . S
C57 C58 1.371 . S
C57 H60 0.931 . S
C58 C54 1.391 . S
C58 C57 1.371 . S
C58 H65 0.930 . S
H59 C56 0.921 1_556 S
H60 C57 0.931 . S
H61 C37 0.930 . S
H62 C34 0.930 . S
H63 C43 0.930 . S
H64 C55 0.929 1_556 S
H65 C58 0.930 . S
C66 C67 1.351 . S
C66 N69 1.368 . S
C66 H71 0.931 . S
C67 C66 1.351 . S
C67 N68 1.373 . S
C67 H95 0.930 . S
N68 C67 1.373 . S
N68 C70 1.340 . S
N69 C66 1.368 . S
N69 C70 1.321 . S
N69 Co72 2.135 1_556 S
C70 N68 1.340 . S
C70 N69 1.321 . S
C70 H94 0.930 . S
H71 C66 0.931 . S
Co72 N69 2.135 1_554 S
Co72 N75 2.121 . S
Co72 O80 2.055 . S
Co72 O83 2.039 . S
Co72 N86 2.140 . S
C73 O74 1.227 . S
C73 O83 1.265 . S
O74 C73 1.227 . S
N75 Co72 2.121 . S
N75 C77 1.375 . S
N75 C78 1.313 . S
C76 C77 1.338 . S
C76 N79 1.377 . S
C76 H96 0.930 . S
C77 N75 1.375 . S
C77 C76 1.338 . S
C77 H81 0.931 . S
C78 N75 1.313 . S
C78 N79 1.344 . S
C78 H82 0.930 . S
N79 C76 1.377 . S
N79 C78 1.344 . S
O80 Co72 2.055 . S
O80 C84 1.253 . S
H81 C77 0.931 . S
H82 C78 0.930 . S
O83 Co72 2.039 . S
O83 C73 1.265 . S
C84 O80 1.253 . S
C84 O85 1.227 . S
O85 C84 1.227 . S
N86 Co72 2.140 . S
N86 C89 1.346 . S
N86 C90 1.345 . S
C87 C88 1.387 . S
C87 C91 1.391 . S
C88 C87 1.387 . S
C88 C89 1.369 . S
C88 H97 0.929 . S
C89 N86 1.346 . S
C89 C88 1.369 . S
C89 H92 0.928 . S
C90 N86 1.345 . S
C90 C91 1.371 . S
C90 H93 0.931 . S
C91 C87 1.391 . S
C91 C90 1.371 . S
C91 H98 0.930 . S
H92 C89 0.928 . S
H93 C90 0.931 . S
H94 C70 0.930 . S
H95 C67 0.930 . S
H96 C76 0.930 . S
H97 C88 0.929 . S
H98 C91 0.930 . S
C99 C100 1.351 . S
C99 N102 1.368 . S
C99 H104 0.931 . S
C100 C99 1.351 . S
C100 N101 1.373 . S
C100 H128 0.930 . S
N101 C100 1.373 . S
N101 C103 1.340 . S
N102 C99 1.368 . S
N102 C103 1.321 . S
N102 Co105 2.135 . S
C103 N101 1.340 . S
C103 N102 1.321 . S
C103 H127 0.930 . S
H104 C99 0.931 . S
Co105 N102 2.135 . S
Co105 N108 2.121 1_554 S
Co105 O113 2.055 . S
Co105 O116 2.039 . S
Co105 N119 2.140 . S
C106 O107 1.227 . S
C106 O116 1.265 . S
O107 C106 1.227 . S
N108 Co105 2.121 1_556 S
N108 C110 1.375 . S
N108 C111 1.313 . S
C109 C110 1.338 . S
C109 N112 1.377 . S
C109 H129 0.930 . S
C110 N108 1.375 . S
C110 C109 1.338 . S
C110 H114 0.931 . S
C111 N108 1.313 . S
C111 N112 1.344 . S
C111 H115 0.930 . S
N112 C109 1.377 . S
N112 C111 1.344 . S
O113 Co105 2.055 . S
O113 C117 1.253 . S
H114 C110 0.931 . S
H115 C111 0.930 . S
O116 Co105 2.039 . S
O116 C106 1.265 . S
C117 O113 1.253 . S
C117 O118 1.227 . S
O118 C117 1.227 . S
N119 Co105 2.140 . S
N119 C122 1.346 . S
N119 C123 1.345 . S
C120 C121 1.387 . S
C120 C124 1.391 . S
C121 C120 1.387 . S
C121 C122 1.369 . S
C121 H130 0.929 . S
C122 N119 1.346 . S
C122 C121 1.369 . S
C122 H125 0.928 . S
C123 N119 1.345 . S
C123 C124 1.371 . S
C123 H126 0.931 . S
C124 C120 1.391 . S
C124 C123 1.371 . S
C124 H131 0.930 1_554 S
H125 C122 0.928 . S
H126 C123 0.931 . S
H127 C103 0.930 . S
H128 C100 0.930 . S
H129 C109 0.930 . S
H130 C121 0.929 . S
H131 C124 0.930 1_556 S
C132 C133 1.351 . S
C132 N135 1.368 . S
C132 H137 0.931 . S
C133 C132 1.351 . S
C133 N134 1.373 . S
C133 H161 0.930 . S
N134 C133 1.373 . S
N134 C136 1.340 . S
N135 C132 1.368 . S
N135 C136 1.321 . S
N135 Co138 2.135 . S
C136 N134 1.340 . S
C136 N135 1.321 . S
C136 H160 0.930 . S
H137 C132 0.931 . S
Co138 N135 2.135 . S
Co138 N141 2.121 1_554 S
Co138 O146 2.055 . S
Co138 O149 2.039 . S
Co138 N152 2.140 . S
C139 O140 1.227 . S
C139 O149 1.265 . S
O140 C139 1.227 . S
N141 Co138 2.121 1_556 S
N141 C143 1.375 . S
N141 C144 1.313 . S
C142 C143 1.338 . S
C142 N145 1.377 . S
C142 H162 0.930 . S
C143 N141 1.375 . S
C143 C142 1.338 . S
C143 H147 0.931 . S
C144 N141 1.313 . S
C144 N145 1.344 . S
C144 H148 0.930 . S
N145 C142 1.377 . S
N145 C144 1.344 . S
O146 Co138 2.055 . S
O146 C150 1.253 . S
H147 C143 0.931 . S
H148 C144 0.930 . S
O149 Co138 2.039 . S
O149 C139 1.265 . S
C150 O146 1.253 . S
C150 O151 1.227 . S
O151 C150 1.227 . S
N152 Co138 2.140 . S
N152 C155 1.346 . S
N152 C156 1.345 . S
C153 C154 1.387 . S
C153 C157 1.391 . S
C154 C153 1.387 . S
C154 C155 1.369 . S
C154 H163 0.929 . S
C155 N152 1.346 . S
C155 C154 1.369 . S
C155 H158 0.928 . S
C156 N152 1.345 . S
C156 C157 1.371 . S
C156 H159 0.931 . S
C157 C153 1.391 . S
C157 C156 1.371 . S
C157 H164 0.930 . S
H158 C155 0.928 . S
H159 C156 0.931 . S
H160 C136 0.930 . S
H161 C133 0.930 . S
H162 C142 0.930 . S
H163 C154 0.929 . S
H164 C157 0.930 . S
C165 C166 1.351 . S
C165 N168 1.368 1_556 S
C165 H170 0.931 . S
C166 C165 1.351 . S
C166 N167 1.373 . S
C166 H194 0.930 . S
N167 C166 1.373 . S
N167 C169 1.340 . S
N168 C165 1.368 1_554 S
N168 C169 1.321 1_554 S
N168 Co171 2.135 . S
C169 N167 1.340 . S
C169 N168 1.321 1_556 S
C169 H193 0.930 . S
H170 C165 0.931 . S
Co171 N168 2.135 . S
Co171 N174 2.121 . S
Co171 O179 2.055 . S
Co171 O182 2.039 . S
Co171 N185 2.140 . S
C172 O173 1.227 . S
C172 O182 1.265 . S
O173 C172 1.227 . S
N174 Co171 2.121 . S
N174 C176 1.375 . S
N174 C177 1.313 . S
C175 C176 1.338 . S
C175 N178 1.377 . S
C175 H195 0.930 . S
C176 N174 1.375 . S
C176 C175 1.338 . S
C176 H180 0.931 . S
C177 N174 1.313 . S
C177 N178 1.344 . S
C177 H181 0.930 . S
N178 C175 1.377 . S
N178 C177 1.344 . S
O179 Co171 2.055 . S
O179 C183 1.253 . S
H180 C176 0.931 . S
H181 C177 0.930 . S
O182 Co171 2.039 . S
O182 C172 1.265 . S
C183 O179 1.253 . S
C183 O184 1.227 . S
O184 C183 1.227 . S
N185 Co171 2.140 . S
N185 C188 1.346 . S
N185 C189 1.345 . S
C186 C187 1.387 . S
C186 C190 1.391 . S
C187 C186 1.387 . S
C187 C188 1.369 . S
C187 H196 0.929 . S
C188 N185 1.346 . S
C188 C187 1.369 . S
C188 H191 0.928 . S
C189 N185 1.345 . S
C189 C190 1.371 . S
C189 H192 0.931 . S
C190 C186 1.391 . S
C190 C189 1.371 . S
C190 H197 0.930 . S
H191 C188 0.928 . S
H192 C189 0.931 . S
H193 C169 0.930 . S
H194 C166 0.930 . S
H195 C175 0.930 . S
H196 C187 0.929 . S
H197 C190 0.930 . S
H198 C210 0.930 1_556 S
H199 C212 0.930 . S
H200 C213 0.930 . S
H201 C217 0.959 . S
H202 C217 0.959 . S
H203 C217 0.961 1_455 S
H204 C218 0.960 1_455 S
H205 C218 0.961 . S
H206 C218 0.959 . S
H207 C221 0.929 . S
H208 C222 0.931 . S
H209 C224 0.930 1_556 S
C210 H198 0.930 1_554 S
C210 C211 1.399 . S
C210 C215 1.399 . S
C211 C210 1.399 . S
C211 C212 1.376 . S
C212 H199 0.930 . S
C212 C211 1.376 . S
C212 C213 1.388 . S
C213 H200 0.930 . S
C213 C212 1.388 . S
C213 C214 1.390 . S
C214 C213 1.390 . S
C214 C215 1.394 . S
C214 C220 1.465 1_455 S
C215 C210 1.399 . S
C215 C214 1.394 . S
C215 C216 1.516 1_454 S
C216 C215 1.516 1_656 S
C216 C217 1.502 . S
C216 C218 1.561 . S
C216 C219 1.526 1_556 S
C217 H201 0.959 . S
C217 H202 0.959 . S
C217 H203 0.961 1_655 S
C217 C216 1.502 . S
C218 H204 0.960 1_655 S
C218 H205 0.961 . S
C218 H206 0.959 . S
C218 C216 1.561 . S
C219 C216 1.526 1_554 S
C219 C220 1.396 . S
C219 C224 1.390 . S
C220 C214 1.465 1_655 S
C220 C219 1.396 . S
C220 C221 1.399 . S
C221 H207 0.929 . S
C221 C220 1.399 . S
C221 C222 1.385 . S
C222 H208 0.931 . S
C222 C221 1.385 . S
C222 C223 1.389 . S
C223 C222 1.389 . S
C223 C224 1.387 . S
C224 H209 0.930 1_554 S
C224 C219 1.390 . S
C224 C223 1.387 . S
H225 C237 0.930 . S
H226 C239 0.930 1_556 S
H227 C240 0.930 . S
H228 C244 0.959 . S
H229 C244 0.959 . S
H230 C244 0.961 1_565 S
H231 C245 0.960 1_565 S
H232 C245 0.961 . S
H233 C245 0.959 . S
H234 C248 0.929 . S
H235 C249 0.931 . S
H236 C251 0.930 . S
C237 H225 0.930 . S
C237 C238 1.399 . S
C237 C242 1.399 . S
C238 C237 1.399 . S
C238 C239 1.376 . S
C239 H226 0.930 1_554 S
C239 C238 1.376 . S
C239 C240 1.388 1_554 S
C240 H227 0.930 . S
C240 C239 1.388 1_556 S
C240 C241 1.390 1_556 S
C241 C240 1.390 1_554 S
C241 C242 1.394 . S
C241 C247 1.465 1_565 S
C242 C237 1.399 . S
C242 C241 1.394 . S
C242 C243 1.516 1_565 S
C243 C242 1.516 1_545 S
C243 C244 1.502 . S
C243 C245 1.561 . S
C243 C246 1.526 . S
C244 H228 0.959 . S
C244 H229 0.959 . S
C244 H230 0.961 1_545 S
C244 C243 1.502 . S
C245 H231 0.960 1_545 S
C245 H232 0.961 . S
C245 H233 0.959 . S
C245 C243 1.561 . S
C246 C243 1.526 . S
C246 C247 1.396 . S
C246 C251 1.390 . S
C247 C241 1.465 1_545 S
C247 C246 1.396 . S
C247 C248 1.399 1_554 S
C248 H234 0.929 . S
C248 C247 1.399 1_556 S
C248 C249 1.385 . S
C249 H235 0.931 . S
C249 C248 1.385 . S
C249 C250 1.389 1_556 S
C250 C249 1.389 1_554 S
C250 C251 1.387 . S
C251 H236 0.930 . S
C251 C246 1.390 . S
C251 C250 1.387 . S
H252 C264 0.930 . S
H253 C266 0.930 . S
H254 C267 0.930 . S
H255 C271 0.959 . S
H256 C271 0.959 1_556 S
H257 C271 0.961 . S
H258 C272 0.960 . S
H259 C272 0.961 . S
H260 C272 0.959 . S
H261 C275 0.929 . S
H262 C276 0.931 . S
H263 C278 0.930 . S
C264 H252 0.930 . S
C264 C265 1.399 . S
C264 C269 1.399 . S
C265 C264 1.399 . S
C265 C266 1.376 . S
C266 H253 0.930 . S
C266 C265 1.376 . S
C266 C267 1.388 . S
C267 H254 0.930 . S
C267 C266 1.388 . S
C267 C268 1.390 . S
C268 C267 1.390 . S
C268 C269 1.394 . S
C268 C274 1.465 . S
C269 C264 1.399 . S
C269 C268 1.394 . S
C269 C270 1.516 . S
C270 C269 1.516 . S
C270 C271 1.502 . S
C270 C272 1.561 1_554 S
C270 C273 1.526 . S
C271 H255 0.959 . S
C271 H256 0.959 1_554 S
C271 H257 0.961 . S
C271 C270 1.502 . S
C272 H258 0.960 . S
C272 H259 0.961 . S
C272 H260 0.959 . S
C272 C270 1.561 1_556 S
C273 C270 1.526 . S
C273 C274 1.396 . S
C273 C278 1.390 . S
C274 C268 1.465 . S
C274 C273 1.396 . S
C274 C275 1.399 . S
C275 H261 0.929 . S
C275 C274 1.399 . S
C275 C276 1.385 . S
C276 H262 0.931 . S
C276 C275 1.385 . S
C276 C277 1.389 . S
C277 C276 1.389 . S
C277 C278 1.387 . S
C278 H263 0.930 . S
C278 C273 1.390 . S
C278 C277 1.387 . S
H279 C291 0.930 . S
H280 C293 0.930 . S
H281 C294 0.930 . S
H282 C298 0.959 . S
H283 C298 0.959 . S
H284 C298 0.961 . S
H285 C299 0.960 . S
H286 C299 0.961 . S
H287 C299 0.959 . S
H288 C302 0.929 . S
H289 C303 0.931 . S
H290 C305 0.930 . S
C291 H279 0.930 . S
C291 C292 1.399 . S
C291 C296 1.399 . S
C292 C291 1.399 . S
C292 C293 1.376 . S
C293 H280 0.930 . S
C293 C292 1.376 . S
C293 C294 1.388 . S
C294 H281 0.930 . S
C294 C293 1.388 . S
C294 C295 1.390 . S
C295 C294 1.390 . S
C295 C296 1.394 . S
C295 C301 1.465 . S
C296 C291 1.399 . S
C296 C295 1.394 . S
C296 C297 1.516 . S
C297 C296 1.516 . S
C297 C298 1.502 . S
C297 C299 1.561 . S
C297 C300 1.526 . S
C298 H282 0.959 . S
C298 H283 0.959 . S
C298 H284 0.961 . S
C298 C297 1.502 . S
C299 H285 0.960 . S
C299 H286 0.961 . S
C299 H287 0.959 . S
C299 C297 1.561 . S
C300 C297 1.526 . S
C300 C301 1.396 . S
C300 C305 1.390 . S
C301 C295 1.465 . S
C301 C300 1.396 . S
C301 C302 1.399 . S
C302 H288 0.929 . S
C302 C301 1.399 . S
C302 C303 1.385 . S
C303 H289 0.931 . S
C303 C302 1.385 . S
C303 C304 1.389 . S
C304 C303 1.389 . S
C304 C305 1.387 . S
C305 H290 0.930 . S
C305 C300 1.390 . S
C305 C304 1.387 . S
H306 C318 0.930 . S
H307 C320 0.930 . S
H308 C321 0.930 . S
H309 C325 0.959 . S
H310 C325 0.959 . S
H311 C325 0.961 . S
H312 C326 0.960 . S
H313 C326 0.961 . S
H314 C326 0.959 . S
H315 C329 0.929 . S
H316 C330 0.931 . S
H317 C332 0.930 . S
C318 H306 0.930 . S
C318 C319 1.399 . S
C318 C323 1.399 . S
C319 C318 1.399 . S
C319 C320 1.376 . S
C320 H307 0.930 . S
C320 C319 1.376 . S
C320 C321 1.388 . S
C321 H308 0.930 . S
C321 C320 1.388 . S
C321 C322 1.390 . S
C322 C321 1.390 . S
C322 C323 1.394 . S
C322 C328 1.465 . S
C323 C318 1.399 . S
C323 C322 1.394 . S
C323 C324 1.516 . S
C324 C323 1.516 . S
C324 C325 1.502 . S
C324 C326 1.561 . S
C324 C327 1.526 . S
C325 H309 0.959 . S
C325 H310 0.959 . S
C325 H311 0.961 . S
C325 C324 1.502 . S
C326 H312 0.960 . S
C326 H313 0.961 . S
C326 H314 0.959 . S
C326 C324 1.561 . S
C327 C324 1.526 . S
C327 C328 1.396 . S
C327 C332 1.390 . S
C328 C322 1.465 . S
C328 C327 1.396 . S
C328 C329 1.399 . S
C329 H315 0.929 . S
C329 C328 1.399 . S
C329 C330 1.385 . S
C330 H316 0.931 . S
C330 C329 1.385 . S
C330 C331 1.389 . S
C331 C330 1.389 . S
C331 C332 1.387 . S
C332 H317 0.930 . S
C332 C327 1.390 . S
C332 C331 1.387 . S
H333 C345 0.930 . S
H334 C347 0.930 . S
H335 C348 0.930 . S
H336 C352 0.959 . S
H337 C352 0.959 . S
H338 C352 0.961 . S
H339 C353 0.960 . S
H340 C353 0.961 . S
H341 C353 0.959 . S
H342 C356 0.929 . S
H343 C357 0.931 . S
H344 C359 0.930 . S
C345 H333 0.930 . S
C345 C346 1.399 . S
C345 C350 1.399 . S
C346 C345 1.399 . S
C346 C347 1.376 . S
C347 H334 0.930 . S
C347 C346 1.376 . S
C347 C348 1.388 . S
C348 H335 0.930 . S
C348 C347 1.388 . S
C348 C349 1.390 . S
C349 C348 1.390 . S
C349 C350 1.394 . S
C349 C355 1.465 . S
C350 C345 1.399 . S
C350 C349 1.394 . S
C350 C351 1.516 . S
C351 C350 1.516 . S
C351 C352 1.502 . S
C351 C353 1.561 . S
C351 C354 1.526 . S
C352 H336 0.959 . S
C352 H337 0.959 . S
C352 H338 0.961 . S
C352 C351 1.502 . S
C353 H339 0.960 . S
C353 H340 0.961 . S
C353 H341 0.959 . S
C353 C351 1.561 . S
C354 C351 1.526 . S
C354 C355 1.396 . S
C354 C359 1.390 . S
C355 C349 1.465 . S
C355 C354 1.396 . S
C355 C356 1.399 . S
C356 H342 0.929 . S
C356 C355 1.399 . S
C356 C357 1.385 . S
C357 H343 0.931 . S
C357 C356 1.385 . S
C357 C358 1.389 . S
C358 C357 1.389 . S
C358 C359 1.387 . S
C359 H344 0.930 . S
C359 C354 1.390 . S
C359 C358 1.387 . S
H360 C372 0.930 . S
H361 C374 0.930 . S
H362 C375 0.930 . S
H363 C379 0.959 . S
H364 C379 0.959 . S
H365 C379 0.961 . S
H366 C380 0.960 . S
H367 C380 0.961 . S
H368 C380 0.959 . S
H369 C383 0.929 . S
H370 C384 0.931 . S
H371 C386 0.930 . S
C372 H360 0.930 . S
C372 C373 1.399 . S
C372 C377 1.399 . S
C373 C372 1.399 . S
C373 C374 1.376 . S
C374 H361 0.930 . S
C374 C373 1.376 . S
C374 C375 1.388 . S
C375 H362 0.930 . S
C375 C374 1.388 . S
C375 C376 1.390 . S
C376 C375 1.390 . S
C376 C377 1.394 . S
C376 C382 1.465 . S
C377 C372 1.399 . S
C377 C376 1.394 . S
C377 C378 1.516 . S
C378 C377 1.516 . S
C378 C379 1.502 . S
C378 C380 1.561 . S
C378 C381 1.526 . S
C379 H363 0.959 . S
C379 H364 0.959 . S
C379 H365 0.961 . S
C379 C378 1.502 . S
C380 H366 0.960 . S
C380 H367 0.961 . S
C380 H368 0.959 . S
C380 C378 1.561 . S
C381 C378 1.526 . S
C381 C382 1.396 . S
C381 C386 1.390 . S
C382 C376 1.465 . S
C382 C381 1.396 . S
C382 C383 1.399 . S
C383 H369 0.929 . S
C383 C382 1.399 . S
C383 C384 1.385 . S
C384 H370 0.931 . S
C384 C383 1.385 . S
C384 C385 1.389 . S
C385 C384 1.389 . S
C385 C386 1.387 . S
C386 H371 0.930 . S
C386 C381 1.390 . S
C386 C385 1.387 . S
H387 C399 0.930 . S
H388 C401 0.930 . S
H389 C402 0.930 . S
H390 C406 0.959 . S
H391 C406 0.959 . S
H392 C406 0.961 . S
H393 C407 0.960 . S
H394 C407 0.961 . S
H395 C407 0.959 . S
H396 C410 0.929 . S
H397 C411 0.931 . S
H398 C413 0.930 . S
C399 H387 0.930 . S
C399 C400 1.399 . S
C399 C404 1.399 . S
C400 C399 1.399 . S
C400 C401 1.376 . S
C401 H388 0.930 . S
C401 C400 1.376 . S
C401 C402 1.388 . S
C402 H389 0.930 . S
C402 C401 1.388 . S
C402 C403 1.390 . S
C403 C402 1.390 . S
C403 C404 1.394 . S
C403 C409 1.465 . S
C404 C399 1.399 . S
C404 C403 1.394 . S
C404 C405 1.516 . S
C405 C404 1.516 . S
C405 C406 1.502 . S
C405 C407 1.561 . S
C405 C408 1.526 . S
C406 H390 0.959 . S
C406 H391 0.959 . S
C406 H392 0.961 . S
C406 C405 1.502 . S
C407 H393 0.960 . S
C407 H394 0.961 . S
C407 H395 0.959 . S
C407 C405 1.561 . S
C408 C405 1.526 . S
C408 C409 1.396 . S
C408 C413 1.390 . S
C409 C403 1.465 . S
C409 C408 1.396 . S
C409 C410 1.399 . S
C410 H396 0.929 . S
C410 C409 1.399 . S
C410 C411 1.385 . S
C411 H397 0.931 . S
C411 C410 1.385 . S
C411 C412 1.389 . S
C412 C411 1.389 . S
C412 C413 1.387 . S
C413 H398 0.930 . S
C413 C408 1.390 . S
C413 C412 1.387 . S
H414 C426 0.930 . S
H415 C428 0.930 . S
H416 C429 0.930 . S
H417 C433 0.959 . S
H418 C433 0.959 . S
H419 C433 0.961 . S
H420 C434 0.960 . S
H421 C434 0.961 . S
H422 C434 0.959 . S
H423 C437 0.929 . S
H424 C438 0.931 . S
H425 C440 0.930 . S
C426 H414 0.930 . S
C426 C427 1.399 . S
C426 C431 1.399 . S
C427 C426 1.399 . S
C427 C428 1.376 . S
C428 H415 0.930 . S
C428 C427 1.376 . S
C428 C429 1.388 . S
C429 H416 0.930 . S
C429 C428 1.388 . S
C429 C430 1.390 . S
C430 C429 1.390 . S
C430 C431 1.394 . S
C430 C436 1.465 . S
C431 C426 1.399 . S
C431 C430 1.394 . S
C431 C432 1.516 . S
C432 C431 1.516 . S
C432 C433 1.502 . S
C432 C434 1.561 . S
C432 C435 1.526 . S
C433 H417 0.959 . S
C433 H418 0.959 . S
C433 H419 0.961 . S
C433 C432 1.502 . S
C434 H420 0.960 . S
C434 H421 0.961 . S
C434 H422 0.959 . S
C434 C432 1.561 . S
C435 C432 1.526 . S
C435 C436 1.396 . S
C435 C440 1.390 . S
C436 C430 1.465 . S
C436 C435 1.396 . S
C436 C437 1.399 . S
C437 H423 0.929 . S
C437 C436 1.399 . S
C437 C438 1.385 . S
C438 H424 0.931 . S
C438 C437 1.385 . S
C438 C439 1.389 . S
C439 C438 1.389 . S
C439 C440 1.387 . S
C440 H425 0.930 . S
C440 C435 1.390 . S
C440 C439 1.387 . S
H441 C453 0.930 . S
H442 C455 0.930 . S
H443 C456 0.930 . S
H444 C460 0.959 . S
H445 C460 0.959 . S
H446 C460 0.961 . S
H447 C461 0.960 . S
H448 C461 0.961 . S
H449 C461 0.959 . S
H450 C464 0.929 . S
H451 C465 0.931 . S
H452 C467 0.930 . S
C453 H441 0.930 . S
C453 C454 1.399 . S
C453 C458 1.399 . S
C454 C453 1.399 . S
C454 C455 1.376 1_554 S
C455 H442 0.930 . S
C455 C454 1.376 1_556 S
C455 C456 1.388 . S
C456 H443 0.930 . S
C456 C455 1.388 . S
C456 C457 1.390 1_556 S
C457 C456 1.390 1_554 S
C457 C458 1.394 . S
C457 C463 1.465 . S
C458 C453 1.399 . S
C458 C457 1.394 . S
C458 C459 1.516 . S
C459 C458 1.516 . S
C459 C460 1.502 . S
C459 C461 1.561 . S
C459 C462 1.526 . S
C460 H444 0.959 . S
C460 H445 0.959 . S
C460 H446 0.961 . S
C460 C459 1.502 . S
C461 H447 0.960 . S
C461 H448 0.961 . S
C461 H449 0.959 . S
C461 C459 1.561 . S
C462 C459 1.526 . S
C462 C463 1.396 . S
C462 C467 1.390 . S
C463 C457 1.465 . S
C463 C462 1.396 . S
C463 C464 1.399 1_554 S
C464 H450 0.929 . S
C464 C463 1.399 1_556 S
C464 C465 1.385 . S
C465 H451 0.931 . S
C465 C464 1.385 . S
C465 C466 1.389 1_556 S
C466 C465 1.389 1_554 S
C466 C467 1.387 . S
C467 H452 0.930 . S
C467 C462 1.390 . S
C467 C466 1.387 . S
H468 C480 0.930 1_556 S
H469 C482 0.930 . S
H470 C483 0.930 . S
H471 C487 0.959 . S
H472 C487 0.959 . S
H473 C487 0.961 . S
H474 C488 0.960 . S
H475 C488 0.961 . S
H476 C488 0.959 . S
H477 C491 0.929 . S
H478 C492 0.931 . S
H479 C494 0.930 1_556 S
C480 H468 0.930 1_554 S
C480 C481 1.399 . S
C480 C485 1.399 . S
C481 C480 1.399 . S
C481 C482 1.376 . S
C482 H469 0.930 . S
C482 C481 1.376 . S
C482 C483 1.388 . S
C483 H470 0.930 . S
C483 C482 1.388 . S
C483 C484 1.390 . S
C484 C483 1.390 . S
C484 C485 1.394 . S
C484 C490 1.465 . S
C485 C480 1.399 . S
C485 C484 1.394 . S
C485 C486 1.516 1_554 S
C486 C485 1.516 1_556 S
C486 C487 1.502 . S
C486 C488 1.561 . S
C486 C489 1.526 1_556 S
C487 H471 0.959 . S
C487 H472 0.959 . S
C487 H473 0.961 . S
C487 C486 1.502 . S
C488 H474 0.960 . S
C488 H475 0.961 . S
C488 H476 0.959 . S
C488 C486 1.561 . S
C489 C486 1.526 1_554 S
C489 C490 1.396 . S
C489 C494 1.390 . S
C490 C484 1.465 . S
C490 C489 1.396 . S
C490 C491 1.399 . S
C491 H477 0.929 . S
C491 C490 1.399 . S
C491 C492 1.385 . S
C492 H478 0.931 . S
C492 C491 1.385 . S
C492 C493 1.389 . S
C493 C492 1.389 . S
C493 C494 1.387 . S
C494 H479 0.930 1_554 S
C494 C489 1.390 . S
C494 C493 1.387 . S
H495 C507 0.930 . S
H496 C509 0.930 . S
H497 C510 0.930 . S
H498 C514 0.959 . S
H499 C514 0.959 1_556 S
H500 C514 0.961 1_556 S
H501 C515 0.960 . S
H502 C515 0.961 . S
H503 C515 0.959 . S
H504 C518 0.929 . S
H505 C519 0.931 . S
H506 C521 0.930 . S
C507 H495 0.930 . S
C507 C508 1.399 . S
C507 C512 1.399 . S
C508 C507 1.399 . S
C508 C509 1.376 . S
C509 H496 0.930 . S
C509 C508 1.376 . S
C509 C510 1.388 . S
C510 H497 0.930 . S
C510 C509 1.388 . S
C510 C511 1.390 . S
C511 C510 1.390 . S
C511 C512 1.394 . S
C511 C517 1.465 . S
C512 C507 1.399 . S
C512 C511 1.394 . S
C512 C513 1.516 . S
C513 C512 1.516 . S
C513 C514 1.502 . S
C513 C515 1.561 1_554 S
C513 C516 1.526 . S
C514 H498 0.959 . S
C514 H499 0.959 1_554 S
C514 H500 0.961 1_554 S
C514 C513 1.502 . S
C515 H501 0.960 . S
C515 H502 0.961 . S
C515 H503 0.959 . S
C515 C513 1.561 1_556 S
C516 C513 1.526 . S
C516 C517 1.396 . S
C516 C521 1.390 . S
C517 C511 1.465 . S
C517 C516 1.396 . S
C517 C518 1.399 . S
C518 H504 0.929 . S
C518 C517 1.399 . S
C518 C519 1.385 . S
C519 H505 0.931 . S
C519 C518 1.385 . S
C519 C520 1.389 . S
C520 C519 1.389 . S
C520 C521 1.387 . S
C521 H506 0.930 . S
C521 C516 1.390 . S
C521 C520 1.387 . S
H522 C534 0.930 . S
H523 C536 0.930 . S
H524 C537 0.930 . S
H525 C541 0.959 . S
H526 C541 0.959 1_556 S
H527 C541 0.961 . S
H528 C542 0.960 . S
H529 C542 0.961 . S
H530 C542 0.959 . S
H531 C545 0.929 . S
H532 C546 0.931 . S
H533 C548 0.930 . S
C534 H522 0.930 . S
C534 C535 1.399 . S
C534 C539 1.399 . S
C535 C534 1.399 . S
C535 C536 1.376 . S
C536 H523 0.930 . S
C536 C535 1.376 . S
C536 C537 1.388 . S
C537 H524 0.930 . S
C537 C536 1.388 . S
C537 C538 1.390 . S
C538 C537 1.390 . S
C538 C539 1.394 . S
C538 C544 1.465 . S
C539 C534 1.399 . S
C539 C538 1.394 . S
C539 C540 1.516 . S
C540 C539 1.516 . S
C540 C541 1.502 . S
C540 C542 1.561 1_554 S
C540 C543 1.526 . S
C541 H525 0.959 . S
C541 H526 0.959 1_554 S
C541 H527 0.961 . S
C541 C540 1.502 . S
C542 H528 0.960 . S
C542 H529 0.961 . S
C542 H530 0.959 . S
C542 C540 1.561 1_556 S
C543 C540 1.526 . S
C543 C544 1.396 . S
C543 C548 1.390 . S
C544 C538 1.465 . S
C544 C543 1.396 . S
C544 C545 1.399 . S
C545 H531 0.929 . S
C545 C544 1.399 . S
C545 C546 1.385 . S
C546 H532 0.931 . S
C546 C545 1.385 . S
C546 C547 1.389 . S
C547 C546 1.389 . S
C547 C548 1.387 . S
C548 H533 0.930 . S
C548 C543 1.390 . S
C548 C547 1.387 . S
H549 C561 0.930 . S
H550 C563 0.930 . S
H551 C564 0.930 . S
H552 C568 0.959 . S
H553 C568 0.959 . S
H554 C568 0.961 . S
H555 C569 0.960 . S
H556 C569 0.961 . S
H557 C569 0.959 . S
H558 C572 0.929 . S
H559 C573 0.931 1_556 S
H560 C575 0.930 . S
C561 H549 0.930 . S
C561 C562 1.399 . S
C561 C566 1.399 . S
C562 C561 1.399 . S
C562 C563 1.376 1_554 S
C563 H550 0.930 . S
C563 C562 1.376 1_556 S
C563 C564 1.388 . S
C564 H551 0.930 . S
C564 C563 1.388 . S
C564 C565 1.390 1_556 S
C565 C564 1.390 1_554 S
C565 C566 1.394 . S
C565 C571 1.465 . S
C566 C561 1.399 . S
C566 C565 1.394 . S
C566 C567 1.516 . S
C567 C566 1.516 . S
C567 C568 1.502 . S
C567 C569 1.561 . S
C567 C570 1.526 . S
C568 H552 0.959 . S
C568 H553 0.959 . S
C568 H554 0.961 . S
C568 C567 1.502 . S
C569 H555 0.960 . S
C569 H556 0.961 . S
C569 H557 0.959 . S
C569 C567 1.561 . S
C570 C567 1.526 . S
C570 C571 1.396 . S
C570 C575 1.390 . S
C571 C565 1.465 . S
C571 C570 1.396 . S
C571 C572 1.399 1_554 S
C572 H558 0.929 . S
C572 C571 1.399 1_556 S
C572 C573 1.385 1_556 S
C573 H559 0.931 1_554 S
C573 C572 1.385 1_554 S
C573 C574 1.389 . S
C574 C573 1.389 . S
C574 C575 1.387 . S
C575 H560 0.930 . S
C575 C570 1.390 . S
C575 C574 1.387 . S
H576 C588 0.930 . S
H577 C590 0.930 . S
H578 C591 0.930 . S
H579 C595 0.959 . S
H580 C595 0.959 . S
H581 C595 0.961 . S
H582 C596 0.960 . S
H583 C596 0.961 . S
H584 C596 0.959 . S
H585 C599 0.929 . S
H586 C600 0.931 1_556 S
H587 C602 0.930 . S
C588 H576 0.930 . S
C588 C589 1.399 . S
C588 C593 1.399 . S
C589 C588 1.399 . S
C589 C590 1.376 1_554 S
C590 H577 0.930 . S
C590 C589 1.376 1_556 S
C590 C591 1.388 . S
C591 H578 0.930 . S
C591 C590 1.388 . S
C591 C592 1.390 1_556 S
C592 C591 1.390 1_554 S
C592 C593 1.394 . S
C592 C598 1.465 . S
C593 C588 1.399 . S
C593 C592 1.394 . S
C593 C594 1.516 . S
C594 C593 1.516 . S
C594 C595 1.502 . S
C594 C596 1.561 . S
C594 C597 1.526 . S
C595 H579 0.959 . S
C595 H580 0.959 . S
C595 H581 0.961 . S
C595 C594 1.502 . S
C596 H582 0.960 . S
C596 H583 0.961 . S
C596 H584 0.959 . S
C596 C594 1.561 . S
C597 C594 1.526 . S
C597 C598 1.396 . S
C597 C602 1.390 . S
C598 C592 1.465 . S
C598 C597 1.396 . S
C598 C599 1.399 1_554 S
C599 H585 0.929 . S
C599 C598 1.399 1_556 S
C599 C600 1.385 1_556 S
C600 H586 0.931 1_554 S
C600 C599 1.385 1_554 S
C600 C601 1.389 . S
C601 C600 1.389 . S
C601 C602 1.387 . S
C602 H587 0.930 . S
C602 C597 1.390 . S
C602 C601 1.387 . S
C211 C18 0.974 . S
C223 C117 0.994 . S
C238 C150 0.843 . S
C250 C51 0.877 . S
C265 C183 0.959 . S
C277 C84 0.975 . S
C292 N13 1.480 . S
C304 N2 1.412 . S
C319 N46 1.457 . S
C331 N35 1.427 . S
C346 N68 1.488 . S
C358 N79 1.421 . S
C373 N112 1.469 . S
C385 N101 1.431 . S
C400 N134 1.411 . S
C412 N145 1.474 . S
C427 N178 1.484 . S
C439 N167 1.420 . S
C454 C21 0.826 . S
C466 C73 0.795 . S
C481 C54 0.668 . S
C493 C120 0.684 . S
C508 C87 0.673 . S
C520 C153 0.670 . S
C535 C106 0.824 . S
C547 C172 0.875 . S
C562 C7 0.880 . S
C574 C139 0.897 . S
C589 C40 0.748 . S
C601 C186 0.784 . S
